data_POSCAR
  _audit_creation_date              2014-09-24
  _audit_creation_method            'ToBaCCo'
  _symmetry_space_group_name_H-M    'P1'
  _symmetry_Int_Tables_number       1
  _symmetry_cell_setting            triclinic
  loop_
  _symmetry_equiv_pos_as_xyz
 x,y,z
_cell_length_a 33.2455
_cell_length_b 33.2613
_cell_length_c 33.2686
_cell_angle_alpha 89.833200
_cell_angle_beta 89.868500
_cell_angle_gamma 90.139000
loop_
  _atom_site_label
  _atom_site_type_symbol
  _atom_site_fract_x
  _atom_site_fract_y
  _atom_site_fract_z
C1 C 0.19938 0.18210 0.23962
 C2 C 0.16727 0.18905 0.26609
 C3 C 0.14049 0.22118 0.25966
 C4 C 0.14666 0.24659 0.22625
 C5 C 0.17907 0.24043 0.19993
 C6 C 0.20539 0.20792 0.20647
 C7 C 0.22568 0.14978 0.24592
 C8 C 0.25832 0.14304 0.21977
 C9 C 0.26406 0.16908 0.18680
 C10 C 0.23778 0.20130 0.17993
 C11 C 0.24359 0.22714 0.14703
 C12 C 0.21795 0.26019 0.14057
 C13 C 0.18567 0.26646 0.16730
 H14 H 0.16359 0.16970 0.29209
 H15 H 0.12597 0.27099 0.22028
 H16 H 0.22035 0.12958 0.27099
 H17 H 0.28945 0.16478 0.16681
 H18 H 0.26800 0.22118 0.12628
 H19 H 0.16602 0.29209 0.16328
 C20 C 0.70043 0.68240 0.74103
 C21 C 0.66851 0.68945 0.76770
 C22 C 0.64174 0.72158 0.76134
 C23 C 0.64773 0.74697 0.72787
 C24 C 0.67990 0.74065 0.70128
 C25 C 0.70618 0.70808 0.70770
 C26 C 0.72678 0.65011 0.74726
 C27 C 0.75901 0.64313 0.72070
 C28 C 0.76445 0.66889 0.68751
 C29 C 0.73828 0.70123 0.68085
 C30 C 0.74393 0.72696 0.64786
 C31 C 0.71836 0.76007 0.64153
 C32 C 0.68628 0.76653 0.66846
 H33 H 0.66489 0.67013 0.79374
 H34 H 0.62705 0.77141 0.72207
 H35 H 0.72182 0.63009 0.77255
 H36 H 0.78954 0.66425 0.66721
 H37 H 0.76816 0.72090 0.62693
 H38 H 0.66665 0.79217 0.66442
 C39 C 0.29751 0.81913 0.73958
 C40 C 0.32984 0.81281 0.76591
 C41 C 0.35740 0.78139 0.75932
 C42 C 0.35194 0.75611 0.72589
 C43 C 0.31941 0.76164 0.69976
 C44 C 0.29226 0.79345 0.70643
 C45 C 0.27044 0.85081 0.74596
 C46 C 0.23794 0.85775 0.71948
 C47 C 0.23311 0.83135 0.68653
 C48 C 0.25980 0.79946 0.68001
 C49 C 0.25423 0.77323 0.64755
 C50 C 0.28070 0.74095 0.64107
 C51 C 0.31346 0.73562 0.66720
 H52 H 0.33313 0.83207 0.79191
 H53 H 0.37322 0.73226 0.71986
 H54 H 0.27618 0.87097 0.77076
 H55 H 0.20763 0.83423 0.66656
 H56 H 0.22939 0.77816 0.62708
 H57 H 0.33384 0.71063 0.66277
 C58 C 0.79859 0.31834 0.24126
 C59 C 0.83052 0.31191 0.26798
 C60 C 0.85743 0.27939 0.26291
 C61 C 0.85082 0.25315 0.23009
 C62 C 0.81887 0.25919 0.20325
 C63 C 0.79282 0.29203 0.20870
 C64 C 0.77215 0.35067 0.24685
 C65 C 0.73998 0.35717 0.22024
 C66 C 0.73476 0.33101 0.18752
 C67 C 0.76091 0.29853 0.18161
 C68 C 0.75546 0.27234 0.14914
 C69 C 0.78097 0.23906 0.14361
 C70 C 0.81266 0.23281 0.17095
 H71 H 0.83303 0.33170 0.29359
 H72 H 0.87134 0.22876 0.22389
 H73 H 0.77692 0.37111 0.27171
 H74 H 0.70980 0.33542 0.16709
 H75 H 0.73148 0.27821 0.12795
 H76 H 0.83217 0.20700 0.16756
 C77 C 0.79921 0.67835 0.25895
 C78 C 0.83145 0.68506 0.23250
 C79 C 0.85839 0.71763 0.23800
 C80 C 0.85150 0.74354 0.27097
 C81 C 0.81925 0.73720 0.29757
 C82 C 0.79315 0.70438 0.29168
 C83 C 0.77269 0.64607 0.25287
 C84 C 0.74009 0.63938 0.27911
 C85 C 0.73459 0.66525 0.31202
 C86 C 0.76085 0.69767 0.31845
 C87 C 0.75510 0.72362 0.35109
 C88 C 0.78071 0.75685 0.35707
 C89 C 0.81276 0.76331 0.33002
 H90 H 0.83417 0.66549 0.20673
 H91 H 0.87200 0.76795 0.27744
 H92 H 0.77770 0.62585 0.22787
 H93 H 0.70932 0.66070 0.33218
 H94 H 0.73079 0.71764 0.37201
 H95 H 0.83233 0.78912 0.33373
 C96 C 0.30046 0.17852 -0.23992
 C97 C 0.33300 0.18490 -0.26610
 C98 C 0.35950 0.21790 -0.26105
 C99 C 0.35205 0.24445 -0.22875
 C100 C 0.31963 0.23831 -0.20231
 C101 C 0.29381 0.20520 -0.20785
 C102 C 0.27422 0.14593 -0.24565
 C103 C 0.24109 0.13975 -0.21991
 C104 C 0.23503 0.16636 -0.18766
 C105 C 0.26122 0.19884 -0.18138
 C106 C 0.25512 0.22519 -0.14914
 C107 C 0.28060 0.25855 -0.14334
 C108 C 0.31273 0.26488 -0.17032
 H109 H 0.33624 0.16478 -0.29139
 H110 H 0.37226 0.26921 -0.22267
 H111 H 0.27985 0.12516 -0.27005
 H112 H 0.20938 0.16237 -0.16788
 H113 H 0.23071 0.21931 -0.12831
 H114 H 0.33213 0.29085 -0.16687
 C115 C 0.70127 0.31926 -0.23936
 C116 C 0.66926 0.31219 -0.26583
 C117 C 0.64304 0.27899 -0.26055
 C118 C 0.65031 0.25282 -0.22772
 C119 C 0.68225 0.25960 -0.20103
 C120 C 0.70773 0.29300 -0.20677
 C121 C 0.72713 0.35217 -0.24526
 C122 C 0.75952 0.35922 -0.21904
 C123 C 0.76542 0.33306 -0.18629
 C124 C 0.73975 0.30010 -0.17997
 C125 C 0.74580 0.27403 -0.14736
 C126 C 0.72071 0.24036 -0.14139
 C127 C 0.68901 0.23342 -0.16855
 H128 H 0.66619 0.33200 -0.29148
 H129 H 0.63029 0.22789 -0.22143
 H130 H 0.72175 0.37257 -0.27013
 H131 H 0.79054 0.33784 -0.16613
 H132 H 0.76985 0.28032 -0.12637
 H133 H 0.66988 0.20725 -0.16484
 C134 C 0.20287 0.81881 0.26079
 C135 C 0.17051 0.81189 0.23464
 C136 C 0.14336 0.78001 0.24152
 C137 C 0.14935 0.75482 0.27506
 C138 C 0.18200 0.76089 0.30096
 C139 C 0.20870 0.79317 0.29398
 C140 C 0.22933 0.85110 0.25419
 C141 C 0.26195 0.85866 0.28041
 C142 C 0.26742 0.83224 0.31337
 C143 C 0.24126 0.79975 0.32017
 C144 C 0.24738 0.77352 0.35272
 C145 C 0.22126 0.74085 0.35956
 C146 C 0.18844 0.73498 0.33363
 H147 H 0.16690 0.83110 0.20855
 H148 H 0.12838 0.73063 0.28141
 H149 H 0.22295 0.87124 0.22944
 H150 H 0.29296 0.83563 0.33318
 H151 H 0.27230 0.77880 0.37300
 H152 H 0.16835 0.70968 0.33834
 C153 C 0.43190 0.45038 0.49064
 C154 C 0.43889 0.41818 0.51704
 C155 C 0.47036 0.39078 0.50993
 C156 C 0.49500 0.39636 0.47581
 C157 C 0.48894 0.42894 0.44967
 C158 C 0.45716 0.45596 0.45698
 C159 C 0.40006 0.47716 0.49745
 C160 C 0.39314 0.50961 0.47111
 C161 C 0.41883 0.51516 0.43789
 C162 C 0.45071 0.48862 0.43067
 C163 C 0.47635 0.49437 0.39761
 C164 C 0.50854 0.46795 0.39040
 C165 C 0.51437 0.43508 0.41647
 H166 H 0.42008 0.41494 0.54348
 H167 H 0.51878 0.37518 0.46923
 H168 H 0.38022 0.47229 0.52290
 H169 H 0.41432 0.54051 0.41786
 H170 H 0.47103 0.51930 0.37729
 H171 H 0.53932 0.41477 0.41147
 C172 C -0.06766 -0.04781 0.99252
 C173 C -0.06056 -0.07969 1.01934
 C174 C -0.02868 -0.10675 1.01284
 C175 C -0.00356 -0.10104 0.97915
 C176 C -0.00985 -0.06893 0.95255
 C177 C -0.04228 -0.04248 0.95899
 C178 C -0.09987 -0.02133 0.99876
 C179 C -0.10759 0.01079 0.97184
 C180 C -0.08163 0.01549 0.93836
 C181 C -0.04926 -0.01069 0.93191
 C182 C -0.02352 -0.00526 0.89883
 C183 C 0.00956 -0.03089 0.89263
 C184 C 0.01596 -0.06283 0.91968
 H185 H -0.07967 -0.08306 1.04556
 H186 H 0.02064 -0.12193 0.97312
 H187 H -0.11976 -0.02724 1.02387
 H188 H -0.08513 0.04058 0.91791
 H189 H -0.02953 0.01885 0.87773
 H190 H 0.04155 -0.08254 0.91575
 C191 C 1.07005 0.54903 0.98882
 C192 C 1.06409 0.58133 1.01522
 C193 C 1.03184 0.60862 1.00995
 C194 C 1.00559 0.60217 0.97717
 C195 C 1.01118 0.56992 0.95065
 C196 C 1.04363 0.54338 0.95640
 C197 C 1.10213 0.52223 0.99461
 C198 C 1.10872 0.48966 0.96818
 C199 C 1.08184 0.48472 0.93565
 C200 C 1.04956 0.51112 0.92975
 C201 C 1.02290 0.50540 0.89767
 C202 C 0.99017 0.53144 0.89183
 C203 C 0.98467 0.56380 0.91841
 H204 H 1.08394 0.58381 1.04082
 H205 H 0.98144 0.62295 0.97084
 H206 H 1.12278 0.52814 1.01898
 H207 H 1.08455 0.45930 0.91561
 H208 H 1.02791 0.48083 0.87694
 H209 H 0.95929 0.58381 0.91448
 C210 C 0.57063 0.04804 0.48853
 C211 C 0.56388 0.07967 0.51559
 C212 C 0.53244 0.10733 0.50931
 C213 C 0.50739 0.10238 0.47556
 C214 C 0.51319 0.07039 0.44884
 C215 C 0.54525 0.04345 0.45504
 C216 C 0.60240 0.02098 0.49459
 C217 C 0.60971 -0.01089 0.46749
 C218 C 0.58377 -0.01487 0.43404
 C219 C 0.55178 0.01181 0.42784
 C220 C 0.52587 0.00687 0.39499
 C221 C 0.49292 0.03276 0.38920
 C222 C 0.48713 0.06475 0.41621
 H223 H 0.58288 0.08230 0.54185
 H224 H 0.48353 0.12367 0.46961
 H225 H 0.62227 0.02621 0.51974
 H226 H 0.58692 -0.03982 0.41349
 H227 H 0.53153 -0.01719 0.37386
 H228 H 0.46170 0.08472 0.41256
 C229 C -0.07013 0.04891 0.50992
 C230 C -0.06315 0.08121 0.48359
 C231 C -0.03118 0.10823 0.49019
 C232 C -0.00595 0.10215 0.52362
 C233 C -0.01217 0.06960 0.54981
 C234 C -0.04452 0.04302 0.54312
 C235 C -0.10226 0.02232 0.50343
 C236 C -0.10902 -0.01050 0.52944
 C237 C -0.08322 -0.01609 0.56248
 C238 C -0.05119 0.01048 0.56954
 C239 C -0.02557 0.00481 0.60250
 C240 C 0.00733 0.03072 0.60910
 C241 C 0.01366 0.06313 0.58247
 H242 H -0.08236 0.08485 0.45757
 H243 H 0.01832 0.12304 0.52969
 H244 H -0.12230 0.02755 0.47833
 H245 H -0.08755 -0.04159 0.58237
 H246 H -0.03157 -0.01973 0.62315
 H247 H 0.03920 0.08297 0.58655
 C248 C 0.42992 0.54954 0.00942
 C249 C 0.43579 0.58266 -0.01610
 C250 C 0.46872 0.60919 -0.01087
 C251 C 0.49549 0.60147 0.02121
 C252 C 0.48979 0.56852 0.04709
 C253 C 0.45701 0.54235 0.04106
 C254 C 0.39740 0.52329 0.00347
 C255 C 0.39174 0.48952 0.02846
 C256 C 0.41895 0.48266 0.06008
 C257 C 0.45133 0.50893 0.06666
 C258 C 0.47813 0.50224 0.09844
 C259 C 0.51075 0.52841 0.10500
 C260 C 0.51640 0.56143 0.07903
 H261 H 0.41542 0.58629 -0.04116
 H262 H 0.52012 0.62181 0.02745
 H263 H 0.37622 0.52947 -0.02046
 H264 H 0.41537 0.45649 0.07924
 H265 H 0.47315 0.47699 0.11852
 H266 H 0.54183 0.58138 0.08340
 C267 C 0.56871 -0.04819 0.01101
 C268 C 0.56194 -0.08041 -0.01524
 C269 C 0.52911 -0.10661 -0.00942
 C270 C 0.50295 -0.09998 0.02323
 C271 C 0.50906 -0.06758 0.04940
 C272 C 0.54211 -0.04163 0.04337
 C273 C 0.60159 -0.02232 0.00523
 C274 C 0.60809 0.01055 0.03101
 C275 C 0.58126 0.01687 0.06319
 C276 C 0.54852 -0.00907 0.06963
 C277 C 0.52198 -0.00285 0.10186
 C278 C 0.48867 -0.02841 0.10799
 C279 C 0.48250 -0.06070 0.08143
 H280 H 0.58194 -0.08462 -0.04063
 H281 H 0.47800 -0.12032 0.02866
 H282 H 0.62239 -0.02817 -0.01917
 H283 H 0.58539 0.04242 0.08290
 H284 H 0.52766 0.02168 0.12245
 H285 H 0.45661 -0.08020 0.08523
 C286 C 1.06856 0.45163 0.51075
 C287 C 1.06196 0.41912 0.48481
 C288 C 1.02913 0.39250 0.49049
 C289 C 1.00298 0.39976 0.52333
 C290 C 1.00921 0.43226 0.54942
 C291 C 1.04211 0.45828 0.54314
 C292 C 1.10119 0.47778 0.50455
 C293 C 1.10781 0.51058 0.53033
 C294 C 1.08129 0.51690 0.56269
 C295 C 1.04855 0.49100 0.56926
 C296 C 1.02212 0.49739 0.60151
 C297 C 0.98913 0.47160 0.60804
 C298 C 0.98297 0.43906 0.58181
 H299 H 1.08182 0.41597 0.45922
 H300 H 0.97844 0.37940 0.53003
 H301 H 1.12181 0.47224 0.47991
 H302 H 1.08575 0.54238 0.58243
 H303 H 1.02757 0.52219 0.62186
 H304 H 0.95732 0.41934 0.58622
 C305 C 0.42515 0.02376 0.18699
 H306 H 0.41886 0.05392 0.19732
 C307 C 0.45129 0.01788 0.15468
 H308 H 0.46408 0.04388 0.13973
 C309 C 0.41560 -0.04650 0.19410
 H310 H 0.40232 -0.07148 0.21025
 C311 C 0.44213 -0.05381 0.16236
 H312 H 0.44895 -0.08460 0.15449
 N313 N 0.40736 -0.00817 0.20547
 C314 C 0.32285 0.06509 0.27235
 H315 H 0.33002 0.05552 0.30259
 C316 C 0.29656 0.09719 0.26629
 H317 H 0.28458 0.11274 0.29220
 C318 C 0.33014 0.05628 0.20210
 H319 H 0.34256 0.03954 0.17721
 C320 C 0.30350 0.08782 0.19465
 H321 H 0.29577 0.09498 0.16387
 Zn322 Zn 0.37413 0.00182 0.25045
 N323 N 0.33977 0.04599 0.24047
 C324 C 0.41778 0.05073 0.30515
 N325 N 0.40923 0.01236 0.29394
 C326 C 0.42822 -0.01940 0.31123
 C327 C 0.45521 -0.01343 0.34269
 C328 C 0.44525 0.05816 0.33599
 C329 C 0.31982 -0.05866 0.22964
 C330 C 0.29388 -0.09127 0.23522
 C331 C 0.30992 -0.09048 0.30594
 C332 C 0.33553 -0.05785 0.29889
 N333 N 0.34052 -0.04307 0.26110
 H334 H 0.40398 0.07569 0.28960
 H335 H 0.42213 -0.04955 0.30073
 H336 H 0.46857 -0.03944 0.35694
 H337 H 0.45206 0.08898 0.34387
 H338 H 0.32386 -0.04595 0.19993
 H339 H 0.27967 -0.10372 0.20884
 H340 H 0.30587 -0.10018 0.33673
 H341 H 0.35065 -0.04378 0.32390
 C342 C 0.28650 0.10903 0.22698
 C343 C 0.46030 -0.02137 0.14198
 C344 C 0.28839 -0.10816 0.27389
 C345 C 0.46417 0.02581 0.35557
 C346 C 0.07008 -0.02176 0.68862
 H347 H 0.07577 -0.05194 0.69936
 C348 C 0.04372 -0.01570 0.65663
 H349 H 0.03043 -0.04166 0.64229
 C350 C 0.08114 0.04831 0.69441
 H351 H 0.09502 0.07321 0.70996
 C352 C 0.05423 0.05585 0.66310
 H353 H 0.04783 0.08671 0.65499
 N354 N 0.08913 0.00992 0.70599
 C355 C 0.17931 -0.06205 0.77253
 H356 H 0.17472 -0.04995 0.80234
 C357 C 0.20467 -0.09271 0.76701
 H358 H 0.21910 -0.10548 0.79317
 C359 C 0.16263 -0.05895 0.70300
 H360 H 0.14766 -0.04474 0.67796
 C361 C 0.19003 -0.09290 0.69543
 H362 H 0.19411 -0.10192 0.66450
 Zn363 Zn 0.12393 -0.00073 0.74973
 N364 N 0.15749 -0.04539 0.73926
 C365 C 0.08252 -0.04919 0.80657
 N366 N 0.09054 -0.01089 0.79461
 C367 C 0.07254 0.02102 0.81255
 C368 C 0.04644 0.01520 0.84495
 C369 C 0.05597 -0.05647 0.83840
 C370 C 0.17617 0.06197 0.72780
 C371 C 0.20291 0.09380 0.73375
 C372 C 0.19477 0.08520 0.80544
 C373 C 0.16773 0.05389 0.79807
 N374 N 0.15851 0.04335 0.75971
 H375 H 0.09601 -0.07418 0.79086
 H376 H 0.07871 0.05114 0.80178
 H377 H 0.03361 0.04124 0.85952
 H378 H 0.04935 -0.08725 0.84678
 H379 H 0.16928 0.05219 0.69760
 H380 H 0.21552 0.10897 0.70779
 H381 H 0.20216 0.09260 0.83621
 H382 H 0.15474 0.03750 0.82303
 C383 C 0.21087 -0.10980 0.72599
 C384 C 0.03538 0.02358 0.64332
 C385 C 0.21260 0.10588 0.77303
 C386 C 0.03764 -0.02401 0.85828
 C387 C 0.57605 0.47616 0.18231
 H388 H 0.58438 0.44595 0.19099
 C389 C 0.55034 0.48215 0.14974
 H390 H 0.53982 0.45635 0.13297
 C391 C 0.57928 0.54629 0.19412
 H392 H 0.58981 0.57108 0.21225
 C393 C 0.55347 0.55366 0.16188
 H394 H 0.54445 0.58425 0.15543
 N395 N 0.59061 0.50808 0.20322
 C396 C 0.67266 0.43337 0.27129
 H397 H 0.66366 0.44185 0.30134
 C398 C 0.69922 0.40142 0.26578
 H399 H 0.70964 0.38484 0.29178
 C400 C 0.67032 0.44516 0.20107
 H401 H 0.65980 0.46309 0.17607
 C402 C 0.69699 0.41354 0.19418
 H403 H 0.70661 0.40727 0.16374
 Zn404 Zn 0.62394 0.49834 0.24827
 N405 N 0.65811 0.45392 0.23908
 C406 C 0.57763 0.45024 0.30136
 N407 N 0.58934 0.48847 0.29252
 C408 C 0.57452 0.52034 0.31326
 C409 C 0.54825 0.51428 0.34551
 C410 C 0.55124 0.44279 0.33328
 C411 C 0.67334 0.56359 0.22650
 C412 C 0.69991 0.59552 0.23265
 C413 C 0.69614 0.58292 0.30411
 C414 C 0.66945 0.55135 0.29658
 N415 N 0.65801 0.54283 0.25831
 H416 H 0.58846 0.42548 0.28337
 H417 H 0.58321 0.55056 0.30481
 H418 H 0.53771 0.54004 0.36228
 H419 H 0.54208 0.41217 0.33965
 H420 H 0.66498 0.55529 0.19624
 H421 H 0.71095 0.61226 0.20692
 H422 H 0.70517 0.58896 0.33475
 H423 H 0.65832 0.53325 0.32128
 C424 C 0.71167 0.39105 0.22679
 C425 C 0.53872 0.52134 0.13909
 C426 C 0.71164 0.60562 0.27190
 C427 C 0.53635 0.47505 0.35602
 C428 C 0.92384 0.52391 0.68536
 H429 H 0.91578 0.55412 0.69413
 C430 C 0.94997 0.51793 0.65303
 H431 H 0.96110 0.54377 0.63653
 C432 C 0.91933 0.45369 0.69663
 H433 H 0.90813 0.42883 0.71445
 C434 C 0.94553 0.44633 0.66462
 H435 H 0.95413 0.41567 0.65802
 N436 N 0.90843 0.49196 0.70587
 C437 C 0.82518 0.56645 0.77282
 H438 H 0.83356 0.55777 0.80300
 C439 C 0.79882 0.59851 0.76691
 H440 H 0.78798 0.61497 0.79276
 C441 C 0.82901 0.55512 0.70265
 H442 H 0.84007 0.53737 0.67782
 C443 C 0.80244 0.58676 0.69537
 H444 H 0.79341 0.59313 0.66477
 Zn445 Zn 0.87448 0.50170 0.75057
 N446 N 0.84041 0.54611 0.74085
 C447 C 0.91960 0.54981 0.80432
 N448 N 0.90856 0.51156 0.79499
 C449 C 0.92398 0.47954 0.81517
 C450 C 0.95029 0.48540 0.84725
 C451 C 0.94604 0.55706 0.83607
 C452 C 0.82493 0.43691 0.72863
 C453 C 0.79871 0.40461 0.73464
 C454 C 0.80291 0.41581 0.80622
 C455 C 0.82932 0.44773 0.79883
 N456 N 0.84039 0.45712 0.76055
 H457 H 0.90838 0.57473 0.78672
 H458 H 0.91581 0.44935 0.80632
 H459 H 0.96141 0.45948 0.86350
 H460 H 0.95481 0.58769 0.84272
 H461 H 0.83307 0.44585 0.69841
 H462 H 0.78772 0.38826 0.70880
 H463 H 0.79418 0.40910 0.83689
 H464 H 0.84054 0.46536 0.82366
 C465 C 0.78714 0.60913 0.72773
 C466 C 0.96110 0.47869 0.64219
 C467 C 0.78740 0.39358 0.77388
 C468 C 0.96168 0.52460 0.85812
 C469 C 0.18919 0.43080 0.02068
 H470 H 0.20157 0.42624 0.05040
 C471 C 0.15873 0.45644 0.01531
 H472 H 0.14639 0.47112 0.04152
 C473 C 0.19140 0.41374 -0.04878
 H474 H 0.20515 0.39845 -0.07386
 C475 C 0.15763 0.44144 -0.05617
 H476 H 0.14827 0.44541 -0.08702
 N477 N 0.20529 0.40864 -0.01262
 C478 C 0.27062 0.32248 0.06036
 H479 H 0.30081 0.32818 0.04953
 C480 C 0.26448 0.29655 0.09283
 H481 H 0.29042 0.28343 0.10738
 C482 C 0.20053 0.33358 0.05456
 H483 H 0.17570 0.34751 0.03893
 C484 C 0.19292 0.30711 0.08639
 H485 H 0.16204 0.30093 0.09475
 Zn486 Zn 0.24958 0.37454 -0.00222
 N487 N 0.23894 0.34100 0.04249
 C488 C 0.30549 0.41665 0.04639
 N489 N 0.29406 0.40852 0.00803
 C490 C 0.31229 0.42671 -0.02381
 C491 C 0.34461 0.45283 -0.01785
 C492 C 0.33733 0.44306 0.05378
 C493 C 0.22831 0.32094 -0.06347
 C494 C 0.23427 0.29481 -0.09566
 C495 C 0.30584 0.30581 -0.08979
 C496 C 0.29840 0.33243 -0.05825
 N497 N 0.26005 0.34002 -0.04622
 H498 H 0.28941 0.40330 0.07136
 H499 H 0.30184 0.42065 -0.05396
 H500 H 0.35943 0.46589 -0.04380
 H501 H 0.34543 0.44962 0.08456
 H502 H 0.19819 0.32639 -0.05246
 H503 H 0.20827 0.28137 -0.10982
 H504 H 0.33667 0.29966 -0.09821
 H505 H 0.32338 0.34635 -0.04284
 C506 C 0.22516 0.28830 0.10626
 C507 C 0.14122 0.46256 -0.02556
 C508 C 0.27350 0.28680 -0.10932
 C509 C 0.35759 0.46140 0.02140
 C510 C 0.68837 0.07333 -0.02092
 H511 H 0.69888 0.07976 -0.05106
 C512 C 0.65575 0.04747 -0.01510
 H513 H 0.64080 0.03508 -0.04115
 C514 C 0.69520 0.08223 0.04933
 H515 H 0.71135 0.09511 0.07437
 C516 C 0.66313 0.05596 0.05659
 H517 H 0.65499 0.04898 0.08735
 N518 N 0.70672 0.09089 0.01102
 C519 C 0.77291 0.17830 -0.06108
 H520 H 0.80304 0.17268 -0.05027
 C521 C 0.76699 0.20434 -0.09350
 H522 H 0.79299 0.21766 -0.10799
 C523 C 0.70276 0.16733 -0.05516
 H524 H 0.67774 0.15369 -0.03939
 C525 C 0.69539 0.19372 -0.08703
 H526 H 0.66458 0.19993 -0.09541
 Zn527 Zn 0.75132 0.12496 0.00091
 N528 N 0.74110 0.15953 -0.04334
 C529 C 0.80999 0.08521 -0.04709
 N530 N 0.79575 0.09090 -0.00925
 C531 C 0.81124 0.07032 0.02240
 C532 C 0.84329 0.04383 0.01695
 C533 C 0.84197 0.05897 -0.05403
 C534 C 0.72948 0.17662 0.06336
 C535 C 0.73514 0.20244 0.09584
 C536 C 0.80681 0.19222 0.08993
 C537 C 0.79969 0.16594 0.05801
 N538 N 0.76146 0.15840 0.04566
 H539 H 0.79592 0.10022 -0.07221
 H540 H 0.79886 0.07484 0.05215
 H541 H 0.85574 0.02976 0.04346
 H542 H 0.85114 0.05436 -0.08486
 H543 H 0.69944 0.17082 0.05236
 H544 H 0.70900 0.21545 0.11017
 H545 H 0.83755 0.19848 0.09857
 H546 H 0.82478 0.15225 0.04254
 C547 C 0.72777 0.21241 -0.10701
 C548 C 0.64264 0.03838 0.02411
 C549 C 0.77427 0.21082 0.10952
 C550 C 0.85964 0.03761 -0.02179
 C551 C 0.18606 0.57556 0.47833
 H552 H 0.19508 0.58380 0.44815
 C553 C 0.15352 0.54958 0.48418
 H554 H 0.13711 0.53875 0.45829
 C555 C 0.19686 0.57951 0.54856
 H556 H 0.21457 0.59045 0.57347
 C557 C 0.16462 0.55346 0.55581
 H558 H 0.15771 0.54470 0.58643
 N559 N 0.20641 0.59064 0.51034
 C560 C 0.27362 0.67394 0.43546
 H561 H 0.30383 0.66533 0.44376
 C562 C 0.26763 0.70069 0.40362
 H563 H 0.29342 0.71165 0.38692
 C564 C 0.20346 0.67044 0.44763
 H565 H 0.17867 0.65942 0.46567
 C566 C 0.19609 0.69725 0.41614
 H567 H 0.16548 0.70643 0.41007
 Zn568 Zn 0.25120 0.62458 0.50065
 N569 N 0.24167 0.65874 0.45614
 C570 C 0.30467 0.57900 0.45302
 N571 N 0.29576 0.59059 0.49117
 C572 C 0.31639 0.57574 0.52316
 C573 C 0.34858 0.54950 0.51730
 C574 C 0.33647 0.55263 0.44579
 C575 C 0.22879 0.67383 0.56531
 C576 C 0.23464 0.70050 0.59707
 C577 C 0.30626 0.69727 0.58504
 C578 C 0.29903 0.67045 0.55365
 N579 N 0.26083 0.65869 0.54495
 H580 H 0.28673 0.58980 0.42819
 H581 H 0.30784 0.58429 0.55332
 H582 H 0.36522 0.53885 0.54314
 H583 H 0.34277 0.54345 0.41523
 H584 H 0.19860 0.66523 0.55682
 H585 H 0.20875 0.71135 0.61354
 H586 H 0.33685 0.70655 0.59124
 H587 H 0.32389 0.65949 0.53582
 C588 C 0.22841 0.71261 0.39350
 C589 C 0.14231 0.53828 0.52337
 C590 C 0.27381 0.71254 0.60737
 C591 C 0.35910 0.53766 0.47817
 C592 C 0.68889 0.92905 0.52065
 H593 H 0.70065 0.92398 0.55054
 C594 C 0.65855 0.95479 0.51511
 H595 H 0.64568 0.96897 0.54132
 C596 C 0.69251 0.91316 0.45097
 H597 H 0.70678 0.89826 0.42594
 C598 C 0.65898 0.94110 0.44335
 H599 H 0.65038 0.94566 0.41236
 N600 N 0.70565 0.90743 0.48732
 C601 C 0.77094 0.82220 0.56120
 H602 H 0.80116 0.82815 0.55057
 C603 C 0.76483 0.79653 0.59388
 H604 H 0.79077 0.78376 0.60875
 C605 C 0.70077 0.83242 0.55473
 H606 H 0.67591 0.84590 0.53876
 C607 C 0.69321 0.80629 0.58686
 H608 H 0.66235 0.79992 0.59517
 Zn609 Zn 0.74989 0.87334 0.49789
 N610 N 0.73919 0.84011 0.54285
 C611 C 0.80429 0.91694 0.54657
 N612 N 0.79431 0.90745 0.50813
 C613 C 0.81366 0.92462 0.47637
 C614 C 0.84569 0.95105 0.48263
 C615 C 0.83575 0.94372 0.55422
 C616 C 0.72852 0.81987 0.43648
 C617 C 0.73445 0.79354 0.40445
 C618 C 0.80610 0.80355 0.41103
 C619 C 0.79871 0.83029 0.44250
 N620 N 0.76035 0.83853 0.45406
 H621 H 0.78731 0.90438 0.57136
 H622 H 0.80427 0.91763 0.44608
 H623 H 0.86142 0.96329 0.45682
 H624 H 0.84263 0.95137 0.58505
 H625 H 0.69836 0.82582 0.44713
 H626 H 0.70843 0.78039 0.39003
 H627 H 0.83691 0.79699 0.40287
 H628 H 0.82372 0.84385 0.45817
 C629 C 0.72550 0.78801 0.60711
 C630 C 0.64195 0.96173 0.47397
 C631 C 0.77370 0.78500 0.39118
 C632 C 0.85718 0.96102 0.52202
 C633 C 0.02105 0.18919 0.42846
 H634 H 0.05115 0.20035 0.42291
 C635 C 0.01514 0.15654 0.45425
 H636 H 0.04114 0.14223 0.46750
 C637 C -0.04905 0.19426 0.41707
 H638 H -0.07400 0.20967 0.40312
 C639 C -0.05644 0.16225 0.44334
 H640 H -0.08725 0.15353 0.44934
 N641 N -0.01075 0.20678 0.40987
 C642 C 0.06057 0.27335 0.32222
 H643 H 0.04958 0.30343 0.32768
 C644 C 0.09273 0.26745 0.29588
 H645 H 0.10692 0.29346 0.28228
 C646 C 0.05527 0.20329 0.33391
 H647 H 0.03984 0.17830 0.34797
 C648 C 0.08674 0.19592 0.30707
 H649 H 0.09506 0.16511 0.30093
 Zn650 Zn -0.00073 0.25160 0.37626
 N651 N 0.04332 0.24160 0.34151
 C652 C 0.04736 0.31083 0.41516
 N653 N 0.00964 0.29578 0.41063
 C654 C -0.02159 0.31024 0.43258
 C655 C -0.01595 0.34227 0.45902
 C656 C 0.05450 0.34276 0.44138
 C657 C -0.05983 0.23004 0.32123
 C658 C -0.09208 0.23511 0.29496
 C659 C -0.09365 0.30543 0.31263
 C660 C -0.06152 0.29883 0.33879
 N661 N -0.04558 0.26151 0.34286
 H662 H 0.07229 0.29749 0.39923
 H663 H -0.05119 0.29714 0.42909
 H664 H -0.04226 0.35396 0.47406
 H665 H 0.08529 0.35258 0.44498
 H666 H -0.04627 0.20070 0.32475
 H667 H -0.10344 0.20862 0.28004
 H668 H -0.10403 0.33600 0.30918
 H669 H -0.04867 0.32384 0.35501
 C670 C 0.10634 0.22827 0.28790
 C671 C -0.02408 0.14263 0.46220
 C672 C -0.10989 0.27335 0.28994
 C673 C 0.02261 0.35959 0.46390
 C674 C -0.02024 0.69068 0.06710
 H675 H -0.04972 0.70397 0.07053
 C676 C -0.01491 0.66006 0.04168
 H677 H -0.04104 0.64862 0.02615
 C678 C 0.04854 0.69060 0.08686
 H679 H 0.07342 0.70330 0.10333
 C680 C 0.05597 0.65686 0.05910
 H681 H 0.08670 0.64675 0.05619
 N682 N 0.01262 0.70550 0.09078
 C683 C -0.05885 0.77086 0.18216
 H684 H -0.04561 0.80047 0.17904
 C685 C -0.09009 0.76514 0.20691
 H686 H -0.10209 0.79108 0.22227
 C687 C -0.05843 0.70229 0.16174
 H688 H -0.04536 0.67772 0.14509
 C689 C -0.09279 0.69441 0.18883
 H690 H -0.10287 0.66360 0.19132
 Zn691 Zn 0.00183 0.74922 0.12570
 N692 N -0.04321 0.73822 0.15880
 C693 C -0.04661 0.80720 0.08620
 N694 N -0.00837 0.79438 0.09266
 C695 C 0.02340 0.81200 0.07377
 C696 C 0.01754 0.84490 0.04836
 C697 C -0.05397 0.83946 0.06027
 C698 C 0.06264 0.72775 0.18006
 C699 C 0.09493 0.73371 0.20612
 C700 C 0.08966 0.80517 0.19435
 C701 C 0.05804 0.79773 0.16781
 N702 N 0.04567 0.75942 0.16060
 H703 H -0.07157 0.79182 0.10041
 H704 H 0.05345 0.80066 0.07877
 H705 H 0.04356 0.85916 0.03485
 H706 H -0.08476 0.84834 0.05477
 H707 H 0.05139 0.69767 0.17487
 H708 H 0.10890 0.70773 0.21981
 H709 H 0.09835 0.83598 0.20014
 H710 H 0.04287 0.82269 0.15361
 C711 C -0.10874 0.72440 0.21119
 C712 C 0.02563 0.64129 0.03691
 C713 C 0.10900 0.77288 0.21364
 C714 C -0.02163 0.85900 0.04099
 C715 C 0.48099 0.18840 0.57088
 H716 H 0.45113 0.20045 0.57540
 C717 C 0.48667 0.15615 0.54479
 H718 H 0.46060 0.14305 0.53044
 C719 C 0.55068 0.19081 0.58516
 H720 H 0.57562 0.20502 0.60037
 C721 C 0.55791 0.15927 0.55845
 H722 H 0.58862 0.14981 0.55340
 N723 N 0.51261 0.20443 0.59114
 C724 C 0.44132 0.27105 0.68166
 H725 H 0.45392 0.30082 0.67759
 C726 C 0.41028 0.26545 0.70673
 H727 H 0.39779 0.29155 0.72139
 C728 C 0.44339 0.20181 0.66378
 H729 H 0.45713 0.17692 0.64821
 C730 C 0.40919 0.19409 0.69107
 H731 H 0.39975 0.16317 0.69462
 Zn732 Zn 0.50215 0.24866 0.62527
 N733 N 0.45758 0.23802 0.65928
 C734 C 0.45330 0.30625 0.58540
 N735 N 0.49155 0.29315 0.59126
 C736 C 0.52296 0.30974 0.57087
 C737 C 0.51683 0.34205 0.54476
 C738 C 0.44564 0.33790 0.55879
 C739 C 0.56157 0.22775 0.68080
 C740 C 0.59358 0.23352 0.70728
 C741 C 0.59325 0.30409 0.69020
 C742 C 0.56134 0.29683 0.66396
 N743 N 0.54657 0.25904 0.65930
 H744 H 0.42854 0.29156 0.60063
 H745 H 0.55298 0.29806 0.57525
 H746 H 0.54267 0.35561 0.53022
 H747 H 0.41481 0.34701 0.55392
 H748 H 0.54882 0.19804 0.67702
 H749 H 0.60561 0.20725 0.72212
 H750 H 0.60276 0.33494 0.69399
 H751 H 0.54773 0.32171 0.64816
 C752 C 0.39247 0.22448 0.71225
 C753 C 0.52562 0.14116 0.53795
 C754 C 0.61039 0.27223 0.71254
 C755 C 0.47768 0.35660 0.53819
 C756 C 0.52161 0.69065 0.93125
 H757 H 0.55145 0.70293 0.92665
 C758 C 0.51611 0.65977 0.95654
 H759 H 0.54231 0.64705 0.97089
 C760 C 0.45200 0.69359 0.91474
 H761 H 0.42696 0.70773 0.89974
 C762 C 0.44444 0.65943 0.94210
 H763 H 0.41350 0.65021 0.94617
 N764 N 0.48832 0.70726 0.90946
 C765 C 0.56193 0.77367 0.82402
 H766 H 0.55125 0.80379 0.82990
 C767 C 0.59441 0.76782 0.79807
 H768 H 0.60911 0.79383 0.78503
 C769 C 0.55564 0.70348 0.83453
 H770 H 0.53978 0.67849 0.84816
 C771 C 0.58755 0.69617 0.80817
 H772 H 0.59579 0.66538 0.80181
 Zn773 Zn 0.49878 0.75183 0.87545
 N774 N 0.54375 0.74177 0.84218
 C775 C 0.54709 0.80683 0.91871
 N776 N 0.50872 0.79614 0.90949
 C777 C 0.47677 0.81487 0.92671
 C778 C 0.48272 0.84707 0.95282
 C779 C 0.55446 0.83843 0.94524
 C780 C 0.43775 0.73008 0.82182
 C781 C 0.40551 0.73568 0.79565
 C782 C 0.41100 0.80729 0.80617
 C783 C 0.44268 0.80022 0.83276
 N784 N 0.45487 0.76201 0.84067
 H785 H 0.57207 0.79032 0.90611
 H786 H 0.44655 0.80492 0.91992
 H787 H 0.45672 0.86235 0.96499
 H788 H 0.58525 0.84588 0.95270
 H789 H 0.44890 0.70008 0.82752
 H790 H 0.39146 0.70954 0.78236
 H791 H 0.40232 0.83799 0.79984
 H792 H 0.45801 0.82536 0.84645
 C793 C 0.60762 0.72860 0.78962
 C794 C 0.47507 0.64236 0.96268
 C795 C 0.39160 0.77473 0.78744
 C796 C 0.52202 0.85932 0.96250
   
