data_POSCAR
  _audit_creation_date              2014-09-24
  _audit_creation_method            'ToBaCCo'
  _symmetry_space_group_name_H-M    'P1'
  _symmetry_Int_Tables_number       1
  _symmetry_cell_setting            triclinic
  loop_
  _symmetry_equiv_pos_as_xyz
 x,y,z
_cell_length_a 25.8706
_cell_length_b 24.9542
_cell_length_c 25.3860
_cell_angle_alpha 89.866200
_cell_angle_beta 90.233200
_cell_angle_gamma 89.812500
loop_
  _atom_site_label
  _atom_site_type_symbol
  _atom_site_fract_x
  _atom_site_fract_y
  _atom_site_fract_z
N1 N 0.19468 1.30425 0.16102
 N2 N 0.16001 1.30354 0.19868
 C3 C 0.12021 1.33563 0.18530
 C4 C 0.13038 1.35795 0.13631
 C5 C 0.17843 1.33751 0.12250
 H6 H 0.08621 1.34099 0.20928
 H7 H 0.19902 1.34475 0.08617
 Cu8 Cu 0.16824 1.25804 0.26007
 Cu9 Cu 0.25640 1.25901 0.16394
 Cu10 Cu 0.24900 1.15353 0.25364
 N11 N 0.16235 1.19841 0.30861
 N12 N 0.19470 1.15782 0.30657
 C13 C 0.17916 1.11973 0.34054
 C14 C 0.13378 1.13671 0.36428
 C15 C 0.12468 1.18737 0.34335
 H16 H 0.19734 1.08088 0.34500
 H17 H 0.09204 1.21341 0.35054
 N18 N 0.30095 1.15698 0.19710
 N19 N 0.30400 1.19692 0.16307
 C20 C 0.33963 1.18457 0.12639
 C21 C 0.35968 1.13427 0.13763
 C22 C 0.33442 1.11834 0.18302
 H23 H 0.34812 1.20877 0.09212
 H24 H 0.33784 1.08025 0.20290
 H25 H 0.21210 1.20089 0.19749
 H26 H 0.25903 1.23419 0.24235
 N27 N 0.80370 0.69720 0.16114
 N28 N 0.83900 0.69774 0.19849
 C29 C 0.87818 0.66508 0.18509
 C30 C 0.86691 0.64256 0.13655
 C31 C 0.81899 0.66350 0.12285
 H32 H 0.91267 0.65949 0.20860
 H33 H 0.79785 0.65633 0.08670
 Cu34 Cu 0.83234 0.74376 0.25946
 Cu35 Cu 0.74250 0.74314 0.16414
 Cu36 Cu 0.75213 0.84879 0.25298
 N37 N 0.83947 0.80353 0.30744
 N38 N 0.80723 0.84425 0.30545
 C39 C 0.82328 0.88219 0.33927
 C40 C 0.86886 0.86498 0.36288
 C41 C 0.87760 0.81436 0.34201
 H42 H 0.80519 0.92103 0.34384
 H43 H 0.91017 0.78814 0.34927
 N44 N 0.69924 0.84562 0.19695
 N45 N 0.69535 0.80561 0.16324
 C46 C 0.65919 0.81814 0.12682
 C47 C 0.63967 0.86861 0.13788
 C48 C 0.66580 0.88448 0.18290
 H49 H 0.64996 0.79392 0.09280
 H50 H 0.66299 0.92267 0.20249
 H51 H 0.78781 0.80103 0.19683
 H52 H 0.74143 0.76817 0.24236
 N53 N 0.80130 1.30525 -0.16203
 N54 N 0.83658 1.30447 -0.19910
 C55 C 0.87596 1.33654 -0.18523
 C56 C 0.86488 1.35890 -0.13664
 C57 C 0.81682 1.33854 -0.12342
 H58 H 0.91049 1.34172 -0.20842
 H59 H 0.79578 1.34573 -0.08737
 Cu60 Cu 0.83003 1.25855 -0.26010
 Cu61 Cu 0.73992 1.25993 -0.16582
 Cu62 Cu 0.74975 1.15418 -0.25457
 N63 N 0.83762 1.19854 -0.30766
 N64 N 0.80541 1.15802 -0.30601
 C65 C 0.82190 1.11974 -0.33925
 C66 C 0.86771 1.13657 -0.36207
 C67 C 0.87612 1.18729 -0.34141
 H68 H 0.80391 1.08097 -0.34393
 H69 H 0.90872 1.21331 -0.34823
 N70 N 0.69634 1.15804 -0.19948
 N71 N 0.69240 1.19803 -0.16576
 C72 C 0.65611 1.18574 -0.12976
 C73 C 0.63658 1.13542 -0.14109
 C74 C 0.66280 1.11944 -0.18587
 H75 H 0.64698 1.20988 -0.09570
 H76 H 0.66017 1.08123 -0.20543
 H77 H 0.78518 1.20168 -0.19798
 H78 H 0.73903 1.23495 -0.24405
 N79 N 0.19739 0.69325 -0.15954
 N80 N 0.16347 0.69248 -0.19818
 C81 C 0.12430 0.65976 -0.18526
 C82 C 0.13414 0.63869 -0.13566
 C83 C 0.18126 0.66038 -0.12087
 H84 H 0.09058 0.65345 -0.20967
 H85 H 0.20106 0.65454 -0.08368
 Cu86 Cu 0.17076 0.73856 -0.25914
 Cu87 Cu 0.25755 0.74022 -0.16102
 Cu88 Cu 0.25751 0.83728 -0.26020
 N89 N 0.16283 0.79956 -0.30583
 N90 N 0.19699 0.83835 -0.30621
 C91 C 0.18082 0.87710 -0.33942
 C92 C 0.13325 0.86234 -0.36018
 C93 C 0.12334 0.81244 -0.33815
 H94 H 0.20092 0.91443 -0.34614
 H95 H 0.08952 0.78777 -0.34353
 N96 N 0.30601 0.83767 -0.20002
 N97 N 0.30633 0.80093 -0.16251
 C98 C 0.34019 0.81568 -0.12481
 C99 C 0.36167 0.86438 -0.13883
 C100 C 0.33933 0.87678 -0.18704
 H101 H 0.34649 0.79440 -0.08817
 H102 H 0.34475 0.91278 -0.20999
 H103 H 0.21698 0.79865 -0.20146
 H104 H 0.26287 0.75717 -0.24016
 Si105 Si 0.49897 1.00150 -0.00152
 Si106 Si -0.00100 0.49906 1.00071
 Si107 Si 1.00139 0.00031 0.50160
 C108 C 0.09802 0.39194 1.10463
 C109 C 0.04319 0.40238 1.12594
 C110 C 0.01389 0.43463 1.09454
 C111 C 0.04130 0.45405 1.04444
 C112 C 0.09128 0.48037 1.06469
 C113 C 0.12083 0.44803 1.09600
 C114 C 0.08906 0.36986 1.04887
 C115 C 0.05980 0.40229 1.01752
 H116 H 0.02764 0.38554 1.16187
 H117 H -0.02562 0.44458 1.10458
 H118 H 0.10270 0.52104 1.05549
 H119 H 0.15704 0.46135 1.11324
 H120 H 0.10451 0.33192 1.03504
 H121 H 0.05106 0.39168 0.97715
 C122 C -0.09958 0.60642 1.10334
 C123 C -0.04485 0.59592 1.12502
 C124 C -0.01566 0.56357 1.09403
 C125 C -0.04322 0.54412 1.04386
 C126 C -0.09321 0.51794 1.06399
 C127 C -0.12259 0.55044 1.09495
 C128 C -0.09087 0.62839 1.04755
 C129 C -0.06174 0.59587 1.01652
 H130 H -0.02948 0.61268 1.16113
 H131 H 0.02380 0.55345 1.10448
 H132 H -0.10479 0.47731 1.05488
 H133 H -0.15885 0.53741 1.11205
 H134 H -0.10654 0.66623 1.03347
 H135 H -0.05322 0.60631 0.97607
 C136 C -0.10117 0.39419 0.89705
 C137 C -0.09291 0.37195 0.95290
 C138 C -0.06332 0.40373 0.98427
 C139 C -0.04392 0.45505 0.95717
 C140 C -0.01659 0.43500 0.90728
 C141 C -0.04622 0.40340 0.87596
 C142 C -0.12330 0.45069 0.90526
 C143 C -0.09345 0.48246 0.93655
 H144 H -0.10921 0.33448 0.96677
 H145 H -0.05504 0.39304 1.02478
 H146 H 0.02306 0.44412 0.89727
 H147 H -0.03099 0.38625 0.84005
 H148 H -0.15931 0.46460 0.88782
 H149 H -0.10440 0.52334 0.94559
 C150 C 0.09978 0.60362 0.89767
 C151 C 0.04499 0.59443 0.87576
 C152 C 0.01508 0.56294 0.90687
 C153 C 0.04206 0.54299 0.95734
 C154 C 0.09172 0.51551 0.93769
 C155 C 0.12181 0.54715 0.90666
 C156 C 0.09109 0.62606 0.95321
 C157 C 0.06128 0.59439 0.98435
 H158 H 0.03006 0.61170 0.83956
 H159 H -0.02456 0.55394 0.89640
 H160 H 0.10256 0.47463 0.94712
 H161 H 0.15792 0.53315 0.88986
 H162 H 0.10720 0.66362 0.96705
 H163 H 0.05269 0.60526 1.02463
 C164 C 1.10118 0.10504 0.39756
 C165 C 1.04650 0.12749 0.40731
 C166 C 1.01695 0.09595 0.43876
 C167 C 1.04404 0.04456 0.45813
 C168 C 1.06248 0.01690 0.40748
 C169 C 1.09178 0.04840 0.37579
 C170 C 1.12389 0.09592 0.45288
 C171 C 1.09407 0.06451 0.48447
 H172 H 1.03119 0.16416 0.39037
 H173 H 0.97744 0.10662 0.44807
 H174 H 1.05360 -0.02408 0.39702
 H175 H 1.10689 0.03405 0.33853
 H176 H 1.16017 0.11301 0.46628
 H177 H 1.10528 0.05509 0.52460
 C178 C 1.10077 -0.10551 0.60644
 C179 C 1.09189 -0.04875 0.62815
 C180 C 1.06260 -0.01685 0.59633
 C181 C 1.04387 -0.04426 0.54555
 C182 C 1.09371 -0.06486 0.51950
 C183 C 1.12337 -0.09672 0.55122
 C184 C 1.04591 -0.12720 0.59636
 C185 C 1.01651 -0.09526 0.56474
 H186 H 1.10745 -0.03464 0.66540
 H187 H 1.05396 0.02426 0.60670
 H188 H 1.10493 -0.05553 0.47946
 H189 H 1.15950 -0.11428 0.53801
 H190 H 1.03045 -0.16379 0.61296
 H191 H 0.97695 -0.10549 0.55506
 C192 C 0.90160 -0.10369 0.39642
 C193 C 0.87882 -0.09473 0.45150
 C194 C 0.90867 -0.06358 0.48337
 C195 C 0.95883 -0.04369 0.45756
 C196 C 0.98578 -0.09510 0.43849
 C197 C 0.95617 -0.12641 0.40674
 C198 C 0.91124 -0.04700 0.37472
 C199 C 0.94060 -0.01576 0.40670
 H200 H 0.84248 -0.11178 0.46455
 H201 H 0.89740 -0.05436 0.52340
 H202 H 1.02524 -0.10596 0.44821
 H203 H 0.97133 -0.16310 0.38998
 H204 H 0.89625 -0.03245 0.33730
 H205 H 0.94965 0.02522 0.39628
 C206 C 0.90079 0.10497 0.60506
 C207 C 0.87851 0.09612 0.54961
 C208 C 0.90863 0.06475 0.51830
 C209 C 0.95857 0.04454 0.54499
 C210 C 0.98538 0.09576 0.56450
 C211 C 0.95547 0.12731 0.59569
 C212 C 0.91025 0.04823 0.62698
 C213 C 0.93993 0.01677 0.59556
 H214 H 0.84229 0.11340 0.53590
 H215 H 0.89772 0.05560 0.47808
 H216 H 1.02495 0.10627 0.55548
 H217 H 0.97049 0.16387 0.61276
 H218 H 0.89497 0.03384 0.66418
 H219 H 0.94901 -0.02421 0.60623
 C220 C 0.39524 1.10137 0.10325
 C221 C 0.44877 1.12635 0.09475
 C222 C 0.48023 1.09699 0.06273
 C223 C 0.45556 1.04501 0.04202
 C224 C 0.43777 1.01537 0.09184
 C225 C 0.40664 1.04449 0.12371
 C226 C 0.37363 1.09304 0.04742
 C227 C 0.40513 1.06396 0.01547
 H228 H 0.46081 1.16400 0.11218
 H229 H 0.51895 1.10999 0.05290
 H230 H 0.44837 0.97460 0.10175
 H231 H 0.39206 1.02773 0.16009
 H232 H 0.33692 1.10928 0.03389
 H233 H 0.39503 1.05616 -0.02521
 C234 C 0.60126 1.10223 -0.10678
 C235 C 0.59096 1.04513 -0.12685
 C236 C 0.56017 1.01574 -0.09490
 C237 C 0.54163 1.04535 -0.04542
 C238 C 0.59157 1.06505 -0.01878
 C239 C 0.62270 1.09437 -0.05079
 C240 C 0.54722 1.12657 -0.09880
 C241 C 0.51610 1.09691 -0.06673
 H242 H 0.60587 1.02849 -0.16310
 H243 H 0.55018 0.97486 -0.10459
 H244 H 0.60162 1.05763 0.02202
 H245 H 0.65904 1.11113 -0.03717
 H246 H 0.53459 1.16396 -0.11666
 H247 H 0.47705 1.10937 -0.05729
 C248 C 0.39641 0.89883 -0.10506
 C249 C 0.45063 0.87508 -0.09646
 C250 C 0.48170 0.90545 -0.06498
 C251 C 0.45598 0.95713 -0.04473
 C252 C 0.43683 0.98588 -0.09480
 C253 C 0.40599 0.95572 -0.12622
 C254 C 0.37518 0.90747 -0.04928
 C255 C 0.40632 0.93751 -0.01779
 H256 H 0.46346 0.83751 -0.11355
 H257 H 0.52089 0.89337 -0.05530
 H258 H 0.44591 1.02695 -0.10482
 H259 H 0.38959 0.97193 -0.16222
 H260 H 0.33893 0.89089 -0.03546
 H261 H 0.39635 0.94568 0.02276
 C262 C 0.60379 0.90165 0.10356
 C263 C 0.62478 0.90988 0.04763
 C264 C 0.59299 0.93901 0.01565
 C265 C 0.54289 0.95810 0.04226
 C266 C 0.51836 0.90618 0.06338
 C267 C 0.55012 0.87679 0.09542
 C268 C 0.59275 0.95858 0.12377
 C269 C 0.56131 0.98776 0.09185
 H270 H 0.66131 0.89355 0.03406
 H271 H 0.60270 0.94672 -0.02508
 H272 H 0.47948 0.89327 0.05384
 H273 H 0.53819 0.83921 0.11314
 H274 H 0.60775 0.97528 0.16005
 H275 H 0.55085 1.02855 0.10156
   
