data_POSCAR
  _audit_creation_date              2014-09-24
  _audit_creation_method            'ToBaCCo'
  _symmetry_space_group_name_H-M    'P1'
  _symmetry_Int_Tables_number       1
  _symmetry_cell_setting            triclinic
  loop_
  _symmetry_equiv_pos_as_xyz
 x,y,z
_cell_length_a 53.3322
_cell_length_b 53.1690
_cell_length_c 53.3352
_cell_angle_alpha 89.922000
_cell_angle_beta 89.994000
_cell_angle_gamma 90.079200
loop_
  _atom_site_label
  _atom_site_type_symbol
  _atom_site_fract_x
  _atom_site_fract_y
  _atom_site_fract_z
N1 N 0.59534 0.66481 0.61479
 N2 N 0.58549 0.65450 0.63497
 C3 C 0.56515 0.66782 0.64188
 C4 C 0.56229 0.68737 0.62513
 C5 C 0.58165 0.68502 0.60819
 H6 H 0.55332 0.66368 0.65783
 H7 H 0.58549 0.69713 0.59233
 Cu8 Cu 0.60044 0.62480 0.65020
 Cu9 Cu 0.62516 0.65130 0.59858
 Cu10 Cu 0.65170 0.59806 0.62518
 N11 N 0.61528 0.59475 0.66483
 N12 N 0.63541 0.58444 0.65496
 C13 C 0.64191 0.56413 0.66860
 C14 C 0.62492 0.56173 0.68791
 C15 C 0.60825 0.58133 0.68512
 H16 H 0.65780 0.55209 0.66479
 H17 H 0.59231 0.58546 0.69695
 N18 N 0.66544 0.61460 0.59504
 N19 N 0.65533 0.63489 0.58491
 C20 C 0.66888 0.64162 0.56463
 C21 C 0.68828 0.62477 0.56202
 C22 C 0.68568 0.60790 0.58146
 H23 H 0.66497 0.65753 0.55262
 H24 H 0.69765 0.59197 0.58534
 H25 H 0.62005 0.61456 0.61020
 H26 H 0.64041 0.63484 0.63022
 N27 N 0.90487 0.33425 0.11491
 N28 N 0.91443 0.34429 0.13533
 C29 C 0.93468 0.33088 0.14240
 C30 C 0.93775 0.31159 0.12546
 C31 C 0.91866 0.31414 0.10825
 H32 H 0.94633 0.33484 0.15852
 H33 H 0.91512 0.30234 0.09213
 Cu34 Cu 0.89955 0.37413 0.15022
 Cu35 Cu 0.87528 0.34798 0.09840
 Cu36 Cu 0.84871 0.40125 0.12497
 N37 N 0.88465 0.40397 0.16511
 N38 N 0.86480 0.41458 0.15498
 C39 C 0.85841 0.43494 0.16853
 C40 C 0.87515 0.43708 0.18808
 C41 C 0.89157 0.41725 0.18549
 H42 H 0.84283 0.44729 0.16445
 H43 H 0.90733 0.41295 0.19749
 N44 N 0.83519 0.38492 0.09464
 N45 N 0.84531 0.36464 0.08453
 C46 C 0.83178 0.35795 0.06426
 C47 C 0.81239 0.37481 0.06163
 C48 C 0.81498 0.39165 0.08104
 H49 H 0.83564 0.34200 0.05232
 H50 H 0.80295 0.40752 0.08496
 H51 H 0.88039 0.38466 0.11005
 H52 H 0.85981 0.36436 0.12985
 N53 N 0.40439 0.16528 -0.11457
 N54 N 0.41424 0.15497 -0.13471
 C55 C 0.43452 0.16840 -0.14173
 C56 C 0.43738 0.18797 -0.12504
 C57 C 0.41807 0.18554 -0.10805
 H58 H 0.44634 0.16432 -0.15768
 H59 H 0.41433 0.19755 -0.09213
 Cu60 Cu 0.39960 0.12494 -0.14955
 Cu61 Cu 0.37462 0.15168 -0.09830
 Cu62 Cu 0.34796 0.09844 -0.12484
 N63 N 0.38433 0.09527 -0.16449
 N64 N 0.36417 0.08494 -0.15464
 C65 C 0.35758 0.06472 -0.16833
 C66 C 0.37450 0.06240 -0.18770
 C67 C 0.39123 0.08197 -0.18486
 H68 H 0.34175 0.05258 -0.16444
 H69 H 0.40716 0.08612 -0.19671
 N70 N 0.33433 0.11488 -0.09468
 N71 N 0.34448 0.13517 -0.08458
 C72 C 0.33092 0.14189 -0.06435
 C73 C 0.31147 0.12505 -0.06176
 C74 C 0.31405 0.10818 -0.08114
 H75 H 0.33482 0.15784 -0.05240
 H76 H 0.30200 0.09229 -0.08503
 H77 H 0.37963 0.11484 -0.10960
 H78 H 0.35963 0.13514 -0.12998
 N79 N 0.09506 0.83426 0.38525
 N80 N 0.08549 0.84434 0.36483
 C81 C 0.06523 0.83090 0.35776
 C82 C 0.06216 0.81154 0.37469
 C83 C 0.08126 0.81408 0.39189
 H84 H 0.05357 0.83489 0.34165
 H85 H 0.08481 0.80224 0.40801
 Cu86 Cu 0.10036 0.87426 0.34994
 Cu87 Cu 0.12466 0.84803 0.40175
 Cu88 Cu 0.15119 0.90147 0.37517
 N89 N 0.11523 0.90420 0.33506
 N90 N 0.13509 0.91483 0.34518
 C91 C 0.14146 0.93526 0.33165
 C92 C 0.12470 0.93742 0.31211
 C93 C 0.10830 0.91753 0.31469
 H94 H 0.15703 0.94765 0.33572
 H95 H 0.09252 0.91323 0.30269
 N96 N 0.16473 0.88512 0.40548
 N97 N 0.15465 0.86477 0.41560
 C98 C 0.16820 0.85810 0.43588
 C99 C 0.18757 0.87505 0.43848
 C100 C 0.18495 0.89190 0.41906
 H101 H 0.16438 0.84211 0.44783
 H102 H 0.19695 0.90784 0.41512
 H103 H 0.11953 0.88472 0.39011
 H104 H 0.14011 0.86455 0.37030
 C105 C 0.11350 0.14696 0.11454
 C106 C 0.13497 0.13623 0.10383
 C107 C 0.14560 0.11499 0.11449
 C108 C 0.13489 0.10423 0.13599
 C109 C 0.11367 0.11484 0.14658
 C110 C 0.10291 0.13633 0.13579
 C111 C 0.09921 0.16757 0.10822
 N112 N 0.08038 0.16953 0.12513
 C113 C 0.08235 0.15064 0.14206
 C114 C 0.10740 0.10053 0.16719
 N115 N 0.12430 0.08165 0.16920
 C116 C 0.14119 0.08363 0.15033
 C117 C 0.16617 0.10871 0.10022
 N118 N 0.16812 0.12564 0.08133
 C119 C 0.14925 0.14254 0.08324
 H120 H 0.10225 0.18021 0.09257
 H121 H 0.06977 0.14760 0.15772
 H122 H 0.09176 0.10355 0.17978
 H123 H 0.15682 0.07101 0.14731
 H124 H 0.17878 0.09307 0.10329
 H125 H 0.14620 0.15820 0.07061
 C126 C 0.38594 0.85359 0.61454
 C127 C 0.36448 0.86435 0.60379
 C128 C 0.35386 0.88559 0.61441
 C129 C 0.36458 0.89633 0.63589
 C130 C 0.38579 0.88570 0.64650
 C131 C 0.39654 0.86420 0.63577
 C132 C 0.40025 0.83298 0.60826
 N133 N 0.41909 0.83101 0.62517
 C134 C 0.41710 0.84989 0.64206
 C135 C 0.39207 0.90002 0.66708
 N136 N 0.37518 0.91891 0.66904
 C137 C 0.35830 0.91694 0.65018
 C138 C 0.33330 0.89191 0.60012
 N139 N 0.33136 0.87502 0.58124
 C140 C 0.35021 0.85809 0.58320
 H141 H 0.39722 0.82036 0.59263
 H142 H 0.42967 0.85292 0.65771
 H143 H 0.40771 0.89698 0.67967
 H144 H 0.34267 0.92956 0.64714
 H145 H 0.32070 0.90756 0.60317
 H146 H 0.35326 0.84244 0.57059
 C147 C 0.88625 0.64645 0.38540
 C148 C 0.86475 0.63567 0.39612
 C149 C 0.85413 0.61439 0.38551
 C150 C 0.86489 0.60363 0.36406
 C151 C 0.88613 0.61428 0.35348
 C152 C 0.89687 0.63581 0.36420
 C153 C 0.90054 0.66710 0.39166
 N154 N 0.91941 0.66909 0.37477
 C155 C 0.91746 0.65017 0.35791
 C156 C 0.89244 0.59996 0.33293
 N157 N 0.87554 0.58104 0.33095
 C158 C 0.85861 0.58299 0.34978
 C159 C 0.83353 0.60807 0.39978
 N160 N 0.83155 0.62501 0.41862
 C161 C 0.85043 0.64195 0.41667
 H162 H 0.89749 0.67974 0.40726
 H163 H 0.93005 0.64714 0.34228
 H164 H 0.90810 0.60301 0.32036
 H165 H 0.84297 0.57034 0.35281
 H166 H 0.82092 0.59239 0.39673
 H167 H 0.85347 0.65763 0.42925
 C168 C 0.61438 0.35389 -0.11478
 C169 C 0.63588 0.36462 -0.10407
 C170 C 0.64653 0.38590 -0.11469
 C171 C 0.63580 0.39671 -0.13616
 C172 C 0.61454 0.38609 -0.14673
 C173 C 0.60377 0.36456 -0.13598
 C174 C 0.60006 0.33326 -0.10847
 N175 N 0.58119 0.33131 -0.12533
 C176 C 0.58316 0.35024 -0.14223
 C177 C 0.60825 0.40046 -0.16729
 N178 N 0.62517 0.41937 -0.16928
 C179 C 0.64209 0.41736 -0.15046
 C180 C 0.66714 0.39215 -0.10041
 N181 N 0.66905 0.37517 -0.08156
 C182 C 0.65015 0.35827 -0.08351
 H183 H 0.60310 0.32061 -0.09283
 H184 H 0.57056 0.35330 -0.15785
 H185 H 0.59258 0.39744 -0.17985
 H186 H 0.65775 0.42999 -0.14745
 H187 H 0.67978 0.40781 -0.10345
 H188 H 0.64706 0.34257 -0.07092
 C189 C 0.01420 0.23426 0.14906
 C190 C 0.01728 0.26117 0.13832
 C191 C -0.00837 0.25858 0.12547
 C192 C -0.01175 0.23196 0.13622
 C193 C 0.02652 0.22368 0.12527
 C194 C 0.00087 0.22109 0.11243
 C195 C 0.02991 0.25029 0.11453
 C196 C 0.00395 0.24801 0.10168
 C197 C -0.02789 0.27792 0.12555
 C198 C -0.04402 0.29377 0.12555
 C199 C 0.04591 0.20422 0.12519
 C200 C 0.06185 0.18818 0.12515
 H201 H 0.01865 0.22837 0.16853
 H202 H 0.02383 0.27786 0.14896
 H203 H -0.02909 0.22464 0.14515
 H204 H -0.00565 0.20440 0.10178
 H205 H 0.04727 0.25759 0.10560
 H206 H -0.00047 0.25388 0.08220
 C207 C 0.48210 0.76286 0.60190
 C208 C 0.50953 0.76667 0.61068
 C209 C 0.50784 0.74190 0.62546
 C210 C 0.48071 0.73779 0.61667
 C211 C 0.47300 0.77687 0.62536
 C212 C 0.47131 0.75210 0.64014
 C213 C 0.50013 0.78098 0.63415
 C214 C 0.49875 0.75591 0.64893
 C215 C 0.52724 0.72241 0.62545
 C216 C 0.54321 0.70640 0.62535
 C217 C 0.45360 0.79634 0.62529
 C218 C 0.43764 0.81237 0.62523
 H219 H 0.47503 0.76595 0.58256
 H220 H 0.52545 0.77247 0.59856
 H221 H 0.47292 0.71982 0.60948
 H222 H 0.45538 0.74634 0.65225
 H223 H 0.50788 0.79897 0.64133
 H224 H 0.50580 0.75286 0.66828
 C225 C 0.99631 0.72345 0.39193
 C226 C 1.01302 0.73041 0.36919
 C227 C 1.00823 0.75838 0.37452
 C228 C 0.99181 0.75172 0.39727
 C229 C 0.97331 0.72339 0.37460
 C230 C 0.96851 0.75136 0.37993
 C231 C 0.98972 0.73004 0.35185
 C232 C 0.98522 0.75832 0.35718
 C233 C 1.02777 0.77778 0.37452
 C234 C 1.04391 0.79366 0.37458
 C235 C 0.95390 0.70386 0.37466
 C236 C 0.93795 0.68779 0.37471
 H237 H 1.00066 0.70890 0.40623
 H238 H 1.03155 0.72201 0.36477
 H239 H 0.99287 0.76085 0.41594
 H240 H 0.94997 0.75974 0.38435
 H241 H 0.98864 0.72091 0.33318
 H242 H 0.98086 0.77287 0.34289
 C243 C 0.50278 0.27853 -0.14040
 C244 C 0.50666 0.25087 -0.14863
 C245 C 0.49229 0.24214 -0.12520
 C246 C 0.48812 0.26950 -0.11698
 C247 C 0.52722 0.27710 -0.12524
 C248 C 0.51287 0.26838 -0.10181
 C249 C 0.53141 0.24975 -0.13346
 C250 C 0.51674 0.24071 -0.11003
 C251 C 0.47278 0.22274 -0.12518
 C252 C 0.45665 0.20685 -0.12515
 C253 C 0.54664 0.29660 -0.12528
 C254 C 0.56261 0.31265 -0.12531
 H255 H 0.49726 0.29430 -0.15289
 H256 H 0.50391 0.24345 -0.16788
 H257 H 0.47011 0.27742 -0.11018
 H258 H 0.51566 0.27581 -0.08257
 H259 H 0.54944 0.24186 -0.14023
 H260 H 0.52229 0.22496 -0.09753
 C261 C 0.12686 -0.00085 0.21788
 C262 C 0.14589 -0.00275 0.23974
 C263 C 0.12406 -0.00772 0.25788
 C264 C 0.10502 -0.00612 0.23632
 C265 C 0.12415 0.02742 0.22313
 C266 C 0.10231 0.02246 0.24127
 C267 C 0.14318 0.02582 0.24469
 C268 C 0.12134 0.02055 0.26314
 C269 C 0.12414 -0.02732 0.27721
 C270 C 0.12434 -0.04343 0.29312
 C271 C 0.12422 0.04696 0.20375
 C272 C 0.12427 0.06300 0.18778
 H273 H 0.12914 -0.00941 0.19905
 H274 H 0.16382 -0.01332 0.23932
 H275 H 0.08932 -0.01945 0.23308
 H276 H 0.08441 0.03307 0.24166
 H277 H 0.15887 0.03918 0.24791
 H278 H 0.11906 0.02915 0.28195
 C279 C 0.64733 0.47963 -0.24040
 C280 C 0.62932 0.48036 -0.26317
 C281 C 0.62479 0.50846 -0.25828
 C282 C 0.64280 0.50803 -0.23581
 C283 C 0.62494 0.47355 -0.22330
 C284 C 0.62041 0.50164 -0.21841
 C285 C 0.60693 0.47397 -0.24577
 C286 C 0.60239 0.50237 -0.24118
 C287 C 0.62474 0.52787 -0.27780
 C288 C 0.62478 0.54380 -0.29390
 C289 C 0.62505 0.45408 -0.20383
 C290 C 0.62512 0.43804 -0.18785
 H291 H 0.66581 0.47005 -0.23984
 H292 H 0.63299 0.47180 -0.28178
 H293 H 0.65756 0.52224 -0.23192
 H294 H 0.61675 0.51017 -0.19978
 H295 H 0.59218 0.45974 -0.24964
 H296 H 0.58391 0.51194 -0.24172
 C297 C 0.37885 0.96786 0.75109
 C298 C 0.39731 0.99035 0.75240
 C299 C 0.37512 1.00790 0.75787
 C300 C 0.35666 0.98572 0.75685
 C301 C 0.37520 0.97300 0.72298
 C302 C 0.35301 0.99055 0.72844
 C303 C 0.39366 0.99518 0.72398
 C304 C 0.37147 1.01304 0.72975
 C305 C 0.37499 1.02735 0.77729
 C306 C 0.37479 1.04335 0.79326
 C307 C 0.37521 0.95354 0.70356
 C308 C 0.37520 0.93753 0.68759
 H309 H 0.38189 0.94906 0.75962
 H310 H 0.41553 0.99046 0.76247
 H311 H 0.34145 0.98201 0.77058
 H312 H 0.33480 0.99041 0.71836
 H313 H 0.40888 0.99885 0.71025
 H314 H 0.36843 1.03183 0.72119
 C315 C 0.86135 0.52856 0.25223
 C316 C 0.88493 0.51889 0.23829
 C317 C 0.87582 0.49176 0.24237
 C318 C 0.85225 0.50113 0.25600
 C319 C 0.87575 0.52682 0.27711
 C320 C 0.86665 0.49970 0.28119
 C321 C 0.89933 0.51746 0.26349
 C322 C 0.89023 0.49003 0.26726
 C323 C 0.87572 0.47222 0.22303
 C324 C 0.87551 0.45617 0.20710
 C325 C 0.87567 0.54634 0.29648
 C326 C 0.87560 0.56238 0.31242
 H327 H 0.84948 0.54462 0.24627
 H328 H 0.89246 0.52658 0.22045
 H329 H 0.83288 0.49421 0.25272
 H330 H 0.85913 0.49203 0.29904
 H331 H 0.91869 0.52441 0.26679
 H332 H 0.90212 0.47398 0.27323
 C333 C 0.21894 0.13697 0.00110
 C334 C 0.24518 0.14924 0.00360
 C335 C 0.25695 0.12535 -0.00746
 C336 C 0.23101 0.11308 -0.01027
 C337 C 0.22208 0.12555 0.02738
 C338 C 0.23385 0.10166 0.01632
 C339 C 0.24802 0.13783 0.03019
 C340 C 0.26009 0.11393 0.01882
 C341 C 0.27638 0.12523 -0.02685
 C342 C 0.29239 0.12514 -0.04279
 C343 C 0.20266 0.12563 0.04678
 C344 C 0.18668 0.12565 0.06275
 H345 H 0.20179 0.14645 -0.00596
 H346 H 0.25006 0.16880 -0.00184
 H347 H 0.22423 0.10290 -0.02712
 H348 H 0.22896 0.08211 0.02178
 H349 H 0.25478 0.14800 0.04705
 H350 H 0.27723 0.10446 0.02590
 C351 C 0.74921 0.62339 0.46734
 C352 C 0.74667 0.60350 0.48845
 C353 C 0.74263 0.62481 0.50746
 C354 C 0.74487 0.64469 0.48664
 C355 C 0.77750 0.62489 0.47257
 C356 C 0.77346 0.64620 0.49157
 C357 C 0.77526 0.60501 0.49338
 C358 C 0.77092 0.62632 0.51268
 C359 C 0.72322 0.62477 0.52691
 C360 C 0.70728 0.62476 0.54293
 C361 C 0.79694 0.62495 0.45315
 C362 C 0.81294 0.62499 0.43718
 H363 H 0.74051 0.62219 0.44847
 H364 H 0.73545 0.58593 0.48736
 H365 H 0.73216 0.66101 0.48407
 H366 H 0.78469 0.66376 0.49264
 H367 H 0.78799 0.58870 0.49593
 H368 H 0.77965 0.62752 0.53154
 C369 C 0.71974 0.38613 -0.00123
 C370 C 0.73192 0.36226 0.01013
 C371 C 0.75781 0.37467 0.00735
 C372 C 0.74593 0.39853 -0.00371
 C373 C 0.72295 0.37482 -0.02753
 C374 C 0.74884 0.38723 -0.03030
 C375 C 0.73483 0.35095 -0.01647
 C376 C 0.76102 0.36336 -0.01894
 C377 C 0.77726 0.37467 0.02674
 C378 C 0.79329 0.37472 0.04266
 C379 C 0.70357 0.37496 -0.04697
 C380 C 0.68762 0.37507 -0.06297
 H381 H 0.70254 0.39549 0.00583
 H382 H 0.72517 0.35198 0.02697
 H383 H 0.75070 0.41810 0.00176
 H384 H 0.75558 0.39749 -0.04714
 H385 H 0.73004 0.33139 -0.02194
 H386 H 0.77820 0.35398 -0.02601
 C387 C 0.27192 0.85293 0.50966
 C388 C 0.24350 0.85636 0.51457
 C389 C 0.24231 0.87504 0.49260
 C390 C 0.27044 0.87161 0.48739
 C391 C 0.27733 0.87508 0.52733
 C392 C 0.27615 0.89376 0.50536
 C393 C 0.24921 0.87852 0.53253
 C394 C 0.24773 0.89720 0.51026
 C395 C 0.22278 0.87503 0.47330
 C396 C 0.20670 0.87503 0.45742
 C397 C 0.29679 0.87507 0.54670
 C398 C 0.31278 0.87504 0.56266
 H399 H 0.28210 0.83473 0.50964
 H400 H 0.22986 0.84098 0.51815
 H401 H 0.27897 0.86876 0.46862
 H402 H 0.28980 0.90914 0.50179
 H403 H 0.24070 0.88137 0.55131
 H404 H 0.23757 0.91541 0.51029
   
