data_POSCAR
  _audit_creation_date              2014-09-24
  _audit_creation_method            'ToBaCCo'
  _symmetry_space_group_name_H-M    'P1'
  _symmetry_Int_Tables_number       1
  _symmetry_cell_setting            triclinic
  loop_
  _symmetry_equiv_pos_as_xyz
 x,y,z
_cell_length_a 59.0841
_cell_length_b 11.4326
_cell_length_c 12.2294
_cell_angle_alpha 91.070500
_cell_angle_beta 90.674700
_cell_angle_gamma 90.981100
loop_
  _atom_site_label
  _atom_site_type_symbol
  _atom_site_fract_x
  _atom_site_fract_y
  _atom_site_fract_z
C1 C 0.74972 0.26405 0.43613
 C2 C 0.74918 0.27866 0.54804
 C3 C 0.72724 0.29832 0.60345
 C4 C 0.77041 0.27468 0.61461
 C5 C 0.77156 0.27060 0.37623
 C6 C 0.72851 0.23655 0.37257
 C7 C 0.71403 0.39071 0.56912
 C8 C 0.69108 0.39399 0.59180
 C9 C 0.68045 0.30552 0.65346
 C10 C 0.69462 0.22022 0.69994
 C11 C 0.71774 0.21575 0.67377
 C12 C 0.77768 0.36886 0.68248
 C13 C 0.80012 0.37428 0.72282
 C14 C 0.81549 0.28611 0.69421
 C15 C 0.80740 0.18907 0.63265
 C16 C 0.78505 0.18176 0.59701
 C17 C 0.77899 0.17413 0.31472
 C18 C 0.80163 0.16846 0.28238
 C19 C 0.81696 0.26013 0.30923
 C20 C 0.80899 0.36149 0.36075
 C21 C 0.78640 0.36684 0.39321
 C22 C 0.71366 0.14829 0.40817
 C23 C 0.69168 0.13792 0.36587
 C24 C 0.68449 0.21234 0.28338
 C25 C 0.69995 0.29295 0.23953
 C26 C 0.72190 0.30512 0.28402
 H27 H 0.72135 0.45770 0.51948
 H28 H 0.68220 0.46875 0.56166
 H29 H 0.68766 0.15159 0.75004
 H30 H 0.72772 0.14331 0.70170
 H31 H 0.76650 0.44092 0.69879
 H32 H 0.80567 0.45024 0.77057
 H33 H 0.77960 0.10736 0.54767
 H34 H 0.76775 0.09984 0.29881
 H35 H 0.80748 0.09022 0.24109
 H36 H 0.82053 0.43317 0.38208
 H37 H 0.78080 0.44277 0.43810
 H38 H 0.71869 0.09262 0.47412
 H39 H 0.67999 0.07521 0.40076
 H40 H 0.69459 0.35140 0.17591
 H41 H 0.73316 0.37273 0.25407
 H42 H 0.81851 0.12003 0.60778
 C43 C 0.25036 0.75251 0.39763
 C44 C 0.24985 0.74068 0.50852
 C45 C 0.22776 0.73713 0.56432
 C46 C 0.27103 0.73535 0.57573
 C47 C 0.27146 0.74212 0.33635
 C48 C 0.22962 0.77328 0.33425
 C49 C 0.21929 0.84022 0.60978
 C50 C 0.19636 0.84755 0.63537
 C51 C 0.18183 0.74996 0.61954
 C52 C 0.19075 0.64378 0.58225
 C53 C 0.21357 0.63782 0.55390
 C54 C 0.28873 0.81655 0.56042
 C55 C 0.31015 0.79840 0.60520
 C56 C 0.31426 0.70034 0.66942
 C57 C 0.29587 0.62627 0.69529
 C58 C 0.27433 0.64492 0.64992
 C59 C 0.28213 0.63415 0.33156
 C60 C 0.30478 0.62897 0.30280
 C61 C 0.31694 0.73207 0.28051
 C62 C 0.30539 0.83758 0.27058
 C63 C 0.28251 0.84226 0.29734
 C64 C 0.21604 0.67867 0.29813
 C65 C 0.19396 0.69731 0.26238
 C66 C 0.18544 0.81136 0.25951
 C67 C 0.20035 0.90664 0.28176
 C68 C 0.22216 0.88748 0.32118
 H69 H 0.23027 0.91635 0.61896
 H70 H 0.18979 0.93008 0.66448
 H71 H 0.17981 0.56768 0.56893
 H72 H 0.21987 0.55796 0.51776
 H73 H 0.28630 0.89131 0.50916
 H74 H 0.32379 0.85819 0.58473
 H75 H 0.26064 0.58436 0.66737
 H76 H 0.27328 0.55577 0.35670
 H77 H 0.31320 0.54575 0.30389
 H78 H 0.31440 0.91761 0.25093
 H79 H 0.27418 0.92572 0.29847
 H80 H 0.22198 0.59035 0.30519
 H81 H 0.18320 0.62182 0.24343
 H82 H 0.19508 0.99600 0.27301
 H83 H 0.23286 0.96138 0.34607
 H84 H 0.29818 0.55242 0.74808
 C85 C 0.25022 0.25014 -0.37004
 C86 C 0.24928 0.25812 -0.48167
 C87 C 0.27075 0.28321 -0.54143
 C88 C 0.22687 0.24576 -0.53957
 C89 C 0.22980 0.26398 -0.30317
 C90 C 0.27171 0.22651 -0.31202
 C91 C 0.28385 0.37951 -0.50563
 C92 C 0.30668 0.38992 -0.53068
 C93 C 0.31750 0.30453 -0.59565
 C94 C 0.30366 0.21309 -0.64131
 C95 C 0.28057 0.20185 -0.61334
 C96 C 0.21748 0.33588 -0.60093
 C97 C 0.19426 0.33224 -0.63073
 C98 C 0.17991 0.24008 -0.59581
 C99 C 0.19017 0.14651 -0.54149
 C100 C 0.21324 0.14811 -0.51755
 C101 C 0.21876 0.16569 -0.26179
 C102 C 0.19668 0.17460 -0.22435
 C103 C 0.18586 0.28357 -0.22100
 C104 C 0.19848 0.38472 -0.24698
 C105 C 0.22012 0.37425 -0.29041
 C106 C 0.28499 0.13321 -0.34768
 C107 C 0.30685 0.12094 -0.30684
 C108 C 0.31540 0.19881 -0.22633
 C109 C 0.30152 0.28678 -0.18393
 C110 C 0.27971 0.30079 -0.22693
 H111 H 0.27654 0.44331 -0.45145
 H112 H 0.31543 0.46714 -0.49890
 H113 H 0.31092 0.14615 -0.69329
 H114 H 0.27085 0.12588 -0.64155
 H115 H 0.22786 0.41100 -0.62087
 H116 H 0.18733 0.40507 -0.67468
 H117 H 0.22032 0.07520 -0.47523
 H118 H 0.22650 0.08078 -0.26700
 H119 H 0.18780 0.09540 -0.20097
 H120 H 0.19098 0.47034 -0.24516
 H121 H 0.22895 0.45120 -0.31877
 H122 H 0.27878 0.07388 -0.41145
 H123 H 0.31739 0.05308 -0.34054
 H124 H 0.30801 0.34880 -0.12280
 H125 H 0.26963 0.37310 -0.19825
 H126 H 0.18067 0.06923 -0.51902
 C127 C -0.24984 0.76132 -0.56909
 C128 C -0.25104 0.76015 -0.45758
 C129 C -0.27279 0.75145 -0.39959
 C130 C -0.23016 0.76178 -0.39001
 C131 C -0.22778 0.77813 -0.62260
 C132 C -0.27016 0.74047 -0.63786
 C133 C -0.28952 0.83451 -0.41540
 C134 C -0.31078 0.82023 -0.36908
 C135 C -0.31586 0.72192 -0.30493
 C136 C -0.29803 0.64523 -0.28047
 C137 C -0.27680 0.65995 -0.32768
 C138 C -0.22328 0.86378 -0.33288
 C139 C -0.20117 0.87438 -0.29153
 C140 C -0.18586 0.78258 -0.30674
 C141 C -0.19360 0.67684 -0.35502
 C142 C -0.21562 0.66673 -0.39604
 C143 C -0.21718 0.68531 -0.67677
 C144 C -0.19391 0.69216 -0.69766
 C145 C -0.18089 0.79026 -0.66083
 C146 C -0.19237 0.88660 -0.61574
 C147 C -0.21556 0.88101 -0.59951
 C148 C -0.27917 0.62741 -0.64742
 C149 C -0.30163 0.60931 -0.67993
 C150 C -0.31539 0.70475 -0.70683
 C151 C -0.30489 0.81641 -0.71345
 C152 C -0.28245 0.83415 -0.67827
 H153 H -0.28630 0.90907 -0.46588
 H154 H -0.32343 0.88447 -0.38798
 H155 H -0.30013 0.57218 -0.22677
 H156 H -0.26372 0.59724 -0.31107
 H157 H -0.23446 0.93768 -0.32702
 H158 H -0.19582 0.95578 -0.25187
 H159 H -0.22095 0.58767 -0.43900
 H160 H -0.22651 0.60511 -0.69608
 H161 H -0.18594 0.61717 -0.73531
 H162 H -0.18373 0.96730 -0.59245
 H163 H -0.22387 0.95364 -0.56071
 H164 H -0.26896 0.55408 -0.62467
 H165 H -0.30798 0.52036 -0.68193
 H166 H -0.31440 0.89213 -0.73733
 H167 H -0.27530 0.92192 -0.67440
 H168 H -0.18220 0.60482 -0.36788
 N169 N 0.02465 1.18935 -0.14663
 N170 N 0.04461 1.24341 -0.14637
 N171 N -0.02339 1.10430 -0.22251
 N172 N -0.04219 1.10424 -0.28153
 N173 N -0.02347 1.18875 -0.14815
 N174 N -0.04265 1.24694 -0.15403
 N175 N 0.02400 1.10460 -0.22072
 N176 N 0.04336 1.09947 -0.27243
 C177 C 0.05596 1.18726 -0.22653
 C178 C -0.05399 1.19408 -0.23892
 N179 N -0.02393 0.77316 -0.13906
 N180 N -0.04316 0.71294 -0.13949
 N181 N 0.02367 0.85294 -0.21369
 N182 N 0.04258 0.84684 -0.26980
 N183 N 0.02358 0.77529 -0.13586
 N184 N 0.04241 0.71450 -0.13740
 N185 N -0.02415 0.85252 -0.21524
 N186 N -0.04373 0.84923 -0.26819
 Mn187 Mn 0.00001 0.97855 -0.21928
 C188 C -0.05518 0.76024 -0.22148
 C189 C 0.05399 0.75933 -0.22224
 N190 N -0.02293 1.20181 0.08680
 N191 N -0.04193 1.26072 0.08392
 N192 N 0.02455 1.12430 0.16794
 N193 N 0.04334 1.13139 0.22764
 N194 N 0.02517 1.20105 0.08932
 N195 N 0.04451 1.26156 0.09357
 N196 N -0.02363 1.12335 0.16390
 N197 N -0.04326 1.12718 0.21488
 Mn198 Mn 0.00090 1.19679 -0.02969
 C199 C -0.05439 1.21454 0.16496
 C200 C 0.05560 1.21799 0.18122
 N201 N 0.02304 0.78578 0.09926
 N202 N 0.04193 0.72646 0.10180
 N203 N -0.02403 0.87061 0.16953
 N204 N -0.04288 0.86796 0.22618
 N205 N -0.02424 0.78579 0.09549
 N206 N -0.04324 0.72370 0.09979
 N207 N 0.02370 0.87183 0.17205
 N208 N 0.04333 0.87385 0.22465
 Mn209 Mn -0.00038 0.77893 -0.01996
 Mn210 Mn 0.00013 0.99766 0.16997
 Cl211 Cl 0.00018 0.98815 -0.02465
 C212 C 0.05429 0.78128 0.18126
 C213 C -0.05456 0.77520 0.18257
 N214 N 0.52398 0.34732 -0.17607
 N215 N 0.54309 0.34093 -0.23002
 N216 N 0.47624 0.27323 -0.09680
 N217 N 0.45719 0.21125 -0.09665
 N218 N 0.47670 0.34235 -0.18123
 N219 N 0.45827 0.32725 -0.24196
 N220 N 0.52428 0.27749 -0.09189
 N221 N 0.54385 0.22269 -0.08651
 C222 C 0.55525 0.26218 -0.17444
 C223 C 0.44643 0.24427 -0.18889
 N224 N 0.47508 0.39606 0.20386
 N225 N 0.45554 0.40114 0.25528
 N226 N 0.52348 0.30848 0.14202
 N227 N 0.54298 0.25404 0.14993
 N228 N 0.52306 0.39803 0.21075
 N229 N 0.54213 0.40539 0.26806
 N230 N 0.47520 0.30512 0.13643
 N231 N 0.45562 0.24719 0.13997
 Mn232 Mn 0.49982 0.28945 0.02282
 C233 C 0.44362 0.30705 0.21565
 C234 C 0.55429 0.31434 0.23014
 N235 N 0.47597 0.59282 -0.20306
 N236 N 0.45604 0.58351 -0.25329
 N237 N 0.52398 0.68900 -0.13457
 N238 N 0.54271 0.75225 -0.14369
 N239 N 0.52423 0.59698 -0.20027
 N240 N 0.54348 0.59392 -0.25393
 N241 N 0.47666 0.68606 -0.13838
 N242 N 0.45754 0.74354 -0.14531
 Mn243 Mn 0.50019 0.46994 -0.19160
 C244 C 0.44495 0.67953 -0.21806
 C245 C 0.55452 0.69267 -0.21951
 N246 N 0.52371 0.64807 0.18327
 N247 N 0.54312 0.65469 0.23749
 N248 N 0.47673 0.71829 0.09496
 N249 N 0.45828 0.78115 0.09037
 N250 N 0.47604 0.64710 0.17790
 N251 N 0.45699 0.65974 0.23171
 N252 N 0.52409 0.71914 0.09990
 N253 N 0.54369 0.77621 0.09647
 Mn254 Mn 0.49942 0.52246 0.19545
 Mn255 Mn 0.50041 0.70423 -0.01966
 Cl256 Cl 0.49997 0.49630 0.00181
 C257 C 0.55524 0.73628 0.18382
 C258 C 0.44627 0.74471 0.17679
 C259 C 0.37375 0.25532 0.28355
 C260 C 0.38750 0.33095 0.34804
 N261 N 0.37833 0.39082 0.43236
 C262 C 0.35590 0.38174 0.45384
 C263 C 0.34136 0.31055 0.38661
 N264 N 0.35107 0.24669 0.30408
 N265 N 0.38328 0.19362 0.20029
 C266 C 0.40582 0.20538 0.17821
 C267 C 0.41950 0.28370 0.24139
 N268 N 0.40985 0.34404 0.32522
 H269 H 0.34995 0.42823 0.52476
 H270 H 0.41285 0.15622 0.11057
 C271 C -0.12396 0.72356 0.24408
 C272 C -0.11075 0.80373 0.30647
 N273 N -0.12063 0.87209 0.38290
 C274 C -0.14331 0.86740 0.39747
 C275 C -0.15707 0.79168 0.33126
 N276 N -0.14673 0.71897 0.25815
 N277 N -0.11391 0.65548 0.16713
 C278 C -0.09129 0.66587 0.14848
 C279 C -0.07822 0.74900 0.20889
 N280 N -0.08832 0.81493 0.28723
 H281 H -0.15021 0.92062 0.46224
 H282 H -0.08377 0.61259 0.08495
 C283 C 0.62598 0.77360 0.22209
 C284 C 0.61428 0.67524 0.26027
 N285 N 0.62589 0.58723 0.30578
 C286 C 0.64878 0.59229 0.31517
 C287 C 0.66090 0.69173 0.27836
 N288 N 0.64886 0.78015 0.23314
 N289 N 0.61426 0.86044 0.17387
 C290 C 0.59133 0.85262 0.16175
 C291 C 0.57963 0.75433 0.20130
 N292 N 0.59148 0.66823 0.24984
 H293 H 0.65694 0.52115 0.35568
 H294 H 0.58237 0.92197 0.12172
 C295 C 0.12441 1.28629 0.27160
 C296 C 0.11025 1.21611 0.33537
 N297 N 0.11887 1.16343 0.42446
 C298 C 0.14120 1.17368 0.45095
 C299 C 0.15609 1.23894 0.38445
 N300 N 0.14694 1.29681 0.29775
 N301 N 0.11555 1.33807 0.18172
 C302 C 0.09333 1.32137 0.15218
 C303 C 0.07926 1.24845 0.21473
 N304 N 0.08821 1.19853 0.30542
 H305 H 0.14706 1.13127 0.52396
 H306 H 0.08690 1.36196 0.07914
 C307 C 0.62526 0.23230 -0.23581
 C308 C 0.61120 0.30142 -0.29980
 N309 N 0.62015 0.36649 -0.37996
 C310 C 0.64269 0.36845 -0.39847
 C311 C 0.65752 0.30220 -0.33269
 N312 N 0.64800 0.23340 -0.25416
 N313 N 0.61598 0.16843 -0.15421
 C314 C 0.59332 0.17215 -0.13346
 C315 C 0.57934 0.24310 -0.19735
 N316 N 0.58879 0.30508 -0.27932
 H317 H 0.64838 0.41884 -0.46678
 H318 H 0.58642 0.12238 -0.06683
 C319 C 0.12313 0.69863 -0.28331
 C320 C 0.11142 0.78650 -0.33780
 N321 N 0.12275 0.85915 -0.40532
 C322 C 0.14539 0.84889 -0.41999
 C323 C 0.15724 0.76134 -0.36551
 N324 N 0.14575 0.68714 -0.29910
 N325 N 0.11180 0.62869 -0.21309
 C326 C 0.08935 0.64334 -0.19399
 C327 C 0.07765 0.73211 -0.24776
 N328 N 0.08905 0.80072 -0.31909
 H329 H 0.15405 0.90786 -0.47421
 H330 H 0.08086 0.58770 -0.13609
 C331 C 0.37562 0.74564 -0.26977
 C332 C 0.38328 0.63043 -0.26384
 N333 N 0.36806 0.54011 -0.27105
 C334 C 0.34557 0.55965 -0.28615
 C335 C 0.33792 0.67501 -0.29727
 N336 N 0.35331 0.76498 -0.28776
 N337 N 0.39064 0.83638 -0.25907
 C338 C 0.41306 0.81716 -0.24307
 C339 C 0.42093 0.70196 -0.24031
 N340 N 0.40578 0.61098 -0.25036
 H341 H 0.33404 0.48541 -0.29437
 H342 H 0.42467 0.89107 -0.23357
 C343 C -0.12281 1.23441 -0.32502
 C344 C -0.11403 1.28920 -0.22978
 N345 N -0.12832 1.34730 -0.16216
 C346 C -0.15097 1.35187 -0.18500
 C347 C -0.15987 1.29406 -0.27926
 N348 N -0.14529 1.23786 -0.34686
 N349 N -0.10891 1.17469 -0.39241
 C350 C -0.08657 1.16524 -0.36819
 C351 C -0.07762 1.21717 -0.27152
 N352 N -0.09160 1.27916 -0.20461
 H353 H -0.16191 1.39667 -0.12831
 H354 H -0.07600 1.11531 -0.42291
 C355 C 0.62339 0.76438 -0.27318
 C356 C 0.61619 0.65574 -0.23429
 N357 N 0.63168 0.57373 -0.21079
 C358 C 0.65410 0.59373 -0.22730
 C359 C 0.66152 0.70065 -0.27262
 N360 N 0.64565 0.78335 -0.29255
 N361 N 0.60798 0.84861 -0.29247
 C362 C 0.58557 0.82811 -0.27552
 C363 C 0.57829 0.71744 -0.24119
 N364 N 0.59380 0.63398 -0.22049
 H365 H 0.66545 0.52373 -0.20944
 H366 H 0.57354 0.89665 -0.29012
 C367 C 0.12692 1.19317 -0.24301
 C368 C 0.11566 1.29022 -0.19970
 N369 N 0.12796 1.38412 -0.16164
 C370 C 0.15099 1.38585 -0.16631
 C371 C 0.16235 1.28677 -0.20710
 N372 N 0.14975 1.19289 -0.24335
 N373 N 0.11491 1.10200 -0.28739
 C374 C 0.09200 1.10231 -0.28876
 C375 C 0.08054 1.19613 -0.24013
 N376 N 0.09266 1.28873 -0.19680
 H377 H 0.16020 1.46232 -0.13543
 H378 H 0.08284 1.02809 -0.32436
 C379 C 0.37728 0.19683 -0.26014
 C380 C 0.38515 0.20161 -0.15133
 N381 N 0.37007 0.20356 -0.06838
 C382 C 0.34741 0.20170 -0.08940
 C383 C 0.33956 0.19643 -0.19825
 N384 N 0.35475 0.19341 -0.28089
 N385 N 0.39224 0.20127 -0.34331
 C386 C 0.41482 0.21183 -0.32257
 C387 C 0.42273 0.21656 -0.21392
 N388 N 0.40770 0.21064 -0.13068
 H389 H 0.33567 0.20415 -0.02215
 H390 H 0.42644 0.21850 -0.39003
 C391 C -0.12577 0.71624 -0.24772
 C392 C -0.11509 0.82311 -0.27195
 N393 N -0.12767 0.91620 -0.29908
 C394 C -0.15055 0.90706 -0.30468
 C395 C -0.16141 0.79935 -0.28436
 N396 N -0.14863 0.70625 -0.25600
 N397 N -0.11307 0.62418 -0.21720
 C398 C -0.09012 0.63459 -0.20972
 C399 C -0.07948 0.74098 -0.23635
 N400 N -0.09227 0.83266 -0.26667
 H401 H -0.15996 0.98172 -0.32974
 H402 H -0.08032 0.56092 -0.18330
 C403 C 0.37635 0.79352 0.20375
 C404 C 0.38811 0.72367 0.27804
 N405 N 0.37657 0.66260 0.35374
 C406 C 0.35368 0.66571 0.35685
 C407 C 0.34175 0.73105 0.27951
 N408 N 0.35343 0.79577 0.20610
 N409 N 0.38803 0.85442 0.12801
 C410 C 0.41090 0.84620 0.12147
 C411 C 0.42250 0.77245 0.19303
 N412 N 0.41080 0.71418 0.27045
 H413 H 0.34486 0.61824 0.41951
 H414 H 0.41977 0.89316 0.05845
 C415 C -0.12394 1.28564 0.20835
 C416 C -0.11277 1.20622 0.27589
 N417 N -0.12460 1.14932 0.35369
 C418 C -0.14713 1.16677 0.36602
 C419 C -0.15850 1.24350 0.29691
 N420 N -0.14655 1.30267 0.22026
 N421 N -0.11204 1.34300 0.13099
 C422 C -0.08956 1.32395 0.11738
 C423 C -0.07837 1.24308 0.18368
 N424 N -0.09035 1.18637 0.26179
 H425 H -0.15613 1.12223 0.42989
 H426 H -0.08061 1.37005 0.05407
 C427 C 0.62368 0.27851 0.30692
 C428 C 0.61452 0.22835 0.21025
 N429 N 0.62843 0.17357 0.13855
 C430 C 0.65111 0.16717 0.15918
 C431 C 0.66022 0.21737 0.25607
 N432 N 0.64620 0.27127 0.32781
 N433 N 0.61001 0.33579 0.37742
 C434 C 0.58756 0.34631 0.35565
 C435 C 0.57822 0.29639 0.25911
 N436 N 0.59198 0.23796 0.18862
 H437 H 0.66187 0.12297 0.10115
 H438 H 0.57714 0.39391 0.41286
 C439 C 0.12476 0.74434 0.20029
 C440 C 0.11437 0.84550 0.24050
 N441 N 0.12724 0.93594 0.28014
 C442 C 0.15013 0.92970 0.28261
 C443 C 0.16078 0.82778 0.24446
 N444 N 0.14763 0.73753 0.20397
 N445 N 0.11182 0.65440 0.15895
 C446 C 0.08889 0.66184 0.15538
 C447 C 0.07851 0.76330 0.19590
 N448 N 0.09156 0.85261 0.23764
 H449 H 0.15963 1.00218 0.31794
 H450 H 0.07891 0.59019 0.11980
   
