data_POSCAR
  _audit_creation_date              2014-09-24
  _audit_creation_method            'ToBaCCo'
  _symmetry_space_group_name_H-M    'P1'
  _symmetry_Int_Tables_number       1
  _symmetry_cell_setting            triclinic
  loop_
  _symmetry_equiv_pos_as_xyz
 x,y,z
_cell_length_a 23.7756
_cell_length_b 22.5328
_cell_length_c 21.9198
_cell_angle_alpha 88.306400
_cell_angle_beta 85.936200
_cell_angle_gamma 94.423800
loop_
  _atom_site_label
  _atom_site_type_symbol
  _atom_site_fract_x
  _atom_site_fract_y
  _atom_site_fract_z
N1 N 0.15423 1.27384 0.13168
 N2 N 0.11625 1.25719 0.17690
 C3 C 0.08564 1.30327 0.19125
 C4 C 0.10549 1.35043 0.15236
 C5 C 0.14911 1.33122 0.11531
 H6 H 0.05336 1.30311 0.22863
 H7 H 0.17655 1.35723 0.08132
 Cu8 Cu 0.11245 1.17815 0.21588
 Cu9 Cu 0.20988 1.22045 0.10141
 Cu10 Cu 0.23685 1.11855 0.21479
 N11 N 0.12123 1.10595 0.26397
 N12 N 0.17057 1.08300 0.26344
 C13 C 0.16687 1.03573 0.30285
 C14 C 0.11214 1.02868 0.32820
 C15 C 0.08397 1.07393 0.30378
 H16 H 0.20165 1.00981 0.31328
 H17 H 0.04086 1.08404 0.31545
 N18 N 0.28999 1.14068 0.14318
 N19 N 0.27839 1.17687 0.09803
 C20 C 0.31804 1.17469 0.05124
 C21 C 0.35624 1.13546 0.06837
 C22 C 0.33746 1.11458 0.12665
 H23 H 0.31692 1.19667 0.00686
 H24 H 0.35379 1.07888 0.15245
 H25 H 0.18535 1.13812 0.14841
 H26 H 0.21363 1.20289 0.19120
 N27 N 0.81901 0.74020 0.12299
 N28 N 0.84948 0.74052 0.17089
 C29 C 0.88299 0.69520 0.16819
 C30 C 0.87330 0.66540 0.11543
 C31 C 0.83289 0.69496 0.08723
 H32 H 0.91322 0.68570 0.20107
 H33 H 0.81521 0.68476 0.04427
 Cu34 Cu 0.84662 0.80280 0.23003
 Cu35 Cu 0.76451 0.79987 0.11199
 Cu36 Cu 0.72339 0.86286 0.24954
 N37 N 0.83356 0.85909 0.29385
 N38 N 0.78468 0.88265 0.30170
 C39 C 0.78577 0.91867 0.34969
 C40 C 0.83840 0.91744 0.37187
 C41 C 0.86790 0.87931 0.33629
 H42 H 0.75108 0.94337 0.36684
 H43 H 0.91037 0.86672 0.34113
 N44 N 0.67803 0.86251 0.17776
 N45 N 0.69493 0.84200 0.12414
 C46 C 0.65847 0.85629 0.08256
 C47 C 0.61692 0.88669 0.11235
 C48 C 0.63032 0.88992 0.17214
 H49 H 0.66312 0.84743 0.03432
 H50 H 0.60932 0.91423 0.20771
 H51 H 0.78271 0.86352 0.17780
 H52 H 0.74881 0.78856 0.20281
 N53 N 0.87256 1.29508 -0.11455
 N54 N 0.92192 1.27747 -0.13444
 C55 C 0.96288 1.30526 -0.10394
 C56 C 0.93759 1.34289 -0.06401
 C57 C 0.88036 1.33604 -0.07170
 H58 H 1.00750 1.29891 -0.11056
 H59 H 0.84695 1.35722 -0.04675
 Cu60 Cu 0.92814 1.22182 -0.20010
 Cu61 Cu 0.80228 1.25999 -0.14361
 Cu62 Cu 0.81444 1.13286 -0.22773
 N63 N 0.92550 1.17790 -0.27500
 N64 N 0.88097 1.14233 -0.28595
 C65 C 0.89055 1.11700 -0.34035
 C66 C 0.94369 1.13870 -0.36383
 C67 C 0.96505 1.17697 -0.32196
 H68 H 0.86112 1.08595 -0.36092
 H69 H 1.00581 1.20222 -0.32528
 N70 N 0.74357 1.15059 -0.18271
 N71 N 0.73822 1.20073 -0.15374
 C72 C 0.68653 1.19849 -0.12401
 C73 C 0.65871 1.14439 -0.13463
 C74 C 0.69565 1.11475 -0.17189
 H75 H 0.67233 1.23123 -0.09254
 H76 H 0.68957 1.06954 -0.18685
 H77 H 0.83819 1.18061 -0.15067
 H78 H 0.82937 1.22110 -0.22450
 N79 N 0.19106 0.69844 -0.14367
 N80 N 0.13941 0.69872 -0.16171
 C81 C 0.10463 0.65981 -0.12630
 C82 C 0.13672 0.63380 -0.08442
 C83 C 0.19126 0.65873 -0.09651
 H84 H 0.05943 0.65261 -0.12950
 H85 H 0.22757 0.65102 -0.07114
 Cu86 Cu 0.12151 0.75202 -0.22767
 Cu87 Cu 0.25224 0.75458 -0.17882
 Cu88 Cu 0.20304 0.87997 -0.24534
 N89 N 0.09949 0.81821 -0.27687
 N90 N 0.13203 0.86833 -0.28394
 C91 C 0.10578 0.90842 -0.31600
 C92 C 0.05459 0.88136 -0.32945
 C93 C 0.05109 0.82443 -0.30416
 H94 H 0.12176 0.95409 -0.32657
 H95 H 0.01568 0.79119 -0.30345
 N96 N 0.27981 0.87850 -0.21730
 N97 N 0.29942 0.83032 -0.19356
 C98 C 0.34916 0.84579 -0.16998
 C99 C 0.36085 0.90656 -0.17941
 C100 C 0.31637 0.92572 -0.20949
 H101 H 0.37061 0.81694 -0.14061
 H102 H 0.30804 0.97161 -0.21798
 H103 H 0.19213 0.81285 -0.17758
 H104 H 0.21904 0.79348 -0.25581
 C105 C 0.46249 1.03650 0.00811
 C106 C 0.49418 0.99164 0.04305
 C107 C 0.52749 0.95891 0.00609
 C108 C 0.52497 0.97340 -0.06256
 C109 C 0.50833 1.07425 -0.03132
 C110 C 0.54117 1.04094 -0.06838
 C111 C 0.42922 1.00008 -0.03656
 C112 C 0.46171 0.96710 -0.07366
 H113 H 0.49382 0.98978 0.09250
 H114 H 0.55174 0.94654 -0.09278
 H115 H 0.51575 1.12199 -0.02780
 H116 H 0.38373 0.99965 -0.03781
 C117 C 0.04335 0.47851 1.11957
 C118 C 0.07682 0.51668 1.06824
 C119 C 0.04318 0.54133 1.02805
 C120 C -0.02044 0.52584 1.04266
 C121 C 0.00202 0.51980 1.14889
 C122 C -0.03109 0.54462 1.10902
 C123 C 0.00630 0.43234 1.08655
 C124 C -0.02632 0.45749 1.04583
 H125 H 0.12252 0.52352 1.06442
 H126 H -0.04732 0.54607 1.00958
 H127 H 0.00175 0.53161 1.19645
 H128 H 0.00856 0.38465 1.09118
 C129 C 1.03328 -0.02420 0.45707
 C130 C 1.03838 0.04196 0.47289
 C131 C 0.99606 0.05698 0.51293
 C132 C 0.95231 0.00512 0.53367
 C133 C 1.03013 -0.05807 0.51893
 C134 C 0.98774 -0.04256 0.55896
 C135 C 0.97436 -0.03551 0.43372
 C136 C 0.93200 -0.02021 0.47408
 H137 H 1.07305 0.07342 0.45579
 H138 H 0.91759 0.01727 0.56635
 H139 H 1.05943 -0.09052 0.53012
 H140 H 0.96726 -0.05382 0.38962
 N141 N 0.09210 0.40524 1.15755
 N142 N 0.07906 0.45600 1.16472
 N143 N -0.09723 0.61662 1.09289
 N144 N -0.06520 0.59118 1.12776
 N145 N -0.03425 0.37882 0.97879
 N146 N -0.05586 0.42354 1.00231
 N147 N 0.11684 0.59456 0.96614
 N148 N 0.06432 0.57965 0.97703
 N149 N 1.09357 -0.00842 0.37333
 N150 N 1.07833 -0.04338 0.41593
 N151 N 1.01472 -0.09256 0.64486
 N152 N 0.97817 -0.06641 0.62037
 N153 N 0.85632 -0.05450 0.41898
 N154 N 0.87314 -0.02833 0.46362
 N155 N 0.96938 0.12621 0.58401
 N156 N 0.99537 0.11579 0.53541
 N157 N 0.39623 1.10901 0.02814
 N158 N 0.42634 1.06972 0.04861
 N159 N 0.60778 1.12006 -0.10181
 N160 N 0.59069 1.06534 -0.10417
 N161 N 0.39378 0.94433 -0.14228
 N162 N 0.43745 0.92893 -0.11750
 N163 N 0.57460 0.91896 0.08638
 N164 N 0.56853 0.92237 0.02921
   
