data_POSCAR
  _audit_creation_date              2014-09-24
  _audit_creation_method            'ToBaCCo'
  _symmetry_space_group_name_H-M    'P1'
  _symmetry_Int_Tables_number       1
  _symmetry_cell_setting            triclinic
  loop_
  _symmetry_equiv_pos_as_xyz
 x,y,z
_cell_length_a 45.7436
_cell_length_b 35.7396
_cell_length_c 23.3300
_cell_angle_alpha 90.000000
_cell_angle_beta 89.856800
_cell_angle_gamma 89.900200
loop_
  _atom_site_label
  _atom_site_type_symbol
  _atom_site_fract_x
  _atom_site_fract_y
  _atom_site_fract_z
C1 C 0.68731 0.30986 0.50261
 C2 C 0.70200 0.30259 0.55377
 C3 C 0.72716 0.28017 0.55350
 C4 C 0.73707 0.26292 0.50234
 C5 C 0.72132 0.27001 0.45132
 C6 C 0.69713 0.29407 0.45139
 C7 C 0.76347 0.23772 0.50232
 C8 C 0.77937 0.23055 0.45129
 C9 C 0.80354 0.20636 0.45142
 C10 C 0.81311 0.19057 0.50279
 C11 C 0.79823 0.19794 0.55379
 C12 C 0.77317 0.22043 0.55346
 H13 H 0.66814 0.32782 0.50256
 H14 H 0.73879 0.27663 0.59341
 H15 H 0.72739 0.25692 0.41126
 H16 H 0.77340 0.24373 0.41128
 H17 H 0.83223 0.17252 0.50320
 H18 H 0.76148 0.22397 0.59340
 C19 C 0.18670 0.80918 0.50502
 C20 C 0.20147 0.80198 0.55611
 C21 C 0.22660 0.77954 0.55582
 C22 C 0.23642 0.76217 0.50472
 C23 C 0.22060 0.76918 0.45372
 C24 C 0.19641 0.79328 0.45380
 C25 C 0.26286 0.73705 0.50473
 C26 C 0.27870 0.72994 0.45365
 C27 C 0.30293 0.70595 0.45368
 C28 C 0.31270 0.69023 0.50490
 C29 C 0.29792 0.69752 0.55611
 C30 C 0.27273 0.71988 0.55589
 H31 H 0.16755 0.82717 0.50502
 H32 H 0.23830 0.77607 0.59568
 H33 H 0.22661 0.75601 0.41369
 H34 H 0.27266 0.74297 0.41359
 H35 H 0.33189 0.67232 0.50481
 H36 H 0.26103 0.72344 0.59584
 C37 C 0.31263 0.30864 -0.50230
 C38 C 0.29790 0.30126 -0.55329
 C39 C 0.27286 0.27880 -0.55286
 C40 C 0.26306 0.26161 -0.50161
 C41 C 0.27883 0.26883 -0.45066
 C42 C 0.30295 0.29293 -0.45095
 C43 C 0.23676 0.23636 -0.50143
 C44 C 0.22094 0.22919 -0.45032
 C45 C 0.19684 0.20499 -0.45033
 C46 C 0.18726 0.18918 -0.50165
 C47 C 0.20206 0.19655 -0.55272
 C48 C 0.22705 0.21905 -0.55251
 H49 H 0.33172 0.32663 -0.50258
 H50 H 0.26128 0.27521 -0.59279
 H51 H 0.27286 0.25581 -0.41053
 H52 H 0.22692 0.24238 -0.41034
 H53 H 0.16819 0.17113 -0.50198
 H54 H 0.23867 0.22260 -0.59251
 C55 C -0.18707 0.81057 -0.50388
 C56 C -0.20177 0.80337 -0.55504
 C57 C -0.22683 0.78091 -0.55487
 C58 C -0.23666 0.76353 -0.50382
 C59 C -0.22092 0.77055 -0.45274
 C60 C -0.19680 0.79466 -0.45271
 C61 C -0.26300 0.73837 -0.50400
 C62 C -0.27886 0.73113 -0.45300
 C63 C -0.30301 0.70710 -0.45325
 C64 C -0.31265 0.69146 -0.50459
 C65 C -0.29783 0.69886 -0.55563
 C66 C -0.27276 0.72126 -0.55525
 H67 H -0.16797 0.82856 -0.50380
 H68 H -0.23846 0.77744 -0.59479
 H69 H -0.22694 0.75737 -0.41275
 H70 H -0.27292 0.74409 -0.41285
 H71 H -0.33175 0.67351 -0.50483
 H72 H -0.26111 0.72485 -0.59521
 N73 N 0.03081 1.06656 -0.06145
 N74 N 0.05032 1.09262 -0.07366
 N75 N -0.03059 1.04029 -0.10070
 N76 N -0.05157 1.04603 -0.13834
 N77 N -0.03070 1.06657 -0.06132
 N78 N -0.05182 1.09101 -0.07118
 N79 N 0.03084 1.04039 -0.10098
 N80 N 0.05036 1.04790 -0.14109
 C81 C 0.06258 1.08017 -0.12291
 C82 C -0.06471 1.07747 -0.11905
 N83 N -0.03062 0.93357 -0.06151
 N84 N -0.05011 0.90753 -0.07374
 N85 N 0.03090 0.95984 -0.10065
 N86 N 0.05196 0.95406 -0.13831
 N87 N 0.03089 0.93356 -0.06126
 N88 N 0.05200 0.90907 -0.07116
 N89 N -0.03052 0.95974 -0.10104
 N90 N -0.04994 0.95224 -0.14117
 Mn91 Mn 0.00016 1.00006 -0.10134
 C92 C -0.06222 0.91998 -0.12301
 C93 C 0.06502 0.92259 -0.11902
 N94 N -0.03065 1.06682 0.06244
 N95 N -0.05009 1.09305 0.07467
 N96 N 0.03069 1.04003 0.10168
 N97 N 0.05167 1.04560 0.13934
 N98 N 0.03086 1.06631 0.06230
 N99 N 0.05203 1.09058 0.07219
 N100 N -0.03074 1.04065 0.10196
 N101 N -0.05023 1.04833 0.14209
 Mn102 Mn 0.00008 1.06699 0.00049
 C103 C -0.06237 1.08070 0.12392
 C104 C 0.06488 1.07694 0.12005
 N105 N 0.03046 0.93331 0.06249
 N106 N 0.04988 0.90710 0.07474
 N107 N -0.03100 0.96010 0.10162
 N108 N -0.05206 0.95448 0.13930
 N109 N -0.03104 0.93381 0.06225
 N110 N -0.05221 0.90950 0.07215
 N111 N 0.03043 0.95948 0.10202
 N112 N 0.04981 0.95181 0.14216
 Mn113 Mn -0.00008 0.93314 0.00049
 Mn114 Mn -0.00016 1.00006 0.10232
 Cl115 Cl 0.00000 1.00006 0.00049
 C116 C 0.06201 0.91944 0.12401
 C117 C -0.06519 0.92312 0.12003
 N118 N 0.46953 0.43336 -0.06244
 N119 N 0.45004 0.40726 -0.07429
 N120 N 0.53084 0.46003 -0.10224
 N121 N 0.55175 0.45430 -0.14026
 N122 N 0.53104 0.43375 -0.06287
 N123 N 0.55215 0.40932 -0.07313
 N124 N 0.46942 0.45950 -0.10201
 N125 N 0.44984 0.45193 -0.14180
 C126 C 0.43770 0.41964 -0.12336
 C127 C 0.56495 0.42286 -0.12120
 N128 N 0.53037 0.56674 -0.06292
 N129 N 0.54985 0.59282 -0.07506
 N130 N 0.46899 0.54006 -0.10175
 N131 N 0.44804 0.54582 -0.13946
 N132 N 0.46886 0.56635 -0.06237
 N133 N 0.44775 0.59080 -0.07232
 N134 N 0.53042 0.54059 -0.10249
 N135 N 0.54994 0.54815 -0.14258
 Mn136 Mn 0.49992 0.50005 -0.10263
 C137 C 0.56211 0.58043 -0.12433
 C138 C 0.43488 0.57726 -0.12021
 N139 N 0.53091 0.43354 0.06088
 N140 N 0.55050 0.40750 0.07285
 N141 N 0.46942 0.45984 0.10067
 N142 N 0.44851 0.45402 0.13863
 N143 N 0.46940 0.43356 0.06129
 N144 N 0.44841 0.40903 0.07149
 N145 N 0.53084 0.45969 0.10044
 N146 N 0.55040 0.45219 0.14033
 Mn147 Mn 0.50022 0.43313 -0.00078
 C148 C 0.56272 0.41995 0.12197
 C149 C 0.43551 0.42252 0.11954
 N150 N 0.46919 0.56655 0.06137
 N151 N 0.44961 0.59258 0.07363
 N152 N 0.53075 0.54025 0.10018
 N153 N 0.55169 0.54610 0.13783
 N154 N 0.53070 0.56654 0.06080
 N155 N 0.55168 0.59108 0.07070
 N156 N 0.46932 0.54040 0.10093
 N157 N 0.44982 0.54789 0.14112
 Mn158 Mn 0.49978 0.56696 -0.00078
 Mn159 Mn 0.50008 0.50005 0.10106
 Cl160 Cl 0.50000 0.50005 -0.00078
 C161 C 0.43746 0.58013 0.12294
 C162 C 0.56466 0.57761 0.11855
 C163 C 0.30950 0.31587 0.39384
 C164 C 0.32088 0.32802 0.35107
 C165 C 0.33629 0.34261 0.30211
 C166 C 0.35540 0.31942 0.27123
 C167 C 0.37346 0.33456 0.22872
 C168 C 0.37248 0.37298 0.21690
 C169 C 0.35267 0.39595 0.24644
 C170 C 0.33462 0.38080 0.28897
 C171 C 0.39379 0.38948 0.17914
 C172 C 0.41247 0.40406 0.15031
 H173 H 0.35710 0.28992 0.28145
 H174 H 0.38891 0.31661 0.20659
 H175 H 0.35194 0.42575 0.23808
 H176 H 0.32017 0.39907 0.31297
 C177 C -0.19081 0.81731 0.39500
 C178 C -0.17964 0.82947 0.35204
 C179 C -0.16446 0.84400 0.30280
 C180 C -0.14584 0.82060 0.27116
 C181 C -0.12789 0.83563 0.22839
 C182 C -0.12850 0.87411 0.21709
 C183 C -0.14787 0.89730 0.24735
 C184 C -0.16581 0.88228 0.29014
 C185 C -0.10715 0.89043 0.17930
 C186 C -0.08838 0.90486 0.15056
 H187 H -0.14440 0.79103 0.28101
 H188 H -0.11277 0.81751 0.20570
 H189 H -0.14829 0.92716 0.23940
 H190 H -0.17989 0.90069 0.31475
 C191 C 0.69063 0.68431 0.39153
 C192 C 0.67929 0.67219 0.34881
 C193 C 0.66390 0.65761 0.29996
 C194 C 0.66564 0.61944 0.28669
 C195 C 0.64759 0.60429 0.24434
 C196 C 0.62772 0.62723 0.21510
 C197 C 0.62668 0.66563 0.22702
 C198 C 0.64474 0.68078 0.26936
 C199 C 0.60640 0.61070 0.17760
 C200 C 0.58771 0.59609 0.14900
 H201 H 0.68014 0.60119 0.31049
 H202 H 0.64837 0.57449 0.23590
 H203 H 0.61119 0.68356 0.20513
 H204 H 0.64298 0.71026 0.27968
 C205 C 0.19059 1.18194 0.39446
 C206 C 0.17937 1.16988 0.35159
 C207 C 0.16415 1.15550 0.30245
 C208 C 0.16550 1.11727 0.28950
 C209 C 0.14754 1.10238 0.24679
 C210 C 0.12817 1.12565 0.21691
 C211 C 0.12755 1.16410 0.22850
 C212 C 0.14552 1.17900 0.27119
 C213 C 0.10682 1.10945 0.17920
 C214 C 0.08805 1.09511 0.15052
 H215 H 0.17959 1.09878 0.31380
 H216 H 0.14797 1.07254 0.23860
 H217 H 0.11243 1.18229 0.20611
 H218 H 0.14408 1.20854 0.28127
 C219 C 0.69093 0.31645 -0.39625
 C220 C 0.67961 0.32862 -0.35338
 C221 C 0.66425 0.34322 -0.30431
 C222 C 0.66567 0.38146 -0.29143
 C223 C 0.64764 0.39657 -0.24879
 C224 C 0.62808 0.37353 -0.21888
 C225 C 0.62736 0.33508 -0.23044
 C226 C 0.64541 0.31996 -0.27306
 C227 C 0.60675 0.38997 -0.18100
 C228 C 0.58804 0.40450 -0.15207
 H229 H 0.67992 0.39977 -0.31572
 H230 H 0.64816 0.42641 -0.24063
 H231 H 0.61212 0.31706 -0.20803
 H232 H 0.64390 0.29042 -0.28308
 C233 C 0.19054 0.81594 -0.39389
 C234 C 0.17938 0.82815 -0.35091
 C235 C 0.16422 0.84276 -0.30166
 C236 C 0.16568 0.88100 -0.28887
 C237 C 0.14775 0.89614 -0.24610
 C238 C 0.12828 0.87311 -0.21599
 C239 C 0.12755 0.83464 -0.22741
 C240 C 0.14549 0.81950 -0.27016
 C241 C 0.10694 0.88958 -0.17823
 C242 C 0.08818 0.90416 -0.14952
 H243 H 0.17985 0.89930 -0.31337
 H244 H 0.14827 0.92599 -0.23805
 H245 H 0.11235 0.81665 -0.20484
 H246 H 0.14396 0.78995 -0.28012
 C247 C 0.30894 0.68372 -0.39393
 C248 C 0.32022 0.67159 -0.35112
 C249 C 0.33556 0.65701 -0.30215
 C250 C 0.35446 0.68025 -0.27119
 C251 C 0.37250 0.66512 -0.22875
 C252 C 0.37171 0.62668 -0.21707
 C253 C 0.35209 0.60367 -0.24667
 C254 C 0.33406 0.61879 -0.28914
 C255 C 0.39305 0.61022 -0.17945
 C256 C 0.41177 0.59566 -0.15076
 H257 H 0.35603 0.70976 -0.28132
 H258 H 0.38780 0.68311 -0.20658
 H259 H 0.35152 0.57384 -0.23843
 H260 H 0.31977 0.60049 -0.31321
 C261 C -0.19032 1.18331 -0.39334
 C262 C -0.17911 1.17122 -0.35046
 C263 C -0.16390 1.15676 -0.30131
 C264 C -0.14516 1.18011 -0.27020
 C265 C -0.12720 1.16510 -0.22753
 C266 C -0.12794 1.12667 -0.21581
 C267 C -0.14743 1.10355 -0.24553
 C268 C -0.16537 1.11856 -0.28822
 C269 C -0.10661 1.11031 -0.17813
 C270 C -0.08786 1.09582 -0.14948
 H271 H -0.14363 1.20962 -0.28039
 H272 H -0.11200 1.18316 -0.20526
 H273 H -0.14795 1.07372 -0.23724
 H274 H -0.17955 1.10018 -0.31241
 C275 C 0.68222 0.69726 -0.40085
 C276 C 0.66929 0.68703 -0.35859
 C277 C 0.65318 0.67273 -0.31033
 C278 C 0.62557 0.68741 -0.29701
 C279 C 0.60831 0.67042 -0.25488
 C280 C 0.61856 0.63866 -0.22595
 C281 C 0.64652 0.62464 -0.23808
 C282 C 0.66379 0.64164 -0.28020
 C283 C 0.59946 0.61871 -0.18761
 C284 C 0.58279 0.60142 -0.15759
 H285 H 0.61702 0.71119 -0.32045
 H286 H 0.58663 0.68132 -0.24617
 H287 H 0.65457 0.59992 -0.21632
 H288 H 0.68497 0.62981 -0.29057
 C289 C 0.18287 1.19578 -0.40063
 C290 C 0.16995 1.18577 -0.35821
 C291 C 0.15380 1.17170 -0.30977
 C292 C 0.12619 1.18646 -0.29665
 C293 C 0.10889 1.16968 -0.25436
 C294 C 0.11910 1.13803 -0.22505
 C295 C 0.14706 1.12394 -0.23701
 C296 C 0.16436 1.14073 -0.27928
 C297 C 0.09997 1.11826 -0.18648
 C298 C 0.08328 1.10109 -0.15630
 H299 H 0.11766 1.21013 -0.32036
 H300 H 0.08721 1.18063 -0.24581
 H301 H 0.15509 1.09931 -0.21497
 H302 H 0.18555 1.12883 -0.28949
 C303 C 0.31764 0.30273 -0.39860
 C304 C 0.33052 0.31295 -0.35642
 C305 C 0.34660 0.32725 -0.30826
 C306 C 0.37417 0.31250 -0.29504
 C307 C 0.39142 0.32950 -0.25309
 C308 C 0.38120 0.36135 -0.22423
 C309 C 0.35329 0.37544 -0.23624
 C310 C 0.33602 0.35842 -0.27818
 C311 C 0.40031 0.38133 -0.18612
 C312 C 0.41700 0.39864 -0.15633
 H313 H 0.38269 0.28866 -0.31845
 H314 H 0.41307 0.31856 -0.24447
 H315 H 0.34526 0.40023 -0.21454
 H316 H 0.31487 0.37031 -0.28848
 C317 C -0.18212 0.80427 -0.40021
 C318 C -0.16922 0.81435 -0.35793
 C319 C -0.15312 0.82847 -0.30963
 C320 C -0.16373 0.85944 -0.27909
 C321 C -0.14649 0.87624 -0.23691
 C322 C -0.11854 0.86216 -0.22508
 C323 C -0.10827 0.83054 -0.25445
 C324 C -0.12551 0.81374 -0.29666
 C325 C -0.09948 0.88192 -0.18656
 C326 C -0.08285 0.89908 -0.15639
 H327 H -0.18491 0.87131 -0.28918
 H328 H -0.15456 0.90086 -0.21482
 H329 H -0.08661 0.81959 -0.24600
 H330 H -0.11695 0.79006 -0.32040
 C331 C 0.31765 0.69622 0.40114
 C332 C 0.33051 0.68611 0.35872
 C333 C 0.34655 0.67194 0.31021
 C334 C 0.37408 0.68668 0.29673
 C335 C 0.39129 0.66982 0.25430
 C336 C 0.38104 0.63814 0.22525
 C337 C 0.35316 0.62408 0.23756
 C338 C 0.33595 0.64095 0.27996
 C339 C 0.40011 0.61829 0.18661
 C340 C 0.41677 0.60106 0.15639
 H341 H 0.38262 0.71038 0.32025
 H342 H 0.41291 0.68074 0.24546
 H343 H 0.34512 0.59942 0.21570
 H344 H 0.31482 0.62908 0.29045
 C345 C -0.18244 1.19710 0.40177
 C346 C -0.16950 1.18704 0.35936
 C347 C -0.15335 1.17289 0.31093
 C348 C -0.12563 1.18729 0.29812
 C349 C -0.10836 1.17040 0.25580
 C350 C -0.11872 1.13902 0.22615
 C351 C -0.14678 1.12529 0.23781
 C352 C -0.16406 1.14219 0.28011
 C353 C -0.09964 1.11911 0.18755
 C354 C -0.08301 1.10180 0.15733
 H355 H -0.11699 1.21075 0.32208
 H356 H -0.08660 1.18107 0.24748
 H357 H -0.15493 1.10086 0.21551
 H358 H -0.18533 1.13057 0.29007
 C359 C 0.68248 0.30376 0.39890
 C360 C 0.66966 0.31386 0.35655
 C361 C 0.65366 0.32803 0.30815
 C362 C 0.66423 0.35910 0.27793
 C363 C 0.64703 0.37598 0.23570
 C364 C 0.61918 0.36186 0.22352
 C365 C 0.60897 0.33011 0.25253
 C366 C 0.62617 0.31323 0.29478
 C367 C 0.60010 0.38174 0.18513
 C368 C 0.58343 0.39899 0.15512
 H369 H 0.68533 0.37101 0.28834
 H370 H 0.65504 0.40070 0.21389
 H371 H 0.58737 0.31914 0.24379
 H372 H 0.61764 0.28947 0.31828
 C373 C 0.18168 0.80294 0.40134
 C374 C 0.16877 0.81307 0.35908
 C375 C 0.15266 0.82727 0.31079
 C376 C 0.12494 0.81290 0.29812
 C377 C 0.10774 0.82980 0.25589
 C378 C 0.11816 0.86117 0.22618
 C379 C 0.14621 0.87487 0.23770
 C380 C 0.16342 0.85796 0.27991
 C381 C 0.09915 0.88107 0.18762
 C382 C 0.08258 0.89836 0.15742
 H383 H 0.11627 0.78944 0.32212
 H384 H 0.08599 0.81915 0.24768
 H385 H 0.15440 0.89929 0.21535
 H386 H 0.18470 0.86956 0.28976
   
