data_POSCAR
  _audit_creation_date              2014-09-24
  _audit_creation_method            'ToBaCCo'
  _symmetry_space_group_name_H-M    'P1'
  _symmetry_Int_Tables_number       1
  _symmetry_cell_setting            triclinic
  loop_
  _symmetry_equiv_pos_as_xyz
 x,y,z
_cell_length_a 40.7567
_cell_length_b 38.3557
_cell_length_c 18.7531
_cell_angle_alpha 90.316600
_cell_angle_beta 89.905600
_cell_angle_gamma 90.379300
loop_
  _atom_site_label
  _atom_site_type_symbol
  _atom_site_fract_x
  _atom_site_fract_y
  _atom_site_fract_z
C1 C 0.67854 0.32681 0.47087
 C2 C 0.67382 0.32099 0.54202
 C3 C 0.68251 0.28669 0.55468
 N4 N 0.69394 0.27196 0.49379
 C5 C 0.69168 0.29651 0.44244
 C6 C 0.67908 0.26889 0.62062
 C7 C 0.69615 0.23753 0.63379
 C8 C 0.68871 0.21425 0.68786
 C9 C 0.71245 0.18905 0.68643
 C10 C 0.73380 0.19731 0.63102
 N11 N 0.72342 0.22681 0.59892
 C12 C 0.76445 0.18122 0.61771
 C13 C 0.78046 0.18382 0.55022
 C14 C 0.80988 0.16801 0.53111
 C15 C 0.81449 0.17377 0.45998
 C16 C 0.78727 0.19163 0.43634
 N17 N 0.76656 0.19775 0.49143
 C18 C 0.78060 0.19912 0.36395
 C19 C 0.75546 0.22203 0.34287
 C20 C 0.74446 0.22591 0.27349
 C21 C 0.72095 0.25151 0.27503
 C22 C 0.71815 0.26248 0.34543
 N23 N 0.73946 0.24459 0.38626
 C24 C 0.69857 0.29048 0.36942
 H25 H 0.67299 0.35097 0.44450
 H26 H 0.66517 0.34027 0.57976
 H27 H 0.74511 0.25016 0.43918
 H28 H 0.66847 0.21544 0.72522
 H29 H 0.71382 0.16758 0.72336
 H30 H 0.82604 0.15224 0.56281
 H31 H 0.83519 0.16472 0.42900
 H32 H 0.70786 0.26126 0.22921
 H33 H 0.73672 0.24145 0.56215
 H34 H 0.75270 0.21198 0.22649
 C35 C 0.32750 0.68693 0.56126
 C36 C 0.32945 0.68493 0.48865
 C37 C 0.30364 0.70422 0.46178
 N38 N 0.28643 0.71860 0.51623
 C39 C 0.30055 0.70743 0.57728
 C40 C 0.29796 0.70996 0.38806
 C41 C 0.27418 0.73326 0.36178
 C42 C 0.27388 0.74713 0.29351
 C43 C 0.24615 0.76727 0.28841
 C44 C 0.22996 0.76464 0.35318
 N45 N 0.24716 0.74380 0.39738
 C46 C 0.19909 0.77929 0.36913
 C47 C 0.18564 0.77759 0.43825
 C48 C 0.15248 0.77884 0.45394
 C49 C 0.15007 0.78003 0.52676
 C50 C 0.18192 0.78016 0.55291
 N51 N 0.20365 0.77809 0.49869
 C52 C 0.19081 0.78502 0.62519
 C53 C 0.22040 0.77111 0.65269
 C54 C 0.23330 0.77793 0.71998
 C55 C 0.26131 0.75843 0.72618
 C56 C 0.26532 0.74076 0.66216
 N57 N 0.24013 0.74830 0.61801
 C58 C 0.29108 0.71732 0.64735
 H59 H 0.34495 0.67559 0.59762
 H60 H 0.34874 0.67187 0.45948
 H61 H 0.23497 0.73606 0.56968
 H62 H 0.29175 0.74334 0.25153
 H63 H 0.23862 0.78168 0.24185
 H64 H 0.13223 0.77898 0.41667
 H65 H 0.12748 0.78113 0.55709
 H66 H 0.27714 0.75784 0.77241
 H67 H 0.23911 0.73421 0.44612
 H68 H 0.22390 0.79524 0.76076
 C69 C 0.20234 0.16358 -0.45887
 C70 C 0.20925 0.15906 -0.52978
 C71 C 0.22274 0.19012 -0.55381
 N72 N 0.22535 0.21299 -0.49907
 C73 C 0.21311 0.19688 -0.44039
 C74 C 0.22943 0.19817 -0.62627
 C75 C 0.25123 0.22536 -0.64638
 C76 C 0.25333 0.23954 -0.71425
 C77 C 0.27737 0.26474 -0.71215
 C78 C 0.28950 0.26545 -0.64302
 N79 N 0.27332 0.24138 -0.60321
 C80 C 0.31542 0.28721 -0.61817
 C81 C 0.31941 0.29264 -0.54395
 C82 C 0.34851 0.30039 -0.50895
 C83 C 0.34051 0.30637 -0.43880
 C84 C 0.30692 0.30132 -0.43309
 N85 N 0.29412 0.29246 -0.49711
 C86 C 0.28799 0.30714 -0.37106
 C87 C 0.25799 0.28957 -0.35961
 C88 C 0.23561 0.29712 -0.30614
 C89 C 0.21254 0.27070 -0.30691
 C90 C 0.22138 0.24779 -0.36131
 N91 N 0.24901 0.25981 -0.39321
 C92 C 0.20774 0.21422 -0.37401
 H93 H 0.18957 0.14459 -0.42675
 H94 H 0.20389 0.13579 -0.56063
 H95 H 0.26384 0.24595 -0.42849
 H96 H 0.23862 0.23307 -0.76048
 H97 H 0.28433 0.28113 -0.75649
 H98 H 0.37300 0.30116 -0.53124
 H99 H 0.35752 0.31317 -0.39662
 H100 H 0.19236 0.26835 -0.26976
 H101 H 0.27880 0.23439 -0.55097
 H102 H 0.23646 0.31869 -0.26872
 C103 C -0.32614 0.69736 -0.45506
 C104 C -0.33022 0.69892 -0.52744
 C105 C -0.30045 0.70989 -0.55591
 N106 N -0.27815 0.71375 -0.50268
 C107 C -0.29355 0.70541 -0.44117
 C108 C -0.29178 0.71151 -0.62926
 C109 C -0.26294 0.72956 -0.65092
 C110 C -0.24875 0.72782 -0.71836
 C111 C -0.22439 0.75262 -0.72028
 C112 C -0.22432 0.76919 -0.65437
 N113 N -0.24775 0.75495 -0.61233
 C114 C -0.20371 0.79761 -0.63572
 C115 C -0.19801 0.80752 -0.56358
 C116 C -0.18385 0.83870 -0.54128
 C117 C -0.17919 0.83627 -0.46931
 C118 C -0.19227 0.80443 -0.44866
 N119 N -0.20361 0.78683 -0.50660
 C120 C -0.19101 0.79028 -0.37910
 C121 C -0.20951 0.76037 -0.36026
 C122 C -0.20418 0.74028 -0.30026
 C123 C -0.22857 0.71536 -0.29883
 C124 C -0.24859 0.72114 -0.35750
 N125 N -0.23671 0.74865 -0.39464
 C126 C -0.27767 0.70215 -0.37399
 H127 H -0.34505 0.69024 -0.41719
 H128 H -0.35273 0.69203 -0.55408
 H129 H -0.24841 0.76085 -0.43694
 H130 H -0.25549 0.71132 -0.76294
 H131 H -0.20867 0.75791 -0.76556
 H132 H -0.17708 0.86098 -0.57335
 H133 H -0.16723 0.85600 -0.43728
 H134 H -0.23106 0.69531 -0.25881
 H135 H -0.25538 0.76488 -0.56328
 H136 H -0.18483 0.74320 -0.26121
 O137 O -0.02073 0.97161 0.12502
 O138 O 0.03833 1.00165 -0.15191
 O139 O -0.04162 0.96098 -0.05432
 O140 O 0.05590 0.96003 0.04957
 O141 O -0.01958 0.98279 -0.14716
 O142 O 0.03839 0.98618 0.14219
 O143 O 0.04954 0.96532 -0.07258
 O144 O -0.06268 0.98496 0.05872
 C145 C -0.04981 0.96664 0.10664
 C146 C 0.04898 0.97255 -0.13613
 C147 C -0.03474 0.95812 -0.11834
 C148 C 0.05321 0.96128 0.11500
 O149 O 0.02770 1.05099 0.12652
 O150 O -0.03620 1.04734 -0.10484
 O151 O -0.05049 1.04940 0.01764
 O152 O 0.06705 1.03547 -0.06497
 O153 O 0.02298 1.06289 -0.09661
 O154 O -0.03413 1.03842 0.12370
 O155 O 0.06961 1.03028 0.06427
 O156 O -0.07826 1.01409 -0.07331
 Co157 Co 0.00274 1.01156 0.11665
 Co158 Co 0.00169 1.02210 -0.11390
 Co159 Co -0.04277 1.00531 -0.01900
 Co160 Co 0.05633 0.99869 -0.00638
 O161 O 0.00611 1.00812 -0.00054
 C162 C 0.05722 1.05261 0.10713
 C163 C -0.06598 1.03812 -0.11589
 C164 C -0.05179 1.05555 0.08250
 C165 C 0.05336 1.06274 -0.08738
 O166 O 0.49355 0.46453 0.11019
 O167 O 0.53833 0.48032 -0.14694
 O168 O 0.43814 0.48559 -0.06454
 O169 O 0.55146 0.46662 0.06942
 O170 O 0.47806 0.46796 -0.13476
 O171 O 0.54157 0.50130 0.15161
 O172 O 0.55421 0.45660 -0.05112
 O173 O 0.44655 0.47332 0.06340
 C174 C 0.46495 0.45462 0.10026
 C175 C 0.54971 0.45464 -0.11619
 C176 C 0.44892 0.46599 -0.11390
 C177 C 0.55769 0.47600 0.13110
 O178 O 0.51752 0.55534 0.09559
 O179 O 0.46687 0.53412 -0.13842
 O180 O 0.45823 0.54302 0.08599
 O181 O 0.56923 0.52567 -0.07619
 O182 O 0.52772 0.54625 -0.13631
 O183 O 0.48113 0.52015 0.17828
 O184 O 0.56427 0.53780 0.05170
 O185 O 0.45060 0.55407 -0.03732
 Co186 Co 0.50445 0.50996 0.09867
 Co187 Co 0.50298 0.50700 -0.12670
 Co188 Co 0.45326 0.51309 0.01048
 Co189 Co 0.55572 0.49754 -0.00175
 O190 O 0.50523 0.50601 -0.00970
 C191 C 0.54714 0.56128 0.08189
 C192 C 0.45061 0.55559 -0.10330
 C193 C 0.45665 0.53712 0.15223
 C194 C 0.55737 0.54733 -0.11968
 C195 C 0.33606 0.30369 0.33060
 C196 C 0.35561 0.33330 0.34300
 C197 C 0.37388 0.35096 0.28552
 N198 N 0.40056 0.37078 0.30176
 N199 N 0.41619 0.38875 0.25130
 C200 C 0.40550 0.38797 0.18273
 N201 N 0.37868 0.36830 0.16647
 N202 N 0.36331 0.34990 0.21681
 C203 C 0.42076 0.41066 0.12857
 C204 C 0.45274 0.42318 0.13660
 H205 H 0.35659 0.34561 0.39484
 H206 H 0.40584 0.41962 0.08467
 H207 H 0.33555 0.29426 0.27613
 H208 H 0.46823 0.41202 0.17735
 C209 C -0.18842 0.81603 0.30818
 C210 C -0.15636 0.82855 0.31284
 C211 C -0.14185 0.85233 0.26065
 N212 N -0.11003 0.86173 0.26835
 N213 N -0.09668 0.88545 0.22578
 C214 C -0.11460 0.90094 0.17400
 N215 N -0.14648 0.89129 0.16561
 N216 N -0.15991 0.86740 0.20837
 C217 C -0.09972 0.92856 0.12998
 C218 C -0.06776 0.93934 0.14445
 H219 H -0.14124 0.82126 0.35776
 H220 H -0.11375 0.94069 0.08799
 H221 H -0.20062 0.81774 0.25702
 H222 H -0.05427 0.92674 0.18675
 C223 C 0.69131 0.69129 0.31902
 C224 C 0.65735 0.69102 0.30869
 C225 C 0.64164 0.66786 0.25531
 N226 N 0.60863 0.66852 0.24578
 N227 N 0.59411 0.64673 0.19977
 C228 C 0.61209 0.62352 0.16133
 N229 N 0.64509 0.62307 0.17049
 N230 N 0.65958 0.64480 0.21649
 C231 C 0.59640 0.59726 0.11453
 C232 C 0.56242 0.59358 0.10928
 H233 H 0.64202 0.70939 0.33701
 H234 H 0.61206 0.57805 0.08938
 H235 H 0.70572 0.67753 0.27959
 H236 H 0.54667 0.61257 0.13484
 C237 C 0.21314 1.17946 0.31898
 C238 C 0.18039 1.16918 0.32535
 C239 C 0.16299 1.14860 0.27128
 N240 N 0.13007 1.14492 0.27701
 N241 N 0.11363 1.12472 0.23158
 C242 C 0.12944 1.10721 0.17880
 N243 N 0.16248 1.11094 0.17275
 N244 N 0.17901 1.13138 0.21819
 C245 C 0.11112 1.08299 0.13225
 C246 C 0.07719 1.08035 0.13905
 H247 H 0.16627 1.17752 0.37132
 H248 H 0.12431 1.06582 0.09641
 H249 H 0.22473 1.17649 0.26730
 H250 H 0.06442 1.09826 0.17415
 C251 C 0.65940 0.28265 -0.32360
 C252 C 0.63091 0.30188 -0.33488
 C253 C 0.61569 0.32369 -0.27932
 N254 N 0.59005 0.34422 -0.29698
 N255 N 0.57790 0.36695 -0.25022
 C256 C 0.59091 0.37012 -0.18385
 N257 N 0.61619 0.34911 -0.16555
 N258 N 0.62845 0.32638 -0.21254
 C259 C 0.57920 0.39741 -0.13433
 C260 C 0.55936 0.42423 -0.15901
 H261 H 0.62035 0.30289 -0.38779
 H262 H 0.58812 0.39791 -0.07996
 H263 H 0.66570 0.27670 -0.26891
 H264 H 0.55190 0.42422 -0.21444
 C265 C 0.17033 0.80469 -0.32905
 C266 C 0.15088 0.83217 -0.35323
 C267 C 0.13082 0.85354 -0.30528
 N268 N 0.11552 0.88216 -0.33093
 N269 N 0.09775 0.90236 -0.28794
 C270 C 0.09457 0.89451 -0.21779
 N271 N 0.10963 0.86573 -0.19227
 N272 N 0.12744 0.84557 -0.23523
 C273 C 0.07638 0.91714 -0.16878
 C274 C 0.06288 0.94880 -0.18954
 H275 H 0.15196 0.84009 -0.40851
 H276 H 0.07508 0.90935 -0.11337
 H277 H 0.17187 0.80099 -0.27204
 H278 H 0.06390 0.95696 -0.24470
 C279 C 0.31015 0.70352 -0.29147
 C280 C 0.31246 0.66768 -0.28110
 C281 C 0.33667 0.65172 -0.23360
 N282 N 0.34637 0.61863 -0.24719
 N283 N 0.36944 0.60382 -0.20775
 C284 C 0.38355 0.62138 -0.15264
 N285 N 0.37342 0.65433 -0.13791
 N286 N 0.35056 0.66938 -0.17814
 C287 C 0.40938 0.60461 -0.11023
 C288 C 0.42933 0.57963 -0.14222
 H289 H 0.29894 0.65043 -0.31657
 H290 H 0.41231 0.61132 -0.05442
 H291 H 0.32313 0.72145 -0.25657
 H292 H 0.42758 0.57566 -0.19938
 C293 C -0.22169 1.16094 -0.32760
 C294 C -0.18871 1.16369 -0.30913
 C295 C -0.17206 1.13781 -0.26516
 N296 N -0.13908 1.13988 -0.25803
 N297 N -0.12283 1.11524 -0.22359
 C298 C -0.13889 1.08749 -0.19510
 N299 N -0.17203 1.08559 -0.20131
 N300 N -0.18834 1.11024 -0.23616
 C301 C -0.12056 1.06018 -0.15792
 C302 C -0.08646 1.06007 -0.16072
 H303 H -0.17378 1.18425 -0.33214
 H304 H -0.13371 1.04093 -0.12673
 H305 H -0.23724 1.14521 -0.29368
 H306 H -0.07370 1.07916 -0.19307
 C307 C 0.70911 0.67973 -0.32118
 C308 C 0.69139 0.64941 -0.33744
 C309 C 0.67193 0.63023 -0.28466
 N310 N 0.64654 0.61020 -0.30763
 N311 N 0.62732 0.59369 -0.26132
 C312 C 0.63293 0.59630 -0.19020
 N313 N 0.65876 0.61581 -0.16699
 N314 N 0.67779 0.63278 -0.21346
 C315 C 0.61134 0.57795 -0.13989
 C316 C 0.57870 0.57177 -0.15794
 H317 H 0.68962 0.64046 -0.39214
 H318 H 0.62110 0.56886 -0.08967
 H319 H 0.71404 0.68509 -0.26546
 H320 H 0.56871 0.58400 -0.20507
 C321 C 0.18772 1.19899 -0.32066
 C322 C 0.19219 1.16489 -0.29709
 C323 C 0.17049 1.14772 -0.24490
 N324 N 0.13929 1.15874 -0.23285
 N325 N 0.11926 1.14090 -0.18971
 C326 C 0.12984 1.11157 -0.15674
 N327 N 0.16110 1.10095 -0.16822
 N328 N 0.18095 1.11854 -0.21170
 C329 C 0.10798 1.08959 -0.11301
 C330 C 0.07378 1.09216 -0.11278
 H331 H 0.21330 1.15040 -0.31572
 H332 H 0.11925 1.06764 -0.08666
 H333 H 0.17158 1.21524 -0.28917
 H334 H 0.06200 1.11377 -0.13917
 C335 C 0.30048 0.33104 -0.31466
 C336 C 0.31644 0.36210 -0.33168
 C337 C 0.33488 0.38259 -0.27902
 N338 N 0.35934 0.40382 -0.30187
 N339 N 0.37805 0.42099 -0.25535
 C340 C 0.37282 0.41785 -0.18417
 N341 N 0.34781 0.39724 -0.16109
 N342 N 0.32930 0.37965 -0.20778
 C343 C 0.39449 0.43607 -0.13366
 C344 C 0.42700 0.44226 -0.15263
 H345 H 0.31858 0.36966 -0.38708
 H346 H 0.38507 0.44464 -0.08250
 H347 H 0.29723 0.32393 -0.25926
 H348 H 0.43649 0.43059 -0.20120
 C349 C -0.16713 0.80469 -0.32611
 C350 C -0.16746 0.83940 -0.30363
 C351 C -0.14081 0.85498 -0.26077
 N352 N -0.13094 0.88815 -0.27408
 N353 N -0.10716 0.90303 -0.23566
 C354 C -0.09257 0.88548 -0.18173
 N355 N -0.10270 0.85238 -0.16772
 N356 N -0.12613 0.83723 -0.20711
 C357 C -0.06834 0.90331 -0.13560
 C358 C -0.04798 0.92949 -0.16265
 H359 H -0.18622 0.85661 -0.32367
 H360 H -0.06873 0.89810 -0.07890
 H361 H -0.14867 0.78744 -0.30488
 H362 H -0.04600 0.93234 -0.21997
 C363 C 0.31879 0.69143 0.33529
 C364 C 0.32134 0.65521 0.33655
 C365 C 0.34498 0.63625 0.29230
 N366 N 0.35474 0.60397 0.31205
 N367 N 0.37705 0.58678 0.27392
 C368 C 0.39018 0.60123 0.21436
 N369 N 0.38010 0.63332 0.19408
 N370 N 0.35805 0.65066 0.23264
 C371 C 0.41447 0.58258 0.17126
 C372 C 0.43288 0.55509 0.19795
 H373 H 0.30763 0.64061 0.37609
 H374 H 0.41884 0.59170 0.11746
 H375 H 0.33201 0.70626 0.29544
 H376 H 0.43051 0.54736 0.25318
 C377 C -0.19946 1.18159 0.30760
 C378 C -0.19507 1.14555 0.30843
 C379 C -0.16841 1.12757 0.27041
 N380 N -0.15151 1.14247 0.21572
 N381 N -0.12629 1.12589 0.18538
 C382 C -0.11690 1.09408 0.20943
 N383 N -0.13382 1.07939 0.26393
 N384 N -0.15914 1.09571 0.29356
 C385 C -0.08850 1.07539 0.17990
 C386 C -0.07605 1.08030 0.11132
 H387 H -0.20883 1.13040 0.34704
 H388 H -0.07896 1.05421 0.21163
 H389 H -0.18729 1.19733 0.26762
 H390 H -0.08719 1.09913 0.07616
 C391 C 0.68153 0.31160 0.31512
 C392 C 0.68570 0.34754 0.30949
 C393 C 0.66325 0.36846 0.26632
 N394 N 0.65827 0.40255 0.28260
 N395 N 0.63627 0.42111 0.24677
 C396 C 0.61864 0.40620 0.19317
 N397 N 0.62404 0.37231 0.17619
 N398 N 0.64575 0.35369 0.21243
 C399 C 0.59440 0.42594 0.15255
 C400 C 0.58107 0.45733 0.17621
 H401 H 0.70343 0.36086 0.34308
 H402 H 0.58598 0.41464 0.10268
 H403 H 0.66439 0.29823 0.28019
 H404 H 0.58774 0.46814 0.22768
 C405 C 0.18057 0.79793 0.31253
 C406 C 0.16471 0.82926 0.32805
 C407 C 0.14503 0.84906 0.27683
 N408 N 0.12786 0.87694 0.30068
 N409 N 0.10985 0.89569 0.25615
 C410 C 0.10831 0.88737 0.18580
 N411 N 0.12556 0.85946 0.16168
 N412 N 0.14354 0.84053 0.20645
 C413 C 0.08911 0.90893 0.13627
 C414 C 0.06937 0.93594 0.16154
 H415 H 0.16633 0.83983 0.38164
 H416 H 0.09128 0.90423 0.07946
 H417 H 0.18074 0.78802 0.25837
 H418 H 0.06680 0.93991 0.21851
   
