data_POSCAR
  _audit_creation_date              2014-09-24
  _audit_creation_method            'ToBaCCo'
  _symmetry_space_group_name_H-M    'P1'
  _symmetry_Int_Tables_number       1
  _symmetry_cell_setting            triclinic
  loop_
  _symmetry_equiv_pos_as_xyz
 x,y,z
_cell_length_a 52.0372
_cell_length_b 53.2834
_cell_length_c 19.9638
_cell_angle_alpha 89.561100
_cell_angle_beta 90.404300
_cell_angle_gamma 120.611300
loop_
  _atom_site_label
  _atom_site_type_symbol
  _atom_site_fract_x
  _atom_site_fract_y
  _atom_site_fract_z
C1 C 0.10594 0.37995 0.52494
 C2 C 0.10664 0.37889 0.45640
 C3 C 0.13626 0.39659 0.43772
 N4 N 0.15369 0.40807 0.49245
 C5 C 0.13514 0.39812 0.54571
 C6 C 0.14636 0.40487 0.37113
 C7 C 0.17679 0.41564 0.35401
 C8 C 0.19047 0.43033 0.29513
 C9 C 0.21955 0.43683 0.29795
 C10 C 0.22352 0.42712 0.35960
 N11 N 0.19723 0.41377 0.39308
 C12 C 0.25099 0.43073 0.38298
 C13 C 0.25711 0.42920 0.45147
 C14 C 0.28338 0.43187 0.47599
 C15 C 0.28313 0.43491 0.54405
 C16 C 0.25667 0.43397 0.55925
 N17 N 0.24085 0.43047 0.50243
 C18 C 0.24963 0.44086 0.62245
 C19 C 0.22170 0.43831 0.63587
 C20 C 0.21530 0.44964 0.69155
 C21 C 0.18543 0.44050 0.68839
 C22 C 0.17422 0.42343 0.63155
 N23 N 0.19640 0.42213 0.59997
 C24 C 0.14393 0.40844 0.61156
 H25 H 0.08615 0.36931 0.55585
 H26 H 0.08749 0.36720 0.42372
 H27 H 0.19362 0.40836 0.56037
 H28 H 0.18100 0.43658 0.25453
 H29 H 0.23602 0.44824 0.25935
 H30 H 0.30161 0.43301 0.44771
 H31 H 0.30117 0.43887 0.57775
 H32 H 0.17341 0.44573 0.72430
 H33 H 0.19313 0.40250 0.43832
 H34 H 0.23035 0.46278 0.73112
 C35 C 0.58566 -0.27765 0.53654
 C36 C 0.58259 -0.27940 0.46818
 C37 C 0.56747 -0.26513 0.45052
 N38 N 0.56161 -0.25430 0.50575
 C39 C 0.57226 -0.26242 0.55853
 C40 C 0.55761 -0.26368 0.38493
 C41 C 0.55094 -0.24167 0.36790
 C42 C 0.53312 -0.24273 0.31459
 C43 C 0.53356 -0.21671 0.31400
 C44 C 0.55123 -0.20061 0.36751
 N45 N 0.56162 -0.21601 0.40038
 C46 C 0.55827 -0.17197 0.38338
 C47 C 0.56837 -0.16002 0.44768
 C48 C 0.57912 -0.13117 0.46480
 C49 C 0.58203 -0.12969 0.53330
 C50 C 0.57312 -0.15764 0.55547
 N51 N 0.56497 -0.17610 0.50312
 C52 C 0.56850 -0.16674 0.62299
 C53 C 0.56292 -0.19454 0.64267
 C54 C 0.54901 -0.20856 0.70169
 C55 C 0.54834 -0.23465 0.70251
 C56 C 0.56245 -0.23559 0.64455
 N57 N 0.57094 -0.21116 0.60788
 C58 C 0.56758 -0.25836 0.62657
 H59 H 0.59622 -0.28683 0.56684
 H60 H 0.59048 -0.29005 0.43520
 H61 H 0.58364 -0.20513 0.56421
 H62 H 0.52079 -0.26049 0.27997
 H63 H 0.52186 -0.21053 0.27866
 H64 H 0.58348 -0.11327 0.43164
 H65 H 0.58896 -0.11049 0.56354
 H66 H 0.53808 -0.25120 0.74103
 H67 H 0.57734 -0.20838 0.43904
 H68 H 0.53973 -0.20108 0.73961
 C69 C 1.12915 0.68880 0.44023
 C70 C 1.12913 0.68658 0.50853
 C71 C 1.14944 0.71417 0.53246
 N72 N 1.16205 0.73312 0.48097
 C73 C 1.14963 0.71758 0.42461
 C74 C 1.15547 0.72162 0.60101
 C75 C 1.18163 0.74734 0.62229
 C76 C 1.18579 0.75941 0.68557
 C77 C 1.21409 0.78335 0.68701
 C78 C 1.22655 0.78542 0.62450
 N79 N 1.20655 0.76351 0.58506
 C80 C 1.25620 0.80664 0.60649
 C81 C 1.26521 0.81408 0.53864
 C82 C 1.29464 0.82939 0.51723
 C83 C 1.29395 0.83230 0.44915
 C84 C 1.26411 0.81871 0.43060
 N85 N 1.24651 0.80745 0.48550
 C86 C 1.25358 0.81615 0.36363
 C87 C 1.22340 0.79634 0.34622
 C88 C 1.20971 0.79724 0.28694
 C89 C 1.18200 0.77241 0.28531
 C90 C 1.17934 0.75736 0.34411
 N91 N 1.20448 0.77214 0.38128
 C92 C 1.15533 0.72939 0.35936
 H93 H 1.11569 0.67119 0.40599
 H94 H 1.11587 0.66680 0.53724
 H95 H 1.20994 0.76414 0.42333
 H96 H 1.16999 0.75187 0.72645
 H97 H 1.22428 0.79777 0.72926
 H98 H 1.31462 0.83701 0.54729
 H99 H 1.31331 0.84245 0.41693
 H100 H 1.16583 0.76591 0.24504
 H101 H 1.21087 0.75832 0.53792
 H102 H 1.21906 0.81372 0.24802
 C103 C 0.68477 0.52833 0.44808
 C104 C 0.68280 0.52471 0.51626
 C105 C 0.71183 0.53885 0.54104
 N106 N 0.73145 0.55069 0.48984
 C107 C 0.71489 0.54416 0.43298
 C108 C 0.71978 0.54085 0.60993
 C109 C 0.74937 0.54975 0.63095
 C110 C 0.76096 0.56052 0.69409
 C111 C 0.78951 0.56534 0.69569
 C112 C 0.79480 0.55755 0.63343
 N113 N 0.77027 0.54821 0.59405
 C114 C 0.82165 0.55870 0.61507
 C115 C 0.82883 0.55716 0.54753
 C116 C 0.84996 0.55028 0.52711
 C117 C 0.85098 0.55215 0.45875
 C118 C 0.83036 0.55996 0.43951
 N119 N 0.81682 0.56305 0.49383
 C120 C 0.82529 0.56529 0.37280
 C121 C 0.80109 0.56861 0.35380
 C122 C 0.79809 0.57900 0.29219
 C123 C 0.77009 0.57572 0.29108
 C124 C 0.75681 0.56325 0.35194
 N125 N 0.77596 0.55924 0.39000
 C126 C 0.72654 0.55253 0.36748
 H127 H 0.66612 0.51973 0.41348
 H128 H 0.66225 0.51254 0.54414
 H129 H 0.77055 0.54688 0.43368
 H130 H 0.75003 0.56471 0.73478
 H131 H 0.80476 0.57388 0.73778
 H132 H 0.86305 0.54419 0.55822
 H133 H 0.86516 0.54803 0.42688
 H134 H 0.76022 0.58092 0.24930
 H135 H 0.76688 0.53861 0.54716
 H136 H 0.81408 0.58731 0.25167
 C137 C 0.53141 0.19528 0.49966
 C138 C 0.52948 0.19559 0.56828
 C139 C 0.52151 0.21608 0.58355
 N140 N 0.51917 0.22875 0.52658
 C141 C 0.52466 0.21566 0.47513
 C142 C 0.51469 0.22194 0.64832
 C143 C 0.51615 0.24869 0.66056
 C144 C 0.49738 0.25261 0.70230
 C145 C 0.50640 0.28181 0.69930
 C146 C 0.53137 0.29521 0.65793
 N147 N 0.53663 0.27447 0.63387
 C148 C 0.54800 0.32511 0.63770
 C149 C 0.56389 0.33074 0.57732
 C150 C 0.58838 0.35697 0.55682
 C151 C 0.58828 0.35630 0.48772
 C152 C 0.56476 0.32918 0.46953
 N153 N 0.55038 0.31376 0.52414
 C154 C 0.54974 0.32218 0.40799
 C155 C 0.53539 0.29274 0.38740
 C156 C 0.51594 0.27996 0.33380
 C157 C 0.50820 0.25091 0.33313
 C158 C 0.52234 0.24683 0.38768
 N159 N 0.53908 0.27231 0.41938
 C160 C 0.52144 0.22087 0.40662
 H161 H 0.53724 0.18168 0.47133
 H162 H 0.53358 0.18228 0.60292
 H163 H 0.55377 0.27571 0.45884
 H164 H 0.47830 0.23588 0.72940
 H165 H 0.49444 0.29114 0.72215
 H166 H 0.60214 0.37581 0.58769
 H167 H 0.60194 0.37442 0.45466
 H168 H 0.49336 0.23455 0.29775
 H169 H 0.55419 0.27771 0.60295
 H170 H 0.50805 0.29016 0.29886
 C171 C 0.69481 0.13967 0.46200
 C172 C 0.69394 0.14189 0.53016
 C173 C 0.72043 0.16657 0.54866
 N174 N 0.73747 0.17946 0.49405
 C175 C 0.72185 0.16304 0.44086
 C176 C 0.72659 0.17888 0.61335
 C177 C 0.75427 0.20324 0.63203
 C178 C 0.75863 0.22014 0.68810
 C179 C 0.78829 0.24128 0.68920
 C180 C 0.80158 0.23636 0.63469
 N181 N 0.78056 0.21304 0.60000
 C182 C 0.83232 0.25345 0.61760
 C183 C 0.84234 0.25286 0.55219
 C184 C 0.87194 0.26417 0.53402
 C185 C 0.87238 0.26307 0.46551
 C186 C 0.84302 0.25060 0.44432
 N187 N 0.82464 0.24418 0.49724
 C188 C 0.83407 0.24930 0.37710
 C189 C 0.80433 0.23031 0.35563
 C190 C 0.79303 0.23115 0.29308
 C191 C 0.76394 0.20862 0.29133
 C192 C 0.75781 0.19507 0.35362
 N193 N 0.78279 0.20803 0.39199
 C194 C 0.72973 0.17123 0.37317
 H195 H 0.67689 0.12335 0.43155
 H196 H 0.67534 0.12762 0.56199
 H197 H 0.78563 0.20081 0.43851
 H198 H 0.74210 0.21789 0.72399
 H199 H 0.79858 0.25866 0.72552
 H200 H 0.89128 0.27310 0.56666
 H201 H 0.89206 0.27115 0.43456
 H202 H 0.74905 0.20328 0.24891
 H203 H 0.78438 0.20298 0.55990
 H204 H 0.80433 0.24638 0.25258
 O205 O 0.96296 0.51491 -0.09302
 O206 O 1.01967 0.54217 0.07885
 O207 O 0.92854 0.47263 0.04948
 O208 O 1.05145 0.53169 -0.07248
 O209 O 0.96297 0.51260 0.09835
 O210 O 1.01682 0.54150 -0.08708
 O211 O 1.05370 0.53278 0.04798
 O212 O 0.92914 0.47092 -0.07377
 C213 C 0.93609 0.49646 -0.08822
 C214 C 1.04649 0.55071 0.06850
 C215 C 0.93617 0.49534 0.08344
 C216 C 1.04386 0.54998 -0.08620
 O217 O 1.01761 0.49620 -0.14569
 O218 O 0.96760 0.46760 0.13403
 O219 O 0.95112 0.43542 -0.06877
 O220 O 1.03021 0.47389 0.05076
 O221 O 1.02254 0.49696 0.12728
 O222 O 0.96379 0.46836 -0.14609
 O223 O 1.02538 0.47243 -0.06999
 O224 O 0.94470 0.43326 0.05893
 Co225 Co 0.99038 0.50409 -0.10897
 Co226 Co 0.99327 0.50387 0.09828
 Co227 Co 0.94347 0.45661 -0.00908
 Co228 Co 1.03612 0.50181 -0.01088
 O229 O 0.99066 0.49149 -0.00733
 C230 C 1.02365 0.47699 -0.13035
 C231 C 0.95204 0.44097 0.11847
 C232 C 0.95510 0.44236 -0.12920
 C233 C 1.02868 0.47798 0.11123
 O234 O 0.48323 0.46308 -0.12937
 O235 O 0.45352 0.46885 0.10667
 O236 O 0.49173 0.45631 0.07545
 O237 O 0.43748 0.50642 -0.04686
 O238 O 0.50176 0.47985 0.16755
 O239 O 0.44105 0.47356 -0.10690
 O240 O 0.44196 0.50118 0.07356
 O241 O 0.48026 0.44441 -0.03452
 C242 C 0.47874 0.44160 -0.09523
 C243 C 0.43470 0.47702 0.10209
 C244 C 0.50127 0.45862 0.13444
 C245 C 0.42565 0.48354 -0.08346
 O246 O 0.47744 0.52716 -0.12715
 O247 O 0.53106 0.52734 0.10005
 O248 O 0.53407 0.49170 -0.07628
 O249 O 0.49861 0.55043 0.07206
 O250 O 0.48496 0.52033 0.15144
 O251 O 0.52064 0.51859 -0.13277
 O252 O 0.49565 0.55559 -0.04534
 O253 O 0.54575 0.50362 0.04245
 Co254 Co 0.48148 0.49606 -0.11262
 Co255 Co 0.49290 0.49732 0.09835
 Co256 Co 0.51136 0.47638 0.00115
 Co257 Co 0.47002 0.52640 0.01235
 O258 O 0.48908 0.50076 -0.00336
 C259 C 0.49308 0.55235 -0.10691
 C260 C 0.55174 0.52398 0.08175
 C261 C 0.53916 0.51064 -0.12132
 C262 C 0.49422 0.54585 0.13339
 O263 O 0.53139 0.01888 -0.11717
 O264 O 0.47909 -0.03272 0.14456
 O265 O 0.54161 0.04930 0.05710
 O266 O 0.49380 -0.05364 -0.04964
 O267 O 0.52825 0.00760 0.09986
 O268 O 0.49059 -0.03242 -0.13746
 O269 O 0.49303 -0.04841 0.06587
 O270 O 0.53594 0.05579 -0.06119
 C271 C 0.54723 0.04434 -0.09671
 C272 C 0.48736 -0.04956 0.12633
 C273 C 0.54825 0.03324 0.08956
 C274 C 0.49528 -0.05080 -0.11111
 O275 O 0.45101 -0.01848 -0.12908
 O276 O 0.49548 0.02109 0.16809
 O277 O 0.47871 0.04402 -0.03420
 O278 O 0.43738 -0.05292 0.05767
 O279 O 0.45086 -0.00990 0.09694
 O280 O 0.49111 0.03428 -0.12708
 O281 O 0.43964 -0.05765 -0.06781
 O282 O 0.48724 0.04212 0.08336
 Co283 Co 0.49112 0.00055 -0.11602
 Co284 Co 0.49001 -0.00015 0.09395
 Co285 Co 0.50908 0.04338 0.00940
 Co286 Co 0.46763 -0.04903 0.00154
 O287 O 0.48933 -0.00295 -0.00693
 C288 C 0.43315 -0.04478 -0.11357
 C289 C 0.49306 0.04272 0.14562
 C290 C 0.47825 0.04477 -0.09605
 C291 C 0.43111 -0.03620 0.08955
 C292 C 1.10881 0.41794 0.34123
 C293 C 1.09206 0.42281 0.29316
 C294 C 1.09244 0.41530 0.22565
 C295 C 1.10838 0.40158 0.20822
 C296 C 1.12509 0.39682 0.25653
 C297 C 1.12646 0.40588 0.32329
 C298 C 1.07777 0.42254 0.17656
 C299 C 1.06318 0.43762 0.19427
 C300 C 1.06185 0.44399 0.26238
 C301 C 1.07607 0.43634 0.31136
 C302 C 1.04727 0.45893 0.28027
 C303 C 1.03546 0.46890 0.23097
 C304 C 1.03788 0.46401 0.16284
 C305 C 1.05094 0.44749 0.14489
 H306 H 1.10969 0.42551 0.39194
 H307 H 1.10853 0.39519 0.15690
 H308 H 1.13739 0.38643 0.24142
 H309 H 1.07864 0.41741 0.12445
 H310 H 1.07561 0.44188 0.36335
 H311 H 1.04580 0.46371 0.33230
 H312 H 1.02512 0.48118 0.24618
 H313 H 1.05276 0.44342 0.09252
 C314 C 0.53972 0.68509 0.35534
 C315 C 0.53414 0.66360 0.30768
 C316 C 0.54205 0.67161 0.24003
 C317 C 0.55578 0.70106 0.22147
 C318 C 0.56124 0.72234 0.26915
 C319 C 0.55311 0.71477 0.33681
 C320 C 0.53593 0.65004 0.19206
 C321 C 0.52191 0.62051 0.21096
 C322 C 0.51425 0.61264 0.27888
 C323 C 0.52038 0.63417 0.32667
 C324 C 0.50042 0.58326 0.29802
 C325 C 0.49409 0.56180 0.25047
 C326 C 0.50135 0.56918 0.18269
 C327 C 0.51533 0.59869 0.16319
 H328 H 0.53250 0.67846 0.40655
 H329 H 0.56225 0.70768 0.16995
 H330 H 0.57233 0.74493 0.25312
 H331 H 0.54192 0.65621 0.14009
 H332 H 0.51434 0.62800 0.37863
 H333 H 0.49443 0.57686 0.34983
 H334 H 0.48331 0.53927 0.26686
 H335 H 0.52110 0.60464 0.11108
 C336 C 0.29371 -0.13742 0.31624
 C337 C 0.31416 -0.12203 0.26459
 C338 C 0.31533 -0.13727 0.20808
 C339 C 0.29537 -0.16729 0.20279
 C340 C 0.27482 -0.18231 0.25357
 C341 C 0.27393 -0.16779 0.31147
 C342 C 0.33684 -0.12244 0.15835
 C343 C 0.35735 -0.09251 0.16434
 C344 C 0.35539 -0.07691 0.21912
 C345 C 0.33375 -0.09176 0.26887
 C346 C 0.37589 -0.04692 0.22446
 C347 C 0.39931 -0.03296 0.17863
 C348 C 0.40258 -0.04874 0.12656
 C349 C 0.38073 -0.07828 0.11817
 H350 H 0.29290 -0.12577 0.35972
 H351 H 0.29591 -0.17927 0.15972
 H352 H 0.26022 -0.20568 0.24864
 H353 H 0.33815 -0.13435 0.11596
 H354 H 0.33270 -0.07991 0.31171
 H355 H 0.37460 -0.03452 0.26573
 H356 H 0.41586 -0.01021 0.18642
 H357 H 0.38292 -0.09069 0.07811
 C358 C 0.83627 0.54202 0.27804
 C359 C 0.85699 0.53960 0.23816
 C360 C 0.88741 0.56192 0.23980
 C361 C 0.89632 0.58677 0.27902
 C362 C 0.87563 0.58871 0.31948
 C363 C 0.84573 0.56605 0.32048
 C364 C 0.90863 0.55841 0.20483
 C365 C 0.89995 0.53261 0.16961
 C366 C 0.86944 0.51077 0.16589
 C367 C 0.84809 0.51455 0.19962
 C368 C 0.86094 0.48504 0.13050
 C369 C 0.88258 0.48039 0.10173
 C370 C 0.91307 0.50140 0.10781
 C371 C 0.92149 0.52783 0.14031
 H372 H 0.81317 0.52443 0.27943
 H373 H 0.91950 0.60410 0.28063
 H374 H 0.88314 0.60727 0.35233
 H375 H 0.93203 0.57522 0.20735
 H376 H 0.82476 0.49749 0.19812
 H377 H 0.83764 0.46817 0.12664
 H378 H 0.87546 0.45996 0.07640
 H379 H 0.94491 0.54439 0.14468
 C380 C 0.54136 0.34962 0.31347
 C381 C 0.53363 0.37025 0.29243
 C382 C 0.52815 0.38643 0.34038
 C383 C 0.52712 0.37944 0.40810
 C384 C 0.53204 0.35716 0.42793
 C385 C 0.54094 0.34313 0.38182
 C386 C 0.52266 0.40855 0.31979
 C387 C 0.51958 0.41277 0.25160
 C388 C 0.52167 0.39421 0.20426
 C389 C 0.53017 0.37421 0.22444
 C390 C 0.51400 0.39505 0.13772
 C391 C 0.50520 0.41457 0.11788
 C392 C 0.50671 0.43580 0.16210
 C393 C 0.51334 0.43442 0.22983
 H394 H 0.54746 0.33863 0.27696
 H395 H 0.52158 0.39053 0.44556
 H396 H 0.52898 0.35082 0.47996
 H397 H 0.51959 0.42159 0.35678
 H398 H 0.53281 0.36086 0.18750
 H399 H 0.51388 0.37999 0.10135
 H400 H 0.49736 0.41297 0.06706
 H401 H 0.51308 0.44958 0.26529
 C402 C 0.69405 0.12839 0.30194
 C403 C 0.66976 0.11524 0.25707
 C404 C 0.65805 0.13199 0.22990
 C405 C 0.67005 0.16108 0.24914
 C406 C 0.69318 0.17349 0.29580
 C407 C 0.70565 0.15751 0.32185
 C408 C 0.63383 0.11922 0.18562
 C409 C 0.61999 0.08950 0.17072
 C410 C 0.63093 0.07232 0.19882
 C411 C 0.65630 0.08549 0.24065
 C412 C 0.61554 0.04213 0.18642
 C413 C 0.58895 0.02906 0.14891
 C414 C 0.57805 0.04617 0.12125
 C415 C 0.59429 0.07649 0.13087
 H416 H 0.70329 0.11587 0.32311
 H417 H 0.66101 0.17402 0.22941
 H418 H 0.70151 0.19573 0.31170
 H419 H 0.62498 0.13218 0.16486
 H420 H 0.66485 0.07244 0.26227
 H421 H 0.62345 0.02852 0.20779
 H422 H 0.57665 0.00561 0.14258
 H423 H 0.58587 0.08992 0.11086
 C424 C 0.48869 0.17101 -0.31105
 C425 C 0.48286 0.15065 -0.25980
 C426 C 0.49398 0.16039 -0.19452
 C427 C 0.50953 0.19031 -0.18096
 C428 C 0.51551 0.21046 -0.23235
 C429 C 0.50615 0.20121 -0.29878
 C430 C 0.49052 0.14019 -0.14468
 C431 C 0.47709 0.11048 -0.16015
 C432 C 0.46494 0.10067 -0.22489
 C433 C 0.46730 0.12074 -0.27377
 C434 C 0.45258 0.07122 -0.24127
 C435 C 0.45472 0.05223 -0.19626
 C436 C 0.46812 0.06207 -0.13324
 C437 C 0.47783 0.09082 -0.11392
 H438 H 0.47976 0.16323 -0.36074
 H439 H 0.51805 0.19819 -0.13110
 H440 H 0.52896 0.23343 -0.22050
 H441 H 0.49981 0.14778 -0.09510
 H442 H 0.45867 0.11325 -0.32384
 H443 H 0.44315 0.06332 -0.29054
 H444 H 0.44751 0.03023 -0.21216
 H445 H 0.48877 0.09863 -0.06582
 C446 C 0.67837 0.54524 -0.34455
 C447 C 0.65597 0.53774 -0.29658
 C448 C 0.65251 0.51853 -0.24357
 C449 C 0.67203 0.50776 -0.23856
 C450 C 0.69443 0.51550 -0.28617
 C451 C 0.69766 0.53396 -0.34049
 C452 C 0.62946 0.51023 -0.19684
 C453 C 0.60986 0.52097 -0.20240
 C454 C 0.61386 0.54076 -0.25454
 C455 C 0.63685 0.54901 -0.30120
 C456 C 0.59447 0.55165 -0.25987
 C457 C 0.57081 0.54246 -0.21520
 C458 C 0.56601 0.52217 -0.16419
 C459 C 0.58599 0.51185 -0.15745
 H460 H 0.68107 0.56022 -0.38469
 H461 H 0.66978 0.49308 -0.19816
 H462 H 0.70868 0.50622 -0.28176
 H463 H 0.62659 0.49520 -0.15668
 H464 H 0.63963 0.56392 -0.34159
 H465 H 0.59731 0.56695 -0.29928
 H466 H 0.55588 0.55088 -0.22154
 H467 H 0.58259 0.49622 -0.11835
 C468 C 0.87198 0.30329 -0.35529
 C469 C 0.88934 0.32467 -0.30794
 C470 C 0.88801 0.31683 -0.23975
 C471 C 0.87031 0.28752 -0.22059
 C472 C 0.85283 0.26638 -0.26798
 C473 C 0.85275 0.27404 -0.33567
 C474 C 0.90339 0.33854 -0.19155
 C475 C 0.91938 0.36803 -0.21060
 C476 C 0.92154 0.37576 -0.27911
 C477 C 0.90682 0.35400 -0.32743
 C478 C 0.93732 0.40526 -0.29789
 C479 C 0.94935 0.42696 -0.24910
 C480 C 0.94609 0.41955 -0.18072
 C481 C 0.93199 0.38997 -0.16197
 H482 H 0.87188 0.30990 -0.40677
 H483 H 0.86929 0.28107 -0.16862
 H484 H 0.83892 0.24398 -0.25153
 H485 H 0.90184 0.33259 -0.13901
 H486 H 0.90793 0.35999 -0.37984
 H487 H 0.93941 0.41155 -0.35021
 H488 H 0.96041 0.44958 -0.26488
 H489 H 0.92950 0.38395 -0.10940
 C490 C 0.54189 -0.14211 -0.33542
 C491 C 0.53674 -0.12635 -0.28692
 C492 C 0.55454 -0.11684 -0.22830
 C493 C 0.57741 -0.12325 -0.21967
 C494 C 0.58243 -0.13898 -0.26853
 C495 C 0.56471 -0.14847 -0.32667
 C496 C 0.54916 -0.10112 -0.17960
 C497 C 0.52645 -0.09453 -0.18945
 C498 C 0.50889 -0.10406 -0.24862
 C499 C 0.51398 -0.12005 -0.29646
 C500 C 0.48673 -0.09706 -0.25982
 C501 C 0.48236 -0.08015 -0.21383
 C502 C 0.49963 -0.07034 -0.15509
 C503 C 0.52133 -0.07803 -0.14219
 H504 H 0.52788 -0.14982 -0.37982
 H505 H 0.59130 -0.11621 -0.17513
 H506 H 0.59997 -0.14400 -0.26086
 H507 H 0.56278 -0.09380 -0.13461
 H508 H 0.50043 -0.12731 -0.34160
 H509 H 0.47311 -0.10422 -0.30480
 H510 H 0.46540 -0.07457 -0.22431
 H511 H 0.53485 -0.07027 -0.09714
 C512 C 0.28126 0.43541 -0.29510
 C513 C 0.30497 0.44775 -0.24900
 C514 C 0.31988 0.47804 -0.23601
 C515 C 0.31015 0.49530 -0.26784
 C516 C 0.28649 0.48285 -0.31360
 C517 C 0.27212 0.45292 -0.32819
 C518 C 0.34482 0.49071 -0.19318
 C519 C 0.35544 0.47357 -0.16443
 C520 C 0.33990 0.44313 -0.17595
 C521 C 0.31458 0.43038 -0.21739
 C522 C 0.35082 0.42608 -0.14861
 C523 C 0.37799 0.43928 -0.11431
 C524 C 0.39430 0.46962 -0.10525
 C525 C 0.38233 0.48658 -0.12782
 H526 H 0.27016 0.41229 -0.30611
 H527 H 0.32124 0.51852 -0.25844
 H528 H 0.27983 0.49670 -0.33897
 H529 H 0.35663 0.51403 -0.18442
 H530 H 0.30309 0.40714 -0.22718
 H531 H 0.33914 0.40273 -0.15663
 H532 H 0.38694 0.42591 -0.09716
 H533 H 0.39509 0.51006 -0.12173
 C534 C 1.14359 0.69189 -0.29658
 C535 C 1.12226 0.66957 -0.25537
 C536 C 1.09153 0.65896 -0.26632
 C537 C 1.08266 0.67119 -0.31720
 C538 C 1.10386 0.69252 -0.35949
 C539 C 1.13452 0.70268 -0.35086
 C540 C 1.07006 0.63534 -0.22856
 C541 C 1.07884 0.62120 -0.18228
 C542 C 1.10955 0.63194 -0.17065
 C543 C 1.13108 0.65650 -0.20611
 C544 C 1.11819 0.61703 -0.12626
 C545 C 1.09668 0.59083 -0.09678
 C546 C 1.06616 0.57955 -0.10958
 C547 C 1.05736 0.59545 -0.15049
 H548 H 1.16707 0.69922 -0.28970
 H549 H 1.05922 0.66344 -0.32601
 H550 H 1.09628 0.70091 -0.39986
 H551 H 1.04651 0.62700 -0.23779
 H552 H 1.15462 0.66445 -0.19790
 H553 H 1.14160 0.62493 -0.11661
 H554 H 1.10396 0.57896 -0.06532
 H555 H 1.03387 0.58680 -0.16111
 C556 C 0.83339 0.54061 -0.28268
 C557 C 0.85498 0.53939 -0.24227
 C558 C 0.88557 0.56033 -0.25129
 C559 C 0.89401 0.58255 -0.29891
 C560 C 0.87264 0.58279 -0.34087
 C561 C 0.84223 0.56135 -0.33477
 C562 C 0.90740 0.55776 -0.21560
 C563 C 0.89921 0.53368 -0.17362
 C564 C 0.86866 0.51301 -0.16334
 C565 C 0.84669 0.51639 -0.19648
 C566 C 0.86068 0.48850 -0.12282
 C567 C 0.88271 0.48364 -0.09619
 C568 C 0.91308 0.50348 -0.10852
 C569 C 0.92117 0.52905 -0.14513
 H570 H 0.81008 0.52380 -0.27785
 H571 H 0.91732 0.59886 -0.30614
 H572 H 0.87993 0.59932 -0.37972
 H573 H 0.93085 0.57355 -0.22364
 H574 H 0.82328 0.50022 -0.18965
 H575 H 0.83741 0.47250 -0.11400
 H576 H 0.87597 0.46395 -0.06736
 H577 H 0.94453 0.54452 -0.15492
 C578 C 0.53323 0.34582 -0.26845
 C579 C 0.52238 0.36389 -0.24759
 C580 C 0.52438 0.38584 -0.29111
 C581 C 0.53666 0.38921 -0.35434
 C582 C 0.54522 0.36996 -0.37627
 C583 C 0.54294 0.34708 -0.33500
 C584 C 0.51371 0.40395 -0.27149
 C585 C 0.50024 0.40001 -0.20916
 C586 C 0.49723 0.37752 -0.16586
 C587 C 0.50870 0.35982 -0.18492
 C588 C 0.48333 0.37361 -0.10372
 C589 C 0.47439 0.39299 -0.08312
 C590 C 0.47924 0.41657 -0.12432
 C591 C 0.49088 0.41910 -0.18856
 H592 H 0.53353 0.33051 -0.23296
 H593 H 0.53835 0.40595 -0.38837
 H594 H 0.55206 0.37272 -0.42762
 H595 H 0.51584 0.42108 -0.30486
 H596 H 0.50670 0.34278 -0.15149
 H597 H 0.48043 0.35631 -0.07005
 H598 H 0.46526 0.39054 -0.03332
 H599 H 0.49484 0.43727 -0.22054
 C600 C 0.69377 0.14208 -0.30115
 C601 C 0.66863 0.12987 -0.25940
 C602 C 0.65157 0.14362 -0.25354
 C603 C 0.66010 0.16946 -0.28925
 C604 C 0.68478 0.18110 -0.33179
 C605 C 0.70162 0.16742 -0.33815
 C606 C 0.62574 0.13084 -0.21393
 C607 C 0.61613 0.10394 -0.18213
 C608 C 0.63327 0.09025 -0.18797
 C609 C 0.65968 0.10358 -0.22544
 C610 C 0.62303 0.06282 -0.15860
 C611 C 0.59538 0.04840 -0.12667
 C612 C 0.57799 0.06155 -0.12164
 C613 C 0.58886 0.08974 -0.14752
 H614 H 0.70671 0.13145 -0.30671
 H615 H 0.64728 0.18026 -0.28556
 H616 H 0.69063 0.20063 -0.36043
 H617 H 0.61252 0.14125 -0.21000
 H618 H 0.67263 0.09293 -0.23031
 H619 H 0.63584 0.05201 -0.16262
 H620 H 0.58723 0.02663 -0.10696
 H621 H 0.57521 0.09972 -0.14458
 C622 C 1.10476 0.42050 -0.36013
 C623 C 1.08678 0.42379 -0.31334
 C624 C 1.08523 0.41381 -0.24682
 C625 C 1.10032 0.39910 -0.22949
 C626 C 1.11813 0.39581 -0.27663
 C627 C 1.12123 0.40731 -0.34159
 C628 C 1.06973 0.41982 -0.19826
 C629 C 1.05624 0.43609 -0.21537
 C630 C 1.05654 0.44466 -0.28276
 C631 C 1.07157 0.43823 -0.33138
 C632 C 1.04297 0.46073 -0.30001
 C633 C 1.03095 0.46995 -0.25043
 C634 C 1.03212 0.46314 -0.18272
 C635 C 1.04377 0.44520 -0.16576
 H636 H 1.10719 0.42953 -0.41013
 H637 H 1.09916 0.39103 -0.17896
 H638 H 1.13055 0.38540 -0.26171
 H639 H 1.06928 0.41296 -0.14677
 H640 H 1.07252 0.44558 -0.38262
 H641 H 1.04268 0.46715 -0.35153
 H642 H 1.02169 0.48337 -0.26494
 H643 H 1.04455 0.43961 -0.11375
 C644 C 0.55004 0.69113 -0.33910
 C645 C 0.54482 0.67032 -0.28970
 C646 C 0.55451 0.67904 -0.22321
 C647 C 0.57068 0.70888 -0.20827
 C648 C 0.57614 0.72965 -0.25815
 C649 C 0.56519 0.72109 -0.32406
 C650 C 0.54731 0.65777 -0.17294
 C651 C 0.53057 0.62793 -0.18887
 C652 C 0.52206 0.61966 -0.25636
 C653 C 0.52917 0.64078 -0.30599
 C654 C 0.50597 0.59028 -0.27357
 C655 C 0.49747 0.56903 -0.22444
 C656 C 0.50464 0.57648 -0.15652
 C657 C 0.52169 0.60614 -0.13890
 H658 H 0.54060 0.68368 -0.38859
 H659 H 0.57880 0.71616 -0.15789
 H660 H 0.58883 0.75251 -0.24497
 H661 H 0.55424 0.66440 -0.12160
 H662 H 0.52203 0.63416 -0.35730
 H663 H 0.49954 0.58366 -0.32510
 H664 H 0.48462 0.54649 -0.24008
 H665 H 0.52758 0.61218 -0.08692
 C666 C 0.29528 -0.14837 -0.34103
 C667 C 0.31684 -0.13410 -0.29088
 C668 C 0.32139 -0.15050 -0.24117
 C669 C 0.30319 -0.18096 -0.24080
 C670 C 0.28121 -0.19502 -0.29002
 C671 C 0.27745 -0.17898 -0.34171
 C672 C 0.34422 -0.13619 -0.19327
 C673 C 0.36229 -0.10564 -0.19414
 C674 C 0.35657 -0.08936 -0.24212
 C675 C 0.33405 -0.10364 -0.29017
 C676 C 0.37395 -0.05895 -0.24248
 C677 C 0.39773 -0.04472 -0.19799
 C678 C 0.40488 -0.06051 -0.15223
 C679 C 0.38647 -0.09107 -0.14925
 H680 H 0.29203 -0.13563 -0.37918
 H681 H 0.30611 -0.19394 -0.20282
 H682 H 0.26787 -0.21862 -0.28920
 H683 H 0.34817 -0.14881 -0.15608
 H684 H 0.33024 -0.09105 -0.32771
 H685 H 0.36963 -0.04615 -0.27834
 H686 H 0.41115 -0.02120 -0.20104
 H687 H 0.39163 -0.10352 -0.11414
 C688 C 0.53285 -0.14464 0.34764
 C689 C 0.52713 -0.12847 0.30025
 C690 C 0.54048 -0.12298 0.23626
 C691 C 0.55958 -0.13353 0.22116
 C692 C 0.56550 -0.14925 0.26906
 C693 C 0.55223 -0.15491 0.33262
 C694 C 0.53464 -0.10695 0.18863
 C695 C 0.51600 -0.09594 0.20459
 C696 C 0.50302 -0.10114 0.26899
 C697 C 0.50845 -0.11757 0.31613
 C698 C 0.48497 -0.08960 0.28546
 C699 C 0.47995 -0.07287 0.23885
 C700 C 0.49252 -0.06771 0.17459
 C701 C 0.51039 -0.07951 0.15753
 H702 H 0.52231 -0.14921 0.39642
 H703 H 0.57006 -0.12950 0.17245
 H704 H 0.58046 -0.15703 0.25662
 H705 H 0.54479 -0.10283 0.13947
 H706 H 0.49838 -0.12161 0.36538
 H707 H 0.47490 -0.09331 0.33459
 H708 H 0.46607 -0.06404 0.25300
 H709 H 0.52035 -0.07545 0.10819
 C710 C 0.28799 0.42521 0.31286
 C711 C 0.31341 0.43745 0.27157
 C712 C 0.32678 0.46705 0.25175
 C713 C 0.31511 0.48403 0.27441
 C714 C 0.29057 0.47198 0.31697
 C715 C 0.27658 0.44252 0.33581
 C716 C 0.35204 0.47953 0.21082
 C717 C 0.36494 0.46324 0.19122
 C718 C 0.35223 0.43388 0.21182
 C719 C 0.32616 0.42096 0.25105
 C720 C 0.36630 0.41830 0.19394
 C721 C 0.39301 0.43196 0.15735
 C722 C 0.40557 0.46112 0.13665
 C723 C 0.39103 0.47638 0.15301
 H724 H 0.27751 0.40259 0.32853
 H725 H 0.32532 0.50679 0.26019
 H726 H 0.28231 0.48565 0.33529
 H727 H 0.36214 0.50220 0.19561
 H728 H 0.31626 0.39839 0.26684
 H729 H 0.35701 0.39580 0.20946
 H730 H 0.40390 0.41981 0.14553
 H731 H 0.40070 0.49905 0.13830
 C732 C 1.14548 0.69670 0.26204
 C733 C 1.12521 0.67442 0.21959
 C734 C 1.09494 0.66701 0.21830
 C735 C 1.08577 0.68280 0.25739
 C736 C 1.10595 0.70444 0.30072
 C737 C 1.13564 0.71094 0.30444
 C738 C 1.07403 0.64294 0.18103
 C739 C 1.08278 0.62552 0.14722
 C740 C 1.11318 0.63349 0.14661
 C741 C 1.13431 0.65823 0.18180
 C742 C 1.12168 0.61570 0.11369
 C743 C 1.10007 0.58931 0.08546
 C744 C 1.06964 0.58048 0.08878
 C745 C 1.06131 0.59932 0.11743
 H746 H 1.16839 0.70163 0.26563
 H747 H 1.06271 0.67746 0.25685
 H748 H 1.09817 0.71526 0.33354
 H749 H 1.05071 0.63683 0.18139
 H750 H 1.15752 0.66393 0.18274
 H751 H 1.14491 0.62158 0.11229
 H752 H 1.10710 0.57531 0.06329
 H753 H 1.03793 0.59288 0.11993
 C754 C 0.50066 0.16946 0.36348
 C755 C 0.50043 0.14997 0.31609
 C756 C 0.51669 0.16088 0.25592
 C757 C 0.53327 0.19104 0.24471
 C758 C 0.53449 0.21028 0.29344
 C759 C 0.51843 0.19982 0.35359
 C760 C 0.51678 0.14156 0.20868
 C761 C 0.50191 0.11152 0.22209
 C762 C 0.48629 0.10063 0.28305
 C763 C 0.48506 0.11984 0.32894
 C764 C 0.47276 0.07077 0.29774
 C765 C 0.47511 0.05197 0.25301
 C766 C 0.49020 0.06255 0.19199
 C767 C 0.50318 0.09228 0.17636
 H768 H 0.48768 0.16103 0.40892
 H769 H 0.54601 0.19980 0.19908
 H770 H 0.54854 0.23349 0.28457
 H771 H 0.52915 0.14999 0.16241
 H772 H 0.47297 0.11145 0.37554
 H773 H 0.46084 0.06204 0.34433
 H774 H 0.46487 0.02907 0.26580
 H775 H 0.51521 0.10064 0.12983
 C776 C 0.69037 0.56257 0.30568
 C777 C 0.66974 0.55637 0.25342
 C778 C 0.66460 0.53465 0.20600
 C779 C 0.68053 0.52000 0.21068
 C780 C 0.70081 0.52618 0.26289
 C781 C 0.70565 0.54722 0.31100
 C782 C 0.64290 0.52718 0.15598
 C783 C 0.62556 0.54043 0.15389
 C784 C 0.63112 0.56265 0.20007
 C785 C 0.65352 0.57081 0.24895
 C786 C 0.61307 0.57521 0.19876
 C787 C 0.58834 0.56425 0.15586
 C788 C 0.58171 0.54103 0.11245
 C789 C 0.60138 0.53031 0.10934
 H790 H 0.69420 0.57888 0.34280
 H791 H 0.67689 0.50335 0.17474
 H792 H 0.71251 0.51424 0.26645
 H793 H 0.63860 0.51010 0.12057
 H794 H 0.65743 0.58748 0.28516
 H795 H 0.61707 0.59237 0.23349
 H796 H 0.57349 0.57284 0.15928
 H797 H 0.59638 0.51225 0.07649
 C798 C 0.86861 0.30156 0.34721
 C799 C 0.88643 0.32356 0.30138
 C800 C 0.89126 0.31599 0.23691
 C801 C 0.87962 0.28650 0.22104
 C802 C 0.86220 0.26467 0.26757
 C803 C 0.85575 0.27201 0.33013
 C804 C 0.90687 0.33796 0.18898
 C805 C 0.91768 0.36732 0.20496
 C806 C 0.91424 0.37488 0.27068
 C807 C 0.89863 0.35295 0.31844
 C808 C 0.92570 0.40424 0.28704
 C809 C 0.93921 0.42587 0.23800
 C810 C 0.94122 0.41848 0.17164
 C811 C 0.93106 0.38919 0.15581
 H812 H 0.86380 0.30738 0.39553
 H813 H 0.88343 0.28030 0.17219
 H814 H 0.85284 0.24201 0.25398
 H815 H 0.90988 0.33217 0.13888
 H816 H 0.89528 0.35871 0.36830
 H817 H 0.92353 0.41041 0.33736
 H818 H 0.94702 0.44829 0.25146
 H819 H 0.93291 0.38333 0.10492
   
