data_POSCAR
  _audit_creation_date              2014-09-24
  _audit_creation_method            'ToBaCCo'
  _symmetry_space_group_name_H-M    'P1'
  _symmetry_Int_Tables_number       1
  _symmetry_cell_setting            triclinic
  loop_
  _symmetry_equiv_pos_as_xyz
 x,y,z
_cell_length_a 53.7840
_cell_length_b 53.4929
_cell_length_c 53.2867
_cell_angle_alpha 89.711300
_cell_angle_beta 89.987200
_cell_angle_gamma 90.035000
loop_
  _atom_site_label
  _atom_site_type_symbol
  _atom_site_fract_x
  _atom_site_fract_y
  _atom_site_fract_z
N1 N 0.15409 1.20581 0.13612
 N2 N 0.13711 1.20565 0.15381
 C3 C 0.12247 1.22589 0.15101
 C4 C 0.13065 1.23958 0.13033
 C5 C 0.15079 1.22600 0.12137
 H6 H 0.10721 1.23036 0.16336
 H7 H 0.16254 1.23050 0.10554
 Cu8 Cu 0.13599 1.17940 0.17926
 Cu9 Cu 0.18000 1.18058 0.13421
 Cu10 Cu 0.17993 1.13448 0.18003
 N11 N 0.13707 1.15384 0.20540
 N12 N 0.15400 1.13618 0.20537
 C13 C 0.15070 1.12134 0.22554
 C14 C 0.13061 1.13020 0.23930
 C15 C 0.12246 1.15092 0.22574
 H16 H 0.16243 1.10552 0.22991
 H17 H 0.10725 1.16322 0.23037
 N18 N 0.20472 1.13593 0.15288
 N19 N 0.20475 1.15351 0.13544
 C20 C 0.22466 1.15028 0.12049
 C21 C 0.23796 1.12971 0.12894
 C22 C 0.22461 1.12105 0.14947
 H23 H 0.22945 1.16247 0.10503
 H24 H 0.22929 1.10541 0.16143
 H25 H 0.16028 1.15234 0.15181
 H26 H 0.18020 1.17245 0.17222
 N27 N 0.84628 0.79490 0.13564
 N28 N 0.86339 0.79515 0.15322
 C29 C 0.87832 0.77517 0.15034
 C30 C 0.87016 0.76158 0.12983
 C31 C 0.84979 0.77482 0.12095
 H32 H 0.89358 0.77052 0.16267
 H33 H 0.83805 0.77004 0.10527
 Cu34 Cu 0.86354 0.82067 0.17910
 Cu35 Cu 0.81982 0.81971 0.13405
 Cu36 Cu 0.81970 0.86538 0.18006
 N37 N 0.86329 0.84640 0.20478
 N38 N 0.84610 0.86380 0.20506
 C39 C 0.84951 0.87841 0.22525
 C40 C 0.86995 0.86966 0.23864
 C41 C 0.87822 0.84929 0.22484
 H42 H 0.83761 0.89392 0.22995
 H43 H 0.89360 0.83709 0.22927
 N44 N 0.79460 0.86377 0.15318
 N45 N 0.79466 0.84640 0.13569
 C46 C 0.77467 0.84963 0.12083
 C47 C 0.76122 0.86999 0.12936
 C48 C 0.77456 0.87850 0.14988
 H49 H 0.77001 0.83761 0.10531
 H50 H 0.76983 0.89399 0.16188
 H51 H 0.83918 0.84783 0.15180
 H52 H 0.81929 0.82748 0.17210
 N53 N 0.84619 1.20412 -0.13559
 N54 N 0.86325 1.20395 -0.15323
 C55 C 0.87822 1.22391 -0.15030
 C56 C 0.87010 1.23743 -0.12972
 C57 C 0.84973 1.22414 -0.12082
 H58 H 0.89343 1.22858 -0.16269
 H59 H 0.83799 1.22886 -0.10509
 Cu60 Cu 0.86318 1.17842 -0.17910
 Cu61 Cu 0.81962 1.17932 -0.13407
 Cu62 Cu 0.81944 1.13382 -0.18035
 N63 N 0.86310 1.15289 -0.20497
 N64 N 0.84592 1.13547 -0.20532
 C65 C 0.84936 1.12088 -0.22552
 C66 C 0.86986 1.12967 -0.23883
 C67 C 0.87812 1.15002 -0.22498
 H68 H 0.83742 1.10538 -0.23029
 H69 H 0.89350 1.16226 -0.22931
 N70 N 0.79429 1.13536 -0.15346
 N71 N 0.79435 1.15263 -0.13586
 C72 C 0.77431 1.14931 -0.12105
 C73 C 0.76085 1.12900 -0.12974
 C74 C 0.77422 1.12063 -0.15029
 H75 H 0.76964 1.16114 -0.10539
 H76 H 0.76940 1.10531 -0.16248
 H77 H 0.83873 1.15121 -0.15195
 H78 H 0.81886 1.17162 -0.17211
 N79 N 0.15427 0.79431 -0.13640
 N80 N 0.13732 0.79430 -0.15415
 C81 C 0.12254 0.77416 -0.15109
 C82 C 0.13068 0.76078 -0.13028
 C83 C 0.15085 0.77429 -0.12145
 H84 H 0.10722 0.76946 -0.16330
 H85 H 0.16260 0.76969 -0.10566
 Cu86 Cu 0.13725 0.82011 -0.18002
 Cu87 Cu 0.18047 0.81942 -0.13462
 Cu88 Cu 0.18028 0.86549 -0.18068
 N89 N 0.13719 0.84594 -0.20590
 N90 N 0.15404 0.86372 -0.20582
 C91 C 0.15057 0.87866 -0.22588
 C92 C 0.13046 0.86977 -0.23958
 C93 C 0.12242 0.84893 -0.22611
 H94 H 0.16229 0.89448 -0.23025
 H95 H 0.10724 0.83658 -0.23078
 N96 N 0.20528 0.86397 -0.15366
 N97 N 0.20538 0.84645 -0.13616
 C98 C 0.22532 0.84983 -0.12125
 C99 C 0.23853 0.87044 -0.12980
 C100 C 0.22513 0.87894 -0.15035
 H101 H 0.23006 0.83784 -0.10561
 H102 H 0.22977 0.89451 -0.16245
 H103 H 0.16095 0.84744 -0.15250
 H104 H 0.18134 0.82766 -0.17255
 C105 C 0.47248 0.98403 -0.01571
 C106 C 0.48563 0.99988 0.00057
 C107 C 0.47258 1.01628 0.01635
 C108 C 0.44654 1.01702 0.01557
 C109 C 0.43364 1.00141 -0.00088
 C110 C 0.44644 0.98485 -0.01643
 C111 C 0.51300 0.99968 0.00059
 C112 C 0.52618 1.01564 -0.01572
 C113 C 0.55223 1.01495 -0.01626
 C114 C 0.56500 0.99841 -0.00050
 C115 C 0.55208 0.98262 0.01591
 C116 C 0.52602 0.98322 0.01650
 H117 H 0.48247 0.97137 -0.02790
 H118 H 0.48262 1.02851 0.02896
 H119 H 0.51622 1.02831 -0.02805
 H120 H 0.51594 0.97087 0.02908
 H121 H 0.41349 1.00205 -0.00148
 H122 H 0.58516 0.99791 -0.00093
 C123 C -0.01679 0.47267 0.98349
 C124 C -0.00129 0.48574 1.00015
 C125 C 0.01493 0.47250 1.01606
 C126 C 0.01599 0.44636 1.01497
 C127 C 0.00081 0.43353 0.99808
 C128 C -0.01565 0.44650 0.98244
 C129 C -0.00126 0.51325 1.00034
 C130 C -0.01679 0.52633 1.01694
 C131 C -0.01555 0.55248 1.01805
 C132 C 0.00108 0.56543 1.00255
 C133 C 0.01628 0.55261 0.98569
 C134 C 0.01507 0.52647 0.98450
 H135 H -0.02936 0.48279 0.97124
 H136 H 0.02688 0.48250 1.02896
 H137 H -0.02945 0.51622 1.02914
 H138 H 0.02704 0.51645 0.97164
 H139 H 0.00165 0.41328 0.99727
 H140 H 0.00202 0.58567 1.00344
 C141 C 0.98306 -0.01693 0.47293
 C142 C 0.99850 -0.00027 0.48603
 C143 C 1.01479 0.01553 0.47273
 C144 C 1.01607 0.01422 0.44651
 C145 C 1.00098 -0.00271 0.43366
 C146 C 0.98436 -0.01815 0.44668
 C147 C 0.99848 0.00002 0.51365
 C148 C 1.01479 -0.01571 0.52698
 C149 C 1.01604 -0.01438 0.55321
 C150 C 1.00093 0.00255 0.56602
 C151 C 0.98433 0.01795 0.55296
 C152 C 0.98303 0.01667 0.52671
 H153 H 0.97042 -0.02908 0.48310
 H154 H 1.02668 0.02844 0.48276
 H155 H 1.02672 -0.02859 0.51698
 H156 H 0.97037 0.02877 0.51652
 H157 H 1.00196 -0.00366 0.41335
 H158 H 1.00188 0.00354 0.58632
 C159 C 0.10222 0.30828 1.10186
 C160 C 0.09137 0.29684 1.12297
 C161 C 0.10063 0.27421 1.13233
 C162 C 0.12109 0.26236 1.12086
 C163 C 0.13183 0.27395 1.09964
 C164 C 0.12254 0.29655 1.09034
 C165 C 0.09207 0.33196 1.09146
 N166 N 0.10197 0.34233 1.07040
 N167 N 0.09217 0.36289 1.06029
 C168 C 0.07208 0.37405 1.07084
 N169 N 0.06239 0.36391 1.09213
 N170 N 0.07219 0.34332 1.10225
 C171 C 0.05983 0.39556 1.05825
 C172 C 0.03865 0.40683 1.06882
 C173 C 0.02521 0.42480 1.05532
 C174 C 0.03279 0.43182 1.03115
 C175 C 0.05452 0.42158 1.02101
 C176 C 0.06803 0.40373 1.03449
 H177 H 0.07561 0.30531 1.13229
 H178 H 0.09150 0.26617 1.14855
 H179 H 0.14739 0.26573 1.08990
 H180 H 0.13133 0.30476 1.07397
 H181 H 0.03184 0.40106 1.08707
 H182 H 0.00820 0.43226 1.06319
 H183 H 0.06038 0.42659 1.00219
 H184 H 0.08426 0.39552 1.02578
 C185 C -0.10087 0.69141 1.10273
 C186 C -0.12259 0.70173 1.09230
 C187 C -0.13190 0.72452 1.10097
 C188 C -0.11977 0.73752 1.12032
 C189 C -0.09804 0.72714 1.13070
 C190 C -0.08874 0.70440 1.12204
 C191 C -0.09051 0.66762 1.09311
 N192 N -0.06900 0.65824 1.10258
 N193 N -0.05899 0.63754 1.09320
 C194 C -0.07009 0.62526 1.07397
 N195 N -0.09180 0.63444 1.06470
 N196 N -0.10181 0.65517 1.07409
 C197 C -0.05771 0.60357 1.06207
 C198 C -0.06887 0.59112 1.04176
 C199 C -0.05572 0.57294 1.02845
 C200 C -0.03127 0.56697 1.03522
 C201 C -0.02050 0.57841 1.05616
 C202 C -0.03366 0.59641 1.06961
 H203 H -0.13237 0.69229 1.07734
 H204 H -0.14867 0.73177 1.09246
 H205 H -0.08799 0.73654 1.14547
 H206 H -0.07191 0.69708 1.13046
 H207 H -0.08735 0.59615 1.03548
 H208 H -0.06409 0.56457 1.01202
 H209 H -0.00148 0.57423 1.06136
 H210 H -0.02450 0.60552 1.08518
 C211 C -0.10086 0.30757 0.89748
 C212 C -0.12256 0.29720 0.90790
 C213 C -0.13192 0.27446 0.89918
 C214 C -0.11982 0.26149 0.87979
 C215 C -0.09808 0.27189 0.86941
 C216 C -0.08874 0.29462 0.87813
 C217 C -0.09053 0.33140 0.90710
 N218 N -0.06903 0.34085 0.89761
 N219 N -0.05907 0.36158 0.90701
 C220 C -0.07019 0.37383 0.92624
 N221 N -0.09189 0.36458 0.93550
 N222 N -0.10186 0.34383 0.92610
 C223 C -0.05782 0.39552 0.93820
 C224 C -0.06899 0.40790 0.95855
 C225 C -0.05582 0.42602 0.97196
 C226 C -0.03135 0.43202 0.96522
 C227 C -0.02057 0.42063 0.94426
 C228 C -0.03375 0.40269 0.93073
 H229 H -0.13234 0.30661 0.92290
 H230 H -0.14869 0.26719 0.90769
 H231 H -0.08808 0.26252 0.85459
 H232 H -0.07190 0.30197 0.86972
 H233 H -0.08748 0.40285 0.96481
 H234 H -0.06419 0.43434 0.98841
 H235 H -0.00153 0.42482 0.93909
 H236 H -0.02457 0.39360 0.91516
 C237 C 0.10248 0.69077 0.89881
 C238 C 0.12144 0.70373 0.91139
 C239 C 0.13045 0.72641 0.90203
 C240 C 0.12079 0.73677 0.87977
 C241 C 0.10180 0.72380 0.86717
 C242 C 0.09275 0.70108 0.87657
 C243 C 0.09252 0.66705 0.90928
 N244 N 0.07350 0.65482 0.89789
 N245 N 0.06382 0.63419 0.90808
 C246 C 0.07279 0.62489 0.93006
 N247 N 0.09204 0.63693 0.94123
 N248 N 0.10171 0.65752 0.93105
 C249 C 0.06058 0.60338 0.94272
 C250 C 0.06791 0.59621 0.96706
 C251 C 0.05428 0.57842 0.98051
 C252 C 0.03336 0.56715 0.96974
 C253 C 0.02674 0.57313 0.94501
 C254 C 0.04025 0.59112 0.93156
 H255 H 0.12931 0.69644 0.92864
 H256 H 0.14493 0.73577 0.91245
 H257 H 0.09386 0.73105 0.84998
 H258 H 0.07808 0.69165 0.86642
 H259 H 0.08348 0.60517 0.97623
 H260 H 0.05939 0.57422 0.99974
 H261 H 0.01036 0.56487 0.93662
 H262 H 0.03412 0.59614 0.91285
 C263 C 1.10235 0.10140 0.30818
 C264 C 1.09153 0.12256 0.29693
 C265 C 1.10073 0.13203 0.27423
 C266 C 1.12110 0.12063 0.26213
 C267 C 1.13179 0.09936 0.27355
 C268 C 1.12257 0.08994 0.29620
 C269 C 1.09229 0.09088 0.33193
 N270 N 1.10198 0.06962 0.34194
 N271 N 1.09223 0.05939 0.36253
 C272 C 1.07241 0.07002 0.37411
 N273 N 1.06294 0.09151 0.36435
 N274 N 1.07269 0.10174 0.34371
 C275 C 1.06019 0.05730 0.39563
 C276 C 1.03968 0.06823 0.40780
 C277 C 1.02622 0.05474 0.42582
 C278 C 1.03305 0.03019 0.43191
 C279 C 1.05413 0.01964 0.42074
 C280 C 1.06770 0.03313 0.40290
 H281 H 1.07585 0.13180 0.30559
 H282 H 1.09164 0.14828 0.26633
 H283 H 1.14728 0.08968 0.26513
 H284 H 1.13133 0.07354 0.30425
 H285 H 1.03342 0.08680 0.40271
 H286 H 1.00972 0.06295 0.43402
 H287 H 1.05942 0.00056 0.42505
 H288 H 1.08338 0.02412 0.39397
 C289 C 1.10233 -0.10156 0.69147
 C290 C 1.12242 -0.08995 0.70356
 C291 C 1.13159 -0.09931 0.72624
 C292 C 1.12097 -0.12067 0.73758
 C293 C 1.10079 -0.13225 0.72536
 C294 C 1.09165 -0.12285 0.70263
 C295 C 1.09224 -0.09101 0.66778
 N296 N 1.07269 -0.10193 0.65595
 N297 N 1.06293 -0.09167 0.63534
 C298 C 1.07234 -0.07009 0.62567
 N299 N 1.09209 -0.05940 0.63731
 N300 N 1.10185 -0.06965 0.65788
 C301 C 1.06013 -0.05737 0.60417
 C302 C 1.06755 -0.03313 0.59700
 C303 C 1.05397 -0.01966 0.57918
 C304 C 1.03300 -0.03030 0.56787
 C305 C 1.02626 -0.05492 0.57387
 C306 C 1.03971 -0.06837 0.59191
 H307 H 1.13108 -0.07345 0.69557
 H308 H 1.14700 -0.08951 0.73469
 H309 H 1.09185 -0.14864 0.73317
 H310 H 1.07607 -0.13222 0.69388
 H311 H 1.08318 -0.02408 0.60598
 H312 H 1.05917 -0.00052 0.57497
 H313 H 1.00984 -0.06321 0.56559
 H314 H 1.03352 -0.08700 0.59693
 C315 C 0.89865 -0.10318 0.30771
 C316 C 0.87791 -0.09181 0.29645
 C317 C 0.86853 -0.10062 0.27366
 C318 C 0.87959 -0.12118 0.26150
 C319 C 0.90041 -0.13247 0.27294
 C320 C 0.90976 -0.12361 0.29566
 C321 C 0.90908 -0.09343 0.33150
 N322 N 0.93024 -0.10327 0.34132
 N323 N 0.94031 -0.09382 0.36202
 C324 C 0.92961 -0.07417 0.37390
 N325 N 0.90824 -0.06454 0.36430
 N326 N 0.89818 -0.07398 0.34355
 C327 C 0.94209 -0.06222 0.39558
 C328 C 0.93096 -0.04197 0.40806
 C329 C 0.94416 -0.02863 0.42623
 C330 C 0.96865 -0.03531 0.43215
 C331 C 0.97942 -0.05614 0.42064
 C332 C 0.96619 -0.06964 0.40267
 H333 H 0.86895 -0.07593 0.30513
 H334 H 0.85259 -0.09112 0.26580
 H335 H 0.90978 -0.14821 0.26453
 H336 H 0.92584 -0.13280 0.30373
 H337 H 0.91244 -0.03577 0.40308
 H338 H 0.93578 -0.01228 0.43464
 H339 H 0.99848 -0.06124 0.42475
 H340 H 0.97535 -0.08513 0.39351
 C341 C 0.89876 0.10269 0.69213
 C342 C 0.90991 0.12305 0.70428
 C343 C 0.90048 0.13188 0.72700
 C344 C 0.87956 0.12059 0.73832
 C345 C 0.86850 0.10009 0.72604
 C346 C 0.87795 0.09133 0.70329
 C347 C 0.90919 0.09299 0.66832
 N348 N 0.89828 0.07354 0.65625
 N349 N 0.90831 0.06412 0.63549
 C350 C 0.92968 0.07377 0.62588
 N351 N 0.94041 0.09342 0.63776
 N352 N 0.93036 0.10285 0.65850
 C353 C 0.94210 0.06189 0.60414
 C354 C 0.96616 0.06939 0.59697
 C355 C 0.97936 0.05597 0.57893
 C356 C 0.96861 0.03509 0.56746
 C357 C 0.94415 0.02833 0.57345
 C358 C 0.93097 0.04162 0.59167
 H359 H 0.92604 0.13222 0.69628
 H360 H 0.90984 0.14757 0.73552
 H361 H 0.85251 0.09058 0.73382
 H362 H 0.86896 0.07549 0.69453
 H363 H 0.97532 0.08489 0.60614
 H364 H 0.99839 0.06117 0.57474
 H365 H 0.93580 0.01194 0.56507
 H366 H 0.91247 0.03535 0.59670
 C367 C 0.30798 1.10215 0.10060
 C368 C 0.29713 1.09148 0.12213
 C369 C 0.27441 1.10031 0.13124
 C370 C 0.26196 1.12007 0.11908
 C371 C 0.27288 1.13074 0.09756
 C372 C 0.29558 1.12192 0.08847
 C373 C 0.33170 1.09231 0.09044
 N374 N 0.34175 1.10216 0.06920
 N375 N 0.36240 1.09260 0.05937
 C376 C 0.37397 1.07282 0.07038
 N377 N 0.36410 1.06318 0.09182
 N378 N 0.34342 1.07274 0.10165
 C379 C 0.39562 1.06078 0.05814
 C380 C 0.40694 1.03958 0.06894
 C381 C 0.42503 1.02624 0.05573
 C382 C 0.43212 1.03393 0.03161
 C383 C 0.42182 1.05568 0.02124
 C384 C 0.40386 1.06912 0.03445
 H385 H 0.30610 1.07619 0.13195
 H386 H 0.26675 1.09158 0.14787
 H387 H 0.26395 1.14589 0.08755
 H388 H 0.30332 1.13057 0.07179
 H389 H 0.40108 1.03262 0.08711
 H390 H 0.43249 1.00916 0.06373
 H391 H 0.42684 1.06155 0.00242
 H392 H 0.39560 1.08534 0.02554
 C393 C 0.69078 1.10067 -0.10191
 C394 C 0.70173 1.12195 -0.09119
 C395 C 0.72446 1.13106 -0.10011
 C396 C 0.73682 1.11916 -0.12002
 C397 C 0.72581 1.09787 -0.13072
 C398 C 0.70309 1.08877 -0.12181
 C399 C 0.66706 1.09049 -0.09197
 N400 N 0.65687 1.06954 -0.10193
 N401 N 0.63625 1.05964 -0.09224
 C402 C 0.62487 1.07030 -0.07221
 N403 N 0.63487 1.09147 -0.06246
 N404 N 0.65550 1.10137 -0.07215
 C405 C 0.60326 1.05796 -0.06005
 C406 C 0.59223 1.06829 -0.03850
 C407 C 0.57417 1.05495 -0.02510
 C408 C 0.56678 1.03117 -0.03310
 C409 C 0.57680 1.02130 -0.05519
 C410 C 0.59475 1.03464 -0.06867
 H411 H 0.69281 1.13156 -0.07578
 H412 H 0.73221 1.14747 -0.09130
 H413 H 0.73467 1.08802 -0.14596
 H414 H 0.69527 1.07228 -0.13048
 H415 H 0.59829 1.08620 -0.03136
 H416 H 0.56693 1.06258 -0.00779
 H417 H 0.57156 1.00276 -0.06134
 H418 H 0.60277 1.02614 -0.08519
 C419 C 0.30828 0.89918 -0.10186
 C420 C 0.29577 0.91128 -0.12163
 C421 C 0.27315 0.90206 -0.13055
 C422 C 0.26243 0.88044 -0.12000
 C423 C 0.27497 0.86834 -0.10020
 C424 C 0.29761 0.87758 -0.09127
 C425 C 0.33193 0.90945 -0.09196
 N426 N 0.34373 0.89835 -0.07231
 N427 N 0.36432 0.90830 -0.06268
 C428 C 0.37403 0.92975 -0.07234
 N429 N 0.36241 0.94064 -0.09219
 N430 N 0.34183 0.93069 -0.10181
 C431 C 0.39559 0.94211 -0.06025
 C432 C 0.40360 0.96579 -0.06858
 C433 C 0.42149 0.97908 -0.05512
 C434 C 0.43196 0.96881 -0.03333
 C435 C 0.42511 0.94468 -0.02566
 C436 C 0.40708 0.93139 -0.03903
 H437 H 0.30337 0.92801 -0.13019
 H438 H 0.26415 0.91206 -0.14570
 H439 H 0.26745 0.85167 -0.09153
 H440 H 0.30668 0.86781 -0.07597
 H441 H 0.39524 0.97460 -0.08485
 H442 H 0.42636 0.99786 -0.06103
 H443 H 0.43275 0.93670 -0.00861
 H444 H 0.40141 0.91320 -0.03212
 C445 C 0.69110 0.89762 0.10105
 C446 C 0.70213 0.90839 0.12233
 C447 C 0.72488 0.89954 0.13142
 C448 C 0.73720 0.87967 0.11949
 C449 C 0.72613 0.86896 0.09817
 C450 C 0.70339 0.87780 0.08910
 C451 C 0.66729 0.90742 0.09097
 N452 N 0.65704 0.89749 0.06997
 N453 N 0.63631 0.90703 0.06019
 C454 C 0.62487 0.92687 0.07101
 N455 N 0.63493 0.93659 0.09222
 N456 N 0.65567 0.92705 0.10201
 C457 C 0.60315 0.93890 0.05877
 C458 C 0.59207 0.96027 0.06928
 C459 C 0.57393 0.97360 0.05601
 C460 C 0.56651 0.96571 0.03213
 C461 C 0.57658 0.94380 0.02208
 C462 C 0.59462 0.93039 0.03535
 H463 H 0.69325 0.92375 0.13196
 H464 H 0.73267 0.90836 0.14784
 H465 H 0.73495 0.85374 0.08832
 H466 H 0.69552 0.86912 0.07259
 H467 H 0.59817 0.96736 0.08725
 H468 H 0.56668 0.99080 0.06375
 H469 H 0.57135 0.93777 0.00343
 H470 H 0.60270 0.91403 0.02669
   
