data_POSCAR
  _audit_creation_date              2014-09-24
  _audit_creation_method            'ToBaCCo'
  _symmetry_space_group_name_H-M    'P1'
  _symmetry_Int_Tables_number       1
  _symmetry_cell_setting            triclinic
  loop_
  _symmetry_equiv_pos_as_xyz
 x,y,z
_cell_length_a 29.3248
_cell_length_b 29.4556
_cell_length_c 26.8976
_cell_angle_alpha 89.969500
_cell_angle_beta 91.277700
_cell_angle_gamma 90.440100
loop_
  _atom_site_label
  _atom_site_type_symbol
  _atom_site_fract_x
  _atom_site_fract_y
  _atom_site_fract_z
C1 C 1.18711 0.26890 0.31054
 H2 H 1.18231 0.23245 0.31056
 C3 C 1.15847 0.29647 0.33823
 H4 H 1.13169 0.28123 0.35986
 C5 C 1.22765 0.33348 0.28200
 H6 H 1.25488 0.34793 0.26065
 C7 C 1.19997 0.36209 0.30903
 H8 H 1.20571 0.39844 0.30806
 N9 N 1.22013 0.28788 0.28219
 C10 C 1.23652 0.18976 0.16358
 H11 H 1.27308 0.18510 0.16505
 C12 C 1.20938 0.16332 0.13155
 H13 H 1.22487 0.13767 0.10872
 C14 C 1.17125 0.22758 0.19280
 H15 H 1.15650 0.25277 0.21658
 C16 C 1.14292 0.20248 0.16049
 H17 H 1.10641 0.20763 0.16057
 Zn18 Zn 1.25557 0.25042 0.24130
 N19 N 1.21696 0.21965 0.19499
 C20 C 1.28029 0.16281 0.27801
 N21 N 1.28773 0.20827 0.28342
 C22 C 1.31429 0.22456 0.32175
 C23 C 1.33324 0.19486 0.35727
 C24 C 1.29890 0.13207 0.31227
 C25 C 1.27590 0.31632 0.17014
 C26 C 1.30309 0.34605 0.14284
 C27 C 1.36953 0.31393 0.18385
 C28 C 1.34119 0.28505 0.21054
 N29 N 1.29522 0.28723 0.20381
 H30 H 1.25797 0.15018 0.24870
 H31 H 1.31901 0.26082 0.32604
 H32 H 1.35213 0.20842 0.38907
 H33 H 1.29067 0.09626 0.30877
 H34 H 1.23919 0.31697 0.16526
 H35 H 1.28739 0.36947 0.11670
 H36 H 1.40615 0.31239 0.18966
 H37 H 1.35586 0.26127 0.23684
 C38 C 1.16212 0.16909 0.13053
 C39 C 1.16471 0.34372 0.33682
 C40 C 1.35049 0.34504 0.15012
 C41 C 1.32489 0.14811 0.35290
 C42 C 0.66362 -0.21695 0.28696
 H43 H 0.65190 -0.24467 0.26365
 C44 C 0.63151 -0.18943 0.30973
 H45 H 0.59546 -0.19589 0.30330
 C46 C 0.72415 -0.17580 0.32588
 H47 H 0.76039 -0.17082 0.33230
 C48 C 0.69305 -0.14723 0.34925
 H49 H 0.70560 -0.12054 0.37371
 N50 N 0.70914 -0.20926 0.29438
 C51 C 0.73121 -0.33099 0.21231
 H52 H 0.75546 -0.34618 0.23799
 C53 C 0.70780 -0.35846 0.17759
 H54 H 0.71292 -0.39482 0.17785
 C55 C 0.69483 -0.26535 0.18003
 H56 H 0.69026 -0.22895 0.18094
 C57 C 0.67008 -0.29157 0.14567
 H58 H 0.64561 -0.27554 0.12069
 Zn59 Zn 0.75278 -0.24625 0.26060
 N60 N 0.72320 -0.28547 0.21390
 C61 C 0.76473 -0.31473 0.33216
 N62 N 0.78634 -0.28040 0.30816
 C63 C 0.83165 -0.27202 0.31598
 C64 C 0.85764 -0.30055 0.34671
 C65 C 0.78963 -0.34468 0.36224
 C66 C 0.78875 -0.16500 0.22079
 C67 C 0.81767 -0.13916 0.19165
 C68 C 0.85499 -0.20771 0.16551
 C69 C 0.82535 -0.23248 0.19563
 N70 N 0.79332 -0.21078 0.22276
 H71 H 0.72856 -0.32025 0.32577
 H72 H 0.84797 -0.24394 0.29739
 H73 H 0.89398 -0.29460 0.35109
 H74 H 0.77271 -0.37347 0.37905
 H75 H 0.76231 -0.14844 0.24113
 H76 H 0.81388 -0.10263 0.19032
 H77 H 0.88036 -0.22504 0.14409
 H78 H 0.82769 -0.26909 0.19729
 C79 C 0.67608 -0.33855 0.14468
 C80 C 0.64600 -0.15383 0.34078
 C81 C 0.85097 -0.16044 0.16373
 C82 C 0.83662 -0.33810 0.36899
 C83 C 0.68341 0.27675 -0.19578
 H84 H 0.67727 0.24069 -0.20009
 C85 C 0.65587 0.30211 -0.16493
 H86 H 0.62782 0.28581 -0.14621
 C87 C 0.72750 0.34207 -0.21471
 H88 H 0.75580 0.35725 -0.23393
 C89 C 0.70140 0.36858 -0.18281
 H90 H 0.70892 0.40441 -0.17844
 N91 N 0.71777 0.29706 -0.22083
 C92 C 0.73613 0.18897 -0.33293
 H93 H 0.77242 0.18289 -0.32970
 C94 C 0.70829 0.15951 -0.36174
 H95 H 0.72322 0.13106 -0.38074
 C96 C 0.67205 0.23227 -0.31069
 H97 H 0.65773 0.26057 -0.29107
 C98 C 0.64330 0.20405 -0.33910
 H99 H 0.60700 0.21059 -0.34067
 Zn100 Zn 0.75401 0.25757 -0.25886
 N101 N 0.71740 0.22340 -0.30635
 C102 C 0.77242 0.17213 -0.21426
 N103 N 0.78110 0.21749 -0.21180
 C104 C 0.80884 0.23528 -0.17531
 C105 C 0.83250 0.20668 -0.14241
 C106 C 0.79486 0.14250 -0.18185
 C107 C 0.78855 0.32029 -0.32940
 C108 C 0.82234 0.34059 -0.35834
 C109 C 0.87936 0.30073 -0.30959
 C110 C 0.84476 0.28064 -0.28240
 N111 N 0.80024 0.29019 -0.29288
 H112 H 0.74854 0.15863 -0.24158
 H113 H 0.81399 0.27164 -0.17314
 H114 H 0.85613 0.22098 -0.11507
 H115 H 0.78901 0.10626 -0.18516
 H116 H 0.75292 0.32694 -0.33751
 H117 H 0.81264 0.36218 -0.38937
 H118 H 0.91443 0.29084 -0.30244
 H119 H 0.85378 0.25566 -0.25470
 C120 C 0.66104 0.16658 -0.36383
 C121 C 0.66492 0.34829 -0.15793
 C122 C 0.86823 0.33012 -0.34868
 C123 C 0.82608 0.15963 -0.14656
 C124 C 1.17123 -0.22527 -0.17997
 H125 H 1.16656 -0.26172 -0.17884
 C126 C 1.14080 -0.19697 -0.15576
 H127 H 1.11275 -0.21165 -0.13561
 C128 C 1.21378 -0.16150 -0.20728
 H129 H 1.24281 -0.14772 -0.22626
 C130 C 1.18420 -0.13214 -0.18386
 H131 H 1.19019 -0.09584 -0.18534
 N132 N 1.20626 -0.20708 -0.20594
 C133 C 1.23402 -0.31623 -0.30855
 H134 H 1.27017 -0.32035 -0.30121
 C135 C 1.21107 -0.34555 -0.34121
 H136 H 1.22923 -0.37295 -0.35863
 C137 C 1.16582 -0.27581 -0.29448
 H138 H 1.14853 -0.24823 -0.27658
 C139 C 1.14173 -0.30379 -0.32786
 H140 H 1.10563 -0.29845 -0.33455
 Zn141 Zn 1.24488 -0.24609 -0.24074
 N142 N 1.21090 -0.28318 -0.28477
 C143 C 1.27258 -0.32721 -0.19096
 N144 N 1.27841 -0.28139 -0.19391
 C145 C 1.31037 -0.25950 -0.16518
 C146 C 1.34128 -0.28423 -0.13599
 C147 C 1.30208 -0.35317 -0.16121
 C148 C 1.26610 -0.18189 -0.31341
 C149 C 1.29407 -0.15405 -0.34186
 C150 C 1.35977 -0.19138 -0.30518
 C151 C 1.33067 -0.21821 -0.27721
 N152 N 1.28479 -0.21204 -0.28058
 H153 H 1.24591 -0.34386 -0.21264
 H154 H 1.31361 -0.22294 -0.16738
 H155 H 1.36839 -0.26680 -0.11555
 H156 H 1.29833 -0.38976 -0.16074
 H157 H 1.22941 -0.17870 -0.31644
 H158 H 1.27892 -0.12934 -0.36691
 H159 H 1.39632 -0.19589 -0.30177
 H160 H 1.34489 -0.24396 -0.25308
 C161 C 1.16455 -0.33951 -0.35084
 C162 C 1.14722 -0.14979 -0.15826
 C163 C 1.34152 -0.15847 -0.33705
 C164 C 1.33780 -0.33154 -0.13470
 C165 C 0.26558 0.17279 0.69776
 H166 H 0.22887 0.16969 0.69422
 C167 C 0.29341 0.14550 0.66880
 H168 H 0.27810 0.12094 0.64345
 C169 C 0.33042 0.21007 0.73325
 H170 H 0.34490 0.23636 0.75672
 C171 C 0.35933 0.18359 0.70514
 H172 H 0.39588 0.18888 0.70805
 N173 N 0.28445 0.20393 0.72967
 C174 C 0.17933 0.23867 0.83361
 H175 H 0.18624 0.27479 0.83372
 C176 C 0.14434 0.22122 0.86199
 H177 H 0.12414 0.24406 0.88397
 C178 C 0.19593 0.16519 0.80310
 H179 H 0.21609 0.14363 0.77986
 C180 C 0.16036 0.14622 0.83064
 H181 H 0.15280 0.11023 0.82813
 Zn182 Zn 0.24562 0.24303 0.76477
 N183 N 0.20376 0.21091 0.80422
 C184 C 0.16741 0.27089 0.70873
 N185 N 0.21309 0.27712 0.71635
 C186 C 0.23706 0.30731 0.68876
 C187 C 0.21455 0.33500 0.65421
 C188 C 0.14374 0.29707 0.67343
 C189 C 0.30988 0.26327 0.84101
 C190 C 0.33887 0.29043 0.87044
 C191 C 0.30231 0.35692 0.83607
 C192 C 0.27476 0.32848 0.80620
 N193 N 0.28001 0.28255 0.80799
 H194 H 0.14921 0.24594 0.73028
 H195 H 0.27350 0.31088 0.69486
 H196 H 0.23347 0.36051 0.63408
 H197 H 0.10719 0.29290 0.66867
 H198 H 0.31257 0.22669 0.84283
 H199 H 0.36427 0.27479 0.89460
 H200 H 0.29897 0.39340 0.83303
 H201 H 0.24960 0.34326 0.78127
 C202 C 0.13406 0.17488 0.85984
 C203 C 0.34091 0.15110 0.67257
 C204 C 0.33559 0.33769 0.86765
 C205 C 0.16748 0.33013 0.64656
 C206 C 0.79054 0.66107 0.71463
 H207 H 0.76939 0.64846 0.74394
 C208 C 0.81957 0.63114 0.69100
 H209 H 0.81966 0.59560 0.70135
 C210 C 0.81829 0.72249 0.66683
 H211 H 0.81823 0.75823 0.65804
 C212 C 0.84822 0.69358 0.64238
 H213 H 0.87052 0.70720 0.61442
 N214 N 0.78969 0.70579 0.70181
 C215 C 0.68483 0.67538 0.75742
 H216 H 0.68482 0.67002 0.71762
 C217 C 0.66165 0.64478 0.78791
 H218 H 0.64466 0.61544 0.77150
 C219 C 0.71102 0.71722 0.82777
 H220 H 0.73117 0.74478 0.84343
 C221 C 0.68798 0.68773 0.85945
 H222 H 0.69161 0.69218 0.89934
 Zn223 Zn 0.75017 0.74509 0.73703
 N224 N 0.71058 0.70962 0.77785
 C225 C 0.66863 0.77787 0.69400
 N226 N 0.71475 0.78247 0.69281
 C227 C 0.73443 0.81557 0.66464
 C228 C 0.70728 0.84606 0.63703
 C229 C 0.64059 0.80717 0.66696
 C230 C 0.82372 0.76555 0.80349
 C231 C 0.85078 0.79346 0.83453
 C232 C 0.80075 0.85591 0.81420
 C233 C 0.77465 0.82701 0.78395
 N234 N 0.78671 0.78286 0.77870
 H235 H 0.65322 0.75239 0.71712
 H236 H 0.77105 0.81981 0.66536
 H237 H 0.72308 0.87291 0.61580
 H238 H 0.60389 0.80355 0.66897
 H239 H 0.83224 0.73014 0.79901
 H240 H 0.88035 0.77964 0.85380
 H241 H 0.79113 0.89116 0.81786
 H242 H 0.74457 0.83981 0.76493
 C243 C 0.66440 0.65016 0.83961
 C244 C 0.84869 0.64723 0.65452
 C245 C 0.83915 0.83928 0.83965
 C246 C 0.65971 0.84193 0.63876
 C247 C 0.77175 0.16152 0.21465
 H248 H 0.74391 0.14762 0.23550
 C249 C 0.79831 0.13271 0.18666
 H250 H 0.79151 0.09652 0.18663
 C251 C 0.81427 0.22546 0.18748
 H252 H 0.81998 0.26179 0.18819
 C253 C 0.84166 0.19781 0.15887
 H254 H 0.86875 0.21277 0.13746
 N255 N 0.78089 0.20681 0.21545
 C256 C 0.65832 0.22203 0.28581
 H257 H 0.64633 0.24933 0.26229
 C258 C 0.62680 0.19495 0.31038
 H259 H 0.59063 0.20119 0.30542
 C260 C 0.71965 0.18107 0.32265
 H261 H 0.75601 0.17589 0.32698
 C262 C 0.68924 0.15299 0.34770
 H263 H 0.70229 0.12641 0.37176
 Zn264 Zn 0.74692 0.24640 0.25382
 N265 N 0.70375 0.21377 0.29114
 C266 C 0.68703 0.26689 0.17663
 N267 N 0.71803 0.28623 0.20854
 C268 C 0.72812 0.33140 0.20640
 C269 C 0.70421 0.35949 0.17320
 C270 C 0.66174 0.29376 0.14385
 C271 C 0.83059 0.26673 0.30348
 C272 C 0.85987 0.29301 0.33345
 C273 C 0.79590 0.34041 0.35365
 C274 C 0.76775 0.31288 0.32402
 N275 N 0.78580 0.27801 0.29817
 H276 H 0.68078 0.23067 0.17809
 H277 H 0.75426 0.34581 0.23065
 H278 H 0.71106 0.39566 0.17297
 H279 H 0.63531 0.27851 0.12043
 H280 H 0.84387 0.23789 0.28386
 H281 H 0.89578 0.28487 0.33610
 H282 H 0.78187 0.36955 0.37229
 H283 H 0.73181 0.32039 0.31981
 C284 C 0.64219 0.15957 0.34082
 C285 C 0.83379 0.15084 0.15902
 C286 C 0.84243 0.33094 0.35774
 C287 C 0.66987 0.34048 0.14251
 C288 C 0.27427 0.68251 0.17501
 H289 H 0.23769 0.67927 0.16989
 C290 C 0.30334 0.65522 0.14729
 H291 H 0.28903 0.63092 0.12098
 C292 C 0.33757 0.71844 0.21518
 H293 H 0.35096 0.74344 0.24109
 C294 C 0.36768 0.69203 0.18823
 H295 H 0.40412 0.69653 0.19387
 N296 N 0.29173 0.71301 0.20864
 C297 C 0.18183 0.73365 0.31606
 H298 H 0.17796 0.77014 0.31522
 C299 C 0.15389 0.70711 0.34656
 H300 H 0.12835 0.72309 0.36898
 C301 C 0.21975 0.66806 0.28785
 H302 H 0.24570 0.65279 0.26561
 C303 C 0.19279 0.64055 0.31760
 H304 H 0.19772 0.60415 0.31757
 Zn305 Zn 0.25095 0.74994 0.24516
 N306 N 0.21351 0.71370 0.28689
 C307 C 0.16803 0.77661 0.19603
 N308 N 0.21420 0.78205 0.19815
 C309 C 0.23563 0.81146 0.16724
 C310 C 0.21025 0.83992 0.13591
 C311 C 0.14139 0.80356 0.16409
 C312 C 0.30967 0.77470 0.32574
 C313 C 0.33018 0.80398 0.36085
 C314 C 0.29886 0.86755 0.31534
 C315 C 0.27863 0.83722 0.28147
 N316 N 0.28392 0.79161 0.28731
 H317 H 0.15167 0.75216 0.21982
 H318 H 0.27243 0.81440 0.16884
 H319 H 0.22743 0.86508 0.11354
 H320 H 0.10460 0.80023 0.16408
 H321 H 0.31270 0.73834 0.33026
 H322 H 0.34840 0.79004 0.39277
 H323 H 0.29234 0.90358 0.31159
 H324 H 0.25689 0.85038 0.25212
 C325 C 0.15936 0.65988 0.34699
 C326 C 0.35072 0.65997 0.15408
 C327 C 0.32417 0.85091 0.35596
 C328 C 0.16269 0.83650 0.13470
 O329 O 1.08276 -0.05994 0.08143
 O330 O 1.03825 -0.11135 0.03809
 C331 C 1.07111 -0.10113 0.06925
 O332 O 0.91057 0.05745 0.09161
 O333 O 0.94990 0.11215 0.04916
 C334 C 0.91968 0.09941 0.08077
 O335 O 0.92134 -0.06711 0.09351
 O336 O 0.96021 -0.11541 0.04318
 C337 C 0.93225 -0.10736 0.07909
 O338 O 1.08225 0.06635 0.07862
 O339 O 1.03059 0.11595 0.04409
 C340 C 1.06713 0.10698 0.07032
 Zr341 Zr 1.05388 0.00276 0.05955
 O342 O 1.05459 0.00588 0.13826
 O343 O 1.12594 0.00260 0.06182
 Zr344 Zr 0.94036 -0.00316 0.06776
 O345 O 0.95200 0.00049 0.14571
 O346 O 0.86989 -0.01073 0.08054
 O347 O 0.99964 -0.04154 0.07184
 O348 O 0.99609 0.03960 0.07456
 O349 O 1.06411 0.07379 -0.08912
 O350 O 1.02106 0.11847 -0.03879
 C351 C 1.04966 0.11308 -0.07399
 O352 O 0.90857 -0.06274 -0.08661
 O353 O 0.95512 -0.11296 -0.04516
 C354 C 0.92256 -0.10349 -0.07697
 O355 O 0.89944 0.06221 -0.07713
 O356 O 0.94361 0.11415 -0.03426
 C357 C 0.91019 0.10346 -0.06457
 O358 O 1.06751 -0.05465 -0.09544
 O359 O 1.03133 -0.10919 -0.04907
 C360 C 1.05916 -0.09664 -0.08339
 Zr361 Zr 1.04413 0.00715 -0.06551
 O362 O 1.03689 0.01353 -0.14371
 O363 O 1.11606 0.00751 -0.07097
 Zr364 Zr 0.92987 0.00016 -0.05732
 O365 O 0.92356 0.00733 -0.13550
 O366 O 0.85834 -0.00871 -0.05254
 Zr367 Zr 0.99477 -0.06657 -0.00159
 Zr368 Zr 0.98847 0.06940 0.00390
 O369 O 0.98424 0.04323 -0.06890
 O370 O 0.98816 -0.03676 -0.07281
 O371 O 1.05597 0.04582 -0.00199
 O372 O 0.92819 -0.04137 0.00424
 O373 O 1.05903 -0.03409 -0.00517
 O374 O 0.92377 0.03813 0.00732
 H375 H 0.99751 0.06015 0.10373
 H376 H 0.90204 -0.06285 0.00492
 H377 H 0.98075 0.06413 -0.09759
 H378 H 1.08703 -0.05250 -0.00761
 H379 H 0.85407 -0.00594 0.04820
 H380 H 0.84657 0.01626 -0.03197
 H381 H 0.94339 -0.01561 -0.15066
 H382 H 1.02123 -0.01416 -0.15631
 H383 H 1.12795 0.03406 -0.05208
 H384 H 1.13578 0.00956 0.02776
 H385 H 1.04648 -0.02464 0.15085
 H386 H 0.96625 -0.02830 0.15660
 O387 O 1.09399 0.43177 0.58269
 O388 O 1.05174 0.38097 0.53588
 C389 C 1.08269 0.39078 0.56955
 O390 O 0.92473 0.54998 0.58727
 O391 O 0.96437 0.60439 0.54451
 C392 C 0.93370 0.59196 0.57594
 O393 O 0.93335 0.42222 0.58530
 O394 O 0.97563 0.37730 0.53442
 C395 C 0.94647 0.38280 0.56910
 O396 O 1.09304 0.55796 0.58322
 O397 O 1.04515 0.60839 0.54388
 C398 C 1.07898 0.59877 0.57377
 Zr399 Zr 1.06789 0.49457 0.55826
 O400 O 1.06987 0.49658 0.63698
 O401 O 1.14004 0.49346 0.55703
 Zr402 Zr 0.95358 0.48886 0.56181
 O403 O 0.96111 0.49080 0.64030
 O404 O 0.88218 0.48065 0.56796
 O405 O 1.01271 0.45059 0.56773
 O406 O 1.00960 0.53128 0.57093
 O407 O 1.08757 0.56294 0.41368
 O408 O 1.04467 0.61123 0.46007
 C409 C 1.07602 0.60325 0.42759
 O410 O 0.92513 0.43172 0.40809
 O411 O 0.97102 0.38087 0.44971
 C412 C 0.93813 0.39077 0.41862
 O413 O 0.91707 0.55745 0.41897
 O414 O 0.96320 0.60827 0.46112
 C415 C 0.92894 0.59845 0.43169
 O416 O 1.08709 0.43820 0.40331
 O417 O 1.04925 0.38394 0.44793
 C418 C 1.07811 0.39629 0.41458
 Zr419 Zr 1.06191 0.49902 0.43289
 O420 O 1.04971 0.50303 0.35530
 O421 O 1.13316 0.50124 0.42250
 Zr422 Zr 0.94818 0.49470 0.43612
 O423 O 0.94866 0.50262 0.35785
 O424 O 0.87636 0.48745 0.43267
 Zr425 Zr 1.01050 0.42643 0.49389
 Zr426 Zr 1.00566 0.56252 0.50049
 O427 O 1.00349 0.53742 0.42731
 O428 O 1.00598 0.45619 0.42270
 O429 O 1.07269 0.53747 0.49721
 O430 O 0.94380 0.45237 0.49713
 O431 O 1.07503 0.45783 0.49364
 O432 O 0.94041 0.53163 0.50124
 H433 H 1.00993 0.55087 0.60088
 H434 H 0.91705 0.43162 0.49709
 H435 H 1.00172 0.55949 0.39951
 H436 H 1.10267 0.43877 0.49250
 H437 H 0.86762 0.50186 0.54407
 H438 H 0.86423 0.50443 0.46109
 H439 H 0.96413 0.47589 0.34390
 H440 H 1.08011 0.50565 0.34017
 H441 H 1.14784 0.49399 0.45491
 H442 H 1.15000 0.51861 0.53528
 H443 H 1.05317 0.46957 0.64902
 H444 H 0.97421 0.46149 0.65123
 O445 O 0.56098 0.08445 0.58358
 O446 O 0.60786 0.04269 0.53446
 C447 C 0.60091 0.07405 0.56762
 O448 O 0.43566 -0.08278 0.59183
 O449 O 0.38023 -0.03960 0.55376
 C450 C 0.39338 -0.07190 0.58343
 O451 O 0.56167 -0.07846 0.58421
 O452 O 0.60824 -0.03684 0.53385
 C453 C 0.60146 -0.06766 0.56772
 O454 O 0.43512 0.08452 0.59233
 O455 O 0.38007 0.03966 0.55485
 C456 C 0.39296 0.07194 0.58492
 Zr457 Zr 0.49615 0.05812 0.56452
 O458 O 0.50019 0.05169 0.64299
 O459 O 0.49813 0.12947 0.57248
 Zr460 Zr 0.49654 -0.05550 0.56366
 O461 O 0.49981 -0.05377 0.64239
 O462 O 0.50105 -0.12720 0.56499
 O463 O 0.53849 0.00179 0.56981
 O464 O 0.45757 0.00081 0.57744
 O465 O 0.41651 0.08493 0.42177
 O466 O 0.37252 0.04111 0.47264
 C467 C 0.37749 0.07298 0.44001
 O468 O 0.54448 -0.07941 0.40712
 O469 O 0.59931 -0.03598 0.44716
 C470 C 0.58674 -0.06750 0.41586
 O471 O 0.41733 -0.08427 0.42360
 O472 O 0.37283 -0.04019 0.47297
 C473 C 0.37815 -0.07273 0.44145
 O474 O 0.54365 0.08280 0.40696
 O475 O 0.59918 0.04132 0.44755
 C476 C 0.58598 0.07205 0.41595
 Zr477 Zr 0.48268 0.05885 0.43901
 O478 O 0.47016 0.05585 0.36122
 O479 O 0.48615 0.13063 0.43650
 Zr480 Zr 0.48318 -0.05510 0.43822
 O481 O 0.47075 -0.04774 0.36074
 O482 O 0.48384 -0.12637 0.42934
 Zr483 Zr 0.55804 0.00242 0.49488
 Zr484 Zr 0.42217 0.00092 0.50871
 O485 O 0.44199 0.00136 0.43403
 O486 O 0.52314 0.00238 0.42512
 O487 O 0.44933 0.06730 0.50602
 O488 O 0.52912 -0.06328 0.49708
 O489 O 0.52857 0.06742 0.49781
 O490 O 0.44992 -0.06483 0.50512
 H491 H 0.43966 0.00037 0.60825
 H492 H 0.54898 -0.09025 0.49545
 H493 H 0.41777 0.00102 0.40774
 H494 H 0.54811 0.09490 0.49580
 H495 H 0.47574 -0.13934 0.54384
 H496 H 0.49261 -0.13934 0.46200
 H497 H 0.49993 -0.03921 0.34534
 H498 H 0.49690 0.04152 0.34606
 H499 H 0.46468 0.14233 0.46121
 H500 H 0.49601 0.14232 0.53860
 H501 H 0.53156 0.04231 0.65232
 H502 H 0.52807 -0.03730 0.65244
 O503 O 0.57513 0.58390 0.08626
 O504 O 0.62471 0.53956 0.04317
 C505 C 0.61589 0.57112 0.07529
 O506 O 0.44554 0.42062 0.08388
 O507 O 0.39385 0.46351 0.03955
 C508 C 0.40422 0.43151 0.07119
 O509 O 0.57123 0.42206 0.08770
 O510 O 0.62266 0.46297 0.04248
 C511 C 0.61247 0.43270 0.07555
 O512 O 0.44902 0.58936 0.08297
 O513 O 0.39585 0.54526 0.04143
 C514 C 0.40721 0.57780 0.07206
 Zr515 Zr 0.51081 0.56046 0.06080
 O516 O 0.50795 0.55494 0.13926
 O517 O 0.51306 0.63198 0.06774
 Zr518 Zr 0.50825 0.44663 0.06081
 O519 O 0.50516 0.44901 0.13938
 O520 O 0.51060 0.37481 0.06239
 O521 O 0.55079 0.50290 0.07100
 O522 O 0.46951 0.50415 0.06998
 O523 O 0.44518 0.58905 -0.08610
 O524 O 0.39402 0.54449 -0.04437
 C525 C 0.40392 0.57736 -0.07439
 O526 O 0.56768 0.42248 -0.09156
 O527 O 0.62090 0.46342 -0.04618
 C528 C 0.60946 0.43358 -0.07994
 O529 O 0.44159 0.41814 -0.08376
 O530 O 0.39218 0.46566 -0.04475
 C531 C 0.40080 0.43144 -0.07342
 O532 O 0.57362 0.58123 -0.09327
 O533 O 0.62260 0.53877 -0.04482
 C534 C 0.61437 0.56771 -0.07991
 Zr535 Zr 0.50893 0.56068 -0.06466
 O536 O 0.50230 0.55903 -0.14317
 O537 O 0.51575 0.63226 -0.06595
 Zr538 Zr 0.50569 0.44675 -0.06432
 O539 O 0.50169 0.45490 -0.14235
 O540 O 0.50567 0.37537 -0.07292
 Zr541 Zr 0.57692 0.50221 -0.00134
 Zr542 Zr 0.43961 0.50465 -0.00174
 O543 O 0.46683 0.50432 -0.07361
 O544 O 0.54809 0.50276 -0.07390
 O545 O 0.46937 0.57024 -0.00201
 O546 O 0.54652 0.43739 -0.00174
 O547 O 0.54990 0.56822 -0.00185
 O548 O 0.46618 0.43832 -0.00172
 H549 H 0.44919 0.50433 0.09893
 H550 H 0.56621 0.41022 -0.00185
 H551 H 0.44537 0.50444 -0.10261
 H552 H 0.57120 0.59445 -0.00255
 H553 H 0.48713 0.36338 0.03842
 H554 H 0.51366 0.36224 -0.04012
 H555 H 0.49907 0.42388 -0.15638
 H556 H 0.52629 0.53872 -0.15549
 H557 H 0.49364 0.64460 -0.04230
 H558 H 0.52474 0.64434 0.03631
 H559 H 0.53786 0.54391 0.15181
 H560 H 0.53318 0.46441 0.15204
 N561 N 1.13440 0.13709 0.10362
 N562 N 1.09270 0.14363 0.09184
 N563 N 1.14075 0.62778 0.61922
 N564 N 1.10186 0.63504 0.59909
 N565 N 0.62924 0.13602 0.61203
 N566 N 0.63865 0.10055 0.58708
 N567 N 0.64521 0.63484 0.11478
 N568 N 0.65270 0.59461 0.09988
 N569 N 0.87921 -0.13196 0.13431
 N570 N 0.90964 -0.14392 0.10391
 N571 N 0.89808 0.33871 0.61993
 N572 N 0.92817 0.34175 0.58890
 N573 N 0.37222 -0.13030 0.63623
 N574 N 0.35953 -0.09766 0.60836
 N575 N 0.38068 0.37452 0.12413
 N576 N 0.36867 0.40578 0.09385
 N577 N 0.85252 0.12799 -0.11818
 N578 N 0.88447 0.13896 -0.08761
 N579 N 0.86275 0.62783 0.39430
 N580 N 0.90307 0.63499 0.41109
 N581 N 0.33304 0.12191 0.38887
 N582 N 0.33666 0.09580 0.42458
 N583 N 0.37275 0.64314 -0.10957
 N584 N 0.36700 0.60212 -0.09619
 N585 N 1.11797 -0.11874 -0.13406
 N586 N 1.08464 -0.13084 -0.10755
 N587 N 1.13625 0.37429 0.36290
 N588 N 1.10338 0.36203 0.39006
 N589 N 0.61221 -0.12645 0.36423
 N590 N 0.62190 -0.09224 0.39160
 N591 N 0.63436 0.37376 -0.12826
 N592 N 0.64459 0.41072 -0.10596
 N593 N 1.09864 0.16122 -0.11947
 N594 N 1.06227 0.15378 -0.09897
 N595 N 1.13150 0.62962 0.37512
 N596 N 1.09996 0.64023 0.40481
 N597 N 0.60934 0.13161 0.36490
 N598 N 0.62033 0.09742 0.39131
 N599 N 0.65619 0.61702 -0.13253
 N600 N 0.65384 0.58377 -0.10492
 N601 N 0.86554 -0.12947 -0.13080
 N602 N 0.89979 -0.13965 -0.10316
 N603 N 0.87138 0.36264 0.38329
 N604 N 0.91253 0.35471 0.39621
 N605 N 0.33324 -0.12307 0.39185
 N606 N 0.33756 -0.09720 0.42763
 N607 N 0.36923 0.36493 -0.10673
 N608 N 0.36340 0.40633 -0.09495
 N609 N 1.13689 -0.13037 0.10749
 N610 N 1.09616 -0.13734 0.09185
 N611 N 1.14409 0.36238 0.61581
 N612 N 1.10559 0.35453 0.59464
 N613 N 0.62893 -0.12739 0.61447
 N614 N 0.63908 -0.09339 0.58738
 N615 N 0.63924 0.36794 0.11403
 N616 N 0.64830 0.40799 0.09940
 N617 N 0.86152 0.12042 0.13227
 N618 N 0.89401 0.13324 0.10497
 N619 N 0.87753 0.61541 0.63043
 N620 N 0.90750 0.62650 0.59903
 N621 N 0.37156 0.12542 0.64334
 N622 N 0.35899 0.09515 0.61211
 N623 N 0.38270 0.63322 0.12736
 N624 N 0.37181 0.60232 0.09601
   
