data_POSCAR
  _audit_creation_date              2014-09-24
  _audit_creation_method            'ToBaCCo'
  _symmetry_space_group_name_H-M    'P1'
  _symmetry_Int_Tables_number       1
  _symmetry_cell_setting            triclinic
  loop_
  _symmetry_equiv_pos_as_xyz
 x,y,z
_cell_length_a 39.7939
_cell_length_b 39.7942
_cell_length_c 39.7306
_cell_angle_alpha 89.981500
_cell_angle_beta 90.018500
_cell_angle_gamma 89.813000
loop_
  _atom_site_label
  _atom_site_type_symbol
  _atom_site_fract_x
  _atom_site_fract_y
  _atom_site_fract_z
C1 C 0.19572 0.15346 0.19476
 C2 C 0.18109 0.13989 0.22386
 C3 C 0.15222 0.15464 0.23778
 C4 C 0.13785 0.18314 0.22275
 C5 C 0.15216 0.19702 0.19365
 C6 C 0.18122 0.18215 0.17955
 C7 C 0.22445 0.13873 0.18047
 C8 C 0.23870 0.15233 0.15123
 C9 C 0.22438 0.18083 0.13615
 C10 C 0.19566 0.19586 0.15011
 C11 C 0.18098 0.22422 0.13505
 C12 C 0.15215 0.23888 0.14905
 C13 C 0.13782 0.22538 0.17825
 H14 H 0.19205 0.11778 0.23556
 H15 H 0.11546 0.19440 0.23359
 H16 H 0.23561 0.11662 0.19199
 H17 H 0.23548 0.19120 0.11348
 H18 H 0.19184 0.23483 0.11239
 H19 H 0.11545 0.23688 0.18885
 C20 C -0.19313 0.84917 0.19878
 C21 C -0.17781 0.86351 0.22713
 C22 C -0.14855 0.84919 0.24069
 C23 C -0.13446 0.82036 0.22604
 C24 C -0.14946 0.80572 0.19768
 C25 C -0.17893 0.82015 0.18394
 C26 C -0.22227 0.86346 0.18484
 C27 C -0.23722 0.84910 0.15633
 C28 C -0.22319 0.82026 0.14163
 C29 C -0.19407 0.80566 0.15525
 C30 C -0.17968 0.77698 0.14056
 C31 C -0.15043 0.76276 0.15419
 C32 C -0.13541 0.77703 0.18267
 H33 H -0.18856 0.88586 0.23855
 H34 H -0.11177 0.80943 0.23661
 H35 H -0.23319 0.88583 0.19606
 H36 H -0.23483 0.80930 0.11952
 H37 H -0.19107 0.76578 0.11846
 H38 H -0.11273 0.76588 0.19298
 C39 C -0.19890 0.14986 -0.19498
 C40 C -0.18387 0.13580 -0.22367
 C41 C -0.15546 0.15079 -0.23800
 C42 C -0.14192 0.18000 -0.22385
 C43 C -0.15662 0.19440 -0.19517
 C44 C -0.18524 0.17929 -0.18062
 C45 C -0.22718 0.13489 -0.18025
 C46 C -0.24182 0.14899 -0.15141
 C47 C -0.22834 0.17823 -0.13717
 C48 C -0.20007 0.19351 -0.15158
 C49 C -0.18619 0.22260 -0.13736
 C50 C -0.15778 0.23748 -0.15180
 C51 C -0.14308 0.22347 -0.18062
 H52 H -0.19411 0.11313 -0.23477
 H53 H -0.11987 0.19136 -0.23509
 H54 H -0.23768 0.11222 -0.19112
 H55 H -0.23974 0.18898 -0.11480
 H56 H -0.19732 0.23359 -0.11499
 H57 H -0.12103 0.23513 -0.19155
 C58 C 0.19717 0.84765 -0.19562
 C59 C 0.18344 0.86309 -0.22427
 C60 C 0.15462 0.84983 -0.23954
 C61 C 0.13940 0.82097 -0.22633
 C62 C 0.15281 0.80524 -0.19769
 C63 C 0.18182 0.81860 -0.18222
 C64 C 0.22582 0.86088 -0.17995
 C65 C 0.23915 0.84544 -0.15118
 C66 C 0.22402 0.81661 -0.13789
 C67 C 0.19535 0.80304 -0.15323
 C68 C 0.17981 0.77435 -0.13997
 C69 C 0.15102 0.76119 -0.15531
 C70 C 0.13759 0.77653 -0.18409
 H71 H 0.19506 0.88548 -0.23457
 H72 H 0.11704 0.81087 -0.23821
 H73 H 0.23768 0.88325 -0.18999
 H74 H 0.23448 0.80489 -0.11555
 H75 H 0.18996 0.76234 -0.11764
 H76 H 0.11523 0.76619 -0.19573
 C77 C 0.15336 1.19582 0.80535
 C78 C 0.13978 1.18119 0.77625
 C79 C 0.15453 1.15232 0.76233
 C80 C 0.18304 1.13795 0.77736
 C81 C 0.19692 1.15227 0.80646
 C82 C 0.18204 1.18132 0.82056
 C83 C 0.13862 1.22455 0.81964
 C84 C 0.15223 1.23880 0.84888
 C85 C 0.18072 1.22448 0.86397
 C86 C 0.19575 1.19576 0.85000
 C87 C 0.22412 1.18108 0.86506
 C88 C 0.23877 1.15225 0.85106
 C89 C 0.22527 1.13792 0.82186
 H90 H 0.11767 1.19216 0.76455
 H91 H 0.19429 1.11556 0.76652
 H92 H 0.11651 1.23571 0.80812
 H93 H 0.19110 1.23558 0.88663
 H94 H 0.23472 1.19194 0.88772
 H95 H 0.23677 1.11555 0.81126
 C96 C 0.84907 0.80697 0.80133
 C97 C 0.86340 0.82229 0.77298
 C98 C 0.84908 0.85155 0.75942
 C99 C 0.82026 0.86564 0.77407
 C100 C 0.80561 0.85064 0.80243
 C101 C 0.82005 0.82117 0.81617
 C102 C 0.86336 0.77784 0.81527
 C103 C 0.84900 0.76288 0.84378
 C104 C 0.82016 0.77691 0.85848
 C105 C 0.80556 0.80603 0.84486
 C106 C 0.77687 0.82043 0.85955
 C107 C 0.76266 0.84967 0.84592
 C108 C 0.77693 0.86469 0.81744
 H109 H 0.88576 0.81154 0.76156
 H110 H 0.80933 0.88833 0.76350
 H111 H 0.88573 0.76691 0.80405
 H112 H 0.80920 0.76527 0.88059
 H113 H 0.76567 0.80903 0.88165
 H114 H 0.76577 0.88737 0.80713
 C115 C 0.14975 0.80120 1.19509
 C116 C 0.13569 0.81623 1.22378
 C117 C 0.15068 0.84464 1.23811
 C118 C 0.17989 0.85818 1.22396
 C119 C 0.19429 0.84348 1.19528
 C120 C 0.17919 0.81486 1.18073
 C121 C 0.13479 0.77292 1.18036
 C122 C 0.14889 0.75828 1.15153
 C123 C 0.17812 0.77176 1.13728
 C124 C 0.19340 0.80004 1.15170
 C125 C 0.22249 0.81391 1.13747
 C126 C 0.23737 0.84233 1.15191
 C127 C 0.22337 0.85702 1.18073
 H128 H 0.11303 0.80599 1.23488
 H129 H 0.19126 0.88024 1.23520
 H130 H 0.11211 0.76242 1.19123
 H131 H 0.18887 0.76036 1.11491
 H132 H 0.23348 0.80278 1.11510
 H133 H 0.23503 0.87907 1.19166
 C134 C 0.84755 1.19728 1.19573
 C135 C 0.86298 1.18355 1.22438
 C136 C 0.84973 1.15473 1.23965
 C137 C 0.82087 1.13950 1.22643
 C138 C 0.80513 1.15291 1.19780
 C139 C 0.81850 1.18192 1.18233
 C140 C 0.86077 1.22593 1.18006
 C141 C 0.84534 1.23926 1.15129
 C142 C 0.81650 1.22413 1.13800
 C143 C 0.80294 1.19546 1.15334
 C144 C 0.77425 1.17992 1.14007
 C145 C 0.76109 1.15112 1.15542
 C146 C 0.77643 1.13769 1.18420
 H147 H 0.88537 1.19517 1.23468
 H148 H 0.81077 1.11715 1.23832
 H149 H 0.88314 1.23779 1.19010
 H150 H 0.80479 1.23459 1.11566
 H151 H 0.76223 1.19006 1.11775
 H152 H 0.76609 1.11534 1.19583
 O153 O 0.45332 0.93555 0.94476
 O154 O 0.41619 0.96761 0.97537
 C155 C 0.42318 0.94441 0.95359
 O156 O 0.54767 0.93862 1.06508
 O157 O 0.58434 0.96932 1.03279
 C158 C 0.57769 0.94762 1.05613
 O159 O 0.45320 0.93506 1.06177
 O160 O 0.41613 0.96740 1.03133
 C161 C 0.42308 0.94397 1.05289
 O162 O 0.54774 0.93905 0.94179
 O163 O 0.58438 0.96951 0.97436
 C164 C 0.57774 0.94798 0.95086
 Zr165 Zr 0.50039 0.95459 0.96088
 O166 O 0.50458 0.90154 0.96108
 O167 O 0.49666 0.95473 0.90772
 Zr168 Zr 0.50032 0.95433 1.04604
 O169 O 0.50453 0.90128 1.04575
 O170 O 0.49646 0.95432 1.09918
 O171 O 0.47045 0.94778 1.00340
 O172 O 0.52959 0.94846 1.00347
 O173 O 0.54689 1.05575 0.94218
 O174 O 0.58397 1.02535 0.97453
 C175 C 0.57702 1.04701 0.95119
 O176 O 0.45233 1.05816 1.06212
 O177 O 0.41570 1.02573 1.03152
 C178 C 0.42233 1.04908 1.05321
 O179 O 0.54680 1.05546 1.06533
 O180 O 0.58391 1.02521 1.03292
 C181 C 0.57693 1.04679 1.05630
 O182 O 0.45243 1.05848 0.94520
 O183 O 0.41575 1.02590 0.97557
 C184 C 0.42242 1.04934 0.95398
 Zr185 Zr 0.49977 1.03964 0.96112
 O186 O 0.50319 1.09272 0.96146
 O187 O 0.49601 1.03966 0.90796
 Zr188 Zr 0.49970 1.03935 1.04629
 O189 O 0.50309 1.09243 1.04647
 O190 O 0.49586 1.03881 1.09944
 Zr191 Zr 0.45011 0.99679 1.00351
 Zr192 Zr 0.54998 0.99719 1.00362
 O193 O 0.52885 1.04574 1.00375
 O194 O 0.46975 1.04595 1.00369
 O195 O 0.53002 0.99726 0.95445
 O196 O 0.47082 0.99670 1.05226
 O197 O 0.47093 0.99702 0.95482
 O198 O 0.52997 0.99694 1.05277
 H199 H 0.54500 0.92886 1.00342
 H200 H 0.45553 0.99658 1.07194
 H201 H 0.54395 1.06549 1.00380
 H202 H 0.45571 0.99704 0.93508
 H203 H 0.51513 0.96806 1.10804
 H204 H 0.51499 1.02550 1.10820
 H205 H 0.48443 1.10119 1.03252
 H206 H 0.48425 1.10139 0.97506
 H207 H 0.51493 1.02611 0.89913
 H208 H 0.51516 0.96876 0.89897
 H209 H 0.48559 0.89265 0.97440
 H210 H 0.48587 0.89246 1.03192
 O211 O 0.05806 0.45243 -0.06201
 O212 O 0.02563 0.41581 -0.03141
 C213 C 0.04898 0.42243 -0.05309
 O214 O 0.05565 0.54699 0.05793
 O215 O 0.02525 0.58408 0.02558
 C216 C 0.04690 0.57712 0.04892
 O217 O 0.05838 0.45254 0.05491
 O218 O 0.02580 0.41586 0.02454
 C219 C 0.04924 0.42252 0.04613
 O220 O 0.05536 0.54690 -0.06522
 O221 O 0.02511 0.58402 -0.03281
 C222 C 0.04669 0.57704 -0.05619
 Zr223 Zr 0.03925 0.49981 -0.04618
 O224 O 0.09233 0.50319 -0.04635
 O225 O 0.03871 0.49597 -0.09933
 Zr226 Zr 0.03954 0.49987 0.03899
 O227 O 0.09262 0.50329 0.03865
 O228 O 0.03956 0.49612 0.09215
 O229 O 0.04584 0.46985 -0.00358
 O230 O 0.04564 0.52896 -0.00364
 O231 O -0.06148 0.54778 -0.06498
 O232 O -0.03078 0.58444 -0.03268
 C233 C -0.05248 0.57779 -0.05602
 O234 O -0.06456 0.45342 0.05535
 O235 O -0.03249 0.41629 0.02474
 C236 C -0.05569 0.42328 0.04652
 O237 O -0.06105 0.54785 0.05831
 O238 O -0.03059 0.58449 0.02575
 C239 C -0.05212 0.57785 0.04925
 O240 O -0.06504 0.45331 -0.06166
 O241 O -0.03270 0.41623 -0.03122
 C242 C -0.05613 0.42318 -0.05278
 Zr243 Zr -0.04577 0.50043 -0.04593
 O244 O -0.09882 0.50464 -0.04564
 O245 O -0.04578 0.49656 -0.09907
 Zr246 Zr -0.04551 0.50050 0.03923
 O247 O -0.09856 0.50469 0.03903
 O248 O -0.04537 0.49676 0.09239
 Zr249 Zr -0.00332 0.45022 -0.00340
 Zr250 Zr -0.00291 0.55008 -0.00351
 O251 O -0.05164 0.52969 -0.00336
 O252 O -0.05232 0.47056 -0.00329
 O253 O -0.00316 0.53007 -0.05266
 O254 O -0.00308 0.47103 0.04529
 O255 O -0.00340 0.47093 -0.05215
 O256 O -0.00284 0.53013 0.04566
 H257 H 0.06539 0.54405 -0.00369
 H258 H -0.00306 0.45582 0.06503
 H259 H -0.07125 0.54511 -0.00332
 H260 H -0.00352 0.45564 -0.07183
 H261 H 0.02601 0.51503 0.10098
 H262 H -0.03134 0.51527 0.10114
 H263 H -0.10745 0.48570 0.02571
 H264 H -0.10764 0.48598 -0.03181
 H265 H -0.03204 0.51524 -0.10793
 H266 H 0.02540 0.51509 -0.10809
 H267 H 0.10109 0.48453 -0.03241
 H268 H 0.10129 0.48435 0.02505
 O269 O 1.06468 -0.05533 0.54738
 O270 O 1.03232 -0.02479 0.58431
 C271 C 1.05566 -0.04649 0.57749
 O272 O 1.06145 0.06463 0.45274
 O273 O 1.03102 0.03233 0.41582
 C274 C 1.05262 0.05563 0.42262
 O275 O 1.06452 0.06155 0.54737
 O276 O 1.03223 0.03112 0.58429
 C277 C 1.05552 0.05273 0.57749
 O278 O 1.06146 -0.05847 0.45277
 O279 O 1.03103 -0.02600 0.41581
 C280 C 1.05259 -0.04948 0.42264
 Zr281 Zr 1.04573 -0.03933 0.50007
 O282 O 1.09880 -0.03903 0.49623
 O283 O 1.04591 -0.09240 0.50389
 Zr284 Zr 1.04558 0.04568 0.50005
 O285 O 1.09864 0.04542 0.49629
 O286 O 1.04531 0.09875 0.50382
 O287 O 1.05222 0.00316 0.53007
 O288 O 1.05177 0.00316 0.47083
 O289 O 0.94478 -0.05814 0.45277
 O290 O 0.97519 -0.02586 0.41582
 C291 C 0.95358 -0.04915 0.42265
 O292 O 0.94142 0.06157 0.54734
 O293 O 0.97389 0.03113 0.58430
 C294 C 0.95041 0.05269 0.57747
 O295 O 0.94456 0.06478 0.45273
 O296 O 0.97511 0.03242 0.41580
 C297 C 0.95340 0.05577 0.42261
 O298 O 0.94176 -0.05511 0.54734
 O299 O 0.97403 -0.02470 0.58429
 C300 C 0.95074 -0.04631 0.57746
 Zr301 Zr 0.96068 -0.03921 0.50005
 O302 O 0.90761 -0.03895 0.49626
 O303 O 0.96094 -0.09228 0.50384
 Zr304 Zr 0.96056 0.04583 0.50004
 O305 O 0.90749 0.04601 0.49622
 O306 O 0.96086 0.09890 0.50388
 Zr307 Zr 1.00313 0.00322 0.55007
 Zr308 Zr 1.00312 0.00323 0.45004
 O309 O 0.95448 0.00332 0.47084
 O310 O 0.95405 0.00331 0.53003
 O311 O 1.00321 -0.04584 0.47008
 O312 O 1.00305 0.05187 0.52928
 O313 O 1.00322 -0.04541 0.52927
 O314 O 1.00305 0.05232 0.47004
 H315 H 1.07143 0.00310 0.45554
 H316 H 1.00299 0.07153 0.54457
 H317 H 0.93478 0.00335 0.45559
 H318 H 1.00325 -0.06511 0.54452
 H319 H 1.03162 0.10754 0.48498
 H320 H 0.97417 0.10765 0.48479
 H321 H 0.89870 0.03195 0.51474
 H322 H 0.89880 -0.02539 0.51518
 H323 H 0.97450 -0.10109 0.48493
 H324 H 1.03185 -0.10119 0.48537
 H325 H 1.10755 -0.02572 0.51532
 H326 H 1.10744 0.03173 0.51513
 C327 C 1.13782 0.14095 0.26570
 C328 C 1.12495 0.12866 0.29024
 C329 C 1.10977 0.11400 0.31878
 C330 C 1.09673 0.10120 0.34295
 C331 C 1.08139 0.08581 0.37101
 C332 C 1.06826 0.07228 0.39473
 C333 C 0.86645 -0.13646 0.26794
 C334 C 0.87981 -0.12364 0.29193
 C335 C 0.89551 -0.10844 0.31988
 C336 C 0.90892 -0.09526 0.34363
 C337 C 0.92458 -0.07954 0.37131
 C338 C 0.93788 -0.06584 0.39483
 C339 C 0.86016 0.13587 0.73293
 C340 C 0.87345 0.12331 0.70873
 C341 C 0.88925 0.10852 0.68057
 C342 C 0.90294 0.09582 0.65667
 C343 C 0.91923 0.08088 0.62887
 C344 C 0.93334 0.06805 0.60529
 C345 C 1.14108 -0.13474 0.73297
 C346 C 1.12885 -0.12108 0.70879
 C347 C 1.11419 -0.10512 0.68064
 C348 C 1.10135 -0.09153 0.65674
 C349 C 1.08590 -0.07571 0.62893
 C350 C 1.07232 -0.06230 0.60534
 C351 C 0.26629 1.13759 1.13719
 C352 C 0.29057 1.12446 1.12460
 C353 C 0.31883 1.10894 1.10970
 C354 C 0.34281 1.09555 1.09686
 C355 C 0.37072 1.07964 1.08172
 C356 C 0.39439 1.06583 1.06873
 C357 C 0.26819 0.85958 0.86506
 C358 C 0.29235 0.87168 0.87870
 C359 C 0.32046 0.88619 0.89468
 C360 C 0.34430 0.89892 0.90830
 C361 C 0.37202 0.91426 0.92419
 C362 C 0.39550 0.92778 0.93767
 C363 C 0.73483 0.86345 1.14257
 C364 C 0.71026 0.87621 1.13016
 C365 C 0.68169 0.89121 1.11529
 C366 C 0.65749 0.90407 1.10228
 C367 C 0.62939 0.91918 1.08665
 C368 C 0.60563 0.93214 1.07294
 C369 C 0.73103 1.13402 0.86305
 C370 C 0.70713 1.12071 0.87600
 C371 C 0.67929 1.10507 0.89137
 C372 C 0.65565 1.09171 0.90471
 C373 C 0.62810 1.07608 0.92059
 C374 C 0.60469 1.06277 0.93441
 C375 C 0.13696 0.26767 0.13314
 C376 C 0.12408 0.29166 0.11977
 C377 C 0.10878 0.31961 0.10408
 C378 C 0.09552 0.34338 0.09069
 C379 C 0.07971 0.37109 0.07507
 C380 C 0.06596 0.39464 0.06180
 C381 C -0.14326 0.26692 -0.13668
 C382 C -0.13080 0.29140 -0.12396
 C383 C -0.11584 0.31984 -0.10902
 C384 C -0.10273 0.34392 -0.09621
 C385 C -0.08696 0.37185 -0.08115
 C386 C -0.07311 0.39545 -0.06823
 C387 C 0.13489 0.73212 -0.14114
 C388 C 0.12133 0.70793 -0.12902
 C389 C 0.10542 0.67980 -0.11449
 C390 C 0.09185 0.65595 -0.10175
 C391 C 0.07601 0.62821 -0.08639
 C392 C 0.06256 0.60472 -0.07286
 C393 C -0.13552 0.73366 0.13862
 C394 C -0.12292 0.70943 0.12544
 C395 C -0.10805 0.68122 0.10981
 C396 C -0.09529 0.65728 0.09628
 C397 C -0.08028 0.62941 0.08019
 C398 C -0.06743 0.60577 0.06621
 C399 C 1.14084 0.13792 0.73441
 C400 C 1.12856 0.12506 0.70987
 C401 C 1.11390 0.10988 0.68133
 C402 C 1.10109 0.09683 0.65716
 C403 C 1.08570 0.08150 0.62910
 C404 C 1.07217 0.06837 0.60538
 C405 C 0.86344 -0.13344 0.73217
 C406 C 0.87626 -0.12009 0.70818
 C407 C 0.89146 -0.10439 0.68023
 C408 C 0.90464 -0.09098 0.65648
 C409 C 0.92036 -0.07531 0.62880
 C410 C 0.93406 -0.06201 0.60528
 C411 C 1.13576 -0.13973 0.26719
 C412 C 1.12320 -0.12644 0.29138
 C413 C 1.10841 -0.11064 0.31954
 C414 C 1.09572 -0.09695 0.34344
 C415 C 1.08078 -0.08067 0.37124
 C416 C 1.06795 -0.06655 0.39482
 C417 C 0.86515 0.14119 0.26714
 C418 C 0.87881 0.12896 0.29132
 C419 C 0.89478 0.11430 0.31947
 C420 C 0.90836 0.10145 0.34337
 C421 C 0.92418 0.08600 0.37118
 C422 C 0.93759 0.07242 0.39477
 C423 C 0.13748 0.26639 -0.13708
 C424 C 0.12435 0.29067 -0.12449
 C425 C 0.10884 0.31893 -0.10959
 C426 C 0.09544 0.34291 -0.09675
 C427 C 0.07954 0.37082 -0.08161
 C428 C 0.06573 0.39449 -0.06862
 C429 C -0.14053 0.26830 0.13505
 C430 C -0.12843 0.29246 0.12141
 C431 C -0.11391 0.32057 0.10543
 C432 C -0.10118 0.34441 0.09181
 C433 C -0.08584 0.37212 0.07592
 C434 C -0.07233 0.39560 0.06243
 C435 C -0.13665 0.73494 -0.14246
 C436 C -0.12389 0.71036 -0.13004
 C437 C -0.10889 0.68179 -0.11518
 C438 C -0.09603 0.65759 -0.10217
 C439 C -0.08092 0.62949 -0.08654
 C440 C -0.06796 0.60573 -0.07283
 C441 C 0.13391 0.73113 0.13706
 C442 C 0.12060 0.70723 0.12412
 C443 C 0.10497 0.67939 0.10874
 C444 C 0.09161 0.65575 0.09540
 C445 C 0.07598 0.62820 0.07952
 C446 C 0.06267 0.60480 0.06570
 C447 C 0.26756 1.13706 0.86697
 C448 C 0.29155 1.12418 0.88034
 C449 C 0.31951 1.10889 0.89603
 C450 C 0.34328 1.09562 0.90942
 C451 C 0.37099 1.07981 0.92504
 C452 C 0.39454 1.06606 0.93831
 C453 C 0.26682 0.85684 1.13679
 C454 C 0.29129 0.86930 1.12407
 C455 C 0.31973 0.88426 1.10913
 C456 C 0.34381 0.89737 1.09632
 C457 C 0.37174 0.91314 1.08126
 C458 C 0.39534 0.92699 1.06834
 C459 C 0.73202 1.13499 1.14125
 C460 C 0.70783 1.12143 1.12913
 C461 C 0.67970 1.10552 1.11460
 C462 C 0.65584 1.09195 1.10186
 C463 C 0.62811 1.07611 1.08650
 C464 C 0.60462 1.06266 1.07297
 C465 C 0.73356 0.86458 0.86148
 C466 C 0.70933 0.87719 0.87467
 C467 C 0.68112 0.89205 0.89030
 C468 C 0.65718 0.90481 0.90383
 C469 C 0.62930 0.91982 0.91992
 C470 C 0.60566 0.93267 0.93390
   
