data_POSCAR
  _audit_creation_date              2014-09-24
  _audit_creation_method            'ToBaCCo'
  _symmetry_space_group_name_H-M    'P1'
  _symmetry_Int_Tables_number       1
  _symmetry_cell_setting            triclinic
  loop_
  _symmetry_equiv_pos_as_xyz
 x,y,z
_cell_length_a 44.1260
_cell_length_b 45.1791
_cell_length_c 43.4464
_cell_angle_alpha 89.706300
_cell_angle_beta 90.875400
_cell_angle_gamma 90.914800
loop_
  _atom_site_label
  _atom_site_type_symbol
  _atom_site_fract_x
  _atom_site_fract_y
  _atom_site_fract_z
C1 C 0.18865 0.18727 0.22098
 N2 N 0.17692 0.21077 0.20555
 C3 C 0.18749 0.21863 0.17742
 N4 N 0.21009 0.20294 0.16471
 C5 C 0.22204 0.17937 0.17995
 N6 N 0.21113 0.17157 0.20801
 C7 C -0.18196 0.78943 0.24598
 N8 N -0.20520 0.80419 0.23240
 C9 C -0.22112 0.79212 0.20847
 N10 N -0.21381 0.76480 0.19824
 C11 C -0.19047 0.74988 0.21159
 N12 N -0.17447 0.76237 0.23529
 C13 C -0.21254 0.22112 -0.25682
 N14 N -0.20520 0.24887 -0.24731
 C15 C -0.21884 0.26066 -0.22250
 N16 N -0.23979 0.24430 -0.20685
 C17 C -0.24701 0.21625 -0.21607
 N18 N -0.23327 0.20486 -0.24105
 C19 C 0.19705 0.80705 -0.22443
 N20 N 0.18351 0.78652 -0.20612
 C21 C 0.19915 0.77345 -0.18276
 N22 N 0.22848 0.78164 -0.17708
 C23 C 0.24207 0.80286 -0.19477
 N24 N 0.22634 0.81519 -0.21863
 C25 C 0.20852 1.19770 0.77692
 N26 N 0.23316 1.18698 0.79218
 C27 C 0.24198 1.19854 0.81976
 N28 N 0.22620 1.22105 0.83203
 C29 C 0.20169 1.23212 0.81689
 N30 N 0.19282 1.22022 0.78944
 C31 C 0.80084 0.79853 0.76369
 N32 N 0.80979 0.77057 0.77052
 C33 C 0.79498 0.75415 0.79207
 N34 N 0.77084 0.76579 0.80656
 C35 C 0.76140 0.79349 0.79948
 N36 N 0.77660 0.80985 0.77825
 C37 C 0.20143 0.79996 1.23190
 N38 N 0.18582 0.77713 1.21843
 C39 C 0.19859 0.76133 1.19559
 N40 N 0.22703 0.76837 1.18631
 C41 C 0.24277 0.79106 1.19961
 N42 N 0.22982 0.80694 1.22221
 C43 C 0.79548 1.21192 1.24215
 N44 N 0.77111 1.20000 1.22697
 C45 C 0.75660 1.21558 1.20456
 N46 N 0.76680 1.24310 1.19701
 C47 C 0.79108 1.25535 1.21211
 N48 N 0.80530 1.23971 1.23476
 O49 O 0.53647 0.97304 0.94588
 O50 O 0.48157 0.96166 1.06572
 O51 O 0.57350 0.98449 1.03661
 O52 O 0.47685 0.94939 0.97158
 O53 O 0.53772 0.96212 1.06145
 O54 O 0.48132 0.98304 0.93920
 O55 O 0.46807 0.94039 1.02354
 O56 O 0.55912 0.95945 0.98749
 C57 C 0.55292 0.95491 0.95995
 C58 C 0.46973 0.94016 1.05199
 C59 C 0.56519 0.96519 1.05562
 C60 C 0.47385 0.95711 0.94478
 O61 O 0.48908 1.03481 0.96492
 O62 O 0.53695 1.02122 1.06226
 O63 O 0.58588 1.00911 0.98068
 O64 O 0.44585 0.99523 1.03193
 O65 O 0.47916 1.01843 1.06213
 O66 O 0.54454 1.03029 0.96337
 O67 O 0.45092 1.00594 0.97725
 O68 O 0.55248 1.03458 1.01727
 Co69 Co 0.51271 1.00362 0.95838
 Co70 Co 0.50921 0.99096 1.05764
 Co71 Co 0.55322 0.99657 1.00187
 Co72 Co 0.46413 0.97415 1.00092
 O73 O 0.50824 0.99013 1.00718
 C74 C 0.46124 1.03090 0.96850
 C75 C 0.55005 1.03973 1.04527
 C76 C 0.57300 1.02678 0.96048
 C77 C 0.45241 1.01453 1.05226
 O78 O 0.03046 0.47045 0.04021
 O79 O 0.03146 0.52690 -0.04434
 O80 O -0.00201 0.43984 -0.04228
 O81 O -0.00054 0.56058 0.01951
 O82 O 0.03113 0.47368 -0.04864
 O83 O 0.03193 0.52730 0.03323
 O84 O -0.00126 0.56006 -0.03584
 O85 O 0.00411 0.43670 0.01435
 C86 C 0.02620 0.44419 0.03172
 C87 C 0.02536 0.55347 -0.04199
 C88 C 0.02438 0.44706 -0.04899
 C89 C 0.02534 0.55384 0.02976
 O90 O -0.02427 0.52794 0.05544
 O91 O -0.02715 0.47521 -0.07296
 O92 O -0.05318 0.45056 0.02090
 O93 O -0.05692 0.53273 -0.03557
 O94 O -0.02479 0.52852 -0.07120
 O95 O -0.02603 0.47325 0.05662
 O96 O -0.05706 0.53615 0.01977
 O97 O -0.05733 0.46077 -0.03668
 Co98 Co 0.00180 0.49997 0.04097
 Co99 Co 0.00141 0.50088 -0.05506
 Co100 Co -0.02580 0.45202 -0.01090
 Co101 Co -0.02756 0.54340 -0.00822
 O102 O -0.01236 0.49887 -0.00794
 C103 C -0.05046 0.53544 0.04752
 C104 C -0.05283 0.46568 -0.06446
 C105 C -0.04830 0.45711 0.04847
 C106 C -0.05110 0.53445 -0.06325
 O107 O 1.06499 0.03088 0.47812
 O108 O 0.94608 0.03404 0.53187
 O109 O 0.97661 0.01693 0.43884
 O110 O 1.03825 0.04946 0.54132
 O111 O 0.95283 0.03771 0.47551
 O112 O 1.07129 0.01798 0.53393
 O113 O 0.98655 0.05530 0.54937
 O114 O 1.02360 0.04355 0.45548
 C115 C 1.05069 0.04893 0.46158
 C116 C 0.95869 0.05495 0.54582
 C117 C 0.95815 0.03572 0.44756
 C118 C 1.06491 0.04285 0.54339
 O119 O 1.04802 -0.03452 0.52386
 O120 O 0.95212 -0.02168 0.47345
 O121 O 1.03218 -0.00408 0.42663
 O122 O 0.97912 -0.00168 0.56788
 O123 O 0.95026 -0.02247 0.53160
 O124 O 1.04997 -0.02678 0.46769
 O125 O 1.03393 -0.00896 0.56363
 O126 O 0.99702 -0.03327 0.45965
 Co127 Co 1.05347 -0.00161 0.50107
 Co128 Co 0.95549 0.00701 0.50284
 Co129 Co 1.01072 0.00553 0.45997
 Co130 Co 1.00968 0.02230 0.55160
 O131 O 1.00498 0.00930 0.50559
 C132 C 1.04414 -0.03250 0.55225
 C133 C 0.96951 -0.03947 0.46097
 C134 C 1.05252 -0.02154 0.43894
 C135 C 0.95905 -0.02058 0.55926
 C136 C 1.15394 0.16156 0.30439
 N137 N 1.14141 0.18417 0.28821
 N138 N 1.15298 0.19283 0.26141
 C139 C 1.17727 0.17895 0.24957
 N140 N 1.18983 0.15639 0.26586
 N141 N 1.17844 0.14792 0.29279
 C142 C 1.14016 0.15071 0.33298
 N143 N 1.15504 0.13120 0.35137
 N144 N 1.14165 0.11945 0.37594
 C145 C 1.11282 0.12662 0.38296
 N146 N 1.09803 0.14641 0.36477
 N147 N 1.11153 0.15837 0.34033
 C148 C 1.09682 0.11046 0.40743
 N149 N 1.06608 0.11063 0.40857
 N150 N 1.05127 0.09233 0.42746
 C151 C 1.06666 0.07343 0.44616
 N152 N 1.09742 0.07398 0.44573
 N153 N 1.11222 0.09211 0.42669
 C154 C 0.86524 -0.17173 0.31768
 N155 N 0.83964 -0.15943 0.30607
 N156 N 0.82450 -0.17202 0.28276
 C157 C 0.83413 -0.19767 0.27039
 N158 N 0.85967 -0.21017 0.28218
 N159 N 0.87509 -0.19731 0.30527
 C160 C 0.88177 -0.15702 0.34297
 N161 N 0.91191 -0.16117 0.34791
 N162 N 0.92695 -0.14580 0.36960
 C163 C 0.91222 -0.12609 0.38730
 N164 N 0.88205 -0.12243 0.38261
 N165 N 0.86715 -0.13747 0.36079
 C166 C 0.92839 -0.10696 0.40948
 N167 N 0.91216 -0.09019 0.42882
 N168 N 0.92578 -0.06981 0.44635
 C169 C 0.95619 -0.06529 0.44522
 N170 N 0.97269 -0.08250 0.42637
 N171 N 0.95901 -0.10307 0.40883
 C172 C 0.83435 0.18181 0.67174
 N173 N 0.80829 0.16937 0.68232
 N174 N 0.79308 0.18217 0.70476
 C175 C 0.80327 0.20799 0.71727
 N176 N 0.82912 0.22066 0.70642
 N177 N 0.84448 0.20772 0.68414
 C178 C 0.85212 0.16643 0.64869
 N179 N 0.84013 0.14257 0.63377
 N180 N 0.85684 0.12717 0.61449
 C181 C 0.88621 0.13492 0.60955
 N182 N 0.89817 0.15895 0.62425
 N183 N 0.88137 0.17451 0.64340
 C184 C 0.90511 0.11613 0.59053
 N185 N 0.93575 0.11961 0.59059
 N186 N 0.95297 0.10064 0.57557
 C187 C 0.94009 0.07765 0.55987
 N188 N 0.90946 0.07452 0.55941
 N189 N 0.89230 0.09336 0.57451
 C190 C 1.14843 -0.15440 0.70512
 N191 N 1.13455 -0.17262 0.72563
 N192 N 1.15043 -0.18538 0.74824
 C193 C 1.18070 -0.17999 0.75151
 N194 N 1.19454 -0.16163 0.73103
 N195 N 1.17872 -0.14923 0.70813
 C196 C 1.13083 -0.13985 0.68064
 N197 N 1.14444 -0.13045 0.65447
 N198 N 1.12865 -0.11636 0.63269
 C199 C 1.09879 -0.11084 0.63646
 N200 N 1.08517 -0.12022 0.66264
 N201 N 1.10086 -0.13472 0.68423
 C202 C 1.08223 -0.09309 0.61361
 N203 N 1.05848 -0.07643 0.62218
 N204 N 1.04548 -0.05787 0.60224
 C205 C 1.05540 -0.05573 0.57288
 N206 N 1.07868 -0.07290 0.56413
 N207 N 1.09198 -0.09113 0.58419
 C208 C 0.28991 1.13136 1.14130
 N209 N 0.28105 1.15732 1.12841
 N210 N 0.25888 1.17279 1.14079
 C211 C 0.24511 1.16314 1.16684
 N212 N 0.25422 1.13729 1.17985
 N213 N 0.27602 1.12157 1.16716
 C214 C 0.31405 1.11410 1.12751
 N215 N 0.31404 1.08416 1.13024
 N216 N 0.33588 1.06841 1.11766
 C217 C 0.35880 1.08209 1.10237
 N218 N 0.35895 1.11206 1.09984
 N219 N 0.33681 1.12777 1.11196
 C220 C 0.38308 1.06472 1.08898
 N221 N 0.41159 1.07620 1.08678
 N222 N 0.43377 1.06015 1.07523
 C223 C 0.42808 1.03224 1.06499
 N224 N 0.39951 1.02088 1.06688
 N225 N 0.37746 1.03674 1.07892
 C226 C 0.32469 0.83848 0.83142
 N227 N 0.30954 0.84922 0.80645
 N228 N 0.28325 0.83698 0.79733
 C229 C 0.27099 0.81365 0.81293
 N230 N 0.28646 0.80259 0.83758
 N231 N 0.31281 0.81475 0.84661
 C232 C 0.35199 0.85378 0.84353
 N233 N 0.36693 0.84279 0.86849
 N234 N 0.38981 0.85796 0.88149
 C235 C 0.39862 0.88474 0.87010
 N236 N 0.38400 0.89557 0.84483
 N237 N 0.36112 0.88033 0.83175
 C238 C 0.42141 0.90270 0.88697
 N239 N 0.42828 0.93094 0.87821
 N240 N 0.44626 0.94811 0.89580
 C241 C 0.45795 0.93760 0.92275
 N242 N 0.45152 0.90924 0.93110
 N243 N 0.43367 0.89212 0.91355
 C244 C 0.71389 0.84123 1.16392
 N245 N 0.73157 0.85335 1.18651
 N246 N 0.75217 0.83718 1.20131
 C247 C 0.75622 0.80837 1.19382
 N248 N 0.73851 0.79623 1.17118
 N249 N 0.71756 0.81231 1.15666
 C250 C 0.69170 0.85941 1.14731
 N251 N 0.66700 0.84684 1.13332
 N252 N 0.64680 0.86358 1.11853
 C253 C 0.65086 0.89340 1.11679
 N254 N 0.67569 0.90591 1.13055
 N255 N 0.69563 0.88924 1.14573
 C256 C 0.62868 0.91191 1.10055
 N257 N 0.63700 0.93880 1.08908
 N258 N 0.61684 0.95570 1.07449
 C259 C 0.58753 0.94651 1.07129
 N260 N 0.57918 0.91970 1.08291
 N261 N 0.59944 0.90260 1.09710
 C262 C 0.69669 1.16236 0.83477
 N263 N 0.69971 1.19158 0.84162
 N264 N 0.71777 1.20926 0.82507
 C265 C 0.73311 1.19841 0.80079
 N266 N 0.72964 1.16928 0.79375
 N267 N 0.71196 1.15157 0.81052
 C268 C 0.67794 1.14236 0.85359
 N269 N 0.68333 1.11286 0.85400
 N270 N 0.66666 1.09452 0.87116
 C271 C 0.64369 1.10496 0.88821
 N272 N 0.63813 1.13445 0.88767
 N273 N 0.65510 1.15287 0.87083
 C274 C 0.62525 1.08460 0.90693
 N275 N 0.59681 1.09193 0.91525
 N276 N 0.58004 1.07331 0.93202
 C277 C 0.59124 1.04689 0.94140
 N278 N 0.61972 1.03962 0.93326
 N279 N 0.63634 1.05806 0.91611
 C280 C 0.14656 0.28827 0.12963
 N281 N 0.16170 0.26719 0.11420
 N282 N 0.17527 0.24526 0.12944
 C283 C 0.17384 0.24345 0.16061
 N284 N 0.15862 0.26449 0.17599
 N285 N 0.14543 0.28661 0.16080
 C286 C 0.13107 0.31223 0.11310
 N287 N 0.12394 0.33738 0.12811
 N288 N 0.10901 0.35884 0.11362
 C289 C 0.10028 0.35581 0.08370
 N290 N 0.10735 0.33063 0.06864
 N291 N 0.12266 0.30928 0.08305
 C292 C 0.08257 0.37911 0.06854
 N293 N 0.06510 0.37325 0.04321
 N294 N 0.04745 0.39409 0.03097
 C295 C 0.04698 0.42159 0.04344
 N296 N 0.06481 0.42750 0.06845
 N297 N 0.08215 0.40662 0.08086
 C298 C -0.18514 0.34106 -0.18804
 N299 N -0.17485 0.33005 -0.21485
 N300 N -0.18641 0.30494 -0.22627
 C301 C -0.20865 0.28985 -0.21131
 N302 N -0.21933 0.30111 -0.18474
 N303 N -0.20776 0.32626 -0.17331
 C304 C -0.16980 0.36667 -0.17361
 N305 N -0.17862 0.37642 -0.14571
 N306 N -0.16249 0.39718 -0.13086
 C307 C -0.13693 0.40897 -0.14332
 N308 N -0.12845 0.39968 -0.17153
 N309 N -0.14462 0.37893 -0.18641
 C310 C -0.11685 0.42826 -0.12471
 N311 N -0.08943 0.43747 -0.13532
 N312 N -0.06943 0.45108 -0.11665
 C313 C -0.07617 0.45587 -0.08671
 N314 N -0.10387 0.44735 -0.07642
 N315 N -0.12384 0.43387 -0.09505
 C316 C 0.15391 0.70982 -0.12954
 N317 N 0.18470 0.71060 -0.13001
 N318 N 0.19935 0.73113 -0.14655
 C319 C 0.18367 0.75132 -0.16346
 N320 N 0.15295 0.75041 -0.16297
 N321 N 0.13837 0.73019 -0.14620
 C322 C 0.13714 0.68714 -0.11207
 N323 N 0.10739 0.69110 -0.10617
 N324 N 0.09125 0.67016 -0.09199
 C325 C 0.10412 0.64427 -0.08339
 N326 N 0.13397 0.64026 -0.08912
 N327 N 0.15025 0.66141 -0.10309
 C328 C 0.08515 0.62070 -0.06986
 N329 N 0.09473 0.59229 -0.06794
 N330 N 0.07606 0.57075 -0.05826
 C331 C 0.04725 0.57695 -0.05005
 N332 N 0.03798 0.60540 -0.05147
 N333 N 0.05652 0.62683 -0.06126
 C334 C -0.16189 0.67008 0.17441
 N335 N -0.14793 0.68160 0.19981
 N336 N -0.15752 0.70667 0.21207
 C337 C -0.18138 0.72117 0.19936
 N338 N -0.19559 0.70946 0.17420
 N339 N -0.18599 0.68439 0.16192
 C340 C -0.14943 0.64415 0.15913
 N341 N -0.16152 0.63446 0.13202
 N342 N -0.14833 0.61298 0.11646
 C343 C -0.12262 0.60035 0.12747
 N344 N -0.11086 0.60964 0.15488
 N345 N -0.12404 0.63114 0.17043
 C346 C -0.10591 0.57969 0.10833
 N347 N -0.07881 0.56898 0.11810
 N348 N -0.06172 0.55350 0.09917
 C349 C -0.07112 0.54821 0.06978
 N350 N -0.09851 0.55834 0.06025
 N351 N -0.11561 0.57376 0.07918
 C352 C 1.17753 0.15847 0.69701
 N353 N 1.20248 0.14809 0.71193
 N354 N 1.21288 0.16112 0.73755
 C355 C 1.19863 0.18492 0.74930
 N356 N 1.17384 0.19541 0.73417
 N357 N 1.16352 0.18245 0.70853
 C358 C 1.16469 0.14317 0.66987
 N359 N 1.13984 0.15406 0.65526
 N360 N 1.12667 0.13935 0.63207
 C361 C 1.13781 0.11316 0.62254
 N362 N 1.16292 0.10238 0.63688
 N363 N 1.17616 0.11716 0.66010
 C364 C 1.12112 0.09587 0.59901
 N365 N 1.13029 0.06855 0.59047
 N366 N 1.11316 0.05194 0.57149
 C367 C 1.08627 0.06211 0.56046
 N368 N 1.07746 0.08957 0.56861
 N369 N 1.09457 0.10615 0.58743
 C370 C 0.85013 -0.14948 0.70417
 N371 N 0.85598 -0.17877 0.70721
 N372 N 0.83995 -0.19569 0.72644
 C373 C 0.81714 -0.18404 0.74295
 N374 N 0.81109 -0.15480 0.73956
 N375 N 0.82742 -0.13780 0.72069
 C376 C 0.86808 -0.13069 0.68342
 N377 N 0.87067 -0.10108 0.68828
 N378 N 0.88679 -0.08395 0.66934
 C379 C 0.90056 -0.09575 0.64463
 N380 N 0.89787 -0.12534 0.63970
 N381 N 0.88213 -0.14254 0.65890
 C382 C 0.91705 -0.07670 0.62291
 N383 N 0.91972 -0.08494 0.59310
 N384 N 0.93337 -0.06711 0.57293
 C385 C 0.94530 -0.04060 0.58193
 N386 N 0.94303 -0.03251 0.61185
 N387 N 0.92894 -0.05016 0.63194
 C388 C 1.16159 -0.14905 0.29754
 N389 N 1.18868 -0.14089 0.28551
 N390 N 1.20180 -0.15773 0.26464
 C391 C 1.18810 -0.18311 0.25459
 N392 N 1.16093 -0.19122 0.26660
 N393 N 1.14803 -0.17461 0.28786
 C394 C 1.14685 -0.13006 0.31993
 N395 N 1.12729 -0.14172 0.34073
 N396 N 1.11361 -0.12429 0.36073
 C397 C 1.11864 -0.09457 0.36030
 N398 N 1.13807 -0.08291 0.33939
 N399 N 1.15213 -0.10038 0.31974
 C400 C 1.10257 -0.07524 0.38137
 N401 N 1.09616 -0.04699 0.37305
 N402 N 1.08044 -0.02976 0.39156
 C403 C 1.07106 -0.04000 0.41930
 N404 N 1.07779 -0.06811 0.42783
 N405 N 1.09309 -0.08551 0.40908
 C406 C 0.84360 0.16137 0.30396
 N407 N 0.82038 0.14931 0.28720
 N408 N 0.80437 0.16591 0.26767
 C409 C 0.81124 0.19510 0.26384
 N410 N 0.83450 0.20715 0.28065
 N411 N 0.85024 0.19064 0.30053
 C412 C 0.86151 0.14290 0.32501
 N413 N 0.87667 0.15508 0.34936
 N414 N 0.89270 0.13817 0.36859
 C415 C 0.89456 0.10857 0.36385
 N416 N 0.87963 0.09644 0.33934
 N417 N 0.86323 0.11329 0.32037
 C418 C 0.91182 0.08991 0.38527
 N419 N 0.92287 0.06356 0.37606
 N420 N 0.93812 0.04643 0.39575
 C421 C 0.94243 0.05487 0.42545
 N422 N 0.93129 0.08116 0.43467
 N423 N 0.91645 0.09848 0.41488
 C424 C 0.15285 0.29863 -0.14430
 N425 N 0.14276 0.28508 -0.17041
 N426 N 0.15881 0.26382 -0.18325
 C427 C 0.18535 0.25499 -0.17020
 N428 N 0.19541 0.26856 -0.14404
 N429 N 0.17955 0.29010 -0.13142
 C430 C 0.13460 0.32141 -0.12977
 N431 N 0.14738 0.34121 -0.10981
 N432 N 0.13051 0.36160 -0.09645
 C433 C 0.10021 0.36258 -0.10225
 N434 N 0.08749 0.34270 -0.12209
 N435 N 0.10439 0.32262 -0.13575
 C436 C 0.08114 0.38440 -0.08725
 N437 N 0.05093 0.37914 -0.08492
 N438 N 0.03315 0.39896 -0.07208
 C439 C 0.04482 0.42497 -0.06141
 N440 N 0.07509 0.43034 -0.06370
 N441 N 0.09299 0.41028 -0.07621
 C442 C -0.17242 0.33363 0.18053
 N443 N -0.19857 0.32246 0.16815
 N444 N -0.21089 0.29756 0.17910
 C445 C -0.19749 0.28279 0.20280
 N446 N -0.17168 0.29435 0.21570
 N447 N -0.15932 0.31928 0.20471
 C448 C -0.15694 0.35863 0.16548
 N449 N -0.12936 0.36853 0.17569
 N450 N -0.11367 0.38851 0.15948
 C451 C -0.12501 0.39918 0.13246
 N452 N -0.15284 0.38974 0.12267
 N453 N -0.16853 0.36989 0.13890
 C454 C -0.10626 0.41748 0.11202
 N455 N -0.11494 0.42098 0.08218
 N456 N -0.09668 0.43441 0.06225
 C457 C -0.06913 0.44508 0.07144
 N458 N -0.06061 0.44222 0.10147
 N459 N -0.07881 0.42847 0.12141
 C460 C -0.17167 0.67389 -0.17994
 N461 N -0.19695 0.68488 -0.16709
 N462 N -0.20820 0.71056 -0.17672
 C463 C -0.19453 0.72629 -0.19949
 N464 N -0.16953 0.71502 -0.21270
 N465 N -0.15829 0.68932 -0.20308
 C466 C -0.15750 0.64727 -0.16706
 N467 N -0.13115 0.63723 -0.17858
 N468 N -0.11659 0.61508 -0.16480
 C469 C -0.12783 0.60215 -0.13901
 N470 N -0.15446 0.61183 -0.12784
 N471 N -0.16904 0.63394 -0.14164
 C472 C -0.10978 0.58073 -0.12136
 N473 N -0.11882 0.57171 -0.09305
 N474 N -0.10065 0.55562 -0.07510
 C475 C -0.07281 0.54785 -0.08483
 N476 N -0.06406 0.55621 -0.11345
 N477 N -0.08220 0.57239 -0.13139
 C478 C 0.14872 0.69841 0.14513
 N479 N 0.13449 0.71761 0.16380
 N480 N 0.15040 0.73713 0.18062
 C481 C 0.18111 0.73827 0.17919
 N482 N 0.19532 0.71901 0.16060
 N483 N 0.17943 0.69930 0.14403
 C484 C 0.13119 0.67755 0.12586
 N485 N 0.14487 0.65434 0.11240
 N486 N 0.12892 0.63543 0.09487
 C487 C 0.09880 0.63934 0.08982
 N488 N 0.08519 0.66268 0.10310
 N489 N 0.10107 0.68140 0.12087
 C490 C 0.08087 0.61797 0.07156
 N491 N 0.05231 0.62454 0.06202
 N492 N 0.03512 0.60442 0.04742
 C493 C 0.04578 0.57696 0.04198
 N494 N 0.07447 0.57048 0.05118
 N495 N 0.09178 0.59071 0.06554
 C496 C 0.31233 1.15909 0.86963
 N497 N 0.31150 1.15789 0.83841
 N498 N 0.28923 1.17069 0.82245
 C499 C 0.26726 1.18555 0.83713
 N500 N 0.26831 1.18709 0.86833
 N501 N 0.29033 1.17390 0.88432
 C502 C 0.33588 1.14351 0.88716
 N503 N 0.33060 1.13365 0.91620
 N504 N 0.35131 1.11785 0.93138
 C505 C 0.37821 1.11180 0.91823
 N506 N 0.38364 1.12205 0.88938
 N507 N 0.36277 1.13745 0.87403
 C508 C 0.40033 1.09283 0.93387
 N509 N 0.42979 1.09361 0.92540
 N510 N 0.44947 1.07466 0.93758
 C511 C 0.44033 1.05399 0.95839
 N512 N 0.41090 1.05334 0.96707
 N513 N 0.39128 1.07258 0.95519
 C514 C 0.32591 0.81876 1.16391
 N515 N 0.31561 0.83057 1.19037
 N516 N 0.28944 0.82126 1.20219
 C517 C 0.27269 0.79973 1.18801
 N518 N 0.28323 0.78757 1.16183
 N519 N 0.30932 0.79700 1.14992
 C520 C 0.35295 0.83130 1.14920
 N521 N 0.35968 0.82402 1.11983
 N522 N 0.38217 0.83789 1.10522
 C523 C 0.39885 0.85940 1.11956
 N524 N 0.39254 0.86619 1.14915
 N525 N 0.36997 0.85244 1.16369
 C526 C 0.42078 0.87749 1.10239
 N527 N 0.43674 0.89940 1.11683
 N528 N 0.45358 0.91849 1.10079
 C529 C 0.45503 0.91643 1.06969
 N530 N 0.43958 0.89414 1.05527
 N531 N 0.42279 0.87497 1.07135
 C532 C 0.68460 1.17570 1.15597
 N533 N 0.69308 1.16553 1.18421
 N534 N 0.71589 1.17840 1.19975
 C535 C 0.73085 1.20213 1.18776
 N536 N 0.72217 1.21256 1.15964
 N537 N 0.69955 1.19945 1.14392
 C538 C 0.66048 1.16026 1.13852
 N539 N 0.65755 1.16364 1.10752
 N540 N 0.63707 1.14764 1.09164
 C541 C 0.61861 1.12797 1.10630
 N542 N 0.62126 1.12505 1.13732
 N543 N 0.64186 1.14079 1.15311
 C544 C 0.59792 1.10808 1.08920
 N545 N 0.57867 1.09014 1.10493
 N546 N 0.56237 1.06937 1.09042
 C547 C 0.56467 1.06567 1.05960
 N548 N 0.58346 1.08401 1.04360
 N549 N 0.59979 1.10493 1.05817
 C550 C 0.68832 0.83034 0.84499
 N551 N 0.70197 0.80583 0.85645
 N552 N 0.72499 0.79379 0.84173
 C553 C 0.73541 0.80606 0.81524
 N554 N 0.72176 0.83057 0.80381
 N555 N 0.69857 0.84241 0.81835
 C556 C 0.66381 0.84451 0.86168
 N557 N 0.64681 0.86554 0.84764
 N558 N 0.62584 0.87986 0.86318
 C559 C 0.62123 0.87384 0.89340
 N560 N 0.63808 0.85263 0.90743
 N561 N 0.65889 0.83810 0.89179
 C562 C 0.60039 0.89196 0.91105
 N563 N 0.60160 0.89210 0.94231
 N564 N 0.58534 0.91126 0.95813
 C565 C 0.56708 0.93077 0.94325
 N566 N 0.56533 0.93011 0.91205
 N567 N 0.58172 0.91112 0.89625
   
