data_POSCAR
  _audit_creation_date              2014-09-24
  _audit_creation_method            'ToBaCCo'
  _symmetry_space_group_name_H-M    'P1'
  _symmetry_Int_Tables_number       1
  _symmetry_cell_setting            triclinic
  loop_
  _symmetry_equiv_pos_as_xyz
 x,y,z
_cell_length_a 37.1446
_cell_length_b 40.8968
_cell_length_c 40.4480
_cell_angle_alpha 88.100800
_cell_angle_beta 88.698200
_cell_angle_gamma 89.331800
loop_
  _atom_site_label
  _atom_site_type_symbol
  _atom_site_fract_x
  _atom_site_fract_y
  _atom_site_fract_z
C1 C 0.10451 0.13137 0.17202
 C2 C 0.13067 0.11190 0.15600
 C3 C 0.14729 0.12244 0.12600
 C4 C 0.13614 0.15249 0.11123
 C5 C 0.10992 0.17203 0.12661
 C6 C 0.09334 0.16075 0.15630
 H7 H 0.13918 0.08872 0.16693
 H8 H 0.14849 0.16193 0.08853
 H9 H 0.07260 0.17550 0.16801
 C10 C -0.15374 0.84730 0.21031
 C11 C -0.18258 0.85887 0.19088
 C12 C -0.19349 0.84186 0.16317
 C13 C -0.17504 0.81321 0.15467
 C14 C -0.14695 0.80056 0.17409
 C15 C -0.13618 0.81787 0.20150
 H16 H -0.19603 0.88157 0.19703
 H17 H -0.18284 0.80090 0.13272
 H18 H -0.11436 0.80761 0.21576
 C19 C -0.15285 0.19289 -0.22838
 C20 C -0.18111 0.17555 -0.21235
 C21 C -0.19318 0.18289 -0.18027
 C22 C -0.17631 0.20824 -0.16381
 C23 C -0.14800 0.22599 -0.17936
 C24 C -0.13629 0.21780 -0.21132
 H25 H -0.19374 0.15555 -0.22417
 H26 H -0.18438 0.21374 -0.13887
 H27 H -0.11428 0.23130 -0.22314
 C28 C 0.15968 0.83057 -0.20521
 C29 C 0.18952 0.84446 -0.19023
 C30 C 0.20362 0.83032 -0.16071
 C31 C 0.18725 0.80184 -0.14687
 C32 C 0.15770 0.78766 -0.16193
 C33 C 0.14426 0.80234 -0.19085
 H34 H 0.20180 0.86562 -0.20207
 H35 H 0.19730 0.79107 -0.12403
 H36 H 0.12142 0.79151 -0.20246
 C37 C 0.12378 1.15020 0.81067
 C38 C 0.15417 1.13582 0.82509
 C39 C 0.17283 1.15165 0.84942
 C40 C 0.15951 1.18167 0.86091
 C41 C 0.12795 1.19595 0.84770
 C42 C 0.11057 1.18016 0.82224
 H43 H 0.16453 1.11279 0.81603
 H44 H 0.17387 1.19375 0.87980
 H45 H 0.08658 1.19116 0.81172
 C46 C 0.84415 0.82646 0.78338
 C47 C 0.81284 0.83869 0.79947
 C48 C 0.79860 0.82262 0.82818
 C49 C 0.81550 0.79398 0.84039
 C50 C 0.84678 0.78124 0.82493
 C51 C 0.86077 0.79795 0.79666
 H52 H 0.79920 0.86020 0.78974
 H53 H 0.80383 0.78225 0.86230
 H54 H 0.88485 0.78837 0.78456
 C55 C 0.17395 0.81804 1.23751
 C56 C 0.20348 0.83020 1.21831
 C57 C 0.21604 0.81347 1.19032
 C58 C 0.19947 0.78445 1.18189
 C59 C 0.17015 0.77203 1.20057
 C60 C 0.15748 0.78910 1.22797
 H61 H 0.21707 0.85215 1.22492
 H62 H 0.20888 0.77241 1.15986
 H63 H 0.13457 0.77949 1.24213
 C64 C 0.87393 1.13316 1.16574
 C65 C 0.85071 1.11603 1.14572
 C66 C 0.83630 1.13075 1.11713
 C67 C 0.84727 1.16213 1.10704
 C68 C 0.87046 1.18015 1.12625
 C69 C 0.88391 1.16537 1.15567
 H70 H 0.84302 1.09131 1.15300
 H71 H 0.83588 1.17330 1.08486
 H72 H 0.90189 1.17876 1.17050
 N73 N 0.54128 1.07304 0.97243
 N74 N 0.56916 1.09262 0.97194
 N75 N 0.46692 1.05657 0.94250
 N76 N 0.44079 1.06365 0.92167
 N77 N 0.46674 1.07747 0.96643
 N78 N 0.44092 1.09948 0.96248
 N79 N 0.54283 1.05345 0.94739
 N80 N 0.57225 1.05916 0.92911
 C81 C 0.58827 1.08369 0.94494
 C82 C 0.42501 1.09062 0.93457
 N83 N 0.46283 0.96065 0.95840
 N84 N 0.43574 0.94178 0.95092
 N85 N 0.54058 0.98359 0.94240
 N86 N 0.56891 0.98087 0.92251
 N87 N 0.53859 0.95848 0.96351
 N88 N 0.56563 0.93773 0.95809
 N89 N 0.46520 0.98587 0.93744
 N90 N 0.43991 0.98466 0.91508
 Mn91 Mn 0.50377 1.01988 0.94197
 C92 C 0.42176 0.95705 0.92379
 C93 C 0.58431 0.95230 0.93242
 N94 N 0.45788 1.07071 1.03652
 N95 N 0.42890 1.08955 1.03554
 N96 N 0.52820 1.04184 1.06462
 N97 N 0.55575 1.03914 1.08456
 N98 N 0.53312 1.06597 1.04286
 N99 N 0.56434 1.08012 1.04721
 N100 N 0.45286 1.04560 1.05706
 N101 N 0.42010 1.04662 1.07048
 Mn102 Mn 0.49992 1.07206 1.00466
 C103 C 0.40578 1.07448 1.05704
 C104 C 0.57781 1.06335 1.07363
 N105 N 0.53026 0.95209 1.03565
 N106 N 0.55760 0.93175 1.04155
 N107 N 0.45139 0.97584 1.05265
 N108 N 0.42136 0.97217 1.07011
 N109 N 0.45430 0.95396 1.02965
 N110 N 0.42603 0.93441 1.03122
 N111 N 0.52591 0.97234 1.06004
 N112 N 0.54968 0.96626 1.08311
 Mn113 Mn 0.49668 0.95570 0.99678
 Mn114 Mn 0.48939 1.00890 1.05888
 Cl115 Cl 0.49746 1.01400 1.00047
 C116 C 0.56926 0.94107 1.07141
 C117 C 0.40586 0.94632 1.05668
 N118 N 0.03936 0.46496 0.08250
 N119 N 0.03991 0.43954 0.10339
 N120 N 0.06719 0.53011 0.05329
 N121 N 0.09208 0.55243 0.05649
 N122 N 0.04143 0.53336 0.07574
 N123 N 0.04821 0.55787 0.09503
 N124 N 0.06367 0.46141 0.05876
 N125 N 0.08113 0.43328 0.06271
 C126 C 0.06619 0.42018 0.09090
 C127 C 0.07980 0.56959 0.08246
 N128 N 0.04366 0.52874 -0.03981
 N129 N 0.04943 0.55400 -0.06054
 N130 N 0.06530 0.45863 -0.01253
 N131 N 0.08513 0.43170 -0.01373
 N132 N 0.04144 0.45947 -0.03601
 N133 N 0.04424 0.43291 -0.05369
 N134 N 0.06853 0.52713 -0.01722
 N135 N 0.09179 0.55097 -0.02188
 Mn136 Mn 0.06655 0.49413 0.02057
 C137 C 0.07972 0.56747 -0.04891
 C138 C 0.07180 0.41599 -0.03958
 N139 N -0.03658 0.53576 0.07603
 N140 N -0.04151 0.56221 0.09361
 N141 N -0.06130 0.46471 0.05946
 N142 N -0.07964 0.43728 0.06355
 N143 N -0.03769 0.46710 0.08293
 N144 N -0.03956 0.44162 0.10368
 N145 N -0.06172 0.53373 0.05392
 N146 N -0.08437 0.55867 0.05575
 Mn147 Mn 0.00160 0.50058 0.07966
 C148 C -0.07150 0.57618 0.08053
 C149 C -0.06595 0.42341 0.09154
 N150 N -0.03577 0.46172 -0.03571
 N151 N -0.04081 0.43686 -0.05507
 N152 N -0.06046 0.53078 -0.01663
 N153 N -0.08283 0.55558 -0.02154
 N154 N -0.03481 0.53082 -0.03955
 N155 N -0.03923 0.55577 -0.06084
 N156 N -0.06052 0.46217 -0.01201
 N157 N -0.08324 0.43790 -0.01477
 Mn158 Mn 0.00367 0.49539 -0.03831
 Mn159 Mn -0.06141 0.49766 0.02123
 Cl160 Cl 0.00259 0.49698 0.02073
 C161 C -0.07052 0.42227 -0.04164
 C162 C -0.06940 0.57091 -0.04911
 N163 N 0.97074 0.07049 0.45103
 N164 N 0.97083 0.08916 0.42396
 N165 N 0.93351 0.05077 0.51746
 N166 N 0.90727 0.05432 0.53970
 N167 N 0.95657 0.07475 0.51885
 N168 N 0.94670 0.09525 0.54190
 N169 N 0.94835 0.04609 0.44878
 N170 N 0.93274 0.04747 0.41959
 C171 C 0.94722 0.07465 0.40456
 C172 C 0.91583 0.08228 0.55455
 N173 N 0.96544 -0.04005 0.53259
 N174 N 0.95798 -0.05765 0.55980
 N175 N 0.95347 -0.02445 0.45747
 N176 N 0.93704 -0.03220 0.43022
 N177 N 0.97951 -0.04550 0.46417
 N178 N 0.98152 -0.06809 0.44160
 N179 N 0.93896 -0.01943 0.52590
 N180 N 0.91284 -0.02246 0.54850
 Mn181 Mn 0.94305 0.01318 0.48724
 C182 C 0.92502 -0.04647 0.56939
 C183 C 0.95490 -0.05948 0.42061
 N184 N 1.03230 0.08018 0.52986
 N185 N 1.02826 0.10107 0.55382
 N186 N 1.07250 0.05438 0.46744
 N187 N 1.09503 0.05356 0.44173
 N188 N 1.04622 0.07543 0.46171
 N189 N 1.05023 0.08938 0.43204
 N190 N 1.05857 0.05934 0.53616
 N191 N 1.07287 0.06524 0.56495
 Mn192 Mn 1.00145 0.07549 0.49043
 C193 C 1.05378 0.09152 0.57543
 C194 C 1.08103 0.07589 0.42010
 N195 N 1.05557 -0.04005 0.47513
 N196 N 1.06521 -0.06049 0.45187
 N197 N 1.06454 -0.01031 0.54402
 N198 N 1.08333 -0.01140 0.57126
 N199 N 1.04206 -0.03485 0.54371
 N200 N 1.04526 -0.05355 0.57085
 N201 N 1.07826 -0.01569 0.47577
 N202 N 1.10402 -0.01901 0.45303
 Mn203 Mn 1.01064 -0.04055 0.50403
 Mn204 Mn 1.06890 0.02200 0.50587
 Cl205 Cl 1.00596 0.01744 0.49690
 C206 C 1.09561 -0.04714 0.43846
 C207 C 1.07104 -0.03835 0.58779
 C208 C 1.09100 0.12402 0.20419
 C209 C 1.10531 0.10000 0.22574
 C210 C 1.09591 0.09880 0.26121
 N211 N 1.11526 0.07930 0.28215
 N212 N 1.10843 0.07918 0.31461
 C213 C 1.08203 0.09863 0.32728
 N214 N 1.06246 0.11791 0.30633
 N215 N 1.06937 0.11811 0.27388
 C216 C 1.07373 0.09843 0.36288
 C217 C 1.09372 0.08009 0.38570
 H218 H 1.12662 0.08363 0.21800
 H219 H 1.05026 0.11212 0.37116
 H220 H 1.07041 0.14017 0.21418
 H221 H 1.11738 0.06649 0.37776
 C222 C 0.85610 -0.13446 0.23775
 C223 C 0.88447 -0.14245 0.25897
 C224 C 0.89319 -0.12280 0.28761
 N225 N 0.92098 -0.13221 0.30708
 N226 N 0.92928 -0.11509 0.33325
 C227 C 0.91008 -0.08783 0.34099
 N228 N 0.88230 -0.07834 0.32149
 N229 N 0.87399 -0.09549 0.29529
 C230 C 0.91878 -0.06882 0.37008
 C231 C 0.94664 -0.07796 0.39117
 H232 H 0.90141 -0.16364 0.25517
 H233 H 0.90262 -0.04727 0.37518
 H234 H 0.84058 -0.11251 0.24287
 H235 H 0.96287 -0.09948 0.38620
 C236 C 0.85994 0.18574 0.73952
 C237 C 0.84397 0.16346 0.71888
 C238 C 0.86032 0.15397 0.68721
 N239 N 0.84453 0.13052 0.66973
 N240 N 0.85949 0.12054 0.64155
 C241 C 0.89079 0.13371 0.62979
 N242 N 0.90649 0.15734 0.64713
 N243 N 0.89156 0.16727 0.67538
 C244 C 0.90831 0.12214 0.59941
 C245 C 0.89559 0.09550 0.58271
 H246 H 0.81883 0.15182 0.72555
 H247 H 0.93288 0.13402 0.59084
 H248 H 0.88377 0.19831 0.73009
 H249 H 0.87138 0.08308 0.59134
 C250 C 1.14392 -0.15624 0.76365
 C251 C 1.14832 -0.12441 0.75084
 C252 C 1.12972 -0.11283 0.72072
 N253 N 1.13523 -0.08205 0.70828
 N254 N 1.11858 -0.07137 0.68109
 C255 C 1.09568 -0.09100 0.66534
 N256 N 1.09004 -0.12173 0.67786
 N257 N 1.10674 -0.13243 0.70502
 C258 C 1.07775 -0.07969 0.63480
 C259 C 1.08566 -0.04950 0.61969
 H260 H 1.16480 -0.10725 0.76330
 H261 H 1.05916 -0.09586 0.62337
 H262 H 1.12622 -0.17223 0.75088
 H263 H 1.10487 -0.03371 0.63081
 C264 C 0.17655 1.10381 1.11387
 C265 C 0.19904 1.11316 1.08713
 C266 C 0.23525 1.09887 1.08296
 N267 N 0.25913 1.11361 1.06166
 N268 N 0.29315 1.10316 1.05988
 C269 C 0.30460 1.07759 1.07935
 N270 N 0.28057 1.06239 1.10021
 N271 N 0.24654 1.07296 1.10211
 C272 C 0.34247 1.06683 1.07832
 C273 C 0.36840 1.08542 1.06127
 H274 H 0.19256 1.13377 1.07093
 H275 H 0.35003 1.04419 1.09113
 H276 H 0.18428 1.08201 1.12810
 H277 H 0.36078 1.10828 1.04893
 C278 C 0.23341 0.84315 0.85561
 C279 C 0.25229 0.87154 0.84584
 C280 C 0.28333 0.88327 0.86426
 N281 N 0.30039 0.91103 0.85375
 N282 N 0.32849 0.92198 0.86992
 C283 C 0.34066 0.90556 0.89729
 N284 N 0.32359 0.87781 0.90782
 N285 N 0.29549 0.86687 0.89165
 C286 C 0.37187 0.91723 0.91543
 C287 C 0.39051 0.94554 0.90574
 H288 H 0.24463 0.88614 0.82438
 H289 H 0.38043 0.90305 0.93700
 H290 H 0.24244 0.83006 0.87770
 H291 H 0.38203 0.95987 0.88426
 C292 C 0.77629 0.85321 1.14217
 C293 C 0.74759 0.87230 1.15368
 C294 C 0.71633 0.88093 1.13323
 N295 N 0.68887 0.89870 1.14638
 N296 N 0.66022 0.90665 1.12854
 C297 C 0.65775 0.89712 1.09680
 N298 N 0.68521 0.87925 1.08359
 N299 N 0.71396 0.87128 1.10148
 C300 C 0.62621 0.90670 1.07689
 C301 C 0.59955 0.92704 1.08995
 H302 H 0.74700 0.88018 1.17895
 H303 H 0.62471 0.89897 1.05161
 H304 H 0.77523 0.84410 1.11736
 H305 H 0.60204 0.93530 1.11496
 C306 C 0.77832 1.16415 0.83358
 C307 C 0.76180 1.16814 0.86459
 C308 C 0.73105 1.14778 0.87563
 N309 N 0.71421 1.15322 0.90504
 N310 N 0.68578 1.13556 0.91485
 C311 C 0.67311 1.11178 0.89564
 N312 N 0.69009 1.10617 0.86633
 N313 N 0.71852 1.12384 0.85652
 C314 C 0.64094 1.09296 0.90578
 C315 C 0.62191 1.09981 0.93474
 H316 H 0.77031 1.18670 0.88100
 H317 H 0.63147 1.07430 0.88979
 H318 H 0.76775 1.14510 0.81864
 H319 H 0.63134 1.11869 0.95048
 C320 C 0.10267 0.20522 0.11241
 C321 C 0.09270 0.23135 0.13208
 C322 C 0.09161 0.26537 0.11934
 N323 N 0.08120 0.28939 0.13989
 N324 N 0.08082 0.32052 0.12924
 C325 C 0.09108 0.32883 0.09767
 N326 N 0.10164 0.30482 0.07709
 N327 N 0.10194 0.27362 0.08774
 C328 C 0.08969 0.36308 0.08553
 C329 C 0.07374 0.38729 0.10451
 H330 H 0.08759 0.22738 0.15833
 H331 H 0.09900 0.36891 0.06046
 H332 H 0.10943 0.21005 0.08652
 H333 H 0.06287 0.38113 0.12897
 C334 C -0.12941 0.25288 -0.16308
 C335 C -0.14377 0.26973 -0.13624
 C336 C -0.12504 0.29733 -0.12195
 N337 N -0.14021 0.31289 -0.09590
 N338 N -0.12388 0.33815 -0.08293
 C339 C -0.09175 0.34885 -0.09555
 N340 N -0.07656 0.33329 -0.12159
 N341 N -0.09287 0.30799 -0.13453
 C342 C -0.07364 0.37707 -0.08182
 C343 C -0.08775 0.39334 -0.05463
 H344 H -0.16994 0.26352 -0.12579
 H345 H -0.04872 0.38535 -0.09356
 H346 H -0.10383 0.26081 -0.17378
 H347 H -0.11233 0.38485 -0.04246
 C348 C 0.13934 0.75793 -0.14841
 C349 C 0.15476 0.73486 -0.12669
 C350 C 0.13594 0.70450 -0.11642
 N351 N 0.15166 0.68282 -0.09499
 N352 N 0.13510 0.65521 -0.08564
 C353 C 0.10220 0.64810 -0.09742
 N354 N 0.08650 0.66971 -0.11896
 N355 N 0.10306 0.69738 -0.12828
 C356 C 0.08349 0.61778 -0.08669
 C357 C 0.09789 0.59680 -0.06251
 H358 H 0.18161 0.73832 -0.11772
 H359 H 0.05765 0.61248 -0.09708
 H360 H 0.11287 0.75298 -0.15767
 H361 H 0.12325 0.60279 -0.05163
 C362 C -0.12805 0.76951 0.16617
 C363 C -0.14376 0.74519 0.14804
 C364 C -0.12508 0.71454 0.13976
 N365 N -0.14170 0.69301 0.12060
 N366 N -0.12540 0.66517 0.11246
 C367 C -0.09184 0.65771 0.12323
 N368 N -0.07520 0.67919 0.14256
 N369 N -0.09150 0.70714 0.15065
 C370 C -0.07367 0.62702 0.11396
 C371 C -0.08875 0.60660 0.09125
 H372 H -0.17110 0.74819 0.13972
 H373 H -0.04784 0.62078 0.12451
 H374 H -0.10151 0.76510 0.17607
 H375 H -0.11404 0.61345 0.08000
 C376 C 1.10798 0.13362 0.78266
 C377 C 1.09159 0.15034 0.75637
 C378 C 1.08615 0.13448 0.72479
 N379 N 1.07061 0.15141 0.69939
 N380 N 1.06759 0.13796 0.67005
 C381 C 1.08024 0.10717 0.66497
 N382 N 1.09573 0.09023 0.69037
 N383 N 1.09864 0.10365 0.71973
 C384 C 1.07765 0.09222 0.63260
 C385 C 1.05825 0.10709 0.60714
 H386 H 1.08575 0.17626 0.75759
 H387 H 1.09033 0.06856 0.62909
 H388 H 1.11418 0.10782 0.78032
 H389 H 1.04416 0.13002 0.61106
 C390 C 0.85991 -0.15890 0.75447
 C391 C 0.84678 -0.13143 0.73668
 C392 C 0.86556 -0.11866 0.70635
 N393 N 0.85103 -0.09348 0.68818
 N394 N 0.86773 -0.08197 0.66071
 C395 C 0.89964 -0.09518 0.65039
 N396 N 0.91417 -0.12025 0.66860
 N397 N 0.89748 -0.13177 0.69599
 C398 C 0.91876 -0.08296 0.62016
 C399 C 0.90504 -0.05821 0.59930
 H400 H 0.82222 -0.11911 0.74421
 H401 H 0.94461 -0.09403 0.61408
 H402 H 0.88431 -0.17022 0.74479
 H403 H 0.87913 -0.04709 0.60495
 C404 C 1.15978 -0.16686 0.26587
 C405 C 1.17249 -0.13841 0.27979
 C406 C 1.15509 -0.12528 0.30985
 N407 N 1.16782 -0.09792 0.32346
 N408 N 1.15208 -0.08599 0.35056
 C409 C 1.12302 -0.10102 0.36503
 N410 N 1.11035 -0.12834 0.35144
 N411 N 1.12607 -0.14024 0.32442
 C412 C 1.10474 -0.08822 0.39465
 C413 C 1.11587 -0.06023 0.41006
 H414 H 1.19528 -0.12537 0.26911
 H415 H 1.08125 -0.10111 0.40432
 H416 H 1.13690 -0.17851 0.27827
 H417 H 1.13931 -0.04711 0.40070
 C418 C 0.88438 0.11760 0.19572
 C419 C 0.90431 0.13175 0.22030
 C420 C 0.90926 0.11529 0.25290
 N421 N 0.92796 0.13042 0.27623
 N422 N 0.93155 0.11662 0.30625
 C423 C 0.91652 0.08717 0.31424
 N424 N 0.89791 0.07191 0.29086
 N425 N 0.89430 0.08574 0.26076
 C426 C 0.92036 0.07213 0.34769
 C427 C 0.93989 0.08790 0.37126
 H428 H 0.91538 0.15593 0.21689
 H429 H 0.90838 0.04858 0.35362
 H430 H 0.87475 0.09300 0.20098
 H431 H 0.95216 0.11120 0.36471
 C432 C 0.11310 0.22782 -0.14135
 C433 C 0.12285 0.24273 -0.11233
 C434 C 0.10877 0.27506 -0.10308
 N435 N 0.12083 0.28896 -0.07549
 N436 N 0.10889 0.31839 -0.06689
 C437 C 0.08436 0.33504 -0.08552
 N438 N 0.07214 0.32109 -0.11305
 N439 N 0.08416 0.29166 -0.12171
 C440 C 0.07109 0.36765 -0.07625
 C441 C 0.08502 0.38374 -0.04961
 H442 H 0.14134 0.23069 -0.09554
 H443 H 0.05012 0.37930 -0.09081
 H444 H 0.09312 0.23991 -0.15673
 H445 H 0.10633 0.37233 -0.03533
 C446 C -0.12249 0.21269 0.11561
 C447 C -0.10364 0.23571 0.13307
 C448 C -0.10117 0.27013 0.12117
 N449 N -0.08368 0.29208 0.13922
 N450 N -0.08165 0.32332 0.12900
 C451 C -0.09712 0.33386 0.10038
 N452 N -0.11464 0.31193 0.08233
 N453 N -0.11669 0.28068 0.09257
 C454 C -0.09408 0.36814 0.08832
 C455 C -0.07466 0.39078 0.10540
 H456 H -0.09145 0.22940 0.15644
 H457 H -0.10563 0.37519 0.06474
 H458 H -0.13401 0.22115 0.09242
 H459 H -0.06256 0.38351 0.12866
 C460 C -0.13527 0.75252 -0.16356
 C461 C -0.14629 0.73298 -0.13617
 C462 C -0.12670 0.70322 -0.12508
 N463 N -0.13950 0.68575 -0.09838
 N464 N -0.12249 0.65878 -0.08762
 C465 C -0.09195 0.64811 -0.10312
 N466 N -0.07905 0.66557 -0.12990
 N467 N -0.09612 0.69265 -0.14070
 C468 C -0.07315 0.61819 -0.09097
 C469 C -0.08641 0.60058 -0.06332
 H470 H -0.17015 0.73889 -0.12181
 H471 H -0.04880 0.61010 -0.10363
 H472 H -0.11119 0.74481 -0.17695
 H473 H -0.11069 0.60903 -0.05079
 C474 C 0.15100 0.74226 0.19130
 C475 C 0.16611 0.71886 0.17070
 C476 C 0.14539 0.69134 0.15906
 N477 N 0.16039 0.67150 0.13625
 N478 N 0.14172 0.64702 0.12454
 C479 C 0.10736 0.64143 0.13525
 N480 N 0.09242 0.66111 0.15829
 N481 N 0.11107 0.68571 0.16993
 C482 C 0.08651 0.61467 0.12213
 C483 C 0.09965 0.59673 0.09575
 H484 H 0.19380 0.72077 0.16210
 H485 H 0.06028 0.60927 0.13310
 H486 H 0.12392 0.73863 0.20115
 H487 H 0.12547 0.60265 0.08425
 C488 C 0.20657 1.13619 0.86122
 C489 C 0.23503 1.15357 0.87366
 C490 C 0.27001 1.13781 0.88037
 N491 N 0.29612 1.15483 0.89487
 N492 N 0.32799 1.14092 0.90093
 C493 C 0.33506 1.10957 0.89249
 N494 N 0.30908 1.09264 0.87768
 N495 N 0.27714 1.10651 0.87173
 C496 C 0.36964 1.09361 0.90038
 C497 C 0.39327 1.10782 0.92169
 H498 H 0.23245 1.17957 0.87736
 H499 H 0.37528 1.06935 0.89145
 H500 H 0.21050 1.11035 0.85699
 H501 H 0.38655 1.13127 0.93204
 C502 C 0.24655 0.82513 1.16913
 C503 C 0.25378 0.85810 1.16282
 C504 C 0.28171 0.86884 1.13852
 N505 N 0.28635 0.90121 1.13178
 N506 N 0.31161 0.91138 1.11006
 C507 C 0.33317 0.88961 1.09409
 N508 N 0.32839 0.85719 1.10066
 N509 N 0.30307 0.84699 1.12241
 C510 C 0.36286 0.90097 1.07187
 C511 C 0.37114 0.93403 1.06924
 H512 H 0.23753 0.87664 1.17475
 H513 H 0.38059 0.88313 1.06054
 H514 H 0.26167 0.80704 1.15538
 H515 H 0.35426 0.95143 1.08218
 C516 C 0.80704 1.11556 1.09906
 C517 C 0.78122 1.09599 1.11526
 C518 C 0.74560 1.09094 1.10150
 N519 N 0.72017 1.07499 1.12016
 N520 N 0.68671 1.07266 1.10950
 C521 C 0.67738 1.08639 1.07985
 N522 N 0.70289 1.10210 1.06101
 N523 N 0.73640 1.10441 1.07168
 C524 C 0.64030 1.08471 1.06832
 C525 C 0.61393 1.06756 1.08638
 H526 H 0.78498 1.08763 1.14061
 H527 H 0.63387 1.09644 1.04474
 H528 H 0.80202 1.12461 1.07409
 H529 H 0.62054 1.05476 1.10935
 C530 C 0.76567 0.83418 0.84613
 C531 C 0.75233 0.86623 0.84447
 C532 C 0.72084 0.87678 0.86460
 N533 N 0.70889 0.90818 0.86184
 N534 N 0.68065 0.91824 0.87984
 C535 C 0.66323 0.89737 0.90144
 N536 N 0.67524 0.86594 0.90431
 N537 N 0.70350 0.85584 0.88624
 C538 C 0.63147 0.90842 0.92102
 C539 C 0.61721 0.93981 0.91605
 H540 H 0.76571 0.88455 0.82889
 H541 H 0.61856 0.89149 0.93857
 H542 H 0.75239 0.81686 0.86306
 H543 H 0.62989 0.95617 0.89780
   
