data_POSCAR
  _audit_creation_date              2014-09-24
  _audit_creation_method            'ToBaCCo'
  _symmetry_space_group_name_H-M    'P1'
  _symmetry_Int_Tables_number       1
  _symmetry_cell_setting            triclinic
  loop_
  _symmetry_equiv_pos_as_xyz
 x,y,z
_cell_length_a 17.4017
_cell_length_b 20.6314
_cell_length_c 27.1534
_cell_angle_alpha 87.691400
_cell_angle_beta 88.700200
_cell_angle_gamma 114.448600
loop_
  _atom_site_label
  _atom_site_type_symbol
  _atom_site_fract_x
  _atom_site_fract_y
  _atom_site_fract_z
C1 C 0.05297 0.53025 1.28502
 C2 C -0.00578 0.46310 1.30597
 C3 C -0.06040 0.41171 1.27547
 C4 C -0.05771 0.42335 1.22387
 C5 C 0.00041 0.49074 1.20331
 C6 C 0.05451 0.54216 1.23361
 H7 H 0.09916 0.59214 1.21610
 H8 H -0.10642 0.36231 1.29293
 C9 C 0.54570 0.58856 1.28115
 C10 C 0.54727 0.52280 1.29869
 C11 C 0.53139 0.46870 1.26557
 C12 C 0.51662 0.47906 1.21596
 C13 C 0.51908 0.54523 1.19797
 C14 C 0.53390 0.59895 1.23079
 H15 H 0.53150 0.64807 1.21700
 H16 H 0.53242 0.41850 1.27811
 C17 C 0.46776 0.99207 1.30489
 C18 C 0.51807 1.06034 1.28100
 C19 C 0.51756 1.06806 1.22922
 C20 C 0.46598 1.01252 1.20101
 C21 C 0.41553 0.94555 1.22446
 C22 C 0.41491 0.93685 1.27606
 H23 H 0.37769 0.88442 1.29337
 H24 H 0.55244 1.11984 1.21049
 C25 C 1.04021 0.52969 0.78077
 C26 C 0.98498 0.46187 0.80136
 C27 C 0.94263 0.40722 0.77028
 C28 C 0.95777 0.41696 0.71912
 C29 C 1.02041 0.48278 0.69816
 C30 C 1.05682 0.53948 0.72945
 H31 H 1.10296 0.59064 0.71437
 H32 H 0.89603 0.35679 0.78623
 C33 C 0.51240 0.46982 0.72106
 C34 C 0.50933 0.53370 0.70322
 C35 C 0.50792 0.58369 0.73627
 C36 C 0.51614 0.57360 0.78689
 C37 C 0.52891 0.51321 0.80427
 C38 C 0.52216 0.46000 0.77151
 H39 H 0.52880 0.41237 0.78474
 H40 H 0.50190 0.63133 0.72237
 C41 C 0.45689 -0.00842 0.80350
 C42 C 0.49126 0.06108 0.78041
 C43 C 0.49698 0.06881 0.72857
 C44 C 0.47484 0.00998 0.69892
 C45 C 0.44512 -0.05990 0.72205
 C46 C 0.43783 -0.06700 0.77400
 H47 H 0.41022 -0.11981 0.79207
 H48 H 0.52524 0.12189 0.71084
 O49 O 0.46393 0.71674 0.95863
 O50 O 0.42657 0.82519 0.96059
 C51 C 0.37677 0.85523 0.95698
 O52 O 0.30755 0.83325 0.98183
 O53 O 0.20581 0.72042 0.93726
 C54 C 0.18380 0.65933 0.91999
 O55 O 0.19262 0.60765 0.94282
 O56 O 0.35028 0.62694 0.93130
 C57 C 0.42730 0.67069 0.92696
 O58 O 0.43146 0.69432 1.05839
 O59 O 0.39579 0.80573 1.06140
 C60 C 0.32631 0.79245 1.08566
 O61 O 0.25398 0.75928 1.06836
 O62 O 0.14150 0.65226 1.02440
 C63 C 0.14156 0.59776 1.04754
 O64 O 0.19951 0.57664 1.04080
 O65 O 0.35568 0.59043 1.02599
 C66 C 0.40940 0.62796 1.05578
 Cr67 Cr 0.42577 0.75883 1.00960
 Cr68 Cr 0.22997 0.74004 1.00287
 Cr69 Cr 0.27528 0.60345 0.98584
 O70 O 0.31129 0.70071 0.99946
 O71 O 0.55776 0.34660 0.94667
 O72 O 0.54094 0.21711 0.94145
 C73 C 0.60080 0.20982 0.91837
 O74 O 0.67097 0.21972 0.93696
 O75 O 0.80732 0.31218 0.97589
 C76 C 0.82733 0.37505 0.95715
 O77 O 0.78834 0.41295 0.96820
 O78 O 0.65271 0.43523 0.98543
 C79 C 0.60098 0.41214 0.95158
 O80 O 0.51796 0.32375 1.04508
 O81 O 0.50442 0.19484 1.03894
 C82 C 0.53701 0.15115 1.04693
 O83 O 0.60849 0.15934 1.02865
 O84 O 0.73946 0.25487 1.06737
 C85 C 0.77919 0.31487 1.08541
 O86 O 0.78665 0.37282 1.06377
 O87 O 0.64292 0.38385 1.07847
 C88 C 0.56259 0.35725 1.08002
 Cr89 Cr 0.53449 0.27164 0.99353
 Cr90 Cr 0.70469 0.23861 1.00222
 Cr91 Cr 0.71537 0.39776 1.02336
 O92 O 0.65105 0.30222 1.00631
 O93 O 0.64599 0.38408 0.57702
 O94 O 0.78834 0.37233 0.56400
 C95 C 0.78226 0.31305 0.58353
 O96 O 0.74551 0.25389 0.56353
 O97 O 0.62266 0.16099 0.51423
 C98 C 0.55962 0.14992 0.54271
 O99 O 0.52231 0.19131 0.54158
 O100 O 0.52132 0.31690 0.54623
 C101 C 0.56595 0.35441 0.57994
 O102 O 0.65545 0.43329 0.48316
 O103 O 0.79437 0.41708 0.46767
 C104 C 0.83848 0.38293 0.45868
 O105 O 0.82205 0.32211 0.47876
 O106 O 0.69156 0.23737 0.43111
 C107 C 0.61768 0.21610 0.41480
 O108 O 0.55359 0.21307 0.44058
 O109 O 0.55809 0.34218 0.44658
 C110 C 0.60322 0.40867 0.44947
 Cr111 Cr 0.71926 0.39870 0.52238
 Cr112 Cr 0.71841 0.24536 0.49717
 Cr113 Cr 0.54221 0.26683 0.49395
 O114 O 0.65938 0.30404 0.50461
 O115 O 0.36971 0.58360 0.53661
 O116 O 0.21866 0.56989 0.51551
 C117 C 0.18725 0.59497 0.54835
 O118 O 0.20909 0.66150 0.55191
 O119 O 0.33018 0.79004 0.55918
 C120 C 0.38723 0.78620 0.58654
 O121 O 0.44199 0.76463 0.57193
 O122 O 0.49284 0.67781 0.52788
 C123 C 0.44595 0.61698 0.54736
 O124 O 0.42381 0.62775 0.44142
 O125 O 0.27294 0.61910 0.42319
 C126 C 0.22258 0.64896 0.41884
 O127 O 0.20981 0.68608 0.45191
 O128 O 0.33340 0.81067 0.45804
 C129 C 0.41145 0.85125 0.45776
 O130 O 0.46023 0.84039 0.48750
 O131 O 0.49655 0.74612 0.44161
 C132 C 0.47777 0.68688 0.42206
 Cr133 Cr 0.32240 0.60305 0.47976
 Cr134 Cr 0.27300 0.73608 0.50515
 Cr135 Cr 0.46935 0.75555 0.50692
 O136 O 0.35406 0.69793 0.49717
 C137 C 0.54687 0.64069 0.31315
 C138 C 0.57360 0.71282 0.30068
 C139 C 0.55643 0.74149 0.34160
 C140 C 0.51916 0.68467 0.37538
 O141 O 0.51355 0.62394 0.35847
 H142 H 0.60210 0.74136 0.26603
 H143 H 0.56589 0.79626 0.34548
 C144 C 0.47505 0.97343 0.35478
 C145 C 0.54795 1.00220 0.38102
 C146 C 0.53053 0.96359 0.42470
 C147 C 0.44911 0.91264 0.42206
 O148 O 0.41563 0.91766 0.37960
 H149 H 0.60934 1.04234 0.36861
 H150 H 0.57421 0.96860 0.45358
 C151 C 0.10592 0.58612 0.31392
 C152 C 0.14204 0.65831 0.29958
 C153 C 0.18695 0.69229 0.33854
 C154 C 0.17637 0.63878 0.37338
 O155 O 0.12794 0.57500 0.35870
 H156 H 0.13548 0.68400 0.26542
 H157 H 0.22523 0.74884 0.34059
 C158 C 0.57562 0.51190 0.34884
 C159 C 0.63575 0.56581 0.37344
 C160 C 0.64934 0.53407 0.41494
 C161 C 0.59864 0.46226 0.41277
 O162 O 0.55422 0.44826 0.37228
 H163 H 0.66882 0.62156 0.36169
 H164 H 0.69420 0.55999 0.44258
 C165 C 0.56386 0.12196 0.30691
 C166 C 0.63576 0.17945 0.28822
 C167 C 0.66392 0.22341 0.32607
 C168 C 0.60615 0.19114 0.36463
 O169 O 0.54507 0.13019 0.35319
 H170 H 0.66770 0.18641 0.25249
 H171 H 0.72118 0.27205 0.32613
 C172 C 0.97928 0.44851 0.35677
 C173 C 1.03315 0.43519 0.38808
 C174 C 0.98853 0.41232 0.43202
 C175 C 0.91112 0.41339 0.42397
 O176 O 0.90445 0.43334 0.37816
 H177 H 1.09558 0.43827 0.37919
 H178 H 1.00845 0.39415 0.46528
 C179 C 0.49909 0.42037 1.18331
 C180 C 0.41941 0.37774 1.16874
 C181 C 0.43232 0.34387 1.12944
 C182 C 0.51897 0.36915 1.12304
 O183 O 0.55954 0.41494 1.15601
 H184 H 0.35976 0.37589 1.18271
 H185 H 0.38471 0.30890 1.10619
 C186 C 0.88794 0.36903 1.19431
 C187 C 0.84155 0.29773 1.20918
 C188 C 0.79750 0.26605 1.16922
 C189 C 0.81910 0.31997 1.13309
 O190 O 0.87373 0.38162 1.14803
 H191 H 0.83970 0.27103 1.24456
 H192 H 0.75267 0.21110 1.16730
 C193 C 0.45943 0.03005 1.14825
 C194 C 0.38393 0.01226 1.12516
 C195 C 0.40434 0.05136 1.08142
 C196 C 0.49062 0.08989 1.08097
 O197 O 0.52408 0.07772 1.12152
 H198 H 0.32088 -0.02071 1.14011
 H199 H 0.36107 0.05527 1.05467
 C200 C 0.50167 0.55920 1.14608
 C201 C 0.53482 0.54167 1.10457
 C202 C 0.50124 0.56254 1.06553
 C203 C 0.45250 0.59363 1.08577
 O204 O 0.45338 0.59281 1.13452
 H205 H 0.58086 0.51934 1.10243
 H206 H 0.51376 0.55860 1.02678
 C207 C 0.00955 0.51121 1.15031
 C208 C -0.04664 0.53069 1.12561
 C209 C -0.00633 0.56150 1.08166
 C210 C 0.07163 0.55906 1.08320
 O211 O 0.08182 0.52928 1.12497
 H212 H -0.10740 0.52672 1.13933
 H213 H -0.02890 0.58658 1.05313
 C214 C 0.36663 0.88350 1.19539
 C215 C 0.28749 0.83195 1.20940
 C216 C 0.26248 0.78987 1.17023
 C217 C 0.32865 0.81828 1.13551
 O218 O 0.39211 0.87474 1.15076
 H219 H 0.25097 0.82744 1.24317
 H220 H 0.20251 0.74468 1.16690
 C221 C 0.50288 0.41289 0.68716
 C222 C 0.42682 0.35642 0.68006
 C223 C 0.44018 0.32564 0.63902
 C224 C 0.52350 0.36569 0.62422
 O225 O 0.56163 0.41861 0.65336
 H226 H 0.36763 0.34201 0.70073
 H227 H 0.39431 0.28061 0.62131
 C228 C 0.49727 0.02671 0.64524
 C229 C 0.54234 -0.00228 0.61829
 C230 C 0.56351 0.03585 0.57435
 C231 C 0.53241 0.08721 0.57776
 O232 O 0.49285 0.08229 0.62094
 H233 H 0.56263 -0.04308 0.63044
 H234 H 0.60313 0.03066 0.54484
 C235 C 0.89954 0.36147 0.68867
 C236 C 0.87162 0.28865 0.69736
 C237 C 0.82230 0.25898 0.65869
 C238 C 0.82373 0.31617 0.63000
 O239 O 0.86962 0.37791 0.64830
 H240 H 0.88708 0.26081 0.72747
 H241 H 0.79002 0.20289 0.65201
 C242 C 0.51189 0.55093 0.65007
 C243 C 0.58070 0.56289 0.61896
 C244 C 0.56231 0.58540 0.57489
 C245 C 0.48360 0.58501 0.58257
 O246 O 0.45311 0.56510 0.62832
 H247 H 0.63892 0.55902 0.62811
 H248 H 0.60275 0.60304 0.54172
 C249 C 0.42168 0.87744 0.69552
 C250 C 0.41987 0.81328 0.71465
 C251 C 0.40247 0.76976 0.67641
 C252 C 0.39271 0.80912 0.63700
 O253 O 0.40376 0.87407 0.64822
 H254 H 0.43575 0.80066 0.75101
 H255 H 0.40095 0.71675 0.67655
 C256 C 0.05214 0.49246 0.64848
 C257 C 0.04625 0.43797 0.61841
 C258 C 0.09109 0.47017 0.57622
 C259 C 0.12357 0.54218 0.58314
 O260 O 0.10090 0.55614 0.62701
 H261 H 0.01919 0.38115 0.62688
 H262 H 0.10333 0.44392 0.54521
 C263 C 0.50992 0.62578 0.82092
 C264 C 0.55858 0.69836 0.81647
 C265 C 0.53683 0.72510 0.85714
 C266 C 0.47546 0.66698 0.88276
 O267 O 0.45900 0.60672 0.86088
 H268 H 0.60544 0.72781 0.78761
 H269 H 0.56097 0.78039 0.86634
 C270 C 0.08319 0.58990 0.81223
 C271 C 0.10117 0.66048 0.79990
 C272 C 0.14053 0.69703 0.83948
 C273 C 0.14394 0.64586 0.87250
 O274 O 0.10952 0.58124 0.85608
 H275 H 0.08674 0.68247 0.76633
 H276 H 0.16477 0.75394 0.84352
 C277 C 0.43580 0.97668 0.85445
 C278 C 0.40533 1.01419 0.88463
 C279 C 0.38095 0.97458 0.92832
 C280 C 0.39906 0.91648 0.92179
 O281 O 0.43112 0.91714 0.87722
 H282 H 0.39589 1.06171 0.87503
 H283 H 0.35113 0.98546 0.96043
 C284 C 0.55870 0.50787 0.85434
 C285 C 0.61318 0.56528 0.87905
 C286 C 0.63337 0.53678 0.92000
 C287 C 0.59125 0.46413 0.91696
 O288 O 0.54636 0.44624 0.87714
 H289 H 0.63963 0.62120 0.86741
 H290 H 0.67665 0.56539 0.94762
 C291 C 0.96871 0.44513 0.85491
 C292 C 1.02002 0.42533 0.88411
 C293 C 0.97482 0.39890 0.92755
 C294 C 0.89952 0.40481 0.92156
 O295 O 0.89507 0.43203 0.87734
 H296 H 1.08095 0.42632 0.87381
 H297 H 0.99307 0.37566 0.95913
 C298 C 0.53114 0.12593 0.80892
 C299 C 0.53702 0.19273 0.79410
 C300 C 0.57184 0.23465 0.83219
 C301 C 0.58611 0.19097 0.86706
 O302 O 0.56156 0.12507 0.85316
 H303 H 0.51412 0.20818 0.76092
 H304 H 0.58049 0.28932 0.83567
   
