data_POSCAR
  _audit_creation_date              2014-09-24
  _audit_creation_method            'ToBaCCo'
  _symmetry_space_group_name_H-M    'P1'
  _symmetry_Int_Tables_number       1
  _symmetry_cell_setting            triclinic
  loop_
  _symmetry_equiv_pos_as_xyz
 x,y,z
_cell_length_a 34.6406
_cell_length_b 34.6251
_cell_length_c 34.6409
_cell_angle_alpha 90.028800
_cell_angle_beta 90.080300
_cell_angle_gamma 89.973500
loop_
  _atom_site_label
  _atom_site_type_symbol
  _atom_site_fract_x
  _atom_site_fract_y
  _atom_site_fract_z
C1 C 0.27880 0.24983 0.22100
 C2 C 0.25006 0.27847 0.22131
 C3 C 0.22127 0.27873 0.24984
 C4 C 0.22147 0.24985 0.27831
 C5 C 0.24996 0.22095 0.27849
 C6 C 0.27849 0.22120 0.24971
 H7 H 0.24950 0.30005 0.19868
 H8 H 0.19938 0.24985 0.30039
 H9 H 0.30114 0.19962 0.25027
 C10 C 0.72074 -0.25018 0.22100
 C11 C 0.74998 -0.27868 0.22152
 C12 C 0.77910 -0.27933 0.25015
 C13 C 0.77826 -0.25045 0.27888
 C14 C 0.74960 -0.22185 0.27915
 C15 C 0.72117 -0.22192 0.25033
 H16 H 0.74815 -0.30244 0.20142
 H17 H 0.80048 -0.24917 0.30077
 H18 H 0.70067 -0.19835 0.24995
 C19 C 0.72118 0.25079 0.77858
 C20 C 0.74991 0.27941 0.77840
 C21 C 0.77923 0.27989 0.75005
 C22 C 0.77872 0.25054 0.72166
 C23 C 0.75015 0.22175 0.72143
 C24 C 0.72154 0.22214 0.74999
 H25 H 0.74964 0.30061 0.80131
 H26 H 0.79922 0.25090 0.69815
 H27 H 0.70002 0.19945 0.75058
 C28 C 0.27860 -0.25033 0.77878
 C29 C 0.24977 -0.27885 0.77860
 C30 C 0.22044 -0.27937 0.75019
 C31 C 0.22098 -0.25010 0.72174
 C32 C 0.24965 -0.22141 0.72150
 C33 C 0.27828 -0.22176 0.75013
 H34 H 0.24936 -0.29931 0.80217
 H35 H 0.19980 -0.24984 0.69881
 H36 H 0.30099 -0.20027 0.74951
 C37 C 0.72116 -0.25004 0.77889
 C38 C 0.74997 -0.27859 0.77874
 C39 C 0.77928 -0.27908 0.75039
 C40 C 0.77874 -0.24977 0.72201
 C41 C 0.75014 -0.22100 0.72179
 C42 C 0.72149 -0.22139 0.75032
 H43 H 0.75038 -0.29909 0.80227
 H44 H 0.79925 -0.25014 0.69851
 H45 H 0.69935 -0.19929 0.75029
 C46 C 0.27850 0.24996 0.77848
 C47 C 0.24976 0.27859 0.77816
 C48 C 0.22095 0.27885 0.74959
 C49 C 0.22110 0.24997 0.72109
 C50 C 0.24959 0.22109 0.72093
 C51 C 0.27817 0.22133 0.74973
 H52 H 0.24923 0.30016 0.80081
 H53 H 0.19898 0.24997 0.69897
 H54 H 0.30082 0.19976 0.74919
 C55 C 0.27983 -0.25045 0.22030
 C56 C 0.25076 -0.27909 0.22101
 C57 C 0.22202 -0.27925 0.24958
 C58 C 0.22220 -0.25046 0.27801
 C59 C 0.25059 -0.22165 0.27818
 C60 C 0.27912 -0.22183 0.24942
 H61 H 0.24945 -0.30098 0.19880
 H62 H 0.19953 -0.24990 0.29953
 H63 H 0.30194 -0.20061 0.25136
 C64 C 0.72121 0.25008 0.22141
 C65 C 0.74999 0.27864 0.22168
 C66 C 0.77884 0.27887 0.25022
 C67 C 0.77865 0.25004 0.27874
 C68 C 0.75011 0.22124 0.27897
 C69 C 0.72151 0.22150 0.25018
 H70 H 0.75053 0.30016 0.19901
 H71 H 0.80020 0.25061 0.30143
 H72 H 0.69941 0.19938 0.25016
 O73 O 0.21831 0.03705 0.46205
 O74 O 0.21839 -0.03810 0.53730
 O75 O 0.21819 0.03712 0.53723
 O76 O 0.21846 -0.03817 0.46211
 O77 O 0.28230 -0.03806 0.46228
 O78 O 0.28203 0.03724 0.53740
 O79 O 0.28223 -0.03798 0.53748
 O80 O 0.28215 0.03716 0.46223
 Cu81 Cu 0.21189 -0.00054 0.49966
 Cu82 Cu 0.28862 -0.00040 0.49986
 C83 C 0.25022 0.04979 0.44944
 C84 C 0.25032 -0.05072 0.55010
 C85 C 0.25006 0.04989 0.54999
 C86 C 0.25043 -0.05081 0.44951
 O87 O 0.78187 0.03757 0.53787
 O88 O 0.78172 -0.03770 0.46266
 O89 O 0.78186 0.03753 0.46270
 O90 O 0.78179 -0.03765 0.53786
 O91 O 0.71794 -0.03753 0.53780
 O92 O 0.71802 0.03765 0.46264
 O93 O 0.71787 -0.03757 0.46261
 O94 O 0.71802 0.03769 0.53782
 Cu95 Cu 0.78825 -0.00008 0.50028
 Cu96 Cu 0.71152 0.00007 0.50021
 C97 C 0.74997 0.05033 0.55054
 C98 C 0.74977 -0.05033 0.44993
 C99 C 0.74995 0.05028 0.44999
 C100 C 0.74986 -0.05027 0.55052
 O101 O 0.46240 0.28180 0.03741
 O102 O 0.53752 0.28191 -0.03775
 O103 O 0.46234 0.28184 -0.03777
 O104 O 0.53758 0.28188 0.03743
 O105 O 0.53767 0.21800 0.03737
 O106 O 0.46243 0.21796 -0.03783
 O107 O 0.53762 0.21804 -0.03782
 O108 O 0.46249 0.21793 0.03735
 Cu109 Cu 0.49995 0.28830 -0.00017
 Cu110 Cu 0.50006 0.21154 -0.00024
 C111 C 0.44976 0.24985 0.05007
 C112 C 0.55025 0.24999 -0.05047
 C113 C 0.44968 0.24989 -0.05049
 C114 C 0.55032 0.24995 0.05009
 O115 O 0.53793 0.71801 0.03781
 O116 O 0.46267 0.71790 -0.03743
 O117 O 0.53785 0.71801 -0.03738
 O118 O 0.46275 0.71790 0.03775
 O119 O 0.46262 0.78177 0.03779
 O120 O 0.53773 0.78189 -0.03735
 O121 O 0.46254 0.78177 -0.03740
 O122 O 0.53781 0.78189 0.03784
 Cu123 Cu 0.50031 0.71151 0.00018
 Cu124 Cu 0.50016 0.78827 0.00022
 C125 C 0.55057 0.74997 0.05053
 C126 C 0.44990 0.74981 -0.05011
 C127 C 0.55046 0.74997 -0.05005
 C128 C 0.45001 0.74981 0.05045
 O129 O 0.03764 0.46272 0.28163
 O130 O -0.03759 0.53797 0.28168
 O131 O -0.03754 0.46274 0.28177
 O132 O 0.03761 0.53794 0.28159
 O133 O 0.03743 0.53786 0.21775
 O134 O -0.03772 0.46266 0.21792
 O135 O -0.03777 0.53789 0.21784
 O136 O 0.03745 0.46264 0.21779
 Cu137 Cu 0.00005 0.50036 0.28811
 Cu138 Cu -0.00017 0.50026 0.21138
 C139 C 0.05024 0.44998 0.24970
 C140 C -0.05039 0.55062 0.24977
 C141 C -0.05030 0.45000 0.24988
 C142 C 0.05022 0.55057 0.24965
 O143 O 0.03730 0.53801 0.71833
 O144 O -0.03794 0.46284 0.71815
 O145 O -0.03789 0.53807 0.71833
 O146 O 0.03724 0.46279 0.71811
 O147 O 0.03736 0.46266 0.78196
 O148 O -0.03778 0.53793 0.78218
 O149 O -0.03783 0.46271 0.78199
 O150 O 0.03741 0.53787 0.78217
 Cu151 Cu -0.00033 0.50044 0.71179
 Cu152 Cu -0.00020 0.50028 0.78852
 C153 C 0.05006 0.55062 0.75028
 C154 C -0.05058 0.45009 0.75004
 C155 C -0.05052 0.55070 0.75029
 C156 C 0.04998 0.45002 0.75000
 C157 C 0.36655 0.24980 0.13328
 C158 C 0.34963 0.21503 0.14497
 C159 C 0.32111 0.21500 0.17349
 C160 C 0.30911 0.24982 0.19070
 C161 C 0.32630 0.28462 0.17873
 C162 C 0.35483 0.28458 0.15022
 C163 C 0.39592 0.24979 0.10393
 C164 C 0.42051 0.24981 0.07933
 H165 H 0.35842 0.18795 0.13198
 H166 H 0.30809 0.18781 0.18174
 H167 H 0.31803 0.31182 0.19176
 H168 H 0.36781 0.31165 0.14146
 C169 C 0.63387 0.75001 0.13391
 C170 C 0.66992 0.73356 0.12653
 C171 C 0.69849 0.73343 0.15507
 C172 C 0.69166 0.74989 0.19187
 C173 C 0.65490 0.76646 0.19861
 C174 C 0.62644 0.76643 0.16996
 C175 C 0.60449 0.75002 0.10448
 C176 C 0.57987 0.75001 0.07984
 H177 H 0.67611 0.72104 0.09854
 H178 H 0.72637 0.72169 0.14734
 H179 H 0.64710 0.77818 0.22647
 H180 H 0.59845 0.77899 0.17610
 C181 C 0.63348 0.25022 -0.13367
 C182 C 0.62365 0.24292 -0.17219
 C183 C 0.65216 0.24306 -0.20072
 C184 C 0.69091 0.25058 -0.19108
 C185 C 0.70050 0.25784 -0.15226
 C186 C 0.67194 0.25766 -0.12377
 C187 C 0.60410 0.25011 -0.10433
 C188 C 0.57950 0.25005 -0.07974
 H189 H 0.59395 0.23721 -0.18019
 H190 H 0.64386 0.23778 -0.23041
 H191 H 0.73014 0.26316 -0.14385
 H192 H 0.67988 0.26322 -0.09402
 C193 C 0.36653 0.74973 -0.13342
 C194 C 0.35486 0.71496 -0.15042
 C195 C 0.32628 0.71491 -0.17895
 C196 C 0.30898 0.74971 -0.19089
 C197 C 0.32093 0.78452 -0.17363
 C198 C 0.34951 0.78449 -0.14508
 C199 C 0.39595 0.74974 -0.10403
 C200 C 0.42059 0.74976 -0.07941
 H201 H 0.36792 0.68790 -0.14168
 H202 H 0.31803 0.68772 -0.19203
 H203 H 0.30783 0.81170 -0.18185
 H204 H 0.35825 0.81156 -0.13204
 C205 C 0.13349 0.36661 0.24970
 C206 C 0.17190 0.37633 0.24183
 C207 C 0.20045 0.34777 0.24185
 C208 C 0.19094 0.30907 0.24978
 C209 C 0.15224 0.29961 0.25765
 C210 C 0.12373 0.32821 0.25759
 C211 C 0.10413 0.39604 0.24968
 C212 C 0.07952 0.42068 0.24968
 H213 H 0.17979 0.40599 0.23578
 H214 H 0.23004 0.35603 0.23615
 H215 H 0.14393 0.27001 0.26335
 H216 H 0.09407 0.32035 0.26361
 C217 C 0.13338 0.63385 0.75040
 C218 C 0.12601 0.66985 0.73382
 C219 C 0.15451 0.69842 0.73370
 C220 C 0.19128 0.69163 0.75030
 C221 C 0.19802 0.65490 0.76699
 C222 C 0.16940 0.62645 0.76695
 C223 C 0.10399 0.60447 0.75038
 C224 C 0.07936 0.57988 0.75034
 H225 H 0.09803 0.67601 0.72120
 H226 H 0.14671 0.72624 0.72188
 H227 H 0.22586 0.64712 0.77880
 H228 H 0.17554 0.59849 0.77960
 C229 C -0.13380 0.63383 0.24992
 C230 C -0.15182 0.64459 0.21548
 C231 C -0.18045 0.67305 0.21548
 C232 C -0.19178 0.69158 0.25012
 C233 C -0.17305 0.68019 0.28466
 C234 C -0.14449 0.65166 0.28446
 C235 C -0.10436 0.60448 0.24983
 C236 C -0.07971 0.57989 0.24979
 H237 H -0.14351 0.63118 0.18847
 H238 H -0.19236 0.68138 0.18784
 H239 H -0.18128 0.69190 0.31239
 H240 H -0.13093 0.64328 0.31139
 C241 C -0.13387 0.36684 0.74993
 C242 C -0.12651 0.33077 0.73347
 C243 C -0.15499 0.30219 0.73341
 C244 C -0.19173 0.30901 0.74998
 C245 C -0.19848 0.34582 0.76651
 C246 C -0.16988 0.37429 0.76641
 C247 C -0.10448 0.39621 0.74995
 C248 C -0.07986 0.42081 0.74998
 H249 H -0.09855 0.32457 0.72090
 H250 H -0.14724 0.27431 0.72167
 H251 H -0.22629 0.35367 0.77824
 H252 H -0.17601 0.40229 0.77896
 C253 C 0.25013 0.13310 0.36621
 C254 C 0.25802 0.12337 0.32781
 C255 C 0.25799 0.15191 0.29927
 C256 C 0.25003 0.19062 0.30880
 C257 C 0.24214 0.20010 0.34751
 C258 C 0.24221 0.17151 0.37600
 C259 C 0.25016 0.10369 0.39556
 C260 C 0.25019 0.07907 0.42016
 H261 H 0.26410 0.09370 0.31990
 H262 H 0.26371 0.14365 0.26968
 H263 H 0.23642 0.22970 0.35584
 H264 H 0.23617 0.17937 0.40566
 C265 C 0.75007 0.13376 0.63374
 C266 C 0.71534 0.15087 0.64528
 C267 C 0.71533 0.17947 0.67379
 C268 C 0.75012 0.19136 0.69113
 C269 C 0.78488 0.17398 0.67930
 C270 C 0.78482 0.14537 0.65081
 C271 C 0.75004 0.10431 0.60440
 C272 C 0.75002 0.07965 0.57980
 H273 H 0.68829 0.14217 0.63219
 H274 H 0.68817 0.19264 0.68193
 H275 H 0.81206 0.18218 0.69244
 H276 H 0.81186 0.13224 0.64216
 C277 C 0.25027 -0.13386 0.63349
 C278 C 0.24284 -0.17236 0.62370
 C279 C 0.24265 -0.20087 0.65227
 C280 C 0.24992 -0.19120 0.69107
 C281 C 0.25745 -0.15242 0.70060
 C282 C 0.25760 -0.12396 0.67199
 C283 C 0.25033 -0.10452 0.60407
 C284 C 0.25034 -0.07995 0.57942
 H285 H 0.23726 -0.18037 0.59397
 H286 H 0.23732 -0.23054 0.64395
 H287 H 0.26274 -0.14405 0.73027
 H288 H 0.26331 -0.09422 0.67990
 C289 C 0.74966 -0.13369 0.36666
 C290 C 0.78428 -0.14465 0.34897
 C291 C 0.78432 -0.17329 0.32050
 C292 C 0.74967 -0.19135 0.30934
 C293 C 0.71500 -0.18005 0.32723
 C294 C 0.71504 -0.15143 0.35571
 C295 C 0.74968 -0.10426 0.39603
 C296 C 0.74971 -0.07963 0.42064
 H297 H 0.81122 -0.13101 0.35713
 H298 H 0.81137 -0.18096 0.30687
 H299 H 0.68795 -0.19371 0.31951
 H300 H 0.68808 -0.14321 0.36926
 C301 C 0.63357 0.75003 -0.13331
 C302 C 0.64491 0.71530 -0.15060
 C303 C 0.67340 0.71527 -0.17914
 C304 C 0.69090 0.75002 -0.19078
 C305 C 0.67928 0.78478 -0.17322
 C306 C 0.65080 0.78475 -0.14466
 C307 C 0.60426 0.75002 -0.10392
 C308 C 0.57969 0.75001 -0.07931
 H309 H 0.63168 0.68828 -0.14208
 H310 H 0.68142 0.68812 -0.19245
 H311 H 0.69257 0.81192 -0.18120
 H312 H 0.64230 0.81177 -0.13138
 C313 C 0.36634 0.24990 -0.13373
 C314 C 0.34936 0.21514 -0.14543
 C315 C 0.32080 0.21513 -0.17398
 C316 C 0.30883 0.24994 -0.19119
 C317 C 0.32608 0.28474 -0.17921
 C318 C 0.35466 0.28468 -0.15068
 C319 C 0.39575 0.24987 -0.10437
 C320 C 0.42039 0.24987 -0.07976
 H321 H 0.35813 0.18807 -0.13242
 H322 H 0.30772 0.18795 -0.18224
 H323 H 0.31783 0.31193 -0.19227
 H324 H 0.36770 0.31174 -0.14190
 C325 C 0.36679 0.74967 0.13360
 C326 C 0.34872 0.71519 0.14401
 C327 C 0.32014 0.71503 0.17245
 C328 C 0.30894 0.74956 0.19130
 C329 C 0.32773 0.78414 0.18025
 C330 C 0.35624 0.78409 0.15174
 C331 C 0.39617 0.74971 0.10427
 C332 C 0.42077 0.74976 0.07970
 H333 H 0.35694 0.68826 0.13034
 H334 H 0.30823 0.68733 0.18048
 H335 H 0.31960 0.81179 0.19225
 H336 H 0.36986 0.81106 0.14364
 C337 C 0.63358 0.25000 0.13342
 C338 C 0.65068 0.21526 0.14501
 C339 C 0.67918 0.21524 0.17362
 C340 C 0.69095 0.25003 0.19101
 C341 C 0.67360 0.28482 0.17913
 C342 C 0.64509 0.28476 0.15053
 C343 C 0.60422 0.24998 0.10400
 C344 C 0.57961 0.24996 0.07937
 H345 H 0.64205 0.18820 0.13186
 H346 H 0.69236 0.18807 0.18178
 H347 H 0.68173 0.31199 0.19231
 H348 H 0.63196 0.31181 0.14184
 C349 C -0.13376 0.63402 0.75044
 C350 C -0.12643 0.67001 0.73384
 C351 C -0.15493 0.69860 0.73376
 C352 C -0.19162 0.69185 0.75042
 C353 C -0.19831 0.65513 0.76711
 C354 C -0.16971 0.62665 0.76704
 C355 C -0.10438 0.60463 0.75041
 C356 C -0.07978 0.58000 0.75037
 H357 H -0.09851 0.67613 0.72118
 H358 H -0.14721 0.72642 0.72190
 H359 H -0.22611 0.64738 0.77896
 H360 H -0.17580 0.59870 0.77970
 C361 C -0.13346 0.36669 0.25013
 C362 C -0.12370 0.32833 0.25831
 C363 C -0.15220 0.29975 0.25838
 C364 C -0.19088 0.30921 0.25024
 C365 C -0.20039 0.34787 0.24206
 C366 C -0.17184 0.37640 0.24203
 C367 C -0.10411 0.39607 0.25003
 C368 C -0.07954 0.42070 0.24995
 H369 H -0.09405 0.32049 0.26452
 H370 H -0.14391 0.27018 0.26430
 H371 H -0.22997 0.35612 0.23617
 H372 H -0.17973 0.40603 0.23576
 C373 C 0.13318 0.36667 0.74979
 C374 C 0.17160 0.37641 0.75765
 C375 C 0.20015 0.34787 0.75760
 C376 C 0.19062 0.30917 0.74965
 C377 C 0.15190 0.29968 0.74179
 C378 C 0.12339 0.32827 0.74188
 C379 C 0.10382 0.39607 0.74984
 C380 C 0.07923 0.42071 0.74990
 H381 H 0.17950 0.40607 0.76371
 H382 H 0.22976 0.35613 0.76330
 H383 H 0.14359 0.27008 0.73608
 H384 H 0.09372 0.32040 0.73587
 C385 C 0.13371 0.63356 0.24955
 C386 C 0.15138 0.64456 0.28420
 C387 C 0.18008 0.67293 0.28422
 C388 C 0.19150 0.69064 0.24952
 C389 C 0.17352 0.67941 0.21484
 C390 C 0.14481 0.65105 0.21490
 C391 C 0.10421 0.60432 0.24956
 C392 C 0.07954 0.57979 0.24959
 H393 H 0.14306 0.63114 0.31118
 H394 H 0.19369 0.68069 0.31130
 H395 H 0.18130 0.69292 0.18776
 H396 H 0.13122 0.64283 0.18793
 C397 C 0.74991 -0.13341 0.63387
 C398 C 0.71524 -0.15073 0.64520
 C399 C 0.71526 -0.17921 0.67379
 C400 C 0.75002 -0.19074 0.69142
 C401 C 0.78473 -0.17316 0.67980
 C402 C 0.78463 -0.14467 0.65122
 C403 C 0.74986 -0.10409 0.60445
 C404 C 0.74984 -0.07952 0.57981
 H405 H 0.68821 -0.14230 0.63187
 H406 H 0.68816 -0.19257 0.68176
 H407 H 0.81187 -0.18112 0.69316
 H408 H 0.81162 -0.13138 0.64272
 C409 C 0.25062 -0.13402 0.36617
 C410 C 0.25847 -0.12419 0.32780
 C411 C 0.25849 -0.15266 0.29918
 C412 C 0.25062 -0.19139 0.30859
 C413 C 0.24275 -0.20098 0.34726
 C414 C 0.24277 -0.17246 0.37584
 C415 C 0.25058 -0.10468 0.39559
 C416 C 0.25052 -0.08009 0.42023
 H417 H 0.26448 -0.09450 0.31999
 H418 H 0.26418 -0.14432 0.26960
 H419 H 0.23707 -0.23060 0.35547
 H420 H 0.23676 -0.18040 0.40548
 C421 C 0.75006 0.13359 0.36682
 C422 C 0.78480 0.14511 0.34980
 C423 C 0.78485 0.17364 0.32126
 C424 C 0.75009 0.19101 0.30935
 C425 C 0.71531 0.17923 0.32668
 C426 C 0.71533 0.15071 0.35523
 C427 C 0.75003 0.10420 0.39617
 C428 C 0.74998 0.07957 0.42075
 H429 H 0.81184 0.13197 0.35850
 H430 H 0.81201 0.18177 0.30813
 H431 H 0.68816 0.19242 0.31850
 H432 H 0.68829 0.14208 0.36831
 C433 C 0.24979 0.13326 0.63317
 C434 C 0.24188 0.17166 0.62338
 C435 C 0.24178 0.20025 0.65188
 C436 C 0.24964 0.19077 0.69060
 C437 C 0.25757 0.15206 0.70014
 C438 C 0.25763 0.12352 0.67159
 C439 C 0.24987 0.10385 0.60381
 C440 C 0.24995 0.07921 0.57922
 H441 H 0.23589 0.17952 0.59369
 H442 H 0.23608 0.22985 0.64357
 H443 H 0.26326 0.14380 0.72975
 H444 H 0.26369 0.09386 0.67949
   
