data_POSCAR
  _audit_creation_date              2014-09-24
  _audit_creation_method            'ToBaCCo'
  _symmetry_space_group_name_H-M    'P1'
  _symmetry_Int_Tables_number       1
  _symmetry_cell_setting            triclinic
  loop_
  _symmetry_equiv_pos_as_xyz
 x,y,z
_cell_length_a 37.8840
_cell_length_b 37.9172
_cell_length_c 41.7195
_cell_angle_alpha 89.878400
_cell_angle_beta 90.081100
_cell_angle_gamma 120.122900
loop_
  _atom_site_label
  _atom_site_type_symbol
  _atom_site_fract_x
  _atom_site_fract_y
  _atom_site_fract_z
C1 C 0.03660 0.51593 1.31837
 C2 C -0.00055 0.49739 1.33481
 C3 C -0.03770 0.47875 1.31837
 C4 C -0.03811 0.47845 1.28445
 C5 C -0.00058 0.49718 1.26745
 C6 C 0.03697 0.51601 1.28445
 C7 C 0.07378 0.53438 1.26707
 C8 C 0.07375 0.53427 1.23371
 C9 C 0.03693 0.51580 1.21641
 C10 C -0.00060 0.49707 1.23339
 C11 C -0.07494 0.45997 1.26707
 C12 C -0.07494 0.45988 1.23371
 C13 C -0.03812 0.47825 1.21636
 C14 C -0.03768 0.47839 1.18243
 C15 C -0.00049 0.49695 1.16605
 C16 C 0.03657 0.51554 1.18255
 H17 H 0.10302 0.54905 1.27917
 H18 H 0.10293 0.54885 1.22155
 H19 H -0.10416 0.44539 1.27917
 H20 H -0.10416 0.44523 1.22157
 H21 H -0.00054 0.49747 1.36087
 H22 H -0.00031 0.49699 1.14001
 C23 C 0.52153 0.48406 1.18259
 C24 C 0.50301 0.50257 1.16608
 C25 C 0.48446 0.52104 1.18247
 C26 C 0.48422 0.52121 1.21634
 C27 C 0.50294 0.50249 1.23340
 C28 C 0.52169 0.48383 1.21646
 C29 C 0.54006 0.46546 1.23381
 C30 C 0.54002 0.46540 1.26719
 C31 C 0.52160 0.48373 1.28450
 C32 C 0.50289 0.50245 1.26743
 C33 C 0.46580 0.53953 1.23357
 C34 C 0.46575 0.53949 1.26695
 C35 C 0.48411 0.52112 1.28433
 C36 C 0.48421 0.52090 1.31819
 C37 C 0.50270 0.50241 1.33476
 C38 C 0.52132 0.48390 1.31843
 H39 H 0.55465 0.45093 1.22170
 H40 H 0.55460 0.45082 1.27935
 H41 H 0.45124 0.55409 1.22136
 H42 H 0.45114 0.55402 1.27903
 H43 H 0.50303 0.50260 1.14006
 H44 H 0.50256 0.50245 1.36080
 C45 C 0.47844 0.96321 1.31849
 C46 C 0.49696 1.00030 1.33495
 C47 C 0.51564 1.03747 1.31851
 C48 C 0.51599 1.03795 1.28458
 C49 C 0.49728 1.00048 1.26757
 C50 C 0.47840 0.96292 1.28456
 C51 C 0.46007 0.92618 1.26716
 C52 C 0.46024 0.92628 1.23379
 C53 C 0.47875 0.96310 1.21650
 C54 C 0.49745 1.00056 1.23350
 C55 C 0.53450 1.07477 1.26721
 C56 C 0.53466 1.07484 1.23384
 C57 C 0.51632 1.03809 1.21648
 C58 C 0.51627 1.03773 1.18254
 C59 C 0.49773 1.00060 1.16614
 C60 C 0.47909 0.96352 1.18263
 H61 H 0.44538 0.89694 1.27925
 H62 H 0.44569 0.89715 1.22163
 H63 H 0.54907 1.10394 1.27932
 H64 H 0.54935 1.10406 1.22172
 H65 H 0.49684 1.00023 1.36100
 H66 H 0.49777 1.00047 1.14010
 C67 C 1.03843 0.52192 0.81775
 C68 C 1.00126 0.50323 0.83417
 C69 C 0.96415 0.48461 0.81771
 C70 C 0.96374 0.48445 0.78385
 C71 C 1.00125 0.50331 0.76683
 C72 C 1.03881 0.52215 0.78381
 C73 C 1.07559 0.54064 0.76641
 C74 C 1.07552 0.54063 0.73303
 C75 C 1.03865 0.52214 0.71571
 C76 C 1.00117 0.50331 0.73277
 C77 C 0.92689 0.46597 0.76657
 C78 C 0.92681 0.46598 0.73320
 C79 C 0.96359 0.48446 0.71584
 C80 C 0.96384 0.48462 0.68198
 C81 C 1.00087 0.50322 0.66543
 C82 C 1.03811 0.52189 0.68177
 H83 H 1.10483 0.55531 0.77850
 H84 H 1.10470 0.55529 0.72087
 H85 H 0.89772 0.45131 0.77875
 H86 H 0.89759 0.45132 0.72108
 H87 H 1.00112 0.50313 0.86021
 H88 H 1.00061 0.50311 0.63939
 C89 C 0.47906 0.51582 0.81767
 C90 C 0.49759 0.49728 0.83414
 C91 C 0.51600 0.47868 0.81771
 C92 C 0.51609 0.47843 0.78384
 C93 C 0.49736 0.49717 0.76683
 C94 C 0.47874 0.51596 0.78380
 C95 C 0.46036 0.53434 0.76647
 C96 C 0.46024 0.53429 0.73309
 C97 C 0.47851 0.51585 0.71579
 C98 C 0.49725 0.49712 0.73280
 C99 C 0.53436 0.46000 0.76654
 C100 C 0.53426 0.45996 0.73316
 C101 C 0.51588 0.47834 0.71583
 C102 C 0.51558 0.47851 0.68195
 C103 C 0.49704 0.49704 0.66549
 C104 C 0.47860 0.51561 0.68192
 H105 H 0.44587 0.54896 0.77861
 H106 H 0.44567 0.54886 0.72092
 H107 H 0.54893 0.44542 0.77871
 H108 H 0.54875 0.44535 0.72101
 H109 H 0.49768 0.49732 0.86016
 H110 H 0.49696 0.49701 0.63947
 C111 C 0.48404 -0.03771 0.81832
 C112 C 0.50267 -0.00059 0.83472
 C113 C 0.52121 0.03648 0.81823
 C114 C 0.52136 0.03691 0.78437
 C115 C 0.50256 -0.00055 0.76740
 C116 C 0.48379 -0.03809 0.78440
 C117 C 0.46534 -0.07484 0.76701
 C118 C 0.46532 -0.07474 0.73364
 C119 C 0.48374 -0.03790 0.71636
 C120 C 0.50253 -0.00047 0.73337
 C121 C 0.53977 0.07374 0.76706
 C122 C 0.53973 0.07381 0.73369
 C123 C 0.52129 0.03706 0.71638
 C124 C 0.52104 0.03674 0.68252
 C125 C 0.50245 -0.00029 0.66606
 C126 C 0.48390 -0.03741 0.68250
 H127 H 0.45073 -0.10407 0.77912
 H128 H 0.45071 -0.10386 0.72146
 H129 H 0.55439 0.10289 0.77921
 H130 H 0.55433 0.10300 0.72153
 H131 H 0.50277 -0.00046 0.86076
 H132 H 0.50242 -0.00022 0.64004
 O133 O 0.39501 0.65778 0.97298
 O134 O 0.39338 0.72501 0.96309
 C135 C 0.37429 0.74378 0.95742
 O136 O 0.34288 0.73777 0.97287
 O137 O 0.27552 0.66881 0.96294
 C138 C 0.25669 0.63093 0.95726
 O139 O 0.26260 0.60548 0.97274
 O140 O 0.33162 0.60732 0.96298
 C141 C 0.36958 0.62643 0.95745
 O142 O 0.39320 0.66880 1.03667
 O143 O 0.39499 0.73775 1.02678
 C144 C 0.36953 0.74362 1.04223
 O145 O 0.33160 0.72475 1.03656
 O146 O 0.26259 0.65744 1.02664
 C147 C 0.25661 0.62603 1.04211
 O148 O 0.27539 0.60697 1.03646
 O149 O 0.34271 0.60546 1.02669
 C150 C 0.37408 0.63087 1.04223
 Cr151 Cr 0.39184 0.69618 0.99988
 Cr152 Cr 0.30430 0.69604 0.99975
 Cr153 Cr 0.30423 0.60861 0.99972
 O154 O 0.33345 0.66695 0.99978
 O155 O 0.60734 0.33108 0.96382
 O156 O 0.60565 0.26222 0.97383
 C157 C 0.63110 0.25634 0.95839
 O158 O 0.66904 0.27517 0.96404
 O159 O 0.73809 0.34249 0.97384
 C160 C 0.74403 0.37381 0.95824
 O161 O 0.72520 0.39284 0.96376
 O162 O 0.65792 0.39446 0.97354
 C163 C 0.62646 0.36898 0.95811
 O164 O 0.60575 0.34231 1.02750
 O165 O 0.60734 0.27509 1.03752
 C166 C 0.62640 0.25629 1.04320
 O167 O 0.65781 0.26229 1.02775
 O168 O 0.72515 0.33133 1.03755
 C169 C 0.74402 0.36924 1.04308
 O170 O 0.73813 0.39463 1.02748
 O171 O 0.66917 0.39289 1.03725
 C172 C 0.63124 0.37375 1.04290
 Cr173 Cr 0.60882 0.30383 1.00067
 Cr174 Cr 0.69637 0.30397 1.00079
 Cr175 Cr 0.69646 0.39141 1.00051
 O176 O 0.66721 0.33307 1.00066
 O177 O 0.65716 0.39458 0.52624
 O178 O 0.72448 0.39302 0.53611
 C179 C 0.74334 0.37401 0.54170
 O180 O 0.73740 0.34272 0.52618
 O181 O 0.66840 0.27538 0.53610
 C182 C 0.63047 0.25652 0.54176
 O183 O 0.60498 0.26235 0.52626
 O184 O 0.60662 0.33118 0.53607
 C185 C 0.62573 0.36907 0.54170
 O186 O 0.66832 0.39307 0.46255
 O187 O 0.73733 0.39486 0.47240
 C188 C 0.74327 0.36950 0.45691
 O189 O 0.72440 0.33157 0.46250
 O190 O 0.65708 0.26249 0.47242
 C191 C 0.62562 0.25643 0.45696
 O192 O 0.60656 0.27523 0.46253
 O193 O 0.60493 0.34244 0.47236
 C194 C 0.63038 0.37393 0.45693
 Cr195 Cr 0.69567 0.39158 0.49932
 Cr196 Cr 0.69567 0.30418 0.49930
 Cr197 Cr 0.60808 0.30396 0.49930
 O198 O 0.66647 0.33324 0.49930
 O199 O 0.33066 0.60701 0.53625
 O200 O 0.26168 0.60527 0.52640
 C201 C 0.25581 0.63070 0.54184
 O202 O 0.27465 0.66859 0.53612
 O203 O 0.34206 0.73753 0.52622
 C204 C 0.37342 0.74341 0.54172
 O205 O 0.39250 0.72465 0.53608
 O206 O 0.39406 0.65743 0.52624
 C207 C 0.36862 0.62607 0.54179
 O208 O 0.34174 0.60533 0.47256
 O209 O 0.27443 0.60693 0.46270
 C210 C 0.25566 0.62602 0.45702
 O211 O 0.26173 0.65744 0.47242
 O212 O 0.33080 0.72478 0.46251
 C213 C 0.36874 0.74367 0.45692
 O214 O 0.39415 0.73766 0.47239
 O215 O 0.39228 0.66868 0.46255
 C216 C 0.37315 0.63076 0.45704
 Cr217 Cr 0.30328 0.60843 0.49947
 Cr218 Cr 0.30345 0.69593 0.49932
 Cr219 Cr 0.39095 0.69596 0.49931
 O220 O 0.33255 0.66677 0.49936
 C221 C 0.46566 0.53931 0.33693
 C222 C 0.45050 0.55432 0.35333
 C223 C 0.43316 0.57148 0.37343
 C224 C 0.41873 0.58575 0.39138
 C225 C 0.40232 0.60197 0.41332
 C226 C 0.38874 0.61538 0.43285
 C227 C 0.46084 0.92813 0.33631
 C228 C 0.44567 0.89787 0.35278
 C229 C 0.42836 0.86330 0.37299
 C230 C 0.41399 0.83455 0.39103
 C231 C 0.39766 0.80183 0.41308
 C232 C 0.38419 0.77476 0.43267
 C233 C 0.07165 0.53352 0.33619
 C234 C 0.10188 0.54870 0.35267
 C235 C 0.13639 0.56604 0.37291
 C236 C 0.16508 0.58045 0.39099
 C237 C 0.19770 0.59685 0.41309
 C238 C 0.22467 0.61042 0.43274
 C239 C 0.53876 0.46640 0.33633
 C240 C 0.55381 0.45128 0.35283
 C241 C 0.57102 0.43397 0.37303
 C242 C 0.58531 0.41956 0.39106
 C243 C 0.60156 0.40315 0.41310
 C244 C 0.61499 0.38956 0.43269
 C245 C 0.53314 0.07246 0.33635
 C246 C 0.54825 0.10264 0.35284
 C247 C 0.56553 0.13712 0.37306
 C248 C 0.57993 0.16579 0.39111
 C249 C 0.59634 0.19843 0.41315
 C250 C 0.60995 0.22542 0.43273
 C251 C 0.92726 0.46128 0.33618
 C252 C 0.89703 0.44621 0.35265
 C253 C 0.86252 0.42900 0.37286
 C254 C 0.83383 0.41469 0.39092
 C255 C 0.80121 0.39842 0.41300
 C256 C 0.77424 0.38496 0.43263
 C257 C 0.53999 0.46562 1.16379
 C258 C 0.55502 0.45059 1.14728
 C259 C 0.57217 0.43339 1.12701
 C260 C 0.58641 0.41909 1.10892
 C261 C 0.60258 0.40279 1.08681
 C262 C 0.61593 0.38929 1.06717
 C263 C 0.92732 0.46086 1.16456
 C264 C 0.89717 0.44577 1.14799
 C265 C 0.86278 0.42856 1.12763
 C266 C 0.83421 0.41428 1.10943
 C267 C 0.80175 0.39806 1.08719
 C268 C 0.77489 0.38465 1.06745
 C269 C 0.53389 0.07275 1.16466
 C270 C 0.54908 0.10292 1.14808
 C271 C 0.56642 0.13734 1.12771
 C272 C 0.58082 0.16593 1.10952
 C273 C 0.59722 0.19845 1.08730
 C274 C 0.61079 0.22536 1.06757
 C275 C 0.46598 0.53947 1.16356
 C276 C 0.45091 0.55449 1.14696
 C277 C 0.43369 0.57163 1.12661
 C278 C 0.41936 0.58588 1.10845
 C279 C 0.40307 0.60208 1.08627
 C280 C 0.38958 0.61548 1.06657
 C281 C 0.07358 0.53405 1.16371
 C282 C 0.10368 0.54911 1.14712
 C283 C 0.13801 0.56632 1.12672
 C284 C 0.16653 0.58063 1.10849
 C285 C 0.19894 0.59693 1.08623
 C286 C 0.22576 0.61045 1.06648
 C287 C 0.46066 0.92656 1.16377
 C288 C 0.44567 0.89651 1.14716
 C289 C 0.42858 0.86220 1.12676
 C290 C 0.41438 0.83371 1.10854
 C291 C 0.39824 0.80129 1.08631
 C292 C 0.38488 0.77447 1.06658
 C293 C 0.53399 0.46004 0.66309
 C294 C 0.54899 0.44503 0.64650
 C295 C 0.56615 0.42793 0.62613
 C296 C 0.58043 0.41373 0.60795
 C297 C 0.59670 0.39762 0.58574
 C298 C 0.61019 0.38432 0.56604
 C299 C 0.53950 0.07372 0.66366
 C300 C 0.55450 0.10380 0.64703
 C301 C 0.57159 0.13811 0.62660
 C302 C 0.58577 0.16660 0.60833
 C303 C 0.60187 0.19896 0.58601
 C304 C 0.61518 0.22573 0.56620
 C305 C 0.92677 0.46604 0.66317
 C306 C 0.89662 0.45092 0.64660
 C307 C 0.86222 0.43367 0.62622
 C308 C 0.83365 0.41934 0.60802
 C309 C 0.80115 0.40304 0.58579
 C310 C 0.77426 0.38954 0.56606
 C311 C 0.46013 0.53409 0.66303
 C312 C 0.44509 0.54915 0.64645
 C313 C 0.42791 0.56636 0.62611
 C314 C 0.41364 0.58069 0.60795
 C315 C 0.39742 0.59700 0.58579
 C316 C 0.38401 0.61051 0.56611
 C317 C 0.46536 0.92571 0.66361
 C318 C 0.45026 0.89571 0.64697
 C319 C 0.43303 0.86150 0.62653
 C320 C 0.41872 0.83310 0.60825
 C321 C 0.40243 0.80082 0.58594
 C322 C 0.38895 0.77412 0.56614
 C323 C 0.07306 0.53941 0.66384
 C324 C 0.10314 0.55448 0.64719
 C325 C 0.13742 0.57164 0.62671
 C326 C 0.16588 0.58586 0.60842
 C327 C 0.19823 0.60202 0.58608
 C328 C 0.22500 0.61537 0.56627
 C329 C 0.46073 0.53437 0.83652
 C330 C 0.44579 0.54949 0.85307
 C331 C 0.42873 0.56677 0.87336
 C332 C 0.41453 0.58112 0.89146
 C333 C 0.39837 0.59745 0.91356
 C334 C 0.38499 0.61095 0.93319
 C335 C 0.07347 0.53949 0.83560
 C336 C 0.10362 0.55460 0.85218
 C337 C 0.13801 0.57181 0.87257
 C338 C 0.16655 0.58608 0.89080
 C339 C 0.19900 0.60226 0.91308
 C340 C 0.22583 0.61562 0.93285
 C341 C 0.46651 0.92728 0.83617
 C342 C 0.45138 0.89711 0.85270
 C343 C 0.43411 0.86267 0.87301
 C344 C 0.41974 0.83407 0.89116
 C345 C 0.40340 0.80156 0.91336
 C346 C 0.38987 0.77468 0.93307
 C347 C 0.53448 0.46021 0.83661
 C348 C 0.54953 0.44518 0.85321
 C349 C 0.56673 0.42803 0.87360
 C350 C 0.58105 0.41379 0.89179
 C351 C 0.59736 0.39763 0.91401
 C352 C 0.61088 0.38428 0.93374
 C353 C 0.92716 0.46599 0.83659
 C354 C 0.89708 0.45084 0.85322
 C355 C 0.86274 0.43355 0.87365
 C356 C 0.83422 0.41919 0.89188
 C357 C 0.80178 0.40285 0.91414
 C358 C 0.77492 0.38934 0.93388
 C359 C 0.53971 0.07342 0.83706
 C360 C 0.55477 0.10349 0.85362
 C361 C 0.57193 0.13781 0.87396
 C362 C 0.58618 0.16631 0.89214
 C363 C 0.60237 0.19871 0.91434
 C364 C 0.61574 0.22552 0.93406
   
