data_POSCAR
  _audit_creation_date              2014-09-24
  _audit_creation_method            'ToBaCCo'
  _symmetry_space_group_name_H-M    'P1'
  _symmetry_Int_Tables_number       1
  _symmetry_cell_setting            triclinic
  loop_
  _symmetry_equiv_pos_as_xyz
 x,y,z
_cell_length_a 29.7054
_cell_length_b 29.5161
_cell_length_c 8.2811
_cell_angle_alpha 90.783300
_cell_angle_beta 90.086100
_cell_angle_gamma 90.142700
loop_
  _atom_site_label
  _atom_site_type_symbol
  _atom_site_fract_x
  _atom_site_fract_y
  _atom_site_fract_z
O1 O 0.30383 0.20832 0.19003
 O2 O 0.21091 0.28543 0.09250
 O3 O 0.29456 0.29585 0.18070
 O4 O 0.21976 0.19768 0.10906
 O5 O 0.19866 0.20240 0.36163
 O6 O 0.27660 0.29620 0.43908
 O7 O 0.19334 0.28982 0.35135
 O8 O 0.28385 0.20882 0.44631
 Cu9 Cu 0.25933 0.24656 0.11759
 Cu10 Cu 0.23602 0.24918 0.42501
 C11 C 0.31024 0.19581 0.33412
 C12 C 0.18642 0.30097 0.20588
 C13 C 0.29830 0.31275 0.32210
 C14 C 0.19542 0.18345 0.22423
 O15 O 0.79697 0.29520 0.33382
 O16 O 0.72501 0.19640 0.41304
 O17 O 0.80746 0.20802 0.31375
 O18 O 0.71455 0.28376 0.43140
 O19 O 0.69248 0.28612 0.17670
 O20 O 0.78179 0.20657 0.06374
 O21 O 0.69948 0.19812 0.16440
 O22 O 0.77525 0.29420 0.07918
 Cu23 Cu 0.76329 0.24578 0.39825
 Cu24 Cu 0.73475 0.24629 0.09571
 C25 C 0.79869 0.31153 0.19283
 C26 C 0.69989 0.17991 0.30288
 C27 C 0.81060 0.19451 0.16787
 C28 C 0.68797 0.29803 0.32343
 O29 O 0.80344 0.70511 0.66879
 O30 O 0.71158 0.78298 0.56046
 O31 O 0.79668 0.79183 0.63205
 O32 O 0.71884 0.69634 0.59383
 O33 O 0.70329 0.70197 0.85412
 O34 O 0.77844 0.80140 0.88633
 O35 O 0.69400 0.78884 0.81853
 O36 O 0.78810 0.71409 0.92770
 Cu37 Cu 0.75957 0.74326 0.58862
 Cu38 Cu 0.73924 0.75232 0.89735
 C39 C 0.81205 0.69689 0.81568
 C40 C 0.68638 0.79849 0.67218
 C41 C 0.80064 0.81394 0.76329
 C42 C 0.69787 0.68276 0.71730
 O43 O 0.29847 0.79662 0.84279
 O44 O 0.22209 0.70238 0.94222
 O45 O 0.30648 0.70836 0.85954
 O46 O 0.21460 0.78963 0.92846
 O47 O 0.19514 0.78207 0.67355
 O48 O 0.28891 0.70408 0.60032
 O49 O 0.20510 0.69488 0.68339
 O50 O 0.27879 0.79139 0.58607
 Cu51 Cu 0.26266 0.74990 0.91869
 Cu52 Cu 0.24003 0.74251 0.61033
 C53 C 0.30106 0.81065 0.69877
 C54 C 0.20073 0.68242 0.82869
 C55 C 0.31349 0.69273 0.71835
 C56 C 0.18808 0.79890 0.81291
 O57 O 1.03959 -0.05755 0.05567
 O58 O 0.95389 0.03079 0.11907
 O59 O 0.95312 -0.05342 0.02674
 O60 O 1.04119 0.02715 0.15103
 O61 O 1.04959 0.04911 -0.10005
 O62 O 0.95860 -0.02939 -0.22242
 O63 O 0.96386 0.05390 -0.12862
 O64 O 1.04638 -0.03645 -0.19772
 Cu65 Cu 0.99650 -0.01526 0.11308
 Cu66 Cu 1.00581 0.01108 -0.18763
 C67 C 1.05648 -0.06293 -0.08379
 C68 C 0.94390 0.05764 0.00559
 C69 C 0.94039 -0.05514 -0.11969
 C70 C 1.05957 0.05287 0.04877
 O71 O 0.54935 0.54125 0.45817
 O72 O 0.45423 0.46711 0.35623
 O73 O 0.46260 0.55039 0.45584
 O74 O 0.54051 0.45741 0.36496
 O75 O 0.53796 0.43711 0.62000
 O76 O 0.45958 0.53008 0.71102
 O77 O 0.45041 0.44667 0.61169
 O78 O 0.54594 0.52141 0.71363
 Cu79 Cu 0.50208 0.50626 0.38340
 Cu80 Cu 0.49813 0.48133 0.68952
 C81 C 0.56389 0.54434 0.60214
 C82 C 0.43595 0.44444 0.46736
 C83 C 0.44833 0.55666 0.59879
 C84 C 0.55232 0.43105 0.47713
 O85 O -0.04065 0.55498 0.09946
 O86 O 0.03834 0.46219 0.18616
 O87 O 0.04717 0.54646 0.10136
 O88 O -0.04847 0.47037 0.18314
 O89 O -0.05062 0.45099 -0.07537
 O90 O 0.04599 0.52593 -0.15562
 O91 O 0.03679 0.44188 -0.07096
 O92 O -0.04102 0.53533 -0.15886
 Cu93 Cu -0.00078 0.51081 0.16792
 Cu94 Cu -0.00241 0.48639 -0.14060
 C95 C -0.05396 0.56119 -0.04430
 C96 C 0.05058 0.43570 0.07223
 C97 C 0.06340 0.54873 -0.04021
 C98 C -0.06586 0.44777 0.06720
 O99 O 0.54553 1.02510 0.32270
 O100 O 0.44914 0.95085 0.41497
 O101 O 0.45839 1.03529 0.33298
 O102 O 0.53669 0.94094 0.40525
 O103 O 0.54091 0.96076 0.66311
 O104 O 0.46103 1.05371 0.59234
 O105 O 0.45419 0.96926 0.67307
 O106 O 0.54874 1.04543 0.57979
 Cu107 Cu 0.49693 0.98597 0.34346
 Cu108 Cu 0.50176 1.00951 0.65238
 C109 C 0.56393 1.04766 0.43681
 C110 C 0.43496 0.94746 0.55906
 C111 C 0.44626 1.06041 0.45082
 C112 C 0.55201 0.93475 0.54641
 C113 C 1.12733 0.09900 -0.00556
 C114 C 1.16096 0.12954 0.03851
 C115 C 1.16367 0.14813 0.19600
 C116 C 1.13131 0.13331 0.31294
 C117 C 1.09396 0.10645 0.26092
 C118 C 1.09343 0.08705 0.10282
 C119 C 1.05771 0.10098 0.36870
 N120 N 1.06137 0.11551 0.52384
 N121 N 1.09871 0.13526 0.57861
 C122 C 1.13383 0.14419 0.47986
 H123 H 1.12774 0.08482 -0.12694
 H124 H 1.18504 0.13871 -0.05370
 H125 H 1.02601 0.08633 0.33137
 H126 H 1.16341 0.15811 0.53676
 C127 C 0.60048 0.61724 0.54987
 C128 C 0.63241 0.65071 0.57810
 C129 C 0.66520 0.64563 0.69741
 C130 C 0.66662 0.60529 0.78800
 C131 C 0.63438 0.57048 0.75740
 C132 C 0.60041 0.57713 0.63869
 C133 C 0.63867 0.52973 0.84262
 N134 N 0.67200 0.52500 0.95320
 N135 N 0.70169 0.55790 0.98327
 C136 C 0.70031 0.59775 0.90403
 H137 H 0.57508 0.62318 0.45853
 H138 H 0.63110 0.68131 0.50729
 H139 H 0.61682 0.50108 0.82055
 H140 H 0.72596 0.62277 0.93095
 C141 C -0.09657 0.38337 0.21755
 C142 C -0.12917 0.35063 0.24710
 C143 C -0.16997 0.34974 0.16124
 C144 C -0.17865 0.38447 0.04777
 C145 C -0.14484 0.41740 0.01558
 C146 C -0.10328 0.41616 0.09976
 C147 C -0.15444 0.45155 -0.09616
 N148 N -0.19523 0.45281 -0.16943
 N149 N -0.22717 0.42254 -0.13752
 C150 C -0.22046 0.38870 -0.03107
 H151 H -0.06511 0.38221 0.28388
 H152 H -0.12181 0.32490 0.33538
 H153 H -0.13031 0.47779 -0.12384
 H154 H -0.24842 0.36645 -0.00672
 C155 C 0.39235 0.87736 0.49582
 C156 C 0.35993 0.84464 0.52806
 C157 C 0.33131 0.84908 0.66135
 C158 C 0.33301 0.88945 0.75645
 C159 C 0.36544 0.92352 0.72135
 C160 C 0.39678 0.91634 0.59358
 C161 C 0.36403 0.96424 0.81218
 N162 N 0.33341 0.96962 0.93207
 N163 N 0.30356 0.93748 0.96616
 C164 C 0.30207 0.89781 0.88204
 H165 H 0.41511 0.87139 0.39569
 H166 H 0.35831 0.81478 0.45094
 H167 H 0.38576 0.99257 0.78688
 H168 H 0.27593 0.87388 0.91190
 C169 C -0.12527 0.60128 0.01098
 C170 C -0.15740 0.63424 -0.02189
 C171 C -0.15044 0.66590 -0.14418
 C172 C -0.10881 0.66572 -0.22890
 C173 C -0.07641 0.63162 -0.19695
 C174 C -0.08533 0.59866 -0.07818
 C175 C -0.03536 0.63262 -0.28163
 N176 N -0.02738 0.66565 -0.39006
 N177 N -0.05741 0.69799 -0.41844
 C178 C -0.09760 0.69936 -0.34116
 H179 H -0.13232 0.57664 0.10348
 H180 H -0.18864 0.63405 0.04543
 H181 H -0.00913 0.60807 -0.26079
 H182 H -0.11963 0.72748 -0.36564
 C183 C 0.37372 1.09764 0.50991
 C184 C 0.34110 1.13055 0.48288
 C185 C 0.34818 1.16487 0.37013
 C186 C 0.39047 1.16736 0.28989
 C187 C 0.42317 1.13309 0.31463
 C188 C 0.41419 1.09763 0.42354
 C189 C 0.46456 1.13627 0.23309
 N190 N 0.47281 1.17180 0.13546
 N191 N 0.44268 1.20452 0.11499
 C192 C 0.40205 1.20373 0.18937
 H193 H 0.36670 1.07104 0.59533
 H194 H 0.30943 1.12829 0.54705
 H195 H 0.49076 1.11135 0.24804
 H196 H 0.38000 1.23225 0.17217
 C197 C 1.12282 -0.10711 -0.00315
 C198 C 1.15416 -0.14146 -0.02613
 C199 C 1.15182 -0.17102 -0.16089
 C200 C 1.11373 -0.16790 -0.26635
 C201 C 1.08238 -0.13199 -0.24387
 C202 C 1.08788 -0.10083 -0.11346
 C203 C 1.04502 -0.12978 -0.34819
 N204 N 1.03886 -0.16168 -0.46509
 N205 N 1.06710 -0.19622 -0.48303
 C206 C 1.10374 -0.20083 -0.38705
 H207 H 1.12671 -0.08431 0.09967
 H208 H 1.18172 -0.14333 0.05943
 H209 H 1.01990 -0.10383 -0.33543
 H210 H 1.12293 -0.23145 -0.40280
 C211 C 0.61773 0.40293 0.32445
 C212 C 0.65060 0.37110 0.28780
 C213 C 0.65182 0.32970 0.36736
 C214 C 0.61816 0.31924 0.48196
 C215 C 0.58380 0.35130 0.51700
 C216 C 0.58454 0.39417 0.44031
 C217 C 0.54912 0.33833 0.62286
 N218 N 0.54998 0.29700 0.69232
 N219 N 0.58271 0.26742 0.66179
 C220 C 0.61666 0.27698 0.55848
 H221 H 0.61883 0.43515 0.26336
 H222 H 0.67594 0.37925 0.19863
 H223 H 0.52061 0.35979 0.64843
 H224 H 0.64163 0.25113 0.53547
 C225 C 0.87346 -0.09924 -0.04292
 C226 C 0.83894 -0.13012 -0.07013
 C227 C 0.83104 -0.14903 -0.22426
 C228 C 0.85692 -0.13221 -0.35665
 C229 C 0.89496 -0.10374 -0.32556
 C230 C 0.90305 -0.08671 -0.16615
 C231 C 0.92364 -0.09402 -0.45601
 N232 N 0.91263 -0.10746 -0.60786
 N233 N 0.87469 -0.12979 -0.63914
 C234 C 0.84624 -0.14199 -0.51995
 H235 H 0.87751 -0.08555 0.07811
 H236 H 0.81911 -0.14010 0.03326
 H237 H 0.95494 -0.07645 -0.44098
 H238 H 0.81498 -0.15745 -0.55702
 C239 C 0.40451 0.38147 0.30625
 C240 C 0.37102 0.34998 0.26986
 C241 C 0.32982 0.35073 0.35216
 C242 C 0.32126 0.38597 0.46676
 C243 C 0.35583 0.41752 0.50589
 C244 C 0.39799 0.41434 0.42709
 C245 C 0.34653 0.45216 0.61939
 N246 N 0.30516 0.45510 0.68749
 N247 N 0.27243 0.42600 0.64893
 C248 C 0.27892 0.39178 0.54059
 H249 H 0.43644 0.37912 0.24355
 H250 H 0.37807 0.32372 0.18077
 H251 H 0.37139 0.47741 0.65254
 H252 H 0.25050 0.37041 0.51066
 C253 C 0.10268 0.62138 0.01226
 C254 C 0.13587 0.65352 -0.01823
 C255 C 0.16926 0.64519 -0.13373
 C256 C 0.17074 0.60242 -0.21363
 C257 C 0.13727 0.56925 -0.18091
 C258 C 0.10193 0.57960 -0.07068
 C259 C 0.14144 0.52635 -0.25602
 N260 N 0.17592 0.51796 -0.35922
 N261 N 0.20685 0.54925 -0.39132
 C262 C 0.20559 0.59105 -0.32170
 H263 H 0.07646 0.62987 0.09825
 H264 H 0.13449 0.68590 0.04485
 H265 H 0.11855 0.49888 -0.23116
 H266 H 0.23237 0.61457 -0.34915
 C267 C 0.60131 1.10329 0.26158
 C268 C 0.63462 1.13496 0.22815
 C269 C 0.67110 1.14260 0.33420
 C270 C 0.67581 1.11322 0.46972
 C271 C 0.64115 1.08119 0.50422
 C272 C 0.60284 1.07761 0.40197
 C273 C 0.64706 1.05213 0.63625
 N274 N 0.68492 1.05471 0.72697
 N275 N 0.71781 1.08364 0.69304
 C276 C 0.71495 1.11234 0.56721
 H277 H 0.57303 1.10013 0.17938
 H278 H 0.63022 1.15527 0.12128
 H279 H 0.62283 1.02628 0.66594
 H280 H 0.74446 1.13224 0.54223
 C281 C 0.11620 0.40659 0.22212
 C282 C 0.14908 0.37437 0.25368
 C283 C 0.14977 0.33297 0.16944
 C284 C 0.11521 0.32290 0.05617
 C285 C 0.08099 0.35538 0.02613
 C286 C 0.08246 0.39832 0.10658
 C287 C 0.04562 0.34279 -0.07898
 N288 N 0.04558 0.30143 -0.15220
 N289 N 0.07807 0.27143 -0.12615
 C290 C 0.11268 0.28059 -0.02400
 H291 H 0.11781 0.43879 0.28632
 H292 H 0.17494 0.38232 0.34213
 H293 H 0.01725 0.36461 -0.10090
 H294 H 0.13731 0.25434 -0.00454
 C295 C 0.62334 0.89529 0.48553
 C296 C 0.65554 0.86209 0.51466
 C297 C 0.64858 0.82925 0.63297
 C298 C 0.60677 0.82840 0.71656
 C299 C 0.57442 0.86284 0.68908
 C300 C 0.58340 0.89700 0.57493
 C301 C 0.53340 0.86112 0.77367
 N302 N 0.52526 0.82690 0.87716
 N303 N 0.55514 0.79411 0.90074
 C304 C 0.59536 0.79348 0.82355
 H305 H 0.63036 0.92086 0.39628
 H306 H 0.68690 0.86309 0.44813
 H307 H 0.50735 0.88612 0.75661
 H308 H 0.61727 0.76499 0.84375
 C309 C 0.89184 0.09768 0.19098
 C310 C 0.86092 0.13102 0.23231
 C311 C 0.84718 0.16306 0.12006
 C312 C 0.86621 0.16207 -0.03711
 C313 C 0.89511 0.12581 -0.08465
 C314 C 0.90945 0.09383 0.03375
 C315 C 0.90788 0.12355 -0.24921
 N316 N 0.89679 0.15733 -0.35090
 N317 N 0.87340 0.19320 -0.30140
 C318 C 0.85791 0.19681 -0.14828
 H319 H 0.90160 0.07428 0.28430
 H320 H 0.84701 0.13119 0.35321
 H321 H 0.92534 0.09538 -0.30255
 H322 H 0.84013 0.22736 -0.11478
 C323 C 0.38215 0.58682 0.74380
 C324 C 0.34941 0.61955 0.77237
 C325 C 0.35052 0.66069 0.69095
 C326 C 0.38657 0.67018 0.58501
 C327 C 0.42065 0.63735 0.55870
 C328 C 0.41725 0.59452 0.63430
 C329 C 0.45762 0.64935 0.46151
 N330 N 0.45908 0.69058 0.39141
 N331 N 0.42646 0.72088 0.41310
 C332 C 0.39039 0.71215 0.50783
 H333 H 0.37925 0.55466 0.80449
 H334 H 0.32216 0.61213 0.85488
 H335 H 0.48600 0.62714 0.44346
 H336 H 0.36545 0.73832 0.52400
   
