data_POSCAR
  _audit_creation_date              2014-09-24
  _audit_creation_method            'ToBaCCo'
  _symmetry_space_group_name_H-M    'P1'
  _symmetry_Int_Tables_number       1
  _symmetry_cell_setting            triclinic
  loop_
  _symmetry_equiv_pos_as_xyz
 x,y,z
_cell_length_a 28.9003
_cell_length_b 28.3303
_cell_length_c 28.9305
_cell_angle_alpha 89.737700
_cell_angle_beta 90.020700
_cell_angle_gamma 88.545700
loop_
  _atom_site_label
  _atom_site_type_symbol
  _atom_site_fract_x
  _atom_site_fract_y
  _atom_site_fract_z
C1 C 0.18105 0.12459 0.14514
 C2 C 0.16512 0.09013 0.17577
 C3 C 0.13823 0.10295 0.21461
 C4 C 0.12380 0.15058 0.21951
 C5 C 0.13945 0.18537 0.18894
 C6 C 0.16971 0.17259 0.15271
 C7 C 0.20986 0.11182 0.10817
 C8 C 0.23179 0.14655 0.08181
 C9 C 0.22206 0.19459 0.09078
 C10 C 0.18905 0.20777 0.12443
 C11 C 0.17510 0.25531 0.13050
 C12 C 0.14284 0.26808 0.16502
 C13 C 0.12598 0.23285 0.19464
 H14 H 0.17532 0.05367 0.16984
 H15 H 0.10194 0.16113 0.24831
 H16 H 0.21838 0.07476 0.10253
 H17 H 0.23863 0.22149 0.07028
 H18 H 0.18889 0.28228 0.10805
 H19 H 0.10142 0.24193 0.22160
 C20 C -0.19513 0.86925 0.23540
 C21 C -0.16943 0.86695 0.27650
 C22 C -0.13624 0.83044 0.28416
 C23 C -0.12771 0.79725 0.24881
 C24 C -0.15270 0.79952 0.20732
 C25 C -0.18719 0.83504 0.20092
 C26 C -0.22934 0.90469 0.22880
 C27 C -0.25745 0.90522 0.18894
 C28 C -0.24945 0.87044 0.15493
 C29 C -0.21399 0.83604 0.16024
 C30 C -0.20520 0.80237 0.12567
 C31 C -0.16999 0.76744 0.13131
 C32 C -0.14407 0.76632 0.17237
 H33 H -0.17619 0.89321 0.30299
 H34 H -0.10181 0.76935 0.25309
 H35 H -0.23505 0.93045 0.25585
 H36 H -0.27042 0.87043 0.12382
 H37 H -0.22573 0.80383 0.09443
 H38 H -0.11738 0.73919 0.17738
 C39 C -0.18935 0.13291 -0.22764
 C40 C -0.16604 0.13584 -0.26992
 C41 C -0.13340 0.17088 -0.27764
 C42 C -0.12251 0.20180 -0.24157
 C43 C -0.14530 0.19897 -0.19888
 C44 C -0.17960 0.16508 -0.19219
 C45 C -0.22317 0.09906 -0.22092
 C46 C -0.24961 0.09843 -0.18004
 C47 C -0.24024 0.13136 -0.14505
 C48 C -0.20458 0.16381 -0.15037
 C49 C -0.19387 0.19539 -0.11485
 C50 C -0.15866 0.22848 -0.12079
 C51 C -0.13485 0.23007 -0.16308
 H52 H -0.17429 0.11149 -0.29735
 H53 H -0.09660 0.22827 -0.24652
 H54 H -0.23028 0.07499 -0.24884
 H55 H -0.26003 0.13117 -0.11320
 H56 H -0.21325 0.19410 -0.08291
 H57 H -0.10830 0.25590 -0.16838
 C58 C 0.20915 0.85345 -0.16725
 C59 C 0.19915 0.88908 -0.19995
 C60 C 0.16480 0.88302 -0.23407
 C61 C 0.14056 0.84047 -0.23453
 C62 C 0.15026 0.80459 -0.20211
 C63 C 0.18440 0.81119 -0.16813
 C64 C 0.24389 0.85921 -0.13392
 C65 C 0.25334 0.82381 -0.10083
 C66 C 0.22805 0.78210 -0.10150
 C67 C 0.19406 0.77533 -0.13526
 C68 C 0.17008 0.73295 -0.13704
 C69 C 0.13673 0.72558 -0.17147
 C70 C 0.12668 0.76192 -0.20359
 H71 H 0.21867 0.92110 -0.19863
 H72 H 0.11424 0.83485 -0.26053
 H73 H 0.26333 0.89145 -0.13339
 H74 H 0.23563 0.75433 -0.07653
 H75 H 0.17789 0.70536 -0.11191
 H76 H 0.10058 0.75732 -0.22988
 C77 C 0.14692 1.19801 0.79339
 C78 C 0.12250 1.20181 0.75149
 C79 C 0.13192 1.17017 0.71485
 C80 C 0.16598 1.13425 0.72124
 C81 C 0.19109 1.13051 0.76255
 C82 C 0.18153 1.16251 0.79875
 C83 C 0.13785 1.22971 0.82975
 C84 C 0.16327 1.22679 0.87139
 C85 C 0.19774 1.19102 0.87609
 C86 C 0.20715 1.15940 0.84010
 C87 C 0.24274 1.12534 0.84459
 C88 C 0.25294 1.09391 0.80852
 C89 C 0.22647 1.09600 0.76780
 H90 H 0.09623 1.22946 0.74796
 H91 H 0.17381 1.10952 0.69364
 H92 H 0.11135 1.25713 0.82519
 H93 H 0.21804 1.18761 0.90737
 H94 H 0.26291 1.12353 0.87621
 H95 H 0.23443 1.07205 0.73964
 C96 C 0.86074 0.81085 0.80594
 C97 C 0.86967 0.84587 0.77295
 C98 C 0.84693 0.89040 0.77471
 C99 C 0.81465 0.89925 0.81055
 C100 C 0.80562 0.86456 0.84397
 C101 C 0.82922 0.82043 0.84199
 C102 C 0.88232 0.76608 0.80282
 C103 C 0.87318 0.73051 0.83564
 C104 C 0.84296 0.74117 0.87251
 C105 C 0.82074 0.78555 0.87567
 C106 C 0.78911 0.79507 0.91131
 C107 C 0.76441 0.83830 0.91260
 C108 C 0.77267 0.87290 0.87889
 H109 H 0.89412 0.83800 0.74545
 H110 H 0.79606 0.93278 0.81274
 H111 H 0.90599 0.75943 0.77453
 H112 H 0.83570 0.71454 0.89840
 H113 H 0.78217 0.76804 0.93688
 H114 H 0.75346 0.90626 0.87995
 C115 C 0.14575 0.80236 1.19534
 C116 C 0.12347 0.79959 1.23838
 C117 C 0.13338 0.83171 1.27387
 C118 C 0.16521 0.86743 1.26535
 C119 C 0.18781 0.87060 1.22260
 C120 C 0.17838 0.83768 1.18758
 C121 C 0.13633 0.76990 1.16021
 C122 C 0.15951 0.77164 1.11737
 C123 C 0.19236 0.80706 1.11026
 C124 C 0.20200 0.83977 1.14502
 C125 C 0.23544 0.87419 1.13806
 C126 C 0.24464 0.90729 1.17262
 C127 C 0.22039 0.90563 1.21464
 H128 H 0.09857 0.77227 1.24396
 H129 H 0.17306 0.89240 1.29233
 H130 H 0.11121 0.74285 1.16663
 H131 H 0.21102 0.80949 1.07799
 H132 H 0.25414 0.87552 1.10560
 H133 H 0.22791 0.93065 1.24170
 C134 C 0.85208 1.19513 1.19707
 C135 C 0.86084 1.15903 1.22935
 C136 C 0.83523 1.11740 1.22906
 C137 C 0.80066 1.11229 1.19502
 C138 C 0.79168 1.14818 1.16231
 C139 C 0.81765 1.18966 1.16321
 C140 C 0.87684 1.23700 1.19875
 C141 C 0.86756 1.27379 1.16701
 C142 C 0.83390 1.26762 1.13261
 C143 C 0.80884 1.22594 1.13057
 C144 C 0.77453 1.22034 1.09692
 C145 C 0.74806 1.17943 1.09622
 C146 C 0.75667 1.14360 1.12910
 H147 H 0.88742 1.16389 1.25526
 H148 H 0.78017 1.08090 1.19387
 H149 H 0.90310 1.24069 1.22503
 H150 H 0.82667 1.29560 1.10775
 H151 H 0.76756 1.24844 1.07214
 H152 H 0.73627 1.11200 1.12857
 N153 N 0.55028 1.04578 0.91453
 N154 N 0.58688 1.06659 0.89729
 N155 N 0.45506 0.99906 0.90119
 N156 N 0.42127 0.98699 0.87334
 N157 N 0.45262 1.04439 0.91029
 N158 N 0.41664 1.06440 0.88922
 N159 N 0.55166 1.00048 0.90503
 N160 N 0.58876 0.98934 0.88046
 C161 C 0.61035 1.03090 0.87605
 C162 C 0.39772 1.02815 0.86621
 N163 N 0.45396 0.90566 1.00122
 N164 N 0.41701 0.88131 1.01160
 N165 N 0.55272 0.91616 0.96042
 N166 N 0.59261 0.90207 0.94245
 N167 N 0.55153 0.90671 1.00488
 N168 N 0.59071 0.88578 1.01826
 N169 N 0.45510 0.91512 0.95677
 N170 N 0.41869 0.89786 0.93577
 Mn171 Mn 0.50365 0.95731 0.93048
 C172 C 0.39556 0.87654 0.97038
 C173 C 0.61567 0.88279 0.97876
 N174 N 0.44703 1.10055 0.99285
 N175 N 0.40614 1.11691 0.97883
 N176 N 0.54420 1.09253 1.04101
 N177 N 0.58101 1.10937 1.06160
 N178 N 0.54471 1.10231 0.99660
 N179 N 0.58174 1.12637 0.98585
 N180 N 0.44666 1.09270 1.03767
 N181 N 0.40580 1.10457 1.05508
 Mn182 Mn 0.49861 1.07385 0.95327
 C183 C 0.38125 1.12076 1.01825
 C184 C 0.60378 1.13073 1.02679
 N185 N 0.54642 0.96261 1.08715
 N186 N 0.58294 0.94195 1.10661
 N187 N 0.44738 1.00752 1.09302
 N188 N 0.40935 1.01905 1.11605
 N189 N 0.44873 0.96215 1.08369
 N190 N 0.41142 0.94172 1.09983
 N191 N 0.54469 1.00790 1.09663
 N192 N 0.57973 1.01916 1.12344
 Mn193 Mn 0.50011 0.93375 1.04459
 Mn194 Mn 0.49578 1.05057 1.06756
 Cl195 Cl 0.49947 1.00392 0.99900
 C196 C 0.60317 0.97754 1.12925
 C197 C 0.38740 0.97763 1.12013
 N198 N -0.07648 0.47369 0.06497
 N199 N -0.09778 0.43629 0.08093
 N200 N -0.04780 0.57845 0.05632
 N201 N -0.05953 0.62016 0.07391
 N202 N -0.07917 0.56525 0.02650
 N203 N -0.11249 0.59756 0.02250
 N204 N -0.04451 0.48682 0.09422
 N205 N -0.04356 0.45889 0.13084
 C206 C -0.07734 0.42803 0.12230
 C207 C -0.09969 0.63178 0.05178
 N208 N 0.08421 0.56434 0.02412
 N209 N 0.11431 0.59791 0.01740
 N210 N 0.05524 0.48606 0.09263
 N211 N 0.05764 0.45895 0.12984
 N212 N 0.08632 0.47211 0.06211
 N213 N 0.11008 0.43480 0.07758
 N214 N 0.05292 0.57768 0.05461
 N215 N 0.06139 0.62046 0.07007
 Mn216 Mn 0.00398 0.53266 0.07493
 C217 C 0.09952 0.63270 0.04606
 C218 C 0.09231 0.42754 0.12018
 N219 N -0.07929 0.52632 -0.06485
 N220 N -0.10097 0.56498 -0.08017
 N221 N -0.04656 0.42060 -0.05650
 N222 N -0.05526 0.37766 -0.07142
 N223 N -0.07769 0.43430 -0.02603
 N224 N -0.10781 0.40093 -0.01868
 N225 N -0.04832 0.51157 -0.09511
 N226 N -0.04874 0.53922 -0.13183
 Mn227 Mn -0.07864 0.49992 0.00012
 C228 C -0.08202 0.57194 -0.12237
 C229 C -0.09328 0.36578 -0.04696
 N230 N 0.08566 0.43310 -0.02917
 N231 N 0.11727 0.39913 -0.02374
 N232 N 0.05111 0.51151 -0.09665
 N233 N 0.05023 0.53923 -0.13346
 N234 N 0.08282 0.52515 -0.06733
 N235 N 0.10385 0.56272 -0.08336
 N236 N 0.05362 0.42018 -0.05835
 N237 N 0.06296 0.37736 -0.07421
 Mn238 Mn 0.08530 0.49869 -0.00258
 Mn239 Mn 0.00247 0.46556 -0.07704
 Cl240 Cl 0.00329 0.49927 -0.00111
 C241 C 0.10245 0.36460 -0.05181
 C242 C 0.08362 0.57057 -0.12493
 N243 N 0.91602 0.06869 0.52390
 N244 N 0.89503 0.08533 0.56117
 N245 N 0.94473 0.05741 0.42075
 N246 N 0.93488 0.07136 0.37814
 N247 N 0.91436 0.02707 0.43536
 N248 N 0.88342 0.01902 0.40298
 N249 N 0.94641 0.09880 0.50872
 N250 N 0.94640 0.13676 0.53495
 C251 C 0.91382 0.12810 0.56707
 C252 C 0.89682 0.04666 0.36748
 N253 N 1.07738 0.02733 0.43093
 N254 N 1.10478 0.01686 0.39577
 N255 N 1.04589 0.09886 0.50640
 N256 N 1.04509 0.13646 0.53319
 N257 N 1.07861 0.06874 0.51985
 N258 N 1.10043 0.08508 0.55635
 N259 N 1.04466 0.05764 0.41818
 N260 N 1.04938 0.06931 0.37421
 Mn261 Mn 0.99544 0.07863 0.46315
 C262 C 1.08690 0.04336 0.36077
 C263 C 1.07964 0.12767 0.56371
 N264 N 0.91811 -0.06506 0.47702
 N265 N 0.89595 -0.08182 0.44095
 N266 N 0.95160 -0.05377 0.57873
 N267 N 0.94437 -0.06757 0.62183
 N268 N 0.91909 -0.02340 0.56550
 N269 N 0.88944 -0.01505 0.59928
 N270 N 0.95077 -0.09512 0.49064
 N271 N 0.95125 -0.13313 0.46449
 Mn272 Mn 0.91636 0.00181 0.50045
 C273 C 0.91655 -0.12459 0.43412
 C274 C 0.90569 -0.04262 0.63418
 N275 N 1.08254 -0.02371 0.56128
 N276 N 1.11403 -0.01663 0.59339
 N277 N 1.05031 -0.09509 0.48750
 N278 N 1.05033 -0.13280 0.46080
 N279 N 1.08076 -0.06490 0.47250
 N280 N 1.10181 -0.08126 0.43512
 N281 N 1.05204 -0.05395 0.57588
 N282 N 1.06239 -0.06886 0.61807
 Mn283 Mn 1.08040 0.00190 0.49613
 Mn284 Mn 1.00121 -0.07494 0.53360
 Cl285 Cl 0.99836 0.00183 0.49838
 C286 C 1.10085 -0.04479 0.62863
 C287 C 1.08300 -0.12391 0.42872
 C288 C 1.12818 0.07012 0.24978
 C289 C 1.14560 0.02407 0.25281
 C290 C 1.13183 0.00774 0.29485
 C291 C 1.10646 0.04433 0.31409
 O292 O 1.10398 0.08201 0.28706
 H293 H 1.16739 0.00482 0.22870
 H294 H 1.13988 -0.02646 0.31005
 C295 C 0.88731 -0.17212 0.32673
 C296 C 0.91922 -0.20696 0.34021
 C297 C 0.93318 -0.19459 0.38337
 C298 C 0.90896 -0.15343 0.39315
 O299 O 0.88121 -0.13974 0.35918
 H300 H 0.93149 -0.23765 0.32138
 H301 H 0.95874 -0.21279 0.40473
 C302 C 0.88835 0.17447 0.67624
 C303 C 0.91581 0.21066 0.66091
 C304 C 0.92796 0.19888 0.61682
 C305 C 0.90695 0.15666 0.60858
 O306 O 0.88298 0.14183 0.64431
 H307 H 0.92599 0.24187 0.67928
 H308 H 0.95003 0.21828 0.59373
 C309 C 1.15517 -0.08243 0.73169
 C310 C 1.17684 -0.03956 0.72685
 C311 C 1.15884 -0.01943 0.68769
 C312 C 1.12710 -0.05086 0.67177
 O313 O 1.12456 -0.08882 0.69825
 H314 H 1.20296 -0.02446 0.74847
 H315 H 1.16796 0.01402 0.67241
 C316 C 0.26523 1.13289 1.04927
 C317 C 0.26206 1.09393 1.02097
 C318 C 0.30430 1.08875 1.00062
 C319 C 0.33064 1.12388 1.01904
 O320 O 0.30706 1.15091 1.04842
 H321 H 0.23291 1.07104 1.01696
 H322 H 0.31595 1.05995 0.97869
 C323 C 0.29030 0.83029 0.93374
 C324 C 0.29108 0.81063 0.97753
 C325 C 0.33072 0.82580 0.99749
 C326 C 0.35135 0.85313 0.96426
 O327 O 0.32691 0.85620 0.92568
 H328 H 0.26565 0.78837 0.99328
 H329 H 0.34323 0.81773 1.03197
 C330 C 0.70620 0.93878 1.18294
 C331 C 0.69864 0.97932 1.20889
 C332 C 0.65964 1.00055 1.19098
 C333 C 0.64574 0.97111 1.15625
 O334 O 0.67383 0.93403 1.15104
 H335 H 0.71886 0.99249 1.23723
 H336 H 0.64268 1.03284 1.20264
 C337 C 0.71429 1.06650 0.82558
 C338 C 0.70801 1.02617 0.79954
 C339 C 0.66890 1.00656 0.81634
 C340 C 0.65359 1.03664 0.85056
 O341 O 0.68105 1.07268 0.85666
 H342 H 0.72939 1.01189 0.77208
 H343 H 0.65282 0.97476 0.80436
 C344 C 0.12532 0.31772 0.16880
 C345 C 0.10222 0.33641 0.20671
 C346 C 0.08809 0.38077 0.19386
 C347 C 0.10386 0.38628 0.14934
 O348 O 0.12656 0.34829 0.13399
 H349 H 0.09545 0.31967 0.23960
 H350 H 0.06766 0.40569 0.21407
 C351 C -0.14722 0.26299 -0.08430
 C352 C -0.16770 0.26617 -0.04117
 C353 C -0.14922 0.30472 -0.02091
 C354 C -0.11844 0.32189 -0.05276
 O355 O -0.11697 0.29675 -0.09107
 H356 H -0.19355 0.24392 -0.02622
 H357 H -0.15763 0.31902 0.01279
 C358 C 0.11292 0.67979 -0.17318
 C359 C 0.08349 0.66551 -0.20791
 C360 C 0.06940 0.62186 -0.19492
 C361 C 0.09128 0.61257 -0.15348
 O362 O 0.11764 0.64744 -0.14019
 H363 H 0.07320 0.68427 -0.23901
 H364 H 0.04557 0.59971 -0.21314
 C365 C -0.16028 0.73133 0.09531
 C366 C -0.18790 0.72320 0.05728
 C367 C -0.16762 0.68582 0.03519
 C368 C -0.12917 0.67364 0.06118
 O369 O -0.12452 0.70104 0.09767
 H370 H -0.22001 0.74080 0.04746
 H371 H -0.18014 0.66852 0.00450
 C372 C 1.10841 0.17351 0.67222
 C373 C 1.07615 0.20824 0.65942
 C374 C 1.06236 0.19665 0.61593
 C375 C 1.08692 0.15589 0.60532
 O376 O 1.11482 0.14186 0.63908
 H377 H 1.06363 0.23841 0.67892
 H378 H 1.03674 0.21511 0.59486
 C379 C 0.85591 -0.07587 0.74003
 C380 C 0.83488 -0.03149 0.73592
 C381 C 0.85161 -0.01285 0.69597
 C382 C 0.88208 -0.04656 0.67889
 O383 O 0.88496 -0.08461 0.70539
 H384 H 0.80973 -0.01454 0.75836
 H385 H 0.84230 0.02107 0.68077
 C386 C 1.11102 -0.17125 0.32000
 C387 C 1.08321 -0.20724 0.33521
 C388 C 1.06995 -0.19491 0.37885
 C389 C 1.09065 -0.15257 0.38717
 O390 O 1.11553 -0.13813 0.35174
 H391 H 1.07338 -0.23869 0.31703
 H392 H 1.04734 -0.21409 0.40160
 C393 C 0.84380 0.08305 0.26362
 C394 C 0.82073 0.04108 0.26929
 C395 C 0.83823 0.02121 0.30884
 C396 C 0.87096 0.05198 0.32410
 O397 O 0.87461 0.08916 0.29687
 H398 H 0.79387 0.02663 0.24808
 H399 H 0.82798 -0.01147 0.32492
 C400 C 0.15506 0.26025 -0.09343
 C401 C 0.17929 0.26315 -0.05208
 C402 C 0.16198 0.30240 -0.03057
 C403 C 0.12829 0.32032 -0.05974
 O404 O 0.12378 0.29501 -0.09763
 H405 H 0.20706 0.24059 -0.03899
 H406 H 0.17302 0.31665 0.00217
 C407 C -0.10760 0.31886 0.16919
 C408 C -0.07680 0.33161 0.20335
 C409 C -0.06212 0.37519 0.19089
 C410 C -0.08510 0.38588 0.15036
 O411 O -0.11259 0.35200 0.13709
 H412 H -0.06585 0.31185 0.23364
 H413 H -0.03705 0.39626 0.20871
 C414 C -0.10681 0.68483 -0.16766
 C415 C -0.07819 0.66844 -0.20289
 C416 C -0.06669 0.62304 -0.19130
 C417 C -0.08899 0.61485 -0.15013
 O418 O -0.11331 0.65196 -0.13571
 H419 H -0.06640 0.68680 -0.23334
 H420 H -0.04382 0.59909 -0.21001
 C421 C 0.15050 0.73744 0.08335
 C422 C 0.17206 0.73370 0.04062
 C423 C 0.15507 0.69427 0.02076
 C424 C 0.12401 0.67699 0.05219
 O425 O 0.12093 0.70294 0.08999
 H426 H 0.19772 0.75602 0.02546
 H427 H 0.16454 0.67957 -0.01250
 C428 C 0.29288 1.06096 0.81371
 C429 C 0.29929 1.01845 0.79111
 C430 C 0.33990 0.99976 0.80807
 C431 C 0.35530 1.03269 0.83900
 O432 O 0.32698 1.06959 0.84260
 H433 H 0.27698 1.00259 0.76593
 H434 H 0.35636 0.96636 0.79894
 C435 C 0.28079 0.94243 1.16505
 C436 C 0.27978 0.98774 1.18253
 C437 C 0.31965 1.00745 1.16742
 C438 C 0.34212 0.97256 1.14233
 O439 O 0.31857 0.93322 1.14054
 H440 H 0.25304 1.00452 1.20335
 H441 H 0.33114 1.04282 1.17414
 C442 C 0.71050 1.17431 1.06210
 C443 C 0.70947 1.19446 1.01852
 C444 C 0.66917 1.18042 0.99905
 C445 C 0.64846 1.15326 1.03237
 O446 O 0.67343 1.14923 1.07050
 H447 H 0.73515 1.21629 1.00258
 H448 H 0.65630 1.18907 0.96482
 C449 C 0.72772 0.84607 0.94728
 C450 C 0.72959 0.83039 0.99249
 C451 C 0.68763 0.84267 1.01113
 C452 C 0.66338 0.86450 0.97565
 O453 O 0.68763 0.86692 0.93706
 H454 H 0.75819 0.81233 1.00961
 H455 H 0.67597 0.83609 1.04607
   
