data_POSCAR
  _audit_creation_date              2014-09-24
  _audit_creation_method            'ToBaCCo'
  _symmetry_space_group_name_H-M    'P1'
  _symmetry_Int_Tables_number       1
  _symmetry_cell_setting            triclinic
  loop_
  _symmetry_equiv_pos_as_xyz
 x,y,z
_cell_length_a 58.6936
_cell_length_b 58.5548
_cell_length_c 35.0443
_cell_angle_alpha 89.799200
_cell_angle_beta 89.932300
_cell_angle_gamma 88.703900
loop_
  _atom_site_label
  _atom_site_type_symbol
  _atom_site_fract_x
  _atom_site_fract_y
  _atom_site_fract_z
C1 C 0.00309 0.26537 -0.01698
 C2 C 0.00324 0.26407 0.02183
 C3 C -0.01813 0.26289 0.04437
 C4 C 0.02490 0.26329 0.04356
 C5 C 0.02446 0.26815 -0.03909
 C6 C -0.01823 0.26296 -0.03911
 C7 C -0.03536 0.27962 0.04060
 C8 C -0.05542 0.27830 0.06193
 C9 C -0.05896 0.26013 0.08813
 C10 C -0.04105 0.24352 0.09160
 C11 C -0.02105 0.24500 0.07026
 C12 C 0.02963 0.28062 0.06968
 C13 C 0.05042 0.28053 0.08907
 C14 C 0.06662 0.26285 0.08316
 C15 C 0.06156 0.24517 0.05773
 C16 C 0.04088 0.24542 0.03802
 C17 C 0.03057 0.25214 -0.06719
 C18 C 0.05141 0.25359 -0.08622
 C19 C 0.06651 0.27114 -0.07758
 C20 C 0.05999 0.28762 -0.05037
 C21 C 0.03908 0.28624 -0.03151
 C22 C -0.03099 0.24305 -0.03611
 C23 C -0.05100 0.24084 -0.05722
 C24 C -0.05860 0.25853 -0.08159
 C25 C -0.04570 0.27838 -0.08469
 C26 C -0.02556 0.28048 -0.06387
 H27 H -0.03314 0.29395 0.02143
 H28 H -0.06741 0.29242 0.05867
 H29 H -0.04246 0.22845 0.10917
 H30 H -0.00795 0.23178 0.07336
 H31 H 0.01741 0.29446 0.07441
 H32 H 0.05382 0.29421 0.10884
 H33 H 0.03738 0.23179 0.01820
 H34 H 0.01950 0.23809 -0.07351
 H35 H 0.05603 0.24053 -0.10680
 H36 H 0.07110 0.30155 -0.04362
 H37 H 0.03445 0.29906 -0.01052
 H38 H -0.02541 0.22923 -0.01748
 H39 H -0.06069 0.22542 -0.05414
 H40 H -0.05105 0.29215 -0.10359
 H41 H -0.01580 0.29587 -0.06673
 H42 H 0.07381 0.23142 0.05254
 C43 C 0.49644 0.76691 0.47388
 C44 C 0.49626 0.76566 0.51275
 C45 C 0.47460 0.76478 0.53469
 C46 C 0.51769 0.76475 0.53537
 C47 C 0.51793 0.76950 0.45197
 C48 C 0.47521 0.76465 0.45142
 C49 C 0.45738 0.78158 0.52982
 C50 C 0.43717 0.78060 0.55087
 C51 C 0.43394 0.76297 0.57754
 C52 C 0.45134 0.74635 0.58266
 C53 C 0.47147 0.74728 0.56150
 C54 C 0.52069 0.78023 0.56531
 C55 C 0.54066 0.77952 0.58695
 C56 C 0.55801 0.76326 0.57911
 C57 C 0.55489 0.74762 0.54933
 C58 C 0.53481 0.74821 0.52791
 C59 C 0.52375 0.75366 0.42343
 C60 C 0.54475 0.75470 0.40479
 C61 C 0.56031 0.77168 0.41425
 C62 C 0.55407 0.78808 0.44177
 C63 C 0.53299 0.78711 0.46024
 C64 C 0.46238 0.74477 0.45404
 C65 C 0.44229 0.74282 0.43307
 C66 C 0.43465 0.76078 0.40927
 C67 C 0.44764 0.78059 0.40648
 C68 C 0.46788 0.78241 0.42712
 H69 H 0.45967 0.79555 0.50994
 H70 H 0.42424 0.79386 0.54676
 H71 H 0.44925 0.73242 0.60268
 H72 H 0.48457 0.73420 0.56577
 H73 H 0.50764 0.79303 0.57166
 H74 H 0.54268 0.79188 0.60954
 H75 H 0.53260 0.73572 0.50558
 H76 H 0.51236 0.73998 0.41653
 H77 H 0.54914 0.74172 0.38395
 H78 H 0.56555 0.80159 0.44916
 H79 H 0.52861 0.79980 0.48159
 H80 H 0.46794 0.73080 0.47238
 H81 H 0.43254 0.72743 0.43588
 H82 H 0.44224 0.79455 0.38802
 H83 H 0.47767 0.79780 0.42461
 H84 H 0.56780 0.73466 0.54310
 C85 C 0.99669 0.73527 -0.02563
 C86 C 0.99682 0.73532 0.01324
 C87 C 1.01835 0.73578 0.03546
 C88 C 0.97528 0.73547 0.03543
 C89 C 0.97515 0.73338 -0.04747
 C90 C 1.01789 0.73794 -0.04803
 C91 C 1.03594 0.71956 0.02920
 C92 C 1.05615 0.72034 0.05018
 C93 C 1.05898 0.73713 0.07824
 C94 C 1.04118 0.75308 0.08491
 C95 C 1.02106 0.75238 0.06376
 C96 C 0.97055 0.71723 0.06000
 C97 C 0.94999 0.71688 0.08010
 C98 C 0.93403 0.73502 0.07652
 C99 C 0.93905 0.75353 0.05254
 C100 C 0.95949 0.75371 0.03205
 C101 C 0.96884 0.75043 -0.07387
 C102 C 0.94783 0.74974 -0.09247
 C103 C 0.93278 0.73190 -0.08510
 C104 C 0.93953 0.71438 -0.05970
 C105 C 0.96059 0.71504 -0.04126
 C106 C 1.03050 0.75787 -0.04522
 C107 C 1.05060 0.76020 -0.06616
 C108 C 1.05880 0.74246 -0.09017
 C109 C 1.04575 0.72252 -0.09281
 C110 C 1.02544 0.72046 -0.07236
 H111 H 1.03398 0.70622 0.00821
 H112 H 1.06942 0.70760 0.04488
 H113 H 1.04296 0.76635 0.10608
 H114 H 1.00769 0.76501 0.06914
 H115 H 0.98264 0.70308 0.06305
 H116 H 0.94661 0.70255 0.09872
 H117 H 0.96299 0.76802 0.01344
 H118 H 0.97988 0.76469 -0.07913
 H119 H 0.94303 0.76356 -0.11164
 H120 H 0.92849 0.70020 -0.05401
 H121 H 0.96538 0.70145 -0.02163
 H122 H 1.02482 0.77158 -0.02659
 H123 H 1.06010 0.77559 -0.06193
 H124 H 1.05059 0.70870 -0.11176
 H125 H 1.01572 0.70505 -0.07515
 H126 H 0.92698 0.76765 0.04915
 C127 C 0.50373 0.23476 0.48296
 C128 C 0.50369 0.23499 0.52188
 C129 C 0.52502 0.23695 0.54436
 C130 C 0.48205 0.23370 0.54381
 C131 C 0.48214 0.23534 0.46097
 C132 C 0.52514 0.23438 0.46031
 C133 C 0.52985 0.22121 0.57369
 C134 C 0.54998 0.22259 0.59470
 C135 C 0.56565 0.23977 0.58682
 C136 C 0.56060 0.25578 0.55790
 C137 C 0.54036 0.25453 0.53713
 C138 C 0.46705 0.21569 0.53810
 C139 C 0.44608 0.21547 0.55697
 C140 C 0.43988 0.23307 0.58238
 C141 C 0.45532 0.25061 0.58914
 C142 C 0.47623 0.25089 0.57007
 C143 C 0.46657 0.25375 0.46455
 C144 C 0.44604 0.25387 0.44439
 C145 C 0.44076 0.23555 0.42039
 C146 C 0.45656 0.21732 0.41644
 C147 C 0.47717 0.21732 0.43633
 C148 C 0.52819 0.25079 0.43160
 C149 C 0.54830 0.25098 0.41037
 C150 C 0.56577 0.23469 0.41728
 C151 C 0.56257 0.21802 0.44565
 C152 C 0.54235 0.21776 0.46679
 H153 H 0.51819 0.20761 0.57989
 H154 H 0.55350 0.20993 0.61665
 H155 H 0.57220 0.26944 0.55167
 H156 H 0.53668 0.26724 0.51533
 H157 H 0.47146 0.20197 0.51861
 H158 H 0.43470 0.20152 0.55173
 H159 H 0.48762 0.26488 0.57498
 H160 H 0.47028 0.26792 0.48316
 H161 H 0.43411 0.26806 0.44809
 H162 H 0.45301 0.20314 0.39777
 H163 H 0.48909 0.20306 0.43306
 H164 H 0.51512 0.26373 0.42609
 H165 H 0.55038 0.26419 0.38902
 H166 H 0.57559 0.20504 0.45119
 H167 H 0.54013 0.20464 0.48824
 H168 H 0.45095 0.26449 0.60833
 C169 C 0.72988 -0.00074 -0.01590
 C170 C 0.73049 -0.00026 0.02306
 C171 C 0.73244 -0.02161 0.04610
 C172 C 0.72981 0.02165 0.04445
 C173 C 0.73190 0.02040 -0.03922
 C174 C 0.72765 -0.02255 -0.03705
 C175 C 0.71762 -0.02512 0.07681
 C176 C 0.71913 -0.04521 0.09837
 C177 C 0.73546 -0.06251 0.08958
 C178 C 0.75062 -0.05851 0.05904
 C179 C 0.74932 -0.03823 0.03805
 C180 C 0.71267 0.03826 0.03748
 C181 C 0.71297 0.05929 0.05619
 C182 C 0.73021 0.06395 0.08268
 C183 C 0.74687 0.04697 0.09060
 C184 C 0.74664 0.02602 0.07170
 C185 C 0.74955 0.03566 -0.03276
 C186 C 0.75084 0.05587 -0.05381
 C187 C 0.73485 0.06115 -0.08283
 C188 C 0.71769 0.04517 -0.09005
 C189 C 0.71623 0.02515 -0.06845
 C190 C 0.74377 -0.02870 -0.06482
 C191 C 0.74258 -0.04965 -0.08355
 C192 C 0.72503 -0.06512 -0.07527
 C193 C 0.70847 -0.05828 -0.04796
 C194 C 0.70975 -0.03729 -0.02929
 H195 H 0.70453 -0.01244 0.08366
 H196 H 0.70663 -0.04744 0.12069
 H197 H 0.76421 -0.07055 0.05203
 H198 H 0.76156 -0.03549 0.01544
 H199 H 0.69923 0.03504 0.01717
 H200 H 0.69969 0.07190 0.05001
 H201 H 0.75997 0.01341 0.07760
 H202 H 0.76238 0.03192 -0.01130
 H203 H 0.76502 0.06681 -0.04807
 H204 H 0.70454 0.04843 -0.11110
 H205 H 0.70251 0.01356 -0.07403
 H206 H 0.75778 -0.01756 -0.07114
 H207 H 0.75629 -0.05393 -0.10304
 H208 H 0.69396 -0.06865 -0.04147
 H209 H 0.69678 -0.03257 -0.00858
 H210 H 0.76047 0.05014 0.11061
 C211 C 0.22860 0.50046 0.47654
 C212 C 0.22831 0.50228 0.51540
 C213 C 0.22784 0.48178 0.54058
 C214 C 0.22931 0.52481 0.53469
 C215 C 0.22762 0.52096 0.45132
 C216 C 0.23071 0.47791 0.45732
 C217 C 0.21130 0.46503 0.53600
 C218 C 0.21204 0.44518 0.55833
 C219 C 0.22908 0.44192 0.58611
 C220 C 0.24509 0.45910 0.59153
 C221 C 0.24445 0.47883 0.56903
 C222 C 0.21288 0.53086 0.56218
 C223 C 0.21337 0.55216 0.57998
 C224 C 0.23033 0.56779 0.57061
 C225 C 0.24705 0.56152 0.54364
 C226 C 0.24668 0.54013 0.52614
 C227 C 0.24436 0.52373 0.42315
 C228 C 0.24447 0.54343 0.40061
 C229 C 0.22782 0.56078 0.40574
 C230 C 0.21067 0.55771 0.43320
 C231 C 0.21044 0.53787 0.45552
 C232 C 0.24854 0.46245 0.46651
 C233 C 0.24992 0.44104 0.44913
 C234 C 0.23381 0.43489 0.42159
 C235 C 0.21643 0.45067 0.41153
 C236 C 0.21490 0.47198 0.42926
 H237 H 0.19803 0.46719 0.51477
 H238 H 0.19926 0.43240 0.55395
 H239 H 0.25854 0.45699 0.61246
 H240 H 0.25734 0.49155 0.57311
 H241 H 0.19944 0.51921 0.56938
 H242 H 0.20023 0.55659 0.60055
 H243 H 0.25989 0.53556 0.50578
 H244 H 0.25772 0.51088 0.41933
 H245 H 0.25800 0.54540 0.37989
 H246 H 0.19742 0.57063 0.43733
 H247 H 0.19706 0.53585 0.47648
 H248 H 0.26130 0.46693 0.48732
 H249 H 0.26374 0.42936 0.45687
 H250 H 0.20375 0.44633 0.39050
 H251 H 0.20114 0.48374 0.42154
 H252 H 0.26056 0.57306 0.53643
 C253 C 0.27056 1.00054 -0.02402
 C254 C 0.27016 1.00065 0.01481
 C255 C 0.27152 1.02223 0.03666
 C256 C 0.26755 0.97928 0.03706
 C257 C 0.27116 0.97889 -0.04586
 C258 C 0.26970 1.02212 -0.04624
 C259 C 0.28994 1.03673 0.03177
 C260 C 0.29063 1.05749 0.05119
 C261 C 0.27290 1.06436 0.07635
 C262 C 0.25473 1.04916 0.08167
 C263 C 0.25414 1.02841 0.06220
 C264 C 0.28461 0.97209 0.06267
 C265 C 0.28246 0.95169 0.08307
 C266 C 0.26299 0.93841 0.07873
 C267 C 0.24573 0.94589 0.05356
 C268 C 0.24803 0.96612 0.03280
 C269 C 0.25411 0.97453 -0.07252
 C270 C 0.25379 0.95367 -0.09170
 C271 C 0.27071 0.93652 -0.08495
 C272 C 0.28825 0.94156 -0.05881
 C273 C 0.28845 0.96244 -0.03967
 C274 C 0.25061 1.03683 -0.04406
 C275 C 0.25006 1.05746 -0.06424
 C276 C 0.26879 1.06409 -0.08680
 C277 C 0.28782 1.04888 -0.08899
 C278 C 0.28811 1.02808 -0.06931
 H279 H 0.30384 1.03194 0.01286
 H280 H 0.30560 1.06763 0.04709
 H281 H 0.24018 1.05351 0.09934
 H282 H 0.23972 1.01743 0.06623
 H283 H 0.29972 0.98212 0.06640
 H284 H 0.29589 0.94639 0.10257
 H285 H 0.23461 0.97155 0.01338
 H286 H 0.24055 0.98703 -0.07758
 H287 H 0.23944 0.95084 -0.11026
 H288 H 0.30238 0.92982 -0.05361
 H289 H 0.30213 0.96576 -0.01986
 H290 H 0.23621 1.03242 -0.02635
 H291 H 0.23528 1.06858 -0.06039
 H292 H 0.30231 1.05251 -0.10691
 H293 H 0.30289 1.01674 -0.07158
 H294 H 0.23062 0.93590 0.04955
 C295 C 0.77020 0.49838 0.48509
 C296 C 0.77028 0.49898 0.52396
 C297 C 0.77035 0.52088 0.54524
 C298 C 0.76956 0.47773 0.54694
 C299 C 0.77186 0.47648 0.46383
 C300 C 0.76751 0.51957 0.46211
 C301 C 0.78694 0.53724 0.53794
 C302 C 0.78618 0.55821 0.55686
 C303 C 0.76899 0.56309 0.58380
 C304 C 0.75284 0.54638 0.59191
 C305 C 0.75355 0.52546 0.57285
 C306 C 0.78745 0.47214 0.57199
 C307 C 0.78742 0.45158 0.59234
 C308 C 0.76927 0.43652 0.58847
 C309 C 0.75103 0.44251 0.56423
 C310 C 0.75119 0.46294 0.54356
 C311 C 0.75525 0.47130 0.43665
 C312 C 0.75596 0.45031 0.41783
 C313 C 0.77336 0.43410 0.42576
 C314 C 0.79035 0.43957 0.45223
 C315 C 0.78971 0.46064 0.47086
 C316 C 0.74801 0.53367 0.46612
 C317 C 0.74576 0.55384 0.44492
 C318 C 0.76301 0.56026 0.41947
 C319 C 0.78240 0.54597 0.41522
 C320 C 0.78452 0.52567 0.43613
 H321 H 0.80037 0.53383 0.51739
 H322 H 0.79909 0.57059 0.55053
 H323 H 0.73928 0.54971 0.61225
 H324 H 0.74064 0.51303 0.57898
 H325 H 0.80167 0.48346 0.57506
 H326 H 0.80155 0.44744 0.61116
 H327 H 0.73714 0.46714 0.52460
 H328 H 0.74137 0.48330 0.43072
 H329 H 0.74253 0.44650 0.39784
 H330 H 0.80418 0.42759 0.45842
 H331 H 0.80301 0.46452 0.49106
 H332 H 0.73461 0.52908 0.48579
 H333 H 0.73071 0.56462 0.44888
 H334 H 0.79580 0.55042 0.39547
 H335 H 0.79960 0.51488 0.43256
 H336 H 0.73691 0.43113 0.56060
 O337 O 0.23496 0.26265 0.20300
 O338 O 0.29014 0.25473 0.25180
 O339 O 0.26767 0.23188 0.20074
 O340 O 0.25750 0.28538 0.25347
 O341 O 0.24091 0.26616 0.29965
 O342 O 0.25089 0.21264 0.24669
 O343 O 0.27335 0.23522 0.29744
 O344 O 0.21820 0.24326 0.24883
 Cu345 Cu 0.26426 0.26055 0.22261
 Cu346 Cu 0.24412 0.23742 0.27776
 C347 C 0.21715 0.25424 0.21752
 C348 C 0.29116 0.24369 0.28306
 C349 C 0.26096 0.21311 0.21459
 C350 C 0.24761 0.28492 0.28570
 O351 O 0.75559 0.78484 0.25578
 O352 O 0.76148 0.72755 0.29881
 O353 O 0.78582 0.75186 0.25176
 O354 O 0.73140 0.76095 0.30245
 O355 O 0.71298 0.74693 0.25329
 O356 O 0.76758 0.73627 0.20376
 O357 O 0.74235 0.71313 0.25076
 O358 O 0.73811 0.77003 0.20625
 Cu359 Cu 0.76046 0.75769 0.28212
 Cu360 Cu 0.73843 0.74010 0.22363
 C361 C 0.74598 0.78719 0.22350
 C362 C 0.75263 0.71058 0.28240
 C363 C 0.78601 0.74259 0.21903
 C364 C 0.71285 0.75570 0.28642
 O365 O 0.79029 0.24084 0.25606
 O366 O 0.73352 0.23650 0.29981
 O367 O 0.75715 0.21220 0.25112
 O368 O 0.76659 0.26531 0.30437
 O369 O 0.75173 0.28534 0.25674
 O370 O 0.74201 0.23228 0.20378
 O371 O 0.71862 0.25667 0.25238
 O372 O 0.77537 0.26068 0.20826
 Cu373 Cu 0.76339 0.23671 0.28261
 Cu374 Cu 0.74546 0.26078 0.22554
 C375 C 0.79255 0.25141 0.22461
 C376 C 0.71634 0.24584 0.28358
 C377 C 0.74791 0.21316 0.21835
 C378 C 0.76075 0.28442 0.28967
 O379 O 0.25152 0.71342 0.23889
 O380 O 0.25824 0.77050 0.19630
 O381 O 0.28322 0.74363 0.23976
 O382 O 0.22657 0.73998 0.19545
 O383 O 0.21091 0.75546 0.24673
 O384 O 0.26764 0.75987 0.29047
 O385 O 0.24205 0.78615 0.24699
 O386 O 0.23610 0.72915 0.29016
 Cu387 Cu 0.25648 0.74035 0.21247
 Cu388 Cu 0.23767 0.75924 0.27374
 C389 C 0.24269 0.71151 0.27183
 C390 C 0.25105 0.78808 0.21419
 C391 C 0.28512 0.75231 0.27274
 C392 C 0.20902 0.74703 0.21355
 O393 O 0.76692 0.26676 0.70289
 O394 O 0.75723 0.21087 0.74738
 O395 O 0.73366 0.23811 0.70290
 O396 O 0.79028 0.23973 0.74814
 O397 O 0.77519 0.25800 0.79734
 O398 O 0.71836 0.25423 0.75394
 O399 O 0.74317 0.22803 0.79849
 O400 O 0.75059 0.28393 0.75210
 Cu401 Cu 0.76356 0.23715 0.72029
 Cu402 Cu 0.74530 0.25777 0.78051
 C403 C 0.76017 0.28489 0.71961
 C404 C 0.74880 0.20987 0.78072
 C405 C 0.71629 0.24577 0.72083
 C406 C 0.79242 0.24928 0.78041
 O407 O 0.28156 0.74421 0.74591
 O408 O 0.22456 0.74068 0.78932
 O409 O 0.24817 0.71599 0.74122
 O410 O 0.25812 0.76886 0.79443
 O411 O 0.24397 0.78920 0.74656
 O412 O 0.23355 0.73621 0.69361
 O413 O 0.21015 0.76145 0.74215
 O414 O 0.26702 0.76435 0.69813
 Cu415 Cu 0.25453 0.74041 0.77251
 Cu416 Cu 0.23715 0.76479 0.71533
 C417 C 0.28404 0.75480 0.71451
 C418 C 0.20764 0.75065 0.77332
 C419 C 0.23932 0.71703 0.70819
 C420 C 0.25282 0.78808 0.77961
 O421 O 0.21707 0.25056 0.75569
 O422 O 0.27076 0.24112 0.70317
 O423 O 0.24745 0.21774 0.75268
 O424 O 0.24020 0.27417 0.70663
 O425 O 0.25890 0.28988 0.75397
 O426 O 0.26702 0.23345 0.79906
 O427 O 0.28967 0.25733 0.74981
 O428 O 0.23602 0.26602 0.80300
 Cu429 Cu 0.24201 0.24432 0.72477
 Cu430 Cu 0.26479 0.26324 0.78118
 C431 C 0.21734 0.25982 0.78839
 C432 C 0.28940 0.24767 0.71741
 C433 C 0.25851 0.21596 0.78374
 C434 C 0.24821 0.29172 0.72258
 O435 O 0.72276 0.76111 0.70879
 O436 O 0.77827 0.75445 0.75738
 O437 O 0.75617 0.73123 0.70688
 O438 O 0.74520 0.78488 0.75858
 O439 O 0.72930 0.76577 0.80556
 O440 O 0.73934 0.71205 0.75286
 O441 O 0.76186 0.73488 0.80331
 O442 O 0.70641 0.74249 0.75589
 Cu443 Cu 0.75222 0.75988 0.72827
 Cu444 Cu 0.73257 0.73691 0.78407
 C445 C 0.70508 0.75288 0.72409
 C446 C 0.77956 0.74338 0.78860
 C447 C 0.74958 0.71246 0.72088
 C448 C 0.73555 0.78454 0.79103
 C449 C 0.27210 0.12868 0.13189
 C450 C 0.28519 0.12550 0.09874
 C451 C 0.28561 0.10432 0.08060
 C452 C 0.27314 0.08587 0.09521
 C453 C 0.26069 0.08986 0.12917
 N454 N 0.26055 0.11068 0.14614
 C455 C 0.27034 0.15083 0.15228
 N456 N 0.26137 0.15106 0.18815
 C457 C 0.25847 0.17057 0.20862
 C458 C 0.26466 0.19165 0.19303
 C459 C 0.27396 0.19190 0.15614
 C460 C 0.27674 0.17162 0.13564
 H461 H 0.29507 0.10301 0.05420
 H462 H 0.25158 0.07642 0.14329
 H463 H 0.25119 0.16956 0.23695
 H464 H 0.27879 0.20780 0.14286
 H465 H 0.29512 0.13904 0.08661
 H466 H 0.28334 0.17257 0.10691
 C467 C 0.76371 0.62828 0.63863
 C468 C 0.76925 0.62707 0.59962
 C469 C 0.77125 0.60581 0.58193
 C470 C 0.76758 0.58571 0.60272
 C471 C 0.76197 0.58764 0.64154
 N472 N 0.76017 0.60853 0.65820
 C473 C 0.76079 0.65032 0.65900
 N474 N 0.74899 0.65069 0.69250
 C475 C 0.74534 0.67018 0.71282
 C476 C 0.75378 0.69100 0.69957
 C477 C 0.76627 0.69098 0.66541
 C478 C 0.76992 0.67074 0.64518
 H479 H 0.77510 0.60513 0.55172
 H480 H 0.75914 0.57257 0.65871
 H481 H 0.73571 0.66936 0.73913
 H482 H 0.77333 0.70660 0.65433
 H483 H 0.77146 0.64222 0.58247
 H484 H 0.78003 0.67126 0.61942
 C485 C 0.73913 0.87529 0.15122
 C486 C 0.73071 0.89505 0.16926
 C487 C 0.72933 0.91557 0.14896
 C488 C 0.73660 0.91672 0.11060
 C489 C 0.74491 0.89627 0.09382
 N490 N 0.74570 0.87646 0.11410
 C491 C 0.74058 0.85304 0.17109
 N492 N 0.73795 0.83361 0.15051
 C493 C 0.73934 0.81250 0.16668
 C494 C 0.74403 0.81007 0.20576
 C495 C 0.74707 0.82986 0.22746
 C496 C 0.74525 0.85136 0.21029
 H497 H 0.72335 0.93061 0.16410
 H498 H 0.74989 0.89560 0.06414
 H499 H 0.73708 0.79766 0.14887
 H500 H 0.75079 0.82872 0.25767
 H501 H 0.72494 0.89467 0.19860
 H502 H 0.74797 0.86642 0.22736
 C503 C 0.23584 0.37965 0.65003
 C504 C 0.23829 0.40071 0.66858
 C505 C 0.23579 0.42100 0.64787
 C506 C 0.23059 0.42050 0.60883
 C507 C 0.22757 0.39917 0.59160
 N508 N 0.23031 0.37961 0.61229
 C509 C 0.23907 0.35745 0.67008
 N510 N 0.23029 0.33835 0.65424
 C511 C 0.23289 0.31730 0.67040
 C512 C 0.24511 0.31451 0.70458
 C513 C 0.25447 0.33391 0.72127
 C514 C 0.25159 0.35532 0.70414
 H515 H 0.23778 0.43711 0.66244
 H516 H 0.22365 0.39800 0.56151
 H517 H 0.22544 0.30280 0.65645
 H518 H 0.26421 0.33255 0.74744
 H519 H 0.24186 0.40171 0.69877
 H520 H 0.25957 0.36979 0.71720
 C521 C 0.88034 0.25569 0.15141
 C522 C 0.89974 0.24312 0.16289
 C523 C 0.91991 0.24469 0.14210
 C524 C 0.92128 0.25866 0.10907
 C525 C 0.90104 0.27088 0.09880
 N526 N 0.88164 0.26896 0.11966
 C527 C 0.85821 0.25454 0.17181
 N528 N 0.83906 0.26248 0.15376
 C529 C 0.81805 0.26189 0.17007
 C530 C 0.81536 0.25276 0.20684
 C531 C 0.83485 0.24476 0.22625
 C532 C 0.85626 0.24573 0.20904
 H533 H 0.93447 0.23546 0.15364
 H534 H 0.89983 0.28113 0.07323
 H535 H 0.80350 0.26834 0.15409
 H536 H 0.83360 0.23783 0.25485
 H537 H 0.89959 0.23192 0.18745
 H538 H 0.87093 0.23986 0.22520
 C539 C 0.37190 0.75916 0.64157
 C540 C 0.39287 0.75469 0.65977
 C541 C 0.41307 0.75598 0.63892
 C542 C 0.41256 0.76189 0.60009
 C543 C 0.39132 0.76665 0.58315
 N544 N 0.37185 0.76516 0.60398
 C545 C 0.34977 0.75788 0.66187
 N546 N 0.33113 0.76847 0.64612
 C547 C 0.31013 0.76786 0.66244
 C548 C 0.30689 0.75590 0.69674
 C549 C 0.32580 0.74473 0.71343
 C550 C 0.34719 0.74559 0.69610
 H551 H 0.42913 0.75268 0.65332
 H552 H 0.39012 0.77115 0.55323
 H553 H 0.29602 0.77665 0.64846
 H554 H 0.32405 0.73512 0.73969
 H555 H 0.39390 0.75063 0.68983
 H556 H 0.36127 0.73629 0.70916
 C557 C 0.12113 0.74104 0.14157
 C558 C 0.10012 0.74377 0.16051
 C559 C 0.07988 0.74241 0.13988
 C560 C 0.08040 0.73810 0.10054
 C561 C 0.10169 0.73495 0.08284
 N562 N 0.12119 0.73653 0.10346
 C563 C 0.14330 0.74268 0.16157
 N564 N 0.16239 0.73409 0.14417
 C565 C 0.18343 0.73519 0.16015
 C566 C 0.18622 0.74552 0.19587
 C567 C 0.16683 0.75463 0.21427
 C568 C 0.14543 0.75336 0.19723
 H569 H 0.06380 0.74445 0.15480
 H570 H 0.10287 0.73169 0.05251
 H571 H 0.19792 0.72800 0.14487
 H572 H 0.16821 0.76297 0.24168
 H573 H 0.09907 0.74658 0.19092
 H574 H 0.13097 0.76111 0.21173
 C575 C 0.62833 0.24269 0.64874
 C576 C 0.60797 0.23851 0.66843
 C577 C 0.58752 0.23761 0.64828
 C578 C 0.58724 0.24091 0.60861
 C579 C 0.60795 0.24496 0.58998
 N580 N 0.62769 0.24559 0.61018
 C581 C 0.65057 0.24348 0.66850
 N582 N 0.66989 0.23816 0.64860
 C583 C 0.69095 0.23860 0.66469
 C584 C 0.69347 0.24494 0.70303
 C585 C 0.67380 0.25076 0.72396
 C586 C 0.65236 0.25004 0.70688
 H587 H 0.57190 0.23449 0.66373
 H588 H 0.60852 0.24723 0.55934
 H589 H 0.70567 0.23415 0.64739
 H590 H 0.67495 0.25590 0.75354
 H591 H 0.60779 0.23551 0.69890
 H592 H 0.63751 0.25503 0.72342
 C593 C 0.73882 0.12301 0.85501
 C594 C 0.72893 0.10403 0.83801
 C595 C 0.72743 0.08365 0.85851
 C596 C 0.73600 0.08185 0.89606
 C597 C 0.74566 0.10155 0.91188
 N598 N 0.74660 0.12126 0.89143
 C599 C 0.74076 0.14502 0.83469
 N600 N 0.74007 0.16474 0.85518
 C601 C 0.74221 0.18559 0.83854
 C602 C 0.74570 0.18739 0.79903
 C603 C 0.74667 0.16726 0.77740
 C604 C 0.74411 0.14608 0.79506
 H605 H 0.72034 0.06917 0.84404
 H606 H 0.75169 0.10178 0.94100
 H607 H 0.74155 0.20067 0.85630
 H608 H 0.74942 0.16788 0.74685
 H609 H 0.72217 0.10491 0.80931
 H610 H 0.74532 0.13074 0.77798
 C611 C 0.23285 0.62309 0.34217
 C612 C 0.23595 0.60202 0.32348
 C613 C 0.23406 0.58171 0.34410
 C614 C 0.22880 0.58221 0.38314
 C615 C 0.22517 0.60354 0.40052
 N616 N 0.22734 0.62310 0.37995
 C617 C 0.23536 0.64537 0.32241
 N618 N 0.22714 0.66463 0.33982
 C619 C 0.22916 0.68579 0.32426
 C620 C 0.24013 0.68856 0.28899
 C621 C 0.24883 0.66900 0.27054
 C622 C 0.24659 0.64746 0.28713
 H623 H 0.23654 0.56559 0.32945
 H624 H 0.22120 0.60470 0.43063
 H625 H 0.22222 0.70039 0.33955
 H626 H 0.25760 0.67034 0.24345
 H627 H 0.23958 0.60097 0.29331
 H628 H 0.25407 0.63288 0.27260
 C629 C 0.26667 0.87194 0.86114
 C630 C 0.27921 0.87398 0.89496
 C631 C 0.28070 0.89523 0.91256
 C632 C 0.26989 0.91487 0.89672
 C633 C 0.25797 0.91194 0.86213
 N634 N 0.25675 0.89103 0.84571
 C635 C 0.26390 0.84984 0.84123
 N636 N 0.25605 0.85019 0.80467
 C637 C 0.25252 0.83082 0.78447
 C638 C 0.25688 0.80932 0.80108
 C639 C 0.26491 0.80849 0.83876
 C640 C 0.26835 0.82862 0.85896
 H641 H 0.28962 0.89574 0.93948
 H642 H 0.25014 0.92621 0.84713
 H643 H 0.24626 0.83229 0.75551
 H644 H 0.26830 0.79227 0.85282
 H645 H 0.28790 0.85951 0.90801
 H646 H 0.27394 0.82729 0.88824
 C647 C 0.77189 0.36856 0.37186
 C648 C 0.77761 0.37005 0.41074
 C649 C 0.77845 0.39143 0.42811
 C650 C 0.77345 0.41137 0.40713
 C651 C 0.76784 0.40917 0.36843
 N652 N 0.76718 0.38818 0.35211
 C653 C 0.76989 0.34643 0.35169
 N654 N 0.75907 0.34630 0.31734
 C655 C 0.75615 0.32687 0.29700
 C656 C 0.76431 0.30578 0.31113
 C657 C 0.77579 0.30547 0.34623
 C658 C 0.77873 0.32569 0.36648
 H659 H 0.78241 0.39234 0.45824
 H660 H 0.76404 0.42411 0.35111
 H661 H 0.74727 0.32795 0.26998
 H662 H 0.78258 0.28961 0.35803
 H663 H 0.78084 0.35505 0.42809
 H664 H 0.78802 0.32486 0.39304
 C665 C 0.13229 0.27069 0.86933
 C666 C 0.13025 0.27599 0.90832
 C667 C 0.10875 0.27658 0.92542
 C668 C 0.08926 0.27175 0.90402
 C669 C 0.09200 0.26664 0.86518
 N670 N 0.11309 0.26619 0.84915
 C671 C 0.15461 0.26878 0.84953
 N672 N 0.15553 0.25793 0.81523
 C673 C 0.17521 0.25505 0.79522
 C674 C 0.19574 0.26329 0.80963
 C675 C 0.19522 0.27480 0.84468
 C676 C 0.17474 0.27769 0.86461
 H677 H 0.10745 0.28014 0.95565
 H678 H 0.07741 0.26299 0.84755
 H679 H 0.17477 0.24616 0.76822
 H680 H 0.21062 0.28165 0.85667
 H681 H 0.14494 0.27902 0.92596
 H682 H 0.17488 0.28701 0.89115
 C683 C 0.62678 0.76909 0.36353
 C684 C 0.62440 0.77418 0.40255
 C685 C 0.60271 0.77551 0.41884
 C686 C 0.58332 0.77162 0.39662
 C687 C 0.58639 0.76667 0.35778
 N688 N 0.60768 0.76549 0.34252
 C689 C 0.64933 0.76648 0.34460
 N690 N 0.65046 0.75573 0.31022
 C691 C 0.67039 0.75225 0.29108
 C692 C 0.69095 0.75974 0.30656
 C693 C 0.69021 0.77115 0.34170
 C694 C 0.66951 0.77467 0.36068
 H695 H 0.60114 0.77888 0.44911
 H696 H 0.57189 0.76371 0.33954
 H697 H 0.67013 0.74348 0.26397
 H698 H 0.70562 0.77746 0.35450
 H699 H 0.63897 0.77647 0.42084
 H700 H 0.66952 0.78391 0.38729
 C701 C 0.86638 0.73361 0.86422
 C702 C 0.86897 0.72701 0.90262
 C703 C 0.89065 0.72615 0.91889
 C704 C 0.90980 0.73201 0.89729
 C705 C 0.90650 0.73865 0.85913
 N706 N 0.88521 0.73930 0.84385
 C707 C 0.84376 0.73537 0.84546
 N708 N 0.84154 0.74822 0.81314
 C709 C 0.82137 0.75092 0.79440
 C710 C 0.80176 0.74034 0.80816
 C711 C 0.80370 0.72675 0.84110
 C712 C 0.82460 0.72412 0.85967
 H713 H 0.89235 0.72148 0.94870
 H714 H 0.92081 0.74320 0.84140
 H715 H 0.82069 0.76145 0.76897
 H716 H 0.78909 0.71803 0.85247
 H717 H 0.85453 0.72312 0.92045
 H718 H 0.82560 0.71312 0.88446
 C719 C 0.37682 0.23559 0.36204
 C720 C 0.38483 0.21554 0.38016
 C721 C 0.40577 0.21548 0.39897
 C722 C 0.41870 0.23532 0.39992
 C723 C 0.41020 0.25493 0.38117
 N724 N 0.38983 0.25454 0.36279
 C725 C 0.35474 0.23666 0.34178
 N726 N 0.35199 0.25153 0.31211
 C727 C 0.33205 0.25379 0.29261
 C728 C 0.31319 0.24086 0.30314
 C729 C 0.31559 0.22554 0.33385
 C730 C 0.33630 0.22335 0.35314
 H731 H 0.41172 0.20002 0.41318
 H732 H 0.41982 0.27048 0.38081
 H733 H 0.33089 0.26594 0.26931
 H734 H 0.30144 0.21532 0.34306
 H735 H 0.37525 0.19997 0.37942
 H736 H 0.33761 0.21179 0.37723
 C737 C 0.72478 0.86981 0.87162
 C738 C 0.71317 0.87313 0.90626
 C739 C 0.71303 0.89458 0.92357
 C740 C 0.72433 0.91313 0.90669
 C741 C 0.73522 0.90898 0.87134
 N742 N 0.73513 0.88792 0.85523
 C743 C 0.72634 0.84740 0.85189
 N744 N 0.73464 0.84687 0.81559
 C745 C 0.73743 0.82717 0.79559
 C746 C 0.73183 0.80617 0.81213
 C747 C 0.72315 0.80622 0.84945
 C748 C 0.72045 0.82670 0.86946
 H749 H 0.70480 0.89603 0.95108
 H750 H 0.74329 0.92244 0.85553
 H751 H 0.74418 0.82798 0.76688
 H752 H 0.71875 0.79039 0.86343
 H753 H 0.70425 0.85952 0.92026
 H754 H 0.71430 0.82597 0.89848
 C755 C 0.23765 0.36931 0.36829
 C756 C 0.24073 0.37097 0.40793
 C757 C 0.23950 0.39236 0.42533
 C758 C 0.23514 0.41208 0.40344
 C759 C 0.23218 0.40969 0.36395
 N760 N 0.23366 0.38871 0.34758
 C761 C 0.23953 0.34722 0.34805
 N762 N 0.24618 0.34715 0.31083
 C763 C 0.24865 0.32758 0.29038
 C764 C 0.24418 0.30638 0.30732
 C765 C 0.23682 0.30607 0.34543
 C766 C 0.23450 0.32641 0.36589
 H767 H 0.24181 0.39349 0.45592
 H768 H 0.22908 0.42452 0.34601
 H769 H 0.25417 0.32864 0.26097
 H770 H 0.23306 0.29010 0.35954
 H771 H 0.24454 0.35606 0.42528
 H772 H 0.22857 0.32577 0.39511
 C773 C 0.26758 0.12822 0.85700
 C774 C 0.28850 0.11818 0.86770
 C775 C 0.28898 0.09688 0.88569
 C776 C 0.26859 0.08545 0.89377
 C777 C 0.24799 0.09625 0.88203
 N778 N 0.24807 0.11685 0.86401
 C779 C 0.26616 0.15077 0.83800
 N780 N 0.24939 0.15496 0.81192
 C781 C 0.24686 0.17545 0.79385
 C782 C 0.26145 0.19340 0.80237
 C783 C 0.27869 0.18953 0.82949
 C784 C 0.28119 0.16823 0.84717
 H785 H 0.30538 0.09002 0.89467
 H786 H 0.23179 0.08812 0.88578
 H787 H 0.23322 0.17781 0.77336
 H788 H 0.29026 0.20295 0.83696
 H789 H 0.30439 0.12659 0.86201
 H790 H 0.29438 0.16566 0.86841
 C791 C 0.75706 0.62295 0.35699
 C792 C 0.73832 0.60849 0.35911
 C793 C 0.74025 0.58803 0.37949
 C794 C 0.76080 0.58186 0.39754
 C795 C 0.77912 0.59678 0.39478
 N796 N 0.77676 0.61674 0.37511
 C797 C 0.75574 0.64509 0.33664
 N798 N 0.76874 0.66255 0.34901
 C799 C 0.76816 0.68348 0.33208
 C800 C 0.75400 0.68773 0.30047
 C801 C 0.74082 0.66982 0.28676
 C802 C 0.74160 0.64854 0.30476
 H803 H 0.72574 0.57696 0.38095
 H804 H 0.79514 0.59276 0.40878
 H805 H 0.77875 0.69675 0.34337
 H806 H 0.72973 0.67231 0.26234
 H807 H 0.72219 0.61310 0.34594
 H808 H 0.73147 0.63492 0.29347
 C809 C 0.12062 0.74806 0.84854
 C810 C 0.10793 0.76786 0.85760
 C811 C 0.08761 0.76608 0.87800
 C812 C 0.07950 0.74455 0.88915
 C813 C 0.09293 0.72515 0.87915
 N814 N 0.11288 0.72743 0.85991
 C815 C 0.14262 0.74909 0.82815
 N816 N 0.15936 0.73344 0.83669
 C817 C 0.18013 0.73354 0.81949
 C818 C 0.18491 0.74994 0.79146
 C819 C 0.16772 0.76593 0.78160
 C820 C 0.14662 0.76564 0.80000
 H821 H 0.07798 0.78167 0.88363
 H822 H 0.08829 0.70817 0.88797
 H823 H 0.19285 0.72078 0.82768
 H824 H 0.17070 0.77883 0.76006
 H825 H 0.11378 0.78460 0.84959
 H826 H 0.13353 0.77804 0.79191
 C827 C 0.62827 0.23859 0.35471
 C828 C 0.60739 0.24163 0.33555
 C829 C 0.58703 0.24011 0.35587
 C830 C 0.58731 0.23536 0.39514
 C831 C 0.60848 0.23180 0.41302
 N832 N 0.62811 0.23354 0.39268
 C833 C 0.65049 0.24058 0.33500
 N834 N 0.66937 0.23079 0.35135
 C835 C 0.69044 0.23216 0.33549
 C836 C 0.69349 0.24411 0.30113
 C837 C 0.67433 0.25451 0.28392
 C838 C 0.65287 0.25286 0.30074
 H839 H 0.57105 0.24245 0.34080
 H840 H 0.60948 0.22819 0.44329
 H841 H 0.70476 0.22395 0.34985
 H842 H 0.67591 0.26407 0.25758
 H843 H 0.60659 0.24486 0.30519
 H844 H 0.63855 0.26158 0.28731
 C845 C 0.87946 0.25262 0.85535
 C846 C 0.89506 0.23407 0.85658
 C847 C 0.91527 0.23597 0.87718
 C848 C 0.92005 0.25630 0.89634
 C849 C 0.90402 0.27441 0.89442
 N850 N 0.88435 0.27208 0.87453
 C851 C 0.85748 0.25136 0.83497
 N852 N 0.83944 0.26422 0.84770
 C853 C 0.81864 0.26388 0.83073
 C854 C 0.81511 0.25012 0.79864
 C855 C 0.83359 0.23703 0.78457
 C856 C 0.85475 0.23755 0.80266
 H857 H 0.92723 0.22162 0.87794
 H858 H 0.90694 0.29026 0.90925
 H859 H 0.80492 0.27439 0.84233
 H860 H 0.83165 0.22627 0.75977
 H861 H 0.89155 0.21811 0.84256
 H862 H 0.86882 0.22753 0.79107
 C863 C 0.37235 0.75565 0.34704
 C864 C 0.38800 0.73714 0.34726
 C865 C 0.40833 0.73879 0.36759
 C866 C 0.41318 0.75884 0.38747
 C867 C 0.39709 0.77694 0.38657
 N868 N 0.37729 0.77485 0.36692
 C869 C 0.35031 0.75458 0.32681
 N870 N 0.33207 0.76674 0.34061
 C871 C 0.31121 0.76637 0.32382
 C872 C 0.30785 0.75335 0.29081
 C873 C 0.32654 0.74106 0.27564
 C874 C 0.34774 0.74157 0.29356
 H875 H 0.42033 0.72446 0.36758
 H876 H 0.40008 0.79257 0.40199
 H877 H 0.29731 0.77626 0.33627
 H878 H 0.32474 0.73087 0.25013
 H879 H 0.38444 0.72138 0.33262
 H880 H 0.36197 0.73215 0.28116
 C881 C 0.25665 0.87579 0.14062
 C882 C 0.23815 0.89141 0.13929
 C883 C 0.24019 0.91183 0.11905
 C884 C 0.26065 0.91682 0.10040
 C885 C 0.27874 0.90077 0.10242
 N886 N 0.27626 0.88085 0.12191
 C887 C 0.25513 0.85364 0.16077
 N888 N 0.26729 0.83528 0.14734
 C889 C 0.26640 0.81431 0.16400
 C890 C 0.25281 0.81095 0.19646
 C891 C 0.24054 0.82976 0.21127
 C892 C 0.24159 0.85107 0.19349
 H893 H 0.22586 0.92379 0.11816
 H894 H 0.29469 0.90389 0.08798
 H895 H 0.27630 0.80031 0.15184
 H896 H 0.22991 0.82796 0.23634
 H897 H 0.22210 0.88774 0.15299
 H898 H 0.23212 0.86539 0.20556
 C899 C 0.76921 0.37195 0.64559
 C900 C 0.78915 0.37912 0.62738
 C901 C 0.78927 0.40034 0.60919
 C902 C 0.76959 0.41437 0.60894
 C903 C 0.75011 0.40672 0.62791
 N904 N 0.75044 0.38604 0.64567
 C905 C 0.76800 0.34950 0.66473
 N906 N 0.75372 0.34710 0.69505
 C907 C 0.75127 0.32681 0.71340
 C908 C 0.76331 0.30724 0.70088
 C909 C 0.77800 0.30930 0.66950
 C910 C 0.78046 0.33037 0.65147
 H911 H 0.80462 0.40564 0.59477
 H912 H 0.73470 0.41721 0.62877
 H913 H 0.73962 0.32592 0.73730
 H914 H 0.78753 0.29461 0.65882
 H915 H 0.80454 0.36860 0.62745
 H916 H 0.79152 0.33147 0.62684
 C917 C 0.73460 0.12932 0.13643
 C918 C 0.72891 0.12805 0.09751
 C919 C 0.72715 0.10674 0.08019
 C920 C 0.73120 0.08664 0.10125
 C921 C 0.73689 0.08862 0.13996
 N922 N 0.73845 0.10955 0.15625
 C923 C 0.73735 0.15136 0.15651
 N924 N 0.74854 0.15128 0.19054
 C925 C 0.75201 0.17065 0.21079
 C926 C 0.74401 0.19186 0.19691
 C927 C 0.73219 0.19237 0.16213
 C928 C 0.72871 0.17223 0.14198
 H929 H 0.72320 0.10599 0.05004
 H930 H 0.74001 0.07355 0.15733
 H931 H 0.76113 0.16943 0.23757
 H932 H 0.72549 0.20832 0.15055
 H933 H 0.72640 0.14315 0.08011
 H934 H 0.71911 0.17321 0.11573
 C935 C 0.23141 0.63321 0.62452
 C936 C 0.23524 0.63159 0.58503
 C937 C 0.23486 0.61026 0.56741
 C938 C 0.23062 0.59056 0.58894
 C939 C 0.22685 0.59292 0.62829
 N940 N 0.22751 0.61384 0.64487
 C941 C 0.23253 0.65519 0.64507
 N942 N 0.23828 0.65490 0.68269
 C943 C 0.24019 0.67432 0.70343
 C944 C 0.23614 0.69576 0.68636
 C945 C 0.22965 0.69646 0.64784
 C946 C 0.22783 0.67626 0.62711
 H947 H 0.23776 0.60917 0.53694
 H948 H 0.22382 0.57810 0.64598
 H949 H 0.24505 0.67296 0.73315
 H950 H 0.22622 0.71262 0.63360
 H951 H 0.23902 0.64646 0.56795
 H952 H 0.22259 0.67723 0.59756
 C953 C 0.87068 0.73450 0.13687
 C954 C 0.87824 0.71477 0.11752
 C955 C 0.89901 0.71487 0.09806
 C956 C 0.91215 0.73458 0.09757
 C957 C 0.90405 0.75388 0.11743
 N958 N 0.88389 0.75332 0.13652
 C959 C 0.84887 0.73538 0.15803
 N960 N 0.84686 0.74929 0.18896
 C961 C 0.82719 0.75144 0.20927
 C962 C 0.80780 0.73950 0.19826
 C963 C 0.80944 0.72517 0.16631
 C964 C 0.82994 0.72298 0.14625
 H965 H 0.90468 0.69964 0.08302
 H966 H 0.91385 0.76931 0.11813
 H967 H 0.82661 0.76283 0.23353
 H968 H 0.79486 0.71574 0.15672
 H969 H 0.86845 0.69934 0.11785
 H970 H 0.83071 0.71219 0.12124
 C971 C 0.37421 0.23584 0.63592
 C972 C 0.37611 0.22939 0.59740
 C973 C 0.39755 0.22816 0.58016
 C974 C 0.41713 0.23351 0.60092
 C975 C 0.41453 0.23992 0.63924
 N976 N 0.39349 0.24092 0.65546
 C977 C 0.35195 0.23812 0.65589
 N978 N 0.35108 0.24975 0.68947
 C979 C 0.33146 0.25289 0.70960
 C980 C 0.31096 0.24408 0.69607
 C981 C 0.31144 0.23179 0.66176
 C982 C 0.33184 0.22867 0.64173
 H983 H 0.39875 0.22361 0.55029
 H984 H 0.42920 0.24403 0.65637
 H985 H 0.33192 0.26239 0.73601
 H986 H 0.29608 0.22448 0.65047
 H987 H 0.36136 0.22587 0.58018
 H988 H 0.33166 0.21871 0.61585
 C989 C 0.13106 0.26253 0.13991
 C990 C 0.12261 0.28284 0.12320
 C991 C 0.10148 0.28300 0.10494
 C992 C 0.08885 0.26299 0.10309
 C993 C 0.09782 0.24311 0.12038
 N994 N 0.11833 0.24341 0.13830
 C995 C 0.15328 0.26138 0.15973
 N996 N 0.15632 0.24613 0.18879
 C997 C 0.17637 0.24381 0.20792
 C998 C 0.19505 0.25707 0.19763
 C999 C 0.19237 0.27275 0.16751
 C1000 C 0.17152 0.27502 0.14860
 H1001 H 0.09514 0.29868 0.09186
 H1002 H 0.08843 0.22741 0.11998
 H1003 H 0.17777 0.23138 0.23077
 H1004 H 0.20638 0.28324 0.15853
 H1005 H 0.13198 0.29852 0.12465
 H1006 H 0.16995 0.28691 0.12500
 C1007 C 0.61920 0.76019 0.64537
 C1008 C 0.59811 0.76365 0.66369
 C1009 C 0.57818 0.76475 0.64207
 C1010 C 0.57913 0.76242 0.60227
 C1011 C 0.60056 0.75928 0.58501
 N1012 N 0.61978 0.75836 0.60665
 C1013 C 0.64086 0.75867 0.66690
 N1014 N 0.66055 0.76459 0.64922
 C1015 C 0.68113 0.76323 0.66698
 C1016 C 0.68276 0.75518 0.70469
 C1017 C 0.66270 0.74882 0.72334
 C1018 C 0.64177 0.75054 0.70463
 H1019 H 0.56198 0.76715 0.65652
 H1020 H 0.60206 0.75778 0.55433
 H1021 H 0.69619 0.76816 0.65142
 H1022 H 0.66317 0.74237 0.75233
 H1023 H 0.59695 0.76580 0.69428
 H1024 H 0.62664 0.74501 0.71935
   
