data_POSCAR
  _audit_creation_date              2014-09-24
  _audit_creation_method            'ToBaCCo'
  _symmetry_space_group_name_H-M    'P1'
  _symmetry_Int_Tables_number       1
  _symmetry_cell_setting            triclinic
  loop_
  _symmetry_equiv_pos_as_xyz
 x,y,z
_cell_length_a 27.8756
_cell_length_b 27.9369
_cell_length_c 71.1111
_cell_angle_alpha 84.063900
_cell_angle_beta 92.693900
_cell_angle_gamma 120.157300
loop_
  _atom_site_label
  _atom_site_type_symbol
  _atom_site_fract_x
  _atom_site_fract_y
  _atom_site_fract_z
C1 C -0.00453 0.10427 0.52335
 H2 H 0.03514 0.10637 0.52247
 C3 C -0.01094 0.13753 0.53512
 H4 H 0.02387 0.16532 0.54339
 C5 C -0.09849 0.06503 0.51372
 H6 H -0.13232 0.03677 0.50530
 C7 C -0.10674 0.09770 0.52542
 H8 H -0.14706 0.09436 0.52610
 N9 N -0.04810 0.06843 0.51314
 C10 C -0.01403 -0.06485 0.50632
 H11 H -0.01104 -0.06269 0.49111
 C12 C -0.01205 -0.10777 0.51772
 H13 H -0.00708 -0.13855 0.51131
 C14 C -0.02719 -0.02930 0.53330
 H15 H -0.03480 0.00016 0.53934
 C16 C -0.02533 -0.07132 0.54516
 H17 H -0.03082 -0.07351 0.56027
 Zn18 Zn -0.03277 0.02536 0.49828
 N19 N -0.02174 -0.02686 0.51425
 C20 C 0.07739 0.07051 0.48365
 N21 N 0.03140 0.07570 0.48386
 C22 C 0.02933 0.11870 0.47375
 C23 C 0.07405 0.15787 0.46243
 C24 C 0.12322 0.10892 0.47244
 C25 C -0.14085 -0.05759 0.48954
 C26 C -0.18262 -0.09354 0.47788
 C27 C -0.12367 -0.04148 0.45077
 C28 C -0.08311 -0.00678 0.46291
 N29 N -0.09208 -0.01556 0.48193
 H30 H 0.07847 0.03652 0.49202
 H31 H -0.00757 0.12206 0.47435
 H32 H 0.07160 0.19145 0.45421
 H33 H 0.15943 0.10423 0.47206
 H34 H -0.14642 -0.06441 0.50473
 H35 H -0.22064 -0.12783 0.48414
 H36 H -0.11524 -0.03477 0.43570
 H37 H -0.04370 0.02575 0.45712
 C38 C -0.01829 -0.11122 0.53730
 C39 C -0.06251 0.13401 0.53628
 C40 C -0.17358 -0.08579 0.45830
 C41 C 0.12126 0.15278 0.46166
 C42 C 1.15297 0.06052 0.14244
 H43 H 1.15593 0.10061 0.14259
 C44 C 1.18906 0.05490 0.13116
 H45 H 1.21988 0.09073 0.12254
 C46 C 1.10863 -0.03531 0.15333
 H47 H 1.07723 -0.07020 0.16202
 C48 C 1.14402 -0.04279 0.14217
 H49 H 1.13963 -0.08358 0.14217
 N50 N 1.11328 0.01567 0.15301
 C51 C 0.97903 0.05079 0.15775
 H52 H 0.97659 0.05086 0.17289
 C53 C 0.93925 0.05465 0.14597
 H54 H 0.90632 0.05818 0.15200
 C55 C 1.02280 0.04269 0.13141
 H56 H 1.05418 0.03621 0.12580
 C57 C 0.98405 0.04654 0.11917
 H58 H 0.98627 0.04368 0.10419
 Zn59 Zn 1.06635 0.02958 0.16703
 N60 N 1.01951 0.04454 0.15034
 C61 C 1.10787 0.13684 0.18043
 N62 N 1.11289 0.09071 0.18089
 C63 C 1.15258 0.08609 0.19145
 C64 C 1.18818 0.12811 0.20262
 C65 C 1.14274 0.17999 0.19147
 C66 C 0.97875 -0.07914 0.17659
 C67 C 0.93817 -0.12237 0.18847
 C68 C 0.98299 -0.06937 0.21510
 C69 C 1.02249 -0.02717 0.20277
 N70 N 1.01945 -0.03244 0.18387
 H71 H 1.07656 0.13997 0.17173
 H72 H 1.15589 0.04914 0.19140
 H73 H 1.21895 0.12353 0.21125
 H74 H 1.13799 0.21619 0.19136
 H75 H 0.97652 -0.08174 0.16147
 H76 H 0.90482 -0.15859 0.18252
 H77 H 0.98481 -0.06398 0.23004
 H78 H 1.05407 0.01068 0.20828
 C79 C 0.94151 0.05184 0.12652
 C80 C 1.18432 0.00277 0.13090
 C81 C 0.93995 -0.11697 0.20787
 C82 C 1.18295 0.17526 0.20276
 C83 C 0.03887 0.90830 0.86009
 H84 H 0.00163 0.86808 0.85985
 C85 C 0.08337 0.91414 0.87142
 H86 H 0.08041 0.87839 0.88001
 C87 C 0.08802 1.00421 0.84929
 H88 H 0.08964 1.03905 0.84058
 C89 C 0.13358 1.01189 0.86047
 H90 H 0.17011 1.05279 0.86048
 N91 N 0.04157 0.95312 0.84956
 C92 C -0.12910 0.91813 0.84401
 H93 H -0.13440 0.91903 0.82883
 C94 C -0.17000 0.91493 0.85560
 H95 H -0.20711 0.91288 0.84933
 C96 C -0.07253 0.92386 0.87064
 H97 H -0.03377 0.92944 0.87644
 C98 C -0.11231 0.92054 0.88271
 H99 H -0.10403 0.92292 0.89773
 Zn100 Zn -0.02218 0.93980 0.83524
 N101 N -0.08121 0.92323 0.85164
 C102 C -0.08985 0.83405 0.82038
 N103 N -0.03884 0.88046 0.82069
 C104 C 0.00427 0.88684 0.81042
 C105 C -0.00325 0.84634 0.79885
 C106 C -0.09923 0.79235 0.80890
 C107 C -0.00121 1.04934 0.82684
 C108 C 0.00223 1.09477 0.81536
 C109 C -0.01121 1.04474 0.78802
 C110 C -0.01451 1.00031 0.79998
 N111 N -0.00962 1.00326 0.81902
 H112 H -0.12331 0.82959 0.82884
 H113 H 0.04445 0.92398 0.81107
 H114 H 0.03119 0.85230 0.79051
 H115 H -0.14005 0.75586 0.80843
 H116 H 0.00130 1.05013 0.84204
 H117 H 0.00788 1.13088 0.82169
 H118 H -0.01616 1.04157 0.77292
 H119 H -0.02266 0.96295 0.79402
 C120 C -0.16104 0.91705 0.87511
 C121 C 0.13097 0.96645 0.87172
 C122 C -0.00331 1.09214 0.79578
 C123 C -0.05549 0.79886 0.79796
 C124 C 0.62626 -0.01027 -0.01719
 C125 C 0.65732 -0.00170 -0.00058
 C126 C 0.63861 0.00517 0.01629
 C127 C 0.58689 0.00308 0.01674
 C128 C 0.55555 -0.00407 -0.00011
 C129 C 0.57563 -0.00998 -0.01719
 C130 C 0.54551 -0.01367 -0.03393
 C131 C 0.49630 -0.01229 -0.03388
 C132 C 0.47472 -0.00820 -0.01703
 C133 C 0.50450 -0.00424 0.00004
 C134 C 0.56646 0.00955 0.03343
 C135 C 0.51572 0.00783 0.03369
 C136 C 0.48390 0.00064 0.01719
 C137 C 0.43282 -0.00000 0.01724
 C138 C 0.40476 -0.00250 0.00022
 C139 C 0.42497 -0.00632 -0.01684
 H140 H 0.56035 -0.01638 -0.04734
 H141 H 0.47555 -0.01414 -0.04725
 H142 H 0.58964 0.01637 0.04647
 H143 H 0.50231 0.01348 0.04690
 H144 H 0.69644 -0.00130 -0.00069
 H145 H 0.36592 -0.00233 0.00029
 C146 C -0.05009 0.37379 0.65010
 C147 C -0.04258 0.34930 0.66729
 C148 C -0.03997 0.37104 0.68440
 C149 C -0.04499 0.41898 0.68446
 C150 C -0.05118 0.44521 0.66706
 C151 C -0.05342 0.42275 0.64981
 C152 C -0.05760 0.45054 0.63272
 C153 C -0.05942 0.49945 0.63253
 C154 C -0.05704 0.52258 0.64943
 C155 C -0.05411 0.49458 0.66689
 C156 C -0.04241 0.44229 0.70134
 C157 C -0.04694 0.48972 0.70121
 C158 C -0.05319 0.51634 0.68416
 C159 C -0.05689 0.56512 0.68385
 C160 C -0.05864 0.59276 0.66650
 C161 C -0.05774 0.57289 0.64934
 H162 H -0.05865 0.43523 0.61925
 H163 H -0.06302 0.51881 0.61897
 H164 H -0.03652 0.42428 0.71484
 H165 H -0.04435 0.50595 0.71462
 H166 H -0.03952 0.31205 0.66740
 H167 H -0.05986 0.63102 0.66636
 C168 C 0.42044 0.43363 0.31558
 C169 C 0.39097 0.40819 0.33248
 C170 C 0.40899 0.43315 0.34942
 C171 C 0.45758 0.48590 0.34951
 C172 C 0.48899 0.51145 0.33260
 C173 C 0.47063 0.48503 0.31560
 C174 C 0.50315 0.51040 0.29916
 C175 C 0.55230 0.56112 0.29930
 C176 C 0.57097 0.58843 0.31590
 C177 C 0.53864 0.56375 0.33266
 C178 C 0.47482 0.51434 0.36589
 C179 C 0.52256 0.56634 0.36580
 C180 C 0.55556 0.59146 0.34943
 C181 C 0.60434 0.64418 0.34922
 C182 C 0.63590 0.66774 0.33261
 C183 C 0.62059 0.64031 0.31612
 H184 H 0.49112 0.49110 0.28601
 H185 H 0.57513 0.57904 0.28614
 H186 H 0.45099 0.49712 0.37888
 H187 H 0.53314 0.58671 0.37873
 H188 H 0.35304 0.36827 0.33242
 H189 H 0.67388 0.70761 0.33268
 C190 C -0.01425 0.31240 0.61185
 C191 C -0.06406 0.28775 0.60179
 C192 C -0.10880 0.29305 0.60711
 C193 C -0.10392 0.32231 0.62259
 C194 C -0.06937 0.16672 0.54913
 C195 C -0.00936 0.34155 0.62731
 C196 C -0.06941 0.25510 0.58662
 C197 C -0.07187 0.22730 0.57432
 C198 C -0.07201 0.19456 0.56046
 C199 C -0.05417 0.34662 0.63282
 H200 H 0.02052 0.30830 0.60793
 H201 H -0.14764 0.27383 0.59951
 H202 H -0.13914 0.32518 0.62684
 H203 H 0.02911 0.35961 0.63515
 C204 C 0.70933 0.74661 0.27679
 C205 C 0.73680 0.72119 0.27017
 C206 C 0.72475 0.66832 0.27813
 C207 C 0.68586 0.64130 0.29283
 C208 C 0.89555 0.84270 0.22025
 C209 C 0.67051 0.71967 0.29147
 C210 C 0.77923 0.75084 0.25587
 C211 C 0.81545 0.77762 0.24425
 C212 C 0.85847 0.81145 0.23108
 C213 C 0.65855 0.66687 0.29961
 H214 H 0.71861 0.78766 0.27081
 H215 H 0.74608 0.64847 0.27323
 H216 H 0.67776 0.60095 0.29916
 H217 H 0.65023 0.74020 0.29665
 C218 C 0.35370 0.03697 -0.05573
 C219 C 0.32436 -0.01172 -0.06489
 C220 C 0.32989 -0.05807 -0.05885
 C221 C 0.36394 -0.05600 -0.04349
 C222 C 0.17582 -0.02667 -0.11586
 C223 C 0.38767 0.03906 -0.04039
 C224 C 0.28599 -0.01508 -0.07967
 C225 C 0.25257 -0.01808 -0.09157
 C226 C 0.21193 -0.02220 -0.10493
 C227 C 0.39283 -0.00746 -0.03412
 H228 H 0.34938 0.07289 -0.06018
 H229 H 0.30697 -0.09612 -0.06574
 H230 H 0.36689 -0.09248 -0.03864
 H231 H 0.40927 0.07661 -0.03318
 C232 C -0.09116 0.65833 0.61199
 C233 C -0.04362 0.68302 0.60054
 C234 C -0.00207 0.66929 0.60447
 C235 C -0.00754 0.63186 0.62002
 C236 C -0.02079 0.84300 0.54942
 C237 C -0.09664 0.62095 0.62754
 C238 C -0.03613 0.72510 0.58559
 C239 C -0.03033 0.76145 0.57360
 C240 C -0.02452 0.80508 0.56023
 C241 C -0.05474 0.60768 0.63173
 H242 H -0.12336 0.66898 0.60917
 H243 H 0.03510 0.68852 0.59581
 H244 H 0.02564 0.62285 0.62325
 H245 H -0.13302 0.60317 0.63654
 C246 C 0.35940 0.32260 0.28141
 C247 C 0.34012 0.34681 0.26705
 C248 C 0.34974 0.40074 0.26807
 C249 C 0.37763 0.42990 0.28361
 C250 C 0.21749 0.21707 0.21514
 C251 C 0.38719 0.35166 0.29694
 C252 C 0.30789 0.31482 0.25188
 C253 C 0.27993 0.28603 0.23972
 C254 C 0.24643 0.24996 0.22615
 C255 C 0.39625 0.40539 0.29820
 H256 H 0.35188 0.28078 0.28082
 H257 H 0.33464 0.41970 0.25711
 H258 H 0.38348 0.47097 0.28452
 H259 H 0.40077 0.33194 0.30816
 C260 C 0.64130 -0.08302 -0.05671
 C261 C 0.69387 -0.04314 -0.06389
 C262 C 0.72305 0.00836 -0.05636
 C263 C 0.70030 0.01964 -0.04149
 C264 C 0.80330 -0.07934 -0.11342
 C265 C 0.61845 -0.07175 -0.04183
 C266 C 0.71962 -0.05573 -0.07821
 C267 C 0.74349 -0.06498 -0.08978
 C268 C 0.77431 -0.07385 -0.10279
 C269 C 0.64794 -0.02040 -0.03406
 H270 H 0.61856 -0.12316 -0.06233
 H271 H 0.76390 0.03939 -0.06172
 H272 H 0.72382 0.05924 -0.03556
 H273 H 0.57839 -0.10343 -0.03607
 C274 C 0.36551 0.04217 0.05203
 C275 C 0.34688 -0.00246 0.06606
 C276 C 0.35886 -0.04499 0.06461
 C277 C 0.38850 -0.04337 0.04897
 C278 C 0.21960 -0.00346 0.11842
 C279 C 0.39503 0.04379 0.03641
 C280 C 0.31314 -0.00550 0.08136
 C281 C 0.28404 -0.00671 0.09362
 C282 C 0.24937 -0.00612 0.10732
 C283 C 0.40651 0.00092 0.03472
 H284 H 0.35622 0.07514 0.05297
 H285 H 0.34432 -0.07989 0.07532
 H286 H 0.39624 -0.07723 0.04773
 H287 H 0.40815 0.07798 0.02547
 C288 C 0.66758 0.68941 0.39702
 C289 C 0.67173 0.74165 0.39643
 C290 C 0.65152 0.76072 0.38077
 C291 C 0.62815 0.72816 0.36562
 C292 C 0.79064 0.87848 0.44713
 C293 C 0.64419 0.65679 0.38186
 C294 C 0.70047 0.77748 0.41116
 C295 C 0.72662 0.80853 0.42302
 C296 C 0.75985 0.84590 0.43632
 C297 C 0.62454 0.67610 0.36603
 H298 H 0.68364 0.67452 0.40896
 H299 H 0.65502 0.80128 0.38008
 H300 H 0.61372 0.74389 0.35342
 H301 H 0.64250 0.61711 0.38226
 C302 C -0.06727 0.28149 0.73080
 C303 C -0.01821 0.27916 0.73282
 C304 C 0.02461 0.30922 0.71951
 C305 C 0.01804 0.34056 0.70406
 C306 C -0.00393 0.13629 0.78360
 C307 C -0.07388 0.31291 0.71533
 C308 C -0.01325 0.24279 0.74767
 C309 C -0.00949 0.21080 0.75955
 C310 C -0.00590 0.17152 0.77282
 C311 C -0.03135 0.34234 0.70180
 H312 H -0.10089 0.25794 0.74091
 H313 H 0.06251 0.30732 0.72084
 H314 H 0.05099 0.36257 0.69363
 H315 H -0.11255 0.31321 0.71363
 C316 C 0.76347 0.07199 0.04796
 C317 C 0.74843 0.03137 0.06328
 C318 C 0.69635 -0.01713 0.06358
 C319 C 0.65980 -0.02529 0.04847
 C320 C 0.89861 0.05058 0.11414
 C321 C 0.72701 0.06387 0.03288
 C322 C 0.78792 0.03796 0.07802
 C323 C 0.82206 0.04296 0.08990
 C324 C 0.86302 0.04778 0.10324
 C325 C 0.67503 0.01514 0.03300
 H326 H 0.80382 0.10942 0.04751
 H327 H 0.68451 -0.04908 0.07527
 H328 H 0.62014 -0.06345 0.04865
 H329 H 0.73956 0.09520 0.02096
 C330 C 0.28661 0.35356 0.38285
 C331 C 0.30902 0.33371 0.39757
 C332 C 0.36509 0.34884 0.39702
 C333 C 0.39834 0.38285 0.38160
 C334 C 0.16629 0.19167 0.44925
 C335 C 0.31973 0.38744 0.36745
 C336 C 0.27338 0.29573 0.41267
 C337 C 0.24156 0.26318 0.42476
 C338 C 0.20203 0.22461 0.43827
 C339 C 0.37574 0.40209 0.36666
 H340 H 0.24322 0.34190 0.38308
 H341 H 0.38276 0.33343 0.40828
 H342 H 0.44126 0.39306 0.38107
 H343 H 0.30152 0.40149 0.35597
 C344 C -0.01860 0.66847 0.72003
 C345 C -0.06386 0.64019 0.73250
 C346 C -0.10594 0.58619 0.72949
 C347 C -0.10308 0.56093 0.71390
 C348 C -0.06357 0.75854 0.78526
 C349 C -0.01575 0.64334 0.70447
 C350 C -0.06754 0.66806 0.74783
 C351 C -0.06868 0.69399 0.76017
 C352 C -0.06735 0.72739 0.77401
 C353 C -0.05802 0.58949 0.70125
 H354 H 0.01407 0.71033 0.72217
 H355 H -0.14129 0.56406 0.73899
 H356 H -0.13642 0.51964 0.71146
 H357 H 0.01906 0.66611 0.69477
   
