data_POSCAR
  _audit_creation_date              2014-09-24
  _audit_creation_method            'ToBaCCo'
  _symmetry_space_group_name_H-M    'P1'
  _symmetry_Int_Tables_number       1
  _symmetry_cell_setting            triclinic
  loop_
  _symmetry_equiv_pos_as_xyz
 x,y,z
_cell_length_a 31.0606
_cell_length_b 30.4458
_cell_length_c 10.8173
_cell_angle_alpha 100.315100
_cell_angle_beta 78.053400
_cell_angle_gamma 87.796500
loop_
  _atom_site_label
  _atom_site_type_symbol
  _atom_site_fract_x
  _atom_site_fract_y
  _atom_site_fract_z
C1 C 1.26521 0.22188 0.40480
 C2 C 1.24082 0.22730 0.31241
 C3 C 1.21536 0.19310 0.27070
 C4 C 1.21854 0.15179 0.30991
 C5 C 1.24884 0.14468 0.38596
 C6 C 1.27384 0.17941 0.43086
 C7 C 1.25299 0.26260 0.23686
 C8 C 1.29799 0.26806 0.19757
 C9 C 1.31283 0.30340 0.13828
 C10 C 1.28089 0.33255 0.11093
 C11 C 1.23533 0.32573 0.14142
 C12 C 1.22179 0.29051 0.20552
 H13 H 1.28269 0.24989 0.43896
 H14 H 1.19665 0.19700 0.19869
 H15 H 1.32137 0.24508 0.21949
 H16 H 1.18717 0.28513 0.23345
 H17 H 1.25309 0.11173 0.40785
 H18 H 1.29142 0.36018 0.06491
 C19 C 0.77423 -0.29730 0.29123
 C20 C 0.73924 -0.27573 0.25584
 C21 C 0.69757 -0.29226 0.28372
 C22 C 0.69075 -0.32998 0.34106
 C23 C 0.72664 -0.35130 0.37643
 C24 C 0.76827 -0.33293 0.35875
 C25 C 0.74508 -0.23346 0.20244
 C26 C 0.77771 -0.20519 0.23220
 C27 C 0.77978 -0.16236 0.20134
 C28 C 0.74788 -0.14732 0.13965
 C29 C 0.71492 -0.17510 0.10733
 C30 C 0.71533 -0.21867 0.13388
 H31 H 0.80711 -0.28663 0.26532
 H32 H 0.66958 -0.27549 0.26197
 H33 H 0.80088 -0.21583 0.28416
 H34 H 0.69078 -0.24031 0.10728
 H35 H 0.72124 -0.37928 0.42557
 H36 H 0.74787 -0.11365 0.12031
 C37 C 0.77667 0.19613 -0.24029
 C38 C 0.74289 0.22608 -0.25367
 C39 C 0.69883 0.21589 -0.22096
 C40 C 0.68769 0.17618 -0.18017
 C41 C 0.72159 0.14619 -0.16895
 C42 C 0.76632 0.15583 -0.19866
 C43 C 0.75192 0.26913 -0.29703
 C44 C 0.78322 0.29568 -0.25215
 C45 C 0.78589 0.34031 -0.27007
 C46 C 0.75506 0.35825 -0.33135
 C47 C 0.72385 0.33155 -0.37940
 C48 C 0.72454 0.28648 -0.36781
 H49 H 0.81091 0.20313 -0.26734
 H50 H 0.67277 0.23905 -0.22886
 H51 H 0.80444 0.28130 -0.20022
 H52 H 0.70128 0.26532 -0.40536
 H53 H 0.71298 0.11533 -0.13693
 H54 H 0.75441 0.39320 -0.33899
 C55 C 1.27019 -0.27702 -0.08471
 C56 C 1.24519 -0.27289 -0.17671
 C57 C 1.21887 -0.30711 -0.21189
 C58 C 1.22105 -0.34705 -0.16501
 C59 C 1.25099 -0.35294 -0.08682
 C60 C 1.27772 -0.31854 -0.05099
 C61 C 1.25669 -0.23884 -0.25730
 C62 C 1.30150 -0.23255 -0.29636
 C63 C 1.31507 -0.19837 -0.36062
 C64 C 1.28356 -0.17183 -0.39691
 C65 C 1.23835 -0.17960 -0.36735
 C66 C 1.22512 -0.21314 -0.29563
 H67 H 1.28837 -0.24896 -0.05530
 H68 H 1.19995 -0.30439 -0.28419
 H69 H 1.32623 -0.25341 -0.27160
 H70 H 1.19057 -0.21891 -0.26807
 H71 H 1.25393 -0.38480 -0.05722
 H72 H 1.29434 -0.14484 -0.44581
 C73 C 0.21761 0.29088 0.72281
 C74 C 0.23772 0.25654 0.76622
 C75 C 0.22142 0.21399 0.74813
 C76 C 0.18493 0.20472 0.69234
 C77 C 0.16437 0.24060 0.65079
 C78 C 0.18244 0.28339 0.66068
 C79 C 0.27948 0.26216 0.81402
 C80 C 0.31079 0.29086 0.76643
 C81 C 0.35516 0.28387 0.77252
 C82 C 0.36754 0.24902 0.83073
 C83 C 0.33597 0.22307 0.89057
 C84 C 0.29172 0.23218 0.88809
 H85 H 0.22999 0.32379 0.73398
 H86 H 0.23777 0.18717 0.77802
 H87 H 0.30242 0.31476 0.71057
 H88 H 0.26674 0.21389 0.93718
 H89 H 0.13741 0.23444 0.60218
 H90 H 0.40184 0.24359 0.83366
 C91 C 0.71372 0.76115 0.61188
 C92 C 0.72023 0.73951 0.71086
 C93 C 0.68528 0.71903 0.77631
 C94 C 0.64286 0.72532 0.75422
 C95 C 0.63614 0.75034 0.66306
 C96 C 0.67110 0.76990 0.59386
 C97 C 0.76029 0.74658 0.76244
 C98 C 0.77782 0.78843 0.77030
 C99 C 0.81420 0.79726 0.82541
 C100 C 0.83330 0.76327 0.87499
 C101 C 0.81449 0.72165 0.87240
 C102 C 0.77859 0.71360 0.81422
 H103 H 0.74188 0.77409 0.55725
 H104 H 0.68983 0.70286 0.85470
 H105 H 0.76264 0.81474 0.73444
 H106 H 0.76536 0.68105 0.80634
 H107 H 0.60326 0.75406 0.64675
 H108 H 0.86159 0.76942 0.91782
 C109 C 0.71483 0.26675 0.12809
 C110 C 0.71950 0.24551 0.22952
 C111 C 0.68491 0.22247 0.28558
 C112 C 0.64504 0.22379 0.24655
 C113 C 0.64008 0.24548 0.14774
 C114 C 0.67439 0.26866 0.09061
 C115 C 0.75822 0.25204 0.28678
 C116 C 0.77501 0.29404 0.30470
 C117 C 0.81225 0.30080 0.35734
 C118 C 0.83308 0.26414 0.39258
 C119 C 0.81486 0.22203 0.37903
 C120 C 0.77776 0.21663 0.32553
 H121 H 0.74214 0.28380 0.08483
 H122 H 0.68760 0.20671 0.36618
 H123 H 0.75885 0.32167 0.27670
 H124 H 0.76500 0.18398 0.30839
 H125 H 0.60851 0.24549 0.12066
 H126 H 0.86235 0.26844 0.43172
 C127 C 0.21640 0.78820 0.22104
 C128 C 0.23089 0.75150 0.26787
 C129 C 0.20754 0.71269 0.25697
 C130 C 0.17175 0.70930 0.19569
 C131 C 0.15919 0.74672 0.14366
 C132 C 0.18226 0.78625 0.15408
 C133 C 0.27360 0.75189 0.31218
 C134 C 0.30604 0.78030 0.26921
 C135 C 0.34883 0.77505 0.28778
 C136 C 0.36017 0.74045 0.34698
 C137 C 0.32846 0.71225 0.39476
 C138 C 0.28472 0.72013 0.38302
 H139 H 0.23134 0.81949 0.23892
 H140 H 0.21947 0.68313 0.28561
 H141 H 0.30011 0.80417 0.21062
 H142 H 0.25972 0.70017 0.42402
 H143 H 0.13249 0.74492 0.09304
 H144 H 0.39407 0.73590 0.35462
 O145 O 1.07073 0.07322 0.18760
 O146 O 1.11822 0.02736 0.01833
 C147 C 1.11004 0.05725 0.12340
 O148 O 0.94554 -0.07725 0.17924
 O149 O 0.89554 -0.03054 0.12581
 C150 C 0.90552 -0.06374 0.17707
 O151 O 1.06715 -0.08699 0.10423
 O152 O 1.11630 -0.05095 -0.02564
 C153 C 1.10660 -0.08178 0.04456
 O154 O 0.94858 0.09053 0.26237
 O155 O 0.89754 0.05146 0.17037
 C156 C 0.90862 0.08342 0.25297
 Zr157 Zr 1.00774 0.05685 0.15212
 O158 O 1.00514 0.05654 0.34894
 O159 O 1.01025 0.12719 0.17656
 Zr160 Zr 1.00711 -0.05473 0.09807
 O161 O 1.00790 -0.04735 0.29546
 O162 O 1.00806 -0.12528 0.07278
 O163 O 1.04775 -0.00235 0.12012
 O164 O 0.96841 0.00414 0.17562
 O165 O 0.93898 0.08373 -0.16902
 O166 O 0.89332 0.04435 -0.04126
 C167 C 0.90004 0.07253 -0.11834
 O168 O 1.06830 -0.08413 -0.33005
 O169 O 1.11711 -0.04414 -0.23100
 C170 C 1.10803 -0.07553 -0.31693
 O171 O 0.94444 -0.08367 -0.22227
 O172 O 0.89528 -0.03349 -0.06918
 C173 C 0.90484 -0.06964 -0.15696
 O174 O 1.06170 0.08101 -0.24836
 O175 O 1.11311 0.03613 -0.19247
 C176 C 1.10196 0.06899 -0.24668
 Zr177 Zr 1.00288 0.05728 -0.15697
 O178 O 0.99986 0.05807 -0.35017
 O179 O 0.99985 0.12771 -0.10099
 Zr180 Zr 1.00547 -0.05529 -0.21509
 O181 O 0.99778 -0.04995 -0.40186
 O182 O 1.00990 -0.12604 -0.26562
 Zr183 Zr 1.07226 -0.00405 -0.07769
 Zr184 Zr 0.93985 0.00563 0.01665
 O185 O 0.96526 0.00292 -0.18106
 O186 O 1.04413 -0.00161 -0.23828
 O187 O 0.96585 0.06859 0.03008
 O188 O 1.04402 -0.06596 -0.08914
 O189 O 1.04373 0.06221 -0.02537
 O190 O 0.96799 -0.06077 -0.03549
 H191 H 0.94835 0.00585 0.26074
 H192 H 1.06198 -0.09498 -0.11696
 H193 H 0.94437 0.00237 -0.23914
 H194 H 1.06261 0.08769 -0.02107
 H195 H 1.00100 -0.13586 -0.01223
 H196 H 1.00837 -0.13362 -0.35766
 H197 H 1.02697 -0.04420 -0.45078
 H198 H 1.02333 0.03598 -0.40543
 H199 H 0.99742 0.14006 -0.17825
 H200 H 1.01347 0.13778 0.26608
 H201 H 1.02870 0.03430 0.35262
 H202 H 1.00563 -0.07778 0.31554
 O203 O 1.07151 0.57587 0.72599
 O204 O 1.11768 0.53089 0.55182
 C205 C 1.11039 0.55989 0.65859
 O206 O 0.94678 0.42639 0.72187
 O207 O 0.89500 0.47366 0.67789
 C208 C 0.90633 0.44000 0.72549
 O209 O 1.06756 0.41741 0.63869
 O210 O 1.11546 0.45176 0.50050
 C211 C 1.10636 0.42127 0.57256
 O212 O 0.94891 0.59419 0.80899
 O213 O 0.89675 0.55501 0.72248
 C214 C 0.90858 0.58710 0.80265
 Zr215 Zr 1.00793 0.56047 0.69481
 O216 O 1.00706 0.55933 0.89042
 O217 O 1.01138 0.63071 0.72101
 Zr218 Zr 1.00723 0.44939 0.63660
 O219 O 1.01031 0.45613 0.83217
 O220 O 1.00855 0.37881 0.61027
 O221 O 1.04826 0.50132 0.65607
 O222 O 0.96868 0.50786 0.71968
 O223 O 0.93577 0.59330 0.40201
 O224 O 0.88923 0.55251 0.52191
 C225 C 0.89670 0.58489 0.45887
 O226 O 1.06385 0.42200 0.20649
 O227 O 1.11417 0.46152 0.30018
 C228 C 1.10405 0.43066 0.21498
 O229 O 0.94062 0.42149 0.32493
 O230 O 0.89240 0.47114 0.48238
 C231 C 0.90143 0.43519 0.39355
 O232 O 1.05589 0.58297 0.28462
 O233 O 1.11037 0.54196 0.33965
 C234 C 1.09678 0.57247 0.28055
 Zr235 Zr 0.99914 0.56222 0.39023
 O236 O 0.98998 0.56480 0.20312
 O237 O 0.99991 0.63248 0.44339
 Zr238 Zr 1.00147 0.45036 0.32696
 O239 O 0.99086 0.45763 0.14444
 O240 O 1.00584 0.37976 0.27045
 Zr241 Zr 1.07072 0.50061 0.45765
 Zr242 Zr 0.93775 0.51016 0.56525
 O243 O 0.96058 0.50877 0.36736
 O244 O 1.03994 0.50384 0.30237
 O245 O 0.96446 0.57281 0.57894
 O246 O 1.04202 0.43885 0.44706
 O247 O 1.04222 0.56672 0.51524
 O248 O 0.96614 0.44383 0.50832
 H249 H 0.94967 0.50924 0.80626
 H250 H 1.05966 0.40970 0.41668
 H251 H 0.93807 0.51004 0.31484
 H252 H 1.06162 0.59181 0.51585
 H253 H 1.00135 0.36833 0.52545
 H254 H 1.00325 0.37319 0.17913
 H255 H 1.01992 0.46159 0.09120
 H256 H 1.01100 0.54158 0.14241
 H257 H 0.99600 0.64515 0.36775
 H258 H 1.01435 0.64082 0.81102
 H259 H 1.03105 0.53722 0.89207
 H260 H 1.00809 0.42567 0.85211
 O261 O 0.59593 -0.06718 0.57915
 O262 O 0.55802 -0.11362 0.45547
 C263 C 0.59068 -0.10525 0.51069
 O264 O 0.41450 0.04190 0.82788
 O265 O 0.44947 0.09910 0.74813
 C266 C 0.42004 0.08422 0.82984
 O267 O 0.43716 -0.08187 0.70556
 O268 O 0.48137 -0.12076 0.51715
 C269 C 0.45075 -0.11805 0.62061
 O270 O 0.57730 0.05399 0.71085
 O271 O 0.52535 0.10595 0.68843
 C272 C 0.56024 0.09453 0.72824
 Zr273 Zr 0.55883 -0.00518 0.61179
 O274 O 0.56340 -0.01493 0.79794
 O275 O 0.62721 0.00206 0.55473
 Zr276 Zr 0.45021 -0.01519 0.69629
 O277 O 0.46436 -0.02418 0.87324
 O278 O 0.38265 -0.02397 0.76125
 O279 O 0.51169 -0.05175 0.63405
 O280 O 0.49922 0.02734 0.71616
 O281 O 0.56018 0.08041 0.31884
 O282 O 0.51285 0.11862 0.50178
 C283 C 0.54317 0.11674 0.39932
 O284 O 0.42328 -0.06063 0.29634
 O285 O 0.47743 -0.10982 0.32037
 C286 C 0.44284 -0.10056 0.27848
 O287 O 0.39894 0.06151 0.44237
 O288 O 0.43726 0.10933 0.56070
 C289 C 0.40423 0.10036 0.50628
 O290 O 0.58009 -0.04232 0.17935
 O291 O 0.55099 -0.10145 0.26461
 C292 C 0.57796 -0.08478 0.17964
 Zr293 Zr 0.54723 0.01307 0.31970
 O294 O 0.53766 0.02749 0.14244
 O295 O 0.61595 0.01950 0.26980
 Zr296 Zr 0.43861 0.00110 0.40181
 O297 O 0.43374 0.01691 0.22219
 O298 O 0.37043 -0.00829 0.45014
 Zr299 Zr 0.50945 -0.06707 0.43770
 Zr300 Zr 0.48825 0.06398 0.57698
 O301 O 0.48555 0.04712 0.38143
 O302 O 0.49869 -0.03133 0.29567
 O303 O 0.55536 0.04367 0.50071
 O304 O 0.44253 -0.04534 0.51532
 O305 O 0.56712 -0.03254 0.41961
 O306 O 0.42978 0.03079 0.59594
 H307 H 0.49861 0.04359 0.80462
 H308 H 0.41865 -0.06595 0.51432
 H309 H 0.47915 0.07142 0.33635
 H310 H 0.59692 -0.04737 0.37945
 H311 H 0.36730 -0.01491 0.69713
 H312 H 0.35816 -0.00434 0.37483
 H313 H 0.44972 -0.00804 0.15476
 H314 H 0.52687 0.00052 0.09638
 H315 H 0.62219 0.02613 0.18156
 H316 H 0.64070 -0.00299 0.62706
 H317 H 0.55326 -0.04484 0.80728
 H318 H 0.43553 -0.02735 0.92923
 O319 O 0.59607 0.42673 0.07534
 O320 O 0.56080 0.38388 -0.06434
 C321 C 0.59196 0.39033 -0.00222
 O322 O 0.41313 0.53345 0.31613
 O323 O 0.44937 0.59324 0.25776
 C324 C 0.41822 0.57613 0.32846
 O325 O 0.43735 0.41182 0.17434
 O326 O 0.48303 0.37671 -0.01644
 C327 C 0.45132 0.37733 0.08346
 O328 O 0.57960 0.54603 0.22344
 O329 O 0.52839 0.60013 0.20867
 C330 C 0.56322 0.58695 0.24676
 Zr331 Zr 0.56005 0.48943 0.11528
 O332 O 0.56087 0.47537 0.29960
 O333 O 0.62896 0.49567 0.06988
 Zr334 Zr 0.45146 0.47900 0.18145
 O335 O 0.46282 0.46541 0.35732
 O336 O 0.38359 0.46939 0.23536
 O337 O 0.51287 0.44249 0.12017
 O338 O 0.49974 0.52087 0.21829
 O339 O 0.56739 0.58418 -0.15341
 O340 O 0.51698 0.61868 0.02817
 C341 C 0.54872 0.61912 -0.06922
 O342 O 0.43000 0.44401 -0.22696
 O343 O 0.48356 0.39304 -0.20893
 C344 C 0.44935 0.40373 -0.25071
 O345 O 0.40445 0.56387 -0.05728
 O346 O 0.44126 0.60878 0.07366
 C347 C 0.40896 0.60140 0.01487
 O348 O 0.58858 0.46371 -0.31798
 O349 O 0.55819 0.40195 -0.25097
 C350 C 0.58672 0.42082 -0.32644
 Zr351 Zr 0.55345 0.51622 -0.17196
 O352 O 0.54593 0.53578 -0.34503
 O353 O 0.62227 0.52288 -0.21116
 Zr354 Zr 0.44486 0.50369 -0.10926
 O355 O 0.44440 0.52460 -0.28554
 O356 O 0.37649 0.49456 -0.07677
 Zr357 Zr 0.51361 0.43246 -0.07847
 Zr358 Zr 0.49148 0.56171 0.08659
 O359 O 0.49173 0.55014 -0.11170
 O360 O 0.50573 0.47263 -0.21308
 O361 O 0.55877 0.54183 0.01521
 O362 O 0.44644 0.45377 -0.00581
 O363 O 0.57109 0.46693 -0.08007
 O364 O 0.43331 0.52837 0.08864
 H365 H 0.49788 0.53537 0.30915
 H366 H 0.42243 0.43373 -0.01417
 H367 H 0.48623 0.57619 -0.15131
 H368 H 0.60123 0.45262 -0.11806
 H369 H 0.36959 0.47949 0.16986
 H370 H 0.36621 0.50090 -0.15320
 H371 H 0.45902 0.49973 -0.35559
 H372 H 0.53738 0.50939 -0.39992
 H373 H 0.62967 0.53287 -0.29493
 H374 H 0.64106 0.48751 0.14150
 H375 H 0.55171 0.44461 0.30032
 H376 H 0.43347 0.46125 0.40879
 N377 N 1.18497 0.04711 0.16486
 N378 N 1.21319 0.07167 0.21650
 C379 C 1.19510 0.11412 0.25687
 C380 C 1.15314 0.11656 0.23163
 C381 C 1.14815 0.07326 0.17329
 H382 H 1.13010 0.14577 0.25007
 H383 H 1.19097 0.01304 0.12431
 H384 H 1.24476 0.05963 0.22005
 N385 N 1.18462 0.54794 0.70387
 N386 N 1.21335 0.57226 0.75387
 C387 C 1.19659 0.61528 0.78794
 C388 C 1.15515 0.61839 0.75993
 C389 C 1.14893 0.57497 0.70711
 H390 H 1.13325 0.64813 0.77243
 H391 H 1.18940 0.51344 0.66893
 H392 H 1.24438 0.55965 0.76051
 N393 N 0.57167 0.17274 0.82769
 N394 N 0.60574 0.19434 0.85475
 C395 C 0.64110 0.16458 0.83587
 C396 C 0.62838 0.12221 0.79833
 C397 C 0.58461 0.12888 0.79136
 H398 H 0.64957 0.09151 0.76358
 H399 H 0.54109 0.18817 0.82738
 H400 H 0.60502 0.22913 0.87861
 N401 N 0.57464 0.66287 0.36321
 N402 N 0.60855 0.68418 0.39267
 C403 C 0.64505 0.65527 0.36273
 C404 C 0.63323 0.61335 0.31379
 C405 C 0.58848 0.61978 0.31383
 H406 H 0.65526 0.58388 0.26791
 H407 H 0.54348 0.67832 0.36921
 H408 H 0.60732 0.71882 0.42286
 N409 N 0.87225 -0.11538 0.31671
 N410 N 0.83924 -0.14149 0.32290
 C411 C 0.81494 -0.13379 0.23746
 C412 C 0.83287 -0.09983 0.17773
 C413 C 0.86958 -0.08977 0.22918
 H414 H 0.82326 -0.08732 0.09934
 H415 H 0.89720 -0.11656 0.36792
 H416 H 0.83471 -0.16496 0.38288
 N417 N 0.87834 0.38268 0.84993
 N418 N 0.84498 0.35350 0.84803
 C419 C 0.81874 0.36604 0.77290
 C420 C 0.83383 0.40455 0.73111
 C421 C 0.87169 0.41290 0.77808
 H422 H 0.82276 0.42069 0.66069
 H423 H 0.90607 0.37807 0.88811
 H424 H 0.84293 0.32641 0.89529
 N425 N 0.43315 -0.19834 0.59558
 N426 N 0.39661 -0.21937 0.59686
 C427 C 0.36178 -0.18860 0.62282
 C428 C 0.37645 -0.14660 0.64451
 C429 C 0.42160 -0.15413 0.62765
 H430 H 0.35705 -0.11475 0.66720
 H431 H 0.46503 -0.21403 0.57318
 H432 H 0.39578 -0.25415 0.57908
 N433 N 0.43134 0.29947 0.09626
 N434 N 0.39140 0.27946 0.11616
 C435 C 0.35857 0.30964 0.11187
 C436 C 0.37714 0.34863 0.08780
 C437 C 0.42191 0.34126 0.08160
 H438 H 0.36020 0.38005 0.08495
 H439 H 0.46175 0.28537 0.10301
 H440 H 0.38906 0.24668 0.13124
 N441 N 0.83197 0.05657 -0.19454
 N442 N 0.79689 0.07772 -0.21403
 C443 C 0.80163 0.12205 -0.19390
 C444 C 0.84267 0.12927 -0.16212
 C445 C 0.86048 0.08648 -0.16216
 H446 H 0.85599 0.16097 -0.13444
 H447 H 0.83599 0.02193 -0.20144
 H448 H 0.77007 0.06165 -0.23988
 N449 N 0.86674 0.66187 0.47888
 N450 N 0.83157 0.68461 0.45059
 C451 C 0.80358 0.65461 0.41360
 C452 C 0.81981 0.61176 0.42283
 C453 C 0.86035 0.61804 0.46009
 H454 H 0.80692 0.58012 0.39169
 H455 H 0.89457 0.67664 0.50202
 H456 H 0.82863 0.71926 0.45661
 N457 N 0.37442 0.17964 0.54533
 N458 N 0.33745 0.20194 0.52360
 C459 C 0.31049 0.17088 0.48433
 C460 C 0.32969 0.12874 0.48249
 C461 C 0.36965 0.13568 0.51759
 H462 H 0.31860 0.09652 0.44795
 H463 H 0.40243 0.19464 0.56561
 H464 H 0.33467 0.23637 0.52774
 N465 N 0.38125 0.68067 0.04694
 N466 N 0.34428 0.70340 0.02677
 C467 C 0.31507 0.67304 -0.00013
 C468 C 0.33304 0.63091 0.00413
 C469 C 0.37439 0.63714 0.03069
 H470 H 0.32057 0.59883 -0.02427
 H471 H 0.41112 0.69428 0.05338
 H472 H 0.34313 0.73727 0.02203
 N473 N 1.17782 -0.09763 -0.48189
 N474 N 1.21348 -0.12438 -0.49153
 C475 C 1.20482 -0.15087 -0.40311
 C476 C 1.16131 -0.14101 -0.33707
 C477 C 1.14530 -0.10711 -0.38937
 H478 H 1.14527 -0.15225 -0.25071
 H479 H 1.17695 -0.07121 -0.53125
 H480 H 1.24375 -0.12259 -0.55325
 N481 N 1.17400 0.41320 0.05002
 N482 N 1.21004 0.38633 0.03459
 C483 C 1.20157 0.35640 0.11304
 C484 C 1.15763 0.36414 0.17780
 C485 C 1.14125 0.40036 0.13549
 H486 H 1.14143 0.34990 0.25838
 H487 H 1.17302 0.44209 0.01089
 H488 H 1.24037 0.39040 -0.02344
 N489 N 0.60842 -0.15735 0.03840
 N490 N 0.64589 -0.18216 0.02008
 C491 C 0.67607 -0.15685 0.06589
 C492 C 0.65689 -0.11348 0.11018
 C493 C 0.61377 -0.11537 0.09406
 H494 H 0.66920 -0.08686 0.17101
 H495 H 0.57864 -0.17016 0.02495
 H496 H 0.64886 -0.21673 -0.01157
 N497 N 0.62200 0.35134 -0.47478
 N498 N 0.65930 0.32693 -0.48727
 C499 C 0.68668 0.35126 -0.42527
 C500 C 0.66604 0.39381 -0.37616
 C501 C 0.62481 0.39224 -0.40711
 H502 H 0.67578 0.41924 -0.30580
 H503 H 0.59376 0.33870 -0.50133
 H504 H 0.66382 0.29300 -0.52784
 N505 N 1.17979 0.08595 -0.31909
 N506 N 1.20238 0.12394 -0.33431
 C507 C 1.17296 0.15930 -0.32330
 C508 C 1.13066 0.14353 -0.30443
 C509 C 1.13650 0.09769 -0.29831
 H510 H 1.09962 0.16382 -0.28010
 H511 H 1.19439 0.05514 -0.31320
 H512 H 1.23668 0.12383 -0.34898
 N513 N 1.11572 0.61184 0.09917
 N514 N 1.13046 0.65383 0.08542
 C515 C 1.15184 0.66772 0.17963
 C516 C 1.15049 0.63442 0.25612
 C517 C 1.12657 0.60021 0.20451
 H518 H 1.16025 0.63760 0.34751
 H519 H 1.09349 0.59617 0.04857
 H520 H 1.12482 0.67093 0.01418
 N521 N 0.54188 0.19936 0.42244
 N522 N 0.56972 0.22814 0.38248
 C523 C 0.60732 0.20474 0.31340
 C524 C 0.60357 0.15988 0.30600
 C525 C 0.56163 0.15788 0.37534
 H526 H 0.62792 0.13258 0.25693
 H527 H 0.51013 0.20805 0.47930
 H528 H 0.56300 0.26286 0.40161
 N529 N 0.53825 0.69779 -0.08780
 N530 N 0.56511 0.72734 -0.14525
 C531 C 0.60702 0.70877 -0.17358
 C532 C 0.60810 0.66805 -0.13527
 C533 C 0.56463 0.66190 -0.08684
 H534 H 0.63608 0.64357 -0.15474
 H535 H 0.50378 0.70093 -0.06593
 H536 H 0.55379 0.75793 -0.16259
 N537 N 0.82652 -0.08472 -0.15021
 N538 N 0.80271 -0.11970 -0.14897
 C539 C 0.82983 -0.15716 -0.16756
 C540 C 0.87302 -0.14543 -0.18325
 C541 C 0.86934 -0.09914 -0.17203
 H542 H 0.90265 -0.16715 -0.19615
 H543 H 0.81339 -0.05153 -0.13179
 H544 H 0.76827 -0.11750 -0.13125
 N545 N 0.82311 0.41963 0.40377
 N546 N 0.79980 0.38428 0.39848
 C547 C 0.82734 0.34676 0.37406
 C548 C 0.87031 0.35899 0.36143
 C549 C 0.86603 0.40551 0.37993
 H550 H 0.90026 0.33736 0.34429
 H551 H 0.80966 0.45279 0.42557
 H552 H 0.76539 0.38627 0.41478
 N553 N 0.44833 -0.17788 0.16110
 N554 N 0.42405 -0.21212 0.17201
 C555 C 0.38278 -0.19656 0.23537
 C556 C 0.38065 -0.15017 0.26511
 C557 C 0.42337 -0.13963 0.21883
 H558 H 0.35420 -0.12829 0.33096
 H559 H 0.48263 -0.18113 0.12883
 H560 H 0.43689 -0.24539 0.14653
 N561 N 0.45460 0.32666 -0.36785
 N562 N 0.42864 0.29134 -0.34745
 C563 C 0.38760 0.30875 -0.28722
 C564 C 0.38635 0.35533 -0.26973
 C565 C 0.42964 0.36532 -0.31486
 H566 H 0.36012 0.37840 -0.20728
 H567 H 0.48905 0.32300 -0.39431
 H568 H 0.44068 0.25776 -0.36752
 N569 N 1.18444 -0.11186 0.02710
 N570 N 1.20488 -0.14886 0.05813
 C571 C 1.17361 -0.17611 0.09872
 C572 C 1.13274 -0.15698 0.09306
 C573 C 1.14083 -0.11618 0.05176
 H574 H 1.10084 -0.16910 0.12544
 H575 H 1.20052 -0.08490 -0.00317
 H576 H 1.23890 -0.15390 0.04966
 N577 N 1.18128 0.37843 0.50359
 N578 N 1.19963 0.34057 0.52078
 C579 C 1.16978 0.32048 0.59779
 C580 C 1.13077 0.34785 0.63329
 C581 C 1.13946 0.38452 0.57218
 H582 H 1.10067 0.34262 0.69800
 H583 H 1.19738 0.39966 0.44638
 H584 H 1.23278 0.32937 0.48358
 N585 N 0.66882 -0.13279 0.45780
 N586 N 0.69221 -0.16930 0.48025
 C587 C 0.66243 -0.19728 0.52450
 C588 C 0.62036 -0.18046 0.52251
 C589 C 0.62587 -0.13991 0.48692
 H590 H 0.58866 -0.19159 0.56145
 H591 H 0.68234 -0.10336 0.43717
 H592 H 0.72579 -0.16978 0.48002
 N593 N 0.67004 0.36478 -0.05007
 N594 N 0.69302 0.33146 -0.02542
 C595 C 0.66496 0.30128 0.01287
 C596 C 0.62266 0.31557 0.00713
 C597 C 0.62741 0.35606 -0.02864
 H598 H 0.59151 0.30327 0.04581
 H599 H 0.68281 0.39472 -0.06905
 H600 H 0.72626 0.33253 -0.02220
 N601 N 0.83543 0.10906 0.39954
 N602 N 0.81160 0.14774 0.44281
 C603 C 0.83551 0.18109 0.40450
 C604 C 0.87693 0.16267 0.33796
 C605 C 0.87507 0.11710 0.33447
 H606 H 0.90205 0.17882 0.28065
 H607 H 0.82371 0.07781 0.40804
 H608 H 0.77798 0.15056 0.48572
 N609 N 0.83416 0.61402 0.93747
 N610 N 0.80910 0.65194 0.96179
 C611 C 0.83352 0.68400 0.91763
 C612 C 0.87640 0.66602 0.86881
 C613 C 0.87512 0.62152 0.88016
 H614 H 0.90235 0.68051 0.80925
 H615 H 0.82245 0.58307 0.95009
 H616 H 0.77486 0.65440 0.99512
 N617 N 0.34626 0.11359 0.96482
 N618 N 0.32266 0.15201 0.97856
 C619 C 0.34976 0.18311 0.94006
 C620 C 0.39252 0.16387 0.91011
 C621 C 0.38890 0.11926 0.91860
 H622 H 0.42152 0.17723 0.86079
 H623 H 0.33254 0.08300 0.96979
 H624 H 0.28823 0.15483 1.00101
 N625 N 0.34141 0.60021 0.44761
 N626 N 0.31632 0.63779 0.46312
 C627 C 0.34240 0.67126 0.43913
 C628 C 0.38585 0.65410 0.41593
 C629 C 0.38401 0.60872 0.41459
 H630 H 0.41493 0.66967 0.37668
 H631 H 0.32925 0.56856 0.44204
 H632 H 0.28206 0.63870 0.47598
   
