data_POSCAR
  _audit_creation_date              2014-09-24
  _audit_creation_method            'ToBaCCo'
  _symmetry_space_group_name_H-M    'P1'
  _symmetry_Int_Tables_number       1
  _symmetry_cell_setting            triclinic
  loop_
  _symmetry_equiv_pos_as_xyz
 x,y,z
_cell_length_a 52.1049
_cell_length_b 52.0953
_cell_length_c 52.0946
_cell_angle_alpha 90.002100
_cell_angle_beta 89.998800
_cell_angle_gamma 89.998700
loop_
  _atom_site_label
  _atom_site_type_symbol
  _atom_site_fract_x
  _atom_site_fract_y
  _atom_site_fract_z
C1 C 0.37404 0.26127 0.01257
 C2 C 0.37411 0.26125 -0.01375
 C3 C 0.36055 0.28285 -0.02147
 N4 N 0.35233 0.29607 -0.00070
 C5 C 0.36043 0.28286 0.02012
 C6 C 0.35779 0.29109 -0.04719
 C7 C 0.34216 0.31199 -0.05476
 C8 C 0.34265 0.32342 -0.07884
 C9 C 0.32397 0.34206 -0.07886
 C10 C 0.31252 0.34159 -0.05479
 N11 N 0.32357 0.32303 -0.04034
 C12 C 0.29160 0.35719 -0.04726
 C13 C 0.28336 0.36003 -0.02155
 C14 C 0.26177 0.37362 -0.01386
 C15 C 0.26180 0.37363 0.01246
 C16 C 0.28338 0.36004 0.02005
 N17 N 0.29657 0.35187 -0.00076
 C18 C 0.29158 0.35719 0.04572
 C19 C 0.31235 0.34151 0.05332
 C20 C 0.32359 0.34186 0.07746
 C21 C 0.34223 0.32315 0.07748
 C22 C 0.34188 0.31188 0.05335
 N23 N 0.32344 0.32301 0.03886
 C24 C 0.35751 0.29106 0.04579
 H25 H 0.38330 0.24721 0.02474
 H26 H 0.38346 0.24717 -0.02584
 H27 H 0.31698 0.31654 0.02116
 H28 H 0.35509 0.31872 -0.09480
 H29 H 0.31927 0.35448 -0.09484
 H30 H 0.24768 0.38294 -0.02597
 H31 H 0.24775 0.38294 0.02461
 H32 H 0.35456 0.31834 0.09350
 H33 H 0.31699 0.31647 -0.02272
 H34 H 0.31879 0.35422 0.09345
 C35 C 0.61020 0.72131 0.01375
 C36 C 0.61024 0.72140 -0.01257
 C37 C 0.63203 0.70816 -0.02022
 N38 N 0.64536 0.70019 0.00056
 C39 C 0.63196 0.70800 0.02136
 C40 C 0.63997 0.70499 -0.04594
 C41 C 0.66102 0.68967 -0.05353
 C42 C 0.67187 0.68977 -0.07785
 C43 C 0.69062 0.67118 -0.07793
 C44 C 0.69074 0.66018 -0.05364
 N45 N 0.67252 0.67148 -0.03899
 C46 C 0.70623 0.63915 -0.04617
 C47 C 0.70944 0.63112 -0.02042
 C48 C 0.72270 0.60931 -0.01278
 C49 C 0.72260 0.60921 0.01354
 C50 C 0.70928 0.63095 0.02119
 N51 N 0.70146 0.64440 0.00041
 C52 C 0.70588 0.63871 0.04695
 C53 C 0.69039 0.65961 0.05458
 C54 C 0.69015 0.67024 0.07899
 C55 C 0.67144 0.68890 0.07903
 C56 C 0.66076 0.68915 0.05464
 N57 N 0.67231 0.67113 0.03995
 C58 C 0.63980 0.70462 0.04709
 H59 H 0.59588 0.73021 0.02589
 H60 H 0.59596 0.73040 -0.02469
 H61 H 0.66615 0.66498 0.02204
 H62 H 0.66663 0.70181 -0.09396
 H63 H 0.70261 0.66612 -0.09413
 H64 H 0.73172 0.59505 -0.02491
 H65 H 0.73151 0.59487 0.02564
 H66 H 0.66613 0.70072 0.09527
 H67 H 0.66623 0.66509 -0.02122
 H68 H 0.70202 0.66493 0.09519
 C69 C 0.61027 0.27896 0.98681
 C70 C 0.61034 0.27890 1.01314
 C71 C 0.63216 0.29212 1.02074
 N72 N 0.64549 0.30003 0.99994
 C73 C 0.63205 0.29222 0.97917
 C74 C 0.64013 0.29531 1.04646
 C75 C 0.66122 0.31059 1.05401
 C76 C 0.67209 0.31049 1.07832
 C77 C 0.69088 0.32905 1.07836
 C78 C 0.69098 0.34002 1.05406
 N79 N 0.67273 0.32874 1.03944
 C80 C 0.70650 0.36102 1.04655
 C81 C 0.70969 0.36902 1.02079
 C82 C 0.72296 0.39082 1.01312
 C83 C 0.72282 0.39090 0.98680
 C84 C 0.70947 0.36917 0.97918
 N85 N 0.70167 0.35574 0.99998
 C86 C 0.70603 0.36140 0.95343
 C87 C 0.69051 0.34050 0.94584
 C88 C 0.69023 0.32985 0.92144
 C89 C 0.67150 0.31121 0.92143
 C90 C 0.66084 0.31099 0.94584
 N91 N 0.67243 0.32901 0.96051
 C92 C 0.63988 0.29556 0.95342
 H93 H 0.59593 0.27006 0.97470
 H94 H 0.59605 0.26994 1.02528
 H95 H 0.66630 0.33519 0.97841
 H96 H 0.66685 0.29848 1.09444
 H97 H 0.70290 0.33410 1.09454
 H98 H 0.73200 0.40508 1.02522
 H99 H 0.73172 0.40523 0.97467
 H100 H 0.66615 0.29938 0.90522
 H101 H 0.66643 0.33513 1.02167
 H102 H 0.70209 0.33514 0.90522
 C103 C 0.26215 0.62627 1.01425
 C104 C 0.26222 0.62626 0.98793
 C105 C 0.28378 0.63991 0.98038
 N106 N 0.29692 0.64810 1.00121
 C107 C 0.28370 0.63991 1.02197
 C108 C 0.29199 0.64281 0.95471
 C109 C 0.31273 0.65855 0.94715
 C110 C 0.32399 0.65826 0.92301
 C111 C 0.34258 0.67701 0.92302
 C112 C 0.34218 0.68825 0.94716
 N113 N 0.32376 0.67706 0.96163
 C114 C 0.35775 0.70912 0.95475
 C115 C 0.36063 0.71729 0.98043
 C116 C 0.37419 0.73890 0.98802
 C117 C 0.37424 0.73889 1.01434
 C118 C 0.36073 0.71725 1.02202
 N119 N 0.35255 0.70404 1.00123
 C120 C 0.35795 0.70899 1.04773
 C121 C 0.34236 0.68805 1.05528
 C122 C 0.34283 0.67662 1.07935
 C123 C 0.32419 0.65795 1.07935
 C124 C 0.31277 0.65841 1.05527
 N125 N 0.32381 0.67698 1.04083
 C126 C 0.29188 0.64276 1.04770
 H127 H 0.24807 0.61692 1.02634
 H128 H 0.24820 0.61694 0.97576
 H129 H 0.31725 0.68353 1.02320
 H130 H 0.31923 0.64590 0.90700
 H131 H 0.35489 0.68188 0.90701
 H132 H 0.38342 0.75300 0.97587
 H133 H 0.38355 0.75299 1.02644
 H134 H 0.31948 0.64552 1.09532
 H135 H 0.31727 0.68350 0.97934
 H136 H 0.35524 0.68134 1.09533
 C137 C 0.01384 0.37326 0.26097
 C138 C -0.01247 0.37323 0.26094
 C139 C -0.02015 0.35964 0.28253
 N140 N 0.00064 0.35149 0.29575
 C141 C 0.02144 0.35967 0.28256
 C142 C -0.04585 0.35677 0.29076
 C143 C -0.05337 0.34113 0.31167
 C144 C -0.07744 0.34156 0.32310
 C145 C -0.07740 0.32290 0.34176
 C146 C -0.05331 0.31152 0.34129
 N147 N -0.03890 0.32260 0.32273
 C148 C -0.04572 0.29062 0.35691
 C149 C -0.01999 0.28246 0.35975
 C150 C -0.01224 0.26090 0.37336
 C151 C 0.01407 0.26100 0.37336
 C152 C 0.02160 0.28259 0.35974
 N153 N 0.00076 0.29573 0.35157
 C154 C 0.04724 0.29085 0.35686
 C155 C 0.05477 0.31167 0.34119
 C156 C 0.07887 0.32298 0.34154
 C157 C 0.07884 0.34164 0.32285
 C158 C 0.05471 0.34122 0.31159
 N159 N 0.04028 0.32272 0.32270
 C160 C 0.04711 0.35685 0.29077
 H161 H 0.02599 0.38257 0.24692
 H162 H -0.02458 0.38254 0.24685
 H163 H 0.02260 0.31621 0.31624
 H164 H -0.09344 0.35395 0.31839
 H165 H -0.09337 0.31816 0.35419
 H166 H -0.02431 0.24679 0.38269
 H167 H 0.02626 0.24698 0.38266
 H168 H 0.09481 0.35401 0.31804
 H169 H -0.02126 0.31607 0.31617
 H170 H 0.09488 0.31822 0.35389
 C171 C -0.01227 0.72262 0.61031
 C172 C 0.01405 0.72252 0.61032
 C173 C 0.02161 0.70935 0.63218
 N174 N 0.00078 0.70161 0.64560
 C175 C -0.01998 0.70949 0.63218
 C176 C 0.04733 0.70602 0.64008
 C177 C 0.05485 0.69061 0.66108
 C178 C 0.07921 0.69042 0.67183
 C179 C 0.07917 0.67175 0.69052
 C180 C 0.05479 0.66105 0.69068
 N181 N 0.04017 0.67255 0.67258
 C182 C 0.04720 0.64008 0.70611
 C183 C 0.02146 0.63222 0.70937
 C184 C 0.01384 0.61038 0.72254
 C185 C -0.01247 0.61039 0.72257
 C186 C -0.02013 0.63227 0.70942
 N187 N 0.00067 0.64566 0.70158
 C188 C -0.04588 0.64027 0.70623
 C189 C -0.05335 0.66141 0.69089
 C190 C -0.07761 0.67245 0.69093
 C191 C -0.07757 0.69113 0.67227
 C192 C -0.05329 0.69104 0.66128
 N193 N -0.03874 0.67278 0.67267
 C194 C -0.04575 0.70636 0.64015
 H195 H -0.02434 0.73154 0.59595
 H196 H 0.02621 0.73135 0.59597
 H197 H -0.02101 0.66636 0.66628
 H198 H 0.09543 0.70229 0.66655
 H199 H 0.09535 0.66646 0.70243
 H200 H 0.02596 0.59602 0.73140
 H201 H -0.02458 0.59605 0.73147
 H202 H -0.09369 0.70319 0.66715
 H203 H 0.02231 0.66636 0.66636
 H204 H -0.09376 0.66736 0.70296
 C205 C 0.98768 0.60865 0.27901
 C206 C 1.01400 0.60863 0.27883
 C207 C 1.02177 0.63043 0.29204
 N208 N 1.00103 0.64381 0.30006
 C209 C 0.98017 0.63045 0.29232
 C210 C 1.04756 0.63835 0.29514
 C211 C 1.05516 0.65939 0.31056
 C212 C 1.07947 0.67032 0.31056
 C213 C 1.07949 0.68898 0.32925
 C214 C 1.05522 0.68899 0.34018
 N215 N 1.04060 0.67080 0.32879
 C216 C 1.04774 0.70440 0.36121
 C217 C 1.02206 0.70766 0.36926
 C218 C 1.01456 0.72098 0.39106
 C219 C 0.98824 0.72096 0.39123
 C220 C 0.98049 0.70762 0.36954
 N221 N 1.00120 0.69971 0.35605
 C222 C 0.95472 0.70429 0.36182
 C223 C 0.94705 0.68881 0.34091
 C224 C 0.92263 0.68862 0.33030
 C225 C 0.92256 0.66997 0.31159
 C226 C 0.94694 0.65926 0.31128
 N227 N 0.96166 0.67075 0.32932
 C228 C 0.95446 0.63833 0.29576
 H229 H 0.97549 0.59435 0.27015
 H230 H 1.02603 0.59430 0.26980
 H231 H 0.97956 0.66454 0.33542
 H232 H 1.09560 0.66518 0.29853
 H233 H 1.09565 0.70099 0.33439
 H234 H 1.02676 0.72999 0.40526
 H235 H 0.97620 0.72994 0.40559
 H236 H 0.90632 0.66470 0.29976
 H237 H 1.02283 0.66449 0.33517
 H238 H 0.90645 0.70050 0.33566
 C239 C 0.98768 0.39179 0.72142
 C240 C 1.01399 0.39182 0.72161
 C241 C 1.02177 0.37002 0.70840
 N242 N 1.00103 0.35663 0.70038
 C243 C 0.98017 0.37000 0.70811
 C244 C 1.04756 0.36210 0.70529
 C245 C 1.05516 0.34105 0.68987
 C246 C 1.07947 0.33013 0.68988
 C247 C 1.07951 0.31146 0.67119
 C248 C 1.05523 0.31145 0.66027
 N249 N 1.04061 0.32964 0.67165
 C250 C 1.04776 0.29603 0.63925
 C251 C 1.02208 0.29278 0.63119
 C252 C 1.01458 0.27945 0.60939
 C253 C 0.98826 0.27946 0.60922
 C254 C 0.98051 0.29280 0.63092
 N255 N 1.00122 0.30072 0.64441
 C256 C 0.95474 0.29613 0.63863
 C257 C 0.94706 0.31161 0.65954
 C258 C 0.92264 0.31180 0.67015
 C259 C 0.92257 0.33046 0.68885
 C260 C 0.94695 0.34117 0.68915
 N261 N 0.96167 0.32968 0.67112
 C262 C 0.95446 0.36211 0.70466
 H263 H 0.97549 0.40609 0.73028
 H264 H 1.02603 0.40615 0.73064
 H265 H 0.97957 0.33589 0.66502
 H266 H 1.09561 0.33527 0.70191
 H267 H 1.09566 0.29945 0.66606
 H268 H 1.02678 0.27044 0.59519
 H269 H 0.97623 0.27048 0.59487
 H270 H 0.90632 0.33574 0.70067
 H271 H 1.02283 0.33595 0.66527
 H272 H 0.90647 0.29991 0.66479
 C273 C 0.37387 -0.01398 0.26085
 C274 C 0.37383 0.01234 0.26086
 C275 C 0.36027 0.01992 0.28247
 N276 N 0.35218 -0.00088 0.29570
 C277 C 0.36035 -0.02167 0.28249
 C278 C 0.35740 0.04560 0.29065
 C279 C 0.34178 0.05318 0.31148
 C280 C 0.34215 0.07731 0.32274
 C281 C 0.32352 0.07731 0.34145
 C282 C 0.31227 0.05318 0.34112
 N283 N 0.32333 0.03870 0.32262
 C284 C 0.29150 0.04560 0.35681
 C285 C 0.28333 0.01993 0.35974
 C286 C 0.26178 0.01235 0.37340
 C287 C 0.26178 -0.01397 0.37347
 C288 C 0.28336 -0.02166 0.35986
 N289 N 0.29653 -0.00088 0.35161
 C290 C 0.29164 -0.04737 0.35710
 C291 C 0.31251 -0.05491 0.34143
 C292 C 0.32400 -0.07896 0.34193
 C293 C 0.34260 -0.07896 0.32322
 C294 C 0.34204 -0.05491 0.31174
 N295 N 0.32348 -0.04049 0.32281
 C296 C 0.35759 -0.04737 0.29077
 H297 H 0.38318 -0.02609 0.24676
 H298 H 0.38308 0.02449 0.24677
 H299 H 0.31686 -0.02289 0.31621
 H300 H 0.35448 0.09332 0.31791
 H301 H 0.31873 0.09332 0.35380
 H302 H 0.24773 0.02451 0.38269
 H303 H 0.24774 -0.02606 0.38286
 H304 H 0.35505 -0.09492 0.31852
 H305 H 0.31685 0.02099 0.31617
 H306 H 0.31936 -0.09491 0.35441
 C307 C 0.60997 0.01345 0.72102
 C308 C 0.61006 -0.01288 0.72108
 C309 C 0.63187 -0.02046 0.70783
 N310 N 0.64518 0.00035 0.69991
 C311 C 0.63173 0.02112 0.70774
 C312 C 0.63985 -0.04618 0.70464
 C313 C 0.66090 -0.05374 0.68929
 C314 C 0.67174 -0.07805 0.68933
 C315 C 0.69049 -0.07810 0.67073
 C316 C 0.69062 -0.05379 0.65979
 N317 N 0.67240 -0.03916 0.67113
 C318 C 0.70614 -0.04625 0.63880
 C319 C 0.70937 -0.02047 0.63088
 C320 C 0.72270 -0.01276 0.60912
 C321 C 0.72261 0.01356 0.60913
 C322 C 0.70923 0.02114 0.63086
 N323 N 0.70137 0.00032 0.64421
 C324 C 0.70583 0.04688 0.63870
 C325 C 0.69026 0.05446 0.65957
 C326 C 0.68998 0.07885 0.67025
 C327 C 0.67120 0.07885 0.68884
 C328 C 0.66053 0.05446 0.68901
 N329 N 0.67214 0.03980 0.67100
 C330 C 0.63954 0.04687 0.70441
 H331 H 0.59563 0.02555 0.72994
 H332 H 0.59579 -0.02502 0.73005
 H333 H 0.66601 0.02191 0.66479
 H334 H 0.66651 -0.09419 0.70132
 H335 H 0.70249 -0.09428 0.66564
 H336 H 0.73174 -0.02484 0.59485
 H337 H 0.73156 0.02572 0.59485
 H338 H 0.66585 0.09506 0.70068
 H339 H 0.66612 -0.02136 0.66479
 H340 H 0.70187 0.09506 0.66501
 C341 C 0.37395 0.98823 0.73933
 C342 C 0.37397 1.01455 0.73931
 C343 C 0.36049 1.02220 0.71763
 N344 N 0.35237 1.00139 0.70442
 C345 C 0.36045 0.98061 0.71770
 C346 C 0.35773 1.04789 0.70932
 C347 C 0.34221 1.05541 0.68832
 C348 C 0.34276 1.07946 0.67683
 C349 C 0.32418 1.07942 0.65809
 C350 C 0.31274 1.05536 0.65857
 N351 N 0.32369 1.04096 0.67722
 C352 C 0.29190 1.04778 0.64287
 C353 C 0.28368 1.02206 0.64008
 C354 C 0.26215 1.01433 0.62642
 C355 C 0.26218 0.98801 0.62651
 C356 C 0.28371 0.98047 0.64023
 N357 N 0.29686 1.00130 0.64837
 C358 C 0.29190 0.95481 0.64320
 C359 C 0.31263 0.94727 0.65895
 C360 C 0.32390 0.92314 0.65868
 C361 C 0.34248 0.92317 0.67745
 C362 C 0.34207 0.94732 0.68867
 N363 N 0.32364 0.96177 0.67746
 C364 C 0.35761 0.95493 0.70954
 H365 H 0.38318 0.97610 0.75346
 H366 H 0.38324 1.02668 0.75341
 H367 H 0.31713 0.97948 0.68388
 H368 H 0.35517 1.09543 0.68156
 H369 H 0.31955 1.09537 0.64560
 H370 H 0.24810 1.02640 0.61700
 H371 H 0.24817 0.97582 0.61719
 H372 H 0.35481 0.90718 0.68233
 H373 H 0.31709 1.02335 0.68380
 H374 H 0.31916 0.90711 0.64634
 C375 C 0.61018 1.01344 0.27922
 C376 C 0.61008 0.98712 0.27924
 C377 C 0.63185 0.97942 0.29248
 N378 N 0.64532 1.00016 0.30032
 C379 C 0.63202 1.02100 0.29244
 C380 C 0.63964 0.95366 0.29577
 C381 C 0.66064 0.94603 0.31114
 C382 C 0.67129 0.92162 0.31128
 C383 C 0.69008 0.92159 0.32985
 C384 C 0.69040 0.94598 0.34055
 N385 N 0.67229 0.96066 0.32915
 C386 C 0.70599 0.95352 0.36141
 C387 C 0.70944 0.97924 0.36927
 C388 C 0.72284 0.98679 0.39099
 C389 C 0.72297 1.01311 0.39101
 C390 C 0.70964 1.02085 0.36927
 N391 N 0.70159 1.00009 0.35593
 C392 C 0.70643 1.04664 0.36137
 C393 C 0.69088 1.05422 0.34042
 C394 C 0.69076 1.07854 0.32950
 C395 C 0.67198 1.07853 0.31094
 C396 C 0.66111 1.05422 0.31097
 N397 N 0.67263 1.03962 0.32909
 C398 C 0.64003 1.04670 0.29566
 H399 H 0.59591 1.02561 0.27029
 H400 H 0.59571 0.97504 0.27034
 H401 H 0.66634 1.02182 0.33543
 H402 H 0.66590 0.90543 0.29943
 H403 H 0.70196 0.90536 0.33507
 H404 H 0.73178 0.97461 0.40525
 H405 H 0.73204 1.02517 0.40529
 H406 H 0.66674 1.09468 0.29897
 H407 H 0.66618 0.97855 0.33538
 H408 H 0.70278 1.09471 0.33459
 O409 O 0.85274 0.81617 0.47635
 O410 O 0.81729 0.85187 0.52590
 O411 O 0.85271 0.81650 0.52615
 O412 O 0.81733 0.85153 0.47611
 O413 O 0.78728 0.82155 0.47622
 O414 O 0.82278 0.78641 0.52641
 O415 O 0.78725 0.82189 0.52615
 O416 O 0.82281 0.78607 0.47646
 Cu417 Cu 0.83804 0.83704 0.50111
 Cu418 Cu 0.80200 0.80094 0.50133
 C419 C 0.84388 0.79502 0.46816
 C420 C 0.79621 0.84304 0.53426
 C421 C 0.84385 0.79546 0.53460
 C422 C 0.79626 0.84258 0.46784
 O423 O 0.18413 0.14780 0.52535
 O424 O 0.14864 0.18292 0.47545
 O425 O 0.18382 0.14738 0.47552
 O426 O 0.14902 0.18344 0.52525
 O427 O 0.17917 0.21332 0.52483
 O428 O 0.21407 0.17715 0.47497
 O429 O 0.17878 0.21282 0.47489
 O430 O 0.21440 0.17755 0.52494
 Cu431 Cu 0.16337 0.16238 0.50045
 Cu432 Cu 0.19967 0.19822 0.49986
 C433 C 0.20531 0.15662 0.53347
 C434 C 0.15760 0.20386 0.46685
 C435 C 0.20486 0.15608 0.46693
 C436 C 0.15810 0.20454 0.53331
 O437 O 0.14923 0.81697 0.52493
 O438 O 0.18439 0.85241 0.47501
 O439 O 0.14937 0.81669 0.47515
 O440 O 0.18426 0.85268 0.52485
 O441 O 0.21462 0.82301 0.52516
 O442 O 0.17961 0.78690 0.47532
 O443 O 0.21475 0.82274 0.47518
 O444 O 0.17947 0.78718 0.52524
 Cu445 Cu 0.16378 0.83769 0.49996
 Cu446 Cu 0.20019 0.80196 0.50025
 C447 C 0.15829 0.79602 0.53339
 C448 C 0.20555 0.84366 0.46676
 C449 C 0.15847 0.79565 0.46697
 C450 C 0.20538 0.84402 0.53330
 O451 O 0.85310 0.18392 0.52409
 O452 O 0.81772 0.14816 0.47452
 O453 O 0.85329 0.18336 0.47427
 O454 O 0.81761 0.14863 0.52431
 O455 O 0.78765 0.17870 0.52398
 O456 O 0.82347 0.21356 0.47380
 O457 O 0.78779 0.17825 0.47406
 O458 O 0.82326 0.21411 0.52375
 Cu459 Cu 0.83844 0.16300 0.49934
 Cu460 Cu 0.80252 0.19921 0.49886
 C461 C 0.84427 0.20512 0.53217
 C462 C 0.79670 0.15704 0.46605
 C463 C 0.84452 0.20439 0.46569
 C464 C 0.79653 0.15766 0.53246
 O465 O 0.47582 0.85303 0.81770
 O466 O 0.52562 0.81712 0.85253
 O467 O 0.52561 0.85249 0.81712
 O468 O 0.47582 0.81763 0.85304
 O469 O 0.47512 0.78757 0.82307
 O470 O 0.52505 0.82254 0.78705
 O471 O 0.52505 0.78705 0.82258
 O472 O 0.47511 0.82309 0.78762
 Cu473 Cu 0.50079 0.83809 0.83811
 Cu474 Cu 0.50003 0.80202 0.80204
 C475 C 0.46716 0.84424 0.79672
 C476 C 0.53362 0.79595 0.84357
 C477 C 0.53361 0.84353 0.79594
 C478 C 0.46717 0.79665 0.84423
 O479 O 0.52564 0.18344 0.14804
 O480 O 0.47585 0.14752 0.18286
 O481 O 0.47585 0.18291 0.14753
 O482 O 0.52564 0.14807 0.18345
 O483 O 0.52506 0.17803 0.21352
 O484 O 0.47512 0.21298 0.17749
 O485 O 0.47512 0.17747 0.21294
 O486 O 0.52506 0.21351 0.17799
 Cu487 Cu 0.50082 0.16247 0.16245
 Cu488 Cu 0.50003 0.19853 0.19853
 C489 C 0.53363 0.20461 0.15700
 C490 C 0.46717 0.15632 0.20383
 C491 C 0.46717 0.20389 0.15634
 C492 C 0.53363 0.15704 0.20462
 O493 O 0.52505 0.14866 0.81626
 O494 O 0.47536 0.18373 0.85212
 O495 O 0.47526 0.14841 0.81671
 O496 O 0.52516 0.18404 0.85167
 O497 O 0.52479 0.21414 0.82174
 O498 O 0.47474 0.17840 0.78666
 O499 O 0.47485 0.21383 0.82219
 O500 O 0.52468 0.17865 0.78621
 Cu501 Cu 0.50026 0.16319 0.83720
 Cu502 Cu 0.49973 0.19930 0.80117
 C503 C 0.53313 0.15760 0.79510
 C504 C 0.46681 0.20475 0.84332
 C505 C 0.46667 0.15728 0.79573
 C506 C 0.53327 0.20518 0.84274
 O507 O 0.47539 0.81657 0.14829
 O508 O 0.52506 0.85174 0.18406
 O509 O 0.52518 0.81627 0.14874
 O510 O 0.47527 0.85199 0.18359
 O511 O 0.47475 0.82208 0.21373
 O512 O 0.52482 0.78625 0.17876
 O513 O 0.52469 0.82184 0.21419
 O514 O 0.47487 0.78655 0.17831
 Cu515 Cu 0.50028 0.83715 0.16315
 Cu516 Cu 0.49975 0.80115 0.19929
 C517 C 0.46684 0.79557 0.15715
 C518 C 0.53314 0.84286 0.20524
 C519 C 0.53330 0.79515 0.15773
 C520 C 0.46668 0.84317 0.20460
 O521 O 0.85238 0.52643 0.81628
 O522 O 0.81695 0.47651 0.85143
 O523 O 0.85228 0.47664 0.81602
 O524 O 0.81700 0.52630 0.85169
 O525 O 0.78691 0.52656 0.82174
 O526 O 0.82231 0.47676 0.78596
 O527 O 0.78686 0.47663 0.82149
 O528 O 0.82240 0.52670 0.78622
 Cu529 Cu 0.83768 0.50145 0.83687
 Cu530 Cu 0.80158 0.50169 0.80082
 C531 C 0.84350 0.53487 0.79524
 C532 C 0.79586 0.46826 0.84252
 C533 C 0.84337 0.46843 0.79490
 C534 C 0.79592 0.53468 0.84287
 O535 O 0.14831 0.52541 0.18315
 O536 O 0.18344 0.47583 0.14718
 O537 O 0.14818 0.47561 0.18263
 O538 O 0.18358 0.52566 0.14764
 O539 O 0.21375 0.52536 0.17750
 O540 O 0.17822 0.47516 0.21262
 O541 O 0.21360 0.47539 0.17705
 O542 O 0.17836 0.52511 0.21313
 Cu543 Cu 0.16286 0.50068 0.16214
 Cu544 Cu 0.19903 0.50023 0.19810
 C545 C 0.15727 0.53349 0.20429
 C546 C 0.20450 0.46732 0.15594
 C547 C 0.15710 0.46704 0.20360
 C548 C 0.20470 0.53385 0.15653
 O549 O 0.81725 0.52389 0.14872
 O550 O 0.85296 0.47397 0.18357
 O551 O 0.81745 0.47410 0.14833
 O552 O 0.85265 0.52378 0.18407
 O553 O 0.82276 0.52343 0.21421
 O554 O 0.78746 0.47362 0.17838
 O555 O 0.82309 0.47348 0.21373
 O556 O 0.78724 0.52355 0.17874
 Cu557 Cu 0.83809 0.49898 0.16316
 Cu558 Cu 0.80211 0.49848 0.19932
 C559 C 0.79614 0.53202 0.15771
 C560 C 0.84418 0.46540 0.20460
 C561 C 0.79643 0.46561 0.15720
 C562 C 0.84377 0.53188 0.20524
 O563 O 0.14865 0.47500 0.81700
 O564 O 0.18388 0.52454 0.85290
 O565 O 0.14876 0.52478 0.81728
 O566 O 0.18383 0.47470 0.85259
 O567 O 0.21409 0.47475 0.82282
 O568 O 0.17891 0.52497 0.78740
 O569 O 0.21414 0.52474 0.82314
 O570 O 0.17879 0.47505 0.78711
 Cu571 Cu 0.16325 0.49974 0.83795
 Cu572 Cu 0.19955 0.49989 0.80211
 C573 C 0.15763 0.46680 0.79591
 C574 C 0.20500 0.53291 0.84419
 C575 C 0.15779 0.53320 0.79630
 C576 C 0.20493 0.46637 0.84378
 C577 C 0.27870 0.37242 0.06514
 C578 C 0.26779 0.38565 0.08068
 C579 C 0.25478 0.40177 0.09814
 C580 C 0.24349 0.41606 0.11241
 C581 C 0.23007 0.43337 0.12836
 C582 C 0.21846 0.44862 0.14133
 C583 C 0.71942 0.62443 0.06664
 C584 C 0.73083 0.61190 0.08240
 C585 C 0.74436 0.59645 0.10006
 C586 C 0.75605 0.58261 0.11444
 C587 C 0.76989 0.56568 0.13044
 C588 C 0.78183 0.55063 0.14334
 C589 C 0.71953 0.37566 0.93372
 C590 C 0.73091 0.38820 0.91795
 C591 C 0.74440 0.40368 0.90029
 C592 C 0.75604 0.41755 0.88590
 C593 C 0.76981 0.43452 0.86989
 C594 C 0.78166 0.44961 0.85696
 C595 C 0.27915 0.62760 0.93526
 C596 C 0.26827 0.61440 0.91967
 C597 C 0.25530 0.59831 0.90215
 C598 C 0.24403 0.58406 0.88782
 C599 C 0.23062 0.56680 0.87181
 C600 C 0.21901 0.55158 0.85881
 C601 C 0.06672 0.27800 0.37204
 C602 C 0.08232 0.26713 0.38522
 C603 C 0.09985 0.25415 0.40129
 C604 C 0.11417 0.24288 0.41554
 C605 C 0.13015 0.22948 0.43283
 C606 C 0.14309 0.21786 0.44810
 C607 C 0.06706 0.71953 0.62584
 C608 C 0.08283 0.73093 0.61332
 C609 C 0.10050 0.74444 0.59787
 C610 C 0.11490 0.75611 0.58402
 C611 C 0.13091 0.76991 0.56708
 C612 C 0.14384 0.78179 0.55201
 C613 C 0.93509 0.71791 0.37610
 C614 C 0.91939 0.72941 0.38863
 C615 C 0.90178 0.74305 0.40405
 C616 C 0.88742 0.75483 0.41785
 C617 C 0.87140 0.76874 0.43470
 C618 C 0.85843 0.78071 0.44967
 C619 C 0.93513 0.28247 0.62437
 C620 C 0.91946 0.27093 0.61183
 C621 C 0.90192 0.25724 0.59638
 C622 C 0.88762 0.24542 0.58257
 C623 C 0.87168 0.23145 0.56568
 C624 C 0.85877 0.21945 0.55069
 C625 C 0.37254 0.06505 0.27773
 C626 C 0.38569 0.08065 0.26682
 C627 C 0.40172 0.09821 0.25384
 C628 C 0.41595 0.11257 0.24260
 C629 C 0.43321 0.12863 0.22925
 C630 C 0.44845 0.14166 0.21772
 C631 C 0.62528 0.06655 0.71798
 C632 C 0.61275 0.08228 0.72943
 C633 C 0.59733 0.09991 0.74304
 C634 C 0.58353 0.11428 0.75480
 C635 C 0.56665 0.13026 0.76873
 C636 C 0.55166 0.14317 0.78072
 C637 C 0.37272 0.93550 0.72254
 C638 C 0.38584 0.91990 0.73351
 C639 C 0.40183 0.90236 0.74655
 C640 C 0.41602 0.88800 0.75785
 C641 C 0.43324 0.87193 0.77124
 C642 C 0.44845 0.85890 0.78281
 C643 C 0.62534 0.93400 0.28221
 C644 C 0.61280 0.91827 0.27077
 C645 C 0.59735 0.90064 0.25718
 C646 C 0.58354 0.88627 0.24544
 C647 C 0.56666 0.87027 0.23155
 C648 C 0.55166 0.85733 0.21958
 C649 C 0.37217 0.27889 0.93443
 C650 C 0.38533 0.26799 0.91881
 C651 C 0.40138 0.25499 0.90127
 C652 C 0.41561 0.24371 0.88694
 C653 C 0.43288 0.23031 0.87093
 C654 C 0.44811 0.21871 0.85793
 C655 C 0.62578 0.71864 0.93439
 C656 C 0.61330 0.73015 0.91867
 C657 C 0.59790 0.74380 0.90106
 C658 C 0.58410 0.75560 0.88672
 C659 C 0.56721 0.76954 0.87078
 C660 C 0.55219 0.78156 0.85792
 C661 C 0.37230 0.72120 0.06614
 C662 C 0.38543 0.73213 0.08176
 C663 C 0.40146 0.74516 0.09929
 C664 C 0.41567 0.75647 0.11361
 C665 C 0.43292 0.76992 0.12960
 C666 C 0.44814 0.78156 0.14257
 C667 C 0.62592 0.28171 0.06615
 C668 C 0.61343 0.27025 0.08190
 C669 C 0.59800 0.25665 0.09952
 C670 C 0.58417 0.24490 0.11387
 C671 C 0.56726 0.23098 0.12981
 C672 C 0.55222 0.21899 0.14266
 C673 C 0.27974 0.06615 0.62844
 C674 C 0.26887 0.08175 0.61523
 C675 C 0.25588 0.09924 0.59913
 C676 C 0.24458 0.11350 0.58484
 C677 C 0.23111 0.12939 0.56752
 C678 C 0.21942 0.14224 0.55223
 C679 C 0.71944 0.06526 0.37470
 C680 C 0.73102 0.08106 0.38704
 C681 C 0.74475 0.09876 0.40228
 C682 C 0.75657 0.11321 0.41595
 C683 C 0.77052 0.12932 0.43269
 C684 C 0.78247 0.14237 0.44759
 C685 C 0.71910 0.93510 0.62547
 C686 C 0.73064 0.91926 0.61314
 C687 C 0.74431 0.90149 0.59792
 C688 C 0.75609 0.88699 0.58428
 C689 C 0.77001 0.87081 0.56757
 C690 C 0.78195 0.85772 0.55269
 C691 C 0.27951 0.93425 0.37154
 C692 C 0.26867 0.91866 0.38478
 C693 C 0.25574 0.90117 0.40092
 C694 C 0.24450 0.88691 0.41525
 C695 C 0.23112 0.87100 0.43262
 C696 C 0.21953 0.85812 0.44795
 C697 C 0.06615 0.37548 0.71829
 C698 C 0.08194 0.38785 0.72986
 C699 C 0.09964 0.40309 0.74358
 C700 C 0.11407 0.41675 0.75542
 C701 C 0.13014 0.43348 0.76943
 C702 C 0.14312 0.44837 0.78149
 C703 C 0.06614 0.62498 0.28213
 C704 C 0.08190 0.61260 0.27053
 C705 C 0.09954 0.59733 0.25677
 C706 C 0.11390 0.58363 0.24488
 C707 C 0.12989 0.56687 0.23082
 C708 C 0.14281 0.55195 0.21874
 C709 C 0.93571 0.37106 0.27854
 C710 C 0.92002 0.38413 0.26764
 C711 C 0.90238 0.40008 0.25467
 C712 C 0.88795 0.41425 0.24343
 C713 C 0.87185 0.43146 0.23007
 C714 C 0.85880 0.44667 0.21851
 C715 C 0.93543 0.62686 0.71904
 C716 C 0.91956 0.61444 0.73043
 C717 C 0.90177 0.59911 0.74392
 C718 C 0.88727 0.58535 0.75555
 C719 C 0.87112 0.56848 0.76930
 C720 C 0.85808 0.55347 0.78111
 C721 C 0.71916 0.62586 0.93514
 C722 C 0.73065 0.61356 0.91925
 C723 C 0.74426 0.59838 0.90141
 C724 C 0.75599 0.58476 0.88687
 C725 C 0.76983 0.56804 0.87065
 C726 C 0.78172 0.55315 0.85754
 C727 C 0.27937 0.37152 0.93433
 C728 C 0.26844 0.38465 0.91872
 C729 C 0.25538 0.40069 0.90123
 C730 C 0.24404 0.41495 0.88697
 C731 C 0.23057 0.43226 0.87108
 C732 C 0.21893 0.44756 0.85821
 C733 C 0.27963 0.62845 0.06610
 C734 C 0.26865 0.61535 0.08172
 C735 C 0.25554 0.59935 0.09921
 C736 C 0.24415 0.58514 0.11347
 C737 C 0.23058 0.56788 0.12935
 C738 C 0.21884 0.55262 0.14218
 C739 C 0.71949 0.37430 0.06521
 C740 C 0.73103 0.38660 0.08105
 C741 C 0.74470 0.40181 0.09882
 C742 C 0.75648 0.41546 0.11331
 C743 C 0.77035 0.43220 0.12946
 C744 C 0.78225 0.44712 0.14253
 C745 C 0.93561 0.71923 0.62672
 C746 C 0.91978 0.73065 0.61429
 C747 C 0.90203 0.74417 0.59894
 C748 C 0.88755 0.75582 0.58516
 C749 C 0.87144 0.76957 0.56828
 C750 C 0.85842 0.78137 0.55323
 C751 C 0.93589 0.27836 0.37123
 C752 C 0.92024 0.26743 0.38432
 C753 C 0.90263 0.25443 0.40028
 C754 C 0.88824 0.24317 0.41446
 C755 C 0.87216 0.22981 0.43169
 C756 C 0.85913 0.21827 0.44693
 C757 C 0.06749 0.28233 0.62521
 C758 C 0.08324 0.27076 0.61282
 C759 C 0.10083 0.25702 0.59749
 C760 C 0.11513 0.24514 0.58373
 C761 C 0.13100 0.23108 0.56687
 C762 C 0.14380 0.21900 0.55186
 C763 C 0.06748 0.71808 0.37525
 C764 C 0.08326 0.72962 0.38763
 C765 C 0.10092 0.74332 0.40292
 C766 C 0.11528 0.75515 0.41665
 C767 C 0.13124 0.76916 0.43347
 C768 C 0.14411 0.78121 0.44844
 C769 C 0.62572 0.93414 0.71832
 C770 C 0.61326 0.91843 0.72988
 C771 C 0.59788 0.90086 0.74360
 C772 C 0.58408 0.88658 0.75546
 C773 C 0.56720 0.87069 0.76948
 C774 C 0.55218 0.85787 0.78153
 C775 C 0.37193 0.93423 0.27856
 C776 C 0.38507 0.91860 0.26766
 C777 C 0.40110 0.90105 0.25468
 C778 C 0.41534 0.88671 0.24342
 C779 C 0.43263 0.87071 0.23005
 C780 C 0.44791 0.85774 0.21849
 C781 C 0.62588 0.06641 0.28203
 C782 C 0.61341 0.08214 0.27052
 C783 C 0.59799 0.09972 0.25685
 C784 C 0.58417 0.11402 0.24503
 C785 C 0.56726 0.12990 0.23105
 C786 C 0.55222 0.14272 0.21902
 C787 C 0.37203 0.06631 0.72155
 C788 C 0.38514 0.08195 0.73247
 C789 C 0.40114 0.09950 0.74549
 C790 C 0.41536 0.11382 0.75678
 C791 C 0.43264 0.12980 0.77019
 C792 C 0.44791 0.14275 0.78179
 C793 C 0.62559 0.71816 0.06681
 C794 C 0.61310 0.72961 0.08257
 C795 C 0.59768 0.74320 0.10021
 C796 C 0.58387 0.75495 0.11457
 C797 C 0.56695 0.76885 0.13052
 C798 C 0.55191 0.78082 0.14338
 C799 C 0.37262 0.27812 0.06526
 C800 C 0.38575 0.26717 0.08085
 C801 C 0.40177 0.25412 0.09837
 C802 C 0.41598 0.24280 0.11269
 C803 C 0.43323 0.22938 0.12870
 C804 C 0.44846 0.21780 0.14170
 C805 C 0.62563 0.28202 0.93373
 C806 C 0.61311 0.27059 0.91799
 C807 C 0.59768 0.25702 0.90035
 C808 C 0.58385 0.24529 0.88599
 C809 C 0.56693 0.23142 0.87002
 C810 C 0.55188 0.21948 0.85713
 C811 C 0.37282 0.72213 0.93530
 C812 C 0.38591 0.73314 0.91972
 C813 C 0.40189 0.74626 0.90221
 C814 C 0.41606 0.75762 0.88789
 C815 C 0.43327 0.77110 0.87188
 C816 C 0.44847 0.78272 0.85887
 C817 C 0.71957 0.93378 0.37556
 C818 C 0.73102 0.91799 0.38801
 C819 C 0.74460 0.90031 0.40340
 C820 C 0.75631 0.88592 0.41721
 C821 C 0.77015 0.86992 0.43413
 C822 C 0.78204 0.85700 0.44919
 C823 C 0.27907 0.93533 0.62803
 C824 C 0.26823 0.91970 0.61485
 C825 C 0.25531 0.90213 0.59879
 C826 C 0.24411 0.88777 0.58454
 C827 C 0.23079 0.87171 0.56726
 C828 C 0.21926 0.85868 0.55202
 C829 C 0.27863 0.06504 0.37200
 C830 C 0.26775 0.08062 0.38520
 C831 C 0.25479 0.09812 0.40130
 C832 C 0.24356 0.11243 0.41559
 C833 C 0.23023 0.12843 0.43291
 C834 C 0.21871 0.14143 0.44819
 C835 C 0.71945 0.06660 0.62455
 C836 C 0.73092 0.08237 0.61210
 C837 C 0.74454 0.10005 0.59674
 C838 C 0.75630 0.11444 0.58297
 C839 C 0.77022 0.13043 0.56610
 C840 C 0.78219 0.14331 0.55107
 C841 C 0.93471 0.62416 0.28221
 C842 C 0.91896 0.61167 0.27077
 C843 C 0.90134 0.59625 0.25716
 C844 C 0.88701 0.58242 0.24541
 C845 C 0.87107 0.56550 0.23150
 C846 C 0.85819 0.55046 0.21954
 C847 C 0.93470 0.37629 0.71818
 C848 C 0.91890 0.38877 0.72959
 C849 C 0.90121 0.40417 0.74313
 C850 C 0.88681 0.41797 0.75484
 C851 C 0.87079 0.43486 0.76869
 C852 C 0.85785 0.44987 0.78062
 C853 C 0.06687 0.62584 0.71969
 C854 C 0.08260 0.61331 0.73113
 C855 C 0.10020 0.59784 0.74470
 C856 C 0.11454 0.58397 0.75641
 C857 C 0.13049 0.56699 0.77023
 C858 C 0.14338 0.55188 0.78211
 C859 C 0.06653 0.37204 0.27786
 C860 C 0.08208 0.38523 0.26693
 C861 C 0.09955 0.40133 0.25390
 C862 C 0.11381 0.41560 0.24260
 C863 C 0.12973 0.43293 0.22917
 C864 C 0.14263 0.44824 0.21756
   
