data_POSCAR
  _audit_creation_date              2014-09-24
  _audit_creation_method            'ToBaCCo'
  _symmetry_space_group_name_H-M    'P1'
  _symmetry_Int_Tables_number       1
  _symmetry_cell_setting            triclinic
  loop_
  _symmetry_equiv_pos_as_xyz
 x,y,z
_cell_length_a 27.5381
_cell_length_b 27.3499
_cell_length_c 65.1550
_cell_angle_alpha 85.498500
_cell_angle_beta 93.698400
_cell_angle_gamma 120.865400
loop_
  _atom_site_label
  _atom_site_type_symbol
  _atom_site_fract_x
  _atom_site_fract_y
  _atom_site_fract_z
C1 C 0.06392 0.11472 0.52957
 H2 H 0.09951 0.10957 0.52713
 C3 C 0.07060 0.15659 0.54218
 H4 H 0.11139 0.18312 0.54964
 C5 C -0.03223 0.08648 0.52247
 H6 H -0.07194 0.05938 0.51452
 C7 C -0.02741 0.12808 0.53509
 H8 H -0.06349 0.13310 0.53667
 N9 N 0.01355 0.08142 0.51973
 C10 C 0.04518 -0.05289 0.50641
 H11 H 0.05023 -0.04685 0.48991
 C12 C 0.05234 -0.09485 0.51736
 H13 H 0.06344 -0.12065 0.50923
 C14 C 0.02185 -0.02860 0.53693
 H15 H 0.00903 -0.00337 0.54447
 C16 C 0.02778 -0.07061 0.54840
 H17 H 0.02053 -0.07664 0.56479
 Zn18 Zn 0.01646 0.03355 0.50110
 N19 N 0.03050 -0.02050 0.51631
 C20 C 0.12630 0.08109 0.48430
 N21 N 0.07799 0.08336 0.48379
 C22 C 0.07474 0.12608 0.47281
 C23 C 0.12097 0.16862 0.46188
 C24 C 0.17350 0.12267 0.47351
 C25 C -0.07697 -0.06390 0.48457
 C26 C -0.12353 -0.09484 0.47151
 C27 C -0.12219 -0.00781 0.46099
 C28 C -0.07495 0.02150 0.47409
 N29 N -0.05227 -0.00647 0.48517
 H30 H 0.12948 0.04860 0.49373
 H31 H 0.03718 0.12886 0.47331
 H32 H 0.11790 0.20321 0.45389
 H33 H 0.21153 0.12011 0.47424
 H34 H -0.05971 -0.08621 0.49377
 H35 H -0.13760 -0.13948 0.47107
 H36 H -0.13881 0.01709 0.45328
 H37 H -0.05666 0.06677 0.47541
 C38 C 0.04311 -0.10436 0.53859
 C39 C 0.02501 0.16459 0.54472
 C40 C -0.14698 -0.06731 0.45868
 C41 C 0.17153 0.16774 0.46235
 C42 C 1.10814 0.08018 0.12945
 H43 H 1.09808 0.11355 0.12951
 C44 C 1.14718 0.08497 0.11572
 H45 H 1.16504 0.12131 0.10478
 C46 C 1.09629 -0.00742 0.14384
 H47 H 1.07747 -0.04238 0.15529
 C48 C 1.13663 -0.00347 0.13072
 H49 H 1.14825 -0.03587 0.13227
 N50 N 1.08337 0.03447 0.14306
 C51 C 0.95259 0.06526 0.16190
 H52 H 0.96270 0.07095 0.17818
 C53 C 0.90438 0.06482 0.15345
 H54 H 0.87834 0.07162 0.16326
 C55 C 0.97198 0.04539 0.12966
 H56 H 0.99628 0.03442 0.12067
 C57 C 0.92436 0.04464 0.12061
 H58 H 0.91338 0.03383 0.10468
 Zn59 Zn 1.03934 0.03941 0.16293
 N60 N 0.98487 0.05497 0.15000
 C61 C 1.09648 0.14742 0.18283
 N62 N 1.09232 0.09654 0.18014
 C63 C 1.13046 0.08342 0.18905
 C64 C 1.17556 0.12221 0.20098
 C65 C 1.14140 0.18789 0.19481
 C66 C 0.96356 -0.07855 0.16940
 C67 C 0.92570 -0.12769 0.18086
 C68 C 0.96025 -0.07430 0.21162
 C69 C 0.99770 -0.02650 0.19965
 N70 N 0.99828 -0.02924 0.17892
 H71 H 1.06608 0.15721 0.17532
 H72 H 1.12609 0.04268 0.18657
 H73 H 1.20542 0.11070 0.20788
 H74 H 1.14537 0.22886 0.19651
 H75 H 0.96379 -0.07907 0.15283
 H76 H 0.89704 -0.16623 0.17303
 H77 H 0.95943 -0.07103 0.22804
 H78 H 1.02427 0.01351 0.20684
 C79 C 0.88897 0.05296 0.13264
 C80 C 1.16338 0.04376 0.11656
 C81 C 0.92295 -0.12536 0.20217
 C82 C 1.18215 0.17563 0.20371
 C83 C -0.01204 0.87686 0.85908
 H84 H -0.05243 0.83892 0.85641
 C85 C 0.03139 0.87163 0.86910
 H86 H 0.02266 0.82980 0.87491
 C87 C 0.04880 0.97658 0.85374
 H88 H 0.05596 1.01717 0.84719
 C89 C 0.09383 0.97321 0.86358
 H90 H 0.13509 1.01149 0.86457
 N91 N -0.00303 0.92868 0.85172
 C92 C -0.14704 0.94390 0.85248
 H93 H -0.13136 0.98026 0.84163
 C94 C -0.18955 0.93367 0.86569
 H95 H -0.20567 0.96249 0.86426
 C96 C -0.14769 0.86085 0.86592
 H97 H -0.13154 0.83235 0.86605
 C98 C -0.19077 0.84851 0.87927
 H99 H -0.20479 0.81149 0.88980
 Zn100 Zn -0.06393 0.92785 0.83593
 N101 N -0.12582 0.90854 0.85310
 C102 C -0.13826 0.82630 0.81479
 N103 N -0.08500 0.87216 0.81646
 C104 C -0.04225 0.87809 0.80521
 C105 C -0.05193 0.83662 0.79177
 C106 C -0.14984 0.78353 0.80151
 C107 C -0.02235 1.04646 0.83341
 C108 C -0.01075 1.09874 0.82386
 C109 C -0.03420 1.05560 0.79100
 C110 C -0.04605 1.00398 0.80120
 N111 N -0.04049 1.00013 0.82207
 H112 H -0.17146 0.82228 0.82404
 H113 H -0.00023 0.91487 0.80697
 H114 H -0.01724 0.84249 0.78290
 H115 H -0.19212 0.74661 0.80071
 H116 H -0.01913 1.04216 0.85001
 H117 H 0.00126 1.13423 0.83333
 H118 H -0.03878 1.05754 0.77438
 H119 H -0.06106 0.96670 0.79242
 C120 C -0.21202 0.88569 0.87971
 C121 C 0.08552 0.91999 0.87120
 C122 C -0.01724 1.10374 0.80235
 C123 C -0.10611 0.78810 0.78997
 C124 C 0.32153 -0.05684 -0.01441
 C125 C 0.32892 -0.03829 0.00511
 C126 C 0.38383 -0.02247 0.01144
 N127 N 0.41057 -0.02950 -0.00374
 C128 C 0.37260 -0.05052 -0.01958
 C129 C 0.40984 0.00213 0.03028
 C130 C 0.46303 0.01042 0.03747
 C131 C 0.49402 0.04236 0.05408
 C132 C 0.54046 0.03620 0.05706
 C133 C 0.53644 0.00020 0.04236
 N134 N 0.48908 -0.01541 0.03051
 C135 C 0.57394 -0.02038 0.04122
 C136 C 0.57656 -0.04656 0.02379
 C137 C 0.60811 -0.07270 0.02277
 C138 C 0.60150 -0.08965 0.00300
 C139 C 0.56568 -0.07383 -0.00734
 N140 N 0.55095 -0.04705 0.00534
 C141 C 0.55009 -0.08088 -0.02846
 C142 C 0.50897 -0.06968 -0.03803
 C143 C 0.50042 -0.06524 -0.05914
 C144 C 0.45385 -0.05917 -0.06212
 C145 C 0.43476 -0.06071 -0.04276
 N146 N 0.46869 -0.06700 -0.02817
 C147 C 0.38463 -0.06075 -0.03905
 H148 H 0.28297 -0.07269 -0.02373
 H149 H 0.29734 -0.03652 0.01355
 H150 H 0.46048 -0.07646 -0.01258
 H151 H 0.48394 0.06676 0.06343
 H152 H 0.57301 0.05536 0.06896
 H153 H 0.63349 -0.07872 0.03495
 H154 H 0.62110 -0.11091 -0.00306
 H155 H 0.43556 -0.05511 -0.07690
 H156 H 0.47198 -0.04729 0.02003
 H157 H 0.52461 -0.06704 -0.07120
 C158 C 0.02903 0.36382 0.66640
 C159 C 0.02118 0.35883 0.68722
 C160 C -0.00464 0.38950 0.69074
 N161 N -0.01279 0.41296 0.67279
 C162 C 0.00836 0.39788 0.65794
 C163 C -0.02211 0.39368 0.71015
 C164 C -0.04489 0.42843 0.71330
 C165 C -0.07604 0.42280 0.73013
 C166 C -0.08821 0.46594 0.72781
 C167 C -0.06341 0.49722 0.70977
 N168 N -0.03697 0.47410 0.70110
 C169 C -0.06195 0.54820 0.70269
 C170 C -0.03954 0.57730 0.68366
 C171 C -0.02406 0.63348 0.67854
 C172 C -0.00532 0.64503 0.65875
 C173 C -0.01148 0.59499 0.65226
 N174 N -0.03242 0.55372 0.66753
 C175 C -0.00079 0.58671 0.63227
 C176 C -0.00586 0.53512 0.62703
 C177 C -0.01285 0.51751 0.60714
 C178 C -0.01106 0.46804 0.60847
 C179 C -0.00254 0.45710 0.62915
 N180 N 0.00024 0.49806 0.64035
 C181 C 0.00842 0.41377 0.63679
 H182 H 0.04845 0.34518 0.65844
 H183 H 0.03316 0.33529 0.69844
 H184 H 0.01371 0.50502 0.65567
 H185 H -0.08861 0.39094 0.74277
 H186 H -0.11151 0.47413 0.73845
 H187 H -0.02529 0.66328 0.68818
 H188 H 0.01063 0.68558 0.65017
 H189 H -0.01410 0.44374 0.59562
 H190 H -0.00956 0.49208 0.68892
 H191 H -0.01794 0.53857 0.59310
 C192 C 0.40272 0.38306 0.34805
 C193 C 0.40418 0.37869 0.32727
 C194 C 0.43662 0.43377 0.31894
 N195 N 0.45399 0.47168 0.33377
 C196 C 0.43351 0.44081 0.35163
 C197 C 0.44925 0.44855 0.29792
 C198 C 0.49282 0.50285 0.29081
 C199 C 0.50143 0.52213 0.27026
 C200 C 0.55258 0.57246 0.26950
 C201 C 0.57333 0.58279 0.28961
 N202 N 0.53662 0.54045 0.30251
 C203 C 0.62720 0.62773 0.29549
 C204 C 0.63915 0.64807 0.31553
 C205 C 0.69135 0.69033 0.32284
 C206 C 0.68324 0.69988 0.34237
 C207 C 0.62671 0.66221 0.34648
 N208 N 0.59980 0.63104 0.33002
 C209 C 0.60033 0.65884 0.36483
 C210 C 0.54839 0.61062 0.37107
 C211 C 0.51872 0.60725 0.38807
 C212 C 0.47396 0.55196 0.38999
 C213 C 0.47702 0.52336 0.37393
 N214 N 0.52254 0.55926 0.36256
 C215 C 0.44063 0.46453 0.37091
 H216 H 0.38156 0.34760 0.35917
 H217 H 0.38462 0.33943 0.31929
 H218 H 0.53861 0.54724 0.35122
 H219 H 0.47458 0.50110 0.25711
 H220 H 0.57268 0.59808 0.25572
 H221 H 0.73104 0.71234 0.31495
 H222 H 0.71541 0.73044 0.35252
 H223 H 0.44283 0.53466 0.40188
 H224 H 0.54521 0.53349 0.31788
 H225 H 0.52895 0.64073 0.39832
 C226 C 0.00555 0.25189 0.58222
 C227 C 0.05457 0.30361 0.57923
 C228 C 0.09446 0.31295 0.56508
 C229 C 0.08372 0.26693 0.55366
 C230 C 0.03378 0.21278 0.55654
 C231 C -0.00618 0.20545 0.57093
 O232 O -0.02654 0.25226 0.59652
 C233 C 0.00293 0.30535 0.60265
 C234 C 0.05289 0.33843 0.59252
 C235 C 0.09032 0.39537 0.59642
 C236 C 0.07544 0.41939 0.61128
 C237 C 0.02403 0.38634 0.62183
 C238 C -0.01262 0.32838 0.61756
 H239 H 0.13257 0.35415 0.56295
 H240 H 0.11427 0.27354 0.54249
 H241 H -0.04446 0.16465 0.57355
 H242 H 0.12937 0.42046 0.58823
 H243 H 0.10354 0.46380 0.61452
 H244 H -0.05217 0.30253 0.62540
 C245 C 0.80587 0.78722 0.23950
 C246 C 0.79702 0.73358 0.23742
 C247 C 0.82746 0.72294 0.22398
 C248 C 0.86879 0.76960 0.21226
 C249 C 0.87914 0.82543 0.21438
 C250 C 0.84696 0.83409 0.22819
 O251 O 0.77229 0.78830 0.25295
 C252 C 0.74165 0.73414 0.25962
 C253 C 0.75523 0.69890 0.25066
 C254 C 0.72880 0.64066 0.25564
 C255 C 0.68690 0.61794 0.27051
 C256 C 0.67210 0.65342 0.27992
 C257 C 0.69966 0.71235 0.27423
 H258 H 0.81967 0.68032 0.22257
 H259 H 0.89323 0.76248 0.20177
 H260 H 0.85333 0.87607 0.22992
 H261 H 0.74026 0.61376 0.24846
 H262 H 0.66594 0.57275 0.27477
 H263 H 0.68881 0.74025 0.28105
 C264 C 0.21532 -0.05349 -0.09635
 C265 C 0.21630 -0.10219 -0.09937
 C266 C 0.17776 -0.14368 -0.11234
 C267 C 0.13603 -0.13503 -0.12243
 C268 C 0.13283 -0.08594 -0.11916
 C269 C 0.17389 -0.04417 -0.10612
 O270 O 0.25458 -0.02043 -0.08282
 C271 C 0.28059 -0.04911 -0.07709
 C272 C 0.25861 -0.09955 -0.08669
 C273 C 0.27696 -0.13807 -0.08196
 C274 C 0.31921 -0.12433 -0.06651
 C275 C 0.34259 -0.07257 -0.05635
 C276 C 0.32364 -0.03394 -0.06207
 H277 H 0.17939 -0.18166 -0.11447
 H278 H 0.10601 -0.16688 -0.13270
 H279 H 0.17238 -0.00668 -0.10301
 H280 H 0.25829 -0.17798 -0.08948
 H281 H 0.33302 -0.15441 -0.06211
 H282 H 0.34044 0.00564 -0.05446
 C283 C 0.01297 0.77026 0.57542
 C284 C 0.05989 0.76605 0.57295
 C285 C 0.10234 0.80217 0.55937
 C286 C 0.09619 0.84446 0.54792
 C287 C 0.04853 0.85015 0.55041
 C288 C 0.00632 0.81230 0.56437
 O289 O -0.02241 0.73187 0.58910
 C290 C 0.00287 0.70293 0.59550
 C291 C 0.05347 0.72230 0.58617
 C292 C 0.08765 0.69907 0.59100
 C293 C 0.06909 0.65436 0.60618
 C294 C 0.01705 0.63361 0.61604
 C295 C -0.01685 0.65789 0.61038
 H296 H 0.13891 0.79806 0.55771
 H297 H 0.12892 0.87338 0.53738
 H298 H -0.03074 0.81530 0.56646
 H299 H 0.12746 0.71522 0.58354
 H300 H 0.09532 0.63605 0.61042
 H301 H -0.05687 0.64264 0.61757
 C302 C 0.27687 0.28632 0.24172
 C303 C 0.32785 0.29095 0.23823
 C304 C 0.33448 0.26156 0.22327
 C305 C 0.28636 0.22501 0.21164
 C306 C 0.23280 0.21825 0.21517
 C307 C 0.22827 0.25019 0.23025
 O308 O 0.28003 0.31800 0.25678
 C309 C 0.33412 0.34298 0.26290
 C310 C 0.36506 0.32766 0.25204
 C311 C 0.42241 0.34832 0.25590
 C312 C 0.44925 0.38707 0.27144
 C313 C 0.41862 0.40439 0.28262
 C314 C 0.36006 0.38157 0.27845
 H315 H 0.37516 0.26624 0.22075
 H316 H 0.29073 0.20161 0.19994
 H317 H 0.18799 0.24565 0.23339
 H318 H 0.44570 0.33536 0.24718
 H319 H 0.49407 0.40436 0.27463
 H320 H 0.33596 0.39438 0.28678
 C321 C 0.70053 -0.08943 -0.08564
 C322 C 0.66414 -0.14409 -0.07825
 C323 C 0.66622 -0.19072 -0.08409
 C324 C 0.70754 -0.18063 -0.09808
 C325 C 0.74599 -0.12437 -0.10621
 C326 C 0.74156 -0.07833 -0.09967
 O327 O 0.69224 -0.05084 -0.07796
 C328 C 0.64941 -0.08191 -0.06550
 C329 C 0.63045 -0.13934 -0.06515
 C330 C 0.58564 -0.17963 -0.05319
 C331 C 0.55930 -0.15985 -0.04117
 C332 C 0.57839 -0.10087 -0.04127
 C333 C 0.62418 -0.06133 -0.05355
 H334 H 0.63689 -0.23351 -0.07813
 H335 H 0.70758 -0.21742 -0.10302
 H336 H 0.77053 -0.03442 -0.10452
 H337 H 0.57140 -0.22460 -0.05316
 H338 H 0.52421 -0.19019 -0.03175
 H339 H 0.63932 -0.01610 -0.05382
 C340 C 0.25370 0.01406 0.08375
 C341 C 0.29500 0.06875 0.07808
 C342 C 0.29676 0.11658 0.08474
 C343 C 0.25394 0.10778 0.09767
 C344 C 0.20944 0.05174 0.10334
 C345 C 0.20992 0.00422 0.09627
 O346 O 0.26053 -0.02544 0.07600
 C347 C 0.30700 0.00510 0.06514
 C348 C 0.32943 0.06297 0.06576
 C349 C 0.37707 0.10288 0.05499
 C350 C 0.40277 0.08224 0.04311
 C351 C 0.38126 0.02285 0.04263
 C352 C 0.33270 -0.01629 0.05382
 H353 H 0.33026 0.15922 0.08032
 H354 H 0.25615 0.14494 0.10341
 H355 H 0.17688 -0.03913 0.10004
 H356 H 0.39354 0.14819 0.05556
 H357 H 0.43969 0.11227 0.03443
 H358 H 0.31539 -0.06184 0.05353
 C359 C 0.74035 0.81499 0.42853
 C360 C 0.72926 0.84538 0.41319
 C361 C 0.75568 0.90430 0.41255
 C362 C 0.79601 0.93334 0.42814
 C363 C 0.81009 0.90366 0.44439
 C364 C 0.77939 0.84258 0.44440
 O365 O 0.71324 0.75939 0.42573
 C366 C 0.68464 0.75469 0.40809
 C367 C 0.69279 0.80613 0.39980
 C368 C 0.66940 0.81158 0.38082
 C369 C 0.63705 0.76215 0.36981
 C370 C 0.62896 0.70885 0.37787
 C371 C 0.65246 0.70496 0.39743
 H372 H 0.74700 0.92746 0.40004
 H373 H 0.81785 0.97920 0.42628
 H374 H 0.78427 0.81551 0.45624
 H375 H 0.67701 0.85261 0.37447
 H376 H 0.61953 0.76541 0.35474
 H377 H 0.64788 0.66497 0.40368
 C378 C -0.03296 0.20896 0.76519
 C379 C 0.00804 0.25992 0.77287
 C380 C 0.04259 0.26305 0.78986
 C381 C 0.03436 0.21154 0.79938
 C382 C -0.00816 0.15815 0.79192
 C383 C -0.04226 0.15733 0.77452
 O384 O -0.06005 0.21523 0.74853
 C385 C -0.03562 0.27142 0.74560
 C386 C 0.00614 0.30079 0.76013
 C387 C 0.03785 0.36008 0.75975
 C388 C 0.02665 0.39024 0.74355
 C389 C -0.01524 0.36082 0.72816
 C390 C -0.04736 0.30056 0.72936
 H391 H 0.07513 0.30369 0.79546
 H392 H 0.06169 0.21344 0.81238
 H393 H -0.07555 0.11771 0.76847
 H394 H 0.07060 0.38227 0.77131
 H395 H 0.05152 0.43641 0.74261
 H396 H -0.07925 0.27729 0.71767
 C397 C 0.77446 0.04267 0.09478
 C398 C 0.72732 0.01093 0.10651
 C399 C 0.73042 -0.00502 0.12712
 C400 C 0.78422 0.01138 0.13588
 C401 C 0.83356 0.04300 0.12398
 C402 C 0.82833 0.05966 0.10319
 O403 O 0.76223 0.05153 0.07531
 C404 C 0.70610 0.02449 0.07470
 C405 C 0.68264 -0.00119 0.09338
 C406 C 0.62449 -0.03383 0.09600
 C407 C 0.58913 -0.04009 0.07866
 C408 C 0.61235 -0.01373 0.05927
 C409 C 0.67174 0.01923 0.05732
 H410 H 0.69267 -0.03052 0.13599
 H411 H 0.78706 -0.00282 0.15166
 H412 H 0.86493 0.08367 0.09364
 H413 H 0.60699 -0.05418 0.11079
 H414 H 0.54368 -0.06549 0.08025
 H415 H 0.69043 0.03964 0.04267
 C416 C 0.26686 0.28634 0.42440
 C417 C 0.31870 0.30577 0.43426
 C418 C 0.32551 0.28188 0.45305
 C419 C 0.27687 0.23625 0.46210
 C420 C 0.22270 0.21519 0.45226
 C421 C 0.21795 0.24092 0.43308
 O422 O 0.26974 0.31430 0.40648
 C423 C 0.32462 0.35217 0.40500
 C424 C 0.35642 0.34875 0.42161
 C425 C 0.41500 0.38335 0.42298
 C426 C 0.44198 0.42242 0.40639
 C427 C 0.41025 0.42617 0.38894
 C428 C 0.35054 0.39118 0.38844
 H429 H 0.36677 0.29790 0.46052
 H430 H 0.28140 0.21802 0.47694
 H431 H 0.17753 0.22567 0.42501
 H432 H 0.43914 0.37965 0.43616
 H433 H 0.48769 0.44884 0.40685
 H434 H 0.32538 0.39315 0.37528
 C435 C -0.08391 0.68687 0.76099
 C436 C -0.13302 0.66135 0.74918
 C437 C -0.17558 0.67415 0.75029
 C438 C -0.16697 0.71517 0.76405
 C439 C -0.11632 0.74262 0.77626
 C440 C -0.07459 0.72749 0.77477
 O441 O -0.04774 0.67060 0.75705
 C442 C -0.07446 0.63411 0.74236
 C443 C -0.12686 0.62687 0.73697
 C444 C -0.16085 0.59262 0.72121
 C445 C -0.13964 0.56536 0.71043
 C446 C -0.08564 0.57266 0.71564
 C447 C -0.05282 0.60700 0.73197
 H448 H -0.21361 0.65401 0.74067
 H449 H -0.19902 0.72666 0.76475
 H450 H -0.03563 0.74715 0.78393
 H451 H -0.20158 0.58812 0.71705
 H452 H -0.16452 0.53957 0.69774
 H453 H -0.01097 0.61403 0.73587
   
