data_POSCAR
  _audit_creation_date              2014-09-24
  _audit_creation_method            'ToBaCCo'
  _symmetry_space_group_name_H-M    'P1'
  _symmetry_Int_Tables_number       1
  _symmetry_cell_setting            triclinic
  loop_
  _symmetry_equiv_pos_as_xyz
 x,y,z
_cell_length_a 32.2130
_cell_length_b 32.7603
_cell_length_c 32.7581
_cell_angle_alpha 90.059800
_cell_angle_beta 89.997100
_cell_angle_gamma 90.015900
loop_
  _atom_site_label
  _atom_site_type_symbol
  _atom_site_fract_x
  _atom_site_fract_y
  _atom_site_fract_z
C1 C 0.28439 0.23008 0.23282
 C2 C 0.26697 0.21299 0.26813
 C3 C 0.23247 0.23078 0.28591
 C4 C 0.21506 0.26606 0.26877
 C5 C 0.23225 0.28289 0.23398
 C6 C 0.26719 0.26485 0.21595
 C7 C 0.31783 0.21935 0.20897
 N8 N 0.32142 0.24684 0.17809
 C9 C 0.29048 0.27477 0.18221
 C10 C 0.20904 0.31669 0.22409
 N11 N 0.17817 0.32088 0.25208
 C12 C 0.18170 0.28999 0.27956
 C13 C 0.22224 0.20771 0.31951
 N14 N 0.24975 0.17641 0.32266
 C15 C 0.27724 0.17948 0.29131
 H16 H 0.33841 0.19376 0.21414
 H17 H 0.28496 0.30023 0.16189
 H18 H 0.21461 0.33702 0.19865
 H19 H 0.16117 0.28490 0.30521
 H20 H 0.19695 0.21367 0.34043
 H21 H 0.30256 0.15858 0.28541
 C22 C 0.71562 -0.23111 0.23242
 C23 C 0.73279 -0.21416 0.26795
 C24 C 0.76679 -0.23238 0.28615
 C25 C 0.78397 -0.26787 0.26915
 C26 C 0.76714 -0.28441 0.23413
 C27 C 0.73245 -0.26610 0.21584
 C28 C 0.68261 -0.22002 0.20824
 N29 N 0.67845 -0.24769 0.17730
 C30 C 0.70917 -0.27599 0.18207
 C31 C 0.79045 -0.31813 0.22418
 N32 N 0.82118 -0.32293 0.25248
 C33 C 0.81700 -0.29204 0.28020
 C34 C 0.77693 -0.20936 0.31986
 N35 N 0.74981 -0.17769 0.32268
 C36 C 0.72268 -0.18047 0.29100
 H37 H 0.66251 -0.19424 0.21403
 H38 H 0.71527 -0.30161 0.16214
 H39 H 0.78437 -0.33802 0.19852
 H40 H 0.83711 -0.28628 0.30599
 H41 H 0.80189 -0.21558 0.34107
 H42 H 0.69773 -0.15924 0.28480
 C43 C 0.71577 0.23185 0.76692
 C44 C 0.73300 0.21482 0.73147
 C45 C 0.76698 0.23304 0.71321
 C46 C 0.78407 0.26865 0.73009
 C47 C 0.76717 0.28526 0.76504
 C48 C 0.73251 0.26693 0.78338
 C49 C 0.68281 0.22072 0.79114
 N50 N 0.67860 0.24845 0.82201
 C51 C 0.70923 0.27684 0.81714
 C52 C 0.79039 0.31905 0.77493
 N53 N 0.82118 0.32382 0.74668
 C54 C 0.81709 0.29286 0.71902
 C55 C 0.77717 0.20988 0.67961
 N56 N 0.75010 0.17813 0.67694
 C57 C 0.72296 0.18101 0.70859
 H58 H 0.66280 0.19484 0.78544
 H59 H 0.71528 0.30253 0.83701
 H60 H 0.78423 0.33898 0.80054
 H61 H 0.83726 0.28707 0.69329
 H62 H 0.80214 0.21604 0.65837
 H63 H 0.69805 0.15975 0.71490
 C64 C 0.28414 -0.23074 0.76843
 C65 C 0.26697 -0.21381 0.73293
 C66 C 0.23288 -0.23198 0.71479
 C67 C 0.21562 -0.26739 0.73179
 C68 C 0.23244 -0.28392 0.76678
 C69 C 0.26722 -0.26567 0.78502
 C70 C 0.31724 -0.21972 0.79255
 N71 N 0.32138 -0.24737 0.82345
 C72 C 0.29054 -0.27558 0.81873
 C73 C 0.20906 -0.31760 0.77670
 N74 N 0.17830 -0.32236 0.74840
 C75 C 0.18253 -0.29150 0.72073
 C76 C 0.22278 -0.20905 0.68107
 N77 N 0.24999 -0.17745 0.67819
 C78 C 0.27716 -0.18021 0.70983
 H79 H 0.33744 -0.19401 0.78674
 H80 H 0.28440 -0.30117 0.83865
 H81 H 0.21511 -0.33750 0.80232
 H82 H 0.16244 -0.28571 0.69495
 H83 H 0.19778 -0.21528 0.65988
 H84 H 0.30220 -0.15904 0.71597
 C85 C 0.71555 -0.23064 0.76805
 C86 C 0.73272 -0.21368 0.73255
 C87 C 0.76675 -0.23187 0.71433
 C88 C 0.78395 -0.26735 0.73126
 C89 C 0.76713 -0.28389 0.76624
 C90 C 0.73241 -0.26561 0.78456
 C91 C 0.68251 -0.21959 0.79225
 N92 N 0.67837 -0.24728 0.82312
 C93 C 0.70913 -0.27554 0.81829
 C94 C 0.79045 -0.31760 0.77612
 N95 N 0.82119 -0.32237 0.74782
 C96 C 0.81700 -0.29149 0.72016
 C97 C 0.77688 -0.20887 0.68066
 N98 N 0.74975 -0.17722 0.67788
 C99 C 0.72260 -0.18000 0.70954
 H100 H 0.66238 -0.19383 0.78652
 H101 H 0.71526 -0.30116 0.83816
 H102 H 0.78437 -0.33750 0.80174
 H103 H 0.83710 -0.28571 0.69438
 H104 H 0.80185 -0.21510 0.65944
 H105 H 0.69762 -0.15879 0.71575
 C106 C 0.28499 0.23142 0.76700
 C107 C 0.26730 0.21396 0.73197
 C108 C 0.23300 0.23185 0.71401
 C109 C 0.21605 0.26758 0.73071
 C110 C 0.23364 0.28484 0.76515
 C111 C 0.26851 0.26672 0.78325
 C112 C 0.31815 0.22048 0.79105
 N113 N 0.32267 0.24848 0.82164
 C114 C 0.29212 0.27692 0.81670
 C115 C 0.21061 0.31885 0.77483
 N116 N 0.17948 0.32273 0.74708
 C117 C 0.18269 0.29148 0.71992
 C118 C 0.22250 0.20842 0.68068
 N119 N 0.24972 0.17683 0.67785
 C120 C 0.27721 0.18003 0.70919
 H121 H 0.33798 0.19444 0.78550
 H122 H 0.28625 0.30277 0.83641
 H123 H 0.21636 0.33943 0.80008
 H124 H 0.16182 0.28600 0.69460
 H125 H 0.19733 0.21440 0.65964
 H126 H 0.30239 0.15902 0.71526
 C127 C 0.28413 -0.23121 0.23213
 C128 C 0.26695 -0.21429 0.26767
 C129 C 0.23288 -0.23247 0.28579
 C130 C 0.21563 -0.26790 0.26871
 C131 C 0.23246 -0.28441 0.23368
 C132 C 0.26723 -0.26614 0.21547
 C133 C 0.31721 -0.22014 0.20803
 N134 N 0.32137 -0.24777 0.17706
 C135 C 0.29056 -0.27602 0.18173
 C136 C 0.20910 -0.31811 0.22368
 N137 N 0.17834 -0.32289 0.25197
 C138 C 0.18256 -0.29203 0.27971
 C139 C 0.22277 -0.20952 0.31955
 N140 N 0.24996 -0.17791 0.32247
 C141 C 0.27712 -0.18067 0.29082
 H142 H 0.33737 -0.19441 0.21391
 H143 H 0.28445 -0.30160 0.16174
 H144 H 0.21516 -0.33799 0.19801
 H145 H 0.16246 -0.28626 0.30551
 H146 H 0.19777 -0.21575 0.34073
 H147 H 0.30214 -0.15948 0.28470
 C148 C 0.71649 0.23045 0.23274
 C149 C 0.73342 0.21382 0.26848
 C150 C 0.76756 0.23197 0.28658
 C151 C 0.78511 0.26714 0.26929
 C152 C 0.76862 0.28329 0.23398
 C153 C 0.73394 0.26500 0.21567
 C154 C 0.68326 0.21951 0.20869
 N155 N 0.68001 0.24672 0.17754
 C156 C 0.71100 0.27461 0.18162
 C157 C 0.79200 0.31690 0.22392
 N158 N 0.82246 0.32204 0.25243
 C159 C 0.81808 0.29143 0.28037
 C160 C 0.77747 0.20918 0.32047
 N161 N 0.75012 0.17770 0.32344
 C162 C 0.72302 0.18041 0.29175
 H163 H 0.66249 0.19409 0.21401
 H164 H 0.71668 0.29994 0.16118
 H165 H 0.78603 0.33655 0.19809
 H166 H 0.83789 0.28604 0.30645
 H167 H 0.80252 0.21535 0.34161
 H168 H 0.69798 0.15924 0.28559
 O169 O 0.28411 0.03904 0.46053
 O170 O 0.28421 -0.04026 0.54009
 O171 O 0.28416 -0.04035 0.46050
 O172 O 0.28403 0.03911 0.54008
 O173 O 0.21556 0.03910 0.53999
 O174 O 0.21569 -0.04053 0.46059
 O175 O 0.21574 -0.04042 0.54001
 O176 O 0.21565 0.03902 0.46058
 Cu177 Cu 0.29099 -0.00061 0.50030
 Cu178 Cu 0.20880 -0.00072 0.50029
 C179 C 0.24987 0.05263 0.44693
 C180 C 0.24998 -0.05392 0.55370
 C181 C 0.24994 -0.05406 0.44691
 C182 C 0.24978 0.05272 0.55368
 O183 O 0.71585 0.03961 0.53999
 O184 O 0.71573 -0.03987 0.46044
 O185 O 0.71567 -0.03977 0.54004
 O186 O 0.71578 0.03955 0.46050
 O187 O 0.78425 0.03956 0.46056
 O188 O 0.78414 -0.03991 0.53996
 O189 O 0.78419 -0.04002 0.46052
 O190 O 0.78432 0.03965 0.53990
 Cu191 Cu 0.70889 -0.00013 0.50024
 Cu192 Cu 0.79109 -0.00021 0.50023
 C193 C 0.75010 0.05330 0.55352
 C194 C 0.74994 -0.05357 0.44685
 C195 C 0.74988 -0.05343 0.55364
 C196 C 0.75003 0.05321 0.44696
 O197 O 0.46014 0.28022 0.03928
 O198 O 0.54103 0.28070 -0.04004
 O199 O 0.45997 0.28074 -0.04007
 O200 O 0.54086 0.28017 0.03923
 O201 O 0.54086 0.21285 0.03876
 O202 O 0.46018 0.21339 -0.04091
 O203 O 0.54071 0.21335 -0.04089
 O204 O 0.46004 0.21290 0.03881
 Cu205 Cu 0.50049 0.28720 -0.00038
 Cu206 Cu 0.50042 0.20636 -0.00108
 C207 C 0.44630 0.24651 0.05272
 C208 C 0.55469 0.24712 -0.05407
 C209 C 0.44629 0.24718 -0.05414
 C210 C 0.55470 0.24644 0.05262
 O211 O 0.54056 0.71963 0.03977
 O212 O 0.45951 0.71970 -0.03942
 O213 O 0.54054 0.71974 -0.03945
 O214 O 0.45951 0.71959 0.03978
 O215 O 0.45971 0.78695 0.04020
 O216 O 0.54033 0.78710 -0.03956
 O217 O 0.45971 0.78705 -0.03954
 O218 O 0.54035 0.78698 0.04020
 Cu219 Cu 0.50004 0.71292 0.00016
 Cu220 Cu 0.50003 0.79378 0.00034
 C221 C 0.55428 0.75328 0.05358
 C222 C 0.44576 0.75337 -0.05306
 C223 C 0.55426 0.75342 -0.05311
 C224 C 0.44577 0.75323 0.05358
 O225 O 0.04034 0.46063 0.28677
 O226 O -0.04061 0.54004 0.28689
 O227 O -0.04031 0.46025 0.28702
 O228 O 0.04003 0.54029 0.28667
 O229 O 0.04034 0.53955 0.21932
 O230 O -0.04100 0.46065 0.21966
 O231 O -0.04077 0.53983 0.21954
 O232 O 0.03978 0.46020 0.21944
 Cu233 Cu -0.00013 0.50033 0.29360
 Cu234 Cu -0.00041 0.50009 0.21274
 C235 C 0.05382 0.44671 0.25306
 C236 C -0.05453 0.55352 0.25321
 C237 C -0.05443 0.44679 0.25337
 C238 C 0.05403 0.55351 0.25292
 O239 O 0.03999 0.54089 0.71330
 O240 O -0.04037 0.46088 0.71269
 O241 O -0.04061 0.54064 0.71306
 O242 O 0.04036 0.46127 0.71294
 O243 O 0.03980 0.46076 0.78027
 O244 O -0.04078 0.54036 0.78042
 O245 O -0.04110 0.46121 0.78004
 O246 O 0.04028 0.54008 0.78065
 Cu247 Cu -0.00015 0.50093 0.70624
 Cu248 Cu -0.00045 0.50060 0.78709
 C249 C 0.05397 0.55407 0.74709
 C250 C -0.05458 0.44746 0.74628
 C251 C -0.05453 0.55409 0.74678
 C252 C 0.05392 0.44739 0.74660
 C253 C 0.36627 0.28343 0.12907
 C254 C 0.35269 0.24666 0.14663
 C255 C 0.37013 0.20977 0.13298
 C256 C 0.40038 0.20966 0.10238
 C257 C 0.41402 0.24647 0.08490
 C258 C 0.39663 0.28336 0.09863
 H259 H 0.35385 0.31237 0.13930
 H260 H 0.35996 0.18093 0.14557
 H261 H 0.41313 0.18071 0.09246
 H262 H 0.40651 0.31226 0.08588
 C263 C 0.62462 0.78791 0.13959
 C264 C 0.64868 0.75267 0.14723
 C265 C 0.64099 0.71773 0.12304
 C266 C 0.61025 0.71793 0.09294
 C267 C 0.58673 0.75316 0.08553
 C268 C 0.59439 0.78819 0.10898
 H269 H 0.62955 0.81592 0.15632
 H270 H 0.65762 0.68953 0.12783
 H271 H 0.60504 0.69042 0.07531
 H272 H 0.57674 0.81586 0.10390
 C273 C 0.64115 0.28296 -0.12369
 C274 C 0.64889 0.24803 -0.14787
 C275 C 0.62495 0.21271 -0.14016
 C276 C 0.59478 0.21235 -0.10952
 C277 C 0.58707 0.24737 -0.08606
 C278 C 0.61048 0.28267 -0.09353
 H279 H 0.65770 0.31121 -0.12853
 H280 H 0.62992 0.18470 -0.15688
 H281 H 0.57722 0.18462 -0.10440
 H282 H 0.60521 0.31017 -0.07589
 C283 C 0.37539 0.78813 -0.13889
 C284 C 0.35122 0.75293 -0.14655
 C285 C 0.35887 0.71798 -0.12245
 C286 C 0.38966 0.71812 -0.09241
 C287 C 0.41329 0.75331 -0.08497
 C288 C 0.40568 0.78835 -0.10834
 H289 H 0.37049 0.81614 -0.15556
 H290 H 0.34215 0.68981 -0.12727
 H291 H 0.39485 0.69060 -0.07484
 H292 H 0.42341 0.81599 -0.10324
 C293 C 0.12982 0.36617 0.28937
 C294 C 0.14705 0.35248 0.25240
 C295 C 0.13343 0.37015 0.21569
 C296 C 0.10320 0.40071 0.21592
 C297 C 0.08601 0.41445 0.25290
 C298 C 0.09971 0.39689 0.28964
 H299 H 0.14004 0.35351 0.31816
 H300 H 0.14571 0.35990 0.18669
 H301 H 0.09327 0.41354 0.18708
 H302 H 0.08712 0.40682 0.31865
 C303 C 0.12441 0.64001 0.71274
 C304 C 0.14848 0.64762 0.74801
 C305 C 0.14073 0.62346 0.78290
 C306 C 0.10994 0.59340 0.78263
 C307 C 0.08642 0.58601 0.74737
 C308 C 0.09413 0.60946 0.71239
 H309 H 0.12938 0.65671 0.68475
 H310 H 0.15738 0.62824 0.81112
 H311 H 0.10469 0.57577 0.81010
 H312 H 0.07649 0.60440 0.68469
 C313 C -0.12496 0.63936 0.28802
 C314 C -0.14902 0.64704 0.25278
 C315 C -0.14130 0.62294 0.21780
 C316 C -0.11053 0.59289 0.21794
 C317 C -0.08700 0.58543 0.25316
 C318 C -0.09469 0.60879 0.28825
 H319 H -0.12991 0.65602 0.31606
 H320 H -0.15794 0.62777 0.18960
 H321 H -0.10530 0.57532 0.19039
 H322 H -0.07704 0.60368 0.31591
 C323 C -0.14148 0.37805 0.78139
 C324 C -0.14905 0.35388 0.74642
 C325 C -0.12484 0.36153 0.71126
 C326 C -0.09459 0.39213 0.71110
 C327 C -0.08706 0.41556 0.74618
 C328 C -0.11074 0.40813 0.78132
 H329 H -0.15821 0.37325 0.80955
 H330 H -0.12967 0.34480 0.68323
 H331 H -0.07681 0.39723 0.68350
 H332 H -0.10563 0.42574 0.80887
 C333 C 0.28717 0.12740 0.36663
 C334 C 0.24978 0.14538 0.35381
 C335 C 0.21243 0.13260 0.37190
 C336 C 0.21243 0.10244 0.40203
 C337 C 0.24984 0.08453 0.41493
 C338 C 0.28722 0.09740 0.39693
 H339 H 0.31648 0.13696 0.35363
 H340 H 0.18309 0.14552 0.36232
 H341 H 0.18309 0.09318 0.41525
 H342 H 0.31658 0.08426 0.40621
 C343 C 0.71280 0.12839 0.63362
 C344 C 0.75012 0.14687 0.64597
 C345 C 0.78745 0.13431 0.62767
 C346 C 0.78748 0.10383 0.59778
 C347 C 0.75013 0.08543 0.58534
 C348 C 0.71278 0.09810 0.60356
 H349 H 0.68352 0.13777 0.64681
 H350 H 0.81672 0.14764 0.63689
 H351 H 0.81678 0.09475 0.58436
 H352 H 0.68347 0.08458 0.59463
 C353 C 0.21268 -0.13404 0.62863
 C354 C 0.25001 -0.14646 0.64701
 C355 C 0.28734 -0.12818 0.63443
 C356 C 0.28736 -0.09826 0.60405
 C357 C 0.25001 -0.08576 0.58575
 C358 C 0.21265 -0.10394 0.59843
 H359 H 0.18339 -0.14720 0.63803
 H360 H 0.31663 -0.13746 0.64767
 H361 H 0.31668 -0.08487 0.59495
 H362 H 0.18333 -0.09497 0.58499
 C363 C 0.78718 -0.13413 0.37219
 C364 C 0.74984 -0.14657 0.35380
 C365 C 0.71254 -0.12817 0.36628
 C366 C 0.71254 -0.09808 0.39657
 C367 C 0.74991 -0.08554 0.41487
 C368 C 0.78724 -0.10387 0.40229
 H369 H 0.81645 -0.14739 0.36287
 H370 H 0.68325 -0.13746 0.35304
 H371 H 0.68325 -0.08460 0.40559
 H372 H 0.81655 -0.09488 0.41575
 C373 C 0.64095 0.71805 -0.12273
 C374 C 0.64860 0.75302 -0.14681
 C375 C 0.62450 0.78823 -0.13906
 C376 C 0.59429 0.78845 -0.10843
 C377 C 0.58668 0.75338 -0.08508
 C378 C 0.61023 0.71819 -0.09262
 H379 H 0.65761 0.68986 -0.12762
 H380 H 0.62939 0.81625 -0.15572
 H381 H 0.57660 0.81609 -0.10326
 H382 H 0.60505 0.69065 -0.07506
 C383 C 0.36030 0.28313 -0.12425
 C384 C 0.35242 0.24812 -0.14827
 C385 C 0.37617 0.21274 -0.14035
 C386 C 0.40623 0.21238 -0.10960
 C387 C 0.41403 0.24745 -0.08625
 C388 C 0.39086 0.28284 -0.09398
 H389 H 0.34392 0.31144 -0.12928
 H390 H 0.37111 0.18467 -0.15694
 H391 H 0.42363 0.18459 -0.10431
 H392 H 0.39622 0.31039 -0.07646
 C393 C 0.37534 0.78782 0.13951
 C394 C 0.35120 0.75259 0.14706
 C395 C 0.35889 0.71767 0.12285
 C396 C 0.38969 0.71788 0.09281
 C397 C 0.41329 0.75309 0.08548
 C398 C 0.40564 0.78810 0.10896
 H399 H 0.37042 0.81581 0.15626
 H400 H 0.34219 0.68948 0.12757
 H401 H 0.39490 0.69038 0.07515
 H402 H 0.42334 0.81576 0.10395
 C403 C 0.63106 0.20967 0.13266
 C404 C 0.64873 0.24654 0.14609
 C405 C 0.63527 0.28330 0.12844
 C406 C 0.60476 0.28324 0.09815
 C407 C 0.58712 0.24638 0.08466
 C408 C 0.60066 0.20957 0.10219
 H409 H 0.64113 0.18084 0.14534
 H410 H 0.64787 0.31223 0.13852
 H411 H 0.59498 0.31213 0.08533
 H412 H 0.58772 0.18065 0.09245
 C413 C -0.12494 0.63994 0.71219
 C414 C -0.14901 0.64761 0.74745
 C415 C -0.14128 0.62350 0.78238
 C416 C -0.11051 0.59345 0.78216
 C417 C -0.08698 0.58601 0.74692
 C418 C -0.09467 0.60938 0.71189
 H419 H -0.12989 0.65661 0.68418
 H420 H -0.15792 0.62833 0.81059
 H421 H -0.10527 0.57588 0.80967
 H422 H -0.07702 0.60427 0.68421
 C423 C -0.14026 0.37628 0.21778
 C424 C -0.14796 0.35230 0.25280
 C425 C -0.12420 0.36043 0.28816
 C426 C -0.09427 0.39134 0.28846
 C427 C -0.08665 0.41463 0.25335
 C428 C -0.10987 0.40670 0.21802
 H429 H -0.15663 0.37111 0.18947
 H430 H -0.12913 0.34384 0.31622
 H431 H -0.07683 0.39679 0.31620
 H432 H -0.10465 0.42415 0.19042
 C433 C 0.13466 0.37188 0.78364
 C434 C 0.14815 0.35412 0.74690
 C435 C 0.13043 0.36736 0.71001
 C436 C 0.09997 0.39775 0.70987
 C437 C 0.08638 0.41539 0.74665
 C438 C 0.10406 0.40209 0.78354
 H439 H 0.14731 0.36196 0.81257
 H440 H 0.14053 0.35460 0.68120
 H441 H 0.08701 0.40734 0.68093
 H442 H 0.09425 0.41502 0.81241
 C443 C 0.12445 0.63944 0.28752
 C444 C 0.14853 0.64708 0.25228
 C445 C 0.14080 0.62293 0.21732
 C446 C 0.11002 0.59286 0.21751
 C447 C 0.08648 0.58545 0.25275
 C448 C 0.09417 0.60888 0.28779
 H449 H 0.12940 0.65613 0.31555
 H450 H 0.15746 0.62772 0.18912
 H451 H 0.10477 0.57524 0.18999
 H452 H 0.07652 0.60381 0.31547
 C453 C 0.71247 -0.12780 0.63427
 C454 C 0.74977 -0.14615 0.64677
 C455 C 0.78711 -0.13373 0.62840
 C456 C 0.78717 -0.10356 0.59827
 C457 C 0.74984 -0.08530 0.58566
 C458 C 0.71248 -0.09780 0.60396
 H459 H 0.68317 -0.13707 0.64751
 H460 H 0.81639 -0.14695 0.63775
 H461 H 0.81650 -0.09459 0.58482
 H462 H 0.68318 -0.08437 0.59491
 C463 C 0.28730 -0.12855 0.36624
 C464 C 0.24997 -0.14688 0.35368
 C465 C 0.21264 -0.13444 0.37207
 C466 C 0.21261 -0.10425 0.40224
 C467 C 0.24996 -0.08600 0.41489
 C468 C 0.28732 -0.09854 0.39659
 H469 H 0.31658 -0.13784 0.35299
 H470 H 0.18335 -0.14763 0.36269
 H471 H 0.18329 -0.09525 0.41569
 H472 H 0.31663 -0.08511 0.40567
 C473 C 0.78742 0.13397 0.37274
 C474 C 0.75009 0.14661 0.35452
 C475 C 0.71274 0.12828 0.36698
 C476 C 0.71270 0.09806 0.39705
 C477 C 0.75005 0.08530 0.41517
 C478 C 0.78742 0.10357 0.40264
 H479 H 0.81672 0.14716 0.36343
 H480 H 0.68345 0.13771 0.35384
 H481 H 0.68337 0.08464 0.40605
 H482 H 0.81674 0.09442 0.41598
 C483 C 0.28707 0.12748 0.63412
 C484 C 0.24971 0.14564 0.64681
 C485 C 0.21236 0.13296 0.62862
 C486 C 0.21235 0.10272 0.59849
 C487 C 0.24974 0.08466 0.58570
 C488 C 0.28711 0.09742 0.60383
 H489 H 0.31638 0.13697 0.64719
 H490 H 0.18305 0.14604 0.63809
 H491 H 0.18302 0.09354 0.58517
 H492 H 0.31645 0.08415 0.59464
   
