data_POSCAR
  _audit_creation_date              2014-09-24
  _audit_creation_method            'ToBaCCo'
  _symmetry_space_group_name_H-M    'P1'
  _symmetry_Int_Tables_number       1
  _symmetry_cell_setting            triclinic
  loop_
  _symmetry_equiv_pos_as_xyz
 x,y,z
_cell_length_a 37.8848
_cell_length_b 30.1477
_cell_length_c 26.4144
_cell_angle_alpha 90.200700
_cell_angle_beta 90.050000
_cell_angle_gamma 90.143000
loop_
  _atom_site_label
  _atom_site_type_symbol
  _atom_site_fract_x
  _atom_site_fract_y
  _atom_site_fract_z
C1 C 0.24944 0.27281 0.24906
 C2 C 0.24930 0.22757 0.24909
 C3 C 0.22269 0.20157 0.22014
 C4 C 0.27577 0.20169 0.27805
 C5 C 0.27775 0.29872 0.27463
 C6 C 0.22130 0.29867 0.22350
 C7 C 0.20198 0.16982 0.24518
 C8 C 0.17647 0.14551 0.21871
 C9 C 0.17156 0.15243 0.16673
 C10 C 0.19261 0.18354 0.14131
 C11 C 0.21816 0.20782 0.16784
 C12 C 0.28034 0.20828 0.33036
 C13 C 0.30582 0.18417 0.35684
 C14 C 0.32670 0.15297 0.33141
 C15 C 0.32177 0.14567 0.27952
 C16 C 0.29636 0.16977 0.25301
 C17 C 0.31348 0.29202 0.26256
 C18 C 0.33985 0.31576 0.28806
 C19 C 0.33074 0.34673 0.32544
 C20 C 0.29516 0.35425 0.33679
 C21 C 0.26880 0.33051 0.31139
 C22 C 0.23045 0.33028 0.18684
 C23 C 0.20424 0.35405 0.16153
 C24 C 0.16862 0.34673 0.17288
 C25 C 0.15931 0.31592 0.21015
 C26 C 0.18552 0.29215 0.23555
 H27 H 0.20524 0.16435 0.28542
 H28 H 0.16051 0.12151 0.23896
 H29 H 0.18930 0.18917 0.10106
 H30 H 0.23435 0.23155 0.14767
 H31 H 0.26426 0.23214 0.35054
 H32 H 0.30930 0.18992 0.39705
 H33 H 0.29307 0.16403 0.21277
 H34 H 0.32089 0.26824 0.23366
 H35 H 0.36729 0.30985 0.27879
 H36 H 0.28782 0.37822 0.36555
 H37 H 0.24140 0.33633 0.32100
 H38 H 0.25788 0.33596 0.17724
 H39 H 0.21174 0.37789 0.13287
 H40 H 0.13183 0.31016 0.21941
 H41 H 0.17796 0.26852 0.26438
 H42 H 0.33772 0.12153 0.25951
 C43 C 0.75009 0.22740 0.24958
 C44 C 0.75002 0.27264 0.24952
 C45 C 0.77630 0.29856 0.22009
 C46 C 0.72369 0.29851 0.27890
 C47 C 0.72178 0.20146 0.27483
 C48 C 0.77849 0.20157 0.22440
 C49 C 0.79702 0.33080 0.24461
 C50 C 0.82236 0.35476 0.21763
 C51 C 0.82705 0.34699 0.16579
 C52 C 0.80600 0.31551 0.14087
 C53 C 0.78060 0.29155 0.16781
 C54 C 0.71943 0.29188 0.33120
 C55 C 0.69401 0.31581 0.35812
 C56 C 0.67287 0.34690 0.33315
 C57 C 0.67751 0.35429 0.28129
 C58 C 0.70288 0.33036 0.25434
 C59 C 0.68607 0.20806 0.26253
 C60 C 0.65969 0.18409 0.28744
 C61 C 0.66876 0.15300 0.32448
 C62 C 0.70431 0.14564 0.33613
 C63 C 0.73070 0.16961 0.31130
 C64 C 0.76967 0.16934 0.18800
 C65 C 0.79614 0.14546 0.16324
 C66 C 0.83167 0.15329 0.17491
 C67 C 0.84063 0.18477 0.21188
 C68 C 0.81417 0.20866 0.23672
 H69 H 0.79395 0.33687 0.28480
 H70 H 0.83844 0.37912 0.23725
 H71 H 0.80929 0.30939 0.10072
 H72 H 0.76441 0.26743 0.14802
 H73 H 0.73568 0.26807 0.35103
 H74 H 0.69076 0.30999 0.39830
 H75 H 0.70592 0.33613 0.21412
 H76 H 0.67868 0.23187 0.23382
 H77 H 0.63226 0.18988 0.27795
 H78 H 0.71163 0.12157 0.36462
 H79 H 0.75808 0.16386 0.32108
 H80 H 0.74232 0.16321 0.17820
 H81 H 0.78891 0.12109 0.13481
 H82 H 0.86804 0.19093 0.22139
 H83 H 0.82148 0.23277 0.26537
 H84 H 0.66136 0.37834 0.26164
 C85 C 0.75064 0.77595 0.75052
 C86 C 0.75053 0.73072 0.75049
 C87 C 0.72220 0.70471 0.72510
 C88 C 0.77873 0.70480 0.77583
 C89 C 0.77696 0.80182 0.78023
 C90 C 0.72445 0.80172 0.72085
 C91 C 0.68649 0.71139 0.73731
 C92 C 0.66015 0.68684 0.71279
 C93 C 0.66927 0.65511 0.67625
 C94 C 0.70482 0.64781 0.66458
 C95 C 0.73116 0.67235 0.68900
 C96 C 0.76962 0.67263 0.81188
 C97 C 0.79584 0.64816 0.83624
 C98 C 0.83142 0.65534 0.82455
 C99 C 0.84069 0.68687 0.78806
 C100 C 0.81446 0.71136 0.76361
 C101 C 0.79807 0.83361 0.75594
 C102 C 0.82377 0.85707 0.78307
 C103 C 0.82845 0.84925 0.83490
 C104 C 0.80690 0.81831 0.85962
 C105 C 0.78116 0.79488 0.83249
 C106 C 0.72021 0.79452 0.66857
 C107 C 0.69459 0.81787 0.64149
 C108 C 0.67323 0.84896 0.66625
 C109 C 0.67794 0.85704 0.71805
 C110 C 0.70351 0.83368 0.74518
 H111 H 0.67909 0.73559 0.76575
 H112 H 0.63272 0.69261 0.72226
 H113 H 0.71217 0.62328 0.63645
 H114 H 0.75854 0.66653 0.67932
 H115 H 0.74221 0.66690 0.82157
 H116 H 0.78838 0.62377 0.86433
 H117 H 0.82198 0.73540 0.73520
 H118 H 0.79508 0.83960 0.71575
 H119 H 0.84016 0.88099 0.76346
 H120 H 0.81008 0.81208 0.89975
 H121 H 0.76469 0.77110 0.85210
 H122 H 0.73655 0.77060 0.64892
 H123 H 0.69131 0.81152 0.60137
 H124 H 0.66163 0.88111 0.73756
 H125 H 0.70652 0.83988 0.78537
 H126 H 0.86814 0.69254 0.77857
 C127 C 0.24941 0.72724 0.75113
 C128 C 0.24939 0.77247 0.75106
 C129 C 0.27587 0.79833 0.72194
 C130 C 0.22290 0.79839 0.78010
 C131 C 0.22136 0.70129 0.77693
 C132 C 0.27747 0.70130 0.72537
 C133 C 0.29683 0.83008 0.74686
 C134 C 0.32254 0.85377 0.72028
 C135 C 0.32736 0.84621 0.66842
 C136 C 0.30604 0.81527 0.64309
 C137 C 0.28028 0.79158 0.66964
 C138 C 0.21846 0.79204 0.83240
 C139 C 0.19274 0.81584 0.85891
 C140 C 0.17146 0.84655 0.83350
 C141 C 0.17632 0.85368 0.78159
 C142 C 0.20199 0.82987 0.75509
 C143 C 0.18556 0.70748 0.76497
 C144 C 0.15946 0.68327 0.79020
 C145 C 0.16893 0.65232 0.82727
 C146 C 0.20462 0.64545 0.83862
 C147 C 0.23069 0.66967 0.81345
 C148 C 0.26817 0.66940 0.68885
 C149 C 0.29427 0.64527 0.66363
 C150 C 0.32992 0.65253 0.67495
 C151 C 0.33938 0.68372 0.71201
 C152 C 0.31328 0.70785 0.73731
 H153 H 0.29369 0.83593 0.78709
 H154 H 0.33881 0.87773 0.74022
 H155 H 0.30942 0.80934 0.60291
 H156 H 0.26393 0.76783 0.64955
 H157 H 0.23478 0.76852 0.85255
 H158 H 0.18942 0.81014 0.89912
 H159 H 0.20517 0.83541 0.71485
 H160 H 0.17788 0.73111 0.73623
 H161 H 0.13197 0.68877 0.78083
 H162 H 0.21235 0.62154 0.86708
 H163 H 0.25816 0.66425 0.82295
 H164 H 0.24071 0.66369 0.67935
 H165 H 0.28666 0.62113 0.63514
 H166 H 0.36689 0.68943 0.72124
 H167 H 0.32095 0.73171 0.76605
 H168 H 0.16014 0.87742 0.76145
 O169 O 1.03563 -0.05798 -0.00205
 O170 O 0.96791 0.00469 0.06775
 O171 O 0.96672 -0.05752 -0.00093
 O172 O 1.03661 0.00478 0.06581
 O173 O 1.03609 0.05540 0.00542
 O174 O 0.96630 -0.00682 -0.06123
 O175 O 0.96740 0.05537 0.00743
 O176 O 1.03519 -0.00734 -0.06242
 Cu177 Cu 1.00175 -0.03165 0.03869
 Cu178 Cu 1.00118 0.02922 -0.03383
 C179 C 1.04697 -0.04315 -0.04388
 C180 C 0.95625 0.04062 0.04943
 C181 C 0.95465 -0.04258 -0.04231
 C182 C 1.04814 0.04060 0.04684
 O183 O 0.53446 0.55554 0.50905
 O184 O 0.46674 0.49397 0.43743
 O185 O 0.46586 0.55499 0.50765
 O186 O 0.53552 0.49412 0.43957
 O187 O 0.53488 0.44238 0.49872
 O188 O 0.46526 0.50321 0.56675
 O189 O 0.46608 0.44218 0.49650
 O190 O 0.53388 0.50382 0.56823
 Cu191 Cu 0.50068 0.52984 0.46742
 Cu192 Cu 0.49993 0.46764 0.53847
 C193 C 0.54556 0.54015 0.55073
 C194 C 0.45499 0.45768 0.45484
 C195 C 0.45393 0.53947 0.54883
 C196 C 0.54700 0.45802 0.45773
 O197 O 0.03485 0.50371 -0.06709
 O198 O -0.03494 0.44271 0.00043
 O199 O -0.03377 0.50421 -0.06853
 O200 O 0.03385 0.44257 0.00256
 O201 O 0.03338 0.49429 0.06213
 O202 O -0.03416 0.55587 -0.00886
 O203 O -0.03539 0.49439 0.06006
 O204 O 0.03443 0.55542 -0.00749
 Cu205 Cu 0.00007 0.46804 -0.03913
 Cu206 Cu -0.00045 0.53017 0.03251
 C207 C 0.04629 0.53997 -0.04883
 C208 C -0.04699 0.45829 0.04158
 C209 C -0.04532 0.54050 -0.05069
 C210 C 0.04500 0.45802 0.04437
 O211 O 0.46469 1.05520 0.49471
 O212 O 0.53442 0.99356 0.56120
 O213 O 0.53337 1.05533 0.49251
 O214 O 0.46553 0.99294 0.56260
 O215 O 0.46487 0.94190 0.50227
 O216 O 0.53265 1.00425 0.43222
 O217 O 0.53377 0.94247 0.50092
 O218 O 0.46395 1.00417 0.43436
 Cu219 Cu 0.49960 1.02937 0.53388
 Cu220 Cu 0.49876 0.96801 0.46140
 C221 C 0.45254 1.04009 0.45334
 C222 C 0.54594 0.95769 0.54227
 C223 C 0.54442 1.04034 0.45048
 C224 C 0.45363 0.95699 0.54412
 C225 C 1.14729 0.13012 0.14225
 C226 C 1.12472 0.10952 0.12006
 C227 C 1.09814 0.08542 0.09446
 C228 C 1.07533 0.06490 0.07273
 C229 C 0.64226 0.63022 0.65038
 C230 C 0.61988 0.60935 0.62818
 C231 C 0.59390 0.58501 0.60165
 C232 C 0.57181 0.56439 0.57859
 C233 C -0.14628 0.37104 0.13842
 C234 C -0.12371 0.39112 0.11588
 C235 C -0.09709 0.41458 0.08984
 C236 C -0.07425 0.43457 0.06777
 C237 C 0.35440 0.86997 0.64143
 C238 C 0.37719 0.88984 0.61910
 C239 C 0.40393 0.91314 0.59310
 C240 C 0.42671 0.93310 0.57085
 C241 C -0.14168 0.63049 -0.14968
 C242 C -0.11939 0.60966 -0.12759
 C243 C -0.09351 0.58535 -0.10121
 C244 C -0.07149 0.56474 -0.07832
 C245 C 0.35338 1.12865 0.35830
 C246 C 0.37594 1.10827 0.38038
 C247 C 0.40254 1.08443 0.40588
 C248 C 0.42535 1.06413 0.42754
 C249 C 1.14593 -0.13081 -0.14099
 C250 C 1.12321 -0.11078 -0.11869
 C251 C 1.09654 -0.08730 -0.09274
 C252 C 1.07383 -0.06719 -0.07055
 C253 C 0.64619 0.37093 0.36052
 C254 C 0.62362 0.39100 0.38308
 C255 C 0.59702 0.41442 0.40920
 C256 C 0.57421 0.43436 0.43137
 C257 C 0.85415 -0.12867 -0.13904
 C258 C 0.87709 -0.10916 -0.11636
 C259 C 0.90410 -0.08623 -0.09023
 C260 C 0.92720 -0.06646 -0.06821
 C261 C 0.35782 0.37049 0.35260
 C262 C 0.38029 0.39039 0.37579
 C263 C 0.40641 0.41372 0.40326
 C264 C 0.42862 0.43373 0.42683
 C265 C 0.14357 0.62911 -0.14757
 C266 C 0.12128 0.60857 -0.12500
 C267 C 0.09525 0.58456 -0.09839
 C268 C 0.07298 0.56413 -0.07568
 C269 C 0.64166 1.12887 0.35090
 C270 C 0.61916 1.10865 0.37343
 C271 C 0.59300 1.08494 0.40014
 C272 C 0.57078 1.06462 0.42310
 C273 C 0.14169 0.37057 0.14587
 C274 C 0.11935 0.39054 0.12284
 C275 C 0.09337 0.41396 0.09556
 C276 C 0.07127 0.43403 0.07216
 C277 C 0.64619 0.87218 0.63877
 C278 C 0.62332 0.89159 0.61615
 C279 C 0.59638 0.91438 0.59008
 C280 C 0.57334 0.93401 0.56812
 C281 C 0.85885 0.12923 0.14859
 C282 C 0.88140 0.10904 0.12615
 C283 C 0.90762 0.08533 0.09955
 C284 C 0.92987 0.06498 0.07668
 C285 C 0.35672 0.62815 0.64824
 C286 C 0.37901 0.60773 0.62552
 C287 C 0.40502 0.58386 0.59873
 C288 C 0.42728 0.56353 0.57586
   
