data_POSCAR
  _audit_creation_date              2014-09-24
  _audit_creation_method            'ToBaCCo'
  _symmetry_space_group_name_H-M    'P1'
  _symmetry_Int_Tables_number       1
  _symmetry_cell_setting            triclinic
  loop_
  _symmetry_equiv_pos_as_xyz
 x,y,z
_cell_length_a 29.2754
_cell_length_b 29.3340
_cell_length_c 29.2314
_cell_angle_alpha 89.963500
_cell_angle_beta 89.980000
_cell_angle_gamma 90.026900
loop_
  _atom_site_label
  _atom_site_type_symbol
  _atom_site_fract_x
  _atom_site_fract_y
  _atom_site_fract_z
N1 N 0.54880 0.09239 0.02167
 N2 N 0.58198 0.11860 0.03724
 N3 N 0.45273 0.09194 -0.02296
 N4 N 0.41947 0.11777 -0.03900
 N5 N 0.45273 0.09222 0.02194
 N6 N 0.41951 0.11825 0.03768
 N7 N 0.54880 0.09192 -0.02324
 N8 N 0.58196 0.11782 -0.03943
 C9 C 0.60253 0.13410 -0.00128
 C10 C 0.39889 0.13383 -0.00076
 N11 N 0.45244 -0.02284 -0.09148
 N12 N 0.41908 -0.03884 -0.11727
 N13 N 0.54863 0.02178 -0.09236
 N14 N 0.58138 0.03726 -0.11933
 N15 N 0.54852 -0.02291 -0.09161
 N16 N 0.58321 -0.03948 -0.11961
 N17 N 0.45256 0.02190 -0.09194
 N18 N 0.41929 0.03757 -0.11801
 Mn19 Mn 0.50070 0.05726 -0.05800
 C20 C 0.39854 -0.00071 -0.13346
 C21 C 0.60250 -0.00061 -0.13580
 N22 N 0.45295 0.02332 0.09236
 N23 N 0.41965 0.03921 0.11830
 N24 N 0.54918 -0.02112 0.09258
 N25 N 0.58192 -0.03657 0.11953
 N26 N 0.54906 0.02359 0.09185
 N27 N 0.58375 0.04016 0.11988
 N28 N 0.45314 -0.02143 0.09278
 N29 N 0.41998 -0.03720 0.11897
 Mn30 Mn 0.50086 0.05825 0.05734
 C31 C 0.39923 0.00101 0.13455
 C32 C 0.60303 0.00128 0.13602
 N33 N 0.54876 -0.09166 -0.02146
 N34 N 0.58196 -0.11765 -0.03731
 N35 N 0.45296 -0.09146 0.02380
 N36 N 0.41984 -0.11740 0.04003
 N37 N 0.45271 -0.09170 -0.02110
 N38 N 0.41945 -0.11780 -0.03665
 N39 N 0.54905 -0.09123 0.02344
 N40 N 0.58245 -0.11695 0.03936
 Mn41 Mn 0.50057 -0.05764 -0.05679
 Mn42 Mn 0.50111 -0.05668 0.05852
 Cl43 Cl 0.50079 0.00030 0.00027
 C44 C 0.60284 -0.13308 0.00103
 C45 C 0.39908 -0.13348 0.00188
 N46 N 0.09246 0.45170 0.02198
 N47 N 0.11834 0.41834 0.03771
 N48 N 0.09325 0.54803 -0.02197
 N49 N 0.11941 0.58133 -0.03744
 N50 N 0.09297 0.54760 0.02296
 N51 N 0.11895 0.58057 0.03935
 N52 N 0.09267 0.45213 -0.02295
 N53 N 0.11870 0.41909 -0.03907
 C54 C 0.13411 0.39827 -0.00080
 C55 C 0.13487 0.60132 0.00124
 N56 N -0.02075 0.54946 -0.09239
 N57 N -0.03621 0.58216 -0.11933
 N58 N 0.02340 0.45330 -0.09300
 N59 N 0.03915 0.42022 -0.11921
 N60 N -0.02144 0.45362 -0.09324
 N61 N -0.03741 0.42077 -0.11960
 N62 N 0.02405 0.54920 -0.09184
 N63 N 0.04067 0.58374 -0.12001
 Mn64 Mn 0.05870 0.50065 -0.05782
 C65 C 0.00172 0.60311 -0.13601
 C66 C 0.00079 0.40007 -0.13545
 N67 N 0.02295 0.54721 0.09227
 N68 N 0.03879 0.58004 0.11876
 N69 N -0.02237 0.45155 0.09106
 N70 N -0.03850 0.41838 0.11699
 N71 N 0.02247 0.45137 0.09127
 N72 N 0.03806 0.41809 0.11732
 N73 N -0.02189 0.54740 0.09201
 N74 N -0.03777 0.58034 0.11829
 Mn75 Mn 0.05808 0.49947 0.05749
 C76 C 0.00049 0.60058 0.13462
 C77 C -0.00037 0.39762 0.13299
 N78 N -0.09143 0.45323 -0.02395
 N79 N -0.11748 0.42031 -0.04034
 N80 N -0.09107 0.54857 0.02199
 N81 N -0.11707 0.58161 0.03815
 N82 N -0.09078 0.54915 -0.02295
 N83 N -0.11658 0.58259 -0.03863
 N84 N -0.09160 0.45268 0.02098
 N85 N -0.11778 0.41940 0.03644
 Mn86 Mn -0.05647 0.50138 -0.05849
 Mn87 Mn -0.05710 0.50003 0.05687
 Cl88 Cl 0.00081 0.50037 -0.00049
 C89 C -0.13335 0.39950 -0.00223
 C90 C -0.13238 0.60257 -0.00008
 N91 N 0.02157 0.09114 0.45173
 N92 N 0.03755 0.11716 0.41850
 N93 N -0.02344 0.09170 0.54786
 N94 N -0.03933 0.11813 0.58076
 N95 N 0.02143 0.09159 0.54795
 N96 N 0.03734 0.11794 0.58090
 N97 N -0.02330 0.09113 0.45164
 N98 N -0.03912 0.11714 0.41837
 C99 C -0.00075 0.13276 0.39795
 C100 C -0.00098 0.13389 0.60111
 N101 N -0.09324 -0.02244 0.54853
 N102 N -0.11952 -0.03801 0.58177
 N103 N -0.09302 0.02173 0.45197
 N104 N -0.11920 0.03739 0.41871
 N105 N -0.09309 -0.02305 0.45230
 N106 N -0.11930 -0.03913 0.41928
 N107 N -0.09314 0.02234 0.54819
 N108 N -0.11932 0.03851 0.58117
 Mn109 Mn -0.05858 0.05708 0.49990
 C110 C -0.13519 0.00045 0.60187
 C111 C -0.13498 -0.00100 0.39858
 N112 N 0.09094 0.02204 0.54847
 N113 N 0.11713 0.03799 0.58156
 N114 N 0.09103 -0.02314 0.45243
 N115 N 0.11731 -0.03912 0.41940
 N116 N 0.09106 0.02164 0.45224
 N117 N 0.11734 0.03740 0.41910
 N118 N 0.09086 -0.02274 0.54867
 N119 N 0.11697 -0.03853 0.58190
 Mn120 Mn 0.05661 0.05696 0.50010
 C121 C 0.13276 -0.00022 0.60216
 C122 C 0.13311 -0.00091 0.39887
 N123 N -0.02359 -0.09257 0.45278
 N124 N -0.03946 -0.11885 0.41975
 N125 N 0.02115 -0.09213 0.54900
 N126 N 0.03695 -0.11841 0.58209
 N127 N -0.02373 -0.09203 0.54900
 N128 N -0.03972 -0.11824 0.58207
 N129 N 0.02128 -0.09255 0.45279
 N130 N 0.03721 -0.11882 0.41979
 Mn131 Mn -0.05877 -0.05788 0.50066
 Mn132 Mn 0.05644 -0.05800 0.50072
 Cl133 Cl -0.00108 -0.00046 0.50035
 C134 C -0.00110 -0.13463 0.39944
 C135 C -0.00145 -0.13407 0.60248
 C136 C -0.30544 0.21531 0.03923
 C137 C -0.28800 0.23133 -0.00238
 C138 C -0.30549 0.21454 -0.04363
 C139 C -0.34069 0.18230 -0.04331
 C140 C -0.35888 0.16657 -0.00166
 C141 C -0.34065 0.18308 0.03962
 C142 C -0.25331 0.26612 -0.00272
 C143 C -0.22488 0.29587 -0.00288
 C144 C -0.19231 0.33136 -0.00288
 C145 C -0.16509 0.36219 -0.00270
 H146 H -0.29221 0.22813 0.07135
 H147 H -0.29229 0.22676 -0.07603
 H148 H -0.35404 0.17013 -0.07562
 H149 H -0.35395 0.17152 0.07220
 C150 C 0.30722 0.78576 0.04391
 C151 C 0.28947 0.76948 0.00256
 C152 C 0.30669 0.78595 -0.03895
 C153 C 0.34193 0.81812 -0.03918
 C154 C 0.36044 0.83412 0.00219
 C155 C 0.34248 0.81794 0.04376
 C156 C 0.25476 0.73472 0.00265
 C157 C 0.22633 0.70498 0.00251
 C158 C 0.19377 0.66949 0.00217
 C159 C 0.16657 0.63865 0.00178
 H160 H 0.29420 0.77317 0.07624
 H161 H 0.29325 0.77353 -0.07115
 H162 H 0.35506 0.83003 -0.07170
 H163 H 0.35605 0.82972 0.07612
 C164 C 0.30655 0.21404 -0.04253
 C165 C 0.28901 0.23050 -0.00116
 C166 C 0.30655 0.21433 0.04033
 C167 C 0.34189 0.18228 0.04049
 C168 C 0.36017 0.16611 -0.00091
 C169 C 0.34189 0.18199 -0.04245
 C170 C 0.25420 0.26513 -0.00125
 C171 C 0.22570 0.29478 -0.00123
 C172 C 0.19306 0.33018 -0.00114
 C173 C 0.16582 0.36097 -0.00100
 H174 H 0.29328 0.22639 -0.07484
 H175 H 0.29329 0.22689 0.07255
 H176 H 0.35526 0.17061 0.07298
 H177 H 0.35528 0.17008 -0.07484
 C178 C -0.30493 0.78653 -0.04047
 C179 C -0.28716 0.77042 0.00094
 C180 C -0.30448 0.78690 0.04239
 C181 C -0.33986 0.81891 0.04248
 C182 C -0.35838 0.83472 0.00103
 C183 C -0.34031 0.81853 -0.04046
 C184 C -0.25234 0.73580 0.00086
 C185 C -0.22385 0.70615 0.00070
 C186 C -0.19124 0.67073 0.00044
 C187 C -0.16403 0.63991 0.00020
 H188 H -0.29184 0.77394 -0.07275
 H189 H -0.29103 0.77460 0.07464
 H190 H -0.35309 0.83084 0.07493
 H191 H -0.35388 0.83016 -0.07289
 C192 C 0.04147 -0.30787 0.21614
 C193 C -0.00000 -0.29021 0.23208
 C194 C -0.04127 -0.30751 0.21526
 C195 C -0.04112 -0.34270 0.18303
 C196 C 0.00037 -0.36104 0.16730
 C197 C 0.04169 -0.34306 0.18390
 C198 C -0.00025 -0.25539 0.26674
 C199 C -0.00052 -0.22682 0.29635
 C200 C -0.00082 -0.19404 0.33165
 C201 C -0.00102 -0.16661 0.36232
 H202 H 0.07360 -0.29478 0.22900
 H203 H -0.07356 -0.29415 0.22743
 H204 H -0.07345 -0.35586 0.17081
 H205 H 0.07415 -0.35652 0.17235
 C206 C 0.04161 0.30767 0.78392
 C207 C 0.00012 0.29039 0.76762
 C208 C -0.04113 0.30824 0.78388
 C209 C -0.04093 0.34359 0.81593
 C210 C 0.00059 0.36155 0.83203
 C211 C 0.04188 0.34303 0.81599
 C212 C -0.00015 0.25537 0.73316
 C213 C -0.00042 0.22662 0.70372
 C214 C -0.00072 0.19364 0.66860
 C215 C -0.00091 0.16605 0.63808
 H216 H 0.07373 0.29416 0.77149
 H217 H -0.07343 0.29517 0.77142
 H218 H -0.07325 0.35717 0.82773
 H219 H 0.07436 0.35618 0.82782
 C220 C -0.04217 0.30558 0.21368
 C221 C -0.00086 0.28785 0.22995
 C222 C 0.04057 0.30519 0.21352
 C223 C 0.04074 0.34051 0.18139
 C224 C -0.00060 0.35896 0.16539
 C225 C -0.04208 0.34091 0.18154
 C226 C -0.00092 0.25303 0.26464
 C227 C -0.00088 0.22450 0.29433
 C228 C -0.00077 0.19182 0.32978
 C229 C -0.00071 0.16453 0.36060
 H230 H -0.07443 0.29247 0.22625
 H231 H 0.07274 0.29178 0.22595
 H232 H 0.07319 0.35372 0.16952
 H233 H -0.07441 0.35445 0.16978
 C234 C -0.04163 -0.30872 0.78589
 C235 C -0.00068 -0.29043 0.76937
 C236 C 0.04101 -0.30721 0.78550
 C237 C 0.04189 -0.34252 0.81761
 C238 C 0.00087 -0.36182 0.83410
 C239 C -0.04096 -0.34405 0.81803
 C240 C -0.00133 -0.25543 0.73484
 C241 C -0.00159 -0.22670 0.70534
 C242 C -0.00164 -0.19373 0.67015
 C243 C -0.00158 -0.16617 0.63955
 H244 H -0.07411 -0.29598 0.77358
 H245 H 0.07292 -0.29330 0.77289
 H246 H 0.07485 -0.35487 0.82902
 H247 H -0.07333 -0.35764 0.82980
 C248 C 0.30602 0.04049 0.78611
 C249 C 0.28837 -0.00078 0.76987
 C250 C 0.30589 -0.04208 0.78626
 C251 C 0.34134 -0.04212 0.81832
 C252 C 0.35972 -0.00080 0.83426
 C253 C 0.34146 0.04052 0.81816
 C254 C 0.25344 -0.00071 0.73523
 C255 C 0.22482 -0.00055 0.70559
 C256 C 0.19204 -0.00033 0.67020
 C257 C 0.16466 -0.00020 0.63943
 H258 H 0.29277 0.07265 0.77360
 H259 H 0.29253 -0.07423 0.77385
 H260 H 0.35472 -0.07445 0.83018
 H261 H 0.35491 0.07286 0.82989
 C262 C -0.30716 0.04059 0.21438
 C263 C -0.29053 -0.00099 0.23079
 C264 C -0.30888 -0.04188 0.21443
 C265 C -0.34417 -0.04127 0.18220
 C266 C -0.36185 0.00045 0.16590
 C267 C -0.34243 0.04141 0.18218
 C268 C -0.25567 -0.00153 0.26551
 C269 C -0.22709 -0.00164 0.29518
 C270 C -0.19432 -0.00150 0.33058
 C271 C -0.16691 -0.00127 0.36134
 H272 H -0.29320 0.07246 0.22685
 H273 H -0.29624 -0.07428 0.22696
 H274 H -0.35783 -0.07359 0.17057
 H275 H -0.35468 0.07429 0.17056
 C276 C 0.30685 -0.04068 0.21499
 C277 C 0.28914 0.00048 0.23141
 C278 C 0.30661 0.04189 0.21518
 C279 C 0.34205 0.04214 0.18307
 C280 C 0.36047 0.00092 0.16694
 C281 C 0.34227 -0.04050 0.18291
 C282 C 0.25416 0.00017 0.26603
 C283 C 0.22549 -0.00021 0.29564
 C284 C 0.19262 -0.00066 0.33097
 C285 C 0.16514 -0.00092 0.36168
 H286 H 0.29364 -0.07292 0.22737
 H287 H 0.29321 0.07395 0.22772
 H288 H 0.35538 0.07454 0.17132
 H289 H 0.35575 -0.07277 0.17103
 C290 C -0.30763 -0.04010 0.78604
 C291 C -0.29094 0.00142 0.76952
 C292 C -0.30927 0.04237 0.78574
 C293 C -0.34462 0.04186 0.81795
 C294 C -0.36235 0.00018 0.83435
 C295 C -0.34295 -0.04082 0.81820
 C296 C -0.25603 0.00182 0.73484
 C297 C -0.22741 0.00172 0.70520
 C298 C -0.19459 0.00130 0.66982
 C299 C -0.16716 0.00087 0.63909
 H300 H -0.29368 -0.07200 0.77368
 H301 H -0.29658 0.07473 0.77313
 H302 H -0.35827 0.07421 0.82948
 H303 H -0.35524 -0.07367 0.82990
   
