data_POSCAR
  _audit_creation_date              2014-09-24
  _audit_creation_method            'ToBaCCo'
  _symmetry_space_group_name_H-M    'P1'
  _symmetry_Int_Tables_number       1
  _symmetry_cell_setting            triclinic
  loop_
  _symmetry_equiv_pos_as_xyz
 x,y,z
_cell_length_a 29.9657
_cell_length_b 30.0128
_cell_length_c 29.9936
_cell_angle_alpha 89.975100
_cell_angle_beta 89.914500
_cell_angle_gamma 90.026300
loop_
  _atom_site_label
  _atom_site_type_symbol
  _atom_site_fract_x
  _atom_site_fract_y
  _atom_site_fract_z
C1 C 0.17992 0.53289 1.05494
 H2 H 0.17810 0.55796 1.02907
 C3 C 0.14927 0.53334 1.08998
 H4 H 0.12381 0.55895 1.09088
 C5 C 0.21415 0.46795 1.08400
 H6 H 0.23884 0.44193 1.08100
 C7 C 0.18415 0.46715 1.11973
 H8 H 0.18651 0.44039 1.14373
 N9 N 0.21149 0.50049 1.05251
 C10 C 0.31801 0.55297 0.96858
 H11 H 0.31990 0.52680 0.94387
 C12 C 0.34861 0.58799 0.96763
 H13 H 0.37420 0.58877 0.94211
 C14 C 0.28354 0.58294 1.03315
 H15 H 0.25876 0.58033 1.05920
 C16 C 0.31350 0.61866 1.03336
 H17 H 0.31143 0.64335 1.05955
 Zn18 Zn 0.24892 0.50018 1.00162
 N19 N 0.28633 0.55101 1.00103
 C20 C 0.21461 0.53163 0.91874
 N21 N 0.21161 0.49960 0.95077
 C22 C 0.17998 0.46718 0.94875
 C23 C 0.14966 0.46614 0.91353
 C24 C 0.18495 0.53174 0.88282
 C25 C 0.31798 0.44731 1.03441
 C26 C 0.34856 0.41229 1.03511
 C27 C 0.31347 0.38193 0.96932
 C28 C 0.28355 0.41764 0.96977
 N29 N 0.28634 0.44941 1.00203
 H30 H 0.23935 0.55765 0.92138
 H31 H 0.17794 0.44252 0.97500
 H32 H 0.12409 0.44063 0.91268
 H33 H 0.18719 0.55784 0.85803
 H34 H 0.31987 0.47337 1.05925
 H35 H 0.37415 0.41139 1.06056
 H36 H 0.31140 0.35738 0.94301
 H37 H 0.25881 0.42036 0.94378
 C38 C 0.34668 0.62108 1.00049
 C39 C 0.15086 0.49997 1.12282
 C40 C 0.34662 0.37937 1.00209
 C41 C 0.15185 0.49886 0.88030
 C42 C 0.81877 0.53363 -0.05214
 H43 H 0.82084 0.55829 -0.02593
 C44 C 0.84926 0.53446 -0.08731
 H45 H 0.87496 0.55983 -0.08818
 C46 C 0.78400 0.46927 -0.08203
 H47 H 0.75917 0.44332 -0.07932
 C48 C 0.81383 0.46894 -0.11789
 H49 H 0.81161 0.44278 -0.14258
 N50 N 0.78701 0.50133 -0.05006
 C51 C 0.68112 0.55354 0.03461
 H52 H 0.67927 0.52735 0.05933
 C53 C 0.65056 0.58857 0.03563
 H54 H 0.62503 0.58935 0.06123
 C55 C 0.71536 0.58350 -0.03013
 H56 H 0.74000 0.58087 -0.05629
 C57 C 0.68544 0.61921 -0.03027
 H58 H 0.68743 0.64387 -0.05651
 Zn59 Zn 0.74983 0.50062 0.00097
 N60 N 0.71264 0.55155 0.00201
 C61 C 0.78493 0.53144 0.08371
 N62 N 0.78743 0.49950 0.05158
 C63 C 0.81892 0.46693 0.05321
 C64 C 0.84963 0.46569 0.08808
 C65 C 0.81502 0.53136 0.11928
 C66 C 0.68050 0.44833 -0.03208
 C67 C 0.64991 0.41332 -0.03318
 C68 C 0.68515 0.38203 0.03211
 C69 C 0.71509 0.41776 0.03206
 N70 N 0.71225 0.44997 0.00022
 H71 H 0.76030 0.55758 0.08136
 H72 H 0.82057 0.44236 0.02688
 H73 H 0.87508 0.44008 0.08861
 H74 H 0.81317 0.55742 0.14412
 H75 H 0.67858 0.47473 -0.05658
 H76 H 0.62427 0.41276 -0.05859
 H77 H 0.68729 0.35709 0.05807
 H78 H 0.73993 0.42011 0.05799
 C79 C 0.65237 0.62162 0.00270
 C80 C 0.84712 0.50163 -0.12041
 C81 C 0.65193 0.37992 -0.00063
 C82 C 0.84801 0.49837 0.12136
 C83 C -0.03297 0.31945 0.44477
 H84 H -0.05851 0.32074 0.47027
 C85 C -0.03353 0.35002 0.40974
 H86 H -0.05969 0.37491 0.40849
 C87 C 0.03323 0.28666 0.41664
 H88 H 0.05982 0.26265 0.42004
 C89 C 0.03392 0.31657 0.38092
 H90 H 0.06116 0.31480 0.35732
 N91 N 0.00009 0.28861 0.44765
 C92 C -0.05362 0.18319 0.53211
 H93 H -0.02824 0.18222 0.55771
 C94 C -0.08872 0.15267 0.53302
 H95 H -0.09038 0.12808 0.55942
 C96 C -0.08148 0.21524 0.46546
 H97 H -0.07802 0.23907 0.43869
 C98 C -0.11709 0.18512 0.46501
 H99 H -0.14087 0.18617 0.43794
 Zn100 Zn 0.00017 0.25118 0.49849
 N101 N -0.05064 0.21370 0.49871
 C102 C -0.03242 0.28609 0.58082
 N103 N 0.00034 0.28845 0.54939
 C104 C 0.03334 0.31943 0.55204
 C105 C 0.03427 0.34969 0.58731
 C106 C -0.03264 0.31568 0.61680
 C107 C 0.05425 0.18338 0.46492
 C108 C 0.08938 0.15293 0.46420
 C109 C 0.11731 0.18535 0.53239
 C110 C 0.08168 0.21539 0.53175
 N111 N 0.05102 0.21382 0.49833
 H112 H -0.05895 0.26196 0.57765
 H113 H 0.05858 0.32100 0.52625
 H114 H 0.06026 0.37475 0.58865
 H115 H -0.05931 0.31394 0.64109
 H116 H 0.02901 0.18240 0.43917
 H117 H 0.09122 0.12837 0.43781
 H118 H 0.14092 0.18641 0.55962
 H119 H 0.07802 0.23915 0.55853
 C120 C -0.12060 0.15320 0.49894
 C121 C 0.00037 0.34908 0.37733
 C122 C 0.12105 0.15347 0.49849
 C123 C 0.00085 0.34809 0.61997
 C124 C 0.96678 0.68128 0.55312
 H125 H 0.94165 0.67976 0.52730
 C126 C 0.96579 0.65086 0.58827
 H127 H 0.93986 0.62574 0.58950
 C128 C 1.03239 0.71460 0.58204
 H129 H 1.05892 0.73876 0.57894
 C130 C 1.03256 0.68484 0.61790
 H131 H 1.05917 0.68649 0.64218
 N132 N 0.99976 0.71231 0.55059
 C133 C 0.94641 0.81714 0.46555
 H134 H 0.97185 0.81807 0.43993
 C135 C 0.91130 0.84761 0.46460
 H136 H 0.90968 0.87212 0.43813
 C137 C 0.91847 0.78528 0.53236
 H138 H 0.92192 0.76157 0.55923
 C139 C 0.88285 0.81533 0.53276
 H140 H 0.85904 0.81433 0.55988
 Zn141 Zn 1.00025 0.74949 0.49964
 N142 N 0.94938 0.78677 0.49907
 C143 C 0.96823 0.71385 0.41753
 N144 N 1.00090 0.71193 0.44897
 C145 C 1.03400 0.68104 0.44665
 C146 C 1.03507 0.65037 0.41174
 C147 C 0.96814 0.68382 0.38192
 C148 C 1.05379 0.81752 0.53332
 C149 C 1.08888 0.84804 0.53424
 C150 C 1.11759 0.81550 0.46636
 C151 C 1.08200 0.78538 0.46681
 N152 N 1.05098 0.78698 0.49998
 H153 H 0.94163 0.73791 0.42047
 H154 H 1.05915 0.67983 0.47246
 H155 H 1.06112 0.62538 0.41067
 H156 H 0.94152 0.68520 0.35765
 H157 H 1.02828 0.81852 0.55886
 H158 H 1.09041 0.87267 0.56058
 H159 H 1.14150 0.81440 0.43933
 H160 H 1.07867 0.76152 0.44008
 C161 C 0.87939 0.84715 0.49875
 C162 C 0.99914 0.65234 0.62090
 C163 C 1.12092 0.84747 0.50021
 C164 C 1.00169 0.65145 0.37913
 C165 C 0.44628 -0.03463 0.31682
 H166 H 0.47163 -0.06026 0.31795
 C167 C 0.41115 -0.03525 0.34737
 H168 H 0.40943 -0.06145 0.37216
 C169 C 0.41854 0.03184 0.28432
 H170 H 0.42207 0.05846 0.26034
 C171 C 0.38289 0.03255 0.31441
 H172 H 0.35915 0.05966 0.31317
 N173 N 0.44935 -0.00143 0.28610
 C174 C 0.53333 -0.05500 0.18032
 H175 H 0.55879 -0.02947 0.17887
 C176 C 0.53389 -0.09001 0.14976
 H177 H 0.55996 -0.09122 0.12472
 C178 C 0.46731 -0.08322 0.21351
 H179 H 0.44080 -0.07987 0.23768
 C180 C 0.46662 -0.11893 0.18362
 H181 H 0.43945 -0.14255 0.18555
 Zn182 Zn 0.50018 -0.00132 0.24864
 N183 N 0.50036 -0.05218 0.21134
 C184 C 0.58206 -0.03395 0.28431
 N185 N 0.55098 -0.00092 0.28600
 C186 C 0.55377 0.03242 0.31654
 C187 C 0.58890 0.03350 0.34696
 C188 C 0.61772 -0.03422 0.31431
 C189 C 0.46694 0.05190 0.18018
 C190 C 0.46588 0.08713 0.14986
 C191 C 0.53252 0.11695 0.18392
 C192 C 0.53243 0.08101 0.21357
 N193 N 0.49987 0.04945 0.21122
 H194 H 0.57876 -0.06068 0.26045
 H195 H 0.52821 0.05785 0.31761
 H196 H 0.59040 0.05984 0.37159
 H197 H 0.64170 -0.06113 0.31315
 H198 H 0.44186 0.02601 0.17864
 H199 H 0.43995 0.08834 0.12477
 H200 H 0.55903 0.14137 0.18566
 H201 H 0.55891 0.07799 0.23775
 C202 C 0.50006 -0.12244 0.15091
 C203 C 0.37931 -0.00112 0.34658
 C204 C 0.49909 0.11994 0.15147
 C205 C 0.62103 -0.00035 0.34627
 C206 C 0.55410 -0.03388 0.68228
 H207 H 0.52869 -0.05948 0.68130
 C208 C 0.58924 -0.03473 0.65175
 H209 H 0.59092 -0.06109 0.62715
 C210 C 0.58195 0.03276 0.71431
 H211 H 0.57845 0.05954 0.73809
 C212 C 0.61761 0.03325 0.68421
 H213 H 0.64140 0.06035 0.68526
 N214 N 0.55106 -0.00049 0.71275
 C215 C 0.46652 -0.05290 0.81883
 H216 H 0.44138 -0.02707 0.82013
 C217 C 0.46549 -0.08779 0.84955
 H218 H 0.43949 -0.08881 0.87467
 C219 C 0.53218 -0.08212 0.78575
 H220 H 0.55873 -0.07924 0.76154
 C221 C 0.53232 -0.11771 0.81583
 H222 H 0.55891 -0.14202 0.81436
 Zn223 Zn 0.50013 0.00001 0.75013
 N224 N 0.49954 -0.05064 0.78777
 C225 C 0.41820 -0.03259 0.71460
 N226 N 0.44938 0.00036 0.71269
 C227 C 0.44668 0.03355 0.68195
 C228 C 0.41154 0.03454 0.65154
 C229 C 0.38252 -0.03295 0.68462
 C230 C 0.53341 0.05351 0.81833
 C231 C 0.53430 0.08868 0.84870
 C232 C 0.46759 0.11826 0.81461
 C233 C 0.46787 0.08240 0.78490
 N234 N 0.50051 0.05095 0.78727
 H235 H 0.42142 -0.05920 0.73862
 H236 H 0.47231 0.05893 0.68073
 H237 H 0.41011 0.06075 0.62675
 H238 H 0.35846 -0.05980 0.68596
 H239 H 0.55855 0.02770 0.81992
 H240 H 0.56017 0.08992 0.87386
 H241 H 0.44097 0.14254 0.81290
 H242 H 0.44141 0.07929 0.76070
 C243 C 0.49884 -0.12045 0.84837
 C244 C 0.62114 -0.00062 0.65228
 C245 C 0.50093 0.12129 0.84715
 C246 C 0.37929 0.00076 0.65246
 Si247 Si 0.25006 0.00046 0.49969
 Si248 Si 0.75030 0.00010 0.49902
 Si249 Si 0.49945 0.25032 0.99983
 Si250 Si 0.49936 0.75054 0.00126
 Si251 Si 1.00101 0.49871 0.25016
 Si252 Si -0.00004 0.49979 0.75019
 C253 C 0.17941 0.06043 0.53717
 C254 C 0.19235 0.11029 0.53560
 C255 C 0.15623 0.11789 0.49994
 C256 C 0.14310 0.06840 0.50159
 C257 C 0.19016 0.10850 0.46259
 C258 C 0.22667 0.10020 0.49822
 C259 C 0.21330 0.05071 0.49983
 C260 C 0.17722 0.05867 0.46425
 H261 H 0.17498 0.04117 0.56840
 H262 H 0.19902 0.13134 0.56525
 H263 H 0.10851 0.05520 0.50303
 H264 H 0.19441 0.12859 0.43180
 H265 H 0.26137 0.11303 0.49689
 H266 H 0.17098 0.03797 0.43432
 C267 C 0.56236 0.68354 -0.03791
 C268 C 0.61198 0.69608 -0.03132
 C269 C 0.61685 0.65687 0.00146
 C270 C 0.56761 0.64414 -0.00522
 C271 C 0.60436 0.68723 0.04085
 C272 C 0.59881 0.72681 0.00811
 C273 C 0.54959 0.71383 0.00145
 C274 C 0.55481 0.67467 0.03415
 H275 H 0.54531 0.68235 -0.07069
 H276 H 0.63541 0.70534 -0.05847
 H277 H 0.55472 0.60990 -0.01076
 H278 H 0.62195 0.68857 0.07337
 H279 H 0.61122 0.76121 0.01368
 H280 H 0.53155 0.66571 0.06150
 C281 C 0.82081 -0.05970 0.53691
 C282 C 0.80789 -0.10956 0.53546
 C283 C 0.84424 -0.11724 0.49995
 C284 C 0.85735 -0.06774 0.50149
 C285 C 0.81055 -0.10794 0.46245
 C286 C 0.77382 -0.09957 0.49793
 C287 C 0.78716 -0.05007 0.49943
 C288 C 0.82347 -0.05811 0.46400
 H289 H 0.82503 -0.04038 0.56810
 H290 H 0.80102 -0.13054 0.56516
 H291 H 0.89193 -0.05454 0.50301
 H292 H 0.80650 -0.12811 0.43171
 H293 H 0.73913 -0.11245 0.49653
 H294 H 0.82989 -0.03744 0.43404
 C295 C 0.43643 0.31737 0.96092
 C296 C 0.38680 0.30490 0.96775
 C297 C 0.38206 0.34407 1.00059
 C298 C 0.43130 0.35674 0.99367
 C299 C 0.39459 0.31363 1.03990
 C300 C 0.40001 0.27409 1.00710
 C301 C 0.44923 0.28701 1.00021
 C302 C 0.44413 0.32613 1.03295
 H303 H 0.45343 0.31857 0.92806
 H304 H 0.36330 0.29574 0.94072
 H305 H 0.44423 0.39096 0.98809
 H306 H 0.37707 0.31227 1.07250
 H307 H 0.38757 0.23970 1.01271
 H308 H 0.46745 0.33504 1.06019
 C309 C 0.77376 0.09986 0.50004
 C310 C 0.81052 0.10824 0.53539
 C311 C 0.84420 0.11759 0.49777
 C312 C 0.80782 0.10990 0.46238
 C313 C 0.85729 0.06809 0.49616
 C314 C 0.82343 0.05842 0.53376
 C315 C 0.78709 0.05037 0.49847
 C316 C 0.82073 0.06005 0.46086
 H317 H 0.73907 0.11269 0.50158
 H318 H 0.80650 0.12839 0.56615
 H319 H 0.80097 0.13091 0.43273
 H320 H 0.89186 0.05491 0.49451
 H321 H 0.82987 0.03776 0.56370
 H322 H 0.82493 0.04074 0.42965
 C323 C 0.39995 0.72644 -0.00536
 C324 C 0.39450 0.68670 -0.03790
 C325 C 0.38211 0.65645 0.00165
 C326 C 0.38688 0.69582 0.03423
 C327 C 0.43138 0.64393 0.00837
 C328 C 0.44409 0.67434 -0.03115
 C329 C 0.44921 0.71367 0.00133
 C330 C 0.43654 0.68350 0.04086
 H331 H 0.38745 0.76076 -0.01110
 H332 H 0.37691 0.68784 -0.07042
 H333 H 0.36342 0.70508 0.06134
 H334 H 0.44437 0.60977 0.01408
 H335 H 0.46736 0.66534 -0.05846
 H336 H 0.45362 0.68253 0.07364
 C337 C 0.17958 -0.05942 0.46193
 C338 C 0.19248 -0.10927 0.46350
 C339 C 0.15609 -0.11692 0.49899
 C340 C 0.14300 -0.06743 0.49733
 C341 C 0.18974 -0.10755 0.53651
 C342 C 0.22651 -0.09922 0.50105
 C343 C 0.21319 -0.04972 0.49944
 C344 C 0.17684 -0.05773 0.53484
 H345 H 0.17537 -0.04015 0.43070
 H346 H 0.19936 -0.13028 0.43385
 H347 H 0.10842 -0.05425 0.49574
 H348 H 0.19374 -0.12769 0.56729
 H349 H 0.26118 -0.11207 0.50251
 H350 H 0.17041 -0.03703 0.56475
 C351 C 0.55455 0.32685 0.96774
 C352 C 0.56730 0.35691 1.00746
 C353 C 0.61657 0.34451 1.00038
 C354 C 0.60413 0.31462 0.96064
 C355 C 0.61192 0.30483 1.03265
 C356 C 0.56226 0.31704 1.03964
 C357 C 0.54955 0.28723 0.99993
 C358 C 0.59880 0.27457 0.99287
 H359 H 0.53121 0.33608 0.94063
 H360 H 0.55428 0.39100 1.01353
 H361 H 0.62166 0.31381 0.92803
 H362 H 0.63543 0.29535 1.05957
 H363 H 0.54525 0.31769 1.07252
 H364 H 0.61134 0.24032 0.98677
 C365 C 0.46709 0.17384 1.05478
 C366 C 0.50668 0.14339 1.06703
 C367 C 0.50008 0.15557 1.11637
 C368 C 0.46046 0.18586 1.10443
 C369 C 0.53267 0.19501 1.11170
 C370 C 0.53919 0.18302 1.06198
 C371 C 0.49959 0.21323 1.04974
 C372 C 0.49301 0.22567 1.09907
 H373 H 0.43967 0.16495 1.03166
 H374 H 0.51237 0.10932 1.05379
 H375 H 0.42796 0.18684 1.12220
 H376 H 0.55986 0.20414 1.13505
 H377 H 0.57198 0.18221 1.04479
 H378 H 0.48728 0.25990 1.11182
 C379 C -0.00641 0.59914 0.72634
 C380 C 0.03311 0.61206 0.69549
 C381 C 0.00032 0.61700 0.65630
 C382 C -0.03916 0.60477 0.68678
 C383 C 0.00683 0.56780 0.64367
 C384 C 0.03953 0.56247 0.68305
 C385 C 0.00008 0.54995 0.71345
 C386 C -0.03262 0.55526 0.67431
 H387 H -0.01196 0.61161 0.76073
 H388 H 0.06035 0.63537 0.70462
 H389 H -0.07164 0.62248 0.68814
 H390 H 0.01233 0.55485 0.60943
 H391 H 0.07230 0.54533 0.68188
 H392 H -0.06011 0.53221 0.66541
 C393 C 0.46660 0.82627 -0.05444
 C394 C 0.50598 0.85705 -0.06682
 C395 C 0.49988 0.84433 -0.11608
 C396 C 0.46047 0.81372 -0.10402
 C397 C 0.53283 0.80530 -0.11088
 C398 C 0.53884 0.81782 -0.06124
 C399 C 0.49946 0.78729 -0.04891
 C400 C 0.49338 0.77433 -0.09815
 H401 H 0.43897 0.83500 -0.03143
 H402 H 0.51122 0.89130 -0.05388
 H403 H 0.42812 0.81222 -0.12193
 H404 H 0.56030 0.79623 -0.13400
 H405 H 0.57145 0.81918 -0.04383
 H406 H 0.48809 0.73992 -0.11062
 C407 C 0.99478 0.39917 0.27477
 C408 C 1.03352 0.38653 0.30642
 C409 C 1.00166 0.38300 0.34375
 C410 C 0.96315 0.39338 0.31519
 C411 C 1.00789 0.42979 0.35682
 C412 C 1.04065 0.43624 0.31763
 C413 C 1.00112 0.44873 0.28711
 C414 C 0.96852 0.44321 0.32668
 H415 H 0.98915 0.38534 0.24093
 H416 H 1.06037 0.36244 0.29820
 H417 H 0.93145 0.37419 0.31548
 H418 H 1.01337 0.44102 0.39167
 H419 H 1.07372 0.45277 0.31943
 H420 H 0.94070 0.46551 0.33647
 C421 C 0.45969 0.81797 0.06385
 C422 C 0.46691 0.80673 0.11357
 C423 C 0.49874 0.84402 0.11698
 C424 C 0.49242 0.85712 0.07018
 C425 C 0.53726 0.81549 0.10647
 C426 C 0.50566 0.77511 0.10079
 C427 C 0.49923 0.78747 0.05123
 C428 C 0.53181 0.82701 0.05663
 H429 H 0.42660 0.81979 0.04741
 H430 H 0.44010 0.79850 0.13776
 H431 H 0.48689 0.89196 0.05895
 H432 H 0.56899 0.81577 0.12556
 H433 H 0.51135 0.74129 0.11463
 H434 H 0.55958 0.83681 0.03420
 C435 C 0.00632 0.40052 0.72577
 C436 C -0.03315 0.38788 0.69486
 C437 C -0.00030 0.38318 0.65560
 C438 C 0.03914 0.39512 0.68614
 C439 C -0.00670 0.43249 0.64331
 C440 C -0.03947 0.43758 0.68276
 C441 C -0.00006 0.44981 0.71321
 C442 C 0.03271 0.44473 0.67400
 H443 H 0.01177 0.38780 0.76008
 H444 H -0.06046 0.36456 0.70387
 H445 H 0.07159 0.37735 0.68734
 H446 H -0.01211 0.44571 0.60917
 H447 H -0.07222 0.45475 0.68173
 H448 H 0.06025 0.46782 0.66524
 C449 C 0.53239 0.17470 0.94424
 C450 C 0.49305 0.14401 0.93171
 C451 C 0.49961 0.15667 0.88247
 C452 C 0.53897 0.18722 0.89470
 C453 C 0.46669 0.19577 0.88742
 C454 C 0.46023 0.18330 0.93705
 C455 C 0.49956 0.21375 0.94956
 C456 C 0.50609 0.22668 0.90034
 H457 H 0.55987 0.16584 0.96730
 H458 H 0.48764 0.10978 0.94468
 H459 H 0.57148 0.18864 0.87696
 H460 H 0.43945 0.20486 0.86411
 H461 H 0.42743 0.18204 0.95421
 H462 H 0.51154 0.26108 0.88787
 C463 C 1.00706 0.59803 0.27388
 C464 C 0.96765 0.61064 0.30497
 C465 C 1.00067 0.61593 0.34393
 C466 C 1.04004 0.60399 0.31321
 C467 C 0.99463 0.56668 0.35672
 C468 C 0.96171 0.56102 0.31756
 C469 C 1.00104 0.54881 0.28691
 C470 C 1.03397 0.55442 0.32582
 H471 H 1.01230 0.61050 0.23943
 H472 H 0.94015 0.63366 0.29593
 H473 H 1.07237 0.62198 0.31160
 H474 H 0.98945 0.55374 0.39102
 H475 H 0.92911 0.54353 0.31902
 H476 H 1.06164 0.53150 0.33449
 C477 C 1.10062 0.50555 0.22539
 C478 C 1.11360 0.46683 0.19387
 C479 C 1.11687 0.49850 0.15643
 C480 C 1.10616 0.53699 0.18485
 C481 C 1.07006 0.49183 0.14343
 C482 C 1.06387 0.45925 0.18273
 C483 C 1.05104 0.49876 0.21313
 C484 C 1.05630 0.53117 0.17343
 H485 H 1.11444 0.51144 0.25919
 H486 H 1.13792 0.44024 0.20215
 H487 H 1.12511 0.56880 0.18442
 H488 H 1.05886 0.48609 0.10861
 H489 H 1.04754 0.42611 0.18107
 H490 H 1.03371 0.55870 0.16356
 C491 C 0.67700 -0.03486 0.55718
 C492 C 0.68989 -0.03687 0.60701
 C493 C 0.65635 0.00070 0.61663
 C494 C 0.64328 0.00271 0.56712
 C495 C 0.69286 0.03606 0.60914
 C496 C 0.72678 -0.00155 0.59883
 C497 C 0.71347 0.00041 0.54933
 C498 C 0.67998 0.03797 0.55927
 H499 H 0.67043 -0.06460 0.53631
 H500 H 0.69379 -0.06777 0.62697
 H501 H 0.60871 0.00451 0.55397
 H502 H 0.69983 0.06553 0.63034
 H503 H 0.76145 -0.00324 0.61164
 H504 H 0.67593 0.06931 0.54014
 C505 C -0.05531 0.53252 0.82626
 C506 C -0.10482 0.53959 0.81386
 C507 C -0.11748 0.50019 0.84417
 C508 C -0.06827 0.49314 0.85672
 C509 C -0.11285 0.46755 0.80481
 C510 C -0.09950 0.50698 0.77414
 C511 C -0.05031 0.49996 0.78695
 C512 C -0.06325 0.46059 0.81718
 H513 H -0.03193 0.55968 0.83527
 H514 H -0.12223 0.57221 0.81268
 H515 H -0.05536 0.48739 0.89092
 H516 H -0.13646 0.44061 0.79558
 H517 H -0.11193 0.51276 0.73978
 H518 H -0.04637 0.42771 0.81818
 C519 C 0.32344 -0.03473 0.44191
 C520 C 0.31059 -0.03714 0.39209
 C521 C 0.34409 0.00043 0.38219
 C522 C 0.35713 0.00284 0.43168
 C523 C 0.30754 0.03578 0.38935
 C524 C 0.27366 -0.00183 0.39995
 C525 C 0.28693 0.00052 0.44944
 C526 C 0.32038 0.03808 0.43921
 H527 H 0.33004 -0.06430 0.46303
 H528 H 0.30674 -0.06820 0.37239
 H529 H 0.39168 0.00481 0.44484
 H530 H 0.30055 0.06507 0.36790
 H531 H 0.23900 -0.00369 0.38712
 H532 H 0.32437 0.06958 0.45808
 C533 C 0.05475 0.46737 0.82668
 C534 C 0.10439 0.46037 0.81456
 C535 C 0.11671 0.49996 0.84470
 C536 C 0.06738 0.50694 0.85697
 C537 C 0.11231 0.53238 0.80512
 C538 C 0.09929 0.49276 0.77462
 C539 C 0.04998 0.49971 0.78715
 C540 C 0.06259 0.53927 0.81720
 H541 H 0.03135 0.44021 0.83571
 H542 H 0.12189 0.42780 0.81367
 H543 H 0.05419 0.51284 0.89106
 H544 H 0.13591 0.55934 0.79583
 H545 H 0.11199 0.48683 0.74035
 H546 H 0.04567 0.57213 0.81795
 C547 C 0.67671 0.03445 0.44110
 C548 C 0.68954 0.03652 0.39122
 C549 C 0.65629 -0.00136 0.38177
 C550 C 0.64327 -0.00342 0.43132
 C551 C 0.69307 -0.03640 0.38915
 C552 C 0.72671 0.00152 0.39929
 C553 C 0.71345 -0.00050 0.44885
 C554 C 0.68024 -0.03836 0.43906
 H555 H 0.66994 0.06415 0.46198
 H556 H 0.69319 0.06742 0.37121
 H557 H 0.60873 -0.00551 0.44461
 H558 H 0.70024 -0.06583 0.36795
 H559 H 0.76136 0.00350 0.38636
 H560 H 0.67641 -0.06972 0.45822
 C561 C 0.94540 0.46623 0.17421
 C562 C 0.89580 0.45972 0.18680
 C563 C 0.88358 0.49927 0.15654
 C564 C 0.93287 0.50575 0.14378
 C565 C 0.88866 0.53185 0.19588
 C566 C 0.90155 0.49227 0.22650
 C567 C 0.95081 0.49872 0.21349
 C568 C 0.93833 0.53824 0.18331
 H569 H 0.96856 0.43886 0.16521
 H570 H 0.87798 0.42731 0.18804
 H571 H 0.94580 0.51137 0.10954
 H572 H 0.86543 0.55907 0.20525
 H573 H 0.88910 0.48661 0.26091
 H574 H 0.95565 0.57090 0.18219
 C575 C 0.32375 0.03503 0.55734
 C576 C 0.31092 0.03752 0.60720
 C577 C 0.34403 -0.00039 0.61698
 C578 C 0.35703 -0.00287 0.56744
 C579 C 0.30710 -0.03536 0.60990
 C580 C 0.27361 0.00258 0.59943
 C581 C 0.28686 0.00014 0.54989
 C582 C 0.31992 -0.03775 0.56000
 H583 H 0.33064 0.06455 0.53622
 H584 H 0.30741 0.06860 0.62695
 H585 H 0.39156 -0.00517 0.55418
 H586 H 0.29980 -0.06460 0.63135
 H587 H 0.23896 0.00478 0.61233
 H588 H 0.32361 -0.06927 0.54112
   
