data_POSCAR
  _audit_creation_date              2014-09-24
  _audit_creation_method            'ToBaCCo'
  _symmetry_space_group_name_H-M    'P1'
  _symmetry_Int_Tables_number       1
  _symmetry_cell_setting            triclinic
  loop_
  _symmetry_equiv_pos_as_xyz
 x,y,z
_cell_length_a 18.4226
_cell_length_b 17.8202
_cell_length_c 18.6171
_cell_angle_alpha 90.591500
_cell_angle_beta 89.322000
_cell_angle_gamma 90.006200
loop_
  _atom_site_label
  _atom_site_type_symbol
  _atom_site_fract_x
  _atom_site_fract_y
  _atom_site_fract_z
C1 C 0.48679 1.02008 -0.68353
 C2 C 0.42808 0.99340 -0.64292
 C3 C 0.43510 0.98996 -0.56811
 C4 C 0.50055 1.01074 -0.53352
 C5 C 0.56153 1.02908 -0.57763
 C6 C 0.55446 1.03354 -0.65320
 C7 C 0.50287 1.01393 -0.45216
 C8 C 0.56859 1.00839 -0.41345
 C9 C 0.56893 1.01192 -0.33752
 C10 C 0.50168 1.01504 -0.30044
 C11 C 0.43565 1.02026 -0.33699
 C12 C 0.43744 1.02333 -0.41231
 H13 H 0.48052 1.02946 -0.74051
 H14 H 0.38946 0.96877 -0.53740
 H15 H 0.61269 1.04403 -0.55359
 H16 H 0.61978 1.00145 -0.44173
 H17 H 0.49997 1.01186 -0.24245
 H18 H 0.38758 1.03448 -0.43988
 C19 C -0.68748 1.48646 -0.04313
 C20 C -0.64741 1.42037 -0.03286
 C21 C -0.57149 1.42576 -0.02804
 C22 C -0.53523 1.49421 -0.04029
 C23 C -0.57701 1.55882 -0.05301
 C24 C -0.65332 1.55655 -0.05010
 C25 C -0.45403 1.49833 -0.03846
 C26 C -0.41820 1.56654 -0.02284
 C27 C -0.34207 1.57072 -0.02326
 C28 C -0.30168 1.50464 -0.03255
 C29 C -0.33599 1.43565 -0.04364
 C30 C -0.41155 1.43357 -0.05085
 H31 H -0.74634 1.48360 -0.04354
 H32 H -0.54060 1.37737 -0.01267
 H33 H -0.54989 1.61037 -0.06654
 H34 H -0.44917 1.61591 -0.00854
 H35 H -0.24296 1.50656 -0.02937
 H36 H -0.43662 1.38124 -0.06652
 C37 C 0.00253 0.30159 0.50322
 C38 C 0.02346 0.34313 0.44263
 C39 C 0.01660 0.42127 0.44583
 C40 C -0.01332 0.45829 0.50663
 C41 C -0.03134 0.41568 0.56775
 C42 C -0.02350 0.33709 0.56561
 C43 C -0.02948 0.54020 0.50211
 C44 C -0.02037 0.59007 0.56089
 C45 C -0.02935 0.66847 0.55164
 C46 C -0.04673 0.69505 0.48347
 C47 C -0.05777 0.64619 0.42551
 C48 C -0.05077 0.56934 0.43554
 H49 H 0.00364 0.24095 0.50247
 H50 H 0.03382 0.45356 0.39964
 H51 H -0.05477 0.44255 0.61503
 H52 H -0.00351 0.56771 0.61175
 H53 H -0.04903 0.75505 0.47487
 H54 H -0.06030 0.53231 0.39011
 O55 O -0.18205 1.01236 -0.07945
 O56 O 0.19229 0.98606 -0.08786
 O57 O 0.00444 1.10520 -0.16837
 O58 O 0.00229 0.89696 -0.17368
 O59 O -0.00370 0.80620 -0.08620
 O60 O 0.01531 1.19308 -0.07697
 O61 O 0.10478 0.99587 -0.17531
 O62 O -0.09559 1.00726 -0.17048
 Zr63 Zr 0.00475 1.00023 -0.11492
 O64 O 0.06718 0.92765 -0.05607
 O65 O -0.05616 1.07037 -0.04863
 C66 C -0.16242 1.01209 -0.14694
 C67 C 0.17192 0.98951 -0.15397
 C68 C 0.00916 1.17380 -0.14379
 C69 C -0.00048 0.82752 -0.15216
 H70 H 0.10690 1.09366 -0.08211
 O71 O 0.07460 1.06236 -0.05203
 H72 H -0.09710 0.90570 -0.08179
 O73 O -0.06405 0.93619 -0.05187
 O74 O 0.19369 0.98364 0.10540
 O75 O -0.17713 1.00863 0.11896
 O76 O 0.11416 1.18361 0.02094
 O77 O 0.09193 0.79973 0.00344
 O78 O -0.10194 0.81300 0.01696
 O79 O -0.07987 1.19620 0.01681
 O80 O 0.02204 1.09382 0.19903
 O81 O -0.00574 0.89407 0.19335
 O82 O 0.02242 1.18828 0.11561
 O83 O -0.00885 0.80365 0.10416
 O84 O 0.19905 1.08852 0.01303
 O85 O -0.17454 1.11152 0.01442
 O86 O -0.18702 0.90812 0.01964
 O87 O 0.18661 0.88429 -0.00053
 O88 O 0.10687 0.98805 0.19563
 O89 O -0.08527 0.99988 0.20192
 Zr90 Zr 0.13422 0.98982 0.00942
 Zr91 Zr -0.12207 1.00623 0.01686
 Zr92 Zr 0.01383 1.12876 0.01688
 Zr93 Zr -0.00126 0.86754 0.00993
 Zr94 Zr 0.00899 0.99538 0.13846
 O95 O -0.06240 0.93385 0.07795
 O96 O 0.07768 1.06026 0.07789
 C97 C 0.17334 0.98385 0.17250
 C98 C -0.15269 1.00494 0.18455
 C99 C 0.18000 1.15868 0.01885
 C100 C 0.16004 0.81673 -0.00207
 C101 C -0.16775 0.83802 0.02100
 C102 C -0.14803 1.17902 0.01341
 C103 C 0.02720 1.16344 0.18066
 C104 C -0.01387 0.82578 0.17037
 H105 H -0.08232 1.10294 0.11387
 O106 O -0.05454 1.06862 0.08177
 H107 H 0.09788 0.88883 0.10355
 O108 O 0.06958 0.92438 0.07454
 C109 C 0.36239 0.97332 0.32367
 C110 C 0.35999 0.95344 0.25372
 C111 C 0.29437 0.94725 0.20995
 C112 C 0.23040 0.97859 0.22679
 H113 H 0.40967 0.94146 0.22423
 H114 H 0.30226 0.92257 0.15696
 H115 H 0.31295 0.97254 0.35572
 H116 H 0.22034 1.00306 0.27941
 C117 C -0.38902 1.04921 0.29760
 C118 C -0.31862 1.03600 0.30752
 C119 C -0.26931 1.03712 0.24405
 C120 C -0.20336 1.00702 0.24643
 H121 H -0.29910 1.01606 0.35857
 H122 H -0.28821 1.06018 0.19392
 H123 H -0.40451 1.06348 0.24326
 H124 H -0.18409 0.98548 0.29705
 C125 C -0.36062 1.00936 -0.29742
 C126 C -0.35397 1.03829 -0.23050
 C127 C -0.29007 1.03275 -0.18248
 C128 C -0.22115 1.01608 -0.20154
 H129 H -0.40006 1.06651 -0.20599
 H130 H -0.30171 1.04599 -0.12660
 H131 H -0.31411 0.98332 -0.32354
 H132 H -0.20715 1.00631 -0.25748
 C133 C 0.36649 1.02260 -0.29383
 C134 C 0.29899 1.01226 -0.32001
 C135 C 0.23226 1.01085 -0.27369
 C136 C 0.23326 0.98634 -0.20596
 H137 H 0.29076 1.00563 -0.37704
 H138 H 0.18147 1.02877 -0.29665
 H139 H 0.37228 1.03181 -0.23662
 H140 H 0.28392 0.96577 -0.18475
 C141 C 0.31434 1.35229 -0.02545
 C142 C 0.34400 1.28321 -0.02083
 C143 C 0.29842 1.21521 -0.01295
 C144 C 0.23528 1.21748 0.02303
 H145 H 0.40158 1.27415 -0.02801
 H146 H 0.31613 1.16371 -0.03914
 H147 H 0.25564 1.35610 -0.02591
 H148 H 0.21898 1.26871 0.05057
 C149 C 0.30268 0.62134 -0.05132
 C150 C 0.32667 0.69250 -0.04359
 C151 C 0.27764 0.75801 -0.03510
 C152 C 0.20954 0.75249 -0.00970
 H153 H 0.38386 0.70524 -0.04140
 H154 H 0.29980 0.81276 -0.04741
 H155 H 0.24477 0.61220 -0.05485
 H156 H 0.18750 0.69854 0.00522
 C157 C -0.30181 0.64170 -0.01157
 C158 C -0.33027 0.71110 -0.01556
 C159 C -0.28488 0.77944 -0.00870
 C160 C -0.22305 0.77973 0.02815
 H161 H -0.38623 0.71901 -0.03047
 H162 H -0.30097 0.82895 -0.03781
 H163 H -0.24400 0.63569 -0.00392
 H164 H -0.20737 0.73104 0.05856
 C165 C -0.29120 1.36684 -0.04479
 C166 C -0.31565 1.30036 -0.02122
 C167 C -0.26758 1.23507 -0.01149
 C168 C -0.19792 1.24270 0.00697
 H169 H -0.37231 1.29294 -0.00714
 H170 H -0.29125 1.17968 -0.01687
 H171 H -0.23451 1.37300 -0.05962
 H172 H -0.17521 1.29808 0.01552
 C173 C 0.04451 1.30903 0.37703
 C174 C 0.06189 1.23624 0.37019
 C175 C 0.06655 1.19498 0.30149
 C176 C 0.03767 1.21780 0.23951
 H177 H 0.07133 1.20238 0.41693
 H178 H 0.08730 1.13823 0.30509
 H179 H 0.04524 1.34350 0.32946
 H180 H 0.01717 1.27416 0.23315
 C181 C -0.04524 1.28823 -0.37456
 C182 C -0.01647 1.29494 -0.30955
 C183 C -0.02146 1.23201 -0.25887
 C184 C 0.00961 1.23634 -0.19473
 H185 H 0.01660 1.34345 -0.29650
 H186 H -0.04900 1.18081 -0.27492
 H187 H -0.07458 1.23729 -0.38803
 H188 H 0.03449 1.28866 -0.17777
 C189 C -0.02004 0.72344 -0.39439
 C190 C -0.00728 0.71115 -0.32518
 C191 C -0.00260 0.77592 -0.27546
 C192 C -0.00092 0.76564 -0.20497
 H193 H -0.00304 0.65497 -0.30422
 H194 H -0.00304 0.83244 -0.29653
 H195 H -0.02551 0.78175 -0.40999
 H196 H -0.00163 0.70884 -0.18453
 C197 C -0.06561 0.67542 0.35222
 C198 C -0.09478 0.74281 0.34042
 C199 C -0.08098 0.78741 0.27581
 C200 C -0.03260 0.76976 0.22406
 H201 H -0.12477 0.77110 0.38311
 H202 H -0.10735 0.84180 0.27482
 H203 H -0.04093 0.64331 0.30882
 H204 H -0.00659 0.71550 0.22057
   
