data_POSCAR
  _audit_creation_date              2014-09-24
  _audit_creation_method            'ToBaCCo'
  _symmetry_space_group_name_H-M    'P1'
  _symmetry_Int_Tables_number       1
  _symmetry_cell_setting            triclinic
  loop_
  _symmetry_equiv_pos_as_xyz
 x,y,z
_cell_length_a 19.5565
_cell_length_b 19.5348
_cell_length_c 16.0743
_cell_angle_alpha 89.878200
_cell_angle_beta 89.935700
_cell_angle_gamma 91.643000
loop_
  _atom_site_label
  _atom_site_type_symbol
  _atom_site_fract_x
  _atom_site_fract_y
  _atom_site_fract_z
O1 O -0.07821 0.32540 0.07589
 O2 O 0.06548 0.33040 -0.07526
 O3 O -0.07272 0.32638 -0.08561
 O4 O 0.05695 0.33202 0.08234
 O5 O 0.06044 0.21921 0.07445
 O6 O -0.07685 0.21325 -0.08020
 O7 O 0.05240 0.21856 -0.08962
 O8 O -0.07323 0.21265 0.08003
 Cu9 Cu -0.00772 0.33952 -0.00136
 Cu10 Cu -0.00838 0.20463 -0.00296
 C11 C -0.09950 0.26784 0.10408
 C12 C 0.08275 0.27463 -0.10869
 C13 C -0.09810 0.26905 -0.10936
 C14 C 0.08213 0.27576 0.10462
 O15 O 0.44703 0.83183 0.58674
 O16 O 0.58186 0.82768 0.42506
 O17 O 0.44617 0.83358 0.42610
 O18 O 0.58254 0.82399 0.58545
 O19 O 0.57270 0.71106 0.58435
 O20 O 0.43994 0.72042 0.42399
 O21 O 0.57184 0.71476 0.42250
 O22 O 0.44107 0.71865 0.58571
 Cu23 Cu 0.51539 0.84033 0.50617
 Cu24 Cu 0.50555 0.70505 0.50392
 C25 C 0.42078 0.77554 0.61276
 C26 C 0.59998 0.77024 0.39709
 C27 C 0.41957 0.77794 0.39876
 C28 C 0.60118 0.76583 0.61094
 O29 O 0.94010 0.66877 -0.07634
 O30 O 1.07639 0.67752 0.08400
 O31 O 0.94107 0.67131 0.08263
 O32 O 1.07930 0.67513 -0.07558
 O33 O 1.07382 0.78763 -0.08463
 O34 O 0.94057 0.78427 0.07606
 O35 O 1.07479 0.79045 0.07877
 O36 O 0.94529 0.78148 -0.08659
 Cu37 Cu 1.00955 0.66232 0.00349
 Cu38 Cu 1.00835 0.79722 -0.00347
 C39 C 0.91931 0.72407 -0.10821
 C40 C 1.09902 0.73571 0.10790
 C41 C 0.91692 0.72794 0.10508
 C42 C 1.10027 0.73197 -0.10647
 O43 O 0.55369 0.16488 0.57981
 O44 O 0.41684 0.17186 0.42096
 O45 O 0.55254 0.16569 0.41917
 O46 O 0.41790 0.17221 0.58134
 O47 O 0.42817 0.28514 0.58187
 O48 O 0.55858 0.27889 0.41856
 O49 O 0.42698 0.28481 0.42034
 O50 O 0.55982 0.27808 0.57986
 Cu51 Cu 0.48426 0.15756 0.50037
 Cu52 Cu 0.49420 0.29293 0.50019
 C53 C 0.58038 0.22090 0.60580
 C54 C 0.39848 0.22978 0.39456
 C55 C 0.57877 0.22175 0.39223
 C56 C 0.39979 0.23007 0.60814
 O57 O 0.66636 0.05495 -0.08257
 O58 O 0.67350 -0.08409 0.07383
 O59 O 0.66382 0.05260 0.07839
 O60 O 0.67553 -0.08046 -0.08489
 O61 O 0.78823 -0.07255 -0.07603
 O62 O 0.77662 0.06493 0.07672
 O63 O 0.78459 -0.06433 0.08731
 O64 O 0.77942 0.06022 -0.08340
 Cu65 Cu 0.65851 -0.01525 -0.00390
 Cu66 Cu 0.79340 -0.00239 0.00077
 C67 C 0.72240 0.08103 -0.10941
 C68 C 0.73037 -0.09749 0.10736
 C69 C 0.71873 0.08223 0.10360
 C70 C 0.73429 -0.10019 -0.10609
 O71 O 0.17401 0.57548 0.42050
 O72 O 0.16740 0.43813 0.58025
 O73 O 0.17441 0.57466 0.58118
 O74 O 0.16790 0.43905 0.41972
 O75 O 0.28089 0.43985 0.41865
 O76 O 0.28721 0.57142 0.58140
 O77 O 0.28038 0.43885 0.58028
 O78 O 0.28684 0.57224 0.41945
 Cu79 Cu 0.16028 0.50712 0.50043
 Cu80 Cu 0.29505 0.50533 0.49994
 C81 C 0.23169 0.59754 0.39379
 C82 C 0.22337 0.41482 0.60650
 C83 C 0.23213 0.59642 0.60785
 C84 C 0.22381 0.41604 0.39270
 O85 O 0.32532 1.08461 0.07931
 O86 O 0.33488 0.94710 -0.07912
 O87 O 0.32503 1.08435 -0.07764
 O88 O 0.33606 0.94843 0.08256
 O89 O 0.22313 0.93870 0.08362
 O90 O 0.21307 1.06710 -0.08196
 O91 O 0.22208 0.93592 -0.07609
 O92 O 0.21315 1.06888 0.08377
 Cu93 Cu 0.34159 1.01698 0.00101
 Cu94 Cu 0.20674 1.00220 0.00224
 C95 C 0.26725 1.10028 0.10782
 C96 C 0.27955 0.91760 -0.10332
 C97 C 0.26684 1.09914 -0.10629
 C98 C 0.28092 0.92047 0.10977
 O99 O 0.83464 0.56034 0.57497
 O100 O 0.82439 0.42527 0.41397
 O101 O 0.83061 0.56154 0.41474
 O102 O 0.82506 0.42444 0.57446
 O103 O 0.71230 0.42865 0.57759
 O104 O 0.71761 0.56130 0.41595
 O105 O 0.71159 0.42884 0.41568
 O106 O 0.72164 0.56078 0.57734
 Cu107 Cu 0.83935 0.49250 0.49413
 Cu108 Cu 0.70449 0.49526 0.49681
 C109 C 0.77924 0.58375 0.60274
 C110 C 0.76632 0.40361 0.38857
 C111 C 0.77451 0.58510 0.38925
 C112 C 0.76754 0.40303 0.60242
 O113 O 0.21488 0.15317 0.21734
 O114 O 0.19066 0.30379 0.35047
 O115 O 0.13032 0.24186 0.23107
 O116 O 0.28477 0.20487 0.35206
 O117 O 0.34903 0.27405 0.27357
 O118 O 0.19720 0.29910 0.14253
 O119 O 0.26415 0.36274 0.27180
 O120 O 0.30034 0.20752 0.15350
 Cu121 Cu 0.20146 0.21909 0.29873
 Cu122 Cu 0.28104 0.29256 0.19850
 C123 C 0.26163 0.15473 0.16242
 C124 C 0.22441 0.35880 0.33412
 C125 C 0.13873 0.27432 0.16345
 C126 C 0.34182 0.23496 0.33616
 O127 O 0.80120 0.70508 0.14217
 O128 O 0.64908 0.72807 0.27443
 O129 O 0.69677 0.79536 0.15299
 O130 O 0.73383 0.63941 0.26942
 O131 O 0.80689 0.69794 0.34868
 O132 O 0.78140 0.84974 0.21788
 O133 O 0.71316 0.79662 0.35334
 O134 O 0.86762 0.76215 0.23091
 Cu135 Cu 0.71674 0.71057 0.19787
 Cu136 Cu 0.79597 0.78343 0.29862
 C137 C 0.85961 0.72991 0.16325
 C138 C 0.65628 0.76628 0.33767
 C139 C 0.73512 0.84823 0.16250
 C140 C 0.77355 0.64292 0.33158
 O141 O 0.84628 0.22694 0.22648
 O142 O 0.69158 0.19511 0.35407
 O143 O 0.75221 0.13470 0.22855
 O144 O 0.78858 0.28982 0.35146
 O145 O 0.72451 0.35006 0.26673
 O146 O 0.69089 0.19501 0.14086
 O147 O 0.63134 0.25696 0.26689
 O148 O 0.78663 0.29141 0.14161
 Cu149 Cu 0.77535 0.20562 0.29948
 Cu150 Cu 0.70229 0.27907 0.19463
 C151 C 0.84221 0.26340 0.16134
 C152 C 0.63591 0.22251 0.33351
 C153 C 0.71790 0.13923 0.16203
 C154 C 0.76106 0.34562 0.33156
 O155 O 0.15221 0.77620 0.23133
 O156 O 0.30674 0.80563 0.36050
 O157 O 0.24676 0.86774 0.23491
 O158 O 0.20879 0.71158 0.35680
 O159 O 0.27314 0.65192 0.27196
 O160 O 0.30863 0.80781 0.14757
 O161 O 0.36706 0.74421 0.27313
 O162 O 0.21246 0.71236 0.14658
 Cu163 Cu 0.22293 0.79624 0.30530
 Cu164 Cu 0.29633 0.72338 0.20050
 C165 C 0.15683 0.74049 0.16579
 C166 C 0.36239 0.77803 0.34004
 C167 C 0.28147 0.86349 0.16857
 C168 C 0.23636 0.65588 0.33674
 O169 O 0.79122 0.28953 0.64052
 O170 O 0.75755 0.13426 0.76570
 O171 O 0.69384 0.19494 0.64222
 O172 O 0.84889 0.22919 0.76775
 O173 O 0.78876 0.29303 0.85269
 O174 O 0.63368 0.25643 0.72973
 O175 O 0.69577 0.19428 0.85304
 O176 O 0.72706 0.34939 0.72536
 Cu177 Cu 0.77867 0.20606 0.69466
 Cu178 Cu 0.70537 0.27908 0.79952
 C179 C 0.76329 0.34511 0.66010
 C180 C 0.72323 0.13859 0.83230
 C181 C 0.63804 0.22184 0.66345
 C182 C 0.84445 0.26556 0.83276
 O183 O 0.20578 0.69692 0.84952
 O184 O 0.36460 0.73532 0.73368
 O185 O 0.30139 0.80231 0.86105
 O186 O 0.27369 0.64761 0.73123
 O187 O 0.20890 0.70971 0.64958
 O188 O 0.24878 0.86685 0.76940
 O189 O 0.30986 0.80701 0.65261
 O190 O 0.15670 0.78079 0.78224
 Cu191 Cu 0.29260 0.71732 0.80590
 Cu192 Cu 0.22439 0.79421 0.70231
 C193 C 0.15516 0.73523 0.83870
 C194 C 0.36316 0.77445 0.67066
 C195 C 0.27940 0.86020 0.83822
 C196 C 0.23687 0.65341 0.66686
 O197 O 0.26500 0.36276 0.72701
 O198 O 0.29567 0.20832 0.84991
 O199 O 0.34703 0.27820 0.72522
 O200 O 0.19174 0.30812 0.84909
 O201 O 0.13382 0.23005 0.77680
 O202 O 0.28779 0.20037 0.65375
 O203 O 0.21666 0.14912 0.78076
 O204 O 0.19014 0.30272 0.65197
 Cu205 Cu 0.27841 0.29334 0.80149
 Cu206 Cu 0.20305 0.21680 0.70239
 C207 C 0.22439 0.35800 0.66589
 C208 C 0.26059 0.15332 0.83863
 C209 C 0.34278 0.23502 0.66648
 C210 C 0.13721 0.27250 0.83614
 O211 O 0.71415 0.79473 0.65101
 O212 O 0.86557 0.76915 0.77898
 O213 O 0.80920 0.69667 0.64608
 O214 O 0.77511 0.85105 0.77036
 O215 O 0.71743 0.78353 0.85784
 O216 O 0.74371 0.63177 0.72823
 O217 O 0.81343 0.68425 0.84650
 O218 O 0.65650 0.71865 0.72760
 Cu219 Cu 0.79831 0.78091 0.70025
 Cu220 Cu 0.72673 0.70057 0.80177
 C221 C 0.65948 0.76072 0.66721
 C222 C 0.86523 0.72416 0.83594
 C223 C 0.77950 0.63947 0.66310
 C224 C 0.74114 0.84240 0.83694
   
