data_POSCAR
  _audit_creation_date              2014-09-24
  _audit_creation_method            'ToBaCCo'
  _symmetry_space_group_name_H-M    'P1'
  _symmetry_Int_Tables_number       1
  _symmetry_cell_setting            triclinic
  loop_
  _symmetry_equiv_pos_as_xyz
 x,y,z
_cell_length_a 37.3024
_cell_length_b 37.0815
_cell_length_c 44.3945
_cell_angle_alpha 89.121000
_cell_angle_beta 91.934400
_cell_angle_gamma 90.135700
loop_
  _atom_site_label
  _atom_site_type_symbol
  _atom_site_fract_x
  _atom_site_fract_y
  _atom_site_fract_z
C1 C 1.20852 0.26797 0.29928
 H2 H 1.20994 0.23894 0.29751
 C3 C 1.18744 0.28330 0.32107
 H4 H 1.17248 0.26608 0.33609
 C5 C 1.22681 0.32588 0.28224
 H6 H 1.24259 0.34231 0.26736
 C7 C 1.20602 0.34234 0.30377
 H8 H 1.20566 0.37147 0.30529
 N9 N 1.22743 0.28928 0.28026
 C10 C 1.24291 0.22109 0.20253
 H11 H 1.27181 0.22206 0.20118
 C12 C 1.22261 0.20054 0.18207
 H13 H 1.23585 0.18563 0.16486
 C14 C 1.19025 0.23921 0.22665
 H15 H 1.17767 0.25453 0.24385
 C16 C 1.16896 0.21901 0.20662
 H17 H 1.14009 0.21866 0.20863
 Zn18 Zn 1.25608 0.26512 0.25249
 N19 N 1.22660 0.23936 0.22461
 C20 C 1.28408 0.19649 0.27086
 N21 N 1.28553 0.23269 0.27546
 C22 C 1.30662 0.24681 0.29795
 C23 C 1.32776 0.22429 0.31669
 C24 C 1.30478 0.17296 0.28910
 C25 C 1.26813 0.32230 0.21147
 C26 C 1.28828 0.34514 0.19320
 C27 C 1.34230 0.31725 0.21396
 C28 C 1.32119 0.29494 0.23182
 N29 N 1.28477 0.29783 0.23033
 H30 H 1.26646 0.18566 0.25345
 H31 H 1.30673 0.27562 0.30144
 H32 H 1.34429 0.23591 0.33463
 H33 H 1.30318 0.14416 0.28536
 H34 H 1.23914 0.32359 0.21026
 H35 H 1.27480 0.36415 0.17794
 H36 H 1.37121 0.31433 0.21497
 H37 H 1.33397 0.27477 0.24627
 C38 C 1.18532 0.19926 0.18432
 C39 C 1.18615 0.32082 0.32335
 C40 C 1.32572 0.34245 0.19435
 C41 C 1.32679 0.18700 0.31227
 C42 C 0.70189 -0.22352 0.29162
 H43 H 0.70174 -0.25270 0.29185
 C44 C 0.67996 -0.20483 0.31077
 H45 H 0.66274 -0.21958 0.32581
 C46 C 0.72536 -0.16858 0.27239
 H47 H 0.74363 -0.15464 0.25784
 C48 C 0.70383 -0.14879 0.29126
 H49 H 0.70534 -0.11961 0.29107
 N50 N 0.72383 -0.20527 0.27283
 C51 C 0.74311 -0.28336 0.20307
 H52 H 0.77209 -0.28473 0.20417
 C53 C 0.72356 -0.30457 0.18260
 H54 H 0.73745 -0.32242 0.16785
 C55 C 0.68943 -0.25830 0.22080
 H56 H 0.67620 -0.23989 0.23537
 C57 C 0.66889 -0.27901 0.20067
 H58 H 0.63992 -0.27674 0.20003
 Zn59 Zn 0.75382 -0.23373 0.24956
 N60 N 0.72583 -0.26123 0.22196
 C61 C 0.77494 -0.30074 0.27640
 N62 N 0.77924 -0.26429 0.27721
 C63 C 0.79855 -0.24837 0.29993
 C64 C 0.81439 -0.26932 0.32314
 C65 C 0.79034 -0.32266 0.29916
 C66 C 0.76962 -0.18241 0.20562
 C67 C 0.79080 -0.16042 0.18764
 C68 C 0.84357 -0.18421 0.21402
 C69 C 0.82134 -0.20579 0.23158
 N70 N 0.78507 -0.20433 0.22719
 H71 H 0.75861 -0.31283 0.25872
 H72 H 0.80079 -0.21929 0.30041
 H73 H 0.82930 -0.25641 0.34137
 H74 H 0.78636 -0.35160 0.29862
 H75 H 0.74074 -0.18219 0.20236
 H76 H 0.77825 -0.14318 0.17043
 H77 H 0.87242 -0.18564 0.21745
 H78 H 0.83311 -0.22391 0.24842
 C79 C 0.68610 -0.30250 0.18156
 C80 C 0.68102 -0.16717 0.31063
 C81 C 0.82810 -0.16133 0.19187
 C82 C 0.80994 -0.30676 0.32287
 C83 C 0.69052 0.27781 -0.20613
 H84 H 0.69143 0.24874 -0.20378
 C85 C 0.67003 0.29795 -0.18671
 H86 H 0.65507 0.28436 -0.16937
 C87 C 0.70938 0.33113 -0.23123
 H88 H 0.72514 0.34400 -0.24831
 C89 C 0.68923 0.35230 -0.21224
 H90 H 0.68937 0.38139 -0.21489
 N91 N 0.70943 0.29454 -0.22802
 C92 C 0.72381 0.21364 -0.29676
 H93 H 0.75263 0.21527 -0.29857
 C94 C 0.70391 0.19059 -0.31542
 H95 H 0.71739 0.17438 -0.33167
 C96 C 0.67094 0.23329 -0.27376
 H97 H 0.65817 0.25037 -0.25783
 C98 C 0.64998 0.21056 -0.29206
 H99 H 0.62112 0.21002 -0.29005
 Zn100 Zn 0.73713 0.26501 -0.25291
 N101 N 0.70722 0.23415 -0.27626
 C102 C 0.76643 0.20032 -0.22755
 N103 N 0.76863 0.23699 -0.22748
 C104 C 0.79217 0.25425 -0.20851
 C105 C 0.81518 0.23446 -0.18902
 C106 C 0.78892 0.17956 -0.20845
 C107 C 0.74375 0.31245 -0.30199
 C108 C 0.76100 0.33131 -0.32485
 C109 C 0.81792 0.31032 -0.30366
 C110 C 0.79956 0.29185 -0.28120
 N111 N 0.76311 0.29326 -0.28075
 H112 H 0.74697 0.18701 -0.24211
 H113 H 0.79297 0.28342 -0.20851
 H114 H 0.83382 0.24840 -0.17398
 H115 H 0.78687 0.15042 -0.20863
 H116 H 0.71477 0.31249 -0.30147
 H117 H 0.74518 0.34617 -0.34177
 H118 H 0.84692 0.30863 -0.30395
 H119 H 0.81443 0.27572 -0.26465
 C120 C 0.66668 0.18900 -0.31303
 C121 C 0.66932 0.33554 -0.18980
 C122 C 0.79846 0.33007 -0.32583
 C123 C 0.81355 0.19675 -0.18904
 C124 C 1.18534 -0.22099 -0.20492
 H125 H 1.18327 -0.25009 -0.20400
 C126 C 1.16457 -0.20006 -0.18626
 H127 H 1.14643 -0.21307 -0.17093
 C128 C 1.21197 -0.16844 -0.22558
 H129 H 1.23085 -0.15619 -0.24057
 C130 C 1.19170 -0.14651 -0.20728
 H131 H 1.19490 -0.11749 -0.20841
 N132 N 1.20826 -0.20498 -0.22428
 C133 C 1.22318 -0.28242 -0.29599
 H134 H 1.25217 -0.28374 -0.29544
 C135 C 1.20329 -0.30155 -0.31766
 H136 H 1.21697 -0.31784 -0.33373
 C137 C 1.16994 -0.25896 -0.27616
 H138 H 1.15707 -0.24183 -0.26033
 C139 C 1.14900 -0.27768 -0.29752
 H140 H 1.12006 -0.27523 -0.29784
 Zn141 Zn 1.23614 -0.23532 -0.24844
 N142 N 1.20635 -0.26187 -0.27564
 C143 C 1.26080 -0.30346 -0.22519
 N144 N 1.26313 -0.26700 -0.22237
 C145 C 1.28501 -0.25194 -0.20084
 C146 C 1.30661 -0.27371 -0.18177
 C147 C 1.28195 -0.32622 -0.20655
 C148 C 1.25251 -0.18527 -0.29388
 C149 C 1.27413 -0.16631 -0.31379
 C150 C 1.32630 -0.19378 -0.28931
 C151 C 1.30372 -0.21223 -0.26985
 N152 N 1.26752 -0.20764 -0.27241
 H153 H 1.24275 -0.31501 -0.24196
 H154 H 1.28607 -0.22291 -0.19885
 H155 H 1.32431 -0.26144 -0.16499
 H156 H 1.28023 -0.35518 -0.20917
 H157 H 1.22363 -0.18268 -0.29584
 H158 H 1.26192 -0.14890 -0.33105
 H159 H 1.35502 -0.19796 -0.28740
 H160 H 1.31516 -0.23085 -0.25327
 C161 C 1.16587 -0.29915 -0.31847
 C162 C 1.16774 -0.16246 -0.18746
 C163 C 1.31135 -0.17076 -0.31158
 C164 C 1.30530 -0.31119 -0.18482
 C165 C 0.26776 0.18687 0.70479
 H166 H 0.23875 0.18771 0.70393
 C167 C 0.28589 0.16636 0.68410
 H168 H 0.27087 0.15121 0.66723
 C169 C 0.32292 0.20633 0.72736
 H170 H 0.33720 0.22247 0.74389
 C171 C 0.34211 0.18618 0.70707
 H172 H 0.37116 0.18659 0.70815
 N173 N 0.28641 0.20612 0.72594
 C174 C 0.21226 0.22323 0.79733
 H175 H 0.21363 0.25234 0.79825
 C176 C 0.19233 0.20405 0.81816
 H177 H 0.17803 0.21846 0.83508
 C178 C 0.23040 0.16886 0.77479
 H179 H 0.24601 0.15533 0.75833
 C180 C 0.21077 0.14855 0.79529
 H181 H 0.21095 0.11936 0.79433
 Zn182 Zn 0.25969 0.23450 0.75186
 N183 N 0.23067 0.20551 0.77620
 C184 C 0.19484 0.26554 0.72875
 N185 N 0.23126 0.26635 0.72772
 C186 C 0.24830 0.28890 0.70840
 C187 C 0.22854 0.31232 0.68939
 C188 C 0.17409 0.28852 0.71013
 C189 C 0.30980 0.24013 0.79914
 C190 C 0.32945 0.25697 0.82222
 C191 C 0.30810 0.31463 0.80285
 C192 C 0.28883 0.29671 0.78010
 N193 N 0.28995 0.26009 0.77876
 H194 H 0.18177 0.24679 0.74366
 H195 H 0.27726 0.28850 0.70772
 H196 H 0.24225 0.33012 0.67398
 H197 H 0.14510 0.28761 0.71093
 H198 H 0.30948 0.21102 0.79790
 H199 H 0.34467 0.24089 0.83870
 H200 H 0.30658 0.34373 0.80421
 H201 H 0.27207 0.31197 0.76426
 C202 C 0.19177 0.16640 0.81725
 C203 C 0.32338 0.16609 0.68526
 C204 C 0.32823 0.29451 0.82425
 C205 C 0.19112 0.31208 0.69031
 C206 C 0.77394 0.68442 0.70537
 H207 H 0.74498 0.68347 0.70319
 C208 C 0.79466 0.66359 0.68666
 H209 H 0.78166 0.64651 0.66997
 C210 C 0.82638 0.70834 0.72936
 H211 H 0.83865 0.72625 0.74568
 C212 C 0.84810 0.68797 0.71107
 H213 H 0.87702 0.69006 0.71349
 N214 N 0.79000 0.70600 0.72637
 C215 C 0.71068 0.72122 0.79452
 H216 H 0.71005 0.75039 0.79462
 C217 C 0.69101 0.70149 0.81524
 H218 H 0.67492 0.71553 0.83120
 C219 C 0.73360 0.66741 0.77433
 H220 H 0.75095 0.65432 0.75888
 C221 C 0.71433 0.64656 0.79474
 H222 H 0.71656 0.61743 0.79467
 Zn223 Zn 0.75999 0.73394 0.75036
 N224 N 0.73137 0.70404 0.77460
 C225 C 0.69442 0.76049 0.72421
 N226 N 0.73083 0.76339 0.72432
 C227 C 0.74734 0.78654 0.70513
 C228 C 0.72704 0.80850 0.68521
 C229 C 0.67314 0.78194 0.70466
 C230 C 0.80744 0.74395 0.79905
 C231 C 0.82590 0.76254 0.82185
 C232 C 0.80310 0.81850 0.80019
 C233 C 0.78503 0.79884 0.77775
 N234 N 0.78755 0.76222 0.77760
 H235 H 0.68178 0.74134 0.73906
 H236 H 0.77632 0.78792 0.70536
 H237 H 0.74039 0.82691 0.67006
 H238 H 0.64420 0.77944 0.70471
 H239 H 0.80831 0.71480 0.79874
 H240 H 0.84135 0.74774 0.83902
 H241 H 0.80067 0.84759 0.80045
 H242 H 0.76831 0.81277 0.76102
 C243 C 0.69303 0.66384 0.81550
 C244 C 0.83207 0.66536 0.68956
 C245 C 0.82349 0.80011 0.82254
 C246 C 0.68959 0.80621 0.68504
 C247 C 0.76132 0.19006 0.20839
 H248 H 0.73236 0.19004 0.20915
 C249 C 0.77829 0.16943 0.18706
 H250 H 0.76240 0.15326 0.17146
 C251 C 0.81734 0.21258 0.22681
 H252 H 0.83236 0.23021 0.24173
 C253 C 0.83539 0.19235 0.20577
 H254 H 0.86432 0.19414 0.20478
 N255 N 0.78092 0.21114 0.22766
 C256 C 0.70688 0.23261 0.29941
 H257 H 0.70672 0.26178 0.29889
 C258 C 0.68614 0.21376 0.32007
 H259 H 0.66990 0.22842 0.33551
 C260 C 0.72850 0.17774 0.28018
 H261 H 0.74540 0.16378 0.26491
 C262 C 0.70819 0.15787 0.30048
 H263 H 0.70930 0.12867 0.30060
 Zn264 Zn 0.75471 0.24182 0.25244
 N265 N 0.72719 0.21444 0.27977
 C266 C 0.68813 0.26740 0.22672
 N267 N 0.72454 0.26913 0.22570
 C268 C 0.74092 0.28786 0.20343
 C269 C 0.72057 0.30593 0.18101
 C270 C 0.66674 0.28512 0.20468
 C271 C 0.80894 0.25674 0.29587
 C272 C 0.83170 0.27800 0.31392
 C273 C 0.80636 0.33117 0.28942
 C274 C 0.78407 0.30893 0.27182
 N275 N 0.78587 0.27240 0.27520
 H276 H 0.67560 0.25157 0.24408
 H277 H 0.76989 0.28811 0.20281
 H278 H 0.73387 0.32050 0.16322
 H279 H 0.63779 0.28334 0.20540
 H280 H 0.80945 0.22768 0.29843
 H281 H 0.84983 0.26529 0.33042
 H282 H 0.80456 0.36020 0.28675
 H283 H 0.76503 0.32094 0.25580
 C284 C 0.68672 0.17603 0.32053
 C285 C 0.81562 0.17085 0.18556
 C286 C 0.83038 0.31557 0.31068
 C287 C 0.68316 0.30434 0.18153
 C288 C 0.25955 0.68898 0.20107
 H289 H 0.23054 0.68927 0.20085
 C290 C 0.27731 0.66875 0.17998
 H291 H 0.26201 0.65321 0.16354
 C292 C 0.31496 0.71013 0.22195
 H293 H 0.32943 0.72700 0.23784
 C294 C 0.33381 0.69027 0.20119
 H295 H 0.36283 0.69160 0.20131
 N296 N 0.27847 0.70911 0.22148
 C297 C 0.20196 0.72747 0.29155
 H298 H 0.20204 0.75663 0.29195
 C299 C 0.18043 0.70789 0.31108
 H300 H 0.16382 0.72196 0.32662
 C301 C 0.22387 0.67336 0.27111
 H302 H 0.24121 0.65999 0.25583
 C303 C 0.20275 0.65276 0.29027
 H304 H 0.20369 0.62358 0.28955
 Zn305 Zn 0.25124 0.73859 0.24631
 N306 N 0.22279 0.71004 0.27186
 C307 C 0.18546 0.76437 0.21980
 N308 N 0.22188 0.76688 0.21977
 C309 C 0.23872 0.78699 0.19858
 C310 C 0.21879 0.80571 0.17627
 C311 C 0.16451 0.78268 0.19785
 C312 C 0.30308 0.75124 0.29200
 C313 C 0.32441 0.77146 0.31199
 C314 C 0.30014 0.82591 0.28866
 C315 C 0.27927 0.80463 0.26911
 N316 N 0.28119 0.76800 0.27105
 H317 H 0.17261 0.74743 0.23624
 H318 H 0.26772 0.78783 0.19870
 H319 H 0.23241 0.82137 0.15931
 H320 H 0.13556 0.78026 0.19777
 H321 H 0.30362 0.72209 0.29336
 H322 H 0.34151 0.75772 0.32871
 H323 H 0.29810 0.85504 0.28706
 H324 H 0.26111 0.81743 0.25280
 C325 C 0.18077 0.67021 0.31034
 C326 C 0.31475 0.66962 0.17991
 C327 C 0.32286 0.80918 0.31039
 C328 C 0.18138 0.80329 0.17579
 O329 O 1.05499 0.02956 0.04482
 O330 O 0.93220 -0.02183 0.02491
 O331 O 0.97188 0.07468 0.03220
 O332 O 1.03343 -0.07263 0.00916
 O333 O 0.92740 0.04264 0.01309
 O334 O 1.04806 -0.03139 0.03837
 O335 O 0.98194 -0.04740 0.03738
 O336 O 1.03818 0.07952 0.02448
 C337 C 1.05351 0.06272 0.04554
 C338 C 0.95070 -0.04010 0.04346
 C339 C 0.94002 0.06426 0.03255
 C340 C 1.05119 -0.06341 0.03170
 O341 O 1.06293 -0.02454 -0.02269
 O342 O 0.94451 0.02806 -0.04498
 O343 O 1.02775 0.07536 -0.03284
 O344 O 0.96822 -0.08208 -0.01088
 O345 O 0.94608 -0.03484 -0.03422
 O346 O 1.07111 0.04038 -0.01436
 O347 O 1.01092 -0.04344 -0.03985
 O348 O 0.96077 0.07848 -0.02592
 Co349 Co 1.05465 0.00383 0.01055
 Co350 Co 0.94292 0.00406 -0.00918
 Co351 Co 0.99951 0.07066 -0.00037
 Co352 Co 0.99530 -0.04325 -0.00133
 O353 O 0.99970 0.01111 0.00080
 C354 C 1.04376 -0.03872 -0.04344
 C355 C 0.94629 0.06131 -0.04692
 C356 C 1.05922 0.06364 -0.03334
 C357 C 0.94382 -0.06845 -0.02897
 O358 O 1.06398 0.52860 0.53585
 O359 O 0.92146 0.45960 0.50731
 O360 O 0.96937 0.56339 0.52418
 O361 O 1.02435 0.43952 0.54507
 O362 O 0.94557 0.51281 0.53625
 O363 O 1.07306 0.46258 0.52913
 O364 O 0.96347 0.44535 0.53719
 O365 O 1.03252 0.57102 0.51333
 C366 C 1.05298 0.56026 0.53478
 C367 C 0.93136 0.44224 0.53001
 C368 C 0.95223 0.54464 0.54241
 C369 C 1.05699 0.44417 0.54794
 O370 O 1.06973 0.47028 0.47160
 O371 O 0.90945 0.52456 0.48719
 O372 O 1.01740 0.54927 0.45564
 O373 O 0.96954 0.43079 0.47607
 O374 O 0.94877 0.48227 0.45904
 O375 O 1.06827 0.53778 0.47725
 O376 O 1.03532 0.42504 0.48617
 O377 O 0.95551 0.54677 0.46505
 Co378 Co 1.06249 0.49971 0.50328
 Co379 Co 0.94925 0.49875 0.49765
 Co380 Co 0.99448 0.55235 0.49073
 Co381 Co 0.99826 0.44004 0.51010
 O382 O 1.00357 0.49596 0.50151
 C383 C 1.05978 0.43796 0.46989
 C384 C 0.92241 0.54938 0.46989
 C385 C 1.05046 0.54876 0.45476
 C386 C 0.95421 0.44939 0.45527
 O387 O 0.56488 0.03448 0.52455
 O388 O 0.43078 -0.04998 0.51771
 O389 O 0.45463 0.06059 0.51611
 O390 O 0.54100 -0.07643 0.52134
 O391 O 0.43566 0.01060 0.53283
 O392 O 0.55880 -0.02684 0.53963
 O393 O 0.48023 -0.06992 0.53651
 O394 O 0.51419 0.05452 0.53732
 C395 C 0.54652 0.05071 0.54302
 C396 C 0.44773 -0.06530 0.53895
 C397 C 0.43912 0.04329 0.53602
 C398 C 0.55631 -0.05981 0.54224
 O399 O 0.56729 -0.04698 0.48103
 O400 O 0.43082 0.03251 0.47338
 O401 O 0.54021 0.06288 0.48137
 O402 O 0.45799 -0.07740 0.47788
 O403 O 0.43909 -0.02805 0.45884
 O404 O 0.56095 0.01399 0.46529
 O405 O 0.51838 -0.06866 0.46288
 O406 O 0.48083 0.05447 0.46016
 Co407 Co 0.55682 -0.00645 0.50231
 Co408 Co 0.44023 -0.00861 0.49600
 Co409 Co 0.49755 0.05159 0.49877
 Co410 Co 0.49930 -0.06658 0.49963
 O411 O 0.49849 -0.00750 0.49918
 C412 C 0.55058 -0.06242 0.46010
 C413 C 0.44860 0.04965 0.45461
 C414 C 0.55715 0.04676 0.46205
 C415 C 0.44282 -0.06082 0.45650
 O416 O 0.55708 0.52691 0.04336
 O417 O 0.43467 0.47400 0.02527
 O418 O 0.47376 0.57123 0.02920
 O419 O 0.53625 0.42298 0.01142
 O420 O 0.42951 0.53786 0.01136
 O421 O 0.55070 0.46574 0.03909
 O422 O 0.48454 0.44947 0.03893
 O423 O 0.54006 0.57588 0.02143
 C424 C 0.55538 0.56007 0.04302
 C425 C 0.45311 0.45676 0.04454
 C426 C 0.44199 0.56058 0.02995
 C427 C 0.55394 0.43338 0.03363
 O428 O 0.56546 0.46978 -0.02218
 O429 O 0.44654 0.52068 -0.04612
 O430 O 0.52968 0.56890 -0.03573
 O431 O 0.47114 0.41236 -0.00810
 O432 O 0.44878 0.45827 -0.03320
 O433 O 0.57326 0.53510 -0.01609
 O434 O 0.51354 0.44969 -0.03844
 O435 O 0.46267 0.57212 -0.02894
 Co436 Co 0.55700 0.49964 0.01004
 Co437 Co 0.44526 0.49833 -0.00958
 Co438 Co 0.50146 0.56567 -0.00314
 Co439 Co 0.49798 0.45173 0.00004
 O440 O 0.50198 0.50620 0.00012
 C441 C 0.54625 0.45467 -0.04240
 C442 C 0.44747 0.55388 -0.04895
 C443 C 0.56129 0.55752 -0.03577
 C444 C 0.44675 0.42494 -0.02672
 C445 C 1.16395 0.17751 0.16397
 C446 C 1.14616 0.15920 0.14692
 C447 C 1.12557 0.13782 0.12674
 C448 C 1.10828 0.11979 0.10914
 C449 C 1.08851 0.09913 0.08789
 C450 C 1.07216 0.08207 0.06902
 C451 C 1.14512 0.68148 0.65904
 C452 C 1.12859 0.66483 0.63998
 C453 C 1.11024 0.64469 0.61747
 C454 C 1.09549 0.62679 0.59824
 C455 C 1.07935 0.60485 0.57580
 C456 C 1.06666 0.58512 0.55687
 C457 C 0.64587 0.16598 0.66726
 C458 C 0.62923 0.14685 0.65008
 C459 C 0.61058 0.12482 0.62915
 C460 C 0.59523 0.10654 0.61056
 C461 C 0.57784 0.08594 0.58793
 C462 C 0.56338 0.06925 0.56784
 C463 C 0.66531 0.67566 0.16095
 C464 C 0.64774 0.65746 0.14372
 C465 C 0.62721 0.63632 0.12340
 C466 C 0.60990 0.61843 0.10576
 C467 C 0.59011 0.59775 0.08461
 C468 C 0.57381 0.58035 0.06599
 C469 C 0.85021 -0.13987 0.17257
 C470 C 0.86788 -0.12223 0.15549
 C471 C 0.88757 -0.10224 0.13434
 C472 C 0.90350 -0.08601 0.11524
 C473 C 0.92111 -0.06826 0.09156
 C474 C 0.93519 -0.05448 0.07022
 C475 C 0.81511 0.34638 0.65231
 C476 C 0.83074 0.36113 0.63215
 C477 C 0.84966 0.37815 0.60880
 C478 C 0.86659 0.39262 0.58932
 C479 C 0.88761 0.40965 0.56731
 C480 C 0.90679 0.42438 0.54953
 C481 C 0.33397 -0.15313 0.66702
 C482 C 0.35270 -0.13890 0.64865
 C483 C 0.37425 -0.12275 0.62661
 C484 C 0.39218 -0.10930 0.60731
 C485 C 0.41248 -0.09383 0.58411
 C486 C 0.42907 -0.08077 0.56379
 C487 C 0.34701 0.36384 0.17424
 C488 C 0.36488 0.38079 0.15679
 C489 C 0.38559 0.39953 0.13549
 C490 C 0.40275 0.41452 0.11641
 C491 C 0.42190 0.43080 0.09282
 C492 C 0.43704 0.44345 0.07150
 C493 C 0.83625 0.17562 -0.16868
 C494 C 0.85469 0.15755 -0.15147
 C495 C 0.87561 0.13623 -0.13093
 C496 C 0.89288 0.11817 -0.11289
 C497 C 0.91236 0.09743 -0.09097
 C498 C 0.92829 0.08040 -0.07141
 C499 C 0.82458 0.67126 0.34725
 C500 C 0.83684 0.65277 0.36762
 C501 C 0.85174 0.63101 0.39117
 C502 C 0.86542 0.61232 0.41076
 C503 C 0.88303 0.59033 0.43282
 C504 C 0.89986 0.57156 0.45055
 C505 C 0.34534 0.16542 0.33034
 C506 C 0.36215 0.14587 0.34751
 C507 C 0.38140 0.12359 0.36837
 C508 C 0.39746 0.10524 0.38691
 C509 C 0.41580 0.08468 0.40952
 C510 C 0.43103 0.06808 0.42965
 C511 C 0.32794 0.66595 -0.16576
 C512 C 0.34702 0.64718 -0.14961
 C513 C 0.36935 0.62569 -0.13023
 C514 C 0.38817 0.60792 -0.11309
 C515 C 0.40974 0.58791 -0.09205
 C516 C 0.42749 0.57175 -0.07305
 C517 C 1.14713 -0.14047 -0.16786
 C518 C 1.13010 -0.12250 -0.15098
 C519 C 1.11047 -0.10214 -0.13047
 C520 C 1.09413 -0.08558 -0.11218
 C521 C 1.07561 -0.06743 -0.08963
 C522 C 1.06053 -0.05334 -0.06924
 C523 C 1.16499 0.33701 0.34607
 C524 C 1.14744 0.35044 0.36528
 C525 C 1.12725 0.36644 0.38787
 C526 C 1.11051 0.38079 0.40712
 C527 C 1.09167 0.39882 0.42949
 C528 C 1.07648 0.41569 0.44824
 C529 C 0.65977 -0.14782 0.33133
 C530 C 0.64213 -0.13268 0.34946
 C531 C 0.62180 -0.11615 0.37152
 C532 C 0.60478 -0.10290 0.39103
 C533 C 0.58534 -0.08825 0.41455
 C534 C 0.56919 -0.07627 0.43514
 C535 C 0.64887 0.35672 -0.16951
 C536 C 0.63192 0.37387 -0.15200
 C537 C 0.61239 0.39320 -0.13078
 C538 C 0.59614 0.40893 -0.11195
 C539 C 0.57776 0.42628 -0.08890
 C540 C 0.56283 0.43998 -0.06826
 C541 C 1.17363 0.14756 -0.16164
 C542 C 1.15744 0.13215 -0.14232
 C543 C 1.13813 0.11563 -0.11918
 C544 C 1.12114 0.10262 -0.09920
 C545 C 1.10053 0.08846 -0.07584
 C546 C 1.08213 0.07695 -0.05615
 C547 C 1.15915 0.64957 0.33058
 C548 C 1.14125 0.63261 0.34791
 C549 C 1.12066 0.61325 0.36879
 C550 C 1.10353 0.59728 0.38726
 C551 C 1.08413 0.57936 0.40976
 C552 C 1.06828 0.56487 0.42982
 C553 C 0.66566 0.15600 0.34168
 C554 C 0.64819 0.13914 0.35945
 C555 C 0.62799 0.11935 0.38044
 C556 C 0.61106 0.10250 0.39858
 C557 C 0.59167 0.08286 0.42020
 C558 C 0.57560 0.06625 0.43905
 C559 C 0.67519 0.64450 -0.16343
 C560 C 0.65922 0.62851 -0.14422
 C561 C 0.64013 0.61117 -0.12126
 C562 C 0.62328 0.59746 -0.10144
 C563 C 0.60276 0.58257 -0.07823
 C564 C 0.58436 0.57073 -0.05861
 C565 C 0.84108 -0.18045 -0.15337
 C566 C 0.85577 -0.16436 -0.13305
 C567 C 0.87313 -0.14545 -0.10939
 C568 C 0.88833 -0.12895 -0.08959
 C569 C 0.90676 -0.10893 -0.06716
 C570 C 0.92322 -0.09099 -0.04900
 C571 C 0.85253 0.33802 0.32998
 C572 C 0.87052 0.35660 0.34673
 C573 C 0.89082 0.37797 0.36721
 C574 C 0.90730 0.39571 0.38559
 C575 C 0.92537 0.41567 0.40838
 C576 C 0.93946 0.43176 0.42905
 C577 C 0.34152 -0.17144 0.32971
 C578 C 0.35835 -0.15373 0.34790
 C579 C 0.37750 -0.13326 0.36970
 C580 C 0.39335 -0.11607 0.38879
 C581 C 0.41130 -0.09632 0.41174
 C582 C 0.42603 -0.07985 0.43186
 C583 C 0.34625 0.31223 -0.15103
 C584 C 0.36094 0.32736 -0.13025
 C585 C 0.37798 0.34569 -0.10621
 C586 C 0.39277 0.36218 -0.08624
 C587 C 0.41063 0.38266 -0.06391
 C588 C 0.42664 0.40131 -0.04606
 C589 C 1.16047 -0.17872 0.15230
 C590 C 1.14322 -0.16349 0.13254
 C591 C 1.12329 -0.14507 0.10958
 C592 C 1.10646 -0.12846 0.09038
 C593 C 1.08696 -0.10763 0.06866
 C594 C 1.07049 -0.08836 0.05108
 C595 C 1.17015 0.33495 0.67018
 C596 C 1.15247 0.35351 0.65291
 C597 C 1.13177 0.37448 0.63215
 C598 C 1.11419 0.39168 0.61384
 C599 C 1.09384 0.41092 0.59168
 C600 C 1.07678 0.42656 0.57207
 C601 C 0.66811 -0.17183 0.66440
 C602 C 0.65012 -0.15373 0.64691
 C603 C 0.62920 -0.13288 0.62606
 C604 C 0.61164 -0.11543 0.60781
 C605 C 0.59156 -0.09546 0.58579
 C606 C 0.57503 -0.07888 0.56633
 C607 C 0.66188 0.32177 0.15792
 C608 C 0.64458 0.33658 0.13794
 C609 C 0.62481 0.35450 0.11456
 C610 C 0.60825 0.37062 0.09486
 C611 C 0.58913 0.39077 0.07241
 C612 C 0.57298 0.40935 0.05406
 C613 C 0.83331 0.15194 0.16222
 C614 C 0.84800 0.13681 0.14222
 C615 C 0.86542 0.11988 0.11851
 C616 C 0.88086 0.10610 0.09825
 C617 C 0.89994 0.09074 0.07473
 C618 C 0.91743 0.07828 0.05508
 C619 C 0.85381 0.64489 0.66984
 C620 C 0.87148 0.62804 0.65271
 C621 C 0.89134 0.60877 0.63177
 C622 C 0.90736 0.59285 0.61297
 C623 C 0.92477 0.57497 0.58975
 C624 C 0.93824 0.56055 0.56878
 C625 C 0.34247 0.14611 0.66349
 C626 C 0.35814 0.12965 0.64485
 C627 C 0.37605 0.11074 0.62260
 C628 C 0.39100 0.09487 0.60322
 C629 C 0.40811 0.07661 0.58014
 C630 C 0.42242 0.06127 0.56012
 C631 C 0.33330 0.65079 0.15707
 C632 C 0.34858 0.63557 0.13747
 C633 C 0.36654 0.61840 0.11423
 C634 C 0.38232 0.60429 0.09435
 C635 C 0.40169 0.58842 0.07129
 C636 C 0.41934 0.57541 0.05202
   
