data_POSCAR
  _audit_creation_date              2014-09-24
  _audit_creation_method            'ToBaCCo'
  _symmetry_space_group_name_H-M    'P1'
  _symmetry_Int_Tables_number       1
  _symmetry_cell_setting            triclinic
  loop_
  _symmetry_equiv_pos_as_xyz
 x,y,z
_cell_length_a 17.2149
_cell_length_b 17.1309
_cell_length_c 17.3026
_cell_angle_alpha 97.194100
_cell_angle_beta 89.231200
_cell_angle_gamma 92.361200
loop_
  _atom_site_label
  _atom_site_type_symbol
  _atom_site_fract_x
  _atom_site_fract_y
  _atom_site_fract_z
O1 O 0.58798 0.48488 0.05395
 O2 O 0.37768 0.45619 0.03148
 O3 O 0.49235 0.36397 0.04486
 O4 O 0.47762 0.57553 0.02686
 O5 O 0.49147 0.54948 -0.10073
 O6 O 0.50719 0.33916 -0.08278
 O7 O 0.39140 0.42934 -0.09608
 O8 O 0.60530 0.45994 -0.07335
 Cu9 Cu 0.48194 0.47289 0.05182
 Cu10 Cu 0.50021 0.44246 -0.10106
 C11 C 0.63267 0.47693 -0.00507
 C12 C 0.34864 0.43638 -0.03524
 C13 C 0.50271 0.31567 -0.01623
 C14 C 0.48289 0.59841 -0.04016
 O15 O 0.07442 0.68680 0.54297
 O16 O 0.13239 0.48143 0.48984
 O17 O 0.08562 0.59054 0.41015
 O18 O 0.13354 0.57879 0.61498
 O19 O 0.01221 0.53976 0.63726
 O20 O -0.03437 0.54682 0.43075
 O21 O 0.01174 0.44054 0.51254
 O22 O -0.04651 0.64402 0.56076
 Cu23 Cu 0.11826 0.58950 0.51143
 Cu24 Cu -0.02656 0.53927 0.53695
 C25 C 0.00430 0.69968 0.56298
 C26 C 0.08184 0.42602 0.49468
 C27 C 0.01855 0.56826 0.38493
 C28 C 0.08150 0.55609 0.66059
 O29 O 0.47381 0.01071 0.61023
 O30 O 0.52097 0.06994 0.41814
 O31 O 0.40274 0.05737 0.49970
 O32 O 0.60700 0.00982 0.52189
 O33 O 0.58104 -0.11312 0.47176
 O34 O 0.37673 -0.06546 0.44771
 O35 O 0.50037 -0.05332 0.36500
 O36 O 0.45253 -0.11266 0.55797
 Cu37 Cu 0.50761 0.04767 0.51887
 Cu38 Cu 0.47691 -0.09894 0.45538
 C39 C 0.45093 -0.05967 0.61616
 C40 C 0.51502 0.01906 0.35855
 C41 C 0.35507 0.00381 0.46944
 C42 C 0.62902 -0.05929 0.49973
 C43 C 0.44150 -0.19090 -0.18861
 C44 C 0.42750 -0.11199 -0.19381
 C45 C 0.44416 -0.05459 -0.13076
 C46 C 0.47856 -0.07446 -0.06270
 C47 C 0.49340 -0.15446 -0.05917
 C48 C 0.47223 -0.21281 -0.12058
 C49 C 0.49423 -0.01312 0.00578
 C50 C 0.49556 -0.03432 0.08189
 C51 C 0.50795 0.02220 0.14642
 C52 C 0.51554 0.10208 0.13618
 C53 C 0.51210 0.12522 0.06180
 C54 C 0.50416 0.06753 -0.00342
 H55 H 0.42456 -0.23567 -0.23591
 H56 H 0.42723 0.00482 -0.13482
 H57 H 0.52092 -0.17243 -0.00887
 H58 H 0.48469 -0.09461 0.09266
 H59 H 0.52168 0.14674 0.18610
 H60 H 0.50455 0.08620 -0.06079
 C61 C -0.15858 0.52641 1.17265
 C62 C -0.17874 0.51194 1.09412
 C63 C -0.12012 0.50581 1.03682
 C64 C -0.04117 0.51469 1.05799
 C65 C -0.02202 0.53017 1.13763
 C66 C -0.08086 0.53555 1.19509
 C67 C 0.02083 0.50499 0.99711
 C68 C 0.08723 0.46289 1.00869
 C69 C 0.14448 0.45115 0.95054
 C70 C 0.13537 0.48106 0.87960
 C71 C 0.06778 0.52056 0.86599
 C72 C 0.01165 0.53316 0.92499
 H73 H -0.20392 0.52971 1.21686
 H74 H -0.13601 0.49216 0.97617
 H75 H 0.03836 0.53700 1.15487
 H76 H 0.09349 0.43663 1.06195
 H77 H 0.17776 0.46824 0.83342
 H78 H -0.03992 0.56393 0.91372
 C79 C -0.13510 -0.09891 0.55524
 C80 C -0.05677 -0.10589 0.57247
 C81 C -0.00128 -0.05028 0.55192
 C82 C -0.02265 0.01228 0.51209
 C83 C -0.10182 0.01880 0.49531
 C84 C -0.15806 -0.03581 0.51744
 C85 C 0.03717 0.07263 0.49291
 C86 C 0.01884 0.15222 0.49506
 C87 C 0.07664 0.20991 0.48445
 C88 C 0.15419 0.18855 0.47344
 C89 C 0.17357 0.10999 0.47130
 C90 C 0.11477 0.05200 0.47832
 H91 H -0.17812 -0.14038 0.57445
 H92 H 0.05809 -0.05478 0.57017
 H93 H -0.12053 0.06643 0.46530
 H94 H -0.03973 0.17069 0.50831
 H95 H 0.20000 0.23307 0.46901
 H96 H 0.13028 -0.00885 0.47544
 N97 N -0.28529 0.48668 1.00617
 N98 N -0.25947 0.50178 1.07526
 N99 N 0.27423 0.41843 0.95992
 N100 N 0.20471 0.39822 0.95979
 N101 N -0.01528 -0.22936 0.59042
 N102 N -0.03448 -0.16364 0.61951
 N103 N 0.10484 0.34640 0.48270
 N104 N 0.05582 0.29050 0.49149
 N105 N 0.41951 -0.07653 -0.31860
 N106 N 0.38603 -0.09143 -0.25854
 N107 N 0.52091 0.04470 0.28342
 N108 N 0.50719 -0.00289 0.22226
 N109 N 0.47906 -0.31962 -0.04689
 N110 N 0.47694 -0.29486 -0.11317
 N111 N 0.50787 0.23356 -0.01084
 N112 N 0.51130 0.20772 0.05477
 N113 N -0.29117 -0.07670 0.50626
 N114 N -0.23846 -0.02239 0.50643
 N115 N 0.27545 0.02082 0.46212
 N116 N 0.25387 0.09150 0.47074
 N117 N 0.00368 0.56442 1.30344
 N118 N -0.06385 0.54535 1.27668
 N119 N 0.10217 0.54560 0.73810
 N120 N 0.05014 0.53943 0.79004
   
