data_POSCAR
  _audit_creation_date              2014-09-24
  _audit_creation_method            'ToBaCCo'
  _symmetry_space_group_name_H-M    'P1'
  _symmetry_Int_Tables_number       1
  _symmetry_cell_setting            triclinic
  loop_
  _symmetry_equiv_pos_as_xyz
 x,y,z
_cell_length_a 29.3818
_cell_length_b 29.5594
_cell_length_c 28.5147
_cell_angle_alpha 90.021200
_cell_angle_beta 90.006800
_cell_angle_gamma 119.814500
loop_
  _atom_site_label
  _atom_site_type_symbol
  _atom_site_fract_x
  _atom_site_fract_y
  _atom_site_fract_z
C1 C 0.06229 0.48887 0.08248
 C2 C 0.07564 0.53670 0.10346
 C3 C 0.06242 0.57171 0.08316
 C4 C 0.03388 0.55806 0.04056
 C5 C 0.01711 0.50841 0.02025
 C6 C 0.03384 0.47501 0.03985
 C7 C 0.02466 0.43060 0.01449
 C8 C -0.00559 0.41611 -0.02606
 C9 C -0.03034 0.44374 -0.04173
 C10 C -0.01524 0.49274 -0.02053
 C11 C 0.02461 0.59374 0.01594
 C12 C -0.00583 0.57889 -0.02450
 C13 C -0.03046 0.52708 -0.04089
 C14 C -0.06601 0.50994 -0.07938
 C15 C -0.08188 0.46040 -0.09855
 C16 C -0.06591 0.42631 -0.08025
 H17 H 0.04220 0.40750 0.02480
 H18 H -0.00766 0.38392 -0.04570
 H19 H 0.04218 0.63404 0.02675
 H20 H -0.00811 0.60927 -0.04349
 H21 H 0.09578 0.54643 0.13693
 H22 H -0.11126 0.44607 -0.12581
 C23 C 0.50686 0.56490 0.08488
 C24 C 0.45784 0.53067 0.10412
 C25 C 0.42367 0.48274 0.08329
 C26 C 0.43837 0.46876 0.04076
 C27 C 0.48785 0.50320 0.02024
 C28 C 0.52229 0.55132 0.04249
 C29 C 0.57095 0.58449 0.02155
 C30 C 0.58651 0.57009 -0.01910
 C31 C 0.55240 0.52396 -0.04333
 C32 C 0.50281 0.48955 -0.02274
 C33 C 0.40477 0.42173 0.01782
 C34 C 0.42025 0.40738 -0.02289
 C35 C 0.46860 0.44093 -0.04430
 C36 C 0.48433 0.42657 -0.08593
 C37 C 0.53363 0.46022 -0.10505
 C38 C 0.56751 0.50942 -0.08573
 H39 H 0.59808 0.62203 0.03633
 H40 H 0.62640 0.59537 -0.03023
 H41 H 0.36597 0.39519 0.03092
 H42 H 0.39373 0.36921 -0.03691
 H43 H 0.44682 0.54079 0.13713
 H44 H 0.54398 0.44908 -0.13783
 C45 C 0.41792 0.93226 0.07833
 C46 C 0.44809 0.91003 0.09271
 C47 C 0.49637 0.92332 0.07214
 C48 C 0.51494 0.95940 0.03445
 C49 C 0.48468 0.98187 0.01864
 C50 C 0.43709 0.96977 0.04174
 C51 C 0.41168 0.99759 0.02906
 C52 C 0.42850 1.03127 -0.00917
 C53 C 0.47209 1.03942 -0.03600
 C54 C 0.50286 1.01780 -0.01953
 C55 C 0.56338 0.97468 0.01277
 C56 C 0.58050 1.00879 -0.02502
 C57 C 0.55194 1.03233 -0.04079
 C58 C 0.57093 1.06995 -0.07716
 C59 C 0.53871 1.08856 -0.09438
 C60 C 0.48831 1.07199 -0.07641
 H61 H 0.37930 0.99486 0.04922
 H62 H 0.40815 1.05257 -0.01620
 H63 H 0.58933 0.96117 0.02480
 H64 H 0.61637 1.01589 -0.04182
 H65 H 0.43318 0.88063 0.11997
 H66 H 0.55299 1.11522 -0.12367
 C67 C 0.94918 0.51448 0.59360
 C68 C 0.93329 0.46511 0.61235
 C69 C 0.94720 0.43075 0.59171
 C70 C 0.97702 0.44559 0.54976
 C71 C 0.99284 0.49521 0.52956
 C72 C 0.97930 0.52994 0.55180
 C73 C 0.99591 0.57887 0.53135
 C74 C 1.02615 0.59406 0.49085
 C75 C 1.03745 0.55948 0.46631
 C76 C 1.02184 0.50993 0.48675
 C77 C 0.99072 0.41193 0.52699
 C78 C 1.02095 0.42717 0.48650
 C79 C 1.03589 0.47535 0.46502
 C80 C 1.06565 0.49046 0.42312
 C81 C 1.08156 0.53971 0.40411
 C82 C 1.06664 0.57401 0.42365
 H83 H 0.98610 0.60645 0.54634
 H84 H 1.04143 0.63396 0.47995
 H85 H 0.97828 0.37322 0.54000
 H86 H 1.03272 0.40056 0.47263
 H87 H 0.91098 0.45383 0.64473
 H88 H 1.10261 0.54958 0.37112
 C89 C 0.49143 0.43216 0.58258
 C90 C 0.54017 0.46655 0.60242
 C91 C 0.57422 0.51501 0.58223
 C92 C 0.55948 0.52957 0.54000
 C93 C 0.51049 0.49491 0.51885
 C94 C 0.47646 0.44599 0.54008
 C95 C 0.42891 0.41194 0.51770
 C96 C 0.41370 0.42639 0.47688
 C97 C 0.44685 0.47415 0.45474
 C98 C 0.49573 0.50895 0.47602
 C99 C 0.59267 0.57729 0.51782
 C100 C 0.57725 0.59196 0.47720
 C101 C 0.52953 0.55807 0.45499
 C102 C 0.51409 0.57221 0.41290
 C103 C 0.46561 0.53743 0.39275
 C104 C 0.43209 0.48858 0.41248
 H105 H 0.40274 0.37341 0.53113
 H106 H 0.37529 0.39945 0.46328
 H107 H 0.63117 0.60410 0.53133
 H108 H 0.60345 0.63047 0.46375
 H109 H 0.55109 0.45611 0.63530
 H110 H 0.45441 0.54796 0.36007
 C111 C 0.57365 0.05959 0.58171
 C112 C 0.54104 0.07727 0.59998
 C113 C 0.49454 0.06731 0.57774
 C114 C 0.48074 0.04000 0.53461
 C115 C 0.51154 0.01917 0.51661
 C116 C 0.55847 0.02940 0.53995
 C117 C 0.58900 0.00976 0.52042
 C118 C 0.57295 -0.02087 0.48014
 C119 C 0.52737 -0.03055 0.45557
 C120 C 0.49551 -0.01151 0.47485
 C121 C 0.43861 0.03522 0.50770
 C122 C 0.42296 0.00515 0.46717
 C123 C 0.44767 -0.02281 0.45257
 C124 C 0.42806 -0.05895 0.41465
 C125 C 0.46104 -0.07620 0.39576
 C126 C 0.51122 -0.06085 0.41374
 H127 H 0.62567 0.01752 0.53596
 H128 H 0.59629 -0.03803 0.46951
 H129 H 0.41793 0.05564 0.51711
 H130 H 0.39217 0.00546 0.44673
 H131 H 0.55139 0.09793 0.63315
 H132 H 0.44779 -0.10171 0.36572
 O133 O 0.23600 0.38253 0.29623
 O134 O 0.14519 0.38221 0.20638
 O135 O 0.23318 0.38012 0.20576
 O136 O 0.14627 0.38280 0.29769
 O137 O 0.19096 0.46892 0.29729
 O138 O 0.27641 0.46630 0.20471
 O139 O 0.18949 0.46835 0.20601
 O140 O 0.27917 0.46869 0.29544
 Cu141 Cu 0.18554 0.37316 0.25180
 Cu142 Cu 0.23828 0.47668 0.25085
 C143 C 0.27360 0.42583 0.31038
 C144 C 0.15222 0.42552 0.19089
 C145 C 0.26983 0.42294 0.18990
 C146 C 0.15372 0.42635 0.31289
 O147 O 0.61024 0.75783 0.20286
 O148 O 0.61152 0.85325 0.28679
 O149 O 0.61175 0.76369 0.29208
 O150 O 0.60419 0.84136 0.19393
 O151 O 0.51789 0.80042 0.20118
 O152 O 0.52516 0.71946 0.29503
 O153 O 0.52521 0.80753 0.29212
 O154 O 0.52352 0.71541 0.20430
 Cu155 Cu 0.61827 0.80942 0.24408
 Cu156 Cu 0.51434 0.75654 0.24865
 C157 C 0.56656 0.72033 0.18941
 C158 C 0.56875 0.84634 0.30418
 C159 C 0.56938 0.72688 0.30885
 C160 C 0.55951 0.83342 0.18063
 O161 O 0.14545 0.75961 0.29870
 O162 O 0.23077 0.84817 0.20586
 O163 O 0.14409 0.75924 0.20821
 O164 O 0.23285 0.84875 0.29916
 O165 O 0.27912 0.80844 0.29692
 O166 O 0.19087 0.71943 0.20675
 O167 O 0.27763 0.80842 0.20664
 O168 O 0.19160 0.71916 0.29799
 Cu169 Cu 0.18410 0.80860 0.25318
 Cu170 Cu 0.23935 0.75975 0.25209
 C171 C 0.15362 0.72380 0.31358
 C172 C 0.26838 0.84292 0.19027
 C173 C 0.15241 0.72388 0.19228
 C174 C 0.27096 0.84357 0.31349
 O175 O 0.85563 0.61618 0.71146
 O176 O 0.75836 0.61448 0.79435
 O177 O 0.84465 0.61236 0.80309
 O178 O 0.76558 0.61665 0.70437
 O179 O 0.72173 0.53053 0.70258
 O180 O 0.80456 0.52651 0.79674
 O181 O 0.71679 0.52833 0.79339
 O182 O 0.81004 0.53030 0.70630
 Cu183 Cu 0.81092 0.62374 0.75307
 Cu184 Cu 0.75895 0.52031 0.74940
 C185 C 0.84946 0.57355 0.69495
 C186 C 0.72118 0.57089 0.80818
 C187 C 0.83801 0.56851 0.81642
 C188 C 0.72895 0.57410 0.68790
 O189 O 0.38571 0.23876 0.70074
 O190 O 0.38393 0.14981 0.79263
 O191 O 0.38265 0.23747 0.79092
 O192 O 0.38653 0.15008 0.70057
 O193 O 0.47314 0.19413 0.70231
 O194 O 0.46933 0.28016 0.79313
 O195 O 0.47055 0.19340 0.79387
 O196 O 0.47238 0.28171 0.70245
 Cu197 Cu 0.37591 0.18925 0.74582
 Cu198 Cu 0.48002 0.24147 0.74802
 C199 C 0.42941 0.27602 0.68679
 C200 C 0.42716 0.15705 0.80925
 C201 C 0.42555 0.27398 0.80703
 C202 C 0.43055 0.15740 0.68601
 O203 O 0.76163 0.14611 0.70879
 O204 O 0.84646 0.23662 0.80097
 O205 O 0.76090 0.15129 0.80081
 O206 O 0.85226 0.23693 0.70969
 O207 O 0.80763 0.27869 0.70416
 O208 O 0.71587 0.19264 0.79393
 O209 O 0.80395 0.28055 0.79468
 O210 O 0.71969 0.19049 0.70285
 Cu211 Cu 0.80970 0.18811 0.75448
 Cu212 Cu 0.75733 0.23970 0.74815
 C213 C 0.72569 0.15250 0.69070
 C214 C 0.83881 0.27338 0.81397
 C215 C 0.72361 0.15848 0.81352
 C216 C 0.84626 0.27327 0.69242
 N217 N 0.06992 0.38596 0.14325
 N218 N 0.04607 0.40267 0.11451
 C219 C 0.07752 0.45432 0.10749
 C220 C 0.12299 0.47109 0.13337
 C221 C 0.11658 0.42678 0.15553
 H222 H 0.15527 0.51055 0.13724
 H223 H 0.05337 0.34781 0.15578
 H224 H 0.00784 0.37948 0.10211
 N225 N 0.60654 0.67326 0.15009
 N226 N 0.59092 0.63200 0.12278
 C227 C 0.54031 0.61390 0.11097
 C228 C 0.52270 0.64426 0.13280
 C229 C 0.56586 0.68144 0.15703
 H230 H 0.48346 0.63886 0.13245
 H231 H 0.64367 0.69378 0.16541
 H232 H 0.61390 0.61520 0.11455
 N233 N 0.28235 0.88237 0.11095
 N234 N 0.32146 0.90445 0.08060
 C235 C 0.36634 0.91378 0.10202
 C236 C 0.35451 0.89540 0.14773
 C237 C 0.30118 0.87600 0.15190
 H238 H 0.38042 0.89360 0.17371
 H239 H 0.24296 0.86831 0.10255
 H240 H 0.31639 0.90929 0.04507
 N241 N 0.93840 0.61347 0.65853
 N242 N 0.96508 0.59783 0.63224
 C243 C 0.93284 0.54798 0.61907
 C244 C 0.88388 0.53098 0.63879
 C245 C 0.88900 0.57361 0.66334
 H246 H 0.84993 0.49226 0.63716
 H247 H 0.95461 0.64993 0.67474
 H248 H 1.00527 0.62019 0.62566
 N249 N 0.38986 0.32208 0.64486
 N250 N 0.40626 0.36379 0.61801
 C251 C 0.45747 0.38273 0.60806
 C252 C 0.47456 0.35233 0.63058
 C253 C 0.43052 0.31428 0.65331
 H254 H 0.51401 0.35832 0.63182
 H255 H 0.35218 0.30110 0.65902
 H256 H 0.38325 0.38028 0.60881
 N257 N 0.67949 0.06571 0.65075
 N258 N 0.63892 0.04077 0.62218
 C259 C 0.62277 0.07408 0.60804
 C260 C 0.65401 0.12194 0.62935
 C261 C 0.68931 0.11504 0.65610
 H262 H 0.64955 0.15613 0.62788
 H263 H 0.69788 0.04822 0.66842
 H264 H 0.62073 0.00085 0.61520
 N265 N 0.38521 0.08041 0.86326
 N266 N 0.40255 0.05711 0.89597
 C267 C 0.45541 0.08641 0.89899
 C268 C 0.47218 0.12841 0.86824
 C269 C 0.42765 0.12309 0.84667
 H270 H 0.51192 0.15905 0.86143
 H271 H 0.34640 0.06525 0.85232
 H272 H 0.37867 0.02001 0.90997
 N273 N 0.67939 0.61161 0.85502
 N274 N 0.63634 0.59441 0.88496
 C275 C 0.61440 0.54218 0.88958
 C276 C 0.64220 0.52534 0.86189
 C277 C 0.68238 0.56961 0.84141
 H278 H 0.63447 0.48579 0.85724
 H279 H 0.70320 0.65011 0.84406
 H280 H 0.62102 0.61774 0.89626
 N281 N 0.87793 0.28950 0.89344
 N282 N 0.90320 0.33200 0.92371
 C283 C 0.91151 0.37529 0.90031
 C284 C 0.88959 0.36039 0.85557
 C285 C 0.86964 0.30714 0.85279
 H286 H 0.88823 0.38481 0.82798
 H287 H 0.86438 0.25067 0.90262
 H288 H 0.90736 0.32827 0.95963
 N289 N 0.61202 0.92780 0.35224
 N290 N 0.59581 0.95341 0.38349
 C291 C 0.54322 0.92399 0.38865
 C292 C 0.52533 0.87985 0.36040
 C293 C 0.56913 0.88362 0.33858
 H294 H 0.48535 0.84852 0.35598
 H295 H 0.65046 0.94208 0.34057
 H296 H 0.61999 0.99147 0.39537
 N297 N 0.32149 0.38696 0.35048
 N298 N 0.36398 0.40366 0.37674
 C299 C 0.38222 0.45428 0.38745
 C300 C 0.35054 0.47064 0.36615
 C301 C 0.31253 0.42687 0.34325
 H302 H 0.35578 0.50957 0.36568
 H303 H 0.30085 0.34971 0.33580
 H304 H 0.38145 0.38135 0.38498
 N305 N 0.07365 0.68432 0.36378
 N306 N 0.04927 0.64235 0.39472
 C307 C 0.07994 0.62038 0.39860
 C308 C 0.12344 0.64721 0.36947
 C309 C 0.11820 0.68674 0.34881
 H310 H 0.15509 0.63907 0.36374
 H311 H 0.05813 0.70761 0.35290
 H312 H 0.01100 0.62750 0.40706
 N313 N 0.87704 0.59098 0.89616
 N314 N 0.90266 0.57338 0.92597
 C315 C 0.91140 0.53892 0.90192
 C316 C 0.88971 0.53281 0.85725
 C317 C 0.86916 0.56581 0.85518
 H318 H 0.88872 0.50763 0.82922
 H319 H 0.86297 0.61586 0.90586
 H320 H 0.90674 0.58067 0.96198
 N321 N 0.38448 0.31907 0.84815
 N322 N 0.40006 0.35982 0.87614
 C323 C 0.45051 0.37740 0.88829
 C324 C 0.46792 0.34706 0.86627
 C325 C 0.42502 0.31069 0.84124
 H326 H 0.50717 0.35248 0.86640
 H327 H 0.34771 0.29941 0.83205
 H328 H 0.37733 0.37690 0.88436
 N329 N 0.70862 0.12701 0.89562
 N330 N 0.66869 0.10516 0.92510
 C331 C 0.62386 0.09105 0.90128
 C332 C 0.63641 0.10632 0.85483
 C333 C 0.69024 0.12856 0.85281
 H334 H 0.61042 0.10368 0.82674
 H335 H 0.74798 0.14377 0.90544
 H336 H 0.67282 0.10319 0.96130
 N337 N 0.06922 0.38853 0.35663
 N338 N 0.04563 0.40547 0.38539
 C339 C 0.07944 0.45565 0.39653
 C340 C 0.12616 0.47148 0.37284
 C341 C 0.11805 0.42788 0.34807
 H342 H 0.16037 0.51007 0.37193
 H343 H 0.05106 0.35159 0.34120
 H344 H 0.00614 0.38376 0.39486
 N345 N 0.61270 0.68415 0.35039
 N346 N 0.59800 0.64266 0.37722
 C347 C 0.54690 0.62257 0.38835
 C348 C 0.52822 0.65214 0.36683
 C349 C 0.57105 0.69071 0.34320
 H350 H 0.48826 0.64477 0.36619
 H351 H 0.64972 0.70548 0.33502
 H352 H 0.62188 0.62681 0.38523
 N353 N 0.29040 0.88976 0.39009
 N354 N 0.33424 0.91549 0.41919
 C355 C 0.37656 0.92039 0.39573
 C356 C 0.35958 0.89632 0.35205
 C357 C 0.30625 0.87805 0.35004
 H358 H 0.38236 0.89159 0.32469
 H359 H 0.25179 0.87751 0.40007
 H360 H 0.33170 0.92196 0.45483
 N361 N 0.56705 0.85486 0.09591
 N362 N 0.54864 0.87670 0.06674
 C363 C 0.52566 0.89858 0.09190
 C364 C 0.52818 0.88849 0.13907
 C365 C 0.55517 0.86133 0.14006
 H366 H 0.51073 0.89755 0.16843
 H367 H 0.58420 0.83285 0.08547
 H368 H 0.54906 0.87360 0.03027
 N369 N 0.31378 0.38214 0.14632
 N370 N 0.35483 0.39795 0.11836
 C371 C 0.37360 0.44872 0.10800
 C372 C 0.34365 0.46601 0.13110
 C373 C 0.30634 0.42278 0.15496
 H374 H 0.35003 0.50535 0.13254
 H375 H 0.29332 0.34504 0.16129
 H376 H 0.37138 0.37507 0.10907
 N377 N 0.06986 0.68140 0.14521
 N378 N 0.04600 0.64124 0.11636
 C379 C 0.07758 0.62091 0.10890
 C380 C 0.12317 0.64907 0.13474
 C381 C 0.11669 0.68690 0.15720
 H382 H 0.15563 0.64174 0.13822
 H383 H 0.05327 0.70310 0.15790
 H384 H 0.00774 0.62663 0.10406
 N385 N 0.39110 0.07784 0.63553
 N386 N 0.40792 0.05415 0.60680
 C387 C 0.46045 0.08380 0.60221
 C388 C 0.47769 0.12795 0.62983
 C389 C 0.43262 0.12261 0.65033
 H390 H 0.51768 0.15864 0.63573
 H391 H 0.35216 0.06240 0.64619
 H392 H 0.38397 0.01710 0.59264
 N393 N 0.68476 0.61523 0.64527
 N394 N 0.64315 0.59948 0.61800
 C395 C 0.62441 0.54885 0.60701
 C396 C 0.65497 0.53158 0.62904
 C397 C 0.69268 0.57471 0.65287
 H398 H 0.64867 0.49226 0.62995
 H399 H 0.70513 0.65210 0.66072
 H400 H 0.62622 0.62226 0.60966
 N401 N 0.93371 0.31807 0.65300
 N402 N 0.96072 0.36008 0.62681
 C403 C 0.92960 0.38002 0.61560
 C404 C 0.88101 0.34975 0.63632
 C405 C 0.88520 0.31096 0.65962
 H406 H 0.84812 0.35667 0.63653
 H407 H 0.94928 0.29651 0.66811
 H408 H 1.00057 0.37625 0.61914
   
