data_POSCAR
  _audit_creation_date              2014-09-24
  _audit_creation_method            'ToBaCCo'
  _symmetry_space_group_name_H-M    'P1'
  _symmetry_Int_Tables_number       1
  _symmetry_cell_setting            triclinic
  loop_
  _symmetry_equiv_pos_as_xyz
 x,y,z
_cell_length_a 30.1663
_cell_length_b 29.7639
_cell_length_c 33.6379
_cell_angle_alpha 89.061900
_cell_angle_beta 89.832800
_cell_angle_gamma 89.893300
loop_
  _atom_site_label
  _atom_site_type_symbol
  _atom_site_fract_x
  _atom_site_fract_y
  _atom_site_fract_z
C1 C 1.24676 0.25493 0.24752
 C2 C 0.74219 -0.24570 0.25256
 C3 C 0.73771 0.24322 -0.25495
 C4 C 1.24102 -0.25495 -0.24544
 C5 C 0.25951 0.25220 0.74977
 C6 C 0.76235 0.75482 0.74841
 C7 C 0.75938 0.25010 0.25310
 C8 C 0.25008 0.74758 0.24936
 O9 O 1.08567 0.05964 0.02144
 O10 O 0.91486 -0.05175 0.02449
 O11 O 0.95041 0.08624 0.02935
 O12 O 1.04974 -0.07753 0.03609
 O13 O 0.92500 0.02290 0.05006
 O14 O 1.07869 -0.01497 0.05237
 O15 O 0.97439 -0.06871 0.05284
 O16 O 1.02545 0.08470 0.04418
 C17 C 1.06585 0.08072 0.04754
 C18 C 0.93370 -0.06963 0.05340
 C19 C 0.93123 0.06335 0.05590
 C20 C 1.07142 -0.05508 0.06046
 O21 O 1.08780 -0.04986 -0.02022
 O22 O 0.91282 0.05567 -0.02333
 O23 O 1.04683 0.08676 -0.03558
 O24 O 0.95367 -0.08038 -0.02789
 O25 O 0.92656 -0.01866 -0.04990
 O26 O 1.07949 0.02471 -0.04997
 O27 O 1.02776 -0.07430 -0.04322
 O28 O 0.97130 0.07654 -0.05156
 Co29 Co 1.07461 0.00464 0.00097
 Co30 Co 0.92844 0.00216 0.00027
 Co31 Co 0.99853 0.07627 -0.00325
 Co32 Co 1.00119 -0.06798 0.00434
 O33 O 1.00103 0.00386 0.00056
 C34 C 1.06810 -0.07055 -0.04654
 C35 C 0.93061 0.07452 -0.05231
 C36 C 1.07171 0.06477 -0.05813
 C37 C 0.93428 -0.05898 -0.05515
 O38 O 1.08593 0.55295 0.52369
 O39 O 0.91152 0.44705 0.52254
 O40 O 0.95156 0.58317 0.52875
 O41 O 1.04568 0.41613 0.53572
 O42 O 0.92379 0.52132 0.54994
 O43 O 1.07622 0.47804 0.55267
 O44 O 0.97000 0.42558 0.55051
 O45 O 1.02502 0.57698 0.54541
 C46 C 1.06517 0.57318 0.54981
 C47 C 0.92929 0.42676 0.55078
 C48 C 0.93167 0.56153 0.55564
 C49 C 1.06890 0.43768 0.55976
 O50 O 1.08568 0.44395 0.48059
 O51 O 0.91413 0.55521 0.47560
 O52 O 1.04957 0.58115 0.46647
 O53 O 0.95087 0.41769 0.46968
 O54 O 0.92512 0.48107 0.44951
 O55 O 1.07907 0.51849 0.45081
 O56 O 1.02633 0.42063 0.45551
 O57 O 0.97443 0.57304 0.44851
 Co58 Co 1.07347 0.49861 0.50176
 Co59 Co 0.92727 0.50102 0.49960
 Co60 Co 1.00006 0.57140 0.49733
 Co61 Co 0.99824 0.42725 0.50276
 O62 O 1.00000 0.49953 0.50042
 C63 C 1.06687 0.42414 0.45324
 C64 C 0.93374 0.57413 0.44752
 C65 C 1.07158 0.55840 0.44236
 C66 C 0.93195 0.44083 0.44325
 O67 O 0.56230 0.01901 0.54741
 O68 O 0.40737 -0.05840 0.52639
 O69 O 0.44884 0.08248 0.51777
 O70 O 0.54086 -0.06312 0.55057
 O71 O 0.40933 0.02491 0.53960
 O72 O 0.59337 -0.04796 0.51262
 O73 O 0.46662 -0.07192 0.55755
 O74 O 0.52881 0.07962 0.53168
 C75 C 0.55290 0.05826 0.55552
 C76 C 0.42592 -0.07286 0.55673
 C77 C 0.42023 0.06561 0.54161
 C78 C 0.58080 -0.06752 0.54346
 O79 O 0.56016 -0.02185 0.44644
 O80 O 0.40734 0.03988 0.46426
 O81 O 0.54464 0.05951 0.45356
 O82 O 0.45709 -0.09696 0.47865
 O83 O 0.41676 -0.04313 0.45147
 O84 O 0.60473 0.03557 0.48252
 O85 O 0.53693 -0.08603 0.47009
 O86 O 0.46855 0.06309 0.44002
 Co87 Co 0.55823 0.00001 0.49667
 Co88 Co 0.41802 -0.00891 0.49588
 Co89 Co 0.49730 0.06460 0.48720
 Co90 Co 0.49996 -0.07413 0.51292
 O91 O 0.49086 -0.00649 0.49931
 C92 C 0.55501 -0.06325 0.44227
 C93 C 0.42790 0.06005 0.43743
 C94 C 0.58595 0.06433 0.45840
 C95 C 0.43077 -0.08281 0.45165
 O96 O 0.58426 0.52244 0.04952
 O97 O 0.43154 0.48064 0.05020
 O98 O 0.48322 0.57818 0.04920
 O99 O 0.53232 0.42481 0.04875
 O100 O 0.42267 0.55609 0.02530
 O101 O 0.59260 0.44764 0.02380
 O102 O 0.45715 0.41817 0.03018
 O103 O 0.55815 0.58510 0.02910
 C104 C 0.57734 0.56273 0.05570
 C105 C 0.43609 0.43975 0.05566
 C106 C 0.44254 0.57593 0.05221
 C107 C 0.57292 0.42758 0.05134
 O108 O 0.58345 0.48041 -0.05089
 O109 O 0.43218 0.52574 -0.04986
 O110 O 0.53304 0.57917 -0.04956
 O111 O 0.48130 0.42636 -0.04862
 O112 O 0.42149 0.45068 -0.02450
 O113 O 0.59342 0.55525 -0.02561
 O114 O 0.55615 0.41814 -0.03035
 O115 O 0.45824 0.58766 -0.02932
 Co116 Co 0.58037 0.50156 -0.00071
 Co117 Co 0.43523 0.50320 0.00021
 Co118 Co 0.50814 0.57494 -0.00017
 Co119 Co 0.50684 0.42950 0.00003
 O120 O 0.50764 0.50228 -0.00016
 C121 C 0.57613 0.44012 -0.05685
 C122 C 0.43694 0.56657 -0.05469
 C123 C 0.57368 0.57637 -0.05249
 C124 C 0.44081 0.43040 -0.05156
 C125 C 1.17048 0.17575 0.16272
 C126 C 1.15674 0.21963 0.17251
 C127 C 1.18219 0.24532 0.19862
 C128 C 1.21916 0.22660 0.21847
 C129 C 1.23319 0.18336 0.20727
 C130 C 1.20920 0.15829 0.18027
 C131 C 1.14328 0.14978 0.13395
 C132 C 1.15662 0.10766 0.11954
 C133 C 1.13086 0.08530 0.09194
 C134 C 1.09079 0.10375 0.07860
 C135 C 1.07661 0.14528 0.09311
 C136 C 1.10314 0.16893 0.11991
 C137 C 1.11728 0.23725 0.15677
 C138 C 1.09061 0.21209 0.13165
 H139 H 1.10645 0.27071 0.16456
 H140 H 1.06011 0.22699 0.12066
 H141 H 1.17242 0.27963 0.20453
 H142 H 1.26333 0.16860 0.21896
 H143 H 1.14245 0.05341 0.08078
 H144 H 1.04599 0.16003 0.08218
 H145 H 1.22155 0.12518 0.17390
 H146 H 1.18725 0.09178 0.12838
 C147 C 1.15611 0.66644 0.67473
 C148 C 1.19653 0.64819 0.68846
 C149 C 1.22210 0.67156 0.71610
 C150 C 1.20980 0.71481 0.72917
 C151 C 1.16903 0.73216 0.71480
 C152 C 1.14265 0.70850 0.68862
 C153 C 1.13064 0.64146 0.64415
 C154 C 1.08870 0.65561 0.63058
 C155 C 1.06747 0.63285 0.60031
 C156 C 1.08757 0.59569 0.58264
 C157 C 1.12856 0.58020 0.59679
 C158 C 1.14982 0.60234 0.62792
 C159 C 1.21235 0.60761 0.67314
 C160 C 1.18992 0.58564 0.64294
 H161 H 1.24339 0.59344 0.68362
 H162 H 1.20421 0.55516 0.63115
 H163 H 1.25201 0.65546 0.72587
 H164 H 1.15816 0.76569 0.72211
 H165 H 1.03556 0.64499 0.59009
 H166 H 1.14366 0.55077 0.58380
 H167 H 1.11281 0.72485 0.67830
 H168 H 1.07162 0.68406 0.64288
 C169 C 0.65108 0.15488 0.67446
 C170 C 0.63987 0.20043 0.68012
 C171 C 0.66692 0.22780 0.70361
 C172 C 0.70651 0.21141 0.72122
 C173 C 0.71703 0.16575 0.71493
 C174 C 0.68990 0.13812 0.69234
 C175 C 0.62245 0.12720 0.64781
 C176 C 0.63027 0.08123 0.64098
 C177 C 0.60570 0.05818 0.61271
 C178 C 0.57254 0.08021 0.59059
 C179 C 0.56222 0.12505 0.59933
 C180 C 0.58684 0.14859 0.62771
 C181 C 0.60255 0.21888 0.66116
 C182 C 0.57693 0.19369 0.63520
 H183 H 0.59373 0.25377 0.66554
 H184 H 0.54925 0.21000 0.62035
 H185 H 0.65793 0.26282 0.70689
 H186 H 0.74656 0.15040 0.72689
 H187 H 0.61406 0.02346 0.60697
 H188 H 0.53625 0.14226 0.58284
 H189 H 0.70064 0.10388 0.68852
 H190 H 0.65588 0.06270 0.65643
 C191 C 0.66176 0.66186 0.18149
 C192 C 0.65164 0.70817 0.18299
 C193 C 0.67640 0.73652 0.20726
 C194 C 0.71262 0.72024 0.22987
 C195 C 0.71964 0.67327 0.23076
 C196 C 0.69498 0.64473 0.20679
 C197 C 0.63758 0.63357 0.15206
 C198 C 0.64733 0.58776 0.14603
 C199 C 0.62663 0.56410 0.11566
 C200 C 0.59575 0.58551 0.09069
 C201 C 0.58419 0.63036 0.09780
 C202 C 0.60508 0.65455 0.12780
 C203 C 0.61779 0.72636 0.15930
 C204 C 0.59483 0.70006 0.13245
 H205 H 0.60957 0.76175 0.16090
 H206 H 0.56958 0.71595 0.11415
 H207 H 0.66918 0.77222 0.20676
 H208 H 0.74439 0.65762 0.24943
 H209 H 0.63589 0.52940 0.11092
 H210 H 0.55990 0.64707 0.07897
 H211 H 0.70290 0.60939 0.20818
 H212 H 0.67171 0.56994 0.16360
 C213 C 0.82930 -0.16893 0.17024
 C214 C 0.79371 -0.19431 0.15529
 C215 C 0.76689 -0.21982 0.18112
 C216 C 0.77209 -0.21840 0.22284
 C217 C 0.80722 -0.19193 0.23736
 C218 C 0.83547 -0.16797 0.21166
 C219 C 0.85803 -0.14345 0.14113
 C220 C 0.89751 -0.12142 0.15196
 C221 C 0.92275 -0.09794 0.12341
 C222 C 0.90853 -0.09509 0.08382
 C223 C 0.86979 -0.11736 0.07271
 C224 C 0.84527 -0.14240 0.10064
 C225 C 0.78423 -0.19349 0.11454
 C226 C 0.80872 -0.16716 0.08798
 H227 H 0.75669 -0.21265 0.10308
 H228 H 0.79936 -0.16686 0.05689
 H229 H 0.74199 -0.24042 0.16767
 H230 H 0.81273 -0.18969 0.26907
 H231 H 0.95297 -0.08135 0.13237
 H232 H 0.85934 -0.11618 0.04187
 H233 H 0.86140 -0.14822 0.22479
 H234 H 0.90963 -0.12247 0.18212
 C235 C 0.82413 0.32264 0.66389
 C236 C 0.78130 0.30978 0.65168
 C237 C 0.75438 0.28329 0.67691
 C238 C 0.76844 0.27000 0.71541
 C239 C 0.81018 0.28629 0.72792
 C240 C 0.83771 0.31122 0.70261
 C241 C 0.85239 0.34960 0.63559
 C242 C 0.89723 0.35974 0.64310
 C243 C 0.92215 0.38493 0.61567
 C244 C 0.90286 0.40105 0.58036
 C245 C 0.85837 0.39083 0.57249
 C246 C 0.83343 0.36450 0.59930
 C247 C 0.76497 0.32453 0.61474
 C248 C 0.79010 0.35208 0.58951
 H249 H 0.73188 0.31532 0.60545
 H250 H 0.77566 0.36316 0.56155
 H251 H 0.72210 0.27432 0.66613
 H252 H 0.82142 0.28076 0.75812
 H253 H 0.95662 0.39185 0.62211
 H254 H 0.84345 0.40231 0.54485
 H255 H 0.86892 0.32244 0.71441
 H256 H 0.91385 0.34781 0.66960
 C257 C 0.32419 -0.17181 0.67470
 C258 C 0.28023 -0.18257 0.66421
 C259 C 0.25428 -0.20944 0.68951
 C260 C 0.27085 -0.22666 0.72585
 C261 C 0.31384 -0.21288 0.73710
 C262 C 0.34022 -0.18663 0.71183
 C263 C 0.35130 -0.14443 0.64599
 C264 C 0.39651 -0.13476 0.65209
 C265 C 0.42066 -0.11060 0.62349
 C266 C 0.40021 -0.09534 0.58844
 C267 C 0.35511 -0.10394 0.58252
 C268 C 0.33082 -0.12885 0.61055
 C269 C 0.26197 -0.16607 0.62864
 C270 C 0.28659 -0.13933 0.60258
 H271 H 0.22806 -0.17396 0.62080
 H272 H 0.27102 -0.12744 0.57537
 H273 H 0.22083 -0.21601 0.68037
 H274 H 0.32710 -0.22148 0.76608
 H275 H 0.45556 -0.10441 0.62856
 H276 H 0.33911 -0.09256 0.55532
 H277 H 0.37272 -0.17763 0.72231
 H278 H 0.41406 -0.14636 0.67820
 C279 C 0.32762 0.33993 0.16813
 C280 C 0.33627 0.29341 0.17232
 C281 C 0.30972 0.26669 0.19740
 C282 C 0.27491 0.28545 0.21975
 C283 C 0.26421 0.33099 0.21246
 C284 C 0.29048 0.35793 0.18765
 C285 C 0.35736 0.36754 0.14175
 C286 C 0.35312 0.41453 0.13732
 C287 C 0.37999 0.43834 0.11053
 C288 C 0.41179 0.41592 0.08771
 C289 C 0.41792 0.36956 0.09355
 C290 C 0.39114 0.34532 0.12035
 C291 C 0.37109 0.27367 0.15120
 C292 C 0.39765 0.29900 0.12541
 H293 H 0.37762 0.23797 0.15432
 H294 H 0.42373 0.28207 0.10922
 H295 H 0.31669 0.23105 0.20019
 H296 H 0.23521 0.34620 0.22562
 H297 H 0.37492 0.47421 0.10684
 H298 H 0.44292 0.35204 0.07647
 H299 H 0.28070 0.39258 0.18371
 H300 H 0.32901 0.43345 0.15388
 C301 C 0.82232 0.16414 -0.17221
 C302 C 0.78024 0.17945 -0.15980
 C303 C 0.75329 0.20449 -0.18600
 C304 C 0.76662 0.21410 -0.22557
 C305 C 0.80668 0.19401 -0.23846
 C306 C 0.83438 0.17043 -0.21225
 C307 C 0.85147 0.14061 -0.14236
 C308 C 0.89629 0.12989 -0.14987
 C309 C 0.92222 0.10864 -0.12063
 C310 C 0.90384 0.09697 -0.08356
 C311 C 0.85938 0.10775 -0.07582
 C312 C 0.83358 0.13041 -0.10438
 C313 C 0.76488 0.16913 -0.12138
 C314 C 0.79054 0.14415 -0.09463
 H315 H 0.73226 0.18003 -0.11196
 H316 H 0.77692 0.13661 -0.06543
 H317 H 0.72185 0.21589 -0.17483
 H318 H 0.81702 0.19691 -0.26923
 H319 H 0.95661 0.10109 -0.12707
 H320 H 0.84514 0.09972 -0.04694
 H321 H 0.86477 0.15674 -0.22401
 H322 H 0.91204 0.13853 -0.17780
 C323 C 0.83224 0.68017 0.33372
 C324 C 0.79589 0.70439 0.34912
 C325 C 0.76859 0.72986 0.32373
 C326 C 0.77403 0.72923 0.28201
 C327 C 0.81074 0.70506 0.26712
 C328 C 0.83936 0.68115 0.29237
 C329 C 0.86054 0.65344 0.36219
 C330 C 0.90007 0.63152 0.35086
 C331 C 0.92449 0.60622 0.37867
 C332 C 0.90940 0.60145 0.41794
 C333 C 0.87077 0.62381 0.42962
 C334 C 0.84700 0.65053 0.40248
 C335 C 0.78588 0.70204 0.38979
 C336 C 0.81023 0.67484 0.41571
 H337 H 0.75787 0.72044 0.40162
 H338 H 0.80035 0.67317 0.44671
 H339 H 0.74285 0.74940 0.33744
 H340 H 0.81673 0.70390 0.23539
 H341 H 0.95473 0.58970 0.36936
 H342 H 0.85974 0.62121 0.46030
 H343 H 0.86611 0.66268 0.27888
 H344 H 0.91280 0.63390 0.32089
 C345 C 0.32377 0.16659 0.32696
 C346 C 0.34464 0.20385 0.30830
 C347 C 0.32017 0.23292 0.28342
 C348 C 0.27507 0.22461 0.27532
 C349 C 0.25419 0.18917 0.29630
 C350 C 0.27803 0.16041 0.32128
 C351 C 0.35096 0.13624 0.35314
 C352 C 0.33326 0.09789 0.37238
 C353 C 0.35902 0.07236 0.39855
 C354 C 0.40324 0.08385 0.40576
 C355 C 0.42207 0.12045 0.38510
 C356 C 0.39617 0.14689 0.35911
 C357 C 0.38972 0.21215 0.31485
 C358 C 0.41490 0.18437 0.33983
 H359 H 0.40576 0.24074 0.30062
 H360 H 0.44952 0.19250 0.34427
 H361 H 0.33649 0.26223 0.27088
 H362 H 0.21902 0.18326 0.29272
 H363 H 0.34398 0.04387 0.41380
 H364 H 0.45631 0.12949 0.39052
 H365 H 0.25981 0.13376 0.33592
 H366 H 0.29947 0.08731 0.36820
 C367 C 0.32803 0.66453 -0.16655
 C368 C 0.29416 0.69139 -0.15028
 C369 C 0.26547 0.71553 -0.17528
 C370 C 0.27064 0.71569 -0.21713
 C371 C 0.30696 0.69123 -0.23244
 C372 C 0.33452 0.66549 -0.20787
 C373 C 0.35685 0.63797 -0.13880
 C374 C 0.38744 0.60543 -0.15190
 C375 C 0.41362 0.58165 -0.12454
 C376 C 0.41039 0.59088 -0.08404
 C377 C 0.37982 0.62252 -0.07062
 C378 C 0.35217 0.64511 -0.09750
 C379 C 0.28992 0.69538 -0.10900
 C380 C 0.31914 0.67368 -0.08318
 H381 H 0.26430 0.71650 -0.09646
 H382 H 0.31522 0.67859 -0.05150
 H383 H 0.24021 0.73521 -0.16099
 H384 H 0.31456 0.69250 -0.26394
 H385 H 0.43670 0.55648 -0.13496
 H386 H 0.37661 0.62837 -0.03896
 H387 H 0.36158 0.64773 -0.22166
 H388 H 0.39092 0.59733 -0.18291
 C389 C 1.16499 -0.16723 -0.16639
 C390 C 1.14969 -0.21077 -0.17504
 C391 C 1.17407 -0.23818 -0.20051
 C392 C 1.21272 -0.22236 -0.22002
 C393 C 1.22632 -0.17795 -0.21238
 C394 C 1.20294 -0.15095 -0.18613
 C395 C 1.14022 -0.14051 -0.13631
 C396 C 1.15624 -0.09967 -0.12135
 C397 C 1.13268 -0.07692 -0.09215
 C398 C 1.09230 -0.09386 -0.07794
 C399 C 1.07580 -0.13416 -0.09280
 C400 C 1.10005 -0.15822 -0.12093
 C401 C 1.11019 -0.22683 -0.15816
 C402 C 1.08527 -0.20060 -0.13244
 H403 H 1.09812 -0.26001 -0.16525
 H404 H 1.05470 -0.21430 -0.12039
 H405 H 1.16347 -0.27258 -0.20451
 H406 H 1.25573 -0.16364 -0.22575
 H407 H 1.14593 -0.04589 -0.08074
 H408 H 1.04497 -0.14778 -0.08115
 H409 H 1.21523 -0.11741 -0.18169
 H410 H 1.18735 -0.08534 -0.13100
 C411 C 1.17099 0.33176 0.33489
 C412 C 1.14988 0.29724 0.31370
 C413 C 1.17388 0.27217 0.28591
 C414 C 1.21855 0.28229 0.27703
 C415 C 1.23960 0.31514 0.29997
 C416 C 1.21631 0.33980 0.32795
 C417 C 1.14444 0.35738 0.36462
 C418 C 1.16270 0.39195 0.38749
 C419 C 1.13713 0.41376 0.41581
 C420 C 1.09262 0.40214 0.42179
 C421 C 1.07359 0.36871 0.39844
 C422 C 1.09925 0.34600 0.37022
 C423 C 1.10502 0.28765 0.32056
 C424 C 1.08019 0.31162 0.34811
 H425 H 1.08878 0.26122 0.30431
 H426 H 1.04561 0.30287 0.35237
 H427 H 1.15759 0.24423 0.27198
 H428 H 1.27461 0.32196 0.29596
 H429 H 1.15236 0.43982 0.43322
 H430 H 1.03915 0.35954 0.40294
 H431 H 1.23465 0.36477 0.34386
 H432 H 1.19668 0.40251 0.38434
 C433 C 0.65175 -0.15950 0.32126
 C434 C 0.64698 -0.20670 0.32154
 C435 C 0.67515 -0.23323 0.29835
 C436 C 0.70984 -0.21413 0.27533
 C437 C 0.71234 -0.16676 0.27348
 C438 C 0.68407 -0.14003 0.29615
 C439 C 0.62322 -0.13264 0.34886
 C440 C 0.62652 -0.08559 0.35206
 C441 C 0.60249 -0.06275 0.38105
 C442 C 0.57445 -0.08613 0.40751
 C443 C 0.56882 -0.13256 0.40291
 C444 C 0.59311 -0.15591 0.37412
 C445 C 0.61501 -0.22743 0.34587
 C446 C 0.58871 -0.20260 0.37164
 H447 H 0.61101 -0.26361 0.34575
 H448 H 0.56531 -0.22040 0.39063
 H449 H 0.67157 -0.26946 0.29968
 H450 H 0.73611 -0.14943 0.25484
 H451 H 0.60734 -0.02687 0.38375
 H452 H 0.54695 -0.15095 0.42295
 H453 H 0.68854 -0.10414 0.29387
 H454 H 0.64842 -0.06595 0.33333
 C455 C 0.66234 0.33800 -0.18041
 C456 C 0.64624 0.29421 -0.18701
 C457 C 0.66941 0.26506 -0.21221
 C458 C 0.70985 0.27778 -0.23061
 C459 C 0.72497 0.32196 -0.22378
 C460 C 0.70169 0.35140 -0.19953
 C461 C 0.63810 0.36728 -0.15159
 C462 C 0.65112 0.41170 -0.14333
 C463 C 0.62981 0.43611 -0.11367
 C464 C 0.59513 0.41685 -0.09150
 C465 C 0.58027 0.37367 -0.10106
 C466 C 0.60127 0.34894 -0.13092
 C467 C 0.60805 0.27904 -0.16720
 C468 C 0.58627 0.30565 -0.13952
 H469 H 0.59548 0.24554 -0.17232
 H470 H 0.55758 0.29185 -0.12419
 H471 H 0.65702 0.23122 -0.21577
 H472 H 0.75535 0.33468 -0.23639
 H473 H 0.64157 0.46955 -0.10714
 H474 H 0.55292 0.35881 -0.08455
 H475 H 0.71590 0.38419 -0.19534
 H476 H 0.67810 0.42797 -0.15890
 C477 C 1.17399 0.17206 -0.17011
 C478 C 1.21876 0.15968 -0.17623
 C479 C 1.24634 0.18643 -0.20073
 C480 C 1.22937 0.22402 -0.22182
 C481 C 1.18554 0.23747 -0.21314
 C482 C 1.15829 0.21184 -0.18825
 C483 C 1.14551 0.14285 -0.14381
 C484 C 1.10090 0.15315 -0.13513
 C485 C 1.07659 0.12654 -0.10849
 C486 C 1.09561 0.08841 -0.09053
 C487 C 1.13925 0.07643 -0.10040
 C488 C 1.16453 0.10376 -0.12636
 C489 C 1.23557 0.12050 -0.15813
 C490 C 1.20900 0.09304 -0.13392
 H491 H 1.26981 0.11081 -0.16287
 H492 H 1.22366 0.06318 -0.12055
 H493 H 1.28083 0.17714 -0.20457
 H494 H 1.17181 0.26826 -0.22541
 H495 H 1.04291 0.13632 -0.10128
 H496 H 1.15433 0.04725 -0.08619
 H497 H 1.12502 0.22400 -0.18366
 H498 H 1.08433 0.18211 -0.14775
 C499 C 1.16360 0.66056 0.32024
 C500 C 1.20372 0.64329 0.30494
 C501 C 1.23064 0.67012 0.27967
 C502 C 1.21965 0.71565 0.27070
 C503 C 1.18014 0.73233 0.28850
 C504 C 1.15247 0.70537 0.31165
 C505 C 1.13651 0.63183 0.34802
 C506 C 1.09489 0.64547 0.36267
 C507 C 1.07334 0.62041 0.39218
 C508 C 1.09212 0.58065 0.40732
 C509 C 1.13171 0.56457 0.39050
 C510 C 1.15404 0.58999 0.36093
 C511 C 1.21790 0.60018 0.31686
 C512 C 1.19410 0.57452 0.34484
 H513 H 1.24884 0.58678 0.30562
 H514 H 1.20751 0.54229 0.35431
 H515 H 1.26113 0.65562 0.26892
 H516 H 1.17123 0.76752 0.28577
 H517 H 1.04209 0.63267 0.40378
 H518 H 1.14612 0.53344 0.40164
 H519 H 1.12360 0.72120 0.32426
 H520 H 1.07867 0.67571 0.35218
 C521 C 0.68198 0.16928 0.34006
 C522 C 0.72357 0.18672 0.35072
 C523 C 0.74752 0.21347 0.32351
 C524 C 0.73176 0.22260 0.28453
 C525 C 0.69139 0.20213 0.27383
 C526 C 0.66673 0.17661 0.30102
 C527 C 0.65668 0.14241 0.37044
 C528 C 0.61293 0.12828 0.36406
 C529 C 0.59057 0.10335 0.39301
 C530 C 0.61117 0.09134 0.42904
 C531 C 0.65460 0.10563 0.43612
 C532 C 0.67712 0.13199 0.40737
 C533 C 0.74161 0.17651 0.38823
 C534 C 0.71930 0.14893 0.41560
 H535 H 0.77384 0.18947 0.39634
 H536 H 0.73495 0.14151 0.44393
 H537 H 0.77883 0.22610 0.33347
 H538 H 0.67907 0.20500 0.24370
 H539 H 0.55688 0.09303 0.38684
 H540 H 0.67036 0.09716 0.46420
 H541 H 0.63639 0.16192 0.29048
 H542 H 0.59506 0.13671 0.33722
 C543 C 0.67546 0.68450 -0.16477
 C544 C 0.66771 0.67995 -0.20587
 C545 C 0.69496 0.70313 -0.23381
 C546 C 0.72980 0.73146 -0.22122
 C547 C 0.73193 0.73992 -0.17986
 C548 C 0.70612 0.71647 -0.15240
 C549 C 0.64947 0.65651 -0.13571
 C550 C 0.66109 0.65306 -0.09528
 C551 C 0.63632 0.62663 -0.06900
 C552 C 0.59886 0.60347 -0.08198
 C553 C 0.58722 0.60584 -0.12248
 C554 C 0.61338 0.63110 -0.14972
 C555 C 0.63246 0.65283 -0.21832
 C556 C 0.60505 0.63007 -0.19080
 H557 H 0.62552 0.64971 -0.24973
 H558 H 0.57782 0.61025 -0.20193
 H559 H 0.68964 0.69858 -0.26534
 H560 H 0.75344 0.76485 -0.16739
 H561 H 0.64622 0.62475 -0.03807
 H562 H 0.55900 0.58686 -0.13287
 H563 H 0.71013 0.72453 -0.12143
 H564 H 0.68988 0.66967 -0.08355
 C565 C 0.84944 -0.16242 -0.17759
 C566 C 0.81703 -0.14094 -0.20159
 C567 C 0.79057 -0.16632 -0.22747
 C568 C 0.79402 -0.21368 -0.22817
 C569 C 0.82718 -0.23409 -0.20429
 C570 C 0.85438 -0.20918 -0.17986
 C571 C 0.87532 -0.13493 -0.14888
 C572 C 0.90887 -0.15346 -0.12460
 C573 C 0.92885 -0.12796 -0.09539
 C574 C 0.91639 -0.08314 -0.08967
 C575 C 0.88526 -0.06322 -0.11558
 C576 C 0.86464 -0.08888 -0.14512
 C577 C 0.80998 -0.09454 -0.19825
 C578 C 0.83279 -0.06922 -0.17026
 H579 H 0.78530 -0.07780 -0.21659
 H580 H 0.82495 -0.03381 -0.16793
 H581 H 0.76662 -0.14876 -0.24571
 H582 H 0.83086 -0.27030 -0.20329
 H583 H 0.95354 -0.14387 -0.07650
 H584 H 0.87590 -0.02835 -0.11183
 H585 H 0.87785 -0.22771 -0.16188
 H586 H 0.91980 -0.18778 -0.12712
 C587 C 0.84117 0.34334 0.32173
 C588 C 0.85546 0.29888 0.31521
 C589 C 0.83004 0.27029 0.29192
 C590 C 0.78913 0.28419 0.27532
 C591 C 0.77536 0.32873 0.28229
 C592 C 0.80101 0.35782 0.30469
 C593 C 0.86768 0.37183 0.34905
 C594 C 0.85678 0.41689 0.35695
 C595 C 0.87924 0.44022 0.38630
 C596 C 0.91299 0.41913 0.40827
 C597 C 0.92644 0.37564 0.39844
 C598 C 0.90421 0.35196 0.36899
 C599 C 0.89387 0.28230 0.33359
 C600 C 0.91745 0.30811 0.36035
 H601 H 0.90494 0.24823 0.32838
 H602 H 0.94597 0.29324 0.37508
 H603 H 0.84092 0.23581 0.28877
 H604 H 0.74425 0.34168 0.27133
 H605 H 0.86889 0.47417 0.39293
 H606 H 0.95327 0.35959 0.41474
 H607 H 0.78792 0.39105 0.30938
 H608 H 0.83047 0.43438 0.34152
 C609 C 0.33265 -0.18694 0.33846
 C610 C 0.34067 -0.17970 0.29752
 C611 C 0.31451 -0.20171 0.26900
 C612 C 0.27719 -0.22849 0.27997
 C613 C 0.26981 -0.23373 0.32174
 C614 C 0.29668 -0.21374 0.34986
 C615 C 0.36155 -0.16410 0.36819
 C616 C 0.35933 -0.17350 0.40943
 C617 C 0.38437 -0.14879 0.43621
 C618 C 0.41182 -0.11396 0.42266
 C619 C 0.41621 -0.10585 0.38156
 C620 C 0.39215 -0.13155 0.35419
 C621 C 0.37393 -0.14948 0.28542
 C622 C 0.39813 -0.12491 0.31311
 H623 H 0.38026 -0.14349 0.25406
 H624 H 0.42218 -0.10067 0.30215
 H625 H 0.32290 -0.19750 0.23783
 H626 H 0.24377 -0.25417 0.33439
 H627 H 0.38056 -0.15539 0.46782
 H628 H 0.43788 -0.07916 0.37104
 H629 H 0.28809 -0.21928 0.38069
 H630 H 0.33815 -0.19941 0.42169
 C631 C 0.33612 0.33314 -0.16644
 C632 C 0.35719 0.29789 -0.18698
 C633 C 0.33295 0.27156 -0.21366
 C634 C 0.28785 0.28072 -0.22174
 C635 C 0.26700 0.31446 -0.19945
 C636 C 0.29059 0.34047 -0.17274
 C637 C 0.36298 0.36029 -0.13803
 C638 C 0.34490 0.39597 -0.11618
 C639 C 0.37067 0.41905 -0.08891
 C640 C 0.41530 0.40771 -0.08290
 C641 C 0.43418 0.37325 -0.10545
 C642 C 0.40830 0.34930 -0.13267
 C643 C 0.40227 0.28888 -0.18049
 C644 C 0.42725 0.31402 -0.15399
 H645 H 0.41853 0.26188 -0.19614
 H646 H 0.46193 0.30554 -0.14996
 H647 H 0.34944 0.24355 -0.22754
 H648 H 0.23194 0.32113 -0.20306
 H649 H 0.35540 0.44576 -0.07214
 H650 H 0.46865 0.36418 -0.10099
 H651 H 0.27230 0.36597 -0.15727
 H652 H 0.31084 0.40639 -0.11932
 C653 C 1.16539 -0.16309 0.17727
 C654 C 1.20418 -0.14575 0.19455
 C655 C 1.23114 -0.17349 0.21912
 C656 C 1.22196 -0.22008 0.22524
 C657 C 1.18300 -0.23606 0.20614
 C658 C 1.15557 -0.20859 0.18329
 C659 C 1.13770 -0.13306 0.15110
 C660 C 1.09692 -0.14685 0.13521
 C661 C 1.07468 -0.12004 0.10746
 C662 C 1.09202 -0.07846 0.09501
 C663 C 1.13067 -0.06244 0.11331
 C664 C 1.15355 -0.08953 0.14142
 C665 C 1.21660 -0.10113 0.18602
 C666 C 1.19243 -0.07401 0.15937
 H667 H 1.24639 -0.08743 0.19902
 H668 H 1.20446 -0.04046 0.15263
 H669 H 1.25917 -0.15761 0.23247
 H670 H 1.17391 -0.27124 0.20803
 H671 H 1.04421 -0.13259 0.09479
 H672 H 1.14400 -0.03000 0.10440
 H673 H 1.12750 -0.22435 0.16951
 H674 H 1.08188 -0.17853 0.14332
 C675 C 1.17454 0.33170 0.66951
 C676 C 1.21088 0.35263 0.68804
 C677 C 1.23913 0.32740 0.71308
 C678 C 1.23123 0.28130 0.72077
 C679 C 1.19752 0.26034 0.69890
 C680 C 1.16934 0.28500 0.67420
 C681 C 1.14416 0.35982 0.64426
 C682 C 1.10531 0.34256 0.62724
 C683 C 1.07984 0.36889 0.60144
 C684 C 1.09205 0.41328 0.59221
 C685 C 1.12891 0.43195 0.61128
 C686 C 1.15498 0.40552 0.63727
 C687 C 1.21902 0.39847 0.68108
 C688 C 1.19205 0.42419 0.65578
 H689 H 1.24700 0.41461 0.69503
 H690 H 1.20022 0.45928 0.65079
 H691 H 1.26730 0.34391 0.72622
 H692 H 1.19204 0.22450 0.70198
 H693 H 1.05106 0.35394 0.58775
 H694 H 1.13837 0.46640 0.60469
 H695 H 1.14388 0.26672 0.65894
 H696 H 1.09426 0.30864 0.63300
 C697 C 0.68682 -0.16833 0.65745
 C698 C 0.67582 -0.16500 0.69820
 C699 C 0.69985 -0.18987 0.72711
 C700 C 0.73454 -0.21924 0.71616
 C701 C 0.74130 -0.22529 0.67480
 C702 C 0.71874 -0.19987 0.64630
 C703 C 0.66219 -0.14009 0.62750
 C704 C 0.67453 -0.13699 0.58698
 C705 C 0.64909 -0.11198 0.55979
 C706 C 0.61064 -0.08998 0.57233
 C707 C 0.59928 -0.09111 0.61294
 C708 C 0.62528 -0.11513 0.64066
 C709 C 0.64025 -0.13764 0.70957
 C710 C 0.61482 -0.11418 0.68133
 H711 H 0.63122 -0.13523 0.74067
 H712 H 0.58690 -0.09448 0.69156
 H713 H 0.69183 -0.18615 0.75832
 H714 H 0.76390 -0.24986 0.66313
 H715 H 0.65867 -0.11104 0.52873
 H716 H 0.57013 -0.07312 0.62300
 H717 H 0.72605 -0.20626 0.61547
 H718 H 0.70373 -0.15357 0.57576
 C719 C 0.67415 0.32859 0.17042
 C720 C 0.71728 0.31539 0.15914
 C721 C 0.74356 0.28971 0.18518
 C722 C 0.72867 0.27681 0.22355
 C723 C 0.68677 0.29354 0.23545
 C724 C 0.65968 0.31806 0.20924
 C725 C 0.64664 0.35462 0.14087
 C726 C 0.60161 0.36540 0.14722
 C727 C 0.57746 0.38918 0.11823
 C728 C 0.59787 0.40329 0.08266
 C729 C 0.64255 0.39275 0.07618
 C730 C 0.66663 0.36782 0.10440
 C731 C 0.73465 0.32866 0.12212
 C732 C 0.71018 0.35506 0.09568
 H733 H 0.76797 0.31898 0.11362
 H734 H 0.72532 0.36489 0.06760
 H735 H 0.77610 0.28096 0.17488
 H736 H 0.67500 0.28852 0.26560
 H737 H 0.54281 0.39664 0.12365
 H738 H 0.65836 0.40279 0.04843
 H739 H 0.62803 0.32949 0.22023
 H740 H 0.58436 0.35503 0.17398
 C741 C 0.83998 0.15952 0.17931
 C742 C 0.85336 0.20423 0.18559
 C743 C 0.82841 0.23193 0.21035
 C744 C 0.78875 0.21694 0.22882
 C745 C 0.77611 0.17201 0.22222
 C746 C 0.80128 0.14385 0.19826
 C747 C 0.86611 0.13181 0.15079
 C748 C 0.85597 0.08662 0.14292
 C749 C 0.87848 0.06371 0.11316
 C750 C 0.91154 0.08532 0.09063
 C751 C 0.92392 0.12922 0.10001
 C752 C 0.90161 0.15250 0.12990
 C753 C 0.89055 0.22184 0.16581
 C754 C 0.91390 0.19666 0.13821
 H755 H 0.90093 0.25612 0.17080
 H756 H 0.94155 0.21224 0.12267
 H757 H 0.83884 0.26651 0.21348
 H758 H 0.74638 0.15776 0.23480
 H759 H 0.86885 0.02953 0.10682
 H760 H 0.95018 0.14576 0.08328
 H761 H 0.78906 0.11023 0.19415
 H762 H 0.83030 0.06861 0.15880
 C763 C 0.84889 0.66653 0.67856
 C764 C 0.81304 0.64730 0.69996
 C765 C 0.78655 0.67419 0.72484
 C766 C 0.79379 0.72101 0.72710
 C767 C 0.83099 0.73880 0.70658
 C768 C 0.85804 0.71230 0.68324
 C769 C 0.87406 0.63811 0.64992
 C770 C 0.90938 0.65508 0.62676
 C771 C 0.92862 0.62926 0.59732
 C772 C 0.91388 0.58551 0.59036
 C773 C 0.88068 0.56695 0.61498
 C774 C 0.86043 0.59315 0.64453
 C775 C 0.80280 0.60175 0.69505
 C776 C 0.82576 0.57536 0.66774
 H777 H 0.77564 0.58663 0.71159
 H778 H 0.81556 0.54078 0.66412
 H779 H 0.75978 0.65831 0.74095
 H780 H 0.83800 0.77447 0.70698
 H781 H 0.95453 0.64422 0.57913
 H782 H 0.86927 0.53298 0.61000
 H783 H 0.88486 0.72910 0.66795
 H784 H 0.92210 0.68860 0.62999
 C785 C 0.33441 0.17460 0.66178
 C786 C 0.29931 0.15424 0.68338
 C787 C 0.27598 0.17855 0.71212
 C788 C 0.28768 0.22308 0.72134
 C789 C 0.32160 0.24344 0.69845
 C790 C 0.34498 0.21961 0.66970
 C791 C 0.35774 0.14760 0.63062
 C792 C 0.39291 0.16466 0.60713
 C793 C 0.41305 0.13819 0.57818
 C794 C 0.39884 0.09401 0.57199
 C795 C 0.36406 0.07668 0.59543
 C796 C 0.34348 0.10299 0.62441
 C797 C 0.28697 0.10989 0.67573
 C798 C 0.30861 0.08481 0.64697
 H799 H 0.26005 0.09427 0.69225
 H800 H 0.29772 0.05064 0.64220
 H801 H 0.24753 0.16278 0.72606
 H802 H 0.32978 0.27845 0.70264
 H803 H 0.43998 0.15233 0.56069
 H804 H 0.35269 0.04258 0.59104
 H805 H 0.37071 0.23731 0.65361
 H806 H 0.40537 0.19829 0.61058
 C807 C 0.33811 0.67315 0.16938
 C808 C 0.29633 0.68872 0.15639
 C809 C 0.26859 0.71286 0.18192
 C810 C 0.28019 0.72233 0.22187
 C811 C 0.32155 0.70416 0.23480
 C812 C 0.34999 0.68080 0.20913
 C813 C 0.36692 0.64815 0.14028
 C814 C 0.41073 0.63397 0.14857
 C815 C 0.43580 0.61093 0.12000
 C816 C 0.41743 0.60073 0.08291
 C817 C 0.37414 0.61503 0.07444
 C818 C 0.34932 0.63916 0.10222
 C819 C 0.28166 0.67967 0.11783
 C820 C 0.30722 0.65491 0.09163
 H821 H 0.24948 0.69147 0.10782
 H822 H 0.29398 0.64850 0.06233
 H823 H 0.23773 0.72361 0.16925
 H824 H 0.33206 0.70736 0.26535
 H825 H 0.46935 0.60059 0.12707
 H826 H 0.35997 0.60823 0.04555
 H827 H 0.38085 0.66825 0.22113
 H828 H 0.42623 0.64084 0.17671
   
