data_POSCAR
  _audit_creation_date              2014-09-24
  _audit_creation_method            'ToBaCCo'
  _symmetry_space_group_name_H-M    'P1'
  _symmetry_Int_Tables_number       1
  _symmetry_cell_setting            triclinic
  loop_
  _symmetry_equiv_pos_as_xyz
 x,y,z
_cell_length_a 22.8085
_cell_length_b 22.8073
_cell_length_c 22.8009
_cell_angle_alpha 89.999700
_cell_angle_beta 90.003900
_cell_angle_gamma 90.000200
loop_
  _atom_site_label
  _atom_site_type_symbol
  _atom_site_fract_x
  _atom_site_fract_y
  _atom_site_fract_z
Zn1 Zn 0.79777 0.70223 0.79777
 Zn2 Zn 0.79777 0.79777 0.70223
 Zn3 Zn 0.70223 0.70223 0.70223
 Zn4 Zn 0.70223 0.79777 0.79777
 O5 O 0.75000 0.75000 0.75000
 O6 O 0.87850 0.71594 0.78406
 O7 O 0.78406 0.78394 0.62151
 O8 O 0.71594 0.62150 0.71594
 O9 O 0.87850 0.78406 0.71594
 O10 O 0.78406 0.62150 0.78406
 O11 O 0.71581 0.71595 0.62148
 O12 O 0.62150 0.78406 0.78406
 O13 O 0.78406 0.87850 0.71594
 O14 O 0.62150 0.71594 0.71594
 O15 O 0.71594 0.87850 0.78406
 O16 O 0.71594 0.78406 0.87850
 O17 O 0.78406 0.71594 0.87850
 C18 C 0.90700 0.75000 0.75000
 C19 C 0.75001 0.74939 0.59300
 C20 C 0.75000 0.59300 0.75000
 C21 C 0.59300 0.75000 0.75000
 C22 C 0.75000 0.90700 0.75000
 C23 C 0.75000 0.74999 0.90700
 Zn24 Zn 0.20223 0.70223 0.70223
 Zn25 Zn 0.20223 0.79778 0.79777
 Zn26 Zn 0.29777 0.70223 0.79776
 Zn27 Zn 0.29777 0.79777 0.70223
 O28 O 0.25000 0.75000 0.75000
 O29 O 0.12149 0.71594 0.71594
 O30 O 0.21623 0.78380 0.87859
 O31 O 0.28407 0.62150 0.78406
 O32 O 0.12149 0.78406 0.78406
 O33 O 0.21594 0.62150 0.71594
 O34 O 0.28423 0.71556 0.87841
 O35 O 0.37851 0.78406 0.71594
 O36 O 0.21594 0.87850 0.78406
 O37 O 0.37851 0.71594 0.78406
 O38 O 0.28406 0.87850 0.71594
 O39 O 0.28411 0.78404 0.62149
 O40 O 0.21592 0.71598 0.62150
 C41 C 0.09300 0.75000 0.75000
 C42 C 0.24986 0.74943 0.90700
 C43 C 0.25000 0.59300 0.75000
 C44 C 0.40700 0.75000 0.75000
 C45 C 0.25000 0.90700 0.75000
 C46 C 0.25026 0.74983 0.59301
 Zn47 Zn 0.70223 0.20223 0.79776
 Zn48 Zn 0.79777 0.20223 0.70224
 Zn49 Zn 0.70223 0.29777 0.70223
 Zn50 Zn 0.79777 0.29777 0.79777
 O51 O 0.75000 0.25000 0.75000
 O52 O 0.71594 0.12149 0.78406
 O53 O 0.78480 0.21541 0.62147
 O54 O 0.62150 0.28406 0.71594
 O55 O 0.78406 0.12149 0.71594
 O56 O 0.62150 0.21594 0.78406
 O57 O 0.71664 0.28349 0.62152
 O58 O 0.78406 0.37851 0.78406
 O59 O 0.87850 0.21593 0.71594
 O60 O 0.71594 0.37851 0.71594
 O61 O 0.87850 0.28406 0.78406
 O62 O 0.78401 0.28409 0.87850
 O63 O 0.71596 0.21590 0.87850
 C64 C 0.75000 0.09300 0.75000
 C65 C 0.75122 0.25020 0.59288
 C66 C 0.59300 0.25000 0.75000
 C67 C 0.75000 0.40700 0.75000
 C68 C 0.90700 0.25000 0.75000
 C69 C 0.74998 0.24997 0.90700
 Zn70 Zn 0.29778 0.20223 0.70223
 Zn71 Zn 0.20223 0.20223 0.79776
 Zn72 Zn 0.29777 0.29777 0.79776
 Zn73 Zn 0.20223 0.29777 0.70223
 O74 O 0.25000 0.25000 0.75000
 O75 O 0.28406 0.12149 0.71594
 O76 O 0.21596 0.21590 0.87849
 O77 O 0.37851 0.28406 0.78406
 O78 O 0.21594 0.12149 0.78406
 O79 O 0.37850 0.21594 0.71594
 O80 O 0.28403 0.28407 0.87850
 O81 O 0.21594 0.37851 0.71594
 O82 O 0.12149 0.21594 0.78406
 O83 O 0.28406 0.37851 0.78406
 O84 O 0.12149 0.28406 0.71594
 O85 O 0.21607 0.28379 0.62153
 O86 O 0.28433 0.21580 0.62146
 C87 C 0.25000 0.09300 0.75000
 C88 C 0.25033 0.24982 0.90700
 C89 C 0.40700 0.25000 0.75000
 C90 C 0.25000 0.40700 0.75000
 C91 C 0.09300 0.25000 0.75000
 C92 C 0.25044 0.25123 0.59301
 Zn93 Zn 0.70235 0.70236 0.20227
 Zn94 Zn 0.79863 0.79863 0.20234
 Zn95 Zn 0.70238 0.79866 0.29769
 Zn96 Zn 0.79866 0.70239 0.29770
 O97 O 0.75053 0.75053 0.25000
 O98 O 0.71598 0.71597 0.12153
 O99 O 0.78436 0.87911 0.21593
 O100 O 0.62162 0.78418 0.28399
 O101 O 0.78419 0.78419 0.12161
 O102 O 0.62150 0.71599 0.21587
 O103 O 0.71571 0.87917 0.28430
 O104 O 0.78434 0.71609 0.37844
 O105 O 0.87910 0.78439 0.21584
 O106 O 0.71599 0.78418 0.37843
 O107 O 0.87918 0.71583 0.28431
 O108 O 0.78430 0.62158 0.28400
 O109 O 0.71600 0.62153 0.21599
 C110 C 0.75007 0.75007 0.09308
 C111 C 0.74967 0.90736 0.24979
 C112 C 0.59304 0.74968 0.25027
 C113 C 0.75071 0.74940 0.40692
 C114 C 0.90736 0.75020 0.25027
 C115 C 0.75001 0.59304 0.25017
 Zn116 Zn 0.29768 0.79868 0.20229
 Zn117 Zn 0.20165 0.70241 0.20232
 Zn118 Zn 0.29772 0.70234 0.29775
 Zn119 Zn 0.20168 0.79861 0.29764
 O120 O 0.24978 0.75053 0.25000
 O121 O 0.28367 0.78385 0.12158
 O122 O 0.21585 0.62155 0.21598
 O123 O 0.37851 0.71601 0.28414
 O124 O 0.21569 0.71550 0.12153
 O125 O 0.37842 0.78422 0.21602
 O126 O 0.28405 0.62153 0.28405
 O127 O 0.21588 0.78421 0.37842
 O128 O 0.12019 0.71595 0.21584
 O129 O 0.28406 0.71601 0.37848
 O130 O 0.12030 0.78419 0.28400
 O131 O 0.21568 0.87914 0.28419
 O132 O 0.28422 0.87917 0.21577
 C133 C 0.25134 0.74836 0.09295
 C134 C 0.24999 0.59303 0.24999
 C135 C 0.40697 0.75012 0.25052
 C136 C 0.24979 0.75013 0.40694
 C137 C 0.09212 0.74998 0.25004
 C138 C 0.24999 0.90737 0.25001
 Zn139 Zn 0.70234 0.29772 0.20226
 Zn140 Zn 0.79861 0.20168 0.20236
 Zn141 Zn 0.79867 0.29769 0.29771
 Zn142 Zn 0.70240 0.20166 0.29768
 O143 O 0.75053 0.24977 0.25000
 O144 O 0.71599 0.28409 0.12151
 O145 O 0.87914 0.21568 0.21581
 O146 O 0.78431 0.37844 0.28402
 O147 O 0.78419 0.21591 0.12158
 O148 O 0.71600 0.37849 0.21599
 O149 O 0.87917 0.28423 0.28423
 O150 O 0.71615 0.21604 0.37854
 O151 O 0.78430 0.12025 0.21599
 O152 O 0.78452 0.28405 0.37837
 O153 O 0.71596 0.12025 0.28406
 O154 O 0.62155 0.21586 0.28402
 O155 O 0.62153 0.28405 0.21595
 C156 C 0.75004 0.25000 0.09306
 C157 C 0.90737 0.24999 0.24999
 C158 C 0.74999 0.40696 0.25020
 C159 C 0.75003 0.24880 0.40693
 C160 C 0.75000 0.09212 0.24982
 C161 C 0.59303 0.24998 0.25001
 Zn162 Zn 0.20163 0.29766 0.20231
 Zn163 Zn 0.29766 0.20163 0.20231
 Zn164 Zn 0.29773 0.29773 0.29776
 Zn165 Zn 0.20170 0.20171 0.29762
 O166 O 0.24977 0.24977 0.25000
 O167 O 0.21590 0.28402 0.12153
 O168 O 0.37847 0.21585 0.21598
 O169 O 0.28405 0.37849 0.28406
 O170 O 0.28400 0.21580 0.12153
 O171 O 0.21585 0.37847 0.21598
 O172 O 0.37849 0.28405 0.28406
 O173 O 0.21559 0.21572 0.37846
 O174 O 0.28407 0.12022 0.21593
 O175 O 0.28388 0.28375 0.37848
 O176 O 0.21584 0.12025 0.28404
 O177 O 0.12025 0.21583 0.28404
 O178 O 0.12022 0.28407 0.21593
 C179 C 0.25060 0.24965 0.09303
 C180 C 0.40698 0.24999 0.24999
 C181 C 0.24999 0.40698 0.24999
 C182 C 0.24961 0.25124 0.40697
 C183 C 0.24999 0.09210 0.25001
 C184 C 0.09210 0.24999 0.25001
 N185 N -0.02833 0.75000 0.75000
 N186 N 0.02832 0.75000 0.75000
 N187 N 0.75000 -0.02833 0.75000
 N188 N 0.75000 0.02832 0.75000
 N189 N 0.75001 0.75002 -0.02831
 N190 N 0.75001 0.75002 0.02836
 N191 N 0.52831 0.75000 0.75000
 N192 N 0.47169 0.75000 0.75000
 N193 N 0.25000 -0.02833 0.75000
 N194 N 0.25000 0.02832 0.75000
 N195 N 0.24993 0.74935 -0.02821
 N196 N 0.24892 0.75441 0.02835
 N197 N -0.02833 0.25000 0.75000
 N198 N 0.02832 0.25000 0.75000
 N199 N 0.75000 0.52831 0.75000
 N200 N 0.75000 0.47169 0.75000
 N201 N 0.75004 0.25018 -0.02831
 N202 N 0.75004 0.24979 0.02834
 N203 N 0.52831 0.25000 0.75000
 N204 N 0.47169 0.25000 0.75000
 N205 N 0.25000 0.52831 0.75000
 N206 N 0.25000 0.47169 0.75000
 N207 N 0.25008 0.24998 -0.02832
 N208 N 0.24899 0.25063 0.02834
 N209 N -0.02809 0.74946 0.24893
 N210 N 0.02800 0.75056 0.25077
 N211 N 0.75120 -0.02809 0.24972
 N212 N 0.74935 0.02800 0.25043
 N213 N 0.75116 0.75083 0.52827
 N214 N 0.74820 0.75050 0.47167
 N215 N 0.52831 0.75106 0.25054
 N216 N 0.47169 0.74932 0.24863
 N217 N 0.25000 -0.02809 0.25001
 N218 N 0.25000 0.02801 0.25001
 N219 N 0.24910 0.75041 0.52829
 N220 N 0.25079 0.74964 0.47167
 N221 N -0.02809 0.25000 0.24999
 N222 N 0.02801 0.25000 0.25001
 N223 N 0.74998 0.52833 0.24987
 N224 N 0.74997 0.47168 0.24971
 N225 N 0.74412 0.25147 0.52812
 N226 N 0.75281 0.25039 0.47197
 N227 N 0.52832 0.25000 0.25001
 N228 N 0.47168 0.25000 0.24999
 N229 N 0.25000 0.52832 0.24999
 N230 N 0.25000 0.47168 0.24999
 N231 N 0.24674 0.24917 0.52818
 N232 N 0.25324 0.24920 0.47180
   
