data_POSCAR
  _audit_creation_date              2014-09-24
  _audit_creation_method            'ToBaCCo'
  _symmetry_space_group_name_H-M    'P1'
  _symmetry_Int_Tables_number       1
  _symmetry_cell_setting            triclinic
  loop_
  _symmetry_equiv_pos_as_xyz
 x,y,z
_cell_length_a 58.2374
_cell_length_b 58.1583
_cell_length_c 58.2238
_cell_angle_alpha 89.916900
_cell_angle_beta 89.994100
_cell_angle_gamma 89.971300
loop_
  _atom_site_label
  _atom_site_type_symbol
  _atom_site_fract_x
  _atom_site_fract_y
  _atom_site_fract_z
C1 C 0.25021 0.26731 0.23241
 C2 C 0.26731 0.26725 0.21544
 C3 C 0.28449 0.25023 0.21532
 C4 C 0.28439 0.23317 0.23248
 C5 C 0.26742 0.23303 0.24958
 C6 C 0.25025 0.25015 0.24956
 C7 C 0.23312 0.28431 0.23254
 C8 C 0.21600 0.28441 0.24958
 C9 C 0.21615 0.26723 0.26660
 C10 C 0.23312 0.25011 0.26669
 C11 C 0.23324 0.23295 0.28365
 C12 C 0.25028 0.21580 0.28377
 C13 C 0.26731 0.21599 0.26665
 H14 H 0.26743 0.28063 0.20246
 H15 H 0.29738 0.21982 0.23235
 H16 H 0.23331 0.29766 0.21953
 H17 H 0.20284 0.26699 0.27962
 H18 H 0.22022 0.23313 0.29696
 H19 H 0.28034 0.20267 0.26644
 C20 C 0.74987 -0.26702 0.23290
 C21 C 0.73273 -0.26699 0.21595
 C22 C 0.71536 -0.24997 0.21554
 C23 C 0.71576 -0.23289 0.23282
 C24 C 0.73277 -0.23278 0.24987
 C25 C 0.74985 -0.24994 0.24995
 C26 C 0.76703 -0.28398 0.23295
 C27 C 0.78438 -0.28438 0.24997
 C28 C 0.78394 -0.26707 0.26702
 C29 C 0.76691 -0.25001 0.26710
 C30 C 0.76681 -0.23287 0.28405
 C31 C 0.74980 -0.21570 0.28415
 C32 C 0.73282 -0.21582 0.26699
 H33 H 0.73373 -0.27981 0.20254
 H34 H 0.70233 -0.22006 0.23381
 H35 H 0.76606 -0.29741 0.22015
 H36 H 0.79734 -0.26607 0.27984
 H37 H 0.78014 -0.23273 0.29703
 H38 H 0.71947 -0.20283 0.26711
 C39 C 0.75009 0.26717 0.76696
 C40 C 0.73293 0.26709 0.78389
 C41 C 0.71559 0.25005 0.78426
 C42 C 0.71605 0.23300 0.76695
 C43 C 0.73308 0.23294 0.74992
 C44 C 0.75013 0.25011 0.74988
 C45 C 0.76722 0.28415 0.76695
 C46 C 0.78460 0.28458 0.74997
 C47 C 0.78422 0.26729 0.73289
 C48 C 0.76722 0.25022 0.73276
 C49 C 0.76718 0.23310 0.71579
 C50 C 0.75021 0.21592 0.71564
 C51 C 0.73320 0.21600 0.73278
 H52 H 0.73388 0.27990 0.79732
 H53 H 0.70265 0.22016 0.76592
 H54 H 0.76621 0.29755 0.77978
 H55 H 0.79765 0.26632 0.72009
 H56 H 0.78054 0.23299 0.70283
 H57 H 0.71987 0.20300 0.73262
 C58 C 0.24993 -0.26760 0.76752
 C59 C 0.26701 -0.26749 0.78453
 C60 C 0.28416 -0.25048 0.78465
 C61 C 0.28406 -0.23344 0.76750
 C62 C 0.26706 -0.23329 0.75043
 C63 C 0.24991 -0.25043 0.75045
 C64 C 0.23281 -0.28456 0.76749
 C65 C 0.21537 -0.28483 0.75055
 C66 C 0.21572 -0.26741 0.73356
 C67 C 0.23277 -0.25037 0.73341
 C68 C 0.23294 -0.23329 0.71635
 C69 C 0.24999 -0.21617 0.71616
 C70 C 0.26699 -0.21631 0.73331
 H71 H 0.26680 -0.28052 0.79787
 H72 H 0.29739 -0.22044 0.76726
 H73 H 0.23274 -0.29693 0.78139
 H74 H 0.20335 -0.26743 0.71969
 H75 H 0.21959 -0.23312 0.70338
 H76 H 0.28037 -0.20335 0.73314
 C77 C 0.74972 -0.26738 0.76740
 C78 C 0.73261 -0.26727 0.78438
 C79 C 0.71546 -0.25024 0.78448
 C80 C 0.71560 -0.23319 0.76734
 C81 C 0.73263 -0.23303 0.75031
 C82 C 0.74978 -0.25019 0.75035
 C83 C 0.76685 -0.28435 0.76739
 C84 C 0.78432 -0.28462 0.75049
 C85 C 0.78401 -0.26718 0.73351
 C86 C 0.76696 -0.25013 0.73334
 C87 C 0.76682 -0.23304 0.71630
 C88 C 0.74977 -0.21591 0.71609
 C89 C 0.73273 -0.21604 0.73320
 H90 H 0.73280 -0.28030 0.79770
 H91 H 0.70226 -0.22017 0.76710
 H92 H 0.76689 -0.29674 0.78127
 H93 H 0.79641 -0.26720 0.71967
 H94 H 0.78020 -0.23286 0.70335
 H95 H 0.71935 -0.20308 0.73302
 C96 C 0.25008 0.26702 0.76689
 C97 C 0.26718 0.26688 0.78385
 C98 C 0.28435 0.24986 0.78394
 C99 C 0.28423 0.23286 0.76678
 C100 C 0.26724 0.23277 0.74971
 C101 C 0.25007 0.24989 0.74976
 C102 C 0.23294 0.28397 0.76684
 C103 C 0.21576 0.28409 0.74987
 C104 C 0.21588 0.26696 0.73284
 C105 C 0.23289 0.24987 0.73269
 C106 C 0.23302 0.23282 0.71568
 C107 C 0.25010 0.21571 0.71548
 C108 C 0.26716 0.21584 0.73259
 H109 H 0.26697 0.27988 0.79718
 H110 H 0.29757 0.21986 0.76654
 H111 H 0.23281 0.29693 0.78021
 H112 H 0.20288 0.26709 0.71952
 H113 H 0.21999 0.23303 0.70239
 H114 H 0.28021 0.20254 0.73275
 C115 C 0.24985 -0.26722 0.23282
 C116 C 0.26694 -0.26713 0.21581
 C117 C 0.28438 -0.25020 0.21549
 C118 C 0.28410 -0.23325 0.23289
 C119 C 0.26708 -0.23314 0.24995
 C120 C 0.24987 -0.25015 0.24988
 C121 C 0.23276 -0.28422 0.23292
 C122 C 0.21533 -0.28453 0.24986
 C123 C 0.21564 -0.26711 0.26680
 C124 C 0.23267 -0.25006 0.26689
 C125 C 0.23282 -0.23300 0.28390
 C126 C 0.24990 -0.21592 0.28409
 C127 C 0.26696 -0.21612 0.26700
 H128 H 0.26700 -0.28100 0.20345
 H129 H 0.29649 -0.21940 0.23286
 H130 H 0.23268 -0.29659 0.21906
 H131 H 0.20325 -0.26714 0.28065
 H132 H 0.21978 -0.23316 0.29719
 H133 H 0.28001 -0.20284 0.26684
 C134 C 0.75021 0.26754 0.23245
 C135 C 0.73312 0.26745 0.21546
 C136 C 0.71598 0.25042 0.21533
 C137 C 0.71608 0.23338 0.23249
 C138 C 0.73301 0.23330 0.24962
 C139 C 0.75013 0.25045 0.24962
 C140 C 0.76725 0.28458 0.23258
 C141 C 0.78452 0.28500 0.24968
 C142 C 0.78410 0.26765 0.26674
 C143 C 0.76716 0.25051 0.26678
 C144 C 0.76708 0.23334 0.28374
 C145 C 0.75011 0.21614 0.28385
 C146 C 0.73312 0.21627 0.26670
 H147 H 0.73299 0.28081 0.20247
 H148 H 0.70312 0.22000 0.23234
 H149 H 0.76627 0.29801 0.21973
 H150 H 0.79748 0.26667 0.27960
 H151 H 0.78005 0.23355 0.29710
 H152 H 0.72013 0.20292 0.26647
 O153 O 0.23126 0.02216 0.47751
 O154 O 0.23121 -0.02259 0.52231
 O155 O 0.23124 0.02218 0.52223
 O156 O 0.23121 -0.02260 0.47759
 O157 O 0.26908 -0.02265 0.47759
 O158 O 0.26911 0.02213 0.52223
 O159 O 0.26908 -0.02264 0.52231
 O160 O 0.26913 0.02211 0.47751
 Cu161 Cu 0.22744 -0.00021 0.49991
 Cu162 Cu 0.27290 -0.00027 0.49991
 C163 C 0.25020 0.02981 0.46983
 C164 C 0.25014 -0.03029 0.52999
 C165 C 0.25018 0.02983 0.52988
 C166 C 0.25014 -0.03030 0.46994
 O167 O 0.76902 0.02240 0.52225
 O168 O 0.76891 -0.02235 0.47758
 O169 O 0.76901 0.02242 0.47754
 O170 O 0.76893 -0.02237 0.52230
 O171 O 0.73106 -0.02226 0.52231
 O172 O 0.73114 0.02252 0.47755
 O173 O 0.73104 -0.02225 0.47759
 O174 O 0.73115 0.02250 0.52227
 Cu175 Cu 0.77276 0.00002 0.49992
 Cu176 Cu 0.72730 0.00014 0.49993
 C177 C 0.75011 0.03013 0.52992
 C178 C 0.74996 -0.02996 0.46992
 C179 C 0.75009 0.03014 0.46987
 C180 C 0.74998 -0.02999 0.52998
 O181 O 0.47796 0.23122 0.02195
 O182 O 0.52264 0.23117 -0.02281
 O183 O 0.52267 0.23124 0.02191
 O184 O 0.47793 0.23113 -0.02276
 O185 O 0.47789 0.26905 -0.02289
 O186 O 0.52263 0.26917 0.02179
 O187 O 0.52259 0.26909 -0.02293
 O188 O 0.47792 0.26914 0.02183
 Cu189 Cu 0.50031 0.22739 -0.00041
 Cu190 Cu 0.50025 0.27291 -0.00056
 C191 C 0.47028 0.25019 0.02956
 C192 C 0.53027 0.25012 -0.03054
 C193 C 0.53032 0.25022 0.02951
 C194 C 0.47024 0.25007 -0.03048
 O195 O 0.52222 0.76853 0.02280
 O196 O 0.47752 0.76846 -0.02193
 O197 O 0.47751 0.76850 0.02278
 O198 O 0.52223 0.76849 -0.02193
 O199 O 0.52227 0.73057 -0.02184
 O200 O 0.47755 0.73057 0.02287
 O201 O 0.47757 0.73053 -0.02185
 O202 O 0.52227 0.73060 0.02288
 Cu203 Cu 0.49987 0.77229 0.00042
 Cu204 Cu 0.49992 0.72677 0.00052
 C205 C 0.52990 0.74958 0.03050
 C206 C 0.46989 0.74948 -0.02956
 C207 C 0.46986 0.74953 0.03048
 C208 C 0.52991 0.74953 -0.02955
 O209 O 0.02225 0.47788 0.23089
 O210 O -0.02245 0.52268 0.23091
 O211 O 0.02226 0.52265 0.23090
 O212 O -0.02246 0.47792 0.23091
 O213 O -0.02245 0.47786 0.26879
 O214 O 0.02227 0.52259 0.26878
 O215 O -0.02244 0.52262 0.26879
 O216 O 0.02226 0.47782 0.26877
 Cu217 Cu -0.00010 0.50029 0.22711
 Cu218 Cu -0.00009 0.50022 0.27258
 C219 C 0.02993 0.47018 0.24983
 C220 C -0.03011 0.53033 0.24985
 C221 C 0.02993 0.53029 0.24984
 C222 C -0.03012 0.47022 0.24985
 O223 O 0.02219 0.52234 0.76958
 O224 O -0.02253 0.47760 0.76952
 O225 O 0.02218 0.47757 0.76949
 O226 O -0.02252 0.52237 0.76960
 O227 O -0.02253 0.52249 0.73172
 O228 O 0.02216 0.47771 0.73161
 O229 O -0.02254 0.47773 0.73164
 O230 O 0.02217 0.52247 0.73170
 Cu231 Cu -0.00017 0.49996 0.77334
 Cu232 Cu -0.00019 0.50011 0.72787
 C233 C 0.02985 0.53007 0.75065
 C234 C -0.03020 0.46999 0.75056
 C235 C 0.02984 0.46996 0.75053
 C236 C -0.03019 0.53011 0.75068
 C237 C 0.31386 0.25502 0.15729
 C238 C 0.33670 0.25030 0.16309
 C239 C 0.34250 0.24558 0.18594
 C240 C 0.32554 0.24555 0.20294
 C241 C 0.30252 0.25027 0.19729
 C242 C 0.29687 0.25502 0.17426
 C243 C 0.35418 0.25029 0.14561
 C244 C 0.36882 0.25028 0.13097
 C245 C 0.38597 0.25027 0.11385
 C246 C 0.40062 0.25025 0.09922
 C247 C 0.41811 0.25024 0.08175
 C248 C 0.42666 0.22942 0.07329
 C249 C 0.44364 0.22937 0.05631
 C250 C 0.45230 0.25021 0.04756
 C251 C 0.44359 0.27106 0.05618
 C252 C 0.42661 0.27105 0.07316
 H253 H 0.30917 0.25864 0.13965
 H254 H 0.36015 0.24196 0.19063
 H255 H 0.33047 0.24212 0.22055
 H256 H 0.27927 0.25842 0.16933
 H257 H 0.42020 0.21321 0.07982
 H258 H 0.44997 0.21303 0.05005
 H259 H 0.44988 0.28739 0.04982
 H260 H 0.42011 0.28727 0.07959
 C261 C 0.67441 0.72938 0.17021
 C262 C 0.66354 0.74985 0.16395
 C263 C 0.66974 0.77039 0.17468
 C264 C 0.68673 0.77051 0.19164
 C265 C 0.69802 0.74998 0.19828
 C266 C 0.69144 0.72938 0.18713
 C267 C 0.64603 0.74979 0.14650
 C268 C 0.63137 0.74975 0.13189
 C269 C 0.61421 0.74970 0.11477
 C270 C 0.59956 0.74968 0.10015
 C271 C 0.58207 0.74965 0.08268
 C272 C 0.57352 0.77046 0.07412
 C273 C 0.55654 0.77046 0.05714
 C274 C 0.54788 0.74960 0.04849
 C275 C 0.55660 0.72877 0.05722
 C276 C 0.57359 0.72882 0.07419
 H277 H 0.66959 0.71332 0.16213
 H278 H 0.66155 0.78641 0.16981
 H279 H 0.69149 0.78700 0.19871
 H280 H 0.69862 0.71293 0.19195
 H281 H 0.57997 0.78668 0.08057
 H282 H 0.55020 0.78678 0.05080
 H283 H 0.55032 0.71243 0.05094
 H284 H 0.58009 0.71262 0.08070
 C285 C 0.67458 0.27055 -0.17038
 C286 C 0.66377 0.25004 -0.16415
 C287 C 0.67001 0.22954 -0.17493
 C288 C 0.68700 0.22949 -0.19189
 C289 C 0.69825 0.25005 -0.19849
 C290 C 0.69161 0.27061 -0.18730
 C291 C 0.64627 0.25004 -0.14669
 C292 C 0.63162 0.25003 -0.13206
 C293 C 0.61448 0.25003 -0.11492
 C294 C 0.59985 0.25004 -0.10028
 C295 C 0.58239 0.25006 -0.08278
 C296 C 0.57389 0.22925 -0.07418
 C297 C 0.55693 0.22925 -0.05718
 C298 C 0.54824 0.25010 -0.04855
 C299 C 0.55689 0.27093 -0.05731
 C300 C 0.57385 0.27089 -0.07431
 H301 H 0.66972 0.28659 -0.16227
 H302 H 0.66187 0.21350 -0.17009
 H303 H 0.69181 0.21301 -0.19900
 H304 H 0.69875 0.28709 -0.19209
 H305 H 0.58038 0.21303 -0.08062
 H306 H 0.55064 0.21292 -0.05082
 H307 H 0.55057 0.28728 -0.05104
 H308 H 0.58031 0.28710 -0.08085
 C309 C 0.32946 0.72874 -0.17326
 C310 C 0.33637 0.74941 -0.16312
 C311 C 0.32624 0.77012 -0.17003
 C312 C 0.30927 0.77018 -0.18701
 C313 C 0.30219 0.74948 -0.19731
 C314 C 0.31249 0.72875 -0.19023
 C315 C 0.35385 0.74938 -0.14564
 C316 C 0.36848 0.74937 -0.13100
 C317 C 0.38562 0.74937 -0.11386
 C318 C 0.40025 0.74937 -0.09923
 C319 C 0.41773 0.74940 -0.08174
 C320 C 0.42622 0.77023 -0.07326
 C321 C 0.44319 0.77028 -0.05628
 C322 C 0.45191 0.74945 -0.04755
 C323 C 0.44325 0.72860 -0.05620
 C324 C 0.42628 0.72860 -0.07318
 H325 H 0.33724 0.71262 -0.16808
 H326 H 0.33141 0.78622 -0.16225
 H327 H 0.30146 0.78637 -0.19188
 H328 H 0.30762 0.71258 -0.19804
 H329 H 0.41972 0.78644 -0.07977
 H330 H 0.44948 0.78663 -0.05000
 H331 H 0.44959 0.71227 -0.04985
 H332 H 0.41983 0.71237 -0.07963
 C333 C 0.17060 0.32653 0.22896
 C334 C 0.16372 0.33666 0.24963
 C335 C 0.17390 0.32974 0.27029
 C336 C 0.19090 0.31276 0.27029
 C337 C 0.19795 0.30247 0.24960
 C338 C 0.18761 0.30955 0.22892
 C339 C 0.14620 0.35413 0.24965
 C340 C 0.13153 0.36876 0.24968
 C341 C 0.11434 0.38588 0.24972
 C342 C 0.09967 0.40051 0.24975
 C343 C 0.08216 0.41798 0.24978
 C344 C 0.07363 0.42645 0.27058
 C345 C 0.05662 0.44344 0.27062
 C346 C 0.04792 0.45217 0.24981
 C347 C 0.05662 0.44353 0.22899
 C348 C 0.07362 0.42655 0.22899
 H349 H 0.16279 0.33171 0.21288
 H350 H 0.16874 0.33751 0.28639
 H351 H 0.19874 0.30788 0.28644
 H352 H 0.19246 0.30175 0.21275
 H353 H 0.08012 0.41994 0.28677
 H354 H 0.05031 0.44972 0.28695
 H355 H 0.05029 0.44988 0.21268
 H356 H 0.08010 0.42010 0.21279
 C357 C 0.15921 0.68501 0.74079
 C358 C 0.16354 0.66356 0.75068
 C359 C 0.18494 0.65911 0.76055
 C360 C 0.20199 0.67603 0.76055
 C361 C 0.19803 0.69791 0.75061
 C362 C 0.17619 0.70199 0.74070
 C363 C 0.14602 0.64611 0.75070
 C364 C 0.13136 0.63149 0.75071
 C365 C 0.11420 0.61436 0.75072
 C366 C 0.09954 0.59973 0.75072
 C367 C 0.08205 0.58225 0.75071
 C368 C 0.07353 0.57367 0.77149
 C369 C 0.05654 0.55669 0.77150
 C370 C 0.04784 0.54807 0.75067
 C371 C 0.05652 0.55682 0.72986
 C372 C 0.07351 0.57380 0.72991
 H373 H 0.14259 0.68871 0.73327
 H374 H 0.18855 0.64246 0.76809
 H375 H 0.21853 0.67135 0.76758
 H376 H 0.17161 0.71857 0.73365
 H377 H 0.08002 0.58010 0.78770
 H378 H 0.05024 0.55033 0.78781
 H379 H 0.05020 0.55056 0.71354
 H380 H 0.07999 0.58032 0.71371
 C381 C -0.17462 0.67022 0.22942
 C382 C -0.16379 0.66397 0.24989
 C383 C -0.17002 0.67473 0.27039
 C384 C -0.18702 0.69171 0.27047
 C385 C -0.19828 0.69834 0.24994
 C386 C -0.19165 0.68716 0.22939
 C387 C -0.14627 0.64650 0.24986
 C388 C -0.13160 0.63186 0.24985
 C389 C -0.11443 0.61472 0.24985
 C390 C -0.09978 0.60008 0.24985
 C391 C -0.08229 0.58258 0.24986
 C392 C -0.07376 0.57402 0.27065
 C393 C -0.05678 0.55702 0.27068
 C394 C -0.04809 0.54835 0.24986
 C395 C -0.05678 0.55708 0.22904
 C396 C -0.07376 0.57408 0.22906
 H397 H -0.16977 0.66212 0.21339
 H398 H -0.16186 0.66986 0.28640
 H399 H -0.19182 0.69880 0.28694
 H400 H -0.19881 0.69198 0.21294
 H401 H -0.08025 0.58049 0.28685
 H402 H -0.05047 0.55068 0.28699
 H403 H -0.05047 0.55078 0.21272
 H404 H -0.08024 0.58059 0.21287
 C405 C -0.16985 0.32555 0.72967
 C406 C -0.16367 0.33629 0.75019
 C407 C -0.17453 0.33000 0.77064
 C408 C -0.19153 0.31304 0.77062
 C409 C -0.19809 0.30188 0.75004
 C410 C -0.18681 0.30855 0.72954
 C411 C -0.14619 0.35378 0.75026
 C412 C -0.13156 0.36843 0.75032
 C413 C -0.11444 0.38560 0.75039
 C414 C -0.09981 0.40026 0.75043
 C415 C -0.08235 0.41776 0.75047
 C416 C -0.07383 0.42623 0.77128
 C417 C -0.05686 0.44323 0.77134
 C418 C -0.04818 0.45199 0.75053
 C419 C -0.05686 0.44336 0.72970
 C420 C -0.07383 0.42636 0.72969
 H421 H -0.16168 0.33045 0.71368
 H422 H -0.16972 0.33808 0.78669
 H423 H -0.19870 0.30819 0.78705
 H424 H -0.19157 0.30147 0.71306
 H425 H -0.08031 0.41969 0.78747
 H426 H -0.05056 0.44949 0.78767
 H427 H -0.05055 0.44973 0.71340
 H428 H -0.08030 0.41993 0.71348
 C429 C 0.22963 0.17033 0.32581
 C430 C 0.25029 0.16343 0.33599
 C431 C 0.27094 0.17362 0.32911
 C432 C 0.27096 0.19064 0.31213
 C433 C 0.25028 0.19771 0.30180
 C434 C 0.22960 0.18736 0.30884
 C435 C 0.25028 0.14592 0.35348
 C436 C 0.25027 0.13126 0.36814
 C437 C 0.25026 0.11411 0.38531
 C438 C 0.25025 0.09946 0.39998
 C439 C 0.25024 0.08199 0.41752
 C440 C 0.22945 0.07349 0.42606
 C441 C 0.22941 0.05651 0.44309
 C442 C 0.25022 0.04780 0.45180
 C443 C 0.27104 0.05646 0.44309
 C444 C 0.27102 0.07344 0.42606
 H445 H 0.21354 0.16252 0.33096
 H446 H 0.28703 0.16845 0.33692
 H447 H 0.28712 0.19848 0.30729
 H448 H 0.21345 0.19222 0.30100
 H449 H 0.21326 0.07998 0.41957
 H450 H 0.21309 0.05022 0.44942
 H451 H 0.28734 0.05013 0.44942
 H452 H 0.28722 0.07990 0.41956
 C453 C 0.74560 0.15788 0.68623
 C454 C 0.75031 0.16373 0.66339
 C455 C 0.75500 0.18662 0.65761
 C456 C 0.75498 0.20360 0.67458
 C457 C 0.75025 0.19789 0.69760
 C458 C 0.74556 0.17483 0.70323
 C459 C 0.75031 0.14626 0.64590
 C460 C 0.75031 0.13163 0.63126
 C461 C 0.75029 0.11449 0.61412
 C462 C 0.75027 0.09985 0.59949
 C463 C 0.75023 0.08236 0.58203
 C464 C 0.77100 0.07378 0.57350
 C465 C 0.77099 0.05678 0.55654
 C466 C 0.75015 0.04813 0.54788
 C467 C 0.72936 0.05687 0.55658
 C468 C 0.72942 0.07387 0.57353
 H469 H 0.74201 0.14020 0.69091
 H470 H 0.75860 0.19135 0.63996
 H471 H 0.75837 0.22123 0.66966
 H472 H 0.74215 0.16986 0.72084
 H473 H 0.78721 0.08023 0.57996
 H474 H 0.78728 0.05043 0.55022
 H475 H 0.71303 0.05059 0.55029
 H476 H 0.71324 0.08039 0.58002
 C477 C 0.24530 -0.18683 0.65806
 C478 C 0.25004 -0.16396 0.66379
 C479 C 0.25478 -0.15813 0.68661
 C480 C 0.25478 -0.17509 0.70365
 C481 C 0.25002 -0.19814 0.69807
 C482 C 0.24527 -0.20382 0.67507
 C483 C 0.25003 -0.14647 0.64626
 C484 C 0.25003 -0.13183 0.63159
 C485 C 0.25004 -0.11468 0.61442
 C486 C 0.25006 -0.10002 0.59976
 C487 C 0.25009 -0.08252 0.58225
 C488 C 0.27088 -0.07402 0.57372
 C489 C 0.27093 -0.05702 0.55671
 C490 C 0.25012 -0.04830 0.54800
 C491 C 0.22930 -0.05697 0.55670
 C492 C 0.22931 -0.07397 0.57371
 H493 H 0.24167 -0.19153 0.64043
 H494 H 0.25841 -0.14047 0.69125
 H495 H 0.25820 -0.17014 0.72124
 H496 H 0.24184 -0.22144 0.67019
 H497 H 0.28707 -0.08052 0.58022
 H498 H 0.28725 -0.05072 0.55040
 H499 H 0.21299 -0.05063 0.55037
 H500 H 0.21311 -0.08044 0.58019
 C501 C 0.74504 -0.15764 0.31351
 C502 C 0.74974 -0.16347 0.33636
 C503 C 0.75445 -0.18635 0.34217
 C504 C 0.75447 -0.20335 0.32521
 C505 C 0.74977 -0.19766 0.30218
 C506 C 0.74505 -0.17461 0.29652
 C507 C 0.74973 -0.14599 0.35383
 C508 C 0.74973 -0.13136 0.36847
 C509 C 0.74975 -0.11422 0.38561
 C510 C 0.74978 -0.09959 0.40026
 C511 C 0.74982 -0.08213 0.41774
 C512 C 0.77063 -0.07365 0.42625
 C513 C 0.77070 -0.05668 0.44323
 C514 C 0.74991 -0.04795 0.45194
 C515 C 0.72908 -0.05659 0.44327
 C516 C 0.72906 -0.07356 0.42629
 H517 H 0.74144 -0.13997 0.30881
 H518 H 0.75804 -0.19107 0.35982
 H519 H 0.75788 -0.22098 0.33015
 H520 H 0.74166 -0.16965 0.27891
 H521 H 0.78681 -0.08017 0.41975
 H522 H 0.78703 -0.05041 0.44953
 H523 H 0.71278 -0.05024 0.44960
 H524 H 0.71285 -0.08000 0.41982
 C525 C 0.67013 0.72899 -0.17348
 C526 C 0.66323 0.74966 -0.16331
 C527 C 0.67336 0.77036 -0.17020
 C528 C 0.69033 0.77042 -0.18718
 C529 C 0.69740 0.74973 -0.19750
 C530 C 0.68710 0.72900 -0.19046
 C531 C 0.64577 0.74962 -0.14581
 C532 C 0.63116 0.74958 -0.13115
 C533 C 0.61406 0.74955 -0.11397
 C534 C 0.59946 0.74954 -0.09930
 C535 C 0.58202 0.74954 -0.08179
 C536 C 0.57354 0.72872 -0.07321
 C537 C 0.55658 0.72869 -0.05620
 C538 C 0.54788 0.74953 -0.04755
 C539 C 0.55653 0.77038 -0.05629
 C540 C 0.57348 0.77035 -0.07330
 H541 H 0.66235 0.71287 -0.16832
 H542 H 0.66819 0.78646 -0.16239
 H543 H 0.69814 0.78661 -0.19203
 H544 H 0.69197 0.71284 -0.19828
 H545 H 0.58003 0.71251 -0.07966
 H546 H 0.55030 0.71236 -0.04985
 H547 H 0.55021 0.78671 -0.05001
 H548 H 0.57993 0.78657 -0.07982
 C549 C 0.32650 0.22914 -0.17080
 C550 C 0.33663 0.24983 -0.16391
 C551 C 0.32969 0.27053 -0.17405
 C552 C 0.31269 0.27056 -0.19100
 C553 C 0.30241 0.24985 -0.19805
 C554 C 0.30951 0.22913 -0.18776
 C555 C 0.35412 0.24982 -0.14646
 C556 C 0.36877 0.24983 -0.13183
 C557 C 0.38592 0.24985 -0.11471
 C558 C 0.40056 0.24988 -0.10009
 C559 C 0.41805 0.24993 -0.08262
 C560 C 0.42655 0.27077 -0.07418
 C561 C 0.44354 0.27084 -0.05721
 C562 C 0.45225 0.25002 -0.04845
 C563 C 0.44358 0.22916 -0.05706
 C564 C 0.42659 0.22913 -0.07403
 H565 H 0.33170 0.21302 -0.16302
 H566 H 0.33746 0.28664 -0.16889
 H567 H 0.30780 0.28675 -0.19881
 H568 H 0.30171 0.21295 -0.19261
 H569 H 0.42005 0.28697 -0.08072
 H570 H 0.44984 0.28719 -0.05097
 H571 H 0.44991 0.21284 -0.05069
 H572 H 0.42013 0.21290 -0.08044
 C573 C 0.34051 0.75953 0.18523
 C574 C 0.33612 0.74969 0.16382
 C575 C 0.31468 0.73990 0.15942
 C576 C 0.29766 0.73990 0.17634
 C577 C 0.30169 0.74977 0.19820
 C578 C 0.32356 0.75962 0.20222
 C579 C 0.35362 0.74964 0.14636
 C580 C 0.36828 0.74960 0.13174
 C581 C 0.38544 0.74957 0.11464
 C582 C 0.40011 0.74955 0.10003
 C583 C 0.41762 0.74955 0.08258
 C584 C 0.42618 0.72873 0.07412
 C585 C 0.44318 0.72870 0.05717
 C586 C 0.45186 0.74954 0.04845
 C587 C 0.44314 0.77038 0.05708
 C588 C 0.42613 0.77036 0.07403
 H589 H 0.35715 0.76700 0.18889
 H590 H 0.31103 0.73240 0.14279
 H591 H 0.28110 0.73292 0.17171
 H592 H 0.32819 0.76662 0.21877
 H593 H 0.41970 0.71251 0.08062
 H594 H 0.44952 0.71236 0.05090
 H595 H 0.44944 0.78672 0.05074
 H596 H 0.41963 0.78658 0.08046
 C597 C 0.65802 0.24572 0.18587
 C598 C 0.66385 0.25043 0.16303
 C599 C 0.68670 0.25515 0.15725
 C600 C 0.70366 0.25516 0.17424
 C601 C 0.69798 0.25043 0.19726
 C602 C 0.67495 0.24571 0.20289
 C603 C 0.64640 0.25043 0.14553
 C604 C 0.63178 0.25041 0.13088
 C605 C 0.61465 0.25039 0.11373
 C606 C 0.60002 0.25036 0.09910
 C607 C 0.58253 0.25033 0.08163
 C608 C 0.57399 0.27113 0.07305
 C609 C 0.55700 0.27112 0.05608
 C610 C 0.54832 0.25026 0.04748
 C611 C 0.55702 0.22944 0.05623
 C612 C 0.57401 0.22950 0.07319
 H613 H 0.64037 0.24211 0.19054
 H614 H 0.69141 0.25875 0.13961
 H615 H 0.72127 0.25857 0.16933
 H616 H 0.67000 0.24230 0.22049
 H617 H 0.58047 0.28736 0.07946
 H618 H 0.55067 0.28744 0.04972
 H619 H 0.55071 0.21309 0.04998
 H620 H 0.58050 0.21329 0.07972
 C621 C -0.15950 0.68518 0.74083
 C622 C -0.16386 0.66373 0.75069
 C623 C -0.18529 0.65929 0.76049
 C624 C -0.20233 0.67621 0.76047
 C625 C -0.19834 0.69810 0.75056
 C626 C -0.17648 0.70218 0.74072
 C627 C -0.14634 0.64625 0.75073
 C628 C -0.13168 0.63162 0.75076
 C629 C -0.11452 0.61448 0.75078
 C630 C -0.09987 0.59983 0.75079
 C631 C -0.08238 0.58234 0.75077
 C632 C -0.07385 0.57375 0.77155
 C633 C -0.05686 0.55676 0.77154
 C634 C -0.04818 0.54812 0.75071
 C635 C -0.05687 0.55688 0.72991
 C636 C -0.07385 0.57387 0.72996
 H637 H -0.14286 0.68887 0.73335
 H638 H -0.18892 0.64262 0.76800
 H639 H -0.21889 0.67154 0.76745
 H640 H -0.17187 0.71876 0.73369
 H641 H -0.08033 0.58019 0.78775
 H642 H -0.05055 0.55039 0.78785
 H643 H -0.05056 0.55061 0.71358
 H644 H -0.08034 0.58040 0.71377
 C645 C -0.17457 0.33056 0.22925
 C646 C -0.16384 0.33680 0.24976
 C647 C -0.17013 0.32599 0.27024
 C648 C -0.18707 0.30897 0.27027
 C649 C -0.19822 0.30234 0.24971
 C650 C -0.19155 0.31358 0.22917
 C651 C -0.14636 0.35428 0.24978
 C652 C -0.13171 0.36891 0.24979
 C653 C -0.11455 0.38604 0.24981
 C654 C -0.09989 0.40065 0.24983
 C655 C -0.08237 0.41810 0.24984
 C656 C -0.07383 0.42657 0.27064
 C657 C -0.05682 0.44353 0.27067
 C658 C -0.04812 0.45225 0.24985
 C659 C -0.05683 0.44361 0.22903
 C660 C -0.07384 0.42665 0.22905
 H661 H -0.16968 0.33869 0.21323
 H662 H -0.16206 0.33085 0.28628
 H663 H -0.19192 0.30184 0.28673
 H664 H -0.19862 0.30877 0.21269
 H665 H -0.08032 0.42007 0.28683
 H666 H -0.05049 0.44980 0.28698
 H667 H -0.05051 0.44995 0.21271
 H668 H -0.08033 0.42022 0.21285
 C669 C 0.15767 0.31340 0.74534
 C670 C 0.16343 0.33627 0.75006
 C671 C 0.18626 0.34211 0.75470
 C672 C 0.20329 0.32516 0.75465
 C673 C 0.19768 0.30211 0.74993
 C674 C 0.17467 0.29642 0.74527
 C675 C 0.14591 0.35374 0.75012
 C676 C 0.13125 0.36838 0.75018
 C677 C 0.11410 0.38553 0.75025
 C678 C 0.09946 0.40018 0.75030
 C679 C 0.08199 0.41769 0.75036
 C680 C 0.07349 0.42615 0.77119
 C681 C 0.05652 0.44317 0.77127
 C682 C 0.04781 0.45194 0.75047
 C683 C 0.05648 0.44331 0.72963
 C684 C 0.07345 0.42630 0.72960
 H685 H 0.14003 0.30868 0.74178
 H686 H 0.19092 0.35978 0.75831
 H687 H 0.22089 0.33012 0.75801
 H688 H 0.16977 0.27880 0.74186
 H689 H 0.07999 0.41961 0.78736
 H690 H 0.05023 0.44944 0.78760
 H691 H 0.05015 0.44969 0.71333
 H692 H 0.07991 0.41987 0.71338
 C693 C 0.18501 0.65936 0.24001
 C694 C 0.16359 0.66378 0.24983
 C695 C 0.15921 0.68522 0.25967
 C696 C 0.17616 0.70222 0.25973
 C697 C 0.19802 0.69817 0.24985
 C698 C 0.20203 0.67630 0.23998
 C699 C 0.14609 0.64631 0.24980
 C700 C 0.13143 0.63169 0.24979
 C701 C 0.11426 0.61457 0.24979
 C702 C 0.09961 0.59994 0.24980
 C703 C 0.08212 0.58246 0.24981
 C704 C 0.07361 0.57391 0.27061
 C705 C 0.05662 0.55693 0.27064
 C706 C 0.04792 0.54828 0.24983
 C707 C 0.05660 0.55700 0.22901
 C708 C 0.07359 0.57398 0.22902
 H709 H 0.18865 0.64271 0.23251
 H710 H 0.14257 0.68889 0.26716
 H711 H 0.17155 0.71879 0.26673
 H712 H 0.21858 0.67165 0.23298
 H713 H 0.08010 0.58037 0.28680
 H714 H 0.05031 0.55059 0.28696
 H715 H 0.05028 0.55071 0.21269
 H716 H 0.08006 0.58048 0.21282
 C717 C 0.74499 -0.15786 0.68655
 C718 C 0.74976 -0.16368 0.66373
 C719 C 0.75454 -0.18655 0.65800
 C720 C 0.75455 -0.20354 0.67501
 C721 C 0.74976 -0.19787 0.69800
 C722 C 0.74498 -0.17482 0.70359
 C723 C 0.74976 -0.14620 0.64621
 C724 C 0.74977 -0.13156 0.63154
 C725 C 0.74979 -0.11441 0.61437
 C726 C 0.74981 -0.09975 0.59971
 C727 C 0.74986 -0.08225 0.58221
 C728 C 0.77067 -0.07378 0.57367
 C729 C 0.77073 -0.05678 0.55667
 C730 C 0.74994 -0.04801 0.54798
 C731 C 0.72910 -0.05664 0.55669
 C732 C 0.72909 -0.07365 0.57369
 H733 H 0.74134 -0.14019 0.69119
 H734 H 0.75819 -0.19126 0.64037
 H735 H 0.75800 -0.22117 0.67013
 H736 H 0.74153 -0.16988 0.72117
 H737 H 0.78684 -0.08032 0.58014
 H738 H 0.78706 -0.05051 0.55034
 H739 H 0.71280 -0.05027 0.55038
 H740 H 0.71288 -0.08008 0.58018
 C741 C 0.22930 -0.17051 0.32610
 C742 C 0.24995 -0.16374 0.33633
 C743 C 0.27059 -0.17399 0.32950
 C744 C 0.27060 -0.19096 0.31251
 C745 C 0.24992 -0.19789 0.30213
 C746 C 0.22926 -0.18748 0.30911
 C747 C 0.24997 -0.14628 0.35382
 C748 C 0.24999 -0.13167 0.36848
 C749 C 0.25003 -0.11456 0.38564
 C750 C 0.25006 -0.09994 0.40029
 C751 C 0.25008 -0.08247 0.41778
 C752 C 0.27088 -0.07400 0.42631
 C753 C 0.27093 -0.05702 0.44329
 C754 C 0.25012 -0.04829 0.45197
 C755 C 0.22930 -0.05694 0.44328
 C756 C 0.22931 -0.07392 0.42630
 H757 H 0.21323 -0.16264 0.33121
 H758 H 0.28668 -0.16893 0.33736
 H759 H 0.28674 -0.19886 0.30771
 H760 H 0.21311 -0.19224 0.30124
 H761 H 0.28707 -0.08050 0.41983
 H762 H 0.28725 -0.05074 0.44960
 H763 H 0.21299 -0.05060 0.44959
 H764 H 0.21311 -0.08037 0.41982
 C765 C 0.77082 0.17075 0.32595
 C766 C 0.75017 0.16380 0.33609
 C767 C 0.72949 0.17394 0.32917
 C768 C 0.72945 0.19095 0.31218
 C769 C 0.75013 0.19806 0.30189
 C770 C 0.77083 0.18776 0.30897
 C771 C 0.75018 0.14630 0.35359
 C772 C 0.75019 0.13164 0.36825
 C773 C 0.75020 0.11450 0.38542
 C774 C 0.75019 0.09985 0.40009
 C775 C 0.75017 0.08236 0.41761
 C776 C 0.72937 0.07389 0.42616
 C777 C 0.72932 0.05690 0.44317
 C778 C 0.75012 0.04815 0.45186
 C779 C 0.77095 0.05679 0.44314
 C780 C 0.77095 0.07378 0.42613
 H781 H 0.78692 0.16297 0.33114
 H782 H 0.71340 0.16874 0.33695
 H783 H 0.71328 0.19875 0.30730
 H784 H 0.78698 0.19266 0.30116
 H785 H 0.71319 0.08042 0.41968
 H786 H 0.71300 0.05063 0.44951
 H787 H 0.78725 0.05043 0.44945
 H788 H 0.78715 0.08022 0.41962
 C789 C 0.27080 0.17377 0.67006
 C790 C 0.25016 0.16355 0.66322
 C791 C 0.22950 0.17036 0.67343
 C792 C 0.22946 0.18733 0.69041
 C793 C 0.25012 0.19771 0.69742
 C794 C 0.27081 0.19073 0.68705
 C795 C 0.25018 0.14607 0.64574
 C796 C 0.25019 0.13143 0.63111
 C797 C 0.25020 0.11428 0.61399
 C798 C 0.25021 0.09962 0.59938
 C799 C 0.25020 0.08211 0.58194
 C800 C 0.27099 0.07354 0.57345
 C801 C 0.27101 0.05652 0.55651
 C802 C 0.25019 0.04785 0.54783
 C803 C 0.22938 0.05659 0.55648
 C804 C 0.22941 0.07360 0.57342
 H805 H 0.28689 0.16866 0.66222
 H806 H 0.21343 0.16252 0.66831
 H807 H 0.21331 0.19212 0.69828
 H808 H 0.28695 0.19860 0.69187
 H809 H 0.28719 0.08000 0.57992
 H810 H 0.28732 0.05017 0.55022
 H811 H 0.21307 0.05029 0.55017
 H812 H 0.21322 0.08012 0.57988
   
