data_POSCAR
  _audit_creation_date              2014-09-24
  _audit_creation_method            'ToBaCCo'
  _symmetry_space_group_name_H-M    'P1'
  _symmetry_Int_Tables_number       1
  _symmetry_cell_setting            triclinic
  loop_
  _symmetry_equiv_pos_as_xyz
 x,y,z
_cell_length_a 32.3169
_cell_length_b 32.3253
_cell_length_c 32.1317
_cell_angle_alpha 97.390600
_cell_angle_beta 78.569900
_cell_angle_gamma 78.277500
loop_
  _atom_site_label
  _atom_site_type_symbol
  _atom_site_fract_x
  _atom_site_fract_y
  _atom_site_fract_z
C1 C 0.50782 0.53004 0.00858
 C2 C 0.47273 0.56540 0.00977
 C3 C 0.43186 0.55718 0.00782
 C4 C 0.42400 0.51573 0.00520
 C5 C 0.45855 0.48108 0.00592
 C6 C 0.49964 0.48868 0.00663
 H7 H 0.52544 0.46161 0.00731
 H8 H 0.40541 0.58385 0.00778
 C9 C 0.01461 0.52721 0.49162
 C10 C 0.01518 0.49346 0.45824
 C11 C 0.01433 0.45246 0.46761
 C12 C 0.01218 0.44370 0.50947
 C13 C 0.01092 0.47700 0.54313
 C14 C 0.01202 0.51809 0.53378
 H15 H 0.01222 0.54288 0.55983
 H16 H 0.01460 0.42704 0.44189
 C17 C 0.51434 0.01042 0.45082
 C18 C 0.48794 -0.00674 0.48122
 C19 C 0.50062 -0.01387 0.51945
 C20 C 0.53888 -0.00430 0.52878
 C21 C 0.56706 0.01040 0.49673
 C22 C 0.55326 0.01861 0.45895
 H23 H 0.57455 0.02845 0.43355
 H24 H 0.47811 -0.02375 0.54376
 O25 O 0.46628 0.01539 -0.05800
 O26 O 0.45418 0.02460 0.05925
 O27 O 0.45595 0.07869 0.00490
 O28 O 0.46532 -0.03777 -0.00424
 O29 O 0.53638 -0.04870 -0.01302
 O30 O 0.52701 0.06773 -0.00399
 O31 O 0.52523 0.01423 0.05021
 O32 O 0.53738 0.00464 -0.06719
 Cu33 Cu 0.45327 0.02151 0.00147
 Cu34 Cu 0.53862 0.00854 -0.00937
 C35 C 0.50384 0.00813 -0.08270
 C36 C 0.48771 0.02040 0.07475
 C37 C 0.48999 0.09312 0.00173
 C38 C 0.50238 -0.06317 -0.01013
 O39 O -0.09490 0.53574 1.02337
 O40 O 0.02229 0.52707 1.01294
 O41 O -0.02849 0.52880 0.95941
 O42 O -0.04285 0.53527 1.07661
 O43 O -0.03271 0.46480 1.06870
 O44 O -0.01693 0.45827 0.95073
 O45 O 0.03361 0.45658 1.00513
 O46 O -0.08320 0.46521 1.01470
 Cu47 Cu -0.03737 0.53880 1.01885
 Cu48 Cu -0.02379 0.45415 1.00890
 C49 C -0.10907 0.50181 1.02061
 C50 C 0.04791 0.49041 1.00794
 C51 C -0.01996 0.49257 0.93491
 C52 C -0.03947 0.50115 1.09262
 O53 O 0.04106 -0.08267 0.45540
 O54 O 0.02682 0.03392 0.45815
 O55 O 0.09334 -0.02984 0.44783
 O56 O -0.02442 -0.01839 0.46321
 O57 O -0.03201 -0.00864 0.53379
 O58 O 0.08633 -0.02006 0.51833
 O59 O 0.01969 0.04371 0.52867
 O60 O 0.03415 -0.07233 0.52587
 Cu61 Cu 0.03513 -0.02544 0.44905
 Cu62 Cu 0.02644 -0.01346 0.53370
 C63 C 0.03919 -0.09731 0.49044
 C64 C 0.02086 0.05875 0.49396
 C65 C 0.10993 -0.02606 0.48038
 C66 C -0.04842 -0.01161 0.50098
 C67 C -0.44436 0.56733 1.04253
 C68 C -0.40268 0.56985 1.04703
 C69 C -0.36597 0.53910 1.02242
 C70 C -0.37163 0.50654 0.99212
 C71 C -0.41308 0.50393 0.98764
 C72 C -0.45025 0.53430 1.01263
 C73 C -0.32219 0.54207 1.02822
 C74 C -0.28910 0.50733 1.02057
 C75 C -0.24411 0.50819 1.02381
 C76 C -0.21542 0.46915 1.02345
 C77 C -0.17189 0.46731 1.02330
 C78 C -0.15586 0.50457 1.02342
 C79 C -0.18463 0.54391 1.02457
 C80 C -0.22830 0.54574 1.02458
 H81 H -0.47197 0.59043 1.06360
 H82 H -0.39916 0.59535 1.07051
 H83 H -0.34407 0.48330 0.97119
 H84 H -0.41591 0.47866 0.96347
 H85 H -0.31801 0.57330 1.04059
 H86 H -0.29521 0.47597 1.01210
 H87 H -0.22659 0.43970 1.02267
 H88 H -0.15066 0.43649 1.02249
 H89 H -0.17318 0.57315 1.02442
 H90 H -0.24892 0.57636 1.02389
 C91 C 0.36019 0.53408 0.97506
 C92 C 0.31815 0.53170 0.97270
 C93 C 0.29645 0.50617 0.99686
 C94 C 0.31796 0.48269 1.02353
 C95 C 0.36027 0.48501 1.02590
 C96 C 0.38210 0.51087 1.00173
 C97 C 0.25070 0.50753 0.99519
 C98 C 0.22913 0.47828 1.00772
 C99 C 0.18287 0.48197 1.00669
 C100 C 0.16705 0.44468 1.00257
 C101 C 0.12339 0.44723 1.00221
 C102 C 0.09455 0.48728 1.00639
 C103 C 0.11033 0.52462 1.01086
 C104 C 0.15389 0.52206 1.01122
 H105 H 0.37588 0.55368 0.95516
 H106 H 0.30239 0.55019 0.95195
 H107 H 0.30182 0.46381 1.04387
 H108 H 0.37475 0.46839 1.04854
 H109 H 0.23455 0.53353 0.98169
 H110 H 0.24594 0.44993 1.01742
 H111 H 0.18858 0.41346 0.99949
 H112 H 0.11216 0.41787 0.99905
 H113 H 0.08887 0.55600 1.01474
 H114 H 0.16437 0.55167 1.01610
 C115 C 0.04568 -0.42489 0.44686
 C116 C 0.05038 -0.38384 0.44098
 C117 C 0.02804 -0.34783 0.47241
 C118 C -0.00051 -0.35350 0.50921
 C119 C -0.00529 -0.39447 0.51512
 C120 C 0.01779 -0.43106 0.48412
 C121 C 0.03486 -0.30492 0.46574
 C122 C 0.03055 -0.27311 0.49869
 C123 C 0.03642 -0.22945 0.49389
 C124 C 0.03991 -0.20253 0.53031
 C125 C 0.04228 -0.16012 0.52872
 C126 C 0.04116 -0.14346 0.49057
 C127 C 0.03878 -0.17059 0.45369
 C128 C 0.03623 -0.21310 0.45531
 H129 H 0.06606 -0.45184 0.42326
 H130 H 0.07264 -0.38035 0.41235
 H131 H -0.01972 -0.32634 0.53335
 H132 H -0.02814 -0.39722 0.54364
 H133 H 0.04586 -0.30059 0.43290
 H134 H 0.02336 -0.27946 0.53130
 H135 H 0.04006 -0.21414 0.56046
 H136 H 0.04410 -0.14010 0.55773
 H137 H 0.03745 -0.15858 0.42391
 H138 H 0.03266 -0.23227 0.42670
 C139 C 0.04290 0.37588 0.53430
 C140 C 0.04356 0.33310 0.53792
 C141 C 0.01335 0.31292 0.52301
 C142 C -0.01890 0.33696 0.50628
 C143 C -0.01964 0.37968 0.50283
 C144 C 0.01150 0.39936 0.51636
 C145 C 0.01626 0.26697 0.52527
 C146 C 0.00340 0.24089 0.49704
 C147 C 0.00778 0.19444 0.49739
 C148 C 0.00997 0.16721 0.45890
 C149 C 0.01415 0.12318 0.45773
 C150 C 0.01570 0.10549 0.49526
 C151 C 0.01267 0.13286 0.53402
 C152 C 0.00870 0.17688 0.53514
 H153 H 0.06743 0.39036 0.54463
 H154 H 0.06845 0.31536 0.55130
 H155 H -0.04370 0.32297 0.49595
 H156 H -0.04445 0.39742 0.48937
 H157 H 0.03222 0.25388 0.54891
 H158 H -0.00843 0.25330 0.47076
 H159 H 0.00890 0.18001 0.42947
 H160 H 0.01618 0.10301 0.42740
 H161 H 0.01346 0.12027 0.56358
 H162 H 0.00571 0.19701 0.56571
 C163 C 0.55981 0.02761 -0.40688
 C164 C 0.56228 0.02853 -0.36385
 C165 C 0.54892 -0.00248 -0.34116
 C166 C 0.53517 -0.03584 -0.36289
 C167 C 0.53288 -0.03696 -0.40590
 C168 C 0.54469 -0.00499 -0.42862
 C169 C 0.54898 0.00108 -0.29481
 C170 C 0.51956 -0.01170 -0.26687
 C171 C 0.51672 -0.00602 -0.21990
 C172 C 0.47653 -0.00337 -0.19214
 C173 C 0.47230 0.00163 -0.14761
 C174 C 0.50842 0.00348 -0.12988
 C175 C 0.54886 0.00030 -0.15768
 C176 C 0.55302 -0.00439 -0.20230
 H177 H 0.56784 0.05370 -0.42235
 H178 H 0.57310 0.05450 -0.34775
 H179 H 0.52628 -0.06126 -0.34680
 H180 H 0.52252 -0.06348 -0.42158
 H181 H 0.57139 0.01777 -0.28310
 H182 H 0.49443 -0.02427 -0.27830
 H183 H 0.44818 -0.00489 -0.20496
 H184 H 0.44075 0.00370 -0.12710
 H185 H 0.57735 0.00133 -0.14499
 H186 H 0.58477 -0.00754 -0.22282
 C187 C 0.50632 0.05711 0.39532
 C188 C 0.50158 0.06300 0.35411
 C189 C 0.49406 0.03001 0.32582
 C190 C 0.49083 -0.00900 0.33977
 C191 C 0.49604 -0.01505 0.38092
 C192 C 0.50419 0.01786 0.40892
 C193 C 0.49383 0.03600 0.28099
 C194 C 0.47321 0.01527 0.25600
 C195 C 0.47652 0.01923 0.21016
 C196 C 0.44162 0.01499 0.19138
 C197 C 0.44473 0.01665 0.14762
 C198 C 0.48324 0.02165 0.12162
 C199 C 0.51821 0.02581 0.14044
 C200 C 0.51488 0.02472 0.18426
 H201 H 0.51267 0.08291 0.41634
 H202 H 0.50452 0.09319 0.34400
 H203 H 0.48633 -0.03557 0.31835
 H204 H 0.49529 -0.04593 0.39030
 H205 H 0.51091 0.05896 0.26841
 H206 H 0.45244 -0.00439 0.26957
 H207 H 0.41194 0.01030 0.21061
 H208 H 0.41738 0.01297 0.13392
 H209 H 0.54837 0.02944 0.12118
 H210 H 0.54286 0.02685 0.19745
 C211 C 0.44426 -0.35734 0.03498
 C212 C 0.44658 -0.31502 0.03328
 C213 C 0.48151 -0.30559 0.00574
 C214 C 0.51455 -0.33979 -0.02008
 C215 C 0.51235 -0.38240 -0.01826
 C216 C 0.47708 -0.39186 0.00932
 C217 C 0.48047 -0.25975 0.00395
 C218 C 0.51418 -0.24487 -0.01452
 C219 C 0.51083 -0.19846 -0.01496
 C220 C 0.54811 -0.18224 -0.01644
 C221 C 0.54561 -0.13837 -0.01537
 C222 C 0.50573 -0.10987 -0.01310
 C223 C 0.46872 -0.12635 -0.01305
 C224 C 0.47125 -0.17013 -0.01425
 H225 H 0.41691 -0.36303 0.05718
 H226 H 0.42064 -0.28943 0.05353
 H227 H 0.54146 -0.33409 -0.04270
 H228 H 0.53737 -0.40785 -0.03986
 H229 H 0.45034 -0.23695 0.02019
 H230 H 0.54570 -0.26652 -0.02761
 H231 H 0.57908 -0.20345 -0.01757
 H232 H 0.57479 -0.12671 -0.01573
 H233 H 0.43765 -0.10539 -0.01202
 H234 H 0.44215 -0.18159 -0.01495
 C235 C 0.44266 0.41430 -0.03073
 C236 C 0.44122 0.37109 -0.03266
 C237 C 0.45255 0.34871 -0.00031
 C238 C 0.46358 0.37085 0.03496
 C239 C 0.46477 0.41393 0.03698
 C240 C 0.45460 0.43597 0.00410
 C241 C 0.45243 0.30255 -0.00386
 C242 C 0.47969 0.27514 0.01207
 C243 C 0.48127 0.22867 0.00848
 C244 C 0.52006 0.20070 0.01005
 C245 C 0.52290 0.15674 0.00770
 C246 C 0.48670 0.13980 0.00442
 C247 C 0.44759 0.16786 0.00343
 C248 C 0.44488 0.21186 0.00536
 H249 H 0.43496 0.43069 -0.05656
 H250 H 0.43225 0.35483 -0.05994
 H251 H 0.47101 0.35508 0.06123
 H252 H 0.47371 0.43022 0.06429
 H253 H 0.43133 0.29062 -0.02227
 H254 H 0.50374 0.28663 0.02651
 H255 H 0.54842 0.21289 0.01285
 H256 H 0.55343 0.13606 0.00875
 H257 H 0.41909 0.15579 0.00106
 H258 H 0.41410 0.23263 0.00528
 C259 C -0.37135 0.04473 0.48189
 C260 C -0.32836 0.04573 0.48188
 C261 C -0.30259 0.01512 0.49901
 C262 C -0.32068 -0.01686 0.51609
 C263 C -0.36366 -0.01807 0.51592
 C264 C -0.38992 0.01279 0.49893
 C265 C -0.25635 0.01582 0.49564
 C266 C -0.23245 -0.00151 0.52151
 C267 C -0.18560 -0.00245 0.51594
 C268 C -0.16691 -0.00379 0.55177
 C269 C -0.12248 -0.00604 0.54720
 C270 C -0.09574 -0.00768 0.50649
 C271 C -0.11445 -0.00665 0.47060
 C272 C -0.15881 -0.00412 0.47521
 H273 H -0.39029 0.06971 0.46928
 H274 H -0.31514 0.07060 0.46834
 H275 H -0.30134 -0.04203 0.52806
 H276 H -0.37557 -0.04449 0.52739
 H277 H -0.24191 0.03238 0.47146
 H278 H -0.24774 -0.01428 0.54851
 H279 H -0.18676 -0.00302 0.58340
 H280 H -0.10899 -0.00708 0.57544
 H281 H -0.09473 -0.00818 0.43873
 H282 H -0.17172 -0.00461 0.44659
 C283 C 0.43565 -0.05429 0.48346
 C284 C 0.39435 -0.06099 0.48324
 C285 C 0.36218 -0.02897 0.47496
 C286 C 0.37225 0.00999 0.46658
 C287 C 0.41350 0.01688 0.46732
 C288 C 0.44552 -0.01513 0.47600
 C289 C 0.31778 -0.03594 0.47874
 C290 C 0.28974 -0.01721 0.45730
 C291 C 0.24465 -0.02265 0.46316
 C292 C 0.22403 -0.01980 0.42878
 C293 C 0.18071 -0.02243 0.43397
 C294 C 0.15680 -0.02708 0.47401
 C295 C 0.17750 -0.03011 0.50843
 C296 C 0.22101 -0.02805 0.50306
 H297 H 0.45975 -0.07942 0.49036
 H298 H 0.38731 -0.09112 0.49008
 H299 H 0.34785 0.03586 0.46133
 H300 H 0.41991 0.04775 0.46258
 H301 H 0.30843 -0.05828 0.49913
 H302 H 0.30039 0.00170 0.43360
 H303 H 0.24144 -0.01526 0.39788
 H304 H 0.16559 -0.01960 0.40693
 H305 H 0.15987 -0.03342 0.53973
 H306 H 0.23556 -0.02923 0.53059
 C307 C 0.04518 0.48043 1.37858
 C308 C 0.04073 0.48529 1.33700
 C309 C 0.00157 0.50849 1.33053
 C310 C -0.03263 0.52820 1.36639
 C311 C -0.02767 0.52447 1.40812
 C312 C 0.01116 0.50032 1.41442
 C313 C -0.00269 0.51208 1.28620
 C314 C -0.03772 0.50586 1.27228
 C315 C -0.04006 0.50610 1.22688
 C316 C -0.05554 0.47415 1.20513
 C317 C -0.05569 0.47254 1.16142
 C318 C -0.04175 0.50378 1.13925
 C319 C -0.02793 0.53675 1.16158
 C320 C -0.02664 0.53765 1.20489
 H321 H 0.07522 0.46143 1.38295
 H322 H 0.06747 0.47001 1.30973
 H323 H -0.06293 0.54671 1.36210
 H324 H -0.05434 0.53967 1.43547
 H325 H 0.02519 0.51623 1.26351
 H326 H -0.06353 0.49684 1.29363
 H327 H -0.06626 0.44969 1.22166
 H328 H -0.06664 0.44690 1.14493
 H329 H -0.01687 0.56113 1.14518
 H330 H -0.01521 0.56301 1.22122
 C331 C -0.02554 0.45401 0.61011
 C332 C -0.02913 0.45005 0.65349
 C333 C 0.00022 0.46321 0.67622
 C334 C 0.03445 0.47866 0.65415
 C335 C 0.03816 0.48237 0.61080
 C336 C 0.00803 0.47044 0.58846
 C337 C -0.00566 0.46055 0.72271
 C338 C 0.00608 0.48804 0.75057
 C339 C -0.00134 0.48789 0.79760
 C340 C -0.00418 0.52616 0.82525
 C341 C -0.01051 0.52764 0.86973
 C342 C -0.01351 0.49062 0.88765
 C343 C -0.01013 0.45205 0.85996
 C344 C -0.00417 0.45067 0.81536
 H345 H -0.04942 0.44499 0.59368
 H346 H -0.05557 0.43775 0.66965
 H347 H 0.05857 0.48771 0.67016
 H348 H 0.06461 0.49465 0.59461
 H349 H -0.02290 0.43744 0.73458
 H350 H 0.01931 0.51377 0.73905
 H351 H -0.00176 0.55519 0.81240
 H352 H -0.01272 0.55781 0.89007
 H353 H -0.01210 0.42293 0.87276
 H354 H -0.00097 0.42031 0.79494
   
