data_POSCAR
  _audit_creation_date              2014-09-24
  _audit_creation_method            'ToBaCCo'
  _symmetry_space_group_name_H-M    'P1'
  _symmetry_Int_Tables_number       1
  _symmetry_cell_setting            triclinic
  loop_
  _symmetry_equiv_pos_as_xyz
 x,y,z
_cell_length_a 57.8391
_cell_length_b 57.8404
_cell_length_c 57.8372
_cell_angle_alpha 89.998300
_cell_angle_beta 89.996200
_cell_angle_gamma 89.997500
loop_
  _atom_site_label
  _atom_site_type_symbol
  _atom_site_fract_x
  _atom_site_fract_y
  _atom_site_fract_z
N1 N 0.20879 0.20883 0.20881
 N2 N 0.70860 0.70858 0.70857
 N3 N 0.29114 0.79121 0.70886
 N4 N 0.79124 0.29119 0.20874
 N5 N 0.79121 0.70878 0.29117
 N6 N 0.29139 0.20872 -0.20872
 N7 N 0.70886 0.29124 -0.20882
 N8 N 0.20862 0.79146 0.29144
 N9 N 0.45872 0.45883 0.45873
 N10 N -0.04125 -0.04118 0.95882
 N11 N 1.04137 0.54138 0.95866
 N12 N 0.54133 0.04136 0.45870
 N13 N -0.04130 0.04121 0.54136
 N14 N 0.45875 0.54122 0.04127
 N15 N 0.54125 -0.04135 0.04127
 N16 N 1.04128 0.45865 0.54122
 C17 C 0.41035 0.01088 0.21883
 H18 H 0.41130 0.02656 0.22899
 C19 C 0.42542 0.00761 0.20025
 H20 H 0.43798 0.02083 0.19599
 C21 C 0.39308 -0.02571 0.21215
 H22 H 0.38072 -0.03882 0.21704
 C23 C 0.40783 -0.02968 0.19344
 H24 H 0.40663 -0.04572 0.18385
 N25 N 0.39441 -0.00557 0.22425
 C26 C 0.33971 0.03126 0.26091
 H27 H 0.33879 0.02110 0.27659
 C28 C 0.32465 0.04985 0.25767
 H29 H 0.31212 0.05412 0.27092
 C30 C 0.35693 0.03794 0.22429
 H31 H 0.36926 0.03304 0.21116
 C32 C 0.34218 0.05666 0.22036
 H33 H 0.34336 0.06626 0.20431
 Zn34 Zn 0.37501 0.00006 0.25002
 N35 N 0.35562 0.02584 0.24444
 C36 C 0.39319 0.02578 0.28786
 N37 N 0.39446 0.00562 0.27576
 C38 C 0.41036 -0.01086 0.28116
 C39 C 0.42546 -0.00763 0.29973
 C40 C 0.40797 0.02971 0.30655
 C41 C 0.33962 -0.03105 0.23917
 C42 C 0.32451 -0.04960 0.24242
 C43 C 0.34206 -0.05647 0.27971
 C44 C 0.35686 -0.03779 0.27577
 N45 N 0.35555 -0.02567 0.25562
 H46 H 0.38086 0.03892 0.28298
 H47 H 0.41125 -0.02655 0.27101
 H48 H 0.43799 -0.02089 0.30398
 H49 H 0.40682 0.04575 0.31614
 H50 H 0.33870 -0.02089 0.22349
 H51 H 0.31195 -0.05384 0.22918
 H52 H 0.34324 -0.06607 0.29575
 H53 H 0.36921 -0.03292 0.28888
 C54 C 0.32595 0.06269 0.23723
 C55 C 0.42410 -0.01283 0.18742
 C56 C 0.32580 -0.06245 0.26285
 C57 C 0.42420 0.01282 0.31256
 C58 C 0.08968 -0.01085 0.71893
 H59 H 0.08874 -0.02650 0.72913
 C60 C 0.07460 -0.00765 0.70034
 H61 H 0.06205 -0.02089 0.69611
 C62 C 0.10694 0.02572 0.71212
 H63 H 0.11930 0.03885 0.71697
 C64 C 0.09219 0.02962 0.69340
 H65 H 0.09339 0.04563 0.68376
 N66 N 0.10561 0.00561 0.72429
 C67 C 0.16037 -0.03107 0.76100
 H68 H 0.16129 -0.02089 0.77666
 C69 C 0.17544 -0.04966 0.75779
 H70 H 0.18799 -0.05389 0.77104
 C71 C 0.14313 -0.03784 0.72441
 H72 H 0.13079 -0.03298 0.71128
 C73 C 0.15789 -0.05656 0.72050
 H74 H 0.15671 -0.06618 0.70448
 Zn75 Zn 0.12502 0.00007 0.75007
 N76 N 0.14444 -0.02570 0.74453
 C77 C 0.10690 -0.02559 0.78798
 N78 N 0.10558 -0.00547 0.77583
 C79 C 0.08965 0.01100 0.78119
 C80 C 0.07456 0.00778 0.79976
 C81 C 0.09212 -0.02950 0.80668
 C82 C 0.16038 0.03120 0.73915
 C83 C 0.17547 0.04977 0.74237
 C84 C 0.15788 0.05670 0.77964
 C85 C 0.14312 0.03799 0.77573
 N86 N 0.14444 0.02584 0.75562
 H87 H 0.11925 -0.03872 0.78313
 H88 H 0.08873 0.02666 0.77100
 H89 H 0.06200 0.02103 0.80398
 H90 H 0.09330 -0.04552 0.81632
 H91 H 0.16132 0.02100 0.72350
 H92 H 0.18803 0.05399 0.72913
 H93 H 0.15669 0.06634 0.79566
 H94 H 0.13076 0.03315 0.78885
 C95 C 0.17414 -0.06254 0.73737
 C96 C 0.07592 0.01276 0.68743
 C97 C 0.17415 0.06267 0.76278
 C98 C 0.07586 -0.01263 0.81265
 C99 C 0.58968 0.48906 0.21886
 H100 H 0.58877 0.47339 0.22903
 C101 C 0.57460 0.49228 0.20028
 H102 H 0.56205 0.47904 0.19605
 C103 C 0.60691 0.52567 0.21210
 H104 H 0.61925 0.53879 0.21696
 C105 C 0.59214 0.52958 0.19340
 H106 H 0.59331 0.54561 0.18378
 N107 N 0.60561 0.50553 0.22423
 C108 C 0.66038 0.46882 0.26090
 H109 H 0.66131 0.47900 0.27657
 C110 C 0.67546 0.45024 0.25767
 H111 H 0.68801 0.44600 0.27091
 C112 C 0.64314 0.46208 0.22430
 H113 H 0.63080 0.46695 0.21117
 C114 C 0.65791 0.44337 0.22038
 H115 H 0.65673 0.43375 0.20435
 Zn116 Zn 0.62504 0.49997 0.24999
 N117 N 0.64446 0.47421 0.24443
 C118 C 0.60692 0.47429 0.28790
 N119 N 0.60561 0.49442 0.27576
 C120 C 0.58969 0.51089 0.28114
 C121 C 0.57460 0.50767 0.29972
 C122 C 0.59215 0.47038 0.30660
 C123 C 0.66038 0.53111 0.23907
 C124 C 0.67546 0.54970 0.24228
 C125 C 0.65792 0.55658 0.27958
 C126 C 0.64316 0.53787 0.27567
 N127 N 0.64446 0.52574 0.25554
 H128 H 0.61926 0.46116 0.28303
 H129 H 0.58877 0.52656 0.27096
 H130 H 0.56206 0.52092 0.30395
 H131 H 0.59332 0.45435 0.31622
 H132 H 0.66130 0.52094 0.22340
 H133 H 0.68800 0.55394 0.22903
 H134 H 0.65674 0.56620 0.29561
 H135 H 0.63082 0.53301 0.28881
 C136 C 0.67416 0.43738 0.23725
 C137 C 0.57589 0.51271 0.18741
 C138 C 0.67416 0.56257 0.26270
 C139 C 0.57589 0.48725 0.31259
 C140 C 0.91039 0.51092 0.71880
 H141 H 0.91130 0.52661 0.72895
 C142 C 0.92547 0.50768 0.70023
 H143 H 0.93801 0.52093 0.69596
 C144 C 0.89318 0.47430 0.71212
 H145 H 0.88085 0.46117 0.71702
 C146 C 0.90795 0.47036 0.69342
 H147 H 0.90679 0.45431 0.68384
 N148 N 0.89448 0.49445 0.72422
 C149 C 0.83970 0.53117 0.76087
 H150 H 0.83879 0.52102 0.77656
 C151 C 0.82459 0.54973 0.75763
 H152 H 0.81205 0.55398 0.77087
 C153 C 0.85691 0.53788 0.72425
 H154 H 0.86925 0.53301 0.71112
 C155 C 0.84212 0.55657 0.72031
 H156 H 0.84328 0.56616 0.70426
 Zn157 Zn 0.87506 0.50003 0.74998
 N158 N 0.85562 0.52578 0.74440
 C159 C 0.89318 0.52577 0.78785
 N160 N 0.89449 0.50563 0.77574
 C161 C 0.91042 0.48917 0.78112
 C162 C 0.92551 0.49241 0.79969
 C163 C 0.90795 0.52970 0.80655
 C164 C 0.83973 0.46887 0.73910
 C165 C 0.82466 0.45028 0.74233
 C166 C 0.84221 0.44343 0.77963
 C167 C 0.85697 0.46215 0.77571
 N168 N 0.85565 0.47427 0.75557
 H169 H 0.88083 0.53889 0.78298
 H170 H 0.91134 0.47349 0.77096
 H171 H 0.93806 0.47917 0.80394
 H172 H 0.90677 0.54574 0.81615
 H173 H 0.83880 0.47904 0.72343
 H174 H 0.81212 0.44603 0.72909
 H175 H 0.84340 0.43381 0.79566
 H176 H 0.86931 0.46702 0.78883
 C177 C 0.82587 0.56257 0.73718
 C178 C 0.92419 0.48723 0.68740
 C179 C 0.82597 0.43742 0.76276
 C180 C 0.92421 0.51284 0.81254
 C181 C 0.21884 0.41036 0.01082
 H182 H 0.22899 0.41128 0.02651
 C183 C 0.20027 0.42544 0.00755
 H184 H 0.19601 0.43800 0.02078
 C185 C 0.21216 0.39310 -0.02579
 H186 H 0.21705 0.38075 -0.03890
 C187 C 0.19346 0.40788 -0.02974
 H188 H 0.18387 0.40669 -0.04579
 N189 N 0.22425 0.39442 -0.00563
 C190 C 0.26087 0.33969 0.03118
 H191 H 0.27656 0.33876 0.02104
 C192 C 0.25761 0.32462 0.04977
 H193 H 0.27086 0.31208 0.05404
 C194 C 0.22425 0.35691 0.03785
 H195 H 0.21112 0.36925 0.03295
 C196 C 0.22030 0.34216 0.05656
 H197 H 0.20425 0.34334 0.06615
 Zn198 Zn 0.25000 0.37500 -0.00001
 N199 N 0.24440 0.35560 0.02576
 C200 C 0.28786 0.39315 0.02572
 N201 N 0.27576 0.39443 0.00557
 C202 C 0.28116 0.41034 -0.01091
 C203 C 0.29973 0.42542 -0.00768
 C204 C 0.30656 0.40792 0.02965
 C205 C 0.23914 0.33963 -0.03114
 C206 C 0.24238 0.32454 -0.04971
 C207 C 0.27969 0.34207 -0.05655
 C208 C 0.27576 0.35685 -0.03786
 N209 N 0.25560 0.35556 -0.02575
 H210 H 0.28297 0.38082 0.03886
 H211 H 0.27101 0.41124 -0.02660
 H212 H 0.30399 0.43795 -0.02094
 H213 H 0.31615 0.40676 0.04569
 H214 H 0.22346 0.33872 -0.02099
 H215 H 0.22914 0.31199 -0.05396
 H216 H 0.29573 0.34324 -0.06615
 H217 H 0.28888 0.36919 -0.03298
 C218 C 0.23716 0.32592 0.06260
 C219 C 0.18744 0.42414 -0.01289
 C220 C 0.26283 0.32582 -0.06255
 C221 C 0.31257 0.42415 0.01276
 C222 C 0.71875 0.08965 -0.01091
 H223 H 0.72892 0.08872 -0.02658
 C224 C 0.70017 0.07457 -0.00768
 H225 H 0.69593 0.06202 -0.02092
 C226 C 0.71201 0.10689 0.02569
 H227 H 0.71688 0.11924 0.03881
 C228 C 0.69330 0.09212 0.02961
 H229 H 0.68369 0.09331 0.04565
 N230 N 0.72414 0.10558 0.00555
 C231 C 0.76082 0.16031 -0.03119
 H232 H 0.77650 0.16123 -0.02103
 C233 C 0.75760 0.17539 -0.04978
 H234 H 0.77085 0.18793 -0.05403
 C235 C 0.72420 0.14311 -0.03791
 H236 H 0.71107 0.13078 -0.03302
 C237 C 0.72028 0.15788 -0.05662
 H238 H 0.70425 0.15670 -0.06622
 Zn239 Zn 0.74991 0.12499 -0.00002
 N240 N 0.74435 0.14441 -0.02579
 C241 C 0.78779 0.10684 -0.02572
 N242 N 0.77566 0.10555 -0.00558
 C243 C 0.78104 0.08964 0.01090
 C244 C 0.79962 0.07455 0.00768
 C245 C 0.80649 0.09207 -0.02963
 C246 C 0.73902 0.16034 0.03112
 C247 C 0.74225 0.17543 0.04970
 C248 C 0.77954 0.15787 0.05656
 C249 C 0.77562 0.14311 0.03786
 N250 N 0.75548 0.14442 0.02573
 H251 H 0.78292 0.11918 -0.03886
 H252 H 0.77087 0.08873 0.02657
 H253 H 0.80386 0.06201 0.02093
 H254 H 0.81611 0.09324 -0.04566
 H255 H 0.72334 0.16127 0.02095
 H256 H 0.72900 0.18797 0.05394
 H257 H 0.79557 0.15669 0.06617
 H258 H 0.78874 0.13076 0.03298
 C259 C 0.73716 0.17411 -0.06263
 C260 C 0.68731 0.07587 0.01275
 C261 C 0.76268 0.17413 0.06256
 C262 C 0.81248 0.07583 -0.01275
 C263 C 0.21880 0.58969 0.48910
 H264 H 0.22898 0.58878 0.47343
 C265 C 0.20023 0.57460 0.49231
 H266 H 0.19600 0.56206 0.47905
 C267 C 0.21203 0.60689 0.52571
 H268 H 0.21689 0.61922 0.53885
 C269 C 0.19333 0.59211 0.52961
 H270 H 0.18370 0.59328 0.54564
 N271 N 0.22417 0.60560 0.50558
 C272 C 0.26083 0.66042 0.46894
 H273 H 0.27650 0.66134 0.47912
 C274 C 0.25761 0.67553 0.45038
 H275 H 0.27085 0.68808 0.44616
 C276 C 0.22424 0.64318 0.46216
 H277 H 0.21112 0.63082 0.46701
 C278 C 0.22032 0.65797 0.44347
 H279 H 0.20430 0.65679 0.43385
 Zn280 Zn 0.24993 0.62503 0.50005
 N281 N 0.24437 0.64448 0.47430
 C282 C 0.28784 0.60696 0.47434
 N283 N 0.27571 0.60562 0.49447
 C284 C 0.28109 0.58968 0.51092
 C285 C 0.29967 0.57460 0.50768
 C286 C 0.30655 0.59220 0.47041
 C287 C 0.23901 0.66035 0.53121
 C288 C 0.24222 0.67542 0.54980
 C289 C 0.27950 0.65787 0.55670
 C290 C 0.27560 0.64311 0.53798
 N291 N 0.25548 0.64443 0.52583
 H292 H 0.28297 0.61932 0.46123
 H293 H 0.27091 0.58874 0.52659
 H294 H 0.30391 0.56204 0.52091
 H295 H 0.31617 0.59340 0.45438
 H296 H 0.22334 0.66128 0.52103
 H297 H 0.22897 0.68797 0.55404
 H298 H 0.29553 0.65668 0.56632
 H299 H 0.28873 0.63077 0.53311
 C300 C 0.23719 0.67423 0.43751
 C301 C 0.18735 0.57588 0.51273
 C302 C 0.26263 0.67412 0.56269
 C303 C 0.31254 0.57593 0.48726
 C304 C 0.71884 0.91034 0.51088
 H305 H 0.72901 0.91124 0.52656
 C306 C 0.70028 0.92544 0.50766
 H307 H 0.69604 0.93798 0.52091
 C308 C 0.71211 0.89314 0.47426
 H309 H 0.71698 0.88081 0.46112
 C310 C 0.69342 0.90793 0.47034
 H311 H 0.68381 0.90677 0.45430
 N312 N 0.72423 0.89443 0.49440
 C313 C 0.76085 0.83960 0.53108
 H314 H 0.77652 0.83868 0.52092
 C315 C 0.75760 0.82450 0.54964
 H316 H 0.77083 0.81194 0.55388
 C317 C 0.72425 0.85685 0.53782
 H318 H 0.71113 0.86920 0.53296
 C319 C 0.72031 0.84206 0.55651
 H320 H 0.70427 0.84323 0.56611
 Zn321 Zn 0.74998 0.87498 0.49996
 N322 N 0.74439 0.85554 0.52571
 C323 C 0.78787 0.89306 0.52569
 N324 N 0.77575 0.89438 0.50555
 C325 C 0.78114 0.91032 0.48909
 C326 C 0.79973 0.92539 0.49233
 C327 C 0.80658 0.90782 0.52962
 C328 C 0.73906 0.83967 0.46879
 C329 C 0.74228 0.82460 0.45020
 C330 C 0.77959 0.84212 0.44334
 C331 C 0.77567 0.85688 0.46206
 N332 N 0.75554 0.85558 0.47418
 H333 H 0.78299 0.88071 0.53880
 H334 H 0.77098 0.91125 0.47342
 H335 H 0.80398 0.93794 0.47910
 H336 H 0.81618 0.90662 0.54566
 H337 H 0.72339 0.83875 0.47896
 H338 H 0.72902 0.81207 0.44595
 H339 H 0.79562 0.84330 0.43373
 H340 H 0.78881 0.86921 0.46693
 C341 C 0.73716 0.82579 0.56249
 C342 C 0.68743 0.92417 0.48722
 C343 C 0.76270 0.82589 0.43733
 C344 C 0.81258 0.92407 0.51276
 C345 C 0.01080 0.21875 0.41039
 H346 H 0.02649 0.22889 0.41130
 C347 C 0.00754 0.20019 0.42549
 H348 H 0.02077 0.19594 0.43804
 C349 C -0.02581 0.21206 0.39316
 H350 H -0.03893 0.21694 0.38081
 C351 C -0.02977 0.19337 0.40795
 H352 H -0.04582 0.18379 0.40678
 N353 N -0.00565 0.22415 0.39446
 C354 C 0.03114 0.26077 0.33970
 H355 H 0.02099 0.27645 0.33878
 C356 C 0.04973 0.25753 0.32464
 H357 H 0.05400 0.27077 0.31210
 C358 C 0.03783 0.22415 0.35693
 H359 H 0.03294 0.21103 0.36927
 C360 C 0.05655 0.22022 0.34218
 H361 H 0.06615 0.20418 0.34336
 Zn362 Zn -0.00005 0.24989 0.37502
 N363 N 0.02573 0.24430 0.35562
 C364 C 0.02568 0.28774 0.39316
 N365 N 0.00553 0.27566 0.39444
 C366 C -0.01096 0.28107 0.41034
 C367 C -0.00773 0.29965 0.42542
 C368 C 0.02961 0.30645 0.40793
 C369 C -0.03118 0.23899 0.33967
 C370 C -0.04975 0.24222 0.32457
 C371 C -0.05658 0.27955 0.34207
 C372 C -0.03789 0.27562 0.35685
 N373 N -0.02579 0.25547 0.35557
 H374 H 0.03882 0.28285 0.38084
 H375 H -0.02665 0.27092 0.41124
 H376 H -0.02099 0.30391 0.43794
 H377 H 0.04566 0.31603 0.40678
 H378 H -0.02103 0.22331 0.33877
 H379 H -0.05400 0.22897 0.31204
 H380 H -0.06618 0.29559 0.34323
 H381 H -0.03301 0.28876 0.36918
 C382 C 0.06258 0.23709 0.32594
 C383 C -0.01291 0.18737 0.42421
 C384 C -0.06259 0.26267 0.32584
 C385 C 0.01272 0.31247 0.42415
 C386 C -0.01082 0.71889 0.08967
 H387 H -0.02649 0.72906 0.08874
 C388 C -0.00759 0.70032 0.07458
 H389 H -0.02083 0.69608 0.06203
 C390 C 0.02577 0.71215 0.10691
 H391 H 0.03889 0.71702 0.11926
 C392 C 0.02970 0.69344 0.09214
 H393 H 0.04573 0.68383 0.09333
 N394 N 0.00564 0.72427 0.10560
 C395 C -0.03111 0.76093 0.16036
 H396 H -0.02094 0.77660 0.16128
 C397 C -0.04969 0.75769 0.17544
 H398 H -0.05394 0.77094 0.18798
 C399 C -0.03783 0.72432 0.14313
 H400 H -0.03295 0.71120 0.13079
 C401 C -0.05654 0.72040 0.15789
 H402 H -0.06614 0.70436 0.15671
 Zn403 Zn 0.00006 0.75004 0.12502
 N404 N -0.02571 0.74446 0.14444
 C405 C -0.02565 0.78792 0.10689
 N406 N -0.00551 0.77580 0.10559
 C407 C 0.01096 0.78119 0.08967
 C408 C 0.00773 0.79977 0.07459
 C409 C -0.02958 0.80662 0.09212
 C410 C 0.03119 0.73915 0.16038
 C411 C 0.04975 0.74239 0.17548
 C412 C 0.05661 0.77969 0.15794
 C413 C 0.03792 0.77576 0.14315
 N414 N 0.02581 0.75561 0.14445
 H415 H -0.03878 0.78304 0.11923
 H416 H 0.02663 0.77102 0.08876
 H417 H 0.02098 0.80401 0.06205
 H418 H -0.04561 0.81623 0.09330
 H419 H 0.02103 0.72347 0.16130
 H420 H 0.05400 0.72915 0.18803
 H421 H 0.06621 0.79573 0.15676
 H422 H 0.03305 0.78888 0.13080
 C423 C -0.06254 0.73726 0.17414
 C424 C 0.01284 0.68745 0.07589
 C425 C 0.06260 0.76283 0.17419
 C426 C -0.01270 0.81262 0.07588
 C427 C 0.48916 0.21895 0.58961
 H428 H 0.47348 0.22912 0.58871
 C429 C 0.49238 0.20038 0.57452
 H430 H 0.47913 0.19613 0.56199
 C431 C 0.52578 0.21222 0.60681
 H432 H 0.53892 0.21709 0.61914
 C433 C 0.52970 0.19352 0.59203
 H434 H 0.54574 0.18391 0.59320
 N435 N 0.50564 0.22434 0.60552
 C436 C 0.46895 0.26095 0.66035
 H437 H 0.47911 0.27663 0.66127
 C438 C 0.45039 0.25771 0.67545
 H439 H 0.44614 0.27094 0.68800
 C440 C 0.46222 0.22435 0.64311
 H441 H 0.46709 0.21124 0.63075
 C442 C 0.44353 0.22041 0.65789
 H443 H 0.43393 0.20438 0.65671
 Zn444 Zn 0.50008 0.25009 0.62497
 N445 N 0.47433 0.24450 0.64441
 C446 C 0.47434 0.28797 0.60689
 N447 N 0.49448 0.27586 0.60556
 C448 C 0.51093 0.28125 0.58961
 C449 C 0.50768 0.29983 0.57454
 C450 C 0.47040 0.30668 0.59212
 C451 C 0.53125 0.23918 0.66028
 C452 C 0.54985 0.24240 0.67535
 C453 C 0.55670 0.27970 0.65780
 C454 C 0.53798 0.27579 0.64305
 N455 N 0.52586 0.25565 0.64437
 H456 H 0.46123 0.28310 0.61924
 H457 H 0.52661 0.27108 0.58868
 H458 H 0.52091 0.30407 0.56197
 H459 H 0.45436 0.31628 0.59332
 H460 H 0.52108 0.22351 0.66121
 H461 H 0.55410 0.22916 0.68788
 H462 H 0.56632 0.29573 0.65661
 H463 H 0.53310 0.28892 0.63071
 C464 C 0.43754 0.23727 0.67415
 C465 C 0.51282 0.18752 0.57580
 C466 C 0.56271 0.26283 0.67404
 C467 C 0.48725 0.31268 0.57585
 C468 C 0.51090 0.71880 0.91033
 H469 H 0.52657 0.72897 0.91124
 C470 C 0.50767 0.70022 0.92541
 H471 H 0.52092 0.69598 0.93796
 C472 C 0.47429 0.71205 0.89310
 H473 H 0.46116 0.71692 0.88076
 C474 C 0.47038 0.69335 0.90787
 H475 H 0.45435 0.68373 0.90670
 N476 N 0.49442 0.72418 0.89441
 C477 C 0.53111 0.76084 0.83961
 H478 H 0.52094 0.77651 0.83869
 C479 C 0.54968 0.75761 0.82451
 H480 H 0.55391 0.77085 0.81196
 C481 C 0.53786 0.72424 0.85685
 H482 H 0.53300 0.71112 0.86920
 C483 C 0.55656 0.72032 0.84206
 H484 H 0.56617 0.70428 0.84324
 Zn485 Zn 0.49998 0.74994 0.87498
 N486 N 0.52574 0.74438 0.85554
 C487 C 0.52568 0.78783 0.89308
 N488 N 0.50555 0.77570 0.89440
 C489 C 0.48909 0.78108 0.91034
 C490 C 0.49232 0.79966 0.92542
 C491 C 0.52961 0.80654 0.90785
 C492 C 0.46883 0.73904 0.83964
 C493 C 0.45025 0.74227 0.82456
 C494 C 0.44337 0.77955 0.84212
 C495 C 0.46208 0.77564 0.85688
 N496 N 0.47421 0.75551 0.85557
 H497 H 0.53881 0.78297 0.88073
 H498 H 0.47342 0.77091 0.91127
 H499 H 0.47908 0.80389 0.93798
 H500 H 0.54564 0.81615 0.90667
 H501 H 0.47901 0.72338 0.83871
 H502 H 0.44601 0.72902 0.81202
 H503 H 0.43375 0.79558 0.84331
 H504 H 0.46695 0.78876 0.86923
 C505 C 0.56254 0.73718 0.82580
 C506 C 0.48725 0.68736 0.92412
 C507 C 0.43737 0.76269 0.82587
 C508 C 0.51275 0.81253 0.92412
 C509 C 0.14907 0.22240 0.23045
 C510 C 0.15201 0.21988 0.25434
 C511 C 0.17367 0.21375 0.26323
 C512 C 0.19233 0.21013 0.24829
 C513 C 0.18952 0.21260 0.22426
 C514 C 0.16771 0.21878 0.21549
 C515 C 0.13281 0.22358 0.26973
 C516 C 0.11672 0.22666 0.28261
 C517 C 0.09788 0.23027 0.29769
 C518 C 0.08179 0.23337 0.31057
 H519 H 0.13238 0.22711 0.22338
 H520 H 0.17615 0.21179 0.28169
 H521 H 0.20901 0.20555 0.25544
 H522 H 0.16511 0.22061 0.19704
 C523 C 0.65729 0.69734 0.74676
 C524 C 0.65186 0.71975 0.75411
 C525 C 0.66514 0.73848 0.74645
 C526 C 0.68377 0.73483 0.73150
 C527 C 0.68935 0.71237 0.72403
 C528 C 0.67592 0.69366 0.73181
 C529 C 0.63267 0.72352 0.76951
 C530 C 0.61660 0.72667 0.78240
 C531 C 0.59779 0.73034 0.79750
 C532 C 0.58172 0.73347 0.81040
 H533 H 0.64710 0.68272 0.75256
 H534 H 0.66111 0.75589 0.75206
 H535 H 0.69398 0.74947 0.72588
 H536 H 0.67978 0.67624 0.72614
 C537 C 0.35084 0.77752 0.73042
 C538 C 0.34794 0.78003 0.75432
 C539 C 0.32630 0.78621 0.76323
 C540 C 0.30764 0.78988 0.74831
 C541 C 0.31041 0.78740 0.72429
 C542 C 0.33220 0.78118 0.71548
 C543 C 0.36714 0.77627 0.76968
 C544 C 0.38323 0.77314 0.78255
 C545 C 0.40207 0.76949 0.79762
 C546 C 0.41817 0.76638 0.81049
 H547 H 0.36752 0.77277 0.72334
 H548 H 0.32385 0.78817 0.78170
 H549 H 0.29097 0.79448 0.75549
 H550 H 0.33478 0.77935 0.69703
 C551 C -0.14905 0.27752 0.23033
 C552 C -0.15198 0.28002 0.25422
 C553 C -0.17362 0.28618 0.26313
 C554 C -0.19228 0.28984 0.24820
 C555 C -0.18949 0.28738 0.22418
 C556 C -0.16769 0.28118 0.21538
 C557 C -0.13277 0.27626 0.26960
 C558 C -0.11669 0.27313 0.28248
 C559 C -0.09786 0.26948 0.29756
 C560 C -0.08178 0.26637 0.31044
 H561 H -0.13237 0.27279 0.22325
 H562 H -0.17609 0.28812 0.28159
 H563 H -0.20895 0.29444 0.25537
 H564 H -0.16510 0.27936 0.19693
 C565 C -0.14907 0.72243 0.26960
 C566 C -0.15199 0.71993 0.24570
 C567 C -0.17363 0.71377 0.23679
 C568 C -0.19229 0.71011 0.25171
 C569 C -0.18952 0.71258 0.27574
 C570 C -0.16772 0.71878 0.28454
 C571 C -0.13277 0.72367 0.23033
 C572 C -0.11668 0.72679 0.21747
 C573 C -0.09783 0.73044 0.20240
 C574 C -0.08174 0.73355 0.18953
 H575 H -0.13239 0.72716 0.27668
 H576 H -0.17608 0.71182 0.21832
 H577 H -0.20896 0.70552 0.24454
 H578 H -0.16514 0.72060 0.30299
 C579 C 0.35110 0.22234 0.76969
 C580 C 0.34817 0.21987 0.74579
 C581 C 0.32652 0.21372 0.73689
 C582 C 0.30786 0.21007 0.75182
 C583 C 0.31066 0.21251 0.77585
 C584 C 0.33246 0.21869 0.78464
 C585 C 0.36737 0.22361 0.73042
 C586 C 0.38346 0.22674 0.71754
 C587 C 0.40228 0.23041 0.70245
 C588 C 0.41835 0.23354 0.68956
 H589 H 0.36779 0.22705 0.77677
 H590 H 0.32405 0.21179 0.71842
 H591 H 0.29119 0.20549 0.74465
 H592 H 0.33506 0.22049 0.80309
 C593 C 0.65758 0.30256 0.75298
 C594 C 0.65214 0.28016 0.74561
 C595 C 0.66540 0.26141 0.75326
 C596 C 0.68403 0.26504 0.76821
 C597 C 0.68962 0.28748 0.77570
 C598 C 0.67621 0.30621 0.76793
 C599 C 0.63294 0.27641 0.73023
 C600 C 0.61686 0.27328 0.71735
 C601 C 0.59802 0.26963 0.70228
 C602 C 0.58193 0.26653 0.68941
 H603 H 0.64741 0.31719 0.74719
 H604 H 0.66135 0.24401 0.74764
 H605 H 0.69422 0.25038 0.77384
 H606 H 0.68009 0.32362 0.77361
 C607 C 0.15732 0.80269 0.25324
 C608 C 0.15190 0.78028 0.24589
 C609 C 0.16518 0.76155 0.25356
 C610 C 0.18381 0.76521 0.26851
 C611 C 0.18937 0.78767 0.27598
 C612 C 0.17594 0.80638 0.26820
 C613 C 0.13272 0.77650 0.23049
 C614 C 0.11666 0.77335 0.21760
 C615 C 0.09785 0.76968 0.20250
 C616 C 0.08178 0.76655 0.18960
 H617 H 0.14714 0.81731 0.24744
 H618 H 0.16115 0.74414 0.24795
 H619 H 0.19401 0.75057 0.27415
 H620 H 0.17980 0.82379 0.27386
 C621 C 0.26322 0.17375 0.21375
 C622 C 0.25434 0.15210 0.21992
 C623 C 0.23045 0.14915 0.22244
 C624 C 0.21548 0.16777 0.21880
 C625 C 0.22425 0.18958 0.21260
 C626 C 0.24827 0.19239 0.21011
 C627 C 0.26974 0.13291 0.22365
 C628 C 0.28263 0.11683 0.22676
 C629 C 0.29771 0.09800 0.23040
 C630 C 0.31058 0.08191 0.23352
 H631 H 0.28168 0.17624 0.21179
 H632 H 0.22340 0.13245 0.22717
 H633 H 0.19704 0.16516 0.22064
 H634 H 0.25541 0.20907 0.20552
 C635 C 0.74648 0.66512 0.73846
 C636 C 0.75413 0.65184 0.71972
 C637 C 0.74677 0.65727 0.69731
 C638 C 0.73182 0.67590 0.69364
 C639 C 0.72405 0.68933 0.71236
 C640 C 0.73153 0.68376 0.73481
 C641 C 0.76953 0.63266 0.72349
 C642 C 0.78243 0.61660 0.72664
 C643 C 0.79754 0.59780 0.73032
 C644 C 0.81045 0.58174 0.73345
 H645 H 0.75209 0.66109 0.75587
 H646 H 0.75256 0.64709 0.68270
 H647 H 0.72615 0.67976 0.67623
 H648 H 0.72591 0.69396 0.74946
 C649 C 0.74679 0.33471 0.76135
 C650 C 0.75442 0.34798 0.78010
 C651 C 0.74704 0.34254 0.80250
 C652 C 0.73209 0.32391 0.80615
 C653 C 0.72433 0.31049 0.78742
 C654 C 0.73184 0.31607 0.76498
 C655 C 0.76980 0.36718 0.77635
 C656 C 0.78267 0.38327 0.77322
 C657 C 0.79774 0.40211 0.76957
 C658 C 0.81060 0.41820 0.76646
 H659 H 0.75242 0.33875 0.74395
 H660 H 0.75281 0.35272 0.81713
 H661 H 0.72639 0.32003 0.82356
 H662 H 0.72623 0.30587 0.75032
 C663 C 0.24649 -0.16507 0.26156
 C664 C 0.25413 -0.15178 0.28029
 C665 C 0.24677 -0.15721 0.30270
 C666 C 0.23182 -0.17584 0.30637
 C667 C 0.22407 -0.18928 0.28766
 C668 C 0.23155 -0.18371 0.26521
 C669 C 0.26951 -0.13259 0.27652
 C670 C 0.28240 -0.11652 0.27337
 C671 C 0.29749 -0.09770 0.26970
 C672 C 0.31039 -0.08163 0.26657
 H673 H 0.25211 -0.16104 0.24415
 H674 H 0.25254 -0.14702 0.31732
 H675 H 0.22615 -0.17970 0.32379
 H676 H 0.22594 -0.19392 0.25056
 C677 C 0.23677 -0.17363 0.71388
 C678 C 0.24569 -0.15199 0.72004
 C679 C 0.26959 -0.14908 0.72253
 C680 C 0.28452 -0.16772 0.71886
 C681 C 0.27571 -0.18952 0.71266
 C682 C 0.25169 -0.19229 0.71021
 C683 C 0.23032 -0.13278 0.72379
 C684 C 0.21746 -0.11668 0.72692
 C685 C 0.20239 -0.09784 0.73058
 C686 C 0.18952 -0.08175 0.73368
 H687 H 0.21830 -0.17608 0.71194
 H688 H 0.27667 -0.13239 0.72725
 H689 H 0.30297 -0.16514 0.72067
 H690 H 0.24451 -0.20896 0.70562
 C691 C 0.73685 0.32632 0.21375
 C692 C 0.74575 0.34796 0.21992
 C693 C 0.76965 0.35088 0.22242
 C694 C 0.78459 0.33225 0.21876
 C695 C 0.77580 0.31045 0.21255
 C696 C 0.75178 0.30766 0.21009
 C697 C 0.73037 0.36716 0.22366
 C698 C 0.71750 0.38325 0.22678
 C699 C 0.70243 0.40209 0.23043
 C700 C 0.68955 0.41818 0.23354
 H701 H 0.71839 0.32385 0.21180
 H702 H 0.77672 0.36757 0.22715
 H703 H 0.80304 0.33484 0.22058
 H704 H 0.74461 0.29099 0.20549
 C705 C 0.73683 0.67364 0.28616
 C706 C 0.74574 0.65200 0.28000
 C707 C 0.76963 0.64908 0.27751
 C708 C 0.78458 0.66771 0.28117
 C709 C 0.77578 0.68951 0.28736
 C710 C 0.75175 0.69230 0.28982
 C711 C 0.73037 0.63279 0.27626
 C712 C 0.71749 0.61670 0.27313
 C713 C 0.70242 0.59787 0.26949
 C714 C 0.68955 0.58178 0.26639
 H715 H 0.71836 0.67610 0.28810
 H716 H 0.77671 0.63239 0.27278
 H717 H 0.80302 0.66513 0.27935
 H718 H 0.74458 0.70897 0.29441
 C719 C 0.26972 0.14906 0.77759
 C720 C 0.24583 0.15201 0.78010
 C721 C 0.23696 0.17366 0.78628
 C722 C 0.25191 0.19229 0.78995
 C723 C 0.27593 0.18948 0.78747
 C724 C 0.28469 0.16767 0.78125
 C725 C 0.23043 0.13282 0.77635
 C726 C 0.21753 0.11676 0.77322
 C727 C 0.20244 0.09794 0.76957
 C728 C 0.18955 0.08186 0.76647
 H729 H 0.27677 0.13236 0.77284
 H730 H 0.21849 0.17614 0.78824
 H731 H 0.24476 0.20897 0.79456
 H732 H 0.30313 0.16506 0.77942
 C733 C 0.21368 0.26323 0.17369
 C734 C 0.21985 0.25435 0.15204
 C735 C 0.22239 0.23046 0.14911
 C736 C 0.21876 0.21550 0.16774
 C737 C 0.21256 0.22428 0.18955
 C738 C 0.21005 0.24830 0.19234
 C739 C 0.22356 0.26973 0.13283
 C740 C 0.22667 0.28261 0.11674
 C741 C 0.23031 0.29767 0.09790
 C742 C 0.23343 0.31054 0.08180
 H743 H 0.21171 0.28170 0.17615
 H744 H 0.22712 0.22339 0.13241
 H745 H 0.22061 0.19706 0.16515
 H746 H 0.20546 0.25545 0.20902
 C747 C 0.69733 0.74675 0.65725
 C748 C 0.71973 0.75411 0.65181
 C749 C 0.73847 0.74645 0.66509
 C750 C 0.73483 0.73151 0.68373
 C751 C 0.71238 0.72403 0.68931
 C752 C 0.69366 0.73180 0.67589
 C753 C 0.72349 0.76950 0.63262
 C754 C 0.72663 0.78238 0.61655
 C755 C 0.73030 0.79747 0.59773
 C756 C 0.73343 0.81037 0.58166
 H757 H 0.68270 0.75254 0.64708
 H758 H 0.75588 0.75206 0.66105
 H759 H 0.74948 0.72588 0.69393
 H760 H 0.67624 0.72614 0.67976
 C761 C 0.77751 0.73040 0.35085
 C762 C 0.78003 0.75429 0.34793
 C763 C 0.78622 0.76318 0.32628
 C764 C 0.78988 0.74825 0.30763
 C765 C 0.78740 0.72423 0.31042
 C766 C 0.78117 0.71544 0.33222
 C767 C 0.77628 0.76967 0.36712
 C768 C 0.77315 0.78255 0.38320
 C769 C 0.76950 0.79763 0.40204
 C770 C 0.76640 0.81051 0.41812
 H771 H 0.77276 0.72333 0.36754
 H772 H 0.78818 0.78164 0.32381
 H773 H 0.79449 0.75541 0.29096
 H774 H 0.77934 0.69700 0.33482
 C775 C 0.27771 0.23031 -0.14901
 C776 C 0.28023 0.25421 -0.15193
 C777 C 0.28643 0.26310 -0.17357
 C778 C 0.29009 0.24818 -0.19223
 C779 C 0.28760 0.22416 -0.18945
 C780 C 0.28137 0.21537 -0.16765
 C781 C 0.27647 0.26958 -0.13273
 C782 C 0.27333 0.28246 -0.11665
 C783 C 0.26966 0.29754 -0.09782
 C784 C 0.26654 0.31043 -0.08175
 H785 H 0.27295 0.22324 -0.13233
 H786 H 0.28840 0.28157 -0.17603
 H787 H 0.29471 0.25534 -0.20889
 H788 H 0.27953 0.19692 -0.16507
 C789 C 0.69750 0.25307 -0.15752
 C790 C 0.71990 0.24571 -0.15205
 C791 C 0.73866 0.25335 -0.16530
 C792 C 0.73505 0.26829 -0.18395
 C793 C 0.71261 0.27578 -0.18956
 C794 C 0.69386 0.26802 -0.17616
 C795 C 0.72362 0.23033 -0.13285
 C796 C 0.72673 0.21745 -0.11676
 C797 C 0.73036 0.20237 -0.09792
 C798 C 0.73346 0.18949 -0.08183
 H799 H 0.68286 0.24730 -0.14736
 H800 H 0.75606 0.24773 -0.16124
 H801 H 0.74972 0.27391 -0.19413
 H802 H 0.67646 0.27370 -0.18006
 C803 C 0.23851 0.75360 0.33493
 C804 C 0.21977 0.74594 0.34820
 C805 C 0.19736 0.75328 0.34276
 C806 C 0.19369 0.76823 0.32413
 C807 C 0.21241 0.77601 0.31070
 C808 C 0.23486 0.76854 0.31628
 C809 C 0.22354 0.73055 0.36739
 C810 C 0.22669 0.71765 0.38345
 C811 C 0.23036 0.70255 0.40226
 C812 C 0.23348 0.68965 0.41833
 H813 H 0.25592 0.74800 0.33896
 H814 H 0.18274 0.74749 0.35294
 H815 H 0.17627 0.77389 0.32025
 H816 H 0.24951 0.77417 0.30608
 C817 C 0.27743 0.76960 0.64917
 C818 C 0.27993 0.74571 0.65210
 C819 C 0.28612 0.73681 0.67374
 C820 C 0.28978 0.75174 0.69239
 C821 C 0.28732 0.77577 0.68960
 C822 C 0.28110 0.78455 0.66780
 C823 C 0.27619 0.73033 0.63290
 C824 C 0.27306 0.71745 0.61682
 C825 C 0.26942 0.70237 0.59798
 C826 C 0.26632 0.68949 0.58190
 H827 H 0.27268 0.77667 0.63249
 H828 H 0.28807 0.71835 0.67621
 H829 H 0.29439 0.74458 0.70906
 H830 H 0.27927 0.80300 0.66521
 C831 C 0.78625 0.23681 0.17360
 C832 C 0.78006 0.24571 0.15196
 C833 C 0.77755 0.26960 0.14904
 C834 C 0.78122 0.28455 0.16768
 C835 C 0.78744 0.27575 0.18948
 C836 C 0.78991 0.25173 0.19226
 C837 C 0.77630 0.23034 0.13276
 C838 C 0.77316 0.21746 0.11668
 C839 C 0.76950 0.20239 0.09784
 C840 C 0.76638 0.18951 0.08176
 H841 H 0.78820 0.21834 0.17606
 H842 H 0.77281 0.27668 0.13236
 H843 H 0.77939 0.30300 0.16509
 H844 H 0.79452 0.24456 0.20892
 C845 C 0.44743 0.40752 0.49690
 C846 C 0.46983 0.40208 0.50426
 C847 C 0.48857 0.41535 0.49662
 C848 C 0.48494 0.43400 0.48168
 C849 C 0.46249 0.43958 0.47419
 C850 C 0.44377 0.42615 0.48195
 C851 C 0.47359 0.38288 0.51964
 C852 C 0.47673 0.36680 0.53252
 C853 C 0.48039 0.34796 0.54759
 C854 C 0.48351 0.33188 0.56047
 H855 H 0.43281 0.39734 0.50268
 H856 H 0.50598 0.41132 0.50224
 H857 H 0.49959 0.44420 0.47606
 H858 H 0.42636 0.43003 0.47627
 C859 C -0.02752 0.89913 -0.01960
 C860 C -0.03004 0.90204 0.00430
 C861 C -0.03624 0.92367 0.01320
 C862 C -0.03991 0.94233 -0.00172
 C863 C -0.03743 0.93956 -0.02575
 C864 C -0.03119 0.91777 -0.03454
 C865 C -0.02629 0.88283 0.01967
 C866 C -0.02317 0.86674 0.03254
 C867 C -0.01952 0.84790 0.04761
 C868 C -0.01641 0.83182 0.06049
 H869 H -0.02277 0.88245 -0.02668
 H870 H -0.03820 0.92613 0.03167
 H871 H -0.04453 0.95899 0.00545
 H872 H -0.02936 0.91519 -0.05299
 C873 C 0.02772 0.60106 -0.01967
 C874 C 0.03022 0.59811 0.00422
 C875 C 0.03639 0.57645 0.01310
 C876 C 0.04005 0.55782 -0.00185
 C877 C 0.03758 0.56063 -0.02588
 C878 C 0.03138 0.58244 -0.03464
 C879 C 0.02646 0.61729 0.01962
 C880 C 0.02332 0.63336 0.03252
 C881 C 0.01966 0.65218 0.04761
 C882 C 0.01654 0.66825 0.06050
 H883 H 0.02299 0.61776 -0.02672
 H884 H 0.03834 0.57396 0.03156
 H885 H 0.04464 0.54114 0.00529
 H886 H 0.02955 0.58506 -0.05308
 C887 C 0.52767 0.10106 0.48029
 C888 C 0.53015 0.09813 0.50418
 C889 C 0.53631 0.07649 0.51308
 C890 C 0.53998 0.05783 0.49816
 C891 C 0.53753 0.06062 0.47413
 C892 C 0.53133 0.08243 0.46534
 C893 C 0.52640 0.11734 0.51956
 C894 C 0.52327 0.13342 0.53244
 C895 C 0.51962 0.15225 0.54752
 C896 C 0.51651 0.16833 0.56041
 H897 H 0.52294 0.11775 0.47321
 H898 H 0.53825 0.07402 0.53155
 H899 H 0.54457 0.04116 0.50533
 H900 H 0.52952 0.08502 0.44689
 C901 C -0.02770 0.10093 0.51977
 C902 C -0.03025 0.09802 0.49588
 C903 C -0.03644 0.07638 0.48698
 C904 C -0.04005 0.05771 0.50190
 C905 C -0.03754 0.06048 0.52592
 C906 C -0.03133 0.08228 0.53471
 C907 C -0.02654 0.11723 0.48050
 C908 C -0.02343 0.13331 0.46761
 C909 C -0.01978 0.15213 0.45252
 C910 C -0.01665 0.16819 0.43962
 H911 H -0.02296 0.11761 0.52684
 H912 H -0.03842 0.07392 0.46851
 H913 H -0.04466 0.04105 0.49473
 H914 H -0.02946 0.08486 0.55316
 C915 C 0.47245 0.60091 1.01965
 C916 C 0.46993 0.59797 0.99575
 C917 C 0.46375 0.57633 0.98687
 C918 C 0.46009 0.55768 1.00180
 C919 C 0.46256 0.56048 1.02583
 C920 C 0.46878 0.58228 1.03460
 C921 C 0.47368 0.61717 0.98037
 C922 C 0.47680 0.63325 0.96748
 C923 C 0.48044 0.65208 0.95240
 C924 C 0.48355 0.66816 0.93952
 H925 H 0.47719 0.61759 1.02671
 H926 H 0.46179 0.57386 0.96840
 H927 H 0.45548 0.54101 0.99464
 H928 H 0.47062 0.58487 1.05305
 C929 C 0.51138 0.91518 1.00338
 C930 C 0.53012 0.90191 0.99573
 C931 C 0.55253 0.90735 1.00308
 C932 C 0.55620 0.92598 1.01803
 C933 C 0.53747 0.93940 1.02581
 C934 C 0.51502 0.93382 1.01833
 C935 C 0.52636 0.88271 0.98035
 C936 C 0.52323 0.86663 0.96747
 C937 C 0.51956 0.84781 0.95239
 C938 C 0.51645 0.83172 0.93950
 H939 H 0.49398 0.91114 0.99777
 H940 H 0.56715 0.89717 0.99729
 H941 H 0.57361 0.92985 1.02370
 H942 H 0.50037 0.94401 1.02395
 C943 C 0.02765 0.39894 0.51965
 C944 C 0.03012 0.40186 0.49575
 C945 C 0.03627 0.42351 0.48684
 C946 C 0.03993 0.44217 0.50176
 C947 C 0.03749 0.43938 0.52579
 C948 C 0.03131 0.41758 0.53459
 C949 C 0.02635 0.38266 0.48038
 C950 C 0.02321 0.36658 0.46750
 C951 C 0.01955 0.34775 0.45242
 C952 C 0.01643 0.33167 0.43954
 H953 H 0.02293 0.38225 0.52673
 H954 H 0.03819 0.42598 0.46837
 H955 H 0.04451 0.45884 0.49459
 H956 H 0.02950 0.41499 0.55304
 C957 C 0.40741 0.49700 0.44744
 C958 C 0.40196 0.50436 0.46985
 C959 C 0.41523 0.49671 0.48859
 C960 C 0.43388 0.48177 0.48495
 C961 C 0.43946 0.47429 0.46250
 C962 C 0.42604 0.48206 0.44378
 C963 C 0.38276 0.51974 0.47361
 C964 C 0.36667 0.53261 0.47675
 C965 C 0.34783 0.54767 0.48042
 C966 C 0.33175 0.56055 0.48354
 H967 H 0.39723 0.50279 0.43282
 H968 H 0.41119 0.50232 0.50600
 H969 H 0.44407 0.47615 0.49961
 H970 H 0.42992 0.47639 0.42637
 C971 C 0.92357 0.01318 -0.03618
 C972 C 0.90193 0.00426 -0.03002
 C973 C 0.89903 -0.01963 -0.02751
 C974 C 0.91768 -0.03456 -0.03117
 C975 C 0.93947 -0.02576 -0.03737
 C976 C 0.94224 -0.00173 -0.03984
 C977 C 0.88271 0.01962 -0.02628
 C978 C 0.86662 0.03249 -0.02317
 C979 C 0.84777 0.04756 -0.01954
 C980 C 0.83169 0.06044 -0.01644
 H981 H 0.92602 0.03165 -0.03813
 H982 H 0.88235 -0.02672 -0.02278
 H983 H 0.91511 -0.05301 -0.02935
 H984 H 0.95890 0.00545 -0.04443
 C985 C 0.59254 -0.00316 0.05255
 C986 C 0.59797 0.00421 0.03014
 C987 C 0.58470 -0.00344 0.01140
 C988 C 0.56607 -0.01840 0.01505
 C989 C 0.56049 -0.02589 0.03749
 C990 C 0.57391 -0.01812 0.05622
 C991 C 0.61715 0.01961 0.02638
 C992 C 0.63322 0.03250 0.02324
 C993 C 0.65204 0.04759 0.01957
 C994 C 0.66811 0.06048 0.01646
 H995 H 0.60272 0.00263 0.06717
 H996 H 0.58873 0.00218 -0.00601
 H997 H 0.55587 -0.02402 0.00039
 H998 H 0.57005 -0.02380 0.07363
 C999 C 0.10096 0.48030 0.52753
 C1000 C 0.09801 0.50419 0.53002
 C1001 C 0.07635 0.51307 0.53618
 C1002 C 0.05771 0.49813 0.53985
 C1003 C 0.06053 0.47411 0.53740
 C1004 C 0.08234 0.46534 0.53120
 C1005 C 0.11719 0.51959 0.52627
 C1006 C 0.13326 0.53248 0.52315
 C1007 C 0.15208 0.54758 0.51951
 C1008 C 0.16816 0.56048 0.51641
 H1009 H 0.11765 0.47324 0.52280
 H1010 H 0.07386 0.53154 0.53812
 H1011 H 0.04103 0.50528 0.54444
 H1012 H 0.08495 0.44689 0.52939
 C1013 C 0.07645 0.48695 -0.03642
 C1014 C 0.09810 0.49582 -0.03024
 C1015 C 0.10105 0.51971 -0.02770
 C1016 C 0.08243 0.53468 -0.03133
 C1017 C 0.06062 0.52592 -0.03755
 C1018 C 0.05781 0.50190 -0.04006
 C1019 C 0.11729 0.48042 -0.02652
 C1020 C 0.13336 0.46752 -0.02342
 C1021 C 0.15218 0.45242 -0.01977
 C1022 C 0.16825 0.43953 -0.01664
 H1023 H 0.07397 0.46849 -0.03840
 H1024 H 0.11774 0.52676 -0.02295
 H1025 H 0.08503 0.55312 -0.02948
 H1026 H 0.04113 0.49476 -0.04467
 C1027 C 0.60101 1.01973 0.47240
 C1028 C 0.59808 0.99584 0.46988
 C1029 C 0.57644 0.98695 0.46369
 C1030 C 0.55779 1.00189 0.46003
 C1031 C 0.56058 1.02591 0.46251
 C1032 C 0.58238 1.03469 0.46873
 C1033 C 0.61727 0.98045 0.47363
 C1034 C 0.63335 0.96757 0.47676
 C1035 C 0.65217 0.95248 0.48041
 C1036 C 0.66824 0.93958 0.48352
 H1037 H 0.61770 1.02680 0.47715
 H1038 H 0.57397 0.96849 0.46173
 H1039 H 0.54112 0.99473 0.45542
 H1040 H 0.58498 1.05313 0.47057
 C1041 C 0.89900 1.01958 0.52776
 C1042 C 0.90196 0.99568 0.53020
 C1043 C 0.92362 0.98679 0.53632
 C1044 C 0.94226 1.00173 0.53998
 C1045 C 0.93944 1.02576 0.53757
 C1046 C 0.91762 1.03454 0.53142
 C1047 C 0.88277 0.98029 0.52643
 C1048 C 0.86669 0.96741 0.52328
 C1049 C 0.84787 0.95233 0.51961
 C1050 C 0.83178 0.93945 0.51648
 H1051 H 0.88230 1.02664 0.52306
 H1052 H 0.92611 0.96832 0.53822
 H1053 H 0.95895 0.99458 0.54454
 H1054 H 0.91501 1.05298 0.52963
 C1055 C 0.39905 0.51965 0.02761
 C1056 C 0.40196 0.49575 0.03013
 C1057 C 0.42360 0.48685 0.03632
 C1058 C 0.44226 0.50177 0.03997
 C1059 C 0.43948 0.52579 0.03748
 C1060 C 0.41769 0.53459 0.03126
 C1061 C 0.38276 0.48038 0.02637
 C1062 C 0.36668 0.46750 0.02324
 C1063 C 0.34785 0.45243 0.01958
 C1064 C 0.33177 0.43954 0.01647
 H1065 H 0.38237 0.52672 0.02286
 H1066 H 0.42606 0.46838 0.03828
 H1067 H 0.45892 0.49460 0.04458
 H1068 H 0.41511 0.55303 0.02942
 C1069 C 0.49660 0.48867 0.41523
 C1070 C 0.50425 0.46993 0.40197
 C1071 C 0.49689 0.44753 0.40742
 C1072 C 0.48194 0.44387 0.42605
 C1073 C 0.47417 0.46260 0.43947
 C1074 C 0.48166 0.48504 0.43388
 C1075 C 0.51963 0.47367 0.38277
 C1076 C 0.53252 0.47680 0.36669
 C1077 C 0.54761 0.48045 0.34786
 C1078 C 0.56050 0.48355 0.33178
 H1079 H 0.50222 0.50608 0.41119
 H1080 H 0.50267 0.43290 0.39724
 H1081 H 0.47626 0.42646 0.42993
 H1082 H 0.47604 0.49970 0.44407
 C1083 C 0.01314 -0.03613 0.92369
 C1084 C 0.00424 -0.02996 0.90205
 C1085 C -0.01966 -0.02747 0.89912
 C1086 C -0.03461 -0.03115 0.91776
 C1087 C -0.02581 -0.03735 0.93956
 C1088 C -0.00178 -0.03980 0.94234
 C1089 C 0.01961 -0.02621 0.88284
 C1090 C 0.03249 -0.02307 0.86676
 C1091 C 0.04757 -0.01943 0.84793
 C1092 C 0.06046 -0.01632 0.83185
 H1093 H 0.03161 -0.03806 0.92615
 H1094 H -0.02674 -0.02274 0.88244
 H1095 H -0.05305 -0.02934 0.91517
 H1096 H 0.00538 -0.04440 0.95901
 C1097 C -0.01962 0.02750 0.60101
 C1098 C 0.00427 0.03004 0.59806
 C1099 C 0.01314 0.03625 0.57641
 C1100 C -0.00182 0.03990 0.55778
 C1101 C -0.02584 0.03740 0.56060
 C1102 C -0.03459 0.03116 0.58240
 C1103 C 0.01967 0.02630 0.61725
 C1104 C 0.03257 0.02318 0.63332
 C1105 C 0.04766 0.01954 0.65214
 C1106 C 0.06054 0.01644 0.66823
 H1107 H -0.02666 0.02273 0.61770
 H1108 H 0.03160 0.03823 0.57393
 H1109 H 0.00532 0.04453 0.54111
 H1110 H -0.05303 0.02930 0.58501
 C1111 C 0.48036 0.52758 0.10098
 C1112 C 0.50425 0.53005 0.09804
 C1113 C 0.51315 0.53620 0.07639
 C1114 C 0.49822 0.53987 0.05774
 C1115 C 0.47420 0.53742 0.06054
 C1116 C 0.46541 0.53124 0.08234
 C1117 C 0.51964 0.52630 0.11724
 C1118 C 0.53252 0.52317 0.13331
 C1119 C 0.54761 0.51951 0.15214
 C1120 C 0.56049 0.51641 0.16822
 H1121 H 0.47329 0.52286 0.11767
 H1122 H 0.53162 0.53813 0.07391
 H1123 H 0.50538 0.54445 0.04106
 H1124 H 0.44696 0.52943 0.08494
 C1125 C 0.50335 -0.01152 0.08476
 C1126 C 0.49570 -0.03026 0.09803
 C1127 C 0.50307 -0.05266 0.09258
 C1128 C 0.51803 -0.05632 0.07395
 C1129 C 0.52579 -0.03759 0.06053
 C1130 C 0.51830 -0.01515 0.06612
 C1131 C 0.48031 -0.02652 0.11722
 C1132 C 0.46743 -0.02339 0.13330
 C1133 C 0.45235 -0.01971 0.15213
 C1134 C 0.43948 -0.01658 0.16821
 H1135 H 0.49772 0.00589 0.08880
 H1136 H 0.49729 -0.06729 0.10275
 H1137 H 0.52371 -0.07373 0.07007
 H1138 H 0.52391 -0.00049 0.05592
 C1139 C 0.98690 0.46359 0.57638
 C1140 C 0.99580 0.46981 0.59801
 C1141 C 1.01969 0.47236 0.60092
 C1142 C 1.03463 0.46870 0.58228
 C1143 C 1.02585 0.46245 0.56049
 C1144 C 1.00182 0.45994 0.55772
 C1145 C 0.98042 0.47356 0.61721
 C1146 C 0.96755 0.47670 0.63330
 C1147 C 0.95247 0.48037 0.65213
 C1148 C 0.93958 0.48350 0.66820
 H1149 H 0.96844 0.46161 0.57393
 H1150 H 1.02676 0.47713 0.61759
 H1151 H 1.05308 0.47056 0.58486
 H1152 H 0.99466 0.45530 0.54106
 C1153 C 0.98696 0.53642 0.92355
 C1154 C 0.99585 0.53026 0.90190
 C1155 C 1.01974 0.52777 0.89896
 C1156 C 1.03470 0.53142 0.91759
 C1157 C 1.02592 0.53761 0.93940
 C1158 C 1.00190 0.54008 0.94220
 C1159 C 0.98046 0.52649 0.88271
 C1160 C 0.96758 0.52335 0.86664
 C1161 C 0.95249 0.51968 0.84782
 C1162 C 0.93960 0.51656 0.83174
 H1163 H 0.96850 0.53836 0.92603
 H1164 H 1.02681 0.52304 0.88227
 H1165 H 1.05315 0.52960 0.91499
 H1166 H 0.99474 0.54466 0.95888
 C1167 C 0.51974 0.02769 0.39899
 C1168 C 0.49585 0.03020 0.40192
 C1169 C 0.48694 0.03637 0.42356
 C1170 C 0.50187 0.04003 0.44221
 C1171 C 0.52589 0.03756 0.43943
 C1172 C 0.53469 0.03135 0.41763
 C1173 C 0.48047 0.02644 0.38272
 C1174 C 0.46759 0.02330 0.36664
 C1175 C 0.45250 0.01964 0.34782
 C1176 C 0.43960 0.01653 0.33174
 H1177 H 0.52682 0.02295 0.38231
 H1178 H 0.46848 0.03832 0.42602
 H1179 H 0.49470 0.04463 0.45888
 H1180 H 0.55313 0.02952 0.41504
   
