data_POSCAR
  _audit_creation_date              2014-09-24
  _audit_creation_method            'ToBaCCo'
  _symmetry_space_group_name_H-M    'P1'
  _symmetry_Int_Tables_number       1
  _symmetry_cell_setting            triclinic
  loop_
  _symmetry_equiv_pos_as_xyz
 x,y,z
_cell_length_a 43.0092
_cell_length_b 40.7132
_cell_length_c 34.5245
_cell_angle_alpha 92.881000
_cell_angle_beta 84.306100
_cell_angle_gamma 85.275300
loop_
  _atom_site_label
  _atom_site_type_symbol
  _atom_site_fract_x
  _atom_site_fract_y
  _atom_site_fract_z
N1 N 0.62152 0.70882 0.63379
 N2 N 0.60236 0.70257 0.66408
 C3 C 0.57470 0.72043 0.66323
 C4 C 0.57657 0.73858 0.63036
 C5 C 0.60666 0.73067 0.61241
 H6 H 0.55432 0.71915 0.68395
 H7 H 0.61685 0.73962 0.58546
 Cu8 Cu 0.61446 0.66983 0.70021
 Cu9 Cu 0.66379 0.68692 0.62393
 Cu10 Cu 0.66912 0.61005 0.66223
 N11 N 0.62285 0.62959 0.72677
 N12 N 0.64448 0.60650 0.71199
 C13 C 0.64414 0.58062 0.73464
 C14 C 0.62066 0.58754 0.76535
 C15 C 0.60777 0.61912 0.75929
 H16 H 0.65904 0.55796 0.72793
 H17 H 0.58830 0.63322 0.77635
 N18 N 0.69888 0.62277 0.61958
 N19 N 0.69769 0.65260 0.60623
 C20 C 0.72106 0.65370 0.57748
 C21 C 0.73765 0.62292 0.57225
 C22 C 0.72296 0.60398 0.59954
 H23 H 0.72473 0.67485 0.56039
 H24 H 0.72925 0.57836 0.60434
 H25 H 0.64183 0.64677 0.63840
 H26 H 0.66959 0.65935 0.67351
 N27 N 0.89959 0.30381 0.07112
 N28 N 0.91806 0.32166 0.08981
 C29 C 0.94407 0.30265 0.09575
 C30 C 0.94192 0.27090 0.08000
 C31 C 0.91326 0.27282 0.06445
 H32 H 0.96271 0.31134 0.11122
 H33 H 0.90268 0.25311 0.04999
 Cu34 Cu 0.90616 0.36763 0.10747
 Cu35 Cu 0.85898 0.32235 0.05830
 Cu36 Cu 0.83169 0.39935 0.09103
 N37 N 0.88937 0.41344 0.12337
 N38 N 0.86095 0.42533 0.11713
 C39 C 0.85565 0.45647 0.13275
 C40 C 0.88183 0.46461 0.15014
 C41 C 0.90277 0.43668 0.14359
 H42 H 0.83378 0.47161 0.13294
 H43 H 0.92577 0.43327 0.15364
 N44 N 0.80919 0.37301 0.05663
 N45 N 0.81956 0.34280 0.04378
 C46 C 0.79863 0.33050 0.02167
 C47 C 0.77370 0.35429 0.02071
 C48 C 0.78138 0.38096 0.04330
 H49 H 0.80133 0.30600 0.00756
 H50 H 0.76775 0.40439 0.05003
 H51 H 0.87488 0.37795 0.06674
 H52 H 0.85943 0.36187 0.11396
 N53 N 0.40390 0.20027 -0.10216
 N54 N 0.41261 0.19320 -0.13942
 C55 C 0.43047 0.21638 -0.15335
 C56 C 0.43358 0.23902 -0.12311
 C57 C 0.41663 0.22793 -0.09083
 H58 H 0.44108 0.21637 -0.18309
 H59 H 0.41330 0.23939 -0.06160
 Cu60 Cu 0.40197 0.15312 -0.16572
 Cu61 Cu 0.37614 0.17286 -0.07236
 Cu62 Cu 0.33633 0.12182 -0.13075
 N63 N 0.38689 0.11531 -0.19192
 N64 N 0.36111 0.10280 -0.17826
 C65 C 0.35583 0.07728 -0.20243
 C66 C 0.37975 0.07357 -0.23288
 C67 C 0.39899 0.09823 -0.22502
 H68 H 0.33600 0.06270 -0.19815
 H69 H 0.42043 0.10327 -0.24184
 N70 N 0.32185 0.13485 -0.07570
 N71 N 0.33749 0.15320 -0.05318
 C72 C 0.32168 0.15743 -0.01736
 C73 C 0.29471 0.14099 -0.01730
 C74 C 0.29573 0.12688 -0.05482
 H75 H 0.32882 0.17229 0.00648
 H76 H 0.27881 0.11176 -0.06613
 H77 H 0.37703 0.12924 -0.10818
 H78 H 0.35460 0.16747 -0.12152
 N79 N 0.10650 0.78352 0.39166
 N80 N 0.08937 0.79739 0.36652
 C81 C 0.06475 0.77967 0.36202
 C82 C 0.06627 0.75333 0.38614
 C83 C 0.09318 0.75687 0.40463
 H84 H 0.04703 0.78589 0.34286
 H85 H 0.10302 0.74093 0.42521
 Cu86 Cu 0.10097 0.83710 0.34142
 Cu87 Cu 0.14556 0.80038 0.40341
 Cu88 Cu 0.16095 0.87670 0.37955
 N89 N 0.11135 0.88172 0.32794
 N90 N 0.13497 0.89621 0.34101
 C91 C 0.13623 0.92600 0.32584
 C92 C 0.11187 0.93064 0.30293
 C93 C 0.09647 0.90225 0.30503
 H94 H 0.15281 0.94362 0.33211
 H95 H 0.07591 0.89705 0.29095
 N96 N 0.18366 0.85297 0.41736
 N97 N 0.17744 0.82318 0.42680
 C98 C 0.19597 0.81308 0.45381
 C99 C 0.21509 0.83783 0.46188
 C100 C 0.20654 0.86282 0.43805
 H101 H 0.19529 0.78946 0.46665
 H102 H 0.21616 0.88642 0.43579
 H103 H 0.11998 0.85346 0.39038
 H104 H 0.14851 0.83661 0.34861
 N105 N 0.10360 0.11452 0.14043
 N106 N 0.39104 0.87718 0.60111
 N107 N 0.90514 0.60849 0.36659
 N108 N 0.58237 0.39814 -0.09498
 C109 C 0.01100 0.21611 0.10167
 C110 C 0.00400 0.18642 0.08559
 C111 C -0.02264 0.18314 0.06659
 C112 C -0.04304 0.21157 0.06428
 C113 C -0.03672 0.24275 0.08107
 C114 C -0.00885 0.24471 0.09972
 O115 O 0.03700 0.21380 0.11948
 C116 C 0.04656 0.18190 0.11462
 C117 C 0.02719 0.16400 0.09407
 C118 C 0.03223 0.12993 0.08688
 C119 C 0.05812 0.11366 0.10184
 C120 C 0.07814 0.13162 0.12346
 C121 C 0.07253 0.16624 0.12943
 H122 H -0.02776 0.15944 0.05431
 H123 H -0.06381 0.20878 0.04966
 H124 H -0.00273 0.26753 0.11311
 H125 H 0.01654 0.11633 0.07089
 H126 H 0.06250 0.08712 0.09717
 H127 H 0.08745 0.18028 0.14615
 C128 C 0.50310 0.79540 0.62738
 C129 C 0.50182 0.79628 0.58778
 C130 C 0.52458 0.77970 0.56071
 C131 C 0.54957 0.76130 0.57505
 C132 C 0.55101 0.75939 0.61578
 C133 C 0.52739 0.77676 0.64226
 O134 O 0.47939 0.81323 0.64813
 C135 C 0.46266 0.82546 0.62106
 C136 C 0.47519 0.81561 0.58364
 C137 C 0.46088 0.82478 0.55091
 C138 C 0.43255 0.84498 0.55706
 C139 C 0.41963 0.85590 0.59532
 C140 C 0.43491 0.84610 0.62774
 H141 H 0.52313 0.78084 0.52968
 H142 H 0.56735 0.74793 0.55445
 H143 H 0.52797 0.77593 0.67348
 H144 H 0.47103 0.81650 0.52176
 H145 H 0.42078 0.85254 0.53225
 H146 H 0.42518 0.85406 0.65716
 C147 C 1.00187 0.69984 0.37057
 C148 C 1.00531 0.67839 0.39962
 C149 C 1.02830 0.68031 0.42493
 C150 C 1.04868 0.70533 0.42010
 C151 C 1.04561 0.72827 0.39054
 C152 C 1.02152 0.72525 0.36555
 O153 O 0.97866 0.69353 0.34941
 C154 C 0.96715 0.66761 0.36562
 C155 C 0.98252 0.65750 0.39662
 C156 C 0.97381 0.63135 0.41849
 C157 C 0.94807 0.61509 0.40808
 C158 C 0.93197 0.62490 0.37606
 C159 C 0.94185 0.65139 0.35434
 H160 H 1.03055 0.66310 0.44759
 H161 H 1.06643 0.70679 0.44003
 H162 H 1.01822 0.74169 0.34238
 H163 H 0.98617 0.62396 0.44290
 H164 H 0.94064 0.59479 0.42477
 H165 H 0.92969 0.65956 0.33009
 C166 C 0.48730 0.30449 -0.09959
 C167 C 0.48938 0.31995 -0.13416
 C168 C 0.47318 0.31097 -0.16534
 C169 C 0.45431 0.28467 -0.16092
 C170 C 0.45176 0.26817 -0.12565
 C171 C 0.46815 0.27860 -0.09429
 O172 O 0.50606 0.31571 -0.07454
 C173 C 0.52024 0.33872 -0.09377
 C174 C 0.51070 0.34233 -0.13030
 C175 C 0.52317 0.36417 -0.15600
 C176 C 0.54658 0.38300 -0.14366
 C177 C 0.55721 0.37956 -0.10629
 C178 C 0.54360 0.35720 -0.08089
 H179 H 0.47550 0.32329 -0.19240
 H180 H 0.44184 0.27701 -0.18511
 H181 H 0.46713 0.26603 -0.06735
 H182 H 0.51548 0.36630 -0.18475
 H183 H 0.55699 0.39972 -0.16355
 H184 H 0.55136 0.35404 -0.05232
 C185 C 0.11632 0.00345 0.24007
 C186 C 0.08544 0.01612 0.24446
 C187 C 0.06216 0.00185 0.26706
 C188 C 0.07112 -0.02666 0.28593
 C189 C 0.10293 -0.03966 0.28260
 C190 C 0.12589 -0.02426 0.25955
 O191 O 0.13440 0.01973 0.21571
 C192 C 0.11454 0.04334 0.20470
 C193 C 0.08440 0.04244 0.22180
 C194 C 0.05996 0.06504 0.21467
 C195 C 0.06678 0.08941 0.18857
 C196 C 0.09751 0.09037 0.16919
 C197 C 0.12171 0.06681 0.17787
 H198 H 0.03794 0.01200 0.26963
 H199 H 0.05342 -0.03837 0.30352
 H200 H 0.15025 -0.03405 0.25615
 H201 H 0.03647 0.06403 0.22880
 H202 H 0.04790 0.10734 0.18334
 H203 H 0.14535 0.06620 0.16371
 C204 C 0.61546 0.51322 -0.17677
 C205 C 0.58835 0.52205 -0.15274
 C206 C 0.57166 0.55272 -0.15310
 C207 C 0.58313 0.57500 -0.17968
 C208 C 0.61066 0.56617 -0.20587
 C209 C 0.62718 0.53477 -0.20352
 O210 O 0.62734 0.48260 -0.17288
 C211 C 0.60717 0.47174 -0.14596
 C212 C 0.58275 0.49482 -0.13272
 C213 C 0.55795 0.48779 -0.10623
 C214 C 0.55829 0.45562 -0.09318
 C215 C 0.58332 0.43160 -0.10637
 C216 C 0.60822 0.43992 -0.13286
 H217 H 0.55027 0.55912 -0.13401
 H218 H 0.56982 0.59862 -0.18030
 H219 H 0.64833 0.52666 -0.22229
 H220 H 0.53869 0.50613 -0.09671
 H221 H 0.53902 0.44914 -0.07322
 H222 H 0.62713 0.42166 -0.14406
 C223 C 0.37364 0.99675 0.70252
 C224 C 0.39636 1.00076 0.67262
 C225 C 0.41363 1.02808 0.67120
 C226 C 0.40745 1.05221 0.70202
 C227 C 0.38450 1.04858 0.73377
 C228 C 0.36712 1.02046 0.73360
 O229 O 0.36074 0.96835 0.69886
 C230 C 0.37576 0.95413 0.66602
 C231 C 0.39785 0.97296 0.64892
 C232 C 0.41754 0.96213 0.61554
 C233 C 0.41456 0.93041 0.59935
 C234 C 0.39203 0.91049 0.61643
 C235 C 0.37204 0.92270 0.64994
 H236 H 0.43148 1.03058 0.64739
 H237 H 0.42082 1.07355 0.70099
 H238 H 0.34970 1.01654 0.75736
 H239 H 0.43503 0.97724 0.60295
 H240 H 0.42997 0.92109 0.57376
 H241 H 0.35513 0.90758 0.66383
 C242 C 0.90619 0.52318 0.22775
 C243 C 0.88543 0.55029 0.22482
 C244 C 0.86430 0.55165 0.19688
 C245 C 0.86421 0.52377 0.17130
 C246 C 0.88485 0.49511 0.17427
 C247 C 0.90661 0.49525 0.20250
 O248 O 0.92254 0.52581 0.25825
 C249 C 0.91174 0.55512 0.27507
 C250 C 0.88896 0.57112 0.25577
 C251 C 0.87227 0.60061 0.27041
 C252 C 0.87892 0.61377 0.30674
 C253 C 0.90207 0.59755 0.32715
 C254 C 0.91918 0.56822 0.31077
 H255 H 0.84787 0.57307 0.19549
 H256 H 0.84757 0.52438 0.14977
 H257 H 0.92218 0.47366 0.20630
 H258 H 0.85389 0.61230 0.25522
 H259 H 0.86545 0.63592 0.31974
 H260 H 0.93612 0.55493 0.32673
 C261 C 0.21672 0.12920 0.03861
 C262 C 0.22261 0.13730 0.07618
 C263 C 0.25150 0.14684 0.08521
 C264 C 0.27519 0.14805 0.05428
 C265 C 0.26967 0.13966 0.01523
 C266 C 0.23985 0.13012 0.00756
 O267 O 0.18782 0.12082 0.03603
 C268 C 0.17515 0.12361 0.07278
 C269 C 0.19540 0.13357 0.09861
 C270 C 0.18677 0.13780 0.13864
 C271 C 0.15611 0.13140 0.15246
 C272 C 0.13500 0.12097 0.12626
 C273 C 0.14469 0.11727 0.08586
 H274 H 0.25568 0.15308 0.11499
 H275 H 0.29784 0.15518 0.06092
 H276 H 0.23452 0.12389 -0.02173
 H277 H 0.20303 0.14569 0.15848
 H278 H 0.14866 0.13453 0.18341
 H279 H 0.12896 0.10932 0.06534
 C280 C 0.80648 0.62388 0.49543
 C281 C 0.81079 0.59106 0.48292
 C282 C 0.79266 0.56742 0.49893
 C283 C 0.76900 0.57806 0.52894
 C284 C 0.76369 0.61190 0.54196
 C285 C 0.78288 0.63506 0.52492
 O286 O 0.82607 0.64236 0.47615
 C287 C 0.84300 0.62075 0.45078
 C288 C 0.83447 0.58904 0.45357
 C289 C 0.84837 0.56275 0.42883
 C290 C 0.87195 0.56945 0.39996
 C291 C 0.88133 0.60188 0.39674
 C292 C 0.86675 0.62783 0.42271
 H293 H 0.79643 0.54174 0.48850
 H294 H 0.75437 0.56002 0.54128
 H295 H 0.77957 0.66100 0.53425
 H296 H 0.84109 0.53806 0.43138
 H297 H 0.88306 0.54946 0.38021
 H298 H 0.87328 0.65283 0.42041
 C299 C 0.69561 0.37628 -0.01757
 C300 C 0.69122 0.34727 -0.03757
 C301 C 0.71271 0.31963 -0.03964
 C302 C 0.73977 0.32202 -0.02029
 C303 C 0.74492 0.35179 0.00056
 C304 C 0.72223 0.37922 0.00181
 O305 O 0.67286 0.39994 -0.01983
 C306 C 0.65367 0.38558 -0.04181
 C307 C 0.66374 0.35334 -0.05344
 C308 C 0.64751 0.33410 -0.07758
 C309 C 0.62001 0.34884 -0.09056
 C310 C 0.60924 0.38223 -0.07918
 C311 C 0.62636 0.40060 -0.05408
 H312 H 0.70889 0.29707 -0.05575
 H313 H 0.75658 0.30063 -0.02177
 H314 H 0.72509 0.40246 0.01702
 H315 H 0.65603 0.30887 -0.08671
 H316 H 0.60763 0.33456 -0.11034
 H317 H 0.61893 0.42612 -0.04504
 C318 C 0.28002 0.86308 0.52085
 C319 C 0.28646 0.83462 0.53944
 C320 C 0.27032 0.80679 0.53461
 C321 C 0.24662 0.80826 0.50946
 C322 C 0.23953 0.83723 0.48949
 C323 C 0.25652 0.86513 0.49570
 O324 O 0.29898 0.88626 0.52825
 C325 C 0.31786 0.87202 0.55191
 C326 C 0.31118 0.84038 0.55962
 C327 C 0.32903 0.82027 0.58197
 C328 C 0.35510 0.83314 0.59653
 C329 C 0.36266 0.86560 0.58879
 C330 C 0.34343 0.88548 0.56662
 H331 H 0.27603 0.78455 0.54931
 H332 H 0.23428 0.78650 0.50535
 H333 H 0.25208 0.88764 0.48107
 H334 H 0.32352 0.79532 0.58725
 H335 H 0.36974 0.81775 0.61338
 H336 H 0.34910 0.91005 0.55958
   
