data_POSCAR
  _audit_creation_date              2014-09-24
  _audit_creation_method            'ToBaCCo'
  _symmetry_space_group_name_H-M    'P1'
  _symmetry_Int_Tables_number       1
  _symmetry_cell_setting            triclinic
  loop_
  _symmetry_equiv_pos_as_xyz
 x,y,z
_cell_length_a 46.7400
_cell_length_b 47.0320
_cell_length_c 47.8069
_cell_angle_alpha 89.994800
_cell_angle_beta 89.994700
_cell_angle_gamma 89.870800
loop_
  _atom_site_label
  _atom_site_type_symbol
  _atom_site_fract_x
  _atom_site_fract_y
  _atom_site_fract_z
O1 O 0.34235 0.38113 0.02704
 O2 O 0.38184 0.34176 -0.02731
 O3 O 0.34285 0.38120 -0.02770
 O4 O 0.38190 0.34216 0.02707
 O5 O 0.34846 0.30903 0.02719
 O6 O 0.30931 0.34820 -0.02763
 O7 O 0.34848 0.30854 -0.02717
 O8 O 0.30867 0.34825 0.02667
 Cu9 Cu 0.36555 0.36492 -0.00021
 Cu10 Cu 0.32536 0.32519 -0.00022
 C11 C 0.31874 0.37142 0.03603
 C12 C 0.37194 0.31838 -0.03638
 C13 C 0.31942 0.37138 -0.03703
 C14 C 0.37194 0.31890 0.03634
 O15 O 0.61971 0.65686 -0.02917
 O16 O 0.65645 0.61972 0.02840
 O17 O 0.61745 0.65966 0.02491
 O18 O 0.65870 0.61767 -0.02614
 O19 O 0.69182 0.65107 -0.02720
 O20 O 0.65234 0.69123 0.02669
 O21 O 0.69125 0.65140 0.02699
 O22 O 0.65256 0.69056 -0.02792
 Cu23 Cu 0.63472 0.63514 -0.00039
 Cu24 Cu 0.67536 0.67440 -0.00034
 C25 C 0.62972 0.68023 -0.03808
 C26 C 0.68037 0.62893 0.03710
 C27 C 0.62794 0.68253 0.03457
 C28 C 0.68214 0.62735 -0.03564
 O29 O 0.65651 0.38063 0.97110
 O30 O 0.61817 0.34227 1.02679
 O31 O 0.65727 0.38164 1.02551
 O32 O 0.61757 0.34150 0.97207
 O33 O 0.65124 0.30845 0.97214
 O34 O 0.69063 0.34832 1.02612
 O35 O 0.65140 0.30880 1.02641
 O36 O 0.69056 0.34797 0.97185
 Cu37 Cu 0.63396 0.36479 0.99890
 Cu38 Cu 0.67433 0.32505 0.99915
 C39 C 0.68019 0.37094 0.96219
 C40 C 0.62816 0.31892 1.03593
 C41 C 0.68079 0.37192 1.03484
 C42 C 0.62768 0.31820 0.96295
 O43 O 0.38277 0.65672 1.02995
 O44 O 0.34511 0.61666 0.97505
 O45 O 0.38458 0.65670 0.97560
 O46 O 0.34404 0.61747 1.02908
 O47 O 0.31010 0.65019 1.02760
 O48 O 0.35043 0.68920 0.97369
 O49 O 0.31172 0.64994 0.97323
 O50 O 0.34928 0.68991 1.02825
 Cu51 Cu 0.36758 0.63361 1.00239
 Cu52 Cu 0.32702 0.67316 1.00064
 C53 C 0.37240 0.68014 1.03844
 C54 C 0.32187 0.62632 0.96506
 C55 C 0.37446 0.67964 0.96562
 C56 C 0.32007 0.62706 1.03736
 O57 O 0.02637 0.34630 0.38371
 O58 O -0.03019 0.38244 0.34368
 O59 O -0.02894 0.34428 0.38262
 O60 O 0.02529 0.38474 0.34351
 O61 O 0.02780 0.35036 0.31209
 O62 O -0.02685 0.31017 0.35093
 O63 O -0.02793 0.34880 0.31150
 O64 O 0.02881 0.31264 0.35154
 Cu65 Cu -0.00189 0.36789 0.36658
 Cu66 Cu 0.00058 0.32708 0.32830
 C67 C 0.03699 0.32322 0.37460
 C68 C -0.03867 0.37178 0.32077
 C69 C -0.03710 0.32028 0.37347
 C70 C 0.03565 0.37450 0.32108
 O71 O 0.02886 0.65553 0.61795
 O72 O -0.02622 0.61631 0.65722
 O73 O -0.02693 0.65471 0.61776
 O74 O 0.02953 0.61718 0.65700
 O75 O 0.02883 0.65106 0.68900
 O76 O -0.02782 0.68842 0.64990
 O77 O -0.02677 0.65008 0.68934
 O78 O 0.02764 0.68971 0.64964
 Cu79 Cu 0.00133 0.63253 0.63427
 Cu80 Cu 0.00042 0.67320 0.67269
 C81 C 0.03748 0.67938 0.62705
 C82 C -0.03572 0.62643 0.68005
 C83 C -0.03691 0.67803 0.62704
 C84 C 0.03874 0.62773 0.67971
 O85 O 0.97053 0.65313 0.38151
 O86 O 1.02934 0.61759 0.34386
 O87 O 1.02631 0.65609 0.38269
 O88 O 0.97401 0.61487 0.34178
 O89 O 0.97135 0.64981 0.31099
 O90 O 1.02642 0.68930 0.35003
 O91 O 1.02716 0.65054 0.31097
 O92 O 0.97105 0.68799 0.35053
 Cu93 Cu 1.00004 0.63205 0.36572
 Cu94 Cu 0.99889 0.67278 0.32738
 C95 C 0.96119 0.67689 0.37272
 C96 C 1.03796 0.62782 0.32080
 C97 C 1.03549 0.67962 0.37321
 C98 C 0.96372 0.62539 0.31947
 O99 O 0.97259 0.34407 0.61704
 O100 O 1.02501 0.38499 0.65802
 O101 O 1.02861 0.34682 0.61817
 O102 O 0.96976 0.38219 0.65605
 O103 O 0.97194 0.34908 0.68878
 O104 O 1.02847 0.31215 0.64932
 O105 O 1.02755 0.35001 0.68879
 O106 O 0.97303 0.31043 0.64929
 Cu107 Cu 0.99900 0.36787 0.63402
 Cu108 Cu 1.00028 0.32699 0.67223
 C109 C 0.96369 0.32040 0.62635
 C110 C 1.03519 0.37444 0.68036
 C111 C 1.03836 0.32327 0.62713
 C112 C 0.96120 0.37189 0.67911
 O113 O 0.38165 0.03039 0.34310
 O114 O 0.34294 -0.02515 0.38200
 O115 O 0.38200 -0.02497 0.34288
 O116 O 0.34317 0.03031 0.38210
 O117 O 0.30905 0.03015 0.35012
 O118 O 0.34805 -0.02503 0.31072
 O119 O 0.30902 -0.02509 0.34982
 O120 O 0.34795 0.03007 0.31068
 Cu121 Cu 0.36583 0.00256 0.36577
 Cu122 Cu 0.32509 0.00254 0.32712
 C123 C 0.37145 0.03954 0.32018
 C124 C 0.31930 -0.03443 0.37263
 C125 C 0.37179 -0.03421 0.32001
 C126 C 0.31950 0.03961 0.37280
 O127 O 0.61839 0.02855 0.65639
 O128 O 0.65581 -0.02818 0.61775
 O129 O 0.61703 -0.02676 0.65692
 O130 O 0.65692 0.02740 0.61740
 O131 O 0.69090 0.02682 0.64952
 O132 O 0.65123 -0.02770 0.68882
 O133 O 0.69009 -0.02831 0.64956
 O134 O 0.65199 0.02740 0.68889
 Cu135 Cu 0.63365 0.00027 0.63385
 Cu136 Cu 0.67448 -0.00050 0.67241
 C137 C 0.62870 0.03743 0.67934
 C138 C 0.67942 -0.03774 0.62698
 C139 C 0.62726 -0.03632 0.67967
 C140 C 0.68068 0.03633 0.62675
 O141 O 0.38100 0.97002 0.65770
 O142 O 0.34348 1.02610 0.61827
 O143 O 0.38218 1.02544 0.65762
 O144 O 0.34276 0.97071 0.61846
 O145 O 0.30846 0.97171 0.65026
 O146 O 0.34806 1.02637 0.68959
 O147 O 0.30937 1.02688 0.65026
 O148 O 0.34714 0.97120 0.68994
 Cu149 Cu 0.36579 0.99805 0.63481
 Cu150 Cu 0.32483 0.99909 0.67323
 C151 C 0.37051 0.96118 0.68059
 C152 C 0.31994 1.03589 0.62747
 C153 C 0.37194 1.03511 0.68033
 C154 C 0.31885 0.96199 0.62764
 O155 O 0.65761 1.02707 0.38218
 O156 O 0.61935 0.97168 0.34270
 O157 O 0.65747 0.97178 0.38217
 O158 O 0.61891 1.02711 0.34286
 O159 O 0.65319 1.02755 0.31105
 O160 O 0.69161 0.97165 0.35020
 O161 O 0.65316 0.97241 0.31040
 O162 O 0.69193 1.02693 0.35042
 Cu163 Cu 0.63490 0.99944 0.36567
 Cu164 Cu 0.67593 0.99964 0.32733
 C165 C 0.68144 1.03626 0.37316
 C166 C 0.62966 0.96279 0.31972
 C167 C 0.68110 0.96232 0.37293
 C168 C 0.62937 1.03666 0.32023
 C169 C 0.82323 0.78447 0.48641
 C170 C 0.82349 0.78468 0.51609
 C171 C 0.80487 0.80333 0.53018
 C172 C 0.78651 0.82190 0.51575
 C173 C 0.78674 0.82202 0.48609
 C174 C 0.80502 0.80314 0.47200
 H175 H 0.80550 0.80329 0.44930
 H176 H 0.80492 0.80380 0.55287
 C177 C 0.17565 0.21480 0.48750
 C178 C 0.17605 0.21436 0.51722
 C179 C 0.19431 0.19525 0.53109
 C180 C 0.21251 0.17668 0.51649
 C181 C 0.21270 0.17765 0.48686
 C182 C 0.19441 0.19664 0.47294
 H183 H 0.19416 0.19639 0.45026
 H184 H 0.19428 0.19481 0.55377
 C185 C 0.17271 0.78972 0.51324
 C186 C 0.17207 0.79014 0.48356
 C187 C 0.19042 0.80890 0.46933
 C188 C 0.20912 0.82725 0.48361
 C189 C 0.20949 0.82667 0.51328
 C190 C 0.19122 0.80805 0.52752
 H191 H 0.19113 0.80810 0.55023
 H192 H 0.19004 0.80934 0.44666
 C193 C 0.82684 0.21018 0.51413
 C194 C 0.82714 0.20989 0.48446
 C195 C 0.80877 0.19120 0.47028
 C196 C 0.79022 0.17275 0.48459
 C197 C 0.79002 0.17323 0.51427
 C198 C 0.80842 0.19177 0.52848
 H199 H 0.80868 0.19160 0.55118
 H200 H 0.80906 0.19088 0.44760
 C201 C 0.48448 0.82644 0.79136
 C202 C 0.51479 0.82777 0.79135
 C203 C 0.53001 0.80986 0.80955
 C204 C 0.51613 0.79113 0.82789
 C205 C 0.48575 0.79049 0.82866
 C206 C 0.47053 0.80802 0.80997
 H207 H 0.44734 0.80807 0.81033
 H208 H 0.55321 0.81035 0.80940
 C209 C 0.48597 0.17425 0.21014
 C210 C 0.51635 0.17388 0.21003
 C211 C 0.53088 0.19215 0.19163
 C212 C 0.51621 0.21051 0.17343
 C213 C 0.48586 0.21045 0.17320
 C214 C 0.47133 0.19229 0.19165
 H215 H 0.44812 0.19198 0.19150
 H216 H 0.55408 0.19198 0.19124
 C217 C 0.51521 0.17311 0.78961
 C218 C 0.48485 0.17234 0.79004
 C219 C 0.47019 0.19044 0.80861
 C220 C 0.48471 0.20901 0.82670
 C221 C 0.51504 0.20946 0.82623
 C222 C 0.52973 0.19143 0.80782
 H223 H 0.55295 0.19141 0.80790
 H224 H 0.44700 0.18999 0.80910
 C225 C 0.51545 0.82993 0.20748
 C226 C 0.48512 0.83088 0.20741
 C227 C 0.47026 0.81298 0.18899
 C228 C 0.48451 0.79452 0.17059
 C229 C 0.51492 0.79429 0.16989
 C230 C 0.52976 0.81188 0.18874
 H231 H 0.55296 0.81221 0.18845
 H232 H 0.44705 0.81319 0.18910
 C233 C 0.78915 0.48488 0.82696
 C234 C 0.78994 0.51503 0.82788
 C235 C 0.80852 0.52944 0.80958
 C236 C 0.82638 0.51487 0.79068
 C237 C 0.82537 0.48472 0.79003
 C238 C 0.80693 0.47031 0.80822
 H239 H 0.80672 0.44723 0.80808
 H240 H 0.80919 0.55247 0.81015
 C241 C 0.20885 0.48484 0.17156
 C242 C 0.20875 0.51497 0.17058
 C243 C 0.19055 0.52992 0.18871
 C244 C 0.17238 0.51595 0.20755
 C245 C 0.17176 0.48574 0.20802
 C246 C 0.19037 0.47078 0.19010
 H247 H 0.19004 0.44774 0.18990
 H248 H 0.19064 0.55299 0.18832
 C249 C 0.79032 0.51397 0.17094
 C250 C 0.79067 0.48384 0.16965
 C251 C 0.80903 0.46894 0.18771
 C252 C 0.82719 0.48296 0.20654
 C253 C 0.82766 0.51317 0.20712
 C254 C 0.80879 0.52805 0.18944
 H255 H 0.80892 0.55110 0.18935
 H256 H 0.80911 0.44588 0.18729
 C257 C 0.20864 0.51410 0.83110
 C258 C 0.20807 0.48391 0.83036
 C259 C 0.18915 0.47014 0.81204
 C260 C 0.17084 0.48529 0.79404
 C261 C 0.17216 0.51545 0.79408
 C262 C 0.19080 0.52923 0.81263
 H263 H 0.19106 0.55228 0.81285
 H264 H 0.18850 0.44710 0.81217
 C265 C 0.27277 0.41728 0.09604
 N266 N 0.30063 0.42343 0.09083
 N267 N 0.31532 0.40878 0.07174
 C268 C 0.30273 0.38730 0.05735
 N269 N 0.27493 0.38100 0.06272
 N270 N 0.26018 0.39582 0.08162
 C271 C 0.25630 0.43411 0.11632
 N272 N 0.22730 0.43279 0.11678
 N273 N 0.21229 0.44897 0.13436
 C274 C 0.22573 0.46712 0.15207
 N275 N 0.25476 0.46770 0.15228
 N276 N 0.26977 0.45172 0.13453
 C277 C 0.72588 0.58271 0.09708
 N278 N 0.73876 0.60373 0.08229
 N279 N 0.72407 0.61877 0.06354
 C280 C 0.69603 0.61316 0.05870
 N281 N 0.68311 0.59215 0.07349
 N282 N 0.69775 0.57728 0.09245
 C283 C 0.74242 0.56547 0.11692
 N284 N 0.72907 0.54825 0.13557
 N285 N 0.74424 0.53194 0.15291
 C286 C 0.77326 0.53178 0.15177
 N287 N 0.78659 0.54951 0.13358
 N288 N 0.77145 0.56602 0.11644
 C289 C 0.72565 0.41710 0.90224
 N290 N 0.69758 0.42273 0.90709
 N291 N 0.68304 0.40790 0.92608
 C292 C 0.69597 0.38673 0.94072
 N293 N 0.72396 0.38093 0.93569
 N294 N 0.73858 0.39594 0.91689
 C295 C 0.74199 0.43420 0.88217
 N296 N 0.77102 0.43358 0.88233
 N297 N 0.78592 0.44990 0.86486
 C298 C 0.77235 0.46749 0.84666
 N299 N 0.74332 0.46741 0.84586
 N300 N 0.72839 0.45130 0.86353
 C301 C 0.27492 0.57878 0.90745
 N302 N 0.27271 0.60755 0.90798
 N303 N 0.28784 0.62274 0.92624
 C304 C 0.30611 0.60973 0.94424
 N305 N 0.30857 0.58098 0.94350
 N306 N 0.29310 0.56575 0.92553
 C307 C 0.25774 0.56203 0.88783
 N308 N 0.25074 0.53473 0.89378
 N309 N 0.23503 0.51957 0.87598
 C310 C 0.22628 0.53081 0.85123
 N311 N 0.23307 0.55832 0.84557
 N312 N 0.24839 0.57367 0.86353
 C313 C 0.09693 0.27867 0.42236
 N314 N 0.07813 0.29674 0.43475
 N315 N 0.05940 0.31140 0.41943
 C316 C 0.05857 0.30820 0.39123
 N317 N 0.07729 0.29004 0.37884
 N318 N 0.09631 0.27572 0.39412
 C319 C 0.11729 0.26231 0.43925
 N320 N 0.14225 0.25297 0.42803
 N321 N 0.16079 0.23826 0.44350
 C322 C 0.15508 0.23211 0.47073
 N323 N 0.12970 0.24089 0.48159
 N324 N 0.11132 0.25598 0.46629
 C325 C 0.09716 0.72549 0.58050
 N326 N 0.08211 0.73817 0.60136
 N327 N 0.06338 0.72336 0.61646
 C328 C 0.05882 0.69540 0.61105
 N329 N 0.07384 0.68272 0.59017
 N330 N 0.09277 0.69747 0.57524
 C331 C 0.11722 0.74202 0.56341
 N332 N 0.13645 0.72879 0.54655
 N333 N 0.15418 0.74388 0.53057
 C334 C 0.15284 0.77271 0.53038
 N335 N 0.13405 0.78593 0.54772
 N336 N 0.11652 0.77087 0.56390
 C337 C 0.89999 0.72123 0.41926
 N338 N 0.90517 0.69330 0.42447
 N339 N 0.92452 0.67903 0.40951
 C340 C 0.93915 0.69212 0.38864
 N341 N 0.93376 0.71996 0.38328
 N342 N 0.91462 0.73428 0.39839
 C343 C 0.87963 0.73739 0.43641
 N344 N 0.87964 0.76623 0.43573
 N345 N 0.86185 0.78108 0.45188
 C346 C 0.84345 0.76764 0.46938
 N347 N 0.84280 0.73878 0.46942
 N348 N 0.86080 0.72391 0.45346
 C349 C 0.90379 0.27418 0.58017
 N350 N 0.91826 0.26178 0.60158
 N351 N 0.93716 0.27660 0.61647
 C352 C 0.94247 0.30426 0.61030
 N353 N 0.92805 0.31664 0.58885
 N354 N 0.90896 0.30190 0.57413
 C355 C 0.88337 0.25770 0.56343
 N356 N 0.86498 0.27096 0.54572
 N357 N 0.84691 0.25594 0.53007
 C358 C 0.84700 0.22710 0.53109
 N359 N 0.86493 0.21389 0.54930
 N360 N 0.88282 0.22890 0.56514
 C361 C 0.41778 0.09940 0.27424
 N362 N 0.42388 0.09466 0.30162
 N363 N 0.40899 0.07571 0.31632
 C364 C 0.38727 0.06103 0.30425
 N365 N 0.38099 0.06596 0.27695
 N366 N 0.39607 0.08470 0.26218
 C367 C 0.43496 0.11937 0.25773
 N368 N 0.43401 0.11880 0.22936
 N369 N 0.45044 0.13615 0.21432
 C370 C 0.46848 0.15463 0.22709
 N371 N 0.46870 0.15586 0.25546
 N372 N 0.45250 0.13831 0.27052
 C373 C 0.58326 0.09809 0.72532
 N374 N 0.60472 0.08294 0.73739
 N375 N 0.61954 0.06396 0.72259
 C376 C 0.61324 0.05923 0.69527
 N377 N 0.59178 0.07438 0.68319
 N378 N 0.57715 0.09357 0.69792
 C379 C 0.56625 0.11822 0.74189
 N380 N 0.54890 0.13745 0.72915
 N381 N 0.53273 0.15505 0.74426
 C382 C 0.53281 0.15359 0.77262
 N383 N 0.55069 0.13484 0.78534
 N384 N 0.56708 0.11744 0.77025
 C385 C 0.41563 0.90052 0.72687
 N386 N 0.42183 0.90495 0.69948
 N387 N 0.40730 0.92415 0.68466
 C388 C 0.38587 0.93940 0.69664
 N389 N 0.37946 0.93476 0.72396
 N390 N 0.39419 0.91577 0.73885
 C391 C 0.43261 0.88045 0.74353
 N392 N 0.43191 0.88144 0.77189
 N393 N 0.44847 0.86423 0.78703
 C394 C 0.46637 0.84548 0.77435
 N395 N 0.46630 0.84378 0.74601
 N396 N 0.44997 0.86118 0.73085
 C397 C 0.58383 0.90335 0.27287
 N398 N 0.60551 0.91831 0.26108
 N399 N 0.62043 0.93691 0.27616
 C400 C 0.61399 0.94145 0.30349
 N401 N 0.59230 0.92651 0.31528
 N402 N 0.57758 0.90768 0.30027
 C403 C 0.56677 0.88360 0.25601
 N404 N 0.54926 0.86439 0.26845
 N405 N 0.53304 0.84716 0.25308
 C406 C 0.53322 0.84898 0.22475
 N407 N 0.55125 0.86769 0.21230
 N408 N 0.56770 0.88473 0.22765
 C409 C 0.41829 0.27261 0.90385
 N410 N 0.42686 0.29893 0.91188
 N411 N 0.41201 0.31356 0.93083
 C412 C 0.38798 0.30244 0.94237
 N413 N 0.37932 0.27616 0.93426
 N414 N 0.39424 0.26149 0.91537
 C415 C 0.43511 0.25630 0.88344
 N416 N 0.42832 0.22895 0.87732
 N417 N 0.44412 0.21403 0.85933
 C418 C 0.46738 0.22581 0.84685
 N419 N 0.47372 0.25332 0.85261
 N420 N 0.45804 0.26824 0.87066
 C421 C 0.58483 0.72519 0.90059
 N422 N 0.57719 0.69823 0.90736
 N423 N 0.59170 0.68377 0.92671
 C424 C 0.61443 0.69572 0.93988
 N425 N 0.62223 0.72258 0.93291
 N426 N 0.60763 0.73708 0.91369
 C427 C 0.56790 0.74179 0.88054
 N428 N 0.57249 0.77011 0.87766
 N429 N 0.55611 0.78563 0.86073
 C430 C 0.53447 0.77344 0.84611
 N431 N 0.53043 0.74494 0.84832
 N432 N 0.54671 0.72942 0.86541
 C433 C 0.41699 0.72687 0.09856
 N434 N 0.39384 0.73820 0.08548
 N435 N 0.37935 0.72315 0.06662
 C436 C 0.38761 0.69630 0.06003
 N437 N 0.41071 0.68493 0.07317
 N438 N 0.42510 0.69992 0.09215
 C439 C 0.43371 0.74397 0.11833
 N440 N 0.45532 0.73212 0.13336
 N441 N 0.47132 0.74803 0.15028
 C442 C 0.46657 0.77645 0.15242
 N443 N 0.44453 0.78813 0.13789
 N444 N 0.42844 0.77221 0.12112
 C445 C 0.58280 0.27370 0.09670
 N446 N 0.60444 0.26114 0.08229
 N447 N 0.61911 0.27568 0.06317
 C448 C 0.61249 0.30321 0.05756
 N449 N 0.59084 0.31577 0.07193
 N450 N 0.57633 0.30131 0.09124
 C451 C 0.56614 0.25745 0.11722
 N452 N 0.54831 0.27091 0.13533
 N453 N 0.53254 0.25606 0.15336
 C454 C 0.53354 0.22722 0.15352
 N455 N 0.55190 0.21381 0.13587
 N456 N 0.56787 0.22865 0.11802
 C457 C 0.27531 0.09689 0.58108
 N458 N 0.26413 0.08629 0.60512
 N459 N 0.27849 0.06704 0.62002
 C460 C 0.30452 0.05765 0.61140
 N461 N 0.31573 0.06828 0.58739
 N462 N 0.30140 0.08758 0.57252
 C463 C 0.25924 0.11774 0.56443
 N464 N 0.27081 0.12919 0.54098
 N465 N 0.25606 0.14784 0.52571
 C466 C 0.22912 0.15561 0.53308
 N467 N 0.21773 0.14433 0.55677
 N468 N 0.23246 0.12573 0.57211
 C469 C 0.72619 0.09503 0.41906
 N470 N 0.70021 0.08578 0.42784
 N471 N 0.68559 0.06685 0.41286
 C472 C 0.69639 0.05652 0.38850
 N473 N 0.72233 0.06592 0.37967
 N474 N 0.73697 0.08480 0.39468
 C475 C 0.74258 0.11541 0.43589
 N476 N 0.76934 0.12325 0.42810
 N477 N 0.78436 0.14135 0.44366
 C478 C 0.77330 0.15227 0.46768
 N479 N 0.74638 0.14466 0.47515
 N480 N 0.73134 0.12650 0.45968
 C481 C 0.72387 0.90053 0.58137
 N482 N 0.69626 0.90687 0.57505
 N483 N 0.68202 0.92647 0.58965
 C484 C 0.69482 0.94026 0.61122
 N485 N 0.72236 0.93376 0.61765
 N486 N 0.73666 0.91433 0.60292
 C487 C 0.73991 0.87964 0.56473
 N488 N 0.76876 0.87755 0.56723
 N489 N 0.78347 0.85927 0.55151
 C490 C 0.76990 0.84247 0.53262
 N491 N 0.74096 0.84396 0.53076
 N492 N 0.72625 0.86241 0.54631
 C493 C 0.27347 0.90527 0.41860
 N494 N 0.29965 0.91406 0.42732
 N495 N 0.31436 0.93312 0.41257
 C496 C 0.30345 0.94403 0.38852
 N497 N 0.27733 0.93514 0.37975
 N498 N 0.26260 0.91613 0.39453
 C499 C 0.25700 0.88474 0.43522
 N500 N 0.23013 0.87721 0.42748
 N501 N 0.21503 0.85902 0.44291
 C502 C 0.22614 0.84772 0.46674
 N503 N 0.25317 0.85500 0.47414
 N504 N 0.26828 0.87323 0.45880
 C505 C 0.09273 0.42131 0.72859
 N506 N 0.09220 0.39250 0.73027
 N507 N 0.07385 0.37754 0.71488
 C508 C 0.05573 0.39083 0.69692
 N509 N 0.05644 0.41962 0.69505
 N510 N 0.07450 0.43461 0.71075
 C511 C 0.11270 0.43781 0.74574
 N512 N 0.10714 0.46540 0.75196
 N513 N 0.12538 0.48041 0.76742
 C514 C 0.15021 0.46871 0.77673
 N515 N 0.15547 0.44092 0.77073
 N516 N 0.13706 0.42574 0.75562
 C517 C 0.09981 0.58373 0.27488
 N518 N 0.08616 0.60657 0.26369
 N519 N 0.06683 0.62094 0.27852
 C520 C 0.06030 0.61288 0.30502
 N521 N 0.07404 0.59012 0.31627
 N522 N 0.09351 0.57584 0.30148
 C523 C 0.11988 0.56702 0.25791
 N524 N 0.13557 0.54571 0.26948
 N525 N 0.15262 0.52963 0.25363
 C526 C 0.15420 0.53401 0.22558
 N527 N 0.13903 0.55576 0.21419
 N528 N 0.12215 0.57192 0.23003
 C529 C 0.89981 0.41550 0.27410
 N530 N 0.91353 0.39259 0.26314
 N531 N 0.93280 0.37832 0.27817
 C532 C 0.93915 0.38657 0.30465
 N533 N 0.92534 0.40940 0.31565
 N534 N 0.90597 0.42357 0.30068
 C535 C 0.87976 0.43210 0.25701
 N536 N 0.86407 0.45345 0.26850
 N537 N 0.84702 0.46946 0.25261
 C538 C 0.84544 0.46498 0.22458
 N539 N 0.86062 0.44320 0.21326
 N540 N 0.87751 0.42709 0.22916
 C541 C 0.90429 0.58020 0.72623
 N542 N 0.91466 0.60522 0.73608
 N543 N 0.93361 0.62006 0.72126
 C544 C 0.94290 0.61041 0.69607
 N545 N 0.93249 0.58544 0.68619
 N546 N 0.91351 0.57062 0.70099
 C547 C 0.88380 0.56353 0.74274
 N548 N 0.87293 0.53894 0.73247
 N549 N 0.85473 0.52355 0.74759
 C550 C 0.84677 0.53190 0.77362
 N551 N 0.85747 0.55673 0.78372
 N552 N 0.87565 0.57222 0.76862
 C553 C 0.72715 0.58097 0.90629
 N554 N 0.70180 0.57137 0.91638
 N555 N 0.68719 0.58644 0.93517
 C556 C 0.69736 0.61172 0.94459
 N557 N 0.72272 0.62135 0.93444
 N558 N 0.73735 0.60624 0.91566
 C559 C 0.74331 0.56410 0.88579
 N560 N 0.76926 0.57287 0.87649
 N561 N 0.78396 0.55726 0.85816
 C562 C 0.77336 0.53222 0.84846
 N563 N 0.74725 0.52377 0.85760
 N564 N 0.73254 0.53929 0.87594
 C565 C 0.27488 0.41597 0.90322
 N566 N 0.30101 0.42497 0.91186
 N567 N 0.31553 0.41043 0.93115
 C568 C 0.30454 0.38627 0.94240
 N569 N 0.27853 0.37715 0.93352
 N570 N 0.26392 0.39180 0.91440
 C571 C 0.25813 0.43275 0.88311
 N572 N 0.22991 0.42727 0.87931
 N573 N 0.21420 0.44344 0.86234
 C574 C 0.22607 0.46573 0.84856
 N575 N 0.25454 0.47063 0.85164
 N576 N 0.27023 0.45459 0.86881
 C577 C 0.27370 0.58095 0.09438
 N578 N 0.29996 0.57200 0.08602
 N579 N 0.31505 0.58710 0.06768
 C580 C 0.30450 0.61177 0.05705
 N581 N 0.27827 0.62081 0.06555
 N582 N 0.26314 0.60565 0.08385
 C583 C 0.25693 0.56394 0.11419
 N584 N 0.22985 0.57163 0.12113
 N585 N 0.21460 0.55590 0.13885
 C586 C 0.22575 0.53180 0.15023
 N587 N 0.25296 0.52444 0.14350
 N588 N 0.26822 0.54007 0.12573
 C589 C 0.72637 0.41835 0.09228
 N590 N 0.70080 0.42792 0.08259
 N591 N 0.68594 0.41277 0.06409
 C592 C 0.69606 0.38745 0.05460
 N593 N 0.72160 0.37783 0.06440
 N594 N 0.73647 0.39300 0.08289
 C595 C 0.74292 0.43528 0.11236
 N596 N 0.76895 0.42628 0.12132
 N597 N 0.78401 0.44182 0.13936
 C598 C 0.77374 0.46702 0.14910
 N599 N 0.74758 0.47576 0.14024
 N600 N 0.73249 0.46030 0.12218
 C601 C 0.90256 0.72155 0.58164
 N602 N 0.91278 0.69615 0.57250
 N603 N 0.93226 0.68192 0.58732
 C604 C 0.94223 0.69254 0.61187
 N605 N 0.93186 0.71788 0.62108
 N606 N 0.91242 0.73213 0.60623
 C607 C 0.88165 0.73759 0.56492
 N608 N 0.87258 0.76367 0.57327
 N609 N 0.85413 0.77845 0.55775
 C610 C 0.84407 0.76783 0.53320
 N611 N 0.85292 0.74158 0.52516
 N612 N 0.87141 0.72677 0.54061
 C613 C 0.90428 0.27445 0.41871
 N614 N 0.91248 0.30071 0.42723
 N615 N 0.93137 0.31561 0.41244
 C616 C 0.94273 0.30485 0.38852
 N617 N 0.93438 0.27862 0.37990
 N618 N 0.91554 0.26367 0.39476
 C619 C 0.88396 0.25786 0.43545
 N620 N 0.87757 0.23063 0.42851
 N621 N 0.85960 0.21548 0.44417
 C622 C 0.84743 0.22690 0.46744
 N623 N 0.85351 0.25428 0.47399
 N624 N 0.87153 0.26943 0.45844
 C625 C 0.10060 0.28051 0.58332
 N626 N 0.09170 0.30661 0.57479
 N627 N 0.07164 0.32067 0.58907
 C628 C 0.05987 0.30917 0.61247
 N629 N 0.06905 0.28320 0.62110
 N630 N 0.08893 0.26910 0.60674
 C631 C 0.12140 0.26406 0.56688
 N632 N 0.12544 0.23605 0.57239
 N633 N 0.14301 0.22048 0.55669
 C634 C 0.15722 0.23230 0.53485
 N635 N 0.15391 0.26057 0.52988
 N636 N 0.13611 0.27613 0.54546
 C637 C 0.09402 0.72544 0.41865
 N638 N 0.08405 0.73546 0.39386
 N639 N 0.06518 0.72053 0.37904
 C640 C 0.05554 0.69503 0.38847
 N641 N 0.06558 0.68501 0.41326
 N642 N 0.08448 0.69992 0.42805
 C643 C 0.11451 0.74204 0.43525
 N644 N 0.12497 0.73158 0.45963
 N645 N 0.14321 0.74675 0.47492
 C646 C 0.15161 0.77303 0.46665
 N647 N 0.14132 0.78332 0.44203
 N648 N 0.12310 0.76817 0.42666
 C649 C 0.58012 0.90502 0.72635
 N650 N 0.57041 0.91427 0.70117
 N651 N 0.58554 0.93280 0.68619
 C652 C 0.61097 0.94269 0.69581
 N653 N 0.62073 0.93336 0.72094
 N654 N 0.60558 0.91486 0.73594
 C655 C 0.56321 0.88496 0.74307
 N656 N 0.57224 0.87670 0.76878
 N657 N 0.55673 0.85871 0.78402
 C658 C 0.53152 0.84831 0.77423
 N659 N 0.52275 0.85645 0.74839
 N660 N 0.53818 0.87448 0.73313
 C661 C 0.41877 0.90692 0.27314
 N662 N 0.39354 0.91730 0.26338
 N663 N 0.37839 0.93579 0.27847
 C664 C 0.38793 0.94460 0.30385
 N665 N 0.41311 0.93417 0.31364
 N666 N 0.42823 0.91563 0.29858
 C667 C 0.43582 0.88702 0.25627
 N668 N 0.46064 0.87611 0.26638
 N669 N 0.47632 0.85838 0.25095
 C670 C 0.46803 0.85100 0.22475
 N671 N 0.44299 0.86176 0.21480
 N672 N 0.42723 0.87946 0.23021
 C673 C 0.58300 0.09682 0.27433
 N674 N 0.57346 0.08772 0.29961
 N675 N 0.58838 0.06875 0.31432
 C676 C 0.61345 0.05823 0.30434
 N677 N 0.62308 0.06741 0.27911
 N678 N 0.60811 0.08635 0.26436
 C679 C 0.56606 0.11718 0.25787
 N680 N 0.57449 0.12507 0.23184
 N681 N 0.55866 0.14304 0.21677
 C682 C 0.53373 0.15373 0.22705
 N683 N 0.52566 0.14608 0.25324
 N684 N 0.54139 0.12809 0.26832
 C685 C 0.41868 0.09482 0.72614
 N686 N 0.42830 0.08544 0.70097
 N687 N 0.41330 0.06656 0.68629
 C688 C 0.38809 0.05642 0.69622
 N689 N 0.37842 0.06587 0.72134
 N690 N 0.39345 0.08472 0.73605
 C691 C 0.43558 0.11519 0.74252
 N692 N 0.42690 0.12351 0.76835
 N693 N 0.44259 0.14159 0.78332
 C694 C 0.46763 0.15201 0.77314
 N695 N 0.47599 0.14389 0.74716
 N696 N 0.46039 0.12578 0.73218
 C697 C 0.58050 0.73061 0.09170
 N698 N 0.60944 0.73296 0.09068
 N699 N 0.62460 0.71772 0.07240
 C700 C 0.61139 0.69925 0.05482
 N701 N 0.58249 0.69676 0.05600
 N702 N 0.56731 0.71229 0.07399
 C703 C 0.56369 0.74746 0.11166
 N704 N 0.53564 0.75296 0.10675
 N705 N 0.52025 0.76794 0.12501
 C706 C 0.53200 0.77748 0.14924
 N707 N 0.56024 0.77222 0.15386
 N708 N 0.57580 0.75759 0.13543
 C709 C 0.41878 0.27356 0.09611
 N710 N 0.39440 0.26252 0.08517
 N711 N 0.37928 0.27706 0.06632
 C712 C 0.38805 0.30314 0.05769
 N713 N 0.41239 0.31418 0.06867
 N714 N 0.42744 0.29968 0.08756
 C715 C 0.43585 0.25737 0.11644
 N716 N 0.45942 0.26910 0.12827
 N717 N 0.47528 0.25429 0.14627
 C718 C 0.46845 0.22712 0.15297
 N719 N 0.44459 0.21556 0.14140
 N720 N 0.42863 0.23036 0.12343
 C721 C 0.58185 0.27261 0.90282
 N722 N 0.60378 0.26018 0.91693
 N723 N 0.61859 0.27480 0.93589
 C724 C 0.61182 0.30227 0.94163
 N725 N 0.58986 0.31467 0.92756
 N726 N 0.57522 0.30014 0.90842
 C727 C 0.56509 0.25635 0.88238
 N728 N 0.54692 0.26980 0.86459
 N729 N 0.53109 0.25498 0.84660
 C730 C 0.53237 0.22616 0.84616
 N731 N 0.55107 0.21276 0.86349
 N732 N 0.56710 0.22758 0.88131
 C733 C 0.42142 0.72621 0.90712
 N734 N 0.39252 0.72880 0.90844
 N735 N 0.37754 0.71393 0.92708
 C736 C 0.39088 0.69558 0.94474
 N737 N 0.41975 0.69278 0.94324
 N738 N 0.43477 0.70797 0.92488
 C739 C 0.43800 0.74295 0.88695
 N740 N 0.46599 0.74869 0.89174
 N741 N 0.48106 0.76387 0.87344
 C742 C 0.46904 0.77338 0.84930
 N743 N 0.44086 0.76785 0.84480
 N744 N 0.42562 0.75303 0.86328
 C745 C 0.72529 0.90117 0.41959
 N746 N 0.73725 0.91260 0.39627
 N747 N 0.72309 0.93189 0.38121
 C748 C 0.69651 0.94052 0.38898
 N749 N 0.68456 0.92906 0.41227
 N750 N 0.69867 0.90971 0.42727
 C751 C 0.74104 0.88033 0.43657
 N752 N 0.72834 0.86767 0.45883
 N753 N 0.74275 0.84916 0.47457
 C754 C 0.77048 0.84284 0.46893
 N755 N 0.78302 0.85523 0.44636
 N756 N 0.76862 0.87366 0.43053
 C757 C 0.27305 0.90237 0.58089
 N758 N 0.30113 0.90726 0.57549
 N759 N 0.31576 0.92614 0.59051
 C760 C 0.30291 0.94064 0.61163
 N761 N 0.27490 0.93559 0.61719
 N762 N 0.26020 0.91688 0.60201
 C763 C 0.25668 0.88232 0.56368
 N764 N 0.22767 0.88212 0.56467
 N765 N 0.21276 0.86458 0.54840
 C766 C 0.22631 0.84667 0.53045
 N767 N 0.25534 0.84625 0.53012
 N768 N 0.27026 0.86398 0.54620
 C769 C 0.27483 0.10060 0.41913
 N770 N 0.30274 0.09494 0.42471
 N771 N 0.31700 0.07559 0.40984
 C772 C 0.30393 0.06137 0.38871
 N773 N 0.27608 0.06720 0.38297
 N774 N 0.26175 0.08637 0.39800
 C775 C 0.25885 0.12115 0.43621
 N776 N 0.22985 0.12212 0.43512
 N777 N 0.21528 0.14001 0.45139
 C778 C 0.22915 0.15751 0.46942
 N779 N 0.25818 0.15718 0.46984
 N780 N 0.27277 0.13911 0.45376
 C781 C 0.72647 0.09662 0.58084
 N782 N 0.69849 0.09155 0.57512
 N783 N 0.68387 0.07238 0.58981
 C784 C 0.69664 0.05777 0.61090
 N785 N 0.72455 0.06300 0.61676
 N786 N 0.73924 0.08197 0.60191
 C787 C 0.74283 0.11701 0.56404
 N788 N 0.77184 0.11726 0.56511
 N789 N 0.78676 0.13506 0.54911
 C790 C 0.77322 0.15320 0.53139
 N791 N 0.74418 0.15360 0.53102
 N792 N 0.72925 0.13561 0.54682
 C793 C 0.90579 0.57814 0.27188
 N794 N 0.92403 0.56502 0.28984
 N795 N 0.94221 0.58014 0.30528
 C796 C 0.94307 0.60890 0.30305
 N797 N 0.92494 0.62202 0.28497
 N798 N 0.90647 0.60693 0.26982
 C799 C 0.88574 0.56142 0.25495
 N800 N 0.86147 0.57338 0.24472
 N801 N 0.84306 0.55797 0.22982
 C802 C 0.84821 0.53003 0.22436
 N803 N 0.87295 0.51843 0.23405
 N804 N 0.89118 0.53367 0.24929
 C805 C 0.90004 0.41666 0.72528
 N806 N 0.91556 0.39553 0.73735
 N807 N 0.93464 0.38084 0.72247
 C808 C 0.93906 0.38694 0.69506
 N809 N 0.92350 0.40803 0.68298
 N810 N 0.90424 0.42254 0.69779
 C811 C 0.87996 0.43366 0.74196
 N812 N 0.86055 0.45093 0.72934
 N813 N 0.84306 0.46714 0.74456
 C814 C 0.84482 0.46717 0.77290
 N815 N 0.86375 0.44939 0.78551
 N816 N 0.88105 0.43298 0.77032
 C817 C 0.10003 0.58319 0.72609
 N818 N 0.09312 0.57474 0.69979
 N819 N 0.07381 0.58911 0.68488
 C820 C 0.06081 0.61251 0.69568
 N821 N 0.06792 0.62111 0.72187
 N822 N 0.08710 0.60666 0.73683
 C823 C 0.12003 0.56649 0.74321
 N824 N 0.12289 0.57207 0.77091
 N825 N 0.13969 0.55596 0.78690
 C826 C 0.15421 0.53360 0.77583
 N827 N 0.15205 0.52854 0.74793
 N828 N 0.13508 0.54456 0.73195
 C829 C 0.09406 0.42141 0.27381
 N830 N 0.07593 0.43465 0.29181
 N831 N 0.05766 0.41966 0.30727
 C832 C 0.05662 0.39091 0.30502
 N833 N 0.07467 0.37768 0.28693
 N834 N 0.09323 0.39264 0.27177
 C835 C 0.11404 0.43798 0.25667
 N836 N 0.13821 0.42589 0.24636
 N837 N 0.15651 0.44113 0.23115
 C838 C 0.15130 0.46901 0.22545
 N839 N 0.12664 0.48071 0.23521
 N840 N 0.10854 0.46565 0.25076
   
