data_POSCAR
  _audit_creation_date              2014-09-24
  _audit_creation_method            'ToBaCCo'
  _symmetry_space_group_name_H-M    'P1'
  _symmetry_Int_Tables_number       1
  _symmetry_cell_setting            triclinic
  loop_
  _symmetry_equiv_pos_as_xyz
 x,y,z
_cell_length_a 23.2688
_cell_length_b 23.2693
_cell_length_c 43.5942
_cell_angle_alpha 90.000100
_cell_angle_beta 89.999900
_cell_angle_gamma 120.004300
loop_
  _atom_site_label
  _atom_site_type_symbol
  _atom_site_fract_x
  _atom_site_fract_y
  _atom_site_fract_z
Zn1 Zn 0.95621 0.04206 1.01370
 Zn2 Zn 1.08582 0.04368 1.01371
 Zn3 Zn 0.95781 -0.08594 1.01371
 Zn4 Zn 0.99995 -0.00007 0.95790
 O5 O 0.99995 -0.00007 0.99980
 O6 O 1.00773 0.11291 1.03702
 O7 O 1.10515 -0.00784 1.03702
 O8 O 0.88696 -0.10527 1.03702
 O9 O 1.10361 0.11410 1.03702
 O10 O 0.88578 -0.01058 1.03701
 O11 O 1.01045 -0.10372 1.03702
 O12 O 0.95985 -0.08180 0.94198
 O13 O 1.14585 0.07425 0.98327
 O14 O 0.92837 -0.14596 0.98327
 O15 O 1.08169 0.04157 0.94198
 O16 O 0.95832 0.04003 0.94198
 O17 O 0.92564 0.07151 0.98326
 C18 C 1.06777 0.13817 1.04531
 C19 C 1.07036 -0.06789 1.04531
 C20 C 0.86170 -0.07049 1.04531
 C21 C 0.93196 -0.13865 0.95439
 C22 C 1.13854 0.07053 0.95439
 C23 C 0.92937 0.06792 0.95438
 Zn24 Zn 0.04210 0.95622 0.51371
 Zn25 Zn -0.08593 0.95777 0.51371
 Zn26 Zn 0.04367 1.08581 0.51371
 Zn27 Zn -0.00005 0.99994 0.45790
 O28 O -0.00005 0.99993 0.49980
 O29 O -0.01052 0.88578 0.53702
 O30 O -0.10374 1.01039 0.53702
 O31 O 0.11410 1.10362 0.53702
 O32 O -0.10524 0.88693 0.53702
 O33 O 0.11295 1.00776 0.53702
 O34 O -0.00787 1.10511 0.53702
 O35 O 0.04156 1.08167 0.44198
 O36 O -0.14595 0.92831 0.48327
 O37 O 0.07423 1.14583 0.48327
 O38 O -0.08179 0.95981 0.44198
 O39 O 0.04007 0.95833 0.44198
 O40 O 0.07157 0.92567 0.48327
 C41 C -0.07044 0.86169 0.54531
 C42 C -0.06791 1.07030 0.54531
 C43 C 0.13819 1.06780 0.54531
 C44 C 0.07050 1.13851 0.45439
 C45 C -0.13863 0.93190 0.45438
 C46 C 0.06798 0.92939 0.45439
 O47 O 0.23322 0.55140 0.27567
 O48 O 0.23593 0.66353 0.28505
 C49 C 0.26718 0.72516 0.29055
 O50 O 0.31809 0.76663 0.27567
 O51 O 0.42751 0.76394 0.28506
 C52 C 0.45790 0.73270 0.29055
 O53 O 0.44846 0.68178 0.27567
 O54 O 0.33633 0.57236 0.28506
 C55 C 0.27470 0.54197 0.29055
 O56 O 0.23593 0.57223 0.21468
 O57 O 0.23315 0.68166 0.22407
 C58 C 0.27456 0.73269 0.20922
 O59 O 0.33621 0.76393 0.21468
 O60 O 0.44844 0.76672 0.22407
 C61 C 0.45805 0.72532 0.20922
 O62 O 0.42763 0.66366 0.21468
 O63 O 0.31819 0.55144 0.22407
 C64 C 0.26717 0.54181 0.20922
 Cr65 Cr 0.23829 0.61908 0.24986
 Cr66 Cr 0.38070 0.76157 0.24986
 Cr67 Cr 0.38078 0.61917 0.24986
 O68 O 0.33326 0.66661 0.24986
 O69 O 0.76399 0.42750 0.78506
 O70 O 0.76665 0.31806 0.77567
 C71 C 0.72516 0.26715 0.79055
 O72 O 0.66353 0.23592 0.78506
 O73 O 0.55142 0.23325 0.77568
 C74 C 0.54200 0.27473 0.79056
 O75 O 0.57241 0.33637 0.78506
 O76 O 0.68185 0.44848 0.77568
 C77 C 0.73276 0.45790 0.79055
 O78 O 0.76677 0.44842 0.72407
 O79 O 0.76395 0.33618 0.71468
 C80 C 0.73269 0.27452 0.70922
 O81 O 0.68165 0.23313 0.72407
 O82 O 0.57224 0.23595 0.71468
 C83 C 0.54184 0.26720 0.70923
 O84 O 0.55148 0.31823 0.72407
 O85 O 0.66372 0.42765 0.71468
 C86 C 0.72538 0.45805 0.70923
 Cr87 Cr 0.76160 0.38068 0.74986
 Cr88 Cr 0.61908 0.23830 0.74987
 Cr89 Cr 0.61923 0.38081 0.74987
 O90 O 0.66664 0.33326 0.74986
 C91 C 0.23626 0.38379 0.11994
 C92 C 0.19855 0.30908 0.12832
 C93 C 0.14607 0.29742 0.10397
 C94 C 0.18333 0.37128 0.09522
 C95 C 0.19454 0.39564 0.14372
 C96 C 0.14205 0.38404 0.11938
 C97 C 0.15727 0.32175 0.15241
 C98 C 0.10440 0.30932 0.12776
 C99 C 0.11862 0.24171 0.08238
 C100 C 0.09562 0.19492 0.06517
 C101 C 0.22106 0.44922 0.16642
 C102 C 0.24238 0.49214 0.18567
 H103 H 0.29078 0.41503 0.11698
 H104 H 0.22149 0.27766 0.13177
 H105 H 0.19373 0.39101 0.07144
 H106 H 0.11914 0.41548 0.11596
 H107 H 0.14683 0.30194 0.17617
 H108 H 0.04988 0.27809 0.13075
 C109 C 0.60210 0.82834 0.11249
 C110 C 0.67252 0.88773 0.11868
 C111 C 0.70244 0.84857 0.10397
 C112 C 0.63293 0.78962 0.09741
 C113 C 0.60423 0.79885 0.14371
 C114 C 0.63415 0.75969 0.12901
 C115 C 0.67377 0.85780 0.15023
 C116 C 0.70447 0.81907 0.13520
 C117 C 0.75816 0.87684 0.08238
 C118 C 0.80496 0.90062 0.06517
 C119 C 0.55065 0.77180 0.16642
 C120 C 0.50773 0.75021 0.18567
 H121 H 0.55938 0.83184 0.10341
 H122 H 0.68891 0.94069 0.11420
 H123 H 0.61678 0.76190 0.07543
 H124 H 0.61776 0.70674 0.13350
 H125 H 0.69001 0.88556 0.17219
 H126 H 0.74716 0.81555 0.14432
 C127 C 0.16250 0.84067 0.15241
 C128 C 0.20326 0.89512 0.12843
 C129 C 0.15129 0.85380 0.10397
 C130 C 0.11014 0.79974 0.12765
 C131 C 0.20102 0.80532 0.14372
 C132 C 0.14905 0.76395 0.11927
 C133 C 0.24223 0.85939 0.12005
 C134 C 0.18980 0.81847 0.09522
 C135 C 0.12303 0.88126 0.08239
 C136 C 0.09924 0.90426 0.06517
 C137 C 0.22808 0.77880 0.16642
 C138 C 0.24967 0.75747 0.18567
 H139 H 0.15156 0.84952 0.17617
 H140 H 0.22525 0.94935 0.13197
 H141 H 0.05552 0.77550 0.13055
 H142 H 0.12708 0.70972 0.11576
 H143 H 0.29685 0.88361 0.11718
 H144 H 0.20070 0.80967 0.07145
 C145 C 0.80690 0.59614 0.60927
 C146 C 0.77818 0.64219 0.60224
 C147 C 0.84865 0.70244 0.60397
 C148 C 0.87782 0.65731 0.61063
 C149 C 0.79893 0.60423 0.64372
 C150 C 0.86938 0.66451 0.64542
 C151 C 0.76978 0.64938 0.63705
 C152 C 0.84064 0.71041 0.63843
 C153 C 0.87691 0.75815 0.58238
 C154 C 0.90069 0.80495 0.56517
 C155 C 0.77187 0.55065 0.66643
 C156 C 0.75028 0.50773 0.68567
 H157 H 0.79270 0.54852 0.59754
 H158 H 0.74100 0.63365 0.58423
 H159 H 0.92256 0.66119 0.59953
 H160 H 0.90661 0.67312 0.66342
 H161 H 0.72506 0.64552 0.64815
 H162 H 0.85481 0.75799 0.65020
 C163 C 0.38434 0.23618 0.61966
 C164 C 0.37130 0.18257 0.59522
 C165 C 0.29744 0.14613 0.60398
 C166 C 0.30963 0.19928 0.62805
 C167 C 0.39565 0.19460 0.64372
 C168 C 0.32176 0.15814 0.65242
 C169 C 0.38352 0.14144 0.61967
 C170 C 0.30880 0.10459 0.62805
 C171 C 0.24172 0.11868 0.58239
 C172 C 0.19493 0.09567 0.56518
 C173 C 0.44924 0.22111 0.66643
 C174 C 0.49216 0.24243 0.68568
 H175 H 0.41602 0.29059 0.61647
 H176 H 0.39102 0.19230 0.57145
 H177 H 0.27864 0.22277 0.63126
 H178 H 0.30195 0.14836 0.67618
 H179 H 0.41452 0.11797 0.61647
 H180 H 0.27714 0.05019 0.63127
 C181 C 0.81651 0.21950 0.60955
 C182 C 0.88575 0.22536 0.61174
 C183 C 0.85376 0.15122 0.60397
 C184 C 0.78496 0.14487 0.60142
 C185 C 0.80529 0.20095 0.64372
 C186 C 0.77332 0.12682 0.63594
 C187 C 0.87407 0.20725 0.64624
 C188 C 0.84250 0.13275 0.63815
 C189 C 0.88121 0.12296 0.58238
 C190 C 0.90422 0.09918 0.56517
 C191 C 0.77877 0.22802 0.66643
 C192 C 0.75746 0.24962 0.68567
 H193 H 0.80551 0.25549 0.59806
 H194 H 0.93229 0.26557 0.60154
 H195 H 0.74863 0.11890 0.58273
 H196 H 0.72680 0.08659 0.64614
 H197 H 0.91044 0.23320 0.66492
 H198 H 0.85347 0.09678 0.64968
 C199 C 0.32275 0.16585 0.84792
 C200 C 0.30969 0.11126 0.87171
 C201 C 0.29886 0.15202 0.89640
 C202 C 0.31115 0.20622 0.87291
 C203 C 0.39671 0.20159 0.85647
 C204 C 0.38593 0.24242 0.88114
 C205 C 0.38447 0.14739 0.87995
 C206 C 0.37278 0.18774 0.90501
 C207 C 0.24311 0.12372 0.91796
 C208 C 0.19600 0.09978 0.93499
 C209 C 0.44998 0.22852 0.83361
 C210 C 0.49262 0.24998 0.81424
 H211 H 0.30273 0.15713 0.82421
 H212 H 0.27775 0.05703 0.86806
 H213 H 0.28040 0.23012 0.87025
 H214 H 0.41790 0.29666 0.88476
 H215 H 0.41523 0.12350 0.88258
 H216 H 0.39269 0.19641 0.92874
 C217 C 0.80394 0.66828 0.85238
 C218 C 0.78032 0.66284 0.88601
 C219 C 0.85315 0.70103 0.89640
 C220 C 0.87712 0.70724 0.86308
 C221 C 0.80491 0.60319 0.85646
 C222 C 0.87774 0.64139 0.86685
 C223 C 0.78086 0.59685 0.88977
 C224 C 0.85418 0.63598 0.90053
 C225 C 0.88060 0.75678 0.91796
 C226 C 0.90375 0.80389 0.93498
 C227 C 0.77856 0.54992 0.83361
 C228 C 0.75739 0.50728 0.81423
 H229 H 0.78301 0.68101 0.83234
 H230 H 0.74057 0.67227 0.89414
 H231 H 0.91699 0.75322 0.85233
 H232 H 0.91750 0.63199 0.85872
 H233 H 0.74096 0.55083 0.90048
 H234 H 0.87514 0.62334 0.92058
 C235 C 0.75995 0.15134 0.88397
 C236 C 0.78704 0.10431 0.87614
 C237 C 0.84788 0.14673 0.89639
 C238 C 0.82127 0.19336 0.90460
 C239 C 0.79830 0.19500 0.85646
 C240 C 0.85915 0.23745 0.87670
 C241 C 0.82494 0.14837 0.84831
 C242 C 0.88615 0.19039 0.86886
 C243 C 0.87617 0.11928 0.91795
 C244 C 0.90012 0.09613 0.93498
 C245 C 0.77138 0.22135 0.83361
 C246 C 0.74991 0.24252 0.81423
 H247 H 0.70774 0.13560 0.88992
 H248 H 0.75768 0.04926 0.87614
 H249 H 0.82010 0.21154 0.92801
 H250 H 0.88850 0.29250 0.87668
 H251 H 0.82617 0.13014 0.82492
 H252 H 0.93836 0.20617 0.86288
 C253 C 0.67715 0.84321 0.34792
 C254 C 0.68865 0.89503 0.37297
 C255 C 0.70105 0.85307 0.39639
 C256 C 0.69032 0.80164 0.37164
 C257 C 0.60320 0.80482 0.35646
 C258 C 0.61555 0.76281 0.37987
 C259 C 0.61386 0.85625 0.38121
 C260 C 0.62713 0.81469 0.40500
 C261 C 0.75680 0.88052 0.41796
 C262 C 0.80390 0.90368 0.43498
 C263 C 0.54992 0.77848 0.33361
 C264 C 0.50728 0.75731 0.31423
 H265 H 0.69717 0.85467 0.32420
 H266 H 0.71930 0.94969 0.37037
 H267 H 0.72235 0.77947 0.36793
 H268 H 0.58488 0.70814 0.38245
 H269 H 0.58180 0.87840 0.38488
 H270 H 0.60722 0.80329 0.42873
 C271 C 0.16461 0.32271 0.34791
 C272 C 0.20520 0.31033 0.37249
 C273 C 0.15196 0.29883 0.39639
 C274 C 0.11099 0.31044 0.37211
 C275 C 0.20153 0.39667 0.35646
 C276 C 0.14829 0.38522 0.38036
 C277 C 0.24258 0.38512 0.38073
 C278 C 0.18887 0.37276 0.40502
 C279 C 0.12367 0.24308 0.41796
 C280 C 0.09973 0.19598 0.43498
 C281 C 0.22846 0.44995 0.33361
 C282 C 0.24993 0.49259 0.31423
 H283 H 0.15491 0.30268 0.32418
 H284 H 0.22830 0.27894 0.36949
 H285 H 0.05657 0.27914 0.36880
 H286 H 0.12521 0.41663 0.38333
 H287 H 0.29700 0.41645 0.38402
 H288 H 0.19851 0.39268 0.42875
 C289 C 0.21562 0.81145 0.39037
 C290 C 0.22052 0.88021 0.38771
 C291 C 0.14682 0.84792 0.39640
 C292 C 0.14143 0.77961 0.39943
 C293 C 0.19506 0.79833 0.35646
 C294 C 0.12136 0.76607 0.36515
 C295 C 0.20039 0.86662 0.35348
 C296 C 0.12635 0.83476 0.36248
 C297 C 0.11937 0.87622 0.41796
 C298 C 0.09621 0.90016 0.43498
 C299 C 0.22140 0.77140 0.33361
 C300 C 0.24256 0.74992 0.31423
 H301 H 0.25265 0.80154 0.40156
 H302 H 0.26099 0.92745 0.39723
 H303 H 0.11688 0.74417 0.41857
 H304 H 0.08088 0.71883 0.35563
 H305 H 0.22491 0.90211 0.33434
 H306 H 0.08935 0.84464 0.35124
   
