data_POSCAR
  _audit_creation_date              2014-09-24
  _audit_creation_method            'ToBaCCo'
  _symmetry_space_group_name_H-M    'P1'
  _symmetry_Int_Tables_number       1
  _symmetry_cell_setting            triclinic
  loop_
  _symmetry_equiv_pos_as_xyz
 x,y,z
_cell_length_a 31.2126
_cell_length_b 30.7501
_cell_length_c 30.8986
_cell_angle_alpha 77.015300
_cell_angle_beta 95.903300
_cell_angle_gamma 101.883900
loop_
  _atom_site_label
  _atom_site_type_symbol
  _atom_site_fract_x
  _atom_site_fract_y
  _atom_site_fract_z
C1 C 0.55494 0.60969 -0.03264
 C2 C 0.56561 0.56210 -0.02421
 C3 C 0.52545 0.52547 -0.01766
 C4 C 0.48289 0.53454 -0.02271
 C5 C 0.47672 0.57979 -0.03109
 C6 C 0.51173 0.61721 -0.03487
 C7 C 0.44476 0.49570 -0.01904
 C8 C 0.40535 0.49797 -0.00202
 C9 C 0.36977 0.46137 0.00117
 C10 C 0.37495 0.42057 -0.00912
 C11 C 0.41421 0.41709 -0.02503
 C12 C 0.44798 0.45546 -0.03206
 H13 H 0.58271 0.63727 -0.03565
 H14 H 0.53067 0.49077 -0.00925
 H15 H 0.44357 0.58627 -0.03523
 H16 H 0.40190 0.52830 0.00848
 H17 H 0.34890 0.39099 -0.00388
 H18 H 0.47676 0.45412 -0.04802
 C19 C -0.01287 0.57225 0.40368
 C20 C -0.00782 0.57869 0.44766
 C21 C -0.00787 0.54037 0.48267
 C22 C -0.01587 0.49608 0.47440
 C23 C -0.02202 0.49079 0.42987
 C24 C -0.01870 0.52861 0.39410
 C25 C -0.01710 0.45566 0.51234
 C26 C -0.00470 0.41564 0.50712
 C27 C -0.00584 0.37768 0.54239
 C28 C -0.01854 0.38022 0.58399
 C29 C -0.02951 0.42012 0.59059
 C30 C -0.03017 0.45701 0.55434
 H31 H -0.01342 0.60180 0.37715
 H32 H -0.00113 0.54450 0.51652
 H33 H -0.02900 0.45705 0.42274
 H34 H 0.00658 0.41384 0.47572
 H35 H -0.02033 0.35120 0.61149
 H36 H -0.04191 0.48634 0.55873
 C37 C 0.61305 0.00491 0.59135
 C38 C 0.57314 0.01806 0.59449
 C39 C 0.53908 0.01115 0.56224
 C40 C 0.54349 -0.00971 0.52737
 C41 C 0.58382 -0.02274 0.52471
 C42 C 0.61918 -0.01527 0.55620
 C43 C 0.50618 -0.01673 0.49351
 C44 C 0.51464 -0.01357 0.44915
 C45 C 0.47905 -0.01891 0.41353
 C46 C 0.43362 -0.02587 0.42974
 C47 C 0.42666 -0.02725 0.47412
 C48 C 0.46243 -0.02462 0.50539
 H49 H 0.63878 0.01040 0.61651
 H50 H 0.50905 0.02280 0.56431
 H51 H 0.58763 -0.03945 0.49838
 H52 H 0.54809 -0.00633 0.43932
 H53 H 0.40599 -0.03023 0.40594
 H54 H 0.45576 -0.02806 0.53982
 O55 O 0.51743 0.04464 -0.08110
 O56 O 0.47423 0.01058 0.03046
 O57 O 0.49138 0.08678 -0.02767
 O58 O 0.49940 -0.03176 -0.02421
 O59 O 0.56692 -0.01913 0.00589
 O60 O 0.55896 0.09933 0.00229
 O61 O 0.54188 0.02338 0.06012
 O62 O 0.58503 0.05706 -0.05115
 Cu63 Cu 0.48874 0.02625 -0.02856
 Cu64 Cu 0.56995 0.04136 0.00744
 C65 C 0.55855 0.05641 -0.08509
 C66 C 0.50083 0.01153 0.06433
 C67 C 0.52385 0.11326 -0.01343
 C68 C 0.53479 -0.04543 -0.00903
 O69 O -0.06615 0.56199 0.96784
 O70 O 0.03670 0.51872 0.98743
 O71 O -0.01461 0.54117 0.91753
 O72 O -0.01572 0.53773 1.03738
 O73 O -0.05275 0.46719 1.04759
 O74 O -0.05159 0.47062 0.92742
 O75 O -0.00017 0.44811 0.99735
 O76 O -0.10340 0.49152 0.97785
 Cu77 Cu -0.01121 0.54696 0.97642
 Cu78 Cu -0.05581 0.46228 0.98843
 C79 C -0.10232 0.53410 0.97001
 C80 C 0.03591 0.47623 0.99588
 C81 C -0.03269 0.50644 0.90206
 C82 C -0.03441 0.50192 1.06293
 O83 O 0.01484 -0.08809 0.52581
 O84 O 0.03091 0.03171 0.53597
 O85 O 0.08161 -0.02115 0.52082
 O86 O -0.03604 -0.03502 0.53914
 O87 O -0.02148 -0.05554 0.61148
 O88 O 0.09588 -0.04217 0.59314
 O89 O 0.04587 0.01080 0.60820
 O90 O 0.02888 -0.10853 0.59826
 Cu91 Cu 0.02147 -0.02600 0.52316
 Cu92 Cu 0.03874 -0.05081 0.60997
 C93 C 0.01937 -0.11865 0.56039
 C94 C 0.04074 0.04149 0.57406
 C95 C 0.10867 -0.02992 0.55377
 C96 C -0.04872 -0.04746 0.57858
 C97 C -0.38733 0.54914 0.97794
 C98 C -0.34888 0.58051 0.96866
 C99 C -0.30678 0.56569 0.96887
 C100 C -0.26996 0.59786 0.95325
 C101 C -0.22987 0.58466 0.95239
 C102 C -0.22579 0.53888 0.96772
 C103 C -0.26279 0.50673 0.98303
 C104 C -0.30285 0.51989 0.98370
 C105 C -0.18399 0.52304 0.96849
 C106 C -0.14316 0.55186 0.96421
 H107 H -0.34978 0.61647 0.95911
 H108 H -0.27231 0.63327 0.94127
 H109 H -0.20265 0.61048 0.93920
 H110 H -0.26064 0.47125 0.99488
 H111 H -0.33062 0.49413 0.99596
 H112 H -0.18518 0.48668 0.97529
 H113 H -0.40991 0.55878 0.97630
 H114 H -0.14026 0.58825 0.95901
 C115 C 0.32756 0.46705 1.01480
 C116 C 0.28733 0.44362 1.00034
 C117 C 0.24426 0.45400 1.00592
 C118 C 0.20629 0.42325 0.99678
 C119 C 0.16479 0.43332 0.99744
 C120 C 0.16043 0.47458 1.00739
 C121 C 0.19835 0.50503 1.01722
 C122 C 0.23986 0.49499 1.01651
 C123 C 0.11754 0.48863 1.00473
 C124 C 0.07719 0.45914 1.00348
 H125 H 0.28702 0.41774 0.98162
 H126 H 0.20875 0.39169 0.98801
 H127 H 0.13660 0.40936 0.98853
 H128 H 0.19589 0.53726 1.02451
 H129 H 0.26806 0.52030 1.02264
 H130 H 0.11782 0.52426 1.00316
 H131 H 0.32849 0.49317 1.03332
 H132 H 0.07536 0.42293 1.00803
 C133 C -0.00344 -0.37662 0.45440
 C134 C -0.00009 -0.36423 0.49578
 C135 C 0.00177 -0.31688 0.50034
 C136 C 0.02141 -0.30358 0.53942
 C137 C 0.02347 -0.25939 0.54523
 C138 C 0.00518 -0.22763 0.51220
 C139 C -0.01462 -0.24100 0.47320
 C140 C -0.01666 -0.28519 0.46739
 C141 C 0.00725 -0.18019 0.51658
 C142 C 0.01443 -0.16644 0.55723
 H143 H 0.00252 -0.38898 0.52633
 H144 H 0.03577 -0.32732 0.56535
 H145 H 0.04014 -0.25027 0.57526
 H146 H -0.02900 -0.21727 0.44728
 H147 H -0.03343 -0.29446 0.43743
 H148 H 0.00224 -0.15518 0.48658
 H149 H -0.00293 -0.34962 0.42504
 H150 H 0.01715 -0.19107 0.58795
 C151 C 0.00466 0.33544 0.53403
 C152 C 0.01848 0.30158 0.56770
 C153 C 0.02436 0.25689 0.56094
 C154 C 0.02590 0.22157 0.59844
 C155 C 0.02975 0.17832 0.59405
 C156 C 0.03278 0.16944 0.55183
 C157 C 0.03187 0.20491 0.51433
 C158 C 0.02794 0.24824 0.51873
 C159 C 0.03460 0.12341 0.54541
 C160 C 0.04526 0.08850 0.57975
 H161 H 0.02372 0.30705 0.60137
 H162 H 0.02311 0.22716 0.63135
 H163 H 0.02906 0.15191 0.62381
 H164 H 0.03411 0.19906 0.48141
 H165 H 0.02798 0.27456 0.48895
 H166 H 0.02654 0.11657 0.51233
 H167 H 0.00074 0.33117 0.49999
 H168 H 0.05567 0.09489 0.61256
 C169 C 0.56438 0.03639 -0.36756
 C170 C 0.59680 0.05509 -0.33877
 C171 C 0.58621 0.06415 -0.29649
 C172 C 0.61640 0.05889 -0.25974
 C173 C 0.60542 0.06170 -0.21788
 C174 C 0.56409 0.07059 -0.21223
 C175 C 0.53488 0.07829 -0.24956
 C176 C 0.54585 0.07540 -0.29136
 C177 C 0.54873 0.06817 -0.16787
 C178 C 0.57622 0.06815 -0.12933
 H179 H 0.63105 0.05912 -0.34474
 H180 H 0.64778 0.05040 -0.26297
 H181 H 0.62871 0.05480 -0.19003
 H182 H 0.50300 0.08554 -0.24620
 H183 H 0.52241 0.08137 -0.31933
 H184 H 0.51373 0.06430 -0.16516
 H185 H 0.53029 0.03276 -0.36097
 H186 H 0.61146 0.07521 -0.13104
 C187 C 0.49134 -0.01628 0.36135
 C188 C 0.46026 -0.01933 0.32614
 C189 C 0.47321 -0.01552 0.28056
 C190 C 0.44110 -0.01473 0.24529
 C191 C 0.45267 -0.00967 0.20164
 C192 C 0.49679 -0.00561 0.19253
 C193 C 0.52874 -0.00697 0.22800
 C194 C 0.51719 -0.01191 0.27151
 C195 C 0.51149 0.00200 0.14689
 C196 C 0.48357 -0.00052 0.10885
 H197 H 0.42581 -0.02350 0.33179
 H198 H 0.40701 -0.01734 0.25142
 H199 H 0.42697 -0.00810 0.17545
 H200 H 0.56296 -0.00382 0.22200
 H201 H 0.54285 -0.01254 0.29791
 H202 H 0.54654 0.01070 0.14299
 H203 H 0.48271 -0.01798 0.38688
 H204 H 0.44848 -0.01056 0.11105
 C205 C 0.50199 -0.33898 -0.03933
 C206 C 0.53308 -0.29831 -0.04569
 C207 C 0.52466 -0.25339 -0.04238
 C208 C 0.56103 -0.21821 -0.04047
 C209 C 0.55575 -0.17560 -0.03576
 C210 C 0.51376 -0.16705 -0.03272
 C211 C 0.47717 -0.20165 -0.03596
 C212 C 0.48244 -0.24450 -0.04055
 C213 C 0.50718 -0.12208 -0.02788
 C214 C 0.53968 -0.09184 -0.00941
 H215 H 0.56637 -0.29860 -0.05185
 H216 H 0.59391 -0.22374 -0.04233
 H217 H 0.58468 -0.14936 -0.03523
 H218 H 0.44440 -0.19561 -0.03452
 H219 H 0.45330 -0.27000 -0.04288
 H220 H 0.47556 -0.11273 -0.03870
 H221 H 0.46828 -0.33711 -0.03626
 H222 H 0.57034 -0.10183 0.00440
 C223 C 0.41902 0.37281 -0.03347
 C224 C 0.45982 0.36025 -0.03202
 C225 C 0.46572 0.31427 -0.03449
 C226 C 0.50685 0.30241 -0.02115
 C227 C 0.51387 0.25904 -0.02122
 C228 C 0.47964 0.22627 -0.03464
 C229 C 0.43887 0.23861 -0.04932
 C230 C 0.43191 0.28211 -0.04942
 C231 C 0.48476 0.17919 -0.03394
 C232 C 0.52125 0.16068 -0.01465
 H233 H 0.48910 0.38392 -0.02486
 H234 H 0.53368 0.32671 -0.01009
 H235 H 0.54621 0.25187 -0.01076
 H236 H 0.41210 0.21434 -0.06050
 H237 H 0.40011 0.29012 -0.06141
 H238 H 0.45777 0.15752 -0.04829
 H239 H 0.38935 0.34802 -0.03622
 H240 H 0.54872 0.18064 0.00063
 C241 C -0.34057 -0.02733 0.55076
 C242 C -0.30409 -0.02538 0.58150
 C243 C -0.26010 -0.03249 0.57351
 C244 C -0.22966 -0.03892 0.61003
 C245 C -0.18673 -0.04231 0.60428
 C246 C -0.17299 -0.03947 0.56157
 C247 C -0.20353 -0.03338 0.52500
 C248 C -0.24658 -0.02988 0.53077
 C249 C -0.12691 -0.04014 0.55351
 C250 C -0.09521 -0.05199 0.58715
 H251 H -0.30722 -0.01931 0.61396
 H252 H -0.23890 -0.04050 0.64328
 H253 H -0.16446 -0.04584 0.63345
 H254 H -0.19384 -0.03055 0.49166
 H255 H -0.26848 -0.02375 0.50154
 H256 H -0.11731 -0.03006 0.51943
 H257 H -0.33788 -0.03921 0.52091
 H258 H -0.10390 -0.06409 0.62130
 C259 C 0.38188 -0.03137 0.48900
 C260 C 0.34821 -0.01476 0.46065
 C261 C 0.30360 -0.01555 0.47417
 C262 C 0.28769 -0.04005 0.51544
 C263 C 0.24510 -0.03988 0.52601
 C264 C 0.21744 -0.01533 0.49555
 C265 C 0.23322 0.00859 0.45430
 C266 C 0.27572 0.00860 0.44382
 C267 C 0.17150 -0.01550 0.50440
 C268 C 0.15532 -0.02699 0.54682
 H269 H 0.35542 0.00205 0.42677
 H270 H 0.30741 -0.06010 0.53946
 H271 H 0.23377 -0.06000 0.55758
 H272 H 0.21256 0.02743 0.43000
 H273 H 0.28681 0.02754 0.41166
 H274 H 0.14951 -0.00546 0.47609
 H275 H 0.37685 -0.04424 0.52400
 H276 H 0.17700 -0.03475 0.57595
 C277 C -0.02145 0.52141 1.35018
 C278 C -0.01105 0.55604 1.31251
 C279 C -0.01248 0.54856 1.26655
 C280 C -0.03779 0.50993 1.25296
 C281 C -0.03896 0.50547 1.20864
 C282 C -0.01486 0.53962 1.17703
 C283 C 0.01017 0.57807 1.19084
 C284 C 0.01127 0.58253 1.23489
 C285 C -0.01537 0.53773 1.12934
 C286 C -0.03509 0.50039 1.11090
 H287 H 0.00218 0.59033 1.31644
 H288 H -0.05755 0.48360 1.27603
 H289 H -0.05937 0.47564 1.19948
 H290 H 0.02892 0.60504 1.16734
 H291 H 0.03082 0.61281 1.24427
 H292 H 0.00121 0.56774 1.10736
 H293 H -0.02937 0.48669 1.34568
 H294 H -0.05120 0.46926 1.13147
 C295 C -0.04031 0.42202 0.63573
 C296 C -0.03260 0.46247 0.65129
 C297 C -0.03785 0.46444 0.69800
 C298 C -0.01468 0.50210 0.71450
 C299 C -0.01764 0.50495 0.75861
 C300 C -0.04452 0.47027 0.78726
 C301 C -0.06826 0.43293 0.77046
 C302 C -0.06517 0.43004 0.72634
 C303 C -0.04782 0.47085 0.83484
 C304 C -0.03096 0.50833 0.85417
 H305 H -0.01819 0.49373 0.62953
 H306 H 0.00654 0.52914 0.69338
 H307 H 0.00190 0.53403 0.76990
 H308 H -0.08935 0.40578 0.79159
 H309 H -0.08453 0.40105 0.71463
 H310 H -0.06439 0.44004 0.85577
 H311 H -0.04995 0.39005 0.65873
 H312 H -0.01555 0.54019 0.83424
   
