data_POSCAR
  _audit_creation_date              2014-09-24
  _audit_creation_method            'ToBaCCo'
  _symmetry_space_group_name_H-M    'P1'
  _symmetry_Int_Tables_number       1
  _symmetry_cell_setting            triclinic
  loop_
  _symmetry_equiv_pos_as_xyz
 x,y,z
_cell_length_a 31.6319
_cell_length_b 31.7393
_cell_length_c 59.2356
_cell_angle_alpha 85.539000
_cell_angle_beta 91.534300
_cell_angle_gamma 120.118500
loop_
  _atom_site_label
  _atom_site_type_symbol
  _atom_site_fract_x
  _atom_site_fract_y
  _atom_site_fract_z
C1 C 0.00180 0.08081 0.53141
 H2 H 0.03637 0.08158 0.53115
 C3 C -0.00400 0.11194 0.54469
 H4 H 0.02649 0.13685 0.55455
 C5 C -0.07904 0.04878 0.51792
 H6 H -0.10784 0.02460 0.50717
 C7 C -0.08639 0.07959 0.53093
 H8 H -0.12126 0.07829 0.53037
 N9 N -0.03547 0.04991 0.51848
 C10 C 0.00069 -0.06256 0.50763
 H11 H 0.00343 -0.05945 0.48935
 C12 C 0.00403 -0.09997 0.52009
 H13 H 0.00938 -0.12553 0.51122
 C14 C -0.01320 -0.03501 0.54121
 H15 H -0.02137 -0.01060 0.54935
 C16 C -0.01008 -0.07182 0.55431
 H17 H -0.01464 -0.07446 0.57251
 Zn18 Zn -0.02100 0.01262 0.50010
 N19 N -0.00817 -0.03127 0.51829
 C20 C 0.07691 0.05788 0.48267
 N21 N 0.03388 0.05786 0.48213
 C22 C 0.02910 0.09300 0.46967
 C23 C 0.06850 0.13014 0.45704
 C24 C 0.11740 0.09447 0.47023
 C25 C -0.11572 -0.06194 0.49192
 C26 C -0.15370 -0.09608 0.47928
 C27 C -0.10567 -0.05477 0.44535
 C28 C -0.06874 -0.02152 0.45871
 N29 N -0.07410 -0.02599 0.48156
 H30 H 0.08021 0.03020 0.49309
 H31 H -0.00542 0.09235 0.46978
 H32 H 0.06374 0.15756 0.44713
 H33 H 0.15168 0.09458 0.47118
 H34 H -0.11855 -0.06536 0.51021
 H35 H -0.18426 -0.12541 0.48881
 H36 H -0.09963 -0.04807 0.42726
 H37 H -0.03519 0.00709 0.45075
 C38 C -0.00221 -0.10546 0.54374
 C39 C -0.04848 0.11174 0.54453
 C40 C -0.14916 -0.09425 0.45539
 C41 C 0.11356 0.13150 0.45736
 C42 C 1.10949 0.05009 0.13429
 H43 H 1.10912 0.08403 0.13403
 C44 C 1.14399 0.04727 0.12134
 H45 H 1.16958 0.07906 0.11081
 C46 C 1.07660 -0.03233 0.14864
 H47 H 1.05096 -0.06283 0.15973
 C48 C 1.11060 -0.03678 0.13592
 H49 H 1.11078 -0.07091 0.13732
 N50 N 1.07680 0.01073 0.14761
 C51 C 0.96081 0.04268 0.15936
 H52 H 0.96204 0.04347 0.17760
 C53 C 0.92397 0.04625 0.14739
 H54 H 0.89754 0.05086 0.15653
 C55 C 0.99276 0.03373 0.12548
 H56 H 1.01848 0.02700 0.11709
 C57 C 0.95653 0.03712 0.11285
 H58 H 0.95504 0.03319 0.09480
 Zn59 Zn 1.03601 0.02145 0.16619
 N60 N 0.99393 0.03604 0.14833
 C61 C 1.07757 0.11622 0.18309
 N62 N 1.07815 0.07358 0.18368
 C63 C 1.11176 0.06728 0.19593
 C64 C 1.14661 0.10463 0.20833
 C65 C 1.11187 0.15467 0.19532
 C66 C 0.96073 -0.07475 0.17517
 C67 C 0.92463 -0.11470 0.18821
 C68 C 0.96057 -0.07199 0.22178
 C69 C 0.99594 -0.03284 0.20810
 N70 N 0.99506 -0.03469 0.18522
 H71 H 1.05120 0.12083 0.17284
 H72 H 1.11166 0.03315 0.19586
 H73 H 1.17278 0.09862 0.21811
 H74 H 1.11154 0.18871 0.19438
 H75 H 0.96023 -0.07478 0.15690
 H76 H 0.89647 -0.14540 0.17979
 H77 H 0.96145 -0.06955 0.23993
 H78 H 1.02280 -0.00029 0.21575
 C79 C 0.92091 0.04250 0.12386
 C80 C 1.14527 0.00360 0.12224
 C81 C 0.92367 -0.11323 0.21182
 C82 C 1.14725 0.14921 0.20801
 C83 C 0.04384 0.94369 0.86414
 H84 H 0.01007 0.90909 0.86400
 C85 C 0.08260 0.94743 0.87729
 H86 H 0.07845 0.91535 0.88714
 C87 C 0.09062 1.02685 0.85055
 H88 H 0.09371 1.05744 0.83983
 C89 C 0.13051 1.03221 0.86344
 H90 H 0.16387 1.06731 0.86282
 N91 N 0.04833 0.98308 0.85123
 C92 C -0.10172 0.95007 0.84124
 H93 H -0.10369 0.95054 0.82296
 C94 C -0.14051 0.94583 0.85387
 H95 H -0.17131 0.94384 0.84463
 C96 C -0.05613 0.95736 0.87446
 H97 H -0.02276 0.96297 0.88242
 C98 C -0.09393 0.95323 0.88777
 H99 H -0.08911 0.95332 0.90590
 Zn100 Zn -0.00590 0.97187 0.83312
 N101 N -0.06038 0.95633 0.85161
 C102 C -0.06126 0.87728 0.81605
 N103 N -0.01804 0.92018 0.81533
 C104 C 0.02053 0.92697 0.80279
 C105 C 0.01670 0.88978 0.79033
 C106 C -0.06673 0.83896 0.80377
 C107 C 0.01342 1.06778 0.82478
 C108 C 0.01620 1.10800 0.81202
 C109 C 0.00596 1.06628 0.77812
 C110 C 0.00333 1.02685 0.79154
 N111 N 0.00666 1.02812 0.81444
 H112 H -0.09112 0.87234 0.82650
 H113 H 0.05461 0.96131 0.80275
 H114 H 0.04785 0.89611 0.78038
 H115 H -0.10098 0.80466 0.80487
 H116 H 0.01483 1.06735 0.84306
 H117 H 0.01977 1.13844 0.82066
 H118 H 0.00270 1.06437 0.75994
 H119 H -0.00312 0.99461 0.78365
 C120 C -0.13685 0.94866 0.87762
 C121 C 0.12674 0.99209 0.87703
 C122 C 0.01159 1.10722 0.78838
 C123 C -0.02719 0.84484 0.79088
 C124 C 0.47556 -0.00689 -0.01248
 C125 C 0.47715 -0.00592 0.01138
 C126 C 0.51679 -0.00502 0.02300
 C127 C 0.55477 -0.00530 0.01143
 C128 C 0.55194 -0.00869 -0.01232
 C129 C 0.51288 -0.00844 -0.02400
 H130 H 0.51066 -0.01098 -0.04219
 H131 H 0.51887 -0.00241 0.04119
 C132 C -0.03617 0.44363 0.65433
 C133 C -0.03187 0.44174 0.67819
 C134 C -0.03115 0.47859 0.69010
 C135 C -0.03256 0.51833 0.67874
 C136 C -0.03327 0.52200 0.65477
 C137 C -0.03608 0.48410 0.64291
 H138 H -0.03786 0.48630 0.62458
 H139 H -0.02913 0.47650 0.70843
 C140 C 0.55175 0.55661 0.32193
 C141 C 0.54434 0.55896 0.34516
 C142 C 0.50245 0.52108 0.35640
 C143 C 0.46759 0.48114 0.34501
 C144 C 0.47377 0.48007 0.32153
 C145 C 0.51627 0.51729 0.31042
 H146 H 0.52109 0.51649 0.29243
 H147 H 0.49772 0.52198 0.37439
 C148 C -0.05821 0.21696 0.58220
 C149 C -0.07882 0.20710 0.56068
 C150 C -0.07696 0.17182 0.54864
 C151 C -0.05424 0.14618 0.55796
 C152 C -0.03472 0.15557 0.57982
 C153 C -0.03668 0.19074 0.59183
 C154 C -0.05719 0.25531 0.59408
 C155 C -0.05508 0.28789 0.60414
 C156 C -0.05139 0.32710 0.61630
 C157 C -0.01501 0.37532 0.61034
 C158 C -0.01030 0.41334 0.62258
 C159 C -0.04180 0.40345 0.64101
 C160 C -0.07871 0.35505 0.64668
 C161 C -0.08334 0.31707 0.63443
 H162 H -0.09543 0.22732 0.55304
 H163 H -0.09182 0.16579 0.53175
 H164 H -0.01758 0.13596 0.58757
 H165 H -0.02071 0.19801 0.60849
 H166 H 0.00998 0.38346 0.59636
 H167 H 0.01841 0.45036 0.61795
 H168 H -0.10381 0.34672 0.66062
 H169 H -0.11164 0.27991 0.63918
 C170 C 0.80135 0.77279 0.25067
 C171 C 0.82129 0.82150 0.25562
 C172 C 0.86163 0.85840 0.24328
 C173 C 0.88265 0.84709 0.22576
 C174 C 0.86272 0.79790 0.22110
 C175 C 0.82233 0.76101 0.23350
 C176 C 0.75867 0.73520 0.26289
 C177 C 0.72265 0.70406 0.27308
 C178 C 0.67949 0.66709 0.28521
 C179 C 0.64941 0.68000 0.29618
 C180 C 0.60752 0.64409 0.30800
 C181 C 0.59553 0.59493 0.30909
 C182 C 0.62555 0.58217 0.29783
 C183 C 0.66738 0.61809 0.28599
 H184 H 0.80522 0.83105 0.26882
 H185 H 0.87551 0.89593 0.24703
 H186 H 0.87834 0.78798 0.20787
 H187 H 0.80721 0.72338 0.22955
 H188 H 0.65832 0.71779 0.29559
 H189 H 0.58448 0.65459 0.31631
 H190 H 0.61687 0.54446 0.29845
 H191 H 0.69033 0.60768 0.27752
 C192 C 0.24738 -0.00149 -0.08511
 C193 C 0.25545 0.02278 -0.10669
 C194 C 0.21641 0.02163 -0.11886
 C195 C 0.16876 -0.00397 -0.10958
 C196 C 0.16123 -0.02749 -0.08770
 C197 C 0.20029 -0.02626 -0.07558
 C198 C 0.28707 -0.00206 -0.07292
 C199 C 0.31998 -0.00314 -0.06266
 C200 C 0.35903 -0.00476 -0.05035
 C201 C 0.40765 0.03093 -0.05534
 C202 C 0.44556 0.02974 -0.04318
 C203 C 0.43519 -0.00701 -0.02582
 C204 C 0.38637 -0.04322 -0.02115
 C205 C 0.34847 -0.04196 -0.03331
 H206 H 0.29177 0.04198 -0.11424
 H207 H 0.22327 0.03960 -0.13575
 H208 H 0.12510 -0.04694 -0.07999
 H209 H 0.19366 -0.04502 -0.05885
 H210 H 0.41622 0.05980 -0.06852
 H211 H 0.48297 0.05794 -0.04703
 H212 H 0.37766 -0.07223 -0.00803
 H213 H 0.31098 -0.06988 -0.02939
 C214 C -0.00828 0.77036 0.58161
 C215 C -0.04032 0.78658 0.58691
 C216 C -0.03789 0.82729 0.57478
 C217 C -0.00330 0.85245 0.55714
 C218 C 0.02901 0.83606 0.55203
 C219 C 0.02652 0.79528 0.56421
 C220 C -0.01170 0.72780 0.59390
 C221 C -0.01513 0.69200 0.60429
 C222 C -0.01955 0.64925 0.61683
 C223 C -0.05851 0.60287 0.61276
 C224 C -0.06302 0.56137 0.62509
 C225 C -0.02873 0.56592 0.64170
 C226 C 0.01052 0.61254 0.64553
 C227 C 0.01496 0.65397 0.63322
 H228 H -0.06752 0.76745 0.60029
 H229 H -0.06385 0.83841 0.57888
 H230 H 0.05631 0.85490 0.53869
 H231 H 0.05157 0.78308 0.56000
 H232 H -0.08543 0.59882 0.60012
 H233 H -0.09349 0.52578 0.62186
 H234 H 0.03780 0.61679 0.65800
 H235 H 0.04531 0.68966 0.63646
 C236 C 0.25724 0.26505 0.24519
 C237 C 0.20925 0.25639 0.24494
 C238 C 0.17345 0.21906 0.23266
 C239 C 0.18526 0.18984 0.22054
 C240 C 0.23375 0.19925 0.22073
 C241 C 0.26942 0.23656 0.23297
 C242 C 0.29400 0.30263 0.25818
 C243 C 0.32515 0.33374 0.26910
 C244 C 0.36252 0.37060 0.28218
 C245 C 0.35084 0.39731 0.29595
 C246 C 0.38707 0.43297 0.30872
 C247 C 0.43536 0.44208 0.30799
 C248 C 0.44692 0.41541 0.29399
 C249 C 0.41062 0.37975 0.28120
 H250 H 0.19943 0.27820 0.25438
 H251 H 0.13638 0.21240 0.23300
 H252 H 0.24418 0.17795 0.21128
 H253 H 0.30648 0.24306 0.23298
 H254 H 0.31378 0.39063 0.29678
 H255 H 0.37752 0.45365 0.31912
 H256 H 0.48390 0.42190 0.29316
 H257 H 0.42004 0.35929 0.27059
 C258 C 0.75428 -0.04473 -0.08459
 C259 C 0.80170 -0.02559 -0.07640
 C260 C 0.83722 -0.02860 -0.08855
 C261 C 0.82618 -0.05082 -0.10938
 C262 C 0.77756 -0.07080 -0.11712
 C263 C 0.74217 -0.06770 -0.10486
 C264 C 0.71852 -0.03967 -0.07240
 C265 C 0.68914 -0.03470 -0.06210
 C266 C 0.65451 -0.02830 -0.04969
 C267 C 0.64454 0.00891 -0.05681
 C268 C 0.61121 0.01540 -0.04464
 C269 C 0.58772 -0.01513 -0.02514
 C270 C 0.59765 -0.05263 -0.01821
 C271 C 0.63099 -0.05905 -0.03037
 H272 H 0.81157 -0.00739 -0.06077
 H273 H 0.87383 -0.01091 -0.08194
 H274 H 0.76593 -0.09010 -0.13237
 H275 H 0.70532 -0.08311 -0.11125
 H276 H 0.66259 0.03294 -0.07173
 H277 H 0.60405 0.04448 -0.05029
 H278 H 0.57935 -0.07710 -0.00344
 H279 H 0.63836 -0.08802 -0.02474
 C280 C 0.25643 -0.00289 0.08498
 C281 C 0.26788 0.03868 0.09616
 C282 C 0.23178 0.04063 0.10833
 C283 C 0.18356 0.00095 0.10948
 C284 C 0.17243 -0.04090 0.09832
 C285 C 0.20868 -0.04275 0.08611
 C286 C 0.29384 -0.00429 0.07230
 C287 C 0.32566 -0.00470 0.06174
 C288 C 0.36399 -0.00469 0.04919
 C289 C 0.38971 0.03215 0.03208
 C290 C 0.42698 0.03221 0.01989
 C291 C 0.43864 -0.00483 0.02461
 C292 C 0.41315 -0.04129 0.04199
 C293 C 0.37593 -0.04128 0.05418
 H294 H 0.30477 0.06965 0.09548
 H295 H 0.24173 0.07302 0.11706
 H296 H 0.13558 -0.07183 0.09873
 H297 H 0.19942 -0.07511 0.07749
 H298 H 0.38095 0.06080 0.02816
 H299 H 0.44665 0.06101 0.00675
 H300 H 0.42167 -0.07011 0.04589
 H301 H 0.35638 -0.06986 0.06744
 C302 C 0.74514 0.79323 0.41759
 C303 C 0.73304 0.80018 0.43892
 C304 C 0.76762 0.83802 0.45133
 C305 C 0.81580 0.87018 0.44276
 C306 C 0.82647 0.86279 0.42073
 C307 C 0.79168 0.82484 0.40847
 C308 C 0.71021 0.75300 0.40525
 C309 C 0.68127 0.71910 0.39493
 C310 C 0.64690 0.67853 0.38262
 C311 C 0.59784 0.66641 0.38164
 C312 C 0.56447 0.62720 0.36958
 C313 C 0.57989 0.59984 0.35827
 C314 C 0.62904 0.61175 0.35957
 C315 C 0.66240 0.65103 0.37162
 H316 H 0.69673 0.77623 0.44603
 H317 H 0.75504 0.84234 0.46728
 H318 H 0.86244 0.88380 0.41307
 H319 H 0.80155 0.81956 0.39198
 H320 H 0.58543 0.68737 0.39013
 H321 H 0.52671 0.61853 0.36881
 H322 H 0.64151 0.59069 0.35123
 H323 H 0.70025 0.65997 0.37235
 C324 C 0.00232 0.22299 0.75003
 C325 C 0.03641 0.23392 0.76738
 C326 C 0.04009 0.19643 0.77965
 C327 C 0.00969 0.14749 0.77469
 C328 C -0.02407 0.13701 0.75704
 C329 C -0.02768 0.17451 0.74482
 C330 C -0.00265 0.26125 0.73783
 C331 C -0.00740 0.29291 0.72757
 C332 C -0.01343 0.33043 0.71527
 C333 C 0.01772 0.35812 0.69696
 C334 C 0.01175 0.39438 0.68492
 C335 C -0.02572 0.40310 0.69096
 C336 C -0.05662 0.37544 0.70945
 C337 C -0.05057 0.33919 0.72150
 H338 H 0.05989 0.27136 0.77153
 H339 H 0.06673 0.20571 0.79299
 H340 H -0.04858 0.09969 0.75305
 H341 H -0.05432 0.16562 0.73148
 H342 H 0.04667 0.35175 0.69203
 H343 H 0.03648 0.41581 0.67095
 H344 H -0.08567 0.38163 0.71440
 H345 H -0.07489 0.31796 0.73565
 C346 C 0.79865 0.03257 0.08607
 C347 C 0.79164 0.01033 0.10804
 C348 C 0.83153 0.01444 0.12048
 C349 C 0.87910 0.04087 0.11110
 C350 C 0.88585 0.06369 0.08910
 C351 C 0.84585 0.05954 0.07668
 C352 C 0.75719 0.02664 0.07304
 C353 C 0.72217 0.02109 0.06221
 C354 C 0.68018 0.01415 0.04935
 C355 C 0.63332 -0.02300 0.05634
 C356 C 0.59246 -0.02955 0.04395
 C357 C 0.59811 0.00086 0.02435
 C358 C 0.64526 0.03818 0.01750
 C359 C 0.68606 0.04466 0.02989
 H360 H 0.75524 -0.01079 0.11544
 H361 H 0.82495 -0.00426 0.13720
 H362 H 0.92204 0.08466 0.08149
 H363 H 0.85169 0.07699 0.05969
 H364 H 0.62837 -0.04680 0.07139
 H365 H 0.55647 -0.05848 0.04954
 H366 H 0.65040 0.06258 0.00267
 H367 H 0.72212 0.07362 0.02438
 C368 C 0.23623 0.24894 0.42009
 C369 C 0.20469 0.25825 0.43211
 C370 C 0.16507 0.22011 0.44433
 C371 C 0.15636 0.17200 0.44470
 C372 C 0.18855 0.16303 0.43275
 C373 C 0.22820 0.20130 0.42049
 C374 C 0.27644 0.28834 0.40723
 C375 C 0.30983 0.32172 0.39645
 C376 C 0.34947 0.36176 0.38358
 C377 C 0.35829 0.40942 0.38474
 C378 C 0.39675 0.44835 0.37220
 C379 C 0.42659 0.43992 0.35826
 C380 C 0.41774 0.39204 0.35733
 C381 C 0.37928 0.35317 0.36985
 H382 H 0.21067 0.29500 0.43199
 H383 H 0.14145 0.22835 0.45366
 H384 H 0.18255 0.12634 0.43255
 H385 H 0.25238 0.19370 0.41121
 H386 H 0.33544 0.41646 0.39533
 H387 H 0.40297 0.48496 0.37318
 H388 H 0.44079 0.38482 0.34698
 H389 H 0.37288 0.31648 0.36888
 C390 C -0.03623 0.72898 0.75418
 C391 C -0.07598 0.73687 0.75446
 C392 C -0.07341 0.77422 0.76658
 C393 C -0.03092 0.80422 0.77849
 C394 C 0.00855 0.79556 0.77828
 C395 C 0.00589 0.75825 0.76620
 C396 C -0.03798 0.69148 0.74134
 C397 C -0.03822 0.66061 0.73061
 C398 C -0.03738 0.62431 0.71781
 C399 C -0.07286 0.60129 0.70147
 C400 C -0.07147 0.56659 0.68883
 C401 C -0.03434 0.55481 0.69230
 C402 C 0.00085 0.57771 0.70888
 C403 C -0.00061 0.61236 0.72152
 H404 H -0.10874 0.71445 0.74516
 H405 H -0.10421 0.78026 0.76627
 H406 H 0.04144 0.81746 0.78759
 H407 H 0.03679 0.75235 0.76618
 H408 H -0.10152 0.61020 0.69849
 H409 H -0.09936 0.54887 0.67635
 H410 H 0.02979 0.56920 0.71181
 H411 H 0.02706 0.63001 0.73411
   
