data_POSCAR
  _audit_creation_date              2014-09-24
  _audit_creation_method            'ToBaCCo'
  _symmetry_space_group_name_H-M    'P1'
  _symmetry_Int_Tables_number       1
  _symmetry_cell_setting            triclinic
  loop_
  _symmetry_equiv_pos_as_xyz
 x,y,z
_cell_length_a 18.7086
_cell_length_b 27.2815
_cell_length_c 18.7073
_cell_angle_alpha 90.001100
_cell_angle_beta 90.006300
_cell_angle_gamma 89.989600
loop_
  _atom_site_label
  _atom_site_type_symbol
  _atom_site_fract_x
  _atom_site_fract_y
  _atom_site_fract_z
C1 C 1.24917 0.24657 0.24812
 C2 C 0.74921 -0.25325 0.24808
 C3 C 0.74925 0.24655 -0.25193
 C4 C 1.24918 -0.25363 -0.25191
 C5 C 0.24928 0.24707 0.74828
 C6 C 0.74922 0.74655 0.74830
 C7 C 0.74928 0.24601 0.24824
 C8 C 0.24923 0.74654 0.24825
 N9 N 1.10160 0.04760 0.10640
 N10 N 1.14060 0.08579 0.12512
 N11 N 1.04103 -0.05598 0.14037
 N12 N 1.03739 -0.09428 0.18344
 N13 N 1.10218 -0.05559 0.10592
 N14 N 1.14185 -0.09351 0.12465
 N15 N 1.04055 0.04746 0.14101
 N16 N 1.03625 0.08564 0.18419
 C17 C 1.09917 0.10902 0.17369
 C18 C 1.10077 -0.11721 0.17307
 N19 N 0.85804 -0.05555 0.03811
 N20 N 0.81431 -0.09341 0.03411
 N21 N 0.89239 0.04741 0.09982
 N22 N 0.87342 0.08535 0.13926
 N23 N 0.85795 0.04764 0.03865
 N24 N 0.81463 0.08574 0.03473
 N25 N 0.89269 -0.05569 0.09916
 N26 N 0.87347 -0.09360 0.13846
 Mn27 Mn 0.96642 -0.00422 0.12100
 C28 C 0.82459 -0.11665 0.09717
 C29 C 0.82487 0.10878 0.09795
 N30 N 1.14293 -0.05506 -0.04227
 N31 N 1.18611 -0.09323 -0.03825
 N32 N 1.10796 0.04809 -0.10302
 N33 N 1.12654 0.08618 -0.14227
 N34 N 1.14249 0.04820 -0.04190
 N35 N 1.18554 0.08647 -0.03786
 N36 N 1.10826 -0.05498 -0.10330
 N37 N 1.12692 -0.09304 -0.14258
 Mn38 Mn 1.12319 -0.00369 0.03228
 C39 C 1.17551 -0.11639 -0.10131
 C40 C 1.17496 0.10965 -0.10097
 N41 N 0.89883 0.04798 -0.10950
 N42 N 0.85929 0.08590 -0.12834
 N43 N 0.96004 -0.05523 -0.14447
 N44 N 0.96389 -0.09331 -0.18792
 N45 N 0.89896 -0.05514 -0.10992
 N46 N 0.85953 -0.09306 -0.12884
 N47 N 0.95986 0.04814 -0.14415
 N48 N 0.96360 0.08627 -0.18748
 Mn49 Mn 0.87760 -0.00376 -0.03590
 Mn50 Mn 1.03430 -0.00351 -0.12462
 Cl51 Cl 1.00038 -0.00380 -0.00179
 C52 C 0.90038 0.10933 -0.17701
 C53 C 0.90067 -0.11640 -0.17753
 N54 N 1.10020 0.54882 0.60476
 N55 N 1.13948 0.58674 0.62394
 N56 N 1.03975 0.44550 0.63953
 N57 N 1.03587 0.40743 0.68290
 N58 N 1.10090 0.44571 0.60506
 N59 N 1.14038 0.40779 0.62410
 N60 N 1.03917 0.54868 0.63941
 N61 N 1.03515 0.58658 0.68310
 C62 C 1.09819 0.60982 0.67279
 C63 C 1.09910 0.38440 0.67269
 N64 N 0.85692 0.44499 0.53757
 N65 N 0.81365 0.40684 0.53379
 N66 N 0.89114 0.54827 0.59848
 N67 N 0.87215 0.58617 0.63796
 N68 N 0.85657 0.54836 0.53740
 N69 N 0.81307 0.58641 0.53359
 N70 N 0.89159 0.44514 0.59860
 N71 N 0.87280 0.40721 0.63811
 Mn72 Mn 0.96517 0.49689 0.61985
 C73 C 0.82416 0.38376 0.59699
 C74 C 0.82343 0.60949 0.59683
 N75 N 1.14204 0.44563 0.45689
 N76 N 1.18528 0.40747 0.46116
 N77 N 1.10692 0.54867 0.39525
 N78 N 1.12563 0.58659 0.35558
 N79 N 1.14139 0.54907 0.45640
 N80 N 1.18444 0.58737 0.46006
 N81 N 1.10742 0.44548 0.39584
 N82 N 1.12618 0.40732 0.35680
 Mn83 Mn 1.12204 0.49732 0.53103
 C84 C 1.17478 0.38410 0.39822
 C85 C 1.17405 0.61030 0.39667
 N86 N 0.89773 0.54809 0.38916
 N87 N 0.85845 0.58614 0.37047
 N88 N 0.95913 0.44488 0.35494
 N89 N 0.96317 0.40660 0.31191
 N90 N 0.89802 0.44502 0.38947
 N91 N 0.85876 0.40694 0.37089
 N92 N 0.95875 0.54814 0.35448
 N93 N 0.96276 0.58629 0.31127
 Mn94 Mn 0.87643 0.49664 0.46313
 Mn95 Mn 1.03329 0.49677 0.37424
 Cl96 Cl 0.99924 0.49691 0.49705
 C97 C 0.89970 0.60947 0.32184
 C98 C 0.90005 0.38344 0.32248
 N99 N 0.59966 0.04796 0.60584
 N100 N 0.63919 0.08588 0.62463
 N101 N 0.53840 -0.05523 0.64083
 N102 N 0.53457 -0.09326 0.68434
 N103 N 0.59947 -0.05516 0.60627
 N104 N 0.63893 -0.09307 0.62527
 N105 N 0.53863 0.04815 0.64048
 N106 N 0.53488 0.08631 0.68376
 C107 C 0.59810 0.10935 0.67326
 C108 C 0.59779 -0.11637 0.67400
 N109 N 0.35550 -0.05498 0.53863
 N110 N 0.31232 -0.09314 0.53460
 N111 N 0.39054 0.04815 0.59935
 N112 N 0.37195 0.08624 0.63864
 N113 N 0.35599 0.04829 0.53824
 N114 N 0.31293 0.08655 0.53423
 N115 N 0.39017 -0.05491 0.59966
 N116 N 0.37150 -0.09297 0.63893
 Mn117 Mn 0.46417 -0.00348 0.62097
 C118 C 0.32290 -0.11631 0.59766
 C119 C 0.32352 0.10972 0.59735
 N120 N 0.64039 -0.05561 0.45823
 N121 N 0.68413 -0.09348 0.46221
 N122 N 0.60608 0.04738 0.39651
 N123 N 0.62511 0.08530 0.35706
 N124 N 0.64056 0.04757 0.45767
 N125 N 0.68392 0.08564 0.46158
 N126 N 0.60575 -0.05573 0.39718
 N127 N 0.62497 -0.09363 0.35786
 Mn128 Mn 0.62087 -0.00380 0.53224
 C129 C 0.67384 -0.11671 0.39914
 C130 C 0.67370 0.10868 0.39835
 N131 N 0.39686 0.04766 0.38995
 N132 N 0.35782 0.08580 0.37116
 N133 N 0.45739 -0.05596 0.35598
 N134 N 0.46105 -0.09429 0.31295
 N135 N 0.39624 -0.05554 0.39043
 N136 N 0.35657 -0.09346 0.37173
 N137 N 0.45790 0.04748 0.35533
 N138 N 0.46216 0.08561 0.31206
 Mn139 Mn 0.37526 -0.00362 0.46407
 Mn140 Mn 0.53203 -0.00423 0.37534
 Cl141 Cl 0.49807 -0.00379 0.49814
 C142 C 0.39922 0.10900 0.32253
 C143 C 0.39766 -0.11720 0.32334
 N144 N 0.60076 0.54801 0.10723
 N145 N 0.64001 0.58609 0.12586
 N146 N 0.53934 0.44484 0.14144
 N147 N 0.53532 0.40658 0.18450
 N148 N 0.60044 0.44495 0.10689
 N149 N 0.63971 0.40686 0.12549
 N150 N 0.53973 0.54810 0.14190
 N151 N 0.53569 0.58629 0.18503
 C152 C 0.59873 0.60946 0.17442
 C153 C 0.59843 0.38340 0.17393
 N154 N 0.35643 0.44563 0.03949
 N155 N 0.31318 0.40751 0.03521
 N156 N 0.39155 0.54867 0.10115
 N157 N 0.37282 0.58657 0.14083
 N158 N 0.35709 0.54908 0.03999
 N159 N 0.31403 0.58739 0.03635
 N160 N 0.39106 0.44548 0.10055
 N161 N 0.37228 0.40732 0.13958
 Mn162 Mn 0.46518 0.49675 0.12214
 C163 C 0.32366 0.38412 0.09816
 C164 C 0.32441 0.61031 0.09975
 N165 N 0.64155 0.44492 -0.04122
 N166 N 0.68487 0.40679 -0.03749
 N167 N 0.60732 0.54825 -0.10207
 N168 N 0.62627 0.58616 -0.14150
 N169 N 0.64190 0.54829 -0.04099
 N170 N 0.68537 0.58635 -0.03714
 N171 N 0.60690 0.44512 -0.10225
 N172 N 0.62574 0.40722 -0.14182
 Mn173 Mn 0.62205 0.49656 0.03324
 C174 C 0.67440 0.38376 -0.10074
 C175 C 0.67499 0.60946 -0.10034
 N176 N 0.39825 0.54882 -0.10837
 N177 N 0.35889 0.58670 -0.12765
 N178 N 0.45875 0.44550 -0.14315
 N179 N 0.46270 0.40738 -0.18643
 N180 N 0.39761 0.44570 -0.10868
 N181 N 0.35820 0.40775 -0.12762
 N182 N 0.45928 0.54868 -0.14302
 N183 N 0.46322 0.58652 -0.18681
 Mn184 Mn 0.37644 0.49733 -0.03464
 Mn185 Mn 0.53330 0.49688 -0.12347
 Cl186 Cl 0.49923 0.49688 -0.00068
 C187 C 0.40013 0.60974 -0.17656
 C188 C 0.39950 0.38433 -0.17617
 C189 C 1.18389 0.21352 0.24220
 C190 C 1.12052 0.21788 0.28012
 C191 C 1.07934 0.17928 0.25888
 C192 C 1.12044 0.15427 0.20994
 O193 O 1.18336 0.17487 0.19948
 H194 H 1.10597 0.24548 0.31899
 H195 H 1.02611 0.17020 0.27726
 C196 C 1.18387 0.71340 0.74256
 C197 C 1.12081 0.71764 0.78101
 C198 C 1.07925 0.67933 0.75940
 C199 C 1.11990 0.65463 0.70977
 O200 O 1.18286 0.67509 0.69925
 H201 H 1.10667 0.74500 0.82039
 H202 H 1.02608 0.67027 0.77794
 C203 C 0.68390 0.21349 0.74219
 C204 C 0.62055 0.21797 0.78011
 C205 C 0.57910 0.17954 0.75875
 C206 C 0.61998 0.15445 0.70973
 O207 O 0.68309 0.17486 0.69936
 H208 H 0.60614 0.24559 0.81900
 H209 H 0.52578 0.17066 0.77707
 C210 C 0.68391 0.71376 0.24257
 C211 C 0.62073 0.71818 0.28079
 C212 C 0.57937 0.67964 0.25969
 C213 C 0.62023 0.65463 0.21057
 O214 O 0.68313 0.67514 0.19984
 H215 H 0.60638 0.74576 0.31974
 H216 H 0.52619 0.67062 0.27827
 C217 C 0.75475 -0.22023 0.18282
 C218 C 0.71637 -0.22447 0.11971
 C219 C 0.73800 -0.18614 0.07818
 C220 C 0.78758 -0.16144 0.11889
 O221 O 0.79804 -0.18192 0.18186
 H222 H 0.67706 -0.25185 0.10549
 H223 H 0.71953 -0.17708 0.02497
 C224 C 0.75513 0.27964 0.68273
 C225 C 0.71713 0.27524 0.61942
 C226 C 0.73854 0.31367 0.57797
 C227 C 0.78765 0.33868 0.61884
 O228 O 0.79804 0.31823 0.68193
 H229 H 0.67815 0.24769 0.60503
 H230 H 0.72017 0.32260 0.52468
 C231 C 0.25467 -0.22060 0.68281
 C232 C 0.21636 -0.22494 0.61966
 C233 C 0.23748 -0.18640 0.57833
 C234 C 0.28669 -0.16146 0.61916
 O235 O 0.29747 -0.18202 0.68203
 H236 H 0.17736 -0.25248 0.60532
 H237 H 0.21885 -0.17732 0.52517
 C238 C 0.25506 0.27965 0.18287
 C239 C 0.21703 0.27538 0.11956
 C240 C 0.23829 0.31399 0.07839
 C241 C 0.28734 0.33891 0.11945
 O242 O 0.29785 0.31826 0.18234
 H243 H 0.17807 0.24784 0.10502
 H244 H 0.21984 0.32312 0.02519
 C245 C 0.81459 0.21345 -0.24606
 C246 C 0.87790 0.21786 -0.28405
 C247 C 0.91935 0.17943 -0.26266
 C248 C 0.87849 0.15440 -0.21355
 O249 O 0.81540 0.17486 -0.20316
 H250 H 0.89229 0.24543 -0.32302
 H251 H 0.97264 0.17049 -0.28101
 C252 C 0.81449 0.71373 0.25355
 C253 C 0.87760 0.71804 0.21519
 C254 C 0.91894 0.67950 0.23630
 C255 C 0.87816 0.65459 0.28558
 O256 O 0.81531 0.67516 0.29639
 H257 H 0.89190 0.74557 0.17613
 H258 H 0.97206 0.67040 0.21762
 C259 C 0.31444 0.21349 0.25398
 C260 C 0.37771 0.21776 0.21590
 C261 C 0.41890 0.17914 0.23712
 C262 C 0.37789 0.15422 0.28620
 O263 O 0.31502 0.17487 0.29676
 H264 H 0.39220 0.24531 0.17693
 H265 H 0.47208 0.17001 0.21863
 C266 C 0.31443 0.71333 -0.24642
 C267 C 0.37749 0.71754 -0.28486
 C268 C 0.41902 0.67920 -0.26325
 C269 C 0.37836 0.65452 -0.21362
 O270 O 0.31542 0.67502 -0.20310
 H271 H 0.39167 0.74491 -0.32420
 H272 H 0.47222 0.67014 -0.28175
 C273 C 1.24374 -0.22064 -0.18660
 C274 C 1.28212 -0.22498 -0.12349
 C275 C 1.26101 -0.18647 -0.08210
 C276 C 1.21174 -0.16153 -0.12286
 O277 O 1.20092 -0.18206 -0.18574
 H278 H 1.32119 -0.25252 -0.10922
 H279 H 1.27971 -0.17740 -0.02897
 C280 C 1.24328 0.27960 0.31343
 C281 C 1.28124 0.27525 0.37678
 C282 C 1.26002 0.31386 0.41798
 C283 C 1.21106 0.33886 0.37690
 O284 O 1.20056 0.31826 0.31399
 H285 H 1.32012 0.24765 0.39131
 H286 H 1.27844 0.32294 0.47121
 C287 C 0.74369 -0.22026 0.31338
 C288 C 0.78213 -0.22450 0.37646
 C289 C 0.76050 -0.18619 0.41803
 C290 C 0.71087 -0.16149 0.37737
 O291 O 0.70038 -0.18195 0.31439
 H292 H 0.82148 -0.25187 0.39062
 H293 H 0.77900 -0.17715 0.47124
 C294 C 0.74340 0.27963 -0.18657
 C295 C 0.78130 0.27515 -0.12321
 C296 C 0.75994 0.31358 -0.08175
 C297 C 0.71092 0.33867 -0.12264
 O298 O 0.70056 0.31827 -0.18577
 H299 H 0.82018 0.24753 -0.10878
 H300 H 0.77825 0.32247 -0.02842
 C301 C 1.24330 0.21404 -0.18636
 C302 C 1.28108 0.21857 -0.12291
 C303 C 1.25988 0.18006 -0.08155
 C304 C 1.21110 0.15489 -0.12259
 O305 O 1.20069 0.17531 -0.18569
 H306 H 1.31984 0.24623 -0.10838
 H307 H 1.27817 0.17115 -0.02822
 C308 C 1.24339 0.71489 0.31078
 C309 C 1.27992 0.71959 0.37524
 C310 C 1.25829 0.68109 0.41641
 C311 C 1.21042 0.65559 0.37480
 O312 O 1.20096 0.67584 0.31135
 H313 H 1.31812 0.74737 0.39076
 H314 H 1.27563 0.67249 0.47016
 C315 C 0.74318 0.21288 0.31341
 C316 C 0.78088 0.21720 0.37690
 C317 C 0.75930 0.17868 0.41806
 C318 C 0.71037 0.15375 0.37683
 O319 O 0.70027 0.17430 0.31382
 H320 H 0.81974 0.24477 0.39158
 H321 H 0.77739 0.16964 0.47141
 C322 C 0.74378 0.71348 -0.18634
 C323 C 0.78220 0.71784 -0.12325
 C324 C 0.76098 0.67942 -0.08168
 C325 C 0.71156 0.65448 -0.12227
 O326 O 0.70082 0.67495 -0.18527
 H327 H 0.82137 0.74534 -0.10911
 H328 H 0.77967 0.67044 -0.02851
 C329 C 0.81462 -0.22042 -0.24626
 C330 C 0.87774 -0.22488 -0.28456
 C331 C 0.91934 -0.18647 -0.26336
 C332 C 0.87873 -0.16144 -0.21406
 O333 O 0.81568 -0.18183 -0.20338
 H334 H 0.89193 -0.25247 -0.32357
 H335 H 0.97256 -0.17757 -0.28195
 C336 C 0.81467 0.27902 0.25424
 C337 C 0.87818 0.27438 0.21661
 C338 C 0.91954 0.31290 0.23777
 C339 C 0.87844 0.33817 0.28640
 O340 O 0.81531 0.31780 0.29675
 H341 H 0.89276 0.24663 0.17798
 H342 H 0.97291 0.32174 0.21955
 C343 C 0.31177 -0.22183 0.25410
 C344 C 0.37626 -0.22659 0.21765
 C345 C 0.41742 -0.18808 0.23924
 C346 C 0.37579 -0.16252 0.28703
 O347 O 0.31233 -0.18274 0.29648
 H348 H 0.39180 -0.25442 0.17953
 H349 H 0.47118 -0.17951 0.22194
 C350 C 0.31450 0.28014 -0.24561
 C351 C 0.37797 0.27578 -0.28332
 C352 C 0.41918 0.31428 -0.26172
 C353 C 0.37799 0.33924 -0.21278
 O354 O 0.31498 0.31871 -0.20267
 H355 H 0.39259 0.24823 -0.32224
 H356 H 0.47252 0.32329 -0.27984
 C357 C 1.18669 -0.22181 0.24240
 C358 C 1.12224 -0.22652 0.27894
 C359 C 1.08106 -0.18801 0.25732
 C360 C 1.12265 -0.16251 0.20944
 O361 O 1.18610 -0.18276 0.19998
 H362 H 1.10673 -0.25431 0.31713
 H363 H 1.02732 -0.17941 0.27466
 C364 C 1.18411 0.28021 0.74221
 C365 C 1.12064 0.27589 0.77992
 C366 C 1.07946 0.31441 0.75833
 C367 C 1.12065 0.33934 0.70938
 O368 O 1.18366 0.31878 0.69928
 H369 H 1.10599 0.24833 0.81880
 H370 H 1.02611 0.32344 0.77641
 C371 C 0.68385 -0.22036 0.74288
 C372 C 0.62076 -0.22474 0.78125
 C373 C 0.57917 -0.18633 0.76000
 C374 C 0.61975 -0.16137 0.71062
 O375 O 0.68277 -0.18183 0.69991
 H376 H 0.60660 -0.25228 0.82034
 H377 H 0.52598 -0.17738 0.77861
 C378 C 0.68390 0.27904 0.24229
 C379 C 0.62050 0.27450 0.28012
 C380 C 0.57911 0.31302 0.25893
 C381 C 0.62010 0.33817 0.21010
 O382 O 0.68318 0.31775 0.19965
 H383 H 0.60602 0.24683 0.31890
 H384 H 0.52580 0.32192 0.27727
 C385 C 0.75540 0.21295 0.18300
 C386 C 0.71777 0.21736 0.11948
 C387 C 0.73939 0.17887 0.07825
 C388 C 0.78824 0.15386 0.11948
 O389 O 0.79828 0.17435 0.18254
 H390 H 0.67895 0.24495 0.10481
 H391 H 0.72137 0.16990 0.02484
 C392 C 0.75463 0.71349 0.68290
 C393 C 0.71620 0.71787 0.61984
 C394 C 0.73740 0.67946 0.57823
 C395 C 0.78682 0.65449 0.61880
 O396 O 0.79758 0.67494 0.68181
 H397 H 0.67708 0.74540 0.60570
 H398 H 0.71873 0.67053 0.52505
 C399 C 0.25520 0.21407 0.68287
 C400 C 0.21737 0.21864 0.61947
 C401 C 0.23855 0.18014 0.57805
 C402 C 0.28737 0.15495 0.61903
 O403 O 0.29782 0.17535 0.68213
 H404 H 0.17859 0.24632 0.60499
 H405 H 0.22020 0.17126 0.52472
 C406 C 0.25507 0.71489 0.18570
 C407 C 0.21858 0.71964 0.12122
 C408 C 0.24020 0.68114 0.08004
 C409 C 0.28804 0.65560 0.12165
 O410 O 0.29749 0.67582 0.18512
 H411 H 0.18041 0.74745 0.10570
 H412 H 0.22288 0.67256 0.02627
   
