data_POSCAR
  _audit_creation_date              2014-09-24
  _audit_creation_method            'ToBaCCo'
  _symmetry_space_group_name_H-M    'P1'
  _symmetry_Int_Tables_number       1
  _symmetry_cell_setting            triclinic
  loop_
  _symmetry_equiv_pos_as_xyz
 x,y,z
_cell_length_a 49.0031
_cell_length_b 48.9768
_cell_length_c 48.5399
_cell_angle_alpha 89.865800
_cell_angle_beta 90.043200
_cell_angle_gamma 90.076600
loop_
  _atom_site_label
  _atom_site_type_symbol
  _atom_site_fract_x
  _atom_site_fract_y
  _atom_site_fract_z
C1 C 0.25849 0.37438 -0.01413
 C2 C 0.25877 0.37532 0.01407
 C3 C 0.28263 0.36267 0.02246
 N4 N 0.29685 0.35391 0.00032
 C5 C 0.28211 0.36090 -0.02218
 C6 C 0.29214 0.36187 0.04994
 C7 C 0.31497 0.34639 0.05840
 C8 C 0.32814 0.34910 0.08356
 C9 C 0.34847 0.32976 0.08422
 C10 C 0.34713 0.31583 0.05943
 N11 N 0.32656 0.32594 0.04390
 C12 C 0.36367 0.29343 0.05222
 C13 C 0.36556 0.28359 0.02501
 C14 C 0.37661 0.25861 0.01782
 C15 C 0.37666 0.25772 -0.01037
 C16 C 0.36611 0.28244 -0.01951
 N17 N 0.35906 0.29814 0.00222
 C18 C 0.36448 0.29075 -0.04748
 C19 C 0.34774 0.31296 -0.05588
 C20 C 0.34984 0.32659 -0.08087
 C21 C 0.32929 0.34559 -0.08159
 C22 C 0.31553 0.34377 -0.05665
 N23 N 0.32684 0.32365 -0.04119
 C24 C 0.29170 0.35873 -0.04966
 H25 H 0.24306 0.38360 -0.02707
 H26 H 0.24353 0.38496 0.02689
 H27 H 0.31893 0.31566 -0.02298
 H28 H 0.32357 0.36349 0.09981
 H29 H 0.36257 0.32632 0.10104
 H30 H 0.38384 0.24270 0.03150
 H31 H 0.38378 0.24080 -0.02272
 H32 H 0.32502 0.35896 -0.09880
 H33 H 0.31918 0.31753 0.02571
 H34 H 0.36457 0.32322 -0.09710
 C35 C 0.71774 0.60271 -0.01224
 C36 C 0.71760 0.60350 0.01595
 C37 C 0.70760 0.62890 0.02322
 N38 N 0.70186 0.64382 0.00045
 C39 C 0.70829 0.62789 -0.02133
 C40 C 0.70543 0.63843 0.05055
 C41 C 0.68958 0.66131 0.05784
 C42 C 0.69045 0.67436 0.08314
 C43 C 0.67032 0.69394 0.08270
 C44 C 0.65777 0.69225 0.05714
 N45 N 0.66962 0.67229 0.04215
 C46 C 0.63485 0.70770 0.04889
 C47 C 0.62617 0.70955 0.02120
 C48 C 0.60186 0.72119 0.01255
 C49 C 0.60211 0.72061 -0.01569
 C50 C 0.62657 0.70863 -0.02333
 N51 N 0.64127 0.70193 -0.00077
 C52 C 0.63590 0.70599 -0.05069
 C53 C 0.65892 0.69025 -0.05791
 C54 C 0.67276 0.69238 -0.08269
 C55 C 0.69281 0.67279 -0.08231
 C56 C 0.69041 0.65888 -0.05745
 N57 N 0.66978 0.66984 -0.04260
 C58 C 0.70654 0.63617 -0.04933
 H59 H 0.72392 0.58544 -0.02460
 H60 H 0.72387 0.58712 0.02955
 H61 H 0.66171 0.66198 -0.02440
 H62 H 0.70392 0.66998 0.10027
 H63 H 0.66531 0.70763 0.09941
 H64 H 0.58569 0.72939 0.02524
 H65 H 0.58619 0.72832 -0.02907
 H66 H 0.70753 0.66927 -0.09852
 H67 H 0.66243 0.66441 0.02365
 H68 H 0.66890 0.70667 -0.09928
 C69 C 0.72240 0.39539 0.98587
 C70 C 0.72260 0.39537 1.01410
 C71 C 0.70998 0.37137 1.02239
 N72 N 0.70220 0.35669 1.00018
 C73 C 0.70967 0.37141 0.97783
 C74 C 0.70706 0.36283 1.05006
 C75 C 0.69076 0.34037 1.05821
 C76 C 0.69086 0.32891 1.08431
 C77 C 0.67059 0.30950 1.08471
 C78 C 0.65875 0.30929 1.05866
 N79 N 0.67115 0.32838 1.04276
 C80 C 0.63518 0.29409 1.05107
 C81 C 0.62637 0.29123 1.02331
 C82 C 0.60298 0.27746 1.01491
 C83 C 0.60322 0.27722 0.98670
 C84 C 0.62686 0.29050 0.97859
 N85 N 0.64104 0.29885 1.00096
 C86 C 0.63572 0.29310 0.95098
 C87 C 0.65829 0.30922 0.94288
 C88 C 0.67050 0.30827 0.91712
 C89 C 0.69051 0.32800 0.91689
 C90 C 0.68999 0.34041 0.94252
 N91 N 0.67022 0.32894 0.95818
 C92 C 0.70647 0.36282 0.95025
 H93 H 0.73069 0.41128 0.97277
 H94 H 0.73106 0.41124 1.02703
 H95 H 0.66321 0.33628 0.97694
 H96 H 0.70372 0.33445 1.10157
 H97 H 0.66484 0.29762 1.10258
 H98 H 0.58759 0.26786 1.02762
 H99 H 0.58790 0.26789 0.97368
 H100 H 0.70381 0.33276 0.89975
 H101 H 0.66427 0.33539 1.02380
 H102 H 0.66541 0.29488 0.90017
 C103 C 0.25822 0.62402 0.98586
 C104 C 0.25790 0.62496 1.01406
 C105 C 0.28147 0.63857 1.02217
 N106 N 0.29622 0.64564 0.99971
 C107 C 0.28206 0.63679 0.97754
 C108 C 0.29105 0.64075 1.04966
 C109 C 0.31477 0.65591 1.05672
 C110 C 0.32853 0.65417 1.08169
 C111 C 0.34896 0.67335 1.08106
 C112 C 0.34680 0.68699 1.05607
 N113 N 0.32597 0.67614 1.04131
 C114 C 0.36342 0.70933 1.04773
 C115 C 0.36510 0.71760 1.01974
 C116 C 0.37558 0.74237 1.01059
 C117 C 0.37564 0.74139 0.98240
 C118 C 0.36472 0.71632 0.97522
 N119 N 0.35819 0.70179 0.99802
 C120 C 0.36300 0.70638 0.94804
 C121 C 0.34651 0.68390 0.94076
 C122 C 0.34795 0.66994 0.91600
 C123 C 0.32766 0.65051 0.91658
 C124 C 0.31441 0.65319 0.94169
 N125 N 0.32591 0.67372 0.95620
 C126 C 0.29163 0.63757 0.95010
 H127 H 0.24302 0.61428 0.97300
 H128 H 0.24248 0.61565 1.02696
 H129 H 0.31847 0.68212 0.97436
 H130 H 0.32432 0.64074 1.09888
 H131 H 0.36366 0.67684 1.09732
 H132 H 0.38258 0.75936 1.02293
 H133 H 0.38286 0.75732 0.96872
 H134 H 0.32316 0.63607 0.90035
 H135 H 0.31804 0.68408 1.02309
 H136 H 0.36210 0.67342 0.89924
 C137 C 0.01592 0.37660 0.25671
 C138 C -0.01202 0.37680 0.25618
 C139 C -0.02073 0.36608 0.28119
 N140 N 0.00100 0.35879 0.29671
 C141 C 0.02337 0.36531 0.28176
 C142 C -0.04830 0.36454 0.28995
 C143 C -0.05633 0.34770 0.31243
 C144 C -0.08082 0.34987 0.32656
 C145 C -0.08133 0.32919 0.34567
 C146 C -0.05676 0.31527 0.34343
 N147 N -0.04173 0.32662 0.32293
 C148 C -0.04974 0.29128 0.35833
 C149 C -0.02257 0.28147 0.36006
 C150 C -0.01454 0.25767 0.37343
 C151 C 0.01342 0.25777 0.37396
 C152 C 0.02168 0.28169 0.36120
 N153 N -0.00030 0.29614 0.35274
 C154 C 0.04894 0.29106 0.36005
 C155 C 0.05719 0.31400 0.34444
 C156 C 0.08220 0.32708 0.34695
 C157 C 0.08263 0.34759 0.32755
 C158 C 0.05787 0.34645 0.31377
 N159 N 0.04257 0.32583 0.32404
 C160 C 0.05046 0.36324 0.29136
 H161 H 0.02924 0.38392 0.24051
 H162 H -0.02449 0.38412 0.23931
 H163 H 0.02438 0.31859 0.31573
 H164 H -0.09685 0.36473 0.32345
 H165 H -0.09818 0.32493 0.35939
 H166 H -0.02731 0.24225 0.38284
 H167 H 0.02618 0.24236 0.38344
 H168 H 0.09929 0.36169 0.32397
 H169 H -0.02390 0.31865 0.31457
 H170 H 0.09848 0.32233 0.36126
 C171 C -0.01117 0.72025 0.60468
 C172 C 0.01676 0.71996 0.60524
 C173 C 0.02420 0.70959 0.63071
 N174 N 0.00177 0.70376 0.64589
 C175 C -0.01996 0.71050 0.63006
 C176 C 0.05138 0.70706 0.64004
 C177 C 0.05873 0.69090 0.66296
 C178 C 0.08394 0.69147 0.67594
 C179 C 0.08361 0.67108 0.69551
 C180 C 0.05820 0.65867 0.69389
 N181 N 0.04319 0.67088 0.67399
 C182 C 0.05008 0.63556 0.70930
 C183 C 0.02264 0.62691 0.71122
 C184 C 0.01410 0.60241 0.72268
 C185 C -0.01388 0.60273 0.72225
 C186 C -0.02147 0.62743 0.71054
 N187 N 0.00086 0.64220 0.70386
 C188 C -0.04856 0.63687 0.70813
 C189 C -0.05574 0.66022 0.69265
 C190 C -0.08020 0.67413 0.69515
 C191 C -0.07993 0.69451 0.67564
 C192 C -0.05546 0.69224 0.66141
 N193 N -0.04072 0.67138 0.67210
 C194 C -0.04762 0.70865 0.63857
 H195 H -0.02356 0.72669 0.58739
 H196 H 0.03008 0.72635 0.58865
 H197 H -0.02282 0.66336 0.66393
 H198 H 0.10094 0.70490 0.67150
 H199 H 0.10028 0.66579 0.70913
 H200 H 0.02669 0.58606 0.73066
 H201 H -0.02711 0.58670 0.72987
 H202 H -0.09597 0.70934 0.67237
 H203 H 0.02474 0.66389 0.66611
 H204 H -0.09652 0.67007 0.70961
 C205 C 1.01548 0.71821 0.39913
 C206 C 0.98753 0.71886 0.39894
 C207 C 0.97930 0.70703 0.37442
 N208 N 1.00130 0.69913 0.35966
 C209 C 1.02353 0.70570 0.37480
 C210 C 0.95199 0.70557 0.36516
 C211 C 0.94390 0.69059 0.34170
 C212 C 0.91859 0.69258 0.32902
 C213 C 0.91816 0.67344 0.30832
 C214 C 0.94323 0.66037 0.30894
 N215 N 0.95877 0.67090 0.32933
 C216 C 0.95048 0.63787 0.29243
 C217 C 0.97765 0.62874 0.28975
 C218 C 0.98513 0.60367 0.27906
 C219 C 1.01306 0.60321 0.27883
 C220 C 1.02180 0.62824 0.28895
 N221 N 1.00005 0.64377 0.29583
 C222 C 1.04945 0.63667 0.29107
 C223 C 1.05730 0.65913 0.30781
 C224 C 1.08210 0.67273 0.30612
 C225 C 1.08260 0.69146 0.32712
 C226 C 1.05776 0.68946 0.34075
 N227 N 1.04250 0.66963 0.32881
 C228 C 1.05081 0.70353 0.36530
 H229 H 1.02826 0.72683 0.41507
 H230 H 0.97476 0.72759 0.41483
 H231 H 1.02453 0.66139 0.33664
 H232 H 0.90203 0.70617 0.33435
 H233 H 0.90122 0.66937 0.29461
 H234 H 0.97183 0.58728 0.27244
 H235 H 1.02547 0.58619 0.27221
 H236 H 1.09966 0.70463 0.33191
 H237 H 0.97709 0.66284 0.33642
 H238 H 1.09840 0.66929 0.29152
 C239 C 0.98476 0.37565 0.74242
 C240 C 1.01273 0.37494 0.74273
 C241 C 1.02071 0.36234 0.71850
 N242 N 0.99862 0.35529 0.70344
 C243 C 0.97662 0.36346 0.71802
 C244 C 1.04791 0.36020 0.70928
 C245 C 1.05558 0.34432 0.68631
 C246 C 1.08003 0.34706 0.67226
 C247 C 1.07995 0.32772 0.65181
 C248 C 1.05562 0.31332 0.65416
 N249 N 1.04082 0.32368 0.67524
 C250 C 1.04765 0.29109 0.63718
 C251 C 1.02002 0.28255 0.63546
 C252 C 1.01122 0.25770 0.62496
 C253 C 0.98329 0.25846 0.62469
 C254 C 0.97589 0.28350 0.63550
 N255 N 0.99832 0.29821 0.64220
 C256 C 0.94885 0.29326 0.63687
 C257 C 0.94127 0.31579 0.65319
 C258 C 0.91661 0.32952 0.65134
 C259 C 0.91675 0.34902 0.67171
 C260 C 0.94150 0.34661 0.68538
 N261 N 0.95623 0.32619 0.67408
 C262 C 0.94945 0.36230 0.70841
 H263 H 0.97190 0.38456 0.75813
 H264 H 1.02572 0.38324 0.75869
 H265 H 0.97422 0.31797 0.68187
 H266 H 1.09610 0.36176 0.67608
 H267 H 1.09591 0.32491 0.63669
 H268 H 1.02365 0.24080 0.61804
 H269 H 0.96993 0.24243 0.61735
 H270 H 0.90047 0.36331 0.67596
 H271 H 1.02280 0.31559 0.68318
 H272 H 0.90019 0.32583 0.63689
 C273 C 0.27894 -0.01349 0.39798
 C274 C 0.27896 0.01446 0.39767
 C275 C 0.28940 0.02230 0.37237
 N276 N 0.29554 0.00008 0.35704
 C277 C 0.28893 -0.02190 0.37261
 C278 C 0.29176 0.04961 0.36330
 C279 C 0.30799 0.05734 0.34058
 C280 C 0.30727 0.08265 0.32775
 C281 C 0.32776 0.08270 0.30837
 C282 C 0.34037 0.05741 0.30994
 N283 N 0.32820 0.04211 0.32963
 C284 C 0.36363 0.04968 0.29468
 C285 C 0.37252 0.02235 0.29260
 C286 C 0.39712 0.01420 0.28121
 C287 C 0.39703 -0.01380 0.28134
 C288 C 0.37237 -0.02179 0.29281
 N289 N 0.35741 0.00031 0.29964
 C290 C 0.36313 -0.04902 0.29484
 C291 C 0.33981 -0.05661 0.31013
 C292 C 0.32610 -0.08119 0.30731
 C293 C 0.30563 -0.08130 0.32666
 C294 C 0.30764 -0.05693 0.34110
 N295 N 0.32844 -0.04189 0.33071
 C296 C 0.29106 -0.04947 0.36386
 H297 H 0.27251 -0.02614 0.41509
 H298 H 0.27235 0.02754 0.41432
 H299 H 0.33626 -0.02397 0.33910
 H300 H 0.29366 0.09947 0.33216
 H301 H 0.33298 0.09955 0.29490
 H302 H 0.41337 0.02707 0.27345
 H303 H 0.41317 -0.02677 0.27367
 H304 H 0.29091 -0.09752 0.32967
 H305 H 0.33532 0.02365 0.33744
 H306 H 0.33034 -0.09733 0.29274
 C307 C 0.62406 -0.01329 0.74043
 C308 C 0.62358 0.01470 0.74033
 C309 C 0.63617 0.02297 0.71615
 N310 N 0.64437 0.00103 0.70151
 C311 C 0.63693 -0.02115 0.71630
 C312 C 0.63766 0.05024 0.70676
 C313 C 0.65364 0.05828 0.68394
 C314 C 0.65151 0.08316 0.67039
 C315 C 0.67121 0.08334 0.65020
 C316 C 0.68480 0.05859 0.65204
 N317 N 0.67410 0.04353 0.67275
 C318 C 0.70748 0.05102 0.63590
 C319 C 0.71721 0.02396 0.63461
 C320 C 0.74239 0.01655 0.62415
 C321 C 0.74312 -0.01140 0.62442
 C322 C 0.71810 -0.02020 0.63454
 N323 N 0.70237 0.00152 0.64107
 C324 C 0.70950 -0.04785 0.63610
 C325 C 0.68692 -0.05583 0.65262
 C326 C 0.67249 -0.08012 0.64989
 C327 C 0.65275 -0.08024 0.66998
 C328 C 0.65531 -0.05588 0.68419
 N329 N 0.67620 -0.04112 0.67357
 C330 C 0.63904 -0.04831 0.70693
 H331 H 0.61544 -0.02637 0.75619
 H332 H 0.61456 0.02749 0.75603
 H333 H 0.68421 -0.02317 0.68173
 H334 H 0.63726 0.09949 0.67461
 H335 H 0.67513 0.09986 0.63588
 H336 H 0.75855 0.02992 0.61707
 H337 H 0.76011 -0.02383 0.61776
 H338 H 0.63794 -0.09629 0.67345
 H339 H 0.68213 0.02543 0.68053
 H340 H 0.67555 -0.09600 0.63476
 C341 C 0.39641 1.01407 0.72005
 C342 C 0.39641 0.98607 0.72018
 C343 C 0.37183 0.97794 0.70865
 N344 N 0.35682 0.99999 0.70152
 C345 C 0.37184 1.02209 0.70844
 C346 C 0.36287 0.95061 0.70645
 C347 C 0.33966 0.94292 0.69106
 C348 C 0.32696 0.91764 0.69252
 C349 C 0.30661 0.91769 0.67295
 C350 C 0.30751 0.94300 0.66013
 N351 N 0.32768 0.95824 0.67127
 C352 C 0.29151 0.95073 0.63724
 C353 C 0.28929 0.97804 0.62819
 C354 C 0.27907 0.98590 0.60279
 C355 C 0.27909 1.01385 0.60254
 C356 C 0.28890 1.02223 0.62801
 N357 N 0.29535 1.00023 0.64361
 C358 C 0.29097 1.04978 0.63684
 C359 C 0.30749 1.05727 0.65967
 C360 C 0.30550 1.08166 0.67408
 C361 C 0.32588 1.08154 0.69355
 C362 C 0.33951 1.05694 0.69085
 N363 N 0.32819 1.04221 0.67021
 C364 C 0.36272 1.04933 0.70631
 H365 H 0.41258 1.02703 0.72781
 H366 H 0.41259 0.97319 0.72802
 H367 H 0.33598 1.02427 0.66190
 H368 H 0.33204 0.90078 0.70603
 H369 H 0.29299 0.90088 0.66841
 H370 H 0.27255 0.97285 0.58607
 H371 H 0.27280 1.02653 0.58540
 H372 H 0.33010 1.09769 0.70813
 H373 H 0.33493 0.97667 0.66350
 H374 H 0.29086 1.09789 0.67095
 C375 C 0.72008 1.01195 0.39735
 C376 C 0.72049 0.98399 0.39695
 C377 C 0.71083 0.97624 0.37133
 N378 N 0.70472 0.99849 0.35593
 C379 C 0.71064 1.02040 0.37174
 C380 C 0.70926 0.94904 0.36195
 C381 C 0.69367 0.94148 0.33876
 C382 C 0.69505 0.91648 0.32550
 C383 C 0.67483 0.91649 0.30579
 C384 C 0.66173 0.94149 0.30764
 N385 N 0.67336 0.95659 0.32772
 C386 C 0.63821 0.94905 0.29273
 C387 C 0.62870 0.97620 0.29159
 C388 C 0.60292 0.98383 0.28281
 C389 C 0.60238 1.01179 0.28322
 C390 C 0.62806 1.02035 0.29173
 N391 N 0.64405 0.99851 0.29713
 C392 C 0.63692 1.04788 0.29315
 C393 C 0.66043 1.05525 0.30856
 C394 C 0.67553 1.07892 0.30464
 C395 C 0.69579 1.07891 0.32421
 C396 C 0.69258 1.05523 0.33963
 N397 N 0.67119 1.04070 0.32971
 C398 C 0.70880 1.04791 0.36274
 H399 H 0.72601 1.02459 0.41462
 H400 H 0.72695 0.97086 0.41368
 H401 H 0.66281 1.02320 0.33858
 H402 H 0.70886 0.89980 0.32991
 H403 H 0.66999 0.89981 0.29202
 H404 H 0.58620 0.97062 0.27693
 H405 H 0.58501 1.02435 0.27787
 H406 H 0.71130 1.09447 0.32660
 H407 H 0.66573 0.97474 0.33569
 H408 H 0.67248 1.09448 0.28908
 O409 O 0.81712 0.85372 0.52736
 O410 O 0.85525 0.81549 0.47495
 O411 O 0.81755 0.85292 0.47402
 O412 O 0.85498 0.81633 0.52836
 O413 O 0.82329 0.78414 0.52883
 O414 O 0.78567 0.82091 0.47427
 O415 O 0.82354 0.78331 0.47522
 O416 O 0.78525 0.82170 0.52783
 Cu417 Cu 0.83942 0.83783 0.50116
 Cu418 Cu 0.80123 0.79925 0.50160
 C419 C 0.79463 0.84437 0.53623
 C420 C 0.84596 0.79288 0.46635
 C421 C 0.79521 0.84326 0.46511
 C422 C 0.84564 0.79397 0.53760
 O423 O 0.14583 0.18452 0.47358
 O424 O 0.18329 0.14725 0.52738
 O425 O 0.14569 0.18482 0.52689
 O426 O 0.18348 0.14696 0.47394
 O427 O 0.21547 0.17885 0.47374
 O428 O 0.17751 0.21689 0.52691
 O429 O 0.21529 0.17913 0.52741
 O430 O 0.17764 0.21659 0.47339
 Cu431 Cu 0.16139 0.16265 0.50046
 Cu432 Cu 0.19974 0.20108 0.50035
 C433 C 0.15521 0.20698 0.46461
 C434 C 0.20567 0.15674 0.53636
 C435 C 0.15502 0.20736 0.53564
 C436 C 0.20591 0.15638 0.46501
 O437 O 0.14729 0.81375 0.52689
 O438 O 0.18369 0.85139 0.47261
 O439 O 0.14681 0.81292 0.47350
 O440 O 0.18410 0.85209 0.52602
 O441 O 0.21670 0.82091 0.52640
 O442 O 0.17929 0.78161 0.47370
 O443 O 0.21634 0.82025 0.47279
 O444 O 0.17974 0.78240 0.52729
 Cu445 Cu 0.16221 0.83568 0.49969
 Cu446 Cu 0.20132 0.79813 0.50003
 C447 C 0.15723 0.79167 0.53616
 C448 C 0.20626 0.84238 0.46371
 C449 C 0.15658 0.79053 0.46493
 C450 C 0.20674 0.84322 0.53498
 O451 O 0.85280 0.18602 0.52427
 O452 O 0.81637 0.14748 0.47074
 O453 O 0.85396 0.18518 0.47090
 O454 O 0.81536 0.14811 0.52411
 O455 O 0.78326 0.17980 0.52301
 O456 O 0.82201 0.21701 0.46962
 O457 O 0.78427 0.17916 0.46945
 O458 O 0.82087 0.21787 0.52317
 Cu459 Cu 0.83784 0.16351 0.49764
 Cu460 Cu 0.79936 0.20168 0.49621
 C461 C 0.84317 0.20856 0.53257
 C462 C 0.79408 0.15665 0.46121
 C463 C 0.84465 0.20744 0.46142
 C464 C 0.79269 0.15750 0.53235
 O465 O 0.47397 0.85204 0.81337
 O466 O 0.52745 0.81436 0.85038
 O467 O 0.52686 0.85257 0.81291
 O468 O 0.47458 0.81358 0.85056
 O469 O 0.47461 0.78219 0.81789
 O470 O 0.52708 0.82130 0.78012
 O471 O 0.52768 0.78291 0.81776
 O472 O 0.47398 0.82082 0.78053
 Cu473 Cu 0.50071 0.83629 0.83509
 Cu474 Cu 0.50085 0.79864 0.79575
 C475 C 0.46508 0.84296 0.79063
 C476 C 0.53643 0.79218 0.84051
 C477 C 0.53565 0.84366 0.79007
 C478 C 0.46592 0.79121 0.84074
 O479 O 0.52748 0.18600 0.14924
 O480 O 0.47474 0.14780 0.18695
 O481 O 0.47468 0.18634 0.14984
 O482 O 0.52770 0.14759 0.18655
 O483 O 0.52834 0.17869 0.21950
 O484 O 0.47512 0.21763 0.18262
 O485 O 0.47516 0.17891 0.21990
 O486 O 0.52810 0.21728 0.18203
 Cu487 Cu 0.50110 0.16377 0.16488
 Cu488 Cu 0.50174 0.20126 0.20437
 C489 C 0.53647 0.20823 0.15906
 C490 C 0.46614 0.15678 0.20983
 C491 C 0.46615 0.20865 0.15983
 C492 C 0.53686 0.15645 0.20928
 O493 O 0.52584 0.14622 0.81489
 O494 O 0.47365 0.18375 0.85374
 O495 O 0.47294 0.14630 0.81564
 O496 O 0.52651 0.18354 0.85312
 O497 O 0.52628 0.21577 0.82113
 O498 O 0.47253 0.17838 0.78350
 O499 O 0.47325 0.21598 0.82175
 O500 O 0.52561 0.17830 0.78275
 Cu501 Cu 0.49976 0.16172 0.83756
 Cu502 Cu 0.49939 0.20036 0.79902
 C503 C 0.53438 0.15577 0.79217
 C504 C 0.46483 0.20632 0.84449
 C505 C 0.46383 0.15589 0.79315
 C506 C 0.53527 0.20605 0.84364
 O507 O 0.52536 0.85376 0.18504
 O508 O 0.47231 0.81663 0.14681
 O509 O 0.47239 0.85401 0.18503
 O510 O 0.52513 0.81661 0.14677
 O511 O 0.52513 0.78431 0.17869
 O512 O 0.47218 0.82187 0.21710
 O513 O 0.47212 0.78432 0.17872
 O514 O 0.52536 0.82162 0.21712
 Cu515 Cu 0.49877 0.83852 0.16273
 Cu516 Cu 0.49865 0.79979 0.20118
 C517 C 0.53426 0.84405 0.20755
 C518 C 0.46351 0.79406 0.15608
 C519 C 0.46351 0.84441 0.20759
 C520 C 0.53388 0.79406 0.15611
 O521 O 0.81444 0.47377 0.85314
 O522 O 0.85231 0.52722 0.81605
 O523 O 0.81441 0.52675 0.85364
 O524 O 0.85231 0.47434 0.81548
 O525 O 0.82072 0.47460 0.78292
 O526 O 0.78265 0.52722 0.82125
 O527 O 0.82071 0.52769 0.78349
 O528 O 0.78267 0.47404 0.82075
 Cu529 Cu 0.83653 0.50047 0.83786
 Cu530 Cu 0.79846 0.50091 0.79882
 C531 C 0.79210 0.46499 0.84335
 C532 C 0.84307 0.53633 0.79343
 C533 C 0.79209 0.53574 0.84401
 C534 C 0.84309 0.46580 0.79265
 O535 O 0.18546 0.47508 0.14573
 O536 O 0.14724 0.52791 0.18294
 O537 O 0.18505 0.52802 0.14526
 O538 O 0.14772 0.47499 0.18362
 O539 O 0.17942 0.47548 0.21607
 O540 O 0.21685 0.52867 0.17761
 O541 O 0.17889 0.52858 0.21544
 O542 O 0.21731 0.47556 0.17803
 Cu543 Cu 0.16318 0.50142 0.16113
 Cu544 Cu 0.20134 0.50211 0.20006
 C545 C 0.20794 0.46657 0.15542
 C546 C 0.15646 0.53704 0.20553
 C547 C 0.20733 0.53719 0.15484
 C548 C 0.15709 0.46647 0.20643
 O549 O 0.81367 0.52786 0.14717
 O550 O 0.85253 0.47521 0.18423
 O551 O 0.81435 0.47488 0.14680
 O552 O 0.85194 0.52808 0.18436
 O553 O 0.82067 0.52756 0.21719
 O554 O 0.78291 0.47414 0.17946
 O555 O 0.82126 0.47448 0.21706
 O556 O 0.78222 0.52734 0.17983
 Cu557 Cu 0.83625 0.50155 0.16233
 Cu558 Cu 0.79856 0.50079 0.20168
 C559 C 0.79137 0.53643 0.15714
 C560 C 0.84365 0.46616 0.20702
 C561 C 0.79222 0.46564 0.15665
 C562 C 0.84282 0.53667 0.20718
 O563 O 0.14653 0.47056 0.81724
 O564 O 0.18491 0.52300 0.85516
 O565 O 0.14676 0.52348 0.81772
 O566 O 0.18452 0.47005 0.85495
 O567 O 0.21613 0.47011 0.82245
 O568 O 0.17821 0.52372 0.78507
 O569 O 0.21650 0.52323 0.82264
 O570 O 0.17801 0.47064 0.78461
 Cu571 Cu 0.16252 0.49674 0.83954
 Cu572 Cu 0.20041 0.49692 0.80040
 C573 C 0.15562 0.46194 0.79441
 C574 C 0.20725 0.53185 0.84542
 C575 C 0.15596 0.53249 0.79504
 C576 C 0.20680 0.46122 0.84515
 C577 C 0.25132 0.41377 0.10780
 C578 C 0.26668 0.42512 0.08632
 C579 C 0.28027 0.40818 0.06777
 C580 C 0.27858 0.37969 0.07047
 C581 C 0.26356 0.36834 0.09231
 C582 C 0.24992 0.38535 0.11089
 C583 C 0.23619 0.43148 0.12579
 C584 C 0.22336 0.44709 0.13989
 H585 H 0.26784 0.44706 0.08370
 H586 H 0.29187 0.41722 0.05108
 H587 H 0.26209 0.34639 0.09465
 H588 H 0.23802 0.37636 0.12739
 C589 C 0.74902 0.59119 0.11057
 C590 C 0.76327 0.60574 0.09030
 C591 C 0.74912 0.62187 0.07133
 C592 C 0.72054 0.62355 0.07242
 C593 C 0.70637 0.60957 0.09328
 C594 C 0.72057 0.59340 0.11225
 C595 C 0.76351 0.57255 0.12821
 C596 C 0.77604 0.55634 0.14198
 H597 H 0.78526 0.60406 0.08872
 H598 H 0.76033 0.63250 0.05534
 H599 H 0.68431 0.61054 0.09429
 H600 H 0.70934 0.58209 0.12776
 C601 C 0.74993 0.41021 0.89019
 C602 C 0.72135 0.40951 0.88978
 C603 C 0.70717 0.39337 0.90881
 C604 C 0.72148 0.37792 0.92845
 C605 C 0.75014 0.37808 0.92825
 C606 C 0.76428 0.39420 0.90923
 C607 C 0.76452 0.42878 0.87251
 C608 C 0.77699 0.44498 0.85865
 H609 H 0.71005 0.42193 0.87524
 H610 H 0.68507 0.39352 0.90877
 H611 H 0.76145 0.36625 0.94328
 H612 H 0.78638 0.39470 0.90982
 C613 C 0.25075 0.58503 0.89273
 C614 C 0.26637 0.57393 0.91414
 C615 C 0.28006 0.59108 0.93248
 C616 C 0.27821 0.61954 0.92961
 C617 C 0.26296 0.63065 0.90781
 C618 C 0.24923 0.61343 0.88944
 C619 C 0.23553 0.56711 0.87498
 C620 C 0.22265 0.55138 0.86099
 H621 H 0.26765 0.55201 0.91690
 H622 H 0.29181 0.58223 0.94916
 H623 H 0.26135 0.65257 0.90536
 H624 H 0.23714 0.62222 0.87298
 C625 C 0.10702 0.24993 0.41162
 C626 C 0.10966 0.24869 0.38291
 C627 C 0.09097 0.26238 0.36601
 C628 C 0.06948 0.27730 0.37775
 C629 C 0.06721 0.27880 0.40653
 C630 C 0.08587 0.26515 0.42336
 C631 C 0.12522 0.23487 0.42927
 C632 C 0.13949 0.22217 0.44494
 H633 H 0.12591 0.23691 0.37362
 H634 H 0.09297 0.26108 0.34383
 H635 H 0.05081 0.29031 0.41588
 H636 H 0.08361 0.26620 0.44554
 C637 C 0.11099 0.75009 0.59199
 C638 C 0.09120 0.76456 0.60673
 C639 C 0.07234 0.75059 0.62310
 C640 C 0.07306 0.72198 0.62483
 C641 C 0.09342 0.70758 0.61065
 C642 C 0.11229 0.72160 0.59424
 C643 C 0.12853 0.76438 0.57305
 C644 C 0.14221 0.77668 0.55653
 H645 H 0.08992 0.78658 0.60501
 H646 H 0.05674 0.76198 0.63389
 H647 H 0.09416 0.68550 0.61165
 H648 H 0.12741 0.71019 0.58278
 C649 C 0.89332 0.75013 0.41265
 C650 C 0.91312 0.76414 0.39735
 C651 C 0.93182 0.74966 0.38133
 C652 C 0.93092 0.72102 0.38055
 C653 C 0.91062 0.70708 0.39539
 C654 C 0.89192 0.72159 0.41142
 C655 C 0.87561 0.76498 0.43087
 C656 C 0.86160 0.77763 0.44675
 H657 H 0.91446 0.78620 0.39825
 H658 H 0.94734 0.76069 0.36996
 H659 H 0.90971 0.68498 0.39502
 H660 H 0.87676 0.71055 0.42328
 C661 C 0.89046 0.25258 0.58537
 C662 C 0.91240 0.26674 0.57364
 C663 C 0.93105 0.28040 0.59044
 C664 C 0.92797 0.28001 0.61919
 C665 C 0.90564 0.26622 0.63090
 C666 C 0.88696 0.25250 0.61402
 C667 C 0.87246 0.23722 0.56781
 C668 C 0.85847 0.22419 0.55219
 H669 H 0.91534 0.26687 0.55152
 H670 H 0.94814 0.29098 0.58110
 H671 H 0.90304 0.26568 0.65305
 H672 H 0.87010 0.24151 0.62330
 C673 C 0.41174 0.10913 0.25149
 C674 C 0.39701 0.08944 0.23680
 C675 C 0.38076 0.07052 0.25082
 C676 C 0.37917 0.07108 0.27969
 C677 C 0.39342 0.09130 0.29431
 C678 C 0.40969 0.11022 0.28025
 C679 C 0.43024 0.12700 0.23711
 C680 C 0.44633 0.14110 0.22479
 H681 H 0.39854 0.08834 0.21456
 H682 H 0.36985 0.05507 0.23926
 H683 H 0.39244 0.09194 0.31659
 H684 H 0.42111 0.12529 0.29182
 C685 C 0.58653 0.10819 0.74803
 C686 C 0.61496 0.11110 0.74910
 C687 C 0.63171 0.09252 0.73523
 C688 C 0.62010 0.07088 0.72033
 C689 C 0.59160 0.06839 0.71894
 C690 C 0.57491 0.08693 0.73275
 C691 C 0.56907 0.12613 0.76345
 C692 C 0.55365 0.14020 0.77651
 H693 H 0.62415 0.12743 0.76093
 H694 H 0.65368 0.09469 0.73649
 H695 H 0.58234 0.05185 0.70745
 H696 H 0.55295 0.08446 0.73184
 C697 C 0.41064 0.89076 0.74935
 C698 C 0.40857 0.88985 0.72059
 C699 C 0.39244 0.90894 0.70663
 C700 C 0.37835 0.92913 0.72135
 C701 C 0.37997 0.92953 0.75023
 C702 C 0.39608 0.91045 0.76415
 C703 C 0.42907 0.87276 0.76361
 C704 C 0.44516 0.85860 0.77581
 H705 H 0.41988 0.87480 0.70894
 H706 H 0.39144 0.90841 0.68434
 H707 H 0.36918 0.94496 0.76187
 H708 H 0.39765 0.91141 0.78639
 C709 C 0.58960 0.89038 0.24927
 C710 C 0.59322 0.88784 0.27780
 C711 C 0.60977 0.90645 0.29191
 C712 C 0.62272 0.92777 0.27759
 C713 C 0.61957 0.92977 0.24890
 C714 C 0.60307 0.91117 0.23483
 C715 C 0.57073 0.87289 0.23497
 C716 C 0.55435 0.85920 0.22263
 H717 H 0.58277 0.87192 0.28918
 H718 H 0.61187 0.90473 0.31406
 H719 H 0.62941 0.94611 0.23756
 H720 H 0.60030 0.91339 0.21279
 C721 C 0.41380 0.24930 0.89432
 C722 C 0.38641 0.25470 0.88824
 C723 C 0.37011 0.26863 0.90725
 C724 C 0.38097 0.27724 0.93274
 C725 C 0.40872 0.27193 0.93831
 C726 C 0.42491 0.25808 0.91931
 C727 C 0.43068 0.23429 0.87545
 C728 C 0.44578 0.22156 0.86071
 H729 H 0.37758 0.24789 0.86897
 H730 H 0.34879 0.27194 0.90238
 H731 H 0.41806 0.27886 0.95730
 H732 H 0.44613 0.25414 0.92416
 C733 C 0.59025 0.74989 0.88822
 C734 C 0.59181 0.72136 0.88705
 C735 C 0.60736 0.70706 0.90647
 C736 C 0.62132 0.72121 0.92730
 C737 C 0.62033 0.74986 0.92788
 C738 C 0.60481 0.76411 0.90846
 C739 C 0.57214 0.76450 0.87011
 C740 C 0.55623 0.77701 0.85598
 H741 H 0.58049 0.71015 0.87157
 H742 H 0.60790 0.68497 0.90578
 H743 H 0.63106 0.76107 0.94377
 H744 H 0.60363 0.78617 0.90964
 C745 C 0.41239 0.75107 0.10617
 C746 C 0.42360 0.74242 0.08121
 C747 C 0.40752 0.72851 0.06211
 C748 C 0.37978 0.72299 0.06756
 C749 C 0.36882 0.73149 0.09302
 C750 C 0.38501 0.74549 0.11213
 C751 C 0.42920 0.76610 0.12515
 C752 C 0.44432 0.77884 0.13992
 H753 H 0.44482 0.74651 0.07645
 H754 H 0.41694 0.72167 0.04316
 H755 H 0.34750 0.72801 0.09780
 H756 H 0.37611 0.75220 0.13138
 C757 C 0.58813 0.25260 0.11076
 C758 C 0.57734 0.27522 0.09688
 C759 C 0.59314 0.28930 0.07758
 C760 C 0.61999 0.28092 0.07189
 C761 C 0.63088 0.25846 0.08630
 C762 C 0.61500 0.24437 0.10561
 C763 C 0.57094 0.23697 0.12894
 C764 C 0.55567 0.22384 0.14325
 H765 H 0.55653 0.28167 0.10061
 H766 H 0.58433 0.30657 0.06679
 H767 H 0.65137 0.25138 0.08200
 H768 H 0.62346 0.22674 0.11607
 C769 C 0.24697 0.10889 0.59095
 C770 C 0.27397 0.11410 0.59877
 C771 C 0.28831 0.09499 0.61460
 C772 C 0.27592 0.07018 0.62262
 C773 C 0.24839 0.06572 0.61533
 C774 C 0.23413 0.08486 0.59960
 C775 C 0.23283 0.12713 0.57259
 C776 C 0.22060 0.14128 0.55643
 H777 H 0.28415 0.13259 0.59203
 H778 H 0.30951 0.09904 0.61944
 H779 H 0.23788 0.04732 0.62178
 H780 H 0.21321 0.08066 0.59374
 C781 C 0.75309 0.10754 0.40762
 C782 C 0.72638 0.11299 0.39903
 C783 C 0.71196 0.09366 0.38358
 C784 C 0.72396 0.06838 0.37675
 C785 C 0.75124 0.06367 0.38480
 C786 C 0.76558 0.08302 0.40014
 C787 C 0.76725 0.12614 0.42556
 C788 C 0.77939 0.14066 0.44141
 H789 H 0.71646 0.13187 0.40485
 H790 H 0.69097 0.09798 0.37810
 H791 H 0.76156 0.04495 0.37916
 H792 H 0.78629 0.07864 0.40658
 C793 C 0.75104 0.89391 0.58705
 C794 C 0.74468 0.88776 0.61448
 C795 C 0.73068 0.90678 0.63067
 C796 C 0.72300 0.93236 0.61967
 C797 C 0.72920 0.93796 0.59184
 C798 C 0.74310 0.91895 0.57578
 C799 C 0.76620 0.87507 0.57031
 C800 C 0.77912 0.86042 0.55528
 H801 H 0.75081 0.86844 0.62344
 H802 H 0.72664 0.90184 0.65204
 H803 H 0.72293 0.95698 0.58234
 H804 H 0.74776 0.92385 0.55451
 C805 C 0.24716 0.89100 0.40944
 C806 C 0.27420 0.88600 0.40171
 C807 C 0.28851 0.90528 0.38604
 C808 C 0.27605 0.93005 0.37807
 C809 C 0.24851 0.93432 0.38530
 C810 C 0.23427 0.91501 0.40089
 C811 C 0.23306 0.87254 0.42763
 C812 C 0.22096 0.85814 0.44368
 H813 H 0.28443 0.86755 0.40839
 H814 H 0.30973 0.90137 0.38125
 H815 H 0.23794 0.95268 0.37888
 H816 H 0.21332 0.91906 0.40669
 C817 C 0.10691 0.41032 0.75066
 C818 C 0.10943 0.38183 0.75148
 C819 C 0.09052 0.36540 0.73758
 C820 C 0.06891 0.37739 0.72291
 C821 C 0.06683 0.40596 0.72174
 C822 C 0.08571 0.42231 0.73558
 C823 C 0.12524 0.42747 0.76604
 C824 C 0.13965 0.44274 0.77899
 H825 H 0.12574 0.37234 0.76313
 H826 H 0.09240 0.34339 0.73864
 H827 H 0.05035 0.41552 0.71039
 H828 H 0.08354 0.44432 0.73483
 C829 C 0.10813 0.59071 0.24691
 C830 C 0.11314 0.59803 0.27430
 C831 C 0.09415 0.61380 0.28871
 C832 C 0.06967 0.62231 0.27599
 C833 C 0.06536 0.61541 0.24811
 C834 C 0.08438 0.59972 0.23378
 C835 C 0.12637 0.57261 0.23264
 C836 C 0.14067 0.55673 0.22040
 H837 H 0.13139 0.59100 0.28472
 H838 H 0.09804 0.61829 0.31020
 H839 H 0.04719 0.62218 0.23737
 H840 H 0.08033 0.59423 0.21255
 C841 C 0.89356 0.41452 0.24932
 C842 C 0.88749 0.38710 0.25471
 C843 C 0.90650 0.37057 0.26835
 C844 C 0.93198 0.38124 0.27667
 C845 C 0.93755 0.40902 0.27136
 C846 C 0.91854 0.42543 0.25780
 C847 C 0.87466 0.43163 0.23460
 C848 C 0.85989 0.44691 0.22208
 H849 H 0.86822 0.37842 0.24812
 H850 H 0.90162 0.34923 0.27166
 H851 H 0.95654 0.41821 0.27809
 H852 H 0.92339 0.44668 0.25386
 C853 C 0.89099 0.59045 0.75175
 C854 C 0.91121 0.60459 0.76632
 C855 C 0.93044 0.62035 0.75217
 C856 C 0.92968 0.62202 0.72330
 C857 C 0.90889 0.60846 0.70882
 C858 C 0.88966 0.59267 0.72301
 C859 C 0.87294 0.57219 0.76620
 C860 C 0.85876 0.55619 0.77853
 H861 H 0.91250 0.60291 0.78854
 H862 H 0.94630 0.63076 0.76363
 H863 H 0.90806 0.60952 0.68655
 H864 H 0.87419 0.58170 0.71153
 C865 C 0.75054 0.58960 0.89211
 C866 C 0.72368 0.59752 0.88652
 C867 C 0.70932 0.61350 0.90547
 C868 C 0.72158 0.62159 0.93049
 C869 C 0.74896 0.61412 0.93535
 C870 C 0.76323 0.59824 0.91637
 C871 C 0.76477 0.57137 0.87390
 C872 C 0.77706 0.55542 0.85969
 H873 H 0.71361 0.59081 0.86784
 H874 H 0.68822 0.61847 0.90110
 H875 H 0.75939 0.62061 0.95390
 H876 H 0.78407 0.59232 0.92086
 C877 C 0.25002 0.40720 0.89196
 C878 C 0.27674 0.41383 0.89967
 C879 C 0.29082 0.39739 0.91845
 C880 C 0.27834 0.37402 0.92972
 C881 C 0.25163 0.36725 0.92153
 C882 C 0.23757 0.38375 0.90274
 C883 C 0.23483 0.42545 0.87445
 C884 C 0.22205 0.44142 0.86059
 H885 H 0.28646 0.43208 0.89167
 H886 H 0.31117 0.40334 0.92483
 H887 H 0.24155 0.34941 0.93002
 H888 H 0.21683 0.37854 0.89707
 C889 C 0.24985 0.59154 0.10775
 C890 C 0.27660 0.58521 0.09998
 C891 C 0.29052 0.60191 0.08130
 C892 C 0.27784 0.62523 0.07019
 C893 C 0.25111 0.63169 0.07844
 C894 C 0.23721 0.61493 0.09713
 C895 C 0.23488 0.57310 0.12525
 C896 C 0.22230 0.55703 0.13918
 H897 H 0.28647 0.56702 0.10788
 H898 H 0.31090 0.59620 0.07487
 H899 H 0.24089 0.64948 0.07007
 H900 H 0.21645 0.61992 0.10287
 C901 C 0.75028 0.41097 0.10959
 C902 C 0.72170 0.41048 0.10965
 C903 C 0.70759 0.39418 0.09077
 C904 C 0.72199 0.37831 0.07162
 C905 C 0.75063 0.37834 0.07210
 C906 C 0.76471 0.39463 0.09098
 C907 C 0.76482 0.42953 0.12727
 C908 C 0.77721 0.44570 0.14119
 H909 H 0.71034 0.42315 0.12385
 H910 H 0.68549 0.39444 0.09057
 H911 H 0.76201 0.36622 0.05744
 H912 H 0.78681 0.39496 0.09065
 C913 C 0.89373 0.75283 0.59219
 C914 C 0.91784 0.76555 0.60073
 C915 C 0.93686 0.75123 0.61656
 C916 C 0.93221 0.72376 0.62405
 C917 C 0.90736 0.71147 0.61605
 C918 C 0.88837 0.72588 0.60013
 C919 C 0.87550 0.76704 0.57385
 C920 C 0.86127 0.77921 0.55771
 H921 H 0.92217 0.78645 0.59477
 H922 H 0.95529 0.76168 0.62298
 H923 H 0.90315 0.69031 0.62101
 H924 H 0.86984 0.71577 0.59347
 C925 C 0.89238 0.24989 0.40747
 C926 C 0.90052 0.27643 0.41429
 C927 C 0.91923 0.29037 0.39770
 C928 C 0.92999 0.27793 0.37398
 C929 C 0.92147 0.25137 0.36709
 C930 C 0.90274 0.23745 0.38374
 C931 C 0.87465 0.23494 0.42571
 C932 C 0.86051 0.22239 0.44165
 H933 H 0.89283 0.28614 0.43275
 H934 H 0.92588 0.31060 0.40376
 H935 H 0.92956 0.24134 0.34898
 H936 H 0.89672 0.21685 0.37837
 C937 C 0.10581 0.25044 0.58726
 C938 C 0.08081 0.25866 0.57617
 C939 C 0.06183 0.27228 0.59254
 C940 C 0.06743 0.27790 0.62047
 C941 C 0.09298 0.26994 0.63128
 C942 C 0.11196 0.25623 0.61479
 C943 C 0.12457 0.23549 0.57022
 C944 C 0.13913 0.22273 0.55494
 H945 H 0.07589 0.25444 0.55483
 H946 H 0.04283 0.27877 0.58318
 H947 H 0.09792 0.27353 0.65272
 H948 H 0.13125 0.24985 0.62361
 C949 C 0.10952 0.74553 0.41267
 C950 C 0.09739 0.72169 0.42290
 C951 C 0.07849 0.70739 0.40689
 C952 C 0.07152 0.71675 0.38039
 C953 C 0.08417 0.74045 0.37005
 C954 C 0.10307 0.75475 0.38613
 C955 C 0.12717 0.76135 0.43019
 C956 C 0.14110 0.77467 0.44564
 H957 H 0.10210 0.71448 0.44347
 H958 H 0.06895 0.68923 0.41532
 H959 H 0.07876 0.74835 0.34990
 H960 H 0.11215 0.77332 0.37813
 C961 C 0.58790 0.89262 0.74715
 C962 C 0.57629 0.91409 0.73212
 C963 C 0.59298 0.93299 0.71865
 C964 C 0.62149 0.93067 0.72015
 C965 C 0.63310 0.90880 0.73477
 C966 C 0.61634 0.88986 0.74828
 C967 C 0.57042 0.87424 0.76217
 C968 C 0.55496 0.85976 0.77487
 H969 H 0.55433 0.91644 0.73112
 H970 H 0.58371 0.94968 0.70735
 H971 H 0.65507 0.90673 0.73608
 H972 H 0.62554 0.87335 0.75990
 C973 C 0.40976 0.89159 0.25029
 C974 C 0.40761 0.88974 0.27901
 C975 C 0.39177 0.90863 0.29349
 C976 C 0.37809 0.92959 0.27935
 C977 C 0.37971 0.93087 0.25049
 C978 C 0.39552 0.91199 0.23605
 C979 C 0.42796 0.87382 0.23552
 C980 C 0.44385 0.85986 0.22289
 H981 H 0.41864 0.87412 0.29024
 H982 H 0.39075 0.90739 0.31575
 H983 H 0.36921 0.94686 0.23928
 H984 H 0.39713 0.91368 0.21385
 C985 C 0.59072 0.10731 0.24980
 C986 C 0.60023 0.11290 0.27639
 C987 C 0.61608 0.09363 0.29048
 C988 C 0.62242 0.06828 0.27828
 C989 C 0.61340 0.06342 0.25110
 C990 C 0.59766 0.08271 0.23709
 C991 C 0.57258 0.12593 0.23593
 C992 C 0.55664 0.14045 0.22394
 H993 H 0.59486 0.13185 0.28647
 H994 H 0.62232 0.09807 0.31141
 H995 H 0.61862 0.04466 0.24058
 H996 H 0.59054 0.07823 0.21645
 C997 C 0.40957 0.10876 0.75082
 C998 C 0.39524 0.08842 0.76508
 C999 C 0.37935 0.06954 0.75065
 C1000 C 0.37775 0.07075 0.72179
 C1001 C 0.39152 0.09165 0.70762
 C1002 C 0.40743 0.11054 0.72209
 C1003 C 0.42789 0.12651 0.76554
 C1004 C 0.44394 0.14045 0.77807
 H1005 H 0.39684 0.08678 0.78729
 H1006 H 0.36878 0.05358 0.76189
 H1007 H 0.39051 0.09283 0.68536
 H1008 H 0.41854 0.12611 0.71084
 C1009 C 0.58745 0.75189 0.10817
 C1010 C 0.60223 0.76601 0.08797
 C1011 C 0.61820 0.75167 0.06907
 C1012 C 0.61944 0.72304 0.07014
 C1013 C 0.60509 0.70900 0.09083
 C1014 C 0.58912 0.72338 0.10974
 C1015 C 0.56931 0.76658 0.12611
 C1016 C 0.55347 0.77904 0.14030
 H1017 H 0.60099 0.78805 0.08649
 H1018 H 0.62919 0.76279 0.05326
 H1019 H 0.60580 0.68692 0.09189
 H1020 H 0.57765 0.71225 0.12519
 C1021 C 0.41416 0.25303 0.11194
 C1022 C 0.42598 0.26735 0.08999
 C1023 C 0.40950 0.28099 0.07097
 C1024 C 0.38099 0.28042 0.07365
 C1025 C 0.36918 0.26653 0.09603
 C1026 C 0.38573 0.25282 0.11509
 C1027 C 0.43141 0.23756 0.13021
 C1028 C 0.44679 0.22442 0.14438
 H1029 H 0.44793 0.26759 0.08731
 H1030 H 0.41893 0.29164 0.05385
 H1031 H 0.34721 0.26583 0.09834
 H1032 H 0.37638 0.24171 0.13194
 C1033 C 0.58907 0.24864 0.89115
 C1034 C 0.58917 0.27724 0.89076
 C1035 C 0.60496 0.29174 0.90978
 C1036 C 0.62069 0.27773 0.92941
 C1037 C 0.62109 0.24906 0.92926
 C1038 C 0.60530 0.23459 0.91024
 C1039 C 0.57095 0.23372 0.87332
 C1040 C 0.55505 0.22112 0.85925
 H1041 H 0.57657 0.28831 0.87619
 H1042 H 0.60440 0.31385 0.90969
 H1043 H 0.63316 0.23798 0.94427
 H1044 H 0.60527 0.21248 0.91083
 C1045 C 0.41389 0.74688 0.88872
 C1046 C 0.42556 0.73263 0.91079
 C1047 C 0.40896 0.71895 0.92967
 C1048 C 0.38046 0.71939 0.92671
 C1049 C 0.36881 0.73320 0.90421
 C1050 C 0.38549 0.74696 0.88529
 C1051 C 0.43125 0.76235 0.87054
 C1052 C 0.44664 0.77548 0.85636
 H1053 H 0.44749 0.73249 0.91368
 H1054 H 0.41826 0.70836 0.94689
 H1055 H 0.34685 0.73381 0.90170
 H1056 H 0.37625 0.75801 0.86833
 C1057 C 0.75328 0.88993 0.40985
 C1058 C 0.76734 0.91073 0.39599
 C1059 C 0.75308 0.92950 0.37975
 C1060 C 0.72458 0.92768 0.37725
 C1061 C 0.71063 0.90636 0.39061
 C1062 C 0.72493 0.88759 0.40688
 C1063 C 0.76778 0.87229 0.42855
 C1064 C 0.78018 0.85848 0.44488
 H1065 H 0.78924 0.91283 0.39826
 H1066 H 0.76415 0.94581 0.36959
 H1067 H 0.68864 0.90475 0.38901
 H1068 H 0.71383 0.87168 0.41765
 C1069 C 0.24817 0.89133 0.58923
 C1070 C 0.27661 0.88977 0.59163
 C1071 C 0.29071 0.90866 0.60789
 C1072 C 0.27646 0.92930 0.62181
 C1073 C 0.24789 0.93037 0.61984
 C1074 C 0.23383 0.91149 0.60359
 C1075 C 0.23380 0.87340 0.57077
 C1076 C 0.22155 0.85918 0.55473
 H1077 H 0.28792 0.87435 0.58049
 H1078 H 0.31276 0.90764 0.60909
 H1079 H 0.23659 0.94617 0.63044
 H1080 H 0.21184 0.91296 0.60178
 C1081 C 0.24799 0.10896 0.41079
 C1082 C 0.27646 0.11056 0.40873
 C1083 C 0.29071 0.09170 0.39263
 C1084 C 0.27658 0.07104 0.37854
 C1085 C 0.24798 0.06994 0.38016
 C1086 C 0.23378 0.08879 0.39623
 C1087 C 0.23344 0.12677 0.42918
 C1088 C 0.22100 0.14080 0.44521
 H1089 H 0.28767 0.12598 0.42004
 H1090 H 0.31277 0.09275 0.39171
 H1091 H 0.23678 0.05412 0.36942
 H1092 H 0.21177 0.08728 0.39779
 C1093 C 0.74865 0.10961 0.58478
 C1094 C 0.73473 0.08760 0.57294
 C1095 C 0.72094 0.06888 0.58961
 C1096 C 0.72095 0.07194 0.61836
 C1097 C 0.73453 0.09432 0.63018
 C1098 C 0.74838 0.11308 0.61343
 C1099 C 0.76404 0.12778 0.56735
 C1100 C 0.77708 0.14194 0.55184
 H1101 H 0.73486 0.08468 0.55082
 H1102 H 0.71053 0.05176 0.58016
 H1103 H 0.73479 0.09691 0.65233
 H1104 H 0.75917 0.12999 0.62282
 C1105 C 0.89035 0.59096 0.24896
 C1106 C 0.91040 0.60535 0.23437
 C1107 C 0.92947 0.62130 0.24847
 C1108 C 0.92872 0.62295 0.27734
 C1109 C 0.90813 0.60907 0.29185
 C1110 C 0.88905 0.59310 0.27770
 C1111 C 0.87244 0.57258 0.23454
 C1112 C 0.85837 0.55652 0.22218
 H1113 H 0.91168 0.60373 0.21215
 H1114 H 0.94523 0.63187 0.23698
 H1115 H 0.90735 0.61002 0.31413
 H1116 H 0.87372 0.58192 0.28921
 C1117 C 0.89129 0.41357 0.74928
 C1118 C 0.91295 0.42514 0.73452
 C1119 C 0.93160 0.40842 0.72090
 C1120 C 0.92882 0.37991 0.72196
 C1121 C 0.90681 0.36834 0.73638
 C1122 C 0.88812 0.38513 0.75005
 C1123 C 0.87313 0.43105 0.76441
 C1124 C 0.85886 0.44650 0.77724
 H1125 H 0.91563 0.44710 0.73383
 H1126 H 0.94842 0.41765 0.70978
 H1127 H 0.90440 0.34638 0.73738
 H1128 H 0.87147 0.37597 0.76148
 C1129 C 0.10875 0.58712 0.75318
 C1130 C 0.08897 0.60190 0.76765
 C1131 C 0.07030 0.61823 0.75341
 C1132 C 0.07118 0.61986 0.72454
 C1133 C 0.09146 0.60554 0.71015
 C1134 C 0.11013 0.58919 0.72442
 C1135 C 0.12642 0.56858 0.76774
 C1136 C 0.14038 0.55243 0.78012
 H1137 H 0.08764 0.60035 0.78988
 H1138 H 0.05481 0.62919 0.76481
 H1139 H 0.09235 0.60653 0.68788
 H1140 H 0.12526 0.57774 0.71302
 C1141 C 0.10925 0.41413 0.25047
 C1142 C 0.11232 0.38568 0.25004
 C1143 C 0.09355 0.36899 0.26387
 C1144 C 0.07154 0.38068 0.27812
 C1145 C 0.06891 0.40921 0.27888
 C1146 C 0.08765 0.42582 0.26512
 C1147 C 0.12735 0.43153 0.23503
 C1148 C 0.14149 0.44702 0.22199
 H1149 H 0.12892 0.37643 0.23869
 H1150 H 0.09580 0.34702 0.26302
 H1151 H 0.05208 0.41854 0.28982
 H1152 H 0.08504 0.44778 0.26555
   
