data_POSCAR
  _audit_creation_date              2014-09-24
  _audit_creation_method            'ToBaCCo'
  _symmetry_space_group_name_H-M    'P1'
  _symmetry_Int_Tables_number       1
  _symmetry_cell_setting            triclinic
  loop_
  _symmetry_equiv_pos_as_xyz
 x,y,z
_cell_length_a 68.9811
_cell_length_b 68.8169
_cell_length_c 27.7298
_cell_angle_alpha 90.023400
_cell_angle_beta 90.008700
_cell_angle_gamma 119.992000
loop_
  _atom_site_label
  _atom_site_type_symbol
  _atom_site_fract_x
  _atom_site_fract_y
  _atom_site_fract_z
C1 C 0.19784 0.50055 0.49553
 C2 C 0.21009 0.50444 0.45306
 C3 C 0.23085 0.50538 0.45406
 C4 C 0.23909 0.50116 0.49724
 C5 C 0.22608 0.49671 0.53959
 C6 C 0.20592 0.49701 0.53886
 C7 C 0.26095 0.50129 0.49799
 C8 C 0.27320 0.50509 0.54132
 C9 C 0.29327 0.50463 0.54194
 C10 C 0.30201 0.50152 0.49914
 C11 C 0.29055 0.49836 0.45579
 C12 C 0.26991 0.49762 0.45531
 H13 H 0.18193 0.50023 0.49485
 H14 H 0.24040 0.50947 0.42099
 H15 H 0.23130 0.49281 0.57324
 H16 H 0.26746 0.50856 0.57477
 H17 H 0.31779 0.50162 0.49955
 H18 H 0.26103 0.49407 0.42142
 C19 C 0.49769 -0.30369 0.50026
 C20 C 0.49468 -0.29511 0.45708
 C21 C 0.49422 -0.27498 0.45710
 C22 C 0.49800 -0.26246 0.50008
 C23 C 0.50158 -0.27125 0.54316
 C24 C 0.50081 -0.29199 0.54335
 C25 C 0.49828 -0.24043 0.49995
 C26 C 0.49462 -0.23154 0.54284
 C27 C 0.49559 -0.21072 0.54274
 C28 C 0.49898 -0.19903 0.49962
 C29 C 0.50203 -0.20771 0.45670
 C30 C 0.50231 -0.22791 0.45693
 H31 H 0.49761 -0.31951 0.50032
 H32 H 0.49080 -0.26939 0.42338
 H33 H 0.50513 -0.26215 0.57681
 H34 H 0.49093 -0.24055 0.57658
 H35 H 0.49929 -0.18311 0.49948
 H36 H 0.50584 -0.23348 0.42333
 C37 C 1.30268 0.80129 0.49841
 C38 C 1.29092 0.79260 0.45548
 C39 C 1.27038 0.77246 0.45590
 C40 C 1.26189 0.76006 0.49907
 C41 C 1.27447 0.76895 0.54185
 C42 C 1.29436 0.78967 0.54159
 C43 C 1.24013 0.73815 0.49948
 C44 C 1.22771 0.72960 0.54258
 C45 C 1.20773 0.70891 0.54299
 C46 C 1.19922 0.69704 0.50006
 C47 C 1.21085 0.70542 0.45693
 C48 C 1.23142 0.72546 0.45673
 H49 H 1.31832 0.81716 0.49833
 H50 H 1.26118 0.76680 0.42243
 H51 H 1.26912 0.76000 0.57565
 H52 H 1.23326 0.73887 0.57602
 H53 H 1.18348 0.68126 0.50011
 H54 H 1.24041 0.73084 0.42300
 C55 C 0.80232 0.50268 0.49907
 C56 C 0.79370 0.50600 0.45638
 C57 C 0.77351 0.50621 0.45698
 C58 C 0.76099 0.50187 0.50015
 C59 C 0.76985 0.49793 0.54271
 C60 C 0.79063 0.49895 0.54224
 C61 C 0.73897 0.50145 0.50078
 C62 C 0.73015 0.50480 0.54410
 C63 C 0.70940 0.50392 0.54456
 C64 C 0.69766 0.50079 0.50152
 C65 C 0.70627 0.49797 0.45826
 C66 C 0.72644 0.49773 0.45796
 H67 H 0.81823 0.50303 0.49873
 H68 H 0.76793 0.50995 0.42365
 H69 H 0.76082 0.49394 0.57644
 H70 H 0.73926 0.50827 0.57769
 H71 H 0.68182 0.50058 0.50152
 H72 H 0.73205 0.49456 0.42404
 C73 C 0.49869 0.30132 0.50043
 C74 C 0.49565 0.28953 0.45751
 C75 C 0.49498 0.26885 0.45806
 C76 C 0.49858 0.26019 0.50135
 C77 C 0.50225 0.27278 0.54412
 C78 C 0.50165 0.29282 0.54380
 C79 C 0.49850 0.23829 0.50195
 C80 C 0.49443 0.22580 0.54507
 C81 C 0.49495 0.20569 0.54563
 C82 C 0.49826 0.19709 0.50276
 C83 C 0.50170 0.20880 0.45962
 C84 C 0.50249 0.22952 0.45935
 H85 H 0.49868 0.31709 0.50000
 H86 H 0.49150 0.25971 0.42450
 H87 H 0.50565 0.26727 0.57796
 H88 H 0.49069 0.23138 0.57842
 H89 H 0.49810 0.18123 0.50286
 H90 H 0.50628 0.23857 0.42565
 C91 C 0.69954 0.19673 0.50100
 C92 C 0.70827 0.20835 0.45798
 C93 C 0.72824 0.22904 0.45833
 C94 C 0.74054 0.23786 0.50155
 C95 C 0.73162 0.22534 0.54441
 C96 C 0.71101 0.20534 0.54423
 C97 C 0.76239 0.25980 0.50200
 C98 C 0.77139 0.27186 0.54544
 C99 C 0.79200 0.29193 0.54585
 C100 C 0.80333 0.30099 0.50267
 C101 C 0.79449 0.28980 0.45925
 C102 C 0.77459 0.26909 0.45896
 H103 H 0.68381 0.18096 0.50083
 H104 H 0.73379 0.23801 0.42463
 H105 H 0.74045 0.23076 0.57831
 H106 H 0.76256 0.26603 0.57925
 H107 H 0.81902 0.31682 0.50272
 H108 H 0.76896 0.26050 0.42484
 O109 O 1.03255 0.54937 0.08648
 O110 O 1.05662 0.54406 0.03829
 C111 C 1.05243 0.55403 0.07299
 O112 O 0.96951 0.44955 0.08519
 O113 O 0.94435 0.45557 0.04278
 C114 C 0.94933 0.44483 0.07421
 O115 O 1.03237 0.48321 0.08684
 O116 O 1.05654 0.51246 0.03841
 C117 C 1.05229 0.49837 0.07327
 O118 O 0.96975 0.52033 0.08482
 O119 O 0.94441 0.48910 0.04262
 C120 C 0.94952 0.50495 0.07391
 Zr121 Zr 1.00074 0.52512 0.05932
 O122 O 0.99947 0.52642 0.13542
 O123 O 1.00196 0.55629 0.05246
 Zr124 Zr 1.00060 0.47569 0.05961
 O125 O 0.99928 0.47329 0.13574
 O126 O 1.00164 0.44563 0.05314
 O127 O 1.02050 0.51031 0.06804
 O128 O 0.98147 0.49085 0.06945
 O129 O 0.96774 0.51906 -0.08426
 O130 O 0.94351 0.48838 -0.03931
 C131 C 0.94782 0.50364 -0.07150
 O132 O 1.03028 0.48163 -0.09119
 O133 O 1.05558 0.51171 -0.04608
 C134 C 1.05049 0.49689 -0.07981
 O135 O 0.96760 0.44847 -0.08405
 O136 O 0.94345 0.45500 -0.03901
 C137 C 0.94769 0.44391 -0.07106
 O138 O 1.03050 0.54871 -0.09132
 O139 O 1.05564 0.54377 -0.04611
 C140 C 1.05067 0.55361 -0.07978
 Zr141 Zr 0.99938 0.52432 -0.06184
 O142 O 0.99624 0.52352 -0.13783
 O143 O 1.00162 0.55614 -0.05945
 Zr144 Zr 0.99923 0.47488 -0.06155
 O145 O 0.99608 0.47225 -0.13753
 O146 O 1.00136 0.44526 -0.05856
 Zr147 Zr 1.03322 0.51658 -0.00286
 Zr148 Zr 0.96658 0.48335 0.00068
 O149 O 0.97992 0.48992 -0.06966
 O150 O 1.01898 0.50941 -0.07240
 O151 O 0.97991 0.51838 -0.00019
 O152 O 1.01957 0.48158 -0.00190
 O153 O 1.01974 0.53804 -0.00219
 O154 O 0.97975 0.46153 0.00015
 H155 H 0.97195 0.48614 0.09868
 H156 H 1.02993 0.47552 -0.00221
 H157 H 0.96979 0.48482 -0.09796
 H158 H 1.03015 0.55447 -0.00254
 H159 H 1.00242 0.44093 0.08652
 H160 H 0.98913 0.43452 -0.03739
 H161 H 1.00698 0.48705 -0.15103
 H162 H 1.00756 0.52021 -0.15122
 H163 H 0.98952 0.55479 -0.03807
 H164 H 1.00260 0.56178 0.08578
 H165 H 1.00937 0.52112 0.14833
 H166 H 1.00937 0.48851 0.14848
 O167 O 0.45021 0.48132 0.08584
 O168 O 0.45555 0.51144 0.04002
 C169 C 0.44546 0.49666 0.07360
 O170 O 0.55007 0.51819 0.08540
 O171 O 0.54424 0.48762 0.04066
 C172 C 0.55485 0.50288 0.07304
 O173 O 0.51660 0.54729 0.09100
 O174 O 0.48773 0.54318 0.04276
 C175 C 0.50165 0.55244 0.07811
 O176 O 0.47966 0.44791 0.08217
 O177 O 0.51076 0.45419 0.03920
 C178 C 0.49503 0.44317 0.07044
 Zr179 Zr 0.47487 0.47444 0.05841
 O180 O 0.47389 0.47154 0.13450
 O181 O 0.44388 0.44445 0.05093
 Zr182 Zr 0.52414 0.52364 0.06039
 O183 O 0.52729 0.52497 0.13629
 O184 O 0.55407 0.55475 0.05368
 O185 O 0.48957 0.50891 0.06899
 O186 O 0.50906 0.48927 0.06854
 O187 O 0.48097 0.44891 -0.08690
 O188 O 0.51150 0.45482 -0.04224
 C189 C 0.49622 0.44410 -0.07446
 O190 O 0.51815 0.54927 -0.08816
 O191 O 0.48810 0.54400 -0.04240
 C192 C 0.50288 0.55409 -0.07593
 O193 O 0.55148 0.51972 -0.08390
 O194 O 0.54504 0.48847 -0.04100
 C195 C 0.55615 0.50429 -0.07205
 O196 O 0.45175 0.48232 -0.09240
 O197 O 0.45634 0.51172 -0.04509
 C198 C 0.44685 0.49751 -0.07993
 Zr199 Zr 0.47581 0.47520 -0.06272
 O200 O 0.47656 0.47331 -0.13880
 O201 O 0.44402 0.44568 -0.06097
 Zr202 Zr 0.52492 0.52453 -0.06065
 O203 O 0.52736 0.52461 -0.13675
 O204 O 0.55442 0.55631 -0.05684
 Zr205 Zr 0.48324 0.51622 -0.00117
 Zr206 Zr 0.51662 0.48267 -0.00098
 O207 O 0.51010 0.49023 -0.07061
 O208 O 0.49052 0.50987 -0.07134
 O209 O 0.48169 0.46100 -0.00217
 O210 O 0.51817 0.53749 0.00016
 O211 O 0.46200 0.48121 -0.00241
 O212 O 0.53832 0.51769 0.00010
 H213 H 0.51373 0.48414 0.09737
 H214 H 0.52421 0.55392 0.00087
 H215 H 0.51525 0.48543 -0.09923
 H216 H 0.44560 0.47514 -0.00315
 H217 H 0.55914 0.55996 0.08704
 H218 H 0.56522 0.55465 -0.03622
 H219 H 0.51292 0.52192 -0.15002
 H220 H 0.48111 0.48840 -0.15153
 H221 H 0.44538 0.43465 -0.04044
 H222 H 0.43852 0.43928 0.08417
 H223 H 0.47703 0.48615 0.14792
 H224 H 0.51211 0.51522 0.14928
 O225 O 0.51795 -0.03046 0.08952
 O226 O 0.48788 -0.05548 0.04411
 C227 C 0.50271 -0.05063 0.07761
 O228 O 0.48085 0.03244 0.08538
 O229 O 0.51124 0.05688 0.04001
 C230 C 0.49610 0.05246 0.07249
 O231 O 0.45145 -0.03038 0.09119
 O232 O 0.45589 -0.05548 0.04448
 C233 C 0.44630 -0.05059 0.07879
 O234 O 0.55090 0.03239 0.08444
 O235 O 0.54458 0.05685 0.03995
 C236 C 0.55553 0.05242 0.07190
 Zr237 Zr 0.52457 0.00086 0.06107
 O238 O 0.52702 0.00313 0.13720
 O239 O 0.55462 -0.00006 0.05490
 Zr240 Zr 0.47529 0.00086 0.06114
 O241 O 0.47295 0.00209 0.13696
 O242 O 0.44443 -0.00001 0.05282
 O243 O 0.49011 -0.01886 0.07140
 O244 O 0.50962 0.02025 0.06957
 O245 O 0.55045 0.03133 -0.08449
 O246 O 0.54434 0.05640 -0.04171
 C247 C 0.55524 0.05152 -0.07292
 O248 O 0.45051 -0.03167 -0.08746
 O249 O 0.45566 -0.05608 -0.03990
 C250 C 0.44575 -0.05168 -0.07435
 O251 O 0.47973 0.03137 -0.08441
 O252 O 0.51085 0.05644 -0.04164
 C253 C 0.49507 0.05156 -0.07286
 O254 O 0.51672 -0.03170 -0.08772
 O255 O 0.48723 -0.05609 -0.04016
 C256 C 0.50149 -0.05171 -0.07466
 Zr257 Zr 0.52403 0.00005 -0.06028
 O258 O 0.52577 0.00210 -0.13646
 O259 O 0.55346 -0.00232 -0.05825
 Zr260 Zr 0.47485 0.00006 -0.06000
 O261 O 0.47481 0.00205 -0.13614
 O262 O 0.44304 -0.00236 -0.05726
 Zr263 Zr 0.48309 -0.03286 0.00157
 Zr264 Zr 0.51641 0.03393 -0.00037
 O265 O 0.50909 0.01940 -0.06962
 O266 O 0.48951 -0.01984 -0.06913
 O267 O 0.53807 0.02062 -0.00013
 O268 O 0.46172 -0.01928 0.00123
 O269 O 0.51800 -0.01921 0.00095
 O270 O 0.48145 0.02067 0.00009
 H271 H 0.51474 0.03031 0.09802
 H272 H 0.44533 -0.02972 0.00157
 H273 H 0.51397 0.02922 -0.09843
 H274 H 0.52409 -0.02955 0.00096
 H275 H 0.43885 -0.00033 0.08589
 H276 H 0.44463 0.01038 -0.03765
 H277 H 0.47852 -0.00911 -0.14888
 H278 H 0.51107 -0.00945 -0.14911
 H279 H 0.56420 0.00971 -0.03662
 H280 H 0.55976 0.00006 0.08833
 H281 H 0.51228 -0.00811 0.15035
 H282 H 0.48694 0.00367 0.15029
 C283 C 1.20112 0.50632 0.41072
 C284 C 1.19199 0.50712 0.37431
 C285 C 1.17967 0.50709 0.33238
 C286 C 1.16213 0.48675 0.31515
 C287 C 1.14860 0.48657 0.27748
 C288 C 1.15238 0.50678 0.25649
 C289 C 1.17043 0.52714 0.27321
 C290 C 1.18396 0.52728 0.31099
 C291 C 1.13671 0.50658 0.21939
 C292 C 1.12977 0.52264 0.22078
 C293 C 1.11361 0.52138 0.18850
 C294 C 1.10418 0.50411 0.15437
 C295 C 1.11137 0.48838 0.15184
 C296 C 1.12755 0.48962 0.18407
 C297 C 1.08627 0.50188 0.12396
 C298 C 1.07089 0.50011 0.09996
 H299 H 1.15852 0.47104 0.33175
 H300 H 1.13465 0.47065 0.26605
 H301 H 1.17392 0.54296 0.25746
 H302 H 1.19743 0.54313 0.32418
 H303 H 1.13621 0.53570 0.24792
 H304 H 1.10808 0.53358 0.19098
 H305 H 1.10417 0.47493 0.12557
 H306 H 1.13275 0.47718 0.18169
 C307 C 0.49309 0.69390 0.41506
 C308 C 0.49247 0.68385 0.37891
 C309 C 0.49267 0.67145 0.33729
 C310 C 0.47263 0.65570 0.31531
 C311 C 0.47290 0.64219 0.27786
 C312 C 0.49324 0.64424 0.26205
 C313 C 0.51332 0.66054 0.28362
 C314 C 0.51301 0.67401 0.32096
 C315 C 0.49355 0.62869 0.22525
 C316 C 0.51073 0.63638 0.19058
 C317 C 0.51203 0.62135 0.15859
 C318 C 0.49616 0.59848 0.16071
 C319 C 0.47868 0.59074 0.19420
 C320 C 0.47736 0.60572 0.22625
 C321 C 0.49830 0.58273 0.13019
 C322 C 0.50000 0.56915 0.10580
 H323 H 0.45678 0.65352 0.32778
 H324 H 0.45719 0.62999 0.26161
 H325 H 0.52922 0.66233 0.27289
 H326 H 0.52861 0.68601 0.33800
 H327 H 0.52329 0.65399 0.18848
 H328 H 0.52561 0.62753 0.13277
 H329 H 0.46635 0.57304 0.19626
 H330 H 0.46412 0.59919 0.25290
 C331 C 0.29996 -0.19639 0.41335
 C332 C 0.30902 -0.18627 0.37706
 C333 C 0.32106 -0.17368 0.33521
 C334 C 0.33232 -0.18147 0.30609
 C335 C 0.34609 -0.16813 0.26860
 C336 C 0.34882 -0.14675 0.25987
 C337 C 0.33689 -0.13937 0.28844
 C338 C 0.32315 -0.15273 0.32592
 C339 C 0.36505 -0.13166 0.22316
 C340 C 0.36014 -0.11785 0.19429
 C341 C 0.37614 -0.10243 0.16243
 C342 C 0.39722 -0.10063 0.15893
 C343 C 0.40208 -0.11465 0.18665
 C344 C 0.38611 -0.13008 0.21851
 C345 C 0.41431 -0.08352 0.12917
 C346 C 0.42883 -0.06872 0.10550
 H347 H 0.33091 -0.19761 0.31311
 H348 H 0.35484 -0.17438 0.24687
 H349 H 0.33888 -0.12288 0.28308
 H350 H 0.31469 -0.14645 0.34855
 H351 H 0.34400 -0.11885 0.19668
 H352 H 0.37222 -0.09163 0.14119
 H353 H 0.41840 -0.11328 0.18450
 H354 H 0.39054 -0.14022 0.24072
 C355 C 0.80571 0.50862 0.41213
 C356 C 0.81666 0.51017 0.37693
 C357 C 0.83078 0.51142 0.33742
 C358 C 0.85373 0.52054 0.34551
 C359 C 0.86744 0.51987 0.30934
 C360 C 0.85840 0.50999 0.26442
 C361 C 0.83542 0.50144 0.25595
 C362 C 0.82166 0.50206 0.29240
 C363 C 0.87287 0.50787 0.22764
 C364 C 0.87155 0.51247 0.17866
 C365 C 0.88598 0.51123 0.14477
 C366 C 0.90171 0.50523 0.15949
 C367 C 0.90274 0.50016 0.20793
 C368 C 0.88846 0.50146 0.24173
 C369 C 0.91755 0.50500 0.12601
 C370 C 0.93171 0.50493 0.10066
 H371 H 0.86096 0.52774 0.38025
 H372 H 0.88512 0.52690 0.31667
 H373 H 0.82799 0.49360 0.22182
 H374 H 0.80388 0.49476 0.28590
 H375 H 0.85979 0.51755 0.16685
 H376 H 0.88510 0.51527 0.10737
 H377 H 0.91481 0.49546 0.21974
 H378 H 0.88960 0.49743 0.27899
 C379 C 0.49397 0.29925 0.41279
 C380 C 0.49333 0.30842 0.37625
 C381 C 0.49332 0.32048 0.33383
 C382 C 0.51333 0.33382 0.30893
 C383 C 0.51391 0.34721 0.27042
 C384 C 0.49445 0.34750 0.25634
 C385 C 0.47427 0.33354 0.28076
 C386 C 0.47374 0.32017 0.31930
 C387 C 0.49544 0.36323 0.21839
 C388 C 0.47783 0.35672 0.18514
 C389 C 0.47812 0.37213 0.15179
 C390 C 0.49604 0.39421 0.15114
 C391 C 0.51387 0.40070 0.18332
 C392 C 0.51361 0.38535 0.21666
 C393 C 0.49552 0.41070 0.12007
 C394 C 0.49522 0.42517 0.09609
 H395 H 0.52860 0.33424 0.31996
 H396 H 0.52965 0.35755 0.25204
 H397 H 0.45907 0.33360 0.27131
 H398 H 0.45820 0.31005 0.33856
 H399 H 0.46375 0.33976 0.18519
 H400 H 0.46419 0.36695 0.12717
 H401 H 0.52771 0.41781 0.18349
 H402 H 0.52727 0.39103 0.24218
 C403 C 0.69689 0.19843 0.41336
 C404 C 0.68705 0.18906 0.37699
 C405 C 0.67492 0.17674 0.33484
 C406 C 0.67616 0.15794 0.32018
 C407 C 0.66308 0.14474 0.28177
 C408 C 0.64850 0.15016 0.25742
 C409 C 0.64778 0.16943 0.27167
 C410 C 0.66089 0.18261 0.31018
 C411 C 0.63327 0.13504 0.21925
 C412 C 0.61089 0.13015 0.21710
 C413 C 0.59601 0.11455 0.18384
 C414 C 0.60326 0.10364 0.15219
 C415 C 0.62562 0.10879 0.15313
 C416 C 0.64055 0.12441 0.18639
 C417 C 0.58728 0.08608 0.12132
 C418 C 0.57321 0.07092 0.09750
 H419 H 0.68684 0.15314 0.33924
 H420 H 0.66380 0.12985 0.27227
 H421 H 0.63693 0.17420 0.25332
 H422 H 0.65976 0.19711 0.32126
 H423 H 0.60464 0.13774 0.24231
 H424 H 0.57870 0.11057 0.18369
 H425 H 0.63140 0.10041 0.12887
 H426 H 0.65773 0.12801 0.18673
 C427 C 0.49289 0.19466 -0.41215
 C428 C 0.49174 0.18463 -0.37560
 C429 C 0.49112 0.17228 -0.33314
 C430 C 0.47278 0.15091 -0.32472
 C431 C 0.47313 0.13798 -0.28620
 C432 C 0.49190 0.14624 -0.25563
 C433 C 0.51000 0.16800 -0.26361
 C434 C 0.50960 0.18090 -0.30215
 C435 C 0.49311 0.13166 -0.21758
 C436 C 0.51307 0.13121 -0.21012
 C437 C 0.51376 0.11616 -0.17731
 C438 C 0.49458 0.10139 -0.15137
 C439 C 0.47481 0.10212 -0.15751
 C440 C 0.47407 0.11717 -0.19035
 C441 C 0.49479 0.08442 -0.12137
 C442 C 0.49495 0.06969 -0.09812
 H443 H 0.45847 0.14398 -0.34872
 H444 H 0.45907 0.12119 -0.28148
 H445 H 0.52458 0.17493 -0.24041
 H446 H 0.52393 0.19739 -0.30842
 H447 H 0.52792 0.14189 -0.23098
 H448 H 0.52910 0.11561 -0.17318
 H449 H 0.45983 0.09073 -0.13771
 H450 H 0.45854 0.11730 -0.19485
 C451 C 0.70019 0.50552 -0.41316
 C452 C 0.69110 0.50626 -0.37659
 C453 C 0.67910 0.50635 -0.33418
 C454 C 0.66605 0.48638 -0.30878
 C455 C 0.65264 0.48580 -0.27037
 C456 C 0.65204 0.50521 -0.25691
 C457 C 0.66569 0.52536 -0.28185
 C458 C 0.67908 0.52590 -0.32029
 C459 C 0.63628 0.50418 -0.21910
 C460 C 0.64259 0.52199 -0.18637
 C461 C 0.62716 0.52163 -0.15310
 C462 C 0.60526 0.50345 -0.15202
 C463 C 0.59896 0.48544 -0.18374
 C464 C 0.61435 0.48577 -0.21698
 C465 C 0.58872 0.50387 -0.12106
 C466 C 0.57421 0.50413 -0.09732
 H467 H 0.66585 0.47112 -0.31935
 H468 H 0.64252 0.47009 -0.25161
 H469 H 0.66533 0.54049 -0.27290
 H470 H 0.68893 0.54141 -0.33997
 H471 H 0.65943 0.53624 -0.18671
 H472 H 0.63220 0.53570 -0.12883
 H473 H 0.58200 0.47136 -0.18352
 H474 H 0.60885 0.47192 -0.24204
 C475 C 0.80150 0.30252 -0.41183
 C476 C 0.81085 0.31223 -0.37533
 C477 C 0.82312 0.32429 -0.33309
 C478 C 0.81762 0.33876 -0.30903
 C479 C 0.83082 0.35188 -0.27057
 C480 C 0.84976 0.35074 -0.25578
 C481 C 0.85478 0.33570 -0.27946
 C482 C 0.84157 0.32260 -0.31784
 C483 C 0.86496 0.36604 -0.21780
 C484 C 0.87518 0.35858 -0.18430
 C485 C 0.89081 0.37353 -0.15107
 C486 C 0.89639 0.39608 -0.15082
 C487 C 0.88589 0.40350 -0.18315
 C488 C 0.87030 0.38862 -0.21637
 C489 C 0.91394 0.41206 -0.12000
 C490 C 0.92912 0.42618 -0.09632
 H491 H 0.80342 0.34024 -0.32059
 H492 H 0.82635 0.36309 -0.25274
 H493 H 0.86941 0.33465 -0.26953
 H494 H 0.84608 0.31158 -0.33645
 H495 H 0.87124 0.34125 -0.18411
 H496 H 0.89889 0.36761 -0.12633
 H497 H 0.89023 0.42097 -0.18359
 H498 H 0.86304 0.39499 -0.24209
 C499 C 0.49409 -0.20061 -0.41299
 C500 C 0.49375 -0.19089 -0.37708
 C501 C 0.49433 -0.17796 -0.33575
 C502 C 0.51384 -0.15768 -0.32579
 C503 C 0.51426 -0.14408 -0.28796
 C504 C 0.49511 -0.15056 -0.25946
 C505 C 0.47567 -0.17120 -0.26914
 C506 C 0.47529 -0.18481 -0.30711
 C507 C 0.49524 -0.13523 -0.22152
 C508 C 0.47672 -0.13210 -0.21563
 C509 C 0.47761 -0.11619 -0.18295
 C510 C 0.49697 -0.10326 -0.15564
 C511 C 0.51523 -0.10669 -0.16022
 C512 C 0.51437 -0.12260 -0.19284
 C513 C 0.49858 -0.08553 -0.12530
 C514 C 0.49999 -0.07026 -0.10135
 H515 H 0.52862 -0.15213 -0.34796
 H516 H 0.52935 -0.12814 -0.28206
 H517 H 0.46074 -0.17676 -0.24754
 H518 H 0.46008 -0.20046 -0.31457
 H519 H 0.46186 -0.14132 -0.23756
 H520 H 0.46342 -0.11356 -0.17990
 H521 H 0.53031 -0.09676 -0.13931
 H522 H 0.52879 -0.12483 -0.19607
 C523 C 0.30486 0.50665 -0.41351
 C524 C 0.31505 0.50760 -0.37743
 C525 C 0.32776 0.50793 -0.33596
 C526 C 0.34655 0.52796 -0.32126
 C527 C 0.36032 0.52776 -0.28444
 C528 C 0.35551 0.50749 -0.26200
 C529 C 0.33620 0.48757 -0.27607
 C530 C 0.32246 0.48781 -0.31284
 C531 C 0.37126 0.50681 -0.22636
 C532 C 0.36326 0.49257 -0.18593
 C533 C 0.37816 0.49083 -0.15440
 C534 C 0.40123 0.50334 -0.16284
 C535 C 0.40936 0.51787 -0.20238
 C536 C 0.39451 0.51961 -0.23392
 C537 C 0.41667 0.50089 -0.13207
 C538 C 0.43015 0.49912 -0.10757
 H539 H 0.35089 0.54362 -0.33908
 H540 H 0.37491 0.54341 -0.27403
 H541 H 0.33220 0.47164 -0.26006
 H542 H 0.30810 0.47217 -0.32427
 H543 H 0.34547 0.48270 -0.17885
 H544 H 0.37168 0.47956 -0.12383
 H545 H 0.42719 0.52758 -0.20934
 H546 H 0.40122 0.53046 -0.26506
 C547 C 1.19677 0.69977 -0.41488
 C548 C 1.18673 0.69060 -0.37860
 C549 C 1.17431 0.67833 -0.33675
 C550 C 1.18033 0.66425 -0.31270
 C551 C 1.16694 0.65036 -0.27544
 C552 C 1.14727 0.65031 -0.26180
 C553 C 1.14175 0.66507 -0.28514
 C554 C 1.15516 0.67894 -0.32247
 C555 C 1.13189 0.63401 -0.22555
 C556 C 1.12081 0.64026 -0.19166
 C557 C 1.10525 0.62440 -0.15969
 C558 C 1.10060 0.60214 -0.16118
 C559 C 1.11184 0.59587 -0.19414
 C560 C 1.12739 0.61167 -0.22607
 C561 C 1.08346 0.58540 -0.13086
 C562 C 1.06870 0.57103 -0.10681
 H563 H 1.19507 0.66358 -0.32358
 H564 H 1.17179 0.63941 -0.25776
 H565 H 1.12658 0.66523 -0.27588
 H566 H 1.15024 0.68963 -0.34112
 H567 H 1.12409 0.65736 -0.19005
 H568 H 1.09661 0.62942 -0.13436
 H569 H 1.10823 0.57865 -0.19587
 H570 H 1.13535 0.60623 -0.25220
 C571 C 0.80073 0.49699 -0.41399
 C572 C 0.81076 0.49618 -0.37917
 C573 C 0.82444 0.49604 -0.34018
 C574 C 0.84647 0.50149 -0.34999
 C575 C 0.86023 0.50161 -0.31304
 C576 C 0.85217 0.49625 -0.26553
 C577 C 0.83005 0.49101 -0.25570
 C578 C 0.81623 0.49085 -0.29294
 C579 C 0.86698 0.49616 -0.22686
 C580 C 0.86814 0.50595 -0.18159
 C581 C 0.88348 0.50727 -0.14678
 C582 C 0.89763 0.49864 -0.15682
 C583 C 0.89609 0.48833 -0.20122
 C584 C 0.88088 0.48705 -0.23595
 C585 C 0.91448 0.50094 -0.12309
 C586 C 0.92937 0.50244 -0.09777
 H587 H 0.85307 0.50572 -0.38633
 H588 H 0.87730 0.50614 -0.32154
 H589 H 0.82339 0.48673 -0.21947
 H590 H 0.79920 0.48666 -0.28494
 H591 H 0.85772 0.51322 -0.17377
 H592 H 0.88456 0.51532 -0.11252
 H593 H 0.90691 0.48154 -0.20927
 H594 H 0.88012 0.47909 -0.27015
 C595 C 0.50299 0.30368 -0.41419
 C596 C 0.50338 0.31338 -0.37768
 C597 C 0.50300 0.32523 -0.33530
 C598 C 0.52284 0.33955 -0.31076
 C599 C 0.52256 0.35247 -0.27211
 C600 C 0.50241 0.35126 -0.25765
 C601 C 0.48248 0.33632 -0.28174
 C602 C 0.48281 0.32342 -0.32029
 C603 C 0.50231 0.36648 -0.21982
 C604 C 0.48452 0.35896 -0.18669
 C605 C 0.48350 0.37390 -0.15401
 C606 C 0.50024 0.39650 -0.15394
 C607 C 0.51833 0.40399 -0.18574
 C608 C 0.51938 0.38911 -0.21846
 C609 C 0.49828 0.41241 -0.12369
 C610 C 0.49700 0.42645 -0.10019
 H611 H 0.53856 0.34106 -0.32211
 H612 H 0.53813 0.36361 -0.25390
 H613 H 0.46676 0.33522 -0.27202
 H614 H 0.46737 0.31246 -0.33922
 H615 H 0.47126 0.34158 -0.18644
 H616 H 0.46942 0.36796 -0.12956
 H617 H 0.53130 0.42150 -0.18621
 H618 H 0.53311 0.39553 -0.24393
 C619 C 0.70102 0.19389 -0.41134
 C620 C 0.69175 0.18415 -0.37489
 C621 C 0.67966 0.17222 -0.33249
 C622 C 0.67910 0.15236 -0.31894
 C623 C 0.66560 0.13964 -0.28051
 C624 C 0.65243 0.14660 -0.25524
 C625 C 0.65361 0.16692 -0.26830
 C626 C 0.66712 0.17962 -0.30672
 C627 C 0.63649 0.13201 -0.21757
 C628 C 0.61474 0.12891 -0.21558
 C629 C 0.59908 0.11379 -0.18285
 C630 C 0.60492 0.10159 -0.15159
 C631 C 0.62668 0.10496 -0.15236
 C632 C 0.64239 0.12010 -0.18511
 C633 C 0.58805 0.08448 -0.12148
 C634 C 0.57336 0.06966 -0.09820
 H635 H 0.68860 0.14640 -0.33890
 H636 H 0.66482 0.12393 -0.27181
 H637 H 0.64386 0.17285 -0.24922
 H638 H 0.66738 0.19493 -0.31702
 H639 H 0.60956 0.13754 -0.24054
 H640 H 0.58222 0.11115 -0.18285
 H641 H 0.63135 0.09555 -0.12840
 H642 H 0.65908 0.12232 -0.18543
 C643 C 1.19414 0.49440 -0.41987
 C644 C 1.18305 0.49273 -0.38487
 C645 C 1.16894 0.49143 -0.34534
 C646 C 1.17816 0.50107 -0.30059
 C647 C 1.16446 0.50174 -0.26412
 C648 C 1.14144 0.49295 -0.27230
 C649 C 1.13228 0.48276 -0.31692
 C650 C 1.14594 0.48204 -0.35314
 C651 C 1.12703 0.49510 -0.23548
 C652 C 1.11126 0.50128 -0.24956
 C653 C 1.09704 0.50261 -0.21565
 C654 C 1.09833 0.49780 -0.16716
 C655 C 1.11424 0.49205 -0.15248
 C656 C 1.12861 0.49079 -0.18646
 C657 C 1.08247 0.49785 -0.13355
 C658 C 1.06830 0.49758 -0.10771
 H659 H 1.19599 0.50857 -0.29434
 H660 H 1.17197 0.50981 -0.23021
 H661 H 1.11455 0.47554 -0.32397
 H662 H 1.13864 0.47463 -0.38769
 H663 H 1.10994 0.50510 -0.28688
 H664 H 1.08482 0.50712 -0.22736
 H665 H 1.11531 0.48821 -0.11503
 H666 H 1.14053 0.48590 -0.17466
 C667 C 0.50237 0.69868 -0.41455
 C668 C 0.50304 0.68941 -0.37823
 C669 C 0.50306 0.67714 -0.33626
 C670 C 0.48289 0.66287 -0.31278
 C671 C 0.48238 0.64918 -0.27504
 C672 C 0.50207 0.64951 -0.26035
 C673 C 0.52239 0.66438 -0.28325
 C674 C 0.52285 0.67806 -0.32106
 C675 C 0.50122 0.63352 -0.22332
 C676 C 0.51834 0.64022 -0.18878
 C677 C 0.51818 0.62468 -0.15603
 C678 C 0.50089 0.60230 -0.15737
 C679 C 0.48356 0.59558 -0.19096
 C680 C 0.48369 0.61107 -0.22367
 C681 C 0.50155 0.58584 -0.12655
 C682 C 0.50213 0.57157 -0.10244
 H683 H 0.46745 0.66194 -0.32440
 H684 H 0.46654 0.63811 -0.25774
 H685 H 0.53777 0.66482 -0.27322
 H686 H 0.53852 0.68888 -0.33928
 H687 H 0.53192 0.65743 -0.18733
 H688 H 0.53172 0.63004 -0.13025
 H689 H 0.47021 0.57825 -0.19260
 H690 H 0.47046 0.60530 -0.25028
 C691 C 0.30594 -0.20021 -0.41417
 C692 C 0.31588 -0.19051 -0.37820
 C693 C 0.32804 -0.17761 -0.33674
 C694 C 0.32875 -0.15732 -0.32703
 C695 C 0.34169 -0.14378 -0.28894
 C696 C 0.35417 -0.15033 -0.25994
 C697 C 0.35303 -0.17099 -0.26939
 C698 C 0.34005 -0.18454 -0.30762
 C699 C 0.36912 -0.13507 -0.22173
 C700 C 0.39074 -0.13194 -0.21537
 C701 C 0.40556 -0.11609 -0.18242
 C702 C 0.39896 -0.10321 -0.15534
 C703 C 0.37729 -0.10665 -0.16038
 C704 C 0.36244 -0.12250 -0.19329
 C705 C 0.41492 -0.08549 -0.12491
 C706 C 0.42873 -0.07022 -0.10096
 H707 H 0.31966 -0.15172 -0.34959
 H708 H 0.34250 -0.12782 -0.28320
 H709 H 0.36228 -0.17658 -0.24740
 H710 H 0.33964 -0.20021 -0.31489
 H711 H 0.39651 -0.14111 -0.23716
 H712 H 0.42236 -0.11345 -0.17902
 H713 H 0.37203 -0.09674 -0.13964
 H714 H 0.34582 -0.12472 -0.19694
 C715 C 0.50414 -0.19600 0.41228
 C716 C 0.50515 -0.18585 0.37608
 C717 C 0.50559 -0.17330 0.33423
 C718 C 0.52450 -0.15251 0.32435
 C719 C 0.52405 -0.13920 0.28676
 C720 C 0.50461 -0.14650 0.25870
 C721 C 0.48592 -0.16772 0.26805
 C722 C 0.48642 -0.18100 0.30562
 C723 C 0.50342 -0.13148 0.22187
 C724 C 0.48407 -0.12963 0.21779
 C725 C 0.48344 -0.11430 0.18569
 C726 C 0.50211 -0.10066 0.15718
 C727 C 0.52126 -0.10273 0.16012
 C728 C 0.52193 -0.11804 0.19224
 C729 C 0.50209 -0.08357 0.12738
 C730 C 0.50225 -0.06877 0.10388
 H731 H 0.53935 -0.14630 0.34658
 H732 H 0.53860 -0.12284 0.28091
 H733 H 0.47082 -0.17390 0.24672
 H734 H 0.47165 -0.19702 0.31311
 H735 H 0.46968 -0.13946 0.24061
 H736 H 0.46861 -0.11271 0.18398
 H737 H 0.53582 -0.09220 0.13827
 H738 H 0.53697 -0.11925 0.19422
 C739 C 0.30066 0.49680 0.41164
 C740 C 0.31016 0.49631 0.37558
 C741 C 0.32262 0.49652 0.33380
 C742 C 0.33752 0.51695 0.31187
 C743 C 0.35128 0.51758 0.27423
 C744 C 0.35039 0.49776 0.25810
 C745 C 0.33489 0.47721 0.27944
 C746 C 0.32114 0.47662 0.31713
 C747 C 0.36639 0.49866 0.22112
 C748 C 0.35955 0.48198 0.18537
 C749 C 0.37506 0.48215 0.15263
 C750 C 0.39757 0.49898 0.15521
 C751 C 0.40444 0.51587 0.19004
 C752 C 0.38898 0.51575 0.22275
 C753 C 0.41393 0.49822 0.12434
 C754 C 0.42809 0.49754 0.10017
 H755 H 0.33886 0.53246 0.32459
 H756 H 0.36282 0.53360 0.25809
 H757 H 0.33398 0.46170 0.26824
 H758 H 0.30980 0.46075 0.33412
 H759 H 0.34224 0.46874 0.18295
 H760 H 0.36957 0.46894 0.12590
 H761 H 0.42187 0.52885 0.19265
 H762 H 0.39487 0.52859 0.25035
 C763 C 1.20095 0.69372 0.41264
 C764 C 1.19154 0.68370 0.37651
 C765 C 1.17907 0.67144 0.33470
 C766 C 1.16119 0.67390 0.31857
 C767 C 1.14773 0.66073 0.28060
 C768 C 1.15193 0.64486 0.25818
 C769 C 1.17028 0.64288 0.27390
 C770 C 1.18374 0.65608 0.31198
 C771 C 1.13645 0.62966 0.22052
 C772 C 1.12993 0.60674 0.22042
 C773 C 1.11391 0.59203 0.18765
 C774 C 1.10423 0.60000 0.15451
 C775 C 1.11102 0.62285 0.15342
 C776 C 1.12706 0.63761 0.18615
 C777 C 1.08640 0.58444 0.12379
 C778 C 1.07105 0.57087 0.09966
 H779 H 1.15732 0.68561 0.33615
 H780 H 1.13354 0.66243 0.26995
 H781 H 1.17408 0.63098 0.25704
 H782 H 1.19751 0.65401 0.32426
 H783 H 1.13658 0.60002 0.24681
 H784 H 1.10867 0.57433 0.18898
 H785 H 1.10361 0.62918 0.12792
 H786 H 1.13194 0.65520 0.18493
 C787 C 0.50338 0.19888 0.41528
 C788 C 0.50389 0.18959 0.37886
 C789 C 0.50359 0.17738 0.33650
 C790 C 0.48337 0.15914 0.32094
 C791 C 0.48305 0.14603 0.28216
 C792 C 0.50302 0.15098 0.25837
 C793 C 0.52321 0.16971 0.27350
 C794 C 0.52349 0.18281 0.31239
 C795 C 0.50286 0.13582 0.22002
 C796 C 0.51974 0.13004 0.21849
 C797 C 0.51861 0.11426 0.18522
 C798 C 0.50063 0.10404 0.15300
 C799 C 0.48407 0.11012 0.15327
 C800 C 0.48518 0.12593 0.18651
 C801 C 0.49856 0.08629 0.12217
 C802 C 0.49714 0.07099 0.09832
 H803 H 0.46789 0.15472 0.33954
 H804 H 0.46729 0.13154 0.27197
 H805 H 0.53882 0.17410 0.25558
 H806 H 0.53924 0.19690 0.32416
 H807 H 0.53337 0.13704 0.24422
 H808 H 0.53144 0.10956 0.18554
 H809 H 0.47007 0.10228 0.12851
 H810 H 0.47207 0.13023 0.18642
 C811 C 0.69473 0.49631 0.41387
 C812 C 0.68495 0.49578 0.37744
 C813 C 0.67307 0.49611 0.33510
 C814 C 0.67471 0.51632 0.32039
 C815 C 0.66186 0.51665 0.28182
 C816 C 0.64713 0.49671 0.25738
 C817 C 0.64607 0.47655 0.27157
 C818 C 0.65895 0.47626 0.31025
 C819 C 0.63203 0.49680 0.21931
 C820 C 0.60951 0.47957 0.21749
 C821 C 0.59472 0.48060 0.18460
 C822 C 0.60218 0.49881 0.15304
 C823 C 0.62468 0.51573 0.15357
 C824 C 0.63954 0.51473 0.18644
 C825 C 0.58632 0.50073 0.12267
 C826 C 0.57235 0.50201 0.09903
 H827 H 0.68552 0.53176 0.33955
 H828 H 0.66287 0.53239 0.27229
 H829 H 0.63512 0.46099 0.25304
 H830 H 0.65757 0.46052 0.32131
 H831 H 0.60310 0.46577 0.24283
 H832 H 0.57728 0.46752 0.18479
 H833 H 0.63060 0.52994 0.12940
 H834 H 0.65682 0.52814 0.18665
 C835 C 0.80557 0.30028 0.41486
 C836 C 0.81511 0.31017 0.37875
 C837 C 0.82692 0.32323 0.33721
 C838 C 0.83932 0.31681 0.30806
 C839 C 0.85242 0.33077 0.27047
 C840 C 0.85333 0.35136 0.26183
 C841 C 0.84022 0.35727 0.29039
 C842 C 0.82715 0.34332 0.32783
 C843 C 0.86891 0.36727 0.22531
 C844 C 0.88152 0.39029 0.23607
 C845 C 0.89695 0.40530 0.20294
 C846 C 0.90003 0.39759 0.15853
 C847 C 0.88744 0.37474 0.14714
 C848 C 0.87196 0.35964 0.18039
 C849 C 0.91677 0.41327 0.12596
 C850 C 0.93136 0.42725 0.10098
 H851 H 0.83933 0.30134 0.31516
 H852 H 0.86249 0.32586 0.24940
 H853 H 0.84032 0.37285 0.28418
 H854 H 0.81761 0.34845 0.35020
 H855 H 0.87987 0.39664 0.27065
 H856 H 0.90672 0.42292 0.21228
 H857 H 0.88971 0.36858 0.11285
 H858 H 0.86234 0.34203 0.17101
   
