data_POSCAR
  _audit_creation_date              2014-09-24
  _audit_creation_method            'ToBaCCo'
  _symmetry_space_group_name_H-M    'P1'
  _symmetry_Int_Tables_number       1
  _symmetry_cell_setting            triclinic
  loop_
  _symmetry_equiv_pos_as_xyz
 x,y,z
_cell_length_a 27.1468
_cell_length_b 27.3011
_cell_length_c 27.2309
_cell_angle_alpha 92.174100
_cell_angle_beta 93.652200
_cell_angle_gamma 86.636500
loop_
  _atom_site_label
  _atom_site_type_symbol
  _atom_site_fract_x
  _atom_site_fract_y
  _atom_site_fract_z
C1 C 0.57073 0.37416 -0.03932
 C2 C 0.60922 0.40455 -0.03510
 C3 C 0.58918 0.45161 -0.02546
 N4 N 0.53928 0.45094 -0.02624
 C5 C 0.52796 0.40350 -0.03334
 C6 C 0.61574 0.49509 -0.02201
 C7 C 0.58985 0.54016 -0.03338
 C8 C 0.60565 0.57531 -0.06334
 C9 C 0.57214 0.61489 -0.06088
 C10 C 0.53708 0.60311 -0.02900
 N11 N 0.54724 0.55677 -0.01370
 C12 C 0.49805 0.63529 -0.01271
 C13 C 0.45438 0.61580 0.00213
 C14 C 0.41929 0.64039 0.03030
 C15 C 0.38184 0.60924 0.03323
 C16 C 0.39539 0.56660 0.00703
 N17 N 0.43989 0.57051 -0.01161
 C18 C 0.36537 0.52637 -0.00247
 C19 C 0.38456 0.47970 -0.01914
 C20 C 0.35616 0.44141 -0.03643
 C21 C 0.38821 0.40169 -0.04487
 C22 C 0.43574 0.41683 -0.03388
 N23 N 0.43302 0.46444 -0.01774
 C24 C 0.47962 0.38611 -0.03698
 H25 H 0.57392 0.33517 -0.04812
 H26 H 0.64708 0.39328 -0.04198
 H27 H 0.46191 0.48410 -0.00192
 H28 H 0.63743 0.57251 -0.08553
 H29 H 0.57345 0.64848 -0.08049
 H30 H 0.42065 0.67666 0.04760
 H31 H 0.34854 0.61702 0.05261
 H32 H 0.37700 0.36580 -0.05744
 H33 H 0.52932 0.53947 0.01308
 H34 H 0.31636 0.44156 -0.04217
 C35 C 0.04477 0.55592 0.65158
 C36 C 0.04492 0.59296 0.61897
 C37 C 0.01710 0.57827 0.57700
 N38 N 0.00144 0.53276 0.58231
 C39 C 0.01798 0.51933 0.62802
 C40 C 0.00413 0.60707 0.53534
 C41 C -0.00939 0.58399 0.48922
 C42 C -0.03627 0.60630 0.45020
 C43 C -0.03865 0.57206 0.41187
 C44 C -0.01358 0.52962 0.42855
 N45 N 0.00370 0.53701 0.47583
 C46 C -0.00447 0.48630 0.39970
 C47 C 0.00890 0.44110 0.42169
 C48 C 0.03022 0.39990 0.39835
 C49 C 0.03146 0.36269 0.43103
 C50 C 0.01075 0.38253 0.47309
 N51 N -0.00258 0.43053 0.46747
 C52 C 0.00019 0.35614 0.51438
 C53 C -0.01005 0.38052 0.55954
 C54 C -0.03280 0.36060 0.59774
 C55 C -0.03164 0.39488 0.63620
 C56 C -0.00786 0.43449 0.62042
 N57 N 0.00460 0.42567 0.57353
 C58 C 0.00578 0.47589 0.64968
 H59 H 0.06278 0.55567 0.68819
 H60 H 0.06357 0.62677 0.62548
 H61 H 0.02708 0.44684 0.55427
 H62 H -0.05307 0.64321 0.44939
 H63 H -0.05712 0.57775 0.37597
 H64 H 0.04313 0.39686 0.36151
 H65 H 0.04561 0.32531 0.42439
 H66 H -0.04617 0.39077 0.67180
 H67 H 0.02743 0.51291 0.49618
 H68 H -0.04839 0.32504 0.59801
 C69 C 0.39810 0.03831 0.55812
 C70 C 0.43483 0.04179 0.59481
 C71 C 0.47678 0.01707 0.57744
 N72 N 0.46713 -0.00012 0.53078
 C73 C 0.41897 0.01251 0.51917
 C74 C 0.52223 0.00735 0.60500
 C75 C 0.56543 -0.00706 0.58014
 C76 C 0.60519 -0.03632 0.59895
 C77 C 0.63987 -0.03937 0.56414
 C78 C 0.62031 -0.01211 0.52477
 N79 N 0.57445 0.00655 0.53442
 C80 C 0.64476 -0.00364 0.48160
 C81 C 0.61660 0.00944 0.43806
 C82 C 0.63288 0.03492 0.39960
 C83 C 0.59593 0.03452 0.36280
 C84 C 0.55813 0.00957 0.38042
 N85 N 0.57049 -0.00516 0.42663
 C86 C 0.51474 -0.00337 0.35304
 C87 C 0.47263 -0.01521 0.37689
 C88 C 0.43285 -0.03948 0.35541
 C89 C 0.39834 -0.03956 0.39041
 C90 C 0.41800 -0.01497 0.43201
 N91 N 0.46344 -0.00082 0.42358
 C92 C 0.39304 -0.00203 0.47497
 H93 H 0.36050 0.05354 0.55970
 H94 H 0.43090 0.06081 0.63004
 H95 H 0.48459 0.02247 0.44640
 H96 H 0.60859 -0.05442 0.63377
 H97 H 0.67494 -0.06031 0.56722
 H98 H 0.66785 0.05171 0.39807
 H99 H 0.59678 0.05063 0.32718
 H100 H 0.36264 -0.05533 0.38547
 H101 H 0.55226 0.03094 0.51283
 H102 H 0.42892 -0.05519 0.31838
 O103 O 0.43699 0.01144 -0.09525
 O104 O 0.43372 0.01902 0.03968
 O105 O 0.44065 0.08245 -0.02876
 O106 O 0.43078 -0.05168 -0.02746
 O107 O 0.51221 -0.06202 -0.02328
 O108 O 0.52179 0.07194 -0.01658
 O109 O 0.51472 0.00450 0.04659
 O110 O 0.51858 0.00504 -0.08848
 Cu111 Cu 0.42736 0.01644 -0.02867
 Cu112 Cu 0.52506 0.00394 -0.02004
 C113 C 0.47826 0.00731 -0.11491
 C114 C 0.47362 0.01215 0.06615
 C115 C 0.48294 0.09993 -0.02170
 C116 C 0.46988 -0.07972 -0.02548
 O117 O -0.07772 0.56891 1.02150
 O118 O 0.05854 0.55933 1.02652
 O119 O -0.01167 0.56244 0.95760
 O120 O -0.00712 0.56726 1.09298
 O121 O -0.01175 0.48676 1.09287
 O122 O -0.00923 0.48142 0.95758
 O123 O 0.05741 0.47878 1.03086
 O124 O -0.07857 0.48802 1.02010
 Cu125 Cu -0.00943 0.57268 1.02511
 Cu126 Cu -0.01069 0.47564 1.02543
 C127 C -0.10132 0.52995 1.01854
 C128 C 0.08115 0.51739 1.02970
 C129 C -0.01082 0.52115 0.93452
 C130 C -0.00880 0.52784 1.11599
 O131 O 0.02054 -0.08563 0.47615
 O132 O 0.01587 0.04929 0.48936
 O133 O 0.08607 -0.01893 0.48072
 O134 O -0.04919 -0.01688 0.48471
 O135 O -0.04189 -0.01719 0.56594
 O136 O 0.09371 -0.02870 0.56103
 O137 O 0.02829 0.04406 0.56999
 O138 O 0.02335 -0.09025 0.55708
 Cu139 Cu 0.01764 -0.01763 0.47457
 Cu140 Cu 0.02671 -0.02364 0.57166
 C141 C 0.02165 -0.11089 0.51447
 C142 C 0.02203 0.06962 0.53186
 C143 C 0.11298 -0.02467 0.52016
 C144 C -0.06865 -0.01570 0.52595
 C145 C -0.25639 0.53448 0.99167
 C146 C -0.23126 0.49441 1.01442
 N147 N -0.25710 0.45654 1.02757
 C148 C -0.30675 0.45599 1.01728
 C149 C -0.33217 0.49426 0.99046
 N150 N -0.30573 0.53338 0.98041
 N151 N -0.23100 0.57357 0.98056
 C152 C -0.18127 0.57397 0.99057
 C153 C -0.15561 0.53294 1.01175
 N154 N -0.18148 0.49417 1.02342
 H155 H -0.32592 0.42683 1.03201
 H156 H -0.16181 0.60527 0.98064
 C157 C 0.23697 0.50480 1.02956
 C158 C 0.20993 0.54482 1.00822
 N159 N 0.23386 0.57841 0.98473
 C160 C 0.28367 0.57374 0.98141
 C161 C 0.31112 0.53391 1.00307
 N162 N 0.28680 0.50046 1.02685
 N163 N 0.21276 0.47004 1.05115
 C164 C 0.16264 0.47333 1.05213
 C165 C 0.13545 0.51352 1.03101
 N166 N 0.15997 0.54849 1.00977
 H167 H 0.30162 0.60042 0.96136
 H168 H 0.14422 0.44494 1.06928
 C169 C 0.01740 -0.26540 0.50256
 C170 C 0.00695 -0.23966 0.54651
 N171 N -0.00577 -0.26452 0.58549
 C172 C -0.00769 -0.31418 0.58292
 C173 C 0.00443 -0.34086 0.53937
 N174 N 0.01606 -0.31505 0.50010
 N175 N 0.02873 -0.24033 0.46304
 C176 C 0.03017 -0.19055 0.46559
 C177 C 0.02037 -0.16468 0.50989
 N178 N 0.00893 -0.19010 0.54930
 H179 H -0.02002 -0.33227 0.61421
 H180 H 0.03932 -0.17148 0.43354
 C181 C 0.02176 0.22431 0.54430
 C182 C -0.00127 0.20078 0.50303
 N183 N -0.02449 0.22805 0.46692
 C184 C -0.02525 0.27789 0.46990
 C185 C -0.00082 0.30171 0.51041
 N186 N 0.02177 0.27405 0.54689
 N187 N 0.04370 0.19704 0.58111
 C188 C 0.04384 0.14718 0.57843
 C189 C 0.02169 0.12344 0.53666
 N190 N -0.00039 0.15102 0.49993
 H191 H -0.04466 0.29875 0.44090
 H192 H 0.06173 0.12630 0.60823
 C193 C 0.48041 0.00082 -0.27004
 C194 C 0.52294 0.01170 -0.24077
 N195 N 0.56460 0.02147 -0.26272
 C196 C 0.56579 0.02051 -0.31266
 C197 C 0.52327 0.00882 -0.34260
 N198 N 0.48174 -0.00060 -0.31971
 N199 N 0.43820 -0.00758 -0.24844
 C200 C 0.43653 -0.00553 -0.19865
 C201 C 0.47919 0.00498 -0.16897
 N202 N 0.52156 0.01326 -0.19091
 H203 H 0.59916 0.03046 -0.32856
 H204 H 0.40232 -0.01244 -0.18247
 C205 C 0.47268 0.01374 0.22140
 C206 C 0.51315 -0.00734 0.19701
 N207 N 0.55251 -0.02789 0.22349
 C208 C 0.55356 -0.02784 0.27343
 C209 C 0.51376 -0.00547 0.29830
 N210 N 0.47398 0.01446 0.27138
 N211 N 0.43286 0.03329 0.19469
 C212 C 0.43177 0.03290 0.14464
 C213 C 0.47267 0.01259 0.12014
 N214 N 0.51238 -0.00710 0.14717
 H215 H 0.58523 -0.04496 0.29360
 H216 H 0.39961 0.04885 0.12427
 C217 C 0.46133 -0.23378 -0.02324
 C218 C 0.50679 -0.21211 -0.01534
 N219 N 0.54850 -0.24085 -0.00589
 C220 C 0.54699 -0.29047 -0.00450
 C221 C 0.50148 -0.31295 -0.01329
 N222 N 0.45979 -0.28330 -0.02207
 N223 N 0.41942 -0.20498 -0.03185
 C224 C 0.42093 -0.15531 -0.03289
 C225 C 0.46654 -0.13338 -0.02517
 N226 N 0.50842 -0.16258 -0.01657
 H227 H 0.58087 -0.31183 0.00491
 H228 H 0.38691 -0.13328 -0.03978
 C229 C 0.49345 0.25340 -0.00990
 C230 C 0.46859 0.23169 -0.05120
 N231 N 0.44895 0.26044 -0.08797
 C232 C 0.45248 0.31002 -0.08498
 C233 C 0.47530 0.33208 -0.04258
 N234 N 0.49573 0.30290 -0.00632
 N235 N 0.51530 0.22463 0.02575
 C236 C 0.51316 0.17501 0.02217
 C237 C 0.48699 0.15325 -0.01827
 N238 N 0.46522 0.18216 -0.05415
 H239 H 0.43729 0.33209 -0.11511
 H240 H 0.53079 0.15278 0.05111
 C241 C -0.22458 -0.00464 0.52609
 C242 C -0.20069 -0.01836 0.48316
 N243 N -0.22788 -0.02858 0.44099
 C244 C -0.27805 -0.02484 0.43941
 C245 C -0.30279 -0.00927 0.48197
 N246 N -0.27474 -0.00027 0.52446
 N247 N -0.19722 0.00430 0.56865
 C248 C -0.14692 0.00036 0.57007
 C249 C -0.12288 -0.01254 0.52678
 N250 N -0.15061 -0.02167 0.48436
 H251 H -0.29817 -0.03542 0.40548
 H252 H -0.12601 0.00793 0.60442
 C253 C 0.26828 -0.02562 0.51516
 C254 C 0.23707 -0.00632 0.47673
 N255 N 0.25700 0.01392 0.43832
 C256 C 0.30683 0.01564 0.43652
 C257 C 0.33837 -0.00434 0.47462
 N258 N 0.31799 -0.02440 0.51312
 N259 N 0.24838 -0.04444 0.55435
 C260 C 0.19854 -0.04477 0.55693
 C261 C 0.16709 -0.02580 0.51832
 N262 N 0.18732 -0.00713 0.47900
 H263 H 0.32166 0.03293 0.40598
 H264 H 0.18368 -0.05987 0.58868
 C265 C 0.00209 0.52789 1.27142
 C266 C -0.02109 0.49039 1.24374
 N267 N -0.03989 0.45337 1.26712
 C268 C -0.03594 0.45169 1.31703
 C269 C -0.01091 0.48808 1.34502
 N270 N 0.00705 0.52568 1.32125
 N271 N 0.01951 0.56573 1.24798
 C272 C 0.01522 0.56750 1.19800
 C273 C -0.00663 0.52917 1.17012
 N274 N -0.02436 0.49155 1.19388
 H275 H -0.05198 0.42210 1.33469
 H276 H 0.02986 0.59781 1.18020
 C277 C -0.01346 0.51724 0.77918
 C278 C 0.00592 0.47670 0.80575
 N279 N 0.02524 0.43658 0.78119
 C280 C 0.02585 0.43507 0.73121
 C281 C 0.00552 0.47528 0.70433
 N282 N -0.01349 0.51545 0.72938
 N283 N -0.03130 0.55804 0.80359
 C284 C -0.03066 0.56024 0.85355
 C285 C -0.01185 0.51953 0.88041
 N286 N 0.00592 0.47855 0.85570
 H287 H 0.04241 0.40303 0.71268
 H288 H -0.04516 0.59328 0.87206
   
