data_POSCAR
  _audit_creation_date              2014-09-24
  _audit_creation_method            'ToBaCCo'
  _symmetry_space_group_name_H-M    'P1'
  _symmetry_Int_Tables_number       1
  _symmetry_cell_setting            triclinic
  loop_
  _symmetry_equiv_pos_as_xyz
 x,y,z
_cell_length_a 33.1952
_cell_length_b 34.4260
_cell_length_c 38.0570
_cell_angle_alpha 90.445100
_cell_angle_beta 90.490100
_cell_angle_gamma 90.105700
loop_
  _atom_site_label
  _atom_site_type_symbol
  _atom_site_fract_x
  _atom_site_fract_y
  _atom_site_fract_z
C1 C 0.18472 0.21281 0.24387
 C2 C 0.18744 0.23869 0.21553
 C3 C 0.21827 0.23490 0.19086
 C4 C 0.24655 0.20482 0.19453
 C5 C 0.24399 0.17871 0.22247
 C6 C 0.21303 0.18293 0.24718
 H7 H 0.16563 0.26180 0.21249
 H8 H 0.27039 0.20132 0.17552
 H9 H 0.21067 0.16293 0.26890
 C10 C 0.67601 0.71763 0.74853
 C11 C 0.70191 0.68550 0.74808
 C12 C 0.73145 0.68209 0.72205
 C13 C 0.73506 0.71086 0.69674
 C14 C 0.70918 0.74303 0.69652
 C15 C 0.67961 0.74633 0.72245
 H16 H 0.69885 0.66329 0.76788
 H17 H 0.75785 0.70757 0.67674
 H18 H 0.65947 0.77104 0.72210
 C19 C 0.29780 0.80244 0.73279
 C20 C 0.26479 0.82750 0.73639
 C21 C 0.23551 0.82955 0.70978
 C22 C 0.23977 0.80728 0.67916
 C23 C 0.27263 0.78199 0.67518
 C24 C 0.30155 0.77967 0.70207
 H25 H 0.26102 0.84396 0.76053
 H26 H 0.21627 0.80825 0.65924
 H27 H 0.32654 0.75976 0.69917
 C28 C 0.80327 0.25022 0.22917
 C29 C 0.80539 0.23329 0.19575
 C30 C 0.78260 0.24787 0.16781
 C31 C 0.75807 0.28053 0.17323
 C32 C 0.75650 0.29842 0.20648
 C33 C 0.77910 0.28296 0.23462
 H34 H 0.82363 0.20757 0.19172
 H35 H 0.74022 0.29208 0.15179
 H36 H 0.77726 0.29571 0.26067
 C37 C 0.82963 0.72095 0.28240
 C38 C 0.80360 0.68880 0.27970
 C39 C 0.77486 0.68191 0.30583
 C40 C 0.77260 0.70699 0.33481
 C41 C 0.79838 0.73930 0.33766
 C42 C 0.82656 0.74623 0.31126
 H43 H 0.80560 0.66933 0.25732
 H44 H 0.75030 0.70154 0.35479
 H45 H 0.84646 0.77113 0.31336
 C46 C 0.33497 0.25322 -0.23177
 C47 C 0.33228 0.26814 -0.19770
 C48 C 0.30624 0.25176 -0.17342
 C49 C 0.28338 0.21892 -0.18301
 C50 C 0.28647 0.20289 -0.21720
 C51 C 0.31224 0.22043 -0.24160
 H52 H 0.34917 0.29403 -0.19045
 H53 H 0.26293 0.20639 -0.16419
 H54 H 0.31376 0.20918 -0.26823
 C55 C 0.70831 0.23695 -0.26767
 C56 C 0.70878 0.21418 -0.23728
 C57 C 0.73188 0.22572 -0.20798
 C58 C 0.75403 0.26051 -0.20921
 C59 C 0.75323 0.28353 -0.23926
 C60 C 0.73025 0.27166 -0.26856
 H61 H 0.69214 0.18708 -0.23670
 H62 H 0.77204 0.26987 -0.18683
 H63 H 0.73012 0.28881 -0.29232
 C64 C 0.20181 0.77879 0.24698
 C65 C 0.23711 0.79891 0.23869
 C66 C 0.26941 0.80005 0.26260
 C67 C 0.26613 0.78198 0.29526
 C68 C 0.23076 0.76193 0.30386
 C69 C 0.19886 0.76036 0.27970
 H70 H 0.23997 0.81230 0.21315
 H71 H 0.29159 0.78233 0.31328
 H72 H 0.17193 0.74433 0.28641
 C73 C 0.46044 0.43733 0.48993
 C74 C 0.48765 0.43869 0.46187
 C75 C 0.48341 0.46659 0.43559
 C76 C 0.45190 0.49373 0.43764
 C77 C 0.42464 0.49273 0.46552
 C78 C 0.42887 0.46420 0.49153
 H79 H 0.51185 0.41773 0.46006
 H80 H 0.44828 0.51558 0.41755
 H81 H 0.40785 0.46288 0.51309
 C82 C -0.01410 -0.08177 0.98952
 C83 C 0.00602 -0.07439 0.95810
 C84 C 0.00161 -0.03859 0.94116
 C85 C -0.02298 -0.00966 0.95611
 C86 C -0.04292 -0.01690 0.98766
 C87 C -0.03877 -0.05285 1.00404
 H88 H 0.02545 -0.09644 0.94693
 H89 H -0.02596 0.01846 0.94378
 H90 H -0.05387 -0.05773 1.02876
 C91 C 1.01507 0.55509 0.97590
 C92 C 0.99258 0.55225 0.94477
 C93 C 1.00067 0.52310 0.92006
 C94 C 1.03133 0.49605 0.92685
 C95 C 1.05391 0.49831 0.95800
 C96 C 1.04580 0.52799 0.98256
 H97 H 0.96901 0.57320 0.93951
 H98 H 1.03794 0.47335 0.90791
 H99 H 1.06340 0.53010 1.00658
 C100 C 0.52162 0.05256 0.50862
 C101 C 0.50417 0.05461 0.47486
 C102 C 0.51056 0.02499 0.45019
 C103 C 0.53481 -0.00689 0.45932
 C104 C 0.55213 -0.00905 0.49292
 C105 C 0.54555 0.02064 0.51747
 H106 H 0.48531 0.07899 0.46772
 H107 H 0.53941 -0.03046 0.44076
 H108 H 0.55860 0.01874 0.54361
 C109 C -0.03863 0.08559 0.51871
 C110 C -0.05965 0.05065 0.51373
 C111 C -0.05871 0.02197 0.53952
 C112 C -0.03808 0.02894 0.57115
 C113 C -0.01692 0.06395 0.57667
 C114 C -0.01693 0.09205 0.55019
 H115 H -0.07477 0.04494 0.48885
 H116 H -0.03634 0.00604 0.59048
 H117 H 0.00012 0.11862 0.55406
 C118 C 0.47414 0.58254 0.02509
 C119 C 0.44311 0.55481 0.02030
 C120 C 0.43874 0.52446 0.04461
 C121 C 0.46503 0.52211 0.07327
 C122 C 0.49594 0.54944 0.07831
 C123 C 0.50035 0.57949 0.05408
 H124 H 0.42271 0.55680 -0.00195
 H125 H 0.46113 0.49863 0.09173
 H126 H 0.52417 0.60072 0.05786
 C127 C 0.51010 -0.05533 0.00434
 C128 C 0.49088 -0.05432 0.03690
 C129 C 0.50757 -0.03347 0.06508
 C130 C 0.54419 -0.01389 0.06074
 C131 C 0.56374 -0.01457 0.02835
 C132 C 0.54670 -0.03552 -0.00009
 H133 H 0.46202 -0.06863 0.04001
 H134 H 0.55706 0.00304 0.08218
 H135 H 0.56090 -0.03527 -0.02561
 C136 C 1.01443 0.45836 0.48369
 C137 C 0.99595 0.45340 0.51650
 C138 C 0.99792 0.48270 0.54215
 C139 C 1.01835 0.51745 0.53483
 C140 C 1.03659 0.52269 0.50219
 C141 C 1.03510 0.49297 0.47684
 H142 H 0.97983 0.42683 0.52218
 H143 H 1.01909 0.54087 0.55402
 H144 H 1.04871 0.49724 0.45137
 C145 C 0.46997 0.00676 0.21692
 H146 H 0.48377 0.01622 0.24137
 C147 C 0.49295 0.00458 0.18633
 H148 H 0.52450 0.01259 0.18707
 C149 C 0.41220 -0.01587 0.18576
 H150 H 0.38074 -0.02415 0.18596
 C151 C 0.43406 -0.01890 0.15486
 H152 H 0.41913 -0.02913 0.13113
 N153 N 0.43045 -0.00375 0.21603
 C154 C 0.32968 0.03601 0.27982
 H155 H 0.32963 0.01599 0.30158
 C156 C 0.30096 0.06569 0.27826
 H157 H 0.27847 0.06824 0.29858
 C158 C 0.35955 0.05821 0.22731
 H159 H 0.38273 0.05576 0.20771
 C160 C 0.33154 0.08821 0.22479
 H161 H 0.33330 0.10820 0.20304
 Zn162 Zn 0.39843 -0.00669 0.25654
 N163 N 0.35814 0.03265 0.25440
 C164 C 0.42391 0.02865 0.32087
 N165 N 0.43082 -0.00082 0.29764
 C166 C 0.45989 -0.02777 0.30396
 C167 C 0.48223 -0.02663 0.33516
 C168 C 0.44564 0.03087 0.35246
 C169 C 0.33692 -0.06599 0.26270
 C170 C 0.32286 -0.10430 0.25972
 C171 C 0.38925 -0.12407 0.24139
 C172 C 0.40208 -0.08578 0.24504
 N173 N 0.37611 -0.05755 0.25562
 H174 H 0.40115 0.05014 0.31524
 H175 H 0.46547 -0.05059 0.28508
 H176 H 0.50467 -0.04872 0.34028
 H177 H 0.43920 0.05397 0.37102
 H178 H 0.31642 -0.04320 0.27033
 H179 H 0.29166 -0.11076 0.26535
 H180 H 0.41016 -0.14615 0.23263
 H181 H 0.43271 -0.07843 0.23840
 C182 C 0.30180 0.09216 0.25054
 C183 C 0.47507 -0.00901 0.15512
 C184 C 0.34945 -0.13366 0.24878
 C185 C 0.47478 0.00252 0.35994
 C186 C 0.04145 0.02832 0.72397
 H187 H 0.03200 0.01233 0.74679
 C188 C 0.01471 0.03246 0.69582
 H189 H -0.01517 0.01991 0.69719
 C190 C 0.09258 0.06121 0.69287
 H191 H 0.12327 0.07127 0.69123
 C192 C 0.06647 0.06645 0.66417
 H193 H 0.07738 0.08050 0.64075
 N194 N 0.07995 0.04179 0.72185
 C195 C 0.17732 -0.03290 0.74232
 H196 H 0.19999 -0.01121 0.74836
 C197 C 0.18887 -0.07111 0.73378
 H198 H 0.22048 -0.07872 0.73304
 C199 C 0.10840 -0.05023 0.73670
 H200 H 0.07704 -0.04233 0.73853
 C201 C 0.11851 -0.08830 0.72834
 H202 H 0.09491 -0.10944 0.72333
 Zn203 Zn 0.11645 0.02554 0.75793
 N204 N 0.13750 -0.02342 0.74383
 C205 C 0.09293 -0.01564 0.81832
 N206 N 0.08663 0.01742 0.79971
 C207 C 0.05979 0.04471 0.81068
 C208 C 0.03766 0.03896 0.84130
 C209 C 0.07137 -0.02258 0.84892
 C210 C 0.18475 0.07459 0.74300
 C211 C 0.21239 0.10449 0.75056
 C212 C 0.18517 0.10899 0.80902
 C213 C 0.15805 0.07945 0.80037
 N214 N 0.15754 0.06333 0.76757
 H215 H 0.11496 -0.03660 0.80963
 H216 H 0.05559 0.07091 0.79558
 H217 H 0.01631 0.06072 0.84988
 H218 H 0.07680 -0.04906 0.86335
 H219 H 0.18492 0.06063 0.71747
 H220 H 0.23330 0.11376 0.73062
 H221 H 0.18467 0.12200 0.83502
 H222 H 0.13710 0.06984 0.81999
 C223 C 0.15887 -0.09918 0.72703
 C224 C 0.02735 0.05096 0.66534
 C225 C 0.21218 0.12225 0.78394
 C226 C 0.04327 0.00497 0.86061
 C227 C 0.56381 0.47870 0.21149
 H228 H 0.55929 0.45417 0.22863
 C229 C 0.53901 0.48360 0.18211
 H230 H 0.51528 0.46279 0.17647
 C231 C 0.60000 0.53606 0.19795
 H232 H 0.62344 0.55673 0.20447
 C233 C 0.57585 0.54201 0.16819
 H234 H 0.58108 0.56708 0.15184
 N235 N 0.59391 0.50448 0.21861
 C236 C 0.68172 0.43810 0.27939
 H237 H 0.68387 0.45545 0.30316
 C238 C 0.70590 0.40519 0.27542
 H239 H 0.72649 0.39692 0.29626
 C240 C 0.65320 0.42814 0.22271
 H241 H 0.63329 0.43756 0.20190
 C242 C 0.67702 0.39524 0.21757
 H243 H 0.67474 0.37933 0.19298
 Zn244 Zn 0.62578 0.49509 0.25914
 N245 N 0.65575 0.44870 0.25334
 C246 C 0.59058 0.46112 0.32002
 N247 N 0.59045 0.49201 0.29791
 C248 C 0.56425 0.52196 0.30237
 C249 C 0.53741 0.52205 0.33042
 C250 C 0.56442 0.46020 0.34859
 C251 C 0.69215 0.54069 0.24155
 C252 C 0.72037 0.57057 0.24515
 C253 C 0.68918 0.58921 0.29989
 C254 C 0.66152 0.55900 0.29525
 N255 N 0.66311 0.53587 0.26615
 H256 H 0.61092 0.43717 0.31563
 H257 H 0.56442 0.54592 0.28415
 H258 H 0.51682 0.54611 0.33389
 H259 H 0.56504 0.43557 0.36610
 H260 H 0.69305 0.52147 0.21895
 H261 H 0.74309 0.57461 0.22525
 H262 H 0.68729 0.60765 0.32298
 H263 H 0.63882 0.55415 0.31490
 C264 C 0.70380 0.38357 0.24420
 C265 C 0.54508 0.51534 0.16010
 C266 C 0.71884 0.59528 0.27441
 C267 C 0.53758 0.49115 0.35399
 C268 C 0.93461 0.52264 0.68730
 H269 H 0.93524 0.54529 0.70716
 C270 C 0.95757 0.52647 0.65692
 H271 H 0.97586 0.55216 0.65323
 C272 C 0.90983 0.46158 0.66754
 H273 H 0.89156 0.43612 0.67187
 C274 C 0.93235 0.46421 0.63684
 H275 H 0.93079 0.44090 0.61762
 N276 N 0.91057 0.49101 0.69164
 C277 C 0.81263 0.52968 0.75931
 H278 H 0.81300 0.50667 0.77852
 C279 C 0.78465 0.55977 0.76215
 H280 H 0.76334 0.56005 0.78353
 C281 C 0.84006 0.55760 0.70800
 H282 H 0.86134 0.55651 0.68674
 C283 C 0.81270 0.58822 0.70989
 H284 H 0.81347 0.61058 0.69007
 Zn285 Zn 0.87815 0.48882 0.73237
 N286 N 0.84011 0.52958 0.73296
 C287 C 0.90664 0.52245 0.79580
 N288 N 0.91217 0.49295 0.77235
 C289 C 0.94176 0.46615 0.77711
 C290 C 0.96599 0.46740 0.80731
 C291 C 0.93009 0.52474 0.82627
 C292 C 0.82112 0.43549 0.70711
 C293 C 0.79737 0.40199 0.70711
 C294 C 0.82914 0.38341 0.76182
 C295 C 0.85248 0.41708 0.76066
 N296 N 0.84840 0.44209 0.73337
 H297 H 0.88389 0.54419 0.79112
 H298 H 0.94591 0.44335 0.75776
 H299 H 0.98897 0.44557 0.81135
 H300 H 0.92483 0.54808 0.84489
 H301 H 0.81787 0.45634 0.68615
 H302 H 0.77590 0.39674 0.68601
 H303 H 0.83278 0.36377 0.78368
 H304 H 0.87337 0.42339 0.78183
 C305 C 0.78490 0.58964 0.73753
 C306 C 0.95613 0.49731 0.63116
 C307 C 0.80127 0.37567 0.73468
 C308 C 0.95982 0.49661 0.83242
 C309 C 0.19681 0.42268 0.03039
 H310 H 0.21658 0.42604 0.05296
 C311 C 0.16389 0.44741 0.02622
 H312 H 0.15799 0.46971 0.04571
 C313 C 0.18129 0.39070 -0.02347
 H314 H 0.18879 0.36930 -0.04324
 C315 C 0.14813 0.41494 -0.02873
 H316 H 0.13002 0.41160 -0.05236
 N317 N 0.20486 0.39501 0.00573
 C318 C 0.28294 0.31175 0.05930
 H319 H 0.30843 0.31138 0.04178
 C320 C 0.28229 0.28715 0.08835
 H321 H 0.30741 0.26789 0.09336
 C322 C 0.21851 0.33642 0.07375
 H323 H 0.19329 0.35500 0.06762
 C324 C 0.21674 0.31245 0.10318
 H325 H 0.19028 0.31314 0.11960
 Zn326 Zn 0.25313 0.36662 0.01140
 N327 N 0.25140 0.33587 0.05262
 C328 C 0.32111 0.40603 0.04148
 N329 N 0.29488 0.40430 0.01389
 C330 C 0.29625 0.43088 -0.01240
 C331 C 0.32525 0.46038 -0.01187
 C332 C 0.35060 0.43501 0.04302
 C333 C 0.23467 0.30369 -0.03421
 C334 C 0.23941 0.27951 -0.06364
 C335 C 0.29998 0.31489 -0.07778
 C336 C 0.29416 0.33824 -0.04819
 N337 N 0.26140 0.33294 -0.02755
 H338 H 0.31904 0.38517 0.06245
 H339 H 0.27462 0.42917 -0.03379
 H340 H 0.32613 0.48135 -0.03291
 H341 H 0.37124 0.43591 0.06518
 H342 H 0.20921 0.29968 -0.01704
 H343 H 0.21745 0.25698 -0.06934
 H344 H 0.32580 0.32020 -0.09425
 H345 H 0.31571 0.36084 -0.04200
 C346 C 0.24896 0.28736 0.11059
 C347 C 0.13950 0.44393 -0.00374
 C348 C 0.27199 0.28546 -0.08606
 C349 C 0.35281 0.46265 0.01601
 C350 C 0.71443 0.05700 -0.03409
 H351 H 0.73569 0.05417 -0.05533
 C352 C 0.68178 0.03143 -0.03207
 H353 H 0.67766 0.00897 -0.05185
 C354 C 0.69383 0.08955 0.01783
 H355 H 0.69895 0.11168 0.03760
 C356 C 0.66118 0.06434 0.02110
 H357 H 0.64105 0.06793 0.04311
 N358 N 0.71926 0.08597 -0.00982
 C359 C 0.79249 0.16994 -0.06628
 H360 H 0.81682 0.17439 -0.04758
 C361 C 0.79175 0.19064 -0.09769
 H362 H 0.81564 0.21106 -0.10335
 C363 C 0.73078 0.13900 -0.08137
 H364 H 0.70637 0.11984 -0.07452
 C365 C 0.72909 0.15882 -0.11322
 H366 H 0.70366 0.15430 -0.13078
 Zn367 Zn 0.76379 0.12000 -0.01452
 N368 N 0.76232 0.14463 -0.05877
 C369 C 0.83980 0.08519 -0.03324
 N370 N 0.81055 0.08935 -0.00862
 C371 C 0.81407 0.07275 0.02356
 C372 C 0.84955 0.05413 0.03330
 C373 C 0.87541 0.06529 -0.02494
 C374 C 0.73074 0.18221 0.02612
 C375 C 0.72931 0.20809 0.05470
 C376 C 0.79692 0.18890 0.07058
 C377 C 0.79719 0.16381 0.04171
 N378 N 0.76375 0.15943 0.02109
 H379 H 0.83606 0.09811 -0.05886
 H380 H 0.79009 0.07610 0.04241
 H381 H 0.85302 0.04293 0.05967
 H382 H 0.89924 0.06300 -0.04409
 H383 H 0.70490 0.17909 0.00880
 H384 H 0.70230 0.22481 0.05952
 H385 H 0.82335 0.19079 0.08736
 H386 H 0.82411 0.14740 0.03627
 C387 C 0.75984 0.18513 -0.12144
 C388 C 0.65474 0.03507 -0.00430
 C389 C 0.76219 0.21055 0.07792
 C390 C 0.88065 0.05062 0.00909
 C391 C 0.17578 0.58916 0.49943
 H392 H 0.20008 0.56907 0.50430
 C393 C 0.13603 0.57536 0.49771
 H394 H 0.13001 0.54478 0.50155
 C395 C 0.15354 0.65309 0.48742
 H396 H 0.16035 0.68310 0.48218
 C397 C 0.11373 0.64051 0.48509
 H398 H 0.09009 0.66106 0.47894
 N399 N 0.18379 0.62757 0.49443
 C400 C 0.26976 0.70733 0.45160
 H401 H 0.28826 0.71386 0.47443
 C402 C 0.27371 0.72933 0.42111
 H403 H 0.29526 0.75295 0.42033
 C404 C 0.21939 0.66824 0.42428
 H405 H 0.19881 0.64393 0.42546
 C406 C 0.22196 0.68977 0.39354
 H407 H 0.20308 0.68198 0.37124
 Zn408 Zn 0.23721 0.64831 0.49409
 N409 N 0.24267 0.67766 0.45267
 C410 C 0.30197 0.60648 0.46580
 N411 N 0.27671 0.60822 0.49376
 C412 C 0.28002 0.58244 0.52060
 C413 C 0.30989 0.55379 0.52002
 C414 C 0.33217 0.57844 0.46422
 C415 C 0.22179 0.71526 0.53385
 C416 C 0.22424 0.74109 0.56216
 C417 C 0.27515 0.70032 0.58840
 C418 C 0.27160 0.67500 0.55953
 N419 N 0.24459 0.68246 0.53327
 H420 H 0.29897 0.62698 0.44462
 H421 H 0.25965 0.58432 0.54258
 H422 H 0.31253 0.53354 0.54154
 H423 H 0.35202 0.57777 0.44181
 H424 H 0.20178 0.72168 0.51223
 H425 H 0.20537 0.76672 0.56260
 H426 H 0.29613 0.69371 0.60944
 H427 H 0.29022 0.64937 0.55838
 C428 C 0.24931 0.72084 0.39190
 C429 C 0.10463 0.60143 0.49025
 C430 C 0.25076 0.73357 0.58989
 C431 C 0.33643 0.55177 0.49168
 C432 C 0.69808 0.92787 0.53216
 H433 H 0.71811 0.93782 0.55290
 C434 C 0.65807 0.94082 0.53130
 H435 H 0.64760 0.96127 0.55093
 C436 C 0.68510 0.88538 0.48401
 H437 H 0.69490 0.86257 0.46648
 C438 C 0.64498 0.89702 0.48269
 H439 H 0.62438 0.88341 0.46411
 N440 N 0.71042 0.89966 0.50936
 C441 C 0.78377 0.81864 0.56957
 H442 H 0.81060 0.81671 0.55389
 C443 C 0.78039 0.79567 0.59941
 H444 H 0.80470 0.77631 0.60666
 C445 C 0.71851 0.84441 0.57875
 H446 H 0.69397 0.86265 0.57025
 C447 C 0.71402 0.82204 0.60899
 H448 H 0.68619 0.82345 0.62356
 Zn449 Zn 0.75847 0.87073 0.51722
 N450 N 0.75302 0.84232 0.55964
 C451 C 0.84049 0.87965 0.51374
 N452 N 0.80666 0.90090 0.51954
 C453 C 0.80897 0.93981 0.52635
 C454 C 0.84671 0.95839 0.52823
 C455 C 0.87832 0.89692 0.51519
 C456 C 0.75309 0.79726 0.48304
 C457 C 0.75685 0.77134 0.45485
 C458 C 0.78405 0.82348 0.42004
 C459 C 0.77920 0.84855 0.44868
 N460 N 0.76430 0.83505 0.47947
 H461 H 0.83816 0.84904 0.50761
 H462 H 0.78184 0.95641 0.53052
 H463 H 0.84843 0.98922 0.53386
 H464 H 0.90492 0.87950 0.51055
 H465 H 0.74074 0.78735 0.50759
 H466 H 0.74761 0.74136 0.45771
 H467 H 0.79601 0.83460 0.39573
 H468 H 0.78743 0.87885 0.44647
 C469 C 0.74525 0.79713 0.61927
 C470 C 0.63102 0.92420 0.50702
 C471 C 0.77270 0.78436 0.42310
 C472 C 0.88181 0.93645 0.52269
 C473 C 0.01597 0.22046 0.42838
 H474 H 0.03986 0.24158 0.42549
 C475 C 0.01653 0.19495 0.45683
 H476 H 0.04108 0.19610 0.47573
 C477 C -0.04587 0.19372 0.40803
 H478 H -0.07102 0.19414 0.38993
 C479 C -0.04625 0.16751 0.43577
 H480 H -0.07127 0.14751 0.43809
 N481 N -0.01468 0.21907 0.40439
 C482 C 0.03300 0.27631 0.31120
 H483 H 0.00972 0.29783 0.30724
 C484 C 0.06490 0.27361 0.28767
 H485 H 0.06641 0.29319 0.26559
 C486 C 0.05901 0.22379 0.34429
 H487 H 0.05615 0.20396 0.36598
 C488 C 0.09141 0.22000 0.32125
 H489 H 0.11356 0.19748 0.32565
 Zn490 Zn -0.01542 0.25619 0.36763
 N491 N 0.03071 0.25175 0.33894
 C492 C 0.01325 0.33161 0.38671
 N493 N -0.01724 0.30540 0.38991
 C494 C -0.04755 0.31114 0.41318
 C495 C -0.04728 0.34369 0.43527
 C496 C 0.01446 0.36479 0.40813
 C497 C -0.06282 0.21134 0.32323
 C498 C -0.09642 0.20025 0.30342
 C499 C -0.12336 0.26494 0.31076
 C500 C -0.08977 0.27444 0.33177
 N501 N -0.06078 0.24734 0.33807
 H502 H 0.03764 0.32600 0.36878
 H503 H -0.07094 0.28944 0.41567
 H504 H -0.07077 0.34737 0.45458
 H505 H 0.03952 0.38480 0.40611
 H506 H -0.03898 0.19064 0.32814
 H507 H -0.09868 0.17092 0.29310
 H508 H -0.14686 0.28617 0.30639
 H509 H -0.08714 0.30313 0.34333
 C510 C 0.09436 0.24516 0.29248
 C511 C -0.01466 0.16795 0.46051
 C512 C -0.12703 0.22710 0.29712
 C513 C -0.01573 0.37050 0.43325
 C514 C -0.02030 0.67894 0.06993
 H515 H -0.04644 0.69739 0.06700
 C516 C -0.01445 0.64779 0.04679
 H517 H -0.03633 0.64223 0.02609
 C518 C 0.04062 0.66432 0.09998
 H519 H 0.06240 0.67119 0.12032
 C520 C 0.04744 0.63273 0.07763
 H521 H 0.07428 0.61526 0.08094
 N522 N 0.00710 0.68659 0.09585
 C523 C -0.04957 0.75005 0.18146
 H524 H -0.02945 0.77477 0.18316
 C525 C -0.07967 0.74537 0.20643
 H526 H -0.08278 0.76674 0.22724
 C527 C -0.06906 0.69149 0.15275
 H528 H -0.06433 0.67025 0.13216
 C529 C -0.09968 0.68576 0.17716
 H530 H -0.11869 0.66023 0.17522
 Zn531 Zn -0.00078 0.73070 0.12488
 N532 N -0.04485 0.72334 0.15529
 C533 C -0.04285 0.79684 0.10096
 N534 N -0.00983 0.77422 0.09580
 C535 C 0.01666 0.78190 0.06963
 C536 C 0.01100 0.81413 0.04800
 C537 C -0.04942 0.82943 0.08019
 C538 C 0.04959 0.71323 0.18089
 C539 C 0.08147 0.71758 0.20463
 C540 C 0.10346 0.77399 0.17255
 C541 C 0.07078 0.76885 0.14954
 N542 N 0.04488 0.73861 0.15397
 H543 H -0.06405 0.78990 0.12132
 H544 H 0.04237 0.76311 0.06579
 H545 H 0.03260 0.82032 0.02765
 H546 H -0.07535 0.84774 0.08491
 H547 H 0.02829 0.68972 0.18398
 H548 H 0.08494 0.69734 0.22608
 H549 H 0.12394 0.79808 0.16881
 H550 H 0.06611 0.78905 0.12833
 C551 C -0.10496 0.71271 0.20443
 C552 C 0.01996 0.62443 0.05059
 C553 C 0.10878 0.74805 0.20049
 C554 C -0.02230 0.83841 0.05360
 C555 C 0.47803 0.21172 0.56308
 H556 H 0.46940 0.23988 0.55330
 C557 C 0.47644 0.17958 0.54060
 H558 H 0.46633 0.18301 0.51368
 C559 C 0.50423 0.17294 0.60916
 H560 H 0.51622 0.17095 0.63561
 C561 C 0.50385 0.14019 0.58731
 H562 H 0.51505 0.11283 0.59722
 N563 N 0.49272 0.20803 0.59637
 C564 C 0.46770 0.29790 0.67257
 H565 H 0.48944 0.31930 0.66421
 C566 C 0.43683 0.30871 0.69512
 H567 H 0.43489 0.33843 0.70447
 C568 C 0.44199 0.23363 0.66884
 H569 H 0.44347 0.20479 0.65750
 C570 C 0.41117 0.24299 0.69234
 H571 H 0.38906 0.22126 0.69927
 Zn572 Zn 0.50622 0.25288 0.62268
 N573 N 0.46914 0.26122 0.65923
 C574 C 0.46743 0.31219 0.58575
 N575 N 0.50420 0.29635 0.59246
 C576 C 0.53805 0.31027 0.57702
 C577 C 0.53547 0.34089 0.55321
 C578 C 0.46361 0.34320 0.56259
 C579 C 0.56923 0.25304 0.67456
 C580 C 0.60769 0.24356 0.68724
 C581 C 0.62402 0.21823 0.62971
 C582 C 0.58575 0.22884 0.61798
 N583 N 0.55908 0.24549 0.64044
 H584 H 0.44092 0.30030 0.59807
 H585 H 0.56695 0.29726 0.58262
 H586 H 0.56237 0.35141 0.54047
 H587 H 0.43408 0.35517 0.55724
 H588 H 0.54735 0.26582 0.69205
 H589 H 0.61541 0.24933 0.71448
 H590 H 0.64473 0.20427 0.61180
 H591 H 0.57679 0.22275 0.59110
 C592 C 0.40807 0.28128 0.70491
 C593 C 0.49090 0.14384 0.55228
 C594 C 0.63525 0.22544 0.66459
 C595 C 0.49798 0.35757 0.54583
 C596 C 0.50123 0.70873 0.93273
 H597 H 0.52678 0.72808 0.93564
 C598 C 0.49668 0.67749 0.95568
 H599 H 0.51898 0.67289 0.97613
 C600 C 0.44071 0.69170 0.90291
 H601 H 0.41852 0.69769 0.88277
 C602 C 0.43512 0.66003 0.92518
 H603 H 0.40889 0.64157 0.92186
 N604 N 0.47351 0.71520 0.90689
 C605 C 0.53444 0.78526 0.82799
 H606 H 0.51399 0.80968 0.82756
 C607 C 0.56620 0.78358 0.80429
 H608 H 0.57050 0.80687 0.78573
 C609 C 0.55279 0.72422 0.85169
 H610 H 0.54679 0.70077 0.86963
 C611 C 0.58498 0.72133 0.82827
 H612 H 0.60391 0.69577 0.82863
 Zn613 Zn 0.48062 0.75943 0.87776
 N614 N 0.52823 0.75582 0.85097
 C615 C 0.51498 0.82831 0.90812
 N616 N 0.48203 0.80466 0.90669
 C617 C 0.44776 0.81393 0.92417
 C618 C 0.44416 0.84999 0.94079
 C619 C 0.51310 0.86421 0.92559
 C620 C 0.43412 0.73427 0.82007
 C621 C 0.40550 0.73677 0.79304
 C622 C 0.38552 0.79942 0.81582
 C623 C 0.41476 0.79593 0.84218
 N624 N 0.43804 0.76347 0.84418
 H625 H 0.54227 0.82005 0.89473
 H626 H 0.42223 0.79435 0.92309
 H627 H 0.41585 0.85832 0.95257
 H628 H 0.53871 0.88372 0.92534
 H629 H 0.45373 0.70926 0.82158
 H630 H 0.40272 0.71351 0.77386
 H631 H 0.36743 0.82551 0.81456
 H632 H 0.41935 0.81976 0.86031
 C633 C 0.59152 0.75123 0.80398
 C634 C 0.46314 0.65274 0.95197
 C635 C 0.38086 0.76957 0.79081
 C636 C 0.47685 0.87562 0.94107
 N637 N 0.15323 0.21592 0.26930
 N638 N 0.12621 0.24203 0.26745
 N639 N 0.64588 0.71996 0.77523
 N640 N 0.62236 0.74896 0.77793
 N641 N 0.32621 0.79947 0.76118
 N642 N 0.35215 0.77232 0.76263
 N643 N -0.17889 0.23294 0.25550
 N644 N -0.16258 0.21421 0.27908
 N645 N -0.14037 0.72827 0.25643
 N646 N -0.13535 0.70578 0.23012
 N647 N 0.35578 0.27277 0.74535
 N648 N 0.37494 0.29408 0.72569
 N649 N 0.69005 0.22462 0.70380
 N650 N 0.67432 0.21316 0.67617
 N651 N 0.17004 0.77589 0.22140
 N652 N 0.14119 0.75196 0.22523
 N653 N 0.27291 0.14796 0.22476
 N654 N 0.27258 0.12276 0.24908
 N655 N 0.75814 0.64966 0.72003
 N656 N 0.75717 0.62122 0.74111
 N657 N 0.77701 0.31819 0.76043
 N658 N 0.77674 0.34147 0.73465
 N659 N 0.30399 -0.18546 0.25319
 N660 N 0.33720 -0.17325 0.24429
 N661 N 0.20129 -0.15277 0.71528
 N662 N 0.16740 -0.13912 0.71955
 N663 N 0.73109 0.33162 0.21107
 N664 N 0.72941 0.35044 0.23995
 N665 N 0.74710 0.65015 0.30321
 N666 N 0.74716 0.62653 0.27734
 N667 N 0.26231 0.17015 0.77201
 N668 N 0.23796 0.15422 0.79320
 N669 N 0.21965 0.26146 0.16202
 N670 N 0.24814 0.26129 0.13981
 N671 N 0.71190 0.77156 0.66936
 N672 N 0.74142 0.77119 0.64820
 N673 N 0.79601 0.76573 0.36681
 N674 N 0.77614 0.75766 0.39428
 N675 N 0.30210 0.27113 -0.14026
 N676 N 0.27516 0.26306 -0.11788
 N677 N 0.73292 0.20177 -0.17736
 N678 N 0.75866 0.20764 -0.15287
 N679 N 0.22723 0.74092 0.33595
 N680 N 0.25309 0.74349 0.36072
 N681 N 0.27545 0.75658 0.64523
 N682 N 0.25079 0.75932 0.61958
 N683 N 0.78414 0.22772 0.13482
 N684 N 0.75918 0.23300 0.10972
 N685 N 0.46365 0.40822 0.51648
 N686 N 0.49533 0.38787 0.52037
 N687 N -0.00777 0.88212 0.00723
 N688 N -0.02858 0.87312 0.03391
 N689 N 0.00660 0.58625 -0.00016
 N690 N 0.02820 0.59290 0.02700
 N691 N 0.51579 0.08267 0.53417
 N692 N 0.49528 0.11290 0.52735
 N693 N -0.03841 0.11296 0.49061
 N694 N -0.01384 0.14133 0.48930
 N695 N 0.47990 0.61418 1.00128
 N696 N 0.45664 0.62066 0.97520
 N697 N 0.49129 0.92866 0.97759
 N698 N 0.47115 0.91449 0.95337
 N699 N 0.01212 0.42879 0.45702
 N700 N -0.01373 0.40150 0.45852
 N701 N 0.39306 0.52102 0.46662
 N702 N 0.36753 0.52290 0.49137
 N703 N 0.93679 0.01042 0.00357
 N704 N 0.91815 0.03484 0.02067
 N705 N 0.59905 0.00885 0.02490
 N706 N 0.62079 0.00941 -0.00244
 N707 N 0.05136 0.55670 0.49429
 N708 N 0.06343 0.58946 0.48693
 N709 N 0.08545 0.47068 -0.03639
 N710 N 0.10736 0.47105 -0.00880
 N711 N 0.57170 0.95973 0.50214
 N712 N 0.58864 0.92943 0.51060
 N713 N 0.92948 0.98666 0.53178
 N714 N 0.92155 0.95265 0.52419
 N715 N 0.40810 0.49527 0.04162
 N716 N 0.38248 0.49306 0.01666
 N717 N 0.51109 0.46628 0.40689
 N718 N 0.51017 0.49179 0.38287
 N719 N 0.02345 -0.03213 0.90946
 N720 N 0.02060 -0.00086 0.89200
 N721 N 0.00757 0.06956 0.60754
 N722 N 0.00162 0.04949 0.63497
 N723 N 0.52282 0.54693 0.10792
 N724 N 0.51939 0.51956 0.13002
 N725 N 0.48534 -0.03048 0.09698
 N726 N 0.49878 -0.01264 0.12407
 N727 N 0.97735 0.47714 0.57466
 N728 N 0.97790 0.50250 0.59919
 N729 N 0.97754 0.52201 0.88819
 N730 N 0.98356 0.49702 0.86400
 N731 N 0.49061 0.02709 0.41674
 N732 N 0.49588 0.00157 0.39288
   
