data_POSCAR
  _audit_creation_date              2014-09-24
  _audit_creation_method            'ToBaCCo'
  _symmetry_space_group_name_H-M    'P1'
  _symmetry_Int_Tables_number       1
  _symmetry_cell_setting            triclinic
  loop_
  _symmetry_equiv_pos_as_xyz
 x,y,z
_cell_length_a 17.0868
_cell_length_b 17.2204
_cell_length_c 31.7055
_cell_angle_alpha 85.137500
_cell_angle_beta 92.483500
_cell_angle_gamma 120.357900
loop_
  _atom_site_label
  _atom_site_type_symbol
  _atom_site_fract_x
  _atom_site_fract_y
  _atom_site_fract_z
C1 C 0.03442 0.14162 0.55884
 H2 H 0.09531 0.13715 0.55852
 C3 C 0.03200 0.20498 0.58243
 H4 H 0.09084 0.24897 0.60070
 C5 C -0.11535 0.09209 0.53389
 H6 H -0.17143 0.04936 0.51404
 C7 C -0.12049 0.15516 0.55703
 H8 H -0.18112 0.16041 0.55541
 N9 N -0.03826 0.08717 0.53509
 C10 C 0.01878 -0.12470 0.51242
 H11 H 0.02684 -0.11525 0.47838
 C12 C 0.01617 -0.19978 0.53441
 H13 H 0.02398 -0.24744 0.51742
 C14 C -0.00844 -0.07820 0.57584
 H15 H -0.02218 -0.03314 0.59159
 C16 C -0.01136 -0.15228 0.59903
 H17 H -0.02517 -0.16275 0.63271
 Zn18 Zn -0.01733 0.01647 0.50003
 N19 N 0.00521 -0.06656 0.53323
 C20 C 0.16354 0.10329 0.46681
 N21 N 0.08227 0.10009 0.46592
 C22 C 0.07039 0.16398 0.44316
 C23 C 0.14197 0.23514 0.42014
 C24 C 0.23729 0.17375 0.44416
 C25 C -0.19327 -0.12280 0.48611
 C26 C -0.26107 -0.19173 0.46339
 C27 C -0.17505 -0.11728 0.39927
 C28 C -0.10863 -0.05010 0.42324
 N29 N -0.11805 -0.05503 0.46596
 H30 H 0.17185 0.05286 0.48589
 H31 H 0.00540 0.16047 0.44371
 H32 H 0.13201 0.28621 0.40253
 H33 H 0.30231 0.17696 0.44535
 H34 H -0.19780 -0.12629 0.52022
 H35 H -0.31873 -0.24745 0.48010
 H36 H -0.16524 -0.11425 0.36552
 H37 H -0.04723 0.00264 0.40797
 C38 C -0.00091 -0.21457 0.57795
 C39 C -0.04556 0.21271 0.58110
 C40 C -0.25071 -0.19016 0.41968
 C41 C 0.22637 0.24062 0.42096
 C42 C 1.17889 0.07751 0.10947
 H43 H 1.17709 0.13942 0.10948
 C44 C 1.24468 0.07525 0.08601
 H45 H 1.29340 0.13534 0.06758
 C46 C 1.11905 -0.07578 0.13460
 H47 H 1.07095 -0.13364 0.15428
 C48 C 1.18414 -0.08091 0.11154
 H49 H 1.18566 -0.14322 0.11308
 N50 N 1.11793 0.00285 0.13312
 C51 C 0.89793 0.05378 0.15150
 H52 H 0.90000 0.05662 0.18551
 C53 C 0.82512 0.05088 0.12839
 H54 H 0.77179 0.05316 0.14452
 C55 C 0.96052 0.03925 0.08931
 H56 H 1.01091 0.03039 0.07447
 C57 C 0.88915 0.03659 0.06503
 H58 H 0.88622 0.02801 0.03147
 Zn59 Zn 1.04074 0.02067 0.16667
 N60 N 0.96269 0.04608 0.13187
 C61 C 1.11929 0.19564 0.19885
 N62 N 1.11829 0.11597 0.20014
 C63 C 1.17945 0.10244 0.22364
 C64 C 1.24524 0.17054 0.24718
 C65 C 1.18438 0.26592 0.22201
 C66 C 0.89777 -0.15545 0.18211
 C67 C 0.82509 -0.22527 0.20538
 C68 C 0.89019 -0.14649 0.26861
 C69 C 0.96139 -0.07787 0.24418
 N70 N 0.96296 -0.08278 0.20161
 H71 H 1.07102 0.20529 0.17929
 H72 H 1.17773 0.03879 0.22348
 H73 H 1.29407 0.15928 0.26552
 H74 H 1.18576 0.32967 0.22066
 H75 H 0.89939 -0.15642 0.14810
 H76 H 0.77140 -0.28102 0.18935
 H77 H 0.88775 -0.14064 0.30217
 H78 H 1.01212 -0.01847 0.25892
 C79 C 0.81965 0.03999 0.08494
 C80 C 1.24782 -0.00435 0.08729
 C81 C 0.82022 -0.21956 0.24884
 C82 C 1.24819 0.25318 0.24614
 C83 C 0.07073 0.90628 0.88991
 H84 H 0.00577 0.84461 0.88925
 C85 C 0.14218 0.90691 0.91307
 H86 H 0.13216 0.84583 0.93068
 C87 C 0.16392 1.06046 0.86643
 H88 H 0.17228 1.11927 0.84737
 C89 C 0.23755 1.06397 0.88923
 H90 H 0.30254 1.12599 0.88818
 N91 N 0.08268 0.98213 0.86717
 C92 C -0.19287 0.92860 0.84702
 H93 H -0.19765 0.92731 0.81293
 C94 C -0.26048 0.92969 0.86980
 H95 H -0.31829 0.92750 0.85320
 C96 C -0.10774 0.94131 0.90983
 H97 H -0.04621 0.95034 0.92506
 C98 C -0.17397 0.94208 0.93381
 H99 H -0.16401 0.94928 0.96752
 Zn100 Zn -0.01691 0.96587 0.83303
 N101 N -0.11748 0.93645 0.86713
 C102 C -0.11504 0.79190 0.79916
 N103 N -0.03794 0.87413 0.79797
 C104 C 0.03467 0.89254 0.77422
 C105 C 0.03220 0.82671 0.75063
 C106 C -0.12024 0.72364 0.77602
 C107 C 0.01919 1.14325 0.82065
 C108 C 0.01653 1.21569 0.79865
 C109 C -0.01115 1.14050 0.73403
 C110 C -0.00818 1.06938 0.75722
 N111 N 0.00556 1.07147 0.79983
 H112 H -0.17107 0.77841 0.81901
 H113 H 0.09557 0.95807 0.77455
 H114 H 0.09099 0.84171 0.73237
 H115 H -0.18087 0.65759 0.77764
 H116 H 0.02733 1.14193 0.85468
 H117 H 0.02439 1.27121 0.81564
 H118 H -0.02505 1.13708 0.70035
 H119 H -0.02197 1.01052 0.74147
 C120 C -0.24974 0.93886 0.91345
 C121 C 0.22652 0.98611 0.91243
 C122 C -0.00065 1.21331 0.75511
 C123 C -0.04536 0.74121 0.75196
 C124 C 0.43747 -0.01628 -0.02281
 C125 C 0.44657 -0.00635 0.02104
 C126 C 0.52389 0.00206 0.04214
 C127 C 0.59047 -0.00304 0.02026
 C128 C 0.57749 -0.02077 -0.02286
 C129 C 0.50196 -0.02538 -0.04433
 H130 H 0.49340 -0.03595 -0.07786
 H131 H 0.53237 0.01281 0.07565
 C132 C -0.03830 0.41281 0.64479
 C133 C -0.03421 0.40908 0.68934
 C134 C -0.03658 0.47563 0.71085
 C135 C -0.03826 0.54831 0.68827
 C136 C -0.03428 0.55609 0.64373
 C137 C -0.03669 0.48714 0.62221
 H138 H -0.03593 0.49199 0.58788
 H139 H -0.03572 0.47159 0.74518
 C140 C 0.59107 0.59463 0.31368
 C141 C 0.57812 0.59936 0.35679
 C142 C 0.50241 0.52835 0.37819
 C143 C 0.43775 0.45471 0.35659
 C144 C 0.44688 0.45396 0.31275
 C145 C 0.52433 0.52293 0.29173
 H146 H 0.53280 0.52068 0.25822
 H147 H 0.49387 0.53033 0.41172
 C148 C -0.04562 0.28226 0.60318
 C149 C -0.04271 0.34177 0.62187
 C150 C 0.74051 0.71524 0.27235
 C151 C 0.67267 0.66100 0.29146
 C152 C 0.30151 -0.01400 -0.06518
 C153 C 0.36342 -0.01548 -0.04616
 C154 C -0.01280 0.70416 0.60057
 C155 C -0.02344 0.63613 0.61987
 C156 C 0.31797 0.32469 0.26923
 C157 C 0.37702 0.38361 0.28885
 C158 C 0.69116 -0.04854 -0.06464
 C159 C 0.63974 -0.03566 -0.04551
 C160 C 0.31769 -0.00599 0.06435
 C161 C 0.37676 -0.00584 0.04485
 C162 C 0.69230 0.74091 0.39866
 C163 C 0.64061 0.67654 0.37949
 C164 C -0.01260 0.28261 0.73249
 C165 C -0.02330 0.33995 0.71319
 C166 C 0.73984 0.02558 0.06157
 C167 C 0.67198 0.01207 0.04251
 C168 C 0.30150 0.31607 0.39875
 C169 C 0.36355 0.37969 0.37986
 C170 C -0.04548 0.67157 0.72988
 C171 C -0.04261 0.61496 0.71119
   
