data_POSCAR
  _audit_creation_date              2014-09-24
  _audit_creation_method            'ToBaCCo'
  _symmetry_space_group_name_H-M    'P1'
  _symmetry_Int_Tables_number       1
  _symmetry_cell_setting            triclinic
  loop_
  _symmetry_equiv_pos_as_xyz
 x,y,z
_cell_length_a 40.3509
_cell_length_b 40.3278
_cell_length_c 40.3189
_cell_angle_alpha 89.993700
_cell_angle_beta 90.007300
_cell_angle_gamma 89.912100
loop_
  _atom_site_label
  _atom_site_type_symbol
  _atom_site_fract_x
  _atom_site_fract_y
  _atom_site_fract_z
C1 C 0.16954 0.16995 0.20914
 N2 N 0.19700 0.15591 0.19564
 C3 C 0.21063 0.16901 0.16779
 N4 N 0.19670 0.19606 0.15337
 C5 C 0.16924 0.21009 0.16685
 N6 N 0.15563 0.19700 0.19469
 C7 C -0.16673 0.83226 0.21209
 N8 N -0.19449 0.84604 0.19894
 C9 C -0.20892 0.83223 0.17185
 N10 N -0.19548 0.80473 0.15782
 C11 C -0.16772 0.79095 0.17097
 N12 N -0.15332 0.80476 0.19805
 C13 C -0.17132 0.16683 -0.21090
 N14 N -0.19837 0.15230 -0.19720
 C15 C -0.21256 0.16563 -0.16974
 N16 N -0.19961 0.19342 -0.15590
 C17 C -0.17257 0.20796 -0.16960
 N18 N -0.15838 0.19462 -0.19705
 C19 C 0.17126 0.83189 -0.20965
 N20 N 0.15669 0.80447 -0.19675
 C21 C 0.16964 0.78979 -0.16937
 N22 N 0.19709 0.80262 -0.15479
 C23 C 0.21168 0.83004 -0.16768
 N24 N 0.19871 0.84472 -0.19507
 C25 C 0.17035 1.16927 0.79067
 N26 N 0.19746 1.15546 0.80508
 C27 C 0.21054 1.16914 0.83290
 N28 N 0.19641 1.19655 0.84640
 C29 C 0.16930 1.21037 0.83202
 N30 N 0.15623 1.19668 0.80419
 C31 C 0.83250 0.83312 0.78784
 N32 N 0.80510 0.84670 0.80188
 C33 C 0.79124 0.83239 0.82899
 N34 N 0.80487 0.80455 0.84214
 C35 C 0.83227 0.79094 0.82810
 N36 N 0.84613 0.80528 0.80099
 C37 C 0.16738 0.82968 1.21110
 N38 N 0.15297 0.80261 1.19730
 C39 C 0.16645 0.78845 1.16990
 N40 N 0.19427 0.80146 1.15621
 C41 C 0.20869 0.82853 1.17000
 N42 N 0.19519 0.84269 1.19739
 C43 C 0.83245 1.17060 1.21072
 N44 N 0.80503 1.15600 1.19785
 C45 C 0.79038 1.16887 1.17042
 N46 N 0.80325 1.19627 1.15575
 C47 C 0.83067 1.21088 1.16859
 N48 N 0.84531 1.19800 1.19604
 O49 O 0.45344 1.05832 1.05976
 O50 O 0.41737 1.02579 1.03029
 C51 C 0.42369 1.04918 1.05142
 O52 O 0.54670 1.05477 0.94137
 O53 O 0.58304 1.02510 0.97352
 C54 C 0.57652 1.04626 0.95020
 O55 O 0.45341 1.05783 0.94461
 O56 O 0.41728 1.02611 0.97488
 C57 C 0.42365 1.04911 0.95333
 O58 O 0.54675 1.05546 1.06284
 O59 O 0.58306 1.02526 1.03116
 C60 C 0.57656 1.04677 1.05417
 Zr61 Zr 0.50017 1.03990 1.04403
 O62 O 0.50374 1.09227 1.04301
 O63 O 0.49650 1.04078 1.09640
 Zr64 Zr 0.50013 1.03936 0.96027
 O65 O 0.50374 1.09173 0.96023
 O66 O 0.49638 1.03926 0.90789
 O67 O 0.47052 1.04601 1.00212
 O68 O 0.52895 1.04575 1.00212
 O69 O 0.54713 0.94042 1.06334
 O70 O 0.58317 0.96985 1.03076
 C71 C 0.57687 0.94880 1.05423
 O72 O 0.45388 0.93671 0.94498
 O73 O 0.41758 0.96906 0.97443
 C74 C 0.42407 0.94573 0.95328
 O75 O 0.54719 0.94009 0.94203
 O76 O 0.58328 0.97042 0.97375
 C77 C 0.57694 0.94893 0.95069
 O78 O 0.45383 0.93733 1.06044
 O79 O 0.41757 0.96940 1.03060
 C80 C 0.42403 0.94625 1.05197
 Zr81 Zr 0.50043 0.95587 1.04459
 O82 O 0.50431 0.90351 1.04460
 O83 O 0.49677 0.95608 1.09697
 Zr84 Zr 0.50044 0.95535 0.96079
 O85 O 0.50441 0.90300 0.96171
 O86 O 0.49680 0.95454 0.90842
 Zr87 Zr 0.45110 0.99749 1.00236
 Zr88 Zr 0.54944 0.99776 1.00245
 O89 O 0.52924 0.94967 1.00271
 O90 O 0.47083 0.94905 1.00271
 O91 O 0.52979 0.99797 1.05089
 O92 O 0.47160 0.99728 0.95438
 O93 O 0.47165 0.99786 1.05037
 O94 O 0.52974 0.99739 0.95402
 H95 H 0.54403 1.06512 1.00202
 H96 H 0.45663 0.99723 0.93491
 H97 H 0.54436 0.93029 1.00272
 H98 H 0.45677 0.99793 1.06992
 H99 H 0.51470 1.02543 0.89925
 H100 H 0.51463 0.96886 0.89961
 H101 H 0.48533 0.89440 0.97446
 H102 H 0.48561 0.89477 1.03138
 H103 H 0.51519 0.96974 1.10558
 H104 H 0.51429 1.02638 1.10522
 H105 H 0.48448 1.10078 1.03042
 H106 H 0.48508 1.10043 0.97356
 O107 O 0.05492 0.54613 -0.06297
 O108 O 0.02543 0.58243 -0.03065
 C109 C 0.04666 0.57595 -0.05389
 O110 O -0.06362 0.45310 -0.05995
 O111 O -0.03184 0.41676 -0.02985
 C112 C -0.05493 0.42327 -0.05126
 O113 O -0.06041 0.54655 -0.06314
 O114 O -0.03078 0.58261 -0.03075
 C115 C -0.05195 0.57630 -0.05410
 O116 O 0.05755 0.45288 -0.06023
 O117 O 0.02513 0.41673 -0.03077
 C118 C 0.04847 0.42310 -0.05192
 Zr119 Zr 0.03898 0.49954 -0.04449
 O120 O 0.03869 0.49595 -0.09688
 O121 O 0.09132 0.50298 -0.04455
 Zr122 Zr -0.04492 0.49981 -0.04443
 O123 O -0.04506 0.49611 -0.09681
 O124 O -0.09725 0.50371 -0.04422
 O125 O -0.00290 0.52927 -0.05100
 O126 O -0.00303 0.47095 -0.05059
 O127 O 0.05753 0.45281 0.05509
 O128 O 0.02521 0.41669 0.02549
 C129 C 0.04851 0.42305 0.04669
 O130 O -0.06038 0.54646 0.05806
 O131 O -0.03085 0.58260 0.02565
 C132 C -0.05198 0.57624 0.04902
 O133 O -0.06341 0.45312 0.05513
 O134 O -0.03114 0.41683 0.02553
 C135 C -0.05438 0.42330 0.04678
 O136 O 0.05449 0.54614 0.05816
 O137 O 0.02450 0.58253 0.02634
 C138 C 0.04587 0.57598 0.04945
 Zr139 Zr 0.03891 0.49949 0.03949
 O140 O 0.03870 0.49572 0.09187
 O141 O 0.09125 0.50306 0.03964
 Zr142 Zr -0.04485 0.49975 0.03938
 O143 O -0.04496 0.49609 0.09176
 O144 O -0.09719 0.50356 0.03910
 Zr145 Zr -0.00279 0.54887 -0.00254
 Zr146 Zr -0.00297 0.45042 -0.00260
 O147 O -0.00300 0.47088 0.04544
 O148 O -0.00292 0.52920 0.04593
 O149 O 0.04546 0.46992 -0.00253
 O150 O -0.05083 0.52856 -0.00252
 O151 O 0.04512 0.52820 -0.00246
 O152 O -0.05139 0.47020 -0.00254
 H153 H -0.00315 0.45594 -0.07005
 H154 H -0.07031 0.54355 -0.00252
 H155 H -0.00300 0.45597 0.06498
 H156 H 0.06460 0.54313 -0.00233
 H157 H -0.10593 0.48511 -0.03082
 H158 H -0.10585 0.48476 0.02597
 H159 H -0.03126 0.51446 0.10044
 H160 H 0.02540 0.51443 0.10055
 H161 H 0.09992 0.48469 0.02588
 H162 H 0.09994 0.48454 -0.03084
 H163 H 0.02556 0.51481 -0.10549
 H164 H -0.03120 0.51436 -0.10549
 O165 O 1.06286 -0.05486 0.54663
 O166 O 1.03047 -0.02536 0.58287
 C167 C 1.05380 -0.04654 0.57644
 O168 O 1.05994 0.06327 0.45324
 O169 O 1.03043 0.03093 0.41703
 C170 C 1.05162 0.05419 0.42344
 O171 O 1.06275 0.06044 0.54664
 O172 O 1.03041 0.03095 0.58286
 C173 C 1.05370 0.05211 0.57645
 O174 O 1.05996 -0.05777 0.45332
 O175 O 1.03050 -0.02537 0.41705
 C176 C 1.05164 -0.04874 0.42351
 Zr177 Zr 1.04428 -0.03911 0.49996
 O178 O 1.09662 -0.03899 0.49633
 O179 O 1.04434 -0.09148 0.50362
 Zr180 Zr 1.04418 0.04475 0.49995
 O181 O 1.09652 0.04474 0.49636
 O182 O 1.04393 0.09712 0.50356
 O183 O 1.05074 0.00281 0.52959
 O184 O 1.05029 0.00280 0.47123
 O185 O 0.94477 -0.05768 0.45331
 O186 O 0.97421 -0.02536 0.41703
 C187 C 0.95306 -0.04865 0.42349
 O188 O 0.94169 0.06043 0.54658
 O189 O 0.97413 0.03099 0.58284
 C190 C 0.95074 0.05210 0.57639
 O191 O 0.94464 0.06336 0.45325
 O192 O 0.97415 0.03096 0.41702
 C193 C 0.95296 0.05429 0.42344
 O194 O 0.94194 -0.05485 0.54659
 O195 O 0.97420 -0.02534 0.58286
 C196 C 0.95096 -0.04655 0.57640
 Zr197 Zr 0.96046 -0.03908 0.49994
 O198 O 0.90812 -0.03890 0.49632
 O199 O 0.96053 -0.09145 0.50356
 Zr200 Zr 0.96038 0.04477 0.49992
 O201 O 0.90804 0.04481 0.49626
 O202 O 0.96047 0.09715 0.50357
 Zr203 Zr 1.00231 0.00282 0.54922
 Zr204 Zr 1.00232 0.00281 0.45067
 O205 O 0.95436 0.00285 0.47121
 O206 O 0.95389 0.00285 0.52956
 O207 O 1.00238 -0.04563 0.47033
 O208 O 1.00226 0.05082 0.52867
 O209 O 1.00237 -0.04517 0.52867
 O210 O 1.00227 0.05127 0.47029
 H211 H 1.06983 0.00277 0.45636
 H212 H 1.00223 0.07036 0.54357
 H213 H 0.93482 0.00285 0.45633
 H214 H 1.00240 -0.06473 0.54354
 H215 H 1.03064 0.10575 0.48483
 H216 H 0.97388 0.10577 0.48494
 H217 H 0.89940 0.03115 0.51469
 H218 H 0.89947 -0.02559 0.51502
 H219 H 0.97407 -0.10011 0.48503
 H220 H 1.03076 -0.10014 0.48513
 H221 H 1.10524 -0.02562 0.51498
 H222 H 1.10517 0.03113 0.51485
 C223 C 1.07441 0.07760 0.33523
 C224 C 1.09847 0.10197 0.34049
 C225 C 1.10702 0.11105 0.37288
 C226 C 1.09168 0.09570 0.39994
 C227 C 1.15552 0.15649 0.23663
 C228 C 1.05905 0.06222 0.36220
 C229 C 1.11445 0.11740 0.31256
 C230 C 1.12764 0.12998 0.28888
 C231 C 1.14281 0.14440 0.26083
 C232 C 1.06757 0.07100 0.39491
 H233 H 1.06758 0.07039 0.31026
 H234 H 1.12562 0.12990 0.37722
 H235 H 1.09883 0.10308 0.42475
 H236 H 1.04058 0.04336 0.35735
 C237 C 0.93005 -0.07258 0.33547
 C238 C 0.90624 -0.09715 0.34098
 C239 C 0.89793 -0.10613 0.37344
 C240 C 0.91325 -0.09052 0.40034
 C241 C 0.84800 -0.15362 0.23886
 C242 C 0.94540 -0.05691 0.36228
 C243 C 0.89021 -0.11293 0.31329
 C244 C 0.87681 -0.12594 0.28996
 C245 C 0.86121 -0.14096 0.26248
 C246 C 0.93712 -0.06563 0.39508
 H247 H 0.93668 -0.06543 0.31042
 H248 H 0.87952 -0.12513 0.37798
 H249 H 0.90628 -0.09785 0.42521
 H250 H 0.96368 -0.03792 0.35728
 C251 C 0.92627 0.07429 0.66448
 C252 C 0.90142 0.09790 0.65907
 C253 C 0.89253 0.10649 0.62664
 C254 C 0.90848 0.09157 0.59968
 C255 C 0.84322 0.15313 0.76198
 C256 C 0.94225 0.05935 0.63761
 C257 C 0.88516 0.11332 0.68686
 C258 C 0.87175 0.12606 0.71035
 C259 C 0.85627 0.14077 0.73809
 C260 C 0.93359 0.06785 0.60485
 H261 H 0.93333 0.06744 0.68950
 H262 H 0.87331 0.12474 0.62217
 H263 H 0.90117 0.09869 0.57483
 H264 H 0.96141 0.04117 0.64255
 C265 C 1.07761 -0.06948 0.66453
 C266 C 1.10215 -0.09341 0.65910
 C267 C 1.11118 -0.10182 0.62666
 C268 C 1.09562 -0.08647 0.59971
 C269 C 1.15716 -0.15224 0.76178
 C270 C 1.06201 -0.05411 0.63766
 C271 C 1.11774 -0.10956 0.68687
 C272 C 1.13048 -0.12306 0.71031
 C273 C 1.14503 -0.13883 0.73797
 C274 C 1.07076 -0.06250 0.60490
 H275 H 1.07043 -0.06279 0.68955
 H276 H 1.13014 -0.12034 0.62219
 H277 H 1.10297 -0.09352 0.57487
 H278 H 1.04303 -0.03575 0.64261
 C279 C 0.33554 1.07305 1.07389
 C280 C 0.34082 1.09770 1.09771
 C281 C 0.37318 1.10672 1.10626
 C282 C 0.40020 1.09108 1.09114
 C283 C 0.23776 1.15466 1.15393
 C284 C 0.36248 1.05737 1.05874
 C285 C 0.31297 1.11358 1.11341
 C286 C 0.28944 1.12668 1.12639
 C287 C 0.26167 1.14183 1.14137
 C288 C 0.39517 1.06614 1.06724
 H289 H 0.31058 1.06588 1.06706
 H290 H 0.37754 1.12580 1.12467
 H291 H 0.42499 1.09847 1.09826
 H292 H 0.35764 1.03833 1.04043
 C293 C 0.33610 0.92190 0.93037
 C294 C 0.34155 0.89756 0.90625
 C295 C 0.37398 0.88861 0.89777
 C296 C 0.40089 0.90406 0.91320
 C297 C 0.23878 0.84326 0.84726
 C298 C 0.36292 0.93740 0.94583
 C299 C 0.31381 0.88214 0.88999
 C300 C 0.29036 0.86957 0.87643
 C301 C 0.26265 0.85522 0.86064
 C302 C 0.39568 0.92876 0.93733
 H303 H 0.31109 0.92902 0.93713
 H304 H 0.37847 0.86980 0.87911
 H305 H 0.42573 0.89680 0.90606
 H306 H 0.35795 0.95624 0.96431
 C307 C 0.66509 0.92691 1.07839
 C308 C 0.65992 0.90291 1.10289
 C309 C 0.62758 0.89410 1.11180
 C310 C 0.60049 0.90912 1.09614
 C311 C 0.76367 0.84639 1.15831
 C312 C 0.63809 0.94194 1.06269
 C313 C 0.68786 0.88720 1.11861
 C314 C 0.71153 0.87418 1.13143
 C315 C 0.73953 0.85911 1.14608
 C316 C 0.60543 0.93315 1.07130
 H317 H 0.69001 0.93393 1.07131
 H318 H 0.62330 0.87555 1.13075
 H319 H 0.57573 0.90177 1.10339
 H320 H 0.64286 0.96037 1.04375
 C321 C 0.66441 1.06830 0.92521
 C322 C 0.65884 1.09244 0.90091
 C323 C 0.62638 1.10123 0.89239
 C324 C 0.59955 1.08608 0.90823
 C325 C 0.76072 1.15077 0.84429
 C326 C 0.63765 1.05312 0.94110
 C327 C 0.68647 1.10842 0.88502
 C328 C 0.70974 1.12182 0.87196
 C329 C 0.73715 1.13747 0.85692
 C330 C 0.60487 1.06192 0.93289
 H331 H 0.68944 1.06131 0.93200
 H332 H 0.62180 1.11990 0.87361
 H333 H 0.57468 1.09345 0.90128
 H334 H 0.64269 1.03460 0.95990
 C335 C 0.07260 0.33496 0.06943
 C336 C 0.09722 0.34040 0.09324
 C337 C 0.10615 0.37284 0.10166
 C338 C 0.09045 0.39977 0.08644
 C339 C 0.15420 0.23834 0.15127
 C340 C 0.05684 0.36182 0.05417
 C341 C 0.11311 0.31269 0.10917
 C342 C 0.12624 0.28936 0.12250
 C343 C 0.14141 0.26192 0.13807
 C344 C 0.06553 0.39458 0.06256
 H345 H 0.06549 0.30995 0.06271
 H346 H 0.12519 0.37732 0.12007
 H347 H 0.09776 0.42461 0.09350
 H348 H 0.03782 0.35688 0.03589
 C349 C -0.07958 0.33519 -0.07301
 C350 C -0.10362 0.34053 -0.09744
 C351 C -0.11210 0.37294 -0.10654
 C352 C -0.09648 0.39993 -0.09140
 C353 C -0.15847 0.23695 -0.15456
 C354 C -0.06392 0.36208 -0.05785
 C355 C -0.11922 0.31266 -0.11334
 C356 C -0.13192 0.28904 -0.12650
 C357 C -0.14639 0.26107 -0.14173
 C358 C -0.07209 0.39482 -0.06694
 H359 H -0.07283 0.31020 -0.06576
 H360 H -0.13068 0.37735 -0.12544
 H361 H -0.10337 0.42476 -0.09900
 H362 H -0.04533 0.35718 -0.03909
 C363 C 0.10268 0.62605 -0.11049
 C364 C 0.09431 0.65850 -0.10143
 C365 C 0.07010 0.66397 -0.07720
 C366 C 0.05444 0.63714 -0.06191
 C367 C 0.15383 0.76117 -0.15536
 C368 C 0.08704 0.59914 -0.09524
 C369 C 0.11075 0.68623 -0.11668
 C370 C 0.12446 0.70967 -0.12913
 C371 C 0.14038 0.73734 -0.14341
 C372 C 0.06281 0.60437 -0.07065
 H373 H 0.12140 0.62155 -0.12922
 H374 H 0.06343 0.68899 -0.07000
 H375 H 0.03589 0.64212 -0.04314
 H376 H 0.09409 0.57428 -0.10258
 C377 C -0.07390 0.66441 0.07348
 C378 C -0.09768 0.65911 0.09815
 C379 C -0.10642 0.62672 0.10696
 C380 C -0.09152 0.59970 0.09109
 C381 C -0.15316 0.76223 0.15578
 C382 C -0.05897 0.63747 0.05757
 C383 C -0.11313 0.68697 0.11428
 C384 C -0.12593 0.71051 0.12756
 C385 C -0.14072 0.73830 0.14287
 C386 C -0.06765 0.60476 0.06614
 H387 H -0.06692 0.68939 0.06648
 H388 H -0.12481 0.62235 0.12605
 H389 H -0.09878 0.57489 0.09832
 H390 H -0.04067 0.64233 0.03854
 C391 C 1.07745 0.07457 0.66465
 C392 C 1.10190 0.09854 0.65938
 C393 C 1.11089 0.10718 0.62699
 C394 C 1.09537 0.09200 0.59993
 C395 C 1.15690 0.15520 0.76320
 C396 C 1.06190 0.05937 0.63769
 C397 C 1.11751 0.11437 0.68730
 C398 C 1.13023 0.12743 0.71098
 C399 C 1.14475 0.14251 0.73902
 C400 C 1.07060 0.06796 0.60497
 H401 H 1.07031 0.06769 0.68962
 H402 H 1.12980 0.12572 0.62264
 H403 H 1.10269 0.09920 0.57512
 H404 H 1.04300 0.04096 0.64254
 C405 C 0.89380 -0.10201 0.62644
 C406 C 0.90282 -0.09373 0.65891
 C407 C 0.92729 -0.06982 0.66442
 C408 C 0.94283 -0.05434 0.63761
 C409 C 0.84665 -0.15222 0.76104
 C410 C 0.90929 -0.08656 0.59955
 C411 C 0.88717 -0.10990 0.68659
 C412 C 0.87424 -0.12337 0.70992
 C413 C 0.85930 -0.13901 0.73741
 C414 C 0.93408 -0.06259 0.60482
 H415 H 0.87487 -0.12049 0.62190
 H416 H 0.93445 -0.06322 0.68946
 H417 H 0.96175 -0.03599 0.64261
 H418 H 0.90194 -0.09351 0.57468
 C419 C 1.07406 -0.07308 0.33544
 C420 C 1.09772 -0.09787 0.34088
 C421 C 1.10624 -0.10679 0.37333
 C422 C 1.09121 -0.09091 0.40027
 C423 C 1.15352 -0.15581 0.23815
 C424 C 1.05900 -0.05716 0.36229
 C425 C 1.11327 -0.11405 0.31312
 C426 C 1.12615 -0.12739 0.28967
 C427 C 1.14102 -0.14280 0.26199
 C428 C 1.06745 -0.06584 0.39506
 H429 H 1.06726 -0.06600 0.31041
 H430 H 1.12453 -0.12597 0.37782
 H431 H 1.09829 -0.09823 0.42512
 H432 H 1.04079 -0.03803 0.35733
 C433 C 0.89767 0.11162 0.37315
 C434 C 0.90611 0.10258 0.34072
 C435 C 0.93007 0.07806 0.33533
 C436 C 0.94544 0.06249 0.36222
 C437 C 0.84743 0.15733 0.23782
 C438 C 0.91301 0.09609 0.40012
 C439 C 0.88998 0.11813 0.31293
 C440 C 0.87650 0.13081 0.28944
 C441 C 0.86079 0.14528 0.26170
 C442 C 0.93701 0.07124 0.39497
 H443 H 0.87913 0.13057 0.37760
 H444 H 0.93678 0.07087 0.31032
 H445 H 0.96381 0.04352 0.35729
 H446 H 0.90593 0.10344 0.42496
 C447 C 0.07265 0.33497 -0.07432
 C448 C 0.09730 0.34034 -0.09812
 C449 C 0.10617 0.37275 -0.10671
 C450 C 0.09040 0.39973 -0.09164
 C451 C 0.15485 0.23745 -0.15411
 C452 C 0.05684 0.36188 -0.05922
 C453 C 0.11335 0.31253 -0.11373
 C454 C 0.12660 0.28904 -0.12665
 C455 C 0.14191 0.26132 -0.14157
 C456 C 0.06548 0.39461 -0.06775
 H457 H 0.06561 0.30998 -0.06746
 H458 H 0.12524 0.37717 -0.12510
 H459 H 0.09769 0.42456 -0.09878
 H460 H 0.03783 0.35698 -0.04091
 C461 C -0.11112 0.37312 0.10260
 C462 C -0.10213 0.34068 0.09414
 C463 C -0.07789 0.33524 0.06992
 C464 C -0.06254 0.36210 0.05435
 C465 C -0.15611 0.23794 0.15356
 C466 C -0.09581 0.40006 0.08705
 C467 C -0.11741 0.31292 0.11051
 C468 C -0.12989 0.28947 0.12418
 C469 C -0.14417 0.26178 0.14009
 C470 C -0.07122 0.39486 0.06283
 H471 H -0.12986 0.37760 0.12132
 H472 H -0.07074 0.31023 0.06318
 H473 H -0.04377 0.35714 0.03580
 H474 H -0.10311 0.42490 0.09418
 C475 C -0.10657 0.62709 -0.11168
 C476 C -0.09776 0.65944 -0.10276
 C477 C -0.07384 0.66459 -0.07819
 C478 C -0.05886 0.63757 -0.06247
 C479 C -0.15374 0.76344 -0.15835
 C480 C -0.09161 0.59997 -0.09600
 C481 C -0.11336 0.68742 -0.11854
 C482 C -0.12625 0.71115 -0.13140
 C483 C -0.14116 0.73923 -0.14609
 C484 C -0.06762 0.60490 -0.07113
 H485 H -0.12507 0.62283 -0.13068
 H486 H -0.06682 0.68953 -0.07109
 H487 H -0.04047 0.64233 -0.04350
 H488 H -0.09894 0.57520 -0.10329
 C489 C 0.06823 0.66390 0.07421
 C490 C 0.09244 0.65831 0.09842
 C491 C 0.10118 0.62582 0.10695
 C492 C 0.08591 0.59899 0.09121
 C493 C 0.15086 0.76019 0.15499
 C494 C 0.05293 0.63714 0.05842
 C495 C 0.10850 0.68593 0.11425
 C496 C 0.12194 0.70920 0.12729
 C497 C 0.13760 0.73662 0.14232
 C498 C 0.06167 0.60433 0.06665
 H499 H 0.06128 0.68896 0.06743
 H500 H 0.11990 0.62121 0.12567
 H501 H 0.09324 0.57410 0.09816
 H502 H 0.03436 0.64221 0.03969
 C503 C 0.33561 1.07360 0.93104
 C504 C 0.34103 1.09774 0.90672
 C505 C 0.37344 1.10627 0.89786
 C506 C 0.40036 1.09062 0.91313
 C507 C 0.23885 1.15422 0.84846
 C508 C 0.36247 1.05790 0.94634
 C509 C 0.31330 1.11351 0.89070
 C510 C 0.28996 1.12652 0.87730
 C511 C 0.26247 1.14154 0.86168
 C512 C 0.39520 1.06616 0.93749
 H513 H 0.31062 1.06681 0.93810
 H514 H 0.37790 1.12494 0.87906
 H515 H 0.42518 1.09760 0.90571
 H516 H 0.35754 1.03924 0.96501
 C517 C 0.33597 0.92232 1.07437
 C518 C 0.34129 0.89793 1.09847
 C519 C 0.37368 0.88908 1.10724
 C520 C 0.40067 0.90465 1.09205
 C521 C 0.23769 0.84271 1.15511
 C522 C 0.36286 0.93792 1.05916
 C523 C 0.31343 0.88225 1.11427
 C524 C 0.28981 0.86947 1.12733
 C525 C 0.26183 0.85489 1.14241
 C526 C 0.39558 0.92934 1.06788
 H527 H 0.31100 0.92935 1.06738
 H528 H 0.37807 0.87023 1.12588
 H529 H 0.42548 0.89743 1.09935
 H530 H 0.35797 0.95675 1.04064
 C531 C 0.62666 1.10275 1.11082
 C532 C 0.65908 1.09376 1.10237
 C533 C 0.66453 1.06910 1.07858
 C534 C 0.63771 1.05363 1.06310
 C535 C 0.76177 1.15305 1.15646
 C536 C 0.59975 1.08730 1.09538
 C537 C 0.68682 1.11009 1.11771
 C538 C 0.71026 1.12373 1.13022
 C539 C 0.73794 1.13961 1.14451
 C540 C 0.60496 1.06265 1.07121
 H541 H 0.62217 1.12183 1.12920
 H542 H 0.68954 1.06194 1.07185
 H543 H 0.64267 1.03473 1.04467
 H544 H 0.57491 1.09486 1.10222
 C545 C 0.62738 0.89405 0.89315
 C546 C 0.65975 0.90327 0.90149
 C547 C 0.66504 0.92760 0.92565
 C548 C 0.63812 0.94256 0.94153
 C549 C 0.76263 0.84714 0.84416
 C550 C 0.60039 0.90899 0.90900
 C551 C 0.68758 0.88768 0.88547
 C552 C 0.71107 0.87474 0.87227
 C553 C 0.73878 0.85975 0.85703
 C554 C 0.60544 0.93337 0.93347
 H555 H 0.62301 0.87525 0.87447
 H556 H 0.69000 0.93494 0.93227
 H557 H 0.64297 0.96126 0.96018
 H558 H 0.57560 0.90132 0.90217
   
