data_POSCAR
  _audit_creation_date              2014-09-24
  _audit_creation_method            'ToBaCCo'
  _symmetry_space_group_name_H-M    'P1'
  _symmetry_Int_Tables_number       1
  _symmetry_cell_setting            triclinic
  loop_
  _symmetry_equiv_pos_as_xyz
 x,y,z
_cell_length_a 13.8764
_cell_length_b 13.6191
_cell_length_c 14.0397
_cell_angle_alpha 90.062900
_cell_angle_beta 90.293400
_cell_angle_gamma 90.488200
loop_
  _atom_site_label
  _atom_site_type_symbol
  _atom_site_fract_x
  _atom_site_fract_y
  _atom_site_fract_z
C1 C 0.00055 0.49942 0.25583
 C2 C -0.00062 0.50052 0.74417
 C3 C 0.23736 -0.00443 0.50366
 C4 C 0.76258 0.00436 0.49634
 C5 C 0.49441 0.25367 0.99661
 C6 C 0.50553 0.74626 1.00339
 B7 B 1.00297 1.10600 0.05612
 B8 B 0.99649 1.09940 -0.06662
 B9 B 1.10060 1.06393 -0.00967
 B10 B 1.06676 1.00716 0.09748
 B11 B 0.94397 1.00432 0.10223
 B12 B 0.89704 1.06200 -0.00027
 B13 B 0.99696 0.89393 -0.05612
 B14 B 1.00344 0.90053 0.06662
 B15 B 0.89934 0.93601 0.00967
 B16 B 0.93318 0.99277 -0.09748
 B17 B 1.05597 0.99561 -0.10223
 B18 B 1.10289 0.93794 0.00027
 B19 B 0.60355 0.49769 0.44275
 B20 B 0.59951 0.49725 0.56495
 B21 B 0.56564 0.60129 0.50237
 B22 B 0.50639 0.56280 0.40051
 B23 B 0.50013 0.43726 0.39948
 B24 B 0.55804 0.39534 0.50192
 B25 B 0.39638 0.50224 0.55725
 B26 B 0.40042 0.50268 0.43505
 B27 B 0.43429 0.39864 0.49763
 B28 B 0.49354 0.43713 0.59949
 B29 B 0.49980 0.56267 0.60052
 B30 B 0.44189 0.60460 0.49808
 C31 C 0.93397 1.37205 0.13790
 C32 C 1.01399 1.41182 0.18417
 C33 C 1.09964 1.35636 0.17549
 C34 C 1.09535 1.25643 0.15013
 C35 C 1.01054 1.21379 0.11217
 C36 C 0.93004 1.27037 0.12729
 H37 H 0.86708 1.41240 0.13570
 H38 H 1.16939 1.38702 0.19335
 H39 H 1.15980 1.21360 0.15890
 H40 H 0.86399 1.23580 0.14408
 C41 C 1.06995 0.63135 0.14662
 C42 C 0.98925 0.59443 0.19435
 C43 C 0.90779 0.65636 0.19656
 C44 C 0.91401 0.75462 0.16650
 C45 C 0.99874 0.79408 0.12539
 C46 C 1.07773 0.73177 0.12950
 H47 H 1.13472 0.58770 0.14217
 H48 H 0.83916 0.63130 0.22351
 H49 H 0.85188 0.79930 0.17883
 H50 H 1.14816 0.76061 0.13201
 C51 C 1.09214 1.34358 -0.19656
 C52 C 1.01068 1.40550 -0.19435
 C53 C 0.92999 1.36858 -0.14662
 C54 C 0.92220 1.26817 -0.12950
 C55 C 1.00120 1.20585 -0.12539
 C56 C 1.08592 1.24531 -0.16650
 H57 H 1.16077 1.36863 -0.22351
 H58 H 0.86522 1.41223 -0.14217
 H59 H 0.85177 1.23932 -0.13201
 H60 H 1.14805 1.20063 -0.17883
 C61 C 1.06596 0.62789 -0.13790
 C62 C 0.98595 0.58811 -0.18417
 C63 C 0.90030 0.64357 -0.17549
 C64 C 0.90458 0.74350 -0.15013
 C65 C 0.98940 0.78615 -0.11217
 C66 C 1.06990 0.72956 -0.12729
 H67 H 1.13285 0.58754 -0.13570
 H68 H 0.83055 0.61291 -0.19335
 H69 H 0.84014 0.78633 -0.15890
 H70 H 1.13595 0.76413 -0.14408
 C71 C 1.12359 1.07281 0.37402
 C72 C 1.18250 0.99503 0.40385
 C73 C 1.21065 0.92993 0.32902
 C74 C 1.18169 0.94063 0.23480
 C75 C 1.12016 1.01468 0.20472
 C76 C 1.09129 1.08049 0.27873
 H77 H 1.10372 1.13018 0.42286
 H78 H 1.26026 0.87029 0.33878
 H79 H 1.20780 0.88698 0.18719
 H80 H 1.03547 1.13325 0.26794
 C81 C 1.10075 1.04933 -0.37950
 C82 C 1.17861 0.98850 -0.40083
 C83 C 1.21801 0.93539 -0.32192
 C84 C 1.17572 0.93311 -0.23321
 C85 C 1.10179 0.99643 -0.21011
 C86 C 1.06642 1.05635 -0.28577
 H87 H 1.06901 1.09589 -0.43264
 H88 H 1.28521 0.89602 -0.32577
 H89 H 1.21077 0.88989 -0.17980
 H90 H 1.00754 1.10587 -0.27562
 C91 C 0.89918 0.95060 0.37950
 C92 C 0.82132 1.01144 0.40083
 C93 C 0.78192 1.06454 0.32192
 C94 C 0.82421 1.06683 0.23321
 C95 C 0.89814 1.00351 0.21011
 C96 C 0.93351 0.94358 0.28577
 H97 H 0.93092 0.90404 0.43264
 H98 H 0.71473 1.10391 0.32577
 H99 H 0.78917 1.11004 0.17980
 H100 H 0.99239 0.89406 0.27561
 C101 C 0.87635 0.92712 -0.37402
 C102 C 0.81743 1.00490 -0.40385
 C103 C 0.78928 1.07001 -0.32902
 C104 C 0.81824 1.05930 -0.23480
 C105 C 0.87977 0.98526 -0.20472
 C106 C 0.90864 0.91945 -0.27873
 H107 H 0.89622 0.86975 -0.42286
 H108 H 0.73968 1.12965 -0.33878
 H109 H 0.79214 1.11295 -0.18719
 H110 H 0.96447 0.86668 -0.26794
 C111 C 1.37562 1.12623 -0.07758
 C112 C 1.39507 1.20165 -0.01174
 C113 C 1.31189 1.25282 0.01839
 C114 C 1.21991 1.21900 -0.00246
 C115 C 1.20426 1.12303 -0.03066
 C116 C 1.28202 1.08681 -0.08570
 H117 H 1.43017 1.09867 -0.12462
 H118 H 1.31434 1.32457 0.04932
 H119 H 1.16205 1.27056 -0.00080
 H120 H 1.27704 1.02155 -0.12576
 C121 C 0.60658 1.09608 -0.03026
 C122 C 0.59037 1.19373 -0.00132
 C123 C 0.67310 1.25137 0.01364
 C124 C 0.76440 1.21296 0.00946
 C125 C 0.78472 1.11356 -0.00825
 C126 C 0.70185 1.06173 -0.04285
 H127 H 0.54883 1.04686 -0.04862
 H128 H 0.66715 1.32999 0.02462
 H129 H 0.81689 1.26927 0.00848
 H130 H 0.70947 0.99220 -0.07881
 C131 C 1.39336 0.90385 0.03026
 C132 C 1.40956 0.80620 0.00132
 C133 C 1.32684 0.74856 -0.01364
 C134 C 1.23553 0.78698 -0.00946
 C135 C 1.21521 0.88637 0.00825
 C136 C 1.29808 0.93820 0.04285
 H137 H 1.45110 0.95307 0.04862
 H138 H 1.33278 0.66994 -0.02463
 H139 H 1.18304 0.73066 -0.00848
 H140 H 1.29046 1.00774 0.07881
 C141 C 0.68805 0.74712 -0.01839
 C142 C 0.60487 0.79829 0.01174
 C143 C 0.62432 0.87370 0.07758
 C144 C 0.71791 0.91312 0.08570
 C145 C 0.79567 0.87691 0.03066
 C146 C 0.78002 0.78093 0.00246
 H147 H 0.68559 0.67537 -0.04932
 H148 H 0.56977 0.90126 0.12462
 H149 H 0.72290 0.97838 0.12576
 H150 H 0.83788 0.72938 0.00080
 C151 C 0.84209 0.40697 0.31360
 C152 C 0.90935 0.48521 0.32124
 C153 C 0.88233 0.56065 0.38292
 C154 C 0.78768 0.56666 0.41667
 C155 C 0.71388 0.49743 0.39366
 C156 C 0.74457 0.41950 0.33603
 H157 H 0.86251 0.33526 0.28952
 H158 H 0.93219 0.62032 0.39835
 H159 H 0.77631 0.62815 0.46054
 H160 H 0.69670 0.36036 0.31888
 C161 C 0.14846 0.59468 0.32987
 C162 C 0.09191 0.50853 0.32205
 C163 C 0.13296 0.42418 0.36082
 C164 C 0.23297 0.41960 0.37415
 C165 C 0.29314 0.50350 0.37875
 C166 C 0.24755 0.59027 0.34926
 H167 H 0.11818 0.66609 0.31576
 H168 H 0.09141 0.35647 0.36365
 H169 H 0.25883 0.34849 0.38460
 H170 H 0.28474 0.65804 0.34553
 C171 C 0.85148 0.40526 0.67013
 C172 C 0.90802 0.49141 0.67795
 C173 C 0.86697 0.57576 0.63918
 C174 C 0.76697 0.58034 0.62585
 C175 C 0.70679 0.49643 0.62125
 C176 C 0.75238 0.40966 0.65074
 H177 H 0.88175 0.33385 0.68424
 H178 H 0.90852 0.64347 0.63635
 H179 H 0.74110 0.65145 0.61540
 H180 H 0.71519 0.34189 0.65447
 C181 C 0.15785 0.59296 0.68640
 C182 C 0.09059 0.51473 0.67876
 C183 C 0.11760 0.43928 0.61708
 C184 C 0.21225 0.43327 0.58333
 C185 C 0.28605 0.50251 0.60634
 C186 C 0.25536 0.58043 0.66397
 H187 H 0.13742 0.66467 0.71048
 H188 H 0.06774 0.37961 0.60165
 H189 H 0.22362 0.37178 0.53946
 H190 H 0.30323 0.63957 0.68112
 C191 C 0.44412 0.72293 0.17643
 C192 C 0.50117 0.68665 0.10008
 C193 C 0.57182 0.61799 0.12791
 C194 C 0.58010 0.58568 0.22312
 C195 C 0.51632 0.61737 0.29574
 C196 C 0.45373 0.69144 0.26952
 H197 H 0.39269 0.78110 0.16883
 H198 H 0.62363 0.59033 0.07812
 H199 H 0.63193 0.52950 0.23622
 H200 H 0.41096 0.72851 0.31973
 C201 C 0.46923 0.74777 0.82041
 C202 C 0.50358 0.69452 0.90132
 C203 C 0.54248 0.60203 0.88072
 C204 C 0.55499 0.57117 0.78570
 C205 C 0.50491 0.61513 0.70827
 C206 C 0.46239 0.70590 0.72911
 H207 H 0.44409 0.82241 0.82751
 H208 H 0.57062 0.55598 0.93639
 H209 H 0.59849 0.50699 0.77535
 H210 H 0.42983 0.74905 0.67354
 C211 C 0.45745 0.39790 0.11928
 C212 C 0.49635 0.30541 0.09868
 C213 C 0.53071 0.25217 0.17959
 C214 C 0.53754 0.29403 0.27089
 C215 C 0.49502 0.38480 0.29173
 C216 C 0.44495 0.42876 0.21430
 H217 H 0.42932 0.44395 0.06361
 H218 H 0.55584 0.17752 0.17249
 H219 H 0.57011 0.25088 0.32646
 H220 H 0.40144 0.49294 0.22465
 C221 C 0.55582 0.27700 0.82357
 C222 C 0.49877 0.31329 0.89992
 C223 C 0.42811 0.38194 0.87209
 C224 C 0.41984 0.41425 0.77688
 C225 C 0.48362 0.38256 0.70426
 C226 C 0.54620 0.30849 0.73048
 H227 H 0.60724 0.21883 0.83117
 H228 H 0.37630 0.40961 0.92188
 H229 H 0.36801 0.47044 0.76378
 H230 H 0.58897 0.27143 0.68027
 C231 C 0.69659 0.84591 0.41045
 C232 C 0.70043 0.90773 0.49191
 C233 C 0.65942 0.86946 0.57544
 C234 C 0.62532 0.77292 0.57990
 C235 C 0.62332 0.70908 0.50028
 C236 C 0.66051 0.74958 0.41489
 H237 H 0.72302 0.86963 0.34197
 H238 H 0.65938 0.91212 0.64052
 H239 H 0.60979 0.74720 0.64928
 H240 H 0.66396 0.70694 0.35067
 C241 C 0.75747 0.18927 0.48828
 C242 C 0.70512 0.10006 0.49671
 C243 C 0.60756 0.10520 0.51548
 C244 C 0.56470 0.19657 0.52381
 C245 C 0.61224 0.28685 0.50278
 C246 C 0.71163 0.27892 0.48868
 H247 H 0.83529 0.18894 0.48171
 H248 H 0.56647 0.04022 0.53333
 H249 H 0.49988 0.19289 0.56183
 H250 H 0.75804 0.34177 0.48744
 C251 C 0.24247 0.81066 0.51172
 C252 C 0.29481 0.89987 0.50329
 C253 C 0.39237 0.89473 0.48452
 C254 C 0.43524 0.80337 0.47619
 C255 C 0.38769 0.71308 0.49722
 C256 C 0.28830 0.72101 0.51132
 H257 H 0.16465 0.81099 0.51829
 H258 H 0.43346 0.95971 0.46667
 H259 H 0.50005 0.80704 0.43817
 H260 H 0.24190 0.65817 0.51256
 C261 C 0.34051 0.13047 0.42456
 C262 C 0.29950 0.09221 0.50809
 C263 C 0.30334 0.15403 0.58955
 C264 C 0.33943 0.25036 0.58511
 C265 C 0.37661 0.29085 0.49972
 C266 C 0.37461 0.22702 0.42010
 H267 H 0.34055 0.08781 0.35948
 H268 H 0.27691 0.13030 0.65803
 H269 H 0.33597 0.29299 0.64933
 H270 H 0.39014 0.25273 0.35072
   
