data_POSCAR
  _audit_creation_date              2014-09-24
  _audit_creation_method            'ToBaCCo'
  _symmetry_space_group_name_H-M    'P1'
  _symmetry_Int_Tables_number       1
  _symmetry_cell_setting            triclinic
  loop_
  _symmetry_equiv_pos_as_xyz
 x,y,z
_cell_length_a 62.7173
_cell_length_b 60.6957
_cell_length_c 61.8821
_cell_angle_alpha 89.490300
_cell_angle_beta 90.327200
_cell_angle_gamma 88.979600
loop_
  _atom_site_label
  _atom_site_type_symbol
  _atom_site_fract_x
  _atom_site_fract_y
  _atom_site_fract_z
N1 N 0.59675 0.65764 0.60952
 N2 N 0.58946 0.64907 0.62753
 C3 C 0.57170 0.66028 0.63336
 C4 C 0.56760 0.67676 0.61815
 C5 C 0.58389 0.67451 0.60325
 H6 H 0.56244 0.65666 0.64758
 H7 H 0.58646 0.68459 0.58906
 Cu8 Cu 0.60399 0.62423 0.64169
 Cu9 Cu 0.62261 0.64667 0.59574
 Cu10 Cu 0.64990 0.60376 0.62158
 N11 N 0.61960 0.60018 0.65602
 N12 N 0.63759 0.59240 0.64815
 C13 C 0.64494 0.57590 0.66095
 C14 C 0.63078 0.57300 0.67790
 C15 C 0.61488 0.58886 0.67413
 H16 H 0.65944 0.56662 0.65786
 H17 H 0.60084 0.59196 0.68372
 N18 N 0.65975 0.61739 0.59448
 N19 N 0.64911 0.63340 0.58439
 C20 C 0.65951 0.63871 0.56614
 C21 C 0.67764 0.62549 0.56471
 C22 C 0.67728 0.61220 0.58298
 H23 H 0.65442 0.65145 0.55484
 H24 H 0.68876 0.59942 0.58737
 H25 H 0.62156 0.61484 0.60783
 H26 H 0.63682 0.63516 0.62398
 N27 N 0.89935 0.33979 0.11771
 N28 N 0.90863 0.34994 0.13376
 C29 C 0.92794 0.34062 0.13746
 C30 C 0.93092 0.32336 0.12308
 C31 C 0.91227 0.32342 0.11081
 H32 H 0.93865 0.34574 0.15013
 H33 H 0.90823 0.31253 0.09775
 Cu34 Cu 0.89400 0.37335 0.14930
 Cu35 Cu 0.87097 0.34824 0.10743
 Cu36 Cu 0.85230 0.39917 0.12503
 N37 N 0.88321 0.40158 0.15930
 N38 N 0.86734 0.41195 0.14939
 C39 C 0.86328 0.43110 0.15949
 C40 C 0.87731 0.43279 0.17675
 C41 C 0.88973 0.41371 0.17611
 H42 H 0.85067 0.44264 0.15496
 H43 H 0.90266 0.40906 0.18694
 N44 N 0.83923 0.38323 0.10083
 N45 N 0.84633 0.36385 0.09421
 C46 C 0.83414 0.35724 0.07759
 C47 C 0.81844 0.37309 0.07370
 C48 C 0.82213 0.38931 0.08878
 H49 H 0.83637 0.34187 0.06913
 H50 H 0.81309 0.40449 0.09071
 H51 H 0.87798 0.38034 0.11403
 H52 H 0.85887 0.36705 0.13284
 N53 N 0.39838 0.16787 -0.11512
 N54 N 0.40829 0.15750 -0.13080
 C55 C 0.42563 0.16893 -0.13645
 C56 C 0.42660 0.18754 -0.12369
 C57 C 0.40900 0.18630 -0.11036
 H58 H 0.43659 0.16425 -0.14909
 H59 H 0.40441 0.19777 -0.09789
 Cu60 Cu 0.39724 0.13030 -0.14253
 Cu61 Cu 0.37272 0.15655 -0.10174
 Cu62 Cu 0.35300 0.10786 -0.12209
 N63 N 0.38587 0.10312 -0.15397
 N64 N 0.36853 0.09450 -0.14594
 C65 C 0.36390 0.07614 -0.15692
 C66 C 0.37916 0.07300 -0.17278
 C67 C 0.39286 0.09051 -0.17036
 H68 H 0.35038 0.06589 -0.15357
 H69 H 0.40669 0.09402 -0.18004
 N70 N 0.33956 0.12386 -0.09802
 N71 N 0.34700 0.14243 -0.09034
 C72 C 0.33448 0.14920 -0.07399
 C73 C 0.31832 0.13418 -0.07118
 C74 C 0.32210 0.11834 -0.08676
 H75 H 0.33712 0.16385 -0.06465
 H76 H 0.31281 0.10386 -0.08976
 H77 H 0.37869 0.12377 -0.10863
 H78 H 0.36203 0.13982 -0.12854
 N79 N 0.10342 0.83331 0.38272
 N80 N 0.09359 0.84367 0.36673
 C81 C 0.07638 0.83215 0.36086
 C82 C 0.07539 0.81333 0.37377
 C83 C 0.09297 0.81472 0.38744
 H84 H 0.06557 0.83706 0.34798
 H85 H 0.09767 0.80340 0.40023
 Cu86 Cu 0.10449 0.87107 0.35498
 Cu87 Cu 0.12849 0.84512 0.39692
 Cu88 Cu 0.14707 0.89496 0.37745
 N89 N 0.11529 0.89879 0.34392
 N90 N 0.13170 0.90824 0.35303
 C91 C 0.13591 0.92703 0.34228
 C92 C 0.12144 0.92944 0.32540
 C93 C 0.10859 0.91118 0.32695
 H94 H 0.14889 0.93783 0.34611
 H95 H 0.09534 0.90726 0.31652
 N96 N 0.16047 0.87887 0.40194
 N97 N 0.15354 0.85980 0.40918
 C98 C 0.16601 0.85297 0.42580
 C99 C 0.18160 0.86845 0.42926
 C100 C 0.17754 0.88465 0.41377
 H101 H 0.16372 0.83792 0.43488
 H102 H 0.18644 0.89951 0.41118
 H103 H 0.12158 0.87779 0.38971
 H104 H 0.13952 0.86278 0.37066
 N105 N 0.09741 0.15711 0.11261
 N106 N 0.08816 0.14720 0.12894
 C107 C 0.07027 0.15850 0.13410
 C108 C 0.06827 0.17655 0.12037
 C109 C 0.08584 0.17518 0.10698
 H110 H 0.05950 0.15402 0.14692
 H111 H 0.08959 0.18614 0.09373
 Cu112 Cu 0.10038 0.12044 0.14179
 Cu113 Cu 0.12303 0.14514 0.09907
 Cu114 Cu 0.14439 0.09671 0.12097
 N115 N 0.11289 0.09369 0.15436
 N116 N 0.12988 0.08428 0.14588
 C117 C 0.13505 0.06601 0.15738
 C118 C 0.12061 0.06390 0.17407
 C119 C 0.10678 0.08180 0.17165
 H120 H 0.14856 0.05528 0.15406
 H121 H 0.09315 0.08571 0.18162
 N122 N 0.15679 0.11186 0.09583
 N123 N 0.14880 0.13038 0.08761
 C124 C 0.16072 0.13649 0.07062
 C125 C 0.17705 0.12109 0.06795
 C126 C 0.17401 0.10573 0.08429
 H127 H 0.15753 0.15096 0.06076
 H128 H 0.18363 0.09115 0.08762
 H129 H 0.11796 0.11268 0.10759
 H130 H 0.13492 0.12899 0.12622
 N131 N 0.39704 0.84120 0.62153
 N132 N 0.40511 0.84981 0.63911
 C133 C 0.42204 0.83746 0.64564
 C134 C 0.42478 0.82015 0.63138
 C135 C 0.40854 0.82314 0.61628
 H136 H 0.43171 0.84093 0.65966
 H137 H 0.40521 0.81293 0.60249
 Cu138 Cu 0.39273 0.87634 0.65173
 Cu139 Cu 0.37230 0.85405 0.60668
 Cu140 Cu 0.34914 0.90057 0.62935
 N141 N 0.37913 0.90214 0.66455
 N142 N 0.36208 0.91145 0.65575
 C143 C 0.35590 0.92874 0.66780
 C144 C 0.36981 0.93044 0.68516
 C145 C 0.38437 0.91322 0.68252
 H146 H 0.34235 0.93937 0.66404
 H147 H 0.39767 0.90893 0.69300
 N148 N 0.33837 0.88711 0.60267
 N149 N 0.34719 0.86940 0.59403
 C150 C 0.33627 0.86426 0.57602
 C151 C 0.31973 0.87946 0.57311
 C152 C 0.32162 0.89370 0.59037
 H153 H 0.34018 0.85050 0.56574
 H154 H 0.31145 0.90776 0.59386
 H155 H 0.37643 0.88600 0.61695
 H156 H 0.35907 0.86817 0.63390
 N157 N 0.90087 0.66198 0.38309
 N158 N 0.91000 0.65184 0.36680
 C159 C 0.92700 0.66341 0.36039
 C160 C 0.92851 0.68186 0.37326
 C161 C 0.91161 0.68042 0.38747
 H162 H 0.93737 0.65893 0.34719
 H163 H 0.90768 0.69174 0.40030
 Cu164 Cu 0.89864 0.62469 0.35530
 Cu165 Cu 0.87618 0.65016 0.39784
 Cu166 Cu 0.85511 0.60219 0.37742
 N167 N 0.88597 0.59833 0.34349
 N168 N 0.86915 0.58946 0.35238
 C169 C 0.86390 0.57135 0.34129
 C170 C 0.87811 0.56877 0.32443
 C171 C 0.89188 0.58624 0.32631
 H172 H 0.85054 0.56101 0.34505
 H173 H 0.90534 0.58972 0.31608
 N174 N 0.84314 0.61751 0.40265
 N175 N 0.85130 0.63565 0.41057
 C176 C 0.83998 0.64179 0.42801
 C177 C 0.82383 0.62687 0.43116
 C178 C 0.82632 0.61173 0.41474
 H179 H 0.84313 0.65615 0.43764
 H180 H 0.81681 0.59733 0.41206
 H181 H 0.88159 0.61754 0.38995
 H182 H 0.86422 0.63420 0.37113
 N183 N 0.60338 0.33900 -0.11599
 N184 N 0.59388 0.34891 -0.13248
 C185 C 0.57626 0.33774 -0.13777
 C186 C 0.57470 0.31978 -0.12393
 C187 C 0.59223 0.32114 -0.11032
 H188 H 0.56561 0.34205 -0.15099
 H189 H 0.59652 0.31003 -0.09720
 Cu190 Cu 0.60595 0.37502 -0.14575
 Cu191 Cu 0.62962 0.34982 -0.10321
 Cu192 Cu 0.65146 0.39621 -0.12691
 N193 N 0.61799 0.40136 -0.15860
 N194 N 0.63592 0.40941 -0.15127
 C195 C 0.64081 0.42740 -0.16295
 C196 C 0.62509 0.43092 -0.17850
 C197 C 0.61086 0.41401 -0.17520
 H198 H 0.65470 0.43729 -0.16014
 H199 H 0.59649 0.41100 -0.18434
 N200 N 0.66468 0.38056 -0.10206
 N201 N 0.65609 0.36325 -0.09270
 C202 C 0.66837 0.35688 -0.07577
 C203 C 0.68561 0.37072 -0.07450
 C204 C 0.68277 0.38550 -0.09146
 H205 H 0.66516 0.34304 -0.06523
 H206 H 0.69291 0.39914 -0.09545
 H207 H 0.62523 0.38245 -0.11237
 H208 H 0.64086 0.36449 -0.13105
 C209 C -0.03289 0.31186 0.13426
 C210 C -0.01563 0.29702 0.13325
 C211 C -0.01658 0.27837 0.12015
 C212 C -0.03481 0.27524 0.10734
 C213 C -0.05196 0.29023 0.10803
 C214 C -0.05144 0.30866 0.12175
 C215 C 0.00172 0.26265 0.11992
 C216 C -0.00077 0.24092 0.11762
 C217 C 0.01728 0.22490 0.11841
 C218 C 0.01383 0.20366 0.12661
 C219 C 0.03046 0.18805 0.12749
 C220 C 0.05078 0.19324 0.11971
 C221 C 0.05415 0.21439 0.11113
 C222 C 0.03759 0.23013 0.11057
 H223 H -0.03143 0.32586 0.14479
 H224 H -0.00161 0.29990 0.14308
 H225 H -0.03577 0.26131 0.09659
 H226 H -0.06568 0.28697 0.09800
 H227 H 0.01741 0.26900 0.12329
 H228 H -0.01671 0.23439 0.11658
 H229 H -0.00175 0.19920 0.13254
 H230 H 0.02727 0.17181 0.13392
 H231 H 0.06964 0.21886 0.10502
 H232 H 0.04062 0.24621 0.10366
 C233 C 0.54574 0.70640 0.59947
 C234 C 0.52920 0.72213 0.59932
 C235 C 0.51651 0.72536 0.61764
 C236 C 0.52040 0.71210 0.63607
 C237 C 0.53694 0.69633 0.63622
 C238 C 0.54989 0.69335 0.61796
 C239 C 0.49910 0.74221 0.61662
 C240 C 0.49066 0.75183 0.63413
 C241 C 0.47363 0.76909 0.63294
 C242 C 0.47131 0.78372 0.65022
 C243 C 0.45551 0.80026 0.64975
 C244 C 0.44149 0.80246 0.63200
 C245 C 0.44360 0.78753 0.61485
 C246 C 0.45940 0.77100 0.61533
 H247 H 0.55512 0.70443 0.58499
 H248 H 0.52640 0.73192 0.58482
 H249 H 0.51057 0.71355 0.65030
 H250 H 0.53956 0.68658 0.65074
 H251 H 0.49397 0.74767 0.60070
 H252 H 0.49719 0.74793 0.64995
 H253 H 0.48189 0.78247 0.66410
 H254 H 0.45432 0.81121 0.66338
 H255 H 0.43310 0.78852 0.60095
 H256 H 0.46014 0.75960 0.60202
 C257 C 1.06238 0.77743 0.38604
 C258 C 1.04707 0.76099 0.38553
 C259 C 1.02872 0.76351 0.37270
 C260 C 1.02620 0.78255 0.35981
 C261 C 1.04163 0.79887 0.36001
 C262 C 1.05994 0.79670 0.37328
 C263 C 1.01284 0.74579 0.37262
 C264 C 0.99189 0.74980 0.37010
 C265 C 0.97595 0.73213 0.37077
 C266 C 0.95561 0.73681 0.37904
 C267 C 0.94024 0.72044 0.38001
 C268 C 0.94478 0.69919 0.37225
 C269 C 0.96500 0.69465 0.36352
 C270 C 0.98048 0.71092 0.36286
 H271 H 1.07619 0.77471 0.39630
 H272 H 1.04946 0.74632 0.39543
 H273 H 1.01245 0.78472 0.34929
 H274 H 1.03890 0.81324 0.34987
 H275 H 1.01848 0.72916 0.37614
 H276 H 0.98602 0.76667 0.36890
 H277 H 0.95170 0.75310 0.38502
 H278 H 0.92472 0.72451 0.38657
 H279 H 0.96898 0.67843 0.35743
 H280 H 0.99585 0.70697 0.35588
 C281 C 0.43848 0.22582 -0.11546
 C282 C 0.45384 0.24222 -0.11593
 C283 C 0.47404 0.23800 -0.12475
 C284 C 0.47843 0.21717 -0.13364
 C285 C 0.46300 0.20083 -0.13335
 C286 C 0.44290 0.20492 -0.12416
 C287 C 0.48986 0.25584 -0.12501
 C288 C 0.51097 0.25196 -0.12439
 C289 C 0.52683 0.26975 -0.12422
 C290 C 0.54675 0.26568 -0.11444
 C291 C 0.56221 0.28198 -0.11415
 C292 C 0.55819 0.30261 -0.12399
 C293 C 0.53834 0.30658 -0.13406
 C294 C 0.52280 0.29035 -0.13418
 H295 H 0.42307 0.22964 -0.10853
 H296 H 0.44999 0.25821 -0.10921
 H297 H 0.49362 0.21354 -0.14114
 H298 H 0.46694 0.18493 -0.14018
 H299 H 0.48381 0.27264 -0.12443
 H300 H 0.51695 0.23518 -0.12272
 H301 H 0.55033 0.24987 -0.10687
 H302 H 0.57742 0.27825 -0.10650
 H303 H 0.53471 0.32228 -0.14178
 H304 H 0.50784 0.29385 -0.14242
 C305 C 0.12949 -0.03219 0.31295
 C306 C 0.12872 -0.01548 0.29725
 C307 C 0.11926 -0.01912 0.27704
 C308 C 0.10997 -0.03961 0.27301
 C309 C 0.11052 -0.05623 0.28879
 C310 C 0.12044 -0.05277 0.30887
 C311 C 0.11887 -0.00111 0.26074
 C312 C 0.11933 -0.00482 0.23942
 C313 C 0.11957 0.01313 0.22308
 C314 C 0.12961 0.00932 0.20324
 C315 C 0.13009 0.02584 0.18739
 C316 C 0.12016 0.04642 0.19091
 C317 C 0.10975 0.05011 0.21064
 C318 C 0.10949 0.03366 0.22659
 H319 H 0.13700 -0.02890 0.32835
 H320 H 0.13577 0.00025 0.30081
 H321 H 0.10201 -0.04275 0.25781
 H322 H 0.10341 -0.07188 0.28512
 H323 H 0.11956 0.01564 0.26658
 H324 H 0.12089 -0.02157 0.23367
 H325 H 0.13728 -0.00645 0.20007
 H326 H 0.13801 0.02237 0.17227
 H327 H 0.10196 0.06578 0.21387
 H328 H 0.10109 0.03695 0.24148
 C329 C 0.64947 0.54225 -0.30361
 C330 C 0.65062 0.52651 -0.28701
 C331 C 0.63443 0.52514 -0.27158
 C332 C 0.61724 0.54029 -0.27273
 C333 C 0.61607 0.55609 -0.28930
 C334 C 0.63210 0.55727 -0.30515
 C335 C 0.63637 0.50811 -0.25431
 C336 C 0.61960 0.50008 -0.24363
 C337 C 0.62153 0.48253 -0.22686
 C338 C 0.60382 0.46942 -0.22260
 C339 C 0.60495 0.45268 -0.20697
 C340 C 0.62382 0.44879 -0.19504
 C341 C 0.64145 0.46219 -0.19905
 C342 C 0.64032 0.47891 -0.21472
 H343 H 0.66234 0.54242 -0.31514
 H344 H 0.66417 0.51519 -0.28636
 H345 H 0.60479 0.54028 -0.26071
 H346 H 0.60249 0.56730 -0.28947
 H347 H 0.65210 0.50111 -0.25129
 H348 H 0.60364 0.50553 -0.24812
 H349 H 0.58907 0.47203 -0.23154
 H350 H 0.59094 0.44295 -0.20418
 H351 H 0.65624 0.45978 -0.19020
 H352 H 0.65411 0.48911 -0.21700
 C353 C 0.39845 1.05235 0.79797
 C354 C 0.39936 1.03577 0.78245
 C355 C 0.38209 1.02175 0.77935
 C356 C 0.36405 1.02425 0.79258
 C357 C 0.36315 1.04081 0.80812
 C358 C 0.38028 1.05518 0.81093
 C359 C 0.38370 1.00448 0.76259
 C360 C 0.36663 0.99568 0.75301
 C361 C 0.36808 0.97889 0.73578
 C362 C 0.35065 0.97651 0.72175
 C363 C 0.35122 0.96087 0.70533
 C364 C 0.36921 0.94703 0.70266
 C365 C 0.38657 0.94918 0.71693
 C366 C 0.38601 0.96487 0.73335
 H367 H 0.41209 1.06284 0.79980
 H368 H 0.41355 1.03403 0.77267
 H369 H 0.35069 1.01332 0.79123
 H370 H 0.34891 1.04234 0.81780
 H371 H 0.39953 0.99992 0.75718
 H372 H 0.35084 1.00182 0.75699
 H373 H 0.33654 0.98691 0.72341
 H374 H 0.33742 0.95957 0.69489
 H375 H 0.40069 0.93883 0.71546
 H376 H 0.39951 0.96567 0.74423
 C377 C 0.86963 0.47172 0.18796
 C378 C 0.87041 0.48857 0.20317
 C379 C 0.87953 0.48471 0.22364
 C380 C 0.88848 0.46381 0.22839
 C381 C 0.88791 0.44702 0.21310
 C382 C 0.87833 0.45074 0.19277
 C383 C 0.87991 0.50290 0.23941
 C384 C 0.87923 0.49946 0.26083
 C385 C 0.87900 0.51759 0.27668
 C386 C 0.86897 0.51432 0.29663
 C387 C 0.86854 0.53099 0.31206
 C388 C 0.87848 0.55116 0.30800
 C389 C 0.88884 0.55431 0.28816
 C390 C 0.88907 0.53772 0.27263
 H391 H 0.86239 0.47522 0.17235
 H392 H 0.86362 0.50462 0.19905
 H393 H 0.89619 0.46044 0.24379
 H394 H 0.89475 0.43106 0.21734
 H395 H 0.87938 0.51959 0.23308
 H396 H 0.87750 0.48286 0.26704
 H397 H 0.86130 0.49887 0.30021
 H398 H 0.86067 0.52791 0.32728
 H399 H 0.89663 0.56965 0.28452
 H400 H 0.89746 0.54058 0.25766
 C401 C 0.29747 0.15356 -0.04219
 C402 C 0.28124 0.15406 -0.02681
 C403 C 0.26823 0.13577 -0.02362
 C404 C 0.27146 0.11708 -0.03657
 C405 C 0.28768 0.11658 -0.05196
 C406 C 0.30097 0.13478 -0.05492
 C407 C 0.25118 0.13707 -0.00713
 C408 C 0.24278 0.11928 0.00236
 C409 C 0.22598 0.12046 0.01912
 C410 C 0.22338 0.10228 0.03295
 C411 C 0.20762 0.10251 0.04881
 C412 C 0.19390 0.12091 0.05115
 C413 C 0.19636 0.13904 0.03712
 C414 C 0.21214 0.13881 0.02125
 H415 H 0.30713 0.16802 -0.04410
 H416 H 0.27894 0.16876 -0.01724
 H417 H 0.26133 0.10291 -0.03517
 H418 H 0.28975 0.10184 -0.06146
 H419 H 0.24630 0.15335 -0.00193
 H420 H 0.24913 0.10307 -0.00139
 H421 H 0.23366 0.08784 0.03154
 H422 H 0.20617 0.08811 0.05908
 H423 H 0.18613 0.15350 0.03829
 H424 H 0.21311 0.15289 0.01049
 C425 C 0.68872 0.63392 0.52671
 C426 C 0.70391 0.63369 0.51027
 C427 C 0.72460 0.62540 0.51420
 C428 C 0.72970 0.61683 0.53482
 C429 C 0.71444 0.61684 0.55120
 C430 C 0.69381 0.62547 0.54735
 C431 C 0.74018 0.62521 0.49632
 C432 C 0.76127 0.62670 0.49953
 C433 C 0.77683 0.62679 0.48163
 C434 C 0.79607 0.63789 0.48435
 C435 C 0.81124 0.63813 0.46789
 C436 C 0.80763 0.62689 0.44849
 C437 C 0.78849 0.61548 0.44589
 C438 C 0.77323 0.61545 0.46226
 H439 H 0.67290 0.64042 0.52311
 H440 H 0.69953 0.64015 0.49445
 H441 H 0.74532 0.60975 0.53826
 H442 H 0.71888 0.61023 0.56692
 H443 H 0.73392 0.62507 0.47998
 H444 H 0.76736 0.62915 0.51573
 H445 H 0.79931 0.64654 0.49922
 H446 H 0.82592 0.64683 0.47054
 H447 H 0.78520 0.60668 0.43115
 H448 H 0.75883 0.60619 0.45986
 C449 C 0.78216 0.38463 0.06025
 C450 C 0.76583 0.38399 0.04481
 C451 C 0.76845 0.37179 0.02584
 C452 C 0.78755 0.35977 0.02279
 C453 C 0.80376 0.36015 0.03837
 C454 C 0.80127 0.37267 0.05721
 C455 C 0.75075 0.37135 0.00994
 C456 C 0.75394 0.36945 -0.01136
 C457 C 0.73621 0.36960 -0.02723
 C458 C 0.73945 0.37863 -0.04787
 C459 C 0.72298 0.37913 -0.06319
 C460 C 0.70307 0.37013 -0.05831
 C461 C 0.69998 0.36063 -0.03780
 C462 C 0.71635 0.36044 -0.02238
 H463 H 0.77964 0.39419 0.07472
 H464 H 0.75116 0.39319 0.04761
 H465 H 0.78986 0.34976 0.00858
 H466 H 0.81832 0.35078 0.03557
 H467 H 0.73471 0.37401 0.01591
 H468 H 0.77006 0.36914 -0.01756
 H469 H 0.75470 0.38557 -0.05204
 H470 H 0.72594 0.38631 -0.07894
 H471 H 0.68482 0.35358 -0.03355
 H472 H 0.71352 0.35283 -0.00679
 C473 C 0.20278 0.84869 0.45833
 C474 C 0.21880 0.84817 0.47412
 C475 C 0.23107 0.86682 0.47808
 C476 C 0.22730 0.88594 0.46549
 C477 C 0.21127 0.88645 0.44969
 C478 C 0.19874 0.86787 0.44595
 C479 C 0.24795 0.86542 0.49496
 C480 C 0.25580 0.88307 0.50497
 C481 C 0.27231 0.88159 0.52222
 C482 C 0.27405 0.89907 0.53676
 C483 C 0.28938 0.89840 0.55324
 C484 C 0.30351 0.88025 0.55549
 C485 C 0.30199 0.86290 0.54068
 C486 C 0.28665 0.86357 0.52419
 H487 H 0.19371 0.83393 0.45581
 H488 H 0.22152 0.83315 0.48339
 H489 H 0.23685 0.90044 0.46750
 H490 H 0.20875 0.90151 0.44049
 H491 H 0.25315 0.84908 0.50004
 H492 H 0.24915 0.89926 0.50136
 H493 H 0.26339 0.91327 0.53546
 H494 H 0.29014 0.91223 0.56409
 H495 H 0.31258 0.84868 0.54174
 H496 H 0.28636 0.85009 0.51290
   
