data_POSCAR
  _audit_creation_date              2014-09-24
  _audit_creation_method            'ToBaCCo'
  _symmetry_space_group_name_H-M    'P1'
  _symmetry_Int_Tables_number       1
  _symmetry_cell_setting            triclinic
  loop_
  _symmetry_equiv_pos_as_xyz
 x,y,z
_cell_length_a 16.3578
_cell_length_b 16.9261
_cell_length_c 44.1911
_cell_angle_alpha 88.657100
_cell_angle_beta 89.270100
_cell_angle_gamma 120.872800
loop_
  _atom_site_label
  _atom_site_type_symbol
  _atom_site_fract_x
  _atom_site_fract_y
  _atom_site_fract_z
C1 C -0.12881 -0.07960 0.48150
 C2 C -0.06788 -0.04307 0.50591
 C3 C -0.06696 -0.10230 0.52848
 C4 C -0.12774 -0.19853 0.52695
 C5 C -0.18910 -0.23356 0.50240
 C6 C -0.18784 -0.17500 0.47888
 C7 C 0.00045 0.05702 0.50624
 C8 C 0.00090 0.10952 0.53046
 C9 C 0.06590 0.20502 0.53009
 C10 C 0.13163 0.24666 0.50574
 C11 C 0.13192 0.19500 0.48144
 C12 C 0.06517 0.10013 0.48173
 H13 H -0.12720 -0.03307 0.46387
 H14 H -0.01935 -0.07230 0.54708
 H15 H -0.04902 0.07606 0.54940
 H16 H 0.06225 0.05921 0.46286
 H17 H -0.23776 -0.30716 0.50189
 H18 H 0.18224 0.32019 0.50554
 C19 C 1.11503 -0.00821 0.14304
 C20 C 1.06891 0.00928 0.16674
 C21 C 1.12174 0.06215 0.19097
 C22 C 1.22018 0.09753 0.19171
 C23 C 1.26500 0.07800 0.16833
 C24 C 1.21389 0.02553 0.14369
 C25 C 0.96495 -0.02853 0.16647
 C26 C 0.90696 -0.08288 0.19122
 C27 C 0.80820 -0.11870 0.19134
 C28 C 0.76841 -0.09771 0.16680
 C29 C 0.82522 -0.04318 0.14194
 C30 C 0.92374 -0.00964 0.14173
 H31 H 1.07273 -0.04805 0.12449
 H32 H 1.08577 0.07484 0.20929
 H33 H 0.93917 -0.09650 0.21036
 H34 H 0.96871 0.03102 0.12253
 H35 H 1.34108 0.10501 0.16930
 H36 H 0.69228 -0.12452 0.16699
 C37 C 0.11770 0.98424 0.85593
 C38 C 0.05849 0.98200 0.83294
 C39 C 0.03633 0.92142 0.80926
 C40 C 0.07183 0.86193 0.80844
 C41 C 0.12953 0.86293 0.83200
 C42 C 0.15511 0.92543 0.85557
 C43 C 0.01921 1.04310 0.83355
 C44 C 0.03779 1.10484 0.80922
 C45 C -0.00228 1.16049 0.80890
 C46 C -0.06024 1.15540 0.83360
 C47 C -0.07885 1.09413 0.85863
 C48 C -0.03855 1.03805 0.85807
 H49 H 0.13219 1.03108 0.87405
 H50 H -0.00916 0.92048 0.79146
 H51 H 0.08269 1.10866 0.79030
 H52 H -0.05245 0.98948 0.87671
 H53 H 0.15503 0.81519 0.83203
 H54 H -0.08996 1.19939 0.83279
 O55 O 0.66384 0.11514 -0.03092
 O56 O 0.50754 0.10348 0.03114
 O57 O 0.65898 0.08998 0.02798
 O58 O 0.50541 0.11539 -0.02755
 O59 O 0.42258 -0.03571 -0.03149
 O60 O 0.56983 -0.06110 0.02503
 O61 O 0.41764 -0.04731 0.02734
 O62 O 0.58054 -0.03620 -0.03393
 Cu63 Cu 0.59281 0.12105 0.00054
 Cu64 Cu 0.48934 -0.06023 -0.00347
 C65 C 0.64872 0.04213 -0.04329
 C66 C 0.43544 0.02706 0.03958
 C67 C 0.63929 0.00931 0.03614
 C68 C 0.43835 0.04367 -0.03919
 O69 O 0.02191 0.44210 0.63692
 O70 O 0.05505 0.60145 0.69648
 O71 O 0.01061 0.43218 0.69616
 O72 O 0.05156 0.61052 0.63789
 O73 O -0.10328 0.55623 0.63799
 O74 O -0.14346 0.38250 0.69662
 O75 O -0.09879 0.55240 0.69727
 O76 O -0.13286 0.38813 0.63774
 Cu77 Cu 0.05011 0.52633 0.66648
 Cu78 Cu -0.13490 0.46504 0.66718
 C79 C -0.06059 0.38681 0.62746
 C80 C -0.01587 0.60332 0.70748
 C81 C -0.07359 0.37849 0.70678
 C82 C -0.01952 0.61399 0.62826
 O83 O 0.37552 0.45180 0.36191
 O84 O 0.55939 0.60042 0.30513
 O85 O 0.38681 0.45689 0.30313
 O86 O 0.54945 0.58641 0.36461
 O87 O 0.60279 0.49004 0.36456
 O88 O 0.44402 0.36381 0.30342
 O89 O 0.61632 0.50710 0.30550
 O90 O 0.42947 0.35591 0.36241
 Cu91 Cu 0.46278 0.53381 0.33346
 Cu92 Cu 0.52878 0.41983 0.33379
 C93 C 0.37170 0.37941 0.37216
 C94 C 0.61912 0.57954 0.29553
 C95 C 0.38761 0.38758 0.29300
 C96 C 0.60186 0.55803 0.37554
 C97 C 0.06945 0.26348 0.55496
 C98 C -0.00806 0.25248 0.56958
 C99 C 0.00212 0.31830 0.59263
 C100 C -0.07275 0.31990 0.60449
 H101 H -0.07846 0.19768 0.56379
 H102 H 0.07332 0.36783 0.59969
 H103 H 0.13849 0.32242 0.55982
 H104 H -0.14397 0.27147 0.59721
 C105 C 0.74464 0.82436 0.21704
 C106 C 0.75904 0.76637 0.23406
 C107 C 0.68934 0.70881 0.25824
 C108 C 0.69190 0.63930 0.27234
 H109 H 0.81973 0.75862 0.22948
 H110 H 0.63298 0.72216 0.26400
 H111 H 0.68007 0.82628 0.22093
 H112 H 0.74659 0.62416 0.26608
 C113 C 0.21583 -0.07460 -0.12207
 C114 C 0.25913 -0.00970 -0.10143
 C115 C 0.32013 -0.01783 -0.07889
 C116 C 0.37824 0.05275 -0.06187
 H117 H 0.25306 0.05091 -0.10130
 H118 H 0.31810 -0.08272 -0.07644
 H119 H 0.23144 -0.12968 -0.12218
 H120 H 0.38312 0.11875 -0.06503
 C121 C -0.13079 0.73805 0.54887
 C122 C -0.06415 0.75623 0.56942
 C123 C -0.07724 0.68297 0.59118
 C124 C -0.00441 0.68669 0.60590
 H125 H 0.00103 0.82253 0.56978
 H126 H -0.14842 0.62374 0.59485
 H127 H -0.18969 0.66739 0.54818
 H128 H 0.06747 0.74370 0.60134
 C129 C 0.27824 0.15219 0.21705
 C130 C 0.26215 0.21087 0.23206
 C131 C 0.32623 0.26505 0.25623
 C132 C 0.32225 0.33406 0.26892
 H133 H 0.20410 0.22099 0.22600
 H134 H 0.37905 0.24861 0.26349
 H135 H 0.34040 0.14782 0.22237
 H136 H 0.27086 0.35199 0.26137
 C137 C 0.86315 0.08511 -0.11602
 C138 C 0.82816 0.14014 -0.11062
 C139 C 0.76875 0.12922 -0.08360
 C140 C 0.70996 0.04835 -0.06909
 H141 H 0.84756 0.19995 -0.12497
 H142 H 0.76967 0.19062 -0.07666
 H143 H 0.84831 0.03144 -0.09918
 H144 H 0.70267 -0.01485 -0.07709
 C145 C 0.26538 0.01196 0.12061
 C146 C 0.22805 -0.04096 0.09649
 C147 C 0.28888 -0.04552 0.07228
 C148 C 0.37385 0.02747 0.06401
 H149 H 0.15203 -0.08483 0.09435
 H150 H 0.26034 -0.10835 0.05989
 H151 H 0.34203 0.04679 0.12277
 H152 H 0.39875 0.09247 0.07480
 C153 C 0.75826 0.79177 0.45259
 C154 C 0.72219 0.70565 0.44322
 C155 C 0.67004 0.67505 0.41487
 C156 C 0.65987 0.59993 0.40208
 H157 H 0.73558 0.65732 0.45533
 H158 H 0.63976 0.71292 0.40475
 H159 H 0.75149 0.84020 0.43786
 H160 H 0.69360 0.56510 0.41214
 C161 C 0.01884 0.22427 0.78260
 C162 C -0.04622 0.24098 0.77123
 C163 C -0.02361 0.30381 0.74474
 C164 C -0.09223 0.31196 0.73175
 H165 H -0.11764 0.20670 0.78121
 H166 H 0.04940 0.34449 0.73618
 H167 H 0.08805 0.25403 0.77123
 H168 H -0.16503 0.27025 0.74041
 C169 C 0.77779 -0.02616 0.11638
 C170 C 0.82128 0.04689 0.09696
 C171 C 0.77018 0.06329 0.07245
 C172 C 0.69483 -0.00539 0.05915
 H173 H 0.89456 0.10003 0.10019
 H174 H 0.79697 0.13390 0.06486
 H175 H 0.70190 -0.07358 0.11476
 H176 H 0.67162 -0.07623 0.06539
 C177 C 0.19947 0.24333 0.45557
 C178 C 0.22828 0.20186 0.43620
 C179 C 0.29531 0.25175 0.41044
 C180 C 0.30050 0.32499 0.39623
 H181 H 0.20736 0.13054 0.44013
 H182 H 0.33994 0.22579 0.40269
 H183 H 0.22928 0.31702 0.45319
 H184 H 0.25248 0.34813 0.40289
 C185 C 0.04615 0.79921 0.78281
 C186 C 0.10250 0.76917 0.77255
 C187 C 0.08232 0.71039 0.74619
 C188 C -0.00211 0.66385 0.73277
 H189 H 0.17032 0.79201 0.78289
 H190 H 0.14100 0.70326 0.73817
 H191 H -0.01784 0.78296 0.77099
 H192 H -0.06321 0.66641 0.74098
   
