data_POSCAR
  _audit_creation_date              2014-09-24
  _audit_creation_method            'ToBaCCo'
  _symmetry_space_group_name_H-M    'P1'
  _symmetry_Int_Tables_number       1
  _symmetry_cell_setting            triclinic
  loop_
  _symmetry_equiv_pos_as_xyz
 x,y,z
_cell_length_a 37.0722
_cell_length_b 37.0814
_cell_length_c 8.7306
_cell_angle_alpha 90.000000
_cell_angle_beta 90.000000
_cell_angle_gamma 90.000000
loop_
  _atom_site_label
  _atom_site_type_symbol
  _atom_site_fract_x
  _atom_site_fract_y
  _atom_site_fract_z
O1 O 0.20924 0.21405 0.33706
 O2 O 0.27724 0.28442 0.40948
 O3 O 0.20909 0.28427 0.33731
 O4 O 0.27743 0.21419 0.40916
 O5 O 0.29166 0.21429 0.16320
 O6 O 0.22333 0.28436 0.09133
 O7 O 0.29148 0.28450 0.16350
 O8 O 0.22347 0.21412 0.09108
 Cu9 Cu 0.24178 0.24922 0.39792
 Cu10 Cu 0.25895 0.24932 0.10260
 C11 C 0.20484 0.20223 0.20203
 C12 C 0.29585 0.29634 0.29852
 C13 C 0.20466 0.29614 0.20238
 C14 C 0.29612 0.20243 0.29814
 O15 O 0.79092 0.28427 0.33731
 O16 O 0.72258 0.21419 0.40915
 O17 O 0.79077 0.21405 0.33706
 O18 O 0.72277 0.28442 0.40947
 O19 O 0.70853 0.28450 0.16349
 O20 O 0.77654 0.21412 0.09108
 O21 O 0.70835 0.21429 0.16320
 O22 O 0.77669 0.28436 0.09133
 Cu23 Cu 0.75823 0.24922 0.39792
 Cu24 Cu 0.74106 0.24932 0.10260
 C25 C 0.79535 0.29614 0.20238
 C26 C 0.70389 0.20243 0.29814
 C27 C 0.79517 0.20223 0.20203
 C28 C 0.70416 0.29634 0.29851
 O29 O 0.72347 0.78587 0.59108
 O30 O 0.79148 0.71550 0.66349
 O31 O 0.72333 0.71563 0.59133
 O32 O 0.79166 0.78571 0.66320
 O33 O 0.77743 0.78581 0.90915
 O34 O 0.70909 0.71573 0.83731
 O35 O 0.77724 0.71557 0.90947
 O36 O 0.70924 0.78594 0.83706
 Cu37 Cu 0.75895 0.75068 0.60260
 Cu38 Cu 0.74178 0.75078 0.89792
 C39 C 0.70484 0.79776 0.70203
 C40 C 0.79585 0.70366 0.79851
 C41 C 0.70466 0.70385 0.70238
 C42 C 0.79612 0.79757 0.79814
 O43 O 0.22277 0.71557 0.90947
 O44 O 0.29077 0.78594 0.83706
 O45 O 0.22258 0.78581 0.90915
 O46 O 0.29092 0.71573 0.83731
 O47 O 0.27669 0.71563 0.59133
 O48 O 0.20835 0.78571 0.66320
 O49 O 0.27654 0.78587 0.59108
 O50 O 0.20853 0.71550 0.66349
 Cu51 Cu 0.25823 0.75078 0.89792
 Cu52 Cu 0.24106 0.75068 0.60260
 C53 C 0.20416 0.70366 0.79852
 C54 C 0.29517 0.79776 0.70203
 C55 C 0.20389 0.79757 0.79814
 C56 C 0.29535 0.70385 0.70238
 O57 O 0.96489 -0.02831 -0.15887
 O58 O 1.03512 0.03993 -0.08874
 O59 O 1.03512 -0.02831 -0.15887
 O60 O 0.96490 0.03993 -0.08874
 O61 O 0.96490 0.02621 0.15706
 O62 O 1.03512 -0.04203 0.08692
 O63 O 1.03512 0.02621 0.15706
 O64 O 0.96489 -0.04203 0.08692
 Cu65 Cu 1.00001 0.00722 -0.14826
 Cu66 Cu 1.00001 -0.00933 0.14644
 C67 C 0.95285 -0.04688 -0.04774
 C68 C 1.04714 0.04479 0.04594
 C69 C 1.04716 -0.04688 -0.04774
 C70 C 0.95287 0.04479 0.04594
 O71 O 0.53511 0.45937 0.58887
 O72 O 0.46490 0.52765 0.65860
 O73 O 0.46490 0.45937 0.58887
 O74 O 0.53511 0.52765 0.65860
 O75 O 0.53511 0.54127 0.41272
 O76 O 0.46491 0.47299 0.34299
 O77 O 0.46490 0.54127 0.41272
 O78 O 0.53511 0.47299 0.34299
 Cu79 Cu 0.50001 0.49210 0.64820
 Cu80 Cu 0.50001 0.50855 0.35340
 C81 C 0.54712 0.45444 0.45421
 C82 C 0.45288 0.54619 0.54736
 C83 C 0.45290 0.45444 0.45421
 C84 C 0.54713 0.54619 0.54736
 O85 O -0.03510 0.54063 0.08887
 O86 O 0.03511 0.47235 0.15860
 O87 O 0.03511 0.54063 0.08887
 O88 O -0.03510 0.47235 0.15860
 O89 O -0.03510 0.45873 -0.08728
 O90 O 0.03511 0.52700 -0.15701
 O91 O 0.03511 0.45873 -0.08728
 O92 O -0.03509 0.52700 -0.15701
 Cu93 Cu 0.00001 0.50790 0.14820
 Cu94 Cu 0.00001 0.49145 -0.14660
 C95 C -0.04710 0.54556 -0.04579
 C96 C 0.04713 0.45380 0.04736
 C97 C 0.04712 0.54556 -0.04579
 C98 C -0.04712 0.45380 0.04736
 O99 O 0.46489 1.04202 0.58692
 O100 O 0.53512 0.97378 0.65706
 O101 O 0.53512 1.04202 0.58692
 O102 O 0.46490 0.97378 0.65706
 O103 O 0.46490 0.96007 0.41126
 O104 O 0.53512 1.02831 0.34113
 O105 O 0.53512 0.96007 0.41126
 O106 O 0.46489 1.02831 0.34113
 Cu107 Cu 0.50001 1.00933 0.64644
 Cu108 Cu 0.50001 0.99277 0.35174
 C109 C 0.45285 1.04688 0.45226
 C110 C 0.54714 0.95521 0.54594
 C111 C 0.54716 1.04688 0.45226
 C112 C 0.45287 0.95521 0.54594
 C113 C 1.12864 0.12499 0.12523
 C114 C 1.11564 0.11898 -0.02303
 C115 C 1.08917 0.09284 -0.04897
 C116 C 1.17820 0.17496 0.17444
 C117 C 1.08864 0.07854 0.22201
 C118 C 1.11512 0.10472 0.24763
 C119 C 1.15567 0.15213 0.15187
 C120 C 1.07533 0.07234 0.07335
 H121 H 1.12592 0.13454 -0.11858
 H122 H 1.07953 0.08874 -0.16474
 H123 H 1.07856 0.06324 0.31861
 H124 H 1.12498 0.10918 0.36291
 C125 C 0.62846 0.62659 0.62621
 C126 C 0.61549 0.62049 0.47797
 C127 C 0.58908 0.59428 0.45218
 C128 C 0.67798 0.67661 0.67505
 C129 C 0.58855 0.58008 0.72326
 C130 C 0.61497 0.60633 0.74873
 C131 C 0.65545 0.65377 0.65267
 C132 C 0.57527 0.57379 0.57462
 H133 H 0.62575 0.63603 0.38233
 H134 H 0.57945 0.59011 0.33642
 H135 H 0.57850 0.56480 0.81995
 H136 H 0.62481 0.61086 0.86399
 C137 C -0.12845 0.37341 0.12621
 C138 C -0.11496 0.39367 0.24873
 C139 C -0.08854 0.41991 0.22326
 C140 C -0.17796 0.32338 0.17505
 C141 C -0.08907 0.40572 -0.04782
 C142 C -0.11548 0.37951 -0.02203
 C143 C -0.15544 0.34623 0.15267
 C144 C -0.07526 0.42620 0.07462
 H145 H -0.12480 0.38914 0.36399
 H146 H -0.07848 0.43520 0.31995
 H147 H -0.07944 0.40989 -0.16358
 H148 H -0.12573 0.36397 -0.11767
 C149 C 0.37137 0.87500 0.62523
 C150 C 0.38489 0.89528 0.74763
 C151 C 0.41137 0.92146 0.72201
 C152 C 0.32181 0.82503 0.67444
 C153 C 0.41084 0.90716 0.45103
 C154 C 0.38437 0.88102 0.47697
 C155 C 0.34434 0.84786 0.65187
 C156 C 0.42468 0.92766 0.57335
 H157 H 0.37503 0.89082 0.86291
 H158 H 0.42145 0.93676 0.81861
 H159 H 0.42048 0.91126 0.33526
 H160 H 0.37409 0.86545 0.38142
 C161 C -0.12826 0.62611 -0.12485
 C162 C -0.11480 0.60581 -0.24732
 C163 C -0.08846 0.57951 -0.22177
 C164 C -0.17758 0.67631 -0.17395
 C165 C -0.08899 0.59371 0.04931
 C166 C -0.11534 0.61998 0.02343
 C167 C -0.15515 0.65339 -0.15143
 C168 C -0.07521 0.57319 -0.07309
 H169 H -0.12461 0.61037 -0.36262
 H170 H -0.07842 0.56421 -0.31843
 H171 H -0.07939 0.58952 0.16510
 H172 H -0.12557 0.63555 0.11904
 C173 C 0.37119 1.12693 0.37312
 C174 C 0.38423 1.12095 0.52135
 C175 C 0.41077 1.09488 0.54722
 C176 C 0.32145 1.17673 0.32409
 C177 C 0.41129 1.08057 0.27625
 C178 C 0.38475 1.10668 0.25070
 C179 C 0.34407 1.15398 0.34657
 C180 C 0.42463 1.07440 0.42488
 H181 H 0.37393 1.13649 0.61692
 H182 H 0.42043 1.09079 0.66298
 H183 H 0.42139 1.06529 0.17963
 H184 H 0.37486 1.11112 0.13544
 C185 C 1.12882 -0.12693 -0.12688
 C186 C 1.11578 -0.12096 0.02135
 C187 C 1.08924 -0.09488 0.04722
 C188 C 1.17856 -0.17673 -0.17591
 C189 C 1.08872 -0.08057 -0.22375
 C190 C 1.11526 -0.10669 -0.24931
 C191 C 1.15594 -0.15398 -0.15343
 C192 C 1.07538 -0.07440 -0.07512
 H193 H 1.12608 -0.13649 0.11692
 H194 H 1.07958 -0.09079 0.16298
 H195 H 1.07862 -0.06529 -0.32037
 H196 H 1.12515 -0.11112 -0.36456
 C197 C 0.62827 0.37388 0.37515
 C198 C 0.61481 0.39418 0.25268
 C199 C 0.58847 0.42049 0.27823
 C200 C 0.67759 0.32368 0.32605
 C201 C 0.58900 0.40629 0.54931
 C202 C 0.61535 0.38002 0.52343
 C203 C 0.65516 0.34661 0.34857
 C204 C 0.57522 0.42681 0.42691
 H205 H 0.62463 0.38963 0.13738
 H206 H 0.57843 0.43579 0.18157
 H207 H 0.57940 0.41048 0.66510
 H208 H 0.62558 0.36444 0.61904
 C209 C 0.87119 -0.12693 -0.12688
 C210 C 0.88475 -0.10669 -0.24931
 C211 C 0.91129 -0.08057 -0.22375
 C212 C 0.82145 -0.17673 -0.17591
 C213 C 0.91077 -0.09488 0.04722
 C214 C 0.88423 -0.12096 0.02135
 C215 C 0.84407 -0.15398 -0.15343
 C216 C 0.92463 -0.07440 -0.07512
 H217 H 0.87486 -0.11112 -0.36456
 H218 H 0.92139 -0.06529 -0.32037
 H219 H 0.92043 -0.09079 0.16298
 H220 H 0.87393 -0.13649 0.11692
 C221 C 0.37174 0.37388 0.37515
 C222 C 0.38466 0.38002 0.52343
 C223 C 0.41101 0.40629 0.54931
 C224 C 0.32242 0.32368 0.32605
 C225 C 0.41154 0.42049 0.27823
 C226 C 0.38520 0.39418 0.25268
 C227 C 0.34485 0.34661 0.34857
 C228 C 0.42479 0.42681 0.42691
 H229 H 0.37443 0.36444 0.61904
 H230 H 0.42061 0.41048 0.66510
 H231 H 0.42158 0.43579 0.18157
 H232 H 0.37538 0.38963 0.13738
 C233 C 0.12827 0.62611 -0.12485
 C234 C 0.11481 0.60581 -0.24732
 C235 C 0.08847 0.57951 -0.22177
 C236 C 0.17759 0.67631 -0.17395
 C237 C 0.08900 0.59370 0.04931
 C238 C 0.11535 0.61998 0.02343
 C239 C 0.15516 0.65339 -0.15143
 C240 C 0.07522 0.57319 -0.07309
 H241 H 0.12463 0.61037 -0.36262
 H242 H 0.07843 0.56421 -0.31843
 H243 H 0.07940 0.58952 0.16510
 H244 H 0.12558 0.63555 0.11904
 C245 C 0.62882 1.12693 0.37312
 C246 C 0.61526 1.10668 0.25069
 C247 C 0.58872 1.08057 0.27625
 C248 C 0.67856 1.17673 0.32409
 C249 C 0.58924 1.09488 0.54722
 C250 C 0.61578 1.12095 0.52135
 C251 C 0.65594 1.15398 0.34657
 C252 C 0.57538 1.07440 0.42488
 H253 H 0.62515 1.11112 0.13544
 H254 H 0.57862 1.06529 0.17963
 H255 H 0.57958 1.09079 0.66298
 H256 H 0.62608 1.13649 0.61692
 C257 C 0.12846 0.37341 0.12622
 C258 C 0.11497 0.39367 0.24873
 C259 C 0.08855 0.41991 0.22326
 C260 C 0.17798 0.32338 0.17505
 C261 C 0.08908 0.40572 -0.04782
 C262 C 0.11549 0.37951 -0.02203
 C263 C 0.15545 0.34623 0.15267
 C264 C 0.07527 0.42620 0.07462
 H265 H 0.12481 0.38914 0.36399
 H266 H 0.07849 0.43520 0.31995
 H267 H 0.07945 0.40989 -0.16358
 H268 H 0.12575 0.36397 -0.11767
 C269 C 0.62864 0.87500 0.62523
 C270 C 0.61512 0.89528 0.74763
 C271 C 0.58864 0.92146 0.72201
 C272 C 0.67820 0.82503 0.67444
 C273 C 0.58917 0.90716 0.45103
 C274 C 0.61564 0.88102 0.47697
 C275 C 0.65567 0.84786 0.65187
 C276 C 0.57533 0.92766 0.57335
 H277 H 0.62498 0.89082 0.86291
 H278 H 0.57856 0.93676 0.81861
 H279 H 0.57953 0.91126 0.33526
 H280 H 0.62592 0.86545 0.38142
 C281 C 0.87137 0.12499 0.12523
 C282 C 0.88437 0.11898 -0.02303
 C283 C 0.91084 0.09284 -0.04897
 C284 C 0.82181 0.17496 0.17444
 C285 C 0.91137 0.07854 0.22201
 C286 C 0.88489 0.10472 0.24763
 C287 C 0.84434 0.15213 0.15187
 C288 C 0.92468 0.07234 0.07335
 H289 H 0.87409 0.13454 -0.11858
 H290 H 0.92048 0.08874 -0.16474
 H291 H 0.92145 0.06324 0.31861
 H292 H 0.87503 0.10918 0.36291
 C293 C 0.37155 0.62659 0.62622
 C294 C 0.38452 0.62049 0.47797
 C295 C 0.41093 0.59428 0.45218
 C296 C 0.32204 0.67661 0.67505
 C297 C 0.41146 0.58008 0.72326
 C298 C 0.38504 0.60633 0.74873
 C299 C 0.34456 0.65377 0.65267
 C300 C 0.42474 0.57379 0.57462
 H301 H 0.37427 0.63603 0.38233
 H302 H 0.42056 0.59011 0.33642
 H303 H 0.42152 0.56480 0.81995
 H304 H 0.37520 0.61086 0.86399
   
