data_POSCAR
  _audit_creation_date              2014-09-24
  _audit_creation_method            'ToBaCCo'
  _symmetry_space_group_name_H-M    'P1'
  _symmetry_Int_Tables_number       1
  _symmetry_cell_setting            triclinic
  loop_
  _symmetry_equiv_pos_as_xyz
 x,y,z
_cell_length_a 65.3824
_cell_length_b 65.3497
_cell_length_c 22.5387
_cell_angle_alpha 89.969200
_cell_angle_beta 90.016600
_cell_angle_gamma 119.978500
loop_
  _atom_site_label
  _atom_site_type_symbol
  _atom_site_fract_x
  _atom_site_fract_y
  _atom_site_fract_z
O1 O 0.21309 0.46602 0.44364
 O2 O 0.25332 0.46610 0.55819
 O3 O 0.21337 0.46612 0.55882
 O4 O 0.25307 0.46608 0.44302
 O5 O 0.27249 0.50504 0.44288
 O6 O 0.23285 0.50508 0.55867
 O7 O 0.27276 0.50502 0.55800
 O8 O 0.23254 0.50498 0.44353
 Cu9 Cu 0.23126 0.46218 0.50095
 Cu10 Cu 0.25460 0.50893 0.50077
 C11 C 0.21579 0.48549 0.42435
 C12 C 0.27014 0.48557 0.57736
 C13 C 0.21616 0.48562 0.57814
 C14 C 0.26972 0.48557 0.42351
 O15 O 0.53385 -0.25374 0.44230
 O16 O 0.53386 -0.21364 0.55711
 O17 O 0.53377 -0.25367 0.55747
 O18 O 0.53383 -0.21377 0.44192
 O19 O 0.49489 -0.23325 0.44186
 O20 O 0.49486 -0.27307 0.55739
 O21 O 0.49492 -0.23309 0.55701
 O22 O 0.49495 -0.27317 0.44227
 Cu23 Cu 0.53772 -0.23176 0.49971
 Cu24 Cu 0.49102 -0.25509 0.49963
 C25 C 0.51440 -0.27052 0.42295
 C26 C 0.51439 -0.21635 0.57630
 C27 C 0.51429 -0.27041 0.57687
 C28 C 0.51436 -0.21654 0.42251
 O29 O 1.25292 0.78674 0.44394
 O30 O 1.21274 0.74655 0.55850
 O31 O 1.25275 0.78648 0.55911
 O32 O 1.21298 0.74680 0.44333
 O33 O 1.23244 0.72729 0.44329
 O34 O 1.27215 0.76692 0.55906
 O35 O 1.23215 0.72703 0.55842
 O36 O 1.27235 0.76721 0.44392
 Cu37 Cu 1.23090 0.76860 0.50124
 Cu38 Cu 1.25422 0.74516 0.50119
 C39 C 1.26966 0.78400 0.42470
 C40 C 1.21536 0.72970 0.57772
 C41 C 1.26942 0.78364 0.57848
 C42 C 1.21576 0.73010 0.42387
 O43 O 0.74645 0.53408 0.55795
 O44 O 0.78677 0.53417 0.44370
 O45 O 0.74679 0.53411 0.44278
 O46 O 0.78641 0.53406 0.55888
 O47 O 0.76693 0.49510 0.55880
 O48 O 0.72737 0.49514 0.44272
 O49 O 0.76732 0.49521 0.44366
 O50 O 0.72702 0.49515 0.55784
 Cu51 Cu 0.76855 0.53800 0.50085
 Cu52 Cu 0.74522 0.49126 0.50076
 C53 C 0.72962 0.51460 0.57711
 C54 C 0.78409 0.51469 0.42450
 C55 C 0.73015 0.51462 0.42326
 C56 C 0.78360 0.51456 0.57829
 O57 O 0.46625 0.21266 0.55825
 O58 O 0.46619 0.25292 0.44388
 O59 O 0.46626 0.21298 0.44309
 O60 O 0.46627 0.25265 0.55906
 O61 O 0.50521 0.27210 0.55900
 O62 O 0.50520 0.23249 0.44304
 O63 O 0.50513 0.27240 0.44386
 O64 O 0.50516 0.23212 0.55817
 Cu65 Cu 0.46235 0.23085 0.50109
 Cu66 Cu 0.50907 0.25423 0.50102
 C67 C 0.48572 0.21529 0.57745
 C68 C 0.48566 0.26969 0.42468
 C69 C 0.48574 0.21580 0.42360
 C70 C 0.48575 0.26933 0.57846
 O71 O 0.78732 0.25355 0.55838
 O72 O 0.74711 0.21320 0.44415
 O73 O 0.78700 0.25320 0.44322
 O74 O 0.74737 0.21357 0.55933
 O75 O 0.72789 0.23306 0.55915
 O76 O 0.76746 0.27262 0.44305
 O77 O 0.72760 0.23265 0.44401
 O78 O 0.76784 0.27299 0.55817
 Cu79 Cu 0.76915 0.23143 0.50130
 Cu80 Cu 0.74575 0.25478 0.50110
 C81 C 0.78468 0.27039 0.57748
 C82 C 0.73033 0.21588 0.42490
 C83 C 0.78415 0.26984 0.42364
 C84 C 0.73069 0.21638 0.57869
 N85 N 0.97510 0.52400 0.06375
 N86 N 0.95755 0.52819 0.07259
 N87 N 1.02476 0.53446 0.10463
 N88 N 1.04234 0.54599 0.14215
 N89 N 1.02481 0.54878 0.06369
 N90 N 1.04245 0.57048 0.07230
 N91 N 0.97511 0.50969 0.10464
 N92 N 0.95760 0.50375 0.14234
 C93 C 0.94674 0.51537 0.12178
 C94 C 1.05327 0.56844 0.12140
 N95 N 1.02472 0.47614 0.06365
 N96 N 1.04228 0.47197 0.07242
 N97 N 0.97505 0.46564 0.10454
 N98 N 0.95745 0.45408 0.14201
 N99 N 0.97501 0.45135 0.06356
 N100 N 0.95736 0.42965 0.07209
 N101 N 1.02470 0.49041 0.10459
 N102 N 1.04222 0.49635 0.14225
 Mn103 Mn 0.99990 0.50005 0.10525
 C104 C 1.05309 0.48477 0.12161
 C105 C 0.94652 0.43165 0.12119
 N106 N 1.02483 0.54884 -0.06420
 N107 N 1.04244 0.57056 -0.07292
 N108 N 0.97512 0.50978 -0.10513
 N109 N 0.95748 0.50373 -0.14250
 N110 N 0.97512 0.52404 -0.06414
 N111 N 0.95747 0.52809 -0.07255
 N112 N 1.02477 0.53454 -0.10515
 N113 N 1.04232 0.54610 -0.14277
 Mn114 Mn 0.99996 0.53668 -0.00023
 C115 C 1.05324 0.56855 -0.12210
 C116 C 0.94658 0.51526 -0.12160
 N117 N 0.97500 0.45138 -0.06433
 N118 N 0.95741 0.42967 -0.07313
 N119 N 1.02470 0.49048 -0.10519
 N120 N 1.04233 0.49653 -0.14261
 N121 N 1.02470 0.47619 -0.06424
 N122 N 1.04234 0.47212 -0.07272
 N123 N 0.97505 0.46571 -0.10524
 N124 N 0.95752 0.45418 -0.14292
 Mn125 Mn 0.99986 0.46350 -0.00034
 Mn126 Mn 0.99991 0.50013 -0.10584
 Cl127 Cl 0.99991 0.50009 -0.00029
 C128 C 0.94661 0.43170 -0.12232
 C129 C 1.05322 0.48498 -0.12177
 N130 N 0.47610 0.45137 0.06356
 N131 N 0.47197 0.42965 0.07246
 N132 N 0.46552 0.49053 0.10426
 N133 N 0.45397 0.49656 0.14176
 N134 N 0.45123 0.47624 0.06337
 N135 N 0.42953 0.47215 0.07198
 N136 N 0.49038 0.46571 0.10440
 N137 N 0.49636 0.45416 0.14215
 C138 C 0.48479 0.43168 0.12165
 C139 C 0.43153 0.48501 0.12104
 N140 N 0.52374 0.54884 0.06310
 N141 N 0.52788 0.57057 0.07184
 N142 N 0.53435 0.50973 0.10416
 N143 N 0.54593 0.50371 0.14165
 N144 N 0.54861 0.52398 0.06314
 N145 N 0.57032 0.52805 0.07167
 N146 N 0.50949 0.53455 0.10408
 N147 N 0.50354 0.54612 0.14174
 Mn148 Mn 0.49994 0.50013 0.10488
 C149 C 0.51509 0.56858 0.12106
 C150 C 0.56835 0.51523 0.12081
 N151 N 0.45117 0.47617 -0.06452
 N152 N 0.42945 0.47205 -0.07324
 N153 N 0.49029 0.46558 -0.10536
 N154 N 0.49637 0.45400 -0.14269
 N155 N 0.47606 0.45132 -0.06433
 N156 N 0.47204 0.42962 -0.07267
 N157 N 0.46545 0.49042 -0.10552
 N158 N 0.45387 0.49638 -0.14318
 Mn159 Mn 0.46338 0.46352 -0.00048
 C160 C 0.43143 0.48484 -0.12247
 C161 C 0.48488 0.43158 -0.12172
 N162 N 0.54859 0.52391 -0.06475
 N163 N 0.57031 0.52806 -0.07355
 N164 N 0.50943 0.53444 -0.10570
 N165 N 0.50338 0.54599 -0.14326
 N166 N 0.52369 0.54875 -0.06480
 N167 N 0.52775 0.57046 -0.07347
 N168 N 0.53428 0.50961 -0.10560
 N169 N 0.54584 0.50364 -0.14325
 Mn170 Mn 0.53642 0.53663 -0.00083
 Mn171 Mn 0.49986 0.50001 -0.10621
 Cl172 Cl 0.49990 0.50007 -0.00066
 C173 C 0.56830 0.51523 -0.12268
 C174 C 0.51490 0.56844 -0.12258
 N175 N 0.45139 -0.02497 0.06398
 N176 N 0.42967 -0.04254 0.07274
 N177 N 0.49051 0.02471 0.10495
 N178 N 0.49656 0.04231 0.14243
 N179 N 0.47628 0.02476 0.06396
 N180 N 0.47223 0.04242 0.07249
 N181 N 0.46568 -0.02497 0.10492
 N182 N 0.45410 -0.04251 0.14257
 C183 C 0.43165 -0.05337 0.12193
 C184 C 0.48506 0.05325 0.12161
 N185 N 0.54881 0.02471 0.06417
 N186 N 0.57052 0.04228 0.07301
 N187 N 0.50966 -0.02501 0.10496
 N188 N 0.50360 -0.04263 0.14241
 N189 N 0.52393 -0.02502 0.06402
 N190 N 0.52798 -0.04268 0.07255
 N191 N 0.53450 0.02467 0.10506
 N192 N 0.54605 0.04218 0.14277
 Mn193 Mn 0.50009 -0.00015 0.10563
 C194 C 0.56851 0.05307 0.12221
 C195 C 0.51513 -0.05355 0.12161
 N196 N 0.47631 0.02483 -0.06393
 N197 N 0.47218 0.04242 -0.07273
 N198 N 0.46572 -0.02489 -0.10485
 N199 N 0.45416 -0.04251 -0.14228
 N200 N 0.45144 -0.02491 -0.06391
 N201 N 0.42975 -0.04255 -0.07240
 N202 N 0.49057 0.02479 -0.10484
 N203 N 0.49655 0.04233 -0.14251
 Mn204 Mn 0.46359 -0.00007 0.00002
 C205 C 0.48499 0.05324 -0.12191
 C206 C 0.43173 -0.05342 -0.12146
 N207 N 0.52396 -0.02499 -0.06386
 N208 N 0.52807 -0.04260 -0.07259
 N209 N 0.53456 0.02474 -0.10473
 N210 N 0.54613 0.04240 -0.14208
 N211 N 0.54882 0.02474 -0.06373
 N212 N 0.57051 0.04241 -0.07212
 N213 N 0.50971 -0.02493 -0.10481
 N214 N 0.50373 -0.04248 -0.14244
 Mn215 Mn 0.53664 -0.00014 0.00015
 Mn216 Mn 0.50014 -0.00007 -0.10547
 Cl217 Cl 0.50012 -0.00011 0.00008
 C218 C 0.51527 -0.05340 -0.12177
 C219 C 0.56854 0.05331 -0.12117
 C220 C 1.16504 0.48551 0.30332
 C221 C 1.16288 0.46412 0.32223
 C222 C 1.17971 0.46408 0.36046
 C223 C 1.19892 0.48548 0.38043
 C224 C 1.20122 0.50690 0.36007
 C225 C 1.18437 0.50689 0.32184
 C226 C 1.14677 0.48557 0.26781
 C227 C 1.13115 0.48573 0.23973
 C228 C 1.11216 0.48608 0.20828
 C229 C 1.10255 0.47236 0.15721
 C230 C 1.08346 0.47211 0.12835
 C231 C 1.07377 0.48555 0.15046
 C232 C 1.08373 0.49948 0.20133
 C233 C 1.10279 0.49972 0.23002
 H234 H 1.14794 0.44747 0.30836
 H235 H 1.17741 0.44729 0.37531
 H236 H 1.21578 0.52368 0.37458
 H237 H 1.18616 0.52356 0.30767
 H238 H 1.10965 0.46170 0.14006
 H239 H 1.07615 0.46124 0.08921
 H240 H 1.07667 0.51005 0.21929
 H241 H 1.11007 0.51038 0.26954
 C242 C 0.51434 0.67968 0.30330
 C243 C 0.53572 0.69889 0.32213
 C244 C 0.53579 0.71571 0.36060
 C245 C 0.51439 0.71350 0.38115
 C246 C 0.49297 0.69436 0.36054
 C247 C 0.49300 0.67760 0.32207
 C248 C 0.51428 0.66139 0.26760
 C249 C 0.51411 0.64563 0.23941
 C250 C 0.51376 0.62631 0.20785
 C251 C 0.50011 0.60328 0.22954
 C252 C 0.50035 0.58447 0.20079
 C253 C 0.51429 0.58847 0.14992
 C254 C 0.52773 0.61161 0.12785
 C255 C 0.52748 0.63044 0.15677
 H256 H 0.55236 0.70063 0.30799
 H257 H 0.55265 0.73015 0.37512
 H258 H 0.47613 0.69200 0.37500
 H259 H 0.47634 0.66275 0.30789
 H260 H 0.48945 0.59989 0.26907
 H261 H 0.48979 0.56684 0.21873
 H262 H 0.53860 0.61518 0.08871
 H263 H 0.53814 0.64821 0.13966
 C264 C 0.32046 -0.16529 0.30368
 C265 C 0.30126 -0.16308 0.32252
 C266 C 0.28437 -0.17990 0.36075
 C267 C 0.28653 -0.19915 0.38078
 C268 C 0.30561 -0.20149 0.36048
 C269 C 0.32246 -0.18465 0.32226
 C270 C 0.33880 -0.14703 0.26817
 C271 C 0.35458 -0.13142 0.24009
 C272 C 0.37391 -0.11244 0.20862
 C273 C 0.36981 -0.10281 0.15752
 C274 C 0.38865 -0.08373 0.12866
 C275 C 0.41176 -0.07405 0.15078
 C276 C 0.41573 -0.08403 0.20167
 C277 C 0.39692 -0.10309 0.23036
 H278 H 0.29958 -0.14812 0.30860
 H279 H 0.26991 -0.17757 0.37553
 H280 H 0.30780 -0.21608 0.37505
 H281 H 0.33731 -0.18648 0.30815
 H282 H 0.35206 -0.10990 0.14037
 H283 H 0.38510 -0.07640 0.08950
 H284 H 0.43335 -0.07698 0.21964
 H285 H 0.40029 -0.11038 0.26991
 C286 C 0.83489 0.51467 0.30373
 C287 C 0.83705 0.53607 0.32258
 C288 C 0.82021 0.53611 0.36074
 C289 C 0.80098 0.51470 0.38069
 C290 C 0.79869 0.49329 0.36041
 C291 C 0.81556 0.49330 0.32226
 C292 C 0.85316 0.51461 0.26824
 C293 C 0.86877 0.51445 0.24015
 C294 C 0.88774 0.51410 0.20865
 C295 C 0.89735 0.52783 0.15757
 C296 C 0.91641 0.52807 0.12865
 C297 C 0.92609 0.51460 0.15070
 C298 C 0.91614 0.50065 0.20158
 C299 C 0.89710 0.50042 0.23034
 H300 H 0.85200 0.55272 0.30871
 H301 H 0.82250 0.55290 0.37552
 H302 H 0.78412 0.47651 0.37492
 H303 H 0.81376 0.47663 0.30813
 H304 H 0.89026 0.53852 0.14046
 H305 H 0.92372 0.53895 0.08950
 H306 H 0.92319 0.49006 0.21951
 H307 H 0.88983 0.48976 0.26987
 C308 C 0.48568 0.32056 0.30386
 C309 C 0.50705 0.32259 0.32243
 C310 C 0.50706 0.30572 0.36059
 C311 C 0.48565 0.28660 0.38084
 C312 C 0.46426 0.28442 0.36084
 C313 C 0.46430 0.30132 0.32267
 C314 C 0.48574 0.33891 0.26835
 C315 C 0.48589 0.35469 0.24023
 C316 C 0.48620 0.37400 0.20868
 C317 C 0.49982 0.39703 0.23033
 C318 C 0.49955 0.41583 0.20152
 C319 C 0.48561 0.41182 0.15063
 C320 C 0.47220 0.38867 0.12862
 C321 C 0.47248 0.36986 0.15759
 H322 H 0.52371 0.33747 0.30833
 H323 H 0.52383 0.30793 0.37514
 H324 H 0.44748 0.26993 0.37560
 H325 H 0.44766 0.29963 0.30876
 H326 H 0.51048 0.40044 0.26987
 H327 H 0.51010 0.43347 0.21942
 H328 H 0.46132 0.38509 0.08947
 H329 H 0.46183 0.35209 0.14051
 C330 C 0.67955 0.16504 0.30415
 C331 C 0.69878 0.16289 0.32303
 C332 C 0.71565 0.17974 0.36119
 C333 C 0.71346 0.19897 0.38110
 C334 C 0.69433 0.20125 0.36078
 C335 C 0.67749 0.18437 0.32263
 C336 C 0.66123 0.14675 0.26866
 C337 C 0.64547 0.13112 0.24057
 C338 C 0.62617 0.11213 0.20908
 C339 C 0.63031 0.10254 0.15800
 C340 C 0.61150 0.08346 0.12908
 C341 C 0.58837 0.07374 0.15113
 C342 C 0.58436 0.08368 0.20202
 C343 C 0.60315 0.10273 0.23077
 H344 H 0.70050 0.14794 0.30919
 H345 H 0.73014 0.17746 0.37600
 H346 H 0.69211 0.21582 0.37525
 H347 H 0.66262 0.18616 0.30848
 H348 H 0.64807 0.10966 0.14088
 H349 H 0.61508 0.07616 0.08993
 H350 H 0.56674 0.07660 0.21994
 H351 H 0.59975 0.10999 0.27030
 C352 C 0.48583 0.16532 -0.30363
 C353 C 0.46444 0.16320 -0.32226
 C354 C 0.46435 0.18002 -0.36048
 C355 C 0.48574 0.19924 -0.38097
 C356 C 0.50717 0.20148 -0.36057
 C357 C 0.50717 0.18461 -0.32235
 C358 C 0.48590 0.14703 -0.26814
 C359 C 0.48606 0.13140 -0.24008
 C360 C 0.48639 0.11239 -0.20862
 C361 C 0.47267 0.10278 -0.15753
 C362 C 0.47240 0.08366 -0.12867
 C363 C 0.48581 0.07394 -0.15077
 C364 C 0.49974 0.08390 -0.20165
 C365 C 0.50001 0.10299 -0.23035
 H366 H 0.44781 0.14828 -0.30816
 H367 H 0.44749 0.17763 -0.37485
 H368 H 0.52401 0.21598 -0.37499
 H369 H 0.52383 0.18639 -0.30831
 H370 H 0.46203 0.10989 -0.14038
 H371 H 0.46152 0.07635 -0.08952
 H372 H 0.51029 0.07682 -0.21962
 H373 H 0.51067 0.11026 -0.26989
 C374 C 0.67952 0.51446 -0.30420
 C375 C 0.67749 0.49311 -0.32289
 C376 C 0.69435 0.49312 -0.36103
 C377 C 0.71354 0.51456 -0.38139
 C378 C 0.71569 0.53596 -0.36092
 C379 C 0.69877 0.53586 -0.32277
 C380 C 0.66116 0.51437 -0.26877
 C381 C 0.64536 0.51420 -0.24076
 C382 C 0.62603 0.51387 -0.20933
 C383 C 0.60302 0.50022 -0.23106
 C384 C 0.58421 0.50048 -0.20238
 C385 C 0.58818 0.51443 -0.15154
 C386 C 0.61131 0.52786 -0.12944
 C387 C 0.63014 0.52760 -0.15828
 H388 H 0.66260 0.47644 -0.30889
 H389 H 0.69202 0.47627 -0.37543
 H390 H 0.73017 0.55284 -0.37525
 H391 H 0.70048 0.55249 -0.30869
 H392 H 0.59964 0.48955 -0.27057
 H393 H 0.56659 0.48991 -0.22034
 H394 H 0.61486 0.53875 -0.09032
 H395 H 0.64789 0.53826 -0.14114
 C396 C 0.83462 0.32052 -0.30386
 C397 C 0.81532 0.32256 -0.32260
 C398 C 0.79846 0.30569 -0.36073
 C399 C 0.80071 0.28649 -0.38102
 C400 C 0.81995 0.28433 -0.36051
 C401 C 0.83676 0.30125 -0.32238
 C402 C 0.85289 0.33889 -0.26845
 C403 C 0.86851 0.35469 -0.24043
 C404 C 0.88751 0.37402 -0.20899
 C405 C 0.89709 0.36989 -0.15788
 C406 C 0.91619 0.38870 -0.12903
 C407 C 0.92593 0.41184 -0.15118
 C408 C 0.91599 0.41584 -0.20210
 C409 C 0.89692 0.39704 -0.23078
 H410 H 0.81353 0.33746 -0.30865
 H411 H 0.78395 0.30802 -0.37517
 H412 H 0.82234 0.26984 -0.37479
 H413 H 0.85167 0.29954 -0.30825
 H414 H 0.88997 0.35212 -0.14069
 H415 H 0.92349 0.38513 -0.08985
 H416 H 0.92308 0.43347 -0.22010
 H417 H 0.88966 0.40044 -0.27035
 C418 C 0.51431 -0.16558 -0.30289
 C419 C 0.49295 -0.18490 -0.32149
 C420 C 0.49296 -0.20177 -0.35962
 C421 C 0.51437 -0.19949 -0.37979
 C422 C 0.53576 -0.18029 -0.35971
 C423 C 0.53570 -0.16344 -0.32158
 C424 C 0.51425 -0.14728 -0.26751
 C425 C 0.51410 -0.13163 -0.23954
 C426 C 0.51379 -0.11260 -0.20819
 C427 C 0.50021 -0.10316 -0.23005
 C428 C 0.50050 -0.08406 -0.20145
 C429 C 0.51443 -0.07412 -0.15055
 C430 C 0.52780 -0.08387 -0.12832
 C431 C 0.52750 -0.10300 -0.15709
 H432 H 0.47629 -0.18668 -0.30749
 H433 H 0.47619 -0.21632 -0.37422
 H434 H 0.55254 -0.17801 -0.37440
 H435 H 0.55234 -0.14850 -0.30764
 H436 H 0.48957 -0.11043 -0.26960
 H437 H 0.48999 -0.07696 -0.21951
 H438 H 0.53866 -0.07657 -0.08916
 H439 H 0.53811 -0.11014 -0.13985
 C440 C 0.32018 0.48569 -0.30372
 C441 C 0.32222 0.50704 -0.32247
 C442 C 0.30538 0.50705 -0.36068
 C443 C 0.28620 0.48560 -0.38104
 C444 C 0.28403 0.46421 -0.36049
 C445 C 0.30093 0.46430 -0.32228
 C446 C 0.33854 0.48577 -0.26829
 C447 C 0.35434 0.48593 -0.24029
 C448 C 0.37368 0.48625 -0.20892
 C449 C 0.39668 0.49985 -0.23080
 C450 C 0.41549 0.49957 -0.20219
 C451 C 0.41154 0.48566 -0.15126
 C452 C 0.38844 0.47228 -0.12900
 C453 C 0.36960 0.47256 -0.15778
 H454 H 0.33711 0.52372 -0.30848
 H455 H 0.30771 0.52389 -0.37514
 H456 H 0.26955 0.44733 -0.37482
 H457 H 0.29921 0.44766 -0.30814
 H458 H 0.40003 0.51049 -0.27038
 H459 H 0.43310 0.51010 -0.22027
 H460 H 0.38490 0.46142 -0.08981
 H461 H 0.35186 0.46193 -0.14052
 C462 C 1.16541 0.67971 -0.30333
 C463 C 1.16332 0.69900 -0.32195
 C464 C 1.18014 0.71588 -0.36017
 C465 C 1.19933 0.71366 -0.38066
 C466 C 1.20154 0.69444 -0.36024
 C467 C 1.18468 0.67761 -0.32202
 C468 C 1.14712 0.66136 -0.26789
 C469 C 1.13147 0.64557 -0.23989
 C470 C 1.11244 0.62625 -0.20852
 C471 C 1.10284 0.63036 -0.15744
 C472 C 1.08371 0.61154 -0.12867
 C473 C 1.07396 0.58842 -0.15087
 C474 C 1.08391 0.58444 -0.20175
 C475 C 1.10301 0.60324 -0.23035
 H476 H 1.14843 0.70075 -0.30785
 H477 H 1.17777 0.73039 -0.37454
 H478 H 1.21602 0.69207 -0.37466
 H479 H 1.18643 0.66270 -0.30799
 H480 H 1.10998 0.64811 -0.14022
 H481 H 1.07640 0.61510 -0.08952
 H482 H 1.07681 0.56682 -0.21979
 H483 H 1.11028 0.59985 -0.26989
 C484 C 0.83407 0.51432 -0.30030
 C485 C 0.83631 0.53576 -0.31910
 C486 C 0.81952 0.53588 -0.35734
 C487 C 0.80030 0.51450 -0.37740
 C488 C 0.79789 0.49305 -0.35701
 C489 C 0.81470 0.49298 -0.31879
 C490 C 0.85237 0.51418 -0.26517
 C491 C 0.86804 0.51398 -0.23749
 C492 C 0.88712 0.51365 -0.20656
 C493 C 0.89683 0.52734 -0.15552
 C494 C 0.91605 0.52768 -0.12724
 C495 C 0.92577 0.51435 -0.14990
 C496 C 0.91571 0.50042 -0.20072
 C497 C 0.89651 0.50010 -0.22885
 H498 H 0.85129 0.55238 -0.30524
 H499 H 0.82189 0.55269 -0.37221
 H500 H 0.78331 0.47630 -0.37161
 H501 H 0.81285 0.47629 -0.30469
 H502 H 0.88972 0.53793 -0.13798
 H503 H 0.92345 0.53853 -0.08811
 H504 H 0.92280 0.48994 -0.21908
 H505 H 0.88916 0.48947 -0.26838
 C506 C 0.48595 0.32003 -0.30021
 C507 C 0.46453 0.30085 -0.31901
 C508 C 0.46443 0.28395 -0.35722
 C509 C 0.48580 0.28608 -0.37727
 C510 C 0.50724 0.30512 -0.35689
 C511 C 0.50729 0.32198 -0.31869
 C512 C 0.48608 0.33846 -0.26510
 C513 C 0.48626 0.35434 -0.23745
 C514 C 0.48658 0.37374 -0.20655
 C515 C 0.47289 0.36976 -0.15550
 C516 C 0.47253 0.38864 -0.12725
 C517 C 0.48582 0.41169 -0.14997
 C518 C 0.49975 0.41555 -0.20080
 C519 C 0.50009 0.39669 -0.22889
 H520 H 0.44792 0.29922 -0.30516
 H521 H 0.44763 0.26952 -0.37208
 H522 H 0.52399 0.30728 -0.37148
 H523 H 0.52397 0.33682 -0.30459
 H524 H 0.46232 0.35205 -0.13792
 H525 H 0.46168 0.38517 -0.08811
 H526 H 0.51020 0.43312 -0.21921
 H527 H 0.51072 0.39996 -0.26844
 C528 C 0.68003 0.16590 -0.29987
 C529 C 0.67805 0.18527 -0.31842
 C530 C 0.69491 0.20209 -0.35666
 C531 C 0.71395 0.19968 -0.37699
 C532 C 0.71610 0.18045 -0.35686
 C533 C 0.69922 0.16366 -0.31862
 C534 C 0.66160 0.14759 -0.26473
 C535 C 0.64574 0.13191 -0.23706
 C536 C 0.62635 0.11282 -0.20612
 C537 C 0.60341 0.10342 -0.22841
 C538 C 0.58456 0.08421 -0.20029
 C539 C 0.58843 0.07413 -0.14946
 C540 C 0.61147 0.08386 -0.12679
 C541 C 0.63034 0.10310 -0.15508
 H542 H 0.66321 0.18712 -0.30436
 H543 H 0.69273 0.21667 -0.37131
 H544 H 0.73054 0.17808 -0.37169
 H545 H 0.70085 0.14867 -0.30471
 H546 H 0.60014 0.11079 -0.26795
 H547 H 0.56699 0.07712 -0.21865
 H548 H 0.61494 0.07646 -0.08766
 H549 H 0.64804 0.11021 -0.13753
 C550 C 1.16564 0.48587 -0.30071
 C551 C 1.16340 0.46443 -0.31945
 C552 C 1.18020 0.46431 -0.35761
 C553 C 1.19944 0.48568 -0.37766
 C554 C 1.20184 0.50714 -0.35736
 C555 C 1.18502 0.50720 -0.31921
 C556 C 1.14734 0.48601 -0.26560
 C557 C 1.13168 0.48622 -0.23792
 C558 C 1.11261 0.48655 -0.20694
 C559 C 1.10292 0.47284 -0.15589
 C560 C 1.08372 0.47252 -0.12754
 C561 C 1.07400 0.48587 -0.15015
 C562 C 1.08405 0.49981 -0.20099
 C563 C 1.10323 0.50012 -0.22918
 H564 H 1.14841 0.44781 -0.30558
 H565 H 1.17783 0.44750 -0.37242
 H566 H 1.21643 0.52389 -0.37195
 H567 H 1.18687 0.52390 -0.30516
 H568 H 1.11002 0.46224 -0.13838
 H569 H 1.07633 0.46165 -0.08840
 H570 H 1.07697 0.51031 -0.21931
 H571 H 1.11058 0.51076 -0.26872
 C572 C 0.51406 0.67976 -0.30330
 C573 C 0.49274 0.67774 -0.32208
 C574 C 0.49278 0.69454 -0.36055
 C575 C 0.51423 0.71364 -0.38113
 C576 C 0.53561 0.71581 -0.36049
 C577 C 0.53547 0.69895 -0.32201
 C578 C 0.51393 0.66139 -0.26783
 C579 C 0.51372 0.64556 -0.23986
 C580 C 0.51337 0.62620 -0.20857
 C581 C 0.49978 0.60321 -0.23054
 C582 C 0.50008 0.58437 -0.20206
 C583 C 0.51402 0.58831 -0.15121
 C584 C 0.52738 0.61141 -0.12886
 C585 C 0.52707 0.63026 -0.15749
 H586 H 0.47606 0.66290 -0.30797
 H587 H 0.47596 0.69222 -0.37507
 H588 H 0.55249 0.73023 -0.37498
 H589 H 0.55208 0.70064 -0.30784
 H590 H 0.48915 0.59988 -0.27009
 H591 H 0.48957 0.56677 -0.22019
 H592 H 0.53825 0.61493 -0.08972
 H593 H 0.53769 0.64800 -0.14020
 C594 C 0.32023 -0.16585 -0.30044
 C595 C 0.32214 -0.18526 -0.31889
 C596 C 0.30525 -0.20208 -0.35702
 C597 C 0.28622 -0.19964 -0.37735
 C598 C 0.28412 -0.18037 -0.35733
 C599 C 0.30105 -0.16358 -0.31919
 C600 C 0.33867 -0.14756 -0.26533
 C601 C 0.35455 -0.13189 -0.23765
 C602 C 0.37394 -0.11283 -0.20667
 C603 C 0.39688 -0.10342 -0.22892
 C604 C 0.41573 -0.08425 -0.20071
 C605 C 0.41185 -0.07421 -0.14986
 C606 C 0.38881 -0.08394 -0.12724
 C607 C 0.36994 -0.10315 -0.15560
 H608 H 0.33697 -0.18714 -0.30482
 H609 H 0.30738 -0.21669 -0.37158
 H610 H 0.26970 -0.17797 -0.37215
 H611 H 0.29946 -0.14856 -0.30536
 H612 H 0.40016 -0.11076 -0.26847
 H613 H 0.43330 -0.07715 -0.21904
 H614 H 0.38533 -0.07657 -0.08809
 H615 H 0.35224 -0.11027 -0.13809
 C616 C 0.51420 -0.16597 0.30120
 C617 C 0.53562 -0.16372 0.32012
 C618 C 0.53571 -0.18053 0.35836
 C619 C 0.51434 -0.19979 0.37831
 C620 C 0.49290 -0.20219 0.35785
 C621 C 0.49286 -0.18536 0.31961
 C622 C 0.51408 -0.14767 0.26596
 C623 C 0.51389 -0.13201 0.23817
 C624 C 0.51355 -0.11295 0.20708
 C625 C 0.52725 -0.10327 0.15602
 C626 C 0.52757 -0.08407 0.12756
 C627 C 0.51423 -0.07434 0.15007
 C628 C 0.50030 -0.08438 0.20091
 C629 C 0.49999 -0.10355 0.22921
 H630 H 0.55224 -0.14872 0.30632
 H631 H 0.55250 -0.17816 0.37329
 H632 H 0.47615 -0.21679 0.37235
 H633 H 0.47619 -0.18721 0.30542
 H634 H 0.53785 -0.11039 0.13859
 H635 H 0.53843 -0.07670 0.08842
 H636 H 0.48981 -0.07729 0.21916
 H637 H 0.48936 -0.11089 0.26875
 C638 C 0.32024 0.48575 0.30162
 C639 C 0.32220 0.50709 0.32009
 C640 C 0.30540 0.50704 0.35853
 C641 C 0.28644 0.48560 0.37916
 C642 C 0.28431 0.46422 0.35916
 C643 C 0.30113 0.46432 0.32071
 C644 C 0.33859 0.48588 0.26616
 C645 C 0.35441 0.48609 0.23820
 C646 C 0.37377 0.48647 0.20693
 C647 C 0.39674 0.50010 0.22887
 C648 C 0.41558 0.49983 0.20042
 C649 C 0.41165 0.48587 0.14962
 C650 C 0.38857 0.47247 0.12729
 C651 C 0.36971 0.47275 0.15590
 H652 H 0.33698 0.52378 0.30577
 H653 H 0.30756 0.52380 0.37306
 H654 H 0.26993 0.44741 0.37421
 H655 H 0.29951 0.44769 0.30688
 H656 H 0.40007 0.51075 0.26838
 H657 H 0.43318 0.51037 0.21854
 H658 H 0.38505 0.46158 0.08819
 H659 H 0.35198 0.46209 0.13862
 C660 C 1.16539 0.67962 0.30200
 C661 C 1.18473 0.67760 0.32053
 C662 C 1.20149 0.69439 0.35897
 C663 C 1.19907 0.71340 0.37953
 C664 C 1.17986 0.71559 0.35946
 C665 C 1.16312 0.69877 0.32102
 C666 C 1.14715 0.66129 0.26653
 C667 C 1.13154 0.64548 0.23857
 C668 C 1.11253 0.62614 0.20730
 C669 C 1.10314 0.60315 0.22928
 C670 C 1.08402 0.58433 0.20083
 C671 C 1.07402 0.58830 0.14999
 C672 C 1.08375 0.61140 0.12762
 C673 C 1.10290 0.63023 0.15623
 H674 H 1.18659 0.66279 0.30627
 H675 H 1.21605 0.69218 0.37356
 H676 H 1.17748 0.73000 0.37446
 H677 H 1.14815 0.70044 0.30713
 H678 H 1.11044 0.59979 0.26882
 H679 H 1.07692 0.56672 0.21897
 H680 H 1.07641 0.61494 0.08849
 H681 H 1.11002 0.64798 0.13893
 C682 C 0.48593 0.16546 0.30171
 C683 C 0.50727 0.18483 0.32023
 C684 C 0.50722 0.20158 0.35866
 C685 C 0.48578 0.19913 0.37922
 C686 C 0.46441 0.17991 0.35914
 C687 C 0.46451 0.16317 0.32071
 C688 C 0.48606 0.14722 0.26630
 C689 C 0.48627 0.13160 0.23840
 C690 C 0.48662 0.11258 0.20722
 C691 C 0.50019 0.10317 0.22931
 C692 C 0.49988 0.08402 0.20096
 C693 C 0.48596 0.07402 0.15010
 C694 C 0.47262 0.08377 0.12762
 C695 C 0.47293 0.10294 0.15614
 H696 H 0.52395 0.18671 0.30598
 H697 H 0.52397 0.21616 0.37326
 H698 H 0.44761 0.17750 0.37414
 H699 H 0.44790 0.14819 0.30682
 H700 H 0.51082 0.11048 0.26887
 H701 H 0.51037 0.07692 0.21918
 H702 H 0.46176 0.07642 0.08847
 H703 H 0.46233 0.11007 0.13875
 C704 C 0.67969 0.51445 0.30113
 C705 C 0.67773 0.49311 0.31966
 C706 C 0.69451 0.49315 0.35818
 C707 C 0.71347 0.51459 0.37880
 C708 C 0.71561 0.53598 0.35872
 C709 C 0.69880 0.53588 0.32020
 C710 C 0.66134 0.51433 0.26565
 C711 C 0.64552 0.51411 0.23771
 C712 C 0.62614 0.51374 0.20649
 C713 C 0.60319 0.50015 0.22857
 C714 C 0.58434 0.50043 0.20019
 C715 C 0.58824 0.51436 0.14932
 C716 C 0.61131 0.52773 0.12686
 C717 C 0.63017 0.52744 0.15540
 H718 H 0.66295 0.47642 0.30536
 H719 H 0.69234 0.47639 0.37277
 H720 H 0.72998 0.55278 0.37376
 H721 H 0.70042 0.55251 0.30631
 H722 H 0.59988 0.48951 0.26814
 H723 H 0.56675 0.48991 0.21840
 H724 H 0.61480 0.53860 0.08770
 H725 H 0.64789 0.53807 0.13802
 C726 C 0.83442 0.32033 0.30152
 C727 C 0.81505 0.32230 0.32001
 C728 C 0.79832 0.30551 0.35852
 C729 C 0.80080 0.28654 0.37918
 C730 C 0.82003 0.28439 0.35914
 C731 C 0.83674 0.30121 0.32063
 C732 C 0.85263 0.33869 0.26605
 C733 C 0.86824 0.35451 0.23810
 C734 C 0.88724 0.37388 0.20688
 C735 C 0.89688 0.36983 0.15581
 C736 C 0.91604 0.38869 0.12726
 C737 C 0.92576 0.41177 0.14970
 C738 C 0.91575 0.41570 0.20054
 C739 C 0.89662 0.39686 0.22893
 H740 H 0.81314 0.33709 0.30568
 H741 H 0.78373 0.30768 0.37309
 H742 H 0.82246 0.27001 0.37422
 H743 H 0.85173 0.29958 0.30678
 H744 H 0.88977 0.35210 0.13845
 H745 H 0.92340 0.38518 0.08812
 H746 H 0.92284 0.43329 0.21874
 H747 H 0.88931 0.40018 0.26848
   
