data_POSCAR
  _audit_creation_date              2014-09-24
  _audit_creation_method            'ToBaCCo'
  _symmetry_space_group_name_H-M    'P1'
  _symmetry_Int_Tables_number       1
  _symmetry_cell_setting            triclinic
  loop_
  _symmetry_equiv_pos_as_xyz
 x,y,z
_cell_length_a 29.2925
_cell_length_b 29.4649
_cell_length_c 29.2493
_cell_angle_alpha 89.180400
_cell_angle_beta 89.900100
_cell_angle_gamma 90.703300
loop_
  _atom_site_label
  _atom_site_type_symbol
  _atom_site_fract_x
  _atom_site_fract_y
  _atom_site_fract_z
C1 C 0.16230 0.21607 0.23143
 C2 C 0.16320 0.24632 0.19381
 C3 C 0.19413 0.24017 0.15841
 C4 C 0.22492 0.20396 0.16046
 C5 C 0.22420 0.17488 0.19777
 C6 C 0.19349 0.18144 0.23362
 C7 C 0.13388 0.21080 0.26905
 N8 N 0.14824 0.17453 0.29450
 C9 C 0.18495 0.15682 0.27279
 C10 C 0.25507 0.14130 0.18989
 N11 N 0.27541 0.14901 0.14855
 C12 C 0.25729 0.18786 0.13057
 C13 C 0.18570 0.27310 0.12566
 N14 N 0.15128 0.29944 0.14079
 C15 C 0.13724 0.28334 0.18227
 H16 H 0.10508 0.23193 0.27714
 H17 H 0.20250 0.12614 0.28283
 H18 H 0.26232 0.11367 0.21340
 H19 H 0.26513 0.20242 0.09727
 H20 H 0.20309 0.27751 0.09318
 H21 H 0.10940 0.29696 0.20201
 C22 C -0.17550 0.78375 0.25409
 C23 C -0.17435 0.75587 0.21530
 C24 C -0.20466 0.76350 0.17971
 C25 C -0.23675 0.79818 0.18256
 C26 C -0.23916 0.82407 0.22130
 C27 C -0.20834 0.81686 0.25723
 C28 C -0.14638 0.78949 0.29080
 N29 N -0.16095 0.82511 0.31628
 C30 C -0.19942 0.84126 0.29588
 C31 C -0.27153 0.85674 0.21347
 N32 N -0.28855 0.85188 0.17042
 C33 C -0.26718 0.81581 0.15147
 C34 C -0.19396 0.73430 0.14517
 N35 N -0.15855 0.70840 0.15908
 C36 C -0.14603 0.72135 0.20175
 H37 H -0.11603 0.76988 0.29722
 H38 H -0.21743 0.87152 0.30546
 H39 H -0.27968 0.88371 0.23671
 H40 H -0.27304 0.80284 0.11755
 H41 H -0.21031 0.73231 0.11208
 H42 H -0.11761 0.70759 0.22082
 C43 C -0.17743 0.21782 -0.25624
 C44 C -0.18290 0.25317 -0.22479
 C45 C -0.22007 0.25260 -0.19540
 C46 C -0.25217 0.21700 -0.19693
 C47 C -0.24722 0.18294 -0.22815
 C48 C -0.20979 0.18346 -0.25796
 C49 C -0.14327 0.20677 -0.28675
 N50 N -0.15449 0.16668 -0.30719
 C51 C -0.19536 0.15265 -0.28921
 C52 C -0.28095 0.15111 -0.21955
 N53 N -0.30628 0.16446 -0.18306
 C54 C -0.28872 0.20528 -0.16951
 C55 C -0.21534 0.28891 -0.16670
 N56 N -0.17637 0.31193 -0.17789
 C57 C -0.15629 0.29022 -0.21337
 H58 H -0.11268 0.22678 -0.29317
 H59 H -0.21287 0.12095 -0.29597
 H60 H -0.28419 0.11911 -0.23693
 H61 H -0.30058 0.22522 -0.14124
 H62 H -0.23844 0.29757 -0.13935
 H63 H -0.12378 0.29959 -0.22865
 C64 C 0.20818 0.76608 -0.26516
 C65 C 0.21091 0.73282 -0.23056
 C66 C 0.24485 0.73544 -0.19784
 C67 C 0.27682 0.77133 -0.19962
 C68 C 0.27455 0.80365 -0.23404
 C69 C 0.24010 0.80086 -0.26721
 C70 C 0.17522 0.77555 -0.29731
 N71 N 0.18639 0.81527 -0.31933
 C72 C 0.22647 0.83052 -0.30100
 C73 C 0.30597 0.83715 -0.22411
 N74 N 0.32748 0.82649 -0.18403
 C75 C 0.30960 0.78570 -0.16935
 C76 C 0.23569 0.70206 -0.16548
 N77 N 0.19725 0.67913 -0.17803
 C78 C 0.18196 0.69787 -0.21779
 H79 H 0.14492 0.75514 -0.30316
 H80 H 0.24296 0.86280 -0.30860
 H81 H 0.31031 0.86812 -0.24392
 H82 H 0.31760 0.76800 -0.13786
 H83 H 0.25469 0.69603 -0.13433
 H84 H 0.15043 0.68867 -0.23474
 C85 C 0.20614 1.16539 0.78098
 C86 C 0.24202 1.17333 0.81184
 C87 C 0.23733 1.20562 0.84559
 C88 C 0.19719 1.23096 0.84821
 C89 C 0.16174 1.22199 0.81865
 C90 C 0.16610 1.18908 0.78520
 C91 C 0.19975 1.13520 0.74586
 N92 N 0.15644 1.13972 0.72935
 C93 C 0.13584 1.17273 0.75366
 C94 C 0.12643 1.24974 0.82961
 N95 N 0.13961 1.27672 0.86467
 C96 C 0.18305 1.26518 0.87639
 C97 C 0.27411 1.20151 0.87450
 N98 N 0.30099 1.16785 0.85900
 C99 C 0.28198 1.15072 0.82053
 H100 H 0.22431 1.11054 0.73471
 H101 H 0.10159 1.18506 0.74833
 H102 H 0.09434 1.25153 0.81144
 H103 H 0.20286 1.27991 0.90375
 H104 H 0.27913 1.21915 0.90636
 H105 H 0.29407 1.12116 0.80280
 C106 C 0.77082 0.82441 0.74493
 C107 C 0.74314 0.82516 0.78437
 C108 C 0.75243 0.79617 0.82091
 C109 C 0.78864 0.76567 0.81826
 C110 C 0.81444 0.76381 0.77896
 C111 C 0.80566 0.79347 0.74229
 C112 C 0.77522 0.85303 0.70727
 N113 N 0.81212 0.84030 0.68192
 C114 C 0.83012 0.80321 0.70336
 C115 C 0.84876 0.73332 0.78682
 N116 N 0.84500 0.71671 0.83040
 C117 C 0.80806 0.73669 0.84979
 C118 C 0.72348 0.80695 0.85605
 N119 N 0.69627 0.84114 0.84164
 C120 C 0.70802 0.85274 0.79800
 H121 H 0.75404 0.88215 0.70056
 H122 H 0.86152 0.78662 0.69440
 H123 H 0.87597 0.72612 0.76304
 H124 H 0.79564 0.73073 0.88422
 H125 H 0.72287 0.79181 0.89000
 H126 H 0.69336 0.88039 0.77843
 C127 C 0.23084 0.80600 1.26329
 C128 C 0.26740 0.79838 1.23343
 C129 C 0.26542 0.76273 1.20313
 C130 C 0.22703 0.73366 1.20304
 C131 C 0.19113 0.74132 1.23258
 C132 C 0.19277 0.77806 1.26222
 C133 C 0.22090 0.84130 1.29185
 N134 N 0.17719 0.83600 1.30731
 C135 C 0.15998 0.79711 1.28917
 C136 C 0.15647 0.71166 1.22179
 N137 N 0.17018 0.68596 1.18631
 C138 C 0.21334 0.69930 1.17454
 C139 C 0.30172 0.76823 1.17337
 N140 N 0.32556 0.80628 1.18491
 C141 C 0.30482 0.82461 1.22181
 H142 H 0.24285 0.87041 1.29784
 H143 H 0.12590 0.78349 1.29458
 H144 H 0.12269 0.71088 1.23687
 H145 H 0.23293 0.68607 1.14641
 H146 H 0.30854 0.74759 1.14387
 H147 H 0.31376 0.85699 1.23659
 C148 C 0.77671 1.19148 1.24941
 C149 C 0.73918 1.19828 1.22065
 C150 C 0.73634 1.23743 1.19420
 C151 C 0.77091 1.27069 1.19687
 C152 C 0.80758 1.26428 1.22588
 C153 C 0.81031 1.22449 1.25260
 C154 C 0.79091 1.15436 1.27433
 N155 N 0.83215 1.16416 1.29351
 C156 C 0.84396 1.20734 1.28044
 C157 C 0.83862 1.29867 1.21690
 N158 N 0.82192 1.32588 1.18304
 C159 C 0.78018 1.30905 1.17105
 C160 C 0.69938 1.23211 1.16550
 N161 N 0.67952 1.19105 1.17464
 C162 C 0.70373 1.17023 1.20828
 H163 H 0.77219 1.12264 1.27810
 H164 H 0.87602 1.22426 1.28795
 H165 H 0.87244 1.30128 1.23150
 H166 H 0.75878 1.32220 1.14397
 H167 H 0.68866 1.25563 1.13897
 H168 H 0.69760 1.13596 1.22089
 O169 O 0.53180 0.95013 0.93719
 O170 O 0.45394 0.95846 1.09916
 O171 O 0.59261 0.99295 1.05301
 O172 O 0.45076 0.93421 0.95992
 O173 O 0.53980 0.95967 1.09623
 O174 O 0.45786 0.98050 0.90630
 O175 O 0.44414 0.92256 1.03757
 O176 O 0.59047 0.97711 0.97075
 C177 C 0.57316 0.94776 0.94548
 C178 C 0.44197 0.92314 1.07967
 C179 C 0.58072 0.96444 1.08400
 C180 C 0.44220 0.94338 0.91947
 O181 O 0.47294 1.05750 0.94101
 O182 O 0.53886 1.04675 1.09697
 O183 O 0.55602 1.06127 0.95408
 O184 O 0.40439 1.00590 1.04839
 O185 O 0.45292 1.04578 1.08884
 O186 O 0.53615 1.02511 0.89324
 O187 O 0.41313 1.02053 0.96683
 O188 O 0.55867 1.07714 1.03324
 Co189 Co 0.50368 1.00426 0.94219
 Co190 Co 0.49657 1.00229 1.08717
 Co191 Co 0.56811 1.02454 1.00344
 Co192 Co 0.43337 0.97301 1.00349
 O193 O 0.49895 0.99934 1.01194
 C194 C 0.43071 1.05561 0.94786
 C195 C 0.55712 1.07882 1.07537
 C196 C 0.56328 1.05451 0.91203
 C197 C 0.41329 1.03879 1.07445
 O198 O 0.05024 0.47841 0.05950
 O199 O 0.04418 0.54660 -0.09717
 O200 O -0.00084 0.41347 -0.04712
 O201 O 0.05674 0.56162 0.04537
 O202 O 0.04199 0.46086 -0.08744
 O203 O 0.01920 0.54196 0.10660
 O204 O 0.07394 0.56475 -0.03356
 O205 O 0.01120 0.42061 0.03418
 C206 C 0.04682 0.43653 0.05291
 C207 C 0.07649 0.56361 -0.07562
 C208 C 0.03349 0.42160 -0.07240
 C209 C 0.04998 0.56811 0.08756
 O210 O -0.05582 0.54072 0.06291
 O211 O -0.04512 0.46324 -0.09941
 O212 O -0.07432 0.46054 0.03985
 O213 O -0.00995 0.60041 -0.05372
 O214 O -0.04321 0.54855 -0.09669
 O215 O -0.02859 0.46602 0.09370
 O216 O -0.02663 0.59841 0.02868
 O217 O -0.08381 0.45466 -0.03871
 Co218 Co -0.00223 0.51101 0.05794
 Co219 Co -0.00116 0.50503 -0.08698
 Co220 Co -0.03470 0.44252 -0.00325
 Co221 Co 0.02072 0.57507 -0.00395
 O222 O -0.00617 0.50701 -0.01180
 C223 C -0.05673 0.58202 0.05449
 C224 C -0.08074 0.44975 -0.08043
 C225 C -0.06591 0.45127 0.08035
 C226 C -0.03834 0.58907 -0.08454
 O227 O 1.08935 0.04470 0.45827
 O228 O 0.94582 0.06455 0.52907
 O229 O 0.96640 0.01675 0.38518
 O230 O 1.04353 0.01120 0.59701
 O231 O 0.94365 0.05403 0.44553
 O232 O 1.08858 0.04558 0.54620
 O233 O 0.96188 0.02207 0.58815
 O234 O 1.02276 0.05935 0.43095
 C235 C 1.06429 0.06864 0.43341
 C236 C 0.94810 0.05930 0.57142
 C237 C 0.93814 0.04595 0.40311
 C238 C 1.07420 0.04047 0.58654
 O239 O 1.09608 -0.04040 0.54723
 O240 O 0.91612 -0.03296 0.46002
 O241 O 1.04960 -0.02010 0.40624
 O242 O 0.95659 -0.06593 0.55263
 O243 O 0.90763 -0.01618 0.54224
 O244 O 1.09140 -0.04442 0.46264
 O245 O 1.03480 -0.07545 0.56777
 O246 O 0.97753 -0.05708 0.43062
 Co247 Co 1.08330 0.00123 0.50302
 Co248 Co 0.93579 0.01512 0.49478
 Co249 Co 0.99907 0.00084 0.43513
 Co250 Co 0.99914 -0.02518 0.57072
 O251 O 1.00826 -0.00369 0.50333
 C252 C 1.07709 -0.07347 0.56655
 C253 C 0.93621 -0.06274 0.43766
 C254 C 1.08101 -0.04465 0.42126
 C255 C 0.91644 -0.05513 0.55564
 C256 C 1.15413 0.12921 0.36321
 C257 C 1.12820 0.15592 0.33286
 C258 C 1.08091 0.15963 0.34120
 C259 C 1.05971 0.13303 0.37560
 C260 C 1.08568 0.10396 0.40353
 C261 C 1.13331 0.10417 0.39825
 H262 H 1.19080 0.12704 0.35959
 H263 H 1.05964 0.17985 0.31884
 H264 H 1.02293 0.13361 0.37893
 H265 H 1.15457 0.08269 0.41947
 C266 C 0.90872 -0.16048 0.35913
 C267 C 0.86147 -0.15447 0.35196
 C268 C 0.83863 -0.12363 0.38032
 C269 C 0.86264 -0.09670 0.41123
 C270 C 0.91028 -0.09933 0.41453
 C271 C 0.93286 -0.13275 0.38957
 H272 H 0.92807 -0.18378 0.33877
 H273 H 0.80210 -0.11932 0.37815
 H274 H 0.84407 -0.07173 0.43044
 H275 H 0.96960 -0.13582 0.39167
 C276 C 0.91734 0.15355 0.65275
 C277 C 0.87070 0.14320 0.66140
 C278 C 0.85071 0.10682 0.63727
 C279 C 0.87635 0.08082 0.60766
 C280 C 0.92269 0.09015 0.60075
 C281 C 0.94313 0.12701 0.62284
 H282 H 0.93464 0.18091 0.67011
 H283 H 0.81492 0.09820 0.64039
 H284 H 0.85990 0.05284 0.59027
 H285 H 0.97896 0.13486 0.61745
 C286 C 1.11329 -0.17121 0.64378
 C287 C 1.16046 -0.16177 0.64907
 C288 C 1.17985 -0.12630 0.62235
 C289 C 1.15290 -0.09956 0.59385
 C290 C 1.10554 -0.10694 0.59127
 C291 C 1.08611 -0.14375 0.61561
 H292 H 1.09641 -0.19790 0.66335
 H293 H 1.21604 -0.11879 0.62324
 H294 H 1.16920 -0.07189 0.57500
 H295 H 1.04969 -0.15036 0.61416
 C296 C 0.31319 1.07653 1.14390
 C297 C 0.30763 1.12198 1.12890
 C298 C 0.33662 1.13872 1.09371
 C299 C 0.37108 1.11160 1.07581
 C300 C 0.37617 1.06681 1.09143
 C301 C 0.34672 1.04925 1.12500
 H302 H 0.29107 1.06122 1.16955
 H303 H 0.33429 1.17335 1.08129
 H304 H 0.39391 1.12559 1.04990
 H305 H 0.35027 1.01459 1.13725
 C306 C 0.37327 0.89601 0.82113
 C307 C 0.35829 0.85342 0.83911
 C308 C 0.37499 0.84023 0.88257
 C309 C 0.40306 0.86910 0.90773
 C310 C 0.41596 0.91194 0.89038
 C311 C 0.40161 0.92481 0.84650
 H312 H 0.36297 0.90807 0.78777
 H313 H 0.36601 0.80808 0.89841
 H314 H 0.41399 0.85808 0.94143
 H315 H 0.41139 0.95763 0.83220
 C316 C 0.67575 0.88090 1.10138
 C317 C 0.67998 0.87933 1.14950
 C318 C 0.65097 0.90705 1.17544
 C319 C 0.61858 0.93456 1.15407
 C320 C 0.61538 0.93625 1.10634
 C321 C 0.64426 0.90952 1.08019
 H322 H 0.69756 0.86121 1.07964
 H323 H 0.65189 0.90648 1.21238
 H324 H 0.59613 0.95478 1.17481
 H325 H 0.64165 0.91000 1.04335
 C326 C 0.64424 1.15098 0.88238
 C327 C 0.65967 1.13957 0.83831
 C328 C 0.64015 1.10068 0.81777
 C329 C 0.60784 1.07362 0.84106
 C330 C 0.59442 1.08446 0.88549
 C331 C 0.61249 1.12363 0.90565
 H332 H 0.65781 1.17985 0.90038
 H333 H 0.64935 1.09084 0.78357
 H334 H 0.59415 1.04365 0.82471
 H335 H 0.60258 1.13291 0.93994
 C336 C 0.12334 0.37783 0.13770
 C337 C 0.13080 0.33634 0.11612
 C338 C 0.11498 0.33017 0.07137
 C339 C 0.08941 0.36392 0.04966
 C340 C 0.08063 0.40489 0.07184
 C341 C 0.09903 0.41218 0.11544
 H342 H 0.13544 0.38308 0.17221
 H343 H 0.12025 0.29825 0.05436
 H344 H 0.07519 0.35748 0.01618
 H345 H 0.09212 0.44325 0.13342
 C346 C -0.16583 0.35642 -0.10720
 C347 C -0.15787 0.35068 -0.15428
 C348 C -0.12971 0.38225 -0.17749
 C349 C -0.10765 0.41692 -0.15378
 C350 C -0.11304 0.42079 -0.10619
 C351 C -0.14361 0.39116 -0.08336
 H352 H -0.18724 0.33260 -0.08824
 H353 H -0.12376 0.37941 -0.21386
 H354 H -0.08447 0.43937 -0.17243
 H355 H -0.14819 0.39304 -0.04669
 C356 C 0.17310 0.64580 -0.10349
 C357 C 0.17306 0.64492 -0.15157
 C358 C 0.14569 0.61253 -0.17363
 C359 C 0.11651 0.58390 -0.14850
 C360 C 0.11405 0.58699 -0.10067
 C361 C 0.14382 0.61706 -0.07824
 H362 H 0.19368 0.67050 -0.08552
 H363 H 0.14570 0.61044 -0.21054
 H364 H 0.09432 0.56076 -0.16676
 H365 H 0.14263 0.62024 -0.04141
 C366 C -0.13144 0.63055 0.14694
 C367 C -0.13611 0.67552 0.13146
 C368 C -0.11833 0.68835 0.08863
 C369 C -0.09422 0.65729 0.06256
 C370 C -0.08893 0.61225 0.07800
 C371 C -0.10859 0.59894 0.12012
 H372 H -0.14522 0.62015 0.17988
 H373 H -0.12152 0.72300 0.07634
 H374 H -0.07826 0.66906 0.03114
 H375 H -0.10425 0.56476 0.13340
 C376 C 1.16349 0.09521 0.66096
 C377 C 1.13664 0.11557 0.69486
 C378 C 1.08866 0.11078 0.69213
 C379 C 1.06839 0.08597 0.65715
 C380 C 1.09531 0.06718 0.62294
 C381 C 1.14293 0.07214 0.62487
 H382 H 1.20030 0.09848 0.66118
 H383 H 1.06657 0.12451 0.71801
 H384 H 1.03163 0.08163 0.65667
 H385 H 1.16428 0.05725 0.59892
 C386 C 0.86813 -0.15584 0.62072
 C387 C 0.83181 -0.13663 0.64547
 C388 C 0.81904 -0.09184 0.63353
 C389 C 0.84470 -0.06603 0.60180
 C390 C 0.88349 -0.08431 0.58111
 C391 C 0.89376 -0.12994 0.58950
 H392 H 0.87800 -0.19071 0.62588
 H393 H 0.79116 -0.07527 0.65045
 H394 H 0.83580 -0.03092 0.59561
 H395 H 0.92286 -0.14527 0.57312
 C396 C 1.10576 -0.13322 0.33363
 C397 C 1.15396 -0.13440 0.33418
 C398 C 1.17756 -0.10423 0.36305
 C399 C 1.15371 -0.07512 0.39150
 C400 C 1.10595 -0.07411 0.39030
 C401 C 1.08214 -0.10275 0.36075
 H402 H 1.08602 -0.15469 0.31121
 H403 H 1.21441 -0.10436 0.36530
 H404 H 1.17255 -0.05319 0.41436
 H405 H 1.04519 -0.10228 0.35947
 C406 C 0.89092 0.15261 0.35021
 C407 C 0.85788 0.13539 0.31979
 C408 C 0.85218 0.08780 0.31714
 C409 C 0.87926 0.05860 0.34333
 C410 C 0.91109 0.07629 0.37407
 C411 C 0.91643 0.12337 0.37774
 H412 H 0.89591 0.18875 0.35431
 H413 H 0.82806 0.07281 0.29365
 H414 H 0.87476 0.02221 0.34026
 H415 H 0.94068 0.13753 0.40172
 C416 C 0.13500 0.34821 -0.09601
 C417 C 0.11409 0.31067 -0.11732
 C418 C 0.06610 0.30987 -0.12155
 C419 C 0.04006 0.34567 -0.10593
 C420 C 0.06135 0.38371 -0.08708
 C421 C 0.10885 0.38488 -0.08196
 H422 H 0.17168 0.35058 -0.09236
 H423 H 0.04827 0.28116 -0.13608
 H424 H 0.00325 0.34415 -0.10951
 H425 H 0.12558 0.41402 -0.06685
 C426 C -0.11455 0.38244 0.17966
 C427 C -0.15278 0.36148 0.15928
 C428 C -0.16395 0.37374 0.11403
 C429 C -0.13669 0.40449 0.08930
 C430 C -0.09732 0.42349 0.10893
 C431 C -0.08694 0.41296 0.15463
 H432 H -0.10536 0.37466 0.21467
 H433 H -0.19260 0.35828 0.09672
 H434 H -0.14554 0.41202 0.05408
 H435 H -0.05690 0.42741 0.17064
 C436 C -0.09755 0.65858 -0.17519
 C437 C -0.12608 0.68647 -0.14891
 C438 C -0.12394 0.68223 -0.10079
 C439 C -0.09416 0.65160 -0.07995
 C440 C -0.06675 0.62372 -0.10647
 C441 C -0.06884 0.62710 -0.15416
 H442 H -0.09851 0.65946 -0.21213
 H443 H -0.14428 0.70321 -0.07885
 H444 H -0.09350 0.64866 -0.04310
 H445 H -0.04821 0.60530 -0.17515
 C446 C 0.14785 0.64728 0.11540
 C447 C 0.14161 0.65410 0.16237
 C448 C 0.10557 0.63107 0.18508
 C449 C 0.07585 0.60259 0.16107
 C450 C 0.08174 0.59663 0.11398
 C451 C 0.11826 0.61890 0.09150
 H452 H 0.17474 0.66493 0.09673
 H453 H 0.10025 0.63522 0.22139
 H454 H 0.04807 0.58568 0.17920
 H455 H 0.12372 0.61487 0.05516
 C456 C 0.32659 1.12696 0.92771
 C457 C 0.33639 1.14609 0.88456
 C458 C 0.37928 1.13926 0.86470
 C459 C 0.41161 1.11249 0.88717
 C460 C 0.40074 1.09097 0.92905
 C461 C 0.35826 1.09901 0.94949
 H462 H 0.29336 1.13150 0.94314
 H463 H 0.38706 1.15356 0.83124
 H464 H 0.44392 1.10625 0.87047
 H465 H 0.34898 1.08238 0.98149
 C466 C 0.39237 0.85777 1.17995
 C467 C 0.36106 0.82862 1.15845
 C468 C 0.36182 0.82586 1.11046
 C469 C 0.39076 0.85435 1.08449
 C470 C 0.41927 0.88614 1.10612
 C471 C 0.42106 0.88628 1.15410
 H472 H 0.39325 0.85993 1.21685
 H473 H 0.33800 0.80394 1.09281
 H474 H 0.38863 0.85354 1.04754
 H475 H 0.44309 0.91005 1.17173
 C476 C 0.61204 1.14088 1.17289
 C477 C 0.64290 1.16991 1.14983
 C478 C 0.64050 1.17386 1.10197
 C479 C 0.61018 1.14638 1.07740
 C480 C 0.58166 1.11483 1.10046
 C481 C 0.58159 1.11379 1.14852
 H482 H 0.61286 1.13783 1.20981
 H483 H 0.66412 1.19591 1.08345
 H484 H 0.61100 1.14794 1.04039
 H485 H 0.55979 1.09016 1.16735
 C486 C 0.67774 0.88235 0.91148
 C487 C 0.66394 0.86419 0.86963
 C488 C 0.61882 0.86997 0.85496
 C489 C 0.58803 0.89433 0.88154
 C490 C 0.60241 0.91442 0.92252
 C491 C 0.64754 0.90794 0.93726
 H492 H 0.71259 0.87845 0.92305
 H493 H 0.60770 0.85601 0.82274
 H494 H 0.55374 0.89947 0.86884
 H495 H 0.66009 0.92413 0.96778
   
