data_POSCAR
  _audit_creation_date              2014-09-24
  _audit_creation_method            'ToBaCCo'
  _symmetry_space_group_name_H-M    'P1'
  _symmetry_Int_Tables_number       1
  _symmetry_cell_setting            triclinic
  loop_
  _symmetry_equiv_pos_as_xyz
 x,y,z
_cell_length_a 31.8226
_cell_length_b 31.8226
_cell_length_c 31.8226
_cell_angle_alpha 90.000200
_cell_angle_beta 90.000200
_cell_angle_gamma 90.000100
loop_
  _atom_site_label
  _atom_site_type_symbol
  _atom_site_fract_x
  _atom_site_fract_y
  _atom_site_fract_z
O1 O 0.55726 0.50003 0.03465
 O2 O 0.44144 0.50003 0.03462
 O3 O 0.49936 0.44223 0.03463
 O4 O 0.49936 0.55784 0.03463
 O5 O 0.49936 0.55783 -0.03468
 O6 O 0.49936 0.44224 -0.03468
 O7 O 0.44144 0.50003 -0.03462
 O8 O 0.55726 0.50003 -0.03465
 Cu9 Cu 0.49935 0.50003 0.04157
 Cu10 Cu 0.49935 0.50003 -0.04159
 C11 C 0.57711 0.50003 -0.00000
 C12 C 0.42147 0.50003 -0.00000
 C13 C 0.49938 0.42242 -0.00003
 C14 C 0.49938 0.57765 -0.00003
 O15 O -0.03461 0.55859 0.50001
 O16 O -0.03464 0.44278 0.50001
 O17 O -0.03462 0.50067 0.55781
 O18 O -0.03462 0.50067 0.44221
 O19 O 0.03469 0.50067 0.44221
 O20 O 0.03469 0.50067 0.55780
 O21 O 0.03466 0.44277 0.50001
 O22 O 0.03463 0.55859 0.50001
 Cu23 Cu -0.04156 0.50068 0.50001
 Cu24 Cu 0.04160 0.50069 0.50001
 C25 C 0.00000 0.57856 0.50001
 C26 C 0.00001 0.42292 0.50001
 C27 C 0.00004 0.50066 0.57762
 C28 C 0.00004 0.50066 0.42240
 O29 O 0.50001 0.03465 0.55856
 O30 O 0.50001 0.03468 0.44275
 O31 O 0.44220 0.03466 0.50064
 O32 O 0.55781 0.03466 0.50064
 O33 O 0.55780 -0.03465 0.50064
 O34 O 0.44221 -0.03465 0.50065
 O35 O 0.50001 -0.03463 0.44275
 O36 O 0.50001 -0.03459 0.55856
 Cu37 Cu 0.50001 0.04160 0.50066
 Cu38 Cu 0.50001 -0.04156 0.50066
 C39 C 0.50001 0.00003 0.57853
 C40 C 0.50001 0.00003 0.42289
 C41 C 0.42239 -0.00000 0.50063
 C42 C 0.57762 -0.00000 0.50063
 O43 O 0.46528 0.00004 -0.05830
 O44 O 0.46528 0.00003 0.05756
 O45 O 0.46526 0.05785 -0.00036
 O46 O 0.46526 -0.05778 -0.00036
 O47 O 0.53476 -0.05779 -0.00036
 O48 O 0.53476 0.05786 -0.00036
 O49 O 0.53477 0.00003 0.05756
 O50 O 0.53477 0.00004 -0.05830
 Cu51 Cu 0.45826 0.00004 -0.00037
 Cu52 Cu 0.54178 0.00004 -0.00037
 C53 C 0.50003 0.00004 -0.07787
 C54 C 0.50002 0.00003 0.07712
 C55 C 0.50000 0.07737 -0.00034
 C56 C 0.50001 -0.07730 -0.00035
 O57 O -0.05756 0.53472 1.00001
 O58 O 0.05831 0.53472 1.00001
 O59 O 0.00036 0.53476 0.94219
 O60 O 0.00036 0.53476 1.05782
 O61 O 0.00036 0.46525 1.05783
 O62 O 0.00036 0.46525 0.94218
 O63 O 0.05831 0.46523 1.00001
 O64 O -0.05755 0.46523 1.00001
 Cu65 Cu 0.00038 0.54175 1.00001
 Cu66 Cu 0.00038 0.45823 1.00001
 C67 C -0.07712 0.49998 1.00000
 C68 C 0.07787 0.49998 1.00001
 C69 C 0.00035 0.50001 0.92268
 C70 C 0.00035 0.50001 1.07734
 O71 O 0.00000 -0.05827 0.46521
 O72 O -0.00000 0.05759 0.46520
 O73 O 0.05783 -0.00033 0.46523
 O74 O -0.05782 -0.00033 0.46523
 O75 O -0.05781 -0.00033 0.53473
 O76 O 0.05782 -0.00033 0.53473
 O77 O 0.00000 0.05759 0.53470
 O78 O 0.00000 -0.05828 0.53470
 Cu79 Cu 0.00000 -0.00034 0.45820
 Cu80 Cu 0.00000 -0.00034 0.54172
 C81 C 0.00000 -0.07784 0.49995
 C82 C -0.00000 0.07715 0.49995
 C83 C 0.07734 -0.00032 0.49998
 C84 C -0.07733 -0.00032 0.49998
 C85 C -0.30983 0.50002 1.03803
 C86 C -0.28775 0.50001 0.99999
 C87 C -0.30984 0.50002 0.96195
 C88 C -0.35380 0.50002 0.96191
 C89 C -0.37630 0.50003 1.00000
 C90 C -0.35379 0.50003 1.03808
 C91 C -0.24247 0.50001 0.99998
 C92 C -0.20456 0.49999 0.99996
 C93 C -0.16016 0.49999 0.99997
 C94 C -0.12225 0.49997 0.99999
 H95 H -0.29307 0.50001 1.06767
 H96 H -0.29309 0.50001 0.93231
 H97 H -0.37013 0.50003 0.93206
 H98 H -0.37012 0.50003 1.06793
 C99 C 0.31059 0.50002 0.96198
 C100 C 0.28851 0.50001 0.99999
 C101 C 0.31058 0.50002 1.03801
 C102 C 0.35454 0.50003 1.03809
 C103 C 0.37724 0.50003 1.00000
 C104 C 0.35455 0.50002 0.96190
 C105 C 0.24323 0.50001 0.99998
 C106 C 0.20532 0.49999 0.99997
 C107 C 0.16091 0.49999 0.99997
 C108 C 0.12300 0.49997 1.00000
 H109 H 0.29382 0.50001 0.93235
 H110 H 0.29381 0.50002 1.06764
 H111 H 0.37063 0.50003 1.06809
 H112 H 0.37064 0.50003 0.93191
 C113 C -0.03803 -0.31057 0.49999
 C114 C -0.00003 -0.28848 0.49999
 C115 C 0.03799 -0.31055 0.49999
 C116 C 0.03809 -0.35450 0.50000
 C117 C -0.00000 -0.37721 0.50000
 C118 C -0.03811 -0.35452 0.50000
 C119 C -0.00004 -0.24320 0.49997
 C120 C -0.00003 -0.20528 0.49996
 C121 C -0.00003 -0.16088 0.49996
 C122 C -0.00001 -0.12297 0.49995
 H123 H -0.06767 -0.29380 0.49999
 H124 H 0.06762 -0.29377 0.49999
 H125 H 0.06809 -0.37059 0.50000
 H126 H -0.06810 -0.37062 0.50000
 C127 C 0.03802 0.30986 0.49999
 C128 C -0.00002 0.28778 0.49999
 C129 C -0.03806 0.30988 0.49999
 C130 C -0.03809 0.35384 0.50000
 C131 C -0.00000 0.37633 0.50000
 C132 C 0.03808 0.35382 0.50000
 C133 C -0.00004 0.24250 0.49998
 C134 C -0.00005 0.20459 0.49996
 C135 C -0.00005 0.16019 0.49995
 C136 C -0.00002 0.12228 0.49994
 H137 H 0.06765 0.29309 0.49999
 H138 H -0.06770 0.29313 0.49999
 H139 H -0.06794 0.37017 0.50000
 H140 H 0.06793 0.37014 0.50000
 C141 C 0.50001 -0.03798 -0.31058
 C142 C 0.50001 0.00003 -0.28851
 C143 C 0.50001 0.03804 -0.31058
 C144 C 0.50001 0.03813 -0.35454
 C145 C 0.50001 0.00003 -0.37724
 C146 C 0.50001 -0.03807 -0.35454
 C147 C 0.50002 0.00003 -0.24322
 C148 C 0.50004 0.00002 -0.20531
 C149 C 0.50004 0.00002 -0.16091
 C150 C 0.50002 0.00003 -0.12300
 H151 H 0.50001 -0.06762 -0.29381
 H152 H 0.50001 0.06768 -0.29381
 H153 H 0.50001 0.06812 -0.37063
 H154 H 0.50001 -0.06806 -0.37063
 C155 C 0.50002 0.03806 0.30984
 C156 C 0.50002 0.00002 0.28776
 C157 C 0.50002 -0.03801 0.30984
 C158 C 0.50001 -0.03806 0.35380
 C159 C 0.50001 0.00002 0.37630
 C160 C 0.50001 0.03811 0.35380
 C161 C 0.50002 0.00002 0.24247
 C162 C 0.50004 0.00001 0.20456
 C163 C 0.50003 0.00001 0.16016
 C164 C 0.50002 0.00003 0.12225
 H165 H 0.50002 0.06770 0.29308
 H166 H 0.50002 -0.06765 0.29309
 H167 H 0.50001 -0.06791 0.37013
 H168 H 0.50001 0.06796 0.37013
 C169 C 0.49960 -0.30947 0.03797
 C170 C 0.49966 -0.28748 -0.00010
 C171 C 0.49960 -0.30952 -0.03814
 C172 C 0.49949 -0.35343 -0.03816
 C173 C 0.49944 -0.37586 -0.00005
 C174 C 0.49949 -0.35339 0.03804
 C175 C 0.49978 -0.24230 -0.00014
 C176 C 0.49987 -0.20445 -0.00019
 C177 C 0.49995 -0.16016 -0.00025
 C178 C 0.49999 -0.12231 -0.00030
 H179 H 0.49964 -0.29268 0.06759
 H180 H 0.49964 -0.29276 -0.06778
 H181 H 0.49946 -0.36978 -0.06800
 H182 H 0.49946 -0.36970 0.06790
 C183 C 0.49960 0.30954 0.03797
 C184 C 0.49966 0.28755 -0.00010
 C185 C 0.49960 0.30958 -0.03814
 C186 C 0.49949 0.35350 -0.03816
 C187 C 0.49944 0.37593 -0.00005
 C188 C 0.49949 0.35346 0.03804
 C189 C 0.49978 0.24237 -0.00014
 C190 C 0.49987 0.20452 -0.00018
 C191 C 0.49995 0.16023 -0.00025
 C192 C 0.49999 0.12239 -0.00030
 H193 H 0.49964 0.29275 0.06759
 H194 H 0.49964 0.29283 -0.06778
 H195 H 0.49945 0.36985 -0.06800
 H196 H 0.49946 0.36977 0.06790
 C197 C -0.30950 0.03799 0.50040
 C198 C -0.28750 -0.00007 0.50034
 C199 C -0.30954 -0.03811 0.50040
 C200 C -0.35346 -0.03813 0.50051
 C201 C -0.37589 -0.00002 0.50056
 C202 C -0.35342 0.03807 0.50051
 C203 C -0.24233 -0.00011 0.50021
 C204 C -0.20448 -0.00016 0.50012
 C205 C -0.16019 -0.00022 0.50004
 C206 C -0.12235 -0.00027 0.50000
 H207 H -0.29271 0.06762 0.50035
 H208 H -0.29279 -0.06775 0.50035
 H209 H -0.36981 -0.06797 0.50054
 H210 H -0.36973 0.06793 0.50054
 C211 C 0.30951 0.03799 0.50040
 C212 C 0.28752 -0.00007 0.50034
 C213 C 0.30956 -0.03811 0.50040
 C214 C 0.35347 -0.03813 0.50051
 C215 C 0.37590 -0.00002 0.50056
 C216 C 0.35343 0.03807 0.50051
 C217 C 0.24234 -0.00011 0.50021
 C218 C 0.20449 -0.00016 0.50012
 C219 C 0.16020 -0.00022 0.50004
 C220 C 0.12236 -0.00027 0.50000
 H221 H 0.29272 0.06762 0.50035
 H222 H 0.29280 -0.06775 0.50036
 H223 H 0.36982 -0.06797 0.50055
 H224 H 0.36975 0.06793 0.50055
 C225 C -0.03797 0.50043 1.30952
 C226 C 0.00010 0.50037 1.28752
 C227 C 0.03814 0.50043 1.30955
 C228 C 0.03816 0.50054 1.35347
 C229 C 0.00005 0.50059 1.37590
 C230 C -0.03804 0.50054 1.35343
 C231 C 0.00013 0.50025 1.24234
 C232 C 0.00018 0.50016 1.20450
 C233 C 0.00024 0.50007 1.16020
 C234 C 0.00030 0.50002 1.12236
 H235 H -0.06759 0.50038 1.29273
 H236 H 0.06778 0.50039 1.29280
 H237 H 0.06801 0.50057 1.36982
 H238 H -0.06790 0.50057 1.36975
 C239 C 0.03814 0.50043 0.69046
 C240 C 0.00010 0.50037 0.71250
 C241 C -0.03797 0.50043 0.69050
 C242 C -0.03804 0.50054 0.64658
 C243 C 0.00005 0.50059 0.62411
 C244 C 0.03816 0.50054 0.64655
 C245 C 0.00013 0.50025 0.75767
 C246 C 0.00018 0.50016 0.79552
 C247 C 0.00025 0.50007 0.83982
 C248 C 0.00030 0.50003 0.87766
 H249 H 0.06778 0.50039 0.70722
 H250 H -0.06759 0.50039 0.70729
 H251 H -0.06790 0.50057 0.63026
 H252 H 0.06801 0.50057 0.63020
   
