data_POSCAR
  _audit_creation_date              2014-09-24
  _audit_creation_method            'ToBaCCo'
  _symmetry_space_group_name_H-M    'P1'
  _symmetry_Int_Tables_number       1
  _symmetry_cell_setting            triclinic
  loop_
  _symmetry_equiv_pos_as_xyz
 x,y,z
_cell_length_a 44.5630
_cell_length_b 44.5630
_cell_length_c 45.3459
_cell_angle_alpha 89.966100
_cell_angle_beta 89.966000
_cell_angle_gamma 89.993900
loop_
  _atom_site_label
  _atom_site_type_symbol
  _atom_site_fract_x
  _atom_site_fract_y
  _atom_site_fract_z
C1 C -0.06403 0.30890 0.02662
 C2 C -0.07950 0.30861 -0.00018
 C3 C -0.06415 0.30886 -0.02707
 C4 C -0.03239 0.30962 -0.02744
 C5 C -0.01642 0.30997 -0.00037
 C6 C -0.03227 0.30968 0.02680
 C7 C -0.01594 0.30982 0.05336
 C8 C 0.01530 0.30986 0.05326
 C9 C 0.03143 0.30975 0.02661
 C10 C 0.01547 0.31000 -0.00046
 C11 C -0.01618 0.30968 -0.05409
 C12 C 0.01505 0.30969 -0.05417
 C13 C 0.03136 0.30964 -0.02760
 C14 C 0.06313 0.30889 -0.02737
 C15 C 0.07853 0.30871 -0.00053
 C16 C 0.06313 0.30903 0.02629
 H17 H -0.02721 0.30977 0.07452
 H18 H 0.02671 0.30983 0.07433
 H19 H -0.02755 0.30958 -0.07518
 H20 H 0.02635 0.30958 -0.07531
 H21 H -0.10387 0.30759 -0.00012
 H22 H 0.10289 0.30770 -0.00045
 C23 C 0.43613 0.81070 0.52664
 C24 C 0.42076 0.81038 0.49981
 C25 C 0.43621 0.81065 0.47300
 C26 C 0.46791 0.81149 0.47274
 C27 C 0.48377 0.81186 0.49987
 C28 C 0.46783 0.81152 0.52695
 C29 C 0.48399 0.81160 0.55358
 C30 C 0.51525 0.81164 0.55361
 C31 C 0.53150 0.81160 0.52702
 C32 C 0.51564 0.81191 0.49990
 C33 C 0.48416 0.81159 0.44615
 C34 C 0.51541 0.81166 0.44619
 C35 C 0.53158 0.81163 0.47281
 C36 C 0.56329 0.81092 0.47312
 C37 C 0.57865 0.81065 0.49996
 C38 C 0.56321 0.81087 0.52677
 H39 H 0.47259 0.81149 0.57467
 H40 H 0.52658 0.81156 0.57472
 H41 H 0.47282 0.81147 0.42505
 H42 H 0.52682 0.81159 0.42510
 H43 H 0.39642 0.80928 0.49979
 H44 H 0.60299 0.80963 0.49998
 C45 C 0.93726 0.68992 0.02666
 C46 C 0.92191 0.69018 -0.00019
 C47 C 0.93738 0.68996 -0.02698
 C48 C 0.96909 0.68924 -0.02720
 C49 C 0.98495 0.68895 -0.00007
 C50 C 0.96896 0.68922 0.02699
 C51 C 0.98508 0.68918 0.05363
 C52 C 1.01632 0.68926 0.05371
 C53 C 1.03267 0.68938 0.02714
 C54 C 1.01683 0.68902 -0.00001
 C55 C 0.98534 0.68920 -0.05378
 C56 C 1.01658 0.68925 -0.05374
 C57 C 1.03280 0.68937 -0.02711
 C58 C 1.06455 0.69020 -0.02678
 C59 C 1.07989 0.69051 0.00010
 C60 C 1.06443 0.69023 0.02692
 H61 H 0.97364 0.68924 0.07470
 H62 H 1.02758 0.68937 0.07486
 H63 H 0.97400 0.68926 -0.07489
 H64 H 1.02794 0.68935 -0.07485
 H65 H 0.89757 0.69120 -0.00023
 H66 H 1.10427 0.69158 0.00014
 C67 C 0.43665 0.19011 0.47348
 C68 C 0.42127 0.19042 0.50033
 C69 C 0.43671 0.19016 0.52713
 C70 C 0.46841 0.18935 0.52736
 C71 C 0.48429 0.18901 0.50022
 C72 C 0.46835 0.18934 0.47315
 C73 C 0.48454 0.18927 0.44651
 C74 C 0.51579 0.18926 0.44646
 C75 C 0.53203 0.18930 0.47304
 C76 C 0.51615 0.18898 0.50017
 C77 C 0.48465 0.18926 0.55394
 C78 C 0.51590 0.18921 0.55388
 C79 C 0.53209 0.18926 0.52725
 C80 C 0.56379 0.18996 0.52691
 C81 C 0.57917 0.19025 0.50006
 C82 C 0.56374 0.19004 0.47326
 H83 H 0.47314 0.18938 0.42543
 H84 H 0.52714 0.18935 0.42534
 H85 H 0.47331 0.18937 0.57505
 H86 H 0.52730 0.18928 0.57496
 H87 H 0.39693 0.19148 0.50036
 H88 H 0.60351 0.19127 0.50003
 C89 C 0.69094 0.06320 0.02621
 C90 C 0.69122 0.07861 -0.00061
 C91 C 0.69104 0.06320 -0.02745
 C92 C 0.69031 0.03144 -0.02769
 C93 C 0.68999 0.01555 -0.00054
 C94 C 0.69024 0.03150 0.02653
 C95 C 0.69017 0.01536 0.05317
 C96 C 0.69024 -0.01587 0.05327
 C97 C 0.69037 -0.03221 0.02671
 C98 C 0.69004 -0.01635 -0.00046
 C99 C 0.69026 0.01513 -0.05425
 C100 C 0.69029 -0.01610 -0.05418
 C101 C 0.69039 -0.03232 -0.02753
 C102 C 0.69118 -0.06407 -0.02717
 C103 C 0.69146 -0.07942 -0.00029
 C104 C 0.69119 -0.06396 0.02652
 H105 H 0.69021 0.02677 0.07424
 H106 H 0.69032 -0.02715 0.07442
 H107 H 0.69034 0.02644 -0.07540
 H108 H 0.69039 -0.02746 -0.07527
 H109 H 0.69221 0.10296 -0.00053
 H110 H 0.69250 -0.10380 -0.00023
 C111 C 0.18934 0.56310 0.52700
 C112 C 0.18962 0.57855 0.50019
 C113 C 0.18931 0.56319 0.47335
 C114 C 0.18852 0.53149 0.47304
 C115 C 0.18817 0.51554 0.50012
 C116 C 0.18851 0.53140 0.52725
 C117 C 0.18841 0.51514 0.55384
 C118 C 0.18834 0.48389 0.55380
 C119 C 0.18839 0.46773 0.52718
 C120 C 0.18812 0.48367 0.50009
 C121 C 0.18845 0.51532 0.44641
 C122 C 0.18843 0.48407 0.44638
 C123 C 0.18845 0.46781 0.47297
 C124 C 0.18920 0.43611 0.47321
 C125 C 0.18941 0.42066 0.50002
 C126 C 0.18911 0.43602 0.52686
 H127 H 0.18851 0.52648 0.57495
 H128 H 0.18840 0.47249 0.57489
 H129 H 0.18856 0.52672 0.42532
 H130 H 0.18853 0.47273 0.42527
 H131 H 0.19071 0.60289 0.50021
 H132 H 0.19043 0.39632 0.50000
 C133 C 0.30984 1.06460 -0.02668
 C134 C 0.30957 1.07994 0.00020
 C135 C 0.30985 1.06447 0.02702
 C136 C 0.31067 1.03271 0.02723
 C137 C 0.31100 1.01688 0.00008
 C138 C 0.31064 1.03285 -0.02702
 C139 C 0.31072 1.01663 -0.05365
 C140 C 0.31075 0.98539 -0.05369
 C141 C 0.31071 0.96914 -0.02712
 C142 C 0.31104 0.98499 0.00001
 C143 C 0.31080 1.01635 0.05380
 C144 C 0.31085 0.98511 0.05372
 C145 C 0.31077 0.96900 0.02708
 C146 C 0.31004 0.93730 0.02673
 C147 C 0.30975 0.92196 -0.00011
 C148 C 0.30997 0.93743 -0.02690
 H149 H 0.31061 1.02800 -0.07476
 H150 H 0.31066 0.97406 -0.07481
 H151 H 0.31072 1.02761 0.07495
 H152 H 0.31080 0.97367 0.07478
 H153 H 0.30851 1.10431 0.00025
 H154 H 0.30871 0.89762 -0.00016
 C155 C 0.80982 0.56362 0.47304
 C156 C 0.80954 0.57905 0.49985
 C157 C 0.80985 0.56367 0.52669
 C158 C 0.81066 0.53197 0.52703
 C159 C 0.81100 0.51604 0.49995
 C160 C 0.81065 0.53192 0.47282
 C161 C 0.81075 0.51568 0.44623
 C162 C 0.81083 0.48443 0.44629
 C163 C 0.81080 0.46824 0.47292
 C164 C 0.81106 0.48417 0.50000
 C165 C 0.81074 0.51579 0.55366
 C166 C 0.81078 0.48454 0.55371
 C167 C 0.81075 0.46830 0.52713
 C168 C 0.81004 0.43659 0.52690
 C169 C 0.80984 0.42116 0.50010
 C170 C 0.81011 0.43654 0.47325
 H171 H 0.81064 0.52703 0.42512
 H172 H 0.81077 0.47304 0.42521
 H173 H 0.81062 0.52718 0.57474
 H174 H 0.81069 0.47319 0.57483
 H175 H 0.80845 0.60339 0.49981
 H176 H 0.80884 0.39681 0.50014
 O177 O 0.23809 0.27882 0.21409
 O178 O 0.29445 0.25283 0.26767
 O179 O 0.27936 0.23772 0.21404
 O180 O 0.25317 0.29393 0.26769
 O181 O 0.22066 0.26127 0.28546
 O182 O 0.24685 0.20506 0.23180
 O183 O 0.26193 0.22016 0.28543
 O184 O 0.20558 0.24616 0.23185
 Cu185 Cu 0.26953 0.26909 0.23910
 Cu186 Cu 0.23050 0.22989 0.26041
 C187 C 0.21227 0.26675 0.21360
 C188 C 0.28775 0.23225 0.28593
 C189 C 0.26738 0.21186 0.21352
 C190 C 0.23263 0.28715 0.28596
 O191 O 0.75340 0.79514 0.23150
 O192 O 0.77913 0.73882 0.28530
 O193 O 0.79445 0.75382 0.23171
 O194 O 0.73810 0.78017 0.28515
 O195 O 0.70545 0.74767 0.26741
 O196 O 0.76181 0.72133 0.21395
 O197 O 0.74649 0.70633 0.26755
 O198 O 0.72075 0.76265 0.21376
 Cu199 Cu 0.76953 0.77025 0.26019
 Cu200 Cu 0.73035 0.73125 0.23889
 C201 C 0.73288 0.78845 0.21321
 C202 C 0.76703 0.71301 0.28582
 C203 C 0.78770 0.73325 0.21349
 C204 C 0.71221 0.76823 0.28564
 O205 O 0.79510 0.24664 0.23162
 O206 O 0.73876 0.22073 0.28534
 O207 O 0.75386 0.20551 0.23175
 O208 O 0.78001 0.26185 0.28524
 O209 O 0.74747 0.29445 0.26746
 O210 O 0.72132 0.23812 0.21396
 O211 O 0.70622 0.25333 0.26755
 O212 O 0.76256 0.27925 0.21384
 Cu213 Cu 0.77020 0.23042 0.26027
 Cu214 Cu 0.73114 0.26956 0.23892
 C215 C 0.78838 0.26717 0.21332
 C216 C 0.71293 0.23278 0.28584
 C217 C 0.73332 0.21226 0.21349
 C218 C 0.76800 0.28770 0.28572
 O219 O 0.27882 0.76182 0.21408
 O220 O 0.25263 0.70545 0.26762
 O221 O 0.23765 0.72063 0.21396
 O222 O 0.29384 0.74663 0.26769
 O223 O 0.26121 0.77918 0.28542
 O224 O 0.20502 0.75319 0.23167
 O225 O 0.22001 0.73801 0.28533
 O226 O 0.24621 0.79438 0.23181
 Cu227 Cu 0.26900 0.73036 0.23907
 Cu228 Cu 0.22984 0.76945 0.26033
 C229 C 0.26681 0.78768 0.21360
 C230 C 0.23204 0.71217 0.28585
 C231 C 0.21181 0.73266 0.21341
 C232 C 0.28707 0.76717 0.28594
 O233 O 0.77974 0.26150 0.71479
 O234 O 0.75383 0.20499 0.76834
 O235 O 0.73865 0.22022 0.71476
 O236 O 0.79490 0.24629 0.76839
 O237 O 0.76224 0.27875 0.78622
 O238 O 0.70599 0.25268 0.73261
 O239 O 0.72118 0.23745 0.78618
 O240 O 0.74708 0.29396 0.73262
 Cu241 Cu 0.77005 0.23000 0.73979
 Cu242 Cu 0.73085 0.26896 0.76119
 C243 C 0.76764 0.28731 0.71433
 C244 C 0.73327 0.21163 0.78663
 C245 C 0.71277 0.23219 0.71431
 C246 C 0.78811 0.26678 0.78669
 O247 O 0.29394 0.74691 0.73225
 O248 O 0.23785 0.72071 0.78605
 O249 O 0.25288 0.70559 0.73239
 O250 O 0.27887 0.76206 0.78586
 O251 O 0.24614 0.79451 0.76813
 O252 O 0.22015 0.73805 0.71468
 O253 O 0.20511 0.75317 0.76834
 O254 O 0.26121 0.77936 0.71452
 Cu255 Cu 0.26916 0.73056 0.76091
 Cu256 Cu 0.22987 0.76952 0.73964
 C257 C 0.28711 0.76743 0.71399
 C258 C 0.21197 0.73266 0.78661
 C259 C 0.23226 0.71224 0.71418
 C260 C 0.26677 0.78788 0.78634
 O261 O 0.20506 0.24613 0.76855
 O262 O 0.26160 0.22036 0.71500
 O263 O 0.24652 0.20521 0.76865
 O264 O 0.22017 0.26130 0.71493
 O265 O 0.25252 0.29410 0.73266
 O266 O 0.27888 0.23801 0.78636
 O267 O 0.29395 0.25316 0.73272
 O268 O 0.23741 0.27892 0.78628
 Cu269 Cu 0.23010 0.22996 0.74001
 Cu270 Cu 0.26893 0.26933 0.76128
 C271 C 0.21164 0.26674 0.78678
 C272 C 0.28737 0.23255 0.71449
 C273 C 0.26701 0.21209 0.78691
 C274 C 0.23203 0.28723 0.71440
 O275 O 0.72085 0.76242 0.78591
 O276 O 0.74676 0.70616 0.73220
 O277 O 0.76204 0.72123 0.78576
 O278 O 0.70560 0.74737 0.73230
 O279 O 0.73815 0.77996 0.71448
 O280 O 0.79459 0.75381 0.76791
 O281 O 0.77931 0.73874 0.71435
 O282 O 0.75340 0.79500 0.76808
 Cu283 Cu 0.73055 0.73104 0.76083
 Cu284 Cu 0.76962 0.77015 0.73942
 C285 C 0.73290 0.78825 0.78640
 C286 C 0.76728 0.71289 0.71389
 C287 C 0.78790 0.73323 0.78618
 C288 C 0.71230 0.76794 0.71403
 C289 C 0.27030 0.14147 0.16668
 C290 C 0.29158 0.14949 0.14538
 C291 C 0.30599 0.17733 0.14718
 C292 C 0.29870 0.19735 0.16981
 C293 C 0.30776 0.08095 0.05239
 C294 C 0.26297 0.16144 0.18934
 C295 C 0.29730 0.12995 0.12074
 C296 C 0.30135 0.11404 0.09962
 C297 C 0.30521 0.09595 0.07437
 C298 C 0.27681 0.18978 0.19093
 H299 H 0.25892 0.12002 0.16543
 H300 H 0.32241 0.18382 0.13074
 H301 H 0.30976 0.21898 0.17040
 H302 H 0.24603 0.15492 0.20522
 C303 C 0.80581 0.67813 0.64764
 C304 C 0.79142 0.65028 0.64597
 C305 C 0.77015 0.64234 0.66731
 C306 C 0.76283 0.66241 0.68988
 C307 C 0.80768 0.58122 0.55340
 C308 C 0.79853 0.69825 0.67019
 C309 C 0.79717 0.63062 0.62144
 C310 C 0.80122 0.61459 0.60042
 C311 C 0.80510 0.59635 0.57528
 C312 C 0.77666 0.69076 0.69135
 H313 H 0.82223 0.68456 0.63116
 H314 H 0.75879 0.62088 0.66616
 H315 H 0.74590 0.65595 0.70581
 H316 H 0.80959 0.71988 0.67068
 C317 C 0.73044 0.85882 0.16622
 C318 C 0.70914 0.85090 0.14494
 C319 C 0.69458 0.82315 0.14678
 C320 C 0.70172 0.80310 0.16945
 C321 C 0.69325 0.91953 0.05189
 C322 C 0.73762 0.83882 0.18892
 C323 C 0.70353 0.87048 0.12029
 C324 C 0.69956 0.88641 0.09915
 C325 C 0.69576 0.90452 0.07389
 C326 C 0.72362 0.81055 0.19056
 H327 H 0.74193 0.88020 0.16494
 H328 H 0.67814 0.81674 0.13036
 H329 H 0.69053 0.78154 0.17007
 H330 H 0.75458 0.84525 0.20480
 C331 C 0.19334 0.32167 0.64808
 C332 C 0.20756 0.34960 0.64635
 C333 C 0.22875 0.35771 0.66767
 C334 C 0.23616 0.33772 0.69030
 C335 C 0.19124 0.41846 0.55358
 C336 C 0.20071 0.30163 0.67069
 C337 C 0.20177 0.36918 0.62175
 C338 C 0.19769 0.38516 0.60067
 C339 C 0.19380 0.40335 0.57549
 C340 C 0.22251 0.30928 0.69183
 H341 H 0.17699 0.31512 0.63162
 H342 H 0.23998 0.37924 0.66646
 H343 H 0.25303 0.34431 0.70621
 H344 H 0.18979 0.27993 0.67123
 C345 C 0.85879 0.26975 0.16640
 C346 C 0.85085 0.29102 0.14508
 C347 C 0.82306 0.30554 0.14688
 C348 C 0.80302 0.29837 0.16955
 C349 C 0.91947 0.30686 0.05200
 C350 C 0.83879 0.26253 0.18909
 C351 C 0.87042 0.29664 0.12042
 C352 C 0.88635 0.30060 0.09927
 C353 C 0.90446 0.30438 0.07400
 C354 C 0.81050 0.27648 0.19069
 H355 H 0.88020 0.25829 0.16515
 H356 H 0.81663 0.32196 0.13042
 H357 H 0.78143 0.30951 0.17014
 H358 H 0.84524 0.24559 0.20500
 C359 C 0.32166 0.80619 0.64772
 C360 C 0.34958 0.79192 0.64600
 C361 C 0.35763 0.77066 0.66730
 C362 C 0.33760 0.76322 0.68989
 C363 C 0.41857 0.80849 0.55336
 C364 C 0.30159 0.79879 0.67029
 C365 C 0.36921 0.79777 0.62145
 C366 C 0.38521 0.80191 0.60041
 C367 C 0.40344 0.80587 0.57525
 C368 C 0.30919 0.77692 0.69142
 H369 H 0.31516 0.82259 0.63128
 H370 H 0.37914 0.75939 0.66610
 H371 H 0.34414 0.74630 0.70579
 H372 H 0.27991 0.80975 0.67083
 C373 C 0.17727 0.69413 0.14708
 C374 C 0.14946 0.70858 0.14524
 C375 C 0.14146 0.72989 0.16650
 C376 C 0.16142 0.73719 0.18916
 C377 C 0.08091 0.69236 0.05228
 C378 C 0.19729 0.70138 0.16972
 C379 C 0.12992 0.70286 0.12062
 C380 C 0.11400 0.69881 0.09950
 C381 C 0.09591 0.69493 0.07426
 C382 C 0.18974 0.72330 0.19080
 H383 H 0.18375 0.67768 0.13067
 H384 H 0.12003 0.74131 0.16522
 H385 H 0.15493 0.75415 0.20502
 H386 H 0.21889 0.69028 0.17034
 C387 C 0.67814 0.19372 0.64800
 C388 C 0.65026 0.20808 0.64632
 C389 C 0.64226 0.22928 0.66767
 C390 C 0.66228 0.23658 0.69028
 C391 C 0.58134 0.19206 0.55362
 C392 C 0.69821 0.20098 0.67058
 C393 C 0.63065 0.20239 0.62175
 C394 C 0.61466 0.19838 0.60069
 C395 C 0.59645 0.19457 0.57552
 C396 C 0.69066 0.22279 0.69176
 H397 H 0.68461 0.17736 0.63151
 H398 H 0.62078 0.24061 0.66651
 H399 H 0.65578 0.25346 0.70621
 H400 H 0.71987 0.18996 0.67108
 C401 C 0.69474 0.17663 0.85282
 C402 C 0.70924 0.14882 0.85451
 C403 C 0.73057 0.14098 0.83320
 C404 C 0.73785 0.16111 0.81063
 C405 C 0.69313 0.07976 0.94722
 C406 C 0.70198 0.19679 0.83027
 C407 C 0.70355 0.12912 0.87905
 C408 C 0.69952 0.11308 0.90010
 C409 C 0.69567 0.09485 0.92528
 C410 C 0.72392 0.18941 0.80914
 H411 H 0.67828 0.18297 0.86927
 H412 H 0.74202 0.11956 0.83437
 H413 H 0.75483 0.15473 0.79473
 H414 H 0.69085 0.21839 0.82977
 C415 C 0.19332 0.67743 0.35205
 C416 C 0.20778 0.64961 0.35384
 C417 C 0.22913 0.64167 0.33260
 C418 C 0.23648 0.66171 0.30998
 C419 C 0.19150 0.58074 0.44662
 C420 C 0.20063 0.69751 0.32945
 C421 C 0.20203 0.63001 0.37844
 C422 C 0.19796 0.61403 0.39952
 C423 C 0.19407 0.59584 0.42471
 C424 C 0.22260 0.69003 0.30839
 H425 H 0.17685 0.68386 0.36845
 H426 H 0.24054 0.62024 0.33385
 H427 H 0.25348 0.65526 0.29413
 H428 H 0.18954 0.71912 0.32887
 C429 C 0.26968 0.85856 0.83274
 C430 C 0.29111 0.85075 0.85395
 C431 C 0.30557 0.82292 0.85226
 C432 C 0.29822 0.80273 0.82981
 C433 C 0.30772 0.91996 0.94634
 C434 C 0.26229 0.83841 0.81027
 C435 C 0.29694 0.87049 0.87839
 C436 C 0.30108 0.88657 0.89936
 C437 C 0.30507 0.90484 0.92446
 C438 C 0.27620 0.81009 0.80877
 H439 H 0.25826 0.87999 0.83391
 H440 H 0.32210 0.81659 0.86863
 H441 H 0.30934 0.78113 0.82929
 H442 H 0.24524 0.84478 0.79444
 C443 C 0.77083 0.35818 0.33243
 C444 C 0.79209 0.35019 0.35374
 C445 C 0.80652 0.32236 0.35199
 C446 C 0.79928 0.30230 0.32939
 C447 C 0.80803 0.41900 0.44654
 C448 C 0.76355 0.33816 0.30980
 C449 C 0.79775 0.36977 0.37834
 C450 C 0.80174 0.38573 0.39943
 C451 C 0.80553 0.40390 0.42463
 C452 C 0.77740 0.30982 0.30826
 H453 H 0.75944 0.37962 0.33364
 H454 H 0.82292 0.31590 0.36845
 H455 H 0.81035 0.28068 0.32884
 H456 H 0.74662 0.34464 0.29391
 C457 C 0.17654 0.30525 0.85289
 C458 C 0.14878 0.29067 0.85463
 C459 C 0.14101 0.26927 0.83339
 C460 C 0.16115 0.26202 0.81084
 C461 C 0.07968 0.30678 0.94730
 C462 C 0.19672 0.29803 0.83036
 C463 C 0.12906 0.29635 0.87916
 C464 C 0.11301 0.30037 0.90019
 C465 C 0.09478 0.30423 0.92536
 C466 C 0.18941 0.27604 0.80929
 H467 H 0.18283 0.32176 0.86929
 H468 H 0.11963 0.25776 0.83460
 H469 H 0.15482 0.24499 0.79499
 H470 H 0.21828 0.30924 0.82981
 C471 C 0.67754 0.80695 0.35182
 C472 C 0.64969 0.79257 0.35360
 C473 C 0.64169 0.77129 0.33233
 C474 C 0.66172 0.76392 0.30972
 C475 C 0.58084 0.80879 0.44640
 C476 C 0.69762 0.79962 0.32924
 C477 C 0.63009 0.79832 0.37820
 C478 C 0.61412 0.80237 0.39928
 C479 C 0.59594 0.80624 0.42448
 C480 C 0.69008 0.77771 0.30815
 H481 H 0.68401 0.82337 0.36824
 H482 H 0.62023 0.75994 0.33357
 H483 H 0.65523 0.74697 0.29386
 H484 H 0.71926 0.81065 0.32867
 C485 C 0.85860 0.73015 0.83255
 C486 C 0.85073 0.70879 0.85382
 C487 C 0.82286 0.69442 0.85218
 C488 C 0.80268 0.70180 0.82972
 C489 C 0.91991 0.69219 0.94626
 C490 C 0.83847 0.73758 0.81006
 C491 C 0.87046 0.70295 0.87828
 C492 C 0.88653 0.69881 0.89926
 C493 C 0.90479 0.69483 0.92438
 C494 C 0.81010 0.72376 0.80862
 H495 H 0.88007 0.74151 0.83368
 H496 H 0.81648 0.67794 0.86861
 H497 H 0.78104 0.69075 0.82925
 H498 H 0.84488 0.75457 0.79418
 C499 C 0.35820 0.22956 0.33269
 C500 C 0.35027 0.20825 0.35398
 C501 C 0.32248 0.19374 0.35221
 C502 C 0.30241 0.20096 0.32961
 C503 C 0.41911 0.19224 0.44676
 C504 C 0.33817 0.23683 0.31005
 C505 C 0.36986 0.20258 0.37858
 C506 C 0.38583 0.19858 0.39966
 C507 C 0.40401 0.19477 0.42485
 C508 C 0.30988 0.22289 0.30849
 H509 H 0.37961 0.24101 0.33391
 H510 H 0.31607 0.17729 0.36865
 H511 H 0.28083 0.18983 0.32904
 H512 H 0.34461 0.25380 0.29417
 C513 C 0.73026 0.85864 0.83325
 C514 C 0.70902 0.85065 0.85460
 C515 C 0.69454 0.82285 0.85284
 C516 C 0.70172 0.80282 0.83018
 C517 C 0.69321 0.91933 0.94753
 C518 C 0.73748 0.83865 0.81057
 C519 C 0.70340 0.87020 0.87924
 C520 C 0.69945 0.88614 0.90036
 C521 C 0.69568 0.90427 0.92559
 C522 C 0.72358 0.81034 0.80901
 H523 H 0.74169 0.88006 0.83447
 H524 H 0.67815 0.81639 0.86932
 H525 H 0.69061 0.78122 0.82962
 H526 H 0.75440 0.84513 0.79464
 C527 C 0.22949 0.35767 0.33259
 C528 C 0.20816 0.34968 0.35386
 C529 C 0.19383 0.32180 0.35213
 C530 C 0.20122 0.30172 0.32958
 C531 C 0.19146 0.41862 0.44646
 C532 C 0.23692 0.33763 0.31002
 C533 C 0.20230 0.36932 0.37838
 C534 C 0.19814 0.38533 0.39941
 C535 C 0.19413 0.40353 0.42456
 C536 C 0.22315 0.30925 0.30849
 H537 H 0.24081 0.37915 0.33379
 H538 H 0.17737 0.31534 0.36855
 H539 H 0.19020 0.28006 0.32904
 H540 H 0.25389 0.34413 0.29415
 C541 C 0.27021 0.14170 0.83379
 C542 C 0.29143 0.14982 0.85508
 C543 C 0.30570 0.17773 0.85326
 C544 C 0.29835 0.19772 0.83061
 C545 C 0.30773 0.08120 0.94802
 C546 C 0.26281 0.16165 0.81112
 C547 C 0.29721 0.13030 0.87972
 C548 C 0.30128 0.11439 0.90084
 C549 C 0.30517 0.09627 0.92608
 C550 C 0.27651 0.19006 0.80951
 H551 H 0.25893 0.12020 0.83506
 H552 H 0.32207 0.18429 0.86969
 H553 H 0.30930 0.21940 0.83001
 H554 H 0.24591 0.15506 0.79524
 C555 C 0.76976 0.64243 0.33248
 C556 C 0.79110 0.65029 0.35374
 C557 C 0.80556 0.67811 0.35202
 C558 C 0.79828 0.69826 0.32948
 C559 C 0.80757 0.58112 0.44629
 C560 C 0.76245 0.66253 0.30992
 C561 C 0.79688 0.63058 0.37825
 C562 C 0.80098 0.61451 0.39926
 C563 C 0.80493 0.59625 0.42439
 C564 C 0.77635 0.69085 0.30838
 H565 H 0.75835 0.62099 0.33367
 H566 H 0.82203 0.68448 0.36843
 H567 H 0.80940 0.71986 0.32894
 H568 H 0.74547 0.65613 0.29404
 C569 C 0.17758 0.69407 0.85306
 C570 C 0.14972 0.70843 0.85489
 C571 C 0.14163 0.72967 0.83359
 C572 C 0.16157 0.73701 0.81089
 C573 C 0.08115 0.69227 0.94792
 C574 C 0.19756 0.70136 0.83038
 C575 C 0.13021 0.70270 0.87956
 C576 C 0.11431 0.69866 0.90070
 C577 C 0.09620 0.69481 0.92596
 C578 C 0.18994 0.72323 0.80925
 H579 H 0.18412 0.67767 0.86950
 H580 H 0.12016 0.74101 0.83487
 H581 H 0.15500 0.75393 0.79500
 H582 H 0.21921 0.69034 0.82976
 C583 C 0.67811 0.19421 0.35210
 C584 C 0.65028 0.20865 0.35383
 C585 C 0.64237 0.22998 0.33254
 C586 C 0.66245 0.23730 0.30994
 C587 C 0.58124 0.19226 0.44650
 C588 C 0.69823 0.20149 0.32953
 C589 C 0.63060 0.20289 0.37838
 C590 C 0.61458 0.19880 0.39942
 C591 C 0.59634 0.19488 0.42459
 C592 C 0.69078 0.22341 0.30841
 H593 H 0.68451 0.17775 0.36853
 H594 H 0.62093 0.24138 0.33374
 H595 H 0.65602 0.25427 0.29406
 H596 H 0.71984 0.19039 0.32898
 C597 C 0.85855 0.26962 0.83345
 C598 C 0.85053 0.29083 0.85478
 C599 C 0.82268 0.30523 0.85304
 C600 C 0.80264 0.29799 0.83042
 C601 C 0.91925 0.30680 0.94764
 C602 C 0.83856 0.26233 0.81081
 C603 C 0.87009 0.29650 0.87940
 C604 C 0.88603 0.30049 0.90050
 C605 C 0.90418 0.30429 0.92571
 C606 C 0.81020 0.27616 0.80926
 H607 H 0.88001 0.25825 0.83466
 H608 H 0.81620 0.32161 0.86951
 H609 H 0.78101 0.30904 0.82987
 H610 H 0.84507 0.24543 0.79489
 C611 C 0.35762 0.77023 0.33254
 C612 C 0.34966 0.79158 0.35377
 C613 C 0.32179 0.80593 0.35205
 C614 C 0.30168 0.79855 0.32954
 C615 C 0.41872 0.80836 0.44625
 C616 C 0.33755 0.76281 0.31000
 C617 C 0.36934 0.79746 0.37826
 C618 C 0.38538 0.80164 0.39925
 C619 C 0.40362 0.80567 0.42437
 C620 C 0.30918 0.77661 0.30847
 H621 H 0.37909 0.75890 0.33373
 H622 H 0.31535 0.82240 0.36844
 H623 H 0.28003 0.80959 0.32900
 H624 H 0.34402 0.74583 0.29415
 C625 C 0.26997 0.85836 0.16713
 C626 C 0.29133 0.85045 0.14588
 C627 C 0.30569 0.82258 0.14757
 C628 C 0.29829 0.80241 0.17006
 C629 C 0.30786 0.91970 0.05343
 C630 C 0.26252 0.83824 0.18964
 C631 C 0.29718 0.87016 0.12140
 C632 C 0.30131 0.88624 0.10040
 C633 C 0.30525 0.90453 0.07529
 C634 C 0.27631 0.80986 0.19113
 H635 H 0.25862 0.87983 0.16596
 H636 H 0.32217 0.81618 0.13116
 H637 H 0.30932 0.78077 0.17057
 H638 H 0.24552 0.84467 0.20550
 C639 C 0.77029 0.35790 0.66767
 C640 C 0.79164 0.35005 0.64638
 C641 C 0.80616 0.32226 0.64812
 C642 C 0.79894 0.30212 0.67069
 C643 C 0.80785 0.41909 0.55367
 C644 C 0.76302 0.33780 0.69026
 C645 C 0.79734 0.36973 0.62183
 C646 C 0.80138 0.38576 0.60077
 C647 C 0.80527 0.40398 0.57559
 C648 C 0.77698 0.30951 0.69180
 H649 H 0.75883 0.37930 0.66647
 H650 H 0.82264 0.31591 0.63169
 H651 H 0.81009 0.28054 0.67123
 H652 H 0.74603 0.34418 0.70614
 C653 C 0.73037 0.14170 0.16691
 C654 C 0.70911 0.14967 0.14561
 C655 C 0.69471 0.17752 0.14731
 C656 C 0.70200 0.19762 0.16987
 C657 C 0.69303 0.08074 0.05294
 C658 C 0.73771 0.16175 0.18949
 C659 C 0.70339 0.13004 0.12105
 C660 C 0.69937 0.11405 0.10000
 C661 C 0.69554 0.09584 0.07483
 C662 C 0.72389 0.19011 0.19099
 H663 H 0.74174 0.12024 0.16573
 H664 H 0.67830 0.18397 0.13086
 H665 H 0.69096 0.21926 0.17038
 H666 H 0.75464 0.15528 0.20539
 C667 C 0.19355 0.67732 0.64815
 C668 C 0.20808 0.64954 0.64636
 C669 C 0.22951 0.64170 0.66755
 C670 C 0.23685 0.66178 0.69010
 C671 C 0.19159 0.58058 0.55375
 C672 C 0.20084 0.69745 0.67068
 C673 C 0.20230 0.62988 0.62184
 C674 C 0.19819 0.61387 0.60081
 C675 C 0.19423 0.59566 0.57566
 C676 C 0.22288 0.69006 0.69169
 H677 H 0.17700 0.68367 0.63179
 H678 H 0.24099 0.62030 0.66630
 H679 H 0.25391 0.65540 0.70591
 H680 H 0.18967 0.71902 0.67126
 C681 C 0.82254 0.69436 0.14748
 C682 C 0.85045 0.70864 0.14581
 C683 C 0.85840 0.72994 0.16708
 C684 C 0.83829 0.73742 0.18958
 C685 C 0.91967 0.69210 0.05335
 C686 C 0.80238 0.70179 0.16996
 C687 C 0.87015 0.70278 0.12133
 C688 C 0.88622 0.69865 0.10033
 C689 C 0.90450 0.69470 0.07522
 C690 C 0.80988 0.72370 0.19105
 H691 H 0.81610 0.67792 0.13106
 H692 H 0.87991 0.74123 0.16592
 H693 H 0.84476 0.75437 0.20544
 H694 H 0.78070 0.69082 0.17046
 C695 C 0.32241 0.19402 0.64836
 C696 C 0.35015 0.20863 0.64656
 C697 C 0.35793 0.23005 0.66778
 C698 C 0.33782 0.23731 0.69036
 C699 C 0.41921 0.19238 0.55390
 C700 C 0.30226 0.20123 0.67092
 C701 C 0.36984 0.20293 0.62202
 C702 C 0.38588 0.19888 0.60098
 C703 C 0.40411 0.19498 0.57581
 C704 C 0.30958 0.22325 0.69196
 H705 H 0.31611 0.17749 0.63199
 H706 H 0.37930 0.24159 0.66653
 H707 H 0.34415 0.25436 0.70618
 H708 H 0.28072 0.19000 0.67151
 C709 C 0.14174 0.26955 0.16698
 C710 C 0.14965 0.29087 0.14568
 C711 C 0.17746 0.30533 0.14740
 C712 C 0.19756 0.29807 0.16996
 C713 C 0.08067 0.30693 0.05302
 C714 C 0.16180 0.26224 0.18956
 C715 C 0.13001 0.29657 0.12113
 C716 C 0.11400 0.30059 0.10007
 C717 C 0.09579 0.30442 0.07491
 C718 C 0.19012 0.27613 0.19108
 H719 H 0.12031 0.25812 0.16578
 H720 H 0.18386 0.32179 0.13096
 H721 H 0.21917 0.30917 0.17049
 H722 H 0.15537 0.24526 0.20545
 C723 C 0.64173 0.77086 0.66745
 C724 C 0.64963 0.79221 0.64618
 C725 C 0.67746 0.80665 0.64791
 C726 C 0.69758 0.79934 0.67045
 C727 C 0.58069 0.80865 0.55353
 C728 C 0.66180 0.76350 0.69001
 C729 C 0.62998 0.79799 0.62164
 C730 C 0.61397 0.80209 0.60060
 C731 C 0.59577 0.80603 0.57544
 C732 C 0.69013 0.77737 0.69154
 H733 H 0.62029 0.75945 0.66625
 H734 H 0.68386 0.82313 0.63149
 H735 H 0.71919 0.81043 0.67098
 H736 H 0.65537 0.74650 0.70588
   
