data_POSCAR
  _audit_creation_date              2014-09-24
  _audit_creation_method            'ToBaCCo'
  _symmetry_space_group_name_H-M    'P1'
  _symmetry_Int_Tables_number       1
  _symmetry_cell_setting            triclinic
  loop_
  _symmetry_equiv_pos_as_xyz
 x,y,z
_cell_length_a 23.8677
_cell_length_b 22.4391
_cell_length_c 22.7228
_cell_angle_alpha 90.232100
_cell_angle_beta 91.131900
_cell_angle_gamma 88.488700
loop_
  _atom_site_label
  _atom_site_type_symbol
  _atom_site_fract_x
  _atom_site_fract_y
  _atom_site_fract_z
C1 C 1.22264 0.20413 0.20488
 C2 C 1.25757 0.24926 0.17332
 C3 C 1.28782 0.28432 0.21049
 C4 C 1.27970 0.27128 0.27636
 C5 C 1.26386 0.16911 0.24453
 C6 C 1.29363 0.20430 0.28225
 C7 C 1.18611 0.24085 0.24673
 C8 C 1.21569 0.27564 0.28450
 H9 H 1.25960 0.25165 0.12583
 H10 H 1.30406 0.29998 0.30684
 H11 H 1.26720 0.12090 0.24439
 H12 H 1.14085 0.23894 0.24703
 C13 C 0.72012 -0.27985 0.19931
 C14 C 0.75319 -0.23690 0.16267
 C15 C 0.78356 -0.19810 0.19585
 C16 C 0.77759 -0.20541 0.26266
 C17 C 0.76351 -0.31018 0.24020
 C18 C 0.79332 -0.27119 0.27343
 C19 C 0.68382 -0.24016 0.23925
 C20 C 0.71416 -0.20128 0.27271
 H21 H 0.75406 -0.23868 0.11507
 H22 H 0.80238 -0.17382 0.28968
 H23 H 0.76863 -0.35810 0.24415
 H24 H 0.63890 -0.24436 0.24243
 C25 C 0.71175 0.23288 -0.31192
 C26 C 0.74706 0.27720 -0.33792
 C27 C 0.78315 0.30656 -0.29686
 C28 C 0.77620 0.28495 -0.23373
 C29 C 0.74877 0.19073 -0.28151
 C30 C 0.78458 0.21717 -0.23909
 C31 C 0.67925 0.26394 -0.26714
 C32 C 0.71305 0.29306 -0.22326
 H33 H 0.74635 0.28681 -0.38467
 H34 H 0.80346 0.30712 -0.20056
 H35 H 0.74891 0.14306 -0.28961
 H36 H 0.63384 0.26623 -0.26785
 C37 C 1.20636 -0.29901 -0.27443
 C38 C 1.24523 -0.26058 -0.31018
 C39 C 1.27956 -0.22699 -0.27577
 C40 C 1.27241 -0.23495 -0.20935
 C41 C 1.24447 -0.33617 -0.23361
 C42 C 1.27938 -0.30272 -0.20017
 C43 C 1.17528 -0.25594 -0.23443
 C44 C 1.20968 -0.22211 -0.20042
 H45 H 1.24411 -0.25823 -0.35777
 H46 H 1.30052 -0.20744 -0.18151
 H47 H 1.24460 -0.38440 -0.23202
 H48 H 1.12998 -0.25131 -0.23470
 C49 C 0.23547 0.23220 0.81147
 C50 C 0.27265 0.27682 0.83504
 C51 C 0.30021 0.30886 0.79021
 C52 C 0.28450 0.28805 0.72734
 C53 C 0.19483 0.26597 0.76922
 C54 C 0.22019 0.29418 0.72474
 C55 C 0.27108 0.19132 0.77198
 C56 C 0.29684 0.22054 0.72807
 H57 H 0.27220 0.29138 0.88069
 H58 H 0.30582 0.31194 0.69175
 H59 H 0.14979 0.26713 0.77429
 H60 H 0.27565 0.14369 0.77877
 C61 C 0.73701 0.69451 0.79655
 C62 C 0.76636 0.73698 0.83295
 C63 C 0.79771 0.77818 0.80096
 C64 C 0.79385 0.76887 0.73358
 C65 C 0.70029 0.72909 0.75655
 C66 C 0.72995 0.77133 0.72161
 C67 C 0.77856 0.66493 0.76064
 C68 C 0.80994 0.70239 0.72552
 H69 H 0.76314 0.73898 0.88046
 H70 H 0.81805 0.80023 0.70696
 H71 H 0.65517 0.72502 0.75491
 H72 H 0.78373 0.61675 0.75814
 C73 C 0.71772 0.19732 0.31117
 C74 C 0.75375 0.24593 0.33929
 C75 C 0.78438 0.27618 0.29932
 C76 C 0.77567 0.25540 0.23528
 C77 C 0.68145 0.22990 0.26388
 C78 C 0.71212 0.26035 0.22424
 C79 C 0.75892 0.15806 0.27706
 C80 C 0.78853 0.18818 0.23732
 H81 H 0.75547 0.25468 0.38617
 H82 H 0.80056 0.27997 0.20298
 H83 H 0.63609 0.23064 0.26317
 H84 H 0.76271 0.11016 0.28228
 C85 C 0.19905 0.70804 0.27750
 C86 C 0.22889 0.75099 0.31940
 C87 C 0.26311 0.78876 0.29131
 C88 C 0.26390 0.78078 0.22379
 C89 C 0.16824 0.74747 0.23248
 C90 C 0.20197 0.78559 0.20414
 C91 C 0.24580 0.67634 0.24363
 C92 C 0.27956 0.71446 0.21538
 H93 H 0.22497 0.75021 0.36678
 H94 H 0.29164 0.81175 0.20087
 H95 H 0.12346 0.74550 0.22439
 H96 H 0.24987 0.62832 0.23963
 N97 N 1.09011 0.06541 0.06087
 N98 N 1.13048 0.09935 0.08094
 N99 N 1.04259 -0.05891 0.08639
 N100 N 1.05009 -0.09930 0.12776
 N101 N 1.08610 -0.05806 0.05169
 N102 N 1.12522 -0.09710 0.07001
 N103 N 1.04812 0.06531 0.09747
 N104 N 1.05851 0.09973 0.14334
 C105 C 1.10951 0.12081 0.13175
 C106 C 1.10108 -0.12305 0.11659
 N107 N 0.88721 -0.04395 0.03155
 N108 N 0.84445 -0.07931 0.03752
 N109 N 0.92784 0.07447 0.08689
 N110 N 0.91377 0.10973 0.13099
 N111 N 0.89192 0.08081 0.04275
 N112 N 0.85305 0.12166 0.05504
 N113 N 0.92233 -0.04925 0.07657
 N114 N 0.90398 -0.08777 0.11504
 Mn115 Mn 0.98529 0.00789 0.08723
 C116 C 0.85603 -0.10659 0.08926
 C117 C 0.86807 0.13992 0.10968
 N118 N 1.09376 -0.04756 -0.07593
 N119 N 1.13078 -0.09034 -0.08822
 N120 N 1.06101 0.08258 -0.10795
 N121 N 1.07721 0.12044 -0.14762
 N122 N 1.09888 0.07638 -0.06544
 N123 N 1.14230 0.11030 -0.07556
 N124 N 1.05663 -0.04102 -0.11914
 N125 N 1.06655 -0.07963 -0.16157
 Mn126 Mn 1.09287 0.00890 -0.00718
 C127 C 1.11249 -0.10973 -0.14147
 C128 C 1.12692 0.13820 -0.12640
 N129 N 0.90046 0.09103 -0.08115
 N130 N 0.86477 0.13587 -0.09018
 N131 N 0.93705 -0.03174 -0.13150
 N132 N 0.92926 -0.06952 -0.17543
 N133 N 0.89608 -0.03374 -0.09399
 N134 N 0.85943 -0.07381 -0.11070
 N135 N 0.94164 0.09241 -0.11835
 N136 N 0.93488 0.13823 -0.15428
 Mn137 Mn 0.89340 0.02339 -0.02535
 Mn138 Mn 0.99916 0.02560 -0.11965
 Cl139 Cl 0.99276 0.01620 -0.01615
 C140 C 0.88762 0.16578 -0.13471
 C141 C 0.88093 -0.09543 -0.16151
 N142 N 1.10978 0.53878 0.55775
 N143 N 1.15667 0.56685 0.56888
 N144 N 1.04612 0.43107 0.60452
 N145 N 1.05731 0.40086 0.65340
 N146 N 1.08475 0.41882 0.56512
 N147 N 1.12309 0.38097 0.58686
 N148 N 1.07199 0.55188 0.59737
 N149 N 1.09192 0.58978 0.63643
 C150 C 1.14434 0.59886 0.61737
 C151 C 1.10457 0.36917 0.64112
 N152 N 0.88954 0.47440 0.55719
 N153 N 0.84520 0.44157 0.56358
 N154 N 0.95456 0.58597 0.59378
 N155 N 0.94834 0.62772 0.63456
 N156 N 0.91847 0.59535 0.55023
 N157 N 0.88728 0.64374 0.56026
 N158 N 0.92645 0.46443 0.59989
 N159 N 0.90757 0.42485 0.63743
 Mn160 Mn 0.99965 0.50813 0.59946
 C161 C 0.85669 0.41152 0.61371
 C162 C 0.90760 0.66486 0.61208
 N163 N 1.08539 0.41087 0.43705
 N164 N 1.12420 0.37179 0.41972
 N165 N 1.07246 0.53895 0.38936
 N166 N 1.09002 0.57827 0.35108
 N167 N 1.10993 0.53103 0.43196
 N168 N 1.15415 0.56370 0.42379
 N169 N 1.04569 0.41736 0.39622
 N170 N 1.05598 0.38159 0.35131
 Mn171 Mn 1.09744 0.47476 0.49796
 C172 C 1.10421 0.35301 0.36710
 C173 C 1.14099 0.59291 0.37356
 N174 N 0.91801 0.58580 0.42375
 N175 N 0.88327 0.62802 0.40347
 N176 N 0.92657 0.44968 0.39240
 N177 N 0.90797 0.40490 0.35973
 N178 N 0.88959 0.46502 0.43218
 N179 N 0.84550 0.43095 0.42856
 N180 N 0.95457 0.57046 0.38356
 N181 N 0.94510 0.60142 0.33497
 Mn182 Mn 0.90373 0.53047 0.49087
 Mn183 Mn 0.99981 0.49386 0.38994
 Cl184 Cl 1.00013 0.50142 0.49460
 C185 C 0.90181 0.63835 0.34873
 C186 C 0.85727 0.39414 0.38322
 N187 N 0.59937 -0.08228 0.57201
 N188 N 0.64050 -0.09851 0.60958
 N189 N 0.55723 -0.12010 0.44678
 N190 N 0.56643 -0.15921 0.40452
 N191 N 0.59559 -0.07908 0.44771
 N192 N 0.63273 -0.08994 0.40609
 N193 N 0.56083 -0.12327 0.57053
 N194 N 0.57341 -0.16669 0.60766
 C195 C 0.62263 -0.15090 0.63194
 C196 C 0.61312 -0.13976 0.37945
 N197 N 0.39546 -0.08717 0.45006
 N198 N 0.35481 -0.10156 0.41264
 N199 N 0.44159 -0.12923 0.57130
 N200 N 0.43150 -0.17557 0.60459
 N201 N 0.40077 -0.08907 0.57451
 N202 N 0.36208 -0.10672 0.61090
 N203 N 0.43712 -0.12640 0.44794
 N204 N 0.42564 -0.16914 0.40969
 Mn205 Mn 0.49942 -0.12479 0.50899
 C206 C 0.37488 -0.15215 0.38708
 C207 C 0.38283 -0.15998 0.63025
 N208 N 0.58814 0.05158 0.45043
 N209 N 0.62813 0.07117 0.41644
 N210 N 0.54855 0.08978 0.57378
 N211 N 0.56410 0.14133 0.59595
 N212 N 0.59189 0.05178 0.57279
 N213 N 0.63717 0.07891 0.59289
 N214 N 0.54497 0.08952 0.45004
 N215 N 0.55416 0.13496 0.41498
 Mn216 Mn 0.59427 -0.01471 0.51105
 C217 C 0.60571 0.12257 0.39408
 C218 C 0.61898 0.13418 0.60922
 N219 N 0.39236 0.03923 0.57652
 N220 N 0.35272 0.04978 0.61520
 N221 N 0.42344 0.08334 0.45167
 N222 N 0.40818 0.12287 0.41095
 N223 N 0.38788 0.03972 0.45266
 N224 N 0.34821 0.04730 0.41209
 N225 N 0.42713 0.08365 0.57525
 N226 N 0.41147 0.12619 0.61248
 Mn227 Mn 0.39385 -0.02424 0.51368
 Mn228 Mn 0.48596 0.08664 0.51258
 Cl229 Cl 0.49369 -0.01904 0.51192
 C230 C 0.36561 0.10365 0.63756
 C231 C 0.36159 0.09895 0.38655
 N232 N 0.60822 0.53669 0.08663
 N233 N 0.64598 0.57639 0.10135
 N234 N 0.55158 0.41441 0.10634
 N235 N 0.55807 0.37312 0.14709
 N236 N 0.59444 0.41352 0.07064
 N237 N 0.63217 0.37246 0.08821
 N238 N 0.56773 0.53680 0.12505
 N239 N 0.57716 0.57578 0.16751
 C240 C 0.62583 0.59998 0.15189
 C241 C 0.60766 0.34672 0.13482
 N242 N 0.39663 0.44736 0.05740
 N243 N 0.35140 0.41534 0.06250
 N244 N 0.44803 0.55741 0.11913
 N245 N 0.43499 0.58726 0.16735
 N246 N 0.41191 0.57018 0.07636
 N247 N 0.37418 0.61007 0.09407
 N248 N 0.43244 0.43587 0.10080
 N249 N 0.41228 0.39635 0.13717
 Mn250 Mn 0.50014 0.48607 0.11306
 C251 C 0.36221 0.38364 0.11201
 C252 C 0.39012 0.62128 0.15036
 N253 N 0.60041 0.43132 -0.05871
 N254 N 0.63612 0.39003 -0.07892
 N255 N 0.57879 0.56691 -0.08069
 N256 N 0.60261 0.59788 -0.12241
 N257 N 0.61567 0.55346 -0.03872
 N258 N 0.66469 0.57524 -0.05147
 N259 N 0.56194 0.44449 -0.09930
 N260 N 0.56900 0.41150 -0.14674
 Mn261 Mn 0.60518 0.48333 0.01507
 C262 C 0.61475 0.37757 -0.13341
 C263 C 0.65586 0.60456 -0.10272
 N264 N 0.41791 0.58797 -0.04796
 N265 N 0.37991 0.62972 -0.06085
 N266 N 0.44341 0.46622 -0.10620
 N267 N 0.42734 0.44211 -0.15659
 N268 N 0.40268 0.46578 -0.06821
 N269 N 0.35781 0.44121 -0.09210
 N270 N 0.45888 0.58851 -0.08572
 N271 N 0.44954 0.63104 -0.12506
 Mn272 Mn 0.40699 0.51768 0.00439
 Mn273 Mn 0.51080 0.51670 -0.09301
 Cl274 Cl 0.50587 0.50069 0.00980
 C275 C 0.40099 0.65751 -0.10777
 C276 C 0.37479 0.42470 -0.14644
 N277 N 1.19151 0.16636 0.16437
 N278 N 1.13989 0.15688 0.17173
 N279 N 1.16772 0.66608 0.69076
 N280 N 1.18399 0.63375 0.64824
 N281 N 0.68040 0.20623 0.64679
 N282 N 0.65431 0.18433 0.60508
 N283 N 0.68926 0.67763 0.16343
 N284 N 0.65329 0.64431 0.18610
 N285 N 0.82074 -0.15679 0.17071
 N286 N 0.81864 -0.14628 0.11577
 N287 N 0.81979 0.34890 0.68778
 N288 N 0.81991 0.36768 0.63502
 N289 N 0.31594 -0.18474 0.69987
 N290 N 0.35052 -0.20154 0.66106
 N291 N 0.32612 0.32706 0.18949
 N292 N 0.32351 0.34349 0.13592
 N293 N 0.82055 0.18373 -0.20620
 N294 N 0.85502 0.20608 -0.16971
 N295 N 0.83299 0.70890 0.31725
 N296 N 0.86801 0.66739 0.30473
 N297 N 0.33018 0.18049 0.32754
 N298 N 0.32754 0.12583 0.34136
 N299 N 0.31849 0.66949 -0.16044
 N300 N 0.36582 0.69098 -0.14732
 N301 N 1.18841 -0.17483 -0.16448
 N302 N 1.13858 -0.15582 -0.17446
 N303 N 1.18855 0.31197 0.32809
 N304 N 1.13528 0.31745 0.32661
 N305 N 0.69004 -0.16443 0.31789
 N306 N 0.63990 -0.17237 0.33337
 N307 N 0.69208 0.32808 -0.17946
 N308 N 0.63956 0.33839 -0.17599
 N309 N 1.20579 0.19911 -0.14411
 N310 N 1.16220 0.17250 -0.16166
 N311 N 1.16117 0.66751 0.30559
 N312 N 1.17783 0.63365 0.34734
 N313 N 0.68731 0.16167 0.35350
 N314 N 0.63402 0.16150 0.35540
 N315 N 0.71280 0.65312 -0.17113
 N316 N 0.70082 0.60894 -0.14242
 N317 N 0.82455 -0.17775 -0.17051
 N318 N 0.85623 -0.14164 -0.19569
 N319 N 0.82251 0.32247 0.31503
 N320 N 0.82026 0.34806 0.36501
 N321 N 0.29766 -0.17062 0.32322
 N322 N 0.34211 -0.18968 0.34960
 N323 N 0.31919 0.35977 -0.20032
 N324 N 0.33688 0.41037 -0.19327
 N325 N 1.18054 -0.17215 0.16164
 N326 N 1.12773 -0.16493 0.15550
 N327 N 1.18926 0.32679 0.68003
 N328 N 1.13673 0.33711 0.68480
 N329 N 0.70501 -0.18934 0.68296
 N330 N 0.65228 -0.18914 0.67325
 N331 N 0.68758 0.29791 0.17904
 N332 N 0.63474 0.30641 0.17550
 N333 N 0.82577 0.15760 0.19894
 N334 N 0.83144 0.17387 0.14604
 N335 N 0.84603 0.67678 0.68726
 N336 N 0.87420 0.70296 0.64880
 N337 N 0.33200 0.19101 0.68583
 N338 N 0.33113 0.13468 0.67900
 N339 N 0.32155 0.69338 0.17606
 N340 N 0.35418 0.65029 0.19134
   
