data_POSCAR
  _audit_creation_date              2014-09-24
  _audit_creation_method            'ToBaCCo'
  _symmetry_space_group_name_H-M    'P1'
  _symmetry_Int_Tables_number       1
  _symmetry_cell_setting            triclinic
  loop_
  _symmetry_equiv_pos_as_xyz
 x,y,z
_cell_length_a 45.5098
_cell_length_b 50.9940
_cell_length_c 39.0469
_cell_angle_alpha 90.909100
_cell_angle_beta 88.423200
_cell_angle_gamma 89.576700
loop_
  _atom_site_label
  _atom_site_type_symbol
  _atom_site_fract_x
  _atom_site_fract_y
  _atom_site_fract_z
C1 C 1.27243 0.21781 0.27011
 C2 C 1.25215 0.23101 0.25005
 C3 C 1.23237 0.21688 0.23040
 C4 C 1.23292 0.18950 0.23023
 C5 C 1.25249 0.17630 0.25115
 C6 C 1.27234 0.19017 0.27174
 C7 C 1.25148 0.25975 0.24925
 C8 C 1.27305 0.27314 0.23044
 C9 C 1.27199 0.30069 0.22798
 C10 C 1.24864 0.31434 0.24507
 C11 C 1.22670 0.30091 0.26350
 C12 C 1.22833 0.27357 0.26561
 H13 H 1.28695 0.22933 0.28578
 H14 H 1.21721 0.22724 0.21436
 H15 H 1.29090 0.26188 0.21843
 H16 H 1.21131 0.26297 0.27943
 H17 H 1.25275 0.15506 0.25027
 H18 H 1.24659 0.33542 0.24305
 C19 C 0.77746 -0.28144 0.26188
 C20 C 0.75401 -0.26944 0.24542
 C21 C 0.73285 -0.28476 0.22957
 C22 C 0.73518 -0.31209 0.22947
 C23 C 0.75806 -0.32408 0.24691
 C24 C 0.77939 -0.30902 0.26378
 C25 C 0.75186 -0.24075 0.24378
 C26 C 0.77321 -0.22681 0.22535
 C27 C 0.77052 -0.19961 0.22204
 C28 C 0.74646 -0.18635 0.23762
 C29 C 0.72485 -0.20018 0.25607
 C30 C 0.72767 -0.22746 0.25900
 H31 H 0.79305 -0.26902 0.27474
 H32 H 0.71532 -0.27533 0.21597
 H33 H 0.79170 -0.23718 0.21321
 H34 H 0.71094 -0.23842 0.27279
 H35 H 0.75965 -0.34527 0.24606
 H36 H 0.74449 -0.16527 0.23518
 C37 C 0.77290 0.21763 -0.23119
 C38 C 0.75280 0.23009 -0.25216
 C39 C 0.73335 0.21521 -0.27149
 C40 C 0.73418 0.18778 -0.27036
 C41 C 0.75393 0.17539 -0.24879
 C42 C 0.77315 0.19023 -0.22892
 C43 C 0.75190 0.25876 -0.25387
 C44 C 0.77358 0.27202 -0.27268
 C45 C 0.77305 0.29960 -0.27461
 C46 C 0.74998 0.31341 -0.25720
 C47 C 0.72798 0.30010 -0.23873
 C48 C 0.72913 0.27274 -0.23706
 H49 H 0.78767 0.22927 -0.21594
 H50 H 0.71815 0.22500 -0.28804
 H51 H 0.79129 0.26063 -0.28478
 H52 H 0.71218 0.26227 -0.22294
 H53 H 0.75432 0.15418 -0.24742
 H54 H 0.74831 0.33454 -0.25879
 C55 C 1.27697 -0.28261 -0.23374
 C56 C 1.25685 -0.26805 -0.25245
 C57 C 1.23620 -0.28091 -0.27244
 C58 C 1.23594 -0.30827 -0.27445
 C59 C 1.25546 -0.32278 -0.25495
 C60 C 1.27595 -0.31028 -0.23380
 C61 C 1.25695 -0.23926 -0.25082
 C62 C 1.28078 -0.22541 -0.26473
 C63 C 1.28036 -0.19792 -0.26447
 C64 C 1.25603 -0.18438 -0.24988
 C65 C 1.23206 -0.19812 -0.23591
 C66 C 1.23266 -0.22561 -0.23649
 H67 H 1.29196 -0.27209 -0.21752
 H68 H 1.22098 -0.26958 -0.28727
 H69 H 1.29940 -0.23603 -0.27615
 H70 H 1.21411 -0.23643 -0.22612
 H71 H 1.25503 -0.34397 -0.25725
 H72 H 1.25564 -0.16312 -0.24971
 C73 C 0.21492 0.27539 0.74065
 C74 C 0.23022 0.25495 0.75585
 C75 C 0.21462 0.23442 0.77128
 C76 C 0.18351 0.23398 0.77188
 C77 C 0.16867 0.25482 0.75595
 C78 C 0.18412 0.27537 0.74019
 C79 C 0.26270 0.25420 0.75353
 C80 C 0.27931 0.27394 0.76906
 C81 C 0.31039 0.27398 0.76584
 C82 C 0.32407 0.25372 0.74580
 C83 C 0.30757 0.23396 0.72994
 C84 C 0.27690 0.23424 0.73434
 H85 H 0.22711 0.29111 0.72863
 H86 H 0.22716 0.21837 0.78150
 H87 H 0.26757 0.28962 0.78264
 H88 H 0.26391 0.21904 0.72250
 H89 H 0.14494 0.25561 0.75615
 H90 H 0.34773 0.25265 0.74295
 C91 C 0.71174 0.77599 0.74163
 C92 C 0.72713 0.75589 0.75749
 C93 C 0.71168 0.73551 0.77331
 C94 C 0.68065 0.73486 0.77374
 C95 C 0.66564 0.75548 0.75756
 C96 C 0.68076 0.77608 0.74099
 C97 C 0.75963 0.75535 0.75550
 C98 C 0.77602 0.77530 0.77093
 C99 C 0.80695 0.77509 0.76821
 C100 C 0.82118 0.75482 0.74905
 C101 C 0.80498 0.73492 0.73300
 C102 C 0.77420 0.73520 0.73689
 H103 H 0.72432 0.79169 0.73023
 H104 H 0.72429 0.71967 0.78395
 H105 H 0.76460 0.79103 0.78486
 H106 H 0.76138 0.71986 0.72509
 H107 H 0.64196 0.75533 0.75754
 H108 H 0.84492 0.75461 0.74645
 C109 C 0.71490 0.27734 0.24205
 C110 C 0.73058 0.25659 0.25628
 C111 C 0.71524 0.23584 0.27152
 C112 C 0.68431 0.23575 0.27298
 C113 C 0.66892 0.25663 0.25831
 C114 C 0.68398 0.27738 0.24247
 C115 C 0.76307 0.25604 0.25380
 C116 C 0.77955 0.27566 0.26976
 C117 C 0.81047 0.27533 0.26716
 C118 C 0.82464 0.25531 0.24747
 C119 C 0.80836 0.23572 0.23086
 C120 C 0.77755 0.23609 0.23470
 H121 H 0.72686 0.29325 0.23016
 H122 H 0.72748 0.21964 0.28195
 H123 H 0.76819 0.29120 0.28413
 H124 H 0.76466 0.22096 0.22257
 H125 H 0.64512 0.25659 0.25890
 H126 H 0.84839 0.25503 0.24496
 C127 C 0.21327 0.77405 0.23829
 C128 C 0.22863 0.75384 0.25403
 C129 C 0.21309 0.73339 0.26960
 C130 C 0.18207 0.73277 0.26991
 C131 C 0.16712 0.75344 0.25379
 C132 C 0.18228 0.77420 0.23763
 C133 C 0.26119 0.75381 0.25352
 C134 C 0.27653 0.77500 0.26769
 C135 C 0.30746 0.77510 0.26707
 C136 C 0.32285 0.75382 0.25162
 C137 C 0.30784 0.73257 0.23709
 C138 C 0.27695 0.73265 0.23843
 H139 H 0.22585 0.78990 0.22725
 H140 H 0.22562 0.71759 0.28045
 H141 H 0.26434 0.79138 0.27915
 H142 H 0.26507 0.71631 0.22757
 H143 H 0.14345 0.75332 0.25369
 H144 H 0.34666 0.75381 0.25086
 N145 N 1.05530 0.02605 0.03411
 N146 N 1.07528 0.04424 0.03893
 N147 N 1.03327 -0.02800 0.05888
 N148 N 1.03855 -0.04594 0.08201
 N149 N 1.05344 -0.02895 0.03421
 N150 N 1.07299 -0.04752 0.03990
 N151 N 1.03499 0.02715 0.05861
 N152 N 1.04046 0.04621 0.08068
 C153 C 1.06559 0.05679 0.06794
 C154 C 1.06330 -0.05815 0.06967
 N155 N 0.94954 -0.02535 0.03841
 N156 N 0.92940 -0.04312 0.04533
 N157 N 0.97194 0.02935 0.06150
 N158 N 0.96787 0.04823 0.08465
 N159 N 0.95121 0.02989 0.03880
 N160 N 0.93240 0.04924 0.04601
 N161 N 0.97001 -0.02560 0.06144
 N162 N 0.96428 -0.04337 0.08479
 Mn163 Mn 1.00255 0.00072 0.06043
 C164 C 0.93903 -0.05431 0.07422
 C165 C 0.94323 0.06064 0.07462
 N166 N 1.05262 -0.02975 -0.03935
 N167 N 1.07093 -0.04956 -0.04503
 N168 N 1.03445 0.02605 -0.06258
 N169 N 1.03983 0.04488 -0.08472
 N170 N 1.05489 0.02535 -0.03953
 N171 N 1.07469 0.04364 -0.04534
 N172 N 1.03257 -0.02911 -0.06287
 N173 N 1.03698 -0.04834 -0.08555
 Mn174 Mn 1.05435 -0.00185 -0.00270
 C175 C 1.06086 -0.06106 -0.07381
 C176 C 1.06501 0.05577 -0.07355
 N177 N 0.95082 0.02897 -0.03514
 N178 N 0.93180 0.04806 -0.04005
 N179 N 0.96892 -0.02699 -0.06030
 N180 N 0.96268 -0.04550 -0.08300
 N181 N 0.94886 -0.02609 -0.03545
 N182 N 0.92853 -0.04395 -0.04057
 N183 N 0.97102 0.02818 -0.05982
 N184 N 0.96631 0.04682 -0.08215
 Mn185 Mn 0.94978 0.00186 0.00165
 Mn186 Mn 1.00173 -0.00047 -0.06183
 Cl187 Cl 1.00208 0.00004 -0.00064
 C188 C 0.94187 0.05918 -0.06931
 C189 C 0.93747 -0.05607 -0.07023
 N190 N 1.05395 0.52796 0.53731
 N191 N 1.07352 0.54653 0.54180
 N192 N 1.03374 0.47348 0.56222
 N193 N 1.03932 0.45534 0.58493
 N194 N 1.05362 0.47285 0.53724
 N195 N 1.07332 0.45426 0.54231
 N196 N 1.03392 0.52864 0.56212
 N197 N 1.03927 0.54778 0.58419
 C198 C 1.06397 0.55887 0.57102
 C199 C 1.06399 0.44334 0.57207
 N200 N 0.95006 0.47374 0.54271
 N201 N 0.93058 0.45544 0.54982
 N202 N 0.97075 0.52917 0.56579
 N203 N 0.96646 0.54814 0.58876
 N204 N 0.94972 0.52905 0.54346
 N205 N 0.93050 0.54806 0.55070
 N206 N 0.97058 0.47421 0.56568
 N207 N 0.96552 0.45642 0.58921
 Mn208 Mn 1.00225 0.50140 0.56428
 C209 C 0.94067 0.44468 0.57876
 C210 C 0.94136 0.55991 0.57899
 N211 N 1.05211 0.47234 0.46363
 N212 N 1.07065 0.45271 0.45791
 N213 N 1.03209 0.52790 0.44108
 N214 N 1.03720 0.54656 0.41858
 N215 N 1.05281 0.52745 0.46382
 N216 N 1.07246 0.54575 0.45748
 N217 N 1.03189 0.47269 0.44029
 N218 N 1.03635 0.45336 0.41776
 Mn219 Mn 1.05341 0.50011 0.50044
 C220 C 1.06053 0.44097 0.42932
 C221 C 1.06243 0.55765 0.42930
 N222 N 0.94850 0.52833 0.46974
 N223 N 0.92799 0.54610 0.46487
 N224 N 0.96833 0.47320 0.44364
 N225 N 0.96242 0.45482 0.42064
 N226 N 0.94857 0.47327 0.46881
 N227 N 0.92875 0.45495 0.46358
 N228 N 0.96835 0.52843 0.44467
 N229 N 0.96175 0.54640 0.42201
 Mn230 Mn 0.94891 0.50106 0.50619
 Mn231 Mn 1.00016 0.50060 0.44197
 Cl232 Cl 1.00116 0.50079 0.50318
 C233 C 0.93662 0.55744 0.43523
 C234 C 0.93775 0.44343 0.43353
 N235 N 0.55455 0.02478 0.53383
 N236 N 0.57486 0.04249 0.53956
 N237 N 0.53190 -0.02952 0.55679
 N238 N 0.53709 -0.04757 0.57978
 N239 N 0.55229 -0.03021 0.53234
 N240 N 0.57191 -0.04871 0.53810
 N241 N 0.53413 0.02558 0.55822
 N242 N 0.53988 0.04398 0.58115
 C243 C 0.56528 0.05447 0.56902
 C244 C 0.56198 -0.05960 0.56763
 N245 N 0.44844 -0.02600 0.53548
 N246 N 0.42880 -0.04453 0.54052
 N247 N 0.47105 0.02813 0.56055
 N248 N 0.46702 0.04676 0.58406
 N249 N 0.45056 0.02921 0.53761
 N250 N 0.43196 0.04865 0.54496
 N251 N 0.46862 -0.02685 0.55881
 N252 N 0.46313 -0.04583 0.58060
 Mn253 Mn 0.50142 -0.00068 0.55893
 C254 C 0.43831 -0.05680 0.56869
 C255 C 0.44264 0.05954 0.57395
 N256 N 0.55192 -0.02969 0.45867
 N257 N 0.56996 -0.04966 0.45274
 N258 N 0.53432 0.02656 0.43689
 N259 N 0.53987 0.04572 0.41532
 N260 N 0.55459 0.02545 0.46011
 N261 N 0.57444 0.04383 0.45500
 N262 N 0.53197 -0.02856 0.43507
 N263 N 0.53616 -0.04764 0.41211
 Mn264 Mn 0.55363 -0.00244 0.49618
 C265 C 0.55983 -0.06075 0.42372
 C266 C 0.56496 0.05641 0.42701
 N267 N 0.45061 0.02968 0.46379
 N268 N 0.43159 0.04882 0.45921
 N269 N 0.46835 -0.02599 0.43713
 N270 N 0.46205 -0.04417 0.41400
 N271 N 0.44820 -0.02529 0.46187
 N272 N 0.42777 -0.04295 0.45630
 N273 N 0.47090 0.02921 0.43921
 N274 N 0.46627 0.04818 0.41730
 Mn275 Mn 0.44915 0.00192 0.49969
 Mn276 Mn 0.50139 0.00030 0.43662
 Cl277 Cl 0.50139 -0.00024 0.49783
 C278 C 0.44176 0.06038 0.43032
 C279 C 0.43672 -0.05472 0.42646
 N280 N 0.55155 0.52786 0.03635
 N281 N 0.57162 0.54575 0.04221
 N282 N 0.53103 0.47379 0.06218
 N283 N 0.53616 0.45609 0.08570
 N284 N 0.55159 0.47283 0.03795
 N285 N 0.57123 0.45451 0.04430
 N286 N 0.53065 0.52892 0.06019
 N287 N 0.53593 0.54762 0.08290
 C288 C 0.56143 0.55812 0.07111
 C289 C 0.56126 0.44406 0.07405
 N290 N 0.44802 0.47305 0.03870
 N291 N 0.42825 0.45500 0.04592
 N292 N 0.46725 0.52912 0.06080
 N293 N 0.46108 0.54810 0.08334
 N294 N 0.44731 0.52822 0.03715
 N295 N 0.42714 0.54660 0.04288
 N296 N 0.46776 0.47418 0.06256
 N297 N 0.46189 0.45711 0.08674
 Mn298 Mn 0.49917 0.50155 0.06178
 C299 C 0.43739 0.44509 0.07584
 C300 C 0.43609 0.55900 0.07166
 N301 N 0.55272 0.47080 -0.03576
 N302 N 0.57194 0.45155 -0.04062
 N303 N 0.53315 0.52570 -0.06099
 N304 N 0.53851 0.54430 -0.08350
 N305 N 0.55301 0.52592 -0.03724
 N306 N 0.57236 0.54460 -0.04289
 N307 N 0.53320 0.47053 -0.05989
 N308 N 0.53877 0.45119 -0.08204
 Mn309 Mn 0.55249 0.49932 0.00029
 C310 C 0.56288 0.43940 -0.06947
 C311 C 0.56304 0.55602 -0.07176
 N312 N 0.44874 0.52612 -0.03655
 N313 N 0.42923 0.54464 -0.04238
 N314 N 0.46968 0.47061 -0.05959
 N315 N 0.46420 0.45203 -0.08253
 N316 N 0.44918 0.47111 -0.03524
 N317 N 0.42928 0.45300 -0.04095
 N318 N 0.46967 0.52585 -0.06038
 N319 N 0.46505 0.54431 -0.08299
 Mn320 Mn 0.44802 0.49958 0.00101
 Mn321 Mn 0.50144 0.49819 -0.06065
 Cl322 Cl 0.50027 0.49965 0.00059
 C323 C 0.43979 0.55596 -0.07127
 C324 C 0.43901 0.44105 -0.07037
 C325 C 1.22591 0.15490 0.18550
 C326 C 1.20800 0.14076 0.16360
 C327 C 1.17777 0.14580 0.16345
 C328 C 1.16555 0.16558 0.18502
 C329 C 1.18354 0.18002 0.20661
 C330 C 1.21380 0.17458 0.20723
 N331 N 1.16001 0.13005 0.14182
 N332 N 1.13209 0.13052 0.14402
 C333 C 1.11493 0.11399 0.12263
 C334 C 1.08533 0.10998 0.13143
 C335 C 1.06890 0.09178 0.11308
 C336 C 1.08187 0.07770 0.08533
 C337 C 1.11116 0.08271 0.07548
 C338 C 1.12765 0.10059 0.09413
 H339 H 1.24927 0.15064 0.18530
 H340 H 1.21759 0.12557 0.14703
 H341 H 1.14220 0.16980 0.18521
 H342 H 1.17381 0.19513 0.22322
 H343 H 1.07531 0.12027 0.15329
 H344 H 1.04628 0.08837 0.12101
 H345 H 1.12163 0.07216 0.05411
 H346 H 1.15046 0.10356 0.08668
 C347 C 1.22703 0.65946 0.67856
 C348 C 1.20811 0.64583 0.65731
 C349 C 1.17778 0.65024 0.65999
 C350 C 1.16646 0.66913 0.68351
 C351 C 1.18546 0.68315 0.70442
 C352 C 1.21583 0.67809 0.70243
 N353 N 1.15910 0.63455 0.63937
 N354 N 1.13138 0.63380 0.64426
 C355 C 1.11363 0.61707 0.62374
 C356 C 1.08485 0.61162 0.63482
 C357 C 1.06823 0.59310 0.61722
 C358 C 1.08016 0.58009 0.58799
 C359 C 1.10851 0.58655 0.57599
 C360 C 1.12518 0.60477 0.59381
 H361 H 1.25043 0.65548 0.67643
 H362 H 1.21702 0.63133 0.63923
 H363 H 1.14304 0.67288 0.68587
 H364 H 1.17645 0.69745 0.72273
 H365 H 1.07571 0.62102 0.65783
 H366 H 1.04634 0.58856 0.62685
 H367 H 1.11819 0.57691 0.55344
 H368 H 1.14730 0.60884 0.58457
 C369 C 0.72677 0.15141 0.68745
 C370 C 0.70870 0.13662 0.66643
 C371 C 0.67854 0.14193 0.66585
 C372 C 0.66653 0.16254 0.68618
 C373 C 0.68467 0.17762 0.70684
 C374 C 0.71489 0.17203 0.70779
 N375 N 0.66067 0.12590 0.64468
 N376 N 0.63274 0.12661 0.64674
 C377 C 0.61549 0.11009 0.62543
 C378 C 0.58581 0.10631 0.63410
 C379 C 0.56914 0.08853 0.61534
 C380 C 0.58195 0.07468 0.58728
 C381 C 0.61137 0.07936 0.57774
 C382 C 0.62809 0.09679 0.59680
 H383 H 0.75008 0.14696 0.68754
 H384 H 0.71814 0.12080 0.65079
 H385 H 0.64324 0.16700 0.68600
 H386 H 0.67510 0.19341 0.72243
 H387 H 0.57586 0.11654 0.65605
 H388 H 0.54643 0.08535 0.62306
 H389 H 0.62174 0.06897 0.55617
 H390 H 0.65095 0.09961 0.58943
 C391 C 0.72583 0.65255 0.18644
 C392 C 0.70681 0.63816 0.16619
 C393 C 0.67650 0.64267 0.16875
 C394 C 0.66521 0.66187 0.19185
 C395 C 0.68428 0.67652 0.21188
 C396 C 0.71474 0.67192 0.20936
 N397 N 0.65785 0.62750 0.14749
 N398 N 0.62997 0.62808 0.15076
 C399 C 0.61222 0.61240 0.12893
 C400 C 0.58273 0.60822 0.13818
 C401 C 0.56576 0.59104 0.11885
 C402 C 0.57808 0.57817 0.08973
 C403 C 0.60725 0.58340 0.07961
 C404 C 0.62425 0.60025 0.09915
 H405 H 0.74927 0.64894 0.18371
 H406 H 0.71568 0.62344 0.14839
 H407 H 0.64180 0.66567 0.19416
 H408 H 0.67530 0.69136 0.22944
 H409 H 0.57321 0.61759 0.16101
 H410 H 0.54325 0.58741 0.12706
 H411 H 0.61726 0.57381 0.05721
 H412 H 0.64692 0.60342 0.09128
 C413 C 0.79890 -0.19273 0.16745
 C414 C 0.81882 -0.17837 0.14758
 C415 C 0.83298 -0.15668 0.16175
 C416 C 0.82691 -0.14930 0.19607
 C417 C 0.80655 -0.16332 0.21574
 C418 C 0.79244 -0.18512 0.20156
 N419 N 0.85247 -0.14178 0.14053
 N420 N 0.87044 -0.12561 0.15328
 C421 C 0.88872 -0.10941 0.13230
 C422 C 0.91181 -0.09592 0.14732
 C423 C 0.92888 -0.07862 0.12806
 C424 C 0.92261 -0.07418 0.09361
 C425 C 0.89967 -0.08799 0.07839
 C426 C 0.88295 -0.10566 0.09754
 H427 H 0.78802 -0.20941 0.15604
 H428 H 0.82322 -0.18410 0.12110
 H429 H 0.83742 -0.13242 0.20742
 H430 H 0.80185 -0.15722 0.24204
 H431 H 0.91634 -0.09861 0.17413
 H432 H 0.94640 -0.06813 0.14040
 H433 H 0.89448 -0.08492 0.05184
 H434 H 0.86504 -0.11578 0.08549
 C435 C 0.80827 0.30167 0.67651
 C436 C 0.82890 0.31554 0.65695
 C437 C 0.83741 0.34063 0.66725
 C438 C 0.82487 0.35197 0.69721
 C439 C 0.80365 0.33853 0.71628
 C440 C 0.79490 0.31310 0.70631
 N441 N 0.85776 0.35483 0.64626
 N442 N 0.87255 0.37364 0.65856
 C443 C 0.89125 0.38944 0.63755
 C444 C 0.91245 0.40494 0.65313
 C445 C 0.92945 0.42219 0.63368
 C446 C 0.92483 0.42464 0.59846
 C447 C 0.90383 0.40882 0.58273
 C448 C 0.88732 0.39111 0.60209
 H449 H 0.80179 0.28257 0.66707
 H450 H 0.83822 0.30674 0.63364
 H451 H 0.83110 0.37146 0.70554
 H452 H 0.79493 0.34789 0.73951
 H453 H 0.91550 0.40389 0.68048
 H454 H 0.94542 0.43429 0.64640
 H455 H 0.89995 0.41037 0.55559
 H456 H 0.87081 0.37946 0.58963
 C457 C 0.31806 -0.16257 0.73685
 C458 C 0.33955 -0.14749 0.72042
 C459 C 0.34736 -0.15246 0.68601
 C460 C 0.33440 -0.17351 0.66849
 C461 C 0.31334 -0.18892 0.68509
 C462 C 0.30461 -0.18323 0.71918
 N463 N 0.36725 -0.13509 0.66898
 N464 N 0.36965 -0.13449 0.63647
 C465 C 0.38877 -0.11652 0.61934
 C466 C 0.38467 -0.11167 0.58463
 C467 C 0.40113 -0.09247 0.56792
 C468 C 0.42240 -0.07826 0.58561
 C469 C 0.42741 -0.08394 0.62004
 C470 C 0.41051 -0.10277 0.63692
 H471 H 0.31170 -0.15798 0.76321
 H472 H 0.34941 -0.13133 0.73415
 H473 H 0.34024 -0.17777 0.64191
 H474 H 0.30310 -0.20470 0.67098
 H475 H 0.36799 -0.12219 0.57085
 H476 H 0.39701 -0.08854 0.54129
 H477 H 0.44370 -0.07323 0.63421
 H478 H 0.41416 -0.10635 0.66373
 C479 C 0.30666 0.30265 0.17855
 C480 C 0.32663 0.31664 0.15823
 C481 C 0.33454 0.34209 0.16764
 C482 C 0.32209 0.35365 0.19751
 C483 C 0.30153 0.34006 0.21737
 C484 C 0.29336 0.31427 0.20827
 N485 N 0.35441 0.35630 0.14603
 N486 N 0.36867 0.37569 0.15763
 C487 C 0.38714 0.39136 0.13619
 C488 C 0.40801 0.40738 0.15144
 C489 C 0.42511 0.42421 0.13152
 C490 C 0.42096 0.42573 0.09611
 C491 C 0.40016 0.40949 0.08072
 C492 C 0.38353 0.39218 0.10059
 H493 H 0.30059 0.28326 0.16974
 H494 H 0.33592 0.30764 0.13503
 H495 H 0.32788 0.37340 0.20520
 H496 H 0.29285 0.34961 0.24048
 H497 H 0.41081 0.40699 0.17888
 H498 H 0.44091 0.43665 0.14401
 H499 H 0.39663 0.41034 0.05343
 H500 H 0.36726 0.38009 0.08839
 C501 C 0.78129 0.15891 -0.18182
 C502 C 0.79983 0.14560 -0.16007
 C503 C 0.83015 0.14973 -0.16183
 C504 C 0.84184 0.16803 -0.18493
 C505 C 0.82320 0.18176 -0.20633
 C506 C 0.79285 0.17696 -0.20526
 N507 N 0.84847 0.13438 -0.14066
 N508 N 0.87626 0.13313 -0.14487
 C509 C 0.89360 0.11676 -0.12375
 C510 C 0.92243 0.11030 -0.13427
 C511 C 0.93862 0.09200 -0.11609
 C512 C 0.92621 0.08027 -0.08682
 C513 C 0.89783 0.08779 -0.07537
 C514 C 0.88158 0.10576 -0.09377
 H515 H 0.75790 0.15513 -0.18040
 H516 H 0.79064 0.13156 -0.14230
 H517 H 0.86526 0.17156 -0.18658
 H518 H 0.83249 0.19560 -0.22430
 H519 H 0.93194 0.11869 -0.15730
 H520 H 0.96054 0.08663 -0.12531
 H521 H 0.88777 0.07914 -0.05281
 H522 H 0.85942 0.11063 -0.08496
 C523 C 0.82978 0.68999 0.28587
 C524 C 0.85165 0.67736 0.30418
 C525 C 0.84577 0.65363 0.32033
 C526 C 0.81800 0.64224 0.31726
 C527 C 0.79643 0.65437 0.29835
 C528 C 0.80176 0.67859 0.28238
 N529 N 0.86799 0.64113 0.33970
 N530 N 0.86067 0.62517 0.36308
 C531 C 0.88130 0.61059 0.38220
 C532 C 0.87113 0.59832 0.41190
 C533 C 0.88960 0.58187 0.42976
 C534 C 0.91852 0.57695 0.41775
 C535 C 0.92903 0.58971 0.38826
 C536 C 0.91055 0.60663 0.37065
 H537 H 0.83539 0.70813 0.27337
 H538 H 0.87310 0.68623 0.30613
 H539 H 0.81297 0.62383 0.32946
 H540 H 0.77511 0.64514 0.29775
 H541 H 0.84858 0.60117 0.42086
 H542 H 0.88086 0.57231 0.45238
 H543 H 0.95126 0.58624 0.37854
 H544 H 0.91871 0.61581 0.34750
 C545 C 0.28258 0.15258 0.30816
 C546 C 0.30125 0.13878 0.32920
 C547 C 0.32939 0.14799 0.33544
 C548 C 0.33854 0.17181 0.32137
 C549 C 0.31955 0.18616 0.30103
 C550 C 0.29137 0.17651 0.29347
 N551 N 0.34807 0.13251 0.35602
 N552 N 0.37586 0.13493 0.35598
 C553 C 0.39322 0.11842 0.37692
 C554 C 0.42276 0.11355 0.36783
 C555 C 0.43900 0.09501 0.38562
 C556 C 0.42596 0.08160 0.41321
 C557 C 0.39683 0.08761 0.42339
 C558 C 0.38052 0.10569 0.40525
 H559 H 0.26080 0.14480 0.30457
 H560 H 0.29389 0.12057 0.34033
 H561 H 0.36028 0.17929 0.32610
 H562 H 0.32765 0.20412 0.28994
 H563 H 0.43280 0.12329 0.34607
 H564 H 0.46150 0.09082 0.37744
 H565 H 0.38625 0.07765 0.44464
 H566 H 0.35782 0.10936 0.41297
 C567 C 0.28474 0.65058 -0.19959
 C568 C 0.30258 0.63580 -0.17870
 C569 C 0.33074 0.64428 -0.17108
 C570 C 0.34083 0.66823 -0.18389
 C571 C 0.32270 0.68351 -0.20415
 C572 C 0.29441 0.67476 -0.21280
 N573 N 0.34838 0.62809 -0.15018
 N574 N 0.37610 0.63043 -0.14842
 C575 C 0.39252 0.61346 -0.12709
 C576 C 0.42254 0.60933 -0.13412
 C577 C 0.43824 0.59085 -0.11563
 C578 C 0.42415 0.57676 -0.08935
 C579 C 0.39439 0.58187 -0.08131
 C580 C 0.37863 0.59989 -0.10020
 H581 H 0.26284 0.64339 -0.20402
 H582 H 0.29449 0.61748 -0.16857
 H583 H 0.36261 0.67514 -0.17813
 H584 H 0.33152 0.70158 -0.21415
 H585 H 0.43349 0.61972 -0.15473
 H586 H 0.46124 0.58735 -0.12214
 H587 H 0.38302 0.57133 -0.06113
 H588 H 0.35550 0.60298 -0.09408
 C589 C 1.19355 -0.16297 -0.23833
 C590 C 1.17018 -0.14864 -0.22328
 C591 C 1.15971 -0.15453 -0.19029
 C592 C 1.17217 -0.17564 -0.17289
 C593 C 1.19524 -0.19023 -0.18813
 C594 C 1.20646 -0.18372 -0.22072
 N595 N 1.13778 -0.13787 -0.17425
 N596 N 1.13166 -0.13905 -0.14233
 C597 C 1.11097 -0.12158 -0.12558
 C598 C 1.11140 -0.11901 -0.08991
 C599 C 1.09430 -0.09978 -0.07294
 C600 C 1.07597 -0.08325 -0.09143
 C601 C 1.07417 -0.08685 -0.12703
 C602 C 1.09183 -0.10573 -0.14411
 H603 H 1.20166 -0.15780 -0.26366
 H604 H 1.16076 -0.13241 -0.23690
 H605 H 1.16439 -0.18059 -0.14737
 H606 H 1.20493 -0.20609 -0.17404
 H607 H 1.12604 -0.13114 -0.07541
 H608 H 1.09590 -0.09744 -0.04543
 H609 H 1.06021 -0.07427 -0.14178
 H610 H 1.09106 -0.10753 -0.17173
 C611 C 1.18641 0.33445 0.26169
 C612 C 1.16361 0.34896 0.27766
 C613 C 1.15612 0.34502 0.31216
 C614 C 1.17106 0.32568 0.33036
 C615 C 1.19360 0.31092 0.31429
 C616 C 1.20179 0.31550 0.27999
 N617 N 1.13458 0.36186 0.32860
 N618 N 1.13044 0.36218 0.36095
 C619 C 1.11013 0.37990 0.37788
 C620 C 1.11195 0.38360 0.41329
 C621 C 1.09507 0.40302 0.43019
 C622 C 1.07563 0.41867 0.41192
 C623 C 1.07255 0.41399 0.37668
 C624 C 1.08992 0.39487 0.35965
 H625 H 1.19210 0.33807 0.23508
 H626 H 1.15227 0.36380 0.26340
 H627 H 1.16562 0.32225 0.35707
 H628 H 1.20521 0.29645 0.32889
 H629 H 1.12741 0.37215 0.42757
 H630 H 1.09768 0.40616 0.45744
 H631 H 1.05771 0.42586 0.36210
 H632 H 1.08807 0.39221 0.33223
 C633 C 0.68405 -0.16707 0.25420
 C634 C 0.66119 -0.15270 0.27026
 C635 C 0.65371 -0.15680 0.30473
 C636 C 0.66864 -0.17623 0.32276
 C637 C 0.69126 -0.19084 0.30661
 C638 C 0.69952 -0.18605 0.27238
 N639 N 0.63233 -0.13991 0.32140
 N640 N 0.62833 -0.13975 0.35377
 C641 C 0.60831 -0.12195 0.37106
 C642 C 0.61018 -0.11872 0.40653
 C643 C 0.59367 -0.09926 0.42382
 C644 C 0.57454 -0.08307 0.40588
 C645 C 0.57140 -0.08726 0.37055
 C646 C 0.58840 -0.10645 0.35313
 H647 H 0.68982 -0.16326 0.22766
 H648 H 0.64985 -0.13778 0.25613
 H649 H 0.66322 -0.17978 0.34944
 H650 H 0.70296 -0.20528 0.32118
 H651 H 0.62543 -0.13058 0.42057
 H652 H 0.59632 -0.09650 0.45112
 H653 H 0.55679 -0.07499 0.35620
 H654 H 0.58652 -0.10873 0.32567
 C655 C 0.68799 0.33394 -0.23898
 C656 C 0.66570 0.34852 -0.22216
 C657 C 0.65915 0.34456 -0.18743
 C658 C 0.67452 0.32518 -0.16981
 C659 C 0.69651 0.31032 -0.18674
 C660 C 0.70372 0.31487 -0.22131
 N661 N 0.63789 0.36127 -0.17031
 N662 N 0.63481 0.36194 -0.13784
 C663 C 0.61443 0.37944 -0.12062
 C664 C 0.61721 0.38406 -0.08548
 C665 C 0.59986 0.40317 -0.06858
 C666 C 0.57904 0.41755 -0.08657
 C667 C 0.57519 0.41196 -0.12147
 C668 C 0.59296 0.39317 -0.13850
 H669 H 0.69300 0.33755 -0.26576
 H670 H 0.65399 0.36340 -0.23596
 H671 H 0.66976 0.32175 -0.14294
 H672 H 0.70844 0.29575 -0.17263
 H673 H 0.63366 0.37355 -0.07147
 H674 H 0.60309 0.40703 -0.04159
 H675 H 0.55927 0.42280 -0.13587
 H676 H 0.59032 0.38976 -0.16567
 C677 C 1.13915 0.20627 -0.22277
 C678 C 1.12355 0.18604 -0.20696
 C679 C 1.13566 0.17217 -0.18016
 C680 C 1.16393 0.17863 -0.16943
 C681 C 1.17973 0.19874 -0.18531
 C682 C 1.16765 0.21319 -0.21227
 N683 N 1.11887 0.15170 -0.16437
 N684 N 1.12804 0.13922 -0.13872
 C685 C 1.11154 0.11864 -0.12280
 C686 C 1.12284 0.10666 -0.09394
 C687 C 1.10758 0.08639 -0.07783
 C688 C 1.08068 0.07761 -0.09044
 C689 C 1.06925 0.08970 -0.11938
 C690 C 1.08453 0.11008 -0.13544
 H691 H 1.12901 0.21561 -0.24417
 H692 H 1.10189 0.18108 -0.21575
 H693 H 1.17378 0.16826 -0.14861
 H694 H 1.20093 0.20351 -0.17514
 H695 H 1.14360 0.11306 -0.08393
 H696 H 1.11697 0.07749 -0.05559
 H697 H 1.04856 0.08336 -0.12964
 H698 H 1.07532 0.11903 -0.15774
 C699 C 1.13812 0.70450 0.27485
 C700 C 1.12244 0.68451 0.29105
 C701 C 1.13414 0.67142 0.31875
 C702 C 1.16215 0.67834 0.32988
 C703 C 1.17804 0.69822 0.31363
 C704 C 1.16628 0.71199 0.28589
 N705 N 1.11716 0.65131 0.33507
 N706 N 1.12593 0.63961 0.36153
 C707 C 1.10924 0.61944 0.37809
 C708 C 1.12026 0.60820 0.40759
 C709 C 1.10487 0.58832 0.42433
 C710 C 1.07808 0.57921 0.41176
 C711 C 1.06689 0.59059 0.38221
 C712 C 1.08233 0.61058 0.36548
 H713 H 1.12833 0.71322 0.25279
 H714 H 1.10102 0.67914 0.28189
 H715 H 1.17170 0.66855 0.35137
 H716 H 1.19899 0.70343 0.32412
 H717 H 1.14093 0.61485 0.41759
 H718 H 1.11407 0.57997 0.44704
 H719 H 1.04631 0.58397 0.37196
 H720 H 1.07334 0.61898 0.34270
 C721 C 0.64264 0.20355 0.27461
 C722 C 0.62719 0.18313 0.29024
 C723 C 0.63677 0.17250 0.32085
 C724 C 0.66224 0.18253 0.33569
 C725 C 0.67773 0.20295 0.32008
 C726 C 0.66807 0.21378 0.28938
 N727 N 0.62028 0.15164 0.33621
 N728 N 0.62779 0.14099 0.36395
 C729 C 0.61140 0.12010 0.37938
 C730 C 0.62157 0.10905 0.40946
 C731 C 0.60639 0.08847 0.42503
 C732 C 0.58063 0.07856 0.41076
 C733 C 0.57028 0.08980 0.38068
 C734 C 0.58554 0.11038 0.36507
 H735 H 0.63484 0.21113 0.25074
 H736 H 0.60769 0.17553 0.27843
 H737 H 0.67010 0.17468 0.35939
 H738 H 0.69702 0.21057 0.33233
 H739 H 0.64142 0.11636 0.42079
 H740 H 0.61490 0.08025 0.44820
 H741 H 0.55049 0.08259 0.36911
 H742 H 0.57717 0.11861 0.34185
 C743 C 0.63687 0.70634 -0.22166
 C744 C 0.62144 0.68596 -0.20595
 C745 C 0.63332 0.67257 -0.17860
 C746 C 0.66120 0.67965 -0.16722
 C747 C 0.67685 0.69992 -0.18300
 C748 C 0.66496 0.71391 -0.21048
 N749 N 0.61667 0.65194 -0.16294
 N750 N 0.62553 0.63990 -0.13678
 C751 C 0.60915 0.61918 -0.12099
 C752 C 0.62002 0.60782 -0.09148
 C753 C 0.60488 0.58745 -0.07542
 C754 C 0.57854 0.57795 -0.08871
 C755 C 0.56753 0.58941 -0.11832
 C756 C 0.58269 0.60991 -0.13433
 H757 H 0.62698 0.71523 -0.24353
 H758 H 0.60011 0.68050 -0.21527
 H759 H 0.67087 0.66965 -0.14598
 H760 H 0.69775 0.70518 -0.17241
 H761 H 0.64035 0.61476 -0.08092
 H762 H 0.61394 0.57905 -0.05266
 H763 H 0.54728 0.58251 -0.12911
 H764 H 0.57383 0.61837 -0.15714
 C765 C 0.81644 -0.19462 -0.18170
 C766 C 0.83319 -0.17537 -0.16549
 C767 C 0.85828 -0.16508 -0.18211
 C768 C 0.86615 -0.17425 -0.21510
 C769 C 0.84944 -0.19348 -0.23133
 C770 C 0.82441 -0.20401 -0.21480
 N771 N 0.87608 -0.14546 -0.16617
 N772 N 0.87008 -0.13614 -0.13631
 C773 C 0.88772 -0.11649 -0.12020
 C774 C 0.87889 -0.10667 -0.08783
 C775 C 0.89519 -0.08722 -0.07151
 C776 C 0.92081 -0.07723 -0.08728
 C777 C 0.92988 -0.08730 -0.11965
 C778 C 0.91346 -0.10674 -0.13602
 H779 H 0.79753 -0.20251 -0.16807
 H780 H 0.82662 -0.16867 -0.13996
 H781 H 0.88533 -0.16644 -0.22829
 H782 H 0.85597 -0.19993 -0.25699
 H783 H 0.85916 -0.11402 -0.07530
 H784 H 0.88765 -0.07991 -0.04658
 H785 H 0.94951 -0.07999 -0.13244
 H786 H 0.92082 -0.11404 -0.16102
 C787 C 0.85304 0.30665 0.26902
 C788 C 0.86951 0.32572 0.28593
 C789 C 0.86130 0.33440 0.31904
 C790 C 0.83620 0.32372 0.33514
 C791 C 0.81970 0.30464 0.31826
 C792 C 0.82792 0.29583 0.28499
 N793 N 0.87870 0.35403 0.33558
 N794 N 0.87234 0.36293 0.36558
 C795 C 0.88953 0.38264 0.38223
 C796 C 0.91503 0.39307 0.36670
 C797 C 0.93094 0.41262 0.38353
 C798 C 0.92160 0.42212 0.41609
 C799 C 0.89625 0.41144 0.43160
 C800 C 0.88043 0.39188 0.41480
 H801 H 0.85979 0.30061 0.24327
 H802 H 0.88872 0.33383 0.27313
 H803 H 0.82938 0.33003 0.36076
 H804 H 0.80073 0.29649 0.33149
 H805 H 0.92258 0.38624 0.34156
 H806 H 0.95039 0.42046 0.37094
 H807 H 0.88850 0.41831 0.45666
 H808 H 0.86086 0.38402 0.42711
 C809 C 0.31490 -0.19219 0.31491
 C810 C 0.33134 -0.17248 0.33057
 C811 C 0.35703 -0.16301 0.31434
 C812 C 0.36568 -0.17325 0.28214
 C813 C 0.34933 -0.19299 0.26651
 C814 C 0.32388 -0.20288 0.28285
 N815 N 0.37487 -0.14337 0.33010
 N816 N 0.36866 -0.13378 0.35974
 C817 C 0.38641 -0.11428 0.37587
 C818 C 0.37757 -0.10448 0.40821
 C819 C 0.39408 -0.08530 0.42470
 C820 C 0.41990 -0.07557 0.40910
 C821 C 0.42897 -0.08558 0.37672
 C822 C 0.41234 -0.10478 0.36018
 H823 H 0.29558 -0.19956 0.32829
 H824 H 0.32414 -0.16488 0.35547
 H825 H 0.38532 -0.16606 0.26926
 H826 H 0.35660 -0.20054 0.24159
 H827 H 0.35770 -0.11166 0.42062
 H828 H 0.38654 -0.07803 0.44965
 H829 H 0.44875 -0.07845 0.36409
 H830 H 0.41969 -0.11210 0.33520
 C831 C 0.31681 0.30684 -0.18760
 C832 C 0.33386 0.32562 -0.17097
 C833 C 0.36189 0.33203 -0.18405
 C834 C 0.37245 0.31953 -0.21403
 C835 C 0.35560 0.30061 -0.23063
 C836 C 0.32737 0.29369 -0.21772
 N837 N 0.37997 0.35109 -0.16746
 N838 N 0.37223 0.36209 -0.13909
 C839 C 0.38990 0.38128 -0.12223
 C840 C 0.37980 0.39186 -0.09077
 C841 C 0.39600 0.41099 -0.07377
 C842 C 0.42271 0.41999 -0.08803
 C843 C 0.43305 0.40917 -0.11949
 C844 C 0.41678 0.38994 -0.13649
 H845 H 0.29590 0.30196 -0.17562
 H846 H 0.32517 0.33496 -0.14771
 H847 H 0.39389 0.32450 -0.22465
 H848 H 0.36458 0.29229 -0.25434
 H849 H 0.35916 0.38536 -0.07948
 H850 H 0.38744 0.41891 -0.04958
 H851 H 0.45355 0.41572 -0.13108
 H852 H 0.42508 0.38203 -0.16079
 C853 C 1.13774 -0.19828 0.23126
 C854 C 1.12221 -0.17906 0.21395
 C855 C 1.13488 -0.16666 0.18562
 C856 C 1.16374 -0.17334 0.17509
 C857 C 1.17951 -0.19239 0.19251
 C858 C 1.16673 -0.20558 0.22078
 N859 N 1.11798 -0.14749 0.16805
 N860 N 1.12724 -0.13699 0.14046
 C861 C 1.11045 -0.11773 0.12292
 C862 C 1.12160 -0.10799 0.09193
 C863 C 1.10606 -0.08891 0.07436
 C864 C 1.07907 -0.07911 0.08765
 C865 C 1.06775 -0.08905 0.11865
 C866 C 1.08327 -0.10824 0.13615
 H867 H 1.12711 -0.20660 0.25364
 H868 H 1.10010 -0.17383 0.22264
 H869 H 1.17406 -0.16402 0.15318
 H870 H 1.20121 -0.19752 0.18247
 H871 H 1.14248 -0.11516 0.08144
 H872 H 1.11535 -0.08164 0.05054
 H873 H 1.04700 -0.08187 0.12949
 H874 H 1.07416 -0.11546 0.16007
 C875 C 1.14226 0.30768 0.73715
 C876 C 1.12676 0.32697 0.71987
 C877 C 1.13663 0.33536 0.68763
 C878 C 1.16250 0.32435 0.67287
 C879 C 1.17805 0.30509 0.69014
 C880 C 1.16804 0.29645 0.72242
 N881 N 1.12000 0.35494 0.67049
 N882 N 1.12751 0.36324 0.64095
 C883 C 1.11088 0.38286 0.62386
 C884 C 1.12090 0.39148 0.59178
 C885 C 1.10551 0.41095 0.57469
 C886 C 1.07974 0.42210 0.58950
 C887 C 1.06952 0.41320 0.62153
 C888 C 1.08495 0.39376 0.63861
 H889 H 1.13418 0.30168 0.76214
 H890 H 1.10693 0.33536 0.73160
 H891 H 1.17059 0.33049 0.64795
 H892 H 1.19762 0.29659 0.67793
 H893 H 1.14081 0.38321 0.58010
 H894 H 1.11389 0.41739 0.55002
 H895 H 1.04972 0.42142 0.63355
 H896 H 1.07670 0.38740 0.66335
 C897 C 0.63612 -0.19674 0.73341
 C898 C 0.62059 -0.17798 0.71530
 C899 C 0.63338 -0.16608 0.68664
 C900 C 0.66233 -0.17279 0.67659
 C901 C 0.67808 -0.19138 0.69480
 C902 C 0.66521 -0.20407 0.72343
 N903 N 0.61649 -0.14736 0.66827
 N904 N 0.62593 -0.13727 0.64048
 C905 C 0.60910 -0.11843 0.62224
 C906 C 0.62053 -0.10883 0.59128
 C907 C 0.60500 -0.09003 0.57317
 C908 C 0.57774 -0.08042 0.58589
 C909 C 0.56612 -0.09028 0.61679
 C910 C 0.58164 -0.10915 0.63482
 H911 H 0.62539 -0.20469 0.75597
 H912 H 0.59840 -0.17271 0.72361
 H913 H 0.67273 -0.16387 0.65444
 H914 H 0.69986 -0.19660 0.68507
 H915 H 0.64164 -0.11583 0.58127
 H916 H 0.61451 -0.08280 0.54944
 H917 H 0.54516 -0.08325 0.62720
 H918 H 0.57230 -0.11627 0.65868
 C919 C 0.64142 0.30914 0.24035
 C920 C 0.62540 0.32836 0.22352
 C921 C 0.63493 0.33729 0.19140
 C922 C 0.66102 0.32690 0.17637
 C923 C 0.67709 0.30773 0.19318
 C924 C 0.66742 0.29852 0.22531
 N925 N 0.61775 0.35669 0.17454
 N926 N 0.62504 0.36512 0.14500
 C927 C 0.60823 0.38450 0.12768
 C928 C 0.61828 0.39284 0.09550
 C929 C 0.60283 0.41198 0.07796
 C930 C 0.57692 0.42317 0.09236
 C931 C 0.56663 0.41460 0.12454
 C932 C 0.58217 0.39543 0.14212
 H933 H 0.63356 0.30269 0.26522
 H934 H 0.60541 0.33625 0.23548
 H935 H 0.66889 0.33342 0.15154
 H936 H 0.69678 0.29971 0.18068
 H937 H 0.63828 0.38455 0.08405
 H938 H 0.61130 0.41813 0.05320
 H939 H 0.54673 0.42288 0.13626
 H940 H 0.57392 0.38927 0.16696
 C941 C 0.81123 0.20691 0.17793
 C942 C 0.82507 0.18743 0.15751
 C943 C 0.85129 0.17577 0.16763
 C944 C 0.86365 0.18393 0.19862
 C945 C 0.84980 0.20340 0.21913
 C946 C 0.82335 0.21510 0.20908
 N947 N 0.86466 0.15560 0.14621
 N948 N 0.88881 0.14455 0.15360
 C949 C 0.90221 0.12413 0.13267
 C950 C 0.92882 0.11320 0.14278
 C951 C 0.94225 0.09282 0.12364
 C952 C 0.92926 0.08292 0.09390
 C953 C 0.90269 0.09409 0.08347
 C954 C 0.88923 0.11455 0.10270
 H955 H 0.79117 0.21578 0.16912
 H956 H 0.81534 0.18141 0.13367
 H957 H 0.88386 0.17516 0.20712
 H958 H 0.85955 0.20900 0.24312
 H959 H 0.93907 0.12040 0.16576
 H960 H 0.96273 0.08467 0.13234
 H961 H 0.89218 0.08687 0.06067
 H962 H 0.86866 0.12269 0.09432
 C963 C 0.80794 0.70562 0.68059
 C964 C 0.82189 0.68604 0.66047
 C965 C 0.84820 0.67465 0.67075
 C966 C 0.86052 0.68315 0.70161
 C967 C 0.84655 0.70271 0.72183
 C968 C 0.82003 0.71415 0.71160
 N969 N 0.86174 0.65443 0.64961
 N970 N 0.88603 0.64371 0.65710
 C971 C 0.89962 0.62326 0.63643
 C972 C 0.92645 0.61278 0.64652
 C973 C 0.94011 0.59241 0.62759
 C974 C 0.92710 0.58208 0.59810
 C975 C 0.90028 0.59279 0.58771
 C976 C 0.88661 0.61323 0.60673
 H977 H 0.78782 0.71430 0.67166
 H978 H 0.81219 0.67975 0.63672
 H979 H 0.88081 0.67458 0.71022
 H980 H 0.85628 0.70860 0.74572
 H981 H 0.93671 0.62032 0.66932
 H982 H 0.96077 0.58462 0.63624
 H983 H 0.88977 0.58523 0.56510
 H984 H 0.86586 0.62103 0.59838
 C985 C 0.31033 0.20512 0.67715
 C986 C 0.32420 0.18565 0.65677
 C987 C 0.35028 0.17388 0.66711
 C988 C 0.36242 0.18181 0.69831
 C989 C 0.34856 0.20126 0.71876
 C990 C 0.32234 0.21316 0.70841
 N991 N 0.36382 0.15386 0.64569
 N992 N 0.38788 0.14280 0.65333
 C993 C 0.40146 0.12256 0.63234
 C994 C 0.42785 0.11141 0.64278
 C995 C 0.44139 0.09115 0.62354
 C996 C 0.42871 0.08166 0.59340
 C997 C 0.40238 0.09309 0.58266
 C998 C 0.38883 0.11339 0.60198
 H999 H 0.29039 0.21414 0.66823
 H1000 H 0.31463 0.17975 0.63278
 H1001 H 0.38251 0.17292 0.70698
 H1002 H 0.35815 0.20674 0.74289
 H1003 H 0.43782 0.11831 0.66609
 H1004 H 0.46169 0.08278 0.63244
 H1005 H 0.39213 0.08617 0.55953
 H1006 H 0.36843 0.12173 0.59336
 C1007 C 0.35017 0.70057 0.23453
 C1008 C 0.36653 0.68063 0.21778
 C1009 C 0.35770 0.67038 0.18629
 C1010 C 0.33193 0.68011 0.17183
 C1011 C 0.31550 0.70001 0.18858
 C1012 C 0.32455 0.71061 0.22002
 N1013 N 0.37536 0.65035 0.16949
 N1014 N 0.36886 0.64054 0.14051
 C1015 C 0.38645 0.62054 0.12355
 C1016 C 0.37735 0.61031 0.09216
 C1017 C 0.39366 0.59050 0.07512
 C1018 C 0.41949 0.58060 0.08923
 C1019 C 0.42882 0.59110 0.12057
 C1020 C 0.41243 0.61089 0.13765
 H1021 H 0.35751 0.70806 0.25892
 H1022 H 0.38626 0.67324 0.22929
 H1023 H 0.32462 0.67251 0.14748
 H1024 H 0.29607 0.70753 0.17657
 H1025 H 0.35743 0.61760 0.08099
 H1026 H 0.38594 0.58283 0.05099
 H1027 H 0.44863 0.58384 0.13204
 H1028 H 0.41997 0.61854 0.16186
   
