data_POSCAR
  _audit_creation_date              2014-09-24
  _audit_creation_method            'ToBaCCo'
  _symmetry_space_group_name_H-M    'P1'
  _symmetry_Int_Tables_number       1
  _symmetry_cell_setting            triclinic
  loop_
  _symmetry_equiv_pos_as_xyz
 x,y,z
_cell_length_a 27.9590
_cell_length_b 26.6163
_cell_length_c 26.6163
_cell_angle_alpha 89.873100
_cell_angle_beta 90.033400
_cell_angle_gamma 89.966500
loop_
  _atom_site_label
  _atom_site_type_symbol
  _atom_site_fract_x
  _atom_site_fract_y
  _atom_site_fract_z
C1 C 0.32249 0.31884 0.23095
 H2 H 0.32450 0.31953 0.27153
 C3 C 0.35345 0.34858 0.20244
 H4 H 0.37932 0.37245 0.22105
 C5 C 0.28667 0.28654 0.15695
 H6 H 0.26112 0.26181 0.13931
 C7 C 0.31697 0.31567 0.12704
 H8 H 0.31431 0.31366 0.08649
 N9 N 0.28951 0.28912 0.20795
 C10 C 0.17626 0.26844 0.31882
 H11 H 0.17410 0.22786 0.31967
 C12 C 0.14559 0.29709 0.34867
 H13 H 0.11978 0.27860 0.37276
 C14 C 0.21221 0.34227 0.28607
 H15 H 0.23770 0.35980 0.26115
 C16 C 0.18219 0.37231 0.31529
 H17 H 0.18502 0.41286 0.31315
 Zn18 Zn 0.24925 0.24968 0.24944
 N19 N 0.20918 0.29129 0.28885
 C20 C 0.28656 0.21302 0.34207
 N21 N 0.28935 0.21012 0.29109
 C22 C 0.32223 0.18012 0.26828
 C23 C 0.35316 0.15046 0.29699
 C24 C 0.31683 0.18399 0.37217
 C25 C 0.17619 0.23131 0.17996
 C26 C 0.14529 0.20282 0.15021
 C27 C 0.18158 0.12740 0.18366
 C28 C 0.21183 0.15728 0.21279
 N29 N 0.20904 0.20828 0.20995
 H30 H 0.26111 0.23798 0.35956
 H31 H 0.32422 0.17919 0.22770
 H32 H 0.37898 0.12640 0.27854
 H33 H 0.31423 0.18629 0.41271
 H34 H 0.17422 0.27190 0.17907
 H35 H 0.11952 0.22145 0.12613
 H36 H 0.18418 0.08684 0.18589
 H37 H 0.23727 0.13962 0.23773
 C38 C 0.14876 0.34949 0.34702
 C39 C 0.35051 0.34710 0.15002
 C40 C 0.14816 0.15040 0.15196
 C41 C 0.35029 0.15231 0.34940
 C42 C 0.82344 0.82076 0.23000
 H43 H 0.82556 0.82165 0.27058
 C44 C 0.85409 0.85066 0.20127
 H45 H 0.87980 0.87480 0.21981
 C46 C 0.78765 0.78783 0.15628
 H47 H 0.76224 0.76280 0.13884
 C48 C 0.81762 0.81707 0.12611
 H49 H 0.81475 0.81476 0.08557
 N50 N 0.79062 0.79067 0.20725
 C51 C 0.67753 0.76953 0.31828
 H52 H 0.67554 0.72895 0.31909
 C53 C 0.64673 0.79801 0.34815
 H54 H 0.62100 0.77937 0.37222
 C55 C 0.71318 0.84357 0.28563
 H56 H 0.73861 0.86124 0.26074
 C57 C 0.68303 0.87344 0.31487
 H58 H 0.68569 0.91400 0.31278
 Zn59 Zn 0.75063 0.75112 0.24897
 N60 N 0.71037 0.79257 0.28835
 C61 C 0.78789 0.71457 0.34167
 N62 N 0.79089 0.71179 0.29070
 C63 C 0.82383 0.68181 0.26797
 C64 C 0.85451 0.65192 0.29674
 C65 C 0.81791 0.68531 0.37183
 C66 C 0.67756 0.73207 0.17965
 C67 C 0.64678 0.70328 0.15005
 C68 C 0.68349 0.62821 0.18380
 C69 C 0.71360 0.65839 0.21276
 N70 N 0.71057 0.70936 0.20969
 H71 H 0.76239 0.73950 0.35911
 H72 H 0.82597 0.68095 0.22739
 H73 H 0.88031 0.62779 0.27835
 H74 H 0.81508 0.68744 0.41236
 H75 H 0.67538 0.77265 0.17858
 H76 H 0.62089 0.72165 0.12592
 H77 H 0.68631 0.58768 0.18620
 H78 H 0.73914 0.64097 0.23775
 C79 C 0.64968 0.85042 0.34657
 C80 C 0.85100 0.84894 0.14882
 C81 C 0.64993 0.65088 0.15203
 C82 C 0.85133 0.65354 0.34914
 C83 C 0.82412 0.31797 0.73236
 H84 H 0.82629 0.31880 0.77293
 C85 C 0.85476 0.34787 0.70362
 H86 H 0.88056 0.37197 0.72203
 C87 C 0.78815 0.28528 0.65861
 H88 H 0.76266 0.26037 0.64115
 C89 C 0.81813 0.31454 0.62849
 H90 H 0.81527 0.31244 0.58795
 N91 N 0.79119 0.28802 0.70959
 C92 C 0.67798 0.26761 0.82061
 H93 H 0.67586 0.22703 0.82164
 C94 C 0.64716 0.29636 0.85020
 H95 H 0.62131 0.27796 0.87429
 C96 C 0.71389 0.34134 0.78758
 H97 H 0.73939 0.35878 0.76261
 C98 C 0.68373 0.37148 0.81653
 H99 H 0.68648 0.41201 0.81415
 Zn100 Zn 0.75101 0.24865 0.75127
 N101 N 0.71093 0.29036 0.79060
 C102 C 0.78819 0.21185 0.84393
 N103 N 0.79109 0.20904 0.79295
 C104 C 0.82391 0.17898 0.77016
 C105 C 0.85466 0.14908 0.79885
 C106 C 0.81826 0.18261 0.87407
 C107 C 0.67784 0.23032 0.68196
 C108 C 0.64700 0.20190 0.65209
 C109 C 0.68339 0.12641 0.68528
 C110 C 0.71358 0.15624 0.71453
 N111 N 0.71074 0.20724 0.71185
 H112 H 0.76278 0.23687 0.86138
 H113 H 0.82597 0.17813 0.72958
 H114 H 0.88036 0.12498 0.78017
 H115 H 0.81537 0.18497 0.91462
 H116 H 0.67583 0.27091 0.68119
 H117 H 0.62121 0.22057 0.62806
 H118 H 0.68607 0.08585 0.68734
 H119 H 0.73907 0.13853 0.73939
 C120 C 0.65022 0.34877 0.84825
 C121 C 0.85155 0.34628 0.65122
 C122 C 0.64997 0.14948 0.65363
 C123 C 0.85168 0.15074 0.85133
 C124 C 0.32240 0.81991 0.73162
 H125 H 0.32440 0.82083 0.77221
 C126 C 0.35332 0.84957 0.70297
 H127 H 0.37912 0.87361 0.72146
 C128 C 0.28672 0.78709 0.65778
 H129 H 0.26128 0.76217 0.64026
 C130 C 0.31698 0.81612 0.62773
 H131 H 0.31437 0.81385 0.58719
 N132 N 0.28953 0.78996 0.70877
 C133 C 0.17637 0.76906 0.81977
 H134 H 0.17441 0.72847 0.82076
 C135 C 0.14544 0.79765 0.84939
 H136 H 0.11966 0.77910 0.87348
 C137 C 0.21197 0.84297 0.78681
 H138 H 0.23741 0.86055 0.76185
 C139 C 0.18170 0.87296 0.81580
 H140 H 0.18429 0.91351 0.81347
 Zn141 Zn 0.24943 0.75048 0.75039
 N142 N 0.20921 0.79198 0.78977
 C143 C 0.28682 0.71358 0.84296
 N144 N 0.28970 0.71103 0.79197
 C145 C 0.32268 0.68128 0.76901
 C146 C 0.35362 0.65147 0.79754
 C147 C 0.31711 0.68439 0.87290
 C148 C 0.17645 0.73166 0.68092
 C149 C 0.14576 0.70296 0.65114
 C150 C 0.18236 0.62778 0.68477
 C151 C 0.21239 0.65787 0.71392
 N152 N 0.20937 0.70885 0.71100
 H153 H 0.26126 0.73833 0.86057
 H154 H 0.32471 0.68061 0.72842
 H155 H 0.37949 0.62758 0.77896
 H156 H 0.31442 0.68636 0.91345
 H157 H 0.17429 0.77224 0.67995
 H158 H 0.11995 0.72141 0.62697
 H159 H 0.18517 0.58724 0.68705
 H160 H 0.23787 0.64037 0.73893
 C161 C 0.14828 0.85006 0.84750
 C162 C 0.35043 0.84776 0.65056
 C163 C 0.14891 0.65056 0.65296
 C164 C 0.35064 0.65292 0.84996
 Si165 Si -0.00177 0.00045 -0.00055
 Si166 Si -0.00008 0.49988 0.50021
 Si167 Si 0.50049 0.00007 0.50012
 Si168 Si 0.50062 0.49979 0.00003
 C169 C 0.11711 -0.11969 -0.12195
 C170 C 0.09124 -0.09423 -0.09625
 C171 C 0.06124 -0.06425 -0.06599
 C172 C 0.03588 -0.03853 -0.04000
 C173 C 0.11794 0.37978 0.37788
 C174 C 0.09235 0.40527 0.40387
 C175 C 0.06264 0.43525 0.43442
 C176 C 0.03747 0.46096 0.46061
 C177 C 0.61874 -0.11947 0.37750
 C178 C 0.59306 -0.09415 0.40355
 C179 C 0.56326 -0.06436 0.43419
 C180 C 0.53804 -0.03877 0.46045
 C181 C 0.61918 0.37918 -0.12125
 C182 C 0.59341 0.40480 -0.09557
 C183 C 0.56351 0.43492 -0.06535
 C184 C 0.53822 0.46074 -0.03939
 C185 C -0.12021 0.12270 -0.12107
 C186 C -0.09448 0.09674 -0.09551
 C187 C -0.06464 0.06623 -0.06544
 C188 C -0.03938 0.04007 -0.03964
 C189 C -0.11790 0.62257 0.37957
 C190 C -0.09238 0.59649 0.40520
 C191 C -0.06276 0.56584 0.43534
 C192 C -0.03763 0.53957 0.46117
 C193 C 0.38150 0.12177 0.37976
 C194 C 0.40741 0.09606 0.40532
 C195 C 0.43745 0.06577 0.43538
 C196 C 0.46283 0.03972 0.46115
 C197 C 0.38178 0.62210 -0.11988
 C198 C 0.40764 0.59614 -0.09451
 C199 C 0.43764 0.56560 -0.06466
 C200 C 0.46298 0.53941 -0.03900
 C201 C -0.11982 -0.12184 0.12004
 C202 C -0.09421 -0.09587 0.09445
 C203 C -0.06447 -0.06534 0.06435
 C204 C -0.03930 -0.03917 0.03853
 C205 C -0.11771 0.37724 0.62082
 C206 C -0.09221 0.40330 0.59521
 C207 C -0.06262 0.43394 0.56509
 C208 C -0.03754 0.46020 0.53927
 C209 C 0.38160 -0.12168 0.62025
 C210 C 0.40749 -0.09594 0.59475
 C211 C 0.43750 -0.06562 0.56477
 C212 C 0.46286 -0.03956 0.53905
 C213 C 0.38169 0.37782 0.11988
 C214 C 0.40758 0.40368 0.09452
 C215 C 0.43760 0.43412 0.06467
 C216 C 0.46297 0.46024 0.03902
 C217 C 0.11703 0.12027 0.12127
 C218 C 0.09118 0.09490 0.09543
 C219 C 0.06120 0.06504 0.06504
 C220 C 0.03586 0.03939 0.03897
 C221 C 0.11805 0.62021 0.62219
 C222 C 0.09243 0.59465 0.59630
 C223 C 0.06269 0.56460 0.56585
 C224 C 0.03750 0.53884 0.53974
 C225 C 0.61897 0.11942 0.62272
 C226 C 0.59323 0.09415 0.59668
 C227 C 0.56336 0.06441 0.56606
 C228 C 0.53809 0.03886 0.53981
 C229 C 0.61895 0.62043 0.12149
 C230 C 0.59324 0.59479 0.09578
 C231 C 0.56341 0.56464 0.06552
 C232 C 0.53818 0.53881 0.03952
   
