data_POSCAR
  _audit_creation_date              2014-09-24
  _audit_creation_method            'ToBaCCo'
  _symmetry_space_group_name_H-M    'P1'
  _symmetry_Int_Tables_number       1
  _symmetry_cell_setting            triclinic
  loop_
  _symmetry_equiv_pos_as_xyz
 x,y,z
_cell_length_a 21.1843
_cell_length_b 9.5937
_cell_length_c 20.4223
_cell_angle_alpha 88.350800
_cell_angle_beta 90.472200
_cell_angle_gamma 86.166600
loop_
  _atom_site_label
  _atom_site_type_symbol
  _atom_site_fract_x
  _atom_site_fract_y
  _atom_site_fract_z
O1 O 0.04387 0.04453 0.08671
 O2 O -0.11484 -0.14903 0.08494
 O3 O -0.10533 0.11708 0.07017
 O4 O 0.03450 -0.21301 0.07671
 O5 O -0.10647 0.10764 0.07221
 O6 O 0.03605 -0.20536 0.07809
 O7 O -0.06690 -0.34061 0.05248
 O8 O 0.00100 0.23113 0.04495
 C9 C 0.03660 0.17216 0.08690
 C10 C -0.10398 -0.27756 0.09040
 C11 C -0.14783 0.20192 0.09214
 C12 C 0.07675 -0.29621 0.10356
 O13 O 0.06650 -0.19486 -0.05164
 O14 O -0.13519 0.09805 -0.05875
 O15 O -0.01112 0.22101 -0.07491
 O16 O -0.06529 -0.32648 -0.06496
 O17 O -0.15358 -0.18283 -0.03751
 O18 O 0.07806 0.09143 -0.04061
 O19 O 0.06261 -0.20917 -0.04923
 O20 O -0.13070 0.11282 -0.05746
 Co21 Co 0.05343 -0.06089 0.01606
 Co22 Co -0.12434 -0.03644 0.01355
 Co23 Co -0.06024 0.16085 -0.00605
 Co24 Co -0.00707 -0.26417 0.00174
 O25 O -0.03516 -0.05212 -0.01658
 C26 C 0.11530 -0.27668 -0.05972
 C27 C -0.18340 0.18115 -0.07033
 C28 C 0.04967 0.19258 -0.07670
 C29 C -0.12910 -0.29048 -0.06715
 O30 O 0.35602 0.33135 0.44199
 O31 O 0.56933 0.65393 0.44785
 O32 O 0.44583 0.71532 0.42433
 O33 O 0.47869 0.27705 0.42169
 O34 O 0.44757 0.71640 0.42436
 O35 O 0.47580 0.27386 0.42253
 O36 O 0.55668 0.45478 0.40917
 O37 O 0.36254 0.54472 0.41113
 C38 C 0.33774 0.43284 0.40621
 C39 C 0.58514 0.56224 0.40905
 C40 C 0.44591 0.78501 0.37011
 C41 C 0.49159 0.16417 0.39126
 O42 O 0.49513 0.23847 0.55072
 O43 O 0.42988 0.74213 0.55127
 O44 O 0.32846 0.54192 0.53710
 O45 O 0.59517 0.43774 0.53666
 O46 O 0.55990 0.65606 0.56727
 O47 O 0.36359 0.31510 0.56296
 O48 O 0.50292 0.24381 0.55196
 O49 O 0.42266 0.74170 0.55036
 Co50 Co 0.42409 0.29772 0.49625
 Co51 Co 0.50050 0.68251 0.49886
 Co52 Co 0.39055 0.62649 0.48287
 Co53 Co 0.53258 0.36120 0.48165
 O54 O 0.46163 0.49017 0.50967
 C55 C 0.52270 0.11881 0.56522
 C56 C 0.42578 0.72679 0.61293
 C57 C 0.32242 0.42159 0.56788
 C58 C 0.60084 0.54898 0.57112
 C59 C 0.16438 0.26077 0.20424
 C60 C 0.13685 0.37736 0.23273
 C61 C 0.07721 0.43613 0.21392
 C62 C 0.04456 0.37126 0.16399
 C63 C 0.07167 0.24898 0.13527
 C64 C 0.13287 0.19510 0.15507
 O65 O 0.22092 0.21997 0.22909
 C66 C 0.22963 0.31305 0.27446
 C67 C 0.17972 0.41204 0.27853
 C68 C 0.17945 0.52039 0.32229
 C69 C 0.23275 0.52713 0.36312
 C70 C 0.28413 0.42470 0.36058
 C71 C 0.28247 0.31587 0.31573
 H72 H 0.05662 0.52826 0.23700
 H73 H -0.00210 0.41355 0.14886
 H74 H 0.15529 0.10341 0.13316
 H75 H 0.14000 0.59784 0.32438
 H76 H 0.23373 0.61095 0.39746
 H77 H 0.32135 0.23724 0.31265
 C78 C 0.76601 0.62120 0.19843
 C79 C 0.79907 0.58892 0.25569
 C80 C 0.86488 0.58260 0.25952
 C81 C 0.89784 0.61425 0.20220
 C82 C 0.86448 0.65053 0.14327
 C83 C 0.79783 0.65255 0.14118
 O84 O 0.70371 0.62780 0.20566
 C85 C 0.69713 0.59997 0.26908
 C86 C 0.75408 0.57658 0.30195
 C87 C 0.75835 0.55352 0.36932
 C88 C 0.70161 0.55219 0.40399
 C89 C 0.64260 0.57219 0.37084
 C90 C 0.64006 0.59698 0.30252
 H91 H 0.88974 0.56044 0.30552
 H92 H 0.94861 0.62058 0.20468
 H93 H 0.77148 0.68622 0.09720
 H94 H 0.80364 0.53831 0.39429
 H95 H 0.70343 0.53406 0.45658
 H96 H 0.59531 0.61379 0.27658
 C97 C 0.67518 0.21362 0.80940
 C98 C 0.69858 0.10653 0.76688
 C99 C 0.75962 0.02214 0.77621
 C100 C 0.79671 0.04699 0.82940
 C101 C 0.77623 0.14928 0.87327
 C102 C 0.71831 0.22679 0.86213
 O103 O 0.66298 0.14462 0.75325
 C104 C 0.60656 0.19630 0.72629
 C105 C 0.65830 0.09507 0.71912
 C106 C 0.66470 -0.00607 0.66504
 C107 C 0.61864 -0.00101 0.61666
 C108 C 0.56889 0.09974 0.61957
 C109 C 0.56398 0.18998 0.67313
 H110 H 0.77553 -0.05706 0.74240
 H111 H 0.84141 -0.01369 0.83592
 H112 H 0.70467 0.30612 0.89691
 H113 H 0.70470 -0.08162 0.66221
 H114 H 0.62303 -0.07131 0.57614
 H115 H 0.52326 0.26418 0.67475
 C116 C 0.24021 0.68957 0.81914
 C117 C 0.21610 0.78324 0.77156
 C118 C 0.15875 0.85904 0.77694
 C119 C 0.12471 0.83883 0.83411
 C120 C 0.14822 0.74264 0.88510
 C121 C 0.20668 0.66579 0.87660
 O122 O 0.29688 0.63228 0.80442
 C123 C 0.30833 0.69158 0.74651
 C124 C 0.26012 0.78418 0.72424
 C125 C 0.26218 0.85964 0.66523
 C126 C 0.31661 0.83891 0.62742
 C127 C 0.36728 0.74510 0.64984
 C128 C 0.36318 0.67083 0.71010
 H129 H 0.14114 0.93262 0.73884
 H130 H 0.07993 0.89919 0.83809
 H131 H 0.22609 0.59208 0.91391
 H132 H 0.22356 0.93254 0.64918
 H133 H 0.31999 0.89815 0.58181
 H134 H 0.40161 0.59929 0.72802
 C135 C 0.17167 0.26755 0.79507
 C136 C 0.14421 0.38861 0.76653
 C137 C 0.08890 0.45517 0.78955
 C138 C 0.05956 0.39202 0.84292
 C139 C 0.08612 0.26601 0.87295
 C140 C 0.14404 0.20484 0.84943
 O141 O 0.22280 0.21834 0.76371
 C142 C 0.22749 0.31026 0.71431
 C143 C 0.18053 0.41636 0.71393
 C144 C 0.17549 0.52226 0.66593
 C145 C 0.22159 0.52072 0.61701
 C146 C 0.27125 0.41372 0.61653
 C147 C 0.27358 0.30583 0.66570
 H148 H 0.06805 0.55008 0.76607
 H149 H 0.01515 0.43918 0.85959
 H150 H 0.16527 0.10790 0.87057
 H151 H 0.13790 0.60435 0.66662
 H152 H 0.21894 0.60408 0.58000
 H153 H 0.31082 0.22272 0.66701
 C154 C 0.74456 0.64293 0.80932
 C155 C 0.77236 0.52769 0.77970
 C156 C 0.82803 0.45811 0.80274
 C157 C 0.85769 0.51305 0.85688
 C158 C 0.83180 0.63619 0.88638
 C159 C 0.77284 0.69820 0.86384
 O160 O 0.69381 0.69851 0.77728
 C161 C 0.68989 0.61724 0.72612
 C162 C 0.73681 0.51118 0.72532
 C163 C 0.74342 0.41795 0.67461
 C164 C 0.69938 0.43389 0.62286
 C165 C 0.65022 0.54215 0.62263
 C166 C 0.64556 0.63481 0.67530
 H167 H 0.84910 0.36781 0.77852
 H168 H 0.90223 0.46278 0.87383
 H169 H 0.75191 0.79250 0.88486
 H170 H 0.78106 0.33586 0.67490
 H171 H 0.70334 0.36114 0.58330
 H172 H 0.60801 0.71675 0.67730
 C173 C 0.22838 0.71662 0.19903
 C174 C 0.21416 0.82744 0.23875
 C175 C 0.15443 0.89717 0.23992
 C176 C 0.10824 0.85482 0.19633
 C177 C 0.12283 0.74522 0.15265
 C178 C 0.18318 0.67293 0.15539
 O179 O 0.28693 0.66001 0.20785
 C180 C 0.31049 0.73794 0.25362
 C181 C 0.26803 0.84281 0.27358
 C182 C 0.28297 0.93779 0.32046
 C183 C 0.34375 0.92286 0.34864
 C184 C 0.38672 0.81015 0.33216
 C185 C 0.37059 0.71837 0.28268
 H186 H 0.14381 0.98138 0.27310
 H187 H 0.06139 0.90720 0.19664
 H188 H 0.19485 0.58664 0.12366
 H189 H 0.24885 1.01953 0.33528
 H190 H 0.35627 0.99454 0.38581
 H191 H 0.40281 0.63181 0.26913
 C192 C 0.70816 0.27378 0.19013
 C193 C 0.70898 0.14239 0.22452
 C194 C 0.76105 0.03060 0.22004
 C195 C 0.81109 0.05190 0.17836
 C196 C 0.81026 0.17509 0.13984
 C197 C 0.76141 0.27953 0.14892
 O198 O 0.67569 0.19489 0.23372
 C199 C 0.62226 0.27125 0.25186
 C200 C 0.65730 0.13775 0.25952
 C201 C 0.63869 0.01439 0.29988
 C202 C 0.58490 0.02295 0.33795
 C203 C 0.54782 0.16030 0.33817
 C204 C 0.56770 0.28265 0.29133
 H205 H 0.76091 -0.06592 0.24870
 H206 H 0.84997 -0.02633 0.17743
 H207 H 0.76243 0.37548 0.11973
 H208 H 0.66754 -0.08297 0.30080
 H209 H 0.57239 -0.06478 0.36855
 H210 H 0.55169 0.22819 0.31873
   
