data_POSCAR
  _audit_creation_date              2014-09-24
  _audit_creation_method            'ToBaCCo'
  _symmetry_space_group_name_H-M    'P1'
  _symmetry_Int_Tables_number       1
  _symmetry_cell_setting            triclinic
  loop_
  _symmetry_equiv_pos_as_xyz
 x,y,z
_cell_length_a 44.7007
_cell_length_b 44.9796
_cell_length_c 44.7901
_cell_angle_alpha 90.275000
_cell_angle_beta 89.323900
_cell_angle_gamma 90.806100
loop_
  _atom_site_label
  _atom_site_type_symbol
  _atom_site_fract_x
  _atom_site_fract_y
  _atom_site_fract_z
C1 C 0.26332 0.23430 0.23588
 C2 C 0.25080 0.22082 0.26140
 C3 C 0.22560 0.23269 0.27483
 C4 C 0.21268 0.25827 0.26307
 C5 C 0.22499 0.27154 0.23793
 C6 C 0.25053 0.25950 0.22428
 C7 C 0.28794 0.22792 0.21836
 N8 N 0.29046 0.24870 0.19647
 C9 C 0.26759 0.26807 0.19998
 C10 C 0.20810 0.29607 0.23179
 N11 N 0.18587 0.29807 0.25265
 C12 C 0.18855 0.27497 0.27187
 C13 C 0.21849 0.21529 0.29912
 N14 N 0.23876 0.19312 0.30085
 C15 C 0.25864 0.19641 0.27784
 H16 H 0.30326 0.20986 0.22175
 H17 H 0.26349 0.28697 0.18581
 H18 H 0.21213 0.31166 0.21380
 H19 H 0.17393 0.27051 0.29081
 H20 H 0.20015 0.21883 0.31467
 H21 H 0.27727 0.18192 0.27317
 C22 C 0.73027 -0.23279 0.23108
 C23 C 0.74153 -0.21913 0.25689
 C24 C 0.76604 -0.23087 0.27095
 C25 C 0.77952 -0.25654 0.25945
 C26 C 0.76845 -0.26991 0.23402
 C27 C 0.74349 -0.25807 0.21986
 C28 C 0.70643 -0.22661 0.21314
 N29 N 0.70449 -0.24769 0.19119
 C30 C 0.72734 -0.26701 0.19540
 C31 C 0.78566 -0.29438 0.22815
 N32 N 0.80707 -0.29652 0.24951
 C33 C 0.80317 -0.27322 0.26877
 C34 C 0.77170 -0.21344 0.29562
 N35 N 0.75114 -0.19147 0.29694
 C36 C 0.73260 -0.19483 0.27328
 H37 H 0.69109 -0.20856 0.21688
 H38 H 0.73256 -0.28605 0.18158
 H39 H 0.78185 -0.30987 0.21002
 H40 H 0.81674 -0.26800 0.28796
 H41 H 0.78908 -0.21692 0.31181
 H42 H 0.71401 -0.18059 0.26827
 C43 C 0.72491 0.23722 0.76789
 C44 C 0.73629 0.22379 0.74191
 C45 C 0.76083 0.23619 0.72735
 C46 C 0.77427 0.26223 0.73852
 C47 C 0.76313 0.27539 0.76412
 C48 C 0.73807 0.26291 0.77880
 C49 C 0.70110 0.23028 0.78638
 N50 N 0.69908 0.25128 0.80840
 C51 C 0.72188 0.27132 0.80367
 C52 C 0.78069 0.30008 0.76978
 N53 N 0.80237 0.30249 0.74814
 C54 C 0.79825 0.27920 0.72889
 C55 C 0.76681 0.21871 0.70279
 N56 N 0.74644 0.19599 0.70202
 C57 C 0.72767 0.19899 0.72593
 H58 H 0.68585 0.21174 0.78297
 H59 H 0.72703 0.29049 0.81741
 H60 H 0.77710 0.31540 0.78811
 H61 H 0.81205 0.27404 0.70962
 H62 H 0.78436 0.22262 0.68636
 H63 H 0.70922 0.18410 0.73148
 C64 C 0.28465 -0.24191 0.75932
 C65 C 0.27237 -0.22902 0.73382
 C66 C 0.24714 -0.24159 0.72095
 C67 C 0.23387 -0.26725 0.73336
 C68 C 0.24594 -0.27970 0.75846
 C69 C 0.27159 -0.26715 0.77132
 C70 C 0.30898 -0.23475 0.77670
 N71 N 0.31124 -0.25529 0.79891
 C72 C 0.28814 -0.27512 0.79551
 C73 C 0.22844 -0.30385 0.76606
 N74 N 0.20573 -0.30676 0.74613
 C75 C 0.20919 -0.28430 0.72589
 C76 C 0.24012 -0.22439 0.69678
 N77 N 0.26046 -0.20171 0.69458
 C78 C 0.28029 -0.20444 0.71718
 H79 H 0.32425 -0.21634 0.77257
 H80 H 0.28285 -0.29375 0.80988
 H81 H 0.23278 -0.31849 0.78453
 H82 H 0.19446 -0.27975 0.70754
 H83 H 0.22174 -0.22836 0.68170
 H84 H 0.29886 -0.18941 0.72153
 C85 C 0.73294 -0.23975 0.75876
 C86 C 0.74503 -0.22670 0.73282
 C87 C 0.76976 -0.23902 0.71894
 C88 C 0.78266 -0.26460 0.73072
 C89 C 0.77081 -0.27732 0.75625
 C90 C 0.74563 -0.26494 0.77022
 C91 C 0.70897 -0.23279 0.77689
 N92 N 0.70646 -0.25335 0.79916
 C93 C 0.72909 -0.27307 0.79497
 C94 C 0.78788 -0.30156 0.76274
 N95 N 0.81001 -0.30419 0.74166
 C96 C 0.80667 -0.28146 0.72192
 C97 C 0.77663 -0.22181 0.69444
 N98 N 0.75665 -0.19937 0.69304
 C99 C 0.73721 -0.20225 0.71646
 H100 H 0.69402 -0.21453 0.77316
 H101 H 0.73399 -0.29177 0.80907
 H102 H 0.78359 -0.31648 0.78119
 H103 H 0.82098 -0.27663 0.70288
 H104 H 0.79464 -0.22563 0.67858
 H105 H 0.71895 -0.18742 0.72151
 C106 C 0.27869 0.23790 0.75824
 C107 C 0.26515 0.22482 0.73320
 C108 C 0.24008 0.23750 0.72105
 C109 C 0.22831 0.26349 0.73365
 C110 C 0.24173 0.27638 0.75827
 C111 C 0.26720 0.26354 0.77054
 C112 C 0.30283 0.23011 0.77513
 N113 N 0.30658 0.25050 0.79753
 C114 C 0.28465 0.27108 0.79457
 C115 C 0.22526 0.30089 0.76608
 N116 N 0.20218 0.30324 0.74676
 C117 C 0.20396 0.28044 0.72682
 C118 C 0.23150 0.21997 0.69731
 N119 N 0.25080 0.19699 0.69464
 C120 C 0.27146 0.19983 0.71656
 H121 H 0.31678 0.21114 0.77067
 H122 H 0.28063 0.28976 0.80927
 H123 H 0.22987 0.31598 0.78440
 H124 H 0.18831 0.27607 0.70901
 H125 H 0.21277 0.22390 0.68282
 H126 H 0.28953 0.18459 0.72042
 C127 C 0.27766 -0.24015 0.23231
 C128 C 0.26546 -0.22732 0.25828
 C129 C 0.24030 -0.23993 0.27168
 C130 C 0.22704 -0.26558 0.25933
 C131 C 0.23903 -0.27802 0.23376
 C132 C 0.26463 -0.26539 0.22033
 C133 C 0.30213 -0.23303 0.21464
 N134 N 0.30457 -0.25358 0.19221
 C135 C 0.28140 -0.27339 0.19579
 C136 C 0.22168 -0.30239 0.22662
 N137 N 0.19917 -0.30543 0.24728
 C138 C 0.20259 -0.28280 0.26748
 C139 C 0.23359 -0.22297 0.29646
 N140 N 0.25407 -0.20042 0.29849
 C141 C 0.27364 -0.20298 0.27516
 H142 H 0.31746 -0.21472 0.21881
 H143 H 0.27632 -0.29212 0.18142
 H144 H 0.22602 -0.31711 0.20797
 H145 H 0.18805 -0.27830 0.28637
 H146 H 0.21541 -0.22710 0.31214
 H147 H 0.29232 -0.18807 0.27057
 C148 C 0.70820 0.24840 0.24859
 C149 C 0.71943 0.23606 0.27477
 C150 C 0.74392 0.24900 0.28843
 C151 C 0.75744 0.27454 0.27617
 C152 C 0.74657 0.28662 0.25026
 C153 C 0.72158 0.27354 0.23638
 C154 C 0.68516 0.23999 0.23024
 N155 N 0.68406 0.25939 0.20712
 C156 C 0.70626 0.28005 0.21074
 C157 C 0.76483 0.31051 0.24309
 N158 N 0.78656 0.31348 0.26414
 C159 C 0.78187 0.29133 0.28446
 C160 C 0.75060 0.23176 0.31268
 N161 N 0.73071 0.20864 0.31407
 C162 C 0.71150 0.21120 0.29095
 H163 H 0.67017 0.22117 0.23362
 H164 H 0.71134 0.29810 0.19553
 H165 H 0.76181 0.32481 0.22406
 H166 H 0.79572 0.28664 0.30344
 H167 H 0.76868 0.23576 0.32812
 H168 H 0.69361 0.19563 0.28573
 O169 O 0.22425 0.02319 0.47028
 O170 O 0.22955 -0.03420 0.52814
 O171 O 0.22573 0.02358 0.52832
 O172 O 0.22837 -0.03448 0.47005
 O173 O 0.27758 -0.03041 0.46838
 O174 O 0.27495 0.02751 0.52667
 O175 O 0.27877 -0.03022 0.52652
 O176 O 0.27346 0.02725 0.46847
 Cu177 Cu 0.22205 -0.00588 0.49938
 Cu178 Cu 0.28112 -0.00106 0.49735
 C179 C 0.24791 0.03505 0.45942
 C180 C 0.25504 -0.04209 0.53724
 C181 C 0.24990 0.03551 0.53747
 C182 C 0.25345 -0.04237 0.45920
 O183 O 0.71738 0.02753 0.53172
 O184 O 0.71806 -0.02819 0.47134
 O185 O 0.72082 -0.03009 0.52941
 O186 O 0.71484 0.02952 0.47380
 O187 O 0.76406 0.03305 0.47117
 O188 O 0.77003 -0.02655 0.52662
 O189 O 0.76729 -0.02476 0.46869
 O190 O 0.76660 0.03110 0.52904
 Cu191 Cu 0.71284 -0.00070 0.50181
 Cu192 Cu 0.77193 0.00355 0.49858
 C193 C 0.74186 0.03890 0.54071
 C194 C 0.74278 -0.03606 0.45969
 C195 C 0.74647 -0.03849 0.53760
 C196 C 0.73845 0.04160 0.46306
 O197 O 0.46456 0.22906 0.02993
 O198 O 0.52558 0.22951 -0.02625
 O199 O 0.52276 0.22944 0.03180
 O200 O 0.46762 0.22812 -0.02830
 O201 O 0.46731 0.27715 -0.02847
 O202 O 0.52296 0.27847 0.03188
 O203 O 0.52566 0.27856 -0.02609
 O204 O 0.46470 0.27808 0.02970
 Cu205 Cu 0.49509 0.22413 0.00184
 Cu206 Cu 0.49510 0.28298 0.00173
 C207 C 0.45421 0.25356 0.03947
 C208 C 0.53610 0.25416 -0.03572
 C209 C 0.53243 0.25406 0.04210
 C210 C 0.45807 0.25233 -0.03879
 O211 O 0.53499 0.72030 0.02558
 O212 O 0.47757 0.71953 -0.03245
 O213 O 0.53577 0.71979 -0.03220
 O214 O 0.47667 0.71981 0.02542
 O215 O 0.47696 0.76886 0.02557
 O216 O 0.53608 0.76884 -0.03265
 O217 O 0.47789 0.76858 -0.03283
 O218 O 0.53528 0.76935 0.02564
 Cu219 Cu 0.50619 0.71496 -0.00337
 Cu220 Cu 0.50657 0.77385 -0.00355
 C221 C 0.54507 0.74493 0.03547
 C222 C 0.46793 0.74385 -0.04264
 C223 C 0.54608 0.74424 -0.04230
 C224 C 0.46664 0.74426 0.03537
 O225 O 0.02259 0.46981 0.23314
 O226 O -0.03243 0.53002 0.23265
 O227 O 0.02577 0.52758 0.23063
 O228 O -0.03572 0.47243 0.23489
 O229 O -0.03428 0.47435 0.28408
 O230 O 0.02672 0.53018 0.27981
 O231 O -0.03123 0.53221 0.28184
 O232 O 0.02392 0.47223 0.28230
 Cu233 Cu -0.00503 0.49971 0.22790
 Cu234 Cu -0.00358 0.50241 0.28693
 C235 C 0.03272 0.46073 0.25782
 C236 C -0.04125 0.54141 0.25717
 C237 C 0.03664 0.53847 0.25444
 C238 C -0.04558 0.46398 0.26022
 O239 O 0.03462 0.52690 0.71962
 O240 O -0.02439 0.46879 0.71795
 O241 O -0.02339 0.52684 0.71715
 O242 O 0.03387 0.46889 0.72021
 O243 O 0.03105 0.46947 0.76940
 O244 O -0.02598 0.52755 0.76637
 O245 O -0.02718 0.46989 0.76715
 O246 O 0.03220 0.52716 0.76885
 Cu247 Cu 0.00543 0.49773 0.71379
 Cu248 Cu 0.00227 0.49858 0.77286
 C249 C 0.04354 0.53691 0.74461
 C250 C -0.03599 0.45952 0.74229
 C251 C -0.03445 0.53715 0.74126
 C252 C 0.04233 0.45929 0.74533
 C253 C 0.35931 0.25385 0.12949
 C254 C 0.34998 0.22596 0.14111
 C255 C 0.32737 0.22442 0.16314
 C256 C 0.31365 0.25032 0.17385
 C257 C 0.32289 0.27789 0.16220
 C258 C 0.34537 0.27970 0.14038
 C259 C 0.38364 0.25455 0.10610
 C260 C 0.39473 0.28115 0.09336
 C261 C 0.41749 0.28066 0.07178
 C262 C 0.42985 0.25370 0.06220
 C263 C 0.41891 0.22704 0.07468
 C264 C 0.39605 0.22728 0.09651
 C265 C 0.36319 0.19979 0.13065
 C266 C 0.38569 0.20043 0.10882
 H267 H 0.35603 0.17842 0.13949
 H268 H 0.39517 0.17954 0.10150
 H269 H 0.32015 0.20296 0.17166
 H270 H 0.31300 0.29825 0.17031
 H271 H 0.42544 0.30159 0.06258
 H272 H 0.42829 0.20604 0.06754
 H273 H 0.35147 0.30158 0.13246
 H274 H 0.38625 0.30261 0.09974
 C275 C 0.63836 0.74636 0.12476
 C276 C 0.64290 0.77314 0.14081
 C277 C 0.66483 0.77496 0.16297
 C278 C 0.68319 0.75055 0.16931
 C279 C 0.67896 0.72427 0.15250
 C280 C 0.65693 0.72216 0.13076
 C281 C 0.61422 0.74512 0.10178
 C282 C 0.60670 0.71898 0.08593
 C283 C 0.58414 0.71901 0.06466
 C284 C 0.56857 0.74508 0.05846
 C285 C 0.57567 0.77117 0.07432
 C286 C 0.59804 0.77129 0.09608
 C287 C 0.62577 0.79813 0.13443
 C288 C 0.60407 0.79732 0.11233
 H289 H 0.62935 0.81876 0.14656
 H290 H 0.59160 0.81733 0.10810
 H291 H 0.66797 0.79591 0.17451
 H292 H 0.69197 0.70467 0.15650
 H293 H 0.57907 0.69853 0.05282
 H294 H 0.56352 0.79137 0.06998
 H295 H 0.65490 0.70133 0.11889
 H296 H 0.61778 0.69822 0.08969
 C297 C 0.63234 0.25513 -0.12417
 C298 C 0.63710 0.22852 -0.14033
 C299 C 0.65933 0.22737 -0.16271
 C300 C 0.67772 0.25233 -0.16928
 C301 C 0.67333 0.27842 -0.15230
 C302 C 0.65103 0.27985 -0.13027
 C303 C 0.60771 0.25568 -0.10111
 C304 C 0.59990 0.28158 -0.08516
 C305 C 0.57667 0.28098 -0.06407
 C306 C 0.56071 0.25455 -0.05812
 C307 C 0.56824 0.22865 -0.07392
 C308 C 0.59128 0.22911 -0.09552
 C309 C 0.61982 0.20306 -0.13392
 C310 C 0.59764 0.20326 -0.11180
 H311 H 0.62360 0.18255 -0.14613
 H312 H 0.58500 0.18293 -0.10763
 H313 H 0.66261 0.20653 -0.17433
 H314 H 0.68640 0.29839 -0.15639
 H315 H 0.57129 0.30131 -0.05225
 H316 H 0.55583 0.20817 -0.06977
 H317 H 0.64884 0.30058 -0.11833
 H318 H 0.61122 0.30260 -0.08879
 C319 C 0.37692 0.74154 -0.13421
 C320 C 0.37287 0.76786 -0.15072
 C321 C 0.35127 0.76873 -0.17328
 C322 C 0.33273 0.74382 -0.17941
 C323 C 0.33679 0.71792 -0.16239
 C324 C 0.35846 0.71675 -0.14034
 C325 C 0.40043 0.74135 -0.11061
 C326 C 0.40722 0.71575 -0.09411
 C327 C 0.42915 0.71672 -0.07224
 C328 C 0.44484 0.74320 -0.06604
 C329 C 0.43846 0.76880 -0.08248
 C330 C 0.41667 0.76797 -0.10487
 C331 C 0.39008 0.79334 -0.14430
 C332 C 0.41127 0.79348 -0.12168
 H333 H 0.38692 0.81362 -0.15679
 H334 H 0.42380 0.81384 -0.11744
 H335 H 0.34842 0.78932 -0.18520
 H336 H 0.32386 0.69787 -0.16639
 H337 H 0.43368 0.69661 -0.05997
 H338 H 0.45071 0.78930 -0.07814
 H339 H 0.36022 0.69616 -0.12832
 H340 H 0.39604 0.69469 -0.09780
 C341 C 0.12044 0.36639 0.25816
 C342 C 0.13192 0.35710 0.23008
 C343 C 0.15343 0.33466 0.22845
 C344 C 0.16369 0.32099 0.25443
 C345 C 0.15206 0.33003 0.28218
 C346 C 0.13079 0.35242 0.28410
 C347 C 0.09772 0.39066 0.25893
 C348 C 0.08543 0.40201 0.28571
 C349 C 0.06442 0.42468 0.28523
 C350 C 0.05498 0.43663 0.25810
 C351 C 0.06709 0.42549 0.23130
 C352 C 0.08838 0.40281 0.23152
 C353 C 0.12180 0.37013 0.20379
 C354 C 0.10043 0.39240 0.20449
 H355 H 0.13052 0.36296 0.18229
 H356 H 0.09332 0.40172 0.18350
 H357 H 0.16191 0.32752 0.20686
 H358 H 0.15980 0.32008 0.30259
 H359 H 0.05550 0.43282 0.30627
 H360 H 0.06011 0.43461 0.21017
 H361 H 0.12282 0.35840 0.30610
 H362 H 0.09176 0.39382 0.30727
 C363 C 0.13767 0.62719 0.74831
 C364 C 0.14313 0.64383 0.72206
 C365 C 0.16552 0.66612 0.72153
 C366 C 0.18351 0.67179 0.74668
 C367 C 0.17811 0.65458 0.77247
 C368 C 0.15562 0.63282 0.77332
 C369 C 0.11329 0.60395 0.74816
 C370 C 0.10497 0.58750 0.77372
 C371 C 0.08228 0.56595 0.77243
 C372 C 0.06738 0.56002 0.74564
 C373 C 0.07528 0.57645 0.72009
 C374 C 0.09780 0.59854 0.72126
 C375 C 0.12656 0.63780 0.69631
 C376 C 0.10463 0.61542 0.69581
 H377 H 0.13081 0.65038 0.67608
 H378 H 0.09266 0.61146 0.67524
 H379 H 0.16944 0.67818 0.70100
 H380 H 0.19061 0.65821 0.79268
 H381 H 0.07657 0.55369 0.79250
 H382 H 0.06360 0.57233 0.69936
 H383 H 0.15284 0.62060 0.79384
 H384 H 0.11549 0.59100 0.79500
 C385 C -0.12806 0.63642 0.25571
 C386 C -0.14385 0.64050 0.22891
 C387 C -0.16549 0.66273 0.22703
 C388 C -0.17165 0.68179 0.25140
 C389 C -0.15522 0.67788 0.27775
 C390 C -0.13395 0.65560 0.27992
 C391 C -0.10556 0.61202 0.25696
 C392 C -0.08978 0.60512 0.28304
 C393 C -0.06907 0.58218 0.28303
 C394 C -0.06336 0.56560 0.25703
 C395 C -0.07905 0.57218 0.23098
 C396 C -0.10022 0.59496 0.23084
 C397 C -0.13775 0.62258 0.20396
 C398 C -0.11623 0.60050 0.20482
 H399 H -0.14969 0.62579 0.18333
 H400 H -0.11225 0.58737 0.18484
 H401 H -0.17675 0.66550 0.20603
 H402 H -0.15913 0.69141 0.29736
 H403 H -0.05733 0.57754 0.30347
 H404 H -0.07508 0.55931 0.21083
 H405 H -0.12236 0.65385 0.30079
 H406 H -0.09320 0.61699 0.30374
 C407 C -0.12962 0.36848 0.74209
 C408 C -0.14621 0.36457 0.76889
 C409 C -0.16906 0.34287 0.77065
 C410 C -0.17562 0.32410 0.74617
 C411 C -0.15862 0.32803 0.71971
 C412 C -0.13616 0.34983 0.71766
 C413 C -0.10552 0.39205 0.74111
 C414 C -0.08855 0.39859 0.71516
 C415 C -0.06617 0.42058 0.71554
 C416 C -0.05996 0.43650 0.74180
 C417 C -0.07691 0.43034 0.76767
 C418 C -0.09969 0.40854 0.76746
 C419 C -0.13963 0.38203 0.79402
 C420 C -0.11672 0.40335 0.79339
 H421 H -0.15222 0.37898 0.81463
 H422 H -0.11237 0.41608 0.81353
 H423 H -0.18088 0.34016 0.79167
 H424 H -0.16289 0.31483 0.69998
 H425 H -0.05350 0.42495 0.69523
 H426 H -0.07258 0.44274 0.78803
 H427 H -0.12414 0.35156 0.69672
 H428 H -0.09223 0.38713 0.69431
 C429 C 0.23936 0.12572 0.36784
 C430 C 0.26651 0.13613 0.35474
 C431 C 0.26614 0.15811 0.33257
 C432 C 0.23905 0.17025 0.32327
 C433 C 0.21222 0.15994 0.33634
 C434 C 0.21229 0.13799 0.35825
 C435 C 0.24074 0.10223 0.39145
 C436 C 0.21502 0.09009 0.40555
 C437 C 0.21748 0.06834 0.42748
 C438 C 0.24559 0.05810 0.43606
 C439 C 0.27135 0.06998 0.42210
 C440 C 0.26914 0.09179 0.39990
 C441 C 0.29387 0.12472 0.36399
 C442 C 0.29516 0.10311 0.38613
 H443 H 0.31466 0.13271 0.35402
 H444 H 0.31690 0.09510 0.39254
 H445 H 0.28704 0.16621 0.32294
 H446 H 0.19099 0.16866 0.32933
 H447 H 0.19720 0.05959 0.43781
 H448 H 0.29322 0.06218 0.42842
 H449 H 0.19090 0.13104 0.36737
 H450 H 0.19278 0.09698 0.40000
 C451 C 0.74124 0.12841 0.63478
 C452 C 0.76918 0.14138 0.64243
 C453 C 0.77071 0.16349 0.66460
 C454 C 0.74476 0.17303 0.67953
 C455 C 0.71715 0.16000 0.67207
 C456 C 0.71533 0.13803 0.65003
 C457 C 0.74056 0.10507 0.61075
 C458 C 0.71391 0.09106 0.60121
 C459 C 0.71445 0.06961 0.57859
 C460 C 0.74151 0.06148 0.56487
 C461 C 0.76820 0.07522 0.57428
 C462 C 0.76791 0.09689 0.59694
 C463 C 0.79543 0.13223 0.62793
 C464 C 0.79482 0.11045 0.60572
 H465 H 0.81683 0.14211 0.63383
 H466 H 0.81576 0.10419 0.59516
 H467 H 0.79223 0.17306 0.67050
 H468 H 0.69674 0.16717 0.68297
 H469 H 0.69351 0.05939 0.57181
 H470 H 0.78927 0.06918 0.56384
 H471 H 0.69343 0.12901 0.64525
 H472 H 0.69239 0.09635 0.61079
 C473 C 0.26170 -0.13358 0.62824
 C474 C 0.23431 -0.14684 0.63774
 C475 C 0.23410 -0.16921 0.65951
 C476 C 0.26084 -0.17870 0.67226
 C477 C 0.28793 -0.16542 0.66293
 C478 C 0.28843 -0.14321 0.64123
 C479 C 0.26090 -0.10985 0.60480
 C480 C 0.28686 -0.09546 0.59353
 C481 C 0.28489 -0.07354 0.57168
 C482 C 0.25704 -0.06531 0.56048
 C483 C 0.23106 -0.07950 0.57157
 C484 C 0.23278 -0.10162 0.59347
 C485 C 0.20726 -0.13769 0.62557
 C486 C 0.20651 -0.11554 0.60396
 H487 H 0.18629 -0.14780 0.63288
 H488 H 0.18498 -0.10926 0.59527
 H489 H 0.21299 -0.17894 0.66687
 H490 H 0.30892 -0.17253 0.67213
 H491 H 0.30532 -0.06299 0.56355
 H492 H 0.20938 -0.07342 0.56308
 H493 H 0.30997 -0.13398 0.63496
 H494 H 0.30891 -0.10079 0.60120
 C495 C 0.74433 -0.12509 0.36516
 C496 C 0.77262 -0.13609 0.35633
 C497 C 0.77468 -0.15795 0.33393
 C498 C 0.74893 -0.16896 0.31981
 C499 C 0.72097 -0.15776 0.32834
 C500 C 0.71862 -0.13618 0.35070
 C501 C 0.74307 -0.10203 0.38945
 C502 C 0.71602 -0.09028 0.40047
 C503 C 0.71604 -0.06894 0.42319
 C504 C 0.74298 -0.05862 0.43551
 C505 C 0.77005 -0.07018 0.42470
 C506 C 0.77029 -0.09182 0.40200
 C507 C 0.79870 -0.12516 0.36977
 C508 C 0.79757 -0.10340 0.39201
 H509 H 0.82037 -0.13350 0.36295
 H510 H 0.81841 -0.09564 0.40165
 H511 H 0.79643 -0.16611 0.32716
 H512 H 0.70074 -0.16608 0.31800
 H513 H 0.69480 -0.06045 0.43109
 H514 H 0.79103 -0.06253 0.43415
 H515 H 0.69648 -0.12857 0.35628
 H516 H 0.69457 -0.09731 0.39200
 C517 C 0.64003 0.74304 -0.13306
 C518 C 0.64481 0.76936 -0.14966
 C519 C 0.66681 0.77041 -0.17233
 C520 C 0.68498 0.74567 -0.17862
 C521 C 0.68039 0.71985 -0.16134
 C522 C 0.65833 0.71851 -0.13910
 C523 C 0.61587 0.74260 -0.10954
 C524 C 0.60820 0.71693 -0.09306
 C525 C 0.58553 0.71762 -0.07141
 C526 C 0.56999 0.74389 -0.06542
 C527 C 0.57732 0.76956 -0.08179
 C528 C 0.59982 0.76900 -0.10396
 C529 C 0.62785 0.79465 -0.14333
 C530 C 0.60608 0.79457 -0.12078
 H531 H 0.63161 0.81493 -0.15588
 H532 H 0.59372 0.81477 -0.11664
 H533 H 0.67016 0.79102 -0.18431
 H534 H 0.69316 0.69998 -0.16530
 H535 H 0.58030 0.69746 -0.05917
 H536 H 0.56520 0.78990 -0.07760
 H537 H 0.65608 0.69799 -0.12690
 H538 H 0.61920 0.69603 -0.09663
 C539 C 0.37179 0.24872 -0.13496
 C540 C 0.35563 0.27490 -0.14030
 C541 C 0.33390 0.27535 -0.16272
 C542 C 0.32808 0.25011 -0.18073
 C543 C 0.34501 0.22444 -0.17566
 C544 C 0.36634 0.22371 -0.15318
 C545 C 0.39422 0.24891 -0.11027
 C546 C 0.41014 0.22347 -0.10203
 C547 C 0.43069 0.22474 -0.07884
 C548 C 0.43612 0.25139 -0.06330
 C549 C 0.42032 0.27687 -0.07124
 C550 C 0.39925 0.27573 -0.09429
 C551 C 0.36141 0.30063 -0.12343
 C552 C 0.38295 0.30112 -0.10115
 H553 H 0.34920 0.32080 -0.12762
 H554 H 0.38666 0.32163 -0.08886
 H555 H 0.32226 0.29588 -0.16645
 H556 H 0.34142 0.20427 -0.18835
 H557 H 0.44251 0.20473 -0.07318
 H558 H 0.42409 0.29751 -0.05918
 H559 H 0.37829 0.20326 -0.15053
 H560 H 0.40694 0.20230 -0.11299
 C561 C 0.37197 0.74288 0.12544
 C562 C 0.36754 0.76926 0.14209
 C563 C 0.34526 0.77028 0.16450
 C564 C 0.32643 0.74547 0.17037
 C565 C 0.33072 0.71958 0.15304
 C566 C 0.35306 0.71826 0.13112
 C567 C 0.39639 0.74247 0.10218
 C568 C 0.40373 0.71675 0.08573
 C569 C 0.42657 0.71749 0.06426
 C570 C 0.44264 0.74386 0.05841
 C571 C 0.43568 0.76959 0.07480
 C572 C 0.41300 0.76898 0.09681
 C573 C 0.38511 0.79463 0.13604
 C574 C 0.40710 0.79459 0.11368
 H575 H 0.38164 0.81495 0.14863
 H576 H 0.41990 0.81487 0.10973
 H577 H 0.34219 0.79091 0.17656
 H578 H 0.31748 0.69965 0.15673
 H579 H 0.43151 0.69729 0.05201
 H580 H 0.44821 0.79001 0.07073
 H581 H 0.35502 0.69769 0.11886
 H582 H 0.39232 0.69576 0.08918
 C583 C 0.62081 0.25417 0.13638
 C584 C 0.63222 0.28212 0.14593
 C585 C 0.65334 0.28371 0.16893
 C586 C 0.66317 0.25779 0.18288
 C587 C 0.65195 0.23016 0.17320
 C588 C 0.63114 0.22830 0.15030
 C589 C 0.59807 0.25341 0.11200
 C590 C 0.58544 0.22674 0.10093
 C591 C 0.56424 0.22715 0.07836
 C592 C 0.55493 0.25410 0.06614
 C593 C 0.56740 0.28084 0.07696
 C594 C 0.58884 0.28067 0.09968
 C595 C 0.62229 0.30829 0.13267
 C596 C 0.60106 0.30759 0.11009
 H597 H 0.63099 0.32970 0.13996
 H598 H 0.59407 0.32848 0.10065
 H599 H 0.66163 0.30519 0.17644
 H600 H 0.65950 0.20979 0.18322
 H601 H 0.55506 0.20616 0.07048
 H602 H 0.56047 0.30183 0.06766
 H603 H 0.62344 0.20637 0.14397
 H604 H 0.59155 0.20528 0.10933
 C605 C -0.12386 0.62965 0.73817
 C606 C -0.14067 0.63447 0.76463
 C607 C -0.16279 0.65633 0.76557
 C608 C -0.16839 0.67434 0.74058
 C609 C -0.15099 0.66970 0.71455
 C610 C -0.12925 0.64773 0.71331
 C611 C -0.10077 0.60574 0.73800
 C612 C -0.08390 0.59810 0.71237
 C613 C -0.06257 0.57575 0.71346
 C614 C -0.05733 0.56055 0.74011
 C615 C -0.07418 0.56781 0.76569
 C616 C -0.09595 0.58996 0.76476
 C617 C -0.13510 0.61774 0.79023
 C618 C -0.11304 0.59618 0.79037
 H619 H -0.14786 0.62152 0.81059
 H620 H -0.10947 0.58401 0.81082
 H621 H -0.17483 0.65972 0.78635
 H622 H -0.15446 0.68241 0.69453
 H623 H -0.04995 0.57054 0.69336
 H624 H -0.07059 0.55596 0.78634
 H625 H -0.11688 0.64538 0.69264
 H626 H -0.08690 0.60895 0.69123
 C627 C -0.14302 0.37711 0.26590
 C628 C -0.15958 0.37233 0.23956
 C629 C -0.18334 0.35152 0.23922
 C630 C -0.19074 0.33444 0.26469
 C631 C -0.17381 0.33930 0.29068
 C632 C -0.15052 0.36025 0.29133
 C633 C -0.11791 0.39962 0.26536
 C634 C -0.10092 0.40695 0.29075
 C635 C -0.07761 0.42789 0.28902
 C636 C -0.07045 0.44195 0.26195
 C637 C -0.08737 0.43500 0.23658
 C638 C -0.11112 0.41425 0.23815
 C639 C -0.15203 0.38797 0.21349
 C640 C -0.12817 0.40826 0.21274
 H641 H -0.16459 0.38426 0.19323
 H642 H -0.12310 0.41957 0.19193
 H643 H -0.19516 0.34804 0.21855
 H644 H -0.17877 0.32751 0.31114
 H645 H -0.06500 0.43290 0.30896
 H646 H -0.08229 0.44599 0.21559
 H647 H -0.13860 0.36272 0.31200
 H648 H -0.10530 0.39694 0.31221
 C649 C 0.13452 0.36948 0.74951
 C650 C 0.14390 0.35701 0.72193
 C651 C 0.16610 0.33521 0.72120
 C652 C 0.17948 0.32567 0.74761
 C653 C 0.17035 0.33827 0.77488
 C654 C 0.14818 0.35982 0.77589
 C655 C 0.11058 0.39254 0.74931
 C656 C 0.09918 0.40584 0.77556
 C657 C 0.07700 0.42731 0.77417
 C658 C 0.06558 0.43620 0.74662
 C659 C 0.07665 0.42297 0.72035
 C660 C 0.09887 0.40124 0.72150
 C661 C 0.13123 0.36644 0.69520
 C662 C 0.10930 0.38816 0.69498
 H663 H 0.13846 0.35696 0.67408
 H664 H 0.10030 0.39476 0.67369
 H665 H 0.17332 0.32598 0.69997
 H666 H 0.18007 0.33109 0.79560
 H667 H 0.06888 0.43709 0.79481
 H668 H 0.06793 0.42952 0.69891
 H669 H 0.14213 0.36856 0.79755
 H670 H 0.10701 0.40000 0.79740
 C671 C 0.13161 0.62791 0.24747
 C672 C 0.13692 0.64522 0.27335
 C673 C 0.15922 0.66758 0.27311
 C674 C 0.17719 0.67286 0.24749
 C675 C 0.17195 0.65500 0.22206
 C676 C 0.14958 0.63306 0.22200
 C677 C 0.10725 0.60462 0.24847
 C678 C 0.09916 0.58732 0.22342
 C679 C 0.07629 0.56596 0.22548
 C680 C 0.06097 0.56108 0.25255
 C681 C 0.06876 0.57824 0.27762
 C682 C 0.09147 0.60010 0.27569
 C683 C 0.12020 0.63989 0.29949
 C684 C 0.09818 0.61764 0.30072
 H685 H 0.12434 0.65299 0.31943
 H686 H 0.08602 0.61431 0.32154
 H687 H 0.16298 0.68011 0.29341
 H688 H 0.18446 0.65823 0.20154
 H689 H 0.07069 0.55310 0.20577
 H690 H 0.05683 0.57492 0.29859
 H691 H 0.14686 0.62038 0.20171
 H692 H 0.11000 0.59002 0.20197
 C693 C 0.75562 -0.13148 0.62663
 C694 C 0.72861 -0.14166 0.64016
 C695 C 0.72913 -0.16390 0.66204
 C696 C 0.75623 -0.17649 0.67065
 C697 C 0.78293 -0.16651 0.65707
 C698 C 0.78271 -0.14431 0.63541
 C699 C 0.75410 -0.10754 0.60350
 C700 C 0.77969 -0.09550 0.58909
 C701 C 0.77710 -0.07319 0.56777
 C702 C 0.74897 -0.06229 0.56013
 C703 C 0.72333 -0.07413 0.57433
 C704 C 0.72569 -0.09649 0.59592
 C705 C 0.70123 -0.12970 0.63172
 C706 C 0.69980 -0.10768 0.61003
 H707 H 0.68054 -0.13754 0.64203
 H708 H 0.67804 -0.09920 0.60427
 H709 H 0.70832 -0.17177 0.67205
 H710 H 0.80416 -0.17561 0.66353
 H711 H 0.79728 -0.06448 0.55720
 H712 H 0.70146 -0.06583 0.56873
 H713 H 0.80400 -0.13759 0.62590
 H714 H 0.80194 -0.10288 0.59397
 C715 C 0.25717 -0.13340 0.36653
 C716 C 0.22950 -0.14636 0.35799
 C717 C 0.22866 -0.16841 0.33568
 C718 C 0.25505 -0.17785 0.32146
 C719 C 0.28241 -0.16492 0.32994
 C720 C 0.28354 -0.14305 0.35214
 C721 C 0.25708 -0.10991 0.39046
 C722 C 0.28338 -0.09575 0.40070
 C723 C 0.28209 -0.07396 0.42297
 C724 C 0.25460 -0.06563 0.43567
 C725 C 0.22827 -0.07965 0.42568
 C726 C 0.22931 -0.10163 0.40331
 C727 C 0.20282 -0.13720 0.37166
 C728 C 0.20272 -0.11531 0.39379
 H729 H 0.18163 -0.14710 0.36512
 H730 H 0.18145 -0.10900 0.40363
 H731 H 0.20733 -0.17791 0.32905
 H732 H 0.30315 -0.17203 0.31965
 H733 H 0.30278 -0.06356 0.43021
 H734 H 0.20687 -0.07348 0.43532
 H735 H 0.30528 -0.13408 0.35765
 H736 H 0.30519 -0.10111 0.39186
 C737 C 0.73044 0.13776 0.37731
 C738 C 0.75762 0.15199 0.36865
 C739 C 0.75749 0.17542 0.34806
 C740 C 0.73063 0.18495 0.33562
 C741 C 0.70374 0.17078 0.34415
 C742 C 0.70357 0.14756 0.36473
 C743 C 0.73160 0.11280 0.39938
 C744 C 0.70586 0.09743 0.40978
 C745 C 0.70816 0.07436 0.43035
 C746 C 0.73613 0.06592 0.44106
 C747 C 0.76190 0.08108 0.43083
 C748 C 0.75985 0.10439 0.41026
 C749 C 0.78480 0.14265 0.38038
 C750 C 0.78590 0.11933 0.40067
 H751 H 0.80561 0.15350 0.37370
 H752 H 0.80752 0.11292 0.40903
 H753 H 0.77844 0.18587 0.34126
 H754 H 0.68269 0.17790 0.33511
 H755 H 0.68789 0.06308 0.43787
 H756 H 0.78367 0.07487 0.43901
 H757 H 0.68218 0.13761 0.37040
 H758 H 0.68373 0.10286 0.40243
 C759 C 0.24694 0.12821 0.62848
 C760 C 0.27480 0.13805 0.63989
 C761 C 0.27587 0.16050 0.66178
 C762 C 0.24955 0.17372 0.67243
 C763 C 0.22199 0.16406 0.66097
 C764 C 0.22063 0.14161 0.63936
 C765 C 0.24679 0.10412 0.60515
 C766 C 0.22029 0.09231 0.59279
 C767 C 0.22138 0.07003 0.57099
 C768 C 0.24888 0.05894 0.56083
 C769 C 0.27540 0.07043 0.57313
 C770 C 0.27456 0.09273 0.59518
 C771 C 0.30145 0.12564 0.62924
 C772 C 0.30134 0.10357 0.60729
 H773 H 0.32278 0.13322 0.63791
 H774 H 0.32259 0.09481 0.59972
 H775 H 0.29732 0.16812 0.67013
 H776 H 0.20133 0.17366 0.66902
 H777 H 0.20055 0.06156 0.56195
 H778 H 0.29680 0.06196 0.56562
 H779 H 0.19877 0.13518 0.63149
 H780 H 0.19847 0.09988 0.59961
   
