data_POSCAR
  _audit_creation_date              2014-09-24
  _audit_creation_method            'ToBaCCo'
  _symmetry_space_group_name_H-M    'P1'
  _symmetry_Int_Tables_number       1
  _symmetry_cell_setting            triclinic
  loop_
  _symmetry_equiv_pos_as_xyz
 x,y,z
_cell_length_a 29.4206
_cell_length_b 29.6931
_cell_length_c 29.8095
_cell_angle_alpha 90.288800
_cell_angle_beta 90.079100
_cell_angle_gamma 89.773400
loop_
  _atom_site_label
  _atom_site_type_symbol
  _atom_site_fract_x
  _atom_site_fract_y
  _atom_site_fract_z
C1 C 0.33518 0.40081 1.36960
 C2 C 0.36697 0.40153 1.33450
 C3 C 0.40043 0.36869 1.33217
 C4 C 0.40273 0.33493 1.36477
 C5 C 0.37163 0.33444 1.39953
 C6 C 0.33763 0.36756 1.40198
 C7 C 0.29644 0.42559 1.37806
 N8 N 0.27566 0.40825 1.41473
 C9 C 0.30054 0.37278 1.42965
 C10 C 0.37975 0.29606 1.42403
 N11 N 0.41480 0.27333 1.40476
 C12 C 0.42920 0.29681 1.36856
 C13 C 0.42437 0.37551 1.29327
 N14 N 0.40644 0.41174 1.27200
 C15 C 0.37136 0.42800 1.29685
 H16 H 0.28326 0.45301 1.35799
 H17 H 0.29128 0.35104 1.45717
 H18 H 0.36049 0.28454 1.45267
 H19 H 0.45580 0.28628 1.34573
 H20 H 0.45217 0.35499 1.28094
 H21 H 0.34991 0.45613 1.28748
 C22 C 1.16474 0.59843 0.87184
 C23 C 1.13264 0.59658 0.83706
 C24 C 1.09875 0.62897 0.83451
 C25 C 1.09639 0.66346 0.86673
 C26 C 1.12814 0.66523 0.90101
 C27 C 1.16248 0.63248 0.90367
 C28 C 1.20356 0.57396 0.88033
 N29 N 1.22464 0.59222 0.91658
 C30 C 1.19988 0.62804 0.93115
 C31 C 1.12009 0.70416 0.92493
 N32 N 1.08413 0.72577 0.90616
 C33 C 1.06935 0.70127 0.87051
 C34 C 1.07499 0.62117 0.79550
 N35 N 1.09350 0.58484 0.77461
 C36 C 1.12876 0.56947 0.79962
 H37 H 1.21652 0.54599 0.86064
 H38 H 1.20932 0.65038 0.95839
 H39 H 1.13983 0.71670 0.95299
 H40 H 1.04225 0.71105 0.84794
 H41 H 1.04727 0.64128 0.78238
 H42 H 1.15099 0.54184 0.79038
 C43 C 0.66760 -0.10313 0.13092
 C44 C 0.63488 -0.10114 0.16489
 C45 C 0.60014 -0.13236 0.16596
 C46 C 0.59786 -0.16618 0.13300
 C47 C 0.63042 -0.16826 0.09946
 C48 C 0.66551 -0.13636 0.09830
 C49 C 0.70658 -0.07895 0.12381
 N50 N 0.72828 -0.09658 0.08759
 C51 C 0.70346 -0.13164 0.07158
 C52 C 0.62214 -0.20664 0.07475
 N53 N 0.58539 -0.22762 0.09236
 C54 C 0.57025 -0.20321 0.12797
 C55 C 0.57562 -0.12429 0.20453
 N56 N 0.59492 -0.08920 0.22665
 C57 C 0.63110 -0.07474 0.20271
 H58 H 0.71861 -0.05121 0.14421
 H59 H 0.71307 -0.15291 0.04352
 H60 H 0.64235 -0.21936 0.04709
 H61 H 0.54257 -0.21267 0.14982
 H62 H 0.54696 -0.14350 0.21658
 H63 H 0.65388 -0.04800 0.21278
 C64 C -0.16538 1.10319 -0.36906
 C65 C -0.13234 1.10109 -0.33514
 C66 C -0.09846 1.13328 -0.33307
 C67 C -0.09690 1.16776 -0.36500
 C68 C -0.12965 1.16992 -0.39831
 C69 C -0.16415 1.13751 -0.40031
 C70 C -0.20416 1.07865 -0.37724
 N71 N -0.22642 1.09743 -0.41244
 C72 C -0.20225 1.13340 -0.42686
 C73 C -0.12185 1.20852 -0.42239
 N74 N -0.08504 1.22955 -0.40469
 C75 C -0.06954 1.20504 -0.36950
 C76 C -0.07376 1.12541 -0.29469
 N77 N -0.09181 1.08932 -0.27353
 C78 C -0.12747 1.07401 -0.29802
 H79 H -0.21622 1.05024 -0.35804
 H80 H -0.21221 1.15576 -0.45372
 H81 H -0.14212 1.22110 -0.45001
 H82 H -0.04148 1.21431 -0.34787
 H83 H -0.04574 1.14546 -0.28231
 H84 H -0.14937 1.04650 -0.28841
 C85 C 0.66318 0.60272 0.63249
 C86 C 0.62927 0.60108 0.66538
 C87 C 0.59525 0.63341 0.66627
 C88 C 0.59489 0.66798 0.63440
 C89 C 0.62870 0.66985 0.60218
 C90 C 0.66305 0.63697 0.60117
 C91 C 0.70163 0.57726 0.62530
 N92 N 0.72475 0.59525 0.59044
 C93 C 0.70165 0.63184 0.57550
 C94 C 0.62188 0.70869 0.57807
 N95 N 0.58472 0.73015 0.59476
 C96 C 0.56795 0.70565 0.62924
 C97 C 0.56930 0.62558 0.70378
 N98 N 0.58698 0.58952 0.72556
 C99 C 0.62359 0.57427 0.70244
 H100 H 0.71262 0.54859 0.64483
 H101 H 0.71276 0.65359 0.54866
 H102 H 0.64309 0.72117 0.55124
 H103 H 0.53936 0.71523 0.65007
 H104 H 0.54105 0.64590 0.71549
 H105 H 0.64548 0.54687 0.71293
 C106 C 0.83585 0.40059 0.12915
 C107 C 0.86810 0.40139 0.16371
 C108 C 0.90114 0.36822 0.16604
 C109 C 0.90217 0.33363 0.13385
 C110 C 0.87017 0.33272 0.09970
 C111 C 0.83664 0.36642 0.09740
 C112 C 0.79795 0.42647 0.12112
 N113 N 0.77560 0.40884 0.08533
 C114 C 0.79880 0.37202 0.07061
 C115 C 0.87739 0.29374 0.07547
 N116 N 0.91269 0.27108 0.09428
 C117 C 0.92810 0.29515 0.12997
 C118 C 0.92540 0.37552 0.20492
 N119 N 0.90751 0.41198 0.22614
 C120 C 0.87254 0.42813 0.20126
 H121 H 0.78647 0.45475 0.14121
 H122 H 0.78798 0.35005 0.04355
 H123 H 0.85753 0.28193 0.04717
 H124 H 0.95529 0.28495 0.15225
 H125 H 0.95274 0.35481 0.21788
 H126 H 0.85093 0.45623 0.21052
 C127 C 0.33457 0.09764 0.87011
 C128 C 0.36657 0.09743 0.83521
 C129 C 0.39969 0.13043 0.83372
 C130 C 0.40154 0.16374 0.86714
 C131 C 0.37017 0.16371 0.90164
 C132 C 0.33639 0.13068 0.90300
 C133 C 0.29588 0.07284 0.87773
 N134 N 0.27428 0.09042 0.91408
 C135 C 0.29886 0.12566 0.92988
 C136 C 0.37766 0.20162 0.92718
 N137 N 0.41274 0.22460 0.90893
 C138 C 0.42757 0.20189 0.87217
 C139 C 0.42354 0.12439 0.79454
 N140 N 0.40582 0.08856 0.77233
 C141 C 0.37106 0.07171 0.79684
 H142 H 0.28314 0.04552 0.85712
 H143 H 0.28927 0.14730 0.95763
 H144 H 0.35787 0.21259 0.95582
 H145 H 0.45424 0.21320 0.84998
 H146 H 0.45099 0.14527 0.78259
 H147 H 0.34975 0.04383 0.78666
 C148 C 0.16753 0.89860 0.36799
 C149 C 0.13506 0.89949 0.33346
 C150 C 0.10049 0.86802 0.33273
 C151 C 0.09811 0.83511 0.36612
 C152 C 0.13003 0.83428 0.40025
 C153 C 0.16492 0.86632 0.40128
 C154 C 0.20663 0.92279 0.37546
 N155 N 0.22753 0.90609 0.41247
 C156 C 0.20240 0.87151 0.42852
 C157 C 0.12168 0.79651 0.42548
 N158 N 0.08581 0.77448 0.40718
 C159 C 0.07101 0.79783 0.37101
 C160 C 0.07564 0.87497 0.29431
 N161 N 0.09428 0.90982 0.27172
 C162 C 0.13071 0.92501 0.29517
 H163 H 0.21972 0.94967 0.35479
 H164 H 0.21147 0.85063 0.45683
 H165 H 0.14151 0.78463 0.45369
 H166 H 0.04388 0.78744 0.34875
 H167 H 0.04695 0.85523 0.28300
 H168 H 0.15290 0.95193 0.28455
 Zn169 Zn 0.01216 1.05194 -0.02904
 Zn170 Zn -0.03603 0.96334 -0.03709
 Zn171 Zn 0.05323 0.96980 0.01149
 Zn172 Zn -0.02958 1.01105 0.05173
 O173 O -0.00015 0.99894 -0.00083
 O174 O -0.01300 1.05469 -0.08329
 O175 O -0.00938 0.91035 -0.05077
 O176 O 0.10212 0.99890 -0.00885
 O177 O -0.04961 0.98985 -0.08976
 O178 O 0.07158 1.06052 -0.03791
 O179 O 0.05572 0.91533 -0.01358
 O180 O 0.00029 0.99095 0.10005
 O181 O -0.08943 0.94936 -0.01127
 O182 O 0.06230 0.96088 0.07018
 O183 O -0.08406 0.98530 0.05389
 O184 O -0.03941 1.06985 0.06091
 O185 O -0.00864 1.10047 0.00063
 C186 C -0.03791 1.02779 -0.10533
 C187 C 0.02856 0.89386 -0.03874
 C188 C 0.10588 1.03620 -0.02894
 C189 C 0.03794 0.97045 0.10396
 C190 C -0.10564 0.96038 0.02668
 C191 C -0.02974 1.10403 0.03753
 Zn192 Zn 0.47197 0.01354 0.44606
 Zn193 Zn 0.46440 -0.03402 0.53416
 Zn194 Zn 0.55454 -0.02713 0.48758
 Zn195 Zn 0.51235 0.05477 0.52801
 O196 O 0.50075 0.00169 0.49905
 O197 O 0.41712 -0.01141 0.44297
 O198 O 0.49100 -0.08692 0.54778
 O199 O 0.56388 -0.03703 0.42905
 O200 O 0.41116 -0.04761 0.50751
 O201 O 0.50205 -0.00758 0.39826
 O202 O 0.55723 -0.08129 0.51291
 O203 O 0.57160 0.06397 0.53771
 O204 O 0.45018 -0.00776 0.58689
 O205 O 0.60317 0.00283 0.50821
 O206 O 0.48642 0.05737 0.58191
 O207 O 0.49184 0.10306 0.49832
 O208 O 0.46291 0.07233 0.43681
 C209 C 0.39510 -0.03613 0.46970
 C210 C 0.52955 -0.10298 0.53703
 C211 C 0.53968 -0.02821 0.39496
 C212 C 0.60633 0.04024 0.52865
 C213 C 0.46143 0.03018 0.60318
 C214 C 0.47187 0.10653 0.46079
 Zn215 Zn 0.94706 0.47113 0.48770
 Zn216 Zn 1.03680 0.46443 0.53537
 Zn217 Zn 1.02924 0.51250 0.44739
 Zn218 Zn 0.98764 0.55304 0.52910
 O219 O 1.00028 0.50017 0.50000
 O220 O 0.94479 0.41688 0.51277
 O221 O 1.09056 0.45139 0.50917
 O222 O 0.99980 0.49169 0.39905
 O223 O 1.01065 0.41128 0.54859
 O224 O 0.93818 0.46171 0.42905
 O225 O 1.08441 0.48794 0.44478
 O226 O 1.00784 0.60162 0.50005
 O227 O 1.05010 0.49059 0.58844
 O228 O 1.03770 0.57138 0.43871
 O229 O 1.01295 0.55546 0.58328
 O230 O 0.92820 0.56184 0.53827
 O231 O 0.89797 0.50064 0.50798
 C232 C 0.97234 0.39520 0.53732
 C233 C 1.10670 0.46329 0.47158
 C234 C 0.96240 0.47100 0.39524
 C235 C 1.02818 0.60538 0.46283
 C236 C 1.03806 0.52834 0.60480
 C237 C 0.89401 0.53781 0.52873
 Zn238 Zn 0.47014 0.48633 0.94766
 Zn239 Zn 0.46429 0.53600 1.03542
 Zn240 Zn 0.51378 0.44765 1.02894
 Zn241 Zn 0.55296 0.52894 0.98593
 O242 O 0.50021 0.49984 0.99961
 O243 O 0.41494 0.51083 0.94587
 O244 O 0.45110 0.51026 1.08847
 O245 O 0.49377 0.39849 1.00031
 O246 O 0.41038 0.54910 1.00975
 O247 O 0.46180 0.42727 0.93952
 O248 O 0.48870 0.44559 1.08327
 O249 O 0.60271 0.49986 1.00511
 O250 O 0.49076 0.58919 1.04828
 O251 O 0.57343 0.43954 1.03738
 O252 O 0.55566 0.58348 1.01092
 O253 O 0.56012 0.53792 0.92706
 O254 O 0.49821 0.50657 0.89863
 C255 C 0.39344 0.53642 0.97261
 C256 C 0.46317 0.47260 1.10467
 C257 C 0.47243 0.39383 0.96365
 C258 C 0.60731 0.46330 1.02646
 C259 C 0.52868 0.60530 1.03609
 C260 C 0.53508 0.52790 0.89388
 C261 C 1.17647 0.46410 0.41455
 C262 C 1.22122 0.47068 0.44124
 C263 C 1.23361 0.42164 0.43072
 C264 C 1.18991 0.41479 0.40368
 C265 C 1.21097 0.40512 0.47391
 C266 C 1.19726 0.45461 0.48467
 C267 C 1.15305 0.44792 0.45779
 C268 C 1.16611 0.39878 0.44716
 H269 H 1.16199 0.48846 0.39023
 H270 H 1.24460 0.49977 0.43850
 H271 H 1.18781 0.39826 0.37027
 H272 H 1.22547 0.38088 0.49832
 H273 H 1.19963 0.47111 0.51807
 H274 H 1.14294 0.36950 0.44977
 C275 C 0.32280 0.53495 0.91665
 C276 C 0.27839 0.52999 0.94401
 C277 C 0.26666 0.57887 0.93256
 C278 C 0.31006 0.58411 0.90487
 C279 C 0.29019 0.59640 0.97510
 C280 C 0.30324 0.54704 0.98679
 C281 C 0.34714 0.55210 0.95924
 C282 C 0.33476 0.60111 0.94770
 H283 H 0.33649 0.50957 0.89271
 H284 H 0.25446 0.50123 0.94219
 H285 H 0.31193 0.59954 0.87109
 H286 H 0.27641 0.62168 0.99907
 H287 H 0.30110 0.53163 1.02056
 H288 H 0.35848 0.63005 0.94939
 C289 C -0.15841 0.91992 0.08591
 C290 C -0.19938 0.95140 0.09532
 C291 C -0.23011 0.91734 0.07128
 C292 C -0.19002 0.88547 0.06234
 C293 C -0.22363 0.94078 0.02612
 C294 C -0.19183 0.97513 0.04983
 C295 C -0.15116 0.94367 0.04070
 C296 C -0.18222 0.90945 0.01678
 H297 H -0.13111 0.91145 0.11023
 H298 H -0.20588 0.96880 0.12772
 H299 H -0.19010 0.84854 0.06790
 H300 H -0.25123 0.94907 0.00209
 H301 H -0.19206 1.01209 0.04440
 H302 H -0.17458 0.89247 -0.01561
 C303 C 0.69408 0.06132 0.51335
 C304 C 0.70369 0.10781 0.53540
 C305 C 0.73169 0.08371 0.57155
 C306 C 0.72332 0.03766 0.54980
 C307 C 0.69007 0.07889 0.60192
 C308 C 0.66104 0.10248 0.56545
 C309 C 0.65199 0.05630 0.54350
 C310 C 0.68058 0.03254 0.57972
 H311 H 0.69512 0.05387 0.47683
 H312 H 0.71318 0.13885 0.51715
 H313 H 0.74968 0.01150 0.54374
 H314 H 0.68926 0.08638 0.63843
 H315 H 0.63506 0.12896 0.57175
 H316 H 0.67053 0.00149 0.59770
 C317 C 0.42118 0.18083 0.46882
 C318 C 0.45217 0.22264 0.46392
 C319 C 0.43038 0.23151 0.41813
 C320 C 0.39896 0.19082 0.42273
 C321 C 0.46663 0.20325 0.39392
 C322 C 0.48870 0.19314 0.44014
 C323 C 0.45748 0.15197 0.44494
 C324 C 0.43552 0.16152 0.39902
 H325 H 0.40273 0.17104 0.49971
 H326 H 0.45865 0.24854 0.49011
 H327 H 0.36198 0.19073 0.41531
 H328 H 0.48535 0.21249 0.36304
 H329 H 0.52569 0.19346 0.44752
 H330 H 0.42881 0.13598 0.37252
 C331 C 0.94759 0.33845 0.60270
 C332 C 0.90366 0.31432 0.58688
 C333 C 0.93121 0.27082 0.58143
 C334 C 0.97483 0.29379 0.59778
 C335 C 0.94206 0.28148 0.53241
 C336 C 0.91485 0.32598 0.53758
 C337 C 0.95853 0.34974 0.55355
 C338 C 0.98592 0.30574 0.54828
 H339 H 0.95003 0.36239 0.63132
 H340 H 0.86974 0.31696 0.60295
 H341 H 0.99943 0.28022 0.62257
 H342 H 0.93949 0.25735 0.50397
 H343 H 0.89029 0.33948 0.51269
 H344 H 1.01984 0.30283 0.53224
 C345 C 0.01379 0.80479 -0.04915
 C346 C 0.02561 0.79147 -0.09827
 C347 C 0.06843 0.76774 -0.08078
 C348 C 0.05683 0.77975 -0.03212
 C349 C 0.09693 0.81036 -0.08620
 C350 C 0.05380 0.83528 -0.10318
 C351 C 0.04212 0.84792 -0.05439
 C352 C 0.08499 0.82340 -0.03727
 H353 H -0.02049 0.80315 -0.03375
 H354 H 0.00125 0.77797 -0.12336
 H355 H 0.05837 0.75618 -0.00337
 H356 H 0.13121 0.81170 -0.10164
 H357 H 0.05239 0.85866 -0.13209
 H358 H 0.10931 0.83683 -0.01207
 C359 C 0.55370 0.66346 1.10075
 C360 C 0.59735 0.68757 1.08453
 C361 C 0.56945 0.73076 1.07873
 C362 C 0.52610 0.70780 1.09547
 C363 C 0.55838 0.71905 1.02986
 C364 C 0.58594 0.67483 1.03537
 C365 C 0.54254 0.65110 1.05176
 C366 C 0.51480 0.69479 1.04614
 H367 H 0.55162 0.64008 1.12961
 H368 H 0.63139 0.68552 1.10050
 H369 H 0.50151 0.72166 1.12017
 H370 H 0.56060 0.74264 1.00118
 H371 H 0.61044 0.66097 1.01055
 H372 H 0.48076 0.69713 1.03020
 C373 C 0.42368 0.41301 1.15777
 C374 C 0.45563 0.40477 1.19822
 C375 C 0.42092 0.42876 1.22843
 C376 C 0.38863 0.43659 1.18883
 C377 C 0.44387 0.47438 1.22127
 C378 C 0.47886 0.45069 1.19004
 C379 C 0.44690 0.45868 1.14993
 C380 C 0.41205 0.48257 1.18046
 H381 H 0.41548 0.38799 1.13120
 H382 H 0.47359 0.37266 1.20532
 H383 H 0.35146 0.43039 1.18917
 H384 H 0.45189 0.49909 1.24816
 H385 H 0.51607 0.45675 1.19006
 H386 H 0.39436 0.51468 1.17264
 C387 C 0.60126 -0.06640 0.33998
 C388 C 0.57634 -0.10262 0.31168
 C389 C 0.58101 -0.07229 0.27056
 C390 C 0.60638 -0.03639 0.29788
 C391 C 0.53509 -0.04971 0.27983
 C392 C 0.53013 -0.07961 0.32200
 C393 C 0.55522 -0.04362 0.34983
 C394 C 0.56006 -0.01349 0.30827
 H395 H 0.62830 -0.07309 0.36512
 H396 H 0.58325 -0.13939 0.31217
 H397 H 0.63785 -0.01867 0.28777
 H398 H 0.50836 -0.04326 0.25433
 H399 H 0.49866 -0.09715 0.33250
 H400 H 0.55320 0.02329 0.30748
 C401 C -0.07626 1.08803 -0.15906
 C402 C -0.04358 1.09581 -0.19891
 C403 C -0.07788 1.07225 -0.22976
 C404 C -0.11089 1.06488 -0.19077
 C405 C -0.05536 1.02632 -0.22213
 C406 C -0.02078 1.04958 -0.19026
 C407 C -0.05350 1.04204 -0.15077
 C408 C -0.08792 1.01858 -0.18195
 H409 H -0.08480 1.11315 -0.13265
 H410 H -0.02534 1.12767 -0.20579
 H411 H -0.14802 1.07159 -0.19183
 H412 H -0.04700 1.00151 -0.24887
 H413 H 0.01638 1.04300 -0.18953
 H414 H -0.10595 0.98674 -0.17444
 C415 C 1.10304 0.55297 0.66342
 C416 C 1.08591 0.59601 0.68788
 C417 C 1.07982 0.56821 0.73054
 C418 C 1.09742 0.52545 0.70719
 C419 C 1.03056 0.55710 0.71826
 C420 C 1.03640 0.58461 0.67466
 C421 C 1.05366 0.54178 0.65060
 C422 C 1.04771 0.51410 0.69371
 H423 H 1.13257 0.55111 0.64033
 H424 H 1.10181 0.62981 0.68642
 H425 H 1.12257 0.50132 0.72111
 H426 H 1.00123 0.55912 0.74157
 H427 H 1.01119 0.60888 0.66102
 H428 H 1.03184 0.48030 0.69548
 C429 C 0.80389 0.52591 0.53907
 C430 C 0.79267 0.53649 0.58883
 C431 C 0.76867 0.57973 0.57365
 C432 C 0.77879 0.56944 0.52425
 C433 C 0.81241 0.60711 0.57855
 C434 C 0.83735 0.56355 0.59331
 C435 C 0.84813 0.55307 0.54382
 C436 C 0.82370 0.59640 0.52883
 H437 H 0.80084 0.49243 0.52263
 H438 H 0.77976 0.51182 0.61353
 H439 H 0.75389 0.57215 0.49638
 H440 H 0.81497 0.64057 0.59511
 H441 H 0.86194 0.56099 0.62148
 H442 H 0.83701 0.62073 0.50399
 C443 C 0.66571 0.44038 1.09027
 C444 C 0.69012 0.39604 1.07658
 C445 C 0.73373 0.42304 1.06960
 C446 C 0.71029 0.46709 1.08374
 C447 C 0.72243 0.43099 1.02010
 C448 C 0.67754 0.40444 1.02675
 C449 C 0.65362 0.44854 1.04071
 C450 C 0.69779 0.47529 1.03389
 H451 H 0.64188 0.44436 1.11888
 H452 H 0.68790 0.36340 1.09442
 H453 H 0.72372 0.49308 1.10706
 H454 H 0.74657 0.42688 0.99178
 H455 H 0.66348 0.37901 1.00317
 H456 H 0.70045 0.50795 1.01615
 C457 C 0.19398 1.05484 -0.01304
 C458 C 0.22264 1.03106 -0.05002
 C459 C 0.23212 1.07720 -0.07054
 C460 C 0.20468 1.10140 -0.03386
 C461 C 0.19041 1.07390 -0.10115
 C462 C 0.17979 1.02745 -0.08017
 C463 C 0.15179 1.05135 -0.04343
 C464 C 0.16196 1.09761 -0.06416
 H465 H 0.19479 1.04682 0.02328
 H466 H 0.24837 1.00419 -0.04457
 H467 H 0.21480 1.13190 -0.01472
 H468 H 0.18981 1.08197 -0.13746
 H469 H 0.16893 0.99696 -0.09896
 H470 H 0.13661 1.12479 -0.06982
 C471 C 0.33729 -0.10165 0.44540
 C472 C 0.29225 -0.09574 0.47191
 C473 C 0.26931 -0.07995 0.42848
 C474 C 0.31319 -0.08639 0.40167
 C475 C 0.28056 -0.03065 0.43861
 C476 C 0.30480 -0.04597 0.48227
 C477 C 0.34919 -0.05222 0.45564
 C478 C 0.32549 -0.03679 0.41215
 H479 H 0.36114 -0.13054 0.44836
 H480 H 0.27829 -0.12000 0.49646
 H481 H 0.31573 -0.10321 0.36842
 H482 H 0.25651 -0.00194 0.43552
 H483 H 0.30198 -0.02919 0.51551
 H484 H 0.33946 -0.01242 0.38769
 C485 C 0.55270 -0.16060 0.60243
 C486 C 0.52535 -0.20481 0.59617
 C487 C 0.56926 -0.22818 0.58082
 C488 C 0.59691 -0.18514 0.58761
 C489 C 0.55984 -0.21682 0.53164
 C490 C 0.51571 -0.19217 0.54653
 C491 C 0.54318 -0.14860 0.55312
 C492 C 0.58714 -0.17273 0.53813
 H493 H 0.54961 -0.13695 0.63123
 H494 H 0.49996 -0.21831 0.62004
 H495 H 0.63039 -0.18317 0.60470
 H496 H 0.56305 -0.24067 0.50301
 H497 H 0.48223 -0.19442 0.52947
 H498 H 0.61243 -0.15922 0.51414
 C499 C 1.07872 0.67931 0.47168
 C500 C 1.10083 0.68951 0.42572
 C501 C 1.06944 0.73053 0.42139
 C502 C 1.04772 0.72138 0.46706
 C503 C 1.03319 0.70266 0.39696
 C504 C 1.06430 0.66068 0.40172
 C505 C 1.04240 0.65091 0.44751
 C506 C 1.01116 0.69234 0.44303
 H507 H 1.09722 0.66912 0.50251
 H508 H 1.13781 0.68924 0.41836
 H509 H 1.04128 0.74712 0.49344
 H510 H 1.01453 0.71248 0.36613
 H511 H 1.07099 0.63534 0.37500
 H512 H 0.97418 0.69288 0.45033
 C513 C -0.01331 1.19073 0.05895
 C514 C -0.04964 1.22020 0.03502
 C515 C -0.07182 1.22916 0.08064
 C516 C -0.03578 1.20091 0.10500
 C517 C -0.10321 1.18846 0.07534
 C518 C -0.08058 1.17837 0.02941
 C519 C -0.04447 1.14954 0.05344
 C520 C -0.06684 1.15917 0.09920
 H521 H 0.02374 1.19106 0.05200
 H522 H -0.04293 1.24605 0.00912
 H523 H -0.01733 1.21012 0.13619
 H524 H -0.14025 1.18836 0.08234
 H525 H -0.09875 1.16853 -0.00178
 H526 H -0.07378 1.13369 0.12541
 C527 C 0.46416 0.30452 0.97645
 C528 C 0.41386 0.29235 0.96697
 C529 C 0.42910 0.26847 0.92381
 C530 C 0.47907 0.27953 0.93301
 C531 C 0.42273 0.31144 0.89628
 C532 C 0.40790 0.33626 0.93975
 C533 C 0.45794 0.34799 0.94913
 C534 C 0.47301 0.32367 0.90589
 H535 H 0.48141 0.30215 1.00951
 H536 H 0.38953 0.27929 0.99211
 H537 H 0.50778 0.25537 0.92997
 H538 H 0.40539 0.31332 0.86325
 H539 H 0.37888 0.36011 0.94263
 H540 H 0.49748 0.33713 0.88108
 C541 C 0.51989 0.53802 0.80534
 C542 C 0.52949 0.58799 0.79396
 C543 C 0.57253 0.57284 0.76916
 C544 C 0.56320 0.52323 0.77941
 C545 C 0.60150 0.57805 0.81158
 C546 C 0.55816 0.59278 0.83733
 C547 C 0.54868 0.54308 0.84825
 C548 C 0.59178 0.52813 0.82297
 H549 H 0.48625 0.52133 0.80325
 H550 H 0.50392 0.61263 0.78174
 H551 H 0.56549 0.49518 0.75476
 H552 H 0.63510 0.59485 0.81319
 H553 H 0.55602 0.62112 0.86168
 H554 H 0.61713 0.50338 0.83545
 C555 C 0.42164 0.08930 0.65786
 C556 C 0.38729 0.06510 0.68877
 C557 C 0.42000 0.07248 0.72815
 C558 C 0.45400 0.09709 0.69814
 C559 C 0.44339 0.02708 0.71960
 C560 C 0.41115 0.01935 0.67902
 C561 C 0.44528 0.04386 0.64866
 C562 C 0.47767 0.05140 0.68856
 H563 H 0.41280 0.11463 0.63197
 H564 H 0.35004 0.07112 0.68975
 H565 H 0.47163 0.12916 0.70589
 H566 H 0.45207 0.00204 0.74579
 H567 H 0.39375 -0.01270 0.67061
 H568 H 0.51495 0.04550 0.68795
 C569 C 0.02533 0.96063 0.19273
 C570 C 0.03601 0.91082 0.20405
 C571 C 0.07932 0.92639 0.22811
 C572 C 0.06892 0.97587 0.21784
 C573 C 0.10748 0.92125 0.18520
 C574 C 0.06384 0.90609 0.16023
 C575 C 0.05325 0.95565 0.14931
 C576 C 0.09665 0.97106 0.17376
 H577 H -0.00854 0.97702 0.19542
 H578 H 0.01097 0.88605 0.21659
 H579 H 0.07128 1.00404 0.24234
 H580 H 0.14133 0.90475 0.18304
 H581 H 0.06163 0.87763 0.13605
 H582 H 0.12130 0.99599 0.16075
 C583 C 0.97160 0.41952 0.32222
 C584 C 0.92498 0.39793 0.31133
 C585 C 0.92136 0.42847 0.27022
 C586 C 0.96769 0.44964 0.28006
 C587 C 0.89657 0.46506 0.29731
 C588 C 0.90062 0.43482 0.33941
 C589 C 0.94707 0.45619 0.34984
 C590 C 0.94328 0.48655 0.30830
 H591 H 1.00256 0.40102 0.33304
 H592 H 0.91723 0.36138 0.31167
 H593 H 0.99479 0.45535 0.25488
 H594 H 0.86559 0.48370 0.28685
 H595 H 0.87321 0.42889 0.36421
 H596 H 0.95099 0.52311 0.30767
   
