data_POSCAR
  _audit_creation_date              2014-09-24
  _audit_creation_method            'ToBaCCo'
  _symmetry_space_group_name_H-M    'P1'
  _symmetry_Int_Tables_number       1
  _symmetry_cell_setting            triclinic
  loop_
  _symmetry_equiv_pos_as_xyz
 x,y,z
_cell_length_a 49.6331
_cell_length_b 47.2217
_cell_length_c 47.8268
_cell_angle_alpha 90.916200
_cell_angle_beta 91.564500
_cell_angle_gamma 90.373700
loop_
  _atom_site_label
  _atom_site_type_symbol
  _atom_site_fract_x
  _atom_site_fract_y
  _atom_site_fract_z
N1 N 0.17998 0.24639 0.23613
 N2 N 0.18812 0.22718 0.25398
 C3 C 0.16981 0.22445 0.27395
 C4 C 0.14889 0.24298 0.26848
 C5 C 0.15612 0.25669 0.24430
 H6 H 0.17164 0.20984 0.29105
 H7 H 0.14460 0.27241 0.23306
 Cu8 Cu 0.22120 0.20647 0.24920
 Cu9 Cu 0.20080 0.25546 0.20328
 Cu10 Cu 0.25429 0.21093 0.18917
 N11 N 0.24710 0.17817 0.23848
 N12 N 0.26005 0.17978 0.21499
 C13 C 0.27659 0.15740 0.21287
 C14 C 0.27378 0.14077 0.23635
 C15 C 0.25478 0.15476 0.25208
 H16 H 0.28969 0.15367 0.19554
 H17 H 0.24692 0.14848 0.27190
 N18 N 0.24493 0.24378 0.16587
 N19 N 0.22459 0.26071 0.17125
 C20 C 0.22355 0.28112 0.15193
 C21 C 0.24424 0.27694 0.13341
 C22 C 0.25736 0.25301 0.14301
 H23 H 0.20897 0.29801 0.15164
 H24 H 0.27464 0.24295 0.13396
 H25 H 0.21426 0.21427 0.19956
 H26 H 0.23823 0.24062 0.21629
 N27 N 0.65082 0.73417 0.73446
 N28 N 0.65872 0.71343 0.75063
 C29 C 0.64145 0.71122 0.77183
 C30 C 0.62177 0.73183 0.76869
 C31 C 0.62846 0.74581 0.74463
 H32 H 0.64331 0.69610 0.78849
 H33 H 0.61792 0.76327 0.73510
 Cu34 Cu 0.69116 0.69210 0.74217
 Cu35 Cu 0.67022 0.74564 0.70189
 Cu36 Cu 0.72732 0.70795 0.68551
 N37 N 0.72276 0.67027 0.73201
 N38 N 0.73674 0.67666 0.71000
 C39 C 0.75733 0.65845 0.70780
 C40 C 0.75634 0.63945 0.72959
 C41 C 0.73404 0.64771 0.74453
 H42 H 0.77198 0.65918 0.69153
 H43 H 0.72645 0.63793 0.76303
 N44 N 0.71421 0.74037 0.66342
 N45 N 0.69227 0.75441 0.66975
 C46 C 0.68827 0.77509 0.65116
 C47 C 0.70861 0.77421 0.63201
 C48 C 0.72480 0.75190 0.64049
 H49 H 0.67192 0.79004 0.65179
 H50 H 0.74280 0.74448 0.63058
 H51 H 0.68693 0.70623 0.69346
 H52 H 0.70801 0.73160 0.71518
 N53 N 0.33722 0.77889 0.73675
 N54 N 0.32725 0.80039 0.75071
 C55 C 0.34350 0.80631 0.77313
 C56 C 0.36478 0.78741 0.77322
 C57 C 0.36005 0.77037 0.74973
 H58 H 0.33992 0.82284 0.78843
 H59 H 0.37233 0.75311 0.74243
 Cu60 Cu 0.29391 0.81824 0.73809
 Cu61 Cu 0.31996 0.76315 0.70291
 Cu62 Cu 0.26053 0.79440 0.68010
 N63 N 0.26000 0.83495 0.72556
 N64 N 0.24744 0.82594 0.70256
 C65 C 0.22504 0.84133 0.69832
 C66 C 0.22318 0.86114 0.71998
 C67 C 0.24586 0.85628 0.73690
 H68 H 0.21105 0.83792 0.68088
 H69 H 0.25194 0.86758 0.75587
 N70 N 0.27700 0.76219 0.66035
 N71 N 0.29958 0.75025 0.66914
 C72 C 0.30529 0.72853 0.65178
 C73 C 0.28536 0.72657 0.63098
 C74 C 0.26777 0.74834 0.63714
 H75 H 0.32249 0.71485 0.65442
 H76 H 0.24951 0.75369 0.62567
 H77 H 0.30078 0.79989 0.69086
 H78 H 0.28114 0.77494 0.71251
 N79 N 0.86023 0.26616 0.22098
 N80 N 0.85574 0.29170 0.23094
 C81 C 0.87281 0.29730 0.25256
 C82 C 0.88929 0.27401 0.25669
 C83 C 0.88065 0.25458 0.23598
 H84 H 0.87266 0.31693 0.26444
 H85 H 0.88841 0.23360 0.23204
 Cu86 Cu 0.82737 0.31540 0.21611
 Cu87 Cu 0.83909 0.25113 0.18886
 Cu88 Cu 0.77752 0.28434 0.17787
 N89 N 0.79237 0.33256 0.21219
 N90 N 0.77231 0.31977 0.19856
 C91 C 0.75000 0.33567 0.20077
 C92 C 0.75662 0.35972 0.21658
 C93 C 0.78370 0.35699 0.22342
 H94 H 0.73058 0.33038 0.19123
 H95 H 0.79605 0.37128 0.23626
 N96 N 0.78735 0.24874 0.15860
 N97 N 0.81085 0.23626 0.16247
 C98 C 0.81242 0.21422 0.14437
 C99 C 0.78884 0.21282 0.12807
 C100 C 0.77343 0.23505 0.13790
 H101 H 0.82995 0.20096 0.14253
 H102 H 0.75404 0.24172 0.12973
 H103 H 0.81873 0.28659 0.17382
 H104 H 0.80642 0.26970 0.20615
 N105 N 0.83712 0.72639 0.26756
 N106 N 0.83152 0.70479 0.25071
 C107 C 0.85048 0.70323 0.23112
 C108 C 0.86896 0.72509 0.23594
 C109 C 0.85972 0.73929 0.25931
 H110 H 0.85060 0.68754 0.21443
 H111 H 0.86872 0.75764 0.26970
 Cu112 Cu 0.79993 0.68084 0.25590
 Cu113 Cu 0.81477 0.73658 0.29879
 Cu114 Cu 0.76018 0.69319 0.31085
 N115 N 0.76966 0.65602 0.26407
 N116 N 0.75457 0.66093 0.28574
 C117 C 0.73569 0.64054 0.28707
 C118 C 0.73898 0.62167 0.26506
 C119 C 0.76072 0.63221 0.25077
 H120 H 0.72053 0.63966 0.30284
 H121 H 0.76965 0.62295 0.23243
 N122 N 0.76902 0.72685 0.33399
 N123 N 0.78981 0.74345 0.32935
 C124 C 0.79050 0.76463 0.34853
 C125 C 0.76908 0.76121 0.36620
 C126 C 0.75592 0.73698 0.35626
 H127 H 0.80541 0.78139 0.34937
 H128 H 0.73819 0.72729 0.36469
 H129 H 0.80128 0.69570 0.30494
 H130 H 0.77928 0.71890 0.28280
 N131 N 0.31941 0.23123 -0.24146
 N132 N 0.31020 0.20979 -0.25677
 C133 C 0.32750 0.20408 -0.27719
 C134 C 0.34889 0.22318 -0.27489
 C135 C 0.34286 0.24020 -0.25185
 H136 H 0.32434 0.18732 -0.29259
 H137 H 0.35458 0.25766 -0.24296
 Cu138 Cu 0.27632 0.19138 -0.24907
 Cu139 Cu 0.29978 0.24559 -0.20943
 Cu140 Cu 0.25278 0.19813 -0.18423
 N141 N 0.25022 0.16502 -0.23509
 N142 N 0.24153 0.16718 -0.20947
 C143 C 0.22414 0.14583 -0.20509
 C144 C 0.22188 0.12930 -0.22931
 C145 C 0.23880 0.14225 -0.24790
 H146 H 0.21403 0.14262 -0.18566
 H147 H 0.24264 0.13571 -0.26917
 N148 N 0.26651 0.23122 -0.16241
 N149 N 0.28359 0.24982 -0.17238
 C150 C 0.28757 0.27088 -0.15336
 C151 C 0.27228 0.26524 -0.13026
 C152 C 0.25928 0.23988 -0.13675
 H153 H 0.30065 0.28895 -0.15611
 H154 H 0.24483 0.22909 -0.12411
 H155 H 0.29024 0.20449 -0.20157
 H156 H 0.26175 0.22671 -0.21441
 N157 N 0.66398 0.27860 -0.25060
 N158 N 0.67162 0.30029 -0.26530
 C159 C 0.65187 0.30697 -0.28375
 C160 C 0.63045 0.28822 -0.28081
 C161 C 0.63908 0.27041 -0.25943
 H162 H 0.65342 0.32406 -0.29839
 H163 H 0.62824 0.25287 -0.25069
 Cu164 Cu 0.70698 0.31735 -0.25972
 Cu165 Cu 0.68757 0.26296 -0.22144
 Cu166 Cu 0.73780 0.30986 -0.19691
 N167 N 0.73606 0.34224 -0.24735
 N168 N 0.74772 0.34002 -0.22251
 C169 C 0.76671 0.36047 -0.21937
 C170 C 0.76681 0.37641 -0.24359
 C171 C 0.74701 0.36405 -0.26081
 H172 H 0.77938 0.36355 -0.20081
 H173 H 0.74088 0.37035 -0.28163
 N174 N 0.72511 0.27708 -0.17528
 N175 N 0.70722 0.25850 -0.18541
 C176 C 0.70425 0.23765 -0.16685
 C177 C 0.72093 0.24338 -0.14379
 C178 C 0.73377 0.26861 -0.14979
 H179 H 0.69054 0.21987 -0.16965
 H180 H 0.74885 0.27950 -0.13683
 H181 H 0.69842 0.30396 -0.21196
 H182 H 0.72536 0.28189 -0.22739
 N183 N 0.16065 0.76450 0.26667
 N184 N 0.16764 0.78441 0.24935
 C185 C 0.14795 0.78721 0.22962
 C186 C 0.12744 0.76811 0.23499
 C187 C 0.13629 0.75410 0.25870
 H188 H 0.14834 0.80232 0.21288
 H189 H 0.12594 0.73727 0.26919
 Cu190 Cu 0.20163 0.80515 0.25436
 Cu191 Cu 0.18373 0.75303 0.29795
 Cu192 Cu 0.23962 0.79481 0.31293
 N193 N 0.23085 0.83102 0.26589
 N194 N 0.24497 0.82724 0.28913
 C195 C 0.26346 0.84806 0.29226
 C196 C 0.26115 0.86601 0.26960
 C197 C 0.24010 0.85434 0.25325
 H198 H 0.27793 0.84938 0.30951
 H199 H 0.23187 0.86220 0.23375
 N200 N 0.23093 0.76095 0.33448
 N201 N 0.20963 0.74489 0.32867
 C202 C 0.20922 0.72336 0.34677
 C203 C 0.23138 0.72591 0.36498
 C204 C 0.24466 0.75008 0.35644
 H205 H 0.19392 0.70699 0.34656
 H206 H 0.26292 0.75922 0.36559
 H207 H 0.19865 0.79376 0.30351
 H208 H 0.22018 0.76806 0.28401
 N209 N 0.48465 0.41844 0.48374
 N210 N 0.46306 0.42590 0.49724
 C211 C 0.45966 0.40792 0.51852
 C212 C 0.48029 0.38814 0.51832
 C213 C 0.49570 0.39565 0.49585
 H214 H 0.44332 0.40913 0.53294
 H215 H 0.51354 0.38523 0.48854
 Cu216 Cu 0.44148 0.45823 0.48530
 Cu217 Cu 0.49688 0.43823 0.45113
 Cu218 Cu 0.45828 0.49427 0.42792
 N219 N 0.41950 0.48936 0.47120
 N220 N 0.42628 0.50320 0.44881
 C221 C 0.40786 0.52329 0.44345
 C222 C 0.38829 0.52214 0.46352
 C223 C 0.39642 0.50027 0.48084
 H224 H 0.40881 0.53777 0.42624
 H225 H 0.38614 0.49264 0.49890
 N226 N 0.49138 0.48204 0.40956
 N227 N 0.50611 0.46071 0.41848
 C228 C 0.52714 0.45734 0.40159
 C229 C 0.52565 0.47752 0.38093
 C230 C 0.50267 0.49282 0.38672
 H231 H 0.54244 0.44138 0.40422
 H232 H 0.49452 0.51030 0.37499
 H233 H 0.48002 0.47703 0.46076
 H234 H 0.45901 0.45205 0.43850
 N235 N -0.04182 -0.09493 0.97448
 N236 N -0.05926 -0.08644 0.99294
 C237 C -0.05761 -0.10343 1.01529
 C238 C -0.03802 -0.12370 1.01048
 C239 C -0.02865 -0.11765 0.98420
 H240 H -0.06948 -0.10089 1.03377
 H241 H -0.01323 -0.12864 0.97287
 Cu242 Cu -0.08198 -0.05378 0.98554
 Cu243 Cu -0.03691 -0.07559 0.93944
 Cu244 Cu -0.06139 -0.00710 0.93847
 N245 N -0.10503 -0.02278 0.97351
 N246 N -0.09650 -0.00407 0.95565
 C247 C -0.11539 0.01594 0.95209
 C248 C -0.13715 0.00928 0.96837
 C249 C -0.12984 -0.01551 0.98166
 H250 H -0.11345 0.03381 0.93842
 H251 H -0.14140 -0.02702 0.99665
 N252 N -0.03312 -0.02054 0.91347
 N253 N -0.02472 -0.04698 0.91319
 C254 C -0.00552 -0.04988 0.89410
 C255 C -0.00156 -0.02399 0.88160
 C256 C -0.01958 -0.00588 0.89435
 H257 H 0.00502 -0.06940 0.89001
 H258 H -0.02238 0.01639 0.89040
 H259 H -0.04169 -0.03888 0.96137
 H260 H -0.07017 -0.04853 0.93668
 N261 N 1.02766 0.58467 0.98117
 N262 N 1.05019 0.57725 0.99400
 C263 C 1.05539 0.59515 1.01564
 C264 C 1.03493 0.61496 1.01664
 C265 C 1.01761 0.60751 0.99436
 H266 H 1.07266 0.59350 1.02975
 H267 H 0.99908 0.61779 0.98804
 Cu268 Cu 1.07010 0.54413 0.98217
 Cu269 Cu 1.01311 0.56342 0.94875
 Cu270 Cu 1.06231 0.52528 0.91462
 N271 N 1.09244 0.51534 0.96534
 N272 N 1.08942 0.50801 0.93884
 C273 C 1.10806 0.48856 0.93242
 C274 C 1.12362 0.48339 0.95627
 C275 C 1.11305 0.50082 0.97676
 H276 H 1.11033 0.47930 0.91179
 H277 H 1.11983 0.50287 0.99837
 N278 N 1.02749 0.53538 0.89690
 N279 N 1.00834 0.54898 0.91006
 C280 C 0.98657 0.55100 0.89276
 C281 C 0.99233 0.53796 0.86744
 C282 C 1.01848 0.52832 0.87096
 H283 H 0.96800 0.56126 0.89825
 H284 H 1.02989 0.51616 0.85611
 H285 H 1.03686 0.52657 0.94727
 H286 H 1.05182 0.56136 0.93776
 N287 N 0.52132 0.08806 0.49616
 N288 N 0.54503 0.08367 0.50811
 C289 C 0.54872 0.10179 0.52984
 C290 C 0.52612 0.11875 0.53181
 C291 C 0.50911 0.10934 0.50995
 H292 H 0.56667 0.10244 0.54311
 H293 H 0.48932 0.11726 0.50445
 Cu294 Cu 0.56931 0.05490 0.49454
 Cu295 Cu 0.50844 0.06549 0.46368
 Cu296 Cu 0.54783 0.00799 0.44549
 N297 N 0.58861 0.02000 0.48770
 N298 N 0.58029 0.00180 0.46824
 C299 C 0.59752 -0.02005 0.46738
 C300 C 0.61774 -0.01537 0.48750
 C301 C 0.61135 0.01029 0.50005
 H302 H 0.59535 -0.03808 0.45328
 H303 H 0.62260 0.02134 0.51659
 N304 N 0.51438 0.01779 0.42500
 N305 N 0.49935 0.03975 0.43160
 C306 C 0.47824 0.04082 0.41327
 C307 C 0.48006 0.01837 0.39433
 C308 C 0.50327 0.00434 0.40250
 H309 H 0.46262 0.05664 0.41378
 H310 H 0.51175 -0.01409 0.39247
 H311 H 0.52898 0.03033 0.47718
 H312 H 0.54502 0.05179 0.44956
 N313 N -0.02155 0.08080 0.51443
 N314 N -0.04434 0.07275 0.50207
 C315 C -0.04836 0.08793 0.47876
 C316 C -0.02691 0.10660 0.47627
 C317 C -0.01028 0.10138 0.49941
 H318 H -0.06567 0.08558 0.46473
 H319 H 0.00858 0.11175 0.50509
 Cu320 Cu -0.06652 0.04322 0.51767
 Cu321 Cu -0.00814 0.06405 0.54908
 Cu322 Cu -0.04774 0.01141 0.57724
 N323 N -0.08878 0.01415 0.53398
 N324 N -0.08126 0.00173 0.55725
 C325 C -0.09968 -0.01804 0.56348
 C326 C -0.11995 -0.01812 0.54297
 C327 C -0.11229 0.00272 0.52461
 H328 H -0.09802 -0.03173 0.58132
 H329 H -0.12278 0.00887 0.50561
 N330 N -0.01321 0.02417 0.59440
 N331 N 0.00180 0.04437 0.58394
 C332 C 0.02385 0.04832 0.60065
 C333 C 0.02271 0.02960 0.62260
 C334 C -0.00109 0.01467 0.61790
 H335 H 0.03972 0.06348 0.59697
 H336 H -0.00919 -0.00164 0.63090
 H337 H -0.02704 0.02535 0.54298
 H338 H -0.04542 0.05269 0.56347
 N339 N 0.47924 0.59928 0.03905
 N340 N 0.46132 0.58890 0.02086
 C341 C 0.46036 0.60555 -0.00172
 C342 C 0.47874 0.62755 0.00258
 C343 C 0.49024 0.62290 0.02879
 H344 H 0.44773 0.60152 -0.02014
 H345 H 0.50562 0.63553 0.03961
 Cu346 Cu 0.44147 0.55429 0.02839
 Cu347 Cu 0.48738 0.58086 0.07431
 Cu348 Cu 0.47052 0.50949 0.07332
 N349 N 0.42377 0.51911 0.03835
 N350 N 0.43538 0.50144 0.05579
 C351 C 0.41950 0.47847 0.05830
 C352 C 0.39652 0.48193 0.04160
 C353 C 0.40001 0.50806 0.02924
 H354 H 0.42456 0.46054 0.07114
 H355 H 0.38633 0.51837 0.01475
 N356 N 0.49806 0.52626 0.09900
 N357 N 0.50330 0.55368 0.10047
 C358 C 0.52222 0.55869 0.12065
 C359 C 0.52935 0.53312 0.13234
 C360 C 0.51357 0.51302 0.11813
 H361 H 0.53079 0.57930 0.12574
 H362 H 0.51309 0.49047 0.12170
 H363 H 0.48476 0.54447 0.05149
 H364 H 0.45723 0.54953 0.07689
 N365 N 0.51181 -0.08236 0.02643
 N366 N 0.53219 -0.07561 0.01084
 C367 C 0.53239 -0.09331 -0.01155
 C368 C 0.51088 -0.11210 -0.00992
 C369 C 0.49828 -0.10438 0.01449
 H370 H 0.54717 -0.09271 -0.02771
 H371 H 0.48100 -0.11452 0.02338
 Cu372 Cu 0.55683 -0.04501 0.02234
 Cu373 Cu 0.50475 -0.06293 0.06168
 Cu374 Cu 0.54978 -0.00985 0.08321
 N375 N 0.58148 -0.01444 0.03384
 N376 N 0.57950 -0.00201 0.05850
 C377 C 0.59946 0.01728 0.06202
 C378 C 0.61447 0.01726 0.03810
 C379 C 0.60249 -0.00303 0.02059
 H380 H 0.60238 0.03096 0.08020
 H381 H 0.60886 -0.00914 -0.00007
 N382 N 0.51821 -0.02079 0.10496
 N383 N 0.50105 -0.04088 0.09665
 C384 C 0.48108 -0.04241 0.11506
 C385 C 0.48570 -0.02222 0.13596
 C386 C 0.50947 -0.00893 0.12884
 H387 H 0.46390 -0.05650 0.11287
 H388 H 0.51945 0.00843 0.13998
 H389 H 0.52294 -0.02468 0.05249
 H390 H 0.54424 -0.05148 0.07072
 N391 N 1.02278 0.41026 0.50742
 N392 N 1.04251 0.42211 0.49397
 C393 C 1.04936 0.40526 0.47243
 C394 C 1.03297 0.38143 0.47215
 C395 C 1.01625 0.38539 0.49469
 H396 H 1.06510 0.41011 0.45806
 H397 H 1.00084 0.37106 0.50167
 Cu398 Cu 1.05806 0.45811 0.50584
 Cu399 Cu 1.00769 0.42801 0.54071
 Cu400 Cu 1.04249 0.48664 0.56789
 N401 N 1.08065 0.48682 0.52397
 N402 N 1.07473 0.49800 0.54832
 C403 C 1.09379 0.51731 0.55583
 C404 C 1.11276 0.51820 0.53502
 C405 C 1.10360 0.49846 0.51514
 H406 H 1.09378 0.52971 0.57502
 H407 H 1.11269 0.49298 0.49553
 N408 N 1.00935 0.47173 0.58434
 N409 N 0.99608 0.44937 0.57416
 C410 C 0.97421 0.44494 0.58969
 C411 C 0.97361 0.46562 0.61057
 C412 C 0.99627 0.48215 0.60647
 H413 H 0.95951 0.42827 0.58574
 H414 H 1.00281 0.50046 0.61874
 H415 H 1.01973 0.46938 0.53463
 H416 H 1.04455 0.44549 0.55237
 Si417 Si 0.37088 -0.00131 0.25893
 Si418 Si 0.11793 -0.01041 0.76300
 Si419 Si 0.63899 0.47875 0.25482
 Si420 Si 0.87367 0.51276 0.74146
 Si421 Si 0.25849 0.38632 -0.00185
 Si422 Si 0.73637 0.12410 -0.01669
 Si423 Si 0.24901 0.61411 0.49806
 Si424 Si 0.74976 0.87637 0.49833
 Si425 Si 0.01401 0.23739 0.36925
 Si426 Si -0.00581 0.74797 0.12483
 Si427 Si 0.48497 0.25691 0.63389
 Si428 Si 0.49570 0.74937 0.87960
 C429 C 0.10734 0.27013 0.28105
 C430 C 0.12392 0.24634 0.28458
 C431 C 0.11647 0.22554 0.30369
 C432 C 0.09298 0.22839 0.31906
 C433 C 0.07652 0.25244 0.31546
 C434 C 0.08389 0.27319 0.29639
 C435 C 0.05295 0.25514 0.33088
 C436 C 0.04580 0.23414 0.34980
 C437 C 0.06210 0.21022 0.35296
 C438 C 0.08558 0.20742 0.33782
 H439 H 0.12868 0.20683 0.30646
 H440 H 0.07152 0.29176 0.29334
 H441 H 0.04014 0.27345 0.32812
 H442 H 0.09787 0.18874 0.34066
 H443 H 0.11260 0.28657 0.26663
 H444 H 0.05667 0.19344 0.36689
 C445 C 0.58434 0.76364 0.78329
 C446 C 0.59885 0.73839 0.78698
 C447 C 0.59114 0.71971 0.80805
 C448 C 0.56917 0.72613 0.82494
 C449 C 0.55479 0.75151 0.82073
 C450 C 0.56256 0.77009 0.79993
 C451 C 0.53285 0.75797 0.83738
 C452 C 0.52515 0.73960 0.85844
 C453 C 0.53923 0.71429 0.86251
 C454 C 0.56117 0.70761 0.84589
 H455 H 0.60196 0.70013 0.81117
 H456 H 0.55179 0.78968 0.79653
 H457 H 0.52179 0.77742 0.83405
 H458 H 0.57182 0.68798 0.84939
 H459 H 0.58979 0.77876 0.76765
 H460 H 0.53333 0.69961 0.87838
 C461 C 0.39326 0.80763 0.81315
 C462 C 0.38747 0.78538 0.79396
 C463 C 0.40355 0.76099 0.79468
 C464 C 0.42499 0.75876 0.81417
 C465 C 0.43067 0.78124 0.83335
 C466 C 0.41469 0.80561 0.83262
 C467 C 0.45211 0.77882 0.85297
 C468 C 0.46755 0.75406 0.85373
 C469 C 0.46192 0.73203 0.83442
 C470 C 0.44080 0.73431 0.81481
 H471 H 0.39931 0.74346 0.78035
 H472 H 0.41873 0.82307 0.84713
 H473 H 0.45656 0.79606 0.86759
 H474 H 0.43677 0.71691 0.80021
 H475 H 0.38141 0.82678 0.81301
 H476 H 0.47382 0.71287 0.83467
 C477 C -0.08448 0.29353 0.29673
 C478 C -0.09019 0.27112 0.27751
 C479 C -0.07492 0.24605 0.27978
 C480 C -0.05458 0.24358 0.30067
 C481 C -0.04937 0.26636 0.31959
 C482 C -0.06439 0.29115 0.31742
 C483 C -0.02907 0.26416 0.34032
 C484 C -0.01385 0.23942 0.34259
 C485 C -0.01882 0.21687 0.32368
 C486 C -0.03916 0.21884 0.30293
 H487 H -0.07866 0.22842 0.26544
 H488 H -0.06059 0.30882 0.33177
 H489 H -0.02495 0.28199 0.35432
 H490 H -0.04270 0.20114 0.28859
 H491 H -0.09535 0.31324 0.29610
 H492 H -0.00691 0.19777 0.32494
 C493 C -0.09327 0.75814 0.22413
 C494 C -0.10708 0.73228 0.21941
 C495 C -0.09802 0.71359 0.19854
 C496 C -0.07592 0.72081 0.18233
 C497 C -0.06248 0.74699 0.18708
 C498 C -0.07118 0.76538 0.20818
 C499 C -0.04089 0.75454 0.17034
 C500 C -0.03294 0.73653 0.14852
 C501 C -0.04586 0.71019 0.14447
 C502 C -0.06720 0.70239 0.16122
 H503 H -0.10812 0.69346 0.19471
 H504 H -0.06112 0.78555 0.21211
 H505 H -0.03062 0.77467 0.17384
 H506 H -0.07708 0.68211 0.15743
 H507 H -0.09967 0.77312 0.23989
 H508 H -0.03974 0.69560 0.12825
 C509 C 0.37499 0.20482 0.68596
 C510 C 0.37140 0.22487 0.70775
 C511 C 0.39078 0.24670 0.71158
 C512 C 0.41282 0.24866 0.69391
 C513 C 0.41596 0.22840 0.67220
 C514 C 0.39701 0.20653 0.66852
 C515 C 0.43785 0.23049 0.65438
 C516 C 0.45634 0.25290 0.65774
 C517 C 0.45328 0.27282 0.67945
 C518 C 0.43171 0.27073 0.69745
 H519 H 0.38876 0.26253 0.72797
 H520 H 0.39911 0.19079 0.65199
 H521 H 0.44024 0.21488 0.63785
 H522 H 0.42968 0.28647 0.71398
 H523 H 0.36094 0.18753 0.68217
 H524 H 0.46752 0.29016 0.68235
 C525 C 0.60018 0.30777 0.68301
 C526 C 0.60589 0.28729 0.70350
 C527 C 0.58662 0.26570 0.70754
 C528 C 0.56274 0.26423 0.69109
 C529 C 0.55761 0.28480 0.67052
 C530 C 0.57635 0.30657 0.66684
 C531 C 0.53399 0.28308 0.65373
 C532 C 0.51573 0.26067 0.65687
 C533 C 0.52073 0.24052 0.67756
 C534 C 0.54400 0.24230 0.69461
 H535 H 0.59018 0.24963 0.72306
 H536 H 0.57271 0.32258 0.65122
 H537 H 0.53015 0.29894 0.63807
 H538 H 0.54749 0.22635 0.71032
 H539 H 0.61400 0.32494 0.67917
 H540 H 0.50669 0.22319 0.68033
 C541 C 0.07974 0.75028 0.23173
 C542 C 0.10170 0.76337 0.21900
 C543 C 0.09895 0.77145 0.19089
 C544 C 0.07476 0.76624 0.17564
 C545 C 0.05286 0.75311 0.18872
 C546 C 0.05555 0.74529 0.21678
 C547 C 0.02871 0.74782 0.17347
 C548 C 0.02616 0.75541 0.14527
 C549 C 0.04813 0.76810 0.13236
 C550 C 0.07217 0.77363 0.14743
 H551 H 0.11575 0.78127 0.18067
 H552 H 0.03897 0.73522 0.22717
 H553 H 0.01213 0.73747 0.18354
 H554 H 0.08878 0.78353 0.13696
 H555 H 0.08111 0.74408 0.25340
 H556 H 0.04687 0.77370 0.11058
 C557 C 0.28419 0.10115 0.26934
 C558 C 0.28814 0.11418 0.24347
 C559 C 0.30617 0.10178 0.22472
 C560 C 0.32034 0.07719 0.23188
 C561 C 0.31637 0.06460 0.25807
 C562 C 0.29811 0.07661 0.27653
 C563 C 0.33107 0.04048 0.26555
 C564 C 0.35009 0.02918 0.24744
 C565 C 0.35342 0.04126 0.22115
 C566 C 0.33867 0.06512 0.21341
 H567 H 0.30946 0.11125 0.20463
 H568 H 0.29481 0.06722 0.29669
 H569 H 0.32827 0.03094 0.28575
 H570 H 0.34183 0.07433 0.19314
 H571 H 0.27053 0.10994 0.28435
 H572 H 0.36754 0.03253 0.20658
 C573 C 0.77335 0.60024 0.76039
 C574 C 0.77505 0.61563 0.73551
 C575 C 0.79488 0.60810 0.71631
 C576 C 0.81277 0.58588 0.72190
 C577 C 0.81094 0.57071 0.74699
 C578 C 0.79107 0.57799 0.76604
 C579 C 0.82902 0.54859 0.75258
 C580 C 0.84927 0.54185 0.73367
 C581 C 0.85037 0.55658 0.70845
 C582 C 0.83241 0.57847 0.70267
 H583 H 0.79651 0.61936 0.69690
 H584 H 0.78933 0.56661 0.78541
 H585 H 0.82705 0.53646 0.77141
 H586 H 0.83388 0.58959 0.68312
 H587 H 0.75848 0.60543 0.77573
 H588 H 0.86491 0.55124 0.69290
 C589 C 0.77755 0.41823 0.72681
 C590 C 0.78394 0.40133 0.75003
 C591 C 0.80674 0.40847 0.76692
 C592 C 0.82275 0.43212 0.76076
 C593 C 0.81599 0.44888 0.73739
 C594 C 0.79341 0.44169 0.72054
 C595 C 0.83176 0.47270 0.73141
 C596 C 0.85401 0.48015 0.74868
 C597 C 0.86083 0.46330 0.77168
 C598 C 0.84537 0.43941 0.77764
 H599 H 0.81216 0.39566 0.78476
 H600 H 0.78788 0.45433 0.70258
 H601 H 0.82651 0.48567 0.71359
 H602 H 0.85099 0.42676 0.79555
 H603 H 0.76009 0.41363 0.71347
 H604 H 0.87809 0.46853 0.78511
 C605 C 0.27483 -0.09572 0.23854
 C606 C 0.27718 -0.10991 0.26423
 C607 C 0.29630 -0.09966 0.28441
 C608 C 0.31291 -0.07636 0.27892
 C609 C 0.31077 -0.06292 0.25281
 C610 C 0.29153 -0.07263 0.23287
 C611 C 0.32805 -0.04015 0.24711
 C612 C 0.34736 -0.03074 0.26722
 C613 C 0.34869 -0.04361 0.29343
 C614 C 0.33174 -0.06636 0.29918
 H615 H 0.29842 -0.10951 0.30460
 H616 H 0.28950 -0.06249 0.21276
 H617 H 0.32672 -0.02995 0.22697
 H618 H 0.33344 -0.07621 0.31946
 H619 H 0.26051 -0.10266 0.22239
 H620 H 0.36289 -0.03634 0.30953
 C621 C 0.18244 -0.11449 0.70317
 C622 C 0.20292 -0.11837 0.72378
 C623 C 0.20271 -0.10117 0.74820
 C624 C 0.18271 -0.08067 0.75185
 C625 C 0.16263 -0.07688 0.73078
 C626 C 0.16266 -0.09392 0.70658
 C627 C 0.14294 -0.05601 0.73418
 C628 C 0.14288 -0.03919 0.75860
 C629 C 0.16272 -0.04319 0.77955
 C630 C 0.18252 -0.06376 0.77623
 H631 H 0.21786 -0.10365 0.76465
 H632 H 0.14738 -0.09132 0.69022
 H633 H 0.12794 -0.05282 0.71772
 H634 H 0.19774 -0.06635 0.79265
 H635 H 0.18165 -0.12695 0.68402
 H636 H 0.16303 -0.03017 0.79841
 C637 C 0.75007 0.41026 0.23071
 C638 C 0.73891 0.38336 0.22461
 C639 C 0.71095 0.37924 0.22651
 C640 C 0.69433 0.40178 0.23439
 C641 C 0.70578 0.42883 0.24005
 C642 C 0.73365 0.43281 0.23826
 C643 C 0.68917 0.45157 0.24709
 C644 C 0.66120 0.44777 0.24832
 C645 C 0.65006 0.42065 0.24375
 C646 C 0.66646 0.39783 0.23668
 H647 H 0.70218 0.35850 0.22220
 H648 H 0.74275 0.45341 0.24253
 H649 H 0.69815 0.47219 0.25118
 H650 H 0.65733 0.37720 0.23276
 H651 H 0.77151 0.41404 0.22920
 H652 H 0.62856 0.41721 0.24526
 C653 C 0.72184 0.58359 0.23174
 C654 C 0.72275 0.59580 0.25875
 C655 C 0.70774 0.58331 0.27986
 C656 C 0.69187 0.55918 0.27413
 C657 C 0.69077 0.54727 0.24682
 C658 C 0.70590 0.55958 0.22579
 C659 C 0.67465 0.52322 0.24113
 C660 C 0.65998 0.51084 0.26249
 C661 C 0.66135 0.52268 0.28955
 C662 C 0.67711 0.54674 0.29533
 H663 H 0.70856 0.59213 0.30092
 H664 H 0.70535 0.55069 0.20476
 H665 H 0.67364 0.51400 0.22022
 H666 H 0.67783 0.55554 0.31640
 H667 H 0.73310 0.59284 0.21507
 H668 H 0.65042 0.51330 0.30637
 C669 C 0.20848 0.08661 0.74148
 C670 C 0.20514 0.10347 0.76566
 C671 C 0.18567 0.09544 0.78492
 C672 C 0.16980 0.07107 0.78010
 C673 C 0.17336 0.05443 0.75568
 C674 C 0.19275 0.06236 0.73654
 C675 C 0.15751 0.03011 0.75083
 C676 C 0.13804 0.02231 0.76997
 C677 C 0.13474 0.03869 0.79432
 C678 C 0.15043 0.06300 0.79931
 H679 H 0.18261 0.10815 0.80359
 H680 H 0.19579 0.04977 0.71776
 H681 H 0.16027 0.01724 0.73216
 H682 H 0.14751 0.07541 0.81822
 H683 H 0.22339 0.09194 0.72633
 H684 H 0.12018 0.03274 0.80960
 C685 C 0.27537 0.29071 0.09511
 C686 C 0.25085 0.29432 0.10882
 C687 C 0.23261 0.31472 0.09885
 C688 C 0.23870 0.33125 0.07572
 C689 C 0.26338 0.32749 0.06215
 C690 C 0.28157 0.30713 0.07201
 C691 C 0.26935 0.34410 0.03895
 C692 C 0.25099 0.36449 0.02932
 C693 C 0.22641 0.36777 0.04280
 C694 C 0.22035 0.35140 0.06584
 H695 H 0.21349 0.31770 0.10881
 H696 H 0.30061 0.30393 0.06190
 H697 H 0.28811 0.34105 0.02825
 H698 H 0.20124 0.35443 0.07586
 H699 H 0.28997 0.27537 0.10228
 H700 H 0.21158 0.38280 0.03555
 C701 C 0.69038 0.81029 0.59879
 C702 C 0.71200 0.79337 0.60804
 C703 C 0.73674 0.79531 0.59449
 C704 C 0.73989 0.81412 0.57232
 C705 C 0.71803 0.83116 0.56352
 C706 C 0.69336 0.82897 0.57680
 C707 C 0.72112 0.85006 0.54152
 C708 C 0.74582 0.85225 0.52824
 C709 C 0.76737 0.83507 0.53675
 C710 C 0.76451 0.81623 0.55875
 H711 H 0.75365 0.78255 0.60136
 H712 H 0.67635 0.84175 0.57020
 H713 H 0.70419 0.86278 0.53469
 H714 H 0.78149 0.80327 0.56506
 H715 H 0.67094 0.80906 0.60838
 H716 H 0.78645 0.83625 0.52634
 C717 C 0.73727 0.77559 0.40381
 C718 C 0.76188 0.77946 0.39039
 C719 C 0.77962 0.80095 0.40026
 C720 C 0.77288 0.81837 0.42297
 C721 C 0.74809 0.81429 0.43624
 C722 C 0.73046 0.79281 0.42653
 C723 C 0.74138 0.83180 0.45892
 C724 C 0.75897 0.85354 0.46817
 C725 C 0.78371 0.85719 0.45517
 C726 C 0.79059 0.83978 0.43268
 H727 H 0.79878 0.80420 0.39050
 H728 H 0.71135 0.78941 0.43643
 H729 H 0.72245 0.82867 0.46928
 H730 H 0.80978 0.84306 0.42290
 H731 H 0.72305 0.75941 0.39673
 H732 H 0.79792 0.87330 0.46240
 C733 C 0.26052 0.27097 -0.07987
 C734 C 0.26926 0.28303 -0.10476
 C735 C 0.27452 0.31230 -0.10531
 C736 C 0.27080 0.32934 -0.08143
 C737 C 0.26209 0.31698 -0.05649
 C738 C 0.25707 0.28776 -0.05592
 C739 C 0.25839 0.33407 -0.03261
 C740 C 0.26321 0.36336 -0.03342
 C741 C 0.27142 0.37547 -0.05842
 C742 C 0.27533 0.35862 -0.08218
 H743 H 0.28092 0.32197 -0.12443
 H744 H 0.25039 0.27790 -0.03699
 H745 H 0.25151 0.32454 -0.01364
 H746 H 0.28179 0.36852 -0.10119
 H747 H 0.25652 0.24846 -0.07880
 H748 H 0.27477 0.39800 -0.05977
 C749 C 0.73118 0.23878 -0.09248
 C750 C 0.72452 0.22598 -0.11849
 C751 C 0.72141 0.19638 -0.12025
 C752 C 0.72498 0.17974 -0.09637
 C753 C 0.73101 0.19289 -0.07016
 C754 C 0.73414 0.22242 -0.06847
 C755 C 0.73402 0.17626 -0.04617
 C756 C 0.73146 0.14665 -0.04815
 C757 C 0.72669 0.13374 -0.07445
 C758 C 0.72300 0.15014 -0.09830
 H759 H 0.71674 0.18624 -0.14031
 H760 H 0.73895 0.23287 -0.04860
 H761 H 0.73874 0.18641 -0.02618
 H762 H 0.71885 0.13964 -0.11828
 H763 H 0.73364 0.26154 -0.09060
 H764 H 0.72572 0.11089 -0.07654
 C765 C 0.26353 0.71124 0.40367
 C766 C 0.23898 0.70719 0.38863
 C767 C 0.22157 0.68528 0.39660
 C768 C 0.22833 0.66803 0.41933
 C769 C 0.25290 0.67253 0.43441
 C770 C 0.27041 0.69410 0.42630
 C771 C 0.25932 0.65566 0.45755
 C772 C 0.24144 0.63441 0.46575
 C773 C 0.21712 0.63005 0.45061
 C774 C 0.21067 0.64661 0.42750
 H775 H 0.20253 0.68173 0.38551
 H776 H 0.28937 0.69784 0.43758
 H777 H 0.27795 0.65933 0.46946
 H778 H 0.19168 0.64294 0.41628
 H779 H 0.27755 0.72768 0.39809
 H780 H 0.20274 0.61423 0.45681
 C781 C 0.30458 0.68695 0.60223
 C782 C 0.28306 0.70530 0.60777
 C783 C 0.25929 0.70294 0.59111
 C784 C 0.25697 0.68250 0.56953
 C785 C 0.27868 0.66408 0.56442
 C786 C 0.30241 0.66657 0.58080
 C787 C 0.27631 0.64348 0.54301
 C788 C 0.25242 0.64095 0.52681
 C789 C 0.23114 0.65962 0.53163
 C790 C 0.23330 0.68015 0.55294
 H791 H 0.24241 0.71671 0.59500
 H792 H 0.31931 0.65271 0.57708
 H793 H 0.29310 0.62964 0.53900
 H794 H 0.21649 0.69419 0.55641
 H795 H 0.32326 0.68828 0.61435
 H796 H 0.21276 0.65822 0.51893
 C797 C 0.80169 0.17390 0.09454
 C798 C 0.78265 0.19379 0.10354
 C799 C 0.75801 0.19595 0.08835
 C800 C 0.75279 0.17911 0.06431
 C801 C 0.77235 0.15965 0.05530
 C802 C 0.79659 0.15702 0.07070
 C803 C 0.76741 0.14322 0.03098
 C804 C 0.74319 0.14608 0.01546
 C805 C 0.72362 0.16499 0.02482
 C806 C 0.72841 0.18151 0.04899
 H807 H 0.74289 0.21086 0.09490
 H808 H 0.81175 0.14208 0.06417
 H809 H 0.78245 0.12825 0.02433
 H810 H 0.71308 0.19619 0.05566
 H811 H 0.82077 0.17144 0.10564
 H812 H 0.70467 0.16709 0.01328
 C813 C 0.50762 0.34654 0.53455
 C814 C 0.48489 0.36397 0.53744
 C815 C 0.46662 0.35793 0.55858
 C816 C 0.47089 0.33488 0.57634
 C817 C 0.49374 0.31756 0.57305
 C818 C 0.51198 0.32361 0.55213
 C819 C 0.49789 0.29440 0.59064
 C820 C 0.47959 0.28843 0.61158
 C821 C 0.45685 0.30559 0.61464
 C822 C 0.45258 0.32871 0.59724
 H823 H 0.44898 0.37094 0.56125
 H824 H 0.52961 0.31056 0.54931
 H825 H 0.51528 0.28092 0.58798
 H826 H 0.43487 0.34165 0.60001
 H827 H 0.52222 0.35044 0.51869
 H828 H 0.44217 0.30115 0.63028
 C829 C -0.00523 0.83803 0.02301
 C830 C -0.02855 0.85345 0.02927
 C831 C -0.04267 0.84670 0.05344
 C832 C -0.03385 0.82469 0.07079
 C833 C -0.01054 0.80929 0.06401
 C834 C 0.00366 0.81620 0.04017
 C835 C -0.00205 0.78691 0.08092
 C836 C -0.01642 0.77966 0.10462
 C837 C -0.03964 0.79494 0.11118
 C838 C -0.04819 0.81742 0.09452
 H839 H -0.06074 0.85816 0.05860
 H840 H 0.02161 0.80464 0.03472
 H841 H 0.01525 0.77454 0.07499
 H842 H -0.06622 0.82883 0.09997
 H843 H 0.00638 0.84277 0.00485
 H844 H -0.05157 0.78944 0.12883
 C845 C 0.05252 0.64425 0.05767
 C846 C 0.03199 0.63842 0.03744
 C847 C 0.00853 0.65499 0.03747
 C848 C 0.00550 0.67673 0.05745
 C849 C 0.02619 0.68217 0.07778
 C850 C 0.04965 0.66587 0.07762
 C851 C 0.02299 0.70368 0.09800
 C852 C -0.00068 0.71968 0.09810
 C853 C -0.02102 0.71436 0.07774
 C854 C -0.01799 0.69303 0.05756
 H855 H -0.00758 0.65093 0.02221
 H856 H 0.06574 0.66977 0.09298
 H857 H 0.03874 0.70769 0.11371
 H858 H -0.03406 0.68921 0.04215
 H859 H 0.07094 0.63216 0.05825
 H860 H -0.03939 0.72663 0.07758
 C861 C 0.54121 0.14769 0.57397
 C862 C 0.52169 0.14194 0.55266
 C863 C 0.49829 0.15869 0.55142
 C864 C 0.49467 0.18092 0.57090
 C865 C 0.51466 0.18647 0.59192
 C866 C 0.53774 0.16968 0.59332
 C867 C 0.51143 0.20891 0.61106
 C868 C 0.48838 0.22588 0.60966
 C869 C 0.46854 0.22030 0.58882
 C870 C 0.47159 0.19793 0.56962
 H871 H 0.48298 0.15473 0.53526
 H872 H 0.55323 0.17361 0.60935
 H873 H 0.52710 0.21325 0.62673
 H874 H 0.45604 0.19411 0.55364
 H875 H 0.55938 0.13533 0.57588
 H876 H 0.45078 0.23345 0.58725
 C877 C -0.04215 0.13082 0.43212
 C878 C -0.02289 0.12775 0.45403
 C879 C 0.00014 0.14531 0.45467
 C880 C 0.00370 0.16577 0.43414
 C881 C -0.01590 0.16877 0.41240
 C882 C -0.03868 0.15109 0.41153
 C883 C -0.01258 0.18970 0.39222
 C884 C 0.01009 0.20757 0.39365
 C885 C 0.02944 0.20444 0.41526
 C886 C 0.02639 0.18360 0.43527
 H887 H 0.01530 0.14340 0.47120
 H888 H -0.05393 0.15308 0.39504
 H889 H -0.02787 0.19241 0.37593
 H890 H 0.04157 0.18169 0.45184
 H891 H -0.06009 0.11772 0.43081
 H892 H 0.04685 0.21838 0.41682
 C893 C 0.50993 0.66537 0.98602
 C894 C 0.48540 0.65040 0.98301
 C895 C 0.46736 0.65723 0.96103
 C896 C 0.47373 0.67860 0.94226
 C897 C 0.49856 0.69332 0.94530
 C898 C 0.51648 0.68659 0.96729
 C899 C 0.50500 0.71450 0.92631
 C900 C 0.48693 0.72109 0.90438
 C901 C 0.46211 0.70676 0.90181
 C902 C 0.45562 0.68555 0.92051
 H903 H 0.44824 0.64616 0.95863
 H904 H 0.53560 0.69766 0.96997
 H905 H 0.52403 0.72584 0.92853
 H906 H 0.43641 0.67465 0.91799
 H907 H 0.52433 0.66045 1.00259
 H908 H 0.44758 0.71187 0.88547
 C909 C 0.47816 0.85075 0.97189
 C910 C 0.50367 0.86383 0.97089
 C911 C 0.52245 0.85329 0.95193
 C912 C 0.51607 0.82979 0.93461
 C913 C 0.49046 0.81668 0.93598
 C914 C 0.47160 0.82744 0.95458
 C915 C 0.48431 0.79284 0.91899
 C916 C 0.50345 0.78202 0.90070
 C917 C 0.52886 0.79507 0.89960
 C918 C 0.53508 0.81886 0.91628
 H919 H 0.54227 0.86288 0.95100
 H920 H 0.45185 0.81771 0.95589
 H921 H 0.46480 0.78252 0.92020
 H922 H 0.55488 0.82850 0.91509
 H923 H 0.46313 0.85851 0.98601
 H924 H 0.54421 0.78681 0.88617
 C925 C 0.05610 0.35268 0.43542
 C926 C 0.03360 0.35706 0.45221
 C927 C 0.01171 0.33806 0.44970
 C928 C 0.01226 0.31511 0.43072
 C929 C 0.03502 0.31092 0.41400
 C930 C 0.05682 0.32984 0.41654
 C931 C 0.03562 0.28782 0.39516
 C932 C 0.01367 0.26905 0.39280
 C933 C -0.00880 0.27331 0.40949
 C934 C -0.00957 0.29620 0.42824
 H935 H -0.00588 0.34120 0.46226
 H936 H 0.07446 0.32694 0.40397
 H937 H 0.05320 0.28439 0.38267
 H938 H -0.02717 0.29902 0.44088
 H939 H 0.07340 0.36672 0.43702
 H940 H -0.02578 0.25878 0.40805
 C941 C 0.35605 0.55767 0.44326
 C942 C 0.36402 0.54030 0.46563
 C943 C 0.34865 0.54051 0.48994
 C944 C 0.32580 0.55778 0.49187
 C945 C 0.31810 0.57512 0.46923
 C946 C 0.33336 0.57488 0.44504
 C947 C 0.29521 0.59231 0.47110
 C948 C 0.28002 0.59243 0.49538
 C949 C 0.28765 0.57504 0.51769
 C950 C 0.31042 0.55793 0.51604
 H951 H 0.35448 0.52747 0.50748
 H952 H 0.32773 0.58796 0.42744
 H953 H 0.28919 0.60530 0.45360
 H954 H 0.31593 0.54474 0.53360
 H955 H 0.36716 0.55789 0.42414
 H956 H 0.27590 0.57470 0.53645
 C957 C 0.81424 0.01251 -0.01888
 C958 C 0.83767 0.02561 -0.02853
 C959 C 0.83700 0.05454 -0.03498
 C960 C 0.81341 0.07028 -0.03153
 C961 C 0.78993 0.05689 -0.02188
 C962 C 0.79054 0.02797 -0.01573
 C963 C 0.76642 0.07277 -0.01817
 C964 C 0.76637 0.10191 -0.02346
 C965 C 0.78971 0.11499 -0.03308
 C966 C 0.81303 0.09929 -0.03724
 H967 H 0.85496 0.06505 -0.04210
 H968 H 0.77276 0.01735 -0.00830
 H969 H 0.74848 0.06254 -0.01068
 H970 H 0.83085 0.10992 -0.04458
 H971 H 0.81411 -0.00979 -0.01399
 H972 H 0.78999 0.13749 -0.03712
 C973 C 0.65779 0.04078 0.05317
 C974 C 0.63782 0.03556 0.03234
 C975 C 0.64004 0.04822 0.00614
 C976 C 0.66190 0.06621 0.00084
 C977 C 0.68234 0.07072 0.02166
 C978 C 0.68008 0.05790 0.04775
 C979 C 0.70457 0.08808 0.01604
 C980 C 0.70629 0.10158 -0.00980
 C981 C 0.68539 0.09788 -0.02989
 C982 C 0.66356 0.08003 -0.02479
 H983 H 0.62444 0.04459 -0.00985
 H984 H 0.69545 0.06124 0.06402
 H985 H 0.72049 0.09115 0.03179
 H986 H 0.64789 0.07719 -0.04082
 H987 H 0.65637 0.03117 0.07350
 H988 H 0.68578 0.10855 -0.04965
 C989 C 0.14188 0.55856 0.55346
 C990 C 0.13708 0.53662 0.53366
 C991 C 0.15547 0.53273 0.51206
 C992 C 0.17777 0.55081 0.50978
 C993 C 0.18213 0.57305 0.52953
 C994 C 0.16421 0.57655 0.55146
 C995 C 0.20404 0.59165 0.52671
 C996 C 0.22120 0.58855 0.50404
 C997 C 0.21712 0.56602 0.48495
 C998 C 0.19558 0.54725 0.48777
 H999 H 0.15248 0.51582 0.49674
 H1000 H 0.16725 0.59346 0.56682
 H1001 H 0.20734 0.60866 0.54185
 H1002 H 0.19262 0.53024 0.47250
 H1003 H 0.12821 0.56220 0.57035
 H1004 H 0.23036 0.56325 0.46749
 C1005 C 0.15083 0.44213 -0.06051
 C1006 C 0.14681 0.46396 -0.04075
 C1007 C 0.16507 0.46709 -0.01791
 C1008 C 0.18684 0.44861 -0.01465
 C1009 C 0.19057 0.42653 -0.03447
 C1010 C 0.17248 0.42354 -0.05737
 C1011 C 0.21221 0.40780 -0.03091
 C1012 C 0.23002 0.41102 -0.00779
 C1013 C 0.22634 0.43314 0.01158
 C1014 C 0.20490 0.45180 0.00822
 H1015 H 0.16256 0.48403 -0.00269
 H1016 H 0.17500 0.40675 -0.07277
 H1017 H 0.21495 0.39069 -0.04589
 H1018 H 0.20236 0.46863 0.02358
 H1019 H 0.13704 0.43910 -0.07823
 H1020 H 0.23998 0.43583 0.02950
 C1021 C 0.65574 0.96951 0.51939
 C1022 C 0.64134 0.96649 0.49378
 C1023 C 0.64982 0.94625 0.47405
 C1024 C 0.67251 0.92949 0.47967
 C1025 C 0.68682 0.93275 0.50549
 C1026 C 0.67822 0.95273 0.52523
 C1027 C 0.70965 0.91620 0.51098
 C1028 C 0.71842 0.89657 0.49095
 C1029 C 0.70428 0.89358 0.46529
 C1030 C 0.68137 0.90979 0.45975
 H1031 H 0.63917 0.94386 0.45408
 H1032 H 0.68895 0.95549 0.54514
 H1033 H 0.72080 0.91878 0.53068
 H1034 H 0.67076 0.90715 0.43976
 H1035 H 0.64956 0.98471 0.53508
 H1036 H 0.71100 0.87903 0.44932
 C1037 C 0.85078 0.94310 0.56138
 C1038 C 0.85634 0.96257 0.54028
 C1039 C 0.83947 0.96291 0.51616
 C1040 C 0.81795 0.94371 0.51280
 C1041 C 0.81293 0.92388 0.53390
 C1042 C 0.82927 0.92397 0.55824
 C1043 C 0.79195 0.90403 0.53006
 C1044 C 0.77633 0.90356 0.50520
 C1045 C 0.78092 0.92381 0.48473
 C1046 C 0.80161 0.94374 0.48845
 H1047 H 0.84323 0.97766 0.49962
 H1048 H 0.82564 0.90902 0.57470
 H1049 H 0.78815 0.88883 0.54620
 H1050 H 0.80506 0.95889 0.47213
 H1051 H 0.86310 0.94237 0.58034
 H1052 H 0.76876 0.92385 0.46557
 C1053 C 0.36999 0.43913 0.05568
 C1054 C 0.37344 0.46198 0.03755
 C1055 C 0.35461 0.46570 0.01546
 C1056 C 0.33269 0.44706 0.01154
 C1057 C 0.32936 0.42422 0.02990
 C1058 C 0.34816 0.42044 0.05191
 C1059 C 0.30725 0.40568 0.02597
 C1060 C 0.28866 0.40965 0.00376
 C1061 C 0.29204 0.43261 -0.01410
 C1062 C 0.31391 0.45107 -0.01037
 H1063 H 0.35697 0.48295 0.00108
 H1064 H 0.34595 0.40309 0.06624
 H1065 H 0.30459 0.38845 0.04026
 H1066 H 0.31599 0.46863 -0.02448
 H1067 H 0.38399 0.43575 0.07302
 H1068 H 0.27743 0.43676 -0.03070
 C1069 C 0.54244 0.50581 0.34088
 C1070 C 0.54432 0.48159 0.35755
 C1071 C 0.56413 0.46127 0.35164
 C1072 C 0.58165 0.46505 0.32944
 C1073 C 0.57939 0.48942 0.31285
 C1074 C 0.55979 0.50968 0.31876
 C1075 C 0.59677 0.49317 0.29061
 C1076 C 0.61634 0.47285 0.28459
 C1077 C 0.61875 0.44884 0.30132
 C1078 C 0.60146 0.44489 0.32355
 H1079 H 0.56590 0.44238 0.36404
 H1080 H 0.55786 0.52855 0.30627
 H1081 H 0.59511 0.51202 0.27815
 H1082 H 0.60363 0.42615 0.33617
 H1083 H 0.52767 0.52199 0.34492
 H1084 H 0.63408 0.43321 0.29748
 C1085 C 0.01585 0.00770 0.84437
 C1086 C 0.01821 -0.01721 0.85995
 C1087 C 0.03962 -0.03576 0.85464
 C1088 C 0.05819 -0.02973 0.83396
 C1089 C 0.05547 -0.00476 0.81828
 C1090 C 0.03429 0.01386 0.82370
 C1091 C 0.07386 0.00102 0.79733
 C1092 C 0.09493 -0.01778 0.79200
 C1093 C 0.09753 -0.04251 0.80761
 C1094 C 0.07935 -0.04841 0.82854
 H1095 H 0.04206 -0.05486 0.86663
 H1096 H 0.03190 0.03310 0.81186
 H1097 H 0.07169 0.02000 0.78503
 H1098 H 0.08168 -0.06770 0.84031
 H1099 H -0.00046 0.02232 0.84784
 H1100 H 0.11338 -0.05749 0.80353
 C1101 C 0.06070 0.04817 0.65352
 C1102 C 0.04231 0.02634 0.64623
 C1103 C 0.04243 0.00144 0.66199
 C1104 C 0.06037 -0.00150 0.68489
 C1105 C 0.07851 0.02075 0.69227
 C1106 C 0.07860 0.04543 0.67637
 C1107 C 0.09607 0.01802 0.71553
 C1108 C 0.09587 -0.00679 0.73128
 C1109 C 0.07787 -0.02878 0.72381
 C1110 C 0.06028 -0.02622 0.70073
 H1111 H 0.02868 -0.01577 0.65645
 H1112 H 0.09239 0.06269 0.68171
 H1113 H 0.10956 0.03532 0.72142
 H1114 H 0.04648 -0.04348 0.69540
 H1115 H 0.06096 0.06764 0.64190
 H1116 H 0.07732 -0.04791 0.73598
 C1117 C 0.55688 0.54994 0.17407
 C1118 C 0.54970 0.52820 0.15482
 C1119 C 0.56199 0.50162 0.15722
 C1120 C 0.58090 0.49661 0.17882
 C1121 C 0.58754 0.51839 0.19845
 C1122 C 0.57559 0.54505 0.19578
 C1123 C 0.60574 0.51301 0.22063
 C1124 C 0.61723 0.48611 0.22352
 C1125 C 0.61124 0.46494 0.20336
 C1126 C 0.59315 0.47010 0.18122
 H1127 H 0.55699 0.48483 0.14222
 H1128 H 0.58050 0.56202 0.21061
 H1129 H 0.61071 0.52968 0.23576
 H1130 H 0.58851 0.45326 0.16617
 H1131 H 0.54762 0.57058 0.17271
 H1132 H 0.62010 0.44422 0.20468
 C1133 C 0.47069 0.01098 0.17389
 C1134 C 0.46798 -0.01516 0.15954
 C1135 C 0.44773 -0.03423 0.16740
 C1136 C 0.43018 -0.02712 0.18889
 C1137 C 0.43287 -0.00060 0.20283
 C1138 C 0.45329 0.01819 0.19531
 C1139 C 0.41499 0.00673 0.22391
 C1140 C 0.39439 -0.01203 0.23113
 C1141 C 0.39214 -0.03855 0.21765
 C1142 C 0.40986 -0.04602 0.19659
 H1143 H 0.44553 -0.05461 0.15687
 H1144 H 0.45564 0.03860 0.20581
 H1145 H 0.41692 0.02712 0.23456
 H1146 H 0.40760 -0.06652 0.18626
 H1147 H 0.48591 0.02620 0.16827
 H1148 H 0.37672 -0.05353 0.22323
 C1149 C 0.93560 0.44755 0.63935
 C1150 C 0.95314 0.46970 0.63233
 C1151 C 0.95122 0.49589 0.64651
 C1152 C 0.93251 0.49983 0.66762
 C1153 C 0.91524 0.47733 0.67485
 C1154 C 0.91686 0.45131 0.66044
 C1155 C 0.89696 0.48120 0.69655
 C1156 C 0.89590 0.50728 0.71097
 C1157 C 0.91294 0.52952 0.70337
 C1158 C 0.93104 0.52590 0.68186
 H1159 H 0.96422 0.51338 0.64114
 H1160 H 0.90380 0.43380 0.66563
 H1161 H 0.88399 0.46387 0.70241
 H1162 H 0.94412 0.54337 0.67659
 H1163 H 0.93664 0.42711 0.62889
 H1164 H 0.91253 0.54968 0.71448
 C1165 C 0.98525 0.52549 0.81668
 C1166 C 0.97439 0.53399 0.84232
 C1167 C 0.94635 0.53792 0.84381
 C1168 C 0.92944 0.53290 0.82017
 C1169 C 0.94068 0.52397 0.79473
 C1170 C 0.96858 0.52050 0.79316
 C1171 C 0.92386 0.51830 0.77130
 C1172 C 0.89586 0.52173 0.77267
 C1173 C 0.88479 0.53041 0.79807
 C1174 C 0.90143 0.53610 0.82161
 H1175 H 0.93757 0.54428 0.86340
 H1176 H 0.97753 0.51378 0.77374
 H1177 H 0.93276 0.51057 0.75229
 H1178 H 0.89237 0.54269 0.84099
 H1179 H 1.00671 0.52269 0.81462
 H1180 H 0.86329 0.53242 0.80001
 C1181 C 0.46264 -0.01632 0.35783
 C1182 C 0.46166 0.01085 0.37030
 C1183 C 0.44332 0.03069 0.35938
 C1184 C 0.42644 0.02357 0.33622
 C1185 C 0.42778 -0.00377 0.32387
 C1186 C 0.44589 -0.02355 0.33487
 C1187 C 0.41100 -0.01088 0.30070
 C1188 C 0.39267 0.00884 0.28989
 C1189 C 0.39171 0.03609 0.30194
 C1190 C 0.40839 0.04338 0.32500
 H1191 H 0.44241 0.05177 0.36854
 H1192 H 0.44711 -0.04463 0.32572
 H1193 H 0.41211 -0.03180 0.29112
 H1194 H 0.40723 0.06453 0.33399
 H1195 H 0.47623 -0.03223 0.36588
 H1196 H 0.37827 0.05193 0.29355
   
