data_POSCAR
  _audit_creation_date              2014-09-24
  _audit_creation_method            'ToBaCCo'
  _symmetry_space_group_name_H-M    'P1'
  _symmetry_Int_Tables_number       1
  _symmetry_cell_setting            triclinic
  loop_
  _symmetry_equiv_pos_as_xyz
 x,y,z
_cell_length_a 54.3419
_cell_length_b 36.9028
_cell_length_c 36.7950
_cell_angle_alpha 89.992000
_cell_angle_beta 89.727800
_cell_angle_gamma 89.924300
loop_
  _atom_site_label
  _atom_site_type_symbol
  _atom_site_fract_x
  _atom_site_fract_y
  _atom_site_fract_z
Si1 Si 1.25041 0.24857 0.24909
 Si2 Si 0.75040 -0.25178 0.24953
 Si3 Si 0.75044 0.24856 -0.25068
 Si4 Si 1.25041 -0.25121 -0.25076
 Si5 Si 0.25038 0.25219 0.75059
 Si6 Si 0.75047 0.75241 0.75014
 Si7 Si 0.75042 0.25269 0.25044
 Si8 Si 0.25043 0.75222 0.25045
 O9 O 1.03508 0.06316 0.06617
 O10 O 1.06228 0.03029 0.03143
 C11 C 1.05726 0.05406 0.05638
 O12 O 0.96632 -0.06749 0.06274
 O13 O 0.93901 -0.03232 0.03099
 C14 C 0.94412 -0.05783 0.05404
 O15 O 1.03498 -0.06512 0.06513
 O16 O 1.06220 -0.03127 0.03156
 C17 C 1.05718 -0.05564 0.05593
 O18 O 0.96638 0.06612 0.06418
 O19 O 0.93904 0.03184 0.03165
 C20 C 0.94417 0.05684 0.05523
 Zr21 Zr 1.00063 0.04466 0.04708
 O22 O 1.00022 0.03744 0.10404
 O23 O 1.00110 0.10162 0.05325
 Zr24 Zr 1.00061 -0.04597 0.04610
 O25 O 1.00016 -0.04002 0.10322
 O26 O 1.00086 -0.10308 0.05088
 O27 O 1.02287 -0.00079 0.05340
 O28 O 0.97881 -0.00066 0.05328
 O29 O 0.96619 0.06640 -0.06230
 O30 O 0.93894 0.03202 -0.02939
 C31 C 0.94399 0.05701 -0.05307
 O32 O 1.03495 -0.06311 -0.06629
 O33 O 1.06221 -0.03047 -0.03200
 C34 C 1.05714 -0.05407 -0.05698
 O35 O 0.96617 -0.06515 -0.06367
 O36 O 0.93895 -0.03133 -0.02999
 C37 C 0.94399 -0.05586 -0.05416
 O38 O 1.03502 0.06417 -0.06481
 O39 O 1.06224 0.03044 -0.03141
 C40 C 1.05720 0.05474 -0.05576
 Zr41 Zr 1.00058 0.04598 -0.04479
 O42 O 0.99820 0.04607 -0.10222
 O43 O 1.00271 0.10327 -0.04415
 Zr44 Zr 1.00057 -0.04527 -0.04578
 O45 O 0.99818 -0.04425 -0.10320
 O46 O 1.00261 -0.10257 -0.04625
 Zr47 Zr 1.03744 -0.00028 0.00018
 Zr48 Zr 0.96368 -0.00002 0.00079
 O49 O 0.97912 0.00049 -0.05178
 O50 O 1.02265 0.00038 -0.05268
 O51 O 0.97869 0.05267 0.00136
 O52 O 1.02196 -0.05248 -0.00011
 O53 O 1.02195 0.05202 0.00100
 O54 O 0.97866 -0.05280 0.00023
 H55 H 0.96755 -0.00082 0.07454
 H56 H 1.03299 -0.07387 -0.00052
 H57 H 0.96814 0.00074 -0.07320
 H58 H 1.03289 0.07347 0.00098
 H59 H 1.00514 -0.11290 0.02670
 H60 H 0.98894 -0.11177 -0.03096
 H61 H 1.01222 -0.02990 -0.11247
 H62 H 1.01245 0.03228 -0.11179
 H63 H 0.98888 0.11233 -0.02907
 H64 H 1.00426 0.11199 0.02893
 H65 H 0.99963 0.06211 0.11464
 H66 H 0.99944 -0.06490 0.11328
 O67 O 1.03518 0.56467 0.56463
 O68 O 1.06235 0.53150 0.53022
 C69 C 1.05734 0.55539 0.55504
 O70 O 0.96620 0.43552 0.56327
 O71 O 0.93897 0.46990 0.53044
 C72 C 0.94400 0.44504 0.55427
 O73 O 1.03514 0.43792 0.56554
 O74 O 1.06235 0.47051 0.53071
 C75 C 1.05732 0.44697 0.55587
 O76 O 0.96625 0.56687 0.56278
 O77 O 0.93900 0.53251 0.53014
 C78 C 0.94405 0.55742 0.55384
 Zr79 Zr 1.00078 0.54680 0.54486
 O80 O 0.99839 0.54689 0.60231
 O81 O 1.00320 0.60407 0.54438
 Zr82 Zr 1.00073 0.45533 0.54518
 O83 O 0.99861 0.45381 0.60262
 O84 O 1.00162 0.39819 0.54161
 O85 O 1.02279 0.50106 0.55198
 O86 O 0.97942 0.50115 0.55200
 O87 O 0.96608 0.56629 0.43576
 O88 O 0.93898 0.53228 0.46942
 C89 C 0.94393 0.55689 0.44531
 O90 O 1.03505 0.43680 0.43346
 O91 O 1.06230 0.47014 0.46708
 C92 C 1.05723 0.44608 0.44254
 O93 O 0.96638 0.43437 0.43656
 O94 O 0.93928 0.46915 0.46941
 C95 C 0.94423 0.44404 0.44580
 O96 O 1.03505 0.56426 0.43261
 O97 O 1.06233 0.53129 0.46668
 C98 C 1.05726 0.55509 0.44182
 Zr99 Zr 1.00065 0.54644 0.45319
 O100 O 0.99813 0.54584 0.39579
 O101 O 1.00302 0.60371 0.45307
 Zr102 Zr 1.00069 0.45501 0.45369
 O103 O 0.99818 0.45543 0.39627
 O104 O 1.00270 0.39773 0.45404
 Zr105 Zr 1.03760 0.50087 0.49888
 Zr106 Zr 0.96402 0.50104 0.49968
 O107 O 0.97926 0.50071 0.44699
 O108 O 1.02273 0.50066 0.44603
 O109 O 0.97870 0.55388 0.49923
 O110 O 1.02223 0.44855 0.49932
 O111 O 1.02214 0.55322 0.49878
 O112 O 0.97866 0.44819 0.49972
 H113 H 0.96846 0.50121 0.57360
 H114 H 1.03324 0.42712 0.49939
 H115 H 0.96818 0.50055 0.42568
 H116 H 1.03312 0.57463 0.49858
 H117 H 1.00155 0.38914 0.56697
 H118 H 0.99121 0.38907 0.47308
 H119 H 1.01242 0.46921 0.38676
 H120 H 1.01209 0.53134 0.38639
 H121 H 0.98909 0.61310 0.46771
 H122 H 0.98921 0.61336 0.53000
 H123 H 1.01244 0.53265 0.61165
 H124 H 1.01103 0.47095 0.61196
 O125 O 0.53457 0.06325 0.56515
 O126 O 0.56181 0.03050 0.53040
 C127 C 0.55677 0.05415 0.55548
 O128 O 0.46602 -0.06677 0.56187
 O129 O 0.43866 -0.03191 0.52989
 C130 C 0.44381 -0.05720 0.55316
 O131 O 0.53467 -0.06406 0.56418
 O132 O 0.56185 -0.03059 0.53014
 C133 C 0.55684 -0.05469 0.55477
 O134 O 0.46579 0.06577 0.56323
 O135 O 0.43856 0.03182 0.53019
 C136 C 0.44361 0.05654 0.55410
 Zr137 Zr 0.50017 0.04563 0.54497
 O138 O 0.49809 0.04510 0.60243
 O139 O 0.50256 0.10290 0.54475
 Zr140 Zr 0.50028 -0.04536 0.54497
 O141 O 0.49971 -0.03946 0.60209
 O142 O 0.50076 -0.10244 0.55004
 O143 O 0.52237 0.00007 0.55182
 O144 O 0.47861 0.00003 0.55176
 O145 O 0.46573 0.06603 0.43578
 O146 O 0.43854 0.03180 0.46900
 C147 C 0.44357 0.05661 0.44513
 O148 O 0.53456 -0.06347 0.43278
 O149 O 0.56179 -0.03041 0.46671
 C150 C 0.55674 -0.05427 0.44198
 O151 O 0.46575 -0.06550 0.43532
 O152 O 0.43852 -0.03153 0.46881
 C153 C 0.44355 -0.05622 0.44477
 O154 O 0.53454 0.06377 0.43299
 O155 O 0.56181 0.03060 0.46687
 C156 C 0.55674 0.05455 0.44219
 Zr157 Zr 0.50014 0.04583 0.45334
 O158 O 0.49768 0.04565 0.39593
 O159 O 0.50254 0.10310 0.45366
 Zr160 Zr 0.50017 -0.04549 0.45317
 O161 O 0.49779 -0.04498 0.39574
 O162 O 0.50227 -0.10279 0.45323
 Zr163 Zr 0.53705 0.00007 0.49869
 Zr164 Zr 0.46330 0.00008 0.49935
 O165 O 0.47872 0.00019 0.44677
 O166 O 0.52222 0.00016 0.44584
 O167 O 0.47809 0.05290 0.49934
 O168 O 0.52162 -0.05220 0.49884
 O169 O 0.52158 0.05238 0.49900
 O170 O 0.47829 -0.05269 0.49923
 H171 H 0.46751 -0.00014 0.57320
 H172 H 0.53265 -0.07359 0.49863
 H173 H 0.46773 0.00025 0.42536
 H174 H 0.53257 0.07379 0.49900
 H175 H 0.50432 -0.11238 0.52567
 H176 H 0.48834 -0.11193 0.46805
 H177 H 0.51182 -0.03067 0.38635
 H178 H 0.51171 0.03135 0.38643
 H179 H 0.48860 0.11241 0.46832
 H180 H 0.48857 0.11227 0.53045
 H181 H 0.51079 0.02802 0.61123
 H182 H 0.49921 -0.06435 0.61215
 O183 O 0.53461 0.56401 0.06628
 O184 O 0.56180 0.53134 0.03135
 C185 C 0.55678 0.55489 0.05650
 O186 O 0.46587 0.43509 0.06372
 O187 O 0.43860 0.46955 0.03116
 C188 C 0.44368 0.44455 0.05475
 O189 O 0.53459 0.43761 0.06589
 O190 O 0.56179 0.47038 0.03123
 C191 C 0.55676 0.44667 0.05622
 O192 O 0.46587 0.56696 0.06443
 O193 O 0.43857 0.53317 0.03135
 C194 C 0.44365 0.55786 0.05529
 Zr195 Zr 0.50022 0.54676 0.04596
 O196 O 0.49828 0.54654 0.10343
 O197 O 0.50274 0.60402 0.04540
 Zr198 Zr 0.50023 0.45562 0.04596
 O199 O 0.49939 0.45958 0.10326
 O200 O 0.50236 0.39837 0.04774
 O201 O 0.52233 0.50107 0.05276
 O202 O 0.47869 0.50120 0.05281
 O203 O 0.46576 0.56712 -0.06321
 O204 O 0.43854 0.53304 -0.02988
 C205 C 0.44359 0.55777 -0.05382
 O206 O 0.53446 0.43748 -0.06623
 O207 O 0.56176 0.47041 -0.03231
 C208 C 0.55667 0.44657 -0.05708
 O209 O 0.46566 0.43563 -0.06337
 O210 O 0.43849 0.46979 -0.02996
 C211 C 0.44350 0.44505 -0.05395
 O212 O 0.53457 0.56471 -0.06608
 O213 O 0.56181 0.53149 -0.03221
 C214 C 0.55675 0.55543 -0.05691
 Zr215 Zr 0.50017 0.54689 -0.04563
 O216 O 0.49767 0.54673 -0.10304
 O217 O 0.50264 0.60415 -0.04529
 Zr218 Zr 0.50010 0.45553 -0.04570
 O219 O 0.49762 0.45576 -0.10311
 O220 O 0.50249 0.39825 -0.04532
 Zr221 Zr 0.53704 0.50102 -0.00031
 Zr222 Zr 0.46329 0.50131 0.00047
 O223 O 0.47871 0.50129 -0.05213
 O224 O 0.52218 0.50114 -0.05313
 O225 O 0.47813 0.55408 0.00037
 O226 O 0.52156 0.44880 -0.00008
 O227 O 0.52165 0.55340 -0.00001
 O228 O 0.47812 0.44847 0.00033
 H229 H 0.46768 0.50117 0.07435
 H230 H 0.53250 0.42729 -0.00013
 H231 H 0.46771 0.50136 -0.07354
 H232 H 0.53268 0.57475 -0.00002
 H233 H 0.49005 0.38891 0.03049
 H234 H 0.48826 0.38894 -0.03132
 H235 H 0.51154 0.47025 -0.11259
 H236 H 0.51161 0.53227 -0.11255
 H237 H 0.48869 0.61350 -0.03069
 H238 H 0.48854 0.61339 0.03153
 H239 H 0.50995 0.52787 0.11210
 H240 H 0.49929 0.43436 0.11252
 C241 C 1.19481 0.18651 0.17578
 C242 C 1.21408 0.16755 0.19272
 C243 C 1.23134 0.18603 0.21379
 C244 C 1.22982 0.22373 0.21773
 C245 C 1.21115 0.24284 0.19995
 C246 C 1.19374 0.22442 0.17923
 C247 C 1.17519 0.16686 0.15625
 N248 N 1.15345 0.18346 0.14905
 N249 N 1.13527 0.16553 0.13302
 C250 C 1.13807 0.13026 0.12336
 N251 N 1.15991 0.11369 0.13021
 N252 N 1.17807 0.13160 0.14646
 C253 C 1.11752 0.11030 0.10643
 C254 C 1.12169 0.07774 0.08755
 C255 C 1.10214 0.05935 0.07127
 C256 C 1.07800 0.07287 0.07407
 C257 C 1.07385 0.10517 0.09335
 C258 C 1.09340 0.12378 0.10914
 H259 H 1.21534 0.13834 0.19072
 H260 H 1.24545 0.17066 0.22759
 H261 H 1.20963 0.27196 0.20289
 H262 H 1.17922 0.23985 0.16639
 H263 H 1.14009 0.06672 0.08496
 H264 H 1.10591 0.03453 0.05657
 H265 H 1.05551 0.11642 0.09585
 H266 H 1.08955 0.14866 0.12370
 C267 C 1.19477 0.68684 0.67587
 C268 C 1.19373 0.72475 0.67937
 C269 C 1.21113 0.74311 0.70015
 C270 C 1.22977 0.72395 0.71795
 C271 C 1.23125 0.68625 0.71400
 C272 C 1.21399 0.66783 0.69286
 C273 C 1.17517 0.66729 0.65619
 N274 N 1.17800 0.63201 0.64642
 N275 N 1.15986 0.61422 0.62996
 C276 C 1.13811 0.63094 0.62289
 N277 N 1.13536 0.66621 0.63255
 N278 N 1.15351 0.68402 0.64878
 C279 C 1.11758 0.61114 0.60571
 C280 C 1.09350 0.62485 0.60809
 C281 C 1.07396 0.60640 0.59210
 C282 C 1.07808 0.57403 0.57292
 C283 C 1.10217 0.56029 0.57042
 C284 C 1.12171 0.57852 0.58692
 H285 H 1.17925 0.74023 0.66649
 H286 H 1.20964 0.77224 0.70309
 H287 H 1.24533 0.67085 0.72781
 H288 H 1.21522 0.63861 0.69083
 H289 H 1.08967 0.64980 0.62255
 H290 H 1.05566 0.61784 0.59436
 H291 H 1.10592 0.53542 0.55579
 H292 H 1.14008 0.56733 0.58456
 C293 C 0.69444 0.18575 0.67682
 C294 C 0.71373 0.16693 0.69389
 C295 C 0.73114 0.18559 0.71464
 C296 C 0.72976 0.22336 0.71814
 C297 C 0.71106 0.24231 0.70020
 C298 C 0.69352 0.22372 0.67984
 C299 C 0.67471 0.16599 0.65746
 N300 N 0.65297 0.18261 0.65023
 N301 N 0.63478 0.16473 0.63411
 C302 C 0.63756 0.12947 0.62433
 N303 N 0.65938 0.11286 0.63126
 N304 N 0.67755 0.13072 0.64763
 C305 C 0.61701 0.10964 0.60701
 C306 C 0.62118 0.07725 0.58781
 C307 C 0.60166 0.05912 0.57104
 C308 C 0.57752 0.07270 0.57366
 C309 C 0.57337 0.10481 0.59329
 C310 C 0.59288 0.12317 0.60953
 H311 H 0.71491 0.13768 0.69222
 H312 H 0.74524 0.17033 0.72856
 H313 H 0.70962 0.27148 0.70279
 H314 H 0.67901 0.23908 0.66689
 H315 H 0.63958 0.06618 0.58531
 H316 H 0.60547 0.03447 0.55609
 H317 H 0.55504 0.11614 0.59569
 H318 H 0.58901 0.14794 0.62428
 C319 C 0.69456 0.68618 0.17661
 C320 C 0.69355 0.72409 0.18000
 C321 C 0.71102 0.74250 0.20059
 C322 C 0.72971 0.72337 0.21832
 C323 C 0.73117 0.68565 0.21444
 C324 C 0.71383 0.66719 0.19348
 C325 C 0.67486 0.66658 0.15721
 N326 N 0.67771 0.63135 0.14726
 N327 N 0.65950 0.61352 0.13103
 C328 C 0.63765 0.63013 0.12439
 N329 N 0.63487 0.66535 0.13423
 N330 N 0.65310 0.68321 0.15023
 C331 C 0.61707 0.61030 0.10738
 C332 C 0.59295 0.62376 0.11031
 C333 C 0.57339 0.60537 0.09431
 C334 C 0.57752 0.57333 0.07458
 C335 C 0.60165 0.55981 0.07160
 C336 C 0.62122 0.57797 0.08811
 H337 H 0.67902 0.73954 0.16720
 H338 H 0.70955 0.77163 0.20349
 H339 H 0.74528 0.67027 0.22820
 H340 H 0.71505 0.63797 0.19153
 H341 H 0.58913 0.64848 0.12516
 H342 H 0.55506 0.61663 0.09695
 H343 H 0.60541 0.53520 0.05655
 H344 H 0.63962 0.56698 0.08534
 C345 C 0.80664 -0.17962 0.18657
 C346 C 0.78719 -0.19619 0.16779
 C347 C 0.76975 -0.21693 0.18654
 C348 C 0.77127 -0.22087 0.22434
 C349 C 0.79015 -0.20346 0.24327
 C350 C 0.80774 -0.18311 0.22458
 C351 C 0.82637 -0.16031 0.16665
 N352 N 0.84829 -0.15377 0.18290
 N353 N 0.86650 -0.13772 0.16477
 C354 C 0.86354 -0.12739 0.12965
 N355 N 0.84155 -0.13362 0.11343
 N356 N 0.82335 -0.14991 0.13152
 C357 C 0.88406 -0.11014 0.10957
 C358 C 0.87977 -0.09026 0.07764
 C359 C 0.89927 -0.07334 0.05939
 C360 C 0.92346 -0.07650 0.07241
 C361 C 0.92773 -0.09692 0.10399
 C362 C 0.90825 -0.11334 0.12247
 H363 H 0.78591 -0.19416 0.13851
 H364 H 0.75549 -0.23045 0.17130
 H365 H 0.79167 -0.20641 0.27246
 H366 H 0.82241 -0.17053 0.23987
 H367 H 0.86131 -0.08726 0.06708
 H368 H 0.89539 -0.05776 0.03515
 H369 H 0.94612 -0.09975 0.11487
 H370 H 0.91219 -0.12867 0.14686
 C371 C 0.80677 0.32120 0.68647
 C372 C 0.80769 0.31779 0.72450
 C373 C 0.79012 0.29725 0.74309
 C374 C 0.77141 0.27952 0.72407
 C375 C 0.77009 0.28329 0.68622
 C376 C 0.78752 0.30422 0.66757
 C377 C 0.82643 0.34100 0.66670
 N378 N 0.82359 0.35103 0.63142
 N379 N 0.84167 0.36788 0.61356
 C380 C 0.86340 0.37513 0.63018
 N381 N 0.86618 0.36515 0.66545
 N382 N 0.84808 0.34854 0.68334
 C383 C 0.88387 0.39293 0.61032
 C384 C 0.90796 0.39096 0.62388
 C385 C 0.92743 0.40749 0.60540
 C386 C 0.92326 0.42686 0.57312
 C387 C 0.89915 0.42903 0.55956
 C388 C 0.87968 0.41197 0.57782
 H389 H 0.82218 0.33065 0.73993
 H390 H 0.79151 0.29445 0.77232
 H391 H 0.75597 0.26954 0.67090
 H392 H 0.78635 0.30617 0.63827
 H393 H 0.91186 0.37637 0.64874
 H394 H 0.94573 0.40544 0.61672
 H395 H 0.89534 0.44377 0.53478
 H396 H 0.86131 0.41407 0.56673
 C397 C 0.30660 -0.17892 0.68631
 C398 C 0.28719 -0.19559 0.66753
 C399 C 0.26978 -0.21639 0.68626
 C400 C 0.27130 -0.22030 0.72407
 C401 C 0.29014 -0.20283 0.74300
 C402 C 0.30770 -0.18240 0.72432
 C403 C 0.32627 -0.15952 0.66638
 N404 N 0.34817 -0.15278 0.68264
 N405 N 0.36633 -0.13667 0.66447
 C406 C 0.36336 -0.12647 0.62932
 N407 N 0.34139 -0.13290 0.61309
 N408 N 0.32324 -0.14924 0.63122
 C409 C 0.38384 -0.10921 0.60917
 C410 C 0.37951 -0.08957 0.57709
 C411 C 0.39898 -0.07273 0.55871
 C412 C 0.42318 -0.07572 0.57174
 C413 C 0.42748 -0.09585 0.60350
 C414 C 0.40803 -0.11219 0.62211
 H415 H 0.28591 -0.19356 0.63824
 H416 H 0.25555 -0.22996 0.67101
 H417 H 0.29166 -0.20576 0.77220
 H418 H 0.32234 -0.16975 0.73962
 H419 H 0.36105 -0.08674 0.56651
 H420 H 0.39507 -0.05738 0.53433
 H421 H 0.44588 -0.09853 0.61438
 H422 H 0.41199 -0.12733 0.64661
 C423 C 0.30650 0.32155 0.18677
 C424 C 0.28719 0.30481 0.16780
 C425 C 0.26982 0.28377 0.18634
 C426 C 0.27128 0.27965 0.22412
 C427 C 0.29003 0.29716 0.24324
 C428 C 0.30754 0.31784 0.22476
 C429 C 0.32612 0.34129 0.16707
 N430 N 0.34786 0.34844 0.18361
 N431 N 0.36600 0.36487 0.16568
 C432 C 0.36316 0.37499 0.13048
 N433 N 0.34134 0.36816 0.11397
 N434 N 0.32322 0.35151 0.13187
 C435 C 0.38363 0.39251 0.11057
 C436 C 0.37941 0.41177 0.07823
 C437 C 0.39889 0.42871 0.05997
 C438 C 0.42301 0.42620 0.07340
 C439 C 0.42722 0.40652 0.10547
 C440 C 0.40775 0.39008 0.12394
 H441 H 0.28596 0.30701 0.13852
 H442 H 0.25565 0.27019 0.17096
 H443 H 0.29150 0.29408 0.27243
 H444 H 0.32209 0.33052 0.24020
 H445 H 0.36101 0.41417 0.06730
 H446 H 0.39506 0.44370 0.03534
 H447 H 0.44555 0.40421 0.11665
 H448 H 0.41164 0.37524 0.14866
 C449 C 0.80637 0.17672 -0.18678
 C450 C 0.78683 0.19370 -0.16821
 C451 C 0.76942 0.21419 -0.18722
 C452 C 0.77106 0.21752 -0.22510
 C453 C 0.78999 0.19962 -0.24382
 C454 C 0.80754 0.17951 -0.22487
 C455 C 0.82612 0.15773 -0.16663
 N456 N 0.84808 0.15074 -0.18297
 N457 N 0.86626 0.13495 -0.16473
 C458 C 0.86327 0.12528 -0.12937
 N459 N 0.84124 0.13197 -0.11304
 N460 N 0.82307 0.14801 -0.13126
 C461 C 0.88380 0.10829 -0.10916
 C462 C 0.87952 0.08904 -0.07676
 C463 C 0.89903 0.07243 -0.05836
 C464 C 0.92326 0.07527 -0.07168
 C465 C 0.92751 0.09502 -0.10375
 C466 C 0.90802 0.11111 -0.12237
 H467 H 0.78545 0.19219 -0.13888
 H468 H 0.75512 0.22807 -0.17213
 H469 H 0.79162 0.20206 -0.27307
 H470 H 0.82224 0.16660 -0.24005
 H471 H 0.86105 0.08633 -0.06592
 H472 H 0.89514 0.05738 -0.03375
 H473 H 0.94591 0.09762 -0.11488
 H474 H 0.91199 0.12593 -0.14710
 C475 C 0.80593 0.67518 0.31228
 C476 C 0.78657 0.69225 0.33117
 C477 C 0.76929 0.71320 0.31249
 C478 C 0.77090 0.71689 0.27466
 C479 C 0.78965 0.69893 0.25562
 C480 C 0.80706 0.67833 0.27423
 C481 C 0.82561 0.65589 0.33212
 N482 N 0.84738 0.64851 0.31546
 N483 N 0.86563 0.63273 0.33354
 C484 C 0.86286 0.62351 0.36904
 N485 N 0.84100 0.63053 0.38568
 N486 N 0.82277 0.64654 0.36762
 C487 C 0.88348 0.60682 0.38913
 C488 C 0.87942 0.58837 0.42203
 C489 C 0.89904 0.57220 0.44045
 C490 C 0.92314 0.57469 0.42662
 C491 C 0.92719 0.59360 0.39400
 C492 C 0.90758 0.60927 0.37537
 H493 H 0.78525 0.69047 0.36049
 H494 H 0.75513 0.72714 0.32780
 H495 H 0.79124 0.70168 0.22639
 H496 H 0.82164 0.66537 0.25884
 H497 H 0.86104 0.58598 0.43327
 H498 H 0.89533 0.55777 0.46550
 H499 H 0.94550 0.59585 0.38248
 H500 H 0.91136 0.62348 0.35021
 C501 C 0.30592 0.17556 0.31190
 C502 C 0.28648 0.19246 0.33073
 C503 C 0.26921 0.21340 0.31203
 C504 C 0.27092 0.21723 0.27422
 C505 C 0.28976 0.19944 0.25522
 C506 C 0.30716 0.17885 0.27387
 C507 C 0.32558 0.15626 0.33180
 N508 N 0.34744 0.14914 0.31528
 N509 N 0.36564 0.13331 0.33342
 C510 C 0.36274 0.12380 0.36882
 N511 N 0.34079 0.13058 0.38531
 N512 N 0.32260 0.14663 0.36719
 C513 C 0.38330 0.10702 0.38896
 C514 C 0.37912 0.08823 0.42163
 C515 C 0.39868 0.07192 0.44007
 C516 C 0.42284 0.07460 0.42648
 C517 C 0.42700 0.09388 0.39411
 C518 C 0.40745 0.10969 0.37546
 H519 H 0.28508 0.19056 0.36004
 H520 H 0.25497 0.22720 0.32731
 H521 H 0.29141 0.20229 0.22601
 H522 H 0.32182 0.16602 0.25853
 H523 H 0.36070 0.08566 0.43267
 H524 H 0.39489 0.05721 0.46493
 H525 H 0.44536 0.09631 0.38279
 H526 H 0.41132 0.12418 0.35049
 C527 C 0.30589 0.67603 -0.18758
 C528 C 0.28643 0.69300 -0.16885
 C529 C 0.26916 0.71384 -0.18767
 C530 C 0.27088 0.71750 -0.22550
 C531 C 0.28972 0.69960 -0.24440
 C532 C 0.30712 0.67913 -0.22564
 C533 C 0.32556 0.65688 -0.16758
 N534 N 0.34743 0.64970 -0.18406
 N535 N 0.36565 0.63401 -0.16583
 C536 C 0.36276 0.62471 -0.13037
 N537 N 0.34081 0.63155 -0.11392
 N538 N 0.32260 0.64746 -0.13212
 C539 C 0.38333 0.60805 -0.11015
 C540 C 0.37916 0.58941 -0.07738
 C541 C 0.39871 0.57316 -0.05889
 C542 C 0.42287 0.57575 -0.07251
 C543 C 0.42703 0.59490 -0.10496
 C544 C 0.40748 0.61065 -0.12367
 H545 H 0.28502 0.69125 -0.13954
 H546 H 0.25492 0.72771 -0.17246
 H547 H 0.29139 0.70232 -0.27362
 H548 H 0.32179 0.66623 -0.24091
 H549 H 0.36073 0.58691 -0.06632
 H550 H 0.39492 0.55856 -0.03396
 H551 H 0.44538 0.59725 -0.11631
 H552 H 0.41134 0.62502 -0.14871
 C553 C 1.19450 -0.18786 -0.17807
 C554 C 1.19324 -0.22577 -0.18135
 C555 C 1.21073 -0.24458 -0.20186
 C556 C 1.22968 -0.22587 -0.21962
 C557 C 1.23138 -0.18817 -0.21586
 C558 C 1.21402 -0.16931 -0.19499
 C559 C 1.17483 -0.16781 -0.15868
 N560 N 1.17785 -0.13257 -0.14896
 N561 N 1.15969 -0.11435 -0.13269
 C562 C 1.13773 -0.13056 -0.12576
 N563 N 1.13478 -0.16579 -0.13539
 N564 N 1.15295 -0.18404 -0.15144
 C565 C 1.11723 -0.11033 -0.10862
 C566 C 1.09307 -0.12358 -0.11100
 C567 C 1.07359 -0.10490 -0.09477
 C568 C 1.07782 -0.07276 -0.07535
 C569 C 1.10198 -0.05940 -0.07296
 C570 C 1.12148 -0.07787 -0.08969
 H571 H 1.17852 -0.24090 -0.16851
 H572 H 1.20908 -0.27369 -0.20467
 H573 H 1.24571 -0.17311 -0.22963
 H574 H 1.21543 -0.14010 -0.19312
 H575 H 1.08915 -0.14837 -0.12559
 H576 H 1.05523 -0.11604 -0.09698
 H577 H 1.10582 -0.03470 -0.05817
 H578 H 1.13991 -0.06702 -0.08735
 C579 C 1.19455 0.31166 0.32209
 C580 C 1.21401 0.33027 0.30508
 C581 C 1.23133 0.31148 0.28410
 C582 C 1.22967 0.27378 0.28031
 C583 C 1.21079 0.25500 0.29814
 C584 C 1.19332 0.27374 0.31878
 C585 C 1.17493 0.33167 0.34162
 N586 N 1.15314 0.31533 0.34923
 N587 N 1.13498 0.33357 0.36533
 C588 C 1.13786 0.36891 0.37463
 N589 N 1.15974 0.38522 0.36735
 N590 N 1.17787 0.36700 0.35104
 C591 C 1.11736 0.38919 0.39170
 C592 C 1.12155 0.42203 0.40999
 C593 C 1.10204 0.44068 0.42647
 C594 C 1.07792 0.42712 0.42448
 C595 C 1.07374 0.39455 0.40575
 C596 C 1.09324 0.37570 0.38977
 H597 H 1.21539 0.35948 0.30697
 H598 H 1.24559 0.32661 0.27026
 H599 H 1.20916 0.22589 0.29530
 H600 H 1.17865 0.25856 0.33168
 H601 H 1.13995 0.43307 0.41198
 H602 H 1.10584 0.46571 0.44072
 H603 H 1.05541 0.38325 0.40388
 H604 H 1.08936 0.35059 0.37569
 C605 C 0.69447 -0.18844 0.32220
 C606 C 0.69329 -0.22637 0.31906
 C607 C 0.71080 -0.24518 0.29859
 C608 C 0.72970 -0.22646 0.28073
 C609 C 0.73135 -0.18875 0.28438
 C610 C 0.71397 -0.16988 0.30521
 C611 C 0.67476 -0.16839 0.34147
 N612 N 0.67768 -0.13307 0.35097
 N613 N 0.65947 -0.11483 0.36708
 C614 C 0.63754 -0.13111 0.37407
 N615 N 0.63468 -0.16642 0.36468
 N616 N 0.65291 -0.18468 0.34879
 C617 C 0.61697 -0.11084 0.39102
 C618 C 0.59284 -0.12420 0.38870
 C619 C 0.57330 -0.10543 0.40469
 C620 C 0.57746 -0.07308 0.42380
 C621 C 0.60159 -0.05962 0.42614
 C622 C 0.62114 -0.07818 0.40964
 H623 H 0.67860 -0.24152 0.33197
 H624 H 0.70919 -0.27431 0.29587
 H625 H 0.74563 -0.17367 0.27052
 H626 H 0.71533 -0.14066 0.30697
 H627 H 0.58898 -0.14916 0.37435
 H628 H 0.55496 -0.11665 0.40254
 H629 H 0.60538 -0.03477 0.44069
 H630 H 0.63955 -0.06724 0.41194
 C631 C 0.69407 0.31230 -0.17862
 C632 C 0.71363 0.33077 -0.19556
 C633 C 0.73110 0.31182 -0.21621
 C634 C 0.72953 0.27408 -0.21973
 C635 C 0.71053 0.25545 -0.20195
 C636 C 0.69291 0.27435 -0.18170
 C637 C 0.67434 0.33243 -0.15929
 N638 N 0.65246 0.31620 -0.15195
 N639 N 0.63430 0.33446 -0.13583
 C640 C 0.63725 0.36970 -0.12619
 N641 N 0.65920 0.38591 -0.13324
 N642 N 0.67734 0.36769 -0.14959
 C643 C 0.61675 0.38995 -0.10886
 C644 C 0.62101 0.42253 -0.09010
 C645 C 0.60154 0.44106 -0.07329
 C646 C 0.57736 0.42769 -0.07541
 C647 C 0.57312 0.39540 -0.09462
 C648 C 0.59258 0.37666 -0.11092
 H649 H 0.71500 0.35999 -0.19386
 H650 H 0.74544 0.32685 -0.22999
 H651 H 0.70894 0.22631 -0.20456
 H652 H 0.67818 0.25924 -0.16886
 H653 H 0.63943 0.43343 -0.08796
 H654 H 0.60541 0.46585 -0.05868
 H655 H 0.55476 0.38423 -0.09664
 H656 H 0.58862 0.35177 -0.12533
 C657 C 1.19452 0.18910 -0.17629
 C658 C 1.19332 0.22703 -0.17955
 C659 C 1.21077 0.24575 -0.20021
 C660 C 1.22965 0.22695 -0.21813
 C661 C 1.23129 0.18924 -0.21440
 C662 C 1.21398 0.17046 -0.19339
 C663 C 1.17490 0.16912 -0.15670
 N664 N 1.17784 0.13375 -0.14735
 N665 N 1.15973 0.11559 -0.13095
 C666 C 1.13788 0.13199 -0.12350
 N667 N 1.13501 0.16736 -0.13275
 N668 N 1.15314 0.18555 -0.14893
 C669 C 1.11738 0.11176 -0.10634
 C670 C 1.09326 0.12541 -0.10802
 C671 C 1.07376 0.10655 -0.09210
 C672 C 1.07792 0.07378 -0.07366
 C673 C 1.10205 0.06011 -0.07181
 C674 C 1.12156 0.07878 -0.08825
 H675 H 1.17867 0.24225 -0.16657
 H676 H 1.20915 0.27488 -0.20297
 H677 H 1.24554 0.17409 -0.22829
 H678 H 1.21538 0.14125 -0.19152
 H679 H 1.08938 0.15065 -0.12188
 H680 H 1.05544 0.11798 -0.09381
 H681 H 1.10586 0.03497 -0.05773
 H682 H 1.13995 0.06762 -0.08639
 C683 C 1.19495 0.68923 0.32071
 C684 C 1.21440 0.67077 0.30343
 C685 C 1.23193 0.68975 0.28293
 C686 C 1.23062 0.72766 0.27989
 C687 C 1.21165 0.74619 0.29811
 C688 C 1.19397 0.72721 0.31815
 C689 C 1.17515 0.66905 0.33988
 N690 N 1.15329 0.68536 0.34734
 N691 N 1.13510 0.66711 0.36333
 C692 C 1.13799 0.63178 0.37275
 N693 N 1.15992 0.61548 0.36558
 N694 N 1.17809 0.63370 0.34934
 C695 C 1.11744 0.61153 0.39002
 C696 C 1.12166 0.57886 0.40868
 C697 C 1.10217 0.56039 0.42549
 C698 C 1.07799 0.57389 0.42345
 C699 C 1.07379 0.60627 0.40431
 C700 C 1.09328 0.62496 0.38804
 H701 H 1.21562 0.64151 0.30471
 H702 H 1.24603 0.67443 0.26889
 H703 H 1.21006 0.77540 0.29606
 H704 H 1.17933 0.74232 0.33127
 H705 H 1.14007 0.56782 0.41076
 H706 H 1.10602 0.53552 0.44002
 H707 H 1.05544 0.61757 0.40235
 H708 H 1.08934 0.64992 0.37371
 C709 C 0.69440 0.18914 0.32280
 C710 C 0.69320 0.22709 0.31977
 C711 C 0.71074 0.24595 0.29944
 C712 C 0.72970 0.22728 0.28158
 C713 C 0.73136 0.18954 0.28511
 C714 C 0.71396 0.17062 0.30581
 C715 C 0.67468 0.16902 0.34199
 N716 N 0.67765 0.13367 0.35142
 N717 N 0.65946 0.11540 0.36748
 C718 C 0.63749 0.13165 0.37449
 N719 N 0.63458 0.16699 0.36516
 N720 N 0.65279 0.18529 0.34932
 C721 C 0.61694 0.11133 0.39141
 C722 C 0.59278 0.12471 0.38917
 C723 C 0.57326 0.10588 0.40510
 C724 C 0.57745 0.07344 0.42409
 C725 C 0.60162 0.05997 0.42636
 C726 C 0.62115 0.07859 0.40992
 H727 H 0.67846 0.24221 0.33266
 H728 H 0.70910 0.27509 0.29680
 H729 H 0.74568 0.17449 0.27125
 H730 H 0.71535 0.14140 0.30748
 H731 H 0.58889 0.14973 0.37492
 H732 H 0.55490 0.11713 0.40300
 H733 H 0.60544 0.03506 0.44082
 H734 H 0.63957 0.06762 0.41217
 C735 C 0.69447 0.68917 -0.17719
 C736 C 0.69330 0.72712 -0.18031
 C737 C 0.71085 0.74588 -0.20075
 C738 C 0.72977 0.72712 -0.21861
 C739 C 0.73139 0.68939 -0.21497
 C740 C 0.71398 0.67056 -0.19417
 C741 C 0.67474 0.66916 -0.15788
 N742 N 0.67767 0.63383 -0.14837
 N743 N 0.65948 0.61567 -0.13217
 C744 C 0.63755 0.63203 -0.12511
 N745 N 0.63469 0.66735 -0.13453
 N746 N 0.65290 0.68554 -0.15049
 C747 C 0.61699 0.61184 -0.10804
 C748 C 0.59286 0.62532 -0.11020
 C749 C 0.57333 0.60663 -0.09415
 C750 C 0.57748 0.57420 -0.07510
 C751 C 0.60162 0.56063 -0.07290
 C752 C 0.62116 0.57912 -0.08947
 H753 H 0.67861 0.74231 -0.16742
 H754 H 0.70923 0.77502 -0.20346
 H755 H 0.74568 0.67427 -0.22883
 H756 H 0.71535 0.64134 -0.19242
 H757 H 0.58899 0.65033 -0.12449
 H758 H 0.55499 0.61795 -0.09620
 H759 H 0.60542 0.53572 -0.05841
 H760 H 0.63957 0.56807 -0.08728
 C761 C 0.80620 -0.17488 -0.18708
 C762 C 0.78681 -0.19184 -0.16820
 C763 C 0.76947 -0.21264 -0.18688
 C764 C 0.77102 -0.21628 -0.22473
 C765 C 0.78979 -0.19843 -0.24377
 C766 C 0.80727 -0.17801 -0.22515
 C767 C 0.82591 -0.15563 -0.16725
 N768 N 0.84769 -0.14835 -0.18391
 N769 N 0.86591 -0.13249 -0.16588
 C770 C 0.86311 -0.12308 -0.13042
 N771 N 0.84124 -0.13003 -0.11378
 N772 N 0.82304 -0.14612 -0.13179
 C773 C 0.88369 -0.10619 -0.11039
 C774 C 0.87956 -0.08764 -0.07755
 C775 C 0.89911 -0.07130 -0.05915
 C776 C 0.92324 -0.07371 -0.07293
 C777 C 0.92736 -0.09269 -0.10550
 C778 C 0.90781 -0.10851 -0.12412
 H779 H 0.78553 -0.19010 -0.13888
 H780 H 0.75529 -0.22648 -0.17156
 H781 H 0.79134 -0.20114 -0.27300
 H782 H 0.82187 -0.16515 -0.24055
 H783 H 0.86117 -0.08530 -0.06632
 H784 H 0.89533 -0.05684 -0.03414
 H785 H 0.94569 -0.09490 -0.11699
 H786 H 0.91165 -0.12277 -0.14924
 C787 C 0.80619 0.32509 0.31346
 C788 C 0.78676 0.30818 0.33228
 C789 C 0.76939 0.28748 0.31353
 C790 C 0.77097 0.28390 0.27567
 C791 C 0.78978 0.30174 0.25670
 C792 C 0.80728 0.32205 0.27539
 C793 C 0.82594 0.34416 0.33335
 N794 N 0.84783 0.35102 0.31680
 N795 N 0.86608 0.36676 0.33487
 C796 C 0.86322 0.37647 0.37022
 N797 N 0.84125 0.36994 0.38675
 N798 N 0.82301 0.35396 0.36871
 C799 C 0.88382 0.39329 0.39024
 C800 C 0.87967 0.41261 0.42263
 C801 C 0.89927 0.42904 0.44086
 C802 C 0.92344 0.42594 0.42737
 C803 C 0.92757 0.40612 0.39531
 C804 C 0.90799 0.39021 0.37686
 H805 H 0.78546 0.30988 0.36161
 H806 H 0.75518 0.27365 0.32880
 H807 H 0.79135 0.29909 0.22746
 H808 H 0.82191 0.33490 0.26004
 H809 H 0.86124 0.41551 0.43358
 H810 H 0.89549 0.44417 0.46547
 H811 H 0.94593 0.40336 0.38407
 H812 H 0.91184 0.37532 0.35212
 C813 C 0.30567 -0.17722 0.31266
 C814 C 0.30639 -0.17966 0.27455
 C815 C 0.28878 -0.19981 0.25584
 C816 C 0.27010 -0.21823 0.27476
 C817 C 0.26902 -0.21528 0.31281
 C818 C 0.28651 -0.19470 0.33154
 C819 C 0.32547 -0.15796 0.33250
 N820 N 0.32272 -0.14856 0.36801
 N821 N 0.34090 -0.13224 0.38590
 C822 C 0.36267 -0.12492 0.36909
 N823 N 0.36536 -0.13427 0.33360
 N824 N 0.34716 -0.15035 0.31568
 C825 C 0.38324 -0.10760 0.38898
 C826 C 0.40736 -0.10965 0.37515
 C827 C 0.42688 -0.09346 0.39359
 C828 C 0.42277 -0.07433 0.42610
 C829 C 0.39864 -0.07215 0.43995
 C830 C 0.37911 -0.08888 0.42174
 H831 H 0.32080 -0.16638 0.25912
 H832 H 0.29019 -0.20177 0.22651
 H833 H 0.25515 -0.22947 0.32841
 H834 H 0.28549 -0.19350 0.36091
 H835 H 0.41122 -0.12401 0.35010
 H836 H 0.44519 -0.09552 0.38203
 H837 H 0.39484 -0.05759 0.46489
 H838 H 0.36074 -0.08672 0.43306
 C839 C 0.30605 0.32498 -0.18660
 C840 C 0.28667 0.30800 -0.16773
 C841 C 0.26939 0.28710 -0.18641
 C842 C 0.27100 0.28336 -0.22425
 C843 C 0.28980 0.30117 -0.24327
 C844 C 0.30721 0.32172 -0.22465
 C845 C 0.32568 0.34440 -0.16678
 N846 N 0.34747 0.35173 -0.18340
 N847 N 0.36561 0.36777 -0.16538
 C848 C 0.36274 0.37733 -0.12998
 N849 N 0.34087 0.37034 -0.11338
 N850 N 0.32274 0.35406 -0.13137
 C851 C 0.38327 0.39437 -0.10997
 C852 C 0.37907 0.41319 -0.07730
 C853 C 0.39860 0.42966 -0.05896
 C854 C 0.42275 0.42711 -0.07263
 C855 C 0.42692 0.40786 -0.10502
 C856 C 0.40741 0.39190 -0.12358
 H857 H 0.28532 0.30986 -0.13842
 H858 H 0.25520 0.27328 -0.17110
 H859 H 0.29140 0.29839 -0.27249
 H860 H 0.32181 0.33459 -0.24004
 H861 H 0.36066 0.41561 -0.06617
 H862 H 0.39479 0.44434 -0.03408
 H863 H 0.44527 0.40553 -0.11642
 H864 H 0.41129 0.37742 -0.14855
 C865 C 1.19478 -0.18642 0.17958
 C866 C 1.19431 -0.22441 0.18225
 C867 C 1.21198 -0.24284 0.20264
 C868 C 1.23047 -0.22375 0.22102
 C869 C 1.23124 -0.18582 0.21796
 C870 C 1.21369 -0.16737 0.19717
 C871 C 1.17503 -0.16690 0.15982
 N872 N 1.17755 -0.13145 0.15044
 N873 N 1.15943 -0.11387 0.13359
 C874 C 1.13795 -0.13093 0.12565
 N875 N 1.13549 -0.16635 0.13499
 N876 N 1.15364 -0.18396 0.15161
 C877 C 1.11743 -0.11135 0.10778
 C878 C 1.09346 -0.12556 0.10898
 C879 C 1.07395 -0.10726 0.09248
 C880 C 1.07796 -0.07450 0.07390
 C881 C 1.10196 -0.06033 0.07245
 C882 C 1.12145 -0.07841 0.08947
 H883 H 1.18009 -0.23997 0.16892
 H884 H 1.21080 -0.27208 0.20471
 H885 H 1.24494 -0.17010 0.23217
 H886 H 1.21450 -0.13809 0.19583
 H887 H 1.08967 -0.15077 0.12298
 H888 H 1.05574 -0.11905 0.09398
 H889 H 1.10566 -0.03514 0.05836
 H890 H 1.13971 -0.06678 0.08796
 C891 C 1.19454 0.31488 0.67776
 C892 C 1.21386 0.33367 0.69467
 C893 C 1.23118 0.31503 0.71561
 C894 C 1.22967 0.27731 0.71944
 C895 C 1.21092 0.25838 0.70171
 C896 C 1.19346 0.27696 0.68115
 C897 C 1.17492 0.33467 0.65820
 N898 N 1.15313 0.31824 0.65111
 N899 N 1.13501 0.33621 0.63486
 C900 C 1.13791 0.37136 0.62485
 N901 N 1.15979 0.38778 0.63163
 N902 N 1.17789 0.36984 0.64811
 C903 C 1.11743 0.39130 0.60751
 C904 C 1.12169 0.42351 0.58807
 C905 C 1.10220 0.44174 0.57127
 C906 C 1.07803 0.42842 0.57411
 C907 C 1.07380 0.39650 0.59399
 C908 C 1.09328 0.37805 0.61027
 H909 H 1.21513 0.36289 0.69273
 H910 H 1.24533 0.33028 0.72936
 H911 H 1.20940 0.22925 0.70457
 H912 H 1.17890 0.26164 0.66834
 H913 H 1.14012 0.43434 0.58539
 H914 H 1.10606 0.46625 0.55612
 H915 H 1.05544 0.38538 0.59656
 H916 H 1.08934 0.35344 0.62522
 C917 C 0.69442 -0.18572 0.67693
 C918 C 0.71362 -0.16667 0.69386
 C919 C 0.73100 -0.18505 0.71493
 C920 C 0.72967 -0.22276 0.71887
 C921 C 0.71104 -0.24196 0.70115
 C922 C 0.69353 -0.22364 0.68046
 C923 C 0.67475 -0.16623 0.65717
 N924 N 0.65316 -0.18305 0.64966
 N925 N 0.63500 -0.16535 0.63323
 C926 C 0.63766 -0.13009 0.62344
 N927 N 0.65934 -0.11329 0.63063
 N928 N 0.67748 -0.13097 0.64730
 C929 C 0.61712 -0.11040 0.60595
 C930 C 0.62120 -0.07775 0.58719
 C931 C 0.60167 -0.05960 0.57046
 C932 C 0.57761 -0.07343 0.57267
 C933 C 0.57354 -0.10587 0.59176
 C934 C 0.59308 -0.12425 0.60799
 H935 H 0.71476 -0.13745 0.69181
 H936 H 0.74506 -0.16961 0.72867
 H937 H 0.70966 -0.27109 0.70410
 H938 H 0.67908 -0.23917 0.66763
 H939 H 0.63953 -0.06645 0.58507
 H940 H 0.60539 -0.03468 0.55592
 H941 H 0.55527 -0.11739 0.59382
 H942 H 0.58928 -0.14922 0.62240
 C943 C 0.69440 0.31500 0.17759
 C944 C 0.69349 0.27706 0.18089
 C945 C 0.71102 0.25860 0.20143
 C946 C 0.72967 0.27766 0.21923
 C947 C 0.73103 0.31540 0.21548
 C948 C 0.71363 0.33393 0.19456
 C949 C 0.67469 0.33465 0.15807
 N950 N 0.67750 0.36989 0.14815
 N951 N 0.65933 0.38771 0.13171
 C952 C 0.63755 0.37110 0.12479
 N953 N 0.63480 0.33587 0.13463
 N954 N 0.65299 0.31802 0.15084
 C955 C 0.61701 0.39093 0.10747
 C956 C 0.59290 0.37742 0.10999
 C957 C 0.57337 0.39585 0.09381
 C958 C 0.57751 0.42801 0.07428
 C959 C 0.60163 0.44154 0.07164
 C960 C 0.62116 0.42334 0.08834
 H961 H 0.67900 0.26163 0.16802
 H962 H 0.70961 0.22945 0.20422
 H963 H 0.74510 0.33074 0.22930
 H964 H 0.71478 0.36316 0.19269
 H965 H 0.58905 0.35264 0.12471
 H966 H 0.55505 0.38457 0.09622
 H967 H 0.60541 0.46624 0.05676
 H968 H 0.63954 0.43438 0.08585
 C969 C 0.80682 0.18026 0.18755
 C970 C 0.80784 0.18373 0.22557
 C971 C 0.79023 0.20418 0.24421
 C972 C 0.77139 0.22173 0.22523
 C973 C 0.76996 0.21785 0.18741
 C974 C 0.78743 0.19702 0.16872
 C975 C 0.82654 0.16068 0.16771
 N976 N 0.82365 0.15059 0.13247
 N977 N 0.84180 0.13398 0.11450
 C978 C 0.86364 0.12707 0.13097
 N979 N 0.86647 0.13710 0.16620
 N980 N 0.84830 0.15348 0.18420
 C981 C 0.88413 0.10945 0.11101
 C982 C 0.90824 0.11160 0.12444
 C983 C 0.92771 0.09501 0.10596
 C984 C 0.92350 0.07543 0.07384
 C985 C 0.89938 0.07322 0.06035
 C986 C 0.87991 0.09032 0.07860
 H987 H 0.82245 0.17102 0.24093
 H988 H 0.79169 0.20707 0.27341
 H989 H 0.75573 0.23147 0.17214
 H990 H 0.78619 0.19500 0.13943
 H991 H 0.91215 0.12631 0.14921
 H992 H 0.94603 0.09709 0.11721
 H993 H 0.89555 0.05833 0.03567
 H994 H 0.86153 0.08812 0.06761
 C995 C 0.80673 0.67981 0.68716
 C996 C 0.80784 0.68336 0.72517
 C997 C 0.79027 0.70387 0.74385
 C998 C 0.77139 0.72139 0.72492
 C999 C 0.76988 0.71743 0.68712
 C1000 C 0.78730 0.69654 0.66839
 C1001 C 0.82641 0.66023 0.66725
 N1002 N 0.82342 0.65004 0.63205
 N1003 N 0.84155 0.63348 0.61398
 C1004 C 0.86346 0.62672 0.63029
 N1005 N 0.86639 0.63684 0.66548
 N1006 N 0.84824 0.65316 0.68359
 C1007 C 0.88395 0.60925 0.61020
 C1008 C 0.90811 0.61175 0.62336
 C1009 C 0.92758 0.59538 0.60471
 C1010 C 0.92334 0.57568 0.57268
 C1011 C 0.89917 0.57308 0.55947
 C1012 C 0.87968 0.58995 0.57789
 H1013 H 0.82248 0.67068 0.74048
 H1014 H 0.79179 0.70682 0.77304
 H1015 H 0.75563 0.73102 0.67186
 H1016 H 0.78600 0.69446 0.63911
 H1017 H 0.91205 0.62659 0.64804
 H1018 H 0.94594 0.59778 0.61575
 H1019 H 0.89530 0.55807 0.53488
 H1020 H 0.86125 0.58748 0.56712
 C1021 C 0.30648 0.17942 0.68743
 C1022 C 0.30751 0.18274 0.72547
 C1023 C 0.29000 0.20333 0.74418
 C1024 C 0.27123 0.22113 0.72528
 C1025 C 0.26979 0.21741 0.68744
 C1026 C 0.28717 0.19647 0.66867
 C1027 C 0.32610 0.15970 0.66751
 N1028 N 0.32321 0.14996 0.63216
 N1029 N 0.34130 0.13329 0.61411
 C1030 C 0.36307 0.12594 0.63060
 N1031 N 0.36588 0.13560 0.66594
 N1032 N 0.34778 0.15205 0.68402
 C1033 C 0.38353 0.10838 0.61052
 C1034 C 0.40763 0.11028 0.62403
 C1035 C 0.42709 0.09389 0.60538
 C1036 C 0.42290 0.07476 0.57298
 C1037 C 0.39879 0.07273 0.55944
 C1038 C 0.37932 0.08963 0.57788
 H1039 H 0.32205 0.16982 0.74079
 H1040 H 0.29148 0.20610 0.77340
 H1041 H 0.25564 0.23124 0.67221
 H1042 H 0.28593 0.19459 0.63937
 H1043 H 0.41153 0.12468 0.64899
 H1044 H 0.44541 0.09583 0.61669
 H1045 H 0.39498 0.05817 0.53456
 H1046 H 0.36094 0.08761 0.56683
 C1047 C 0.30632 0.68199 0.18803
 C1048 C 0.28714 0.69932 0.16924
 C1049 C 0.26955 0.71994 0.18802
 C1050 C 0.27053 0.72307 0.22604
 C1051 C 0.28931 0.70499 0.24487
 C1052 C 0.30703 0.68479 0.22611
 C1053 C 0.32607 0.66237 0.16812
 N1054 N 0.34768 0.65453 0.18476
 N1055 N 0.36581 0.63799 0.16679
 C1056 C 0.36310 0.62838 0.13140
 N1057 N 0.34141 0.63594 0.11477
 N1058 N 0.32331 0.65272 0.13271
 C1059 C 0.38358 0.61051 0.11145
 C1060 C 0.37940 0.59179 0.07877
 C1061 C 0.39884 0.57459 0.06047
 C1062 C 0.42294 0.57628 0.07416
 C1063 C 0.42710 0.59536 0.10661
 C1064 C 0.40766 0.61203 0.12513
 H1065 H 0.28615 0.69789 0.13989
 H1066 H 0.25565 0.73393 0.17246
 H1067 H 0.29066 0.70714 0.27417
 H1068 H 0.32147 0.67167 0.24147
 H1069 H 0.36105 0.59004 0.06756
 H1070 H 0.39502 0.56010 0.03555
 H1071 H 0.44539 0.59705 0.11804
 H1072 H 0.41156 0.62636 0.15012
   
