data_POSCAR
  _audit_creation_date              2014-09-24
  _audit_creation_method            'ToBaCCo'
  _symmetry_space_group_name_H-M    'P1'
  _symmetry_Int_Tables_number       1
  _symmetry_cell_setting            triclinic
  loop_
  _symmetry_equiv_pos_as_xyz
 x,y,z
_cell_length_a 27.0165
_cell_length_b 29.1041
_cell_length_c 31.5582
_cell_angle_alpha 92.335600
_cell_angle_beta 93.390200
_cell_angle_gamma 90.831600
loop_
  _atom_site_label
  _atom_site_type_symbol
  _atom_site_fract_x
  _atom_site_fract_y
  _atom_site_fract_z
N1 N 0.60105 0.70555 0.62121
 N2 N 0.59967 0.70214 0.66250
 C3 C 0.57162 0.73605 0.67800
 C4 C 0.55446 0.76219 0.64451
 C5 C 0.57327 0.74107 0.60889
 H6 H 0.56258 0.74013 0.71085
 H7 H 0.56564 0.74958 0.57613
 Cu8 Cu 0.62873 0.65003 0.69087
 Cu9 Cu 0.63694 0.66269 0.58615
 Cu10 Cu 0.70699 0.58244 0.63944
 N11 N 0.64351 0.58823 0.70883
 N12 N 0.67284 0.56112 0.68787
 C13 C 0.67510 0.52019 0.70621
 C14 C 0.64502 0.52143 0.74046
 C15 C 0.62652 0.56572 0.74153
 H16 H 0.69874 0.49252 0.69641
 H17 H 0.60126 0.58010 0.76369
 N18 N 0.71910 0.59930 0.58134
 N19 N 0.69138 0.62903 0.56067
 C20 C 0.71004 0.63552 0.52275
 C21 C 0.75176 0.60902 0.51965
 C22 C 0.75603 0.58584 0.55708
 H23 H 0.69582 0.65947 0.49988
 H24 H 0.78454 0.56190 0.56636
 H25 H 0.63941 0.60633 0.62443
 H26 H 0.68772 0.65265 0.63552
 N27 N 0.92190 0.28941 0.11592
 N28 N 0.94187 0.30883 0.15131
 C29 C 0.98470 0.28800 0.16186
 C30 C 0.99225 0.25354 0.13127
 C31 C 0.95070 0.25475 0.10325
 H32 H 1.00757 0.29627 0.19053
 H33 H 0.94313 0.23351 0.07459
 Cu34 Cu 0.90905 0.35870 0.18078
 Cu35 Cu 0.86212 0.31360 0.08759
 Cu36 Cu 0.85231 0.42983 0.11394
 N37 N 0.88372 0.41722 0.20100
 N38 N 0.86519 0.44647 0.17398
 C39 C 0.85506 0.48588 0.19511
 C40 C 0.86497 0.48032 0.23825
 C41 C 0.88414 0.43637 0.24056
 H42 H 0.84173 0.51628 0.17983
 H43 H 0.89773 0.41966 0.26883
 N44 N 0.81915 0.39977 0.06246
 N45 N 0.82139 0.35520 0.05321
 C46 C 0.79075 0.34451 0.01894
 C47 C 0.76747 0.38417 0.00662
 C48 C 0.78660 0.41861 0.03455
 H49 H 0.78443 0.31020 0.00500
 H50 H 0.77589 0.45429 0.03563
 H51 H 0.89675 0.37313 0.10508
 H52 H 0.83721 0.36452 0.13101
 N53 N 0.41657 0.20017 -0.11245
 N54 N 0.41545 0.19445 -0.15406
 C55 C 0.44737 0.22455 -0.16960
 C56 C 0.46958 0.25027 -0.13576
 C57 C 0.44943 0.23395 -0.10002
 H58 H 0.45414 0.22735 -0.20284
 H59 H 0.45733 0.24649 -0.06755
 Cu60 Cu 0.37421 0.14689 -0.18373
 Cu61 Cu 0.37229 0.16636 -0.07792
 Cu62 Cu 0.30092 0.07922 -0.12975
 N63 N 0.35154 0.08663 -0.20638
 N64 N 0.32462 0.05931 -0.18450
 C65 C 0.31793 0.01858 -0.20605
 C66 C 0.34130 0.02073 -0.24391
 C67 C 0.36258 0.06441 -0.24273
 H68 H 0.29922 -0.01093 -0.19416
 H69 H 0.38588 0.07842 -0.26593
 N70 N 0.29533 0.09691 -0.06941
 N71 N 0.32405 0.12882 -0.04921
 C72 C 0.31010 0.13448 -0.00910
 C73 C 0.27090 0.10467 -0.00384
 C74 C 0.26216 0.08166 -0.04280
 H75 H 0.32503 0.16040 0.01387
 H76 H 0.23267 0.05692 -0.05146
 H77 H 0.36992 0.10782 -0.11749
 H78 H 0.31869 0.14967 -0.12491
 N79 N 0.07953 0.80389 0.38074
 N80 N 0.04884 0.83171 0.36114
 C81 C 0.00359 0.81148 0.35615
 C82 C 0.00637 0.76827 0.37318
 C83 C 0.05555 0.76435 0.38750
 H84 H -0.02808 0.82596 0.33920
 H85 H 0.07226 0.73548 0.40310
 Cu86 Cu 0.07284 0.88918 0.34000
 Cu87 Cu 0.14760 0.82182 0.39773
 Cu88 Cu 0.18148 0.93427 0.38007
 N89 N 0.10814 0.93584 0.31061
 N90 N 0.15028 0.95415 0.32673
 C91 C 0.16589 0.98611 0.30069
 C92 C 0.13227 0.98707 0.26598
 C93 C 0.09575 0.95514 0.27351
 H94 H 0.19942 1.00678 0.30636
 H95 H 0.06248 0.94695 0.25372
 N96 N 0.21868 0.89639 0.42069
 N97 N 0.20564 0.85353 0.42717
 C98 C 0.23474 0.83798 0.45932
 C99 C 0.26897 0.87211 0.47307
 C100 C 0.25724 0.90890 0.44792
 H101 H 0.22917 0.80524 0.47351
 H102 H 0.27420 0.94286 0.45041
 H103 H 0.12821 0.88941 0.40384
 H104 H 0.16032 0.87248 0.35487
 N105 N 0.13977 0.11639 0.13355
 N106 N 0.38494 0.87734 0.63316
 N107 N 0.86714 0.61949 0.37339
 N108 N 0.61987 0.39297 -0.13096
 C109 C 0.08153 0.23368 0.14423
 C110 C 0.03155 0.22216 0.12992
 C111 C 0.02032 0.17682 0.11482
 C112 C 0.05579 0.14272 0.11691
 C113 C 0.10425 0.15285 0.13266
 C114 C 0.11768 0.19842 0.14621
 C115 C 0.09767 0.27966 0.15358
 C116 C 0.14653 0.28991 0.16798
 C117 C 0.18073 0.25495 0.17240
 C118 C 0.16670 0.20964 0.16127
 H119 H 0.07363 0.30842 0.14839
 H120 H 0.15805 0.32527 0.17528
 H121 H 0.21859 0.26310 0.18365
 H122 H 0.19461 0.18363 0.16427
 H123 H -0.01701 0.16680 0.10333
 H124 H 0.04553 0.10790 0.10608
 C125 C 0.51451 0.83457 0.61579
 C126 C 0.51664 0.79882 0.64523
 C127 C 0.47938 0.79573 0.67418
 C128 C 0.43827 0.82391 0.67152
 C129 C 0.43194 0.85458 0.63871
 C130 C 0.47134 0.86209 0.61202
 C131 C 0.55482 0.84472 0.59102
 C132 C 0.55180 0.87955 0.56197
 C133 C 0.50922 0.90568 0.55772
 C134 C 0.46953 0.89751 0.58281
 H135 H 0.58961 0.82708 0.59479
 H136 H 0.58301 0.88684 0.54318
 H137 H 0.50739 0.93312 0.53557
 H138 H 0.43832 0.92015 0.58003
 H139 H 0.48052 0.76963 0.69768
 H140 H 0.40905 0.81925 0.69310
 C141 C 0.91927 0.74236 0.38271
 C142 C 0.96925 0.73377 0.37294
 C143 C 0.98283 0.68856 0.36260
 C144 C 0.94835 0.65266 0.36022
 C145 C 0.89928 0.65955 0.37074
 C146 C 0.88405 0.70500 0.38134
 C147 C 0.90415 0.78638 0.39707
 C148 C 0.85527 0.79420 0.40674
 C149 C 0.82054 0.75843 0.40310
 C150 C 0.83465 0.71429 0.39077
 H151 H 0.92986 0.81502 0.40228
 H152 H 0.84436 0.82819 0.41741
 H153 H 0.78252 0.76477 0.41040
 H154 H 0.80614 0.68797 0.38860
 H155 H 1.02046 0.68087 0.35483
 H156 H 0.96101 0.61853 0.35214
 C157 C 0.49344 0.33247 -0.14954
 C158 C 0.50646 0.28790 -0.13697
 C159 C 0.55507 0.27941 -0.12238
 C160 C 0.59117 0.31400 -0.12082
 C161 C 0.57993 0.35876 -0.13306
 C162 C 0.53002 0.36860 -0.14654
 C163 C 0.44425 0.34224 -0.16355
 C164 C 0.43095 0.38672 -0.17359
 C165 C 0.46593 0.42234 -0.16898
 C166 C 0.51473 0.41361 -0.15516
 H167 H 0.41557 0.31579 -0.16645
 H168 H 0.39307 0.39377 -0.18417
 H169 H 0.45505 0.45709 -0.17564
 H170 H 0.53930 0.44288 -0.15004
 H171 H 0.56524 0.24550 -0.11227
 H172 H 0.62865 0.30554 -0.11024
 C173 C 0.12948 0.00214 0.18702
 C174 C 0.13344 0.01817 0.23018
 C175 C 0.13740 0.06542 0.23994
 C176 C 0.13765 0.09681 0.20795
 C177 C 0.13511 0.08209 0.16502
 C178 C 0.12902 0.03445 0.15417
 C179 C 0.12669 -0.04531 0.17566
 C180 C 0.12080 -0.06046 0.13316
 C181 C 0.11736 -0.02883 0.10129
 C182 C 0.12120 0.01817 0.11157
 H183 H 0.12931 -0.07113 0.19931
 H184 H 0.11838 -0.09693 0.12494
 H185 H 0.11169 -0.04077 0.06840
 H186 H 0.11680 0.04134 0.08589
 H187 H 0.14005 0.07820 0.27275
 H188 H 0.14154 0.13308 0.21674
 C189 C 0.63649 0.43901 -0.24039
 C190 C 0.63773 0.48727 -0.22987
 C191 C 0.63314 0.50195 -0.18731
 C192 C 0.62960 0.47066 -0.15557
 C193 C 0.62820 0.42332 -0.16503
 C194 C 0.63348 0.40702 -0.20739
 C195 C 0.63467 0.42144 -0.28293
 C196 C 0.63549 0.37423 -0.29229
 C197 C 0.63733 0.34345 -0.25971
 C198 C 0.63613 0.35954 -0.21763
 H199 H 0.63087 0.44351 -0.30952
 H200 H 0.63464 0.36146 -0.32503
 H201 H 0.63885 0.30688 -0.26713
 H202 H 0.63783 0.33445 -0.19336
 H203 H 0.63426 0.53817 -0.17788
 H204 H 0.62619 0.48345 -0.12318
 C205 C 0.31235 0.94947 0.71023
 C206 C 0.34936 0.98281 0.72436
 C207 C 0.39669 0.97962 0.70859
 C208 C 0.40787 0.94464 0.67965
 C209 C 0.37249 0.91088 0.66578
 C210 C 0.32471 0.91232 0.68201
 C211 C 0.26298 0.95264 0.72234
 C212 C 0.22788 0.91843 0.70969
 C213 C 0.24102 0.88064 0.68460
 C214 C 0.28894 0.87750 0.67077
 H215 H 0.25058 0.98180 0.74085
 H216 H 0.19028 0.92120 0.71951
 H217 H 0.21379 0.85387 0.67542
 H218 H 0.29771 0.84749 0.65149
 H219 H 0.42567 1.00439 0.71890
 H220 H 0.44449 0.94427 0.66746
 C221 C 0.82555 0.55129 0.27247
 C222 C 0.86031 0.51496 0.27392
 C223 C 0.89369 0.51292 0.30965
 C224 C 0.89458 0.54667 0.34223
 C225 C 0.86434 0.58506 0.33913
 C226 C 0.83006 0.58806 0.30377
 C227 C 0.78521 0.55141 0.24186
 C228 C 0.75398 0.58904 0.23915
 C229 C 0.76158 0.62682 0.26733
 C230 C 0.79899 0.62627 0.29963
 H231 H 0.77607 0.52198 0.22081
 H232 H 0.72357 0.58878 0.21521
 H233 H 0.73753 0.65614 0.26488
 H234 H 0.80286 0.65561 0.32156
 H235 H 0.92013 0.48545 0.31223
 H236 H 0.92029 0.54374 0.36961
 C237 C 0.25824 0.09908 0.07495
 C238 C 0.23910 0.10465 0.03272
 C239 C 0.18879 0.11362 0.02505
 C240 C 0.15753 0.11806 0.05831
 C241 C 0.17504 0.11288 0.10062
 C242 C 0.22628 0.10394 0.10930
 C243 C 0.30853 0.08841 0.08373
 C244 C 0.32753 0.08442 0.12538
 C245 C 0.29707 0.09123 0.15898
 C246 C 0.24710 0.10109 0.15118
 H247 H 0.33352 0.08275 0.05856
 H248 H 0.36621 0.07641 0.13165
 H249 H 0.31226 0.08898 0.19134
 H250 H 0.22579 0.10740 0.17846
 H251 H 0.17366 0.11826 -0.00704
 H252 H 0.11880 0.12481 0.05078
 C253 C 0.83685 0.61548 0.48921
 C254 C 0.78481 0.60769 0.48391
 C255 C 0.76275 0.59950 0.44303
 C256 C 0.79071 0.60054 0.40752
 C257 C 0.84176 0.61043 0.41148
 C258 C 0.86573 0.61491 0.45276
 C259 C 0.86090 0.62500 0.52966
 C260 C 0.91232 0.63021 0.53440
 C261 C 0.94074 0.62587 0.49917
 C262 C 0.91781 0.61809 0.45875
 H263 H 0.84052 0.62888 0.55796
 H264 H 0.93027 0.63704 0.56565
 H265 H 0.98076 0.62864 0.50317
 H266 H 0.94134 0.61329 0.43260
 H267 H 0.72313 0.59314 0.43847
 H268 H 0.77169 0.59592 0.37651
 C269 C 0.67996 0.40392 -0.01954
 C270 C 0.72813 0.38808 -0.02747
 C271 C 0.73940 0.37532 -0.06900
 C272 C 0.70409 0.37841 -0.10266
 C273 C 0.65627 0.39369 -0.09566
 C274 C 0.64395 0.40711 -0.05408
 C275 C 0.66619 0.41553 0.02199
 C276 C 0.61878 0.43143 0.02898
 C277 C 0.58419 0.43586 -0.00502
 C278 C 0.59650 0.42380 -0.04624
 H279 H 0.69151 0.41206 0.04944
 H280 H 0.60882 0.44037 0.06097
 H281 H 0.54757 0.44849 0.00059
 H282 H 0.56870 0.42790 -0.07180
 H283 H 0.77598 0.36300 -0.07544
 H284 H 0.71361 0.36783 -0.13441
 C285 C 0.32615 0.83161 0.52647
 C286 C 0.30347 0.87215 0.51169
 C287 C 0.30954 0.91298 0.53666
 C288 C 0.33596 0.91393 0.57588
 C289 C 0.35598 0.87379 0.59267
 C290 C 0.34902 0.83160 0.56841
 C291 C 0.32694 0.79096 0.50049
 C292 C 0.34429 0.75008 0.51689
 C293 C 0.36074 0.74883 0.55938
 C294 C 0.36279 0.78903 0.58502
 H295 H 0.31495 0.79047 0.46720
 H296 H 0.34405 0.71906 0.49676
 H297 H 0.37226 0.71663 0.57251
 H298 H 0.37372 0.78586 0.61805
 H299 H 0.29284 0.94450 0.52627
 H300 H 0.34070 0.94660 0.59341
   
