data_POSCAR
  _audit_creation_date              2014-09-24
  _audit_creation_method            'ToBaCCo'
  _symmetry_space_group_name_H-M    'P1'
  _symmetry_Int_Tables_number       1
  _symmetry_cell_setting            triclinic
  loop_
  _symmetry_equiv_pos_as_xyz
 x,y,z
_cell_length_a 40.6346
_cell_length_b 44.0501
_cell_length_c 21.9843
_cell_angle_alpha 89.866500
_cell_angle_beta 90.278400
_cell_angle_gamma 117.199500
loop_
  _atom_site_label
  _atom_site_type_symbol
  _atom_site_fract_x
  _atom_site_fract_y
  _atom_site_fract_z
C1 C 0.41000 0.88616 0.46624
 C2 C 0.41669 0.88457 0.52702
 C3 C 0.44172 0.91735 0.54490
 N4 N 0.45104 0.93859 0.49644
 C5 C 0.43166 0.91965 0.44841
 C6 C 0.45873 0.92654 0.60304
 C7 C 0.48136 0.96101 0.62082
 C8 C 0.50160 0.97103 0.67468
 C9 C 0.51619 1.00583 0.67827
 C10 C 0.50422 1.01645 0.62710
 N11 N 0.48306 0.98904 0.59227
 C12 C 0.51200 1.05079 0.61540
 C13 C 0.50976 1.06265 0.55620
 C14 C 0.51369 1.09492 0.54243
 C15 C 0.51059 1.09626 0.48049
 C16 C 0.50392 1.06454 0.45848
 N17 N 0.50372 1.04411 0.50464
 C18 C 0.49969 1.05550 0.39638
 C19 C 0.48587 1.02159 0.37526
 C20 C 0.48661 1.01255 0.31508
 C21 C 0.46820 0.97751 0.31252
 C22 C 0.45668 0.96608 0.37119
 N23 N 0.46736 0.99313 0.40909
 C24 C 0.43571 0.93142 0.38769
 H25 H 0.39202 0.86481 0.43808
 H26 H 0.40503 0.86155 0.55414
 H27 H 0.45902 0.99237 0.45387
 H28 H 0.50484 0.95510 0.70925
 H29 H 0.53338 1.02152 0.71495
 H30 H 0.51805 1.11540 0.57359
 H31 H 0.51243 1.11793 0.45468
 H32 H 0.46374 0.96221 0.27197
 H33 H 0.46706 0.98924 0.55547
 H34 H 0.49880 1.02945 0.27681
 C35 C 0.10806 0.60524 0.48690
 C36 C 0.10498 0.60446 0.54896
 C37 C 0.07135 0.57680 0.56302
 N38 N 0.05365 0.56093 0.51140
 C39 C 0.07600 0.57841 0.46487
 C40 C 0.05796 0.56617 0.62280
 C41 C 0.02081 0.54177 0.63440
 C42 C 0.00834 0.52429 0.68891
 C43 C -0.02911 0.50432 0.68293
 C44 C -0.03854 0.50947 0.62453
 N45 N -0.00802 0.53239 0.59523
 C46 C -0.07504 0.49500 0.60149
 C47 C -0.08355 0.49363 0.53901
 C48 C -0.11876 0.48328 0.51561
 C49 C -0.11560 0.48347 0.45359
 C50 C -0.07863 0.49335 0.44104
 N51 N -0.05906 0.49963 0.49350
 C52 C -0.06364 0.49588 0.38197
 C53 C -0.02489 0.51191 0.37115
 C54 C -0.00841 0.50841 0.31820
 C55 C 0.02893 0.52909 0.32407
 C56 C 0.03451 0.54418 0.38094
 N57 N 0.00160 0.53366 0.40936
 C58 C 0.06901 0.56911 0.40302
 H59 H 0.13133 0.62348 0.46105
 H60 H 0.12521 0.62235 0.58012
 H61 H -0.00280 0.54382 0.44932
 H62 H 0.02449 0.52569 0.72905
 H63 H -0.04724 0.48790 0.71783
 H64 H -0.14410 0.47631 0.54055
 H65 H -0.13805 0.47721 0.42149
 H66 H 0.04954 0.53263 0.29008
 H67 H -0.00772 0.54368 0.55351
 H68 H -0.02186 0.49267 0.27907
 C69 C 0.57355 0.44142 0.52997
 C70 C 0.57357 0.44205 0.46769
 C71 C 0.55853 0.46337 0.45051
 N72 N 0.54953 0.47590 0.50027
 C73 C 0.55826 0.46227 0.54909
 C74 C 0.55609 0.47290 0.38991
 C75 C 0.53865 0.49299 0.37265
 C76 C 0.54031 0.50645 0.31498
 C77 C 0.51764 0.52196 0.31535
 C78 C 0.50283 0.51768 0.37331
 N79 N 0.51562 0.49985 0.40778
 C80 C 0.47562 0.52736 0.39124
 C81 C 0.46527 0.52787 0.45236
 C82 C 0.43534 0.53265 0.47033
 C83 C 0.43525 0.53227 0.53263
 C84 C 0.46560 0.52796 0.55093
 N85 N 0.48393 0.52530 0.50165
 C86 C 0.47599 0.52668 0.61225
 C87 C 0.50366 0.51681 0.62846
 C88 C 0.52151 0.52340 0.68441
 C89 C 0.54400 0.50785 0.68419
 C90 C 0.54027 0.49277 0.62742
 N91 N 0.51540 0.49830 0.59384
 C92 C 0.55669 0.47165 0.61026
 H93 H 0.58482 0.42805 0.55764
 H94 H 0.58440 0.42900 0.43851
 H95 H 0.50355 0.48650 0.55296
 H96 H 0.55563 0.50467 0.27618
 H97 H 0.51214 0.53435 0.27688
 H98 H 0.41537 0.53575 0.44163
 H99 H 0.41481 0.53453 0.56103
 H100 H 0.56051 0.50735 0.72248
 H101 H 0.50558 0.48939 0.45012
 H102 H 0.51830 0.53757 0.72211
 O103 O 0.39482 0.68090 -0.08230
 O104 O 0.38636 0.73449 -0.05573
 C105 C 0.35839 0.73590 -0.07916
 O106 O 0.32565 0.71676 -0.06217
 O107 O 0.27195 0.65654 -0.03993
 C108 C 0.27213 0.63333 -0.07438
 O109 O 0.29417 0.62053 -0.06679
 O110 O 0.36082 0.62655 -0.05653
 C111 C 0.38345 0.64937 -0.09181
 O112 O 0.40692 0.67242 0.03687
 O113 O 0.39491 0.72402 0.06305
 C114 C 0.37375 0.73603 0.08155
 O115 O 0.34216 0.72813 0.05775
 O116 O 0.28957 0.66687 0.07995
 C117 C 0.27731 0.63518 0.08877
 O118 O 0.28611 0.61659 0.05518
 O119 O 0.35480 0.62722 0.06508
 C120 C 0.38933 0.64626 0.07033
 Cr121 Cr 0.39386 0.70187 -0.00921
 Cr122 Cr 0.30861 0.69137 0.00865
 Cr123 Cr 0.32456 0.62448 -0.00067
 O124 O 0.34236 0.67268 -0.00009
 O125 O 0.61041 0.30227 -0.07197
 O126 O 0.61774 0.24724 -0.05092
 C127 C 0.64346 0.24580 -0.08163
 O128 O 0.67747 0.26368 -0.06921
 O129 O 0.73488 0.32170 -0.04633
 C130 C 0.73621 0.34641 -0.07805
 O131 O 0.71515 0.35998 -0.06857
 O132 O 0.65006 0.35644 -0.05182
 C133 C 0.62378 0.33395 -0.08294
 O134 O 0.60578 0.31136 0.04835
 O135 O 0.61613 0.25795 0.06957
 C136 C 0.63668 0.24401 0.08114
 O137 O 0.66598 0.25075 0.05135
 O138 O 0.72103 0.31056 0.07399
 C139 C 0.73439 0.34225 0.08482
 O140 O 0.72675 0.36231 0.05272
 O141 O 0.66011 0.35598 0.06920
 C142 C 0.62572 0.33827 0.07845
 Cr143 Cr 0.61449 0.28074 -0.00114
 Cr144 Cr 0.69865 0.28742 0.00242
 Cr145 Cr 0.68727 0.35685 0.00044
 O146 O 0.66677 0.30836 0.00074
 C147 C 0.41843 0.88030 -0.32988
 C148 C 0.41334 0.85495 -0.28690
 C149 C 0.44368 0.84949 -0.26886
 C150 C 0.47849 0.86916 -0.29493
 C151 C 0.48332 0.89429 -0.33783
 C152 C 0.45347 0.90032 -0.35528
 C153 C 0.43879 0.82467 -0.22482
 C154 C 0.40391 0.80522 -0.19859
 C155 C 0.37353 0.81044 -0.21737
 C156 C 0.37842 0.83524 -0.26130
 C157 C 0.33867 0.79087 -0.19164
 C158 C 0.33391 0.76655 -0.14727
 C159 C 0.36393 0.76133 -0.12743
 C160 C 0.39894 0.78076 -0.15364
 H161 H 0.39532 0.88493 -0.34286
 H162 H 0.50202 0.86522 -0.28194
 H163 H 0.51047 0.90918 -0.35743
 H164 H 0.46212 0.82065 -0.21071
 H165 H 0.35512 0.83933 -0.27530
 H166 H 0.31509 0.79447 -0.20561
 H167 H 0.30662 0.75202 -0.12803
 H168 H 0.42229 0.77691 -0.13909
 C169 C 0.11667 0.57772 -0.32760
 C170 C 0.14080 0.58945 -0.27760
 C171 C 0.13162 0.60382 -0.22704
 C172 C 0.09806 0.60564 -0.22701
 C173 C 0.07375 0.59317 -0.27641
 C174 C 0.08282 0.57925 -0.32747
 C175 C 0.15593 0.61580 -0.17717
 C176 C 0.18891 0.61286 -0.17670
 C177 C 0.19755 0.59773 -0.22682
 C178 C 0.17368 0.58648 -0.27713
 C179 C 0.22991 0.59392 -0.22577
 C180 C 0.25363 0.60505 -0.17566
 C181 C 0.24576 0.62064 -0.12591
 C182 C 0.21331 0.62458 -0.12680
 H183 H 0.12363 0.56628 -0.36588
 H184 H 0.09049 0.61647 -0.18861
 H185 H 0.04803 0.59493 -0.27526
 H186 H 0.14902 0.62706 -0.13856
 H187 H 0.18052 0.57511 -0.31566
 H188 H 0.23688 0.58230 -0.26370
 H189 H 0.27858 0.60196 -0.17636
 H190 H 0.20688 0.63640 -0.08854
 C191 C 0.45719 0.56727 -0.34208
 C192 C 0.44143 0.57690 -0.29383
 C193 C 0.42601 0.55455 -0.24400
 C194 C 0.42691 0.52315 -0.24294
 C195 C 0.44331 0.51407 -0.29040
 C196 C 0.45860 0.53589 -0.34062
 C197 C 0.41043 0.56411 -0.19556
 C198 C 0.41084 0.59611 -0.19552
 C199 C 0.42671 0.61871 -0.24488
 C200 C 0.44153 0.60882 -0.29406
 C201 C 0.42791 0.65103 -0.24379
 C202 C 0.41387 0.66101 -0.19401
 C203 C 0.39786 0.63866 -0.14487
 C204 C 0.39618 0.60607 -0.14628
 H205 H 0.46961 0.58472 -0.37971
 H206 H 0.41525 0.50574 -0.20508
 H207 H 0.44362 0.48962 -0.28835
 H208 H 0.39854 0.54689 -0.15744
 H209 H 0.45363 0.62613 -0.33199
 H210 H 0.44003 0.66872 -0.28115
 H211 H 0.41536 0.68620 -0.19412
 H212 H 0.38419 0.58871 -0.10841
 C213 C 0.55619 0.10442 -0.33616
 C214 C 0.56718 0.12645 -0.28575
 C215 C 0.54402 0.11832 -0.23415
 C216 C 0.51086 0.08791 -0.23307
 C217 C 0.50064 0.06569 -0.28258
 C218 C 0.52284 0.07381 -0.33501
 C219 C 0.55447 0.14052 -0.18419
 C220 C 0.58828 0.17036 -0.18438
 C221 C 0.61207 0.17799 -0.23505
 C222 C 0.60117 0.15621 -0.28575
 C223 C 0.64643 0.20728 -0.23401
 C224 C 0.65699 0.22894 -0.18347
 C225 C 0.63309 0.22202 -0.13365
 C226 C 0.59875 0.19261 -0.13443
 H227 H 0.57410 0.11050 -0.37550
 H228 H 0.49292 0.08119 -0.19374
 H229 H 0.47484 0.04232 -0.28053
 H230 H 0.53646 0.13443 -0.14496
 H231 H 0.61923 0.16226 -0.32490
 H232 H 0.66512 0.21345 -0.27226
 H233 H 0.68354 0.25154 -0.18391
 H234 H 0.58031 0.18689 -0.09587
 C235 C 0.88301 0.44652 -0.33258
 C236 C 0.85506 0.43258 -0.28869
 C237 C 0.83741 0.45181 -0.26778
 C238 C 0.84811 0.48466 -0.29108
 C239 C 0.87643 0.49854 -0.33398
 C240 C 0.89404 0.47963 -0.35470
 C241 C 0.80975 0.43810 -0.22339
 C242 C 0.79998 0.40569 -0.19880
 C243 C 0.81781 0.38659 -0.21945
 C244 C 0.84498 0.40002 -0.26464
 C245 C 0.80844 0.35448 -0.19404
 C246 C 0.78194 0.34150 -0.14815
 C247 C 0.76399 0.36021 -0.12720
 C248 C 0.77300 0.39226 -0.15322
 H249 H 0.89683 0.43205 -0.34865
 H250 H 0.83494 0.49976 -0.27555
 H251 H 0.88480 0.52413 -0.35088
 H252 H 0.79624 0.45285 -0.20737
 H253 H 0.85865 0.38536 -0.28042
 H254 H 0.82182 0.33951 -0.20932
 H255 H 0.77537 0.31667 -0.12921
 H256 H 0.75951 0.40703 -0.13731
 C257 C 0.55816 0.42544 -0.33025
 C258 C 0.57458 0.41395 -0.28556
 C259 C 0.60658 0.43770 -0.25457
 C260 C 0.62184 0.47245 -0.26934
 C261 C 0.60543 0.48367 -0.31407
 C262 C 0.57325 0.46038 -0.34445
 C263 C 0.62277 0.42637 -0.20929
 C264 C 0.60737 0.39159 -0.19453
 C265 C 0.57561 0.36779 -0.22591
 C266 C 0.55941 0.37911 -0.27125
 C267 C 0.56046 0.33305 -0.21112
 C268 C 0.57634 0.32199 -0.16518
 C269 C 0.60766 0.34547 -0.13309
 C270 C 0.62314 0.38029 -0.14849
 H271 H 0.53343 0.40732 -0.35375
 H272 H 0.64651 0.49095 -0.24637
 H273 H 0.61798 0.51058 -0.32535
 H274 H 0.64721 0.44462 -0.18534
 H275 H 0.53493 0.36087 -0.29514
 H276 H 0.53618 0.31444 -0.23481
 H277 H 0.56383 0.29503 -0.15440
 H278 H 0.64738 0.39873 -0.12441
 C279 C 0.88404 0.44740 0.33388
 C280 C 0.85996 0.43313 0.28432
 C281 C 0.86313 0.45340 0.23259
 C282 C 0.89089 0.48729 0.23066
 C283 C 0.91525 0.50108 0.27959
 C284 C 0.91193 0.48151 0.33208
 C285 C 0.83862 0.43946 0.18350
 C286 C 0.81148 0.40527 0.18489
 C287 C 0.80900 0.38469 0.23585
 C288 C 0.83300 0.39884 0.28552
 C289 C 0.78257 0.35022 0.23616
 C290 C 0.75870 0.33630 0.18659
 C291 C 0.76039 0.35674 0.13637
 C292 C 0.78690 0.39127 0.13588
 H293 H 0.88171 0.43173 0.37335
 H294 H 0.89380 0.50313 0.19126
 H295 H 0.93622 0.52746 0.27711
 H296 H 0.84083 0.45514 0.14410
 H297 H 0.83083 0.38314 0.32487
 H298 H 0.78040 0.33403 0.27468
 H299 H 0.73843 0.30965 0.18800
 H300 H 0.78869 0.40714 0.09700
 C301 C 0.54768 0.10023 0.33135
 C302 C 0.55830 0.12603 0.28724
 C303 C 0.53172 0.13512 0.26287
 C304 C 0.49493 0.11809 0.28287
 C305 C 0.48454 0.09216 0.32634
 C306 C 0.51082 0.08319 0.35073
 C307 C 0.54225 0.16085 0.21861
 C308 C 0.57889 0.17727 0.19777
 C309 C 0.60535 0.16797 0.22187
 C310 C 0.59496 0.14260 0.26674
 C311 C 0.64176 0.18398 0.20024
 C312 C 0.65185 0.20873 0.15471
 C313 C 0.62585 0.21826 0.13035
 C314 C 0.58940 0.20256 0.15260
 H315 H 0.56784 0.09306 0.35025
 H316 H 0.47419 0.12466 0.26464
 H317 H 0.45601 0.07907 0.34110
 H318 H 0.52187 0.16783 0.19997
 H319 H 0.61530 0.13552 0.28521
 H320 H 0.66238 0.17716 0.21819
 H321 H 0.68014 0.22053 0.13866
 H322 H 0.56902 0.20951 0.13395
 C323 C 0.55498 0.42898 0.31724
 C324 C 0.57257 0.41745 0.27508
 C325 C 0.60936 0.43928 0.25721
 C326 C 0.62781 0.47229 0.28165
 C327 C 0.61017 0.48343 0.32400
 C328 C 0.57382 0.46183 0.34205
 C329 C 0.62717 0.42768 0.21562
 C330 C 0.60870 0.39454 0.19169
 C331 C 0.57192 0.37278 0.20947
 C332 C 0.55409 0.38436 0.25106
 C333 C 0.55349 0.33979 0.18516
 C334 C 0.57115 0.32850 0.14316
 C335 C 0.60769 0.34990 0.12492
 C336 C 0.62639 0.38289 0.14986
 H337 H 0.52696 0.41230 0.33177
 H338 H 0.65599 0.48934 0.26852
 H339 H 0.62496 0.50876 0.34331
 H340 H 0.65537 0.44440 0.20197
 H341 H 0.52590 0.36763 0.26477
 H342 H 0.52531 0.32277 0.19833
 H343 H 0.55610 0.30296 0.12483
 H344 H 0.65448 0.39977 0.13599
 C345 C 0.12070 0.57082 0.33885
 C346 C 0.14881 0.58708 0.29576
 C347 C 0.15600 0.61970 0.27346
 C348 C 0.13488 0.63535 0.29427
 C349 C 0.10663 0.61874 0.33635
 C350 C 0.09938 0.58649 0.35878
 C351 C 0.18385 0.63598 0.23020
 C352 C 0.20415 0.61985 0.20794
 C353 C 0.19683 0.58716 0.22974
 C354 C 0.16944 0.57111 0.27399
 C355 C 0.21667 0.57087 0.20616
 C356 C 0.24310 0.58657 0.16074
 C357 C 0.25058 0.61907 0.13875
 C358 C 0.23121 0.63570 0.16322
 H359 H 0.11494 0.54584 0.35627
 H360 H 0.13999 0.66028 0.27758
 H361 H 0.09033 0.63102 0.35157
 H362 H 0.18932 0.66098 0.21316
 H363 H 0.16381 0.54603 0.29074
 H364 H 0.21141 0.54579 0.22226
 H365 H 0.25768 0.57325 0.14275
 H366 H 0.23642 0.66062 0.14626
 C367 C 0.43337 0.88226 0.32799
 C368 C 0.41797 0.85749 0.28234
 C369 C 0.38847 0.85624 0.24620
 C370 C 0.37498 0.87998 0.25649
 C371 C 0.39047 0.90456 0.30226
 C372 C 0.41957 0.90571 0.33839
 C373 C 0.37309 0.83140 0.20042
 C374 C 0.38703 0.80796 0.19014
 C375 C 0.41656 0.80940 0.22646
 C376 C 0.43171 0.83401 0.27235
 C377 C 0.43080 0.78636 0.21599
 C378 C 0.41642 0.76241 0.16938
 C379 C 0.38724 0.76073 0.13250
 C380 C 0.37231 0.78339 0.14366
 H381 H 0.45601 0.88333 0.35575
 H382 H 0.35246 0.87949 0.22924
 H383 H 0.37966 0.92261 0.30985
 H384 H 0.35052 0.83046 0.17262
 H385 H 0.45436 0.83502 0.30007
 H386 H 0.45336 0.78708 0.24349
 H387 H 0.42828 0.74512 0.16215
 H388 H 0.34995 0.78246 0.11536
 C389 C 0.47176 0.56974 0.31917
 C390 C 0.45283 0.57847 0.27432
 C391 C 0.41767 0.55370 0.25392
 C392 C 0.40233 0.52056 0.27797
 C393 C 0.42152 0.51204 0.32210
 C394 C 0.45611 0.53657 0.34314
 C395 C 0.39836 0.56241 0.20992
 C396 C 0.41385 0.59548 0.18555
 C397 C 0.44923 0.62011 0.20512
 C398 C 0.46843 0.61150 0.24962
 C399 C 0.46479 0.65296 0.17979
 C400 C 0.44547 0.66138 0.13561
 C401 C 0.41007 0.63721 0.11639
 C402 C 0.39446 0.60425 0.14172
 H403 H 0.49857 0.58858 0.33552
 H404 H 0.37550 0.50126 0.26272
 H405 H 0.40928 0.48638 0.34041
 H406 H 0.37132 0.54346 0.19461
 H407 H 0.49547 0.63045 0.26494
 H408 H 0.49190 0.67214 0.19414
 H409 H 0.45806 0.68697 0.11699
 H410 H 0.36731 0.58528 0.12697
   
