data_POSCAR
  _audit_creation_date              2014-09-24
  _audit_creation_method            'ToBaCCo'
  _symmetry_space_group_name_H-M    'P1'
  _symmetry_Int_Tables_number       1
  _symmetry_cell_setting            triclinic
  loop_
  _symmetry_equiv_pos_as_xyz
 x,y,z
_cell_length_a 62.8444
_cell_length_b 62.9528
_cell_length_c 63.2407
_cell_angle_alpha 92.188400
_cell_angle_beta 92.157000
_cell_angle_gamma 92.166100
loop_
  _atom_site_label
  _atom_site_type_symbol
  _atom_site_fract_x
  _atom_site_fract_y
  _atom_site_fract_z
N1 N 0.17532 0.22433 0.23008
 N2 N 0.18174 0.20816 0.24090
 C3 C 0.16838 0.20486 0.25671
 C4 C 0.15293 0.21976 0.25562
 C5 C 0.15768 0.23188 0.23863
 H6 H 0.16967 0.19253 0.26808
 H7 H 0.14893 0.24511 0.23289
 Cu8 Cu 0.20668 0.19271 0.23320
 Cu9 Cu 0.19007 0.23422 0.20566
 Cu10 Cu 0.23371 0.20630 0.19038
 N11 N 0.23059 0.17671 0.22363
 N12 N 0.24111 0.18211 0.20694
 C13 C 0.25668 0.16837 0.20379
 C14 C 0.25574 0.15366 0.21932
 C15 C 0.23910 0.15928 0.23166
 H16 H 0.26778 0.16896 0.19114
 H17 H 0.23361 0.15122 0.24536
 N18 N 0.22377 0.23121 0.17560
 N19 N 0.20707 0.24182 0.18138
 C20 C 0.20410 0.25773 0.16805
 C21 C 0.21966 0.25696 0.15333
 C22 C 0.23188 0.24008 0.15845
 H23 H 0.19153 0.26896 0.16887
 H24 H 0.24554 0.23463 0.15020
 H25 H 0.20175 0.20488 0.19729
 H26 H 0.21965 0.22340 0.21431
 N27 N 0.67520 0.72421 0.73023
 N28 N 0.68131 0.70746 0.74035
 C29 C 0.66819 0.70405 0.75635
 C30 C 0.65322 0.71947 0.75609
 C31 C 0.65801 0.73201 0.73941
 H32 H 0.66934 0.69132 0.76729
 H33 H 0.64957 0.74569 0.73431
 Cu34 Cu 0.70561 0.69167 0.73141
 Cu35 Cu 0.68977 0.73455 0.70583
 Cu36 Cu 0.73375 0.70722 0.69016
 N37 N 0.73052 0.67675 0.72266
 N38 N 0.74148 0.68295 0.70652
 C39 C 0.75765 0.66985 0.70365
 C40 C 0.75668 0.65477 0.71882
 C41 C 0.73938 0.65947 0.73064
 H42 H 0.76912 0.67109 0.69139
 H43 H 0.73365 0.65085 0.74389
 N44 N 0.72341 0.73215 0.67562
 N45 N 0.70661 0.74254 0.68155
 C46 C 0.70344 0.75854 0.66837
 C47 C 0.71897 0.75806 0.65360
 C48 C 0.73137 0.74126 0.65853
 H49 H 0.69076 0.76964 0.66932
 H50 H 0.74506 0.73603 0.65018
 H51 H 0.70160 0.70570 0.69614
 H52 H 0.71916 0.72324 0.71445
 N53 N 0.32105 0.77173 0.73660
 N54 N 0.31516 0.78907 0.74670
 C55 C 0.32793 0.79279 0.76416
 C56 C 0.34243 0.77691 0.76489
 C57 C 0.33773 0.76384 0.74724
 H58 H 0.32686 0.80601 0.77545
 H59 H 0.34589 0.74971 0.74249
 Cu60 Cu 0.29134 0.80489 0.73595
 Cu61 Cu 0.30677 0.76068 0.71039
 Cu62 Cu 0.26430 0.78871 0.69090
 N63 N 0.26748 0.82046 0.72492
 N64 N 0.25694 0.81405 0.70730
 C65 C 0.24104 0.82733 0.70349
 C66 C 0.24180 0.84275 0.71958
 C67 C 0.25865 0.83804 0.73294
 H68 H 0.22968 0.82574 0.69018
 H69 H 0.26386 0.84663 0.74746
 N70 N 0.27422 0.76267 0.67666
 N71 N 0.29038 0.75199 0.68413
 C72 C 0.29333 0.73512 0.67094
 C73 C 0.27831 0.73527 0.65454
 C74 C 0.26646 0.75285 0.65851
 H75 H 0.30553 0.72363 0.67300
 H76 H 0.25326 0.75810 0.64884
 H77 H 0.29604 0.78954 0.70053
 H78 H 0.27735 0.77312 0.71607
 N79 N 0.82191 0.27126 0.23673
 N80 N 0.81660 0.28910 0.24632
 C81 C 0.82925 0.29276 0.26388
 C82 C 0.84305 0.27632 0.26517
 C83 C 0.83810 0.26297 0.24779
 H84 H 0.82853 0.30633 0.27482
 H85 H 0.84577 0.24843 0.24346
 Cu86 Cu 0.79365 0.30583 0.23514
 Cu87 Cu 0.80764 0.26023 0.21058
 Cu88 Cu 0.76529 0.28815 0.19107
 N89 N 0.76894 0.32040 0.22447
 N90 N 0.75789 0.31346 0.20734
 C91 C 0.74146 0.32622 0.20399
 C92 C 0.74237 0.34185 0.21989
 C93 C 0.75989 0.33779 0.23263
 H94 H 0.72962 0.32415 0.19115
 H95 H 0.76540 0.34666 0.24690
 N96 N 0.77519 0.26217 0.17684
 N97 N 0.79133 0.25149 0.18433
 C98 C 0.79429 0.23462 0.17114
 C99 C 0.77929 0.23479 0.15472
 C100 C 0.76744 0.25237 0.15869
 H101 H 0.80649 0.22314 0.17321
 H102 H 0.75427 0.25765 0.14899
 H103 H 0.79725 0.28895 0.20008
 H104 H 0.77873 0.27356 0.21681
 N105 N 0.82147 0.72558 0.26814
 N106 N 0.81434 0.70823 0.25749
 C107 C 0.82719 0.70435 0.24131
 C108 C 0.84307 0.72010 0.24202
 C109 C 0.83907 0.73331 0.25914
 H110 H 0.82498 0.69135 0.22965
 H111 H 0.84800 0.74770 0.26436
 Cu112 Cu 0.78851 0.69296 0.26541
 Cu113 Cu 0.80688 0.73755 0.29217
 Cu114 Cu 0.76102 0.71042 0.30675
 N115 N 0.76307 0.67757 0.27415
 N116 N 0.75238 0.68456 0.29033
 C117 C 0.73565 0.67110 0.29310
 C118 C 0.73595 0.65492 0.27784
 C119 C 0.75348 0.65937 0.26607
 H120 H 0.72422 0.67285 0.30534
 H121 H 0.75885 0.65000 0.25275
 N122 N 0.77228 0.73687 0.32143
 N123 N 0.78983 0.74715 0.31599
 C124 C 0.79329 0.76454 0.32896
 C125 C 0.77714 0.76508 0.34307
 C126 C 0.76412 0.74742 0.33799
 H127 H 0.80651 0.77596 0.32822
 H128 H 0.74980 0.74266 0.34582
 H129 H 0.79315 0.70910 0.30101
 H130 H 0.77685 0.72543 0.28298
 N131 N 0.32189 0.22524 -0.23216
 N132 N 0.31506 0.20745 -0.24224
 C133 C 0.32787 0.20333 -0.25841
 C134 C 0.34340 0.21941 -0.25827
 C135 C 0.33924 0.23306 -0.24153
 H136 H 0.32586 0.18994 -0.26964
 H137 H 0.34787 0.24777 -0.23680
 Cu138 Cu 0.28980 0.19179 -0.23347
 Cu139 Cu 0.30715 0.23768 -0.20844
 Cu140 Cu 0.26152 0.21051 -0.19327
 N141 N 0.26408 0.17676 -0.22483
 N142 N 0.25317 0.18418 -0.20900
 C143 C 0.23632 0.17089 -0.20617
 C144 C 0.23678 0.15436 -0.22102
 C145 C 0.25452 0.15843 -0.23262
 H146 H 0.22466 0.17302 -0.19419
 H147 H 0.26001 0.14873 -0.24565
 N148 N 0.27246 0.23740 -0.17924
 N149 N 0.28992 0.24771 -0.18489
 C150 C 0.29328 0.26531 -0.17219
 C151 C 0.27717 0.26597 -0.15804
 C152 C 0.26426 0.24817 -0.16284
 H153 H 0.30647 0.27674 -0.17306
 H154 H 0.25006 0.24339 -0.15481
 H155 H 0.29387 0.20952 -0.19851
 H156 H 0.27749 0.22473 -0.21752
 N157 N 0.67629 0.27311 -0.23741
 N158 N 0.68381 0.28933 -0.24776
 C159 C 0.67065 0.29248 -0.26459
 C160 C 0.65414 0.27744 -0.26463
 C161 C 0.65807 0.26541 -0.24724
 H162 H 0.67276 0.30488 -0.27580
 H163 H 0.64836 0.25218 -0.24206
 Cu164 Cu 0.70981 0.30490 -0.23777
 Cu165 Cu 0.69049 0.26337 -0.21178
 Cu166 Cu 0.73685 0.29132 -0.19393
 N167 N 0.73586 0.32047 -0.22781
 N168 N 0.74628 0.31513 -0.21050
 C169 C 0.76340 0.32846 -0.20688
 C170 C 0.76367 0.34277 -0.22282
 C171 C 0.74606 0.33739 -0.23584
 H172 H 0.77474 0.32784 -0.19365
 H173 H 0.74101 0.34532 -0.24994
 N174 N 0.72481 0.26672 -0.17942
 N175 N 0.70722 0.25601 -0.18621
 C176 C 0.70357 0.23981 -0.17329
 C177 C 0.71961 0.24051 -0.15779
 C178 C 0.73279 0.25764 -0.16204
 H179 H 0.69043 0.22821 -0.17514
 H180 H 0.74728 0.26285 -0.15326
 H181 H 0.70480 0.29239 -0.20225
 H182 H 0.72087 0.27410 -0.21853
 N183 N 0.17655 0.77437 0.26367
 N184 N 0.18383 0.79086 0.25358
 C185 C 0.17064 0.79402 0.23678
 C186 C 0.15437 0.77871 0.23645
 C187 C 0.15849 0.76648 0.25365
 H188 H 0.17263 0.80651 0.22566
 H189 H 0.14903 0.75294 0.25853
 Cu190 Cu 0.20979 0.80661 0.26337
 Cu191 Cu 0.19103 0.76439 0.28900
 Cu192 Cu 0.23766 0.79193 0.30645
 N193 N 0.23626 0.82152 0.27304
 N194 N 0.24705 0.81579 0.28998
 C195 C 0.26461 0.82865 0.29312
 C196 C 0.26469 0.84306 0.27726
 C197 C 0.24658 0.83823 0.26479
 H198 H 0.27639 0.82760 0.30593
 H199 H 0.24137 0.84630 0.25082
 N200 N 0.22566 0.76735 0.32097
 N201 N 0.20796 0.75676 0.31430
 C202 C 0.20430 0.74055 0.32719
 C203 C 0.22046 0.74109 0.34255
 C204 C 0.23371 0.75817 0.33827
 H205 H 0.19106 0.72907 0.32543
 H206 H 0.24825 0.76331 0.34697
 H207 H 0.20544 0.79333 0.29876
 H208 H 0.22117 0.77539 0.28170
 N209 N 0.47594 0.42481 0.47907
 N210 N 0.45942 0.42996 0.49011
 C211 C 0.45725 0.41626 0.50584
 C212 C 0.47323 0.40191 0.50446
 C213 C 0.48481 0.40769 0.48737
 H214 H 0.44498 0.41661 0.51738
 H215 H 0.49859 0.39998 0.48141
 Cu216 Cu 0.44235 0.45395 0.48261
 Cu217 Cu 0.48465 0.44060 0.45471
 Cu218 Cu 0.45473 0.48372 0.44149
 N219 N 0.42576 0.47830 0.47520
 N220 N 0.43073 0.48987 0.45907
 C221 C 0.41679 0.50548 0.45722
 C222 C 0.40241 0.50353 0.47302
 C223 C 0.40844 0.48620 0.48418
 H224 H 0.41701 0.51729 0.44524
 H225 H 0.40073 0.47984 0.49770
 N226 N 0.47958 0.47497 0.42563
 N227 N 0.49095 0.45853 0.43064
 C228 C 0.50660 0.45651 0.41679
 C229 C 0.50492 0.47242 0.40254
 C230 C 0.48771 0.48384 0.40846
 H231 H 0.51828 0.44433 0.41694
 H232 H 0.48154 0.49748 0.40074
 H233 H 0.47257 0.46925 0.46456
 H234 H 0.45494 0.45150 0.44659
 N235 N -0.02375 -0.07478 0.97864
 N236 N -0.04030 -0.06965 0.98962
 C237 C -0.04249 -0.08332 1.00537
 C238 C -0.02648 -0.09764 1.00405
 C239 C -0.01486 -0.09187 0.98699
 H240 H -0.05481 -0.08300 1.01685
 H241 H -0.00107 -0.09958 0.98106
 Cu242 Cu -0.05746 -0.04572 0.98209
 Cu243 Cu -0.01510 -0.05908 0.95421
 Cu244 Cu -0.04496 -0.01597 0.94095
 N245 N -0.07390 -0.02127 0.97470
 N246 N -0.06888 -0.00968 0.95859
 C247 C -0.08275 0.00601 0.95681
 C248 C -0.09712 0.00409 0.97262
 C249 C -0.09115 -0.01330 0.98372
 H250 H -0.08249 0.01784 0.94485
 H251 H -0.09888 -0.01967 0.99723
 N252 N -0.02020 -0.02483 0.92499
 N253 N -0.00884 -0.04127 0.93004
 C254 C 0.00672 -0.04343 0.91612
 C255 C 0.00500 -0.02763 0.90175
 C256 C -0.01214 -0.01610 0.90771
 H257 H 0.01836 -0.05565 0.91626
 H258 H -0.01833 -0.00251 0.89992
 H259 H -0.02721 -0.03046 0.96409
 H260 H -0.04484 -0.04821 0.94609
 N261 N 1.03253 0.57912 0.97814
 N262 N 1.05062 0.57550 0.98827
 C263 C 1.05413 0.59041 1.00405
 C264 C 1.03735 0.60393 1.00358
 C265 C 1.02394 0.59639 0.98705
 H266 H 1.06772 0.59132 1.01510
 H267 H 1.00900 0.60292 0.98196
 Cu268 Cu 1.06766 0.55154 0.97991
 Cu269 Cu 1.02134 0.56129 0.95418
 Cu270 Cu 1.05050 0.51793 0.93957
 N271 N 1.08345 0.52658 0.97185
 N272 N 1.07657 0.51357 0.95608
 C273 C 1.09013 0.49766 0.95393
 C274 C 1.10628 0.50090 0.96914
 C275 C 1.10167 0.51930 0.98032
 H276 H 1.08828 0.48458 0.94232
 H277 H 1.11079 0.52666 0.99368
 N278 N 1.02374 0.52493 0.92474
 N279 N 1.01259 0.54146 0.93034
 C280 C 0.99562 0.54246 0.91679
 C281 C 0.99622 0.52578 0.90213
 C282 C 1.01415 0.51497 0.90749
 H283 H 0.98397 0.55466 0.91721
 H284 H 1.02000 0.50121 0.89912
 H285 H 1.03555 0.53398 0.96364
 H286 H 1.05028 0.55059 0.94468
 N287 N 0.53229 0.07976 0.47808
 N288 N 0.55037 0.07611 0.48822
 C289 C 0.55384 0.09092 0.50408
 C290 C 0.53705 0.10442 0.50367
 C291 C 0.52366 0.09696 0.48708
 H292 H 0.56740 0.09177 0.51516
 H293 H 0.50871 0.10348 0.48204
 Cu294 Cu 0.56741 0.05218 0.47978
 Cu295 Cu 0.52106 0.06195 0.45412
 Cu296 Cu 0.55024 0.01864 0.43939
 N297 N 0.58323 0.02728 0.47163
 N298 N 0.57636 0.01432 0.45581
 C299 C 0.58994 -0.00156 0.45358
 C300 C 0.60612 0.00168 0.46876
 C301 C 0.60149 0.02002 0.48003
 H302 H 0.58810 -0.01460 0.44194
 H303 H 0.61061 0.02735 0.49340
 N304 N 0.52343 0.02560 0.42465
 N305 N 0.51229 0.04213 0.43027
 C306 C 0.49522 0.04303 0.41683
 C307 C 0.49576 0.02630 0.40222
 C308 C 0.51375 0.01555 0.40750
 H309 H 0.48351 0.05517 0.41731
 H310 H 0.51954 0.00174 0.39917
 H311 H 0.53530 0.03460 0.46351
 H312 H 0.55000 0.05127 0.44457
 N313 N -0.02692 0.08474 0.52711
 N314 N -0.04324 0.07789 0.51472
 C315 C -0.04586 0.09143 0.49893
 C316 C -0.03043 0.10751 0.50169
 C317 C -0.01860 0.10288 0.51961
 H318 H -0.05785 0.08963 0.48620
 H319 H -0.00485 0.11183 0.52648
 Cu320 Cu -0.05919 0.05174 0.52016
 Cu321 Cu -0.01743 0.06937 0.55173
 Cu322 Cu -0.04577 0.02264 0.56161
 N323 N -0.07496 0.02555 0.52585
 N324 N -0.06958 0.01422 0.54213
 C325 C -0.08327 -0.00268 0.54286
 C326 C -0.09789 -0.00180 0.52617
 C327 C -0.09230 0.01624 0.51567
 H328 H -0.08291 -0.01446 0.55487
 H329 H -0.10052 0.02228 0.50196
 N330 N -0.02122 0.03373 0.57953
 N331 N -0.01039 0.05152 0.57583
 C332 C 0.00544 0.05465 0.59076
 C333 C 0.00436 0.03807 0.60434
 C334 C -0.01260 0.02510 0.59686
 H335 H 0.01698 0.06788 0.59164
 H336 H -0.01811 0.01041 0.60352
 H337 H -0.02841 0.03968 0.54028
 H338 H -0.04668 0.05502 0.55712
 N339 N 0.47330 0.58468 0.02754
 N340 N 0.45696 0.57795 0.01511
 C341 C 0.45437 0.59162 -0.00057
 C342 C 0.46986 0.60764 0.00227
 C343 C 0.48167 0.60284 0.02016
 H344 H 0.44236 0.58994 -0.01330
 H345 H 0.49545 0.61171 0.02709
 Cu346 Cu 0.44091 0.55181 0.02041
 Cu347 Cu 0.48274 0.56908 0.05203
 Cu348 Cu 0.45452 0.52211 0.06136
 N349 N 0.42530 0.52539 0.02566
 N350 N 0.43077 0.51383 0.04174
 C351 C 0.41719 0.49680 0.04220
 C352 C 0.40255 0.49784 0.02555
 C353 C 0.40801 0.51611 0.01535
 H354 H 0.41766 0.48482 0.05400
 H355 H 0.39976 0.52231 0.00173
 N356 N 0.47902 0.53310 0.07944
 N357 N 0.48977 0.55100 0.07596
 C358 C 0.50550 0.55410 0.09100
 C359 C 0.50444 0.53741 0.10444
 C360 C 0.48760 0.52438 0.09675
 H361 H 0.51694 0.56741 0.09207
 H362 H 0.48212 0.50961 0.10328
 H363 H 0.47180 0.53947 0.04022
 H364 H 0.45359 0.55453 0.05737
 N365 N 0.52478 -0.07592 0.02511
 N366 N 0.54143 -0.07022 0.01434
 C367 C 0.54249 -0.08347 -0.00279
 C368 C 0.52562 -0.09810 -0.00262
 C369 C 0.51469 -0.09298 0.01523
 H370 H 0.55474 -0.08282 -0.01433
 H371 H 0.50069 -0.10124 0.02076
 Cu372 Cu 0.56042 -0.04650 0.02426
 Cu373 Cu 0.51782 -0.06120 0.05145
 Cu374 Cu 0.55137 -0.01857 0.06914
 N375 N 0.57907 -0.02252 0.03415
 N376 N 0.57547 -0.01165 0.05176
 C377 C 0.59050 0.00411 0.05485
 C378 C 0.60414 0.00294 0.03831
 C379 C 0.59652 -0.01403 0.02543
 H380 H 0.59133 0.01566 0.06799
 H381 H 0.60310 -0.01958 0.01076
 N382 N 0.52617 -0.02810 0.08446
 N383 N 0.51344 -0.04434 0.07770
 C384 C 0.49765 -0.04676 0.09133
 C385 C 0.50066 -0.03137 0.10730
 C386 C 0.51876 -0.01976 0.10259
 H387 H 0.48477 -0.05866 0.08969
 H388 H 0.52583 -0.00615 0.11158
 H389 H 0.53188 -0.03208 0.04483
 H390 H 0.54852 -0.05046 0.06020
 N391 N 1.02460 0.42414 0.52429
 N392 N 1.04114 0.43009 0.51349
 C393 C 1.04241 0.41680 0.49641
 C394 C 1.02578 0.40192 0.49663
 C395 C 1.01478 0.40691 0.51447
 H396 H 1.05471 0.41755 0.48492
 H397 H 1.00099 0.39836 0.52011
 Cu398 Cu 1.05985 0.45398 0.52347
 Cu399 Cu 1.01752 0.43868 0.55068
 Cu400 Cu 1.05069 0.48158 0.56848
 N401 N 1.07838 0.47801 0.53343
 N402 N 1.07475 0.48877 0.55110
 C403 C 1.08979 0.50452 0.55430
 C404 C 1.10346 0.50343 0.53778
 C405 C 1.09586 0.48654 0.52481
 H406 H 1.09064 0.51594 0.56755
 H407 H 1.10252 0.48102 0.51016
 N408 N 1.02554 0.47176 0.58378
 N409 N 1.01299 0.45540 0.57698
 C410 C 0.99723 0.45275 0.59060
 C411 C 1.00006 0.46812 0.60661
 C412 C 1.01804 0.47996 0.60192
 H413 H 0.98448 0.44071 0.58892
 H414 H 1.02495 0.49362 0.61094
 H415 H 1.03125 0.46797 0.54421
 H416 H 1.04815 0.44969 0.55943
 C417 C 0.35894 0.02107 0.24240
 C418 C 0.34654 0.00004 0.24524
 C419 C 0.35930 -0.01659 0.24877
 C420 C 0.38331 -0.01078 0.24911
 C421 C 0.37350 0.02429 0.26235
 C422 C 0.38623 0.00760 0.26580
 C423 C 0.37395 0.01652 0.22438
 C424 C 0.38671 -0.00012 0.22795
 H425 H 0.32925 -0.00142 0.24514
 H426 H 0.39366 -0.02440 0.25195
 H427 H 0.37378 0.03846 0.27273
 H428 H 0.37491 0.02602 0.21043
 C429 C 0.13728 -0.02768 0.74809
 C430 C 0.15044 -0.00707 0.75341
 C431 C 0.13836 0.01003 0.75745
 C432 C 0.11419 0.00507 0.75587
 C433 C 0.12283 -0.03048 0.76684
 C434 C 0.11075 -0.01334 0.77087
 C435 C 0.12229 -0.02247 0.72948
 C436 C 0.11025 -0.00532 0.73358
 H437 H 0.16774 -0.00597 0.75343
 H438 H 0.10436 0.01902 0.75922
 H439 H 0.12204 -0.04477 0.77594
 H440 H 0.12138 -0.03143 0.71441
 C441 C 0.63667 0.47186 0.24885
 C442 C 0.65012 0.49235 0.25389
 C443 C 0.63831 0.50967 0.25778
 C444 C 0.61408 0.50502 0.25637
 C445 C 0.62226 0.46947 0.26768
 C446 C 0.61045 0.48683 0.27159
 C447 C 0.62171 0.47708 0.23022
 C448 C 0.60992 0.49445 0.23418
 H449 H 0.66741 0.49324 0.25357
 H450 H 0.60446 0.51916 0.25962
 H451 H 0.62129 0.45528 0.27691
 H452 H 0.62070 0.46803 0.21521
 C453 C 0.85952 0.52190 0.74211
 C454 C 0.84681 0.50117 0.74551
 C455 C 0.85930 0.48437 0.74920
 C456 C 0.88338 0.48972 0.74911
 C457 C 0.87439 0.52523 0.76183
 C458 C 0.88685 0.50836 0.76544
 C459 C 0.87420 0.51672 0.72398
 C460 C 0.88669 0.49991 0.72769
 H461 H 0.82952 0.50004 0.74571
 H462 H 0.89353 0.47597 0.75206
 H463 H 0.87507 0.53961 0.77195
 H464 H 0.87518 0.52597 0.70986
 C465 C 0.24300 0.35991 0.02121
 C466 C 0.24597 0.34742 0.00035
 C467 C 0.24926 0.36007 -0.01632
 C468 C 0.24930 0.38406 -0.01072
 C469 C 0.26286 0.37477 0.02425
 C470 C 0.26613 0.38737 0.00751
 C471 C 0.22462 0.37458 0.01661
 C472 C 0.22798 0.38723 -0.00006
 H473 H 0.24597 0.33016 -0.00102
 H474 H 0.25195 0.39433 -0.02436
 H475 H 0.27329 0.37539 0.03839
 H476 H 0.21055 0.37535 0.02605
 C477 C 0.74853 0.13599 -0.02743
 C478 C 0.75389 0.14936 -0.00705
 C479 C 0.75781 0.13750 0.01015
 C480 C 0.75608 0.11332 0.00550
 C481 C 0.76730 0.12139 -0.02996
 C482 C 0.77122 0.10954 -0.01274
 C483 C 0.72967 0.12124 -0.02210
 C484 C 0.73366 0.10941 -0.00486
 H485 H 0.75392 0.16664 -0.00616
 H486 H 0.75933 0.10367 0.01953
 H487 H 0.77658 0.12044 -0.04411
 H488 H 0.71451 0.12040 -0.03099
 C489 C 0.24861 0.63602 0.47263
 C490 C 0.25395 0.64936 0.49303
 C491 C 0.25775 0.63749 0.51024
 C492 C 0.25594 0.61331 0.50558
 C493 C 0.26732 0.62133 0.47016
 C494 C 0.27112 0.60946 0.48740
 C495 C 0.22966 0.62135 0.47790
 C496 C 0.23354 0.60949 0.49514
 H497 H 0.25398 0.66664 0.49394
 H498 H 0.25909 0.60364 0.51962
 H499 H 0.27659 0.62027 0.45602
 H500 H 0.21455 0.62051 0.46891
 C501 C 0.74228 0.86052 0.52117
 C502 C 0.74529 0.84797 0.50036
 C503 C 0.74876 0.86058 0.48369
 C504 C 0.74887 0.88458 0.48924
 C505 C 0.76220 0.87528 0.52428
 C506 C 0.76561 0.88784 0.50755
 C507 C 0.72400 0.87527 0.51646
 C508 C 0.72751 0.88787 0.49978
 H509 H 0.74522 0.83070 0.49903
 H510 H 0.75165 0.89482 0.47560
 H511 H 0.77251 0.87593 0.53850
 H512 H 0.70991 0.87615 0.52585
 C513 C 0.02068 0.24206 0.35910
 C514 C -0.00050 0.24508 0.34706
 C515 C -0.01696 0.24869 0.35998
 C516 C -0.01085 0.24890 0.38377
 C517 C 0.02420 0.26202 0.37365
 C518 C 0.00767 0.26555 0.38653
 C519 C 0.01624 0.22393 0.37397
 C520 C -0.00024 0.22755 0.38690
 H521 H -0.00221 0.24497 0.32989
 H522 H -0.02433 0.25177 0.39427
 H523 H 0.03852 0.27227 0.37391
 H524 H 0.02573 0.20988 0.37477
 C525 C -0.02755 0.74872 0.13594
 C526 C -0.00706 0.75398 0.14929
 C527 C 0.01030 0.75785 0.13754
 C528 C 0.00567 0.75616 0.11346
 C529 C -0.02999 0.76749 0.12144
 C530 C -0.01261 0.77135 0.10968
 C531 C -0.02223 0.72989 0.12123
 C532 C -0.00483 0.73382 0.10951
 H533 H -0.00621 0.75397 0.16649
 H534 H 0.01984 0.75936 0.10388
 H535 H -0.04420 0.77678 0.12046
 H536 H -0.03130 0.71482 0.12029
 C537 C 0.47179 0.24858 0.63649
 C538 C 0.49213 0.25372 0.65013
 C539 C 0.50967 0.25759 0.63864
 C540 C 0.50536 0.25605 0.61450
 C541 C 0.46960 0.26743 0.62205
 C542 C 0.48717 0.27132 0.61055
 C543 C 0.47723 0.22982 0.62177
 C544 C 0.49481 0.23375 0.61030
 H545 H 0.49273 0.25367 0.66733
 H546 H 0.51966 0.25925 0.60513
 H547 H 0.45537 0.27665 0.62079
 H548 H 0.46804 0.21482 0.62053
 C549 C 0.52130 0.74231 0.85997
 C550 C 0.50020 0.74509 0.84766
 C551 C 0.48355 0.74862 0.86036
 C552 C 0.48939 0.74901 0.88422
 C553 C 0.52447 0.76238 0.87441
 C554 C 0.50775 0.76584 0.88708
 C555 C 0.51683 0.72424 0.87491
 C556 C 0.50017 0.72779 0.88762
 H557 H 0.49873 0.74504 0.83048
 H558 H 0.47576 0.75182 0.89453
 H559 H 0.53864 0.77284 0.87466
 H560 H 0.52649 0.71033 0.87596
 C561 C 0.10314 0.22680 0.29425
 N562 N 0.10386 0.21925 0.31405
 N563 N 0.08765 0.22193 0.32675
 C564 C 0.07025 0.23223 0.32000
 N565 N 0.06952 0.23976 0.30019
 N566 N 0.08573 0.23708 0.28750
 C567 C 0.12067 0.22418 0.28069
 C568 C 0.13540 0.22211 0.26926
 C569 C 0.05294 0.23542 0.33372
 C570 C 0.03839 0.23831 0.34521
 C571 C 0.60414 0.72711 0.79553
 N572 N 0.59903 0.71224 0.80965
 N573 N 0.58283 0.71501 0.82235
 C574 C 0.57129 0.73274 0.82130
 N575 N 0.57641 0.74760 0.80719
 N576 N 0.59260 0.74483 0.79449
 C577 C 0.62150 0.72417 0.78180
 C578 C 0.63602 0.72192 0.77013
 C579 C 0.55387 0.73580 0.83493
 C580 C 0.53920 0.73862 0.84628
 C581 C 0.39139 0.76862 0.80748
 N582 N 0.40593 0.78461 0.81274
 N583 N 0.42316 0.78100 0.82481
 C584 C 0.42636 0.76130 0.83202
 N585 N 0.41178 0.74534 0.82682
 N586 N 0.39455 0.74895 0.81476
 C587 C 0.37376 0.77204 0.79309
 C588 C 0.35931 0.77450 0.78046
 C589 C 0.44589 0.75694 0.84322
 C590 C 0.46278 0.75316 0.85162
 C591 C -0.10928 0.26827 0.30739
 N592 N -0.09488 0.28436 0.31275
 N593 N -0.07769 0.28085 0.32491
 C594 C -0.07439 0.26118 0.33212
 N595 N -0.08884 0.24513 0.32684
 N596 N -0.10603 0.24863 0.31468
 C597 C -0.12680 0.27157 0.29284
 C598 C -0.14113 0.27398 0.28005
 C599 C -0.05480 0.25691 0.34324
 C600 C -0.03783 0.25318 0.35151
 C601 C -0.11001 0.72971 0.20027
 N602 N -0.10469 0.74984 0.19497
 N603 N -0.08904 0.75348 0.18177
 C604 C -0.07827 0.73709 0.17345
 N605 N -0.08360 0.71694 0.17872
 N606 N -0.09926 0.71331 0.19193
 C607 C -0.12656 0.72591 0.21483
 C608 C -0.14042 0.72305 0.22719
 C609 C -0.06092 0.74109 0.15986
 C610 C -0.04605 0.74452 0.14883
 C611 C 0.38896 0.22886 0.70022
 N612 N 0.39410 0.24904 0.69492
 N613 N 0.40971 0.25282 0.68172
 C614 C 0.42064 0.23654 0.67339
 N615 N 0.41548 0.21635 0.67867
 N616 N 0.39986 0.21257 0.69188
 C617 C 0.37255 0.22496 0.71493
 C618 C 0.35884 0.22212 0.72747
 C619 C 0.43809 0.24073 0.65996
 C620 C 0.45309 0.24430 0.64912
 C621 C 0.60311 0.27122 0.69545
 N622 N 0.59625 0.25167 0.68767
 N623 N 0.57861 0.24936 0.67530
 C624 C 0.56730 0.26651 0.67027
 N625 N 0.57416 0.28607 0.67805
 N626 N 0.59181 0.28839 0.69043
 C627 C 0.62163 0.27356 0.70949
 C628 C 0.63699 0.27541 0.72154
 C629 C 0.54753 0.26378 0.65813
 C630 C 0.53052 0.26115 0.64873
 C631 C 0.10337 0.77186 0.19460
 N632 N 0.09642 0.75224 0.18710
 N633 N 0.07900 0.74987 0.17443
 C634 C 0.06802 0.76705 0.16880
 N635 N 0.07498 0.78668 0.17626
 N636 N 0.09242 0.78905 0.18893
 C637 C 0.12153 0.77428 0.20907
 C638 C 0.13658 0.77627 0.22148
 C639 C 0.04829 0.76425 0.15665
 C640 C 0.03124 0.76153 0.14736
 C641 C 0.29436 0.10388 0.22709
 N642 N 0.28595 0.08403 0.22961
 N643 N 0.29865 0.06780 0.23235
 C644 C 0.32013 0.07096 0.23264
 N645 N 0.32854 0.09081 0.23011
 N646 N 0.31584 0.10703 0.22736
 C647 C 0.28073 0.12136 0.22432
 C648 C 0.26930 0.13609 0.22203
 C649 C 0.33377 0.05357 0.23586
 C650 C 0.34519 0.03892 0.23872
 C651 C 0.79572 0.60527 0.72644
 N652 N 0.78766 0.58498 0.72433
 N653 N 0.80028 0.56870 0.72706
 C654 C 0.82134 0.57222 0.73198
 N655 N 0.82940 0.59251 0.73408
 N656 N 0.81678 0.60880 0.73134
 C657 C 0.78208 0.62276 0.72371
 C658 C 0.77053 0.63740 0.72147
 C659 C 0.83482 0.55471 0.73529
 C660 C 0.84604 0.53994 0.73826
 C661 C 0.80522 0.39308 0.77005
 N662 N 0.80411 0.41088 0.78268
 N663 N 0.81625 0.42813 0.77925
 C664 C 0.82988 0.42809 0.76311
 N665 N 0.83107 0.41025 0.75054
 N666 N 0.81894 0.39299 0.75397
 C667 C 0.79105 0.37506 0.77284
 C668 C 0.77872 0.36021 0.77492
 C669 C 0.84145 0.44729 0.75833
 C670 C 0.85019 0.46391 0.75417
 C671 C 0.30622 -0.10876 0.26826
 N672 N 0.31196 -0.10464 0.24832
 N673 N 0.32405 -0.08741 0.24470
 C674 C 0.33080 -0.07380 0.26091
 N675 N 0.32512 -0.07794 0.28086
 N676 N 0.31303 -0.09518 0.28449
 C677 C 0.29189 -0.12642 0.27187
 C678 C 0.27931 -0.14090 0.27457
 C679 C 0.34205 -0.05425 0.25673
 C680 C 0.35050 -0.03735 0.25311
 C681 C 0.20226 -0.10975 0.72863
 N682 N 0.20990 -0.09105 0.73782
 N683 N 0.19687 -0.07523 0.74151
 C684 C 0.17580 -0.07763 0.73614
 N685 N 0.16814 -0.09632 0.72693
 N686 N 0.18118 -0.11216 0.72324
 C687 C 0.21628 -0.12685 0.72502
 C688 C 0.22822 -0.14116 0.72230
 C689 C 0.16186 -0.06054 0.74019
 C690 C 0.15053 -0.04590 0.74372
 C691 C 0.70145 0.38959 0.22981
 N692 N 0.70898 0.40823 0.23921
 N693 N 0.69589 0.42400 0.24289
 C694 C 0.67487 0.42159 0.23731
 N695 N 0.66732 0.40295 0.22791
 N696 N 0.68042 0.38717 0.22423
 C697 C 0.71561 0.37264 0.22601
 C698 C 0.72773 0.35854 0.22306
 C699 C 0.66092 0.43869 0.24122
 C700 C 0.64968 0.45344 0.24463
 C701 C 0.69494 0.60321 0.27024
 N702 N 0.68464 0.59553 0.28700
 N703 N 0.67218 0.57792 0.28468
 C704 C 0.66961 0.56751 0.26551
 N705 N 0.67987 0.57523 0.24876
 N706 N 0.69232 0.59282 0.25107
 C707 C 0.70912 0.62162 0.27290
 C708 C 0.72129 0.63688 0.27512
 C709 C 0.65747 0.54772 0.26322
 C710 C 0.64817 0.53064 0.26095
 C711 C 0.19514 0.10310 0.77221
 N712 N 0.18469 0.09819 0.75340
 N713 N 0.17195 0.08078 0.75105
 C714 C 0.16921 0.06782 0.76747
 N715 N 0.17961 0.07277 0.78630
 N716 N 0.19234 0.09017 0.78865
 C717 C 0.20963 0.12128 0.77449
 C718 C 0.22199 0.13641 0.77646
 C719 C 0.15711 0.04809 0.76435
 C720 C 0.14795 0.03101 0.76140
 C721 C 0.22771 0.29565 0.10389
 N722 N 0.21701 0.31389 0.10255
 N723 N 0.21988 0.32654 0.08639
 C724 C 0.23354 0.32131 0.07110
 N725 N 0.24422 0.30306 0.07244
 N726 N 0.24135 0.29042 0.08859
 C727 C 0.22476 0.28211 0.12133
 C728 C 0.22239 0.27067 0.13596
 C729 C 0.23672 0.33492 0.05375
 C730 C 0.23950 0.34626 0.03911
 C731 C 0.72694 0.79694 0.60432
 N732 N 0.71354 0.81289 0.60064
 N733 N 0.71640 0.82541 0.58438
 C734 C 0.73274 0.82234 0.57133
 N735 N 0.74613 0.80639 0.57502
 N736 N 0.74327 0.79387 0.59127
 C737 C 0.72392 0.78343 0.62176
 C738 C 0.72156 0.77194 0.63635
 C739 C 0.73586 0.83577 0.55385
 C740 C 0.73866 0.84698 0.53911
 C741 C 0.76837 0.80748 0.39195
 N742 N 0.74851 0.81419 0.39549
 N743 N 0.74491 0.82625 0.41266
 C744 C 0.76106 0.83200 0.42679
 N745 N 0.78093 0.82537 0.42320
 N746 N 0.78454 0.81331 0.40602
 C747 C 0.77187 0.79313 0.37436
 C748 C 0.77447 0.78056 0.35993
 C749 C 0.75680 0.84322 0.44625
 C750 C 0.75314 0.85168 0.46306
 C751 C 0.26862 0.30786 -0.10866
 N752 N 0.24878 0.31464 -0.10511
 N753 N 0.24515 0.32645 -0.08778
 C754 C 0.26125 0.33187 -0.07349
 N755 N 0.28110 0.32516 -0.07707
 N756 N 0.28473 0.31334 -0.09440
 C757 C 0.27212 0.29377 -0.12646
 C758 C 0.27466 0.28137 -0.14106
 C759 C 0.25699 0.34291 -0.05393
 C760 C 0.25344 0.35126 -0.03703
 C761 C 0.72948 0.19999 -0.10994
 N762 N 0.74420 0.20563 -0.09431
 N763 N 0.74794 0.19272 -0.07850
 C764 C 0.73708 0.17374 -0.07784
 N765 N 0.72236 0.16807 -0.09347
 N766 N 0.71862 0.18099 -0.10930
 C767 C 0.72554 0.21398 -0.12692
 C768 C 0.72260 0.22597 -0.14106
 C769 C 0.74094 0.16007 -0.06057
 C770 C 0.74431 0.14897 -0.04579
 C771 C 0.23026 0.70029 0.39018
 N772 N 0.24490 0.70586 0.40590
 N773 N 0.24849 0.69289 0.42170
 C774 C 0.23757 0.67394 0.42225
 N775 N 0.22294 0.66834 0.40651
 N776 N 0.21934 0.68132 0.39070
 C777 C 0.22640 0.71439 0.37327
 C778 C 0.22348 0.72647 0.35920
 C779 C 0.24127 0.66020 0.43950
 C780 C 0.24452 0.64905 0.45427
 C781 C 0.27146 0.69379 0.60341
 N782 N 0.28872 0.68806 0.59259
 N783 N 0.28637 0.67557 0.57509
 C784 C 0.26669 0.66839 0.56791
 N785 N 0.24945 0.67406 0.57876
 N786 N 0.25180 0.68654 0.59626
 C787 C 0.27388 0.70812 0.62162
 C788 C 0.27588 0.72043 0.63671
 C789 C 0.26395 0.65642 0.54815
 C790 C 0.26133 0.64725 0.53112
 C791 C 0.77229 0.19352 0.10344
 N792 N 0.78936 0.18865 0.09194
 N793 N 0.78688 0.17627 0.07438
 C794 C 0.76727 0.16833 0.06782
 N795 N 0.75022 0.17315 0.07935
 N796 N 0.75269 0.18553 0.09691
 C797 C 0.77479 0.20774 0.12172
 C798 C 0.77684 0.21999 0.13686
 C799 C 0.76433 0.15643 0.04804
 C800 C 0.76155 0.14728 0.03101
 C801 C 0.48279 0.35216 0.54281
 N802 N 0.47635 0.33210 0.53622
 N803 N 0.47840 0.31599 0.54914
 C804 C 0.48700 0.31943 0.56904
 N805 N 0.49350 0.33948 0.57560
 N806 N 0.49145 0.35559 0.56268
 C807 C 0.47972 0.36965 0.52921
 C808 C 0.47686 0.38437 0.51789
 C809 C 0.48795 0.30232 0.58340
 C810 C 0.48803 0.28810 0.59567
 C811 C -0.01719 0.85255 0.04237
 N812 N -0.02286 0.83240 0.03544
 N813 N -0.02085 0.81624 0.04830
 C814 C -0.01306 0.81973 0.06848
 N815 N -0.00734 0.83987 0.07540
 N816 N -0.00935 0.85603 0.06254
 C817 C -0.02015 0.87007 0.02879
 C818 C -0.02293 0.88480 0.01748
 C819 C -0.01207 0.80252 0.08272
 C820 C -0.01190 0.78822 0.09489
 C821 C 0.02599 0.65484 0.04281
 N822 N 0.03306 0.65591 0.06337
 N823 N 0.02790 0.67203 0.07623
 C824 C 0.01554 0.68758 0.06891
 N825 N 0.00849 0.68651 0.04835
 N826 N 0.01365 0.67040 0.03550
 C827 C 0.03067 0.63699 0.02917
 C828 C 0.03404 0.62192 0.01760
 C829 C 0.00900 0.70431 0.08302
 C830 C 0.00298 0.71799 0.09499
 C831 C 0.52557 0.15506 0.54321
 N832 N 0.53277 0.15612 0.56373
 N833 N 0.52763 0.17220 0.57666
 C834 C 0.51516 0.18772 0.56945
 N835 N 0.50800 0.18667 0.54892
 N836 N 0.51313 0.17060 0.53600
 C837 C 0.53028 0.13729 0.52948
 C838 C 0.53368 0.12230 0.51782
 C839 C 0.50865 0.20439 0.58364
 C840 C 0.50265 0.21801 0.59569
 C841 C -0.01983 0.15517 0.46108
 N842 N -0.03437 0.17020 0.45767
 N843 N -0.03103 0.18495 0.44345
 C844 C -0.01306 0.18506 0.43220
 N845 N 0.00145 0.17006 0.43565
 N846 N -0.00188 0.15533 0.44985
 C847 C -0.02364 0.13883 0.47584
 C848 C -0.02672 0.12473 0.48786
 C849 C -0.00947 0.20056 0.41655
 C850 C -0.00572 0.21312 0.40314
 C851 C 0.48034 0.65561 0.96198
 N852 N 0.50004 0.65904 0.95445
 N853 N 0.50341 0.67381 0.94030
 C854 C 0.48720 0.68562 0.93322
 N855 N 0.46748 0.68222 0.94075
 N856 N 0.46410 0.66743 0.95492
 C857 C 0.47662 0.63913 0.97661
 C858 C 0.47358 0.62494 0.98854
 C859 C 0.49087 0.70098 0.91743
 C860 C 0.49465 0.71345 0.90394
 C861 C 0.51438 0.85144 0.95565
 N862 N 0.51953 0.85311 0.93513
 N863 N 0.51722 0.83631 0.92167
 C864 C 0.50967 0.81732 0.92831
 N865 N 0.50446 0.81565 0.94882
 N866 N 0.50678 0.83247 0.96228
 C867 C 0.51784 0.86928 0.97033
 C868 C 0.52119 0.88421 0.98266
 C869 C 0.50823 0.79904 0.91401
 C870 C 0.50766 0.78382 0.90183
 C871 C 0.01633 0.35044 0.45591
 N872 N 0.03353 0.33965 0.44996
 N873 N 0.03117 0.32277 0.43663
 C874 C 0.01155 0.31613 0.42885
 N875 N -0.00569 0.32690 0.43480
 N876 N -0.00333 0.34381 0.44815
 C877 C 0.01905 0.36867 0.47020
 C878 C 0.02187 0.38390 0.48223
 C879 C 0.00926 0.29819 0.41417
 C880 C 0.00811 0.28323 0.40167
 C881 C 0.35203 0.54134 0.48255
 N882 N 0.33259 0.53585 0.47348
 N883 N 0.31640 0.54877 0.47551
 C884 C 0.31914 0.56756 0.48670
 N885 N 0.33856 0.57302 0.49581
 N886 N 0.35475 0.56010 0.49378
 C887 C 0.36970 0.52785 0.47958
 C888 C 0.38460 0.51668 0.47675
 C889 C 0.30205 0.58204 0.48778
 C890 C 0.28786 0.59442 0.48801
 C891 C 0.85271 0.04210 -0.01759
 N892 N 0.83254 0.03509 -0.02324
 N893 N 0.81631 0.04797 -0.02119
 C894 C 0.81976 0.06823 -0.01338
 N895 N 0.83992 0.07521 -0.00769
 N896 N 0.85614 0.06234 -0.00974
 C897 C 0.87031 0.02854 -0.02066
 C898 C 0.88515 0.01731 -0.02357
 C899 C 0.80248 0.08249 -0.01234
 C900 C 0.78814 0.09470 -0.01212
 C901 C 0.65475 0.04261 0.02650
 N902 N 0.65321 0.06401 0.02865
 N903 N 0.66925 0.07698 0.02341
 C904 C 0.68734 0.06895 0.01586
 N905 N 0.68890 0.04755 0.01375
 N906 N 0.67285 0.03458 0.01900
 C907 C 0.63707 0.02867 0.03117
 C908 C 0.62209 0.01696 0.03465
 C909 C 0.70411 0.08296 0.00914
 C910 C 0.71781 0.09490 0.00302
 C911 C 0.15456 0.54247 0.52598
 N912 N 0.15655 0.56267 0.53427
 N913 N 0.17267 0.57557 0.52905
 C914 C 0.18729 0.56865 0.51540
 N915 N 0.18533 0.54844 0.50716
 N916 N 0.16922 0.53554 0.51238
 C917 C 0.13668 0.52885 0.53077
 C918 C 0.12155 0.51732 0.53426
 C919 C 0.20399 0.58287 0.50886
 C920 C 0.21766 0.59492 0.50287
 C921 C 0.15454 0.46043 -0.02126
 N922 N 0.15276 0.44076 -0.03084
 N923 N 0.16776 0.42671 -0.02756
 C924 C 0.18502 0.43192 -0.01465
 N925 N 0.18683 0.45160 -0.00508
 N926 N 0.17183 0.46566 -0.00836
 C927 C 0.13800 0.47525 -0.02435
 C928 C 0.12373 0.48724 -0.02713
 C929 C 0.20056 0.41639 -0.01022
 C930 C 0.21325 0.40317 -0.00595
 C931 C 0.65436 0.96121 0.47825
 N932 N 0.65255 0.94153 0.46869
 N933 N 0.66751 0.92745 0.47201
 C934 C 0.68476 0.93265 0.48495
 N935 N 0.68660 0.95234 0.49448
 N936 N 0.67164 0.96643 0.49116
 C937 C 0.63783 0.97603 0.47517
 C938 C 0.62357 0.98802 0.47242
 C939 C 0.70024 0.91710 0.48945
 C940 C 0.71287 0.90385 0.49379
 C941 C 0.85001 0.95827 0.51515
 N942 N 0.83290 0.96069 0.52733
 N943 N 0.81603 0.94724 0.52490
 C944 C 0.81574 0.93098 0.51018
 N945 N 0.83283 0.92857 0.49795
 N946 N 0.84972 0.94203 0.50039
 C947 C 0.86845 0.97231 0.51843
 C948 C 0.88386 0.98411 0.52171
 C949 C 0.79799 0.91594 0.50840
 C950 C 0.78317 0.90320 0.50762
 C951 C 0.35089 0.45745 0.01380
 N952 N 0.33118 0.46394 0.01836
 N953 N 0.31433 0.45044 0.01604
 C954 C 0.31667 0.43005 0.00908
 N955 N 0.33637 0.42357 0.00447
 N956 N 0.35323 0.43707 0.00679
 C957 C 0.36915 0.47169 0.01736
 C958 C 0.38443 0.48363 0.02085
 C959 C 0.29874 0.41521 0.00779
 C960 C 0.28379 0.40260 0.00733
 C961 C 0.54275 0.48173 0.35242
 N962 N 0.53837 0.47069 0.33383
 N963 N 0.55120 0.47274 0.31767
 C964 C 0.56880 0.48593 0.31958
 N965 N 0.57317 0.49702 0.33816
 N966 N 0.56033 0.49496 0.35433
 C967 C 0.52935 0.47883 0.37007
 C968 C 0.51818 0.47604 0.38489
 C969 C 0.58324 0.48716 0.30255
 C970 C 0.59553 0.48745 0.28836
 C971 C 0.04263 -0.01919 0.85131
 N972 N 0.05585 -0.00173 0.85028
 N973 N 0.06876 0.00024 0.83415
 C974 C 0.06882 -0.01518 0.81856
 N975 N 0.05558 -0.03260 0.81959
 N976 N 0.04268 -0.03457 0.83571
 C977 C 0.02924 -0.02174 0.86903
 C978 C 0.01812 -0.02426 0.88395
 C979 C 0.08337 -0.01365 0.80167
 C980 C 0.09576 -0.01308 0.78757
 C981 C 0.04321 0.02577 0.65515
 N982 N 0.06219 0.03639 0.65919
 N983 N 0.07499 0.03108 0.67528
 C984 C 0.06917 0.01501 0.68781
 N985 N 0.05017 0.00442 0.68378
 N986 N 0.03738 0.00973 0.66771
 C987 C 0.02974 0.03081 0.63733
 C988 C 0.01828 0.03446 0.62229
 C989 C 0.08341 0.00847 0.70439
 C990 C 0.09553 0.00246 0.71793
 C991 C 0.54317 0.52554 0.15548
 N992 N 0.56320 0.53433 0.15794
 N993 N 0.57600 0.52909 0.17405
 C994 C 0.56916 0.51493 0.18819
 N995 N 0.54912 0.50617 0.18575
 N996 N 0.53632 0.51141 0.16965
 C997 C 0.52967 0.53036 0.13761
 C998 C 0.51824 0.53386 0.12250
 C999 C 0.58331 0.50836 0.20485
 C1000 C 0.59533 0.50230 0.21846
 C1001 C 0.46080 -0.02113 0.15570
 N1002 N 0.44810 -0.03732 0.16220
 N1003 N 0.43408 -0.03383 0.17713
 C1004 C 0.43237 -0.01404 0.18600
 N1005 N 0.44511 0.00213 0.17952
 N1006 N 0.45912 -0.00136 0.16460
 C1007 C 0.47523 -0.02470 0.13899
 C1008 C 0.48703 -0.02769 0.12468
 C1009 C 0.41653 -0.00993 0.20123
 C1010 C 0.40302 -0.00586 0.21363
 C1011 C 0.95989 0.47745 0.65493
 N1012 N 0.96435 0.49232 0.67072
 N1013 N 0.95040 0.49579 0.68571
 C1014 C 0.93158 0.48447 0.68539
 N1015 N 0.92714 0.46957 0.66963
 N1016 N 0.94109 0.46609 0.65465
 C1017 C 0.97448 0.47426 0.63829
 C1018 C 0.98637 0.47155 0.62400
 C1019 C 0.91601 0.48913 0.70076
 C1020 C 0.90273 0.49365 0.71326
 C1021 C 0.95638 0.51539 0.85015
 N1022 N 0.96065 0.52557 0.83219
 N1023 N 0.94735 0.52325 0.81528
 C1024 C 0.92941 0.51066 0.81581
 N1025 N 0.92516 0.50043 0.83376
 N1026 N 0.93846 0.50274 0.85068
 C1027 C 0.97033 0.51856 0.86856
 C1028 C 0.98210 0.52166 0.88395
 C1029 C 0.91459 0.50910 0.79796
 C1030 C 0.90203 0.50842 0.78307
 C1031 C 0.45534 0.01501 0.35082
 N1032 N 0.46226 0.01866 0.33118
 N1033 N 0.44892 0.01614 0.31430
 C1034 C 0.42829 0.00985 0.31656
 N1035 N 0.42138 0.00615 0.33620
 N1036 N 0.43471 0.00867 0.35307
 C1037 C 0.46949 0.01858 0.36903
 C1038 C 0.48142 0.02194 0.38424
 C1039 C 0.41367 0.00830 0.29856
 C1040 C 0.40125 0.00763 0.28356
   
