data_POSCAR
  _audit_creation_date              2014-09-24
  _audit_creation_method            'ToBaCCo'
  _symmetry_space_group_name_H-M    'P1'
  _symmetry_Int_Tables_number       1
  _symmetry_cell_setting            triclinic
  loop_
  _symmetry_equiv_pos_as_xyz
 x,y,z
_cell_length_a 53.8414
_cell_length_b 54.1853
_cell_length_c 51.7831
_cell_angle_alpha 89.905000
_cell_angle_beta 90.370000
_cell_angle_gamma 90.532800
loop_
  _atom_site_label
  _atom_site_type_symbol
  _atom_site_fract_x
  _atom_site_fract_y
  _atom_site_fract_z
N1 N 0.16412 0.19595 0.22841
 N2 N 0.18276 0.18070 0.23105
 C3 C 0.17767 0.16452 0.25005
 C4 C 0.15442 0.16985 0.26007
 C5 C 0.14649 0.19007 0.24573
 H6 H 0.18996 0.14980 0.25568
 H7 H 0.12905 0.19964 0.24730
 Cu8 Cu 0.21164 0.18277 0.20895
 Cu9 Cu 0.16381 0.22157 0.20193
 Cu10 Cu 0.21136 0.22027 0.15714
 N11 N 0.23533 0.17902 0.18124
 N12 N 0.23549 0.19391 0.16122
 C13 C 0.25358 0.18701 0.14500
 C14 C 0.26539 0.16646 0.15530
 C15 C 0.25314 0.16202 0.17842
 H16 H 0.25733 0.19607 0.12682
 H17 H 0.25662 0.14748 0.19224
 N18 N 0.18500 0.24532 0.15657
 N19 N 0.16694 0.24578 0.17366
 C20 C 0.15145 0.26431 0.16770
 C21 C 0.16007 0.27613 0.14572
 C22 C 0.18143 0.26355 0.13925
 H23 H 0.13470 0.26839 0.17817
 H24 H 0.19334 0.26716 0.12293
 H25 H 0.18430 0.20050 0.17658
 H26 H 0.20162 0.22464 0.19538
 N27 N -0.18674 0.79076 0.26738
 N28 N -0.19737 0.81180 0.26163
 C29 C -0.19463 0.82746 0.28157
 C30 C -0.18132 0.81571 0.30087
 C31 C -0.17659 0.79241 0.29116
 H32 H -0.20080 0.84638 0.28152
 H33 H -0.16613 0.77792 0.30047
 Cu34 Cu -0.21171 0.81777 0.22786
 Cu35 Cu -0.18592 0.76348 0.24290
 Cu36 Cu -0.21918 0.77107 0.18579
 N37 N -0.23375 0.82038 0.19835
 N38 N -0.23669 0.80228 0.18176
 C39 C -0.25297 0.80929 0.16334
 C40 C -0.26077 0.83317 0.16876
 C41 C -0.24803 0.83943 0.19125
 H42 H -0.25877 0.79769 0.14742
 H43 H -0.24901 0.85646 0.20197
 N44 N -0.20005 0.74103 0.19387
 N45 N -0.18748 0.73818 0.21562
 C46 C -0.17549 0.71652 0.21490
 C47 C -0.18063 0.70508 0.19153
 C48 C -0.19636 0.72122 0.17875
 H49 H -0.16337 0.70992 0.23005
 H50 H -0.20386 0.71917 0.15947
 H51 H -0.18998 0.78309 0.20872
 H52 H -0.21915 0.77359 0.22558
 N53 N -0.15595 0.19432 -0.23230
 N54 N -0.16803 0.17419 -0.22552
 C55 C -0.15883 0.15485 -0.23847
 C56 C -0.13982 0.16329 -0.25418
 C57 C -0.13849 0.18847 -0.24967
 H58 H -0.16566 0.13611 -0.23669
 H59 H -0.12625 0.20168 -0.25889
 Cu60 Cu -0.19515 0.17500 -0.20109
 Cu61 Cu -0.16432 0.22657 -0.21857
 Cu62 Cu -0.21835 0.22974 -0.18296
 N63 N -0.22775 0.17759 -0.18575
 N64 N -0.23716 0.19898 -0.17933
 C65 C -0.26004 0.19528 -0.16964
 C66 C -0.26527 0.17007 -0.16979
 C67 C -0.24416 0.15953 -0.18023
 H68 H -0.27165 0.20989 -0.16250
 H69 H -0.24089 0.14022 -0.18394
 N70 N -0.19642 0.25857 -0.18890
 N71 N -0.17603 0.25734 -0.20283
 C72 C -0.16431 0.27935 -0.20218
 C73 C -0.17779 0.29524 -0.18693
 C74 C -0.19807 0.28141 -0.17883
 H75 H -0.14646 0.28310 -0.21085
 H76 H -0.21251 0.28727 -0.16586
 H77 H -0.18284 0.21564 -0.18531
 H78 H -0.20154 0.21689 -0.21593
 N79 N 0.19196 0.80046 -0.25770
 N80 N 0.20915 0.81780 -0.25793
 C81 C 0.20893 0.82917 -0.28102
 C82 C 0.19045 0.81853 -0.29616
 C83 C 0.18008 0.80029 -0.28066
 H84 H 0.22056 0.84482 -0.28594
 H85 H 0.16462 0.78824 -0.28542
 Cu86 Cu 0.22873 0.82565 -0.22746
 Cu87 Cu 0.18532 0.78068 -0.22698
 Cu88 Cu 0.22571 0.78878 -0.17521
 N89 N 0.25357 0.82722 -0.20028
 N90 N 0.25247 0.81285 -0.17989
 C91 C 0.27157 0.81842 -0.16397
 C92 C 0.28547 0.83748 -0.17495
 C93 C 0.27335 0.84241 -0.19813
 H94 H 0.27470 0.80947 -0.14559
 H95 H 0.27822 0.85614 -0.21240
 N96 N 0.19733 0.76549 -0.17448
 N97 N 0.18189 0.76254 -0.19415
 C98 C 0.16411 0.74614 -0.18752
 C99 C 0.16851 0.73831 -0.16244
 C100 C 0.18979 0.75097 -0.15483
 H101 H 0.14904 0.74034 -0.20005
 H102 H 0.19881 0.75011 -0.13616
 H103 H 0.19938 0.80452 -0.19915
 H104 H 0.22190 0.78305 -0.21451
 N105 N 0.19163 1.17615 0.77434
 N106 N 0.17523 1.19392 0.77346
 C107 C 0.15843 1.18892 0.75476
 C108 C 0.16464 1.16677 0.74316
 C109 C 0.18589 1.15927 0.75618
 H110 H 0.14280 1.20053 0.75013
 H111 H 0.19619 1.14252 0.75311
 Cu112 Cu 0.17706 1.22167 0.79714
 Cu113 Cu 0.21874 1.17582 0.79950
 Cu114 Cu 0.21763 1.22073 0.84692
 N115 N 0.17409 1.24402 0.82624
 N116 N 0.18991 1.24358 0.84565
 C117 C 0.18337 1.26067 0.86311
 C118 C 0.16228 1.27253 0.85418
 C119 C 0.15696 1.26142 0.83066
 H120 H 0.19334 1.26424 0.88092
 H121 H 0.14156 1.26536 0.81786
 N122 N 0.24407 1.19590 0.84472
 N123 N 0.24444 1.17873 0.82669
 C124 C 0.26415 1.16409 0.83083
 C125 C 0.27688 1.17241 0.85253
 C126 C 0.26358 1.19268 0.86075
 H127 H 0.26876 1.14839 0.81903
 H128 H 0.26740 1.20382 0.87763
 H129 H 0.19791 1.19392 0.82691
 H130 H 0.22035 1.21314 0.80791
 N131 N 0.77832 0.81272 0.73141
 N132 N 0.79230 0.79324 0.72810
 C133 C 0.80793 0.79749 0.70837
 C134 C 0.80345 0.82090 0.69866
 C135 C 0.78447 0.82997 0.71378
 H136 H 0.82166 0.78455 0.70175
 H137 H 0.77629 0.84809 0.71265
 Cu138 Cu 0.78920 0.76445 0.75029
 Cu139 Cu 0.75430 0.81485 0.75932
 Cu140 Cu 0.75347 0.76657 0.80323
 N141 N 0.79154 0.73951 0.77716
 N142 N 0.77723 0.74025 0.79759
 C143 C 0.78307 0.72148 0.81344
 C144 C 0.80218 0.70818 0.80248
 C145 C 0.80707 0.72025 0.77938
 H146 H 0.77467 0.71841 0.83209
 H147 H 0.82116 0.71572 0.76544
 N148 N 0.73098 0.79497 0.80553
 N149 N 0.73142 0.81345 0.78891
 C150 C 0.71508 0.83061 0.79648
 C151 C 0.70379 0.82261 0.81900
 C152 C 0.71430 0.79987 0.82407
 H153 H 0.71197 0.84787 0.78655
 H154 H 0.71079 0.78819 0.84060
 H155 H 0.77470 0.79235 0.78356
 H156 H 0.74849 0.77757 0.76532
 N157 N 0.20853 0.81504 1.25107
 N158 N 0.19150 0.79753 1.25139
 C159 C 0.17796 0.79965 1.27304
 C160 C 0.18696 0.81968 1.28705
 C161 C 0.20640 0.82897 1.27240
 H162 H 0.16239 0.78784 1.27788
 H163 H 0.21763 0.84518 1.27636
 Cu164 Cu 0.18753 0.77534 1.22208
 Cu165 Cu 0.23083 0.81966 1.22193
 Cu166 Cu 0.23658 0.76744 1.18368
 N167 N 0.18633 0.75206 1.19355
 N168 N 0.20560 0.74910 1.17845
 C169 C 0.19985 0.73236 1.16013
 C170 C 0.17554 0.72448 1.16380
 C171 C 0.16761 0.73742 1.18528
 H172 H 0.21246 0.72655 1.14520
 H173 H 0.14939 0.73668 1.19391
 N174 N 0.26136 0.79447 1.18423
 N175 N 0.25856 0.81473 1.19798
 C176 C 0.27748 0.83035 1.19304
 C177 C 0.29300 0.81948 1.17524
 C178 C 0.28222 0.79667 1.17015
 H179 H 0.27981 0.84829 1.20189
 H180 H 0.28856 0.78305 1.15651
 H181 H 0.21566 0.79700 1.19281
 H182 H 0.23226 0.78257 1.22065
 N183 N 0.82359 1.18292 1.23995
 N184 N 0.83804 1.20234 1.24322
 C185 C 0.85592 1.19685 1.26057
 C186 C 0.85250 1.17263 1.26862
 C187 C 0.83174 1.16443 1.25505
 H188 H 0.87033 1.20952 1.26687
 H189 H 0.82339 1.14622 1.25567
 Cu190 Cu 0.83247 1.23265 1.22388
 Cu191 Cu 0.79601 1.18266 1.21548
 Cu192 Cu 0.78032 1.23891 1.18819
 N193 N 0.82504 1.26316 1.20566
 N194 N 0.80456 1.26558 1.19200
 C195 C 0.80470 1.28784 1.18043
 C196 C 0.82643 1.30014 1.18724
 C197 C 0.83884 1.28390 1.20337
 H198 H 0.79034 1.29427 1.16745
 H199 H 0.85706 1.28654 1.21184
 N200 N 0.75863 1.20947 1.18620
 N201 N 0.76496 1.18792 1.19600
 C202 C 0.74707 1.17123 1.19038
 C203 C 0.72857 1.18274 1.17623
 C204 C 0.73655 1.20703 1.17404
 H205 H 0.74752 1.15207 1.19619
 H206 H 0.72732 1.22167 1.16365
 H207 H 0.80636 1.21200 1.19144
 H208 H 0.78926 1.21948 1.22168
 O209 O 0.52289 0.97749 0.96599
 O210 O 0.48507 0.97799 1.05844
 O211 O 0.55898 0.99916 1.03159
 O212 O 0.47927 0.96916 0.97886
 O213 O 0.53149 0.97942 1.05511
 O214 O 0.48246 0.99577 0.95034
 O215 O 0.47729 0.96078 1.02231
 O216 O 0.55568 0.99049 0.98526
 C217 C 0.54524 0.97480 0.97112
 C218 C 0.47758 0.95966 1.04610
 C219 C 0.55344 0.98240 1.04773
 C220 C 0.47377 0.97547 0.95661
 O221 O 0.49193 1.03647 0.97231
 O222 O 0.53041 1.02727 1.05827
 O223 O 0.53764 1.03697 0.97728
 O224 O 0.45649 1.00555 1.03230
 O225 O 0.48349 1.02578 1.05608
 O226 O 0.52459 1.01866 0.94272
 O227 O 0.45975 1.01606 0.98672
 O228 O 0.53988 1.04460 1.02234
 Co229 Co 0.50821 1.00713 0.97072
 Co230 Co 0.50759 1.00263 1.05245
 Co231 Co 0.54460 1.01642 1.00448
 Co232 Co 0.47112 0.98910 1.00521
 O233 O 0.50707 1.00293 1.00990
 C234 C 0.46908 1.03559 0.97710
 C235 C 0.53947 1.04519 1.04623
 C236 C 0.54050 1.03368 0.95327
 C237 C 0.46162 1.02248 1.04835
 O238 O 0.02158 0.48593 0.02458
 O239 O 0.01847 0.53416 -0.04519
 O240 O -0.00713 0.45861 -0.02797
 O241 O -0.00336 0.55869 0.02405
 O242 O 0.01911 0.48675 -0.04039
 O243 O 0.02299 0.53010 0.02872
 O244 O -0.00229 0.56177 -0.02332
 O245 O -0.00619 0.45831 0.01855
 C246 C 0.01601 0.46376 0.02308
 C247 C 0.01554 0.55597 -0.03782
 C248 C 0.01408 0.46455 -0.03631
 C249 C 0.01849 0.55243 0.02848
 O250 O -0.02310 0.52928 0.05084
 O251 O -0.02765 0.48582 -0.05738
 O252 O -0.05123 0.48065 0.01953
 O253 O -0.04952 0.54957 -0.02647
 O254 O -0.02884 0.53157 -0.05749
 O255 O -0.02338 0.48492 0.04862
 O256 O -0.04972 0.54104 0.02200
 O257 O -0.05326 0.47839 -0.02699
 Co258 Co -0.00172 0.50769 0.03472
 Co259 Co -0.00558 0.50935 -0.04560
 Co260 Co -0.02824 0.47234 -0.00411
 Co261 Co -0.02530 0.54858 -0.00098
 O262 O -0.01516 0.50964 -0.00422
 C263 C -0.04447 0.53704 0.04507
 C264 C -0.04896 0.47935 -0.05041
 C265 C -0.04546 0.48002 0.04270
 C266 C -0.04672 0.54461 -0.04986
 O267 O 1.04053 0.02628 0.47687
 O268 O 0.97309 0.02618 0.52620
 O269 O 0.98802 0.00140 0.44713
 O270 O 1.03810 -0.00062 0.55246
 O271 O 0.97836 0.02763 0.47683
 O272 O 1.04473 0.02615 0.52327
 O273 O 0.99260 0.00375 0.55518
 O274 O 1.03265 -0.00012 0.44740
 C275 C 1.03839 0.02151 0.45356
 C276 C 0.97965 0.02227 0.54912
 C277 C 0.98121 0.02275 0.45352
 C278 C 1.04376 0.02101 0.54654
 O279 O 1.06241 -0.02111 0.52142
 O280 O 0.95873 -0.01773 0.47499
 O281 O 1.03078 -0.04547 0.47021
 O282 O 0.98615 -0.04266 0.54196
 O283 O 0.95820 -0.01981 0.52265
 O284 O 1.06051 -0.01973 0.47496
 O285 O 1.03292 -0.04591 0.53365
 O286 O 0.98619 -0.04486 0.46769
 Co287 Co 1.04861 0.00188 0.49922
 Co288 Co 0.97133 0.00299 0.49994
 Co289 Co 1.00958 -0.02115 0.46157
 Co290 Co 1.01246 -0.02031 0.54141
 O291 O 1.01028 -0.00902 0.50070
 C292 C 1.05536 -0.04216 0.52915
 C293 C 0.96398 -0.03945 0.46920
 C294 C 1.05336 -0.04116 0.46955
 C295 C 0.96397 -0.03820 0.53641
 C296 C 1.11512 0.13032 0.31806
 C297 C 1.10468 0.15128 0.30651
 C298 C 1.11766 0.16447 0.28758
 C299 C 1.14152 0.15707 0.27973
 C300 C 1.15205 0.13630 0.29188
 C301 C 1.13902 0.12314 0.31070
 C302 C 1.10108 0.11560 0.33738
 C303 C 1.10164 0.08970 0.33659
 C304 C 1.08907 0.07566 0.35503
 C305 C 1.07559 0.08715 0.37473
 C306 C 1.07478 0.11306 0.37541
 C307 C 1.08732 0.12716 0.35684
 C308 C 1.06331 0.07192 0.39490
 C309 C 1.06503 0.07852 0.42111
 C310 C 1.05601 0.06261 0.44027
 C311 C 1.04518 0.03980 0.43355
 C312 C 1.04234 0.03382 0.40731
 C313 C 1.05125 0.04971 0.38821
 H314 H 1.08621 0.15716 0.31170
 H315 H 1.10869 0.18031 0.27907
 H316 H 1.17033 0.12985 0.28693
 H317 H 1.14776 0.10732 0.31962
 H318 H 1.11180 0.08026 0.32164
 H319 H 1.09037 0.05575 0.35418
 H320 H 1.06442 0.12241 0.39028
 H321 H 1.08668 0.14709 0.35802
 H322 H 1.07434 0.09545 0.42687
 H323 H 1.05838 0.06774 0.46035
 H324 H 1.03380 0.01650 0.40152
 H325 H 1.04917 0.04437 0.36816
 C326 C 0.84957 -0.14786 0.36754
 C327 C 0.86050 -0.16942 0.35791
 C328 C 0.84988 -0.18193 0.33693
 C329 C 0.82824 -0.17302 0.32501
 C330 C 0.81670 -0.15214 0.33536
 C331 C 0.82718 -0.13977 0.35646
 C332 C 0.86253 -0.13279 0.38755
 C333 C 0.86293 -0.10691 0.38553
 C334 C 0.87712 -0.09265 0.40262
 C335 C 0.89136 -0.10391 0.42208
 C336 C 0.89031 -0.12971 0.42474
 C337 C 0.87598 -0.14401 0.40769
 C338 C 0.90889 -0.08883 0.43780
 C339 C 0.93341 -0.09676 0.44165
 C340 C 0.95108 -0.08108 0.45296
 C341 C 0.94459 -0.05716 0.46068
 C342 C 0.91974 -0.04976 0.45827
 C343 C 0.90208 -0.06543 0.44685
 H344 H 0.87791 -0.17599 0.36576
 H345 H 0.85930 -0.19788 0.32931
 H346 H 0.79974 -0.14510 0.32690
 H347 H 0.81799 -0.12355 0.36377
 H348 H 0.85320 -0.09766 0.36998
 H349 H 0.87790 -0.07285 0.39978
 H350 H 0.90090 -0.13885 0.43975
 H351 H 0.87575 -0.16387 0.41001
 H352 H 0.93927 -0.11460 0.43468
 H353 H 0.97006 -0.08735 0.45471
 H354 H 0.91414 -0.03151 0.46427
 H355 H 0.88322 -0.05898 0.44444
 C356 C 0.90153 0.12216 0.68986
 C357 C 0.91066 0.14488 0.69906
 C358 C 0.89739 0.15815 0.71745
 C359 C 0.87483 0.14884 0.72716
 C360 C 0.86607 0.12581 0.71840
 C361 C 0.87923 0.11267 0.69989
 C362 C 0.91465 0.10876 0.66919
 C363 C 0.90115 0.09874 0.64836
 C364 C 0.91325 0.08611 0.62875
 C365 C 0.93913 0.08310 0.62957
 C366 C 0.95270 0.09307 0.65041
 C367 C 0.94057 0.10594 0.66998
 C368 C 0.95160 0.06919 0.60884
 C369 C 0.96923 0.05107 0.61481
 C370 C 0.97898 0.03623 0.59532
 C371 C 0.97139 0.03939 0.56950
 C372 C 0.95462 0.05830 0.56347
 C373 C 0.94479 0.07298 0.58293
 H374 H 0.92774 0.15267 0.69153
 H375 H 0.90478 0.17571 0.72398
 H376 H 0.84874 0.11811 0.72535
 H377 H 0.87191 0.09506 0.69333
 H378 H 0.88119 0.10087 0.64712
 H379 H 0.90230 0.07836 0.61308
 H380 H 0.97268 0.09108 0.65143
 H381 H 0.95138 0.11340 0.68591
 H382 H 0.97472 0.04771 0.63465
 H383 H 0.99194 0.02188 0.60057
 H384 H 0.94850 0.06135 0.54377
 H385 H 0.93154 0.08709 0.57776
 C386 C 1.16303 -0.15170 0.63215
 C387 C 1.14870 -0.16882 0.64620
 C388 C 1.15798 -0.17931 0.66893
 C389 C 1.18176 -0.17285 0.67816
 C390 C 1.19656 -0.15672 0.66338
 C391 C 1.18730 -0.14626 0.64065
 C392 C 1.15182 -0.13789 0.61028
 C393 C 1.15570 -0.11229 0.60816
 C394 C 1.14248 -0.09849 0.59001
 C395 C 1.12507 -0.10997 0.57353
 C396 C 1.12225 -0.13578 0.57461
 C397 C 1.13546 -0.14960 0.59283
 C398 C 1.10794 -0.09469 0.55775
 C399 C 1.08245 -0.10046 0.55711
 C400 C 1.06550 -0.08395 0.54643
 C401 C 1.07364 -0.06125 0.53623
 C402 C 1.09926 -0.05624 0.53514
 C403 C 1.11626 -0.07280 0.54585
 H404 H 1.12983 -0.17318 0.64035
 H405 H 1.14601 -0.19159 0.67979
 H406 H 1.21515 -0.15172 0.66960
 H407 H 1.19894 -0.13347 0.62999
 H408 H 1.16788 -0.10265 0.62155
 H409 H 1.14481 -0.07862 0.58999
 H410 H 1.10925 -0.14520 0.56190
 H411 H 1.13240 -0.16936 0.59373
 H412 H 1.07537 -0.11703 0.56629
 H413 H 1.04589 -0.08846 0.54736
 H414 H 1.10611 -0.03904 0.52708
 H415 H 1.13584 -0.06807 0.54566
 C416 C 0.32389 1.12501 1.12257
 C417 C 0.31296 1.11761 1.14588
 C418 C 0.29388 1.13134 1.15677
 C419 C 0.28499 1.15282 1.14450
 C420 C 0.29615 1.16018 1.12111
 C421 C 0.31539 1.14649 1.11037
 C422 C 0.34402 1.11024 1.11102
 C423 C 0.36521 1.12185 1.10074
 C424 C 0.38433 1.10784 1.09023
 C425 C 0.38253 1.08195 1.08960
 C426 C 0.36124 1.07037 1.09968
 C427 C 0.34222 1.08436 1.11035
 C428 C 0.40285 1.06702 1.07866
 C429 C 0.39743 1.04685 1.06250
 C430 C 0.41652 1.03247 1.05257
 C431 C 0.44145 1.03786 1.05872
 C432 C 0.44688 1.05813 1.07477
 C433 C 0.42777 1.07260 1.08457
 H434 H 0.31937 1.10127 1.15589
 H435 H 0.28613 1.12477 1.17473
 H436 H 0.29022 1.17652 1.11088
 H437 H 0.32337 1.15252 1.09225
 H438 H 0.36716 1.14175 1.10118
 H439 H 0.40044 1.11725 1.08240
 H440 H 0.35945 1.05045 1.09965
 H441 H 0.32600 1.07494 1.11791
 H442 H 0.37840 1.04231 1.05738
 H443 H 0.41172 1.01706 1.04016
 H444 H 0.46591 1.06281 1.07978
 H445 H 0.43247 1.08791 1.09715
 C446 C 0.34780 0.87547 0.85695
 C447 C 0.33708 0.85536 0.87003
 C448 C 0.31672 0.84266 0.85945
 C449 C 0.30656 0.84970 0.83540
 C450 C 0.31780 0.86962 0.82216
 C451 C 0.33806 0.88234 0.83285
 C452 C 0.36859 0.88968 0.86880
 C453 C 0.36872 0.91561 0.86809
 C454 C 0.38753 0.92909 0.88050
 C455 C 0.40667 0.91693 0.89384
 C456 C 0.40690 0.89098 0.89391
 C457 C 0.38803 0.87751 0.88160
 C458 C 0.42543 0.93125 0.90890
 C459 C 0.43290 0.92299 0.93346
 C460 C 0.44915 0.93712 0.94856
 C461 C 0.45828 0.95987 0.93950
 C462 C 0.45138 0.96795 0.91473
 C463 C 0.43509 0.95375 0.89955
 H464 H 0.34406 0.84979 0.88879
 H465 H 0.30898 0.82749 0.87044
 H466 H 0.31100 0.87581 0.80360
 H467 H 0.34617 0.89759 0.82218
 H468 H 0.35380 0.92549 0.85865
 H469 H 0.38658 0.94904 0.88043
 H470 H 0.42162 0.88107 0.90365
 H471 H 0.38861 0.85754 0.88210
 H472 H 0.42552 0.90598 0.94143
 H473 H 0.45409 0.93049 0.96764
 H474 H 0.45820 0.98542 0.90731
 H475 H 0.42991 0.96046 0.88058
 C476 C 0.68628 0.87671 1.12862
 C477 C 0.69817 0.88568 1.15091
 C478 C 0.71576 0.87149 1.16388
 C479 C 0.72198 0.84774 1.15501
 C480 C 0.71031 0.83900 1.13228
 C481 C 0.69273 0.85336 1.11922
 C482 C 0.66674 0.89155 1.11580
 C483 C 0.66582 0.89400 1.08879
 C484 C 0.64756 0.90849 1.07701
 C485 C 0.62975 0.92057 1.09204
 C486 C 0.63064 0.91796 1.11901
 C487 C 0.64891 0.90365 1.13075
 C488 C 0.61018 0.93585 1.07985
 C489 C 0.58565 0.93440 1.08880
 C490 C 0.56729 0.94942 1.07824
 C491 C 0.57303 0.96633 1.05851
 C492 C 0.59750 0.96757 1.04924
 C493 C 0.61590 0.95240 1.05977
 H494 H 0.69387 0.90380 1.15835
 H495 H 0.72417 0.87936 1.18101
 H496 H 0.71444 0.82101 1.12450
 H497 H 0.68374 0.84595 1.10211
 H498 H 0.67944 0.88499 1.07682
 H499 H 0.64719 0.91005 1.05616
 H500 H 0.61732 0.92725 1.13111
 H501 H 0.64899 0.90188 1.15159
 H502 H 0.58062 0.92155 1.10397
 H503 H 0.54859 0.94786 1.08570
 H504 H 0.60246 0.98030 1.03394
 H505 H 0.63470 0.95401 1.05262
 C506 C 0.67045 1.13305 0.85855
 C507 C 0.67112 1.15892 0.85650
 C508 C 0.69221 1.17115 0.84711
 C509 C 0.71317 1.15782 0.83914
 C510 C 0.71214 1.13185 0.84066
 C511 C 0.69122 1.11971 0.85040
 C512 C 0.64870 1.12002 0.87010
 C513 C 0.64141 1.09642 0.86142
 C514 C 0.62240 1.08331 0.87376
 C515 C 0.60994 1.09359 0.89491
 C516 C 0.61648 1.11762 0.90283
 C517 C 0.63571 1.13058 0.89073
 C518 C 0.59120 1.07888 0.90950
 C519 C 0.58975 1.08104 0.93651
 C520 C 0.57295 1.06668 0.95052
 C521 C 0.55739 1.04950 0.93798
 C522 C 0.55856 1.04737 0.91100
 C523 C 0.57522 1.06200 0.89688
 H524 H 0.65530 1.16982 0.86209
 H525 H 0.69180 1.19106 0.84600
 H526 H 0.72769 1.12063 0.83506
 H527 H 0.69166 1.09981 0.85218
 H528 H 0.65062 1.08788 0.84525
 H529 H 0.61804 1.06481 0.86722
 H530 H 0.60696 1.12636 0.91867
 H531 H 0.64087 1.14858 0.89815
 H532 H 0.60203 1.09343 0.94700
 H533 H 0.57240 1.06884 0.97129
 H534 H 0.54669 1.03435 0.90082
 H535 H 0.57556 1.06009 0.87608
 C536 C 0.12289 0.33374 0.10344
 C537 C 0.14293 0.32127 0.09238
 C538 C 0.15535 0.30288 0.10623
 C539 C 0.14801 0.29662 0.13146
 C540 C 0.12844 0.30970 0.14273
 C541 C 0.11604 0.32800 0.12889
 C542 C 0.10854 0.35212 0.08837
 C543 C 0.08251 0.35218 0.08975
 C544 C 0.06878 0.36971 0.07623
 C545 C 0.08072 0.38763 0.06096
 C546 C 0.10677 0.38743 0.05928
 C547 C 0.12056 0.36975 0.07277
 C548 C 0.06584 0.40696 0.04790
 C549 C 0.07345 0.43185 0.04863
 C550 C 0.05773 0.45038 0.03946
 C551 C 0.03412 0.44433 0.02948
 C552 C 0.02715 0.41937 0.02743
 C553 C 0.04286 0.40089 0.03646
 H554 H 0.14852 0.32522 0.07274
 H555 H 0.17026 0.29320 0.09685
 H556 H 0.12253 0.30581 0.16224
 H557 H 0.10100 0.33767 0.13812
 H558 H 0.07271 0.33861 0.10132
 H559 H 0.04877 0.36957 0.07823
 H560 H 0.11645 0.40095 0.04755
 H561 H 0.14062 0.37019 0.07145
 H562 H 0.09100 0.43710 0.05744
 H563 H 0.06362 0.46947 0.04120
 H564 H 0.00919 0.41411 0.01955
 H565 H 0.03673 0.38184 0.03513
 C566 C -0.15039 0.36514 -0.15902
 C567 C -0.14269 0.35596 -0.18302
 C568 C -0.15233 0.33373 -0.19253
 C569 C -0.16999 0.32022 -0.17835
 C570 C -0.17874 0.33006 -0.15507
 C571 C -0.16899 0.35225 -0.14547
 C572 C -0.13759 0.38677 -0.14715
 C573 C -0.15071 0.40398 -0.13236
 C574 C -0.13806 0.42272 -0.11897
 C575 C -0.11203 0.42465 -0.12015
 C576 C -0.09905 0.40803 -0.13575
 C577 C -0.11166 0.38932 -0.14906
 C578 C -0.09809 0.44229 -0.10344
 C579 C -0.07644 0.45411 -0.11242
 C580 C -0.06113 0.46743 -0.09546
 C581 C -0.06714 0.46916 -0.06917
 C582 C -0.08963 0.45876 -0.06057
 C583 C -0.10492 0.44544 -0.07752
 H584 H -0.12879 0.36572 -0.19420
 H585 H -0.14557 0.32692 -0.21079
 H586 H -0.19225 0.32008 -0.14360
 H587 H -0.17515 0.35865 -0.12680
 H588 H -0.17073 0.40272 -0.13081
 H589 H -0.14859 0.43544 -0.10735
 H590 H -0.07897 0.40868 -0.13668
 H591 H -0.10091 0.37613 -0.15987
 H592 H -0.07092 0.45237 -0.13240
 H593 H -0.04403 0.47545 -0.10271
 H594 H -0.09482 0.45984 -0.04043
 H595 H -0.12135 0.43640 -0.06993
 C596 C 0.12472 0.68672 -0.11797
 C597 C 0.14892 0.69318 -0.11002
 C598 C 0.16309 0.71001 -0.12435
 C599 C 0.15343 0.72065 -0.14703
 C600 C 0.12919 0.71421 -0.15490
 C601 C 0.11501 0.69748 -0.14052
 C602 C 0.10977 0.66846 -0.10317
 C603 C 0.08427 0.67215 -0.09926
 C604 C 0.06989 0.65433 -0.08659
 C605 C 0.08069 0.63239 -0.07761
 C606 C 0.10631 0.62895 -0.08099
 C607 C 0.12071 0.64682 -0.09358
 C608 C 0.06501 0.61269 -0.06594
 C609 C 0.06846 0.58789 -0.07280
 C610 C 0.05270 0.56944 -0.06328
 C611 C 0.03311 0.57537 -0.04665
 C612 C 0.03006 0.60010 -0.03921
 C613 C 0.04582 0.61856 -0.04880
 H614 H 0.15683 0.68534 -0.09260
 H615 H 0.18171 0.71442 -0.11775
 H616 H 0.12101 0.72213 -0.17211
 H617 H 0.09654 0.69264 -0.14732
 H618 H 0.07539 0.68877 -0.10615
 H619 H 0.05017 0.65741 -0.08449
 H620 H 0.11518 0.61234 -0.07404
 H621 H 0.14027 0.64338 -0.09645
 H622 H 0.08290 0.58281 -0.08620
 H623 H 0.05559 0.55058 -0.06937
 H624 H 0.01526 0.60526 -0.02629
 H625 H 0.04292 0.63747 -0.04290
 C626 C -0.14690 0.63961 0.16060
 C627 C -0.13936 0.64899 0.18469
 C628 C -0.15071 0.66982 0.19503
 C629 C -0.16987 0.68184 0.18150
 C630 C -0.17796 0.67190 0.15779
 C631 C -0.16661 0.65106 0.14746
 C632 C -0.13323 0.61907 0.14835
 C633 C -0.14591 0.60083 0.13402
 C634 C -0.13275 0.58321 0.12009
 C635 C -0.10663 0.58347 0.12016
 C636 C -0.09401 0.60097 0.13550
 C637 C -0.10715 0.61856 0.14942
 C638 C -0.09254 0.56755 0.10223
 C639 C -0.06959 0.55741 0.10960
 C640 C -0.05449 0.54603 0.09132
 C641 C -0.06201 0.54474 0.06533
 C642 C -0.08567 0.55333 0.05838
 C643 C -0.10076 0.56461 0.07661
 H644 H -0.12444 0.64038 0.19544
 H645 H -0.14396 0.67672 0.21338
 H646 H -0.19278 0.68039 0.14686
 H647 H -0.17269 0.64445 0.12872
 H648 H -0.16601 0.60049 0.13319
 H649 H -0.14300 0.56973 0.10875
 H650 H -0.07391 0.60196 0.13563
 H651 H -0.09681 0.63254 0.15997
 H652 H -0.06295 0.55906 0.12931
 H653 H -0.03644 0.53935 0.09730
 H654 H -0.09209 0.55242 0.03853
 H655 H -0.11822 0.57236 0.07023
 C656 C 1.12507 0.12726 0.68304
 C657 C 1.14884 0.11984 0.69104
 C658 C 1.16172 0.13279 0.71028
 C659 C 1.15117 0.15353 0.72208
 C660 C 1.12753 0.16121 0.71375
 C661 C 1.11465 0.14824 0.69444
 C662 C 1.11110 0.11279 0.66326
 C663 C 1.09740 0.12460 0.64368
 C664 C 1.08469 0.11077 0.62488
 C665 C 1.08526 0.08483 0.62540
 C666 C 1.09879 0.07308 0.64512
 C667 C 1.11153 0.08687 0.66380
 C668 C 1.07240 0.06987 0.60522
 C669 C 1.06008 0.04782 0.61191
 C670 C 1.05010 0.03241 0.59283
 C671 C 1.05212 0.03871 0.56660
 C672 C 1.06339 0.06131 0.55990
 C673 C 1.07346 0.07674 0.57903
 H674 H 1.15758 0.10402 0.68229
 H675 H 1.17999 0.12646 0.71579
 H676 H 1.11870 0.17700 0.72239
 H677 H 1.09626 0.15429 0.68886
 H678 H 1.09686 0.14455 0.64266
 H679 H 1.07430 0.12035 0.61003
 H680 H 1.09991 0.05315 0.64587
 H681 H 1.12164 0.07720 0.67880
 H682 H 1.05847 0.04228 0.63193
 H683 H 1.04126 0.01527 0.59864
 H684 H 1.06517 0.06667 0.53983
 H685 H 1.08294 0.09355 0.57325
 C686 C 0.84343 -0.14005 0.63909
 C687 C 0.85358 -0.16110 0.65089
 C688 C 0.84045 -0.17398 0.66989
 C689 C 0.81689 -0.16605 0.67769
 C690 C 0.80657 -0.14521 0.66568
 C691 C 0.81966 -0.13239 0.64656
 C692 C 0.85807 -0.12568 0.61988
 C693 C 0.85777 -0.09972 0.61999
 C694 C 0.87315 -0.08617 0.60345
 C695 C 0.88927 -0.09826 0.58652
 C696 C 0.88893 -0.12418 0.58571
 C697 C 0.87345 -0.13773 0.60214
 C698 C 0.90774 -0.08394 0.57134
 C699 C 0.93256 -0.09162 0.57063
 C700 C 0.95064 -0.07708 0.55861
 C701 C 0.94429 -0.05458 0.54686
 C702 C 0.91928 -0.04736 0.54662
 C703 C 0.90119 -0.06183 0.55890
 H704 H 0.87203 -0.16725 0.64598
 H705 H 0.84911 -0.18977 0.67890
 H706 H 0.78833 -0.13879 0.67095
 H707 H 0.81113 -0.11649 0.63759
 H708 H 0.84641 -0.08983 0.63362
 H709 H 0.87325 -0.06622 0.60473
 H710 H 0.90090 -0.13397 0.57257
 H711 H 0.87374 -0.15768 0.60115
 H712 H 0.93822 -0.10842 0.58028
 H713 H 0.96972 -0.08323 0.55903
 H714 H 0.91382 -0.03015 0.53767
 H715 H 0.88214 -0.05560 0.55898
 C716 C 1.15591 -0.14668 0.35487
 C717 C 1.17999 -0.14042 0.34668
 C718 C 1.19028 -0.15177 0.32508
 C719 C 1.17674 -0.16967 0.31111
 C720 C 1.15298 -0.17654 0.31983
 C721 C 1.14268 -0.16515 0.34143
 C722 C 1.14404 -0.13300 0.37630
 C723 C 1.12857 -0.14520 0.39409
 C724 C 1.11579 -0.13186 0.41283
 C725 C 1.11819 -0.10603 0.41418
 C726 C 1.13431 -0.09396 0.39693
 C727 C 1.14707 -0.10727 0.37824
 C728 C 1.10250 -0.09138 0.43192
 C729 C 1.11194 -0.06996 0.44390
 C730 C 1.09619 -0.05423 0.45738
 C731 C 1.07069 -0.05962 0.45915
 C732 C 1.06156 -0.08182 0.44863
 C733 C 1.07728 -0.09751 0.43512
 H734 H 1.19084 -0.12657 0.35689
 H735 H 1.20879 -0.14630 0.31926
 H736 H 1.14193 -0.19013 0.30955
 H737 H 1.12396 -0.17019 0.34702
 H738 H 1.12616 -0.16504 0.39335
 H739 H 1.10377 -0.14172 0.42607
 H740 H 1.13623 -0.07405 0.39710
 H741 H 1.15851 -0.09725 0.36458
 H742 H 1.13139 -0.06498 0.44222
 H743 H 1.10381 -0.03738 0.46557
 H744 H 1.04199 -0.08651 0.44974
 H745 H 1.06935 -0.11374 0.42597
 C746 C 0.89762 0.13071 0.32178
 C747 C 0.87383 0.12228 0.31448
 C748 C 0.85921 0.13591 0.29736
 C749 C 0.86797 0.15838 0.28712
 C750 C 0.89169 0.16693 0.29459
 C751 C 0.90635 0.15325 0.31171
 C752 C 0.91315 0.11599 0.33987
 C753 C 0.92728 0.12758 0.35938
 C754 C 0.94101 0.11355 0.37704
 C755 C 0.94095 0.08765 0.37553
 C756 C 0.92722 0.07613 0.35568
 C757 C 0.91352 0.09013 0.33806
 C758 C 0.95398 0.07250 0.39529
 C759 C 0.96604 0.05062 0.38829
 C760 C 0.97577 0.03493 0.40717
 C761 C 0.97375 0.04080 0.43349
 C762 C 0.96285 0.06327 0.44045
 C763 C 0.95303 0.07893 0.42156
 H764 H 0.86634 0.10523 0.32228
 H765 H 0.84093 0.12888 0.29239
 H766 H 0.89918 0.18402 0.28695
 H767 H 0.92470 0.16012 0.31672
 H768 H 0.92726 0.14746 0.36141
 H769 H 0.95157 0.12299 0.39197
 H770 H 0.92649 0.05621 0.35416
 H771 H 0.90313 0.08065 0.32304
 H772 H 0.96752 0.04539 0.36819
 H773 H 0.98426 0.01785 0.40117
 H774 H 0.96104 0.06835 0.46056
 H775 H 0.94370 0.09554 0.42764
 C776 C 0.12196 0.33089 -0.10870
 C777 C 0.11807 0.32561 -0.13499
 C778 C 0.13110 0.30667 -0.14699
 C779 C 0.14841 0.29260 -0.13301
 C780 C 0.15230 0.29790 -0.10671
 C781 C 0.13917 0.31679 -0.09468
 C782 C 0.10801 0.35100 -0.09604
 C783 C 0.09802 0.34772 -0.07123
 C784 C 0.08410 0.36638 -0.05978
 C785 C 0.08000 0.38875 -0.07284
 C786 C 0.09037 0.39217 -0.09744
 C787 C 0.10418 0.37350 -0.10892
 C788 C 0.06416 0.40814 -0.06143
 C789 C 0.07064 0.43322 -0.06389
 C790 C 0.05471 0.45155 -0.05506
 C791 C 0.03190 0.44520 -0.04369
 C792 C 0.02580 0.42011 -0.04046
 C793 C 0.04178 0.40178 -0.04917
 H794 H 0.10471 0.33595 -0.14624
 H795 H 0.12769 0.30326 -0.16728
 H796 H 0.16534 0.28737 -0.09527
 H797 H 0.14271 0.32056 -0.07445
 H798 H 0.10052 0.33052 -0.06091
 H799 H 0.07651 0.36330 -0.04072
 H800 H 0.08729 0.40907 -0.10812
 H801 H 0.11188 0.37668 -0.12791
 H802 H 0.08794 0.43867 -0.07289
 H803 H 0.06004 0.47072 -0.05766
 H804 H 0.00838 0.41461 -0.03172
 H805 H 0.03618 0.38263 -0.04717
 C806 C -0.14346 0.36767 0.15586
 C807 C -0.13436 0.35809 0.17930
 C808 C -0.14458 0.33655 0.18984
 C809 C -0.16423 0.32414 0.17727
 C810 C -0.17404 0.33429 0.15443
 C811 C -0.16373 0.35576 0.14381
 C812 C -0.13076 0.38884 0.14308
 C813 C -0.14432 0.40664 0.12926
 C814 C -0.13204 0.42511 0.11521
 C815 C -0.10595 0.42621 0.11479
 C816 C -0.09246 0.40896 0.12935
 C817 C -0.10469 0.39049 0.14328
 C818 C -0.09263 0.44378 0.09760
 C819 C -0.07026 0.45499 0.10566
 C820 C -0.05558 0.46811 0.08811
 C821 C -0.06297 0.47024 0.06214
 C822 C -0.08617 0.46055 0.05451
 C823 C -0.10086 0.44743 0.07207
 H824 H -0.11908 0.36708 0.18934
 H825 H -0.13687 0.32952 0.20771
 H826 H -0.18906 0.32517 0.14413
 H827 H -0.17099 0.36243 0.12557
 H828 H -0.16443 0.40610 0.12904
 H829 H -0.14293 0.43832 0.10439
 H830 H -0.07235 0.40899 0.12902
 H831 H -0.09364 0.37684 0.15329
 H832 H -0.06368 0.45287 0.12534
 H833 H -0.03793 0.47565 0.09463
 H834 H -0.09240 0.46197 0.03464
 H835 H -0.11792 0.43890 0.06522
 C836 C -0.15712 0.64952 -0.16081
 C837 C -0.14793 0.66077 -0.18330
 C838 C -0.16140 0.67939 -0.19569
 C839 C -0.18437 0.68707 -0.18585
 C840 C -0.19396 0.67501 -0.16397
 C841 C -0.18050 0.65650 -0.15160
 C842 C -0.14189 0.63166 -0.14601
 C843 C -0.14025 0.63363 -0.11904
 C844 C -0.12569 0.61735 -0.10478
 C845 C -0.11249 0.59847 -0.11707
 C846 C -0.11404 0.59649 -0.14413
 C847 C -0.12856 0.61298 -0.15847
 C848 C -0.09674 0.58157 -0.10146
 C849 C -0.07326 0.57414 -0.11019
 C850 C -0.05734 0.56081 -0.09393
 C851 C -0.06455 0.55500 -0.06861
 C852 C -0.08849 0.56122 -0.06044
 C853 C -0.10446 0.57414 -0.07673
 H854 H -0.12989 0.65585 -0.19073
 H855 H -0.15338 0.68822 -0.21246
 H856 H -0.21179 0.67997 -0.15612
 H857 H -0.18826 0.64780 -0.13459
 H858 H -0.14985 0.64817 -0.10895
 H859 H -0.12438 0.61992 -0.08409
 H860 H -0.10425 0.58206 -0.15417
 H861 H -0.12960 0.61098 -0.17926
 H862 H -0.06668 0.57964 -0.12907
 H863 H -0.03894 0.55624 -0.10065
 H864 H -0.09467 0.55659 -0.04115
 H865 H -0.12269 0.57887 -0.06968
 C866 C 0.13211 0.67412 0.11704
 C867 C 0.12422 0.68076 0.14187
 C868 C 0.13840 0.69691 0.15706
 C869 C 0.16088 0.70681 0.14784
 C870 C 0.16896 0.69992 0.12312
 C871 C 0.15472 0.68375 0.10789
 C872 C 0.11663 0.65731 0.10082
 C873 C 0.12756 0.63869 0.08593
 C874 C 0.11277 0.62230 0.07154
 C875 C 0.08674 0.62424 0.07168
 C876 C 0.07590 0.64316 0.08619
 C877 C 0.09065 0.65950 0.10053
 C878 C 0.07074 0.60601 0.05783
 C879 C 0.04877 0.61354 0.04543
 C880 C 0.03224 0.59614 0.03505
 C881 C 0.03737 0.57082 0.03670
 C882 C 0.05993 0.56332 0.04784
 C883 C 0.07643 0.58073 0.05837
 H884 H 0.10714 0.67326 0.14971
 H885 H 0.13174 0.70145 0.17612
 H886 H 0.18605 0.70731 0.11527
 H887 H 0.16118 0.67919 0.08874
 H888 H 0.14752 0.63643 0.08587
 H889 H 0.12169 0.60806 0.06039
 H890 H 0.05591 0.64498 0.08701
 H891 H 0.08168 0.67386 0.11149
 H892 H 0.04411 0.63291 0.04420
 H893 H 0.01513 0.60249 0.02627
 H894 H 0.06440 0.54392 0.04936
 H895 H 0.09310 0.57430 0.06794
 C896 C 0.33911 1.13852 0.89114
 C897 C 0.32579 1.12579 0.87183
 C898 C 0.30596 1.13696 0.85898
 C899 C 0.29886 1.16112 0.86519
 C900 C 0.31257 1.17407 0.88412
 C901 C 0.33253 1.16291 0.89690
 C902 C 0.35910 1.12593 0.90586
 C903 C 0.38168 1.13801 0.91166
 C904 C 0.40046 1.12575 0.92532
 C905 C 0.39683 1.10130 0.93371
 C906 C 0.37416 1.08937 0.92802
 C907 C 0.35556 1.10151 0.91428
 C908 C 0.41663 1.08769 0.94767
 C909 C 0.41041 1.07204 0.96833
 C910 C 0.42802 1.05621 0.97896
 C911 C 0.45232 1.05574 0.96927
 C912 C 0.45913 1.07267 0.94992
 C913 C 0.44140 1.08851 0.93917
 H914 H 0.33065 1.10708 0.86673
 H915 H 0.29589 1.12634 0.84460
 H916 H 0.30784 1.19278 0.88924
 H917 H 0.34238 1.17312 0.91179
 H918 H 0.38496 1.15680 0.90528
 H919 H 0.41772 1.13540 0.92947
 H920 H 0.37094 1.07041 0.93385
 H921 H 0.33826 1.09181 0.91038
 H922 H 0.39163 1.07142 0.97570
 H923 H 0.42232 1.04360 0.99409
 H924 H 0.47772 1.07264 0.94205
 H925 H 0.44671 1.10036 0.92324
 C926 C 0.35824 0.85186 1.14068
 C927 C 0.35474 0.82610 1.14075
 C928 C 0.33356 0.81552 1.15194
 C929 C 0.31554 0.83046 1.16344
 C930 C 0.31907 0.85616 1.16341
 C931 C 0.34006 0.86673 1.15206
 C932 C 0.38033 0.86346 1.12831
 C933 C 0.39130 0.88476 1.13902
 C934 C 0.41035 0.89724 1.12617
 C935 C 0.41921 0.88859 1.10239
 C936 C 0.40911 0.86655 1.09230
 C937 C 0.38983 0.85418 1.10507
 C938 C 0.43732 0.90370 1.08736
 C939 C 0.43494 0.90575 1.06036
 C940 C 0.44932 0.92283 1.04664
 C941 C 0.46613 0.93848 1.05966
 C942 C 0.46966 0.93543 1.08636
 C943 C 0.45556 0.91808 1.10003
 H944 H 0.36849 0.81410 1.13239
 H945 H 0.33147 0.79563 1.15184
 H946 H 0.30537 0.86826 1.17167
 H947 H 0.34178 0.88665 1.15178
 H948 H 0.38482 0.89214 1.15717
 H949 H 0.41737 0.91428 1.13444
 H950 H 0.41574 0.85912 1.07425
 H951 H 0.38176 0.83787 1.09620
 H952 H 0.42096 0.89522 1.04994
 H953 H 0.44616 0.92482 1.02607
 H954 H 0.48272 0.94706 1.09682
 H955 H 0.45838 0.91653 1.12068
 C956 C 0.66316 1.14920 1.14218
 C957 C 0.68281 1.13462 1.15131
 C958 C 0.70385 1.14549 1.16255
 C959 C 0.70587 1.17127 1.16485
 C960 C 0.68620 1.18590 1.15579
 C961 C 0.66507 1.17499 1.14460
 C962 C 0.64110 1.13741 1.12969
 C963 C 0.63005 1.14790 1.10762
 C964 C 0.61055 1.13573 1.09478
 C965 C 0.60169 1.11276 1.10369
 C966 C 0.61224 1.10272 1.12625
 C967 C 0.63160 1.11492 1.13912
 C968 C 0.58288 1.09836 1.08868
 C969 C 0.56525 1.08342 1.10137
 C970 C 0.55013 1.06705 1.08741
 C971 C 0.55211 1.06542 1.06043
 C972 C 0.56848 1.08154 1.04756
 C973 C 0.58377 1.09775 1.06154
 H974 H 0.68221 1.11474 1.14926
 H975 H 0.71871 1.13361 1.16894
 H976 H 0.68698 1.20579 1.15747
 H977 H 0.65013 1.18674 1.13805
 H978 H 0.63701 1.16513 1.09975
 H979 H 0.60266 1.14413 1.07765
 H980 H 0.60616 1.08493 1.13351
 H981 H 0.63939 1.10654 1.15631
 H982 H 0.56365 1.08384 1.12219
 H983 H 0.53751 1.05503 1.09784
 H984 H 0.57048 1.08068 1.02678
 H985 H 0.59724 1.10881 1.05113
 C986 C 0.65349 0.86274 0.86759
 C987 C 0.65647 0.83719 0.87080
 C988 C 0.67255 0.82409 0.85485
 C989 C 0.68590 0.83624 0.83524
 C990 C 0.68249 0.86172 0.83174
 C991 C 0.66653 0.87480 0.84775
 C992 C 0.63727 0.87697 0.88511
 C993 C 0.64510 0.90010 0.89445
 C994 C 0.62978 0.91388 0.91046
 C995 C 0.60621 0.90489 0.91752
 C996 C 0.59842 0.88163 0.90842
 C997 C 0.61385 0.86775 0.89246
 C998 C 0.58963 0.92033 0.93350
 C999 C 0.56430 0.92260 0.92721
 C1000 C 0.54944 0.93945 0.94033
 C1001 C 0.55964 0.95435 0.95996
 C1002 C 0.58460 0.95110 0.96718
 C1003 C 0.59941 0.93427 0.95411
 H1004 H 0.64678 0.82743 0.88603
 H1005 H 0.67451 0.80446 0.85799
 H1006 H 0.69247 0.87177 0.81697
 H1007 H 0.66436 0.89442 0.84456
 H1008 H 0.66317 0.90756 0.88941
 H1009 H 0.63619 0.93187 0.91685
 H1010 H 0.58042 0.87416 0.91366
 H1011 H 0.60727 0.85003 0.88544
 H1012 H 0.55627 0.91221 0.91133
 H1013 H 0.53026 0.94158 0.93433
 H1014 H 0.59293 0.96215 0.98241
 H1015 H 0.61873 0.93257 0.95975
   
