data_POSCAR
  _audit_creation_date              2014-09-24
  _audit_creation_method            'ToBaCCo'
  _symmetry_space_group_name_H-M    'P1'
  _symmetry_Int_Tables_number       1
  _symmetry_cell_setting            triclinic
  loop_
  _symmetry_equiv_pos_as_xyz
 x,y,z
_cell_length_a 30.3718
_cell_length_b 30.3189
_cell_length_c 29.6920
_cell_angle_alpha 92.443900
_cell_angle_beta 92.150000
_cell_angle_gamma 89.224200
loop_
  _atom_site_label
  _atom_site_type_symbol
  _atom_site_fract_x
  _atom_site_fract_y
  _atom_site_fract_z
C1 C 0.03393 0.45797 0.18087
 H2 H 0.05818 0.48341 0.17801
 C3 C 0.03769 0.41807 0.15560
 H4 H 0.06472 0.41388 0.13291
 C5 C -0.02911 0.43226 0.21544
 H6 H -0.05451 0.43717 0.23968
 C7 C -0.02657 0.39189 0.19117
 H8 H -0.05110 0.36784 0.19770
 N9 N 0.00088 0.46435 0.21017
 C10 C -0.01903 0.60482 0.24604
 H11 H -0.02538 0.60028 0.28114
 C12 C -0.01945 0.64725 0.22978
 H13 H -0.02671 0.67508 0.25251
 C14 C 0.00048 0.57409 0.17474
 H15 H 0.00921 0.54554 0.15378
 C16 C 0.00029 0.61626 0.15692
 H17 H 0.00917 0.61945 0.12229
 Zn18 Zn -0.00057 0.51574 0.24963
 N19 N -0.00819 0.56936 0.21892
 C20 C 0.07816 0.55610 0.28199
 N21 N 0.05416 0.51865 0.28315
 C22 C 0.07028 0.48293 0.30491
 C23 C 0.11232 0.48394 0.32617
 C24 C 0.11984 0.55874 0.30304
 C25 C -0.08964 0.51651 0.26740
 C26 C -0.12766 0.51425 0.29211
 C27 C -0.08169 0.50328 0.35894
 C28 C -0.04444 0.50586 0.33280
 N29 N -0.04912 0.51203 0.28779
 H30 H 0.06559 0.58399 0.26397
 H31 H 0.05081 0.45332 0.30499
 H32 H 0.12388 0.45488 0.34302
 H33 H 0.13814 0.58901 0.30111
 H34 H -0.09237 0.52148 0.23153
 H35 H -0.15887 0.51702 0.27383
 H36 H -0.07717 0.49808 0.39471
 H37 H -0.01190 0.50276 0.34844
 C38 C -0.00907 0.65362 0.18497
 C39 C 0.00762 0.38370 0.16077
 C40 C -0.12423 0.50759 0.33886
 C41 C 0.13807 0.52229 0.32497
 C42 C 0.05169 0.55240 0.80544
 H43 H 0.07807 0.52807 0.80598
 C44 C 0.05588 0.59183 0.83129
 H45 H 0.08556 0.59764 0.85193
 C46 C -0.01872 0.57480 0.77721
 H47 H -0.04751 0.56857 0.75563
 C48 C -0.01599 0.61449 0.80257
 H49 H -0.04366 0.63725 0.80105
 N50 N 0.01467 0.54451 0.77932
 C51 C 0.00379 0.40185 0.75873
 H52 H 0.00018 0.39954 0.72232
 C53 C 0.00013 0.36404 0.78352
 H54 H -0.00646 0.33322 0.76517
 C55 C 0.01458 0.44609 0.82578
 H56 H 0.01923 0.47823 0.84222
 C57 C 0.01150 0.40907 0.85191
 H58 H 0.01435 0.41317 0.88832
 Zn59 Zn 0.01145 0.49145 0.74339
 N60 N 0.01095 0.44181 0.78002
 C61 C 0.09157 0.45648 0.70957
 N62 N 0.06112 0.48960 0.70666
 C63 C 0.06707 0.52421 0.68003
 C64 C 0.10492 0.52654 0.65502
 C65 C 0.13013 0.45758 0.68538
 C66 C -0.07946 0.48942 0.73138
 C67 C -0.12052 0.49207 0.70900
 C68 C -0.08351 0.49516 0.63861
 C69 C -0.04308 0.49277 0.66255
 N70 N -0.04184 0.49102 0.70824
 H71 H 0.08648 0.42955 0.73141
 H72 H 0.04265 0.55049 0.67886
 H73 H 0.10900 0.55475 0.63442
 H74 H 0.15321 0.43043 0.68867
 H75 H -0.07745 0.48727 0.76769
 H76 H -0.14912 0.49137 0.72936
 H77 H -0.08365 0.49728 0.60226
 H78 H -0.01280 0.49293 0.64460
 C79 C 0.00412 0.36729 0.83097
 C80 C 0.02197 0.62366 0.82969
 C81 C -0.12316 0.49582 0.66175
 C82 C 0.13768 0.49346 0.65799
 C83 C 0.18794 0.01786 0.44464
 H84 H 0.18321 0.04695 0.46638
 C85 C 0.16677 0.01480 0.40188
 H86 H 0.14575 0.04181 0.39135
 C87 C 0.22447 -0.05059 0.43056
 H88 H 0.24843 -0.07518 0.44063
 C89 C 0.20412 -0.05496 0.38785
 H90 H 0.21202 -0.08341 0.36618
 N91 N 0.21655 -0.01440 0.45789
 C92 C 0.24983 0.00386 0.60189
 H93 H 0.28512 0.00163 0.59834
 C94 C 0.23278 0.00954 0.64455
 H95 H 0.25517 0.01167 0.67382
 C96 C 0.17804 0.00392 0.56763
 H97 H 0.15706 0.00178 0.53740
 C98 C 0.15939 0.00926 0.61008
 H99 H 0.12396 0.01186 0.61204
 Zn100 Zn 0.25327 -0.00554 0.51047
 N101 N 0.22260 0.00175 0.56450
 C102 C 0.28250 0.08079 0.53169
 N103 N 0.28700 0.04532 0.50263
 C104 C 0.31295 0.04694 0.46644
 C105 C 0.33647 0.08511 0.45901
 C106 C 0.30540 0.11946 0.52572
 C107 C 0.26728 -0.09308 0.52672
 C108 C 0.28974 -0.13305 0.53096
 C109 C 0.35781 -0.09538 0.51944
 C110 C 0.33381 -0.05605 0.51502
 N111 N 0.28925 -0.05595 0.51774
 H112 H 0.26026 0.07970 0.55912
 H113 H 0.31505 0.01864 0.44312
 H114 H 0.35696 0.08564 0.42994
 H115 H 0.29964 0.14689 0.54920
 H116 H 0.23190 -0.09164 0.52982
 H117 H 0.27074 -0.16149 0.53841
 H118 H 0.39327 -0.09499 0.51650
 H119 H 0.35073 -0.02584 0.50907
 C120 C 0.18714 0.01222 0.64916
 C121 C 0.17545 -0.02181 0.37264
 C122 C 0.33574 -0.13492 0.52631
 C123 C 0.33325 0.12212 0.48901
 C124 C 0.81641 0.02333 0.55098
 H125 H 0.81663 0.05266 0.53149
 C126 C 0.84554 0.01959 0.58835
 H127 H 0.86839 0.04597 0.59684
 C128 C 0.78670 -0.04679 0.56328
 H129 H 0.76351 -0.07256 0.55400
 C130 C 0.81539 -0.05205 0.60038
 H131 H 0.81390 -0.08186 0.61911
 N132 N 0.78719 -0.00934 0.53961
 C133 C 0.74354 -0.00277 0.39834
 H134 H 0.70915 -0.00965 0.40205
 C135 C 0.75987 -0.00168 0.35530
 H136 H 0.73719 -0.00690 0.32653
 C137 C 0.81465 0.00932 0.43151
 H138 H 0.83606 0.01234 0.46130
 C139 C 0.83250 0.01127 0.38886
 H140 H 0.86762 0.01579 0.38740
 Zn141 Zn 0.74436 -0.00440 0.49143
 N142 N 0.77083 0.00249 0.43543
 C143 C 0.66928 0.04811 0.47380
 N144 N 0.70548 0.04440 0.50179
 C145 C 0.71568 0.07676 0.53345
 C146 C 0.69125 0.11615 0.53532
 C147 C 0.64370 0.08665 0.47473
 C148 C 0.73288 -0.09099 0.46171
 C149 C 0.71433 -0.13250 0.45613
 C150 C 0.65251 -0.10305 0.50324
 C151 C 0.67407 -0.06269 0.50583
 N152 N 0.71290 -0.05775 0.48558
 H153 H 0.66072 0.02154 0.44987
 H154 H 0.74363 0.07290 0.55647
 H155 H 0.70105 0.14117 0.56054
 H156 H 0.61586 0.08918 0.45101
 H157 H 0.76424 -0.08524 0.44706
 H158 H 0.73146 -0.15807 0.43687
 H159 H 0.62182 -0.10605 0.52018
 H160 H 0.66007 -0.03512 0.52495
 C161 C 0.80493 0.00528 0.34971
 C162 C 0.84462 -0.01833 0.61395
 C163 C 0.67185 -0.14313 0.47732
 C164 C 0.65556 0.12224 0.50436
 C165 C 0.54305 0.16763 0.95978
 H166 H 0.51761 0.16566 0.93330
 C167 C 0.58037 0.14039 0.95708
 H168 H 0.58353 0.11743 0.92839
 C169 C 0.57047 0.20086 1.02866
 H170 H 0.56657 0.22431 1.05661
 C171 C 0.60831 0.17431 1.02729
 H172 H 0.63271 0.17742 1.05471
 N173 N 0.53968 0.19842 0.99420
 C174 C 0.40686 0.23345 0.95497
 H175 H 0.41380 0.26476 0.94110
 C176 C 0.36428 0.21747 0.95007
 H177 H 0.33944 0.23666 0.93223
 C178 C 0.43239 0.17229 0.99696
 H179 H 0.45926 0.15672 1.01548
 C180 C 0.39127 0.15252 0.99441
 H181 H 0.38718 0.12160 1.01054
 Zn182 Zn 0.49303 0.24055 0.99121
 N183 N 0.43894 0.21169 0.97842
 C184 C 0.48151 0.32002 0.94662
 N185 N 0.50324 0.28053 0.94556
 C186 C 0.53037 0.26898 0.91155
 C187 C 0.53421 0.29617 0.87526
 C188 C 0.48429 0.34829 0.91098
 C189 C 0.45234 0.26890 1.07101
 C190 C 0.44830 0.29255 1.11191
 C191 C 0.51925 0.32500 1.10162
 C192 C 0.52166 0.30098 1.06058
 N193 N 0.48889 0.27300 1.04658
 H194 H 0.46070 0.32886 0.97446
 H195 H 0.54833 0.23810 0.91170
 H196 H 0.55562 0.28491 0.84888
 H197 H 0.46546 0.37891 0.91194
 H198 H 0.42621 0.24719 1.05893
 H199 H 0.41892 0.28843 1.13082
 H200 H 0.54597 0.34693 1.11128
 H201 H 0.54983 0.30445 1.03987
 C202 C 0.35122 0.17516 0.97109
 C203 C 0.61437 0.14491 0.99012
 C204 C 0.48225 0.32055 1.12833
 C205 C 0.50971 0.33597 0.87375
 C206 C 0.43603 0.81604 0.97744
 H207 H 0.46039 0.81821 0.95198
 C208 C 0.39633 0.83946 0.97305
 H209 H 0.39093 0.85959 0.94398
 C210 C 0.41411 0.78691 1.04561
 H211 H 0.42123 0.76666 1.07409
 C212 C 0.37382 0.80970 1.04261
 H213 H 0.35147 0.80615 1.06958
 N214 N 0.44390 0.78963 1.01281
 C215 C 0.58756 0.77412 1.00989
 H216 H 0.59131 0.73876 1.01016
 C217 C 0.62506 0.80006 1.00875
 H218 H 0.65689 0.78370 1.00836
 C219 C 0.54178 0.83781 1.01423
 H220 H 0.50947 0.85259 1.01755
 C221 C 0.57848 0.86506 1.01296
 H222 H 0.57386 0.90058 1.01470
 Zn223 Zn 0.49710 0.75526 1.01484
 N224 N 0.54679 0.79307 1.01225
 C225 C 0.52963 0.68224 0.96243
 N226 N 0.49735 0.71372 0.96446
 C227 C 0.46651 0.71681 0.93026
 C228 C 0.46955 0.69040 0.89078
 C229 C 0.53402 0.65510 0.92355
 C230 C 0.53398 0.73575 1.10050
 C231 C 0.53838 0.71393 1.14084
 C232 C 0.47549 0.66960 1.11731
 C233 C 0.47287 0.69180 1.07685
 N234 N 0.50167 0.72444 1.06937
 H235 H 0.55243 0.67837 0.99082
 H236 H 0.43971 0.74030 0.93289
 H237 H 0.44445 0.69478 0.86463
 H238 H 0.56088 0.63122 0.92241
 H239 H 0.55633 0.76203 1.09436
 H240 H 0.56455 0.72361 1.16493
 H241 H 0.45222 0.64365 1.12179
 H242 H 0.44765 0.68318 1.05141
 C243 C 0.62079 0.84629 1.00974
 C244 C 0.36385 0.83603 1.00532
 C245 C 0.50871 0.68069 1.15020
 C246 C 0.50473 0.65988 0.88620
 B247 B 0.99089 1.05219 0.02955
 B248 B 1.01417 1.00614 0.05063
 B249 B 0.95892 1.00913 0.04264
 B250 B 0.94746 1.03653 -0.00478
 B251 B 0.99560 1.05051 -0.02721
 B252 B 1.03764 1.03182 0.00714
 B253 B 0.99105 0.95801 -0.02991
 B254 B 0.96731 1.00657 -0.04923
 B255 B 1.02335 1.00324 -0.04229
 B256 B 1.03669 0.97417 0.00654
 B257 B 0.98567 0.96143 0.02870
 B258 B 0.94414 0.98096 -0.00581
 B259 B 0.55081 0.49837 0.47524
 B260 B 0.54948 0.49732 0.53402
 B261 B 0.52737 0.54150 0.50725
 B262 B 0.50043 0.52210 0.45817
 B263 B 0.50658 0.46617 0.45500
 B264 B 0.53709 0.45074 0.50226
 B265 B 0.45929 0.48833 0.53097
 B266 B 0.45826 0.48932 0.47327
 B267 B 0.48040 0.44373 0.50038
 B268 B 0.50771 0.46496 0.54842
 B269 B 0.50181 0.52036 0.55187
 B270 B 0.47013 0.53751 0.50536
 C271 C 1.01344 1.34454 0.13748
 C272 C 0.98666 1.30718 0.13992
 C273 C 0.99477 1.26355 0.11643
 C274 C 0.96132 1.23190 0.11588
 C275 C 0.96723 1.18995 0.09544
 C276 C 1.00709 1.17835 0.07522
 C277 C 1.04048 1.20996 0.07529
 C278 C 1.03465 1.25197 0.09595
 C279 C 1.01384 1.13485 0.05150
 C280 C 0.98957 1.09731 0.05951
 H281 H 0.95747 1.30902 0.15951
 H282 H 0.93017 1.23974 0.13115
 H283 H 0.94007 1.16720 0.09476
 H284 H 1.07138 1.20198 0.05958
 H285 H 1.06175 1.27468 0.09611
 H286 H 1.03760 1.13327 0.02549
 H287 H 1.04098 1.34184 0.11542
 H288 H 0.96844 1.09870 0.08786
 C289 C 0.99448 0.69965 0.17045
 C290 C 0.99442 0.71194 0.12563
 C291 C 0.99893 0.75864 0.11352
 C292 C 0.97888 0.77287 0.07326
 C293 C 0.98203 0.81685 0.06137
 C294 C 1.00593 0.84745 0.08931
 C295 C 1.02729 0.83290 0.12873
 C296 C 1.02365 0.78903 0.14092
 C297 C 1.01091 0.89389 0.07688
 C298 C 0.97872 0.91590 0.05150
 H299 H 0.98790 0.68743 0.09873
 H300 H 0.96039 0.74996 0.05112
 H301 H 0.96651 0.82649 0.02983
 H302 H 1.04662 0.85561 0.15029
 H303 H 1.04088 0.77886 0.17138
 H304 H 1.04076 0.91076 0.08780
 H305 H 0.99576 0.72549 0.19679
 H306 H 0.94799 0.89942 0.04290
 C307 C 0.99969 1.32882 -0.14013
 C308 C 0.99538 1.28512 -0.15671
 C309 C 0.98991 1.24678 -0.12803
 C310 C 0.99576 1.20422 -0.14756
 C311 C 0.99077 1.16689 -0.12239
 C312 C 0.98000 1.17127 -0.07676
 C313 C 0.97293 1.21370 -0.05742
 C314 C 0.97781 1.25114 -0.08269
 C315 C 0.97544 1.13253 -0.04867
 C316 C 0.99788 1.09272 -0.05699
 H317 H 0.99762 1.27773 -0.19242
 H318 H 1.00423 1.19978 -0.18260
 H319 H 0.99471 1.13480 -0.13916
 H320 H 0.96393 1.21790 -0.02251
 H321 H 0.97146 1.28308 -0.06657
 H322 H 0.95613 1.13682 -0.01899
 H323 H 1.00079 1.33556 -0.10408
 H324 H 1.01658 1.08928 -0.08686
 C325 C 1.02686 0.66544 -0.14296
 C326 C 1.00318 0.70393 -0.15281
 C327 C 1.00660 0.74593 -0.12560
 C328 C 0.98948 0.78459 -0.14432
 C329 C 0.99097 0.82486 -0.11972
 C330 C 1.00963 0.82722 -0.07566
 C331 C 1.02666 0.78866 -0.05678
 C332 C 1.02497 0.74831 -0.08132
 C333 C 1.01159 0.86919 -0.04873
 C334 C 0.98983 0.90699 -0.06270
 H335 H 0.98234 0.70420 -0.18315
 H336 H 0.97488 0.78368 -0.17821
 H337 H 0.97762 0.85404 -0.13531
 H338 H 1.04088 0.78966 -0.02274
 H339 H 1.03735 0.71922 -0.06503
 H340 H 1.02977 0.87004 -0.01664
 H341 H 1.05162 0.66618 -0.11584
 H342 H 0.99168 0.93174 -0.04526
 C343 C 1.15880 0.97479 0.32511
 C344 C 1.12371 0.99964 0.30758
 C345 C 1.11052 0.99677 0.25906
 C346 C 1.06619 1.00330 0.24601
 C347 C 1.05281 1.00086 0.20044
 C348 C 1.08387 0.99306 0.16679
 C349 C 1.12820 0.98643 0.17993
 C350 C 1.14150 0.98844 0.22556
 C351 C 1.07108 0.99082 0.11808
 C352 C 1.03220 1.00976 0.10132
 H353 H 1.10377 1.01980 0.33003
 H354 H 1.04172 1.00956 0.27120
 H355 H 1.01804 1.00443 0.19208
 H356 H 1.15272 0.98021 0.15477
 H357 H 1.17615 0.98432 0.23443
 H358 H 1.09345 0.97473 0.09503
 H359 H 1.17468 0.95072 0.30289
 H360 H 1.01220 1.02948 0.12398
 C361 C 1.17058 1.01943 -0.30489
 C362 C 1.12850 1.00815 -0.29244
 C363 C 1.11485 1.01322 -0.24510
 C364 C 1.08296 0.98497 -0.22984
 C365 C 1.07032 0.98821 -0.18502
 C366 C 1.08917 1.02017 -0.15458
 C367 C 1.12014 1.04920 -0.17024
 C368 C 1.13292 1.04581 -0.21496
 C369 C 1.07468 1.02670 -0.10770
 C370 C 1.05238 0.99488 -0.08541
 H371 H 1.10638 0.99164 -0.31692
 H372 H 1.06800 0.96011 -0.25259
 H373 H 1.04515 0.96626 -0.17486
 H374 H 1.13429 1.07483 -0.14785
 H375 H 1.15635 1.06931 -0.22592
 H376 H 1.08114 1.05820 -0.09126
 H377 H 1.19410 1.03099 -0.27887
 H378 H 1.05197 0.96159 -0.09990
 C379 C 0.81963 1.00413 0.30731
 C380 C 0.86270 1.01263 0.29533
 C381 C 0.87597 1.00538 0.24827
 C382 C 0.90517 1.03458 0.22999
 C383 C 0.91795 1.02806 0.18545
 C384 C 0.90235 0.99163 0.15888
 C385 C 0.87407 0.96183 0.17755
 C386 C 0.86064 0.96882 0.22176
 C387 C 0.91815 0.98216 0.11318
 C388 C 0.92864 1.01561 0.08496
 H389 H 0.88651 1.02714 0.31933
 H390 H 0.91786 1.06256 0.25011
 H391 H 0.94099 1.05077 0.17231
 H392 H 0.86244 0.93308 0.15792
 H393 H 0.83907 0.94508 0.23552
 H394 H 0.92121 0.94806 0.10211
 H395 H 0.79620 0.99617 0.27974
 H396 H 0.91793 1.04876 0.09413
 C397 C 0.87271 0.97596 -0.34487
 C398 C 0.88843 1.01118 -0.31724
 C399 C 0.90853 1.00492 -0.27165
 C400 C 0.90605 1.03957 -0.23897
 C401 C 0.92160 1.03383 -0.19467
 C402 C 0.93995 0.99305 -0.18215
 C403 C 0.94454 0.95921 -0.21542
 C404 C 0.92910 0.96501 -0.25971
 C405 C 0.95589 0.98477 -0.13548
 C406 C 0.94469 1.01101 -0.09785
 H407 H 0.88097 1.04461 -0.32672
 H408 H 0.89121 1.07097 -0.24751
 H409 H 0.91930 1.06158 -0.17078
 H410 H 0.95972 0.92793 -0.20701
 H411 H 0.93344 0.93814 -0.28433
 H412 H 0.97729 0.95653 -0.13097
 H413 H 0.87621 0.94278 -0.33310
 H414 H 0.92279 1.03890 -0.10209
 C415 C 1.30332 1.16041 -0.03128
 C416 C 1.28823 1.12297 -0.01175
 C417 C 1.24070 1.11331 -0.01154
 C418 C 1.22700 1.07486 0.00815
 C419 C 1.18225 1.06542 0.00990
 C420 C 1.15018 1.09458 -0.00782
 C421 C 1.16395 1.13277 -0.02797
 C422 C 1.20869 1.14219 -0.02975
 C423 C 1.10255 1.08497 -0.00872
 C424 C 1.08440 1.05309 0.01698
 H425 H 1.31134 1.10109 0.00520
 H426 H 1.25101 1.05194 0.02206
 H427 H 1.17335 1.03486 0.02438
 H428 H 1.13998 1.15542 -0.04245
 H429 H 1.21807 1.17216 -0.04528
 H430 H 1.08132 1.10339 -0.03121
 H431 H 1.32875 1.16546 -0.02843
 H432 H 1.10437 1.03838 0.04331
 C433 C 0.65603 1.11994 -0.01599
 C434 C 0.69658 1.13597 0.00100
 C435 C 0.73971 1.11496 -0.00872
 C436 C 0.77809 1.13965 0.00033
 C437 C 0.81960 1.12129 -0.00790
 C438 C 0.82351 1.07763 -0.02516
 C439 C 0.78522 1.05314 -0.03490
 C440 C 0.74374 1.07133 -0.02633
 C441 C 0.86668 1.05617 -0.03252
 C442 C 0.90453 1.06691 -0.00652
 H443 H 0.69725 1.16741 0.01970
 H444 H 0.77595 1.17340 0.01367
 H445 H 0.84837 1.14151 -0.00112
 H446 H 0.78747 1.01938 -0.04822
 H447 H 0.71530 1.05070 -0.03290
 H448 H 0.86694 1.02712 -0.05488
 H449 H 0.65500 1.09109 -0.03867
 H450 H 0.90329 1.09394 0.01834
 C451 C 1.32500 0.85786 -0.00113
 C452 C 1.28842 0.85605 0.02633
 C453 C 1.24658 0.88055 0.01709
 C454 C 1.20748 0.86540 0.03463
 C455 C 1.16744 0.88768 0.02690
 C456 C 1.16579 0.92587 0.00159
 C457 C 1.20485 0.94126 -0.01562
 C458 C 1.24488 0.91911 -0.00774
 C459 C 1.12442 0.95102 -0.00640
 C460 C 1.08513 0.94014 0.01264
 H461 H 1.28854 0.83422 0.05410
 H462 H 1.20787 0.83607 0.05423
 H463 H 1.13793 0.87505 0.04085
 H464 H 1.20453 0.97089 -0.03481
 H465 H 1.27436 0.93295 -0.02043
 H466 H 1.12539 0.98006 -0.02623
 H467 H 1.32123 0.87729 -0.03082
 H468 H 1.06088 0.95718 0.00957
 C469 C 0.65951 0.87567 0.00977
 C470 C 0.70097 0.86150 -0.00455
 C471 C 0.74121 0.88897 -0.00153
 C472 C 0.77926 0.87246 -0.02218
 C473 C 0.81858 0.89600 -0.01886
 C474 C 0.82073 0.93696 0.00516
 C475 C 0.78275 0.95346 0.02591
 C476 C 0.74346 0.92984 0.02274
 C477 C 0.86184 0.96276 0.01088
 C478 C 0.89957 0.95451 -0.01380
 H479 H 0.70437 0.82859 -0.01961
 H480 H 0.77875 0.84083 -0.04061
 H481 H 0.84713 0.88129 -0.03443
 H482 H 0.78353 0.98475 0.04497
 H483 H 0.71552 0.94357 0.04016
 H484 H 0.86146 0.99073 0.03460
 H485 H 0.65440 0.90982 0.02040
 H486 H 0.89964 0.92887 -0.04013
 C487 C 0.83876 0.50434 0.36595
 C488 C 0.79488 0.51130 0.35100
 C489 C 0.75611 0.50528 0.37906
 C490 C 0.71585 0.52523 0.36606
 C491 C 0.67793 0.51905 0.39019
 C492 C 0.67936 0.49237 0.42781
 C493 C 0.71952 0.47238 0.44090
 C494 C 0.75753 0.47863 0.41679
 C495 C 0.63965 0.48455 0.45358
 C496 C 0.59964 0.50549 0.44405
 H497 H 0.78778 0.52346 0.31785
 H498 H 0.71367 0.54562 0.33696
 H499 H 0.64750 0.53490 0.37906
 H500 H 0.72142 0.45153 0.46966
 H501 H 0.78748 0.46163 0.42722
 H502 H 0.64225 0.46250 0.48133
 H503 H 0.84486 0.49687 0.40097
 H504 H 0.57663 0.50023 0.46090
 C505 C 0.18115 0.52611 0.34400
 C506 C 0.20622 0.49192 0.36279
 C507 C 0.25229 0.49844 0.38010
 C508 C 0.28195 0.46256 0.37879
 C509 C 0.32581 0.46775 0.39400
 C510 C 0.34073 0.50895 0.41159
 C511 C 0.31102 0.54475 0.41319
 C512 C 0.26721 0.53957 0.39795
 C513 C 0.38665 0.51581 0.42886
 C514 C 0.41273 0.48200 0.44641
 H515 H 0.19380 0.45866 0.36164
 H516 H 0.27133 0.43056 0.36518
 H517 H 0.34794 0.43961 0.39117
 H518 H 0.32159 0.57673 0.42696
 H519 H 0.24505 0.56771 0.40088
 H520 H 0.39853 0.54923 0.43152
 H521 H 0.19698 0.55772 0.34190
 H522 H 0.40000 0.44889 0.44574
 C523 C 0.83668 0.50069 0.63688
 C524 C 0.79507 0.50416 0.65581
 C525 C 0.75313 0.51028 0.62946
 C526 C 0.71353 0.50192 0.65031
 C527 C 0.67305 0.50726 0.62729
 C528 C 0.67129 0.52101 0.58266
 C529 C 0.71063 0.53079 0.56216
 C530 C 0.75125 0.52542 0.58522
 C531 C 0.62903 0.52523 0.55688
 C532 C 0.59353 0.49809 0.56393
 H533 H 0.79191 0.50147 0.69163
 H534 H 0.71388 0.49102 0.68460
 H535 H 0.64325 0.50104 0.64474
 H536 H 0.70995 0.54209 0.52801
 H537 H 0.78071 0.53377 0.56833
 H538 H 0.62746 0.54716 0.52906
 H539 H 0.83841 0.50208 0.60065
 H540 H 0.59682 0.47341 0.58910
 C541 C 0.17652 0.49819 0.63416
 C542 C 0.21420 0.47125 0.63832
 C543 C 0.25531 0.47962 0.61489
 C544 C 0.29569 0.46612 0.63465
 C545 C 0.33529 0.47387 0.61400
 C546 C 0.33522 0.49467 0.57253
 C547 C 0.29482 0.50788 0.55257
 C548 C 0.25521 0.50030 0.57335
 C549 C 0.37639 0.50390 0.54966
 C550 C 0.41587 0.48094 0.55752
 H551 H 0.21575 0.44549 0.66236
 H552 H 0.29667 0.45022 0.66668
 H553 H 0.36573 0.46425 0.63116
 H554 H 0.29387 0.52381 0.52054
 H555 H 0.22467 0.51008 0.55645
 H556 H 0.37454 0.52798 0.52391
 H557 H 0.17820 0.52626 0.61294
 H558 H 0.41637 0.45349 0.57948
 C559 C 0.51417 0.65975 0.19152
 C560 C 0.48418 0.63078 0.20881
 C561 C 0.49327 0.60928 0.25211
 C562 C 0.45837 0.60097 0.28011
 C563 C 0.46628 0.58059 0.32111
 C564 C 0.50927 0.56756 0.33441
 C565 C 0.54395 0.57481 0.30586
 C566 C 0.53615 0.59578 0.26527
 C567 C 0.51849 0.54390 0.37623
 C568 C 0.49403 0.55060 0.41479
 H569 H 0.45202 0.62602 0.19261
 H570 H 0.42498 0.61052 0.27037
 H571 H 0.43864 0.57406 0.34171
 H572 H 0.57719 0.56428 0.31506
 H573 H 0.56356 0.60055 0.24379
 H574 H 0.54552 0.52038 0.37617
 H575 H 0.54312 0.66798 0.21252
 H576 H 0.46913 0.57641 0.41562
 C577 C 0.51239 0.63476 0.84603
 C578 C 0.48843 0.63917 0.80507
 C579 C 0.49913 0.61519 0.76208
 C580 C 0.48067 0.63090 0.72164
 C581 C 0.48932 0.60963 0.68020
 C582 C 0.51641 0.57171 0.67827
 C583 C 0.53539 0.55620 0.71849
 C584 C 0.52653 0.57735 0.76006
 C585 C 0.52558 0.54788 0.63505
 C586 C 0.49587 0.54764 0.59807
 H587 H 0.46202 0.66320 0.80279
 H588 H 0.45965 0.66007 0.72204
 H589 H 0.47522 0.62339 0.64979
 H590 H 0.55643 0.52705 0.71784
 H591 H 0.54071 0.56333 0.79022
 H592 H 0.55453 0.52699 0.63414
 H593 H 0.54030 0.61225 0.84652
 H594 H 0.46447 0.56438 0.60154
 C595 C 0.47749 0.34273 0.17042
 C596 C 0.51029 0.36747 0.19368
 C597 C 0.50329 0.38848 0.23868
 C598 C 0.53928 0.39345 0.26936
 C599 C 0.53345 0.41195 0.31264
 C600 C 0.49136 0.42598 0.32586
 C601 C 0.45575 0.42266 0.29457
 C602 C 0.46154 0.40402 0.25139
 C603 C 0.48370 0.44626 0.37094
 C604 C 0.51138 0.43957 0.40856
 H605 H 0.54319 0.36846 0.18121
 H606 H 0.57192 0.38256 0.25996
 H607 H 0.56208 0.41583 0.33515
 H608 H 0.42326 0.43434 0.30364
 H609 H 0.43341 0.40237 0.22794
 H610 H 0.45547 0.46803 0.37392
 H611 H 0.44677 0.33859 0.18706
 H612 H 0.53926 0.41729 0.40584
 C613 C 0.50792 0.36285 0.83619
 C614 C 0.52816 0.35263 0.79530
 C615 C 0.51972 0.37760 0.75402
 C616 C 0.52781 0.35644 0.71211
 C617 C 0.51903 0.37795 0.67207
 C618 C 0.50240 0.42145 0.67322
 C619 C 0.49437 0.44268 0.71503
 C620 C 0.50340 0.42128 0.75511
 C621 C 0.49278 0.44558 0.63181
 C622 C 0.51335 0.43589 0.59134
 H623 H 0.54802 0.32307 0.79128
 H624 H 0.54027 0.32278 0.71026
 H625 H 0.52448 0.35998 0.64049
 H626 H 0.48149 0.47618 0.71672
 H627 H 0.49792 0.43939 0.78657
 H628 H 0.47079 0.47381 0.63449
 H629 H 0.48693 0.39190 0.83829
 H630 H 0.53698 0.40903 0.58921
 C631 C 0.65284 0.80833 0.47180
 C632 C 0.61634 0.79382 0.49332
 C633 C 0.60274 0.74722 0.48844
 C634 C 0.57269 0.73127 0.51834
 C635 C 0.56041 0.68700 0.51545
 C636 C 0.57779 0.65786 0.48231
 C637 C 0.60695 0.67404 0.45167
 C638 C 0.61962 0.71822 0.45484
 C639 C 0.56435 0.61126 0.47744
 C640 C 0.54909 0.58832 0.51322
 H641 H 0.59901 0.81619 0.51620
 H642 H 0.55894 0.75303 0.54423
 H643 H 0.53676 0.67602 0.53870
 H644 H 0.62020 0.65237 0.42541
 H645 H 0.64248 0.72960 0.43086
 H646 H 0.56712 0.59457 0.44476
 H647 H 0.65978 0.83407 0.47658
 H648 H 0.55126 0.60301 0.54703
 C649 C 0.63216 0.16240 0.50064
 C650 C 0.64443 0.20254 0.52242
 C651 C 0.62161 0.24486 0.51307
 C652 C 0.64505 0.28439 0.51950
 C653 C 0.62503 0.32488 0.50981
 C654 C 0.58089 0.32655 0.49390
 C655 C 0.55732 0.28712 0.48796
 C656 C 0.57726 0.24672 0.49776
 C657 C 0.55801 0.36836 0.48339
 C658 C 0.56938 0.40926 0.50342
 H659 H 0.67414 0.20452 0.54352
 H660 H 0.67923 0.28387 0.53132
 H661 H 0.64448 0.35448 0.51406
 H662 H 0.52309 0.28763 0.47625
 H663 H 0.55758 0.21726 0.49384
 H664 H 0.52834 0.36588 0.46231
 H665 H 0.60464 0.16288 0.47641
 H666 H 0.59816 0.41195 0.52581
 C667 C 0.36025 0.82551 0.52841
 C668 C 0.34157 0.78346 0.52741
 C669 C 0.36839 0.74262 0.52927
 C670 C 0.35193 0.70371 0.50805
 C671 C 0.37668 0.66460 0.50880
 C672 C 0.41813 0.66370 0.53142
 C673 C 0.43405 0.70231 0.55373
 C674 C 0.40946 0.74149 0.55266
 C675 C 0.44567 0.62343 0.53199
 C676 C 0.43447 0.58538 0.50695
 H677 H 0.30658 0.77938 0.52106
 H678 H 0.32011 0.70374 0.49029
 H679 H 0.36334 0.63520 0.49162
 H680 H 0.46562 0.70223 0.57188
 H681 H 0.42239 0.77057 0.57068
 H682 H 0.47625 0.62434 0.55179
 H683 H 0.39582 0.82755 0.52830
 H684 H 0.45219 0.56169 0.50621
 C685 C 0.35664 0.16050 0.48044
 C686 C 0.35960 0.19767 0.51004
 C687 C 0.38107 0.23918 0.49909
 C688 C 0.39491 0.26824 0.53469
 C689 C 0.41352 0.30868 0.52607
 C690 C 0.41835 0.32110 0.48145
 C691 C 0.40446 0.29217 0.44578
 C692 C 0.38587 0.25158 0.45442
 C693 C 0.43791 0.36371 0.47141
 C694 C 0.45432 0.39213 0.50560
 H695 H 0.34765 0.19643 0.54374
 H696 H 0.39125 0.25964 0.56940
 H697 H 0.42387 0.33019 0.55444
 H698 H 0.40773 0.30112 0.41113
 H699 H 0.37443 0.23066 0.42608
 H700 H 0.44094 0.37214 0.43650
 H701 H 0.37425 0.16082 0.44942
 H702 H 0.46798 0.41563 0.49436
   
