data_POSCAR
  _audit_creation_date              2014-09-24
  _audit_creation_method            'ToBaCCo'
  _symmetry_space_group_name_H-M    'P1'
  _symmetry_Int_Tables_number       1
  _symmetry_cell_setting            triclinic
  loop_
  _symmetry_equiv_pos_as_xyz
 x,y,z
_cell_length_a 55.7507
_cell_length_b 42.2059
_cell_length_c 46.3423
_cell_angle_alpha 89.476400
_cell_angle_beta 85.026800
_cell_angle_gamma 89.907500
loop_
  _atom_site_label
  _atom_site_type_symbol
  _atom_site_fract_x
  _atom_site_fract_y
  _atom_site_fract_z
C1 C 0.61181 0.65404 0.58996
 C2 C 0.63594 0.65449 0.57844
 C3 C 0.65265 0.63578 0.59088
 C4 C 0.64566 0.61660 0.61491
 C5 C 0.62195 0.61574 0.62606
 C6 C 0.60482 0.63461 0.61347
 C7 C 0.59168 0.67026 0.58287
 N8 N 0.57269 0.66102 0.60136
 C9 C 0.58053 0.63916 0.62008
 C10 C 0.62068 0.59534 0.64955
 N11 N 0.64321 0.58406 0.65320
 C12 C 0.65846 0.59704 0.63170
 C13 C 0.67444 0.64032 0.57531
 N14 N 0.67148 0.66119 0.55342
 C15 C 0.64796 0.67023 0.55529
 H16 H 0.59089 0.68752 0.56555
 H17 H 0.56948 0.62796 0.63764
 H18 H 0.60454 0.59041 0.66351
 H19 H 0.67756 0.59259 0.62791
 H20 H 0.69124 0.62906 0.57959
 H21 H 0.64002 0.68626 0.54043
 C22 C 0.86330 0.29846 0.12037
 C23 C 0.84464 0.31964 0.11522
 C24 C 0.83899 0.34395 0.13443
 C25 C 0.85160 0.34729 0.15903
 C26 C 0.86956 0.32601 0.16453
 C27 C 0.87546 0.30144 0.14496
 C28 C 0.87472 0.27510 0.10381
 N29 N 0.89366 0.26367 0.11761
 C30 C 0.89385 0.27965 0.14307
 C31 C 0.87965 0.33634 0.18891
 N32 N 0.86836 0.36350 0.19788
 C33 C 0.85121 0.37037 0.17975
 C34 C 0.82159 0.36222 0.12324
 N35 N 0.81633 0.34960 0.09772
 C36 C 0.83033 0.32350 0.09257
 H37 H 0.86964 0.26772 0.08292
 H38 H 0.90744 0.27768 0.15829
 H39 H 0.89471 0.32573 0.19869
 H40 H 0.83966 0.39105 0.18124
 H41 H 0.81346 0.38335 0.13291
 H42 H 0.83062 0.30903 0.07337
 C43 C 0.39144 0.16891 -0.10144
 C44 C 0.36757 0.15818 -0.09851
 C45 C 0.35981 0.13611 -0.11766
 C46 C 0.37589 0.12493 -0.14039
 C47 C 0.39929 0.13581 -0.14328
 C48 C 0.40713 0.15790 -0.12380
 C49 C 0.40403 0.18987 -0.08584
 N50 N 0.42693 0.19187 -0.09842
 C51 C 0.42893 0.17248 -0.12171
 C52 C 0.41077 0.12163 -0.16711
 N53 N 0.39508 0.10207 -0.17932
 C54 C 0.37355 0.10422 -0.16285
 C55 C 0.33569 0.13077 -0.10987
 N56 N 0.32880 0.14938 -0.08687
 C57 C 0.34809 0.16621 -0.07980
 H58 H 0.39705 0.20282 -0.06688
 H59 H 0.44521 0.16881 -0.13580
 H60 H 0.42924 0.12630 -0.17494
 H61 H 0.35723 0.09162 -0.16639
 H62 H 0.32382 0.11548 -0.12072
 H63 H 0.34778 0.18349 -0.06265
 C64 C 0.10460 0.86248 0.42916
 C65 C 0.12562 0.87136 0.44141
 C66 C 0.13955 0.89601 0.42951
 C67 C 0.13239 0.91228 0.40508
 C68 C 0.11130 0.90395 0.39340
 C69 C 0.09727 0.87875 0.40553
 C70 C 0.09003 0.83644 0.43367
 N71 N 0.07379 0.83617 0.41333
 C72 C 0.07793 0.86248 0.39630
 C73 C 0.11016 0.92139 0.36836
 N74 N 0.13017 0.94002 0.36406
 C75 C 0.14375 0.93446 0.38674
 C76 C 0.16023 0.89672 0.44389
 N77 N 0.15906 0.87303 0.46410
 C78 C 0.13786 0.85756 0.46267
 H79 H 0.09175 0.81867 0.45033
 H80 H 0.06910 0.86802 0.37699
 H81 H 0.09643 0.91865 0.35347
 H82 H 0.16093 0.94516 0.38983
 H83 H 0.17552 0.91218 0.43890
 H84 H 0.13195 0.83710 0.47562
 N85 N 0.07550 0.13325 0.08063
 N86 N 0.06772 0.11898 0.10498
 C87 C 0.04384 0.12386 0.10996
 C88 C 0.03629 0.14182 0.08730
 C89 C 0.05685 0.14728 0.06905
 H90 H 0.03284 0.11573 0.12894
 H91 H 0.05836 0.16195 0.04971
 Cu92 Cu 0.09005 0.09757 0.12871
 Cu93 Cu 0.10966 0.13672 0.06822
 Cu94 Cu 0.14598 0.08173 0.09961
 N95 N 0.11349 0.07650 0.15105
 N96 N 0.13553 0.07092 0.13977
 C97 C 0.14801 0.05648 0.15975
 C98 C 0.13293 0.05272 0.18491
 C99 C 0.11114 0.06563 0.17855
 H100 H 0.16656 0.04892 0.15608
 H101 H 0.09492 0.06735 0.19304
 N102 N 0.15647 0.10583 0.06407
 N103 N 0.14292 0.12761 0.05289
 C104 C 0.15567 0.14187 0.03047
 C105 C 0.17839 0.12848 0.02732
 C106 C 0.17823 0.10555 0.04892
 H107 H 0.14897 0.16086 0.01756
 H108 H 0.19323 0.09092 0.05414
 H109 H 0.11331 0.09153 0.08186
 H110 H 0.12631 0.12192 0.10498
 N111 N 0.39903 0.81894 0.59475
 N112 N 0.41556 0.83861 0.60231
 C113 C 0.43612 0.82254 0.60503
 C114 C 0.43219 0.79099 0.59901
 C115 C 0.40842 0.78958 0.59257
 H116 H 0.45244 0.83289 0.61177
 H117 H 0.39878 0.76887 0.58635
 Cu118 Cu 0.40810 0.88279 0.61018
 Cu119 Cu 0.36729 0.83382 0.58650
 Cu120 Cu 0.35128 0.90960 0.60873
 N121 N 0.39672 0.91996 0.63157
 N122 N 0.37429 0.92978 0.63220
 C123 C 0.37131 0.95462 0.65027
 C124 C 0.39313 0.96064 0.66144
 C125 C 0.40878 0.93815 0.64903
 H126 H 0.35458 0.96734 0.65486
 H127 H 0.42739 0.93449 0.65315
 N128 N 0.32890 0.88072 0.59103
 N129 N 0.33484 0.85137 0.58374
 C130 C 0.31615 0.83757 0.57236
 C131 C 0.29760 0.85927 0.57210
 C132 C 0.30629 0.88647 0.58406
 H133 H 0.31635 0.81388 0.56367
 H134 H 0.29691 0.90877 0.58726
 H135 H 0.37327 0.88200 0.58108
 H136 H 0.36623 0.86730 0.61889
 N137 N 0.90902 0.69229 0.35621
 N138 N 0.92193 0.66927 0.34376
 C139 C 0.94543 0.67636 0.34376
 C140 C 0.94738 0.70559 0.35656
 C141 C 0.92394 0.71520 0.36398
 H142 H 0.96001 0.66049 0.33678
 H143 H 0.91829 0.73564 0.37677
 Cu144 Cu 0.90721 0.63020 0.33221
 Cu145 Cu 0.87449 0.68690 0.36702
 Cu146 Cu 0.86207 0.60721 0.37956
 N147 N 0.89432 0.58763 0.33140
 N148 N 0.87751 0.57819 0.35123
 C149 C 0.87296 0.54729 0.34742
 C150 C 0.88730 0.53710 0.32348
 C151 C 0.90060 0.56333 0.31370
 H152 H 0.85960 0.53359 0.36045
 H153 H 0.91402 0.56451 0.29541
 N154 N 0.84163 0.64176 0.39639
 N155 N 0.84556 0.67207 0.39055
 C156 C 0.82761 0.68928 0.40400
 C157 C 0.81160 0.66869 0.41911
 C158 C 0.82111 0.63881 0.41364
 H159 H 0.82657 0.71485 0.40322
 H160 H 0.81339 0.61638 0.42101
 H161 H 0.88635 0.64424 0.37886
 H162 H 0.86571 0.64250 0.34935
 N163 N 0.60469 0.33690 -0.08116
 N164 N 0.59613 0.34886 -0.10449
 C165 C 0.57415 0.33668 -0.10712
 C166 C 0.56855 0.31612 -0.08409
 C167 C 0.58836 0.31684 -0.06802
 H168 H 0.56296 0.34257 -0.12432
 H169 H 0.59091 0.30341 -0.04853
 Cu170 Cu 0.61459 0.37896 -0.12947
 Cu171 Cu 0.63687 0.34737 -0.07057
 Cu172 Cu 0.65695 0.41971 -0.09883
 N173 N 0.63223 0.41314 -0.15021
 N174 N 0.64928 0.42834 -0.13818
 C175 C 0.65910 0.45017 -0.15687
 C176 C 0.64754 0.44872 -0.18200
 C177 C 0.63042 0.42510 -0.17702
 H178 H 0.67348 0.46608 -0.15237
 H179 H 0.61800 0.41686 -0.19198
 N180 N 0.67010 0.39932 -0.06540
 N181 N 0.66351 0.37097 -0.05547
 C182 C 0.67723 0.36279 -0.03401
 C183 C 0.69311 0.38737 -0.03026
 C184 C 0.68802 0.41005 -0.05055
 H185 H 0.67559 0.34081 -0.02183
 H186 H 0.69725 0.43232 -0.05491
 H187 H 0.62805 0.39141 -0.08212
 H188 H 0.65232 0.37289 -0.10669
 C189 C -0.05440 0.20912 0.11320
 C190 C -0.05191 0.20338 0.08399
 C191 C -0.06774 0.21550 0.06514
 C192 C -0.08667 0.23477 0.07677
 C193 C -0.08926 0.24233 0.10687
 C194 C -0.07287 0.22843 0.12523
 O195 O -0.03708 0.19617 0.12732
 C196 C -0.02319 0.18219 0.10649
 C197 C -0.03136 0.18604 0.07950
 C198 C -0.01857 0.17526 0.05436
 C199 C 0.00361 0.16019 0.05717
 C200 C 0.01228 0.15578 0.08482
 C201 C -0.00152 0.16659 0.10984
 H202 H -0.06533 0.21081 0.04215
 H203 H -0.09839 0.24489 0.06176
 H204 H -0.07412 0.23246 0.14829
 H205 H -0.02512 0.17906 0.03329
 H206 H 0.01411 0.15214 0.03787
 H207 H 0.00495 0.16430 0.13113
 C208 C 0.52093 0.71667 0.59739
 C209 C 0.50186 0.69628 0.60314
 C210 C 0.50492 0.66409 0.60846
 C211 C 0.52860 0.65252 0.60788
 C212 C 0.54855 0.67307 0.60169
 C213 C 0.54455 0.70560 0.59626
 O214 O 0.51422 0.74650 0.59372
 C215 C 0.49038 0.74492 0.59713
 C216 C 0.48187 0.71472 0.60274
 C217 C 0.45742 0.70779 0.60689
 C218 C 0.44112 0.73304 0.60525
 C219 C 0.44949 0.76448 0.59991
 C220 C 0.47454 0.77037 0.59577
 H221 H 0.48965 0.64850 0.61311
 H222 H 0.53146 0.62757 0.61195
 H223 H 0.55943 0.72189 0.59192
 H224 H 0.45112 0.68384 0.61128
 H225 H 0.42203 0.72813 0.60867
 H226 H 0.48153 0.79400 0.59141
 C227 C 1.02241 0.79217 0.38832
 C228 C 1.02714 0.76243 0.39869
 C229 C 1.04644 0.75599 0.41477
 C230 C 1.06170 0.78116 0.42025
 C231 C 1.05790 0.81222 0.40907
 C232 C 1.03773 0.81750 0.39280
 O233 O 1.00261 0.79330 0.37429
 C234 C 0.99487 0.76351 0.37565
 C235 C 1.00946 0.74365 0.39005
 C236 C 1.00521 0.71132 0.39335
 C237 C 0.98497 0.69896 0.38145
 C238 C 0.96926 0.71905 0.36720
 C239 C 0.97423 0.75184 0.36432
 H240 H 1.04969 0.73234 0.42281
 H241 H 1.07703 0.77573 0.43216
 H242 H 1.03363 0.84069 0.38440
 H243 H 1.01707 0.69617 0.40462
 H244 H 0.98119 0.67388 0.38395
 H245 H 0.96251 0.76759 0.35344
 C246 C 0.48177 0.24254 -0.09870
 C247 C 0.48414 0.24464 -0.06947
 C248 C 0.46788 0.23065 -0.04869
 C249 C 0.44853 0.21367 -0.05848
 C250 C 0.44605 0.21064 -0.08856
 C251 C 0.46293 0.22545 -0.10887
 O252 O 0.49898 0.25763 -0.11490
 C253 C 0.51262 0.26940 -0.09553
 C254 C 0.50447 0.26198 -0.06741
 C255 C 0.51656 0.27122 -0.04383
 C256 C 0.53785 0.28886 -0.04950
 C257 C 0.54635 0.29721 -0.07831
 C258 C 0.53345 0.28731 -0.10160
 H259 H 0.47006 0.23263 -0.02580
 H260 H 0.43583 0.20223 -0.04275
 H261 H 0.46137 0.22374 -0.13192
 H262 H 0.50992 0.26493 -0.02188
 H263 H 0.54749 0.29636 -0.03145
 H264 H 0.53964 0.29289 -0.12385
 C265 C 0.12566 -0.01484 0.29612
 C266 C 0.14910 -0.00517 0.29033
 C267 C 0.16684 -0.01196 0.30872
 C268 C 0.16024 -0.02975 0.33393
 C269 C 0.13618 -0.04099 0.34027
 C270 C 0.11871 -0.03278 0.32081
 O271 O 0.11150 -0.00592 0.27593
 C272 C 0.12638 0.00954 0.25685
 C273 C 0.14965 0.01054 0.26451
 C274 C 0.16828 0.02471 0.24708
 C275 C 0.16266 0.03839 0.22072
 C276 C 0.13870 0.03801 0.21256
 C277 C 0.12033 0.02341 0.23104
 H278 H 0.18521 -0.00410 0.30371
 H279 H 0.17432 -0.03555 0.34767
 H280 H 0.10005 -0.03971 0.32462
 H281 H 0.18651 0.02503 0.25344
 H282 H 0.17689 0.04959 0.20690
 H283 H 0.10195 0.02229 0.22527
 C284 C 0.63930 0.52781 -0.28499
 C285 C 0.66315 0.52583 -0.27994
 C286 C 0.68113 0.54199 -0.29652
 C287 C 0.67431 0.56114 -0.31926
 C288 C 0.64965 0.56434 -0.32501
 C289 C 0.63197 0.54704 -0.30729
 O290 O 0.62506 0.51061 -0.26647
 C291 C 0.64032 0.49770 -0.24926
 C292 C 0.66384 0.50644 -0.25653
 C293 C 0.68270 0.49683 -0.24076
 C294 C 0.67706 0.47758 -0.21632
 C295 C 0.65298 0.46803 -0.20841
 C296 C 0.63437 0.47797 -0.22535
 H297 H 0.69980 0.54016 -0.29195
 H298 H 0.68844 0.57422 -0.33148
 H299 H 0.61307 0.54791 -0.31075
 H300 H 0.70103 0.50428 -0.24680
 H301 H 0.69147 0.47002 -0.20360
 H302 H 0.61580 0.47142 -0.21954
 C303 C 0.38788 1.04876 0.75891
 C304 C 0.41128 1.04718 0.74714
 C305 C 0.42994 1.06297 0.75867
 C306 C 0.42433 1.08134 0.78335
 C307 C 0.40020 1.08386 0.79640
 C308 C 0.38177 1.06691 0.78356
 O309 O 0.37294 1.03136 0.74474
 C310 C 0.38736 1.01851 0.72364
 C311 C 0.41099 1.02748 0.72423
 C312 C 0.42930 1.01638 0.70468
 C313 C 0.42305 0.99482 0.68379
 C314 C 0.39883 0.98483 0.68273
 C315 C 0.38067 0.99723 0.70281
 H316 H 0.44830 1.06105 0.74910
 H317 H 0.43925 1.09290 0.79218
 H318 H 0.36313 1.06772 0.79202
 H319 H 0.44779 1.02379 0.70566
 H320 H 0.43716 0.98592 0.66846
 H321 H 0.36209 0.98983 0.70283
 C322 C 0.88102 0.43455 0.24109
 C323 C 0.88206 0.42109 0.26811
 C324 C 0.87984 0.38858 0.27308
 C325 C 0.87616 0.36929 0.24927
 C326 C 0.87422 0.38289 0.22150
 C327 C 0.87691 0.41594 0.21737
 O328 O 0.88317 0.46584 0.24093
 C329 C 0.88540 0.47240 0.26849
 C330 C 0.88460 0.44591 0.28612
 C331 C 0.88495 0.44769 0.31605
 C332 C 0.88603 0.47797 0.32824
 C333 C 0.88725 0.50548 0.31038
 C334 C 0.88721 0.50258 0.28006
 H335 H 0.88065 0.37849 0.29453
 H336 H 0.87399 0.34399 0.25253
 H337 H 0.87551 0.42679 0.19633
 H338 H 0.88386 0.42660 0.32957
 H339 H 0.88591 0.48005 0.35153
 H340 H 0.88753 0.52327 0.26604
 C341 C 0.26982 0.13258 -0.04529
 C342 C 0.25937 0.16213 -0.04578
 C343 C 0.27067 0.18806 -0.05979
 C344 C 0.29376 0.18339 -0.07368
 C345 C 0.30478 0.15312 -0.07372
 C346 C 0.29257 0.12726 -0.05958
 O347 O 0.25652 0.11159 -0.02951
 C348 C 0.23725 0.12824 -0.01993
 C349 C 0.23805 0.15921 -0.02947
 C350 C 0.21989 0.18092 -0.02184
 C351 C 0.20010 0.17034 -0.00356
 C352 C 0.19897 0.13865 0.00704
 C353 C 0.21788 0.11731 -0.00138
 H354 H 0.26222 0.21118 -0.05955
 H355 H 0.30319 0.20323 -0.08437
 H356 H 0.30092 0.10412 -0.05894
 H357 H 0.22099 0.20521 -0.02954
 H358 H 0.18598 0.18711 0.00288
 H359 H 0.21754 0.09299 0.00626
 C360 C 0.72689 0.65883 0.50218
 C361 C 0.72646 0.68849 0.48970
 C362 C 0.70813 0.71021 0.49698
 C363 C 0.68968 0.70094 0.51804
 C364 C 0.68999 0.67051 0.53138
 C365 C 0.70890 0.64924 0.52303
 O366 O 0.74566 0.64156 0.49240
 C367 C 0.75743 0.66068 0.47331
 C368 C 0.74658 0.68973 0.47077
 C369 C 0.75623 0.71324 0.45195
 C370 C 0.77782 0.70638 0.43508
 C371 C 0.78917 0.67637 0.43724
 C372 C 0.77871 0.65338 0.45684
 H373 H 0.70808 0.73344 0.48692
 H374 H 0.67543 0.71758 0.52430
 H375 H 0.70954 0.62566 0.53229
 H376 H 0.74745 0.73599 0.45026
 H377 H 0.78544 0.72427 0.42014
 H378 H 0.78687 0.63041 0.45952
 C379 C 0.76809 0.35655 0.04666
 C380 C 0.76597 0.38897 0.04496
 C381 C 0.78006 0.40952 0.05953
 C382 C 0.79691 0.39611 0.07679
 C383 C 0.79949 0.36273 0.07905
 C384 C 0.78496 0.34269 0.06349
 O385 O 0.75272 0.34138 0.03131
 C386 C 0.74070 0.36477 0.01966
 C387 C 0.74821 0.39432 0.02730
 C388 C 0.73830 0.42217 0.01742
 C389 C 0.72000 0.41950 -0.00132
 C390 C 0.71188 0.38933 -0.00967
 C391 C 0.72231 0.36155 0.00124
 H392 H 0.77805 0.43496 0.05780
 H393 H 0.80809 0.41172 0.08828
 H394 H 0.78638 0.31716 0.06503
 H395 H 0.74451 0.44514 0.02380
 H396 H 0.71209 0.44102 -0.00915
 H397 H 0.71669 0.33820 -0.00490
 C398 C 0.21197 0.87627 0.50880
 C399 C 0.21359 0.84490 0.51664
 C400 C 0.19808 0.82185 0.50794
 C401 C 0.18004 0.83151 0.49053
 C402 C 0.17777 0.86379 0.48211
 C403 C 0.19412 0.88646 0.49141
 O404 O 0.22899 0.89411 0.51882
 C405 C 0.24161 0.87346 0.53320
 C406 C 0.23289 0.84305 0.53247
 C407 C 0.24377 0.81745 0.54515
 C408 C 0.26476 0.82332 0.55881
 C409 C 0.27437 0.85439 0.55966
 C410 C 0.26236 0.87993 0.54703
 H411 H 0.19994 0.79723 0.51411
 H412 H 0.16816 0.81364 0.48318
 H413 H 0.19293 0.91121 0.48542
 H414 H 0.23659 0.79371 0.54415
 H415 H 0.27360 0.80357 0.56854
 H416 H 0.26945 0.90379 0.54691
   
