data_POSCAR
  _audit_creation_date              2014-09-24
  _audit_creation_method            'ToBaCCo'
  _symmetry_space_group_name_H-M    'P1'
  _symmetry_Int_Tables_number       1
  _symmetry_cell_setting            triclinic
  loop_
  _symmetry_equiv_pos_as_xyz
 x,y,z
_cell_length_a 66.9152
_cell_length_b 66.8900
_cell_length_c 37.8464
_cell_angle_alpha 90.083800
_cell_angle_beta 90.234100
_cell_angle_gamma 90.597300
loop_
  _atom_site_label
  _atom_site_type_symbol
  _atom_site_fract_x
  _atom_site_fract_y
  _atom_site_fract_z
O1 O -0.02035 0.27685 0.05634
 O2 O 0.02111 0.27639 -0.00818
 O3 O -0.01818 0.27711 -0.01249
 O4 O 0.01868 0.27644 0.06033
 O5 O 0.01757 0.24346 0.06025
 O6 O -0.01874 0.24414 -0.01285
 O7 O 0.02013 0.24346 -0.00773
 O8 O -0.02089 0.24386 0.05579
 Cu9 Cu 0.00035 0.28003 0.02389
 Cu10 Cu -0.00063 0.24046 0.02365
 C11 C -0.02758 0.26032 0.06721
 C12 C 0.02804 0.25970 -0.01835
 C13 C -0.02487 0.26070 -0.02494
 C14 C 0.02447 0.25979 0.07265
 O15 O 0.52130 0.78050 0.43885
 O16 O 0.48080 0.78115 0.50511
 O17 O 0.52018 0.78180 0.50720
 O18 O 0.48203 0.77998 0.43646
 O19 O 0.48220 0.74702 0.43852
 O20 O 0.52010 0.74883 0.50884
 O21 O 0.48131 0.74819 0.50704
 O22 O 0.52096 0.74752 0.44047
 Cu23 Cu 0.50103 0.78419 0.47175
 Cu24 Cu 0.50113 0.74462 0.47391
 C25 C 0.52814 0.76381 0.42861
 C26 C 0.47408 0.76469 0.51723
 C27 C 0.52686 0.76555 0.51972
 C28 C 0.47549 0.76314 0.42561
 O29 O 0.98112 0.72585 -0.06341
 O30 O 1.02083 0.72312 0.00460
 O31 O 0.98162 0.72357 0.00532
 O32 O 1.02042 0.72520 -0.06386
 O33 O 1.02105 0.75809 -0.06046
 O34 O 0.98248 0.75650 0.00832
 O35 O 1.02122 0.75605 0.00802
 O36 O 0.98230 0.75873 -0.06024
 Cu37 Cu 1.00088 0.72112 -0.02971
 Cu38 Cu 1.00183 0.76060 -0.02579
 C39 C 0.97483 0.74283 -0.07338
 C40 C 1.02784 0.73922 0.01781
 C41 C 0.97537 0.73982 0.01856
 C42 C 1.02758 0.74197 -0.07375
 O43 O 0.51890 0.21820 0.55695
 O44 O 0.47806 0.21772 0.49083
 O45 O 0.51747 0.21841 0.48865
 O46 O 0.47970 0.21746 0.55974
 O47 O 0.47951 0.25044 0.55975
 O48 O 0.51721 0.25137 0.49000
 O49 O 0.47831 0.25070 0.49103
 O50 O 0.51807 0.25118 0.55796
 Cu51 Cu 0.49846 0.21460 0.52391
 Cu52 Cu 0.49815 0.25420 0.52461
 C53 C 0.52557 0.23486 0.56846
 C54 C 0.47119 0.23422 0.47973
 C55 C 0.52420 0.23518 0.47796
 C56 C 0.47319 0.23388 0.57187
 O57 O 0.71395 0.02134 -0.03220
 O58 O 0.71678 -0.02034 0.03195
 O59 O 0.71536 0.01905 0.03627
 O60 O 0.71482 -0.01799 -0.03619
 O61 O 0.74775 -0.01635 -0.03848
 O62 O 0.74830 0.02016 0.03408
 O63 O 0.74964 -0.01868 0.02927
 O64 O 0.74691 0.02222 -0.03438
 Cu65 Cu 0.71190 0.00043 0.00026
 Cu66 Cu 0.75141 0.00205 -0.00246
 C67 C 0.73009 0.02889 -0.04411
 C68 C 0.73383 -0.02702 0.04077
 C69 C 0.73197 0.02611 0.04723
 C70 C 0.73126 -0.02371 -0.04933
 O71 O 0.22069 0.51921 0.47707
 O72 O 0.22234 0.47684 0.53969
 O73 O 0.22244 0.51605 0.54551
 O74 O 0.22119 0.48004 0.47133
 O75 O 0.25413 0.48115 0.46912
 O76 O 0.25538 0.51620 0.54372
 O77 O 0.25525 0.47737 0.53684
 O78 O 0.25365 0.51964 0.47537
 Cu79 Cu 0.21833 0.49801 0.50866
 Cu80 Cu 0.25788 0.49872 0.50622
 C81 C 0.23696 0.52667 0.46562
 C82 C 0.23915 0.46958 0.54827
 C83 C 0.23921 0.52240 0.55705
 C84 C 0.23754 0.47433 0.45777
 O85 O 0.27601 1.01963 0.03915
 O86 O 0.27845 0.97777 -0.02445
 O87 O 0.27672 1.01691 -0.02928
 O88 O 0.27678 0.98042 0.04413
 O89 O 0.24383 0.97962 0.04250
 O90 O 0.24386 1.01475 -0.03168
 O91 O 0.24550 0.97638 -0.02594
 O92 O 0.24313 1.01843 0.03609
 Cu93 Cu 0.28031 0.99878 0.00765
 Cu94 Cu 0.24081 0.99708 0.00521
 C95 C 0.25909 1.02655 0.04782
 C96 C 0.26232 0.96993 -0.03601
 C97 C 0.26017 1.02219 -0.04292
 C98 C 0.26020 0.97373 0.05571
 O99 O 0.77695 0.48093 0.46494
 O100 O 0.77732 0.52139 0.53169
 O101 O 0.77760 0.48220 0.53380
 O102 O 0.77715 0.52005 0.46293
 O103 O 0.74419 0.51956 0.46341
 O104 O 0.74464 0.48197 0.53409
 O105 O 0.74435 0.52070 0.53204
 O106 O 0.74398 0.48086 0.46539
 Cu107 Cu 0.78058 0.50117 0.49833
 Cu108 Cu 0.74101 0.50072 0.49879
 C109 C 0.76031 0.47402 0.45375
 C110 C 0.76081 0.52798 0.54316
 C111 C 0.76115 0.47558 0.54600
 C112 C 0.76055 0.52630 0.45111
 C113 C 0.21303 0.21635 0.22448
 C114 C 0.23343 0.21204 0.22164
 C115 C 0.24753 0.22517 0.23693
 C116 C 0.24138 0.24242 0.25529
 C117 C 0.22073 0.24624 0.25794
 C118 C 0.20656 0.23356 0.24192
 C119 C 0.25636 0.25680 0.27060
 C120 C 0.25192 0.27732 0.27309
 C121 C 0.26549 0.29094 0.28839
 C122 C 0.28417 0.28411 0.29969
 C123 C 0.28927 0.26390 0.29659
 C124 C 0.27515 0.25025 0.28277
 H125 H 0.20210 0.20647 0.21222
 H126 H 0.26326 0.22224 0.23326
 H127 H 0.21547 0.25908 0.27248
 H128 H 0.23796 0.28295 0.26281
 H129 H 0.29459 0.29447 0.31213
 H130 H 0.27892 0.23458 0.28153
 C131 C 0.78705 0.77651 0.18308
 C132 C 0.76665 0.78101 0.18335
 C133 C 0.75319 0.76743 0.19890
 C134 C 0.75995 0.74981 0.21548
 C135 C 0.78065 0.74577 0.21482
 C136 C 0.79414 0.75879 0.19796
 C137 C 0.74543 0.73569 0.23290
 C138 C 0.75003 0.71527 0.23740
 C139 C 0.73662 0.70211 0.25412
 C140 C 0.71797 0.70915 0.26484
 C141 C 0.71276 0.72918 0.26003
 C142 C 0.72674 0.74247 0.24516
 H143 H 0.79751 0.78674 0.17066
 H144 H 0.73742 0.77056 0.19704
 H145 H 0.78659 0.73267 0.22764
 H146 H 0.76389 0.70927 0.22761
 H147 H 0.70765 0.69914 0.27815
 H148 H 0.72278 0.75804 0.24310
 C149 C 0.78238 0.21227 0.22972
 C150 C 0.78932 0.23115 0.24047
 C151 C 0.77591 0.24452 0.25584
 C152 C 0.75540 0.23973 0.25880
 C153 C 0.74871 0.22075 0.24703
 C154 C 0.76221 0.20680 0.23335
 C155 C 0.74119 0.25454 0.27415
 C156 C 0.72372 0.24814 0.29182
 C157 C 0.71063 0.26202 0.30684
 C158 C 0.71528 0.28248 0.30472
 C159 C 0.73274 0.28921 0.28817
 C160 C 0.74532 0.27526 0.27216
 H161 H 0.79260 0.20199 0.21727
 H162 H 0.78173 0.25860 0.26577
 H163 H 0.73306 0.21667 0.24847
 H164 H 0.72051 0.23237 0.29513
 H165 H 0.70544 0.29325 0.31681
 H166 H 0.75828 0.28079 0.25813
 C167 C 0.21232 0.78391 0.21184
 C168 C 0.20704 0.76358 0.21252
 C169 C 0.22091 0.74966 0.22516
 C170 C 0.23960 0.75597 0.23885
 C171 C 0.24419 0.77663 0.23887
 C172 C 0.23094 0.79057 0.22446
 C173 C 0.25439 0.74118 0.25266
 C174 C 0.27506 0.74560 0.25206
 C175 C 0.28904 0.73231 0.26622
 C176 C 0.28239 0.71382 0.27918
 C177 C 0.26203 0.70868 0.27901
 C178 C 0.24808 0.72260 0.26667
 H179 H 0.20213 0.79451 0.20010
 H180 H 0.21698 0.73395 0.22414
 H181 H 0.25805 0.78213 0.25022
 H182 H 0.28054 0.75932 0.24036
 H183 H 0.29304 0.70360 0.29070
 H184 H 0.23236 0.71879 0.26806
 C185 C 0.71889 0.29162 0.72717
 C186 C 0.71332 0.27149 0.73021
 C187 C 0.72712 0.25783 0.74380
 C188 C 0.74600 0.26422 0.75674
 C189 C 0.75098 0.28477 0.75401
 C190 C 0.73775 0.29837 0.73840
 C191 C 0.76032 0.24954 0.77283
 C192 C 0.78104 0.25383 0.77516
 C193 C 0.79434 0.24019 0.79046
 C194 C 0.78708 0.22157 0.80175
 C195 C 0.76675 0.21668 0.79910
 C196 C 0.75343 0.23092 0.78593
 H197 H 0.70869 0.30198 0.71477
 H198 H 0.72281 0.24224 0.74422
 H199 H 0.76498 0.29056 0.76421
 H200 H 0.78719 0.26760 0.76477
 H201 H 0.79720 0.21100 0.81378
 H202 H 0.73772 0.22711 0.78582
 C203 C 0.28830 0.71404 0.70533
 C204 C 0.29346 0.73441 0.70540
 C205 C 0.27966 0.74833 0.71818
 C206 C 0.26121 0.74200 0.73262
 C207 C 0.25675 0.72134 0.73319
 C208 C 0.26993 0.70737 0.71874
 C209 C 0.24659 0.75682 0.74680
 C210 C 0.22588 0.75241 0.74706
 C211 C 0.21214 0.76595 0.76114
 C212 C 0.21906 0.78452 0.77348
 C213 C 0.23943 0.78953 0.77275
 C214 C 0.25315 0.77547 0.76033
 H215 H 0.29840 0.70340 0.69355
 H216 H 0.28346 0.76405 0.71678
 H217 H 0.24310 0.71586 0.74511
 H218 H 0.22019 0.73855 0.73601
 H219 H 0.20862 0.79493 0.78498
 H220 H 0.26889 0.77924 0.76129
 C221 C 0.28404 0.27832 0.72217
 C222 C 0.26363 0.28292 0.72166
 C223 C 0.25002 0.27013 0.73889
 C224 C 0.25672 0.25278 0.75626
 C225 C 0.27732 0.24862 0.75647
 C226 C 0.29098 0.26111 0.73904
 C227 C 0.24238 0.23865 0.77339
 C228 C 0.24621 0.21796 0.77341
 C229 C 0.23354 0.20453 0.79100
 C230 C 0.21647 0.21180 0.80775
 C231 C 0.21222 0.23231 0.80805
 C232 C 0.22521 0.24567 0.79070
 H233 H 0.29459 0.28799 0.70862
 H234 H 0.23420 0.27332 0.73755
 H235 H 0.28290 0.23566 0.77034
 H236 H 0.25906 0.21216 0.75961
 H237 H 0.20663 0.20144 0.82137
 H238 H 0.22231 0.26156 0.79191
 C239 C 0.71510 0.71928 0.69864
 C240 C 0.73382 0.71294 0.71055
 C241 C 0.74712 0.72698 0.72542
 C242 C 0.74244 0.74753 0.72663
 C243 C 0.72364 0.75353 0.71340
 C244 C 0.70973 0.73943 0.70045
 C245 C 0.75707 0.76254 0.74159
 C246 C 0.75058 0.78105 0.75522
 C247 C 0.76429 0.79523 0.76855
 C248 C 0.78458 0.79038 0.77035
 C249 C 0.79144 0.77196 0.75794
 C250 C 0.77774 0.75845 0.74261
 H251 H 0.70485 0.70856 0.68671
 H252 H 0.76100 0.72158 0.73631
 H253 H 0.71957 0.76911 0.71311
 H254 H 0.73489 0.78468 0.75557
 H255 H 0.79500 0.80079 0.78267
 H256 H 0.78349 0.74484 0.73130
 C257 C 0.25519 0.08027 0.10652
 C258 C 0.27386 0.07140 0.10098
 C259 C 0.27522 0.05333 0.08242
 C260 C 0.25788 0.04365 0.06933
 C261 C 0.23917 0.05215 0.07658
 C262 C 0.23788 0.07026 0.09467
 C263 C 0.25356 0.10026 0.12298
 N264 N 0.23700 0.11135 0.11729
 N265 N 0.23537 0.12948 0.13135
 C266 C 0.25018 0.13732 0.15185
 N267 N 0.26678 0.12623 0.15773
 N268 N 0.26849 0.10809 0.14338
 C269 C 0.24778 0.15734 0.16788
 C270 C 0.25866 0.16316 0.19811
 C271 C 0.25459 0.18133 0.21503
 C272 C 0.23967 0.19398 0.20182
 C273 C 0.22968 0.18861 0.17044
 C274 C 0.23359 0.17048 0.15382
 H275 H 0.28746 0.07877 0.10990
 H276 H 0.28990 0.04723 0.07764
 H277 H 0.22542 0.04519 0.06732
 H278 H 0.22324 0.07657 0.09893
 H279 H 0.26972 0.15334 0.20949
 H280 H 0.26250 0.18507 0.23920
 H281 H 0.21851 0.19829 0.15904
 H282 H 0.22523 0.16662 0.13018
 C283 C 0.75865 0.57800 0.61470
 C284 C 0.77668 0.57300 0.59801
 C285 C 0.77762 0.55636 0.57559
 C286 C 0.76051 0.54453 0.56917
 C287 C 0.74269 0.54920 0.58667
 C288 C 0.74179 0.56566 0.60927
 C289 C 0.75697 0.59658 0.63589
 N290 N 0.73983 0.60065 0.65349
 N291 N 0.73754 0.61802 0.67009
 C292 C 0.75228 0.63213 0.66983
 N293 N 0.76958 0.62794 0.65277
 N294 N 0.77188 0.61052 0.63619
 C295 C 0.74879 0.65224 0.68507
 C296 C 0.76305 0.66768 0.68126
 C297 C 0.75857 0.68726 0.69130
 C298 C 0.73974 0.69181 0.70532
 C299 C 0.72595 0.67619 0.71107
 C300 C 0.73042 0.65664 0.70110
 H301 H 0.78997 0.58215 0.60171
 H302 H 0.79158 0.55312 0.56249
 H303 H 0.72927 0.54028 0.58249
 H304 H 0.72766 0.56901 0.62168
 H305 H 0.77738 0.66482 0.66917
 H306 H 0.76946 0.69901 0.68638
 H307 H 0.71144 0.67922 0.72237
 H308 H 0.71915 0.64511 0.70482
 C309 C 0.73938 0.91803 0.09467
 C310 C 0.75635 0.92927 0.08531
 C311 C 0.75445 0.94788 0.06930
 C312 C 0.73546 0.95572 0.06172
 C313 C 0.71841 0.94497 0.07303
 C314 C 0.72038 0.92631 0.08947
 C315 C 0.74180 0.89731 0.10746
 N316 N 0.72733 0.88784 0.12646
 N317 N 0.72978 0.86902 0.13722
 C318 C 0.74665 0.85890 0.12896
 N319 N 0.76099 0.86837 0.10986
 N320 N 0.75863 0.88716 0.09941
 C321 C 0.74987 0.83815 0.14096
 C322 C 0.76376 0.82613 0.12337
 C323 C 0.76846 0.80724 0.13624
 C324 C 0.75963 0.79998 0.16736
 C325 C 0.74503 0.81161 0.18412
 C326 C 0.74012 0.83050 0.17093
 H327 H 0.77121 0.92344 0.08956
 H328 H 0.76800 0.95571 0.06158
 H329 H 0.70354 0.95054 0.06797
 H330 H 0.70703 0.91799 0.09661
 H331 H 0.77125 0.83146 0.09983
 H332 H 0.77933 0.79844 0.12211
 H333 H 0.73802 0.80647 0.20824
 H334 H 0.72935 0.83945 0.18501
 C335 C 0.24220 0.41447 0.60648
 C336 C 0.25946 0.42327 0.59201
 C337 C 0.25850 0.44152 0.57439
 C338 C 0.24019 0.45136 0.57040
 C339 C 0.22296 0.44289 0.58572
 C340 C 0.22399 0.42465 0.60385
 C341 C 0.24337 0.39439 0.62272
 N342 N 0.22929 0.38765 0.64574
 N343 N 0.23072 0.36950 0.66015
 C344 C 0.24615 0.35734 0.65174
 N345 N 0.26009 0.36409 0.62858
 N346 N 0.25875 0.38221 0.61445
 C347 C 0.24841 0.33735 0.66799
 C348 C 0.26125 0.32344 0.65240
 C349 C 0.26534 0.30540 0.66912
 C350 C 0.25687 0.30085 0.70207
 C351 C 0.24314 0.31422 0.71687
 C352 C 0.23891 0.33234 0.69991
 H353 H 0.27377 0.41592 0.59391
 H354 H 0.27206 0.44760 0.56296
 H355 H 0.20863 0.45014 0.58312
 H356 H 0.21044 0.41822 0.61475
 H357 H 0.26852 0.32665 0.62750
 H358 H 0.27556 0.29515 0.65660
 H359 H 0.23640 0.31108 0.74225
 H360 H 0.22890 0.34275 0.71250
 C361 C 0.92294 0.25778 0.13931
 C362 C 0.92788 0.27583 0.12220
 C363 C 0.94432 0.27692 0.09946
 C364 C 0.95596 0.25993 0.09313
 C365 C 0.95132 0.24210 0.11098
 C366 C 0.93509 0.24106 0.13390
 C367 C 0.90463 0.25588 0.16100
 N368 N 0.90080 0.23878 0.17916
 N369 N 0.88362 0.23621 0.19622
 C370 C 0.86949 0.25063 0.19588
 N371 N 0.87346 0.26790 0.17826
 N372 N 0.89068 0.27049 0.16121
 C373 C 0.84959 0.24678 0.21169
 C374 C 0.83418 0.26080 0.20825
 C375 C 0.81477 0.25605 0.21911
 C376 C 0.81035 0.23719 0.23361
 C377 C 0.82593 0.22360 0.23878
 C378 C 0.84534 0.22834 0.22799
 H379 H 0.91886 0.28900 0.12590
 H380 H 0.94758 0.29087 0.08609
 H381 H 0.96012 0.22879 0.10692
 H382 H 0.93178 0.22693 0.14663
 H383 H 0.83693 0.27516 0.19593
 H384 H 0.80302 0.26677 0.21460
 H385 H 0.82301 0.20908 0.25042
 H386 H 0.85686 0.21726 0.23139
 C387 C 0.42350 0.76221 0.58701
 C388 C 0.42773 0.77973 0.56780
 C389 C 0.44460 0.78089 0.54604
 C390 C 0.45738 0.76445 0.54273
 C391 C 0.45340 0.74716 0.56259
 C392 C 0.43675 0.74610 0.58462
 C393 C 0.40499 0.76020 0.60823
 N394 N 0.40249 0.74442 0.63035
 N395 N 0.38546 0.74177 0.64784
 C396 C 0.37012 0.75472 0.64394
 N397 N 0.37267 0.77065 0.62209
 N398 N 0.38977 0.77335 0.60463
 C399 C 0.35076 0.75080 0.66177
 C400 C 0.33378 0.76230 0.65416
 C401 C 0.31522 0.75738 0.66897
 C402 C 0.31327 0.74085 0.69165
 C403 C 0.33038 0.72984 0.70019
 C404 C 0.34886 0.73473 0.68545
 H405 H 0.41787 0.79243 0.56918
 H406 H 0.44728 0.79439 0.53096
 H407 H 0.46302 0.73429 0.56075
 H408 H 0.43399 0.73237 0.59901
 H409 H 0.33471 0.77478 0.63603
 H410 H 0.30227 0.76607 0.66175
 H411 H 0.32942 0.71726 0.71811
 H412 H 0.36161 0.72565 0.69224
 C413 C 0.07726 0.73913 0.09081
 C414 C 0.06455 0.75568 0.08844
 C415 C 0.04829 0.75547 0.06528
 C416 C 0.04415 0.73861 0.04425
 C417 C 0.05636 0.72174 0.04750
 C418 C 0.07286 0.72205 0.07039
 C419 C 0.09548 0.74027 0.11317
 N420 N 0.11046 0.72687 0.10942
 N421 N 0.12743 0.72891 0.12775
 C422 C 0.13007 0.74440 0.15066
 N423 N 0.11495 0.75756 0.15477
 N424 N 0.09805 0.75556 0.13641
 C425 C 0.14942 0.74777 0.16911
 C426 C 0.15153 0.76359 0.19336
 C427 C 0.17012 0.76823 0.20820
 C428 C 0.18709 0.75718 0.19921
 C429 C 0.18491 0.74079 0.17618
 C430 C 0.16624 0.73614 0.16123
 H431 H 0.06748 0.76909 0.10374
 H432 H 0.03907 0.76865 0.06351
 H433 H 0.05353 0.70855 0.03153
 H434 H 0.08231 0.70903 0.07173
 H435 H 0.13890 0.77275 0.20035
 H436 H 0.17130 0.78071 0.22638
 H437 H 0.19776 0.73208 0.16866
 H438 H 0.16514 0.72383 0.14269
 C439 C 0.57797 0.23910 0.63409
 C440 C 0.56423 0.25483 0.63270
 C441 C 0.54687 0.25312 0.61236
 C442 C 0.54268 0.23556 0.59325
 C443 C 0.55587 0.21942 0.59596
 C444 C 0.57343 0.22121 0.61602
 C445 C 0.59739 0.24196 0.65249
 N446 N 0.61260 0.22892 0.64780
 N447 N 0.63052 0.23244 0.66220
 C448 C 0.63396 0.24914 0.68190
 N449 N 0.61865 0.26198 0.68698
 N450 N 0.60079 0.25849 0.67256
 C451 C 0.65415 0.25392 0.69604
 C452 C 0.65723 0.27114 0.71679
 C453 C 0.67638 0.27656 0.72821
 C454 C 0.69296 0.26494 0.71920
 C455 C 0.68990 0.24742 0.69926
 C456 C 0.67068 0.24197 0.68777
 H457 H 0.56719 0.26880 0.64633
 H458 H 0.53692 0.26577 0.61095
 H459 H 0.55303 0.20571 0.58142
 H460 H 0.58364 0.20877 0.61672
 H461 H 0.64487 0.28063 0.72390
 H462 H 0.67823 0.28994 0.74409
 H463 H 0.70242 0.23824 0.69172
 H464 H 0.66885 0.22863 0.67179
 C465 C 0.73209 0.08140 0.89098
 C466 C 0.74732 0.06712 0.88933
 C467 C 0.74621 0.04972 0.90945
 C468 C 0.72971 0.04600 0.93132
 C469 C 0.71390 0.05965 0.93159
 C470 C 0.71515 0.07730 0.91177
 C471 C 0.73477 0.10092 0.87302
 N472 N 0.72285 0.11667 0.88064
 N473 N 0.72655 0.13466 0.86680
 C474 C 0.74231 0.13761 0.84479
 N475 N 0.75396 0.12176 0.83674
 N476 N 0.75029 0.10384 0.85058
 C477 C 0.74756 0.15782 0.83142
 C478 C 0.76447 0.16051 0.80995
 C479 C 0.77045 0.17958 0.79927
 C480 C 0.75967 0.19648 0.80967
 C481 C 0.74244 0.19384 0.83032
 C482 C 0.73646 0.17469 0.84117
 H483 H 0.76056 0.06971 0.87356
 H484 H 0.75854 0.03937 0.90855
 H485 H 0.70104 0.05714 0.94835
 H486 H 0.70312 0.08795 0.91346
 H487 H 0.77334 0.14789 0.80174
 H488 H 0.78359 0.18114 0.78284
 H489 H 0.73390 0.20663 0.83884
 H490 H 0.72337 0.17316 0.85771
 C491 C 0.23774 0.57810 0.39743
 C492 C 0.25431 0.56542 0.39965
 C493 C 0.25386 0.54861 0.42140
 C494 C 0.23674 0.54387 0.44112
 C495 C 0.21990 0.55616 0.43817
 C496 C 0.22045 0.57321 0.41672
 C497 C 0.23900 0.59664 0.37609
 N498 N 0.22558 0.61158 0.38020
 N499 N 0.22764 0.62871 0.36252
 C500 C 0.24313 0.63156 0.33990
 N501 N 0.25633 0.61649 0.33548
 N502 N 0.25433 0.59944 0.35319
 C503 C 0.24644 0.65100 0.32190
 C504 C 0.26203 0.65312 0.29738
 C505 C 0.26658 0.67173 0.28275
 C506 C 0.25568 0.68873 0.29223
 C507 C 0.23952 0.68655 0.31557
 C508 C 0.23495 0.66785 0.33030
 H509 H 0.26789 0.56873 0.38524
 H510 H 0.26704 0.53937 0.42296
 H511 H 0.20651 0.55288 0.45316
 H512 H 0.20741 0.58264 0.41547
 H513 H 0.27107 0.64047 0.28994
 H514 H 0.27887 0.67290 0.26431
 H515 H 0.23092 0.69942 0.32345
 H516 H 0.22282 0.66673 0.34906
 C517 C 0.26274 0.91942 0.89357
 C518 C 0.24585 0.93163 0.89618
 C519 C 0.24588 0.94812 0.91874
 C520 C 0.26291 0.95300 0.93888
 C521 C 0.28005 0.94120 0.93559
 C522 C 0.27992 0.92444 0.91333
 C523 C 0.26193 0.90117 0.87137
 N524 N 0.27546 0.88633 0.87549
 N525 N 0.27372 0.86935 0.85714
 C526 C 0.25843 0.86658 0.83382
 N527 N 0.24514 0.88157 0.82936
 N528 N 0.24683 0.89846 0.84774
 C529 C 0.25533 0.84722 0.81536
 C530 C 0.23984 0.84513 0.79039
 C531 C 0.23525 0.82651 0.77571
 C532 C 0.24602 0.80950 0.78557
 C533 C 0.26217 0.81165 0.80917
 C534 C 0.26677 0.83036 0.82398
 H535 H 0.23234 0.92818 0.88143
 H536 H 0.23249 0.95701 0.92056
 H537 H 0.29338 0.94461 0.95088
 H538 H 0.29319 0.91536 0.91179
 H539 H 0.23085 0.85780 0.78277
 H540 H 0.22297 0.82532 0.75708
 H541 H 0.27067 0.79875 0.81730
 H542 H 0.27883 0.83146 0.84307
 C543 C 0.75754 0.42473 0.38050
 C544 C 0.74058 0.43633 0.38728
 C545 C 0.74165 0.45253 0.41051
 C546 C 0.75974 0.45767 0.42734
 C547 C 0.77691 0.44658 0.41963
 C548 C 0.77580 0.43021 0.39655
 C549 C 0.75574 0.40637 0.35864
 N550 N 0.77098 0.39315 0.35670
 N551 N 0.76863 0.37581 0.33970
 C552 C 0.75097 0.37098 0.32384
 N553 N 0.73590 0.38439 0.32517
 N554 N 0.73824 0.40169 0.34217
 C555 C 0.74745 0.35076 0.30869
 C556 C 0.72853 0.34541 0.29514
 C557 C 0.72410 0.32557 0.28628
 C558 C 0.73851 0.31065 0.29064
 C559 C 0.75786 0.31620 0.30169
 C560 C 0.76228 0.33605 0.31067
 H561 H 0.72627 0.43260 0.37540
 H562 H 0.72819 0.46087 0.41566
 H563 H 0.79107 0.45020 0.43216
 H564 H 0.78917 0.42164 0.39183
 H565 H 0.71680 0.35637 0.29284
 H566 H 0.70915 0.32175 0.27730
 H567 H 0.76922 0.30498 0.30549
 H568 H 0.77705 0.33965 0.32078
 C569 C 0.08131 0.25678 0.92214
 C570 C 0.07266 0.27540 0.92915
 C571 C 0.05467 0.27650 0.94795
 C572 C 0.04492 0.25895 0.95970
 C573 C 0.05319 0.24035 0.95076
 C574 C 0.07117 0.23931 0.93251
 C575 C 0.10132 0.25521 0.90600
 N576 N 0.11254 0.23882 0.91241
 N577 N 0.13063 0.23708 0.89847
 C578 C 0.13830 0.25159 0.87736
 N579 N 0.12709 0.26803 0.87076
 N580 N 0.10898 0.26987 0.88503
 C581 C 0.15823 0.24891 0.86139
 C582 C 0.16359 0.25847 0.82970
 C583 C 0.18156 0.25373 0.81282
 C584 C 0.19444 0.23946 0.82752
 C585 C 0.18957 0.23094 0.86031
 C586 C 0.17166 0.23550 0.87689
 H587 H 0.08017 0.28911 0.92136
 H588 H 0.04874 0.29111 0.95405
 H589 H 0.04615 0.22644 0.95886
 H590 H 0.07731 0.22472 0.92701
 H591 H 0.15352 0.26890 0.81719
 H592 H 0.18495 0.26054 0.78757
 H593 H 0.19946 0.22034 0.87283
 H594 H 0.16814 0.22818 0.90164
 C595 C 0.57957 0.75999 0.36132
 C596 C 0.56616 0.74377 0.36450
 C597 C 0.54918 0.74528 0.38554
 C598 C 0.54501 0.76311 0.40356
 C599 C 0.55790 0.77964 0.39924
 C600 C 0.57510 0.77805 0.37849
 C601 C 0.59856 0.75750 0.34179
 N602 N 0.61376 0.77103 0.34504
 N603 N 0.63131 0.76789 0.32954
 C604 C 0.63437 0.75111 0.31008
 N605 N 0.61906 0.73778 0.30642
 N606 N 0.60156 0.74089 0.32196
 C607 C 0.65424 0.74668 0.29484
 C608 C 0.65686 0.72929 0.27454
 C609 C 0.67578 0.72400 0.26263
 C610 C 0.69259 0.73592 0.27066
 C611 C 0.68996 0.75371 0.28980
 C612 C 0.67096 0.75903 0.30184
 H613 H 0.56909 0.72964 0.35165
 H614 H 0.53946 0.73232 0.38821
 H615 H 0.55508 0.79355 0.41292
 H616 H 0.58508 0.79085 0.37644
 H617 H 0.64435 0.71950 0.26833
 H618 H 0.67730 0.71039 0.24735
 H619 H 0.70267 0.76314 0.29649
 H620 H 0.66947 0.77253 0.31737
 C621 C 0.92626 0.74750 0.85500
 C622 C 0.93289 0.72863 0.86605
 C623 C 0.94932 0.72697 0.88885
 C624 C 0.95932 0.74419 0.90158
 C625 C 0.95295 0.76302 0.88959
 C626 C 0.93674 0.76462 0.86651
 C627 C 0.90789 0.74957 0.83334
 N628 N 0.90303 0.76753 0.81921
 N629 N 0.88574 0.76995 0.80231
 C630 C 0.87252 0.75453 0.79884
 N631 N 0.87752 0.73646 0.81244
 N632 N 0.89486 0.73401 0.82928
 C633 C 0.85242 0.75792 0.78345
 C634 C 0.83736 0.74316 0.78576
 C635 C 0.81771 0.74741 0.77578
 C636 C 0.81271 0.76648 0.76319
 C637 C 0.82799 0.78082 0.75886
 C638 C 0.84760 0.77660 0.76889
 H639 H 0.92520 0.71514 0.85749
 H640 H 0.95379 0.71219 0.89726
 H641 H 0.96028 0.77666 0.89842
 H642 H 0.93207 0.77940 0.85854
 H643 H 0.84054 0.72860 0.79676
 H644 H 0.80625 0.73608 0.77965
 H645 H 0.82466 0.79553 0.74860
 H646 H 0.85886 0.78825 0.76630
 C647 C 0.42053 0.23650 0.40953
 C648 C 0.42501 0.21872 0.42760
 C649 C 0.44190 0.21768 0.44949
 C650 C 0.45445 0.23447 0.45410
 C651 C 0.45023 0.25203 0.43536
 C652 C 0.43356 0.25300 0.41318
 C653 C 0.40196 0.23834 0.38832
 N654 N 0.39920 0.25449 0.36725
 N655 N 0.38205 0.25700 0.34999
 C656 C 0.36685 0.24352 0.35308
 N657 N 0.36967 0.22720 0.37382
 N658 N 0.38689 0.22465 0.39104
 C659 C 0.34729 0.24735 0.33590
 C660 C 0.33048 0.23518 0.34287
 C661 C 0.31167 0.24011 0.32922
 C662 C 0.30933 0.25732 0.30840
 C663 C 0.32628 0.26896 0.30026
 C664 C 0.34500 0.26405 0.31382
 H665 H 0.41533 0.20572 0.42522
 H666 H 0.44477 0.20395 0.46368
 H667 H 0.45969 0.26518 0.43820
 H668 H 0.43060 0.26693 0.39969
 H669 H 0.33171 0.22219 0.35975
 H670 H 0.29885 0.23092 0.33605
 H671 H 0.32498 0.28210 0.28374
 H672 H 0.35761 0.27365 0.30754
 C673 C 0.73405 0.92671 0.87860
 C674 C 0.71643 0.93042 0.89752
 C675 C 0.71511 0.94713 0.91969
 C676 C 0.73147 0.96029 0.92367
 C677 C 0.74878 0.95699 0.90373
 C678 C 0.75001 0.94048 0.88129
 C679 C 0.73641 0.90803 0.85792
 N680 N 0.75257 0.90557 0.83685
 N681 N 0.75561 0.88830 0.82033
 C682 C 0.74268 0.87268 0.82423
 N683 N 0.72636 0.87520 0.84496
 N684 N 0.72328 0.89253 0.86143
 C685 C 0.74705 0.85305 0.80783
 C686 C 0.73535 0.83600 0.81546
 C687 C 0.74061 0.81723 0.80212
 C688 C 0.75767 0.81517 0.78094
 C689 C 0.76893 0.83231 0.77239
 C690 C 0.76371 0.85100 0.78566
 H691 H 0.70382 0.92018 0.89587
 H692 H 0.70159 0.94927 0.93482
 H693 H 0.76159 0.96693 0.90612
 H694 H 0.76379 0.93813 0.86706
 H695 H 0.72243 0.83704 0.83246
 H696 H 0.73171 0.80427 0.80932
 H697 H 0.78194 0.83124 0.75558
 H698 H 0.77297 0.86380 0.77895
 C699 C 0.23947 0.42635 0.38224
 C700 C 0.22155 0.43074 0.39981
 C701 C 0.22056 0.44696 0.42314
 C702 C 0.23752 0.45900 0.42956
 C703 C 0.25512 0.45519 0.41071
 C704 C 0.25606 0.43912 0.38723
 C705 C 0.24147 0.40777 0.36117
 N706 N 0.25881 0.40373 0.34419
 N707 N 0.26145 0.38622 0.32819
 C708 C 0.24686 0.37195 0.32850
 N709 N 0.22936 0.37613 0.34490
 N710 N 0.22671 0.39366 0.36088
 C711 C 0.25067 0.35173 0.31403
 C712 C 0.23634 0.33634 0.31744
 C713 C 0.24088 0.31674 0.30774
 C714 C 0.25985 0.31208 0.29442
 C715 C 0.27383 0.32762 0.28939
 C716 C 0.26929 0.34722 0.29904
 H717 H 0.20845 0.42129 0.39641
 H718 H 0.20678 0.44954 0.43727
 H719 H 0.26841 0.46430 0.41485
 H720 H 0.27008 0.43629 0.37404
 H721 H 0.22183 0.33927 0.32879
 H722 H 0.22984 0.30506 0.31218
 H723 H 0.28845 0.32454 0.27863
 H724 H 0.28064 0.35871 0.29573
 C725 C 0.25741 0.06883 0.88173
 C726 C 0.27591 0.06311 0.89604
 C727 C 0.27705 0.04714 0.91986
 C728 C 0.25964 0.03674 0.93031
 C729 C 0.24130 0.04199 0.91465
 C730 C 0.24023 0.05773 0.89061
 C731 C 0.25558 0.08713 0.85991
 N732 N 0.23780 0.09187 0.84485
 N733 N 0.23540 0.10925 0.82840
 C734 C 0.25068 0.12271 0.82628
 N735 N 0.26862 0.11780 0.84066
 N736 N 0.27103 0.10038 0.85710
 C737 C 0.24718 0.14300 0.81187
 C738 C 0.26236 0.15769 0.81278
 C739 C 0.25818 0.17753 0.80410
 C740 C 0.23872 0.18309 0.79440
 C741 C 0.22385 0.16822 0.79142
 C742 C 0.22803 0.14839 0.79998
 H743 H 0.28946 0.07127 0.88954
 H744 H 0.29148 0.04349 0.93106
 H745 H 0.22755 0.03427 0.92152
 H746 H 0.22573 0.06163 0.88002
 H747 H 0.27729 0.15406 0.82166
 H748 H 0.26991 0.18871 0.80682
 H749 H 0.20880 0.17204 0.78348
 H750 H 0.21601 0.13746 0.79859
 C751 C 0.75856 0.57284 0.37272
 C752 C 0.77671 0.56801 0.38935
 C753 C 0.77751 0.55256 0.41420
 C754 C 0.76014 0.54175 0.42317
 C755 C 0.74211 0.54629 0.40596
 C756 C 0.74135 0.56157 0.38094
 C757 C 0.75722 0.59016 0.34843
 N758 N 0.74007 0.59374 0.33035
 N759 N 0.73822 0.61009 0.31065
 C760 C 0.75344 0.62360 0.30815
 N761 N 0.77074 0.61986 0.32577
 N762 N 0.77261 0.60346 0.34544
 C763 C 0.75049 0.64279 0.28933
 C764 C 0.76503 0.65811 0.29107
 C765 C 0.76096 0.67715 0.27774
 C766 C 0.74228 0.68124 0.26245
 C767 C 0.72826 0.66559 0.25865
 C768 C 0.73232 0.64659 0.27192
 H769 H 0.79026 0.57634 0.38355
 H770 H 0.79163 0.54940 0.42699
 H771 H 0.72849 0.53815 0.41212
 H772 H 0.72711 0.56486 0.36869
 H773 H 0.77921 0.65569 0.30414
 H774 H 0.77200 0.68895 0.28119
 H775 H 0.71387 0.66824 0.24642
 H776 H 0.72087 0.63510 0.26967
 C777 C 0.07624 0.74485 0.85503
 C778 C 0.06675 0.76235 0.86634
 C779 C 0.05048 0.76135 0.88926
 C780 C 0.04306 0.74279 0.90122
 C781 C 0.05205 0.72521 0.88863
 C782 C 0.06856 0.72625 0.86604
 C783 C 0.09472 0.74621 0.83360
 N784 N 0.10708 0.73032 0.83045
 N785 N 0.12454 0.73214 0.81383
 C786 C 0.13031 0.74989 0.79950
 N787 N 0.11774 0.76564 0.80205
 N788 N 0.10035 0.76384 0.81876
 C789 C 0.15057 0.75266 0.78437
 C790 C 0.15601 0.77093 0.76858
 C791 C 0.17582 0.77479 0.75908
 C792 C 0.19068 0.76051 0.76520
 C793 C 0.18505 0.74175 0.77881
 C794 C 0.16519 0.73785 0.78828
 H795 H 0.07226 0.77693 0.85840
 H796 H 0.04394 0.77525 0.89800
 H797 H 0.04677 0.71062 0.89702
 H798 H 0.07547 0.71249 0.85762
 H799 H 0.14511 0.78258 0.76470
 H800 H 0.17965 0.78925 0.74801
 H801 H 0.19619 0.73048 0.78400
 H802 H 0.16152 0.72359 0.80023
 C803 C 0.57703 0.23881 0.41421
 C804 C 0.56850 0.22004 0.42196
 C805 C 0.55072 0.21871 0.44132
 C806 C 0.54111 0.23614 0.45289
 C807 C 0.54906 0.25484 0.44312
 C808 C 0.56682 0.25615 0.42417
 C809 C 0.59710 0.24065 0.39827
 N810 N 0.60801 0.25762 0.40333
 N811 N 0.62635 0.25942 0.39029
 C812 C 0.63459 0.24435 0.37148
 N813 N 0.62367 0.22734 0.36613
 N814 N 0.60531 0.22547 0.37950
 C815 C 0.65491 0.24688 0.35689
 C816 C 0.66111 0.23620 0.32694
 C817 C 0.67960 0.24052 0.31125
 C818 C 0.69220 0.25548 0.32547
 C819 C 0.68644 0.26521 0.35666
 C820 C 0.66798 0.26108 0.37201
 H821 H 0.57603 0.20643 0.41455
 H822 H 0.54494 0.20408 0.44840
 H823 H 0.54201 0.26857 0.45135
 H824 H 0.57285 0.27084 0.41814
 H825 H 0.65133 0.22515 0.31478
 H826 H 0.68364 0.23279 0.28720
 H827 H 0.69606 0.27639 0.36886
 H828 H 0.66380 0.26928 0.39550
 C829 C 0.92773 0.25992 0.89775
 C830 C 0.93857 0.24252 0.90516
 C831 C 0.95428 0.24291 0.92959
 C832 C 0.95966 0.26075 0.94697
 C833 C 0.94938 0.27834 0.93855
 C834 C 0.93352 0.27792 0.91431
 C835 C 0.90977 0.25894 0.87465
 N836 N 0.89697 0.27454 0.87272
 N837 N 0.87996 0.27298 0.85442
 C838 C 0.87506 0.25577 0.83716
 N839 N 0.88806 0.24033 0.83855
 N840 N 0.90503 0.24187 0.85690
 C841 C 0.85521 0.25315 0.82004
 C842 C 0.85021 0.23508 0.80296
 C843 C 0.83067 0.23134 0.79144
 C844 C 0.81566 0.24555 0.79671
 C845 C 0.82091 0.26414 0.81162
 C846 C 0.84048 0.26790 0.82318
 H847 H 0.93456 0.22839 0.89290
 H848 H 0.96197 0.22912 0.93533
 H849 H 0.95318 0.29233 0.95149
 H850 H 0.92556 0.29162 0.90911
 H851 H 0.86120 0.22347 0.79965
 H852 H 0.82713 0.21701 0.77945
 H853 H 0.80963 0.27534 0.81618
 H854 H 0.84382 0.28202 0.83604
 C855 C 0.42615 0.75901 0.35268
 C856 C 0.43796 0.74224 0.35993
 C857 C 0.45436 0.74376 0.38273
 C858 C 0.45946 0.76212 0.39859
 C859 C 0.44828 0.77912 0.39005
 C860 C 0.43174 0.77757 0.36743
 C861 C 0.40736 0.75675 0.33208
 N862 N 0.39396 0.77185 0.33045
 N863 N 0.37624 0.76913 0.31490
 C864 C 0.37117 0.75122 0.30023
 N865 N 0.38475 0.73627 0.30121
 N866 N 0.40244 0.73898 0.31680
 C867 C 0.35068 0.74741 0.28655
 C868 C 0.34542 0.72862 0.27239
 C869 C 0.32554 0.72403 0.26409
 C870 C 0.31045 0.73812 0.26975
 C871 C 0.31584 0.75729 0.28193
 C872 C 0.33575 0.76190 0.29022
 H873 H 0.43415 0.72772 0.34899
 H874 H 0.46277 0.73041 0.38857
 H875 H 0.45186 0.79349 0.40183
 H876 H 0.42303 0.79081 0.36226
 H877 H 0.35656 0.71717 0.26883
 H878 H 0.32187 0.70925 0.25412
 H879 H 0.30454 0.76842 0.28681
 H880 H 0.33925 0.77654 0.30093
 C881 C 0.25741 0.92607 0.13174
 C882 C 0.27569 0.93126 0.11574
 C883 C 0.27687 0.94734 0.09217
 C884 C 0.25976 0.95842 0.08389
 C885 C 0.24172 0.95377 0.10103
 C886 C 0.24058 0.93786 0.12479
 C887 C 0.25541 0.90766 0.15329
 N888 N 0.23792 0.90319 0.16971
 N889 N 0.23534 0.88578 0.18614
 C890 C 0.25012 0.87203 0.18685
 N891 N 0.26778 0.87665 0.17104
 N892 N 0.27037 0.89410 0.15464
 C893 C 0.24635 0.85178 0.20150
 C894 C 0.26066 0.83666 0.19806
 C895 C 0.25599 0.81692 0.20726
 C896 C 0.23692 0.81187 0.22012
 C897 C 0.22304 0.82718 0.22556
 C898 C 0.22770 0.84690 0.21638
 H899 H 0.28897 0.92256 0.12065
 H900 H 0.29098 0.95058 0.07939
 H901 H 0.22831 0.96213 0.09542
 H902 H 0.22628 0.93438 0.13668
 H903 H 0.27519 0.83987 0.18683
 H904 H 0.26696 0.80544 0.20255
 H905 H 0.20835 0.82379 0.23600
 H906 H 0.21638 0.85819 0.21978
 C907 C 0.76007 0.42887 0.62417
 C908 C 0.77799 0.43397 0.60693
 C909 C 0.77851 0.44950 0.58218
 C910 C 0.76109 0.46010 0.57391
 C911 C 0.74331 0.45531 0.59176
 C912 C 0.74283 0.43996 0.61670
 C913 C 0.75896 0.41142 0.64826
 N914 N 0.74209 0.40762 0.66702
 N915 N 0.74035 0.39112 0.68643
 C916 C 0.75539 0.37767 0.68794
 N917 N 0.77242 0.38163 0.66967
 N918 N 0.77418 0.39818 0.65030
 C919 C 0.75243 0.35826 0.70624
 C920 C 0.76665 0.34300 0.70338
 C921 C 0.76239 0.32376 0.71590
 C922 C 0.74383 0.31940 0.73148
 C923 C 0.73021 0.33497 0.73655
 C924 C 0.73446 0.35418 0.72410
 H925 H 0.79155 0.42577 0.61214
 H926 H 0.79244 0.45285 0.56887
 H927 H 0.72966 0.46329 0.58616
 H928 H 0.72876 0.43646 0.62943
 H929 H 0.78069 0.34564 0.68996
 H930 H 0.77313 0.31202 0.71150
 H931 H 0.71592 0.33209 0.74901
 H932 H 0.72326 0.36561 0.72722
 C933 C 0.73465 0.07506 0.12094
 C934 C 0.75138 0.06291 0.11544
 C935 C 0.75031 0.04665 0.09231
 C936 C 0.73241 0.04197 0.07451
 C937 C 0.71541 0.05354 0.08116
 C938 C 0.71656 0.07001 0.10398
 C939 C 0.73654 0.09348 0.14258
 N940 N 0.72249 0.10798 0.14095
 N941 N 0.72505 0.12519 0.15830
 C942 C 0.74173 0.12858 0.17811
 N943 N 0.75559 0.11393 0.18016
 N944 N 0.75307 0.09678 0.16274
 C945 C 0.74553 0.14823 0.19523
 C946 C 0.76240 0.15099 0.21701
 C947 C 0.76732 0.16987 0.23029
 C948 C 0.75554 0.18651 0.22212
 C949 C 0.73816 0.18368 0.20168
 C950 C 0.73320 0.16471 0.18834
 H951 H 0.76556 0.06635 0.12805
 H952 H 0.76363 0.03796 0.08784
 H953 H 0.70142 0.05032 0.06772
 H954 H 0.70337 0.07899 0.10779
 H955 H 0.77212 0.13863 0.22323
 H956 H 0.78059 0.17154 0.24656
 H957 H 0.72885 0.19625 0.19483
 H958 H 0.72008 0.16310 0.17169
 C959 C 0.24303 0.57041 0.63250
 C960 C 0.25981 0.55867 0.62509
 C961 C 0.25836 0.54260 0.60161
 C962 C 0.24006 0.53775 0.58523
 C963 C 0.22303 0.54877 0.59409
 C964 C 0.22451 0.56499 0.61738
 C965 C 0.24528 0.58907 0.65343
 N966 N 0.23019 0.60247 0.65515
 N967 N 0.23294 0.62016 0.67076
 C968 C 0.25089 0.62519 0.68538
 N969 N 0.26582 0.61161 0.68434
 N970 N 0.26308 0.59395 0.66870
 C971 C 0.25474 0.64569 0.69898
 C972 C 0.27362 0.65097 0.71280
 C973 C 0.27824 0.67087 0.72091
 C974 C 0.26411 0.68596 0.71541
 C975 C 0.24486 0.68053 0.70359
 C976 C 0.24022 0.66062 0.69549
 H977 H 0.27430 0.56234 0.63633
 H978 H 0.27173 0.53430 0.59553
 H979 H 0.20871 0.54538 0.58191
 H980 H 0.21126 0.57363 0.62268
 H981 H 0.28510 0.63985 0.71621
 H982 H 0.29308 0.67456 0.73059
 H983 H 0.23369 0.69183 0.69886
 H984 H 0.22552 0.65709 0.68504
 C985 C 0.92724 0.73986 0.09387
 C986 C 0.93875 0.75722 0.08784
 C987 C 0.95458 0.75705 0.06394
 C988 C 0.95944 0.73948 0.04564
 C989 C 0.94841 0.72192 0.05251
 C990 C 0.93242 0.72213 0.07627
 C991 C 0.90930 0.74068 0.11678
 N992 N 0.89619 0.72505 0.11836
 N993 N 0.87927 0.72649 0.13663
 C994 C 0.87477 0.74359 0.15420
 N995 N 0.88808 0.75905 0.15316
 N996 N 0.90496 0.75762 0.13487
 C997 C 0.85498 0.74614 0.17118
 C998 C 0.85004 0.76447 0.18696
 C999 C 0.83050 0.76813 0.19785
 C1000 C 0.81546 0.75353 0.19337
 C1001 C 0.82067 0.73469 0.18005
 C1002 C 0.84024 0.73102 0.16900
 H1003 H 0.93522 0.77115 0.10091
 H1004 H 0.96286 0.77081 0.05943
 H1005 H 0.95180 0.70814 0.03885
 H1006 H 0.92392 0.70847 0.08036
 H1007 H 0.86103 0.77638 0.18948
 H1008 H 0.82694 0.78270 0.20851
 H1009 H 0.80935 0.72320 0.17613
 H1010 H 0.84354 0.71668 0.15721
 C1011 C 0.42588 0.23576 0.64826
 C1012 C 0.43806 0.25263 0.64208
 C1013 C 0.45375 0.25177 0.61803
 C1014 C 0.45780 0.23398 0.59978
 C1015 C 0.44631 0.21681 0.60716
 C1016 C 0.43042 0.21771 0.63107
 C1017 C 0.40771 0.23758 0.67025
 N1018 N 0.39398 0.22250 0.67180
 N1019 N 0.37667 0.22501 0.68843
 C1020 C 0.37237 0.24270 0.70426
 N1021 N 0.38630 0.25758 0.70340
 N1022 N 0.40358 0.25508 0.68678
 C1023 C 0.35220 0.24646 0.71872
 C1024 C 0.34716 0.26563 0.73091
 C1025 C 0.32742 0.27013 0.73930
 C1026 C 0.31229 0.25555 0.73589
 C1027 C 0.31749 0.23605 0.72597
 C1028 C 0.33724 0.23154 0.71741
 H1029 H 0.43508 0.26676 0.65491
 H1030 H 0.46248 0.26521 0.61318
 H1031 H 0.44912 0.20288 0.59352
 H1032 H 0.42139 0.20441 0.63533
 H1033 H 0.35831 0.27744 0.73257
 H1034 H 0.32385 0.28521 0.74740
 H1035 H 0.30610 0.22454 0.72293
 H1036 H 0.34060 0.21660 0.70832
 C1037 C 0.07152 0.25718 0.15031
 C1038 C 0.06653 0.27549 0.13450
 C1039 C 0.05077 0.27653 0.11016
 C1040 C 0.03978 0.25926 0.10097
 C1041 C 0.04429 0.24114 0.11778
 C1042 C 0.05991 0.24013 0.14225
 C1043 C 0.08959 0.25545 0.17290
 N1044 N 0.09418 0.23778 0.18840
 N1045 N 0.11138 0.23554 0.20567
 C1046 C 0.12477 0.25088 0.20821
 N1047 N 0.12000 0.26870 0.19338
 N1048 N 0.10276 0.27095 0.17613
 C1049 C 0.14497 0.24752 0.22323
 C1050 C 0.15972 0.26264 0.22188
 C1051 C 0.17960 0.25842 0.23031
 C1052 C 0.18513 0.23901 0.24022
 C1053 C 0.17017 0.22430 0.24411
 C1054 C 0.15030 0.22852 0.23576
 H1055 H 0.07510 0.28893 0.14021
 H1056 H 0.04763 0.29073 0.09770
 H1057 H 0.03600 0.22760 0.11148
 H1058 H 0.06327 0.22578 0.15396
 H1059 H 0.15614 0.27748 0.21257
 H1060 H 0.19084 0.27002 0.22689
 H1061 H 0.17397 0.20930 0.25225
 H1062 H 0.13931 0.21657 0.23757
 C1063 C 0.57701 0.76469 0.59098
 C1064 C 0.57244 0.78218 0.57216
 C1065 C 0.55559 0.78282 0.55015
 C1066 C 0.54316 0.76589 0.54620
 C1067 C 0.54736 0.74867 0.56592
 C1068 C 0.56400 0.74811 0.58822
 C1069 C 0.59578 0.76315 0.61170
 N1070 N 0.59889 0.74720 0.63308
 N1071 N 0.61628 0.74490 0.64967
 C1072 C 0.63138 0.75840 0.64555
 N1073 N 0.62821 0.77452 0.62452
 N1074 N 0.61076 0.77687 0.60798
 C1075 C 0.65119 0.75482 0.66195
 C1076 C 0.66783 0.76699 0.65383
 C1077 C 0.68682 0.76237 0.66699
 C1078 C 0.68953 0.74549 0.68848
 C1079 C 0.67278 0.73380 0.69761
 C1080 C 0.65387 0.73838 0.68451
 H1081 H 0.58210 0.79524 0.57385
 H1082 H 0.55275 0.79628 0.53518
 H1083 H 0.53799 0.73543 0.56357
 H1084 H 0.56703 0.73440 0.60235
 H1085 H 0.66630 0.77976 0.63652
 H1086 H 0.69948 0.77159 0.65938
 H1087 H 0.67436 0.72092 0.71467
 H1088 H 0.64140 0.72878 0.69162
   
