data_POSCAR
  _audit_creation_date              2014-09-24
  _audit_creation_method            'ToBaCCo'
  _symmetry_space_group_name_H-M    'P1'
  _symmetry_Int_Tables_number       1
  _symmetry_cell_setting            triclinic
  loop_
  _symmetry_equiv_pos_as_xyz
 x,y,z
_cell_length_a 42.5548
_cell_length_b 41.4022
_cell_length_c 45.2455
_cell_angle_alpha 90.021800
_cell_angle_beta 89.981400
_cell_angle_gamma 119.050100
loop_
  _atom_site_label
  _atom_site_type_symbol
  _atom_site_fract_x
  _atom_site_fract_y
  _atom_site_fract_z
C1 C -0.00006 0.50032 1.33012
 C2 C 0.03213 0.51217 1.31472
 C3 C 0.03210 0.51155 1.28375
 C4 C 0.00009 0.50105 1.26759
 C5 C -0.03200 0.49017 1.28374
 C6 C -0.03218 0.48884 1.31470
 C7 C 0.00017 0.50144 1.23430
 C8 C -0.03185 0.48036 1.21804
 C9 C -0.03184 0.48159 1.18711
 C10 C 0.00032 0.50216 1.17180
 C11 C 0.03241 0.52237 1.18728
 C12 C 0.03227 0.52289 1.21823
 H13 H -0.00012 0.50005 1.35412
 H14 H 0.05722 0.51913 1.27262
 H15 H -0.05706 0.48286 1.27263
 H16 H -0.05702 0.46265 1.22898
 H17 H 0.00038 0.50243 1.14783
 H18 H 0.05739 0.54033 1.22934
 C19 C 0.49932 0.49949 1.32185
 C20 C 0.47724 0.50994 1.30651
 C21 C 0.47628 0.50882 1.27555
 C22 C 0.49891 0.49903 1.25939
 C23 C 0.52176 0.48948 1.27548
 C24 C 0.52120 0.48881 1.30645
 C25 C 0.49870 0.49877 1.22613
 C26 C 0.51062 0.47745 1.21004
 C27 C 0.51133 0.47804 1.17909
 C28 C 0.49833 0.49832 1.16363
 C29 C 0.48551 0.51881 1.17902
 C30 C 0.48657 0.51985 1.20996
 H31 H 0.49947 0.49966 1.34586
 H32 H 0.45763 0.51541 1.26441
 H33 H 0.54027 0.48272 1.26427
 H34 H 0.51930 0.46005 1.22120
 H35 H 0.49821 0.49816 1.13966
 H36 H 0.47804 0.53741 1.22105
 C37 C 0.50049 1.00056 1.33780
 C38 C 0.48731 0.96729 1.32235
 C39 C 0.48847 0.96736 1.29143
 C40 C 0.50110 1.00062 1.27534
 C41 C 0.51341 1.03388 1.29142
 C42 C 0.51399 1.03391 1.32238
 C43 C 0.50144 1.00064 1.24214
 C44 C 0.52505 1.03272 1.22613
 C45 C 0.52461 1.03285 1.19520
 C46 C 0.50205 1.00067 1.17976
 C47 C 0.47918 0.96847 1.19505
 C48 C 0.47814 0.96858 1.22597
 H49 H 0.50022 1.00043 1.36179
 H50 H 0.47961 0.94125 1.28027
 H51 H 0.52245 1.05996 1.28017
 H52 H 0.54405 1.05771 1.23732
 H53 H 0.50228 1.00069 1.15578
 H54 H 0.45893 0.94357 1.23701
 C55 C 1.00051 0.49972 0.67012
 C56 C 0.96834 0.48738 0.68557
 C57 C 0.96841 0.48809 0.71651
 C58 C 1.00055 0.49919 0.73263
 C59 C 1.03270 0.51058 0.71642
 C60 C 1.03276 0.51183 0.68546
 C61 C 1.00054 0.49889 0.76593
 C62 C 1.03258 0.52001 0.78216
 C63 C 1.03262 0.51884 0.81309
 C64 C 1.00048 0.49835 0.82844
 C65 C 0.96838 0.47813 0.81300
 C66 C 0.96847 0.47749 0.78206
 H67 H 1.00039 0.49987 0.64612
 H68 H 0.94317 0.48005 0.72754
 H69 H 1.05791 0.51838 0.72745
 H70 H 1.05775 0.53769 0.77122
 H71 H 1.00046 0.49816 0.85242
 H72 H 0.94332 0.46001 0.77102
 C73 C 0.50027 0.50025 0.67897
 C74 C 0.52326 0.49103 0.69426
 C75 C 0.52433 0.49225 0.72518
 C76 C 0.50102 0.50104 0.74135
 C77 C 0.47732 0.50942 0.72535
 C78 C 0.47766 0.50985 0.69441
 C79 C 0.50142 0.50148 0.77453
 C80 C 0.48946 0.52278 0.79055
 C81 C 0.48900 0.52240 0.82149
 C82 C 0.50214 0.50228 0.83697
 C83 C 0.51493 0.48176 0.82158
 C84 C 0.51376 0.48059 0.79065
 H85 H 0.50000 0.49996 0.65499
 H86 H 0.54358 0.48650 0.73627
 H87 H 0.45834 0.51547 0.73658
 H88 H 0.48060 0.53998 0.77931
 H89 H 0.50240 0.50257 0.86094
 H90 H 0.52235 0.46310 0.77951
 C91 C 0.49869 -0.00131 0.66238
 C92 C 0.51138 0.03196 0.67779
 C93 C 0.51035 0.03191 0.70874
 C94 C 0.49834 -0.00127 0.72488
 C95 C 0.48650 -0.03449 0.70881
 C96 C 0.48580 -0.03460 0.67782
 C97 C 0.49817 -0.00121 0.75813
 C98 C 0.47509 -0.03345 0.77425
 C99 C 0.47567 -0.03349 0.80523
 C100 C 0.49788 -0.00102 0.82056
 C101 C 0.52020 0.03131 0.80518
 C102 C 0.52107 0.03110 0.77424
 H103 H 0.49887 -0.00122 0.63839
 H104 H 0.51882 0.05795 0.71987
 H105 H 0.47794 -0.06047 0.72008
 H106 H 0.45640 -0.05860 0.76306
 H107 H 0.49784 -0.00084 0.84456
 H108 H 0.53988 0.05624 0.76312
 O109 O 0.38209 0.67745 0.96591
 O110 O 0.38061 0.73905 0.97478
 C111 C 0.35723 0.74320 0.96032
 O112 O 0.32394 0.72564 0.96586
 O113 O 0.26481 0.66408 0.97546
 C114 C 0.26071 0.63589 0.96120
 O115 O 0.27833 0.61918 0.96647
 O116 O 0.33931 0.61960 0.97532
 C117 C 0.36667 0.64303 0.96107
 O118 O 0.38450 0.66788 1.02453
 O119 O 0.37991 0.72771 1.03364
 C120 C 0.36169 0.74371 1.03908
 O121 O 0.33392 0.73800 1.02459
 O122 O 0.27636 0.67489 1.03404
 C123 C 0.26099 0.64063 1.03948
 O124 O 0.26733 0.61786 1.02536
 O125 O 0.32967 0.62116 1.03409
 C126 C 0.36317 0.63913 1.03886
 Cr127 Cr 0.37976 0.70199 0.99973
 Cr128 Cr 0.30086 0.69967 0.99998
 Cr129 Cr 0.30457 0.62152 1.00029
 O130 O 0.32839 0.67436 1.00000
 O131 O 0.61618 0.33303 0.97579
 O132 O 0.62053 0.27312 0.96644
 C133 C 0.63866 0.25706 0.96081
 O134 O 0.66659 0.26285 0.97507
 O135 O 0.72406 0.32605 0.96559
 C136 C 0.73954 0.36036 0.96040
 O137 O 0.73337 0.38305 0.97480
 O138 O 0.67103 0.37984 0.96630
 C139 C 0.63753 0.36182 0.96151
 O140 O 0.61872 0.32333 1.03439
 O141 O 0.62023 0.26178 1.02529
 C142 C 0.64373 0.25760 1.03952
 O143 O 0.67698 0.27506 1.03378
 O144 O 0.73606 0.33665 1.02416
 C145 C 0.74015 0.36467 1.03868
 O146 O 0.72244 0.38136 1.03372
 O147 O 0.66150 0.38117 1.02508
 C148 C 0.63412 0.35774 1.03929
 Cr149 Cr 0.62093 0.29885 1.00045
 Cr150 Cr 0.69982 0.30113 0.99967
 Cr151 Cr 0.69617 0.37929 0.99998
 O152 O 0.67230 0.32645 1.00004
 O153 O 0.67636 0.40096 0.53321
 O154 O 0.73547 0.39839 0.52364
 C155 C 0.73959 0.37446 0.53812
 O156 O 0.72195 0.34009 0.53310
 O157 O 0.66107 0.27939 0.52434
 C158 C 0.63367 0.27542 0.53858
 O159 O 0.61827 0.29446 0.53376
 O160 O 0.61966 0.35749 0.52473
 C161 C 0.64311 0.38520 0.53893
 O162 O 0.66608 0.40280 0.47449
 O163 O 0.72365 0.39711 0.46505
 C164 C 0.73923 0.37833 0.45989
 O165 O 0.73299 0.34942 0.47421
 O166 O 0.67066 0.29038 0.46559
 C167 C 0.63716 0.27492 0.46083
 O168 O 0.61578 0.28232 0.47514
 O169 O 0.62001 0.34653 0.46588
 C170 C 0.63813 0.38068 0.46025
 Cr171 Cr 0.69929 0.39773 0.49911
 Cr172 Cr 0.69575 0.31598 0.49932
 Cr173 Cr 0.62045 0.32119 0.49986
 O174 O 0.67182 0.34494 0.49944
 O175 O 0.32298 0.59834 0.53374
 O176 O 0.26383 0.60087 0.52423
 C177 C 0.25968 0.62477 0.53874
 O178 O 0.27729 0.65915 0.53374
 O179 O 0.33815 0.71988 0.52504
 C180 C 0.36555 0.72386 0.53926
 O181 O 0.38100 0.70487 0.53439
 O182 O 0.37966 0.64187 0.52528
 C183 C 0.35623 0.61414 0.53946
 O184 O 0.33326 0.59658 0.47501
 O185 O 0.27566 0.60222 0.46563
 C186 C 0.26009 0.62101 0.46048
 O187 O 0.26630 0.64989 0.47484
 O188 O 0.32860 0.70897 0.46627
 C189 C 0.36211 0.72445 0.46150
 O190 O 0.38349 0.71704 0.47578
 O191 O 0.37932 0.65286 0.46644
 C192 C 0.36120 0.61872 0.46077
 Cr193 Cr 0.30003 0.60159 0.49967
 Cr194 Cr 0.30350 0.68331 0.49998
 Cr195 Cr 0.37884 0.67817 0.50045
 O196 O 0.32747 0.65439 0.50004
 C197 C 0.42461 0.54807 0.35615
 N198 N 0.39941 0.52559 0.37583
 N199 N 0.38573 0.53943 0.39541
 C200 C 0.39692 0.57619 0.39599
 N201 N 0.42203 0.59866 0.37625
 N202 N 0.43571 0.58481 0.35666
 C203 C 0.44181 0.53375 0.33701
 C204 C 0.45769 0.52224 0.32206
 C205 C 0.38387 0.59136 0.41829
 C206 C 0.37339 0.60398 0.43749
 C207 C 0.44027 0.87074 0.36878
 N208 N 0.46008 0.85806 0.38313
 N209 N 0.44406 0.82785 0.39989
 C210 C 0.40776 0.80940 0.40278
 N211 N 0.38795 0.82204 0.38837
 N212 N 0.40397 0.85224 0.37160
 C213 C 0.45752 0.90432 0.35198
 C214 C 0.47151 0.93288 0.33830
 C215 C 0.39081 0.77836 0.42237
 C216 C 0.37721 0.75317 0.43972
 C217 C 0.12269 0.55276 0.36227
 N218 N 0.13224 0.53019 0.37678
 N219 N 0.16051 0.54424 0.39486
 C220 C 0.18009 0.58128 0.39901
 N221 N 0.17060 0.60386 0.38445
 N222 N 0.14232 0.58981 0.36636
 C223 C 0.09086 0.53759 0.34436
 C224 C 0.06354 0.52531 0.33007
 C225 C 0.20917 0.59614 0.41985
 C226 C 0.23285 0.60798 0.43804
 C227 C 0.57431 0.45115 0.35592
 N228 N 0.56366 0.41450 0.35615
 N229 N 0.57747 0.40073 0.37568
 C230 C 0.60226 0.42319 0.39562
 N231 N 0.61300 0.45985 0.39532
 N232 N 0.59919 0.47361 0.37580
 C233 C 0.55694 0.46532 0.33684
 C234 C 0.54092 0.47670 0.32195
 C235 C 0.61541 0.40807 0.41786
 C236 C 0.62594 0.39545 0.43702
 C237 C 0.55945 0.12861 0.36803
 N238 N 0.53941 0.14036 0.38323
 N239 N 0.55527 0.17056 0.40001
 C240 C 0.59162 0.18995 0.40208
 N241 N 0.61165 0.17825 0.38682
 N242 N 0.59580 0.14805 0.37004
 C243 C 0.54245 0.09502 0.35123
 C244 C 0.52871 0.06644 0.33753
 C245 C 0.60849 0.22101 0.42168
 C246 C 0.62205 0.24620 0.43904
 C247 C 0.87704 0.44737 0.36204
 N248 N 0.86671 0.46968 0.37601
 N249 N 0.83834 0.45540 0.39400
 C250 C 0.81945 0.41840 0.39860
 N251 N 0.82972 0.39608 0.38457
 N252 N 0.85809 0.41036 0.36658
 C253 C 0.90895 0.46284 0.34422
 C254 C 0.93634 0.47539 0.33000
 C255 C 0.79028 0.40336 0.41936
 C256 C 0.76653 0.39142 0.43749
 C257 C 0.55659 0.42674 1.13232
 N258 N 0.53634 0.39630 1.11572
 N259 N 0.55197 0.38175 1.09883
 C260 C 0.58830 0.39715 1.09803
 N261 N 0.60853 0.42754 1.11468
 N262 N 0.59291 0.44209 1.13157
 C263 C 0.53993 0.44366 1.14928
 C264 C 0.52648 0.45877 1.16307
 C265 C 0.60510 0.38282 1.07839
 C266 C 0.61873 0.37119 1.06105
 C267 C 0.87627 0.43198 1.13809
 N268 N 0.86607 0.39945 1.12403
 N269 N 0.83807 0.38569 1.10566
 C270 C 0.81944 0.40404 1.10077
 N271 N 0.82958 0.43653 1.11489
 N272 N 0.85758 0.45029 1.13326
 C273 C 0.90786 0.44810 1.15628
 C274 C 0.93503 0.46269 1.17078
 C275 C 0.79065 0.39024 1.07966
 C276 C 0.76719 0.37867 1.06128
 C277 C 0.58039 0.12469 1.14469
 N278 N 0.57141 0.15195 1.14526
 N279 N 0.58531 0.17928 1.12557
 C280 C 0.60850 0.18010 1.10464
 N281 N 0.61759 0.15292 1.10413
 N282 N 0.60369 0.12559 1.12383
 C283 C 0.56265 0.09340 1.16388
 C284 C 0.54620 0.06623 1.17886
 C285 C 0.62150 0.20804 1.08221
 C286 C 0.63183 0.23092 1.06289
 C287 C 0.44004 0.56974 1.13209
 N288 N 0.40370 0.55359 1.13044
 N289 N 0.38812 0.56813 1.11350
 C290 C 0.40842 0.59931 1.09773
 N291 N 0.44477 0.61551 1.09944
 N292 N 0.46034 0.60097 1.11637
 C293 C 0.45673 0.55292 1.14911
 C294 C 0.47025 0.53792 1.16294
 C295 C 0.39176 0.61371 1.07804
 C296 C 0.37829 0.62546 1.06065
 C297 C 0.12454 0.57281 1.13861
 N298 N 0.14393 0.55514 1.13434
 N299 N 0.17201 0.56907 1.11603
 C300 C 0.18151 0.60110 1.10141
 N301 N 0.16218 0.61883 1.10574
 N302 N 0.13410 0.60489 1.12405
 C303 C 0.09286 0.55642 1.15671
 C304 C 0.06562 0.54159 1.17110
 C305 C 0.21037 0.61503 1.08037
 C306 C 0.23389 0.62665 1.06203
 C307 C 0.42420 0.87673 1.14424
 N308 N 0.43334 0.84959 1.14488
 N309 N 0.41967 0.82227 1.12515
 C310 C 0.39655 0.82135 1.10412
 N311 N 0.38729 0.84841 1.10355
 N312 N 0.40097 0.87573 1.12328
 C313 C 0.44166 0.90799 1.16351
 C314 C 0.45788 0.93513 1.17857
 C315 C 0.38373 0.79339 1.08170
 C316 C 0.37351 0.77046 1.06241
 C317 C 0.57896 0.45479 0.64364
 N318 N 0.57009 0.41860 0.64427
 N319 N 0.58416 0.40517 0.62468
 C320 C 0.60743 0.42751 0.60381
 N321 N 0.61640 0.46373 0.60323
 N322 N 0.60234 0.47716 0.62283
 C323 C 0.56116 0.46836 0.66280
 C324 C 0.54473 0.47913 0.67781
 C325 C 0.62063 0.41258 0.58148
 C326 C 0.63111 0.40002 0.56225
 C327 C 0.55644 0.12848 0.63107
 N328 N 0.53612 0.13863 0.61450
 N329 N 0.55164 0.16886 0.59772
 C330 C 0.58796 0.18991 0.59700
 N331 N 0.60828 0.17981 0.61362
 N332 N 0.59275 0.14957 0.63041
 C333 C 0.53989 0.09489 0.64797
 C334 C 0.52650 0.06634 0.66175
 C335 C 0.60468 0.22114 0.57749
 C336 C 0.61828 0.24649 0.56024
 C337 C 0.87606 0.44410 0.63707
 N338 N 0.85827 0.40723 0.63169
 N339 N 0.83012 0.39271 0.61347
 C340 C 0.81894 0.41464 0.60008
 N341 N 0.83666 0.45149 0.60553
 N342 N 0.86481 0.46601 0.62374
 C343 C 0.90780 0.45995 0.65507
 C344 C 0.93509 0.47283 0.66940
 C345 C 0.79008 0.39946 0.57906
 C346 C 0.76660 0.38748 0.56072
 C347 C 0.42108 0.54522 0.64404
 N348 N 0.39805 0.52281 0.62306
 N349 N 0.38377 0.53604 0.60350
 C350 C 0.39218 0.57210 0.60429
 N351 N 0.41510 0.59448 0.62533
 N352 N 0.42938 0.58125 0.64489
 C353 C 0.43917 0.53194 0.66313
 C354 C 0.45587 0.52143 0.67807
 C355 C 0.37882 0.58688 0.58199
 C356 C 0.36826 0.59936 0.56276
 C357 C 0.44216 0.87066 0.63198
 N358 N 0.46260 0.86109 0.61499
 N359 N 0.44725 0.83087 0.59817
 C360 C 0.41099 0.80927 0.59783
 N361 N 0.39055 0.81881 0.61487
 N362 N 0.40590 0.84902 0.63170
 C363 C 0.45848 0.90427 0.64889
 C364 C 0.47167 0.93284 0.66265
 C365 C 0.39440 0.77807 0.57826
 C366 C 0.38089 0.75275 0.56097
 C367 C 0.12327 0.55477 0.63777
 N368 N 0.14082 0.59161 0.63228
 N369 N 0.16896 0.60623 0.61405
 C370 C 0.18037 0.58442 0.60075
 N371 N 0.16288 0.54759 0.60630
 N372 N 0.13474 0.53297 0.62453
 C373 C 0.09152 0.53880 0.65576
 C374 C 0.06420 0.52580 0.67009
 C375 C 0.20921 0.59968 0.57971
 C376 C 0.23268 0.61171 0.56135
 C377 C 0.44395 0.57391 0.86810
 N378 N 0.46423 0.60432 0.88471
 N379 N 0.44865 0.61892 0.90158
 C380 C 0.41233 0.60359 0.90234
 N381 N 0.39205 0.57323 0.88568
 N382 N 0.40763 0.55863 0.86880
 C383 C 0.46053 0.55692 0.85121
 C384 C 0.47392 0.54174 0.83747
 C385 C 0.39559 0.61792 0.92198
 C386 C 0.38200 0.62955 0.93933
 C387 C 0.12464 0.56832 0.86186
 N388 N 0.14269 0.54949 0.86730
 N389 N 0.17075 0.56326 0.88561
 C390 C 0.18159 0.59628 0.89905
 N391 N 0.16360 0.61516 0.89354
 N392 N 0.13554 0.60139 0.87523
 C393 C 0.09299 0.55225 0.84376
 C394 C 0.06577 0.53770 0.82935
 C395 C 0.21035 0.61011 0.92015
 C396 C 0.23377 0.62175 0.93855
 C397 C 0.42165 0.87632 0.85510
 N398 N 0.43158 0.84976 0.85532
 N399 N 0.41755 0.82242 0.87502
 C400 C 0.39326 0.82088 0.89517
 N401 N 0.38323 0.84738 0.89488
 N402 N 0.39726 0.87471 0.87518
 C403 C 0.43933 0.90763 0.83584
 C404 C 0.45564 0.93485 0.82082
 C405 C 0.37995 0.79288 0.91761
 C406 C 0.36937 0.76994 0.93692
 C407 C 0.56059 0.43102 0.86835
 N408 N 0.59694 0.44746 0.87023
 N409 N 0.61256 0.43295 0.88714
 C410 C 0.59230 0.40153 0.90265
 N411 N 0.55596 0.38505 0.90071
 N412 N 0.54034 0.39956 0.88381
 C413 C 0.54385 0.44779 0.85141
 C414 C 0.53028 0.46274 0.83762
 C415 C 0.60897 0.38719 0.92233
 C416 C 0.62243 0.37547 0.93973
 C417 C 0.87617 0.42813 0.86154
 N418 N 0.86588 0.39554 0.87550
 N419 N 0.83773 0.38167 0.89372
 C420 C 0.81905 0.39999 0.89855
 N421 N 0.82928 0.43253 0.88453
 N422 N 0.85743 0.44640 0.86630
 C423 C 0.90791 0.44436 0.84353
 C424 C 0.93518 0.45907 0.82918
 C425 C 0.79015 0.38611 0.91955
 C426 C 0.76662 0.37446 0.93786
 C427 C 0.57468 0.12337 0.85597
 N428 N 0.56450 0.14974 0.85613
 N429 N 0.57835 0.17715 0.87580
 C430 C 0.60273 0.17894 0.89596
 N431 N 0.61301 0.15265 0.89573
 N432 N 0.59916 0.12524 0.87607
 C433 C 0.55727 0.09204 0.83669
 C434 C 0.54122 0.06483 0.82162
 C435 C 0.61593 0.20708 0.91831
 C436 C 0.62648 0.23015 0.93753
   
