data_POSCAR
  _audit_creation_date              2014-09-24
  _audit_creation_method            'ToBaCCo'
  _symmetry_space_group_name_H-M    'P1'
  _symmetry_Int_Tables_number       1
  _symmetry_cell_setting            triclinic
  loop_
  _symmetry_equiv_pos_as_xyz
 x,y,z
_cell_length_a 56.4952
_cell_length_b 56.5111
_cell_length_c 11.4670
_cell_angle_alpha 90.262300
_cell_angle_beta 90.016300
_cell_angle_gamma 90.053600
loop_
  _atom_site_label
  _atom_site_type_symbol
  _atom_site_fract_x
  _atom_site_fract_y
  _atom_site_fract_z
O1 O 0.27580 0.22627 0.17941
 O2 O 0.23101 0.27266 0.13467
 O3 O 0.27615 0.27232 0.18000
 O4 O 0.23062 0.22656 0.13362
 O5 O 0.22271 0.22667 0.32243
 O6 O 0.26826 0.27245 0.36887
 O7 O 0.22309 0.27277 0.32351
 O8 O 0.26791 0.22635 0.36826
 Cu9 Cu 0.25418 0.24943 0.13782
 Cu10 Cu 0.24470 0.24956 0.36472
 C11 C 0.27944 0.21850 0.28145
 C12 C 0.21950 0.28055 0.22145
 C13 C 0.27988 0.28012 0.28224
 C14 C 0.21896 0.21889 0.22012
 O15 O 0.77638 0.27245 0.32162
 O16 O 0.73095 0.22660 0.36722
 O17 O 0.77615 0.22638 0.32195
 O18 O 0.73123 0.27272 0.36767
 O19 O 0.72337 0.27264 0.17874
 O20 O 0.76819 0.22621 0.13314
 O21 O 0.72300 0.22657 0.17842
 O22 O 0.76850 0.27229 0.13268
 Cu23 Cu 0.75447 0.24955 0.36372
 Cu24 Cu 0.74497 0.24941 0.13670
 C25 C 0.78012 0.28009 0.21941
 C26 C 0.71930 0.21886 0.28049
 C27 C 0.77976 0.21848 0.21978
 C28 C 0.71972 0.28050 0.28095
 O29 O 0.77673 0.72717 0.67894
 O30 O 0.73186 0.77351 0.63377
 O31 O 0.77704 0.77325 0.67952
 O32 O 0.73160 0.72743 0.63272
 O33 O 0.72370 0.72757 0.82159
 O34 O 0.76924 0.77334 0.86847
 O35 O 0.72406 0.77364 0.82277
 O36 O 0.76882 0.72724 0.86780
 Cu37 Cu 0.75511 0.75034 0.63717
 Cu38 Cu 0.74566 0.75046 0.86421
 C39 C 0.78034 0.71938 0.78099
 C40 C 0.72037 0.78138 0.72073
 C41 C 0.78084 0.78102 0.78177
 C42 C 0.71997 0.71977 0.71931
 O43 O 0.27647 0.77346 0.82240
 O44 O 0.23107 0.72766 0.86920
 O45 O 0.27620 0.72740 0.82264
 O46 O 0.23129 0.77377 0.86796
 O47 O 0.22335 0.77350 0.67912
 O48 O 0.26823 0.72716 0.63379
 O49 O 0.22310 0.72743 0.68043
 O50 O 0.26850 0.77324 0.63362
 Cu51 Cu 0.25456 0.75060 0.86471
 Cu52 Cu 0.24499 0.75030 0.63785
 C53 C 0.28016 0.78107 0.72014
 C54 C 0.21942 0.71981 0.78272
 C55 C 0.27980 0.71947 0.72050
 C56 C 0.21973 0.78146 0.78118
 O57 O 0.97719 0.01826 0.11686
 O58 O 1.02331 -0.02691 0.07164
 O59 O 1.02331 0.01825 0.11796
 O60 O 0.97723 -0.02692 0.07050
 O61 O 0.97734 -0.01911 -0.11827
 O62 O 1.02351 0.02599 -0.07093
 O63 O 1.02343 -0.01916 -0.11724
 O64 O 0.97743 0.02607 -0.07193
 Cu65 Cu 1.00024 -0.00512 0.11334
 Cu66 Cu 1.00044 0.00423 -0.11361
 C67 C 0.96954 0.02980 0.03004
 C68 C 1.03114 -0.03067 -0.03046
 C69 C 1.03120 0.02974 0.03145
 C70 C 0.96951 -0.03064 -0.03181
 O71 O 0.52292 0.52651 0.43029
 O72 O 0.47672 0.48145 0.38304
 O73 O 0.47685 0.52660 0.42956
 O74 O 0.52282 0.48138 0.38307
 O75 O 0.52274 0.47350 0.57179
 O76 O 0.47677 0.51877 0.61835
 O77 O 0.47666 0.47361 0.57178
 O78 O 0.52289 0.51864 0.61900
 Cu79 Cu 0.49984 0.50477 0.38755
 Cu80 Cu 0.49976 0.49533 0.61432
 C81 C 0.53069 0.53019 0.53255
 C82 C 0.46889 0.46992 0.46953
 C83 C 0.46906 0.53033 0.53170
 C84 C 0.53054 0.46979 0.46958
 O85 O 0.02281 0.51849 -0.11580
 O86 O -0.02329 0.47339 -0.06980
 O87 O -0.02328 0.51851 -0.11469
 O88 O 0.02279 0.47336 -0.07039
 O89 O 0.02295 0.48134 0.11857
 O90 O -0.02313 0.52649 0.07429
 O91 O -0.02318 0.48134 0.11921
 O92 O 0.02296 0.52648 0.07316
 Cu93 Cu -0.00026 0.49513 -0.11174
 Cu94 Cu -0.00008 0.50471 0.11534
 C95 C 0.03065 0.53012 -0.02913
 C96 C -0.03102 0.46975 0.03238
 C97 C -0.03097 0.53013 -0.02772
 C98 C 0.03064 0.46973 0.03160
 O99 O 0.52335 1.01885 0.38232
 O100 O 0.47720 0.97380 0.42813
 O101 O 0.47727 1.01891 0.38258
 O102 O 0.52326 0.97374 0.42750
 O103 O 0.52342 0.98172 0.61649
 O104 O 0.47738 1.02690 0.57155
 O105 O 0.47731 0.98177 0.61712
 O106 O 0.52346 1.02686 0.57128
 Cu107 Cu 0.50026 0.99551 0.38594
 Cu108 Cu 0.50040 1.00511 0.61310
 C109 C 0.53118 1.03048 0.46903
 C110 C 0.46947 0.97017 0.53034
 C111 C 0.46957 1.03054 0.46947
 C112 C 0.53110 0.97010 0.52949
 C113 C 1.20218 0.20204 0.20288
 C114 C 1.18729 0.18703 0.18760
 C115 C 1.16955 0.16909 0.16947
 C116 C 1.14732 0.17128 0.22216
 C117 C 1.13011 0.15380 0.20512
 C118 C 1.13490 0.13390 0.13475
 C119 C 1.15730 0.13191 0.08187
 C120 C 1.17450 0.14938 0.09936
 C121 C 1.11659 0.11535 0.11651
 C122 C 1.12283 0.09123 0.11475
 C123 C 1.10555 0.07381 0.09786
 C124 C 1.08184 0.08023 0.08258
 C125 C 1.07546 0.10414 0.08401
 C126 C 1.09270 0.12160 0.10074
 C127 C 1.06406 0.06231 0.06495
 C128 C 1.04909 0.04739 0.04974
 H129 H 1.14331 0.18644 0.27676
 H130 H 1.11318 0.15570 0.24835
 H131 H 1.16142 0.11700 0.02580
 H132 H 1.19164 0.14755 0.05796
 H133 H 1.14100 0.08583 0.12806
 H134 H 1.11068 0.05534 0.09710
 H135 H 1.05716 0.10931 0.07191
 H136 H 1.08736 0.13999 0.09995
 C137 C 0.70224 0.70195 0.70130
 C138 C 0.68730 0.68700 0.68640
 C139 C 0.66945 0.66917 0.66838
 C140 C 0.64716 0.67166 0.72016
 C141 C 0.62981 0.65433 0.70303
 C142 C 0.63454 0.63424 0.63391
 C143 C 0.65699 0.63197 0.58183
 C144 C 0.67434 0.64928 0.59944
 C145 C 0.61616 0.61574 0.61632
 C146 C 0.62231 0.59161 0.61647
 C147 C 0.60502 0.57421 0.59979
 C148 C 0.58136 0.58067 0.58295
 C149 C 0.57505 0.60461 0.58293
 C150 C 0.59231 0.62204 0.59961
 C151 C 0.56356 0.56276 0.56570
 C152 C 0.54859 0.54784 0.55073
 H153 H 0.64320 0.68697 0.77391
 H154 H 0.61281 0.65648 0.74538
 H155 H 0.66106 0.61693 0.52649
 H156 H 0.69154 0.64720 0.55896
 H157 H 0.64044 0.58618 0.63113
 H158 H 0.61008 0.55572 0.60053
 H159 H 0.55679 0.60980 0.56980
 H160 H 0.58703 0.64045 0.59797
 C161 C -0.20217 0.29790 0.20150
 C162 C -0.18730 0.31287 0.18615
 C163 C -0.16956 0.33077 0.16771
 C164 C -0.17444 0.35442 0.19504
 C165 C -0.15720 0.37182 0.17780
 C166 C -0.13481 0.36578 0.13286
 C167 C -0.13011 0.34193 0.10548
 C168 C -0.14739 0.32456 0.12267
 C169 C -0.11646 0.38425 0.11463
 C170 C -0.09259 0.37970 0.14140
 C171 C -0.07536 0.39714 0.12502
 C172 C -0.08171 0.41933 0.08145
 C173 C -0.10539 0.42403 0.05431
 C174 C -0.12267 0.40663 0.07078
 C175 C -0.06392 0.43722 0.06434
 C176 C -0.04893 0.45212 0.04992
 H177 H -0.19153 0.35940 0.23025
 H178 H -0.16126 0.38995 0.20131
 H179 H -0.11318 0.33675 0.06923
 H180 H -0.14346 0.30631 0.10086
 H181 H -0.08728 0.36277 0.17657
 H182 H -0.05707 0.39332 0.14633
 H183 H -0.11049 0.44112 0.02003
 H184 H -0.14082 0.41058 0.04780
 C185 C 0.29789 0.79886 0.70204
 C186 C 0.31279 0.81380 0.68662
 C187 C 0.33058 0.83165 0.66826
 C188 C 0.32581 0.85530 0.69617
 C189 C 0.34312 0.87265 0.67923
 C190 C 0.36546 0.86655 0.63390
 C191 C 0.37007 0.84270 0.60624
 C192 C 0.35273 0.82539 0.62318
 C193 C 0.38386 0.88497 0.61546
 C194 C 0.40774 0.88032 0.64166
 C195 C 0.42503 0.89768 0.62473
 C196 C 0.41872 0.91989 0.58122
 C197 C 0.39503 0.92470 0.55474
 C198 C 0.37770 0.90737 0.57169
 C199 C 0.43657 0.93768 0.56310
 C200 C 0.45157 0.95254 0.54805
 H201 H 0.30874 0.86033 0.73144
 H202 H 0.33912 0.89078 0.70288
 H203 H 0.38697 0.83748 0.56983
 H204 H 0.35659 0.80713 0.60110
 H205 H 0.41302 0.86337 0.67683
 H206 H 0.44333 0.89378 0.64554
 H207 H 0.38997 0.94181 0.52062
 H208 H 0.35953 0.91140 0.54924
 C209 C -0.20216 0.70139 -0.20137
 C210 C -0.18737 0.68634 -0.18659
 C211 C -0.16961 0.66847 -0.16884
 C212 C -0.14627 0.67508 -0.14372
 C213 C -0.12899 0.65778 -0.12606
 C214 C -0.13482 0.63360 -0.13328
 C215 C -0.15835 0.62715 -0.15852
 C216 C -0.17561 0.64448 -0.17622
 C217 C -0.11646 0.61521 -0.11443
 C218 C -0.12178 0.59452 -0.05180
 C219 C -0.10446 0.57725 -0.03395
 C220 C -0.08162 0.58042 -0.07831
 C221 C -0.07615 0.60091 -0.14092
 C222 C -0.09344 0.61819 -0.15900
 C223 C -0.06380 0.56264 -0.06006
 C224 C -0.04883 0.54777 -0.04516
 H225 H -0.14145 0.69360 -0.13749
 H226 H -0.11114 0.66332 -0.10497
 H227 H -0.16335 0.60870 -0.16613
 H228 H -0.19361 0.63917 -0.19576
 H229 H -0.13923 0.59182 -0.01525
 H230 H -0.10887 0.56148 0.01485
 H231 H -0.05852 0.60352 -0.17571
 H232 H -0.08887 0.63375 -0.20897
 C233 C 0.29704 1.20059 0.29900
 C234 C 0.31194 1.18563 0.31349
 C235 C 0.32985 1.16790 0.33088
 C236 C 0.35264 1.17457 0.36584
 C237 C 0.37007 1.15740 0.38298
 C238 C 0.36494 1.13328 0.36523
 C239 C 0.34195 1.12674 0.33033
 C240 C 0.32454 1.14395 0.31328
 C241 C 0.38349 1.11504 0.38331
 C242 C 0.37792 1.09341 0.43720
 C243 C 0.39542 1.07632 0.45481
 C244 C 0.41869 1.08060 0.41894
 C245 C 0.42441 1.10202 0.36503
 C246 C 0.40694 1.11913 0.34712
 C247 C 0.43667 1.06297 0.43693
 C248 C 0.45170 1.04816 0.45188
 H249 H 0.35692 1.19306 0.38008
 H250 H 0.38748 1.16297 0.41160
 H251 H 0.33752 1.10836 0.31477
 H252 H 0.30696 1.13859 0.28600
 H253 H 0.36011 1.08984 0.46721
 H254 H 0.39081 1.05982 0.49685
 H255 H 0.44237 1.10549 0.33665
 H256 H 0.41171 1.13542 0.30365
 C257 C 1.20311 -0.20155 -0.20217
 C258 C 1.18823 -0.18652 -0.18776
 C259 C 1.17037 -0.16871 -0.17062
 C260 C 1.14903 -0.17456 -0.11596
 C261 C 1.13167 -0.15729 -0.09865
 C262 C 1.13544 -0.13389 -0.13582
 C263 C 1.15697 -0.12818 -0.19069
 C264 C 1.17431 -0.14550 -0.20800
 C265 C 1.11698 -0.11553 -0.11750
 C266 C 1.12328 -0.09238 -0.08387
 C267 C 1.10588 -0.07517 -0.06590
 C268 C 1.08197 -0.08084 -0.08137
 C269 C 1.07551 -0.10377 -0.11527
 C270 C 1.09288 -0.12101 -0.13325
 C271 C 1.06407 -0.06311 -0.06325
 C272 C 1.04904 -0.04829 -0.04821
 H273 H 1.14583 -0.19247 -0.08646
 H274 H 1.11543 -0.16218 -0.05481
 H275 H 1.16030 -0.11041 -0.22156
 H276 H 1.19074 -0.14079 -0.25077
 H277 H 1.14164 -0.08767 -0.06976
 H278 H 1.11107 -0.05748 -0.03954
 H279 H 1.05705 -0.10832 -0.12797
 H280 H 1.08746 -0.13855 -0.16081
 C281 C 0.70218 0.29850 0.29879
 C282 C 0.68736 0.31356 0.31348
 C283 C 0.66957 0.33144 0.33092
 C284 C 0.64845 0.32580 0.38817
 C285 C 0.63111 0.34311 0.40516
 C286 C 0.63470 0.36635 0.36520
 C287 C 0.65604 0.37186 0.30810
 C288 C 0.67333 0.35450 0.29092
 C289 C 0.61625 0.38475 0.38305
 C290 C 0.62261 0.40803 0.41407
 C291 C 0.60522 0.42528 0.43153
 C292 C 0.58128 0.41953 0.41806
 C293 C 0.57478 0.39647 0.38664
 C294 C 0.59212 0.37918 0.36919
 C295 C 0.56340 0.43729 0.43621
 C296 C 0.54840 0.45214 0.45146
 H297 H 0.64539 0.30802 0.41986
 H298 H 0.61503 0.33839 0.45088
 H299 H 0.65924 0.38951 0.27533
 H300 H 0.68959 0.35904 0.24621
 H301 H 0.64099 0.41282 0.42650
 H302 H 0.61045 0.44307 0.45605
 H303 H 0.55629 0.39185 0.37559
 H304 H 0.58667 0.36154 0.34348
 C305 C 0.79764 -0.20213 -0.20144
 C306 C 0.81259 -0.18717 -0.18675
 C307 C 0.83044 -0.16930 -0.16960
 C308 C 0.82556 -0.14567 -0.19647
 C309 C 0.84288 -0.12828 -0.18003
 C310 C 0.86537 -0.13432 -0.13650
 C311 C 0.87011 -0.15816 -0.11012
 C312 C 0.85275 -0.17551 -0.12655
 C313 C 0.88378 -0.11585 -0.11852
 C314 C 0.90762 -0.12047 -0.14614
 C315 C 0.92494 -0.10311 -0.12900
 C316 C 0.91870 -0.08092 -0.08397
 C317 C 0.89505 -0.07611 -0.05654
 C318 C 0.87769 -0.09343 -0.07376
 C319 C 0.93658 -0.06313 -0.06549
 C320 C 0.95159 -0.04828 -0.05000
 H321 H 0.80837 -0.14069 -0.23044
 H322 H 0.83875 -0.11015 -0.20237
 H323 H 0.88712 -0.16334 -0.07495
 H324 H 0.85671 -0.19376 -0.10540
 H325 H 0.91284 -0.13741 -0.18233
 H326 H 0.94319 -0.10700 -0.15066
 H327 H 0.89004 -0.05901 -0.02130
 H328 H 0.85955 -0.08938 -0.05079
 C329 C 0.29759 0.29796 0.30012
 C330 C 0.31249 0.31297 0.31484
 C331 C 0.33026 0.33090 0.33214
 C332 C 0.32531 0.35450 0.30492
 C333 C 0.34257 0.37194 0.32136
 C334 C 0.36503 0.36599 0.36552
 C335 C 0.36983 0.34220 0.39252
 C336 C 0.35254 0.32478 0.37585
 C337 C 0.38338 0.38452 0.38332
 C338 C 0.40725 0.37993 0.35634
 C339 C 0.42450 0.39734 0.37358
 C340 C 0.41816 0.41958 0.41767
 C341 C 0.39447 0.42435 0.44449
 C342 C 0.37718 0.40696 0.42749
 C343 C 0.43597 0.43742 0.43603
 C344 C 0.45097 0.45230 0.45139
 H345 H 0.30814 0.35940 0.27066
 H346 H 0.33844 0.39003 0.29820
 H347 H 0.38682 0.33709 0.42807
 H348 H 0.35654 0.30656 0.39742
 H349 H 0.41254 0.36297 0.32075
 H350 H 0.44279 0.39347 0.35251
 H351 H 0.38938 0.44149 0.47897
 H352 H 0.35902 0.41096 0.45036
 C353 C 0.20171 0.70201 -0.19908
 C354 C 0.18682 0.68704 -0.18390
 C355 C 0.16905 0.66917 -0.16581
 C356 C 0.14529 0.67561 -0.15233
 C357 C 0.12800 0.65823 -0.13595
 C358 C 0.13426 0.63414 -0.13254
 C359 C 0.15820 0.62786 -0.14612
 C360 C 0.17546 0.64527 -0.16256
 C361 C 0.11592 0.61565 -0.11472
 C362 C 0.11684 0.59416 -0.17717
 C363 C 0.09958 0.57677 -0.16017
 C364 C 0.08118 0.58060 -0.08064
 C365 C 0.08008 0.60191 -0.01825
 C366 C 0.09732 0.61932 -0.03510
 C367 C 0.06343 0.56270 -0.06278
 C368 C 0.04850 0.54778 -0.04729
 H369 H 0.14012 0.69405 -0.15514
 H370 H 0.10970 0.66362 -0.12714
 H371 H 0.16363 0.60952 -0.14222
 H372 H 0.19380 0.64009 -0.17266
 H373 H 0.13072 0.59094 -0.24038
 H374 H 0.10056 0.56037 -0.20927
 H375 H 0.06593 0.60504 0.04364
 H376 H 0.09625 0.63554 0.01519
 C377 C 0.70252 1.20200 0.29714
 C378 C 0.68761 1.18703 0.31178
 C379 C 0.66982 1.16915 0.32924
 C380 C 0.67533 1.14526 0.31172
 C381 C 0.65807 1.12787 0.32876
 C382 C 0.63503 1.13417 0.36372
 C383 C 0.62968 1.15825 0.38093
 C384 C 0.64697 1.17560 0.36382
 C385 C 0.61668 1.11571 0.38233
 C386 C 0.59315 1.11955 0.34680
 C387 C 0.57588 1.10220 0.36435
 C388 C 0.58187 1.08078 0.41743
 C389 C 0.60521 1.07676 0.45296
 C390 C 0.62251 1.09411 0.43575
 C391 C 0.56405 1.06297 0.43569
 C392 C 0.54907 1.04810 0.45098
 H393 H 0.69295 1.14008 0.28452
 H394 H 0.66267 1.10954 0.31312
 H395 H 0.61221 1.16366 0.40921
 H396 H 0.64251 1.19404 0.37771
 H397 H 0.58815 1.13584 0.30406
 H398 H 0.55787 1.10548 0.33630
 H399 H 0.61002 1.06026 0.49437
 H400 H 0.64037 1.09074 0.46558
 C401 C 0.20205 0.29860 0.20367
 C402 C 0.18732 0.31371 0.18866
 C403 C 0.16964 0.33164 0.17054
 C404 C 0.17398 0.35505 0.20473
 C405 C 0.15677 0.37244 0.18709
 C406 C 0.13499 0.36663 0.13455
 C407 C 0.13082 0.34303 0.10048
 C408 C 0.14803 0.32567 0.11848
 C409 C 0.11663 0.38504 0.11586
 C410 C 0.10318 0.38527 0.01255
 C411 C 0.08578 0.40248 -0.00471
 C412 C 0.08159 0.41968 0.08096
 C413 C 0.09488 0.41962 0.18397
 C414 C 0.11228 0.40242 0.20146
 C415 C 0.06363 0.43734 0.06338
 C416 C 0.04857 0.45214 0.04889
 H417 H 0.19071 0.35988 0.24453
 H418 H 0.16062 0.39048 0.21312
 H419 H 0.11412 0.33792 0.06137
 H420 H 0.14446 0.30760 0.09183
 H421 H 0.10625 0.37224 -0.05512
 H422 H 0.07558 0.40235 -0.08464
 H423 H 0.09172 0.43284 0.25090
 H424 H 0.12207 0.40249 0.28265
 C425 C 0.70279 0.79931 0.70331
 C426 C 0.68795 0.81431 0.68830
 C427 C 0.67017 0.83212 0.66972
 C428 C 0.67364 0.85517 0.71155
 C429 C 0.65639 0.87248 0.69313
 C430 C 0.63538 0.86694 0.63291
 C431 C 0.63208 0.84370 0.59123
 C432 C 0.64936 0.82643 0.60960
 C433 C 0.61693 0.88525 0.61413
 C434 C 0.59277 0.87951 0.62423
 C435 C 0.57541 0.89672 0.60638
 C436 C 0.58193 0.91990 0.57835
 C437 C 0.60589 0.92581 0.56810
 C438 C 0.62329 0.90863 0.58608
 C439 C 0.56403 0.93764 0.56095
 C440 C 0.54900 0.95248 0.54663
 H441 H 0.68965 0.85974 0.75863
 H442 H 0.65937 0.89013 0.72715
 H443 H 0.61627 0.83895 0.54303
 H444 H 0.64651 0.80865 0.57674
 H445 H 0.58731 0.86179 0.64780
 H446 H 0.55691 0.89197 0.61489
 H447 H 0.61113 0.94370 0.54627
 H448 H 0.64171 0.91357 0.57657
 C449 C 0.79735 0.20054 0.20179
 C450 C 0.81222 0.18555 0.18665
 C451 C 0.83008 0.16776 0.16860
 C452 C 0.85334 0.17445 0.14281
 C453 C 0.87074 0.15722 0.12523
 C454 C 0.86509 0.13302 0.13319
 C455 C 0.84164 0.12648 0.15925
 C456 C 0.82427 0.14375 0.17677
 C457 C 0.88360 0.11471 0.11480
 C458 C 0.87843 0.09377 0.05286
 C459 C 0.89587 0.07657 0.03559
 C460 C 0.91869 0.08004 0.07992
 C461 C 0.92404 0.10080 0.14148
 C462 C 0.90663 0.11803 0.15884
 C463 C 0.93662 0.06230 0.06229
 C464 C 0.95164 0.04744 0.04747
 H465 H 0.85803 0.19299 0.13593
 H466 H 0.88854 0.16284 0.10390
 H467 H 0.83680 0.10802 0.16769
 H468 H 0.80633 0.13837 0.19695
 H469 H 0.86098 0.09082 0.01653
 H470 H 0.89156 0.06060 -0.01254
 H471 H 0.94165 0.10366 0.17626
 H472 H 0.91111 0.13380 0.20807
 C473 C 0.29737 0.70152 0.70267
 C474 C 0.31220 0.68649 0.68752
 C475 C 0.32997 0.66863 0.66917
 C476 C 0.32407 0.64465 0.67784
 C477 C 0.34135 0.62731 0.66005
 C478 C 0.36481 0.63375 0.63375
 C479 C 0.37054 0.65792 0.62499
 C480 C 0.35322 0.67523 0.64261
 C481 C 0.38326 0.61537 0.61584
 C482 C 0.40628 0.61866 0.66002
 C483 C 0.42366 0.60141 0.64280
 C484 C 0.41826 0.58060 0.58174
 C485 C 0.39543 0.57714 0.53744
 C486 C 0.37804 0.59441 0.55425
 C487 C 0.43617 0.56284 0.56423
 C488 C 0.45118 0.54798 0.54944
 H489 H 0.30612 0.63936 0.69843
 H490 H 0.33644 0.60888 0.66875
 H491 H 0.38833 0.66345 0.60295
 H492 H 0.35797 0.69374 0.63541
 H493 H 0.41076 0.63443 0.70936
 H494 H 0.44128 0.60426 0.67747
 H495 H 0.39109 0.56113 0.48971
 H496 H 0.36058 0.59147 0.51795
   
