data_POSCAR
  _audit_creation_date              2014-09-24
  _audit_creation_method            'ToBaCCo'
  _symmetry_space_group_name_H-M    'P1'
  _symmetry_Int_Tables_number       1
  _symmetry_cell_setting            triclinic
  loop_
  _symmetry_equiv_pos_as_xyz
 x,y,z
_cell_length_a 37.2657
_cell_length_b 38.7305
_cell_length_c 36.5265
_cell_angle_alpha 89.761000
_cell_angle_beta 89.682300
_cell_angle_gamma 99.378100
loop_
  _atom_site_label
  _atom_site_type_symbol
  _atom_site_fract_x
  _atom_site_fract_y
  _atom_site_fract_z
O1 O 0.04792 0.22204 -0.04398
 O2 O -0.02591 0.23871 0.01950
 O3 O 0.04174 0.22987 0.02668
 O4 O -0.01762 0.23713 -0.05174
 O5 O -0.03720 0.18024 -0.04974
 O6 O 0.02022 0.17335 0.03135
 O7 O -0.04571 0.18193 0.02141
 O8 O 0.02750 0.16545 -0.03952
 Cu9 Cu 0.01355 0.23757 -0.01281
 Cu10 Cu -0.01074 0.16963 -0.00899
 C11 C 0.05007 0.19057 -0.05255
 C12 C -0.04815 0.21266 0.03186
 C13 C 0.04043 0.20072 0.04293
 C14 C -0.03721 0.21007 -0.06450
 O15 O 0.51574 0.74884 0.46494
 O16 O 0.44810 0.72940 0.54021
 O17 O 0.51687 0.75161 0.53651
 O18 O 0.44468 0.72947 0.46844
 O19 O 0.45288 0.67434 0.46958
 O20 O 0.52686 0.69685 0.53651
 O21 O 0.45811 0.67479 0.54100
 O22 O 0.52262 0.69329 0.46523
 Cu23 Cu 0.48041 0.74538 0.50211
 Cu24 Cu 0.49098 0.67935 0.50295
 C25 C 0.53040 0.72395 0.45213
 C26 C 0.44267 0.69883 0.55424
 C27 C 0.53350 0.72793 0.54864
 C28 C 0.43628 0.69818 0.45742
 O29 O 0.98226 0.73263 0.05084
 O30 O 0.94381 0.76272 -0.03331
 O31 O 0.99506 0.72720 -0.02556
 O32 O 0.93109 0.76683 0.02944
 O33 O 0.97312 0.81368 0.03618
 O34 O 1.03842 0.77280 -0.01890
 O35 O 0.98903 0.80742 -0.03588
 O36 O 1.02823 0.77614 0.04778
 Cu37 Cu 0.96123 0.74114 0.00626
 Cu38 Cu 1.01017 0.79808 0.00875
 C39 C 1.01187 0.74884 0.06367
 C40 C 0.95987 0.79032 -0.04900
 C41 C 1.02682 0.74324 -0.03307
 C42 C 0.94078 0.79770 0.04098
 O43 O 0.57478 0.28246 0.52138
 O44 O 0.50316 0.24538 0.45755
 O45 O 0.56826 0.28167 0.45093
 O46 O 0.51009 0.24655 0.52799
 O47 O 0.48644 0.29512 0.53087
 O48 O 0.54510 0.33059 0.45272
 O49 O 0.48004 0.29432 0.45942
 O50 O 0.55130 0.33115 0.52463
 Cu51 Cu 0.54141 0.25919 0.48914
 Cu52 Cu 0.51347 0.31781 0.49204
 C53 C 0.57497 0.31282 0.53440
 C54 C 0.47931 0.26340 0.44759
 C55 C 0.56662 0.31201 0.43851
 C56 C 0.48844 0.26459 0.54277
 O57 O 0.70370 0.06530 -0.06285
 O58 O 0.69594 0.00415 0.01361
 O59 O 0.68955 0.06955 0.00696
 O60 O 0.71536 0.00177 -0.05539
 O61 O 0.77287 0.02025 -0.04185
 O62 O 0.74760 0.08729 0.01921
 O63 O 0.75334 0.02124 0.02812
 O64 O 0.76133 0.08426 -0.04977
 Cu65 Cu 0.69545 0.03333 -0.02556
 Cu66 Cu 0.76464 0.05468 -0.00963
 C67 C 0.73353 0.08511 -0.06964
 C68 C 0.72262 0.00223 0.03444
 C69 C 0.71444 0.09016 0.02333
 C70 C 0.74899 0.00039 -0.06000
 O71 O 0.21399 0.40423 0.56234
 O72 O 0.18588 0.46498 0.49437
 O73 O 0.20118 0.39992 0.49726
 O74 O 0.19717 0.46394 0.56898
 O75 O 0.25400 0.48809 0.55714
 O76 O 0.25632 0.42615 0.48115
 O77 O 0.24289 0.49021 0.48634
 O78 O 0.27142 0.42556 0.54915
 Cu79 Cu 0.19316 0.43294 0.53079
 Cu80 Cu 0.26184 0.46042 0.51736
 C81 C 0.24777 0.40337 0.56547
 C82 C 0.20954 0.48741 0.47838
 C83 C 0.22982 0.40112 0.47809
 C84 C 0.22533 0.48568 0.57658
 O85 O 0.27756 0.91628 0.00571
 O86 O 0.26273 0.99043 0.06307
 O87 O 0.25791 0.92122 0.07117
 O88 O 0.28552 0.98075 -0.00600
 O89 O 0.22840 0.98659 -0.01503
 O90 O 0.20066 0.91756 0.05410
 O91 O 0.20444 0.98182 0.04874
 O92 O 0.22293 0.91552 -0.01728
 Cu93 Cu 0.27651 0.95384 0.03603
 Cu94 Cu 0.20868 0.94852 0.01441
 C95 C 0.25295 0.90392 -0.01676
 C96 C 0.23091 0.99794 0.06672
 C97 C 0.22446 0.90898 0.07569
 C98 C 0.26197 0.99486 -0.02297
 O99 O 0.80846 0.59220 0.51510
 O100 O 0.82762 0.53202 0.44110
 O101 O 0.81009 0.59500 0.44335
 O102 O 0.83023 0.53108 0.51157
 O103 O 0.77233 0.50665 0.51254
 O104 O 0.75247 0.56972 0.44246
 O105 O 0.76963 0.50795 0.44117
 O106 O 0.75088 0.56721 0.51445
 Cu107 Cu 0.82481 0.56529 0.47778
 Cu108 Cu 0.75552 0.53562 0.47784
 C109 C 0.77616 0.58953 0.52763
 C110 C 0.80173 0.50962 0.42876
 C111 C 0.77820 0.59276 0.43072
 C112 C 0.80488 0.50779 0.52337
 C113 C 0.24395 0.19571 0.22559
 C114 C 0.22096 0.22099 0.23081
 C115 C 0.22802 0.24484 0.25953
 C116 C 0.25698 0.24345 0.28347
 C117 C 0.28175 0.22013 0.27663
 C118 C 0.27519 0.19693 0.24710
 H119 H 0.29300 0.17784 0.24257
 H120 H 0.20902 0.26263 0.26515
 C121 C 0.74151 0.84538 0.23247
 C122 C 0.77162 0.82869 0.22350
 C123 C 0.77895 0.80074 0.24526
 C124 C 0.75506 0.78660 0.27317
 C125 C 0.72426 0.80226 0.28130
 C126 C 0.71924 0.83272 0.26250
 H127 H 0.69540 0.84441 0.26873
 H128 H 0.80146 0.78747 0.23804
 C129 C 0.78023 0.29288 0.19305
 C130 C 0.74202 0.28272 0.18890
 C131 C 0.71865 0.29942 0.21037
 C132 C 0.73200 0.32407 0.23701
 C133 C 0.76999 0.33522 0.24041
 C134 C 0.79354 0.31990 0.21749
 H135 H 0.82269 0.32774 0.21996
 H136 H 0.68947 0.29158 0.20805
 C137 C 0.16848 0.70367 0.25785
 C138 C 0.19874 0.73108 0.26070
 C139 C 0.22934 0.72530 0.28076
 C140 C 0.23007 0.69342 0.29915
 C141 C 0.19863 0.66723 0.29891
 C142 C 0.16867 0.67271 0.27784
 H143 H 0.14516 0.65225 0.27665
 H144 H 0.25301 0.74567 0.28164
 C145 C 0.75955 0.31860 0.71374
 C146 C 0.79709 0.33162 0.70890
 C147 C 0.82253 0.31653 0.72941
 C148 C 0.81130 0.28793 0.75288
 C149 C 0.77370 0.27531 0.75763
 C150 C 0.74840 0.29146 0.73865
 H151 H 0.71961 0.28141 0.74166
 H152 H 0.85136 0.32601 0.72590
 C153 C 0.27191 0.69417 0.75246
 C154 C 0.24077 0.66812 0.75512
 C155 C 0.21222 0.67349 0.77823
 C156 C 0.21370 0.70365 0.79978
 C157 C 0.24630 0.72859 0.79917
 C158 C 0.27416 0.72408 0.77424
 H159 H 0.29891 0.74320 0.77331
 H160 H 0.18831 0.65339 0.77961
 C161 C 0.28728 0.22536 0.73688
 C162 C 0.31951 0.21153 0.74369
 C163 C 0.32109 0.19063 0.77488
 C164 C 0.29005 0.17809 0.79626
 C165 C 0.25808 0.19291 0.78983
 C166 C 0.25778 0.21725 0.76118
 H167 H 0.23311 0.22793 0.75603
 H168 H 0.34666 0.18198 0.78078
 C169 C 0.76356 0.77103 0.70524
 C170 C 0.73571 0.79160 0.71037
 C171 C 0.74144 0.82013 0.73456
 C172 C 0.77362 0.82809 0.75474
 C173 C 0.80106 0.80710 0.74995
 C174 C 0.79617 0.77960 0.72465
 H175 H 0.81699 0.76318 0.72195
 H176 H 0.72042 0.83623 0.73784
 C177 C 0.24361 0.07950 0.12392
 C178 C 0.21013 0.07593 0.14084
 C179 C 0.18253 0.04794 0.13458
 C180 C 0.18969 0.02251 0.10969
 C181 C 0.22419 0.02525 0.09233
 C182 C 0.25160 0.05412 0.09964
 O183 O 0.26590 0.10823 0.13377
 C184 C 0.24607 0.12293 0.15759
 C185 C 0.21187 0.10400 0.16300
 C186 C 0.18719 0.11341 0.18812
 C187 C 0.19822 0.14368 0.20854
 C188 C 0.23281 0.16452 0.20257
 C189 C 0.25724 0.15375 0.17692
 H190 H 0.15642 0.04581 0.14826
 H191 H 0.16858 0.00041 0.10436
 H192 H 0.27808 0.05688 0.08656
 H193 H 0.16083 0.09751 0.19258
 H194 H 0.18010 0.15047 0.22958
 H195 H 0.28416 0.16863 0.17258
 C196 C 0.78013 0.66418 0.59542
 C197 C 0.74891 0.65303 0.61532
 C198 C 0.72587 0.62189 0.60812
 C199 C 0.73526 0.60138 0.57914
 C200 C 0.76744 0.61198 0.55816
 C201 C 0.79032 0.64387 0.56668
 O202 O 0.79773 0.69502 0.60640
 C203 C 0.77719 0.70339 0.63384
 C204 C 0.74710 0.67846 0.64046
 C205 C 0.72201 0.68169 0.66805
 C206 C 0.72801 0.71200 0.68957
 C207 C 0.75825 0.73868 0.68271
 C208 C 0.78348 0.73397 0.65471
 H209 H 0.70138 0.61375 0.62408
 H210 H 0.71749 0.57705 0.57323
 H211 H 0.81490 0.65283 0.55110
 H212 H 0.69870 0.66155 0.67293
 H213 H 0.70904 0.71481 0.71149
 H214 H 0.80695 0.75376 0.64909
 C215 C 0.73808 0.95171 0.11854
 C216 C 0.70360 0.93339 0.12365
 C217 C 0.67493 0.93643 0.10055
 C218 C 0.68186 0.95949 0.07091
 C219 C 0.71718 0.97917 0.06457
 C220 C 0.74574 0.97512 0.08908
 O221 O 0.76168 0.94328 0.14291
 C222 C 0.74150 0.91908 0.16360
 C223 C 0.70579 0.91226 0.15284
 C224 C 0.68024 0.88645 0.16879
 C225 C 0.69214 0.86596 0.19637
 C226 C 0.72904 0.87164 0.20770
 C227 C 0.75383 0.89948 0.19178
 H228 H 0.64817 0.92129 0.10498
 H229 H 0.65938 0.96181 0.05288
 H230 H 0.77304 0.98928 0.08516
 H231 H 0.65244 0.88126 0.15927
 H232 H 0.67296 0.84440 0.20748
 H233 H 0.78219 0.90428 0.19953
 C234 C 0.26278 0.33963 0.63961
 C235 C 0.27407 0.31390 0.61863
 C236 C 0.27937 0.31707 0.58099
 C237 C 0.27222 0.34782 0.56421
 C238 C 0.25926 0.37405 0.58503
 C239 C 0.25452 0.37005 0.62327
 O240 O 0.26024 0.33162 0.67501
 C241 C 0.26983 0.30008 0.67631
 C242 C 0.27803 0.28787 0.64248
 C243 C 0.28714 0.25482 0.63730
 C244 C 0.28860 0.23376 0.66841
 C245 C 0.28265 0.24664 0.70389
 C246 C 0.27222 0.27999 0.70772
 H247 H 0.28852 0.29659 0.56513
 H248 H 0.27563 0.35080 0.53483
 H249 H 0.24442 0.38975 0.63957
 H250 H 0.29264 0.24548 0.61029
 H251 H 0.29518 0.20774 0.66500
 H252 H 0.26679 0.29016 0.73439
 C253 C 0.89166 0.25325 0.09497
 C254 C 0.87335 0.22362 0.11170
 C255 C 0.87882 0.19019 0.10248
 C256 C 0.90452 0.18700 0.07513
 C257 C 0.92494 0.21709 0.05787
 C258 C 0.91818 0.25082 0.06815
 O259 O 0.88083 0.28238 0.10673
 C260 C 0.85534 0.27076 0.13151
 C261 C 0.85011 0.23500 0.13580
 C262 C 0.82486 0.21712 0.16020
 C263 C 0.80341 0.23681 0.18042
 C264 C 0.80667 0.27350 0.17504
 C265 C 0.83380 0.29087 0.15100
 H266 H 0.86361 0.16726 0.11570
 H267 H 0.90886 0.16086 0.06805
 H268 H 0.93272 0.27438 0.05549
 H269 H 0.82149 0.18897 0.16324
 H270 H 0.78320 0.22340 0.19923
 H271 H 0.83692 0.31886 0.14653
 C272 C 0.37632 0.70638 0.63148
 C273 C 0.37942 0.67670 0.65125
 C274 C 0.40158 0.65303 0.64038
 C275 C 0.42167 0.66037 0.60795
 C276 C 0.41951 0.69109 0.58720
 C277 C 0.39639 0.71442 0.59925
 O278 O 0.35275 0.72475 0.64608
 C279 C 0.34084 0.70628 0.67571
 C280 C 0.35650 0.67675 0.68021
 C281 C 0.34761 0.65332 0.70906
 C282 C 0.32084 0.66020 0.73387
 C283 C 0.30329 0.68974 0.72899
 C284 C 0.31409 0.71357 0.70002
 H285 H 0.40330 0.62971 0.65627
 H286 H 0.43936 0.64230 0.59937
 H287 H 0.39400 0.73797 0.58402
 H288 H 0.36036 0.63029 0.71200
 H289 H 0.31288 0.64202 0.75619
 H290 H 0.30089 0.73616 0.69568
 C291 C 0.07836 0.73342 0.13416
 C292 C 0.05576 0.71466 0.15965
 C293 C 0.01858 0.70500 0.15413
 C294 C 0.00415 0.71536 0.12112
 C295 C 0.02663 0.73672 0.09546
 C296 C 0.06435 0.74586 0.10239
 O297 O 0.11313 0.73806 0.14346
 C298 C 0.11243 0.72249 0.17589
 C299 C 0.07797 0.70848 0.18751
 C300 C 0.07103 0.69306 0.22180
 C301 C 0.10082 0.69239 0.24508
 C302 C 0.13691 0.70567 0.23324
 C303 C 0.14250 0.71990 0.19747
 H304 H 0.00139 0.68962 0.17424
 H305 H -0.02473 0.70793 0.11632
 H306 H 0.08255 0.76133 0.08312
 H307 H 0.04360 0.68282 0.23072
 H308 H 0.09568 0.68170 0.27238
 H309 H 0.16944 0.72902 0.18665
 C310 C 0.65798 0.32139 0.59383
 C311 C 0.64902 0.34356 0.62049
 C312 C 0.61762 0.35866 0.61899
 C313 C 0.59419 0.34998 0.58921
 C314 C 0.60221 0.32602 0.56226
 C315 C 0.63494 0.31211 0.56436
 O316 O 0.68796 0.30842 0.60114
 C317 C 0.69803 0.32238 0.63329
 C318 C 0.67500 0.34389 0.64655
 C319 C 0.67861 0.35848 0.68138
 C320 C 0.70697 0.35042 0.70337
 C321 C 0.73135 0.32895 0.68980
 C322 C 0.72692 0.31489 0.65425
 H323 H 0.61091 0.37575 0.64045
 H324 H 0.56904 0.36054 0.58813
 H325 H 0.64163 0.29350 0.54442
 H326 H 0.65960 0.37452 0.69167
 H327 H 0.70995 0.36062 0.73094
 H328 H 0.74454 0.29746 0.64392
 C329 C 0.75472 0.16454 0.86913
 C330 C 0.73412 0.15294 0.83912
 C331 C 0.71373 0.11967 0.83700
 C332 C 0.71420 0.09750 0.86728
 C333 C 0.73531 0.10868 0.89855
 C334 C 0.75623 0.14259 0.89934
 O335 O 0.77146 0.19740 0.86565
 C336 C 0.76130 0.20656 0.83268
 C337 C 0.73863 0.18019 0.81530
 C338 C 0.72535 0.18369 0.78027
 C339 C 0.73650 0.21553 0.76202
 C340 C 0.76011 0.24317 0.77912
 C341 C 0.77193 0.23882 0.81540
 H342 H 0.69768 0.11124 0.81309
 H343 H 0.69814 0.07155 0.86640
 H344 H 0.77221 0.15185 0.92306
 H345 H 0.70772 0.16241 0.76714
 H346 H 0.72754 0.21837 0.73417
 H347 H 0.78960 0.25954 0.82932
 C348 C 0.20418 0.56412 0.41635
 C349 C 0.18622 0.54717 0.38707
 C350 C 0.17281 0.51148 0.38732
 C351 C 0.17880 0.49235 0.41880
 C352 C 0.19871 0.50898 0.44858
 C353 C 0.21137 0.54541 0.44747
 O354 O 0.21438 0.59820 0.41062
 C355 C 0.20302 0.60275 0.37681
 C356 C 0.18614 0.57227 0.36102
 C357 C 0.17405 0.57069 0.32507
 C358 C 0.17933 0.60187 0.30464
 C359 C 0.19555 0.63407 0.32058
 C360 C 0.20724 0.63431 0.35748
 H361 H 0.15865 0.49876 0.36399
 H362 H 0.16947 0.46436 0.41935
 H363 H 0.22689 0.55856 0.46982
 H364 H 0.16153 0.54624 0.31299
 H365 H 0.17077 0.60090 0.27634
 H366 H 0.21913 0.65830 0.37085
 C367 C 0.24356 0.84112 0.90578
 C368 C 0.27445 0.82661 0.91077
 C369 C 0.29895 0.83635 0.93876
 C370 C 0.29151 0.86240 0.96270
 C371 C 0.25950 0.87774 0.95884
 C372 C 0.23508 0.86662 0.92985
 O373 O 0.22403 0.82786 0.87725
 C374 C 0.24299 0.80429 0.86422
 C375 C 0.27389 0.80248 0.88408
 C376 C 0.29688 0.77855 0.87690
 C377 C 0.28732 0.75494 0.84844
 C378 C 0.25557 0.75592 0.82738
 C379 C 0.23358 0.78174 0.83470
 H380 H 0.32307 0.82442 0.94198
 H381 H 0.31066 0.87023 0.98450
 H382 H 0.21052 0.87771 0.92577
 H383 H 0.32077 0.77743 0.89329
 H384 H 0.30426 0.73523 0.84327
 H385 H 0.20923 0.78307 0.81909
 C386 C 0.78923 0.45031 0.34663
 C387 C 0.81728 0.43163 0.35144
 C388 C 0.84251 0.43884 0.37953
 C389 C 0.83831 0.46599 0.40389
 C390 C 0.80871 0.48455 0.40032
 C391 C 0.78403 0.47673 0.37105
 O392 O 0.76799 0.43918 0.31858
 C393 C 0.78261 0.41261 0.30565
 C394 C 0.81255 0.40659 0.32497
 C395 C 0.83037 0.37848 0.31752
 C396 C 0.81646 0.35545 0.28942
 C397 C 0.78561 0.36112 0.26885
 C398 C 0.76929 0.39092 0.27669
 H399 H 0.86434 0.42379 0.38287
 H400 H 0.85711 0.47156 0.42642
 H401 H 0.76109 0.49039 0.36785
 H402 H 0.85347 0.37378 0.33353
 H403 H 0.82919 0.33271 0.28440
 H404 H 0.74643 0.39684 0.26116
 C405 C 0.13391 0.19936 0.88665
 C406 C 0.13073 0.16586 0.87321
 C407 C 0.10230 0.13957 0.88296
 C408 C 0.07608 0.14811 0.90753
 C409 C 0.07849 0.18255 0.92174
 C410 C 0.10795 0.20855 0.91097
 O411 O 0.16324 0.22031 0.87418
 C412 C 0.17880 0.19959 0.85240
 C413 C 0.15995 0.16602 0.85073
 C414 C 0.17134 0.14012 0.82929
 C415 C 0.20363 0.14917 0.80890
 C416 C 0.22394 0.18339 0.81095
 C417 C 0.21103 0.20904 0.83261
 H418 H 0.10040 0.11338 0.87211
 H419 H 0.05375 0.12781 0.91526
 H420 H 0.11072 0.23500 0.92133
 H421 H 0.15592 0.11393 0.82825
 H422 H 0.21313 0.12961 0.79192
 H423 H 0.22591 0.23545 0.83419
 C424 C 0.60607 0.76426 0.38818
 C425 C 0.60657 0.73677 0.36456
 C426 C 0.58276 0.70535 0.36752
 C427 C 0.55754 0.70188 0.39634
 C428 C 0.55623 0.72973 0.42119
 C429 C 0.58059 0.76161 0.41678
 O430 O 0.63194 0.79139 0.38085
 C431 C 0.64897 0.78070 0.35195
 C432 C 0.63427 0.74751 0.34094
 C433 C 0.64731 0.73109 0.31115
 C434 C 0.67686 0.74962 0.29184
 C435 C 0.69342 0.78349 0.30311
 C436 C 0.67891 0.79950 0.33336
 H437 H 0.58391 0.68409 0.34865
 H438 H 0.53898 0.67740 0.39935
 H439 H 0.58045 0.78310 0.43563
 H440 H 0.63490 0.70513 0.30278
 H441 H 0.68666 0.73774 0.26779
 H442 H 0.69061 0.82558 0.34205
 C443 C 0.89198 0.80192 0.87844
 C444 C 0.91450 0.81525 0.85002
 C445 C 0.95213 0.82333 0.85373
 C446 C 0.96706 0.81675 0.88789
 C447 C 0.94428 0.80174 0.91698
 C448 C 0.90621 0.79475 0.91221
 O449 O 0.85717 0.79535 0.86941
 C450 C 0.85759 0.80442 0.83440
 C451 C 0.89197 0.81650 0.82097
 C452 C 0.89854 0.82543 0.78427
 C453 C 0.86845 0.82191 0.76068
 C454 C 0.83284 0.81035 0.77439
 C455 C 0.82742 0.80143 0.81170
 H456 H 0.96940 0.83372 0.83102
 H457 H 0.99630 0.82189 0.89121
 H458 H 0.88819 0.78319 0.93393
 H459 H 0.92583 0.83431 0.77409
 H460 H 0.87266 0.82853 0.73197
 H461 H 0.80049 0.79196 0.82255
 C462 C 0.40415 0.25415 0.37757
 C463 C 0.39574 0.21831 0.37527
 C464 C 0.41376 0.19591 0.39538
 C465 C 0.44156 0.21109 0.41886
 C466 C 0.45041 0.24802 0.42218
 C467 C 0.43130 0.26980 0.40117
 O468 O 0.38389 0.27070 0.35600
 C469 C 0.36206 0.24473 0.33991
 C470 C 0.36805 0.21216 0.35089
 C471 C 0.34747 0.18137 0.33831
 C472 C 0.31936 0.18426 0.31363
 C473 C 0.31264 0.21758 0.30169
 C474 C 0.33482 0.24820 0.31478
 H475 H 0.40669 0.16778 0.39307
 H476 H 0.45584 0.19406 0.43482
 H477 H 0.43751 0.29804 0.40295
 H478 H 0.35242 0.15603 0.34769
 H479 H 0.30234 0.16057 0.30445
 H480 H 0.33072 0.27399 0.30598
 C481 C 0.75021 0.92790 0.87028
 C482 C 0.78488 0.93719 0.85648
 C483 C 0.80908 0.96548 0.86949
 C484 C 0.79705 0.98529 0.89770
 C485 C 0.76113 0.97700 0.91205
 C486 C 0.73736 0.94772 0.89806
 O487 O 0.73188 0.89971 0.85417
 C488 C 0.75547 0.89126 0.82960
 C489 C 0.78815 0.91360 0.82976
 C490 C 0.81636 0.91040 0.80560
 C491 C 0.81087 0.88279 0.78047
 C492 C 0.77804 0.85832 0.78054
 C493 C 0.74971 0.86306 0.80527
 H494 H 0.83626 0.97217 0.85824
 H495 H 0.81557 1.00767 0.90774
 H496 H 0.70983 0.94069 0.90836
 H497 H 0.84157 0.92877 0.80580
 H498 H 0.83222 0.88052 0.76086
 H499 H 0.72420 0.84510 0.80586
 C500 C 0.24906 0.34688 0.39742
 C501 C 0.24071 0.31394 0.41262
 C502 C 0.22809 0.30797 0.44828
 C503 C 0.22400 0.33722 0.46925
 C504 C 0.23325 0.37145 0.45452
 C505 C 0.24624 0.37648 0.41820
 O506 O 0.25830 0.34647 0.36230
 C507 C 0.25587 0.31256 0.35532
 C508 C 0.24565 0.29164 0.38539
 C509 C 0.24081 0.25534 0.38428
 C510 C 0.24620 0.23988 0.35059
 C511 C 0.25576 0.26083 0.31904
 C512 C 0.26082 0.29768 0.32137
 H513 H 0.22117 0.28176 0.45937
 H514 H 0.21418 0.33333 0.49718
 H515 H 0.25303 0.40242 0.40637
 H516 H 0.23261 0.23952 0.40832
 H517 H 0.24188 0.21160 0.34867
 H518 H 0.26765 0.31403 0.29740
 C519 C 0.26713 0.07068 0.91360
 C520 C 0.29504 0.06426 0.89125
 C521 C 0.31417 0.03683 0.89712
 C522 C 0.30390 0.01481 0.92720
 C523 C 0.27323 0.01896 0.94903
 C524 C 0.25442 0.04733 0.94190
 O525 O 0.25455 0.09981 0.90460
 C526 C 0.27440 0.11141 0.87532
 C527 C 0.29867 0.08990 0.86555
 C528 C 0.31946 0.09475 0.83391
 C529 C 0.31502 0.12290 0.81125
 C530 C 0.29216 0.14756 0.82154
 C531 C 0.27208 0.14165 0.85490
 H532 H 0.33664 0.03292 0.87957
 H533 H 0.31869 -0.00660 0.93226
 H534 H 0.23156 0.05179 0.95865
 H535 H 0.33724 0.07653 0.82602
 H536 H 0.32931 0.12493 0.78528
 H537 H 0.25518 0.15968 0.86502
 C538 C 0.76909 0.67369 0.37663
 C539 C 0.76470 0.65976 0.34202
 C540 C 0.76278 0.62421 0.33511
 C541 C 0.76594 0.60214 0.36506
 C542 C 0.77156 0.61605 0.40073
 C543 C 0.77312 0.65228 0.40670
 O544 O 0.76951 0.70804 0.37724
 C545 C 0.76559 0.71600 0.34224
 C546 C 0.76295 0.68742 0.31956
 C547 C 0.75968 0.68984 0.28179
 C548 C 0.75861 0.72303 0.26680
 C549 C 0.76003 0.75272 0.28967
 C550 C 0.76377 0.74919 0.32796
 H551 H 0.75912 0.61388 0.30765
 H552 H 0.76502 0.57439 0.36046
 H553 H 0.77752 0.66336 0.43380
 H554 H 0.75791 0.66700 0.26451
 H555 H 0.75543 0.72552 0.23749
 H556 H 0.76487 0.77150 0.34592
 C557 C 0.10625 0.72689 0.91225
 C558 C 0.08838 0.71035 0.88280
 C559 C 0.05086 0.70062 0.88165
 C560 C 0.03070 0.70919 0.91178
 C561 C 0.04809 0.72946 0.94095
 C562 C 0.08659 0.73809 0.94128
 O563 O 0.14225 0.73189 0.90850
 C564 C 0.14701 0.71906 0.87546
 C565 C 0.11480 0.70670 0.85828
 C566 C 0.11300 0.69573 0.82223
 C567 C 0.14582 0.69717 0.80316
 C568 C 0.17994 0.70717 0.82081
 C569 C 0.18024 0.71774 0.85799
 H570 H 0.03757 0.68693 0.85838
 H571 H 0.00134 0.70236 0.91093
 H572 H 0.10074 0.75301 0.96339
 H573 H 0.08720 0.68743 0.80887
 H574 H 0.14461 0.68988 0.77455
 H575 H 0.20523 0.72435 0.87314
 C576 C 0.64142 0.32138 0.36775
 C577 C 0.62924 0.34367 0.34302
 C578 C 0.59792 0.35823 0.34902
 C579 C 0.57815 0.34899 0.38153
 C580 C 0.58960 0.32506 0.40672
 C581 C 0.62200 0.31153 0.39982
 O582 O 0.67092 0.30934 0.35653
 C583 C 0.67742 0.32406 0.32383
 C584 C 0.65261 0.34513 0.31403
 C585 C 0.65281 0.36076 0.27959
 C586 C 0.67949 0.35421 0.25431
 C587 C 0.70560 0.33308 0.26425
 C588 C 0.70462 0.31798 0.29954
 H589 H 0.58865 0.37551 0.32910
 H590 H 0.55324 0.35932 0.38635
 H591 H 0.63136 0.29309 0.41841
 H592 H 0.63254 0.37656 0.27210
 H593 H 0.67981 0.36531 0.22703
 H594 H 0.72362 0.30088 0.30725
 C595 C 0.91134 0.24937 0.86165
 C596 C 0.90001 0.22052 0.84032
 C597 C 0.90745 0.18739 0.84904
 C598 C 0.92773 0.18398 0.88082
 C599 C 0.94031 0.21352 0.90288
 C600 C 0.93187 0.24666 0.89300
 O601 O 0.89978 0.27805 0.84979
 C602 C 0.88078 0.26716 0.82023
 C603 C 0.88028 0.23220 0.81305
 C604 C 0.86089 0.21511 0.78413
 C605 C 0.84027 0.23455 0.76252
 C606 C 0.83897 0.27015 0.77059
 C607 C 0.86047 0.28696 0.79909
 H608 H 0.89777 0.16494 0.83215
 H609 H 0.93399 0.15846 0.88796
 H610 H 0.94060 0.26963 0.90949
 H611 H 0.86071 0.18757 0.77911
 H612 H 0.82372 0.22152 0.74078
 H613 H 0.85939 0.31391 0.80613
 C614 C 0.35611 0.70443 0.39613
 C615 C 0.35392 0.67372 0.37690
 C616 C 0.37729 0.64973 0.38302
 C617 C 0.40410 0.65780 0.40994
 C618 C 0.40728 0.68957 0.42984
 C619 C 0.38280 0.71317 0.42268
 O620 O 0.33073 0.72320 0.38684
 C621 C 0.31216 0.70398 0.36109
 C622 C 0.32537 0.67353 0.35383
 C623 C 0.30989 0.64950 0.32790
 C624 C 0.27925 0.65691 0.30911
 C625 C 0.26433 0.68756 0.31700
 C626 C 0.28156 0.71174 0.34292
 H627 H 0.37489 0.62560 0.36772
 H628 H 0.42262 0.63949 0.41496
 H629 H 0.38427 0.73750 0.43752
 H630 H 0.32085 0.62580 0.32250
 H631 H 0.26664 0.63850 0.28892
 H632 H 0.27074 0.73527 0.34954
 C633 C 0.22559 0.84245 0.15137
 C634 C 0.19355 0.84507 0.16922
 C635 C 0.16981 0.86684 0.15698
 C636 C 0.17977 0.88709 0.12540
 C637 C 0.21319 0.88561 0.10717
 C638 C 0.23640 0.86291 0.12044
 O639 O 0.24310 0.81856 0.16600
 C640 C 0.22176 0.80593 0.19381
 C641 C 0.19130 0.82158 0.19727
 C642 C 0.16484 0.81171 0.22400
 C643 C 0.16922 0.78366 0.24713
 C644 C 0.19908 0.76550 0.24241
 C645 C 0.22649 0.77780 0.21634
 H646 H 0.14442 0.86802 0.17108
 H647 H 0.16188 0.90449 0.11564
 H648 H 0.26187 0.86096 0.10683
 H649 H 0.14112 0.82441 0.22623
 H650 H 0.14824 0.77461 0.26718
 H651 H 0.24931 0.76421 0.21185
 C652 C 0.80178 0.44713 0.60454
 C653 C 0.82943 0.42902 0.59553
 C654 C 0.85057 0.43620 0.56405
 C655 C 0.84278 0.46303 0.54092
 C656 C 0.81367 0.48121 0.54911
 C657 C 0.79290 0.47319 0.58139
 O658 O 0.78479 0.43605 0.63545
 C659 C 0.80174 0.41010 0.64592
 C660 C 0.82902 0.40447 0.62230
 C661 C 0.84838 0.37693 0.62673
 C662 C 0.83850 0.35372 0.65611
 C663 C 0.81014 0.35876 0.68069
 C664 C 0.79269 0.38836 0.67616
 H665 H 0.87214 0.42159 0.55747
 H666 H 0.85869 0.46902 0.51611
 H667 H 0.77058 0.48680 0.58818
 H668 H 0.86933 0.37263 0.60743
 H669 H 0.85197 0.33111 0.65886
 H670 H 0.77172 0.39368 0.69486
 C671 C 0.72116 0.17477 0.07520
 C672 C 0.69476 0.16565 0.10154
 C673 C 0.67202 0.13329 0.10197
 C674 C 0.67715 0.10914 0.07452
 C675 C 0.70531 0.11740 0.04817
 C676 C 0.72728 0.15087 0.04829
 O677 O 0.74072 0.20622 0.08036
 C678 C 0.72674 0.21706 0.11093
 C679 C 0.69886 0.19305 0.12523
 C680 C 0.68294 0.19751 0.15900
 C681 C 0.69680 0.22750 0.17915
 C682 C 0.72560 0.25286 0.16511
 C683 C 0.73968 0.24793 0.12967
 H684 H 0.65161 0.12657 0.12313
 H685 H 0.66052 0.08345 0.07490
 H686 H 0.74925 0.15766 0.02870
 H687 H 0.66173 0.17782 0.17023
 H688 H 0.68595 0.23020 0.20635
 H689 H 0.76135 0.26668 0.11777
 C690 C 0.23585 0.56264 0.64006
 C691 C 0.22485 0.54594 0.67253
 C692 C 0.21324 0.51006 0.67517
 C693 C 0.21302 0.49054 0.64296
 C694 C 0.22507 0.50706 0.60941
 C695 C 0.23686 0.54357 0.60789
 O696 O 0.24439 0.59710 0.64337
 C697 C 0.23890 0.60218 0.67873
 C698 C 0.22733 0.57166 0.69780
 C699 C 0.22043 0.57078 0.73521
 C700 C 0.22564 0.60274 0.75378
 C701 C 0.23688 0.63472 0.73468
 C702 C 0.24328 0.63434 0.69647
 H703 H 0.20437 0.49762 0.70099
 H704 H 0.20405 0.46250 0.64416
 H705 H 0.24581 0.55668 0.58240
 H706 H 0.21157 0.54637 0.74961
 H707 H 0.22089 0.60264 0.78306
 H708 H 0.25116 0.65830 0.68100
 C709 C 0.88661 0.83366 0.11414
 C710 C 0.85411 0.83271 0.09606
 C711 C 0.84973 0.82396 0.05932
 C712 C 0.87973 0.81481 0.04071
 C713 C 0.91317 0.81475 0.05895
 C714 C 0.91709 0.82531 0.09586
 O715 O 0.88366 0.83809 0.14999
 C716 C 0.84858 0.83963 0.15464
 C717 C 0.82935 0.83649 0.12245
 C718 C 0.79163 0.83254 0.12137
 C719 C 0.77291 0.83137 0.15481
 C720 C 0.79204 0.83499 0.18845
 C721 C 0.83051 0.83953 0.18820
 H722 H 0.82364 0.82234 0.04600
 H723 H 0.87651 0.80615 0.01258
 H724 H 0.94189 0.82387 0.11067
 H725 H 0.77703 0.82857 0.09580
 H726 H 0.74348 0.82613 0.15457
 H727 H 0.84569 0.84073 0.21348
 C728 C 0.42593 0.25428 0.62587
 C729 C 0.42334 0.21891 0.63194
 C730 C 0.44094 0.19739 0.61034
 C731 C 0.46234 0.21292 0.58122
 C732 C 0.46552 0.24935 0.57392
 C733 C 0.44691 0.27034 0.59668
 O734 O 0.40628 0.26963 0.64948
 C735 C 0.39087 0.24325 0.67070
 C736 C 0.40046 0.21173 0.66089
 C737 C 0.38638 0.18034 0.67790
 C738 C 0.36068 0.18123 0.70576
 C739 C 0.34976 0.21321 0.71650
 C740 C 0.36593 0.24492 0.69924
 H741 H 0.43820 0.16956 0.61564
 H742 H 0.47616 0.19638 0.56413
 H743 H 0.44875 0.29818 0.59188
 H744 H 0.39404 0.15584 0.66926
 H745 H 0.34830 0.15669 0.71818
 H746 H 0.35816 0.26971 0.70668
 C747 C 0.11734 0.21101 0.11024
 C748 C 0.09817 0.20389 0.14246
 C749 C 0.06063 0.19346 0.14355
 C750 C 0.04204 0.19086 0.11010
 C751 C 0.06108 0.19935 0.07677
 C752 C 0.09925 0.20949 0.07677
 O753 O 0.15296 0.21938 0.11516
 C754 C 0.15633 0.21782 0.15128
 C755 C 0.12356 0.20895 0.16927
 C756 C 0.12071 0.20658 0.20721
 C757 C 0.15304 0.21278 0.22738
 C758 C 0.18725 0.22021 0.20934
 C759 C 0.18886 0.22330 0.17075
 H760 H 0.04619 0.18769 0.16921
 H761 H 0.01272 0.18346 0.11018
 H762 H 0.11425 0.21618 0.05156
 H763 H 0.09459 0.19983 0.22076
 H764 H 0.15165 0.21011 0.25691
 H765 H 0.21469 0.22887 0.15642
 C766 C 0.61853 0.75228 0.60436
 C767 C 0.60329 0.75441 0.63854
 C768 C 0.56599 0.74770 0.64489
 C769 C 0.54340 0.73865 0.61472
 C770 C 0.55842 0.73617 0.57933
 C771 C 0.59650 0.74290 0.57395
 O772 O 0.65459 0.76022 0.60439
 C773 C 0.66219 0.76743 0.63931
 C774 C 0.63172 0.76417 0.66128
 C775 C 0.63327 0.77023 0.69874
 C776 C 0.66771 0.77971 0.71435
 C777 C 0.69969 0.78308 0.69245
 C778 C 0.69676 0.77727 0.65422
 H779 H 0.55468 0.74967 0.67201
 H780 H 0.51418 0.73364 0.61877
 H781 H 0.60839 0.74145 0.54700
 H782 H 0.60886 0.76741 0.71542
 H783 H 0.66958 0.78379 0.74364
 H784 H 0.72066 0.77994 0.63679
   
