data_POSCAR
  _audit_creation_date              2014-09-24
  _audit_creation_method            'ToBaCCo'
  _symmetry_space_group_name_H-M    'P1'
  _symmetry_Int_Tables_number       1
  _symmetry_cell_setting            triclinic
  loop_
  _symmetry_equiv_pos_as_xyz
 x,y,z
_cell_length_a 31.8411
_cell_length_b 31.8406
_cell_length_c 31.8484
_cell_angle_alpha 89.998800
_cell_angle_beta 89.997300
_cell_angle_gamma 90.000700
loop_
  _atom_site_label
  _atom_site_type_symbol
  _atom_site_fract_x
  _atom_site_fract_y
  _atom_site_fract_z
O1 O 0.55710 0.50002 0.03470
 O2 O 0.44137 0.50002 0.03469
 O3 O 0.49924 0.44228 0.03469
 O4 O 0.49924 0.55776 0.03469
 O5 O 0.49925 0.55776 -0.03477
 O6 O 0.49925 0.44229 -0.03476
 O7 O 0.44137 0.50002 -0.03475
 O8 O 0.55710 0.50002 -0.03474
 Cu9 Cu 0.49923 0.50002 0.04171
 Cu10 Cu 0.49924 0.50002 -0.04178
 C11 C 0.57663 0.50002 -0.00002
 C12 C 0.42183 0.50002 -0.00003
 C13 C 0.49925 0.42281 -0.00004
 C14 C 0.49926 0.57724 -0.00004
 O15 O -0.03475 0.55869 0.50000
 O16 O -0.03474 0.44290 0.50000
 O17 O -0.03473 0.50078 0.55775
 O18 O -0.03474 0.50078 0.44225
 O19 O 0.03473 0.50079 0.44225
 O20 O 0.03473 0.50079 0.55774
 O21 O 0.03471 0.44291 0.50000
 O22 O 0.03470 0.55870 0.49999
 Cu23 Cu -0.04175 0.50079 0.50000
 Cu24 Cu 0.04173 0.50080 0.50000
 C25 C -0.00003 0.57825 0.49999
 C26 C -0.00001 0.42336 0.50000
 C27 C 0.00000 0.50077 0.57723
 C28 C -0.00000 0.50077 0.42277
 O29 O 0.50001 0.03468 0.55870
 O30 O 0.50001 0.03469 0.44293
 O31 O 0.44225 0.03468 0.50081
 O32 O 0.55778 0.03468 0.50080
 O33 O 0.55778 -0.03478 0.50080
 O34 O 0.44225 -0.03478 0.50081
 O35 O 0.50001 -0.03477 0.44294
 O36 O 0.50001 -0.03477 0.55870
 Cu37 Cu 0.50001 0.04170 0.50082
 Cu38 Cu 0.50001 -0.04179 0.50082
 C39 C 0.50001 -0.00004 0.57825
 C40 C 0.50001 -0.00004 0.42339
 C41 C 0.42276 -0.00005 0.50079
 C42 C 0.57727 -0.00005 0.50079
 O43 O 0.46513 0.00002 -0.05827
 O44 O 0.46513 0.00002 0.05749
 O45 O 0.46508 0.05778 -0.00038
 O46 O 0.46508 -0.05774 -0.00038
 O47 O 0.53455 -0.05775 -0.00038
 O48 O 0.53455 0.05780 -0.00038
 O49 O 0.53458 0.00002 0.05748
 O50 O 0.53458 0.00002 -0.05826
 Cu51 Cu 0.45809 0.00002 -0.00039
 Cu52 Cu 0.54158 0.00002 -0.00039
 C53 C 0.49986 0.00002 -0.07781
 C54 C 0.49986 0.00002 0.07703
 C55 C 0.49981 0.07728 -0.00037
 C56 C 0.49981 -0.07723 -0.00037
 O57 O -0.05746 0.53483 1.00000
 O58 O 0.05833 0.53483 1.00000
 O59 O 0.00043 0.53486 0.94225
 O60 O 0.00043 0.53486 1.05775
 O61 O 0.00043 0.46539 1.05776
 O62 O 0.00043 0.46539 0.94224
 O63 O 0.05833 0.46537 1.00000
 O64 O -0.05745 0.46537 1.00000
 Cu65 Cu 0.00044 0.54186 1.00000
 Cu66 Cu 0.00044 0.45837 1.00000
 C67 C -0.07700 0.50010 1.00001
 C68 C 0.07788 0.50010 1.00000
 C69 C 0.00042 0.50013 0.92276
 C70 C 0.00042 0.50013 1.07724
 O71 O 0.00001 -0.05827 0.46533
 O72 O 0.00001 0.05746 0.46532
 O73 O 0.05776 -0.00040 0.46536
 O74 O -0.05773 -0.00040 0.46535
 O75 O -0.05773 -0.00040 0.53481
 O76 O 0.05774 -0.00040 0.53481
 O77 O 0.00001 0.05747 0.53476
 O78 O 0.00001 -0.05827 0.53477
 Cu79 Cu 0.00002 -0.00041 0.45832
 Cu80 Cu 0.00001 -0.00040 0.54181
 C81 C 0.00001 -0.07781 0.50005
 C82 C 0.00001 0.07699 0.50003
 C83 C 0.07723 -0.00039 0.50009
 C84 C -0.07720 -0.00039 0.50008
 C85 C -0.20566 0.50005 1.00003
 C86 C -0.22791 0.53858 1.00001
 C87 C -0.27257 0.53857 1.00001
 C88 C -0.29478 0.50002 1.00002
 C89 C -0.27255 0.46149 1.00005
 C90 C -0.22788 0.46151 1.00005
 C91 C -0.20641 0.42258 1.00008
 C92 C -0.22840 0.38473 1.00009
 C93 C -0.27205 0.38473 1.00009
 C94 C -0.29404 0.42257 1.00007
 C95 C -0.29408 0.57748 0.99999
 C96 C -0.27212 0.61534 0.99997
 C97 C -0.22846 0.61535 0.99998
 C98 C -0.20645 0.57752 1.00000
 C99 C -0.34043 0.50001 1.00000
 C100 C -0.37831 0.50002 0.99998
 C101 C -0.15999 0.50006 1.00002
 C102 C -0.12209 0.50009 1.00001
 H103 H -0.17246 0.42096 1.00008
 H104 H -0.21147 0.35525 1.00011
 H105 H -0.28899 0.35524 1.00010
 H106 H -0.32798 0.42093 1.00006
 H107 H -0.32803 0.57910 0.99998
 H108 H -0.28907 0.64481 0.99995
 H109 H -0.21155 0.64484 0.99996
 H110 H -0.17251 0.57916 1.00000
 C111 C 0.20654 0.50005 1.00002
 C112 C 0.22876 0.46151 0.99999
 C113 C 0.27343 0.46150 0.99998
 C114 C 0.29566 0.50003 1.00000
 C115 C 0.27345 0.53857 1.00004
 C116 C 0.22879 0.53859 1.00004
 C117 C 0.20733 0.57752 1.00008
 C118 C 0.22935 0.61535 1.00010
 C119 C 0.27300 0.61534 1.00009
 C120 C 0.29496 0.57749 1.00006
 C121 C 0.29491 0.42257 0.99995
 C122 C 0.27293 0.38473 0.99993
 C123 C 0.22928 0.38474 0.99993
 C124 C 0.20729 0.42258 0.99996
 C125 C 0.34131 0.50001 0.99998
 C126 C 0.37920 0.50002 0.99996
 C127 C 0.16086 0.50006 1.00001
 C128 C 0.12296 0.50009 1.00000
 H129 H 0.17339 0.57917 1.00009
 H130 H 0.21243 0.64484 1.00013
 H131 H 0.28996 0.64481 1.00011
 H132 H 0.32891 0.57910 1.00006
 H133 H 0.32886 0.42094 0.99994
 H134 H 0.28987 0.35525 0.99990
 H135 H 0.21234 0.35526 0.99992
 H136 H 0.17334 0.42096 0.99997
 C137 C -0.00001 -0.20640 0.50002
 C138 C 0.03852 -0.22862 0.50005
 C139 C 0.03852 -0.27329 0.50004
 C140 C -0.00002 -0.29552 0.49999
 C141 C -0.03856 -0.27329 0.49996
 C142 C -0.03855 -0.22862 0.49997
 C143 C -0.07747 -0.20712 0.49994
 C144 C -0.11532 -0.22909 0.49989
 C145 C -0.11533 -0.27274 0.49987
 C146 C -0.07749 -0.29475 0.49991
 C147 C 0.07744 -0.29476 0.50007
 C148 C 0.11528 -0.27276 0.50011
 C149 C 0.11529 -0.22911 0.50013
 C150 C 0.07744 -0.20713 0.50010
 C151 C -0.00003 -0.34119 0.49998
 C152 C -0.00004 -0.37910 0.49998
 C153 C -0.00001 -0.16075 0.50002
 C154 C -0.00000 -0.12287 0.50004
 H155 H -0.07909 -0.17317 0.49995
 H156 H -0.14479 -0.21214 0.49986
 H157 H -0.14481 -0.28967 0.49984
 H158 H -0.07912 -0.32869 0.49990
 H159 H 0.07907 -0.32871 0.50006
 H160 H 0.14477 -0.28969 0.50013
 H161 H 0.14477 -0.21217 0.50016
 H162 H 0.07907 -0.17319 0.50011
 C163 C -0.00002 0.20559 0.50002
 C164 C -0.03856 0.22780 0.49995
 C165 C -0.03856 0.27247 0.49994
 C166 C -0.00003 0.29470 0.49999
 C167 C 0.03851 0.27247 0.50006
 C168 C 0.03851 0.22780 0.50008
 C169 C 0.07743 0.20631 0.50015
 C170 C 0.11528 0.22829 0.50019
 C171 C 0.11528 0.27194 0.50018
 C172 C 0.07744 0.29394 0.50011
 C173 C -0.07749 0.29393 0.49986
 C174 C -0.11533 0.27193 0.49981
 C175 C -0.11533 0.22828 0.49983
 C176 C -0.07748 0.20630 0.49990
 C177 C -0.00003 0.34038 0.49999
 C178 C -0.00001 0.37828 0.50000
 C179 C -0.00002 0.15994 0.50003
 C180 C -0.00001 0.12205 0.50002
 H181 H 0.07906 0.17236 0.50016
 H182 H 0.14476 0.21134 0.50025
 H183 H 0.14476 0.28887 0.50021
 H184 H 0.07907 0.32789 0.50010
 H185 H -0.07913 0.32788 0.49985
 H186 H -0.14482 0.28885 0.49975
 H187 H -0.14480 0.21133 0.49979
 H188 H -0.07910 0.17236 0.49991
 C189 C 0.49993 -0.00001 -0.20643
 C190 C 0.49989 0.03852 -0.22866
 C191 C 0.49992 0.03851 -0.27332
 C192 C 0.49999 -0.00002 -0.29555
 C193 C 0.50005 -0.03855 -0.27332
 C194 C 0.50002 -0.03855 -0.22865
 C195 C 0.50008 -0.07747 -0.20717
 C196 C 0.50018 -0.11531 -0.22915
 C197 C 0.50021 -0.11531 -0.27279
 C198 C 0.50015 -0.07747 -0.29478
 C199 C 0.49988 0.07743 -0.29480
 C200 C 0.49981 0.11527 -0.27282
 C201 C 0.49978 0.11528 -0.22918
 C202 C 0.49982 0.07744 -0.20719
 C203 C 0.49999 -0.00003 -0.34121
 C204 C 0.50001 -0.00005 -0.37911
 C205 C 0.49989 -0.00001 -0.16077
 C206 C 0.49986 0.00001 -0.12288
 H207 H 0.50007 -0.07909 -0.17324
 H208 H 0.50023 -0.14479 -0.21222
 H209 H 0.50028 -0.14479 -0.28972
 H210 H 0.50017 -0.07911 -0.32872
 H211 H 0.49990 0.07906 -0.32874
 H212 H 0.49979 0.14475 -0.28975
 H213 H 0.49973 0.14476 -0.21225
 H214 H 0.49979 0.07907 -0.17325
 C215 C 0.49993 -0.00001 0.20565
 C216 C 0.50003 0.03852 0.22788
 C217 C 0.50006 0.03851 0.27254
 C218 C 0.49999 -0.00002 0.29476
 C219 C 0.49992 -0.03855 0.27253
 C220 C 0.49989 -0.03854 0.22787
 C221 C 0.49982 -0.07746 0.20639
 C222 C 0.49979 -0.11531 0.22837
 C223 C 0.49982 -0.11531 0.27201
 C224 C 0.49988 -0.07748 0.29400
 C225 C 0.50015 0.07743 0.29401
 C226 C 0.50021 0.11527 0.27203
 C227 C 0.50018 0.11528 0.22839
 C228 C 0.50009 0.07744 0.20640
 C229 C 0.49999 -0.00003 0.34043
 C230 C 0.50001 -0.00004 0.37832
 C231 C 0.49989 -0.00001 0.15999
 C232 C 0.49986 0.00001 0.12210
 H233 H 0.49980 -0.07909 0.17245
 H234 H 0.49974 -0.14478 0.21144
 H235 H 0.49979 -0.14479 0.28894
 H236 H 0.49991 -0.07911 0.32794
 H237 H 0.50018 0.07906 0.32795
 H238 H 0.50029 0.14475 0.28896
 H239 H 0.50023 0.14476 0.21146
 H240 H 0.50007 0.07907 0.17247
 C241 C 0.49965 -0.20557 -0.00023
 C242 C 0.53816 -0.22781 -0.00016
 C243 C 0.53806 -0.27243 -0.00010
 C244 C 0.49946 -0.29449 -0.00011
 C245 C 0.46095 -0.27227 -0.00018
 C246 C 0.46104 -0.22765 -0.00023
 C247 C 0.42216 -0.20609 -0.00030
 C248 C 0.38427 -0.22801 -0.00031
 C249 C 0.38418 -0.27166 -0.00026
 C250 C 0.42199 -0.29370 -0.00019
 C251 C 0.57694 -0.29402 -0.00003
 C252 C 0.61483 -0.27213 -0.00002
 C253 C 0.61493 -0.22848 -0.00008
 C254 C 0.57713 -0.20641 -0.00014
 C255 C 0.49936 -0.34002 -0.00008
 C256 C 0.49931 -0.37783 -0.00005
 C257 C 0.49974 -0.16001 -0.00029
 C258 C 0.49979 -0.12219 -0.00033
 H259 H 0.42060 -0.17214 -0.00035
 H260 H 0.35482 -0.21101 -0.00037
 H261 H 0.35467 -0.28855 -0.00026
 H262 H 0.42030 -0.32765 -0.00014
 H263 H 0.57849 -0.32797 0.00002
 H264 H 0.64427 -0.28914 0.00003
 H265 H 0.64445 -0.21161 -0.00007
 H266 H 0.57883 -0.17246 -0.00019
 C267 C 0.49965 0.20561 -0.00023
 C268 C 0.46104 0.22769 -0.00026
 C269 C 0.46095 0.27231 -0.00020
 C270 C 0.49946 0.29454 -0.00011
 C271 C 0.53806 0.27248 -0.00008
 C272 C 0.53816 0.22785 -0.00013
 C273 C 0.57713 0.20645 -0.00010
 C274 C 0.61493 0.22853 -0.00001
 C275 C 0.61483 0.27218 0.00004
 C276 C 0.57694 0.29407 0.00001
 C277 C 0.42199 0.29374 -0.00023
 C278 C 0.38418 0.27170 -0.00032
 C279 C 0.38427 0.22805 -0.00038
 C280 C 0.42216 0.20613 -0.00035
 C281 C 0.49936 0.34007 -0.00008
 C282 C 0.49930 0.37788 -0.00005
 C283 C 0.49974 0.16006 -0.00029
 C284 C 0.49979 0.12223 -0.00033
 H285 H 0.57883 0.17251 -0.00014
 H286 H 0.64445 0.21166 0.00001
 H287 H 0.64427 0.28919 0.00011
 H288 H 0.57849 0.32802 0.00006
 H289 H 0.42030 0.32769 -0.00019
 H290 H 0.35467 0.28859 -0.00035
 H291 H 0.35482 0.21105 -0.00045
 H292 H 0.42060 0.17218 -0.00040
 C293 C -0.20547 -0.00025 0.50025
 C294 C -0.22757 0.03833 0.50030
 C295 C -0.27219 0.03839 0.50043
 C296 C -0.29440 -0.00014 0.50052
 C297 C -0.27228 -0.03872 0.50047
 C298 C -0.22766 -0.03878 0.50034
 C299 C -0.20620 -0.07773 0.50030
 C300 C -0.22822 -0.11555 0.50038
 C301 C -0.27187 -0.11550 0.50051
 C302 C -0.29381 -0.07763 0.50056
 C303 C -0.29362 0.07735 0.50048
 C304 C -0.27158 0.11517 0.50040
 C305 C -0.22793 0.11511 0.50027
 C306 C -0.20601 0.07723 0.50022
 C307 C -0.33995 -0.00009 0.50064
 C308 C -0.37778 -0.00006 0.50072
 C309 C -0.15994 -0.00031 0.50015
 C310 C -0.12213 -0.00035 0.50010
 H311 H -0.17226 -0.07939 0.50020
 H312 H -0.21130 -0.14505 0.50035
 H313 H -0.28883 -0.14496 0.50058
 H314 H -0.32776 -0.07921 0.50066
 H315 H -0.32756 0.07902 0.50058
 H316 H -0.28847 0.14467 0.50043
 H317 H -0.21094 0.14456 0.50020
 H318 H -0.17206 0.07880 0.50012
 C319 C 0.20550 -0.00025 0.50027
 C320 C 0.22769 -0.03878 0.50031
 C321 C 0.27231 -0.03873 0.50044
 C322 C 0.29442 -0.00014 0.50054
 C323 C 0.27221 0.03839 0.50050
 C324 C 0.22759 0.03833 0.50037
 C325 C 0.20603 0.07723 0.50034
 C326 C 0.22795 0.11511 0.50043
 C327 C 0.27160 0.11516 0.50056
 C328 C 0.29365 0.07735 0.50059
 C329 C 0.29384 -0.07763 0.50048
 C330 C 0.27189 -0.11550 0.50039
 C331 C 0.22824 -0.11555 0.50026
 C332 C 0.20623 -0.07773 0.50022
 C333 C 0.33998 -0.00008 0.50065
 C334 C 0.37780 -0.00006 0.50073
 C335 C 0.15997 -0.00031 0.50017
 C336 C 0.12216 -0.00035 0.50012
 H337 H 0.17208 0.07880 0.50024
 H338 H 0.21096 0.14456 0.50041
 H339 H 0.28849 0.14467 0.50063
 H340 H 0.32759 0.07902 0.50069
 H341 H 0.32779 -0.07921 0.50058
 H342 H 0.28886 -0.14496 0.50042
 H343 H 0.21133 -0.14505 0.50019
 H344 H 0.17228 -0.07939 0.50012
 C345 C 0.00025 0.50031 1.20555
 C346 C 0.00028 0.53891 1.22761
 C347 C 0.00020 0.53901 1.27223
 C348 C 0.00010 0.50052 1.29447
 C349 C 0.00007 0.46191 1.27241
 C350 C 0.00015 0.46181 1.22779
 C351 C 0.00012 0.42283 1.20640
 C352 C 0.00002 0.38504 1.22847
 C353 C -0.00006 0.38515 1.27210
 C354 C -0.00004 0.42304 1.29399
 C355 C 0.00023 0.57799 1.29363
 C356 C 0.00033 0.61578 1.27156
 C357 C 0.00041 0.61568 1.22792
 C358 C 0.00039 0.57778 1.20603
 C359 C 0.00004 0.50062 1.34001
 C360 C 0.00001 0.50070 1.37783
 C361 C 0.00033 0.50020 1.16000
 C362 C 0.00038 0.50015 1.12218
 H363 H 0.00018 0.42113 1.17246
 H364 H -0.00000 0.35552 1.21161
 H365 H -0.00014 0.35571 1.28911
 H366 H -0.00010 0.42150 1.32793
 H367 H 0.00017 0.57969 1.32756
 H368 H 0.00036 0.64530 1.28842
 H369 H 0.00049 0.64512 1.21092
 H370 H 0.00045 0.57932 1.17209
 C371 C 0.00026 0.50031 0.79445
 C372 C 0.00016 0.53891 0.77239
 C373 C 0.00008 0.53902 0.72777
 C374 C 0.00011 0.50052 0.70553
 C375 C 0.00021 0.46192 0.72759
 C376 C 0.00029 0.46181 0.77221
 C377 C 0.00040 0.42284 0.79360
 C378 C 0.00042 0.38505 0.77153
 C379 C 0.00034 0.38515 0.72789
 C380 C 0.00024 0.42305 0.70601
 C381 C -0.00003 0.57799 0.70637
 C382 C -0.00005 0.61578 0.72844
 C383 C 0.00002 0.61568 0.77208
 C384 C 0.00013 0.57778 0.79397
 C385 C 0.00005 0.50063 0.65999
 C386 C 0.00002 0.50071 0.62217
 C387 C 0.00033 0.50020 0.84000
 C388 C 0.00038 0.50015 0.87782
 H389 H 0.00046 0.42113 0.82753
 H390 H 0.00050 0.35553 0.78839
 H391 H 0.00036 0.35571 0.71089
 H392 H 0.00018 0.42151 0.67207
 H393 H -0.00009 0.57969 0.67244
 H394 H -0.00014 0.64530 0.71158
 H395 H 0.00000 0.64512 0.78908
 H396 H 0.00019 0.57932 0.82791
   
