data_POSCAR
  _audit_creation_date              2014-09-24
  _audit_creation_method            'ToBaCCo'
  _symmetry_space_group_name_H-M    'P1'
  _symmetry_Int_Tables_number       1
  _symmetry_cell_setting            triclinic
  loop_
  _symmetry_equiv_pos_as_xyz
 x,y,z
_cell_length_a 43.8334
_cell_length_b 41.2627
_cell_length_c 8.7496
_cell_angle_alpha 90.478500
_cell_angle_beta 89.949000
_cell_angle_gamma 90.054300
loop_
  _atom_site_label
  _atom_site_type_symbol
  _atom_site_fract_x
  _atom_site_fract_y
  _atom_site_fract_z
O1 O 0.22414 0.28079 0.05115
 O2 O 0.28381 0.21794 0.08425
 O3 O 0.22448 0.21754 0.04701
 O4 O 0.28355 0.28100 0.08860
 O5 O 0.27779 0.28050 0.33873
 O6 O 0.21862 0.21817 0.29684
 O7 O 0.27759 0.21742 0.33410
 O8 O 0.21899 0.28041 0.30163
 Cu9 Cu 0.25471 0.24936 0.04369
 Cu10 Cu 0.24769 0.24906 0.34134
 C11 C 0.21106 0.29103 0.17203
 C12 C 0.29099 0.20703 0.21465
 C13 C 0.21094 0.20740 0.16613
 C14 C 0.29092 0.29143 0.22047
 O15 O 0.78418 0.28105 0.43490
 O16 O 0.72491 0.21750 0.46572
 O17 O 0.78427 0.21786 0.42782
 O18 O 0.72471 0.28072 0.47188
 O19 O 0.71974 0.28122 0.22138
 O20 O 0.77810 0.21825 0.17802
 O21 O 0.71918 0.21906 0.21603
 O22 O 0.77848 0.28140 0.18480
 Cu23 Cu 0.75526 0.24921 0.47406
 Cu24 Cu 0.74836 0.25003 0.17653
 C25 C 0.79154 0.29199 0.30470
 C26 C 0.71138 0.20786 0.34499
 C27 C 0.79138 0.20735 0.29572
 C28 C 0.71170 0.29136 0.35252
 O29 O 0.78477 0.71783 0.58694
 O30 O 0.72605 0.78127 0.54194
 O31 O 0.78545 0.78084 0.58220
 O32 O 0.72552 0.71820 0.54679
 O33 O 0.71975 0.71961 0.79695
 O34 O 0.77861 0.78252 0.83139
 O35 O 0.71988 0.78191 0.79186
 O36 O 0.77856 0.71933 0.83683
 Cu37 Cu 0.75623 0.74941 0.54031
 Cu38 Cu 0.74862 0.75098 0.83801
 C39 C 0.79182 0.70785 0.71917
 C40 C 0.71248 0.79200 0.66050
 C41 C 0.79239 0.79240 0.71273
 C42 C 0.71207 0.70853 0.66688
 O43 O 0.28313 0.78300 0.89485
 O44 O 0.22374 0.72038 0.94234
 O45 O 0.28297 0.72005 0.90260
 O46 O 0.22391 0.78352 0.93394
 O47 O 0.21777 0.78116 0.68444
 O48 O 0.27694 0.71856 0.65266
 O49 O 0.21813 0.71883 0.69218
 O50 O 0.27678 0.78165 0.64510
 Cu51 Cu 0.25416 0.75194 0.94238
 Cu52 Cu 0.24680 0.74988 0.64477
 C53 C 0.29025 0.79292 0.76258
 C54 C 0.21048 0.70916 0.82403
 C55 C 0.29020 0.70861 0.77236
 C56 C 0.21026 0.79283 0.81383
 C57 C 0.99952 0.08068 0.14436
 C58 C 1.02665 0.06710 0.08890
 C59 C 1.02620 0.03602 0.02278
 C60 C 0.99913 0.01740 0.01883
 C61 C 0.97208 0.03181 0.07516
 C62 C 0.97208 0.06357 0.13317
 C63 C 0.99910 -0.01656 -0.04485
 C64 C 0.97192 -0.03127 -0.09774
 C65 C 0.97187 -0.06312 -0.15454
 C66 C 0.99934 -0.08005 -0.16807
 C67 C 1.02659 -0.06619 -0.11587
 C68 C 1.02626 -0.03497 -0.05110
 H69 H 0.99952 0.10523 0.18959
 H70 H 1.04723 0.02670 -0.02469
 H71 H 0.95070 0.01879 0.07553
 H72 H 0.95045 -0.01845 -0.09582
 H73 H 0.99926 -0.10471 -0.21192
 H74 H 1.04740 -0.02545 -0.00597
 C75 C 0.49906 0.58156 0.65044
 C76 C 0.52631 0.56740 0.60001
 C77 C 0.52595 0.53579 0.53976
 C78 C 0.49880 0.51728 0.53702
 C79 C 0.47164 0.53228 0.58810
 C80 C 0.47160 0.56448 0.64015
 C81 C 0.49881 0.48284 0.47958
 C82 C 0.47175 0.46794 0.42623
 C83 C 0.47178 0.43578 0.37362
 C84 C 0.49921 0.41868 0.36483
 C85 C 0.52633 0.43272 0.41786
 C86 C 0.52588 0.46425 0.47894
 H87 H 0.49902 0.60646 0.69091
 H88 H 0.54708 0.52599 0.49566
 H89 H 0.45020 0.51936 0.58911
 H90 H 0.45037 0.48090 0.42377
 H91 H 0.49924 0.39387 0.32299
 H92 H 0.54689 0.47397 0.52489
 C93 C -0.00075 0.42015 0.17392
 C94 C -0.02818 0.43724 0.16398
 C95 C -0.02813 0.46899 0.10839
 C96 C -0.00109 0.48338 0.05276
 C97 C 0.02598 0.46479 0.05551
 C98 C 0.02641 0.43371 0.11945
 C99 C -0.00117 0.51719 -0.01023
 C100 C 0.02598 0.53566 -0.01704
 C101 C 0.02631 0.56650 -0.08339
 C102 C -0.00096 0.57999 -0.13615
 C103 C -0.02843 0.56307 -0.12217
 C104 C -0.02837 0.53156 -0.06368
 H105 H -0.00081 0.39557 0.21684
 H106 H -0.04949 0.48202 0.10982
 H107 H 0.04700 0.47411 0.00841
 H108 H 0.04715 0.52638 0.02809
 H109 H -0.00102 0.60435 -0.18173
 H110 H -0.04980 0.51863 -0.06197
 C111 C 0.49976 0.91857 0.62395
 C112 C 0.47229 0.93549 0.61228
 C113 C 0.47235 0.96747 0.55970
 C114 C 0.49960 0.98242 0.50998
 C115 C 0.52679 0.96403 0.51433
 C116 C 0.52709 0.93265 0.57484
 C117 C 0.49967 1.01675 0.45352
 C118 C 0.52674 1.03542 0.45381
 C119 C 0.52718 1.06693 0.39477
 C120 C 0.50004 1.08087 0.34285
 C121 C 0.47261 1.06369 0.35040
 C122 C 0.47263 1.03154 0.40068
 H123 H 0.49971 0.89387 0.66531
 H124 H 0.45089 0.98030 0.56006
 H125 H 0.54802 0.97377 0.47174
 H126 H 0.54776 1.02582 0.49931
 H127 H 0.50003 1.10570 0.30322
 H128 H 0.45125 1.01852 0.39706
 C129 C 1.13594 0.14373 0.13428
 C130 C 1.14416 0.15693 0.27665
 C131 C 1.16979 0.17705 0.28679
 C132 C 1.18683 0.18499 0.15500
 C133 C 1.17834 0.17118 0.01292
 C134 C 1.15302 0.15036 0.00231
 C135 C 1.10851 0.12314 0.12282
 C136 C 1.10018 0.10986 -0.01952
 C137 C 1.07369 0.09079 -0.03002
 C138 C 1.05541 0.08570 0.10008
 C139 C 1.06419 0.09906 0.24171
 C140 C 1.09081 0.11765 0.25402
 C141 C 1.14414 0.13639 -0.13790
 C142 C 1.11825 0.11638 -0.14850
 C143 C 1.12618 0.15038 0.40583
 C144 C 1.09987 0.13117 0.39458
 H145 H 1.15725 0.14108 -0.24041
 H146 H 1.11216 0.10619 -0.25882
 H147 H 1.13223 0.16062 0.51609
 H148 H 1.08638 0.12709 0.49643
 H149 H 1.17577 0.18734 0.39723
 H150 H 1.19120 0.17678 -0.08945
 H151 H 1.06681 0.08069 -0.13947
 H152 H 1.05024 0.09491 0.34209
 C153 C 0.63555 0.64415 0.63924
 C154 C 0.65291 0.64989 0.50712
 C155 C 0.67841 0.67049 0.51639
 C156 C 0.68656 0.68507 0.65686
 C157 C 0.66917 0.67839 0.78854
 C158 C 0.64356 0.65820 0.78024
 C159 C 0.60812 0.62355 0.62938
 C160 C 0.59030 0.61874 0.76081
 C161 C 0.56370 0.60008 0.75003
 C162 C 0.55508 0.58598 0.60977
 C163 C 0.57346 0.59040 0.47949
 C164 C 0.59994 0.60953 0.48835
 C165 C 0.62549 0.65230 0.90978
 C166 C 0.59923 0.63297 0.90009
 C167 C 0.64413 0.63527 0.36824
 C168 C 0.61815 0.61536 0.35906
 H169 H 0.63146 0.66305 1.01917
 H170 H 0.58571 0.62931 1.00221
 H171 H 0.65738 0.63938 0.26563
 H172 H 0.61212 0.60469 0.24959
 H173 H 0.69161 0.67546 0.41441
 H174 H 0.67508 0.68955 0.89716
 H175 H 0.54964 0.59646 0.85050
 H176 H 0.56668 0.57971 0.37111
 C177 C -0.13559 0.36044 0.25877
 C178 C -0.15501 0.35430 0.13424
 C179 C -0.17920 0.33241 0.15126
 C180 C -0.18413 0.31672 0.29158
 C181 C -0.16491 0.32384 0.41666
 C182 C -0.14040 0.34548 0.40038
 C183 C -0.10917 0.38216 0.23896
 C184 C -0.08882 0.38705 0.36109
 C185 C -0.06263 0.40605 0.33828
 C186 C -0.05723 0.42046 0.19558
 C187 C -0.07838 0.41627 0.07626
 C188 C -0.10418 0.39673 0.09651
 C189 C -0.12013 0.35183 0.52150
 C190 C -0.09469 0.37213 0.50195
 C191 C -0.14947 0.36965 -0.00584
 C192 C -0.12454 0.39059 -0.02425
 H193 H -0.12366 0.34058 0.63159
 H194 H -0.07933 0.37590 0.59743
 H195 H -0.16432 0.36513 -0.10266
 H196 H -0.12085 0.40160 -0.13479
 H197 H -0.19395 0.32729 0.05464
 H198 H -0.16844 0.31185 0.52503
 H199 H -0.04620 0.40921 0.42977
 H200 H -0.07392 0.42699 -0.03428
 C201 C 0.36424 0.85975 0.70873
 C202 C 0.34507 0.85298 0.58387
 C203 C 0.32049 0.83160 0.60279
 C204 C 0.31496 0.81712 0.74545
 C205 C 0.33401 0.82485 0.87040
 C206 C 0.35886 0.84591 0.85230
 C207 C 0.39097 0.88098 0.68756
 C208 C 0.41099 0.88651 0.81049
 C209 C 0.43735 0.90518 0.78700
 C210 C 0.44325 0.91864 0.64278
 C211 C 0.42250 0.91376 0.52233
 C212 C 0.39650 0.89452 0.54340
 C213 C 0.37886 0.85281 0.97386
 C214 C 0.40457 0.87265 0.95315
 C215 C 0.35121 0.86724 0.44182
 C216 C 0.37643 0.88777 0.42211
 H217 H 0.37489 0.84236 1.08533
 H218 H 0.41969 0.87690 1.04920
 H219 H 0.33658 0.86225 0.34465
 H220 H 0.38053 0.89802 0.31036
 H221 H 0.30592 0.82593 0.50611
 H222 H 0.33005 0.81378 0.98058
 H223 H 0.45346 0.90892 0.87950
 H224 H 0.42734 0.92381 0.41076
 C225 C -0.13548 0.63968 -0.22500
 C226 C -0.14029 0.65369 -0.36871
 C227 C -0.16472 0.67523 -0.38774
 C228 C -0.18389 0.68324 -0.26350
 C229 C -0.17895 0.66855 -0.12087
 C230 C -0.15482 0.64672 -0.10104
 C231 C -0.10917 0.61799 -0.20261
 C232 C -0.10419 0.60433 -0.05824
 C233 C -0.07849 0.58478 -0.03584
 C234 C -0.05745 0.57972 -0.15505
 C235 C -0.06286 0.59323 -0.29961
 C236 C -0.08892 0.61221 -0.32449
 C237 C -0.14927 0.63229 0.04114
 C238 C -0.12444 0.61136 0.06206
 C239 C -0.12012 0.64647 -0.48934
 C240 C -0.09478 0.62622 -0.46735
 H241 H -0.16406 0.63749 0.13753
 H242 H -0.12076 0.60105 0.17403
 H243 H -0.12366 0.65699 -0.60102
 H244 H -0.07948 0.62177 -0.56254
 H245 H -0.16824 0.68645 -0.49790
 H246 H -0.19365 0.67438 -0.02485
 H247 H -0.07402 0.57474 0.07608
 H248 H -0.04652 0.58939 -0.39111
 C249 C 0.36476 1.13983 0.26062
 C250 C 0.35943 1.15427 0.11837
 C251 C 0.33463 1.17547 0.10238
 C252 C 0.31561 1.18268 0.22823
 C253 C 0.32111 1.16757 0.36937
 C254 C 0.34562 1.14611 0.38619
 C255 C 0.39143 1.11848 0.27979
 C256 C 0.39691 1.10437 0.42270
 C257 C 0.42284 1.08501 0.44191
 C258 C 0.44360 1.08058 0.32097
 C259 C 0.43778 1.09464 0.17808
 C260 C 0.41146 1.11343 0.15634
 C261 C 0.35172 1.13131 0.52695
 C262 C 0.37687 1.11069 0.54474
 C263 C 0.37944 1.14782 -0.00385
 C264 C 0.40510 1.12788 0.01503
 H265 H 0.33710 1.13596 0.62464
 H266 H 0.38095 1.10004 0.65563
 H267 H 0.37551 1.15871 -0.11436
 H268 H 0.42023 1.12401 -0.08136
 H269 H 0.33070 1.18704 -0.00664
 H270 H 0.30657 1.17283 0.46677
 H271 H 0.42764 1.07453 0.55258
 H272 H 0.45394 1.09130 0.08538
 C273 C 1.13556 -0.14316 -0.15841
 C274 C 1.15266 -0.14940 -0.02623
 C275 C 1.17790 -0.17028 -0.03576
 C276 C 1.18626 -0.18464 -0.17689
 C277 C 1.16921 -0.17713 -0.30899
 C278 C 1.14369 -0.15686 -0.29995
 C279 C 1.10823 -0.12246 -0.14794
 C280 C 1.09052 -0.11731 -0.27924
 C281 C 1.06398 -0.09860 -0.26777
 C282 C 1.05531 -0.08479 -0.12685
 C283 C 1.07359 -0.08958 0.00330
 C284 C 1.09999 -0.10873 -0.00635
 C285 C 1.12572 -0.15062 -0.42932
 C286 C 1.09950 -0.13129 -0.41900
 C287 C 1.14385 -0.13501 0.11320
 C288 C 1.11803 -0.11493 0.12284
 H289 H 1.13171 -0.16120 -0.53898
 H290 H 1.08602 -0.12747 -0.52096
 H291 H 1.15694 -0.13944 0.21591
 H292 H 1.11198 -0.10444 0.23262
 H293 H 1.19074 -0.17553 0.06693
 H294 H 1.17512 -0.18785 -0.41865
 H295 H 1.05000 -0.09472 -0.36816
 H296 H 1.06677 -0.07917 0.11226
 C297 C 0.63544 0.35592 0.38060
 C298 C 0.64355 0.34195 0.23962
 C299 C 0.66907 0.32172 0.23159
 C300 C 0.68626 0.31484 0.36351
 C301 C 0.67800 0.32929 0.50413
 C302 C 0.65259 0.35000 0.51309
 C303 C 0.60807 0.37658 0.39002
 C304 C 0.59973 0.39051 0.53103
 C305 C 0.57328 0.40965 0.53951
 C306 C 0.55509 0.41417 0.40879
 C307 C 0.56389 0.40018 0.26852
 C308 C 0.59045 0.38151 0.25820
 C309 C 0.64367 0.36457 0.65193
 C310 C 0.61775 0.38455 0.66068
 C311 C 0.62566 0.34793 0.10977
 C312 C 0.59949 0.36733 0.11903
 H313 H 0.65675 0.36035 0.75486
 H314 H 0.61162 0.39517 0.77012
 H315 H 0.63171 0.33719 0.00047
 H316 H 0.58610 0.37105 0.01665
 H317 H 0.67503 0.31065 0.12284
 H318 H 0.69106 0.32417 0.60622
 H319 H 0.56637 0.42026 0.64784
 H320 H 0.54998 0.40386 0.16772
 C321 C 0.86452 -0.14061 -0.24106
 C322 C 0.85827 -0.15421 -0.38527
 C323 C 0.83359 -0.17567 -0.40140
 C324 C 0.81572 -0.18433 -0.27345
 C325 C 0.82228 -0.17003 -0.12993
 C326 C 0.84649 -0.14808 -0.11343
 C327 C 0.89097 -0.11884 -0.22231
 C328 C 0.89727 -0.10541 -0.07764
 C329 C 0.92302 -0.08567 -0.05913
 C330 C 0.94284 -0.08019 -0.18267
 C331 C 0.93622 -0.09357 -0.32725
 C332 C 0.91002 -0.11270 -0.34817
 C333 C 0.85333 -0.13389 0.02903
 C334 C 0.87823 -0.11280 0.04653
 C335 C 0.87727 -0.14668 -0.50964
 C336 C 0.90283 -0.12645 -0.49117
 H337 H 0.83949 -0.13937 0.12817
 H338 H 0.88291 -0.10265 0.15873
 H339 H 0.87269 -0.15699 -0.62160
 H340 H 0.91721 -0.12177 -0.58935
 H341 H 0.82901 -0.18637 -0.51266
 H342 H 0.80876 -0.17609 -0.03029
 H343 H 0.92848 -0.07574 0.05273
 H344 H 0.95168 -0.08944 -0.42190
 C345 C 0.36435 0.35906 0.27443
 C346 C 0.34509 0.35261 0.39895
 C347 C 0.32071 0.33097 0.37961
 C348 C 0.31545 0.31588 0.23697
 C349 C 0.33456 0.32326 0.11226
 C350 C 0.35924 0.34462 0.13078
 C351 C 0.39088 0.38060 0.29610
 C352 C 0.41102 0.38583 0.17359
 C353 C 0.43722 0.40478 0.19762
 C354 C 0.44282 0.41884 0.34191
 C355 C 0.42194 0.41426 0.46189
 C356 C 0.39612 0.39473 0.44035
 C357 C 0.37935 0.35123 0.00968
 C358 C 0.40489 0.37135 0.03093
 C359 C 0.35095 0.36744 0.54108
 C360 C 0.37598 0.38824 0.56130
 H361 H 0.37560 0.34032 -0.10183
 H362 H 0.42011 0.37535 -0.06475
 H363 H 0.33625 0.36266 0.63797
 H364 H 0.37989 0.39890 0.67321
 H365 H 0.30607 0.32560 0.47605
 H366 H 0.33080 0.31170 0.00216
 H367 H 0.45347 0.40823 0.10570
 H368 H 0.42658 0.42475 0.57355
 C369 C 0.13489 0.64386 -0.13776
 C370 C 0.14223 0.65723 -0.28011
 C371 C 0.16753 0.67775 -0.29185
 C372 C 0.18526 0.68547 -0.16216
 C373 C 0.17778 0.67158 -0.02025
 C374 C 0.15261 0.65064 -0.00760
 C375 C 0.10775 0.62295 -0.12428
 C376 C 0.10018 0.60970 0.01823
 C377 C 0.07388 0.59042 0.03083
 C378 C 0.05506 0.58503 -0.09735
 C379 C 0.06315 0.59828 -0.23933
 C380 C 0.08952 0.61716 -0.25366
 C381 C 0.14449 0.63670 0.13278
 C382 C 0.11878 0.61650 0.14539
 C383 C 0.12376 0.65037 -0.40749
 C384 C 0.09779 0.63073 -0.39436
 H385 H 0.15801 0.64159 0.23397
 H386 H 0.11324 0.60640 0.25589
 H387 H 0.12919 0.66063 -0.51781
 H388 H 0.08392 0.62636 -0.49491
 H389 H 0.17291 0.68836 -0.40156
 H390 H 0.19127 0.67732 0.08017
 H391 H 0.06753 0.58044 0.14058
 H392 H 0.04880 0.59392 -0.33832
 C393 C 0.63624 1.14418 0.36545
 C394 C 0.64464 1.15790 0.22548
 C395 C 0.67027 1.17806 0.21915
 C396 C 0.68718 1.18550 0.35244
 C397 C 0.67850 1.17120 0.49216
 C398 C 0.65315 1.15034 0.49886
 C399 C 0.60885 1.12346 0.37277
 C400 C 0.60038 1.10956 0.51257
 C401 C 0.57397 1.09029 0.51904
 C402 C 0.55591 1.08563 0.38758
 C403 C 0.56483 1.09961 0.24854
 C404 C 0.59138 1.11839 0.24016
 C405 C 0.64409 1.13582 0.63648
 C406 C 0.61824 1.11567 0.64307
 C407 C 0.62689 1.15178 0.09475
 C408 C 0.60061 1.13247 0.10212
 H409 H 0.65705 1.14012 0.74001
 H410 H 0.61203 1.10503 0.75147
 H411 H 0.63311 1.16239 -0.01374
 H412 H 0.58731 1.12871 -0.00085
 H413 H 0.67638 1.18875 0.11050
 H414 H 0.69123 1.17641 0.59569
 H415 H 0.56698 1.07968 0.62647
 H416 H 0.55104 1.09580 0.14709
 C417 C 0.13508 0.35605 0.15079
 C418 C 0.14306 0.34192 0.29047
 C419 C 0.16848 0.32150 0.29664
 C420 C 0.18571 0.31466 0.16404
 C421 C 0.17759 0.32932 0.02494
 C422 C 0.15228 0.35016 0.01788
 C423 C 0.10782 0.37689 0.14315
 C424 C 0.09965 0.39097 0.00343
 C425 C 0.07332 0.41028 -0.00350
 C426 C 0.05508 0.41493 0.12751
 C427 C 0.06374 0.40080 0.26660
 C428 C 0.09016 0.38188 0.27532
 C429 C 0.14353 0.36488 -0.11960
 C430 C 0.11772 0.38501 -0.12662
 C431 C 0.12514 0.34797 0.42082
 C432 C 0.09907 0.36754 0.41325
 H433 H 0.15667 0.36069 -0.22278
 H434 H 0.11172 0.39576 -0.23501
 H435 H 0.13110 0.33716 0.52921
 H436 H 0.08566 0.37130 0.51597
 H437 H 0.17437 0.31031 0.40432
 H438 H 0.19069 0.32426 -0.07763
 H439 H 0.06654 0.42093 -0.11107
 H440 H 0.04984 0.40458 0.36778
 C441 C 0.63629 0.85643 0.62494
 C442 C 0.65403 0.85001 0.49433
 C443 C 0.67944 0.82942 0.50614
 C444 C 0.68712 0.81552 0.64764
 C445 C 0.66939 0.82294 0.77788
 C446 C 0.64386 0.84310 0.76698
 C447 C 0.60891 0.87697 0.61235
 C448 C 0.59070 0.88242 0.74225
 C449 C 0.56413 0.90095 0.72881
 C450 C 0.55590 0.91430 0.58741
 C451 C 0.57470 0.90930 0.45874
 C452 C 0.60116 0.89028 0.47030
 C453 C 0.62541 0.84965 0.89494
 C454 C 0.59921 0.86891 0.88265
 C455 C 0.64569 0.86397 0.35439
 C456 C 0.61977 0.88383 0.34266
 H457 H 0.63104 0.83946 1.00510
 H458 H 0.58538 0.87305 0.98364
 H459 H 0.65924 0.85936 0.25293
 H460 H 0.61410 0.89397 0.23247
 H461 H 0.69293 0.82391 0.40538
 H462 H 0.67495 0.81236 0.88740
 H463 H 0.54977 0.90504 0.82807
 H464 H 0.56825 0.91942 0.34951
 C465 C 0.86450 0.13955 0.23877
 C466 C 0.85958 0.15392 0.38274
 C467 C 0.83499 0.17532 0.40225
 C468 C 0.81578 0.18280 0.27824
 C469 C 0.82082 0.16772 0.13538
 C470 C 0.84512 0.14606 0.11505
 C471 C 0.89102 0.11810 0.21571
 C472 C 0.89612 0.10411 0.07098
 C473 C 0.92198 0.08478 0.04788
 C474 C 0.94307 0.08024 0.16678
 C475 C 0.93759 0.09411 0.31164
 C476 C 0.91134 0.11288 0.33724
 C477 C 0.85079 0.13131 -0.02749
 C478 C 0.87581 0.11060 -0.04902
 C479 C 0.87982 0.14724 0.50304
 C480 C 0.90536 0.12721 0.48045
 H481 H 0.83596 0.13612 -0.12372
 H482 H 0.87959 0.10003 -0.16126
 H483 H 0.87620 0.15807 0.61487
 H484 H 0.92070 0.12319 0.57544
 H485 H 0.83137 0.18685 0.51254
 H486 H 0.80611 0.17317 0.03942
 H487 H 0.92651 0.07448 -0.06430
 H488 H 0.95398 0.09068 0.40280
 C489 C 0.36374 0.64097 0.72809
 C490 C 0.34473 0.64680 0.60219
 C491 C 0.32027 0.66840 0.61842
 C492 C 0.31472 0.68411 0.75931
 C493 C 0.33359 0.67733 0.88553
 C494 C 0.35832 0.65598 0.87014
 C495 C 0.39038 0.61951 0.70951
 C496 C 0.41030 0.61491 0.83329
 C497 C 0.43663 0.59605 0.81198
 C498 C 0.44257 0.58147 0.66916
 C499 C 0.42191 0.58543 0.54798
 C500 C 0.39598 0.60485 0.56675
 C501 C 0.37818 0.64996 0.99275
 C502 C 0.40382 0.62989 0.97445
 C503 C 0.35091 0.63143 0.46166
 C504 C 0.37606 0.61071 0.44439
 H505 H 0.37416 0.66129 1.10311
 H506 H 0.41884 0.62635 1.07119
 H507 H 0.33639 0.63572 0.36373
 H508 H 0.38023 0.59962 0.33364
 H509 H 0.30584 0.67331 0.52077
 H510 H 0.32959 0.68934 0.99435
 H511 H 0.45270 0.59305 0.90494
 H512 H 0.42681 0.57454 0.43744
   
