data_POSCAR
  _audit_creation_date              2014-09-24
  _audit_creation_method            'ToBaCCo'
  _symmetry_space_group_name_H-M    'P1'
  _symmetry_Int_Tables_number       1
  _symmetry_cell_setting            triclinic
  loop_
  _symmetry_equiv_pos_as_xyz
 x,y,z
_cell_length_a 36.9940
_cell_length_b 36.9942
_cell_length_c 36.9936
_cell_angle_alpha 90.097600
_cell_angle_beta 90.116300
_cell_angle_gamma 89.901100
loop_
  _atom_site_label
  _atom_site_type_symbol
  _atom_site_fract_x
  _atom_site_fract_y
  _atom_site_fract_z
N1 N 0.18225 0.18427 0.18071
 N2 N -0.17936 0.81838 0.18384
 N3 N -0.18522 0.18005 -0.18232
 N4 N 0.18181 0.81731 -0.18180
 N5 N 0.18304 1.18089 0.82141
 N6 N 0.81819 0.82031 0.81537
 N7 N 0.18004 0.81618 1.18175
 N8 N 0.81818 1.18239 1.18183
 O9 O 0.44897 0.93079 0.94005
 O10 O 0.40934 0.96566 0.97284
 C11 C 0.41664 0.94053 0.94956
 O12 O 0.55097 0.93459 1.06899
 O13 O 0.59044 0.96723 1.03405
 C14 C 0.58326 0.94407 1.05923
 O15 O 0.44932 0.93118 1.06580
 O16 O 0.40951 0.96584 1.03297
 C17 C 0.41692 0.94083 1.05629
 O18 O 0.55056 0.93415 0.93660
 O19 O 0.59026 0.96704 0.97131
 C20 C 0.58292 0.94372 0.94621
 Zr21 Zr 0.49978 0.95120 0.95713
 O22 O 0.50399 0.89412 0.95762
 O23 O 0.49554 0.95097 0.90006
 Zr24 Zr 0.50005 0.95155 1.04859
 O25 O 0.50424 0.89447 1.04848
 O26 O 0.49617 0.95190 1.10568
 O27 O 0.46770 0.94431 1.00291
 O28 O 0.53132 0.94481 1.00284
 O29 O 0.55024 1.05970 0.93642
 O30 O 0.59011 1.02710 0.97123
 C31 C 0.58264 1.05025 0.94608
 O32 O 0.44910 1.06354 1.06544
 O33 O 0.40939 1.02857 1.03284
 C34 C 0.41675 1.05381 1.05599
 O35 O 0.55073 1.06028 1.06868
 O36 O 0.59033 1.02734 1.03394
 C37 C 0.58306 1.05075 1.05897
 O38 O 0.44867 1.06301 0.93983
 O39 O 0.40918 1.02836 0.97275
 C40 C 0.41637 1.05337 0.94940
 Zr41 Zr 0.49956 1.04269 0.95694
 O42 O 0.50352 1.09977 0.95704
 O43 O 0.49530 1.04234 0.89986
 Zr44 Zr 0.49989 1.04301 1.04842
 O45 O 0.50383 1.10009 1.04829
 O46 O 0.49599 1.04288 1.10551
 Zr47 Zr 0.44611 0.99711 1.00282
 Zr48 Zr 0.55353 0.99714 1.00269
 O49 O 0.53108 1.04945 1.00262
 O50 O 0.46750 1.04991 1.00270
 O51 O 0.53185 0.99694 0.94993
 O52 O 0.46860 0.99730 1.05513
 O53 O 0.46829 0.99691 0.95048
 O54 O 0.53221 0.99732 1.05552
 H55 H 0.54779 0.92366 1.00284
 H56 H 0.45226 0.99738 1.07631
 H57 H 0.54743 1.07064 1.00255
 H58 H 0.45184 0.99684 0.92931
 H59 H 0.51634 0.96673 1.11507
 H60 H 0.51649 1.02850 1.11495
 H61 H 0.48373 1.10949 1.03333
 H62 H 0.48323 1.10927 0.97162
 H63 H 0.51553 1.02761 0.89041
 H64 H 0.51549 0.96592 0.89054
 H65 H 0.48359 0.88474 0.97205
 H66 H 0.48396 0.88497 1.03385
 O67 O -0.06901 0.44938 0.05956
 O68 O -0.03436 0.40948 0.02686
 C69 C -0.05938 0.41696 0.05015
 O70 O -0.06561 0.55052 -0.06975
 O71 O -0.03272 0.59017 -0.03498
 C72 C -0.05602 0.58287 -0.06011
 O73 O -0.06916 0.44890 -0.06612
 O74 O -0.03438 0.40924 -0.03324
 C75 C -0.05952 0.41656 -0.05652
 O76 O -0.06546 0.55099 0.06263
 O77 O -0.03269 0.59041 0.02775
 C78 C -0.05590 0.58326 0.05289
 Zr79 Zr -0.04859 0.50005 0.04227
 O80 O -0.10567 0.50434 0.04175
 O81 O -0.04863 0.49622 0.09936
 Zr82 Zr -0.04859 0.49971 -0.04919
 O83 O -0.10566 0.50400 -0.04922
 O84 O -0.04834 0.49539 -0.10627
 O85 O -0.05571 0.46768 -0.00340
 O86 O -0.05511 0.53129 -0.00354
 O87 O 0.06012 0.55055 0.06277
 O88 O 0.02740 0.59020 0.02786
 C89 C 0.05068 0.58289 0.05301
 O90 O 0.06330 0.44839 -0.06584
 O91 O 0.02838 0.40899 -0.03310
 C92 C 0.05357 0.41612 -0.05626
 O93 O 0.06016 0.55001 -0.06943
 O94 O 0.02742 0.58993 -0.03482
 C95 C 0.05073 0.58242 -0.05981
 O96 O 0.06318 0.44896 0.05973
 O97 O 0.02833 0.40927 0.02699
 C98 C 0.05343 0.41662 0.05030
 Zr99 Zr 0.04289 0.49974 0.04245
 O100 O 0.09999 0.50359 0.04234
 O101 O 0.04273 0.49591 0.09954
 Zr102 Zr 0.04286 0.49935 -0.04904
 O103 O 0.09995 0.50320 -0.04903
 O104 O 0.04240 0.49503 -0.10612
 Zr105 Zr -0.00295 0.44600 -0.00324
 Zr106 Zr -0.00274 0.55342 -0.00348
 O107 O 0.04953 0.53088 -0.00335
 O108 O 0.04989 0.46732 -0.00320
 O109 O -0.00278 0.53213 0.04936
 O110 O -0.00293 0.46810 -0.05562
 O111 O -0.00290 0.46856 0.04902
 O112 O -0.00280 0.53174 -0.05624
 H113 H -0.07624 0.54779 -0.00360
 H114 H -0.00295 0.45158 -0.07673
 H115 H 0.07076 0.54718 -0.00333
 H116 H -0.00292 0.45227 0.07026
 H117 H -0.03368 0.51560 -0.11572
 H118 H 0.02814 0.51558 -0.11561
 H119 H 0.10938 0.48331 -0.03386
 H120 H 0.10940 0.48317 0.02784
 H121 H 0.02814 0.51628 0.10892
 H122 H -0.03355 0.51618 0.10881
 H123 H -0.11514 0.48379 0.02749
 H124 H -0.11515 0.48402 -0.03429
 O125 O 1.06628 -0.06288 0.44961
 O126 O 1.03367 -0.02795 0.40988
 C127 C 1.05683 -0.05319 0.41724
 O128 O 0.93716 -0.05927 0.55065
 O129 O 0.97182 -0.02656 0.59055
 C130 C 0.94674 -0.04979 0.58306
 O131 O 0.94079 -0.06256 0.44908
 O132 O 0.97363 -0.02780 0.40962
 C133 C 0.95038 -0.05289 0.41681
 O134 O 1.06934 -0.05962 0.55124
 O135 O 1.03450 -0.02674 0.59082
 C136 C 1.05954 -0.05014 0.58356
 Zr137 Zr 1.04920 -0.04232 0.50039
 O138 O 1.04931 -0.09940 0.50432
 O139 O 1.10630 -0.04193 0.49657
 Zr140 Zr 0.95771 -0.04217 0.49999
 O141 O 0.95781 -0.09926 0.50395
 O142 O 0.90064 -0.04185 0.49562
 O143 O 1.00353 -0.04931 0.46798
 O144 O 1.00336 -0.04885 0.53153
 O145 O 1.06946 0.06619 0.55157
 O146 O 1.03456 0.03342 0.59097
 C147 C 1.05968 0.05668 0.58386
 O148 O 0.94063 0.06967 0.44930
 O149 O 0.97359 0.03490 0.40974
 C150 C 0.95022 0.05997 0.41698
 O151 O 0.93707 0.06627 0.55089
 O152 O 0.97182 0.03350 0.59067
 C153 C 0.94666 0.05673 0.58326
 O154 O 1.06640 0.06954 0.44991
 O155 O 1.03373 0.03479 0.41003
 C156 C 1.05698 0.05985 0.41750
 Zr157 Zr 1.04919 0.04913 0.50061
 O158 O 1.04902 0.10622 0.50478
 O159 O 1.10628 0.04881 0.49682
 Zr160 Zr 0.95773 0.04931 0.50015
 O161 O 0.95816 0.10639 0.50436
 O162 O 0.90066 0.04950 0.49583
 Zr163 Zr 1.00358 0.00349 0.44657
 Zr164 Zr 1.00329 0.00345 0.55400
 O165 O 1.00336 0.05579 0.53179
 O166 O 1.00354 0.05629 0.46816
 O167 O 1.05616 0.00337 0.53277
 O168 O 0.95121 0.00358 0.46867
 O169 O 1.05586 0.00340 0.46913
 O170 O 0.95056 0.00357 0.53224
 H171 H 1.00329 -0.07006 0.54786
 H172 H 0.93006 0.00360 0.45219
 H173 H 1.00331 0.07694 0.54825
 H174 H 1.07705 0.00334 0.45280
 H175 H 0.89112 -0.02730 0.51595
 H176 H 0.89114 0.03440 0.51567
 H177 H 0.97249 0.11580 0.48390
 H178 H 1.03429 0.11568 0.48456
 H179 H 1.11566 0.03409 0.51707
 H180 H 1.11566 -0.02774 0.51724
 H181 H 1.03423 -0.10884 0.48434
 H182 H 0.97256 -0.10874 0.48378
 C183 C 1.13815 0.17557 0.27164
 C184 C 1.13502 0.13799 0.27464
 C185 C 1.14773 0.11567 0.24682
 C186 C 1.16340 0.13085 0.21605
 C187 C 1.16655 0.16856 0.21275
 C188 C 1.15384 0.19079 0.24087
 C189 C 1.11845 0.12224 0.30603
 C190 C 1.10447 0.10866 0.33206
 C191 C 1.08800 0.09226 0.36222
 C192 C 1.07387 0.07776 0.38766
 H193 H 1.12842 0.19309 0.29302
 H194 H 1.14534 0.08656 0.24883
 H195 H 1.17269 0.11321 0.19460
 H196 H 1.15619 0.21989 0.23899
 C197 C 0.89235 -0.14653 0.24666
 C198 C 0.87139 -0.13400 0.27555
 C199 C 0.83373 -0.13744 0.27436
 C200 C 0.81706 -0.15324 0.24432
 C201 C 0.83789 -0.16576 0.21511
 C202 C 0.87571 -0.16232 0.21660
 C203 C 0.88850 -0.11719 0.30620
 C204 C 0.90280 -0.10286 0.33175
 C205 C 0.91948 -0.08579 0.36153
 C206 C 0.93365 -0.07093 0.38684
 H207 H 0.92150 -0.14389 0.24727
 H208 H 0.81726 -0.12783 0.29659
 H209 H 0.78791 -0.15583 0.24383
 H210 H 0.89227 -0.17149 0.19429
 C211 C 0.88596 0.14661 0.75356
 C212 C 0.86471 0.13344 0.72511
 C213 C 0.82700 0.13588 0.72705
 C214 C 0.81059 0.15134 0.75738
 C215 C 0.83173 0.16452 0.78612
 C216 C 0.86959 0.16206 0.78389
 C217 C 0.88166 0.11716 0.69412
 C218 C 0.89611 0.10343 0.66836
 C219 C 0.91335 0.08725 0.63844
 C220 C 0.92838 0.07335 0.61310
 H221 H 0.91517 0.14477 0.75236
 H222 H 0.81031 0.12579 0.70516
 H223 H 0.78139 0.15317 0.75844
 H224 H 0.88640 0.17173 0.80584
 C225 C 1.11379 -0.14454 0.75311
 C226 C 1.13630 -0.13168 0.72564
 C227 C 1.17381 -0.13590 0.72852
 C228 C 1.18876 -0.15283 0.75883
 C229 C 1.16635 -0.16572 0.78661
 C230 C 1.12871 -0.16146 0.78343
 C231 C 1.12083 -0.11400 0.69464
 C232 C 1.10750 -0.09920 0.66886
 C233 C 1.09139 -0.08195 0.63889
 C234 C 1.07715 -0.06733 0.61350
 H235 H 1.08474 -0.14135 0.75118
 H236 H 1.19146 -0.12607 0.70739
 H237 H 1.21781 -0.15601 0.76064
 H238 H 1.11095 -0.17087 0.80463
 C239 C 0.24630 1.14767 1.11101
 C240 C 0.27487 1.13566 1.13278
 C241 C 0.27301 1.13986 1.17035
 C242 C 0.24265 1.15595 1.18610
 C243 C 0.21380 1.16799 1.16444
 C244 C 0.21594 1.16374 1.12672
 C245 C 0.30585 1.11865 1.11655
 C246 C 0.33161 1.10420 1.10281
 C247 C 0.36153 1.08699 1.08659
 C248 C 0.38687 1.07202 1.07265
 H249 H 0.24742 1.14444 1.08192
 H250 H 0.29498 1.13066 1.18744
 H251 H 0.24166 1.15916 1.21518
 H252 H 0.19390 1.17252 1.10953
 C253 C 0.27170 0.82543 0.86486
 C254 C 0.27437 0.86294 0.86914
 C255 C 0.24663 0.88539 0.85648
 C256 C 0.21629 0.87043 0.83966
 C257 C 0.21334 0.83279 0.83528
 C258 C 0.24135 0.81042 0.84802
 C259 C 0.30546 0.87849 0.88660
 C260 C 0.33130 0.89195 0.90118
 C261 C 0.36131 0.90826 0.91817
 C262 C 0.38672 0.92269 0.93258
 H263 H 0.29304 0.80782 0.87452
 H264 H 0.24840 0.91445 0.85972
 H265 H 0.19490 0.88815 0.83036
 H266 H 0.23973 0.78139 0.84473
 C267 C 0.75512 0.88855 1.15061
 C268 C 0.72653 0.86689 1.13855
 C269 C 0.72882 0.82925 1.14171
 C270 C 0.75965 0.81331 1.15675
 C271 C 0.78856 0.83486 1.16878
 C272 C 0.78596 0.87265 1.16564
 C273 C 0.69514 0.88329 1.12239
 C274 C 0.66908 0.89712 1.10852
 C275 C 0.63884 0.91341 1.09187
 C276 C 0.61329 0.92738 1.07722
 H277 H 0.75368 0.91770 1.14817
 H278 H 0.70685 0.81225 1.13245
 H279 H 0.76098 0.78417 1.15912
 H280 H 0.80801 0.88976 1.17443
 C281 C 0.75215 1.10839 0.85248
 C282 C 0.72324 1.12937 0.86501
 C283 C 0.72437 1.16703 0.86167
 C284 C 0.75435 1.18369 0.84596
 C285 C 0.78357 1.16283 0.83343
 C286 C 0.78215 1.12500 0.83678
 C287 C 0.69268 1.11227 0.88176
 C288 C 0.66722 1.09796 0.89605
 C289 C 0.63758 1.08124 0.91310
 C290 C 0.61240 1.06704 0.92797
 H291 H 0.75160 1.07922 0.85504
 H292 H 0.70213 1.18352 0.87129
 H293 H 0.75478 1.21284 0.84345
 H294 H 0.80447 1.10842 0.82761
 C295 C 0.17106 0.27377 0.13424
 C296 C 0.13342 0.27573 0.13080
 C297 C 0.11187 0.24771 0.14412
 C298 C 0.12787 0.21776 0.16069
 C299 C 0.16566 0.21550 0.16415
 C300 C 0.18711 0.24383 0.15083
 C301 C 0.11688 0.30634 0.11343
 C302 C 0.10279 0.33184 0.09885
 C303 C 0.08598 0.36153 0.08181
 C304 C 0.07131 0.38677 0.06735
 H305 H 0.18799 0.29533 0.12406
 H306 H 0.08271 0.24893 0.14153
 H307 H 0.11084 0.19612 0.17045
 H308 H 0.21625 0.24274 0.15339
 C309 C -0.14305 0.27169 -0.17129
 C310 C -0.13975 0.27391 -0.13365
 C311 C -0.15181 0.24537 -0.11203
 C312 C -0.16695 0.21464 -0.12798
 C313 C -0.17019 0.21209 -0.16578
 C314 C -0.15820 0.24097 -0.18728
 C315 C -0.12339 0.30515 -0.11722
 C316 C -0.10934 0.33109 -0.10339
 C317 C -0.09247 0.36119 -0.08713
 C318 C -0.07766 0.38664 -0.07318
 H319 H -0.13379 0.29362 -0.18827
 H320 H -0.14927 0.24676 -0.08288
 H321 H -0.17571 0.19260 -0.11090
 H322 H -0.16064 0.23967 -0.21642
 C323 C 0.14409 0.75206 -0.11409
 C324 C 0.13137 0.72448 -0.13671
 C325 C 0.13549 0.72739 -0.17420
 C326 C 0.15219 0.75780 -0.18903
 C327 C 0.16496 0.78566 -0.16650
 C328 C 0.16077 0.78247 -0.12887
 C329 C 0.11395 0.69337 -0.12135
 C330 C 0.09936 0.66753 -0.10804
 C331 C 0.08233 0.63756 -0.09190
 C332 C 0.06785 0.61222 -0.07757
 H333 H 0.14097 0.75011 -0.08505
 H334 H 0.12577 0.70618 -0.19195
 H335 H 0.15532 0.75961 -0.21806
 H336 H 0.17009 0.80373 -0.11102
 C337 C -0.14599 0.75393 0.11279
 C338 C -0.13272 0.72562 0.13411
 C339 C -0.13508 0.72775 0.17181
 C340 C -0.15057 0.75813 0.18816
 C341 C -0.16385 0.78675 0.16695
 C342 C -0.16147 0.78432 0.12910
 C343 C -0.11639 0.69458 0.11725
 C344 C -0.10261 0.66875 0.10291
 C345 C -0.08640 0.63873 0.08583
 C346 C -0.07249 0.61328 0.07096
 H347 H -0.14421 0.75259 0.08359
 H348 H -0.12491 0.70598 0.18855
 H349 H -0.15233 0.75933 0.21734
 H350 H -0.17123 0.80617 0.11224
 C351 C 1.11520 0.14971 0.75424
 C352 C 1.13751 0.13425 0.72794
 C353 C 1.17501 0.13456 0.73265
 C354 C 1.19021 0.15015 0.76358
 C355 C 1.16811 0.16581 0.79058
 C356 C 1.13025 0.16534 0.78521
 C357 C 1.12179 0.11776 0.69632
 C358 C 1.10826 0.10386 0.67008
 C359 C 1.09193 0.08750 0.63966
 C360 C 1.07751 0.07346 0.61398
 H361 H 1.08609 0.14943 0.75096
 H362 H 1.19255 0.12278 0.71236
 H363 H 1.21937 0.15057 0.76610
 H364 H 1.11216 0.17623 0.80548
 C365 C 0.85311 -0.10802 0.75273
 C366 C 0.86571 -0.12900 0.72383
 C367 C 0.86238 -0.16667 0.72500
 C368 C 0.84663 -0.18332 0.75497
 C369 C 0.83403 -0.16247 0.78417
 C370 C 0.83737 -0.12463 0.78272
 C371 C 0.88246 -0.11189 0.69323
 C372 C 0.89674 -0.09758 0.66774
 C373 C 0.91377 -0.08085 0.63805
 C374 C 0.92863 -0.06663 0.61285
 H375 H 0.85565 -0.07885 0.75216
 H376 H 0.87203 -0.18316 0.70278
 H377 H 0.84413 -0.21247 0.75540
 H378 H 0.82815 -0.10804 0.80502
 C379 C 1.11080 -0.14742 0.24649
 C380 C 1.13278 -0.13531 0.27486
 C381 C 1.17034 -0.13943 0.27265
 C382 C 1.18587 -0.15550 0.24215
 C383 C 1.16399 -0.16762 0.21348
 C384 C 1.12628 -0.16348 0.21598
 C385 C 1.11679 -0.11826 0.30599
 C386 C 1.10325 -0.10376 0.33187
 C387 C 1.08724 -0.08650 0.36191
 C388 C 1.07344 -0.07147 0.38733
 H389 H 1.08171 -0.14428 0.24787
 H390 H 1.18761 -0.13015 0.29444
 H391 H 1.21495 -0.15861 0.24090
 H392 H 1.10892 -0.17232 0.19411
 C393 C 0.89057 0.15050 0.24568
 C394 C 0.86985 0.13804 0.27471
 C395 C 0.83210 0.14048 0.27324
 C396 C 0.81513 0.15521 0.24283
 C397 C 0.83573 0.16764 0.21348
 C398 C 0.87363 0.16522 0.21525
 C399 C 0.88728 0.12220 0.30572
 C400 C 0.90185 0.10860 0.33153
 C401 C 0.91883 0.09222 0.36156
 C402 C 0.93323 0.07778 0.38699
 H403 H 0.91979 0.14863 0.24647
 H404 H 0.81580 0.13091 0.29555
 H405 H 0.78592 0.15702 0.24216
 H406 H 0.89004 0.17434 0.19286
 C407 C 0.13654 0.26944 -0.16954
 C408 C 0.13530 0.27322 -0.13195
 C409 C 0.15020 0.24637 -0.10992
 C410 C 0.16620 0.21577 -0.12533
 C411 C 0.16760 0.21134 -0.16328
 C412 C 0.15250 0.23889 -0.18509
 C413 C 0.11832 0.30441 -0.11594
 C414 C 0.10389 0.33036 -0.10242
 C415 C 0.08670 0.36051 -0.08646
 C416 C 0.07175 0.38604 -0.07273
 H417 H 0.12519 0.29015 -0.18687
 H418 H 0.14919 0.24892 -0.08075
 H419 H 0.17663 0.19505 -0.10748
 H420 H 0.15364 0.23709 -0.21429
 C421 C -0.15005 0.24611 0.10962
 C422 C -0.13754 0.27517 0.13042
 C423 C -0.13993 0.27378 0.16816
 C424 C -0.15463 0.24340 0.18505
 C425 C -0.16711 0.21402 0.16437
 C426 C -0.16475 0.21571 0.12647
 C427 C -0.12171 0.30613 0.11307
 C428 C -0.10809 0.33188 0.09856
 C429 C -0.09170 0.36181 0.08161
 C430 C -0.07723 0.38714 0.06720
 H431 H -0.14822 0.24684 0.08041
 H432 H -0.13032 0.29611 0.18453
 H433 H -0.15640 0.24279 0.21425
 H434 H -0.17390 0.19329 0.11000
 C435 C -0.17094 0.72849 -0.14268
 C436 C -0.13329 0.72614 -0.13944
 C437 C -0.11164 0.75471 -0.15138
 C438 C -0.12754 0.78556 -0.16638
 C439 C -0.16534 0.78821 -0.16960
 C440 C -0.18688 0.75933 -0.15768
 C441 C -0.11689 0.69473 -0.12330
 C442 C -0.10306 0.66864 -0.10946
 C443 C -0.08676 0.63839 -0.09282
 C444 C -0.07276 0.61285 -0.07816
 H445 H -0.18796 0.70656 -0.13351
 H446 H -0.08249 0.75324 -0.14889
 H447 H -0.11041 0.80758 -0.17507
 H448 H -0.21602 0.76068 -0.16012
 C449 C 0.14350 0.75250 0.11148
 C450 C 0.13036 0.72442 0.13307
 C451 C 0.13381 0.72648 0.17071
 C452 C 0.15026 0.75654 0.18670
 C453 C 0.16345 0.78490 0.16522
 C454 C 0.15995 0.78256 0.12743
 C455 C 0.11319 0.69363 0.11656
 C456 C 0.09879 0.66799 0.10247
 C457 C 0.08196 0.63814 0.08565
 C458 C 0.06763 0.61281 0.07096
 H459 H 0.14091 0.75122 0.08232
 H460 H 0.12377 0.70489 0.18768
 H461 H 0.15287 0.75766 0.21584
 H462 H 0.16960 0.80422 0.11035
 C463 C 0.27048 1.17075 0.86979
 C464 C 0.27426 1.13315 0.87021
 C465 C 0.24777 1.11147 0.85417
 C466 C 0.21754 1.12725 0.83784
 C467 C 0.21312 1.16523 0.83722
 C468 C 0.24028 1.18668 0.85350
 C469 C 0.30519 1.11672 0.88727
 C470 C 0.33095 1.10270 0.90156
 C471 C 0.36093 1.08594 0.91829
 C472 C 0.38635 1.07128 0.93253
 H473 H 0.29093 1.18781 0.88200
 H474 H 0.25034 1.08229 0.85451
 H475 H 0.19708 1.10965 0.82649
 H476 H 0.23850 1.21589 0.85301
 C477 C 0.27085 0.82504 1.13730
 C478 C 0.27384 0.86263 1.13423
 C479 C 0.24602 0.88490 1.14705
 C480 C 0.21529 0.86967 1.16277
 C481 C 0.21201 0.83195 1.16589
 C482 C 0.24012 0.80977 1.15305
 C483 C 0.30525 0.87844 1.11767
 C484 C 0.33131 0.89204 1.10371
 C485 C 0.36152 0.90846 1.08728
 C486 C 0.38701 0.92294 1.07317
 H487 H 0.29221 0.80755 1.12750
 H488 H 0.24800 0.91402 1.14472
 H489 H 0.19386 0.88728 1.17217
 H490 H 0.23827 0.78067 1.15536
 C491 C 0.75435 1.11017 1.14979
 C492 C 0.72528 1.13097 1.13727
 C493 C 0.72670 1.16871 1.13974
 C494 C 0.75711 1.18560 1.15455
 C495 C 0.78651 1.16493 1.16703
 C496 C 0.78478 1.12703 1.16459
 C497 C 0.69427 1.11363 1.12134
 C498 C 0.66847 1.09912 1.10767
 C499 C 0.63846 1.08219 1.09123
 C500 C 0.61303 1.06779 1.07677
 H501 H 0.75360 1.08096 1.14790
 H502 H 0.70436 1.18508 1.13012
 H503 H 0.75775 1.21481 1.15637
 H504 H 0.80721 1.11056 1.17375
 C505 C 0.75360 0.85361 0.88629
 C506 C 0.72528 0.86688 0.86492
 C507 C 0.72747 0.86454 0.82721
 C508 C 0.75789 0.84910 0.81093
 C509 C 0.78652 0.83582 0.83219
 C510 C 0.78404 0.83817 0.87005
 C511 C 0.69417 0.88316 0.88173
 C512 C 0.66831 0.89690 0.89605
 C513 C 0.63827 0.91311 0.91313
 C514 C 0.61285 0.92703 0.92804
 H515 H 0.75224 0.85535 0.91549
 H516 H 0.70570 0.87470 0.81041
 H517 H 0.75912 0.84737 0.78174
 H518 H 0.80587 0.82842 0.88697
   
