data_POSCAR
  _audit_creation_date              2014-09-24
  _audit_creation_method            'ToBaCCo'
  _symmetry_space_group_name_H-M    'P1'
  _symmetry_Int_Tables_number       1
  _symmetry_cell_setting            triclinic
  loop_
  _symmetry_equiv_pos_as_xyz
 x,y,z
_cell_length_a 53.4598
_cell_length_b 53.4874
_cell_length_c 53.5090
_cell_angle_alpha 90.012700
_cell_angle_beta 90.023600
_cell_angle_gamma 90.013300
loop_
  _atom_site_label
  _atom_site_type_symbol
  _atom_site_fract_x
  _atom_site_fract_y
  _atom_site_fract_z
C1 C 0.18850 0.21218 0.22459
 C2 C 0.20472 0.19200 0.22856
 C3 C 0.22492 0.18800 0.21237
 C4 C 0.22889 0.20421 0.19219
 C5 C 0.21268 0.22440 0.18820
 C6 C 0.19249 0.22838 0.20440
 H7 H 0.20164 0.17945 0.24418
 H8 H 0.24452 0.20113 0.17964
 H9 H 0.17993 0.24400 0.20132
 C10 C 0.68839 0.71311 0.72490
 C11 C 0.70456 0.69286 0.72874
 C12 C 0.72470 0.68887 0.71248
 C13 C 0.72867 0.70516 0.69236
 C14 C 0.71252 0.72541 0.68850
 C15 C 0.69238 0.72938 0.70477
 H16 H 0.70147 0.68025 0.74431
 H17 H 0.74426 0.70207 0.67977
 H18 H 0.67986 0.74505 0.70178
 C19 C 0.31098 0.78779 0.72508
 C20 C 0.30701 0.77153 0.70494
 C21 C 0.28682 0.77541 0.68870
 C22 C 0.27057 0.79558 0.69262
 C23 C 0.27450 0.81189 0.71277
 C24 C 0.29473 0.80796 0.72899
 H25 H 0.31959 0.75591 0.70190
 H26 H 0.25494 0.79855 0.68001
 H27 H 0.29785 0.82054 0.74460
 C28 C 0.81225 0.28714 0.22503
 C29 C 0.80827 0.27091 0.20483
 C30 C 0.78807 0.27484 0.18861
 C31 C 0.77184 0.29501 0.19257
 C32 C 0.77578 0.31125 0.21274
 C33 C 0.79598 0.30732 0.22896
 H34 H 0.82082 0.25527 0.20171
 H35 H 0.75620 0.29806 0.18002
 H36 H 0.79898 0.31993 0.24456
 C37 C 0.81174 0.71300 0.27548
 C38 C 0.79554 0.69276 0.27162
 C39 C 0.77538 0.68881 0.28786
 C40 C 0.77141 0.70510 0.30798
 C41 C 0.78760 0.72534 0.31186
 C42 C 0.80775 0.72928 0.29560
 H43 H 0.79862 0.68015 0.25605
 H44 H 0.75581 0.70204 0.32056
 H45 H 0.82029 0.74495 0.29860
 C46 C 0.31215 0.21238 -0.22528
 C47 C 0.29590 0.19217 -0.22921
 C48 C 0.27570 0.18822 -0.21302
 C49 C 0.27172 0.20447 -0.19288
 C50 C 0.28793 0.22467 -0.18891
 C51 C 0.30813 0.22862 -0.20510
 H52 H 0.29893 0.17954 -0.24480
 H53 H 0.25608 0.20141 -0.18034
 H54 H 0.32066 0.24428 -0.20198
 C55 C 0.68778 0.28698 -0.22519
 C56 C 0.70404 0.30717 -0.22918
 C57 C 0.72428 0.31114 -0.21301
 C58 C 0.72827 0.29493 -0.19284
 C59 C 0.71205 0.27475 -0.18882
 C60 C 0.69182 0.27078 -0.20498
 H61 H 0.70099 0.31976 -0.24478
 H62 H 0.74394 0.29801 -0.18032
 H63 H 0.67928 0.25514 -0.20182
 C64 C 0.18884 0.78773 0.27512
 C65 C 0.19273 0.77151 0.29530
 C66 C 0.21288 0.77541 0.31158
 C67 C 0.22917 0.79556 0.30768
 C68 C 0.22531 0.81183 0.28749
 C69 C 0.20512 0.80789 0.27122
 H70 H 0.18012 0.75591 0.29832
 H71 H 0.24476 0.79854 0.32032
 H72 H 0.20205 0.82043 0.25558
 C73 C 0.46245 0.43819 0.47519
 C74 C 0.44226 0.45442 0.47909
 C75 C 0.43833 0.47460 0.46286
 C76 C 0.45460 0.47853 0.44272
 C77 C 0.47479 0.46230 0.43880
 C78 C 0.47870 0.44213 0.45504
 H79 H 0.42967 0.45137 0.49468
 H80 H 0.45156 0.49415 0.43015
 H81 H 0.49433 0.42956 0.45201
 C82 C -0.03786 -0.06098 0.97451
 C83 C -0.02166 -0.05708 0.95432
 C84 C -0.02560 -0.03694 0.93806
 C85 C -0.04577 -0.02069 0.94199
 C86 C -0.06201 -0.02457 0.96219
 C87 C -0.05803 -0.04474 0.97845
 H88 H -0.00605 -0.06966 0.95127
 H89 H -0.04878 -0.00510 0.92936
 H90 H -0.07055 -0.04781 0.99411
 C91 C 1.03722 0.56159 0.97467
 C92 C 1.02097 0.55761 0.95450
 C93 C 1.02489 0.53741 0.93830
 C94 C 1.04506 0.52118 0.94228
 C95 C 1.06132 0.52514 0.96244
 C96 C 1.05739 0.54535 0.97862
 H97 H 1.00536 0.57019 0.95143
 H98 H 1.04810 0.50553 0.92974
 H99 H 1.06998 0.54843 0.99423
 C100 C 0.53768 0.06115 0.47524
 C101 C 0.52144 0.05714 0.45507
 C102 C 0.52543 0.03698 0.43883
 C103 C 0.54567 0.02082 0.44276
 C104 C 0.56195 0.02481 0.46293
 C105 C 0.55792 0.04499 0.47916
 H106 H 0.50577 0.06965 0.45203
 H107 H 0.54871 0.00523 0.43015
 H108 H 0.57047 0.04815 0.49480
 C109 C -0.03780 0.06158 0.52490
 C110 C -0.02151 0.05756 0.54502
 C111 C -0.02543 0.03737 0.56122
 C112 C -0.04566 0.02117 0.55730
 C113 C -0.06198 0.02516 0.53718
 C114 C -0.05803 0.04538 0.52098
 H115 H -0.00586 0.07010 0.54805
 H116 H -0.04865 0.00555 0.56989
 H117 H -0.07062 0.04854 0.50538
 C118 C 0.46275 0.56184 0.02541
 C119 C 0.44259 0.54558 0.02143
 C120 C 0.43867 0.52534 0.03758
 C121 C 0.45494 0.52137 0.05773
 C122 C 0.47510 0.53762 0.06173
 C123 C 0.47900 0.55785 0.04557
 H124 H 0.43000 0.54866 0.00583
 H125 H 0.45191 0.50571 0.07024
 H126 H 0.49461 0.57044 0.04866
 C127 C 0.53747 -0.06205 0.02503
 C128 C 0.55766 -0.04578 0.02111
 C129 C 0.56166 -0.02566 0.03740
 C130 C 0.54547 -0.02178 0.05761
 C131 C 0.52528 -0.03801 0.06155
 C132 C 0.52129 -0.05814 0.04527
 H133 H 0.57024 -0.04874 0.00548
 H134 H 0.54856 -0.00620 0.07021
 H135 H 0.50564 -0.07069 0.04838
 C136 C 1.03777 0.43894 0.52479
 C137 C 1.02156 0.44287 0.54497
 C138 C 1.02549 0.46304 0.56121
 C139 C 1.04565 0.47929 0.55727
 C140 C 1.06191 0.47539 0.53708
 C141 C 1.05794 0.45520 0.52084
 H142 H 1.00595 0.43028 0.54803
 H143 H 1.04865 0.49490 0.56988
 H144 H 1.07047 0.45210 0.50520
 C145 C 0.41328 0.01092 0.21661
 H146 H 0.41431 0.02786 0.22762
 C147 C 0.42961 0.00742 0.19656
 H148 H 0.44330 0.02173 0.19234
 C149 C 0.39467 -0.02864 0.20937
 H150 H 0.38126 -0.04279 0.21460
 C151 C 0.41066 -0.03292 0.18919
 H152 H 0.40898 -0.05020 0.17877
 N153 N 0.39606 -0.00686 0.22243
 C154 C 0.33679 0.03293 0.26185
 H155 H 0.33582 0.02202 0.27884
 C156 C 0.32047 0.05299 0.25830
 H157 H 0.30719 0.05763 0.27285
 C158 C 0.35546 0.04011 0.22234
 H159 H 0.36878 0.03476 0.20816
 C160 C 0.33951 0.06032 0.21802
 H161 H 0.34077 0.07032 0.20048
 Zn162 Zn 0.37503 -0.00077 0.25023
 N163 N 0.35403 0.02706 0.24411
 C164 C 0.39463 0.02713 0.29110
 N165 N 0.39602 0.00533 0.27808
 C166 C 0.41322 -0.01244 0.28398
 C167 C 0.42954 -0.00890 0.30405
 C168 C 0.41061 0.03146 0.31130
 C169 C 0.33678 -0.03446 0.23852
 C170 C 0.32042 -0.05450 0.24204
 C171 C 0.33938 -0.06184 0.28237
 C172 C 0.35538 -0.04165 0.27808
 N173 N 0.35400 -0.02860 0.25630
 H174 H 0.38123 0.04128 0.28582
 H175 H 0.41424 -0.02940 0.27300
 H176 H 0.44322 -0.02320 0.30831
 H177 H 0.40894 0.04876 0.32167
 H178 H 0.33586 -0.02355 0.22152
 H179 H 0.30716 -0.05912 0.22745
 H180 H 0.34060 -0.07184 0.29992
 H181 H 0.36868 -0.03631 0.29229
 C182 C 0.32175 0.06704 0.23616
 C183 C 0.42838 -0.01473 0.18250
 C184 C 0.32163 -0.06853 0.26419
 C185 C 0.42832 0.01328 0.31805
 C186 C 0.08694 -0.01206 0.71590
 H187 H 0.08585 -0.02898 0.72692
 C188 C 0.07063 -0.00852 0.69584
 H189 H 0.05689 -0.02278 0.69162
 C190 C 0.10568 0.02743 0.70868
 H191 H 0.11913 0.04155 0.71392
 C192 C 0.08970 0.03176 0.68848
 H193 H 0.09143 0.04903 0.67807
 N194 N 0.10421 0.00568 0.72175
 C195 C 0.16329 -0.03413 0.76147
 H196 H 0.16423 -0.02317 0.77844
 C197 C 0.17961 -0.05421 0.75801
 H198 H 0.19285 -0.05881 0.77261
 C199 C 0.14470 -0.04141 0.72192
 H200 H 0.13141 -0.03609 0.70769
 C201 C 0.16065 -0.06165 0.71770
 H202 H 0.15942 -0.07170 0.70017
 Zn203 Zn 0.12515 -0.00040 0.74964
 N204 N 0.14610 -0.02830 0.74367
 C205 C 0.10539 -0.02808 0.79056
 N206 N 0.10406 -0.00635 0.77743
 C207 C 0.08686 0.01147 0.78316
 C208 C 0.07049 0.00806 0.80319
 C209 C 0.08935 -0.03228 0.81072
 C210 C 0.16351 0.03316 0.73798
 C211 C 0.17987 0.05321 0.74148
 C212 C 0.16082 0.06071 0.78172
 C213 C 0.14480 0.04053 0.77743
 N214 N 0.14623 0.02740 0.75571
 H215 H 0.11879 -0.04227 0.78540
 H216 H 0.08589 0.02837 0.77209
 H217 H 0.05681 0.02240 0.80733
 H218 H 0.09096 -0.04952 0.82119
 H219 H 0.16456 0.02210 0.72108
 H220 H 0.19361 0.05737 0.72721
 H221 H 0.15912 0.07118 0.79896
 H222 H 0.13134 0.03536 0.79155
 C223 C 0.17838 -0.06832 0.73590
 C224 C 0.07191 0.01362 0.68179
 C225 C 0.17861 0.06733 0.76358
 C226 C 0.07163 -0.01404 0.81731
 C227 C 0.58716 0.48816 0.21664
 H228 H 0.58612 0.47119 0.22760
 C229 C 0.57086 0.49171 0.19656
 H230 H 0.55718 0.47742 0.19227
 C231 C 0.60578 0.52773 0.20957
 H232 H 0.61918 0.54188 0.21487
 C233 C 0.58982 0.53207 0.18936
 H234 H 0.59151 0.54938 0.17900
 N235 N 0.60437 0.50592 0.22256
 C236 C 0.66357 0.46610 0.26210
 H237 H 0.66449 0.47701 0.27911
 C238 C 0.67991 0.44606 0.25857
 H239 H 0.69317 0.44143 0.27315
 C240 C 0.64497 0.45894 0.22254
 H241 H 0.63167 0.46428 0.20833
 C242 C 0.66095 0.43874 0.21823
 H243 H 0.65973 0.42875 0.20068
 Zn244 Zn 0.62535 0.49980 0.25041
 N245 N 0.64636 0.47197 0.24433
 C246 C 0.60568 0.47191 0.29123
 N247 N 0.60431 0.49370 0.27820
 C248 C 0.58710 0.51148 0.28406
 C249 C 0.57076 0.50796 0.30409
 C250 C 0.58967 0.46760 0.31140
 C251 C 0.66361 0.53348 0.23882
 C252 C 0.67993 0.55355 0.24236
 C253 C 0.66089 0.56092 0.28263
 C254 C 0.64494 0.54070 0.27832
 N255 N 0.64637 0.52763 0.25655
 H256 H 0.61908 0.45776 0.28598
 H257 H 0.58609 0.52843 0.27307
 H258 H 0.55707 0.52226 0.30832
 H259 H 0.59132 0.45031 0.32178
 H260 H 0.66457 0.52255 0.22183
 H261 H 0.69321 0.55818 0.22780
 H262 H 0.65962 0.57094 0.30016
 H263 H 0.63160 0.53536 0.29249
 C264 C 0.67869 0.43203 0.23641
 C265 C 0.57210 0.51390 0.18258
 C266 C 0.67865 0.56762 0.26449
 C267 C 0.57195 0.48579 0.31810
 C268 C 0.91298 0.51163 0.71602
 H269 H 0.91398 0.52853 0.72709
 C270 C 0.92937 0.50819 0.69601
 H271 H 0.94307 0.52252 0.69188
 C272 C 0.89440 0.47209 0.70862
 H273 H 0.88098 0.45792 0.71377
 C274 C 0.91045 0.46787 0.68847
 H275 H 0.90881 0.45062 0.67800
 N276 N 0.89575 0.49383 0.72175
 C277 C 0.83636 0.53342 0.76118
 H278 H 0.83528 0.52236 0.77807
 C279 C 0.82005 0.55351 0.75770
 H280 H 0.80632 0.55769 0.77197
 C281 C 0.85510 0.54078 0.72174
 H282 H 0.86856 0.53559 0.70763
 C283 C 0.83914 0.56099 0.71747
 H284 H 0.84087 0.57147 0.70025
 Zn285 Zn 0.87467 0.49982 0.74953
 N286 N 0.85364 0.52764 0.74346
 C287 C 0.89415 0.52765 0.79050
 N288 N 0.89561 0.50589 0.77743
 C289 C 0.91285 0.48815 0.78329
 C290 C 0.92914 0.49167 0.80338
 C291 C 0.91010 0.53197 0.81073
 C292 C 0.83648 0.46609 0.73771
 C293 C 0.82015 0.44603 0.74119
 C294 C 0.83909 0.43864 0.78151
 C295 C 0.85506 0.45886 0.77727
 N296 N 0.85368 0.47194 0.75551
 H297 H 0.88073 0.54178 0.78525
 H298 H 0.91392 0.47122 0.77226
 H299 H 0.94285 0.47739 0.80761
 H300 H 0.90839 0.54923 0.82115
 H301 H 0.83556 0.47703 0.72074
 H302 H 0.80690 0.44141 0.72659
 H303 H 0.84031 0.42862 0.79905
 H304 H 0.86835 0.46420 0.79150
 C305 C 0.82136 0.56764 0.73562
 C306 C 0.92819 0.48609 0.68189
 C307 C 0.82137 0.43195 0.76331
 C308 C 0.92786 0.51381 0.81744
 C309 C 0.21639 0.41301 0.01150
 H310 H 0.22734 0.41393 0.02848
 C311 C 0.19633 0.42934 0.00802
 H312 H 0.19172 0.44258 0.02261
 C313 C 0.20914 0.39445 -0.02806
 H314 H 0.21446 0.38116 -0.04229
 C315 C 0.18891 0.41042 -0.03231
 H316 H 0.17887 0.40920 -0.04985
 N317 N 0.22223 0.39582 -0.00630
 C318 C 0.26184 0.33660 0.03336
 H319 H 0.27879 0.33561 0.02237
 C320 C 0.25834 0.32025 0.05339
 H321 H 0.27266 0.30658 0.05761
 C322 C 0.22224 0.35513 0.04056
 H323 H 0.20807 0.36852 0.03533
 C324 C 0.21795 0.33913 0.06072
 H325 H 0.20066 0.34076 0.07112
 Zn326 Zn 0.25009 0.37484 -0.00026
 N327 N 0.24404 0.35378 0.02752
 C328 C 0.29101 0.39444 0.02761
 N329 N 0.27793 0.39586 0.00585
 C330 C 0.28374 0.41312 -0.01187
 C331 C 0.30378 0.42947 -0.00833
 C332 C 0.31121 0.41043 0.03193
 C333 C 0.23842 0.33668 -0.03404
 C334 C 0.24197 0.32040 -0.05412
 C335 C 0.28234 0.33937 -0.06135
 C336 C 0.27800 0.35532 -0.04114
 N337 N 0.25619 0.35389 -0.02813
 H338 H 0.28570 0.38110 0.04179
 H339 H 0.27279 0.41407 -0.02886
 H340 H 0.30837 0.44277 -0.02288
 H341 H 0.32125 0.40918 0.04947
 H342 H 0.22146 0.33563 -0.02307
 H343 H 0.22768 0.30671 -0.05840
 H344 H 0.29964 0.34107 -0.07171
 H345 H 0.29215 0.36872 -0.03585
 C346 C 0.23617 0.32142 0.06742
 C347 C 0.18224 0.42813 -0.01411
 C348 C 0.26416 0.32165 -0.06811
 C349 C 0.31787 0.42822 0.01380
 C350 C 0.71666 0.08649 -0.01182
 H351 H 0.72755 0.08558 -0.02884
 C352 C 0.69661 0.07014 -0.00829
 H353 H 0.69197 0.05690 -0.02287
 C354 C 0.70952 0.10506 0.02774
 H355 H 0.71487 0.11836 0.04195
 C356 C 0.68931 0.08908 0.03205
 H357 H 0.67933 0.09029 0.04960
 N358 N 0.72254 0.10369 0.00595
 C359 C 0.76190 0.16299 -0.03385
 H360 H 0.77894 0.16396 -0.02298
 C361 C 0.75830 0.17931 -0.05390
 H362 H 0.77285 0.19258 -0.05856
 C363 C 0.72233 0.14432 -0.04096
 H364 H 0.70815 0.13099 -0.03559
 C365 C 0.71796 0.16026 -0.06115
 H366 H 0.70038 0.15899 -0.07112
 Zn367 Zn 0.75035 0.12474 -0.00017
 N368 N 0.74416 0.14575 -0.02796
 C369 C 0.79122 0.10521 -0.02813
 N370 N 0.77821 0.10378 -0.00633
 C371 C 0.78412 0.08655 0.01140
 C372 C 0.80421 0.07027 0.00783
 C373 C 0.81143 0.08926 -0.03249
 C374 C 0.73870 0.16289 0.03360
 C375 C 0.74224 0.17918 0.05368
 C376 C 0.78265 0.16029 0.06088
 C377 C 0.77832 0.14434 0.04067
 N378 N 0.75649 0.14572 0.02767
 H379 H 0.78593 0.11862 -0.04224
 H380 H 0.77315 0.08549 0.02835
 H381 H 0.80849 0.05657 0.02210
 H382 H 0.82181 0.09097 -0.04978
 H383 H 0.72171 0.16391 0.02264
 H384 H 0.72792 0.19283 0.05797
 H385 H 0.79997 0.15863 0.07124
 H386 H 0.79248 0.13097 0.03537
 C387 C 0.73610 0.17802 -0.06790
 C388 C 0.68259 0.07135 0.01387
 C389 C 0.76445 0.17797 0.06766
 C390 C 0.81821 0.07153 -0.01434
 C391 C 0.21583 0.58676 0.48831
 H392 H 0.22678 0.58585 0.47133
 C393 C 0.19576 0.57043 0.49177
 H394 H 0.19115 0.55720 0.47716
 C395 C 0.20859 0.60529 0.52788
 H396 H 0.21393 0.61856 0.54212
 C397 C 0.18836 0.58932 0.53210
 H398 H 0.17833 0.59052 0.54964
 N399 N 0.22168 0.60393 0.50613
 C400 C 0.26143 0.66314 0.46658
 H401 H 0.27841 0.66404 0.47756
 C402 C 0.25800 0.67950 0.44654
 H403 H 0.27263 0.69274 0.44199
 C404 C 0.22185 0.64461 0.45921
 H405 H 0.20759 0.63132 0.46447
 C406 C 0.21765 0.66060 0.43901
 H407 H 0.20012 0.65940 0.42893
 Zn408 Zn 0.24957 0.62492 0.50016
 N409 N 0.24360 0.64596 0.47234
 C410 C 0.29052 0.60529 0.47239
 N411 N 0.27742 0.60390 0.49414
 C412 C 0.28323 0.58667 0.51190
 C413 C 0.30329 0.57034 0.50841
 C414 C 0.31074 0.58932 0.46814
 C415 C 0.23781 0.66309 0.53385
 C416 C 0.24130 0.67941 0.55392
 C417 C 0.28165 0.66048 0.56131
 C418 C 0.27738 0.64450 0.54112
 N419 N 0.25560 0.64589 0.52803
 H420 H 0.28521 0.61861 0.45819
 H421 H 0.27227 0.58573 0.52887
 H422 H 0.30788 0.55707 0.52299
 H423 H 0.32079 0.59056 0.45062
 H424 H 0.22088 0.66411 0.52282
 H425 H 0.22698 0.69309 0.55812
 H426 H 0.29893 0.65882 0.57174
 H427 H 0.29155 0.63110 0.53589
 C428 C 0.23589 0.67832 0.43241
 C429 C 0.18168 0.57162 0.51389
 C430 C 0.26345 0.67820 0.56799
 C431 C 0.31739 0.57158 0.48631
 C432 C 0.71633 0.91419 0.51184
 H433 H 0.72728 0.91517 0.52882
 C434 C 0.69623 0.93047 0.50832
 H435 H 0.69160 0.94373 0.52289
 C436 C 0.70910 0.89551 0.47233
 H437 H 0.71444 0.88219 0.45814
 C438 C 0.68884 0.91142 0.46805
 H439 H 0.67880 0.91014 0.45052
 N440 N 0.72219 0.89696 0.49409
 C441 C 0.76176 0.83776 0.53383
 H442 H 0.77870 0.83673 0.52282
 C443 C 0.75825 0.82143 0.55387
 H444 H 0.77255 0.80773 0.55809
 C445 C 0.72221 0.85638 0.54106
 H446 H 0.70805 0.86979 0.53583
 C447 C 0.71790 0.84039 0.56123
 H448 H 0.70062 0.84206 0.57163
 Zn449 Zn 0.75006 0.87598 0.50018
 N450 N 0.74399 0.85498 0.52800
 C451 C 0.79101 0.89559 0.52800
 N452 N 0.77791 0.89700 0.50625
 C453 C 0.78374 0.91422 0.48849
 C454 C 0.80384 0.93052 0.49199
 C455 C 0.81124 0.91155 0.53228
 C456 C 0.73837 0.83774 0.46652
 C457 C 0.74189 0.82140 0.44648
 C458 C 0.78223 0.84038 0.43913
 C459 C 0.77792 0.85638 0.45930
 N460 N 0.75614 0.85497 0.47235
 H461 H 0.78578 0.88217 0.54214
 H462 H 0.77270 0.91526 0.47157
 H463 H 0.80806 0.94421 0.47769
 H464 H 0.82169 0.90986 0.54954
 H465 H 0.72143 0.83670 0.47753
 H466 H 0.72759 0.80770 0.44227
 H467 H 0.79951 0.84206 0.42872
 H468 H 0.79207 0.86981 0.46453
 C469 C 0.73609 0.82265 0.56791
 C470 C 0.68213 0.92917 0.48621
 C471 C 0.76405 0.82263 0.43244
 C472 C 0.81793 0.92927 0.51411
 C473 C 0.01148 0.21657 0.41291
 H474 H 0.02850 0.22748 0.41383
 C475 C 0.00796 0.19653 0.42925
 H476 H 0.02255 0.19191 0.44250
 C477 C -0.02811 0.20937 0.39434
 H478 H -0.04233 0.21470 0.38104
 C479 C -0.03241 0.18918 0.41031
 H480 H -0.04998 0.17917 0.40909
 N481 N -0.00631 0.22241 0.39571
 C482 C 0.03352 0.26182 0.33649
 H483 H 0.02262 0.27883 0.33553
 C484 C 0.05358 0.25825 0.32018
 H485 H 0.05823 0.27281 0.30692
 C486 C 0.04066 0.22227 0.35512
 H487 H 0.03530 0.20808 0.36843
 C488 C 0.06087 0.21793 0.33917
 H489 H 0.07086 0.20037 0.34043
 Zn490 Zn -0.00021 0.25020 0.37468
 N491 N 0.02764 0.24407 0.35370
 C492 C 0.02773 0.29109 0.39424
 N493 N 0.00590 0.27808 0.39562
 C494 C -0.01187 0.28399 0.41280
 C495 C -0.00831 0.30406 0.42911
 C496 C 0.03206 0.31131 0.41017
 C497 C -0.03391 0.23843 0.33649
 C498 C -0.05397 0.24190 0.32015
 C499 C -0.06129 0.28230 0.33897
 C500 C -0.04110 0.27804 0.35498
 N501 N -0.02805 0.25625 0.35365
 H502 H 0.04194 0.28570 0.38096
 H503 H -0.02891 0.27311 0.41374
 H504 H -0.02289 0.30873 0.44234
 H505 H 0.04965 0.32127 0.40895
 H506 H -0.02291 0.22148 0.33552
 H507 H -0.05821 0.22756 0.30651
 H508 H -0.07169 0.29960 0.34058
 H509 H -0.03585 0.29223 0.36834
 C510 C 0.06760 0.23608 0.32143
 C511 C -0.01421 0.18248 0.42803
 C512 C -0.06801 0.26407 0.32130
 C513 C 0.01389 0.31806 0.42788
 C514 C -0.01173 0.71679 0.08656
 H515 H -0.02873 0.72773 0.08563
 C516 C -0.00826 0.69672 0.07023
 H517 H -0.02287 0.69211 0.05700
 C518 C 0.02785 0.70955 0.10512
 H519 H 0.04209 0.71487 0.11841
 C520 C 0.03210 0.68933 0.08917
 H521 H 0.04965 0.67929 0.09039
 N522 N 0.00608 0.72263 0.10374
 C523 C -0.03352 0.76214 0.16305
 H524 H -0.02249 0.77907 0.16408
 C525 C -0.05355 0.75863 0.17941
 H526 H -0.05772 0.77292 0.19313
 C527 C -0.04084 0.72262 0.14442
 H528 H -0.03565 0.70848 0.13099
 C529 C -0.06100 0.71832 0.16044
 H530 H -0.07144 0.70105 0.15877
 Zn531 Zn 0.00005 0.75046 0.12476
 N532 N -0.02775 0.74438 0.14581
 C533 C -0.02786 0.79136 0.10525
 N534 N -0.00608 0.77831 0.10379
 C535 C 0.01165 0.78417 0.08655
 C536 C 0.00808 0.80423 0.07025
 C537 C -0.03222 0.81155 0.08930
 C538 C 0.03381 0.73875 0.16290
 C539 C 0.05391 0.74225 0.17919
 C540 C 0.06128 0.78258 0.16025
 C541 C 0.04105 0.77829 0.14429
 N542 N 0.02796 0.75653 0.14570
 H543 H -0.04198 0.78611 0.11869
 H544 H 0.02860 0.77316 0.08547
 H545 H 0.02235 0.80847 0.05653
 H546 H -0.04951 0.82195 0.09101
 H547 H 0.02278 0.72182 0.16394
 H548 H 0.05814 0.72794 0.19287
 H549 H 0.07171 0.79985 0.15858
 H550 H 0.03580 0.79244 0.13090
 C551 C -0.06763 0.73649 0.17820
 C552 C 0.01388 0.68264 0.07146
 C553 C 0.06798 0.76439 0.17797
 C554 C -0.01408 0.81827 0.07153
 C555 C 0.48825 0.21603 0.58736
 H556 H 0.47125 0.22696 0.58640
 C557 C 0.49177 0.19599 0.57102
 H558 H 0.47720 0.19139 0.55774
 C559 C 0.52779 0.20878 0.60602
 H560 H 0.54199 0.21409 0.61935
 C561 C 0.53208 0.18858 0.59005
 H562 H 0.54963 0.17855 0.59130
 N563 N 0.50601 0.22185 0.60460
 C564 C 0.46623 0.26135 0.66380
 H565 H 0.47725 0.27828 0.66486
 C566 C 0.44614 0.25783 0.68009
 H567 H 0.44191 0.27212 0.69379
 C568 C 0.45899 0.22182 0.64515
 H569 H 0.46424 0.20768 0.63174
 C570 C 0.43878 0.21751 0.66110
 H571 H 0.42835 0.20024 0.65939
 Zn572 Zn 0.49993 0.24968 0.62560
 N573 N 0.47207 0.24359 0.64658
 C574 C 0.47207 0.29059 0.60602
 N575 N 0.49385 0.27752 0.60461
 C576 C 0.51162 0.28335 0.58739
 C577 C 0.50810 0.30340 0.57107
 C578 C 0.46776 0.31077 0.59003
 C579 C 0.53364 0.23800 0.66381
 C580 C 0.55372 0.24151 0.68012
 C581 C 0.56107 0.28184 0.66118
 C582 C 0.54086 0.27754 0.64521
 N583 N 0.52779 0.25576 0.64661
 H584 H 0.45792 0.28536 0.61943
 H585 H 0.52855 0.27233 0.58636
 H586 H 0.52239 0.30761 0.55738
 H587 H 0.45048 0.32119 0.59171
 H588 H 0.52262 0.22106 0.66484
 H589 H 0.55796 0.22722 0.69380
 H590 H 0.57150 0.29912 0.65950
 H591 H 0.53561 0.29168 0.63180
 C592 C 0.43207 0.23568 0.67883
 C593 C 0.51391 0.18191 0.57228
 C594 C 0.56779 0.26366 0.67890
 C595 C 0.48594 0.31745 0.57230
 C596 C 0.51159 0.71703 0.91355
 H597 H 0.52852 0.72808 0.91459
 C598 C 0.50811 0.69697 0.92985
 H599 H 0.52243 0.69277 0.94354
 C600 C 0.47205 0.70973 0.89491
 H601 H 0.45789 0.71493 0.88149
 C602 C 0.46778 0.68953 0.91088
 H603 H 0.45051 0.67907 0.90919
 N604 N 0.49381 0.72284 0.89632
 C605 C 0.53356 0.76238 0.83713
 H606 H 0.52254 0.77931 0.83610
 C607 C 0.55362 0.75886 0.82081
 H608 H 0.55784 0.77315 0.80713
 C609 C 0.54077 0.72283 0.85574
 H610 H 0.53553 0.70869 0.86914
 C611 C 0.56096 0.71853 0.83976
 H612 H 0.57137 0.70125 0.84143
 Zn613 Zn 0.49986 0.75068 0.87533
 N614 N 0.52771 0.74461 0.85434
 C615 C 0.52771 0.79160 0.89492
 N616 N 0.50593 0.77852 0.89632
 C617 C 0.48817 0.78434 0.91355
 C618 C 0.49170 0.80437 0.92990
 C619 C 0.53202 0.81179 0.91091
 C620 C 0.46617 0.73895 0.83711
 C621 C 0.44608 0.74243 0.82081
 C622 C 0.43867 0.78274 0.83977
 C623 C 0.45889 0.77847 0.85574
 N624 N 0.47199 0.75672 0.85433
 H625 H 0.54192 0.78629 0.88160
 H626 H 0.47117 0.77339 0.91449
 H627 H 0.47713 0.80896 0.94318
 H628 H 0.54957 0.82182 0.90968
 H629 H 0.47721 0.72203 0.83607
 H630 H 0.44187 0.72813 0.80711
 H631 H 0.42823 0.80000 0.84146
 H632 H 0.46412 0.79263 0.86915
 C633 C 0.56766 0.73670 0.82203
 C634 C 0.48598 0.68287 0.92861
 C635 C 0.43199 0.76455 0.82204
 C636 C 0.51386 0.81844 0.92867
 C637 C 0.12963 0.22382 0.27177
 C638 C 0.13127 0.21652 0.29683
 C639 C 0.11111 0.22049 0.31299
 C640 C 0.16776 0.21627 0.24122
 C641 C 0.08757 0.23913 0.27904
 C642 C 0.10775 0.23512 0.26291
 C643 C 0.15038 0.21970 0.25515
 C644 C 0.08902 0.23186 0.30428
 H645 H 0.14815 0.20781 0.30389
 H646 H 0.11293 0.21498 0.33237
 H647 H 0.07072 0.24761 0.27169
 H648 H 0.10626 0.24078 0.24353
 C649 C 0.62961 0.72461 0.77223
 C650 C 0.61335 0.70493 0.77797
 C651 C 0.59321 0.70883 0.79416
 C652 C 0.66769 0.71717 0.74159
 C653 C 0.60552 0.75219 0.79894
 C654 C 0.62566 0.74824 0.78275
 C655 C 0.65033 0.72057 0.75556
 C656 C 0.58906 0.73252 0.80484
 H657 H 0.61620 0.68658 0.76987
 H658 H 0.58069 0.69340 0.79806
 H659 H 0.60302 0.77055 0.80710
 H660 H 0.63818 0.76359 0.77849
 C661 C 0.36990 0.77646 0.77232
 C662 C 0.37394 0.75285 0.78283
 C663 C 0.39412 0.74896 0.79899
 C664 C 0.33174 0.78378 0.74173
 C665 C 0.40630 0.79235 0.79421
 C666 C 0.38611 0.79619 0.77804
 C667 C 0.34913 0.78044 0.75568
 C668 C 0.41054 0.76867 0.80487
 H669 H 0.36146 0.73746 0.77857
 H670 H 0.39669 0.73061 0.80714
 H671 H 0.41878 0.80781 0.79810
 H672 H 0.38320 0.81453 0.76995
 C673 C -0.12998 0.27598 0.27144
 C674 C -0.11372 0.29568 0.27711
 C675 C -0.09357 0.29184 0.29333
 C676 C -0.16811 0.28333 0.24080
 C677 C -0.10588 0.24850 0.29823
 C678 C -0.12602 0.25239 0.28203
 C679 C -0.15073 0.27997 0.25476
 C680 C -0.08941 0.26819 0.30408
 H681 H -0.11658 0.31400 0.26896
 H682 H -0.08105 0.30728 0.29718
 H683 H -0.10338 0.23017 0.30645
 H684 H -0.13855 0.23703 0.27781
 C685 C -0.12951 0.72446 0.22811
 C686 C -0.11329 0.70475 0.22233
 C687 C -0.09318 0.70864 0.20610
 C688 C -0.16755 0.71704 0.25879
 C689 C -0.10542 0.75202 0.20139
 C690 C -0.12553 0.74808 0.21761
 C691 C -0.15021 0.72043 0.24481
 C692 C -0.08900 0.73233 0.19543
 H693 H -0.11616 0.68641 0.23041
 H694 H -0.08069 0.69320 0.20216
 H695 H -0.10290 0.77037 0.19324
 H696 H -0.13801 0.76345 0.22191
 C697 C 0.36999 0.22363 0.72847
 C698 C 0.38623 0.20393 0.72276
 C699 C 0.40642 0.20782 0.70662
 C700 C 0.33180 0.21620 0.75899
 C701 C 0.39419 0.25120 0.70186
 C702 C 0.37400 0.24726 0.71799
 C703 C 0.34921 0.21959 0.74507
 C704 C 0.41063 0.23152 0.69598
 H705 H 0.38333 0.18558 0.73082
 H706 H 0.41892 0.19238 0.70273
 H707 H 0.39674 0.26956 0.69373
 H708 H 0.36150 0.26262 0.72224
 C709 C 0.62989 0.27570 0.72858
 C710 C 0.61363 0.29540 0.72288
 C711 C 0.59344 0.29151 0.70673
 C712 C 0.66810 0.28313 0.75910
 C713 C 0.60568 0.24814 0.70194
 C714 C 0.62587 0.25208 0.71808
 C715 C 0.65068 0.27974 0.74519
 C716 C 0.58923 0.26782 0.69606
 H717 H 0.61653 0.31374 0.73097
 H718 H 0.58093 0.30695 0.70286
 H719 H 0.60313 0.22979 0.69378
 H720 H 0.63838 0.23672 0.72232
 C721 C 0.13002 0.77636 0.22775
 C722 C 0.11379 0.79607 0.22203
 C723 C 0.09363 0.79221 0.20583
 C724 C 0.16812 0.78372 0.25842
 C725 C 0.10585 0.74884 0.20102
 C726 C 0.12601 0.75275 0.21721
 C727 C 0.15075 0.78036 0.24444
 C728 C 0.08942 0.76854 0.19514
 H729 H 0.11668 0.81441 0.23015
 H730 H 0.08113 0.80766 0.20195
 H731 H 0.10331 0.73049 0.19285
 H732 H 0.13850 0.73738 0.22146
 C733 C 0.27210 0.12910 0.22396
 C734 C 0.29718 0.13072 0.21666
 C735 C 0.31333 0.11055 0.22062
 C736 C 0.24155 0.16725 0.21644
 C737 C 0.27933 0.08705 0.23922
 C738 C 0.26321 0.10723 0.23523
 C739 C 0.25548 0.14987 0.21987
 C740 C 0.30459 0.08847 0.23195
 H741 H 0.30426 0.14759 0.20798
 H742 H 0.33274 0.11235 0.21511
 H743 H 0.27196 0.07020 0.24767
 H744 H 0.24381 0.10576 0.24088
 C745 C 0.77177 0.62981 0.72373
 C746 C 0.77748 0.61363 0.70398
 C747 C 0.79360 0.59342 0.70782
 C748 C 0.74129 0.66806 0.71643
 C749 C 0.79833 0.60548 0.75124
 C750 C 0.78222 0.62569 0.74735
 C751 C 0.75518 0.65062 0.71975
 C752 C 0.80422 0.58910 0.73150
 H753 H 0.76943 0.61661 0.68564
 H754 H 0.79749 0.58097 0.69235
 H755 H 0.80645 0.60286 0.76959
 H756 H 0.77797 0.63814 0.76275
 C757 C 0.77158 0.36995 0.77538
 C758 C 0.76275 0.39184 0.76409
 C759 C 0.77892 0.41200 0.76013
 C760 C 0.74095 0.33186 0.78288
 C761 C 0.81285 0.38844 0.77880
 C762 C 0.79665 0.36829 0.78272
 C763 C 0.75491 0.34922 0.77946
 C764 C 0.80417 0.41053 0.76746
 H765 H 0.74336 0.39334 0.75840
 H766 H 0.77159 0.42886 0.75167
 H767 H 0.83224 0.38661 0.78435
 H768 H 0.80369 0.35141 0.79142
 C769 C 0.27179 -0.13048 0.27629
 C770 C 0.29685 -0.13215 0.28365
 C771 C 0.31307 -0.11202 0.27974
 C772 C 0.24113 -0.16857 0.28370
 C773 C 0.27917 -0.08845 0.26103
 C774 C 0.26299 -0.10860 0.26499
 C775 C 0.25511 -0.15121 0.28033
 C776 C 0.30442 -0.08993 0.26837
 H777 H 0.30388 -0.14904 0.29236
 H778 H 0.33246 -0.11386 0.28530
 H779 H 0.27185 -0.07159 0.25255
 H780 H 0.24360 -0.10708 0.25928
 C781 C 0.22811 -0.13036 0.72394
 C782 C 0.23695 -0.10845 0.73520
 C783 C 0.22080 -0.08828 0.73911
 C784 C 0.25872 -0.16849 0.71656
 C785 C 0.18686 -0.11186 0.72046
 C786 C 0.20305 -0.13202 0.71659
 C787 C 0.24476 -0.15111 0.71992
 C788 C 0.19556 -0.08974 0.73178
 H789 H 0.25635 -0.10695 0.74090
 H790 H 0.22815 -0.07140 0.74755
 H791 H 0.16747 -0.11369 0.71490
 H792 H 0.19599 -0.14892 0.70791
 C793 C 0.72847 0.37006 0.22425
 C794 C 0.73730 0.39194 0.23558
 C795 C 0.72113 0.41210 0.23955
 C796 C 0.75909 0.33197 0.21679
 C797 C 0.68721 0.38854 0.22083
 C798 C 0.70341 0.36841 0.21690
 C799 C 0.74513 0.34933 0.22019
 C800 C 0.69589 0.41063 0.23221
 H801 H 0.75669 0.39344 0.24128
 H802 H 0.72847 0.42895 0.24804
 H803 H 0.66782 0.38671 0.21527
 H804 H 0.69636 0.35153 0.20818
 C805 C 0.72826 0.62977 0.27655
 C806 C 0.73716 0.60789 0.26532
 C807 C 0.72105 0.58767 0.26139
 C808 C 0.75876 0.66801 0.28389
 C809 C 0.68705 0.61117 0.27997
 C810 C 0.70319 0.63137 0.28386
 C811 C 0.74485 0.65058 0.28055
 C812 C 0.69580 0.58908 0.26867
 H813 H 0.75656 0.60643 0.25966
 H814 H 0.72844 0.57081 0.25296
 H815 H 0.66764 0.61296 0.28548
 H816 H 0.69609 0.64826 0.29251
 C817 C 0.22843 0.12932 0.77556
 C818 C 0.21796 0.12527 0.75193
 C819 C 0.20177 0.10511 0.74801
 C820 C 0.25904 0.16747 0.78294
 C821 C 0.20646 0.09298 0.79141
 C822 C 0.22266 0.11314 0.79528
 C823 C 0.24509 0.15008 0.77957
 C824 C 0.19583 0.08873 0.76772
 H825 H 0.22225 0.13772 0.73655
 H826 H 0.19364 0.10253 0.72966
 H827 H 0.20253 0.08053 0.80687
 H828 H 0.23072 0.11607 0.81363
 C829 C 0.22416 0.27162 0.12935
 C830 C 0.24779 0.28217 0.12539
 C831 C 0.25171 0.29835 0.10525
 C832 C 0.21675 0.24104 0.16746
 C833 C 0.20834 0.29350 0.09296
 C834 C 0.20446 0.27731 0.11310
 C835 C 0.22014 0.25498 0.15009
 C836 C 0.23202 0.30421 0.08880
 H837 H 0.26315 0.27794 0.13790
 H838 H 0.27006 0.30654 0.10275
 H839 H 0.19289 0.29736 0.08045
 H840 H 0.18612 0.26918 0.11595
 C841 C 0.72402 0.77279 0.62979
 C842 C 0.74766 0.78331 0.62584
 C843 C 0.75160 0.79952 0.60572
 C844 C 0.71659 0.74211 0.66782
 C845 C 0.70821 0.79476 0.59344
 C846 C 0.70432 0.77855 0.61356
 C847 C 0.71998 0.75610 0.65049
 C848 C 0.73191 0.80544 0.58929
 H849 H 0.76302 0.77904 0.63833
 H850 H 0.76997 0.80768 0.60322
 H851 H 0.69277 0.79867 0.58094
 H852 H 0.68596 0.77045 0.61641
 C853 C 0.77611 0.77276 0.37056
 C854 C 0.79582 0.77853 0.38679
 C855 C 0.79192 0.79475 0.40691
 C856 C 0.78354 0.74206 0.33254
 C857 C 0.74853 0.79948 0.39463
 C858 C 0.75248 0.78327 0.37452
 C859 C 0.78015 0.75606 0.34987
 C860 C 0.76822 0.80542 0.41106
 H861 H 0.81417 0.77043 0.38394
 H862 H 0.80736 0.79867 0.41941
 H863 H 0.73017 0.80764 0.39713
 H864 H 0.73711 0.77898 0.36202
 C865 C 0.27634 0.27194 -0.13010
 C866 C 0.29601 0.27765 -0.11381
 C867 C 0.29208 0.29382 -0.09366
 C868 C 0.28384 0.24134 -0.16820
 C869 C 0.24872 0.29860 -0.10602
 C870 C 0.25270 0.28244 -0.12617
 C871 C 0.28042 0.25529 -0.15084
 C872 C 0.26837 0.30448 -0.08953
 H873 H 0.31437 0.26956 -0.11665
 H874 H 0.30750 0.29770 -0.08111
 H875 H 0.23035 0.30675 -0.10353
 H876 H 0.23736 0.27820 -0.13871
 C877 C 0.72376 0.22762 -0.12993
 C878 C 0.73510 0.23652 -0.10809
 C879 C 0.73913 0.22041 -0.08792
 C880 C 0.71617 0.25813 -0.16807
 C881 C 0.72045 0.18641 -0.11137
 C882 C 0.71645 0.20255 -0.13153
 C883 C 0.71963 0.24422 -0.15069
 C884 C 0.73184 0.19516 -0.08932
 H885 H 0.74076 0.25591 -0.10663
 H886 H 0.74763 0.22779 -0.07109
 H887 H 0.71493 0.16702 -0.11316
 H888 H 0.70772 0.19546 -0.14838
 C889 C 0.22410 0.72811 0.37042
 C890 C 0.21672 0.70307 0.36872
 C891 C 0.22053 0.68686 0.38886
 C892 C 0.21684 0.75874 0.33231
 C893 C 0.23917 0.72074 0.41252
 C894 C 0.23532 0.73691 0.39235
 C895 C 0.22015 0.74477 0.34968
 C896 C 0.23182 0.69552 0.41100
 H897 H 0.20807 0.69604 0.35179
 H898 H 0.21496 0.66749 0.38699
 H899 H 0.24759 0.72806 0.42941
 H900 H 0.24104 0.75629 0.39390
 C901 C 0.27542 0.72803 0.62994
 C902 C 0.29514 0.72231 0.61373
 C903 C 0.29128 0.70610 0.59360
 C904 C 0.28278 0.75871 0.66800
 C905 C 0.24788 0.70129 0.60580
 C906 C 0.25179 0.71749 0.62594
 C907 C 0.27942 0.74472 0.65066
 C908 C 0.26759 0.69540 0.58939
 H909 H 0.31348 0.73043 0.61662
 H910 H 0.30673 0.70221 0.58112
 H911 H 0.22953 0.69311 0.60326
 H912 H 0.23641 0.72174 0.63841
 C913 C 0.77657 0.22763 0.12973
 C914 C 0.79624 0.22199 0.11343
 C915 C 0.79233 0.20584 0.09325
 C916 C 0.78402 0.25819 0.16787
 C917 C 0.74899 0.20093 0.10560
 C918 C 0.75295 0.21706 0.12577
 C919 C 0.78062 0.24425 0.15049
 C920 C 0.76864 0.19512 0.08910
 H921 H 0.81459 0.23012 0.11628
 H922 H 0.80775 0.20201 0.08071
 H923 H 0.73063 0.19273 0.10310
 H924 H 0.73761 0.22126 0.13832
 C925 C 0.47388 0.37939 0.52249
 C926 C 0.49752 0.37541 0.53301
 C927 C 0.50146 0.35528 0.54919
 C928 C 0.46647 0.41746 0.49186
 C929 C 0.45806 0.34302 0.54443
 C930 C 0.45417 0.36315 0.52823
 C931 C 0.46984 0.40011 0.50583
 C932 C 0.48177 0.33885 0.55510
 H933 H 0.51288 0.38791 0.52874
 H934 H 0.51983 0.35277 0.55735
 H935 H 0.44262 0.33051 0.54833
 H936 H 0.43582 0.36602 0.52014
 C937 C -0.02630 0.88023 0.02181
 C938 C -0.00264 0.87627 0.03227
 C939 C 0.00136 0.85613 0.04843
 C940 C -0.03379 0.91831 -0.00881
 C941 C -0.04203 0.84383 0.04374
 C942 C -0.04598 0.86398 0.02757
 C943 C -0.03038 0.90096 0.00515
 C944 C -0.01831 0.83967 0.05436
 H945 H 0.01271 0.88879 0.02799
 H946 H 0.01974 0.85362 0.05655
 H947 H -0.05746 0.83131 0.04766
 H948 H -0.06435 0.86683 0.01951
 C949 C 0.02584 0.62054 0.02182
 C950 C 0.01458 0.64243 0.01296
 C951 C 0.01067 0.66263 0.02908
 C952 C 0.03320 0.58236 -0.00871
 C953 C 0.02933 0.63909 0.06301
 C954 C 0.03320 0.61891 0.04686
 C955 C 0.02984 0.59976 0.00521
 C956 C 0.01801 0.66120 0.05431
 H957 H 0.00887 0.64391 -0.00641
 H958 H 0.00222 0.67949 0.02173
 H959 H 0.03489 0.63729 0.08239
 H960 H 0.04187 0.60203 0.05392
 C961 C 0.52606 0.11996 0.52251
 C962 C 0.53336 0.11827 0.54757
 C963 C 0.52942 0.13840 0.56376
 C964 C 0.53357 0.08187 0.49190
 C965 C 0.51083 0.16201 0.52985
 C966 C 0.51480 0.14186 0.51368
 C967 C 0.53014 0.09923 0.50585
 C968 C 0.51810 0.16051 0.55508
 H969 H 0.54203 0.10137 0.55461
 H970 H 0.53493 0.13655 0.58315
 H971 H 0.50239 0.17888 0.52251
 H972 H 0.50915 0.14338 0.49430
 C973 C -0.02632 0.12047 0.47773
 C974 C -0.03368 0.11883 0.45268
 C975 C -0.02976 0.13898 0.43651
 C976 C -0.03377 0.08234 0.50828
 C977 C -0.01105 0.16252 0.47043
 C978 C -0.01501 0.14235 0.48656
 C979 C -0.03038 0.09972 0.49435
 C980 C -0.01839 0.16107 0.44520
 H981 H -0.04239 0.10194 0.44564
 H982 H -0.03532 0.13715 0.41714
 H983 H -0.00257 0.17938 0.47776
 H984 H -0.00930 0.14385 0.50594
 C985 C 0.47408 0.62081 0.97830
 C986 C 0.49770 0.62486 0.96780
 C987 C 0.50159 0.64504 0.95165
 C988 C 0.46675 0.58263 1.00882
 C989 C 0.45818 0.65719 0.95643
 C990 C 0.45433 0.63701 0.97259
 C991 C 0.47009 0.60004 0.99491
 C992 C 0.48186 0.66144 0.94577
 H993 H 0.51310 0.61239 0.97204
 H994 H 0.51995 0.64761 0.94350
 H995 H 0.44270 0.66966 0.95255
 H996 H 0.43599 0.63408 0.98067
 C997 C 0.52606 0.88033 0.97853
 C998 C 0.51478 0.85842 0.98732
 C999 C 0.51079 0.83829 0.97113
 C1000 C 0.53359 0.91837 1.00921
 C1001 C 0.52940 0.86194 0.93725
 C1002 C 0.53335 0.88205 0.95348
 C1003 C 0.53016 0.90103 0.99522
 C1004 C 0.51806 0.83982 0.94589
 H1005 H 0.50913 0.85687 1.00670
 H1006 H 0.50233 0.82142 0.97843
 H1007 H 0.53491 0.86381 0.91788
 H1008 H 0.54204 0.89895 0.94647
 C1009 C 0.02617 0.38008 0.47756
 C1010 C 0.01481 0.35824 0.48640
 C1011 C 0.01079 0.33806 0.47026
 C1012 C 0.03370 0.41821 0.50813
 C1013 C 0.02954 0.36154 0.43635
 C1014 C 0.03352 0.38169 0.45252
 C1015 C 0.03028 0.40083 0.49419
 C1016 C 0.01812 0.33948 0.44504
 H1017 H 0.00911 0.35677 0.50577
 H1018 H 0.00227 0.32124 0.47760
 H1019 H 0.03510 0.36334 0.41698
 H1020 H 0.04228 0.39855 0.44547
 C1021 C 0.37944 0.52185 0.47428
 C1022 C 0.35752 0.51301 0.48551
 C1023 C 0.33734 0.52916 0.48945
 C1024 C 0.41758 0.49126 0.46688
 C1025 C 0.36095 0.56309 0.47087
 C1026 C 0.38111 0.54691 0.46698
 C1027 C 0.40020 0.50521 0.47025
 C1028 C 0.33882 0.55440 0.48216
 H1029 H 0.35601 0.49362 0.49117
 H1030 H 0.32046 0.52182 0.49787
 H1031 H 0.36279 0.58248 0.46535
 H1032 H 0.39802 0.55397 0.45832
 C1033 C 0.88025 0.02184 -0.02653
 C1034 C 0.87631 0.03234 -0.00290
 C1035 C 0.85614 0.04850 0.00108
 C1036 C 0.91837 -0.00878 -0.03398
 C1037 C 0.84379 0.04372 -0.04225
 C1038 C 0.86396 0.02756 -0.04618
 C1039 C 0.90099 0.00519 -0.03059
 C1040 C 0.83964 0.05438 -0.01856
 H1041 H 0.88885 0.02809 0.01243
 H1042 H 0.85365 0.05664 0.01943
 H1043 H 0.83124 0.04760 -0.05766
 H1044 H 0.86680 0.01947 -0.06453
 C1045 C 0.62055 0.02161 0.02596
 C1046 C 0.61891 0.04666 0.03333
 C1047 C 0.63908 0.06284 0.02942
 C1048 C 0.58240 -0.00899 0.03337
 C1049 C 0.66261 0.02894 0.01071
 C1050 C 0.64243 0.01279 0.01465
 C1051 C 0.59979 0.00497 0.03000
 C1052 C 0.66117 0.05417 0.01805
 H1053 H 0.60203 0.05370 0.04204
 H1054 H 0.63726 0.08222 0.03499
 H1055 H 0.67947 0.02161 0.00222
 H1056 H 0.64392 -0.00659 0.00894
 C1057 C 0.11965 0.52183 0.52586
 C1058 C 0.11799 0.54687 0.53324
 C1059 C 0.13814 0.56307 0.52936
 C1060 C 0.08153 0.49119 0.53326
 C1061 C 0.16172 0.52920 0.51065
 C1062 C 0.14155 0.51303 0.51456
 C1063 C 0.09890 0.50516 0.52988
 C1064 C 0.16025 0.55442 0.51801
 H1065 H 0.10109 0.55389 0.54194
 H1066 H 0.13631 0.58244 0.53494
 H1067 H 0.17859 0.52188 0.50218
 H1068 H 0.14306 0.49365 0.50885
 C1069 C 0.12020 0.47788 -0.02610
 C1070 C 0.14211 0.48670 -0.01482
 C1071 C 0.16229 0.47054 -0.01091
 C1072 C 0.08206 0.50848 -0.03351
 C1073 C 0.13869 0.43664 -0.02959
 C1074 C 0.11853 0.45283 -0.03347
 C1075 C 0.09944 0.49452 -0.03013
 C1076 C 0.16081 0.44532 -0.01825
 H1077 H 0.14362 0.50607 -0.00912
 H1078 H 0.17917 0.47787 -0.00245
 H1079 H 0.13685 0.41726 -0.03515
 H1080 H 0.10162 0.44579 -0.04216
 C1081 C 0.61991 0.97866 0.47415
 C1082 C 0.64180 0.98759 0.48539
 C1083 C 0.66204 0.97152 0.48933
 C1084 C 0.58164 1.00911 0.46674
 C1085 C 0.63854 0.93749 0.47075
 C1086 C 0.61832 0.95359 0.46684
 C1087 C 0.59909 0.99522 0.47011
 C1088 C 0.66064 0.94627 0.48204
 H1089 H 0.64324 1.00699 0.49105
 H1090 H 0.67890 0.97893 0.49775
 H1091 H 0.63677 0.91809 0.46523
 H1092 H 0.60143 0.94648 0.45819
 C1093 C 0.88011 0.97890 0.52604
 C1094 C 0.87604 0.96839 0.50243
 C1095 C 0.85583 0.95227 0.49853
 C1096 C 0.91834 1.00942 0.53338
 C1097 C 0.84367 0.95709 0.54190
 C1098 C 0.86388 0.97322 0.54575
 C1099 C 0.90091 0.99551 0.53002
 C1100 C 0.83940 0.94642 0.51823
 H1101 H 0.88853 0.97261 0.48706
 H1102 H 0.85324 0.94411 0.48019
 H1103 H 0.83118 0.95323 0.55735
 H1104 H 0.86682 0.98132 0.56408
 C1105 C 0.37985 0.47802 0.02598
 C1106 C 0.35793 0.48684 0.01473
 C1107 C 0.33777 0.47067 0.01076
 C1108 C 0.41795 0.50865 0.03348
 C1109 C 0.36140 0.43674 0.02932
 C1110 C 0.38155 0.45295 0.03326
 C1111 C 0.40059 0.49468 0.03006
 C1112 C 0.33927 0.44542 0.01801
 H1113 H 0.35640 0.50624 0.00910
 H1114 H 0.32088 0.47800 0.00232
 H1115 H 0.36326 0.41735 0.03481
 H1116 H 0.39846 0.44591 0.04192
 C1117 C 0.52213 0.47374 0.38003
 C1118 C 0.52783 0.45405 0.36377
 C1119 C 0.54403 0.45794 0.34364
 C1120 C 0.49148 0.46633 0.41810
 C1121 C 0.54887 0.50129 0.35595
 C1122 C 0.53268 0.49735 0.37608
 C1123 C 0.50546 0.46970 0.40074
 C1124 C 0.55474 0.48162 0.33949
 H1125 H 0.51970 0.43572 0.36661
 H1126 H 0.54790 0.44251 0.33112
 H1127 H 0.55706 0.51964 0.35345
 H1128 H 0.52844 0.51270 0.38859
 C1129 C 0.02171 -0.02573 0.87921
 C1130 C 0.03229 -0.00215 0.87517
 C1131 C 0.04852 0.00168 0.85504
 C1132 C -0.00894 -0.03296 0.91731
 C1133 C 0.04364 -0.04173 0.84293
 C1134 C 0.02741 -0.04550 0.86306
 C1135 C 0.00503 -0.02965 0.89994
 C1136 C 0.05439 -0.01808 0.83869
 H1137 H 0.02806 0.01327 0.88760
 H1138 H 0.05673 0.02000 0.85247
 H1139 H 0.04752 -0.05722 0.83050
 H1140 H 0.01926 -0.06382 0.86599
 C1141 C 0.02203 0.02579 0.61990
 C1142 C 0.02785 0.04547 0.63612
 C1143 C 0.04408 0.04155 0.65624
 C1144 C -0.00870 0.03328 0.58189
 C1145 C 0.04872 -0.00183 0.64397
 C1146 C 0.03250 0.00214 0.62386
 C1147 C 0.00532 0.02986 0.59921
 C1148 C 0.05470 0.01783 0.66040
 H1149 H 0.01979 0.06384 0.63327
 H1150 H 0.04803 0.05697 0.66874
 H1151 H 0.05683 -0.02021 0.64648
 H1152 H 0.02817 -0.01321 0.61137
 C1153 C 0.52239 0.52607 0.12056
 C1154 C 0.52809 0.54572 0.13686
 C1155 C 0.54425 0.54180 0.15702
 C1156 C 0.49178 0.53355 0.08245
 C1157 C 0.54907 0.49846 0.14466
 C1158 C 0.53292 0.50244 0.12449
 C1159 C 0.50574 0.53013 0.09982
 C1160 C 0.55494 0.51811 0.16116
 H1161 H 0.51998 0.56407 0.13402
 H1162 H 0.54812 0.55720 0.16957
 H1163 H 0.55724 0.48011 0.14714
 H1164 H 0.52868 0.48711 0.11195
 C1165 C 0.47811 -0.02668 0.12048
 C1166 C 0.47242 -0.04639 0.13670
 C1167 C 0.45625 -0.04254 0.15687
 C1168 C 0.50867 -0.03402 0.08233
 C1169 C 0.45143 0.00084 0.14466
 C1170 C 0.46759 -0.00307 0.12450
 C1171 C 0.49474 -0.03068 0.09973
 C1172 C 0.44556 -0.01886 0.16108
 H1173 H 0.48052 -0.06473 0.13380
 H1174 H 0.45238 -0.05799 0.16935
 H1175 H 0.44326 0.01918 0.14721
 H1176 H 0.47182 0.01230 0.11202
 C1177 C 0.97814 0.47431 0.62002
 C1178 C 0.97240 0.45455 0.63616
 C1179 C 0.95615 0.45835 0.65628
 C1180 C 1.00881 0.46703 0.58194
 C1181 C 0.95136 0.50176 0.64417
 C1182 C 0.96760 0.49791 0.62406
 C1183 C 0.99484 0.47036 0.59930
 C1184 C 0.94545 0.48201 0.66052
 H1185 H 0.98051 0.43622 0.63324
 H1186 H 0.95224 0.44287 0.66871
 H1187 H 0.94318 0.52009 0.64674
 H1188 H 0.97187 0.51331 0.61163
 C1189 C 0.97759 0.52590 0.87947
 C1190 C 0.97185 0.54560 0.86324
 C1191 C 0.95567 0.54169 0.84308
 C1192 C 1.00821 0.53334 0.91758
 C1193 C 0.95093 0.49831 0.85530
 C1194 C 0.96710 0.50227 0.87546
 C1195 C 0.99424 0.52995 0.90021
 C1196 C 0.94503 0.51799 0.83887
 H1197 H 0.97993 0.56395 0.86613
 H1198 H 0.95177 0.55713 0.83058
 H1199 H 0.94279 0.47995 0.85275
 H1200 H 0.97137 0.48691 0.88795
 C1201 C 0.47811 0.02542 0.38002
 C1202 C 0.46757 0.00180 0.37608
 C1203 C 0.45139 -0.00217 0.35593
 C1204 C 0.50875 0.03290 0.41812
 C1205 C 0.45622 0.04117 0.34360
 C1206 C 0.47241 0.04509 0.36375
 C1207 C 0.49478 0.02948 0.40075
 C1208 C 0.44552 0.01748 0.33945
 H1209 H 0.47181 -0.01354 0.38861
 H1210 H 0.44320 -0.02052 0.35344
 H1211 H 0.45235 0.05658 0.33107
 H1212 H 0.48053 0.06343 0.36659
   
