data_POSCAR
  _audit_creation_date              2014-09-24
  _audit_creation_method            'ToBaCCo'
  _symmetry_space_group_name_H-M    'P1'
  _symmetry_Int_Tables_number       1
  _symmetry_cell_setting            triclinic
  loop_
  _symmetry_equiv_pos_as_xyz
 x,y,z
_cell_length_a 45.9473
_cell_length_b 45.9822
_cell_length_c 45.9360
_cell_angle_alpha 89.971200
_cell_angle_beta 89.929900
_cell_angle_gamma 90.002700
loop_
  _atom_site_label
  _atom_site_type_symbol
  _atom_site_fract_x
  _atom_site_fract_y
  _atom_site_fract_z
C1 C 0.16516 0.16546 0.20328
 C2 C 0.19025 0.15317 0.19038
 C3 C 0.20342 0.16535 0.16536
 C4 C 0.19072 0.19053 0.15328
 C5 C 0.16589 0.20326 0.16561
 C6 C 0.15330 0.19067 0.19041
 H7 H 0.20110 0.13548 0.20138
 H8 H 0.19907 0.19972 0.13327
 H9 H 0.13372 0.20044 0.19906
 C10 C -0.16515 0.83425 0.20378
 C11 C -0.15311 0.80905 0.19088
 C12 C -0.16553 0.79643 0.16596
 C13 C -0.19034 0.80912 0.15361
 C14 C -0.20285 0.83409 0.16583
 C15 C -0.19018 0.84648 0.19073
 H16 H -0.13357 0.79932 0.19959
 H17 H -0.19959 0.79987 0.13401
 H18 H -0.20113 0.86475 0.20072
 C19 C -0.16540 0.16511 -0.20323
 C20 C -0.15323 0.19019 -0.19043
 C21 C -0.16555 0.20289 -0.16558
 C22 C -0.19042 0.19037 -0.15308
 C23 C -0.20336 0.16525 -0.16500
 C24 C -0.19044 0.15293 -0.19009
 H25 H -0.13504 0.20115 -0.20061
 H26 H -0.19861 0.19963 -0.13305
 H27 H -0.20002 0.13374 -0.19952
 C28 C 0.16588 0.83532 -0.20286
 C29 C 0.15367 0.81026 -0.19046
 C30 C 0.16605 0.79746 -0.16570
 C31 C 0.19094 0.81006 -0.15325
 C32 C 0.20386 0.83530 -0.16519
 C33 C 0.19077 0.84768 -0.19014
 H34 H 0.13496 0.80019 -0.20065
 H35 H 0.19917 0.80075 -0.13327
 H36 H 0.20027 0.86652 -0.20054
 C37 C 0.16548 1.16482 0.79695
 C38 C 0.15309 1.18977 0.80951
 C39 C 0.16536 1.20252 0.83442
 C40 C 0.19031 1.18994 0.84683
 C41 C 0.20302 1.16499 0.83458
 C42 C 0.19041 1.15257 0.80967
 H43 H 0.13390 1.19938 0.79978
 H44 H 0.20038 1.20013 0.86553
 H45 H 0.19966 1.13293 0.80052
 C46 C 0.83554 0.83498 0.79734
 C47 C 0.84774 0.80990 0.81032
 C48 C 0.83547 0.79691 0.83539
 C49 C 0.81038 0.80981 0.84748
 C50 C 0.79783 0.83471 0.83516
 C51 C 0.81049 0.84711 0.81031
 H52 H 0.86691 0.80036 0.80075
 H53 H 0.80115 0.80155 0.86752
 H54 H 0.79950 0.86533 0.80026
 C55 C 0.16409 0.83508 1.20298
 C56 C 0.18913 0.84741 1.18998
 C57 C 0.20197 0.83502 1.16514
 C58 C 0.18960 0.81001 1.15287
 C59 C 0.16475 0.79727 1.16517
 C60 C 0.15218 0.80988 1.19003
 H61 H 0.19951 0.86621 1.19952
 H62 H 0.19988 0.79993 1.13420
 H63 H 0.13215 0.80061 1.19820
 C64 C 0.83529 1.16506 1.20305
 C65 C 0.84732 1.19023 1.19006
 C66 C 0.83488 1.20281 1.16513
 C67 C 0.81005 1.19010 1.15285
 C68 C 0.79755 1.16515 1.16516
 C69 C 0.81025 1.15281 1.19007
 H70 H 0.86688 1.19998 1.19873
 H71 H 0.80076 1.19933 1.13324
 H72 H 0.79931 1.13456 1.20013
 N73 N 0.53078 1.05153 0.96928
 N74 N 0.55337 1.06900 0.96619
 N75 N 0.46957 1.03136 0.94896
 N76 N 0.44701 1.03455 0.93148
 N77 N 0.46950 1.05148 0.96922
 N78 N 0.44690 1.06890 0.96608
 N79 N 0.53085 1.03141 0.94903
 N80 N 0.55349 1.03464 0.93161
 C81 C 0.56732 1.05824 0.94254
 C82 C 0.43309 1.05813 0.94239
 N83 N 0.46958 0.94851 0.96894
 N84 N 0.44700 0.93108 0.96572
 N85 N 0.53090 0.96881 0.94886
 N86 N 0.55353 0.96571 0.93142
 N87 N 0.53086 0.94856 0.96902
 N88 N 0.55347 0.93114 0.96583
 N89 N 0.46962 0.96876 0.94879
 N90 N 0.44705 0.96565 0.93131
 Mn91 Mn 0.50024 1.00008 0.94854
 C92 C 0.43316 0.94199 0.94209
 C93 C 0.56739 0.94206 0.94222
 N94 N 0.46935 1.05128 1.03188
 N95 N 0.44675 1.06871 1.03507
 N96 N 0.53061 1.03109 1.05210
 N97 N 0.55319 1.03419 1.06955
 N98 N 0.53063 1.05133 1.03194
 N99 N 0.55322 1.06876 1.03513
 N100 N 0.46932 1.03104 1.05203
 N101 N 0.44669 1.03414 1.06949
 Mn102 Mn 0.50007 1.05177 1.00058
 C103 C 0.43283 1.05779 1.05868
 C104 C 0.56708 1.05785 1.05874
 N105 N 0.53072 0.94837 1.03168
 N106 N 0.55332 0.93093 1.03484
 N107 N 0.46938 0.96844 1.05187
 N108 N 0.44673 0.96523 1.06927
 N109 N 0.46944 0.94832 1.03161
 N110 N 0.44684 0.93087 1.03468
 N111 N 0.53066 0.96849 1.05194
 N112 N 0.55320 0.96529 1.06942
 Mn113 Mn 0.50015 0.94807 1.00031
 Mn114 Mn 0.49999 0.99976 1.05235
 Cl115 Cl 0.50011 0.99992 1.00045
 C116 C 0.56712 0.94170 1.05854
 C117 C 0.43289 0.94164 1.05833
 N118 N 0.03167 0.46935 0.05086
 N119 N 0.03486 0.44677 0.06832
 N120 N 0.05182 0.53062 0.03066
 N121 N 0.06924 0.55322 0.03380
 N122 N 0.03162 0.53058 0.05090
 N123 N 0.03477 0.55314 0.06836
 N124 N 0.05187 0.46938 0.03063
 N125 N 0.06936 0.44683 0.03378
 C126 C 0.05852 0.43294 0.05744
 C127 C 0.05839 0.56705 0.05747
 N128 N 0.03159 0.53070 -0.05217
 N129 N 0.03474 0.55329 -0.06963
 N130 N 0.05185 0.46947 -0.03203
 N131 N 0.06930 0.44689 -0.03519
 N132 N 0.03165 0.46947 -0.05221
 N133 N 0.03481 0.44688 -0.06965
 N134 N 0.05180 0.53070 -0.03200
 N135 N 0.06925 0.55328 -0.03519
 Mn136 Mn 0.05221 0.50004 -0.00068
 C137 C 0.05838 0.56716 -0.05882
 C138 C 0.05845 0.43302 -0.05881
 N139 N -0.03102 0.53052 0.05100
 N140 N -0.03421 0.55306 0.06850
 N141 N -0.05117 0.46929 0.03078
 N142 N -0.06860 0.44670 0.03394
 N143 N -0.03097 0.46929 0.05096
 N144 N -0.03410 0.44668 0.06840
 N145 N -0.05123 0.53053 0.03083
 N146 N -0.06872 0.55307 0.03406
 Mn147 Mn 0.00033 0.49993 0.05130
 C148 C -0.05788 0.56691 0.05771
 C149 C -0.05773 0.43281 0.05756
 N150 N -0.03100 0.46940 -0.05212
 N151 N -0.03416 0.44686 -0.06961
 N152 N -0.05125 0.53059 -0.03183
 N153 N -0.06868 0.55319 -0.03488
 N154 N -0.03106 0.53064 -0.05207
 N155 N -0.03420 0.55329 -0.06944
 N156 N -0.05119 0.46936 -0.03188
 N157 N -0.06864 0.44678 -0.03506
 Mn158 Mn 0.00030 0.50006 -0.05251
 Mn159 Mn -0.05158 0.49994 -0.00053
 Cl160 Cl 0.00031 0.49999 -0.00061
 C161 C -0.05779 0.43296 -0.05874
 C162 C -0.05783 0.56714 -0.05850
 N163 N 0.96818 -0.05130 0.53075
 N164 N 0.96502 -0.06869 0.55340
 N165 N 0.94794 -0.03119 0.46945
 N166 N 0.93047 -0.03437 0.44688
 N167 N 0.96811 -0.05141 0.46946
 N168 N 0.96490 -0.06889 0.44691
 N169 N 0.94801 -0.03108 0.53075
 N170 N 0.93058 -0.03417 0.55340
 C171 C 0.94142 -0.05779 0.56731
 C172 C 0.94128 -0.05804 0.43304
 N173 N 0.96829 0.05157 0.46925
 N174 N 0.96516 0.06896 0.44661
 N175 N 0.94812 0.03151 0.53063
 N176 N 0.93070 0.03475 0.55326
 N177 N 0.96837 0.05166 0.53054
 N178 N 0.96527 0.06914 0.55311
 N179 N 0.94805 0.03142 0.46933
 N180 N 0.93061 0.03455 0.44674
 Mn181 Mn 0.94766 0.00016 0.50004
 C182 C 0.94151 0.05813 0.43279
 C183 C 0.94161 0.05837 0.56707
 N184 N 1.03074 -0.05152 0.46930
 N185 N 1.03381 -0.06896 0.44670
 N186 N 1.05108 -0.03126 0.53049
 N187 N 1.06859 -0.03443 0.55302
 N188 N 1.03084 -0.05141 0.53060
 N189 N 1.03403 -0.06883 0.55322
 N190 N 1.05097 -0.03136 0.46920
 N191 N 1.06834 -0.03454 0.44652
 Mn192 Mn 0.99947 -0.05178 0.50003
 C193 C 1.05742 -0.05815 0.43271
 C194 C 1.05773 -0.05802 0.56699
 N195 N 1.03102 0.05154 0.53038
 N196 N 1.03421 0.06896 0.55298
 N197 N 1.05109 0.03124 0.46905
 N198 N 1.06854 0.03438 0.44642
 N199 N 1.03093 0.05147 0.46908
 N200 N 1.03412 0.06891 0.44647
 N201 N 1.05118 0.03132 0.53034
 N202 N 1.06865 0.03444 0.55292
 Mn203 Mn 0.99965 0.05193 0.49981
 Mn204 Mn 1.05145 -0.00002 0.49977
 Cl205 Cl 0.99956 0.00007 0.49991
 C206 C 1.05784 0.05807 0.56681
 C207 C 1.05773 0.05802 0.43256
 C208 C 1.12778 0.12828 0.27956
 C209 C 1.12420 0.15786 0.27370
 C210 C 1.13634 0.17013 0.24863
 C211 C 1.15252 0.15301 0.22874
 C212 C 1.15575 0.12305 0.23511
 C213 C 1.14351 0.11091 0.26021
 C214 C 1.11549 0.11582 0.30556
 C215 C 1.10526 0.10552 0.32744
 C216 C 1.09314 0.09339 0.35367
 C217 C 1.06871 0.10622 0.36660
 C218 C 1.05712 0.09468 0.39228
 C219 C 1.06988 0.07015 0.40535
 C220 C 1.09433 0.05729 0.39216
 C221 C 1.10589 0.06888 0.36648
 H222 H 1.11225 0.17158 0.28871
 H223 H 1.13395 0.19334 0.24582
 H224 H 1.16678 0.10844 0.22032
 H225 H 1.14621 0.08788 0.26442
 H226 H 1.05867 0.12520 0.35687
 H227 H 1.03823 0.10497 0.40192
 H228 H 1.10455 0.03834 0.40171
 H229 H 1.12479 0.05877 0.35665
 C230 C 0.87168 -0.12844 0.28014
 C231 C 0.85582 -0.11117 0.26084
 C232 C 0.84375 -0.12334 0.23572
 C233 C 0.84731 -0.15324 0.22925
 C234 C 0.86359 -0.17027 0.24911
 C235 C 0.87556 -0.15796 0.27421
 C236 C 0.88382 -0.11595 0.30616
 C237 C 0.89395 -0.10563 0.32804
 C238 C 0.90599 -0.09348 0.35426
 C239 C 0.89319 -0.06899 0.36705
 C240 C 0.90469 -0.05738 0.39271
 C241 C 0.92915 -0.07020 0.40588
 C242 C 0.94195 -0.09472 0.39283
 C243 C 0.93041 -0.10629 0.36718
 H244 H 0.85288 -0.08818 0.26512
 H245 H 0.83262 -0.10877 0.22098
 H246 H 0.86622 -0.19345 0.24626
 H247 H 0.88761 -0.17162 0.28918
 H248 H 0.87428 -0.05890 0.35723
 H249 H 0.89444 -0.03844 0.40225
 H250 H 0.96085 -0.10499 0.40246
 H251 H 0.94049 -0.12525 0.35746
 C252 C 0.87170 0.12840 0.72015
 C253 C 0.88910 0.14400 0.73955
 C254 C 0.87698 0.15606 0.76473
 C255 C 0.84701 0.15274 0.77117
 C256 C 0.82984 0.13680 0.75116
 C257 C 0.84210 0.12484 0.72601
 C258 C 0.88414 0.11620 0.69411
 C259 C 0.89439 0.10600 0.67221
 C260 C 0.90645 0.09387 0.64596
 C261 C 0.93095 0.10658 0.63303
 C262 C 0.94246 0.09500 0.60734
 C263 C 0.92955 0.07056 0.59427
 C264 C 0.90502 0.05784 0.60746
 C265 C 0.89354 0.06946 0.63314
 H266 H 0.91215 0.14671 0.73532
 H267 H 0.89160 0.16697 0.77957
 H268 H 0.80659 0.13447 0.75393
 H269 H 0.82834 0.11303 0.71095
 H270 H 0.94111 0.12548 0.64277
 H271 H 0.96141 0.10519 0.59770
 H272 H 0.89468 0.03896 0.59791
 H273 H 0.87458 0.05945 0.64297
 C274 C 1.12835 -0.12763 0.71984
 C275 C 1.15859 -0.13019 0.72239
 C276 C 1.17082 -0.14217 0.74753
 C277 C 1.15293 -0.15175 0.77050
 C278 C 1.12255 -0.14908 0.76773
 C279 C 1.11036 -0.13708 0.74257
 C280 C 1.11583 -0.11546 0.69385
 C281 C 1.10548 -0.10532 0.67198
 C282 C 1.09329 -0.09327 0.64576
 C283 C 1.10611 -0.06888 0.63277
 C284 C 1.09450 -0.05734 0.60712
 C285 C 1.06993 -0.07012 0.59415
 C286 C 1.05710 -0.09454 0.60740
 C287 C 1.06874 -0.10604 0.63306
 H288 H 1.17271 -0.12305 0.70488
 H289 H 1.19425 -0.14434 0.74883
 H290 H 1.10824 -0.15600 0.78517
 H291 H 1.08692 -0.13516 0.74084
 H292 H 1.12511 -0.05882 0.64243
 H293 H 1.10478 -0.03848 0.59743
 H294 H 1.03812 -0.10477 0.59793
 H295 H 1.05865 -0.12492 0.64294
 C296 C 0.27979 1.12796 1.12849
 C297 C 0.27396 1.15752 1.12472
 C298 C 0.24886 1.16984 1.13671
 C299 C 0.22890 1.15281 1.15291
 C300 C 0.23527 1.12287 1.15637
 C301 C 0.26040 1.11067 1.14428
 C302 C 0.30580 1.11545 1.11631
 C303 C 0.32769 1.10515 1.10614
 C304 C 0.35393 1.09304 1.09404
 C305 C 0.36687 1.10592 1.06963
 C306 C 0.39256 1.09441 1.05805
 C307 C 0.40562 1.06988 1.07082
 C308 C 0.39243 1.05699 1.09526
 C309 C 0.36673 1.06854 1.10680
 H310 H 0.28899 1.17118 1.11273
 H311 H 0.24604 1.19305 1.13415
 H312 H 0.22044 1.10832 1.16744
 H313 H 0.26460 1.08766 1.14713
 H314 H 0.35714 1.12489 1.05958
 H315 H 0.40220 1.10473 1.03917
 H316 H 0.40198 1.03804 1.10549
 H317 H 0.35690 1.05840 1.12571
 C318 C 0.28016 0.87225 0.87209
 C319 C 0.26094 0.88969 0.85631
 C320 C 0.23582 0.87766 0.84410
 C321 C 0.22928 0.84774 0.84743
 C322 C 0.24906 0.83056 0.86364
 C323 C 0.27415 0.84271 0.87575
 C324 C 0.30619 0.88459 0.88436
 C325 C 0.32808 0.89480 0.89457
 C326 C 0.35432 0.90684 0.90668
 C327 C 0.36719 0.93133 0.89394
 C328 C 0.39287 0.94284 0.90550
 C329 C 0.40598 0.92992 0.92994
 C330 C 0.39285 0.90540 0.94268
 C331 C 0.36717 0.89393 0.93109
 H332 H 0.26527 0.91269 0.85355
 H333 H 0.22115 0.89235 0.83306
 H334 H 0.24613 0.80736 0.86609
 H335 H 0.28906 0.82894 0.88773
 H336 H 0.35742 0.94150 0.87505
 H337 H 0.40246 0.96179 0.89529
 H338 H 0.40243 0.89506 0.96156
 H339 H 0.35738 0.87496 0.94112
 C340 C 0.71991 0.87147 1.12854
 C341 C 0.72263 0.84125 1.13093
 C342 C 0.74776 0.82909 1.14300
 C343 C 0.77052 0.84702 1.15285
 C344 C 0.76759 0.87739 1.15032
 C345 C 0.74244 0.88951 1.13823
 C346 C 0.69393 0.88392 1.11628
 C347 C 0.67207 0.89421 1.10606
 C348 C 0.64588 0.90633 1.09395
 C349 C 0.63307 0.89356 1.06945
 C350 C 0.60742 0.90510 1.05786
 C351 C 0.59428 0.92957 1.07069
 C352 C 0.60735 0.94235 1.09521
 C353 C 0.63300 0.93077 1.10676
 H354 H 0.70528 0.82710 1.12359
 H355 H 0.74920 0.80567 1.14501
 H356 H 0.78487 0.89173 1.15740
 H357 H 0.74057 0.91293 1.13643
 H358 H 0.64286 0.87464 1.05936
 H359 H 0.59787 0.89487 1.03892
 H360 H 0.59774 0.96125 1.10548
 H361 H 0.64274 0.94082 1.12572
 C362 C 0.72049 1.12835 0.87286
 C363 C 0.73989 1.11079 0.85742
 C364 C 0.76499 1.12278 0.84506
 C365 C 0.77131 1.15280 0.84787
 C366 C 0.75139 1.17010 0.86381
 C367 C 0.72631 1.15798 0.87608
 C368 C 0.69444 1.11604 0.88519
 C369 C 0.67253 1.10580 0.89539
 C370 C 0.64627 1.09367 0.90742
 C371 C 0.63347 1.06924 0.89455
 C372 C 0.60776 1.05764 0.90601
 C373 C 0.59454 1.07040 0.93049
 C374 C 0.60760 1.09486 0.94337
 C375 C 0.63331 1.10643 0.93188
 H376 H 0.73571 1.08773 0.85503
 H377 H 0.77982 1.10800 0.83434
 H378 H 0.75421 1.19335 0.86590
 H379 H 0.71127 1.17184 0.88782
 H380 H 0.64332 1.05919 0.87562
 H381 H 0.59822 1.03874 0.89569
 H382 H 0.59793 1.10508 0.96229
 H383 H 0.64304 1.12534 0.94201
 C384 C 0.12870 0.28023 0.12763
 C385 C 0.11061 0.25752 0.13682
 C386 C 0.12265 0.23243 0.14911
 C387 C 0.15298 0.22976 0.15236
 C388 C 0.17098 0.25268 0.14295
 C389 C 0.15889 0.27775 0.13069
 C390 C 0.11631 0.30618 0.11525
 C391 C 0.10605 0.32802 0.10497
 C392 C 0.09392 0.35420 0.09283
 C393 C 0.06940 0.36700 0.10562
 C394 C 0.05782 0.39264 0.09406
 C395 C 0.07067 0.40578 0.06957
 C396 C 0.09521 0.39271 0.05677
 C397 C 0.10676 0.36707 0.06837
 H398 H 0.08721 0.25919 0.13449
 H399 H 0.10827 0.21499 0.15578
 H400 H 0.19437 0.25138 0.14547
 H401 H 0.17309 0.29524 0.12372
 H402 H 0.05929 0.35721 0.12455
 H403 H 0.03886 0.40218 0.10432
 H404 H 0.10550 0.40232 0.03785
 H405 H 0.12575 0.35734 0.05830
 C406 C -0.12804 0.28021 -0.12864
 C407 C -0.11002 0.25766 -0.13833
 C408 C -0.12217 0.23249 -0.15032
 C409 C -0.15256 0.22956 -0.15275
 C410 C -0.17049 0.25236 -0.14291
 C411 C -0.15828 0.27750 -0.13095
 C412 C -0.11556 0.30619 -0.11644
 C413 C -0.10526 0.32804 -0.10626
 C414 C -0.09314 0.35424 -0.09415
 C415 C -0.06866 0.36709 -0.10696
 C416 C -0.05708 0.39273 -0.09541
 C417 C -0.06992 0.40581 -0.07089
 C418 C -0.09443 0.39270 -0.05808
 C419 C -0.10597 0.36707 -0.06967
 H420 H -0.08657 0.25951 -0.13659
 H421 H -0.10784 0.21518 -0.15739
 H422 H -0.19393 0.25090 -0.14484
 H423 H -0.17243 0.29486 -0.12360
 H424 H -0.05855 0.35734 -0.12591
 H425 H -0.03814 0.40231 -0.10568
 H426 H -0.10472 0.40226 -0.03914
 H427 H -0.12493 0.35730 -0.05958
 C428 C 0.12855 0.72009 -0.12872
 C429 C 0.15879 0.72287 -0.13098
 C430 C 0.17099 0.74803 -0.14296
 C431 C 0.15306 0.77079 -0.15285
 C432 C 0.12266 0.76779 -0.15046
 C433 C 0.11051 0.74260 -0.13846
 C434 C 0.11608 0.69409 -0.11650
 C435 C 0.10579 0.67221 -0.10631
 C436 C 0.09368 0.64599 -0.09421
 C437 C 0.10654 0.63310 -0.06979
 C438 C 0.09501 0.60743 -0.05820
 C439 C 0.07049 0.59435 -0.07096
 C440 C 0.05763 0.60750 -0.09541
 C441 C 0.06919 0.63317 -0.10696
 H442 H 0.17295 0.70554 -0.12359
 H443 H 0.19444 0.74953 -0.14485
 H444 H 0.10831 0.78506 -0.15757
 H445 H 0.08707 0.74070 -0.13675
 H446 H 0.12550 0.64284 -0.05974
 H447 H 0.10531 0.59782 -0.03931
 H448 H 0.03868 0.59793 -0.10563
 H449 H 0.05907 0.64297 -0.12586
 C450 C -0.12818 0.71945 0.12816
 C451 C -0.15840 0.72199 0.13103
 C452 C -0.17054 0.74705 0.14325
 C453 C -0.15258 0.76991 0.15280
 C454 C -0.12222 0.76718 0.14975
 C455 C -0.11012 0.74210 0.13750
 C456 C -0.11575 0.69352 0.11577
 C457 C -0.10546 0.67170 0.10548
 C458 C -0.09332 0.64555 0.09329
 C459 C -0.10615 0.63272 0.06884
 C460 C -0.09458 0.60711 0.05719
 C461 C -0.07004 0.59403 0.06991
 C462 C -0.05719 0.60712 0.09439
 C463 C -0.06879 0.63273 0.10600
 H464 H -0.17257 0.70455 0.12395
 H465 H -0.19395 0.74838 0.14562
 H466 H -0.10786 0.78458 0.15652
 H467 H -0.08671 0.74038 0.13530
 H468 H -0.12514 0.64246 0.05883
 H469 H -0.10487 0.59754 0.03828
 H470 H -0.03823 0.59756 0.10458
 H471 H -0.05869 0.64249 0.12493
 C472 C 1.12809 0.12738 0.71984
 C473 C 1.11003 0.13715 0.74235
 C474 C 1.12215 0.14924 0.76749
 C475 C 1.15253 0.15170 0.77042
 C476 C 1.17050 0.14172 0.74770
 C477 C 1.15833 0.12965 0.72258
 C478 C 1.11564 0.11521 0.69383
 C479 C 1.10534 0.10510 0.67194
 C480 C 1.09321 0.09311 0.64570
 C481 C 1.06876 0.10598 0.63291
 C482 C 1.05718 0.09455 0.60721
 C483 C 1.06998 0.07011 0.59401
 C484 C 1.09446 0.05723 0.60706
 C485 C 1.10600 0.06870 0.63276
 H486 H 1.08659 0.13543 0.74047
 H487 H 1.10778 0.15639 0.78475
 H488 H 1.19394 0.14366 0.74915
 H489 H 1.17251 0.12224 0.70524
 H490 H 1.05869 0.12489 0.64275
 H491 H 1.03827 0.10486 0.59767
 H492 H 1.10471 0.03834 0.59741
 H493 H 1.12494 0.05857 0.64248
 C494 C 0.87197 -0.12773 0.72067
 C495 C 0.85648 -0.11039 0.74024
 C496 C 0.84452 -0.12257 0.76545
 C497 C 0.84783 -0.15254 0.77173
 C498 C 0.86367 -0.16965 0.75156
 C499 C 0.87554 -0.15733 0.72639
 C500 C 0.88406 -0.11524 0.69460
 C501 C 0.89416 -0.10496 0.67266
 C502 C 0.90620 -0.09290 0.64637
 C503 C 0.89340 -0.06845 0.63351
 C504 C 0.90489 -0.05695 0.60776
 C505 C 0.92932 -0.06983 0.59457
 C506 C 0.94213 -0.09431 0.60769
 C507 C 0.93061 -0.10577 0.63344
 H508 H 0.85378 -0.08734 0.73612
 H509 H 0.83368 -0.10800 0.78041
 H510 H 0.86599 -0.19289 0.75422
 H511 H 0.88726 -0.17104 0.71119
 H512 H 0.87451 -0.05832 0.64335
 H513 H 0.89464 -0.03803 0.59817
 H514 H 0.96101 -0.10462 0.59805
 H515 H 0.94068 -0.12470 0.64321
 C516 C 1.12666 -0.12799 0.27929
 C517 C 1.12295 -0.15751 0.27326
 C518 C 1.13508 -0.16965 0.24814
 C519 C 1.15138 -0.15248 0.22838
 C520 C 1.15473 -0.12257 0.23493
 C521 C 1.14250 -0.11056 0.26007
 C522 C 1.11445 -0.11567 0.30537
 C523 C 1.10432 -0.10546 0.32732
 C524 C 1.09235 -0.09339 0.35363
 C525 C 1.06795 -0.10621 0.36664
 C526 C 1.05651 -0.09471 0.39239
 C527 C 1.06941 -0.07026 0.40544
 C528 C 1.09383 -0.05743 0.39218
 C529 C 1.10523 -0.06896 0.36642
 H530 H 1.11092 -0.17128 0.28817
 H531 H 1.13260 -0.19285 0.24518
 H532 H 1.16583 -0.10789 0.22027
 H533 H 1.14530 -0.08757 0.26443
 H534 H 1.05781 -0.12513 0.35691
 H535 H 1.03764 -0.10498 0.40210
 H536 H 1.10415 -0.03853 0.40171
 H537 H 1.12412 -0.05887 0.35652
 C538 C 0.87215 0.12798 0.27952
 C539 C 0.87600 0.15749 0.27349
 C540 C 0.86403 0.16972 0.24836
 C541 C 0.84776 0.15263 0.22856
 C542 C 0.84423 0.12273 0.23512
 C543 C 0.85630 0.11064 0.26028
 C544 C 0.88427 0.11558 0.30558
 C545 C 0.89438 0.10533 0.32751
 C546 C 0.90638 0.09328 0.35380
 C547 C 0.93083 0.10609 0.36665
 C548 C 0.94232 0.09462 0.39238
 C549 C 0.92944 0.07019 0.40555
 C550 C 0.90496 0.05737 0.39244
 C551 C 0.89351 0.06888 0.36671
 H552 H 0.88803 0.17119 0.28842
 H553 H 0.86663 0.19290 0.24543
 H554 H 0.83311 0.10813 0.22042
 H555 H 0.85339 0.08766 0.26463
 H556 H 0.94096 0.12498 0.35683
 H557 H 0.96123 0.10488 0.40196
 H558 H 0.89465 0.03850 0.40208
 H559 H 0.87458 0.05880 0.35694
 C560 C 0.12816 0.27993 -0.12855
 C561 C 0.13789 0.25751 -0.11038
 C562 C 0.14995 0.23231 -0.12239
 C563 C 0.15242 0.22920 -0.15277
 C564 C 0.14254 0.25186 -0.17084
 C565 C 0.13050 0.27704 -0.15878
 C566 C 0.11594 0.30597 -0.11621
 C567 C 0.10576 0.32788 -0.10601
 C568 C 0.09370 0.35413 -0.09398
 C569 C 0.10649 0.36699 -0.06953
 C570 C 0.09499 0.39269 -0.05802
 C571 C 0.07055 0.40582 -0.07089
 C572 C 0.05775 0.39271 -0.09537
 C573 C 0.06929 0.36701 -0.10685
 H574 H 0.13613 0.25951 -0.08695
 H575 H 0.15706 0.21510 -0.10795
 H576 H 0.14452 0.25030 -0.19428
 H577 H 0.12313 0.29431 -0.17304
 H578 H 0.12539 0.35720 -0.05940
 H579 H 0.10524 0.40228 -0.03911
 H580 H 0.03887 0.40231 -0.10568
 H581 H 0.05922 0.35723 -0.12578
 C582 C -0.12782 0.27985 0.12737
 C583 C -0.10975 0.25717 0.13664
 C584 C -0.12184 0.23205 0.14884
 C585 C -0.15219 0.22931 0.15192
 C586 C -0.17016 0.25220 0.14242
 C587 C -0.15803 0.27729 0.13025
 C588 C -0.11539 0.30584 0.11510
 C589 C -0.10512 0.32771 0.10490
 C590 C -0.09301 0.35393 0.09282
 C591 C -0.06853 0.36675 0.10561
 C592 C -0.05697 0.39243 0.09410
 C593 C -0.06983 0.40561 0.06966
 C594 C -0.09433 0.39253 0.05687
 C595 C -0.10585 0.36685 0.06841
 H596 H -0.08634 0.25890 0.13444
 H597 H -0.10747 0.21464 0.15558
 H598 H -0.19357 0.25085 0.14482
 H599 H -0.17221 0.29476 0.12321
 H600 H -0.05842 0.35692 0.12450
 H601 H -0.03804 0.40199 0.10434
 H602 H -0.10463 0.40216 0.03799
 H603 H -0.12481 0.35711 0.05835
 C604 C -0.12760 0.72059 -0.12736
 C605 C -0.15723 0.72643 -0.12398
 C606 C -0.16936 0.75156 -0.13603
 C607 C -0.15206 0.77152 -0.15193
 C608 C -0.12204 0.76520 -0.15491
 C609 C -0.11004 0.74004 -0.14275
 C610 C -0.11529 0.69449 -0.11524
 C611 C -0.10508 0.67253 -0.10519
 C612 C -0.09302 0.64621 -0.09330
 C613 C -0.10586 0.63321 -0.06890
 C614 C -0.09438 0.60745 -0.05752
 C615 C -0.06991 0.59439 -0.07046
 C616 C -0.05706 0.60765 -0.09489
 C617 C -0.06858 0.63341 -0.10623
 H618 H -0.17110 0.71135 -0.11227
 H619 H -0.19262 0.75440 -0.13383
 H620 H -0.10725 0.78006 -0.16559
 H621 H -0.08697 0.73585 -0.14526
 H622 H -0.12478 0.64294 -0.05872
 H623 H -0.10467 0.59775 -0.03864
 H624 H -0.03816 0.59811 -0.10524
 H625 H -0.05848 0.64330 -0.12512
 C626 C 0.12792 0.71996 0.12762
 C627 C 0.13776 0.74245 0.10958
 C628 C 0.14972 0.76763 0.12175
 C629 C 0.15195 0.77061 0.15216
 C630 C 0.14196 0.74787 0.17008
 C631 C 0.13004 0.72273 0.15787
 C632 C 0.11577 0.69397 0.11513
 C633 C 0.10563 0.67209 0.10484
 C634 C 0.09359 0.64587 0.09274
 C635 C 0.10640 0.63308 0.06823
 C636 C 0.09491 0.60741 0.05668
 C637 C 0.07047 0.59423 0.06957
 C638 C 0.05765 0.60728 0.09411
 C639 C 0.06918 0.63295 0.10562
 H640 H 0.13617 0.74055 0.08613
 H641 H 0.15690 0.78490 0.10741
 H642 H 0.14374 0.74937 0.19354
 H643 H 0.12257 0.70540 0.17202
 H644 H 0.12530 0.64291 0.05809
 H645 H 0.10517 0.59787 0.03772
 H646 H 0.03877 0.59764 0.10443
 H647 H 0.05910 0.64268 0.12460
 C648 C 0.28025 1.12792 0.87215
 C649 C 0.27745 1.12995 0.84189
 C650 C 0.25233 1.14195 0.82967
 C651 C 0.22964 1.15210 0.84759
 C652 C 0.23265 1.14994 0.87800
 C653 C 0.25780 1.13791 0.89018
 C654 C 0.30622 1.11571 0.88465
 C655 C 0.32808 1.10553 0.89496
 C656 C 0.35429 1.09344 0.90707
 C657 C 0.36722 1.06908 0.89418
 C658 C 0.39289 1.05752 0.90571
 C659 C 0.40591 1.07025 0.93027
 C660 C 0.39272 1.09464 0.94318
 C661 C 0.36705 1.10617 0.93161
 H662 H 0.29474 1.12237 0.82775
 H663 H 0.25083 1.14367 0.80621
 H664 H 0.21542 1.15724 0.89234
 H665 H 0.25972 1.13639 0.91364
 H666 H 0.35752 1.05906 0.87518
 H667 H 0.40254 1.03867 0.89538
 H668 H 0.40224 1.10484 0.96216
 H669 H 0.35721 1.12503 0.94176
 C670 C 0.27955 0.87195 1.12798
 C671 C 0.27681 0.86931 1.15820
 C672 C 0.25158 0.85736 1.17031
 C673 C 0.22872 0.84789 1.15230
 C674 C 0.23168 0.85062 1.12193
 C675 C 0.25694 0.86260 1.10987
 C676 C 0.30563 0.88412 1.11559
 C677 C 0.32757 0.89427 1.10538
 C678 C 0.35387 0.90633 1.09337
 C679 C 0.36674 0.93069 1.10631
 C680 C 0.39247 0.94224 1.09487
 C681 C 0.40564 0.92951 1.07035
 C682 C 0.39252 0.90512 1.05741
 C683 C 0.36678 0.89360 1.06888
 H684 H 0.29424 0.87638 1.17241
 H685 H 0.25013 0.85513 1.19374
 H686 H 0.21433 0.84378 1.10755
 H687 H 0.25882 0.86458 1.08644
 H688 H 0.35692 0.94071 1.12527
 H689 H 0.40207 0.96109 1.10524
 H690 H 0.40215 0.89492 1.03846
 H691 H 0.35699 0.87475 1.05869
 C692 C 0.72018 1.12777 1.12823
 C693 C 0.72293 1.15799 1.13053
 C694 C 0.74810 1.17016 1.14246
 C695 C 0.77089 1.15222 1.15228
 C696 C 0.76793 1.12186 1.14984
 C697 C 0.74273 1.10974 1.13788
 C698 C 0.69415 1.11532 1.11611
 C699 C 0.67224 1.10506 1.10599
 C700 C 0.64598 1.09300 1.09396
 C701 C 0.63308 1.10589 1.06957
 C702 C 0.60738 1.09442 1.05805
 C703 C 0.59428 1.06991 1.07085
 C704 C 0.60744 1.05701 1.09527
 C705 C 0.63314 1.06852 1.10675
 H706 H 0.70556 1.17214 1.12321
 H707 H 0.74957 1.19358 1.14441
 H708 H 0.78523 1.10752 1.15690
 H709 H 0.74084 1.08631 1.13614
 H710 H 0.64285 1.12485 1.05950
 H711 H 0.59777 1.10475 1.03918
 H712 H 0.59786 1.03807 1.10551
 H713 H 0.64296 1.05837 1.12564
 C714 C 0.72049 0.87208 0.87239
 C715 C 0.72320 0.84187 0.86997
 C716 C 0.74836 0.82971 0.85793
 C717 C 0.77118 0.84765 0.84814
 C718 C 0.76826 0.87800 0.85071
 C719 C 0.74307 0.89012 0.86277
 C720 C 0.69447 0.88452 0.88461
 C721 C 0.67257 0.89478 0.89479
 C722 C 0.64632 0.90686 0.90689
 C723 C 0.63338 0.89396 0.93128
 C724 C 0.60768 0.90546 0.94285
 C725 C 0.59461 0.92999 0.93009
 C726 C 0.60782 0.94290 0.90567
 C727 C 0.63352 0.93137 0.89414
 H728 H 0.70580 0.82771 0.87726
 H729 H 0.74980 0.80629 0.85590
 H730 H 0.78559 0.89235 0.84367
 H731 H 0.74122 0.91354 0.86460
 H732 H 0.64311 0.87499 0.94132
 H733 H 0.59802 0.89512 0.96172
 H734 H 0.59827 0.96186 0.89545
 H735 H 0.64337 0.94153 0.87525
   
