data_POSCAR
  _audit_creation_date              2014-09-24
  _audit_creation_method            'ToBaCCo'
  _symmetry_space_group_name_H-M    'P1'
  _symmetry_Int_Tables_number       1
  _symmetry_cell_setting            triclinic
  loop_
  _symmetry_equiv_pos_as_xyz
 x,y,z
_cell_length_a 31.5729
_cell_length_b 32.6453
_cell_length_c 34.2683
_cell_angle_alpha 88.420400
_cell_angle_beta 89.686600
_cell_angle_gamma 89.147800
loop_
  _atom_site_label
  _atom_site_type_symbol
  _atom_site_fract_x
  _atom_site_fract_y
  _atom_site_fract_z
N1 N 0.30858 0.22864 0.19878
 N2 N 0.28824 0.26013 0.18246
 C3 C 0.30749 0.27074 0.14856
 C4 C 0.34145 0.24453 0.14370
 C5 C 0.34165 0.21811 0.17588
 H6 H 0.29803 0.29588 0.12920
 H7 H 0.36417 0.19359 0.18229
 Cu8 Cu 0.23950 0.28519 0.20778
 Cu9 Cu 0.29046 0.20398 0.24854
 Cu10 Cu 0.20278 0.24816 0.29364
 N11 N 0.19081 0.31004 0.23333
 N12 N 0.17652 0.29546 0.26703
 C13 C 0.14339 0.31868 0.27868
 C14 C 0.13700 0.34919 0.25073
 C15 C 0.16737 0.34315 0.22233
 H16 H 0.12585 0.31415 0.30561
 H17 H 0.17227 0.36172 0.19613
 N18 N 0.23370 0.20015 0.31594
 N19 N 0.26718 0.18343 0.29889
 C20 C 0.28036 0.15061 0.32055
 C21 C 0.25391 0.14689 0.35242
 C22 C 0.22461 0.17844 0.34889
 H23 H 0.30639 0.13029 0.31324
 H24 H 0.19821 0.18441 0.36826
 H25 H 0.22722 0.22116 0.24440
 H26 H 0.26261 0.25617 0.27065
 N27 N 0.67143 -0.22118 0.20892
 N28 N 0.68191 -0.25775 0.19637
 C29 C 0.66572 -0.26244 0.16052
 C30 C 0.64361 -0.22710 0.15063
 C31 C 0.64803 -0.20125 0.18144
 H32 H 0.67302 -0.28775 0.14177
 H33 H 0.63818 -0.16942 0.18240
 Cu34 Cu 0.72359 -0.29155 0.22360
 Cu35 Cu 0.69413 -0.20006 0.25734
 Cu36 Cu 0.77230 -0.25953 0.30322
 N37 N 0.77787 -0.31467 0.23940
 N38 N 0.79759 -0.30136 0.27019
 C39 C 0.83736 -0.31689 0.27070
 C40 C 0.84232 -0.34128 0.23866
 C41 C 0.80432 -0.33896 0.21915
 H42 H 0.86193 -0.30760 0.29034
 H43 H 0.79804 -0.34991 0.19026
 N44 N 0.75050 -0.20764 0.32432
 N45 N 0.72099 -0.18467 0.30680
 C46 C 0.71355 -0.15107 0.32804
 C47 C 0.73989 -0.15339 0.36007
 C48 C 0.76279 -0.18935 0.35706
 H49 H 0.69082 -0.12695 0.32089
 H50 H 0.78657 -0.20124 0.37712
 H51 H 0.75133 -0.23126 0.25335
 H52 H 0.70943 -0.25522 0.28442
 N53 N 0.69129 0.21844 0.79408
 N54 N 0.71118 0.24467 0.81604
 C55 C 0.68816 0.25087 0.84869
 C56 C 0.65218 0.22751 0.84673
 C57 C 0.65486 0.20744 0.81198
 H58 H 0.69664 0.27110 0.87176
 H59 H 0.63221 0.18620 0.80089
 Cu60 Cu 0.76467 0.27123 0.79999
 Cu61 Cu 0.71520 0.19929 0.74433
 Cu62 Cu 0.80377 0.24433 0.71237
 N63 N 0.80844 0.30288 0.77296
 N64 N 0.82332 0.29301 0.73844
 C65 C 0.84956 0.32266 0.72530
 C66 C 0.85190 0.35176 0.75369
 C67 C 0.82502 0.33880 0.78321
 H68 H 0.86339 0.32429 0.69635
 H69 H 0.81552 0.35574 0.80858
 N70 N 0.77462 0.20461 0.68079
 N71 N 0.73950 0.18730 0.69339
 C72 C 0.72697 0.15979 0.66738
 C73 C 0.75576 0.16029 0.63689
 C74 C 0.78559 0.18892 0.64606
 H75 H 0.69987 0.14012 0.67092
 H76 H 0.81363 0.19681 0.62939
 H77 H 0.76948 0.21635 0.77194
 H78 H 0.73846 0.25848 0.74731
 N79 N 0.32478 -0.24057 0.79502
 N80 N 0.30425 -0.26749 0.81696
 C81 C 0.32719 -0.27663 0.84923
 C82 C 0.36388 -0.25412 0.84668
 C83 C 0.36158 -0.23170 0.81221
 H84 H 0.31819 -0.29818 0.87222
 H85 H 0.38476 -0.21052 0.80055
 Cu86 Cu 0.25075 -0.28933 0.79976
 Cu87 Cu 0.30291 -0.21924 0.74549
 Cu88 Cu 0.20017 -0.24528 0.72312
 N89 N 0.20601 -0.31744 0.77286
 N90 N 0.18622 -0.30029 0.74272
 C91 C 0.15959 -0.32758 0.72772
 C92 C 0.16273 -0.36321 0.75018
 C93 C 0.19279 -0.35625 0.77811
 H94 H 0.14181 -0.32274 0.70105
 H95 H 0.20622 -0.37842 0.79877
 N96 N 0.22995 -0.19991 0.69623
 N97 N 0.26941 -0.19054 0.70457
 C98 C 0.28128 -0.15832 0.68196
 C99 C 0.24786 -0.14740 0.65818
 C100 C 0.21564 -0.17416 0.66760
 H101 H 0.31177 -0.14373 0.68292
 H102 H 0.18440 -0.17482 0.65486
 H103 H 0.24200 -0.22310 0.76529
 H104 H 0.25991 -0.26474 0.73248
 N105 N 0.68152 -0.24077 0.77826
 N106 N 0.69639 -0.27515 0.79425
 C107 C 0.67515 -0.28332 0.82772
 C108 C 0.64545 -0.25233 0.83227
 C109 C 0.64998 -0.22598 0.80062
 H110 H 0.68077 -0.30962 0.84699
 H111 H 0.63192 -0.19817 0.79446
 Cu112 Cu 0.74217 -0.30549 0.76971
 Cu113 Cu 0.70408 -0.21748 0.72980
 Cu114 Cu 0.78412 -0.27276 0.68442
 N115 N 0.79698 -0.32553 0.75183
 N116 N 0.81303 -0.31308 0.71809
 C117 C 0.85219 -0.32932 0.71397
 C118 C 0.86059 -0.35325 0.74679
 C119 C 0.82552 -0.34985 0.77065
 H120 H 0.87392 -0.32169 0.69043
 H121 H 0.82211 -0.36170 0.80028
 N122 N 0.76052 -0.22095 0.66258
 N123 N 0.73081 -0.19936 0.68042
 C124 C 0.72258 -0.16486 0.65922
 C125 C 0.74856 -0.16506 0.62681
 C126 C 0.77219 -0.20076 0.62950
 H127 H 0.69955 -0.14146 0.66665
 H128 H 0.79624 -0.21102 0.60927
 H129 H 0.72236 -0.27192 0.70705
 H130 H 0.76396 -0.24432 0.73385
 N131 N 0.32743 0.21691 0.80032
 N132 N 0.30579 0.24102 0.82357
 C133 C 0.33017 0.24995 0.85430
 C134 C 0.36895 0.23048 0.84940
 C135 C 0.36635 0.20984 0.81512
 H136 H 0.32018 0.26817 0.87867
 H137 H 0.39020 0.18978 0.80286
 Cu138 Cu 0.24722 0.25698 0.81238
 Cu139 Cu 0.30222 0.19288 0.75496
 Cu140 Cu 0.20207 0.22721 0.72877
 N141 N 0.19417 0.28112 0.79313
 N142 N 0.17659 0.26922 0.76068
 C143 C 0.14237 0.29304 0.75266
 C144 C 0.13850 0.32114 0.78181
 C145 C 0.17176 0.31311 0.80690
 H146 H 0.12367 0.29191 0.72638
 H147 H 0.18060 0.33088 0.83168
 N148 N 0.23319 0.18488 0.70020
 N149 N 0.27159 0.17190 0.71014
 C150 C 0.28408 0.14217 0.68596
 C151 C 0.25207 0.13672 0.65975
 C152 C 0.22016 0.16397 0.66923
 H153 H 0.31372 0.12524 0.68771
 H154 H 0.18965 0.16758 0.65527
 H155 H 0.26266 0.24314 0.74449
 H156 H 0.23909 0.19795 0.77111
 N157 N 0.33527 -0.21119 0.20989
 N158 N 0.32206 -0.24586 0.19578
 C159 C 0.34450 -0.25450 0.16350
 C160 C 0.37294 -0.22335 0.15729
 C161 C 0.36660 -0.19635 0.18694
 H162 H 0.34065 -0.28142 0.14624
 H163 H 0.38376 -0.16851 0.19162
 Cu164 Cu 0.27756 -0.27797 0.22059
 Cu165 Cu 0.31034 -0.18955 0.25712
 Cu166 Cu 0.22618 -0.23440 0.29919
 N167 N 0.22467 -0.29945 0.24317
 N168 N 0.20504 -0.28258 0.27301
 C169 C 0.16873 -0.30247 0.28035
 C170 C 0.16565 -0.33292 0.25380
 C171 C 0.20123 -0.33050 0.23043
 H172 H 0.14562 -0.29463 0.30241
 H173 H 0.20870 -0.34885 0.20544
 N174 N 0.25249 -0.18694 0.32103
 N175 N 0.28576 -0.16918 0.30504
 C176 C 0.29573 -0.13626 0.32586
 C177 C 0.26708 -0.13384 0.35613
 C178 C 0.24004 -0.16616 0.35249
 H179 H 0.32092 -0.11513 0.31897
 H180 H 0.21292 -0.17339 0.37069
 H181 H 0.28210 -0.25610 0.27696
 H182 H 0.24722 -0.22698 0.24164
 N183 N 0.70412 0.24119 0.20141
 N184 N 0.72117 0.27429 0.18555
 C185 C 0.70449 0.28144 0.14986
 C186 C 0.67568 0.25127 0.14334
 C187 C 0.67582 0.22616 0.17643
 H188 H 0.71129 0.30747 0.13079
 H189 H 0.65592 0.20003 0.18242
 Cu190 Cu 0.76106 0.30673 0.21404
 Cu191 Cu 0.71847 0.22133 0.25397
 Cu192 Cu 0.78884 0.27938 0.30571
 N193 N 0.79941 0.33953 0.24392
 N194 N 0.81007 0.32868 0.27986
 C195 C 0.83909 0.35477 0.29285
 C196 C 0.84657 0.38335 0.26353
 C197 C 0.82123 0.37306 0.23276
 H198 H 0.85521 0.35185 0.32057
 H199 H 0.82064 0.38739 0.20394
 N200 N 0.76404 0.22859 0.32703
 N201 N 0.73710 0.20639 0.30747
 C202 C 0.72666 0.17319 0.32957
 C203 C 0.74831 0.17505 0.36432
 C204 C 0.77167 0.21015 0.36199
 H205 H 0.70569 0.14923 0.32086
 H206 H 0.79298 0.22102 0.38387
 H207 H 0.73259 0.27814 0.27501
 H208 H 0.77779 0.24701 0.25578
 C209 C 0.23808 -0.01544 0.38551
 C210 C 0.23700 0.02652 0.38532
 C211 C 0.23176 0.03785 0.42377
 N212 N 0.22867 0.00395 0.44713
 C213 C 0.23329 -0.02869 0.42402
 C214 C 0.22660 0.07865 0.43639
 C215 C 0.21807 0.08864 0.47551
 C216 C 0.20522 0.12724 0.48710
 C217 C 0.20333 0.12574 0.52724
 C218 C 0.21492 0.08623 0.53901
 N219 N 0.22420 0.06388 0.50737
 C220 C 0.22014 0.07333 0.57830
 C221 C 0.22313 0.03179 0.59097
 C222 C 0.22622 0.01830 0.62958
 C223 C 0.22548 -0.02374 0.62955
 C224 C 0.22199 -0.03459 0.59094
 N225 N 0.21981 -0.00059 0.56759
 C226 C 0.21793 -0.07510 0.57809
 C227 C 0.21393 -0.08492 0.53850
 C228 C 0.20313 -0.12329 0.52587
 C229 C 0.20667 -0.12194 0.48583
 C230 C 0.21942 -0.08273 0.47518
 N231 N 0.22402 -0.06041 0.50744
 C232 C 0.22973 -0.07018 0.43667
 H233 H 0.23997 -0.03362 0.35966
 H234 H 0.23803 0.04581 0.35923
 H235 H 0.23887 -0.03239 0.50842
 H236 H 0.19858 0.15394 0.46858
 H237 H 0.19502 0.15102 0.54572
 H238 H 0.22740 0.03656 0.65539
 H239 H 0.22612 -0.04371 0.65525
 H240 H 0.20121 -0.14717 0.46673
 H241 H 0.23928 0.03548 0.50790
 H242 H 0.19456 -0.14978 0.54373
 C243 C 0.73280 0.13584 0.47938
 C244 C 0.73463 0.13378 0.51937
 C245 C 0.73271 0.09273 0.53032
 N246 N 0.72923 0.06982 0.49818
 C247 C 0.72998 0.09589 0.46682
 C248 C 0.73035 0.07743 0.56939
 C249 C 0.72441 0.03565 0.57953
 C250 C 0.71402 0.02170 0.61686
 C251 C 0.71315 -0.02032 0.61595
 C252 C 0.72298 -0.03099 0.57806
 N253 N 0.73025 0.00329 0.55607
 C254 C 0.72706 -0.07193 0.56611
 C255 C 0.72812 -0.08363 0.52655
 C256 C 0.72663 -0.12365 0.51419
 C257 C 0.72507 -0.12177 0.47428
 C258 C 0.72565 -0.08063 0.46314
 N259 N 0.72676 -0.05749 0.49527
 C260 C 0.72168 -0.06513 0.42420
 C261 C 0.71669 -0.02300 0.41440
 C262 C 0.70444 -0.00834 0.37780
 C263 C 0.70509 0.03369 0.37880
 C264 C 0.71777 0.04369 0.41598
 N265 N 0.72512 0.00893 0.43746
 C266 C 0.72486 0.08431 0.42740
 H267 H 0.73157 0.16410 0.46230
 H268 H 0.73523 0.15999 0.53793
 H269 H 0.73993 0.00715 0.46432
 H270 H 0.70802 0.03992 0.64228
 H271 H 0.70628 -0.04074 0.64052
 H272 H 0.72446 -0.15162 0.53161
 H273 H 0.72150 -0.14809 0.45624
 H274 H 0.69755 0.05456 0.35465
 H275 H 0.74325 0.00422 0.52827
 H276 H 0.69623 -0.02612 0.35281
 C277 C 0.37805 0.23066 -0.01114
 C278 C 0.37781 0.22691 0.02881
 C279 C 0.41967 0.22855 0.04061
 N280 N 0.44535 0.23280 0.00907
 C281 C 0.42000 0.23422 -0.02250
 C282 C 0.43353 0.22389 0.07976
 C283 C 0.47641 0.21897 0.09055
 C284 C 0.48934 0.20774 0.12796
 C285 C 0.53282 0.20767 0.12767
 C286 C 0.54532 0.21881 0.09008
 N287 N 0.51075 0.22598 0.06763
 C288 C 0.58798 0.22403 0.07880
 C289 C 0.60192 0.22816 0.03955
 C290 C 0.64396 0.22725 0.02767
 C291 C 0.64391 0.23011 -0.01236
 C292 C 0.60191 0.23259 -0.02367
 N293 N 0.57634 0.23123 0.00803
 C294 C 0.58858 0.23717 -0.06277
 C295 C 0.54553 0.24197 -0.07408
 C296 C 0.53260 0.25802 -0.11000
 C297 C 0.48907 0.25889 -0.10961
 C298 C 0.47630 0.24330 -0.07347
 N299 N 0.51096 0.23290 -0.05194
 C300 C 0.43333 0.23951 -0.06159
 H301 H 0.35047 0.23039 -0.02975
 H302 H 0.34989 0.22213 0.04665
 H303 H 0.51096 0.21739 -0.02506
 H304 H 0.46945 0.20057 0.15299
 H305 H 0.55299 0.20047 0.15245
 H306 H 0.67188 0.22372 0.04564
 H307 H 0.67168 0.23029 -0.03104
 H308 H 0.46929 0.27111 -0.13296
 H309 H 0.51068 0.23915 0.03981
 H310 H 0.55230 0.26951 -0.13366
 C311 C 0.49642 0.77400 0.11769
 C312 C 0.53888 0.78132 0.11395
 C313 C 0.54998 0.77289 0.07581
 N314 N 0.51526 0.76172 0.05607
 C315 C 0.48228 0.76270 0.08134
 C316 C 0.59095 0.77758 0.05927
 C317 C 0.60144 0.76883 0.02014
 C318 C 0.64054 0.77744 0.00344
 C319 C 0.63946 0.76436 -0.03427
 C320 C 0.59962 0.74846 -0.03982
 N321 N 0.57684 0.75037 -0.00629
 C322 C 0.58574 0.73405 -0.07596
 C323 C 0.54296 0.72723 -0.08519
 C324 C 0.52899 0.71448 -0.12105
 C325 C 0.48557 0.71435 -0.11915
 C326 C 0.47448 0.72664 -0.08203
 N327 N 0.50965 0.73418 -0.06133
 C328 C 0.43254 0.72864 -0.06742
 C329 C 0.42256 0.73090 -0.02739
 C330 C 0.38312 0.72190 -0.01188
 C331 C 0.38555 0.72778 0.02758
 C332 C 0.42628 0.74079 0.03506
 N333 N 0.44859 0.74293 0.00126
 C334 C 0.43999 0.75240 0.07231
 H335 H 0.47873 0.77683 0.14455
 H336 H 0.55856 0.79202 0.13708
 H337 H 0.47800 0.75603 -0.00277
 H338 H 0.66716 0.79186 0.01699
 H339 H 0.66481 0.76722 -0.05553
 H340 H 0.54797 0.70605 -0.14604
 H341 H 0.46484 0.70478 -0.14210
 H342 H 0.35993 0.72355 0.04836
 H343 H 0.54771 0.73699 -0.00114
 H344 H 0.35555 0.71181 -0.02739
 C345 C -0.02869 0.40243 0.24154
 C346 C 0.01438 0.39691 0.23964
 C347 C 0.03148 0.43521 0.23234
 N348 N 0.00004 0.46372 0.22906
 C349 C -0.03678 0.44394 0.23522
 C350 C 0.07500 0.44289 0.22558
 C351 C 0.09110 0.48214 0.21681
 C352 C 0.13241 0.48928 0.20477
 C353 C 0.13732 0.53109 0.20323
 C354 C 0.09876 0.54820 0.21396
 N355 N 0.07084 0.51827 0.22245
 C356 C 0.09173 0.59031 0.21914
 C357 C 0.05092 0.60871 0.22014
 C358 C 0.04283 0.65055 0.22128
 C359 C -0.00026 0.65572 0.21942
 C360 C -0.01705 0.61697 0.21713
 N361 N 0.01420 0.58833 0.21698
 C362 C -0.06053 0.60939 0.21340
 C363 C -0.07786 0.56962 0.21377
 C364 C -0.11866 0.56080 0.20220
 C365 C -0.12338 0.51916 0.20734
 C366 C -0.08517 0.50361 0.22132
 N367 N -0.05775 0.53455 0.22569
 C368 C -0.07769 0.46192 0.23118
 H369 H -0.05118 0.37800 0.24534
 H370 H 0.03055 0.36754 0.24183
 H371 H -0.02873 0.53227 0.23971
 H372 H 0.15685 0.46668 0.19876
 H373 H 0.16616 0.54709 0.19572
 H374 H 0.06531 0.67517 0.22196
 H375 H -0.01729 0.68475 0.21929
 H376 H -0.15160 0.50217 0.20103
 H377 H 0.04202 0.52230 0.23653
 H378 H -0.14252 0.58191 0.19073
 C379 C 0.13059 0.44164 0.75483
 C380 C 0.14113 0.48205 0.75068
 C381 C 0.10351 0.50394 0.74689
 N382 N 0.07025 0.47830 0.74813
 C383 C 0.08669 0.44008 0.75346
 C384 C 0.10123 0.54662 0.74004
 C385 C 0.06263 0.56928 0.74032
 C386 C 0.05768 0.60956 0.72697
 C387 C 0.01621 0.62068 0.73384
 C388 C -0.00331 0.58655 0.75004
 N389 N 0.02509 0.55546 0.75433
 C390 C -0.04615 0.58566 0.76130
 C391 C -0.06923 0.54887 0.76465
 C392 C -0.11071 0.54570 0.77768
 C393 C -0.12203 0.50568 0.77311
 C394 C -0.08676 0.48546 0.75856
 N395 N -0.05458 0.51191 0.75307
 C396 C -0.08601 0.44378 0.74877
 C397 C -0.04769 0.42126 0.74320
 C398 C -0.04423 0.38230 0.72813
 C399 C -0.00212 0.37072 0.73032
 C400 C 0.01919 0.40334 0.74545
 N401 N -0.00868 0.43381 0.75360
 C402 C 0.06309 0.40355 0.75267
 H403 H 0.15325 0.41656 0.75667
 H404 H 0.17297 0.49392 0.74982
 H405 H -0.00184 0.45980 0.76913
 H406 H 0.08095 0.62897 0.71300
 H407 H 0.00171 0.65018 0.72668
 H408 H -0.13094 0.56939 0.78936
 H409 H -0.15256 0.49272 0.78028
 H410 H 0.01143 0.34193 0.72099
 H411 H 0.01974 0.52802 0.76954
 H412 H -0.06893 0.36394 0.71629
 N413 N 0.37123 0.24630 0.11223
 N414 N 0.40298 0.22195 0.11101
 N415 N 0.63285 0.78433 0.11520
 N416 N 0.62391 0.79562 0.08163
 N417 N 0.61880 0.22396 -0.12504
 N418 N 0.62157 0.24023 -0.09184
 N419 N 0.39804 0.74668 -0.12629
 N420 N 0.39763 0.72653 -0.09400
 N421 N 0.10627 0.38163 0.25207
 N422 N 0.10511 0.40949 0.22541
 N423 N 0.15030 0.60066 0.73987
 N424 N 0.14050 0.56614 0.72973
 N425 N -0.12139 0.65046 0.22203
 N426 N -0.08714 0.64466 0.20559
 N427 N -0.13576 0.38959 0.74805
 N428 N -0.12690 0.42597 0.74256
 N429 N 0.25463 0.11422 0.38095
 N430 N 0.22728 0.11220 0.40830
 N431 N 0.75692 0.13392 0.60417
 N432 N 0.73027 0.10529 0.60126
 N433 N 0.24767 -0.11454 0.62980
 N434 N 0.21707 -0.10843 0.60628
 N435 N 0.74275 -0.12523 0.39111
 N436 N 0.71960 -0.09305 0.39241
 N437 N 0.61532 0.75208 -0.13695
 N438 N 0.61700 0.72962 -0.10609
 N439 N 0.40323 0.22755 -0.12361
 N440 N 0.40012 0.24304 -0.09007
 N441 N 0.40433 0.77954 0.12737
 N442 N 0.40840 0.75150 0.10258
 N443 N 0.64725 0.25040 0.11117
 N444 N 0.61824 0.22390 0.10992
 N445 N -0.10175 0.63453 0.75803
 N446 N -0.06580 0.62466 0.76882
 N447 N -0.11970 0.41186 0.26264
 N448 N -0.11381 0.43586 0.23334
 N449 N 0.11273 0.35742 0.78124
 N450 N 0.08525 0.36481 0.75482
 N451 N 0.13021 0.64121 0.24969
 N452 N 0.12837 0.61523 0.22285
 N453 N 0.75047 -0.13471 0.59614
 N454 N 0.72675 -0.10290 0.59673
 N455 N 0.26395 -0.10209 0.38368
 N456 N 0.23432 -0.10203 0.40895
 N457 N 0.74868 0.14578 0.39601
 N458 N 0.72479 0.11480 0.39626
 N459 N 0.25144 0.10652 0.63058
 N460 N 0.22089 0.10462 0.60674
   
