data_POSCAR
  _audit_creation_date              2014-09-24
  _audit_creation_method            'ToBaCCo'
  _symmetry_space_group_name_H-M    'P1'
  _symmetry_Int_Tables_number       1
  _symmetry_cell_setting            triclinic
  loop_
  _symmetry_equiv_pos_as_xyz
 x,y,z
_cell_length_a 14.5442
_cell_length_b 14.6965
_cell_length_c 15.0246
_cell_angle_alpha 90.397100
_cell_angle_beta 89.625500
_cell_angle_gamma 88.637700
loop_
  _atom_site_label
  _atom_site_type_symbol
  _atom_site_fract_x
  _atom_site_fract_y
  _atom_site_fract_z
Si1 Si 0.00480 0.51547 0.27234
 Si2 Si -0.00794 0.50581 0.74729
 Si3 Si 0.24246 0.00384 0.50714
 Si4 Si 0.75599 -0.00635 0.50169
 Si5 Si 0.48395 0.25841 1.00114
 Si6 Si 0.50286 0.74762 1.00206
 B7 B 0.99167 1.10106 0.06314
 B8 B 0.99223 1.09930 -0.05409
 B9 B 1.08904 1.06448 0.00649
 B10 B 1.05432 1.00249 0.10011
 B11 B 0.93524 1.00275 0.09917
 B12 B 0.89440 1.05883 0.00128
 B13 B 0.99845 0.90280 -0.05322
 B14 B 0.99628 0.90630 0.06192
 B15 B 0.89982 0.94342 0.00381
 B16 B 0.93847 0.99998 -0.09265
 B17 B 1.05728 1.00269 -0.08959
 B18 B 1.09475 0.94269 0.00481
 B19 B 0.59421 0.50333 0.44123
 B20 B 0.60124 0.48840 0.55255
 B21 B 0.56312 0.59518 0.51112
 B22 B 0.49770 0.56974 0.41424
 B23 B 0.49409 0.45263 0.40306
 B24 B 0.55349 0.40078 0.48819
 B25 B 0.40702 0.50529 0.56880
 B26 B 0.40079 0.51595 0.45155
 B27 B 0.43470 0.41039 0.49921
 B28 B 0.50396 0.43384 0.59167
 B29 B 0.50969 0.54924 0.60534
 B30 B 0.44535 0.60282 0.51748
 C31 C 1.06688 1.31461 0.23589
 C32 C 1.02068 1.39578 0.20617
 C33 C 0.96421 1.37900 0.13335
 C34 C 0.95176 1.29013 0.09662
 C35 C 1.00286 1.20795 0.11783
 C36 C 1.06292 1.22818 0.19067
 C37 C 1.16398 1.21266 0.20396
 C38 C 1.16731 1.29986 0.25174
 H39 H 0.91970 1.43387 0.11066
 H40 H 0.89479 1.29148 0.05576
 H41 H 1.20815 1.22599 0.14830
 H42 H 1.18590 1.15503 0.24634
 H43 H 1.20948 1.35269 0.21946
 H44 H 1.18726 1.28472 0.32028
 C45 C 0.92116 0.67010 0.18132
 C46 C 1.00166 0.62789 0.21004
 C47 C 1.08004 0.68012 0.19498
 C48 C 1.07511 0.76961 0.15622
 C49 C 0.99441 0.80666 0.11665
 C50 C 0.91708 0.75147 0.13478
 C51 C 0.81594 0.73846 0.12462
 C52 C 0.82346 0.64939 0.17378
 H53 H 1.14560 0.65041 0.21133
 H54 H 1.13636 0.80768 0.15330
 H55 H 0.79502 0.72437 0.05569
 H56 H 0.77610 0.78910 0.16463
 H57 H 0.81198 0.58880 0.13095
 H58 H 0.78602 0.65205 0.23817
 C59 C 1.04768 1.32506 -0.20495
 C60 C 0.98260 1.39139 -0.18869
 C61 C 0.91111 1.36025 -0.13370
 C62 C 0.91450 1.26952 -0.09638
 C63 C 0.98880 1.20317 -0.10820
 C64 C 1.05273 1.23740 -0.17115
 C65 C 1.14100 1.22714 -0.22575
 C66 C 1.12840 1.32342 -0.25746
 H67 H 0.85150 1.40409 -0.12122
 H68 H 0.85308 1.24946 -0.06386
 H69 H 1.14402 1.18989 -0.28870
 H70 H 1.20030 1.20930 -0.18553
 H71 H 1.10468 1.33093 -0.32669
 H72 H 1.17166 1.37604 -0.22967
 C73 C 0.95091 0.62624 -0.10466
 C74 C 0.97236 0.61797 -0.19416
 C75 C 0.98394 0.69840 -0.23983
 C76 C 0.98176 0.78125 -0.19339
 C77 C 0.99648 0.79304 -0.10176
 C78 C 0.97401 0.70908 -0.05784
 C79 C 1.03776 0.64012 -0.01396
 C80 C 0.98914 0.56017 -0.04424
 H81 H 0.98384 0.69818 -0.31197
 H82 H 0.91977 0.81112 -0.21475
 H83 H 1.03606 0.63625 0.05493
 H84 H 1.10587 0.63908 -0.04590
 H85 H 0.93538 0.53637 0.00222
 H86 H 1.03809 0.50709 -0.06996
 C87 C 1.22383 0.95512 0.31999
 C88 C 1.17947 0.99523 0.39356
 C89 C 1.09432 1.03655 0.37180
 C90 C 1.06247 1.04153 0.28141
 C91 C 1.10593 0.99779 0.20518
 C92 C 1.18935 0.95156 0.23324
 C93 C 1.28321 0.91265 0.20390
 C94 C 1.31898 0.92694 0.29701
 H95 H 1.05384 1.07005 0.42353
 H96 H 1.00401 1.08498 0.27238
 H97 H 1.32825 0.94978 0.15853
 H98 H 1.28214 0.83961 0.18908
 H99 H 1.36621 0.98507 0.30223
 H100 H 1.34582 0.86365 0.32670
 C101 C 1.24388 0.98915 -0.29680
 C102 C 1.19126 1.00992 -0.37308
 C103 C 1.10222 1.04234 -0.35377
 C104 C 1.07137 1.05403 -0.26406
 C105 C 1.11308 1.01054 -0.18957
 C106 C 1.20315 0.98028 -0.21091
 C107 C 1.24878 0.88936 -0.20251
 C108 C 1.30552 0.90981 -0.28098
 H109 H 1.05687 1.06344 -0.40687
 H110 H 1.00958 1.09461 -0.25610
 H111 H 1.20000 0.83354 -0.21292
 H112 H 1.29993 0.87790 -0.15364
 H113 H 1.30819 0.85101 -0.32393
 H114 H 1.37499 0.93323 -0.26154
 C115 C 0.80060 1.06104 0.33223
 C116 C 0.82065 0.99246 0.39076
 C117 C 0.87169 0.91935 0.35414
 C118 C 0.90567 0.92245 0.26476
 C119 C 0.88480 0.99466 0.20220
 C120 C 0.82808 1.06304 0.24261
 C121 C 0.83318 1.16346 0.25266
 C122 C 0.81126 1.15746 0.34851
 H123 H 0.88983 0.86179 0.39564
 H124 H 0.95866 0.87322 0.25343
 H125 H 0.77344 1.19898 0.22303
 H126 H 0.90066 1.19183 0.24346
 H127 H 0.74479 1.18947 0.36353
 H128 H 0.86976 1.17294 0.39308
 C129 C 0.77845 1.06089 -0.31021
 C130 C 0.81738 1.01308 -0.38472
 C131 C 0.89292 0.95786 -0.36352
 C132 C 0.92551 0.95090 -0.27494
 C133 C 0.88890 0.99826 -0.19752
 C134 C 0.81882 1.05800 -0.22447
 C135 C 0.80682 1.15621 -0.21113
 C136 C 0.75232 1.15948 -0.29254
 H137 H 0.92685 0.91776 -0.41544
 H138 H 0.99041 0.91550 -0.27262
 H139 H 0.87249 1.18862 -0.22671
 H140 H 0.76558 1.18239 -0.15533
 H141 H 0.78215 1.21645 -0.32964
 H142 H 0.67720 1.16730 -0.27996
 C143 C 1.28767 1.25441 -0.01609
 C144 C 1.36661 1.20480 0.00778
 C145 C 1.34880 1.12716 0.05674
 C146 C 1.25690 1.09919 0.06781
 C147 C 1.18260 1.13025 0.01509
 C148 C 1.19906 1.21698 -0.02321
 C149 C 1.16287 1.31296 0.00061
 C150 C 1.25865 1.34698 0.01260
 H151 H 1.40384 1.09264 0.09215
 H152 H 1.24285 1.04909 0.11361
 H153 H 1.12395 1.32096 0.06201
 H154 H 1.12830 1.34854 -0.05468
 H155 H 1.27625 1.36097 0.08289
 H156 H 1.27699 1.40314 -0.03257
 C157 C 0.61592 1.11789 -0.04712
 C158 C 0.59527 1.18760 0.01135
 C159 C 0.66952 1.21098 0.06613
 C160 C 0.75868 1.17055 0.05526
 C161 C 0.78228 1.10008 -0.00399
 C162 C 0.70146 1.07222 -0.05424
 C163 C 0.64984 1.01340 -0.12310
 C164 C 0.56367 1.07121 -0.11453
 H165 H 0.66119 1.26063 0.11821
 H166 H 0.81166 1.19331 0.09492
 H167 H 0.63248 0.94668 -0.10098
 H168 H 0.66899 1.00990 -0.19314
 H169 H 0.50369 1.03618 -0.08682
 H170 H 0.54918 1.11413 -0.17353
 C171 C 1.30662 0.75859 -0.04400
 C172 C 1.38604 0.80762 -0.01893
 C173 C 1.37121 0.89995 -0.00593
 C174 C 1.28071 0.93635 -0.01094
 C175 C 1.20005 0.88609 0.00384
 C176 C 1.21712 0.79103 -0.01359
 C177 C 1.23365 0.70770 0.04719
 C178 C 1.29783 0.66584 -0.01927
 H179 H 1.42887 0.94412 -0.00130
 H180 H 1.27532 0.99776 -0.04859
 H181 H 1.18218 0.65901 0.06337
 H182 H 1.26851 0.72458 0.11007
 H183 H 1.26010 0.62160 -0.06482
 H184 H 1.36449 0.63384 -0.00690
 C185 C 0.63624 0.87713 0.05899
 C186 C 0.61356 0.81263 -0.00366
 C187 C 0.68304 0.79483 -0.06861
 C188 C 0.77047 0.83676 -0.06579
 C189 C 0.79687 0.89538 0.00460
 C190 C 0.72250 0.91437 0.06584
 C191 C 0.68689 0.96457 0.14787
 C192 C 0.59217 0.92632 0.13393
 H193 H 0.66733 0.75665 -0.12713
 H194 H 0.81558 0.82373 -0.12040
 H195 H 0.68485 1.03936 0.14267
 H196 H 0.71585 0.93632 0.21022
 H197 H 0.54079 0.97815 0.11136
 H198 H 0.56905 0.88329 0.18956
 C199 C 0.81373 0.46334 0.28268
 C200 C 0.88370 0.51552 0.31945
 C201 C 0.85623 0.57601 0.38695
 C202 C 0.76584 0.57490 0.42196
 C203 C 0.69637 0.51413 0.39191
 C204 C 0.72568 0.45913 0.32172
 C205 C 0.72353 0.35945 0.31251
 C206 C 0.81444 0.36461 0.26558
 H207 H 0.90586 0.62090 0.41632
 H208 H 0.75853 0.61370 0.48098
 H209 H 0.67076 0.32963 0.26989
 H210 H 0.72862 0.32903 0.37798
 H211 H 0.80583 0.34923 0.19388
 H212 H 0.87213 0.33000 0.30050
 C213 C 0.14160 0.61146 0.39553
 C214 C 0.09898 0.53331 0.36036
 C215 C 0.15221 0.45663 0.36774
 C216 C 0.24910 0.45740 0.37178
 C217 C 0.29737 0.53319 0.40141
 C218 C 0.23879 0.61201 0.40644
 C219 C 0.23838 0.70419 0.36244
 C220 C 0.13579 0.71143 0.38193
 H221 H 0.11426 0.39609 0.37048
 H222 H 0.28549 0.39661 0.35911
 H223 H 0.25279 0.70244 0.29042
 H224 H 0.28212 0.75476 0.39042
 H225 H 0.09043 0.74429 0.33407
 H226 H 0.11873 0.74371 0.44661
 C227 C 0.87645 0.44467 0.60536
 C228 C 0.89022 0.50514 0.67416
 C229 C 0.81296 0.55768 0.69877
 C230 C 0.72776 0.54662 0.65785
 C231 C 0.70911 0.48281 0.59243
 C232 C 0.79192 0.43446 0.56438
 C233 C 0.84229 0.36926 0.50097
 C234 C 0.93007 0.37852 0.55173
 H235 H 0.81409 0.60354 0.75481
 H236 H 0.67333 0.58548 0.68367
 H237 H 0.85143 0.39792 0.43562
 H238 H 0.82556 0.29825 0.49753
 H239 H 0.98223 0.40594 0.50633
 H240 H 0.95066 0.31691 0.59002
 C241 C 0.18660 0.55459 0.74543
 C242 C 0.11303 0.52161 0.69637
 C243 C 0.13590 0.49333 0.61140
 C244 C 0.22778 0.48511 0.58289
 C245 C 0.30531 0.51365 0.62781
 C246 C 0.28103 0.54908 0.71433
 C247 C 0.29216 0.64273 0.75054
 C248 C 0.19224 0.65192 0.76774
 H249 H 0.08344 0.47392 0.56738
 H250 H 0.23975 0.45175 0.52456
 H251 H 0.31293 0.69589 0.70545
 H252 H 0.33207 0.63842 0.81198
 H253 H 0.15862 0.69539 0.71641
 H254 H 0.17258 0.67208 0.83527
 C255 C 0.42032 0.65021 0.16145
 C256 C 0.49616 0.69546 0.12403
 C257 C 0.56881 0.70650 0.18556
 C258 C 0.57017 0.66395 0.27114
 C259 C 0.49199 0.62376 0.31209
 C260 C 0.41520 0.62333 0.25253
 C261 C 0.35233 0.54891 0.22552
 C262 C 0.37401 0.56420 0.13234
 H263 H 0.63158 0.73537 0.16285
 H264 H 0.63565 0.66079 0.30404
 H265 H 0.27889 0.56677 0.23707
 H266 H 0.36514 0.47962 0.24241
 H267 H 0.30696 0.56075 0.09951
 H268 H 0.42263 0.51383 0.10306
 C269 C 0.55120 0.59809 0.87921
 C270 C 0.50955 0.68232 0.89121
 C271 C 0.47887 0.72311 0.81256
 C272 C 0.48225 0.67626 0.72970
 C273 C 0.51549 0.58775 0.71525
 C274 C 0.54598 0.54585 0.79899
 C275 C 0.63330 0.49837 0.83644
 C276 C 0.64582 0.57128 0.90349
 H277 H 0.45095 0.79191 0.81409
 H278 H 0.45479 0.70944 0.67505
 H279 H 0.69405 0.48148 0.79665
 H280 H 0.61821 0.43983 0.87810
 H281 H 0.69964 0.61686 0.87923
 H282 H 0.65703 0.55144 0.97302
 C283 C 0.53936 0.38281 0.13649
 C284 C 0.47759 0.31829 0.11634
 C285 C 0.42299 0.29344 0.19056
 C286 C 0.43317 0.33411 0.27719
 C287 C 0.49585 0.40434 0.29771
 C288 C 0.54606 0.42941 0.21777
 C289 C 0.60958 0.48968 0.16175
 C290 C 0.59759 0.43402 0.07950
 H291 H 0.37406 0.24007 0.18471
 H292 H 0.39184 0.30745 0.32897
 H293 H 0.68300 0.49481 0.17464
 H294 H 0.57919 0.55335 0.14524
 H295 H 0.66102 0.39753 0.05633
 H296 H 0.55437 0.46578 0.02709
 C297 C 0.42336 0.34975 0.83239
 C298 C 0.49761 0.31103 0.87853
 C299 C 0.57695 0.29800 0.82306
 C300 C 0.58340 0.33498 0.73417
 C301 C 0.50646 0.37482 0.68888
 C302 C 0.42711 0.37483 0.74071
 C303 C 0.34797 0.31897 0.71887
 C304 C 0.34068 0.29874 0.81351
 H305 H 0.63854 0.26994 0.85232
 H306 H 0.65112 0.33858 0.70662
 H307 H 0.36183 0.25354 0.68634
 H308 H 0.29165 0.35901 0.69139
 H309 H 0.35002 0.22452 0.82695
 H310 H 0.28168 0.33453 0.84276
 C311 C 0.73192 0.81140 0.57266
 C312 C 0.71401 0.87211 0.50278
 C313 C 0.65969 0.83987 0.43402
 C314 C 0.61357 0.75699 0.44229
 C315 C 0.62143 0.69606 0.51545
 C316 C 0.68492 0.72794 0.58183
 C317 C 0.67364 0.75331 0.68036
 C318 C 0.72898 0.83522 0.66790
 H319 H 0.64305 0.88391 0.37860
 H320 H 0.55627 0.75257 0.39964
 H321 H 0.70811 0.71101 0.73078
 H322 H 0.60517 0.77643 0.70098
 H323 H 0.79669 0.82722 0.69972
 H324 H 0.68970 0.89916 0.68350
 C325 C 0.60149 0.12053 0.43809
 C326 C 0.67542 0.09943 0.49339
 C327 C 0.71210 0.17713 0.52887
 C328 C 0.66569 0.26273 0.53403
 C329 C 0.59678 0.29045 0.47525
 C330 C 0.56977 0.21138 0.42262
 C331 C 0.52424 0.17468 0.34006
 C332 C 0.56327 0.07988 0.35757
 H333 H 0.78393 0.17226 0.54461
 H334 H 0.69216 0.30989 0.57885
 H335 H 0.55453 0.20202 0.27798
 H336 H 0.44822 0.17292 0.34517
 H337 H 0.61664 0.05783 0.30850
 H338 H 0.50976 0.02937 0.37134
 C339 C 0.39247 0.87563 0.49705
 C340 C 0.29851 0.88612 0.50809
 C341 C 0.25095 0.80939 0.53818
 C342 C 0.29667 0.72294 0.54856
 C343 C 0.39180 0.70834 0.52882
 C344 C 0.43815 0.79160 0.51585
 C345 C 0.49101 0.84760 0.58398
 C346 C 0.45273 0.93217 0.54943
 H347 H 0.17951 0.81727 0.55785
 H348 H 0.25422 0.66743 0.56709
 H349 H 0.56364 0.85257 0.57763
 H350 H 0.47063 0.84255 0.65439
 H351 H 0.50123 0.97159 0.50875
 H352 H 0.41725 0.96781 0.60374
 C353 C 0.26128 0.19091 0.45720
 C354 C 0.30955 0.11702 0.49421
 C355 C 0.38785 0.14238 0.54277
 C356 C 0.42197 0.23133 0.54340
 C357 C 0.37813 0.30721 0.50330
 C358 C 0.29019 0.28349 0.46875
 C359 C 0.19854 0.29641 0.51628
 C360 C 0.16561 0.20903 0.48538
 H361 H 0.42190 0.09963 0.58877
 H362 H 0.48165 0.24026 0.58403
 H363 H 0.14850 0.34840 0.49621
 H364 H 0.21165 0.29537 0.58802
 H365 H 0.11664 0.21452 0.42926
 H366 H 0.14041 0.17051 0.54204
   
