data_POSCAR
  _audit_creation_date              2014-09-24
  _audit_creation_method            'ToBaCCo'
  _symmetry_space_group_name_H-M    'P1'
  _symmetry_Int_Tables_number       1
  _symmetry_cell_setting            triclinic
  loop_
  _symmetry_equiv_pos_as_xyz
 x,y,z
_cell_length_a 42.5259
_cell_length_b 32.7207
_cell_length_c 30.9377
_cell_angle_alpha 90.067100
_cell_angle_beta 90.009200
_cell_angle_gamma 90.046700
loop_
  _atom_site_label
  _atom_site_type_symbol
  _atom_site_fract_x
  _atom_site_fract_y
  _atom_site_fract_z
C1 C 0.25008 0.27013 0.24952
 C2 C 0.24999 0.22844 0.24970
 C3 C 0.22494 0.20456 0.22762
 C4 C 0.27499 0.20469 0.27189
 C5 C 0.27316 0.29401 0.27532
 C6 C 0.22717 0.29389 0.22344
 C7 C 0.19316 0.21125 0.23686
 C8 C 0.16976 0.18959 0.21490
 C9 C 0.17734 0.15991 0.18301
 C10 C 0.20982 0.15291 0.17519
 C11 C 0.23305 0.17480 0.19719
 C12 C 0.26677 0.17532 0.30288
 C13 C 0.29006 0.15355 0.32482
 C14 C 0.32205 0.16055 0.31595
 C15 C 0.33019 0.18938 0.28418
 C16 C 0.30687 0.21107 0.26217
 C17 C 0.29216 0.32324 0.25492
 C18 C 0.31464 0.34499 0.27851
 C19 C 0.31838 0.33815 0.32308
 C20 C 0.29875 0.30954 0.34365
 C21 C 0.27626 0.28781 0.32002
 C22 C 0.22404 0.28713 0.17882
 C23 C 0.20170 0.30876 0.15492
 C24 C 0.18233 0.33791 0.17510
 C25 C 0.18611 0.34531 0.21958
 C26 C 0.20839 0.32359 0.24346
 H27 H 0.18642 0.23326 0.26134
 H28 H 0.14588 0.19534 0.22503
 H29 H 0.21802 0.13237 0.15031
 H30 H 0.25754 0.16926 0.18950
 H31 H 0.24230 0.16986 0.31071
 H32 H 0.28305 0.13184 0.34940
 H33 H 0.31366 0.23296 0.23766
 H34 H 0.28991 0.32873 0.22054
 H35 H 0.32902 0.36733 0.26191
 H36 H 0.30119 0.30341 0.37787
 H37 H 0.26144 0.26586 0.33650
 H38 H 0.23881 0.26497 0.16257
 H39 H 0.19974 0.30293 0.12056
 H40 H 0.17135 0.36728 0.23612
 H41 H 0.21055 0.32935 0.27782
 H42 H 0.35459 0.19489 0.27606
 C43 C 0.74972 0.23129 0.24990
 C44 C 0.74983 0.27297 0.25010
 C45 C 0.77478 0.29676 0.22782
 C46 C 0.72497 0.29679 0.27253
 C47 C 0.72642 0.20742 0.27525
 C48 C 0.77284 0.20742 0.22425
 C49 C 0.80669 0.29036 0.23726
 C50 C 0.82996 0.31170 0.21470
 C51 C 0.82172 0.34010 0.18255
 C52 C 0.78970 0.34724 0.17409
 C53 C 0.76647 0.32589 0.19664
 C54 C 0.73337 0.32575 0.30393
 C55 C 0.71022 0.34723 0.32648
 C56 C 0.67818 0.34040 0.31780
 C57 C 0.66985 0.31215 0.28546
 C58 C 0.69304 0.29069 0.26290
 C59 C 0.70754 0.17832 0.25437
 C60 C 0.68498 0.15636 0.27751
 C61 C 0.68103 0.16287 0.32211
 C62 C 0.70051 0.19139 0.34317
 C63 C 0.72309 0.21334 0.31997
 C64 C 0.77621 0.21372 0.17960
 C65 C 0.79865 0.19180 0.15613
 C66 C 0.81787 0.16281 0.17678
 C67 C 0.81389 0.15593 0.22129
 C68 C 0.79152 0.17794 0.24474
 H69 H 0.81357 0.26848 0.26173
 H70 H 0.85440 0.30535 0.22179
 H71 H 0.78260 0.36946 0.15009
 H72 H 0.74196 0.33152 0.18919
 H73 H 0.75789 0.33116 0.31152
 H74 H 0.71739 0.36932 0.35064
 H75 H 0.68609 0.26895 0.23824
 H76 H 0.70997 0.17305 0.21996
 H77 H 0.67073 0.13409 0.26054
 H78 H 0.69791 0.19725 0.37743
 H79 H 0.73782 0.23518 0.33681
 H80 H 0.76152 0.23571 0.16301
 H81 H 0.80077 0.19724 0.12174
 H82 H 0.82854 0.13412 0.23820
 H83 H 0.78918 0.17255 0.27913
 H84 H 0.64539 0.30604 0.27819
 C85 C 0.75033 0.77118 0.75025
 C86 C 0.75024 0.72950 0.75040
 C87 C 0.72544 0.70562 0.72787
 C88 C 0.77496 0.70568 0.77307
 C89 C 0.77344 0.79506 0.77598
 C90 C 0.72730 0.79493 0.72435
 C91 C 0.69347 0.71184 0.73712
 C92 C 0.67037 0.69004 0.71469
 C93 C 0.67882 0.66135 0.68286
 C94 C 0.71089 0.65451 0.67448
 C95 C 0.73395 0.67633 0.69690
 C96 C 0.76634 0.67662 0.80418
 C97 C 0.78933 0.65479 0.82662
 C98 C 0.82141 0.66137 0.81812
 C99 C 0.82996 0.68985 0.78618
 C100 C 0.80694 0.71167 0.76373
 C101 C 0.79240 0.82419 0.75558
 C102 C 0.81500 0.84592 0.77899
 C103 C 0.81923 0.83926 0.82381
 C104 C 0.79929 0.81044 0.84412
 C105 C 0.77665 0.78891 0.82056
 C106 C 0.72414 0.78843 0.67970
 C107 C 0.70153 0.80984 0.65605
 C108 C 0.68191 0.83851 0.67653
 C109 C 0.68574 0.84571 0.72104
 C110 C 0.70829 0.82421 0.74467
 H111 H 0.68644 0.73384 0.76144
 H112 H 0.64588 0.69617 0.72169
 H113 H 0.71815 0.63211 0.65071
 H114 H 0.75850 0.67083 0.68960
 H115 H 0.74177 0.67130 0.81154
 H116 H 0.78199 0.63255 0.85048
 H117 H 0.81404 0.73348 0.73930
 H118 H 0.79029 0.82935 0.72112
 H119 H 0.83002 0.86639 0.76098
 H120 H 0.80012 0.80520 0.87859
 H121 H 0.76157 0.76735 0.83717
 H122 H 0.73907 0.76658 0.66324
 H123 H 0.69954 0.80418 0.62167
 H124 H 0.67080 0.86731 0.73782
 H125 H 0.71046 0.82975 0.77907
 H126 H 0.85447 0.69578 0.77909
 C127 C 0.24970 0.73120 0.75064
 C128 C 0.24962 0.77289 0.75047
 C129 C 0.27244 0.79662 0.72413
 C130 C 0.22674 0.79671 0.77662
 C131 C 0.22481 0.70731 0.77294
 C132 C 0.27468 0.70736 0.72846
 C133 C 0.29149 0.82620 0.74394
 C134 C 0.31395 0.84751 0.71988
 C135 C 0.31763 0.83979 0.67544
 C136 C 0.29793 0.81086 0.65545
 C137 C 0.27541 0.78966 0.67952
 C138 C 0.22371 0.79013 0.82117
 C139 C 0.20124 0.81150 0.84515
 C140 C 0.18130 0.84058 0.82534
 C141 C 0.18538 0.84770 0.78057
 C142 C 0.20779 0.82613 0.75672
 C143 C 0.19295 0.71360 0.76362
 C144 C 0.16974 0.69146 0.78536
 C145 C 0.17775 0.66188 0.81683
 C146 C 0.21008 0.65531 0.82508
 C147 C 0.23317 0.67763 0.80337
 C148 C 0.26639 0.67750 0.69796
 C149 C 0.28962 0.65541 0.67624
 C150 C 0.32162 0.66259 0.68483
 C151 C 0.32985 0.69200 0.71604
 C152 C 0.30658 0.71401 0.73784
 H153 H 0.28947 0.83210 0.77828
 H154 H 0.32894 0.86933 0.73628
 H155 H 0.29980 0.80481 0.62113
 H156 H 0.26045 0.76758 0.66343
 H157 H 0.23878 0.76834 0.83742
 H158 H 0.20054 0.80590 0.87956
 H159 H 0.20977 0.83163 0.72230
 H160 H 0.18604 0.73559 0.73927
 H161 H 0.14562 0.69677 0.77593
 H162 H 0.21797 0.63431 0.84974
 H163 H 0.25769 0.67237 0.81106
 H164 H 0.24190 0.67184 0.69039
 H165 H 0.28255 0.63326 0.65208
 H166 H 0.35427 0.69770 0.72390
 H167 H 0.31343 0.73629 0.76198
 H168 H 0.17034 0.86841 0.76291
 O169 O 1.03035 -0.05260 -0.00251
 O170 O 0.96826 0.00259 0.05664
 O171 O 0.96901 -0.05277 -0.00377
 O172 O 1.02947 0.00241 0.05844
 O173 O 1.03016 0.05114 0.00897
 O174 O 0.96964 -0.00408 -0.05328
 O175 O 0.96896 0.05127 0.00711
 O176 O 1.03098 -0.00387 -0.05197
 Cu177 Cu 0.99922 -0.03003 0.03217
 Cu178 Cu 1.00003 0.02850 -0.02731
 C179 C 1.04117 -0.03749 -0.03721
 C180 C 0.95812 0.03623 0.04182
 C181 C 0.95902 -0.03766 -0.03892
 C182 C 1.03999 0.03610 0.04425
 O183 O 0.52985 0.55098 0.50858
 O184 O 0.46792 0.49679 0.44805
 O185 O 0.46872 0.55109 0.50967
 O186 O 0.52918 0.49700 0.44657
 O187 O 0.52973 0.44744 0.49510
 O188 O 0.46922 0.50156 0.55826
 O189 O 0.46846 0.44726 0.49662
 O190 O 0.53037 0.50143 0.55713
 Cu191 Cu 0.49887 0.52894 0.47329
 Cu192 Cu 0.49951 0.46939 0.53165
 C193 C 0.54048 0.53541 0.54315
 C194 C 0.45772 0.46289 0.46215
 C195 C 0.45882 0.53552 0.54465
 C196 C 0.53967 0.46309 0.46017
 O197 O 0.03056 0.50102 -0.05828
 O198 O -0.02986 0.44680 0.00493
 O199 O -0.03058 0.50093 -0.05685
 O200 O 0.03141 0.44659 0.00305
 O201 O 0.03217 0.49602 0.05186
 O202 O -0.02985 0.55038 -0.00806
 O203 O -0.02910 0.49625 0.05370
 O204 O 0.03127 0.55044 -0.00945
 Cu205 Cu 0.00029 0.46881 -0.03168
 Cu206 Cu 0.00118 0.52823 0.02697
 C207 C 0.04106 0.53493 -0.04455
 C208 C -0.03968 0.46238 0.03999
 C209 C -0.04059 0.53489 -0.04266
 C210 C 0.04230 0.46216 0.03751
 O211 O 0.53059 0.99508 0.55337
 O212 O 0.46997 1.05014 0.49144
 O213 O 0.46923 0.99519 0.55230
 O214 O 0.53114 1.05036 0.49301
 O215 O 0.53170 1.00162 0.44342
 O216 O 0.46973 0.94640 0.50278
 O217 O 0.47052 1.00135 0.44191
 O218 O 0.53110 0.94633 0.50380
 Cu219 Cu 0.50016 1.02757 0.52757
 Cu220 Cu 0.50080 0.96897 0.46802
 C221 C 0.54117 0.96149 0.53893
 C222 C 0.46006 1.03506 0.45616
 C223 C 0.45898 0.96156 0.53752
 C224 C 0.54186 1.03532 0.45821
 C225 C 1.10715 0.09679 0.11328
 C226 C 1.09992 0.13313 0.13463
 C227 C 1.12305 0.15403 0.15799
 C228 C 1.15439 0.13913 0.16063
 C229 C 1.16089 0.10188 0.13868
 C230 C 1.13760 0.08120 0.11546
 C231 C 1.08336 0.07550 0.08898
 C232 C 1.06352 0.05757 0.06855
 H233 H 1.07639 0.14571 0.13280
 H234 H 1.11611 0.18299 0.17173
 H235 H 1.18345 0.08691 0.14064
 H236 H 1.14337 0.05271 0.09942
 C237 C 0.60795 0.59640 0.61126
 C238 C 0.60423 0.60285 0.65570
 C239 C 0.62725 0.62396 0.67905
 C240 C 0.65433 0.63887 0.65821
 C241 C 0.65782 0.63222 0.61351
 C242 C 0.63477 0.61114 0.59023
 C243 C 0.58421 0.57478 0.58720
 C244 C 0.56429 0.55675 0.56704
 H245 H 0.58357 0.59149 0.67231
 H246 H 0.62407 0.62818 0.71349
 H247 H 0.67818 0.64383 0.59644
 H248 H 0.63783 0.60644 0.55581
 C249 C -0.10689 0.40272 0.10973
 C250 C -0.13393 0.38814 0.08904
 C251 C -0.15715 0.36783 0.11273
 C252 C -0.15363 0.36183 0.15751
 C253 C -0.12632 0.37655 0.17801
 C254 C -0.10314 0.39689 0.15424
 C255 C -0.08308 0.42371 0.08524
 C256 C -0.06323 0.44133 0.06459
 H257 H -0.13704 0.39237 0.05457
 H258 H -0.17766 0.35633 0.09590
 H259 H -0.12310 0.37281 0.21249
 H260 H -0.08233 0.40815 0.17060
 C261 C 0.38968 0.90206 0.60352
 C262 C 0.37170 0.92339 0.63396
 C263 C 0.34814 0.90325 0.65718
 C264 C 0.34223 0.86144 0.65021
 C265 C 0.36033 0.84031 0.61936
 C266 C 0.38390 0.86052 0.59620
 C267 C 0.41416 0.92279 0.58002
 C268 C 0.43465 0.94036 0.56053
 H269 H 0.37591 0.95559 0.63980
 H270 H 0.33436 0.92046 0.68032
 H271 H 0.35664 0.80800 0.61369
 H272 H 0.39774 0.84368 0.57279
 C273 C -0.10794 0.59616 -0.11043
 C274 C -0.13463 0.61119 -0.08932
 C275 C -0.15761 0.63236 -0.11255
 C276 C -0.15417 0.63881 -0.15727
 C277 C -0.12722 0.62362 -0.17819
 C278 C -0.10428 0.60242 -0.15489
 C279 C -0.08427 0.57445 -0.08644
 C280 C -0.06439 0.55634 -0.06638
 H281 H -0.13764 0.60664 -0.05488
 H282 H -0.17786 0.64418 -0.09542
 H283 H -0.12408 0.62767 -0.21265
 H284 H -0.08372 0.59084 -0.17156
 C285 C 0.39324 1.09603 0.38710
 C286 C 0.36625 1.07548 0.37301
 C287 C 0.34316 1.09637 0.34967
 C288 C 0.34680 1.13814 0.34009
 C289 C 0.37410 1.15847 0.35424
 C290 C 0.39715 1.13753 0.37760
 C291 C 0.41685 1.07457 0.41146
 C292 C 0.43659 1.05655 0.43190
 H293 H 0.36303 1.04333 0.38007
 H294 H 0.32260 1.07976 0.33876
 H295 H 0.37739 1.19073 0.34788
 H296 H 0.41793 1.15375 0.38846
 C297 C 1.11029 -0.09715 -0.10340
 C298 C 1.12148 -0.13491 -0.08916
 C299 C 1.14496 -0.15530 -0.11231
 C300 C 1.15781 -0.13836 -0.15055
 C301 C 1.14617 -0.09993 -0.16417
 C302 C 1.12274 -0.07969 -0.14083
 C303 C 1.08591 -0.07635 -0.07977
 C304 C 1.06547 -0.05874 -0.06022
 H305 H 1.11181 -0.14889 -0.06034
 H306 H 1.15179 -0.18519 -0.10084
 H307 H 1.15575 -0.08432 -0.19198
 H308 H 1.11444 -0.05021 -0.15193
 C309 C 0.60692 0.40341 0.39050
 C310 C 0.63381 0.38860 0.41128
 C311 C 0.65699 0.36818 0.38763
 C312 C 0.65358 0.36229 0.34280
 C313 C 0.62643 0.37727 0.32221
 C314 C 0.60328 0.39772 0.34593
 C315 C 0.58311 0.42444 0.41497
 C316 C 0.56324 0.44207 0.43559
 H317 H 0.63682 0.39272 0.44579
 H318 H 0.67739 0.35649 0.40453
 H319 H 0.62329 0.37363 0.28769
 H320 H 0.58258 0.40916 0.32951
 C321 C 0.89054 -0.09775 -0.10605
 C322 C 0.87935 -0.13538 -0.09134
 C323 C 0.85581 -0.15602 -0.11415
 C324 C 0.84287 -0.13947 -0.15251
 C325 C 0.85453 -0.10120 -0.16666
 C326 C 0.87804 -0.08069 -0.14365
 C327 C 0.91481 -0.07661 -0.08252
 C328 C 0.93507 -0.05886 -0.06271
 H329 H 0.88905 -0.14902 -0.06236
 H330 H 0.84897 -0.18578 -0.10229
 H331 H 0.84490 -0.08588 -0.19460
 H332 H 0.88633 -0.05131 -0.15510
 C333 C 0.38955 0.40250 0.39475
 C334 C 0.39605 0.38776 0.35324
 C335 C 0.37290 0.36690 0.32992
 C336 C 0.34289 0.36047 0.34786
 C337 C 0.33659 0.37538 0.38965
 C338 C 0.35979 0.39628 0.41291
 C339 C 0.41348 0.42390 0.41868
 C340 C 0.43364 0.44175 0.43858
 H341 H 0.41904 0.39228 0.33894
 H342 H 0.37861 0.35528 0.29809
 H343 H 0.31362 0.37133 0.40413
 H344 H 0.35449 0.40765 0.44500
 C345 C 0.10757 0.59617 -0.11396
 C346 C 0.13754 0.57954 -0.11924
 C347 C 0.16058 0.60092 -0.14214
 C348 C 0.15417 0.63969 -0.16044
 C349 C 0.12351 0.65575 -0.15494
 C350 C 0.10059 0.63422 -0.13192
 C351 C 0.08407 0.57437 -0.08971
 C352 C 0.06444 0.55625 -0.06918
 H353 H 0.14311 0.54986 -0.10575
 H354 H 0.18300 0.58596 -0.14657
 H355 H 0.11724 0.68580 -0.16656
 H356 H 0.07747 0.64755 -0.12771
 C357 C 0.60991 1.09714 0.39226
 C358 C 0.63955 1.10347 0.41078
 C359 C 0.66272 1.12488 0.38805
 C360 C 0.65651 1.14018 0.34642
 C361 C 0.62661 1.13367 0.32814
 C362 C 0.60350 1.11230 0.35093
 C363 C 0.58603 1.07520 0.41563
 C364 C 0.56590 1.05691 0.43509
 H365 H 0.64478 1.09180 0.44274
 H366 H 0.68560 1.12899 0.40277
 H367 H 0.62097 1.14557 0.29643
 H368 H 0.58059 1.10771 0.33636
 C369 C 0.11111 0.40199 0.10358
 C370 C 0.12935 0.42280 0.13417
 C371 C 0.15265 0.40206 0.15726
 C372 C 0.15802 0.36018 0.15001
 C373 C 0.13967 0.33959 0.11901
 C374 C 0.11636 0.36038 0.09599
 C375 C 0.08688 0.42326 0.08022
 C376 C 0.06653 0.44105 0.06071
 H377 H 0.12554 0.45504 0.14022
 H378 H 0.16665 0.41886 0.18052
 H379 H 0.14295 0.30724 0.11313
 H380 H 0.10231 0.34396 0.07246
 C381 C 0.60979 0.90165 0.60574
 C382 C 0.62783 0.92261 0.63645
 C383 C 0.65139 0.90217 0.65933
 C384 C 0.65726 0.86045 0.65174
 C385 C 0.63907 0.83970 0.62066
 C386 C 0.61550 0.86020 0.59785
 C387 C 0.58547 0.92270 0.58231
 C388 C 0.56517 0.94037 0.56260
 H389 H 0.62368 0.95474 0.64270
 H390 H 0.66524 0.91909 0.68265
 H391 H 0.64273 0.80747 0.61452
 H392 H 0.60163 0.84366 0.57420
 C393 C 0.88923 0.09749 0.10670
 C394 C 0.88412 0.13902 0.09854
 C395 C 0.86076 0.16022 0.12107
 C396 C 0.84221 0.14011 0.15214
 C397 C 0.84743 0.09830 0.15995
 C398 C 0.87078 0.07716 0.13735
 C399 C 0.91351 0.07581 0.08382
 C400 C 0.93388 0.05769 0.06468
 H401 H 0.89833 0.15507 0.07495
 H402 H 0.85759 0.19250 0.11476
 H403 H 0.83327 0.08187 0.18326
 H404 H 0.87448 0.04498 0.14382
 C405 C 0.39248 0.59677 0.61436
 C406 C 0.39642 0.63845 0.62301
 C407 C 0.37349 0.65982 0.64620
 C408 C 0.34629 0.63973 0.66101
 C409 C 0.34264 0.59777 0.65232
 C410 C 0.36560 0.57646 0.62915
 C411 C 0.41588 0.57496 0.58994
 C412 C 0.43547 0.55684 0.56932
 H413 H 0.41710 0.65450 0.61158
 H414 H 0.37677 0.69221 0.65188
 H415 H 0.32215 0.58136 0.66375
 H416 H 0.36237 0.54417 0.62272
   
