data_POSCAR
  _audit_creation_date              2014-09-24
  _audit_creation_method            'ToBaCCo'
  _symmetry_space_group_name_H-M    'P1'
  _symmetry_Int_Tables_number       1
  _symmetry_cell_setting            triclinic
  loop_
  _symmetry_equiv_pos_as_xyz
 x,y,z
_cell_length_a 54.3672
_cell_length_b 52.5934
_cell_length_c 25.1180
_cell_angle_alpha 89.943900
_cell_angle_beta 90.009700
_cell_angle_gamma 119.561800
loop_
  _atom_site_label
  _atom_site_type_symbol
  _atom_site_fract_x
  _atom_site_fract_y
  _atom_site_fract_z
C1 C 0.48997 0.99463 0.47338
 C2 C 0.49225 0.99506 0.52744
 C3 C 0.48017 0.96778 0.55949
 C4 C 0.50688 1.02286 0.55780
 C5 C 0.50201 1.02195 0.44144
 C6 C 0.47555 0.96684 0.44286
 C7 C 0.45136 0.94714 0.55758
 C8 C 0.44042 0.92170 0.58842
 C9 C 0.45799 0.91609 0.62277
 C10 C 0.48708 0.93762 0.62428
 C11 C 0.49781 0.96293 0.59339
 C12 C 0.49218 1.02823 0.59806
 C13 C 0.50534 1.05418 0.62711
 C14 C 0.53359 1.07531 0.61669
 C15 C 0.54847 1.06968 0.57686
 C16 C 0.53525 1.04361 0.54780
 C17 C 0.52129 1.02627 0.40065
 C18 C 0.53299 1.05174 0.37010
 C19 C 0.52559 1.07346 0.37956
 C20 C 0.50588 1.06889 0.41993
 C21 C 0.49407 1.04328 0.45044
 C22 C 0.48395 0.94560 0.44715
 C23 C 0.47027 0.91980 0.41742
 C24 C 0.44820 0.91497 0.38230
 C25 C 0.44017 0.93653 0.37768
 C26 C 0.45372 0.96216 0.40759
 H27 H 0.43730 0.95064 0.53187
 H28 H 0.41830 0.90615 0.58271
 H29 H 0.50186 0.93628 0.65124
 H30 H 0.52009 0.97892 0.59610
 H31 H 0.47037 1.01235 0.60674
 H32 H 0.49349 1.05755 0.65826
 H33 H 0.54711 1.03963 0.51749
 H34 H 0.52743 1.00993 0.39271
 H35 H 0.54761 1.05427 0.33859
 H36 H 0.49983 1.08524 0.42833
 H37 H 0.47882 1.04011 0.48111
 H38 H 0.50114 0.94903 0.47334
 H39 H 0.47687 0.90359 0.42215
 H40 H 0.42371 0.93383 0.35020
 H41 H 0.44715 0.97844 0.40324
 H42 H 0.57021 1.08557 0.56778
 C43 C 0.00004 0.51330 0.47263
 C44 C -0.00011 0.51324 0.52690
 C45 C 0.02644 0.52572 0.55848
 C46 C -0.02686 0.50074 0.55790
 C47 C -0.02658 0.49948 0.44125
 C48 C 0.02679 0.52718 0.44152
 C49 C 0.04623 0.51620 0.55121
 C50 C 0.07099 0.52815 0.58163
 C51 C 0.07624 0.54957 0.62034
 C52 C 0.05612 0.55865 0.62798
 C53 C 0.03150 0.54682 0.59743
 C54 C -0.03218 0.47957 0.59697
 C55 C -0.05686 0.46795 0.62735
 C56 C -0.07677 0.47730 0.61943
 C57 C -0.07129 0.49872 0.58051
 C58 C -0.04647 0.51045 0.55024
 C59 C -0.03143 0.51611 0.40357
 C60 C -0.05620 0.50364 0.37343
 C61 C -0.07693 0.47389 0.37971
 C62 C -0.07152 0.45725 0.41747
 C63 C -0.04667 0.46989 0.44766
 C64 C 0.04737 0.55656 0.44945
 C65 C 0.07240 0.56914 0.41978
 C66 C 0.07716 0.55269 0.38112
 C67 C 0.05624 0.52346 0.37270
 C68 C 0.03134 0.51088 0.40253
 H69 H 0.04249 0.49953 0.52203
 H70 H 0.08612 0.52079 0.57457
 H71 H 0.05919 0.57462 0.65820
 H72 H 0.01635 0.55422 0.60406
 H73 H -0.01717 0.47203 0.60391
 H74 H -0.06012 0.45197 0.65773
 H75 H -0.04250 0.52720 0.52101
 H76 H -0.01593 0.53891 0.39747
 H77 H -0.05821 0.51736 0.34367
 H78 H -0.08677 0.43466 0.42557
 H79 H -0.04315 0.45658 0.47623
 H80 H 0.04404 0.56971 0.47862
 H81 H 0.08813 0.59166 0.42744
 H82 H 0.05893 0.51036 0.34248
 H83 H 0.01560 0.48828 0.39538
 H84 H -0.08625 0.50627 0.57323
 C85 C 0.50923 0.50413 0.47321
 C86 C 0.50760 0.50264 0.52738
 C87 C 0.49436 0.51680 0.55838
 C88 C 0.51905 0.48680 0.55863
 C89 C 0.52473 0.49224 0.44265
 C90 C 0.49558 0.51766 0.44147
 C91 C 0.50347 0.54666 0.55273
 C92 C 0.49090 0.55968 0.58242
 C93 C 0.46893 0.54322 0.61913
 C94 C 0.46030 0.51319 0.62471
 C95 C 0.47291 0.50030 0.59495
 C96 C 0.53868 0.50138 0.59914
 C97 C 0.54968 0.48693 0.62904
 C98 C 0.54115 0.45719 0.61966
 C99 C 0.52094 0.44262 0.57908
 C100 C 0.51004 0.45724 0.54915
 C101 C 0.51100 0.47242 0.40113
 C102 C 0.52530 0.46134 0.37144
 C103 C 0.55370 0.46993 0.38253
 C104 C 0.56752 0.49005 0.42386
 C105 C 0.55321 0.50123 0.45345
 C106 C 0.46673 0.50859 0.44738
 C107 C 0.45420 0.52134 0.41675
 C108 C 0.47020 0.54311 0.37904
 C109 C 0.49899 0.55180 0.37277
 C110 C 0.51151 0.53919 0.40361
 H111 H 0.52028 0.55990 0.52511
 H112 H 0.49798 0.58248 0.57472
 H113 H 0.44460 0.49951 0.65364
 H114 H 0.46587 0.47728 0.60049
 H115 H 0.54557 0.52412 0.60761
 H116 H 0.56400 0.49910 0.66096
 H117 H 0.49462 0.44548 0.51836
 H118 H 0.48913 0.46546 0.39180
 H119 H 0.51420 0.44637 0.33920
 H120 H 0.58933 0.49699 0.43357
 H121 H 0.56437 0.51695 0.48466
 H122 H 0.45389 0.49158 0.47559
 H123 H 0.43204 0.51428 0.42285
 H124 H 0.51179 0.56804 0.34335
 H125 H 0.53373 0.54627 0.39800
 H126 H 0.51409 0.42018 0.56860
 O127 O 0.36690 0.65633 -0.06459
 O128 O 0.36905 0.70636 -0.04757
 C129 C 0.35120 0.71107 -0.07215
 O130 O 0.32512 0.69791 -0.06072
 O131 O 0.27746 0.65034 -0.04238
 C132 C 0.27279 0.62771 -0.06871
 O133 O 0.28576 0.61368 -0.05979
 O134 O 0.33225 0.61140 -0.04584
 C135 C 0.35359 0.62906 -0.07325
 O136 O 0.36973 0.64862 0.04108
 O137 O 0.36954 0.69742 0.05804
 C138 C 0.35682 0.71143 0.06925
 O139 O 0.33467 0.70745 0.04486
 O140 O 0.28799 0.65866 0.06309
 C141 C 0.27456 0.63150 0.07290
 O142 O 0.27818 0.61302 0.04636
 O143 O 0.32597 0.61342 0.06023
 C144 C 0.35241 0.62658 0.06834
 Cr145 Cr 0.36722 0.67639 -0.00318
 Cr146 Cr 0.30709 0.67775 0.00116
 Cr147 Cr 0.30634 0.61451 0.00021
 O148 O 0.32689 0.65624 -0.00058
 O149 O 0.63289 0.33316 -0.06336
 O150 O 0.63104 0.28310 -0.04875
 C151 C 0.64899 0.27867 -0.07347
 O152 O 0.67501 0.29160 -0.06154
 O153 O 0.72242 0.33925 -0.04182
 C154 C 0.72710 0.36219 -0.06710
 O155 O 0.71413 0.37614 -0.05716
 O156 O 0.66740 0.37782 -0.04272
 C157 C 0.64630 0.36055 -0.07093
 O158 O 0.62954 0.33913 0.04271
 O159 O 0.62992 0.29023 0.05732
 C160 C 0.64299 0.27649 0.06809
 O161 O 0.66532 0.28104 0.04371
 O162 O 0.71175 0.32971 0.06351
 C163 C 0.72485 0.35672 0.07452
 O164 O 0.72110 0.37537 0.04886
 O165 O 0.67304 0.37440 0.06319
 C166 C 0.64654 0.36082 0.07091
 Cr167 Cr 0.63244 0.31221 -0.00291
 Cr168 Cr 0.69283 0.31124 0.00095
 Cr169 Cr 0.69312 0.37429 0.00295
 O170 O 0.67279 0.33255 0.00033
 C171 C 0.46537 0.88149 -0.32426
 C172 C 0.45480 0.85697 -0.29121
 C173 C 0.42609 0.84118 -0.27902
 C174 C 0.40774 0.84985 -0.30117
 C175 C 0.41813 0.87438 -0.33434
 C176 C 0.44742 0.89128 -0.34634
 N177 N 0.41635 0.81702 -0.24291
 N178 N 0.39045 0.80161 -0.22996
 C179 C 0.38098 0.77807 -0.19248
 C180 C 0.35222 0.76220 -0.17986
 C181 C 0.34244 0.74007 -0.14151
 C182 C 0.36138 0.73344 -0.11490
 C183 C 0.39024 0.74909 -0.12844
 C184 C 0.39996 0.77121 -0.16686
 H185 H 0.48761 0.89168 -0.33368
 H186 H 0.46914 0.85022 -0.27492
 H187 H 0.38537 0.83805 -0.29196
 H188 H 0.40293 0.88061 -0.34740
 H189 H 0.33739 0.76729 -0.19931
 H190 H 0.32008 0.72845 -0.13218
 H191 H 0.40539 0.74454 -0.10885
 H192 H 0.42233 0.78318 -0.17595
 C193 C 0.11630 0.59192 -0.33277
 C194 C 0.13992 0.60345 -0.29942
 C195 C 0.15013 0.58558 -0.27956
 C196 C 0.13663 0.55592 -0.29405
 C197 C 0.11290 0.54430 -0.32724
 C198 C 0.10228 0.56212 -0.34659
 N199 N 0.17354 0.59785 -0.24341
 N200 N 0.18477 0.58328 -0.22563
 C201 C 0.20752 0.59535 -0.18801
 C202 C 0.22006 0.57880 -0.17269
 C203 C 0.24158 0.58947 -0.13456
 C204 C 0.25078 0.61690 -0.11069
 C205 C 0.23830 0.63361 -0.12658
 C206 C 0.21691 0.62298 -0.16498
 H207 H 0.10898 0.60635 -0.34770
 H208 H 0.15019 0.62635 -0.28865
 H209 H 0.14407 0.54162 -0.27897
 H210 H 0.10241 0.52121 -0.33656
 H211 H 0.21296 0.55746 -0.19006
 H212 H 0.25069 0.57602 -0.12321
 H213 H 0.24495 0.65485 -0.10916
 H214 H 0.20750 0.63617 -0.17609
 C215 C 0.47076 0.58667 -0.33869
 C216 C 0.45854 0.59922 -0.30674
 C217 C 0.43155 0.58210 -0.28532
 C218 C 0.41653 0.55216 -0.29703
 C219 C 0.42861 0.53948 -0.32894
 C220 C 0.45620 0.55636 -0.35005
 N221 N 0.42026 0.59540 -0.25058
 N222 N 0.39629 0.58067 -0.22810
 C223 C 0.38523 0.59362 -0.19203
 C224 C 0.35953 0.57564 -0.16643
 C225 C 0.34892 0.58720 -0.12859
 C226 C 0.36388 0.61713 -0.11582
 C227 C 0.38937 0.63530 -0.14269
 C228 C 0.40000 0.62365 -0.18037
 H229 H 0.49221 0.60079 -0.35193
 H230 H 0.47043 0.62234 -0.29768
 H231 H 0.39543 0.53847 -0.28143
 H232 H 0.41567 0.51652 -0.33802
 H233 H 0.34795 0.55246 -0.17512
 H234 H 0.32920 0.57260 -0.10884
 H235 H 0.40143 0.65843 -0.13387
 H236 H 0.41991 0.63802 -0.19974
 C237 C 0.53215 0.11711 -0.33825
 C238 C 0.54439 0.14198 -0.30608
 C239 C 0.57203 0.15319 -0.28730
 C240 C 0.58766 0.13954 -0.30202
 C241 C 0.57541 0.11458 -0.33416
 C242 C 0.54736 0.10285 -0.35205
 N243 N 0.58312 0.17754 -0.25155
 N244 N 0.60824 0.18943 -0.23352
 C245 C 0.61850 0.21293 -0.19590
 C246 C 0.64662 0.22583 -0.17888
 C247 C 0.65680 0.24768 -0.13996
 C248 C 0.63884 0.25685 -0.11707
 C249 C 0.61073 0.24420 -0.13503
 C250 C 0.60066 0.22249 -0.17411
 H251 H 0.51069 0.10894 -0.35213
 H252 H 0.53217 0.15235 -0.29511
 H253 H 0.60906 0.14776 -0.28779
 H254 H 0.58757 0.10395 -0.34365
 H255 H 0.66057 0.21863 -0.19528
 H256 H 0.67854 0.25694 -0.12704
 H257 H 0.59636 0.25081 -0.11846
 H258 H 0.57881 0.21285 -0.18655
 C259 C 0.88684 0.48312 -0.32834
 C260 C 0.86320 0.47179 -0.29487
 C261 C 0.84959 0.44234 -0.27979
 C262 C 0.85945 0.42405 -0.29972
 C263 C 0.88296 0.43529 -0.33335
 C264 C 0.89719 0.46505 -0.34749
 N265 N 0.82644 0.43175 -0.24306
 N266 N 0.81495 0.40589 -0.22438
 C267 C 0.79224 0.39513 -0.18671
 C268 C 0.78247 0.36731 -0.16488
 C269 C 0.76117 0.35651 -0.12635
 C270 C 0.74908 0.37336 -0.10918
 C271 C 0.75858 0.40112 -0.13197
 C272 C 0.78006 0.41198 -0.17028
 H273 H 0.89747 0.50619 -0.33796
 H274 H 0.85583 0.48612 -0.27972
 H275 H 0.84917 0.40113 -0.28899
 H276 H 0.89005 0.42067 -0.34821
 H277 H 0.79169 0.35412 -0.17728
 H278 H 0.75426 0.33499 -0.10988
 H279 H 0.74973 0.41466 -0.11964
 H280 H 0.78725 0.43355 -0.18669
 C281 C 0.53714 0.41181 -0.34228
 C282 C 0.54783 0.39772 -0.31026
 C283 C 0.57395 0.41366 -0.28493
 C284 C 0.58962 0.44399 -0.29268
 C285 C 0.57904 0.45818 -0.32447
 C286 C 0.55235 0.44250 -0.34956
 N287 N 0.58374 0.39883 -0.25035
 N288 N 0.60714 0.41257 -0.22561
 C289 C 0.61709 0.39857 -0.18949
 C290 C 0.64258 0.41575 -0.16275
 C291 C 0.65230 0.40330 -0.12498
 C292 C 0.63664 0.37326 -0.11328
 C293 C 0.61131 0.35587 -0.14117
 C294 C 0.60156 0.36843 -0.17891
 H295 H 0.51626 0.39851 -0.35884
 H296 H 0.53543 0.37431 -0.30433
 H297 H 0.61008 0.45683 -0.27402
 H298 H 0.59247 0.48143 -0.33033
 H299 H 0.65472 0.43900 -0.17062
 H300 H 0.67194 0.41733 -0.10449
 H301 H 0.59875 0.33267 -0.13315
 H302 H 0.58178 0.35470 -0.19917
 C303 C 0.88729 0.47868 0.32659
 C304 C 0.86333 0.46652 0.29414
 C305 C 0.84917 0.43671 0.28261
 C306 C 0.85890 0.41883 0.30490
 C307 C 0.88288 0.43088 0.33755
 C308 C 0.89791 0.46122 0.34852
 N309 N 0.82565 0.42550 0.24676
 N310 N 0.81169 0.39866 0.23376
 C311 C 0.78889 0.38824 0.19624
 C312 C 0.77443 0.35855 0.18287
 C313 C 0.75317 0.34808 0.14415
 C314 C 0.74608 0.36726 0.11796
 C315 C 0.76026 0.39697 0.13239
 C316 C 0.78144 0.40736 0.17111
 H317 H 0.89679 0.50174 0.33537
 H318 H 0.85583 0.48049 0.27761
 H319 H 0.84835 0.39567 0.29623
 H320 H 0.89020 0.41633 0.35159
 H321 H 0.77998 0.34359 0.20192
 H322 H 0.74268 0.32508 0.13405
 H323 H 0.75529 0.41234 0.11323
 H324 H 0.79226 0.43042 0.18075
 C325 C 0.52182 0.11275 0.32908
 C326 C 0.53358 0.13736 0.29594
 C327 C 0.56186 0.15012 0.27992
 C328 C 0.57857 0.13842 0.29853
 C329 C 0.56691 0.11393 0.33176
 C330 C 0.53829 0.10055 0.34685
 N331 N 0.57289 0.17428 0.24355
 N332 N 0.59779 0.18523 0.22463
 C333 C 0.60900 0.20888 0.18725
 C334 C 0.63580 0.21814 0.16562
 C335 C 0.64697 0.24028 0.12730
 C336 C 0.63150 0.25372 0.11009
 C337 C 0.60476 0.24473 0.13269
 C338 C 0.59355 0.22243 0.17083
 H339 H 0.49966 0.10281 0.33954
 H340 H 0.52046 0.14615 0.28180
 H341 H 0.60057 0.14801 0.28706
 H342 H 0.58030 0.10542 0.34558
 H343 H 0.64790 0.20786 0.17801
 H344 H 0.66767 0.24673 0.11097
 H345 H 0.59229 0.25462 0.12036
 H346 H 0.57277 0.21566 0.18708
 C347 C 0.59707 0.47644 0.33461
 C348 C 0.61073 0.46567 0.30206
 C349 C 0.59645 0.43665 0.28455
 C350 C 0.56844 0.41819 0.30109
 C351 C 0.55481 0.42887 0.33377
 C352 C 0.56882 0.45823 0.35035
 N353 N 0.61040 0.42671 0.24867
 N354 N 0.59759 0.40128 0.22821
 C355 C 0.61083 0.39115 0.19111
 C356 C 0.59441 0.36390 0.16710
 C357 C 0.60610 0.35388 0.12858
 C358 C 0.63463 0.37096 0.11360
 C359 C 0.65131 0.39807 0.13877
 C360 C 0.63948 0.40816 0.17707
 H361 H 0.60836 0.49922 0.34621
 H362 H 0.63229 0.48013 0.28950
 H363 H 0.55698 0.39560 0.28841
 H364 H 0.53324 0.41414 0.34599
 H365 H 0.57232 0.35060 0.17766
 H366 H 0.59271 0.33283 0.11027
 H367 H 0.67333 0.41175 0.12813
 H368 H 0.65261 0.42931 0.19522
 C369 C 0.11554 0.59489 0.33038
 C370 C 0.13963 0.60680 0.29809
 C371 C 0.15212 0.59006 0.28361
 C372 C 0.14060 0.56134 0.30287
 C373 C 0.11661 0.54945 0.33537
 C374 C 0.10357 0.56595 0.34898
 N375 N 0.17580 0.60236 0.24803
 N376 N 0.18656 0.58744 0.22983
 C377 C 0.20973 0.59938 0.19308
 C378 C 0.21853 0.58085 0.17064
 C379 C 0.23993 0.59134 0.13225
 C380 C 0.25308 0.62075 0.11589
 C381 C 0.24471 0.63951 0.13964
 C382 C 0.22316 0.62891 0.17774
 H383 H 0.10586 0.60807 0.33957
 H384 H 0.14827 0.62894 0.28338
 H385 H 0.14997 0.54801 0.29253
 H386 H 0.10826 0.52730 0.34982
 H387 H 0.20836 0.55805 0.18220
 H388 H 0.24594 0.57634 0.11497
 H389 H 0.25438 0.66226 0.12797
 H390 H 0.21678 0.64369 0.19465
 C391 C 0.40475 0.87445 0.33941
 C392 C 0.39164 0.85003 0.30620
 C393 C 0.40734 0.83847 0.28286
 C394 C 0.43643 0.85143 0.29371
 C395 C 0.44962 0.87598 0.32669
 C396 C 0.43398 0.88796 0.34955
 N397 N 0.39351 0.81433 0.24693
 N398 N 0.40618 0.80176 0.22671
 C399 C 0.39279 0.77835 0.18921
 C400 C 0.40742 0.76430 0.17162
 C401 C 0.39554 0.74221 0.13338
 C402 C 0.36877 0.73392 0.11161
 C403 C 0.35396 0.74787 0.12982
 C404 C 0.36582 0.76984 0.16840
 H405 H 0.39199 0.88280 0.35709
 H406 H 0.36920 0.84019 0.29826
 H407 H 0.44907 0.84298 0.27589
 H408 H 0.47220 0.88605 0.33305
 H409 H 0.42824 0.77071 0.18728
 H410 H 0.40756 0.73199 0.12024
 H411 H 0.33328 0.74196 0.11403
 H412 H 0.35412 0.78045 0.18131
 C413 C 0.47194 0.58626 0.33234
 C414 C 0.45994 0.59846 0.29891
 C415 C 0.43271 0.58118 0.27845
 C416 C 0.41735 0.55143 0.29225
 C417 C 0.42938 0.53915 0.32543
 C418 C 0.45691 0.55638 0.34557
 N419 N 0.42158 0.59412 0.24248
 N420 N 0.39637 0.58019 0.22493
 C421 C 0.38559 0.59281 0.18748
 C422 C 0.35710 0.57702 0.17281
 C423 C 0.34616 0.58819 0.13480
 C424 C 0.36369 0.61535 0.11038
 C425 C 0.39227 0.63131 0.12564
 C426 C 0.40312 0.62019 0.16395
 H427 H 0.49298 0.60026 0.34786
 H428 H 0.47197 0.62142 0.28865
 H429 H 0.39630 0.53758 0.27665
 H430 H 0.41738 0.51600 0.33419
 H431 H 0.34340 0.55588 0.19058
 H432 H 0.32408 0.57530 0.12393
 H433 H 0.40632 0.65233 0.10778
 H434 H 0.42526 0.63280 0.17456
   
