data_POSCAR
  _audit_creation_date              2014-09-24
  _audit_creation_method            'ToBaCCo'
  _symmetry_space_group_name_H-M    'P1'
  _symmetry_Int_Tables_number       1
  _symmetry_cell_setting            triclinic
  loop_
  _symmetry_equiv_pos_as_xyz
 x,y,z
_cell_length_a 19.0227
_cell_length_b 19.1297
_cell_length_c 18.8384
_cell_angle_alpha 89.849900
_cell_angle_beta 89.987200
_cell_angle_gamma 90.042500
loop_
  _atom_site_label
  _atom_site_type_symbol
  _atom_site_fract_x
  _atom_site_fract_y
  _atom_site_fract_z
N1 N 0.56293 0.14609 0.04778
 N2 N 0.61191 0.18600 0.07568
 N3 N 0.41721 0.13760 -0.02250
 N4 N 0.36876 0.18268 -0.04419
 N5 N 0.41689 0.13403 0.04715
 N6 N 0.36878 0.17533 0.07448
 N7 N 0.56607 0.14664 -0.02185
 N8 N 0.61811 0.18773 -0.04320
 C9 C 0.64602 0.21163 0.01880
 C10 C 0.33848 0.20478 0.01738
 N11 N 0.43016 -0.03952 -0.13141
 N12 N 0.38359 -0.06751 -0.17498
 N13 N 0.57327 0.03907 -0.13247
 N14 N 0.61844 0.06631 -0.17832
 N15 N 0.57847 -0.02959 -0.13140
 N16 N 0.63045 -0.05074 -0.17934
 N17 N 0.42518 0.02920 -0.13240
 N18 N 0.37503 0.04928 -0.17679
 Mn19 Mn 0.49545 0.08889 -0.07817
 C20 C 0.34910 -0.01175 -0.20256
 C21 C 0.65351 0.01108 -0.20644
 N22 N 0.42496 0.02869 0.15324
 N23 N 0.36919 0.04819 0.18948
 N24 N 0.57830 -0.02624 0.15420
 N25 N 0.63266 -0.04530 0.19304
 N26 N 0.57152 0.04175 0.15359
 N27 N 0.62422 0.07236 0.19397
 N28 N 0.43168 -0.03936 0.15435
 N29 N 0.38072 -0.06860 0.19119
 Mn30 Mn 0.49386 0.08784 0.10065
 C31 C 0.34228 -0.01331 0.21243
 C32 C 0.66014 0.01578 0.21681
 N33 N 0.58594 -0.13665 -0.02015
 N34 N 0.63431 -0.18174 -0.04152
 N35 N 0.44025 -0.14502 0.05021
 N36 N 0.39153 -0.18520 0.07853
 N37 N 0.43715 -0.14601 -0.01941
 N38 N 0.38542 -0.18761 -0.04030
 N39 N 0.58635 -0.13273 0.04946
 N40 N 0.63445 -0.17398 0.07712
 Mn41 Mn 0.50787 -0.08867 -0.07649
 Mn42 Mn 0.50939 -0.08607 0.10229
 Cl43 Cl 0.50163 0.00049 0.01129
 C44 C 0.66462 -0.20360 0.02015
 C45 C 0.35758 -0.21141 0.02191
 N46 N 0.14749 0.43532 0.01998
 N47 N 0.18868 0.38327 0.04080
 N48 N 0.13584 0.58416 -0.04799
 N49 N 0.17753 0.63218 -0.07513
 N50 N 0.13919 0.58350 0.02167
 N51 N 0.18447 0.63158 0.04357
 N52 N 0.14665 0.43882 -0.04965
 N53 N 0.18655 0.39020 -0.07801
 C54 C 0.21241 0.35579 -0.02147
 C55 C 0.20698 0.66200 -0.01786
 N56 N -0.03898 0.57210 -0.15424
 N57 N -0.06792 0.62248 -0.19198
 N58 N 0.04092 0.43193 -0.15503
 N59 N 0.06975 0.38118 -0.19203
 N60 N -0.02762 0.42624 -0.15478
 N61 N -0.04787 0.37145 -0.19162
 N62 N 0.02949 0.57786 -0.15356
 N63 N 0.04994 0.63569 -0.19330
 Mn64 Mn 0.08847 0.50838 -0.10180
 C65 C -0.01294 0.66087 -0.21544
 C66 C 0.01364 0.34399 -0.21418
 N67 N 0.03016 0.57535 0.13234
 N68 N 0.05036 0.62484 0.17712
 N69 N -0.02966 0.42328 0.13100
 N70 N -0.05063 0.37351 0.17531
 N71 N 0.03947 0.42793 0.13092
 N72 N 0.06685 0.38148 0.17502
 N73 N -0.03896 0.57049 0.13153
 N74 N -0.06709 0.61637 0.17544
 Mn75 Mn 0.08987 0.50555 0.07712
 C76 C -0.01110 0.65040 0.20319
 C77 C 0.01031 0.34740 0.20195
 N78 N -0.13411 0.41791 -0.04984
 N79 N -0.17522 0.36998 -0.07775
 N80 N -0.14597 0.56522 0.02024
 N81 N -0.18694 0.61700 0.04179
 N82 N -0.14488 0.56314 -0.04940
 N83 N -0.18441 0.61250 -0.07713
 N84 N -0.13751 0.41716 0.01978
 N85 N -0.18217 0.36817 0.04097
 Mn86 Mn -0.08661 0.49469 -0.10228
 Mn87 Mn -0.08877 0.49400 0.07647
 Cl88 Cl 0.00080 0.50065 -0.01183
 C89 C -0.20430 0.33876 -0.02090
 C90 C -0.21028 0.64580 -0.02011
 N91 N 0.01183 0.14383 0.42527
 N92 N 0.03024 0.18931 0.37557
 N93 N -0.05660 0.13316 0.57441
 N94 N -0.08624 0.16931 0.62582
 N95 N 0.01179 0.14223 0.57440
 N96 N 0.03079 0.18461 0.62569
 N97 N -0.05654 0.13407 0.42499
 N98 N -0.08633 0.17293 0.37510
 C99 C -0.03149 0.20675 0.34418
 C100 C -0.03083 0.20060 0.65743
 N101 N -0.13796 -0.05499 0.57690
 N102 N -0.17689 -0.08475 0.62680
 N103 N -0.14670 0.01228 0.42706
 N104 N -0.18893 0.03070 0.37507
 N105 N -0.13733 -0.05571 0.42756
 N106 N -0.17302 -0.08560 0.37587
 N107 N -0.14791 0.01299 0.57636
 N108 N -0.19370 0.03115 0.62598
 Mn109 Mn -0.10261 0.07357 0.50063
 C110 C -0.21112 -0.03040 0.65742
 C111 C -0.20465 -0.03087 0.34365
 N112 N 0.13383 0.05299 0.57565
 N113 N 0.17299 0.08274 0.62520
 N114 N 0.14155 -0.01445 0.42620
 N115 N 0.18341 -0.03292 0.37403
 N116 N 0.13223 0.05349 0.42640
 N117 N 0.16757 0.08338 0.37436
 N118 N 0.14371 -0.01494 0.57542
 N119 N 0.18966 -0.03314 0.62485
 Mn120 Mn 0.07282 0.09873 0.50051
 C121 C 0.20717 0.02832 0.65598
 C122 C 0.19872 0.02862 0.34211
 N123 N -0.01636 -0.14623 0.42619
 N124 N -0.03439 -0.19197 0.37677
 N125 N 0.05285 -0.13480 0.57487
 N126 N 0.08338 -0.16993 0.62658
 N127 N -0.01545 -0.14454 0.57558
 N128 N -0.03349 -0.18674 0.62775
 N129 N 0.05193 -0.13600 0.42568
 N130 N 0.08204 -0.17461 0.37607
 Mn131 Mn -0.07725 -0.10102 0.50164
 Mn132 Mn 0.09810 -0.07546 0.50046
 Cl133 Cl -0.00230 -0.00106 0.50082
 C134 C 0.02758 -0.20891 0.34545
 C135 C 0.02876 -0.20179 0.65902
 C136 C -0.29511 0.26075 0.02652
 C137 C -0.25925 0.28528 -0.02860
 H138 H -0.28203 0.27812 0.07962
 H139 H -0.27237 0.26806 -0.08173
 C140 C 0.29878 0.73913 0.02995
 C141 C 0.26245 0.71522 -0.02509
 H142 H 0.28589 0.72134 0.08305
 H143 H 0.27539 0.73309 -0.07814
 C144 C 0.28525 0.26006 0.02497
 C145 C 0.26153 0.29696 -0.02978
 H146 H 0.26743 0.27251 0.07810
 H147 H 0.27934 0.28459 -0.08293
 C148 C -0.28248 0.74093 0.02763
 C149 C -0.25900 0.70489 -0.02759
 H150 H -0.26475 0.72771 0.08065
 H151 H -0.27669 0.71822 -0.08060
 C152 C -0.01829 -0.29478 0.25843
 C153 C 0.03635 -0.26123 0.28787
 H154 H -0.07106 -0.28258 0.27611
 H155 H 0.08922 -0.27290 0.27017
 C156 C 0.01940 0.28441 0.73861
 C157 C -0.03742 0.25186 0.71393
 H158 H 0.07150 0.27001 0.72055
 H159 H -0.08960 0.26614 0.73184
 C160 C 0.01620 0.29216 0.25723
 C161 C -0.03924 0.25922 0.28628
 H162 H 0.06864 0.27924 0.27541
 H163 H -0.09181 0.27163 0.26817
 C164 C -0.02065 -0.28490 0.74131
 C165 C 0.03684 -0.24877 0.71407
 H166 H -0.07343 -0.27124 0.72448
 H167 H 0.08967 -0.26010 0.73238
 C168 C 0.29350 -0.01843 0.74257
 C169 C 0.26005 0.03639 0.71345
 H170 H 0.28074 -0.07074 0.72482
 H171 H 0.27235 0.08879 0.73121
 C172 C -0.28586 0.02074 0.26097
 C173 C -0.25175 -0.03774 0.28830
 H174 H -0.27062 0.07258 0.27844
 H175 H -0.26439 -0.08979 0.26953
 C176 C 0.28238 -0.01996 0.25965
 C177 C 0.24939 0.03600 0.28481
 H178 H 0.26851 -0.07201 0.27774
 H179 H 0.26323 0.08813 0.26699
 C180 C -0.29658 0.01818 0.74307
 C181 C -0.26044 -0.03837 0.71252
 H182 H -0.28440 0.07059 0.72482
 H183 H -0.27116 -0.09093 0.73124
   
