data_POSCAR
  _audit_creation_date              2014-09-24
  _audit_creation_method            'ToBaCCo'
  _symmetry_space_group_name_H-M    'P1'
  _symmetry_Int_Tables_number       1
  _symmetry_cell_setting            triclinic
  loop_
  _symmetry_equiv_pos_as_xyz
 x,y,z
_cell_length_a 58.9837
_cell_length_b 58.9757
_cell_length_c 58.9162
_cell_angle_alpha 90.292600
_cell_angle_beta 90.444000
_cell_angle_gamma 90.461300
loop_
  _atom_site_label
  _atom_site_type_symbol
  _atom_site_fract_x
  _atom_site_fract_y
  _atom_site_fract_z
C1 C 0.73076 0.66062 0.97030
 H2 H 0.74822 0.66094 0.96483
 C3 C 0.71427 0.67245 0.95806
 H4 H 0.71904 0.68205 0.94319
 C5 C 0.70285 0.64662 0.99551
 H6 H 0.69825 0.63598 1.00961
 C7 C 0.68591 0.65821 0.98382
 H8 H 0.66844 0.65661 0.98917
 N9 N 0.72478 0.64790 0.98857
 C10 C 0.78531 0.63395 1.02898
 H11 H 0.78297 0.61581 1.03055
 C12 C 0.80378 0.64459 1.03952
 H13 H 0.81574 0.63463 1.04923
 C14 C 0.77267 0.66904 1.01419
 H15 H 0.76046 0.67844 1.00432
 C16 C 0.79102 0.68039 1.02448
 H17 H 0.79301 0.69854 1.02244
 Zn18 Zn 0.74681 0.62914 1.00237
 N19 N 0.77040 0.64616 1.01636
 C20 C 0.78164 0.61109 0.97499
 N21 N 0.75899 0.61050 0.97927
 C22 C 0.74453 0.59768 0.96633
 C23 C 0.75279 0.58454 0.94844
 C24 C 0.79057 0.59822 0.95730
 C25 C 0.72572 0.62276 1.04398
 C26 C 0.71532 0.61103 1.06163
 C27 C 0.72105 0.57603 1.04094
 C28 C 0.73136 0.58846 1.02365
 N29 N 0.73320 0.61143 1.02535
 H30 H 0.79281 0.62180 0.98501
 H31 H 0.72655 0.59786 0.96981
 H32 H 0.74118 0.57445 0.93815
 H33 H 0.80860 0.59890 0.95395
 H34 H 0.72769 0.64099 1.04499
 H35 H 0.70924 0.62032 1.07627
 H36 H 0.71950 0.55776 1.03934
 H37 H 0.73783 0.57973 1.00894
 C38 C 0.80679 0.66797 1.03712
 C39 C 0.69160 0.67100 0.96477
 C40 C 0.71284 0.58745 1.06006
 C41 C 0.77603 0.58487 0.94390
 C42 C 0.73600 0.34462 0.52293
 H43 H 0.75348 0.34355 0.52849
 C44 C 0.71912 0.33257 0.53442
 H45 H 0.72360 0.32208 0.54878
 C46 C 0.70851 0.36061 0.49830
 H47 H 0.70425 0.37209 0.48475
 C48 C 0.69118 0.34886 0.50925
 H49 H 0.67375 0.35116 0.50388
 N50 N 0.73042 0.35841 0.50531
 C51 C 0.79161 0.37245 0.46648
 H52 H 0.79044 0.39074 0.46607
 C53 C 0.80925 0.36162 0.45529
 H54 H 0.82176 0.37158 0.44627
 C55 C 0.77672 0.33713 0.47874
 H56 H 0.76390 0.32770 0.48779
 C57 C 0.79417 0.32557 0.46775
 H58 H 0.79487 0.30724 0.46845
 Zn59 Zn 0.75317 0.37722 0.49262
 N60 N 0.77596 0.36019 0.47812
 C61 C 0.78866 0.39350 0.52131
 N62 N 0.76605 0.39456 0.51667
 C63 C 0.75193 0.40704 0.52985
 C64 C 0.76052 0.41941 0.54834
 C65 C 0.79793 0.40560 0.53962
 C66 C 0.73205 0.38596 0.45117
 C67 C 0.72185 0.39873 0.43409
 C68 C 0.72921 0.43258 0.45634
 C69 C 0.73929 0.41917 0.47304
 N70 N 0.74019 0.39625 0.47032
 H71 H 0.79954 0.38305 0.51105
 H72 H 0.73395 0.40725 0.52605
 H73 H 0.74917 0.42929 0.55878
 H74 H 0.81593 0.40461 0.54324
 H75 H 0.73326 0.36775 0.44935
 H76 H 0.71515 0.39035 0.41904
 H77 H 0.72830 0.45078 0.45869
 H78 H 0.74628 0.42708 0.48814
 C79 C 0.81063 0.33799 0.45601
 C80 C 0.69648 0.33493 0.52763
 C81 C 0.72029 0.42222 0.43677
 C82 C 0.78373 0.41865 0.55325
 C83 C 0.23584 -0.15508 0.02284
 H84 H 0.25334 -0.15613 0.02834
 C85 C 0.21901 -0.16716 0.03436
 H86 H 0.22354 -0.17767 0.04870
 C87 C 0.20826 -0.13911 -0.00170
 H88 H 0.20395 -0.12762 -0.01523
 C89 C 0.19098 -0.15089 0.00929
 H90 H 0.17352 -0.14861 0.00396
 N91 N 0.23019 -0.14129 0.00525
 C92 C 0.29121 -0.12722 -0.03384
 H93 H 0.29000 -0.10893 -0.03426
 C94 C 0.30883 -0.13804 -0.04507
 H95 H 0.32129 -0.12807 -0.05414
 C96 C 0.27643 -0.16255 -0.02146
 H97 H 0.26367 -0.17198 -0.01234
 C98 C 0.29387 -0.17409 -0.03250
 H99 H 0.29461 -0.19242 -0.03175
 Zn100 Zn 0.25288 -0.12247 -0.00755
 N101 N 0.27563 -0.13949 -0.02212
 C102 C 0.28847 -0.10614 0.02097
 N103 N 0.26583 -0.10508 0.01643
 C104 C 0.25177 -0.09257 0.02965
 C105 C 0.26044 -0.08016 0.04808
 C106 C 0.29782 -0.09399 0.03921
 C107 C 0.23162 -0.11382 -0.04893
 C108 C 0.22136 -0.10111 -0.06602
 C109 C 0.22875 -0.06717 -0.04384
 C110 C 0.23889 -0.08056 -0.02715
 N111 N 0.23980 -0.10348 -0.02983
 H112 H 0.29930 -0.11660 0.01068
 H113 H 0.23378 -0.09237 0.02592
 H114 H 0.24914 -0.07026 0.05854
 H115 H 0.31583 -0.09498 0.04275
 H116 H 0.23284 -0.13203 -0.05072
 H117 H 0.21465 -0.10963 -0.08101
 H118 H 0.22789 -0.04896 -0.04143
 H119 H 0.24591 -0.07262 -0.01209
 C120 C 0.31026 -0.16166 -0.04431
 C121 C 0.19635 -0.16483 0.02763
 C122 C 0.21977 -0.07758 -0.06340
 C123 C 0.28368 -0.08091 0.05288
 C124 C 0.23135 0.16051 0.47020
 H125 H 0.24881 0.16101 0.46470
 C126 C 0.21476 0.17232 0.45807
 H127 H 0.21944 0.18206 0.44327
 C128 C 0.20358 0.14612 0.49534
 H129 H 0.19907 0.13533 0.50936
 C130 C 0.18654 0.15767 0.48376
 H131 H 0.16908 0.15591 0.48912
 N132 N 0.22549 0.14761 0.48837
 C133 C 0.28622 0.13377 0.52852
 H134 H 0.28402 0.11560 0.52992
 C135 C 0.30462 0.14445 0.53914
 H136 H 0.31667 0.13449 0.54873
 C137 C 0.27327 0.16890 0.51410
 H138 H 0.26097 0.17830 0.50435
 C139 C 0.29155 0.18030 0.52448
 H140 H 0.29338 0.19849 0.52262
 Zn141 Zn 0.24768 0.12890 0.50200
 N142 N 0.27119 0.14598 0.51605
 C143 C 0.28255 0.11128 0.47440
 N144 N 0.25992 0.11049 0.47875
 C145 C 0.24551 0.09763 0.46580
 C146 C 0.25381 0.08461 0.44784
 C147 C 0.29152 0.09854 0.45663
 C148 C 0.22671 0.12210 0.54362
 C149 C 0.21651 0.11015 0.56124
 C150 C 0.22252 0.07536 0.54036
 C151 C 0.23263 0.08798 0.52309
 N152 N 0.23425 0.11096 0.52490
 H153 H 0.29367 0.12202 0.48442
 H154 H 0.22754 0.09765 0.46935
 H155 H 0.24225 0.07446 0.43756
 H156 H 0.30954 0.09935 0.45324
 H157 H 0.22849 0.14035 0.54474
 H158 H 0.21037 0.11919 0.57600
 H159 H 0.22113 0.05709 0.53877
 H160 H 0.23915 0.07939 0.50832
 C161 C 0.30743 0.16788 0.53697
 C162 C 0.19211 0.17065 0.46480
 C163 C 0.21430 0.08659 0.55954
 C164 C 0.27704 0.08512 0.44323
 C165 C 0.16126 0.47044 0.23140
 H166 H 0.16167 0.46505 0.24892
 C167 C 0.17305 0.45819 0.21493
 H168 H 0.18270 0.44340 0.21978
 C169 C 0.14708 0.49540 0.20331
 H170 H 0.13636 0.50939 0.19864
 C171 C 0.15862 0.48370 0.18640
 H172 H 0.15693 0.48893 0.16887
 N173 N 0.14846 0.48857 0.22532
 C174 C 0.13437 0.52906 0.28568
 H175 H 0.11622 0.53043 0.28336
 C176 C 0.14497 0.53978 0.30407
 H177 H 0.13497 0.54944 0.31599
 C178 C 0.16953 0.51457 0.27306
 H179 H 0.17898 0.50475 0.26088
 C180 C 0.18085 0.52505 0.29133
 H181 H 0.19902 0.52320 0.29329
 Zn182 Zn 0.12967 0.50229 0.24733
 N183 N 0.14664 0.51650 0.27082
 C184 C 0.11178 0.47491 0.28239
 N185 N 0.11118 0.47910 0.25969
 C186 C 0.09845 0.46602 0.24529
 C187 C 0.08539 0.44808 0.25365
 C188 C 0.09899 0.45717 0.29144
 C189 C 0.12299 0.54371 0.22592
 C190 C 0.11110 0.56118 0.21543
 C191 C 0.07628 0.54023 0.22143
 C192 C 0.08884 0.52311 0.23183
 N193 N 0.11181 0.52502 0.23359
 H194 H 0.12242 0.48505 0.29352
 H195 H 0.09862 0.46945 0.22727
 H196 H 0.07536 0.43769 0.24209
 H197 H 0.09965 0.45390 0.30951
 H198 H 0.14122 0.54490 0.22782
 H199 H 0.12017 0.57589 0.20918
 H200 H 0.05803 0.53856 0.21991
 H201 H 0.08021 0.50837 0.23845
 C202 C 0.16837 0.53763 0.30704
 C203 C 0.17148 0.46477 0.19219
 C204 C 0.08756 0.55936 0.21306
 C205 C 0.08571 0.44363 0.27695
 C206 C -0.15614 0.02314 0.23528
 H207 H -0.15707 0.02873 0.25276
 C208 C -0.16820 0.03463 0.21839
 H209 H -0.17856 0.04903 0.22292
 C210 C -0.14045 -0.00158 0.20778
 H211 H -0.12908 -0.01516 0.20352
 C212 C -0.15222 0.00936 0.19044
 H213 H -0.15000 0.00390 0.17301
 N214 N -0.14249 0.00549 0.22970
 C215 C -0.12814 -0.03326 0.29099
 H216 H -0.10987 -0.03368 0.28964
 C217 C -0.13886 -0.04442 0.30877
 H218 H -0.12882 -0.05345 0.32122
 C219 C -0.16355 -0.02095 0.27639
 H220 H -0.17305 -0.01189 0.26362
 C221 C -0.17498 -0.03193 0.29399
 H222 H -0.19330 -0.03120 0.29487
 Zn223 Zn -0.12359 -0.00718 0.25240
 N224 N -0.14050 -0.02161 0.27541
 C225 C -0.10696 0.02149 0.28771
 N226 N -0.10605 0.01683 0.26507
 C227 C -0.09358 0.02996 0.25081
 C228 C -0.08109 0.04842 0.25927
 C229 C -0.09473 0.03977 0.29685
 C230 C -0.11522 -0.04867 0.23147
 C231 C -0.10262 -0.06584 0.22134
 C232 C -0.06859 -0.04369 0.22828
 C233 C -0.08184 -0.02689 0.23830
 N234 N -0.10476 -0.02952 0.23939
 H235 H -0.11740 0.01127 0.29869
 H236 H -0.09350 0.02614 0.23283
 H237 H -0.07124 0.05882 0.24782
 H238 H -0.09561 0.04340 0.31486
 H239 H -0.13342 -0.05043 0.23283
 H240 H -0.11113 -0.08090 0.21484
 H241 H -0.05038 -0.04141 0.22725
 H242 H -0.07379 -0.01179 0.24512
 C243 C -0.16246 -0.04368 0.31037
 C244 C -0.16600 0.02780 0.19572
 C245 C -0.07913 -0.06326 0.21961
 C246 C -0.08170 0.05335 0.28250
 C247 C 0.34353 0.52279 0.73609
 H248 H 0.34258 0.52832 0.75360
 C249 C 0.33140 0.53428 0.71926
 H250 H 0.32096 0.54860 0.72379
 C251 C 0.35934 0.49828 0.70849
 H252 H 0.37079 0.48478 0.70417
 C253 C 0.34750 0.50922 0.69121
 H254 H 0.34971 0.50390 0.67374
 N255 N 0.35727 0.50524 0.73044
 C256 C 0.37175 0.46643 0.79166
 H257 H 0.39003 0.46614 0.79038
 C258 C 0.36104 0.45514 0.80937
 H259 H 0.37110 0.44616 0.82184
 C260 C 0.33631 0.47850 0.77694
 H261 H 0.32679 0.48752 0.76416
 C262 C 0.32488 0.46739 0.79447
 H263 H 0.30656 0.46798 0.79527
 Zn264 Zn 0.37623 0.49259 0.75311
 N265 N 0.35937 0.47802 0.77606
 C266 C 0.39274 0.52128 0.78847
 N267 N 0.39364 0.51666 0.76583
 C268 C 0.40602 0.52988 0.75157
 C269 C 0.41843 0.54839 0.76004
 C270 C 0.40489 0.53962 0.79762
 C271 C 0.38485 0.45123 0.73200
 C272 C 0.39756 0.43416 0.72184
 C273 C 0.43146 0.45646 0.72899
 C274 C 0.41810 0.47315 0.73903
 N275 N 0.39518 0.47039 0.74004
 H276 H 0.38237 0.51099 0.79946
 H277 H 0.40610 0.52608 0.73359
 H278 H 0.42821 0.55885 0.74858
 H279 H 0.40402 0.54322 0.81564
 H280 H 0.36664 0.44936 0.73330
 H281 H 0.38915 0.41909 0.71525
 H282 H 0.44966 0.45882 0.72802
 H283 H 0.42605 0.48825 0.74594
 C284 C 0.33743 0.45569 0.81087
 C285 C 0.33363 0.52754 0.69658
 C286 C 0.42105 0.43687 0.72020
 C287 C 0.41783 0.55329 0.78328
 C288 C 0.66160 0.97104 0.73198
 H289 H 0.66203 0.96554 0.74946
 C290 C 0.67335 0.95887 0.71541
 H291 H 0.68298 0.94405 0.72015
 C292 C 0.64739 0.99618 0.70408
 H293 H 0.63668 1.01020 0.69951
 C294 C 0.65889 0.98457 0.68707
 H295 H 0.65716 0.98990 0.66957
 N296 N 0.64881 0.98922 0.72604
 C297 C 0.63481 1.02938 0.78665
 H298 H 0.61666 1.03077 0.78436
 C299 C 0.64542 1.03999 0.80509
 H300 H 0.63538 1.04959 0.81705
 C301 C 0.66994 1.01492 0.77392
 H302 H 0.67936 1.00516 0.76168
 C303 C 0.68130 1.02529 0.79223
 H304 H 0.69947 1.02338 0.79412
 Zn305 Zn 0.63005 1.00282 0.74815
 N306 N 0.64705 1.01689 0.77171
 C307 C 0.61214 0.97526 0.78308
 N308 N 0.61156 0.97957 0.76040
 C309 C 0.59882 0.96657 0.74592
 C310 C 0.58573 0.94861 0.75420
 C311 C 0.59932 0.95750 0.79203
 C312 C 0.62335 1.04436 0.72698
 C313 C 0.61146 1.06186 0.71653
 C314 C 0.57665 1.04085 0.72241
 C315 C 0.58921 1.02371 0.73277
 N316 N 0.61218 1.02563 0.73455
 H317 H 0.62279 0.98534 0.79426
 H318 H 0.59900 0.97008 0.72792
 H319 H 0.57569 0.93829 0.74258
 H320 H 0.59997 0.95414 0.81009
 H321 H 0.64158 1.04556 0.72890
 H322 H 0.62053 1.07660 0.71034
 H323 H 0.55840 1.03916 0.72085
 H324 H 0.58059 1.00893 0.73931
 C325 C 0.66884 1.03781 0.80804
 C326 C 0.67174 0.96559 0.69271
 C327 C 0.58792 1.06002 0.71412
 C328 C 0.58603 0.94405 0.77747
 C329 C 0.02247 0.23504 -0.15521
 H330 H 0.02797 0.25255 -0.15615
 C331 C 0.03400 0.21830 -0.16733
 H332 H 0.04834 0.22292 -0.17776
 C333 C -0.00205 0.20732 -0.13943
 H334 H -0.01558 0.20292 -0.12800
 C335 C 0.00894 0.19013 -0.15126
 H336 H 0.00362 0.17266 -0.14907
 N337 N 0.00489 0.22928 -0.14148
 C338 C -0.03410 0.29020 -0.12709
 H339 H -0.03451 0.28882 -0.10879
 C340 C -0.04532 0.30791 -0.13783
 H341 H -0.05438 0.32028 -0.12779
 C342 C -0.02178 0.27573 -0.16253
 H343 H -0.01268 0.26305 -0.17203
 C344 C -0.03281 0.29328 -0.17399
 H345 H -0.03208 0.29419 -0.19233
 Zn346 Zn -0.00784 0.25182 -0.12254
 N347 N -0.02241 0.27472 -0.13945
 C348 C 0.02073 0.28727 -0.10601
 N349 N 0.01617 0.26463 -0.10507
 C350 C 0.02940 0.25045 -0.09265
 C351 C 0.04788 0.25900 -0.08021
 C352 C 0.03902 0.29650 -0.09384
 C353 C -0.04916 0.23052 -0.11397
 C354 C -0.06622 0.22020 -0.10129
 C355 C -0.04398 0.22736 -0.06729
 C356 C -0.02732 0.23755 -0.08065
 N357 N -0.03005 0.23861 -0.10359
 H358 H 0.01043 0.29820 -0.11642
 H359 H 0.02566 0.23246 -0.09254
 H360 H 0.05836 0.24760 -0.07039
 H361 H 0.04258 0.31453 -0.09474
 H362 H -0.05100 0.23187 -0.13219
 H363 H -0.08123 0.21358 -0.10984
 H364 H -0.04153 0.22639 -0.04906
 H365 H -0.01225 0.24452 -0.07268
 C366 C -0.04459 0.30956 -0.16146
 C367 C 0.02728 0.19561 -0.16511
 C368 C -0.06356 0.21847 -0.07774
 C369 C 0.05271 0.28224 -0.08084
 C370 C 0.47195 0.23153 0.16126
 H371 H 0.46648 0.24899 0.16173
 C372 C 0.45984 0.21493 0.17311
 H373 H 0.44510 0.21961 0.18287
 C374 C 0.49695 0.20373 0.14684
 H375 H 0.51089 0.19922 0.13602
 C376 C 0.48540 0.18669 0.15844
 H377 H 0.49070 0.16922 0.15667
 N378 N 0.49003 0.22565 0.14832
 C379 C 0.53013 0.28635 0.13407
 H380 H 0.53143 0.28411 0.11589
 C381 C 0.54076 0.30479 0.14465
 H382 H 0.55028 0.31684 0.13459
 C383 C 0.51588 0.27348 0.16933
 H384 H 0.50618 0.26120 0.17882
 C385 C 0.52627 0.29181 0.18063
 H386 H 0.52447 0.29369 0.19882
 Zn387 Zn 0.50353 0.24783 0.12946
 N388 N 0.51772 0.27135 0.14640
 C389 C 0.47583 0.28273 0.11187
 N390 N 0.48015 0.26009 0.11114
 C391 C 0.46704 0.24567 0.09846
 C392 C 0.44891 0.25396 0.08561
 C393 C 0.45791 0.29169 0.09930
 C394 C 0.54501 0.22681 0.12246
 C395 C 0.56245 0.21651 0.11043
 C396 C 0.54126 0.22247 0.07572
 C397 C 0.52417 0.23268 0.08842
 N398 N 0.52621 0.23436 0.11140
 H399 H 0.48600 0.29386 0.12248
 H400 H 0.47056 0.22770 0.09853
 H401 H 0.43849 0.24238 0.07563
 H402 H 0.45453 0.30971 0.10009
 H403 H 0.54631 0.22865 0.14070
 H404 H 0.57725 0.21035 0.11941
 H405 H 0.53947 0.22101 0.05746
 H406 H 0.50934 0.23921 0.07989
 C407 C 0.53867 0.30767 0.16809
 C408 C 0.46652 0.19227 0.17144
 C409 C 0.56050 0.21422 0.08687
 C410 C 0.44432 0.27719 0.08609
 C411 C 0.97067 0.73118 0.66191
 H412 H 0.96525 0.74865 0.66246
 C413 C 0.95857 0.71457 0.67375
 H414 H 0.94388 0.71925 0.68358
 C415 C 0.99556 0.70337 0.64731
 H416 H 1.00946 0.69887 0.63643
 C417 C 0.98401 0.68632 0.65889
 H418 H 0.98926 0.66885 0.65705
 N419 N 0.98870 0.72531 0.64889
 C420 C 1.02895 0.78595 0.63491
 H421 H 1.03021 0.78382 0.61672
 C422 C 1.03967 0.80429 0.64558
 H423 H 1.04923 0.81636 0.63558
 C424 C 1.01472 0.77293 0.67013
 H425 H 1.00500 0.76062 0.67957
 C426 C 1.02521 0.79115 0.68151
 H427 H 1.02347 0.79293 0.69972
 Zn428 Zn 1.00225 0.74754 0.63012
 N429 N 1.01651 0.77093 0.64718
 C430 C 0.97468 0.78259 0.61266
 N431 N 0.97892 0.75995 0.61185
 C432 C 0.96581 0.74562 0.59905
 C433 C 0.94777 0.75404 0.58616
 C434 C 0.95685 0.79168 0.60005
 C435 C 1.04367 0.72643 0.62305
 C436 C 1.06111 0.71617 0.61097
 C437 C 1.03998 0.72240 0.57628
 C438 C 1.02289 0.73257 0.58901
 N439 N 1.02491 0.73409 0.61201
 H440 H 0.98485 0.79365 0.62335
 H441 H 0.96927 0.72764 0.59905
 H442 H 0.93735 0.74254 0.57609
 H443 H 0.95353 0.80970 0.60090
 H444 H 1.04495 0.72815 0.64130
 H445 H 1.07588 0.70992 0.61993
 H446 H 1.03822 0.72107 0.55800
 H447 H 1.00810 0.73918 0.58051
 C448 C 1.03765 0.80704 0.66904
 C449 C 0.96519 0.69190 0.67199
 C450 C 1.05919 0.71404 0.58740
 C451 C 0.94326 0.77728 0.58671
 C452 C 0.52293 0.73670 0.34377
 H453 H 0.52846 0.75419 0.34278
 C454 C 0.53439 0.71991 0.33164
 H455 H 0.54871 0.72448 0.32116
 C456 C 0.49841 0.70905 0.35967
 H457 H 0.48491 0.70469 0.37114
 C458 C 0.50933 0.69182 0.34783
 H459 H 0.50399 0.67435 0.35007
 N460 N 0.50538 0.73099 0.35755
 C461 C 0.46648 0.79197 0.37191
 H462 H 0.46611 0.79061 0.39021
 C463 C 0.45524 0.80968 0.36118
 H464 H 0.44622 0.82204 0.37128
 C465 C 0.47872 0.77745 0.33647
 H466 H 0.48779 0.76475 0.32697
 C467 C 0.46768 0.79498 0.32500
 H468 H 0.46840 0.79582 0.30665
 Zn469 Zn 0.49271 0.75359 0.37647
 N470 N 0.47814 0.77648 0.35954
 C471 C 0.52132 0.78903 0.39295
 N472 N 0.51674 0.76639 0.39390
 C473 C 0.52995 0.75222 0.40636
 C474 C 0.54839 0.76077 0.41884
 C475 C 0.53957 0.79827 0.40516
 C476 C 0.45136 0.73234 0.38514
 C477 C 0.43432 0.72209 0.39788
 C478 C 0.45659 0.72929 0.43181
 C479 C 0.47326 0.73943 0.41841
 N480 N 0.47051 0.74044 0.39547
 H481 H 0.51103 0.79996 0.38252
 H482 H 0.52619 0.73423 0.40648
 H483 H 0.55884 0.74939 0.42871
 H484 H 0.54313 0.81629 0.40427
 H485 H 0.44950 0.73366 0.36691
 H486 H 0.41926 0.71543 0.38947
 H487 H 0.45896 0.72831 0.45003
 H488 H 0.48834 0.74640 0.42636
 C489 C 0.45593 0.81131 0.33752
 C490 C 0.52764 0.69724 0.33391
 C491 C 0.43703 0.72042 0.42140
 C492 C 0.55322 0.78402 0.41821
 C493 C 0.35655 -0.00385 0.22012
 C494 C 0.36533 0.00740 0.23937
 C495 C 0.37468 0.02926 0.23713
 C496 C 0.37544 0.03964 0.21581
 C497 C 0.36645 0.02841 0.19674
 C498 C 0.35691 0.00672 0.19890
 C499 C 0.36469 -0.00368 0.26179
 C500 C 0.37392 -0.02538 0.26472
 C501 C 0.37348 -0.03574 0.28605
 C502 C 0.36340 -0.02466 0.30442
 C503 C 0.35398 -0.00315 0.30157
 C504 C 0.35483 0.00741 0.28036
 H505 H 0.34915 -0.02065 0.22174
 H506 H 0.38173 0.03796 0.25186
 H507 H 0.38179 -0.03396 0.25053
 H508 H 0.34753 0.02409 0.27820
 H509 H 0.36695 0.03647 0.18025
 H510 H 0.36298 -0.03272 0.32093
 C511 C 0.13300 1.01096 0.72099
 C512 C 0.12403 0.99989 0.74000
 C513 C 0.11503 0.97787 0.73758
 C514 C 0.11483 0.96713 0.71631
 C515 C 0.12402 0.97820 0.69748
 C516 C 0.13321 1.00005 0.69983
 C517 C 0.12450 1.01118 0.76243
 C518 C 0.11515 1.03284 0.76523
 C519 C 0.11565 1.04346 0.78656
 C520 C 0.12590 1.03266 0.80506
 C521 C 0.13544 1.01118 0.80231
 C522 C 0.13454 1.00037 0.78111
 H523 H 0.14025 1.02784 0.72278
 H524 H 0.10796 0.96925 0.75214
 H525 H 0.10719 1.04122 0.75094
 H526 H 0.14200 0.98376 0.77903
 H527 H 0.12408 0.96980 0.68106
 H528 H 0.12640 1.04093 0.82155
 C529 C 0.63240 0.51250 0.21960
 C530 C 0.62364 0.50130 0.23863
 C531 C 0.61482 0.47920 0.23618
 C532 C 0.61461 0.46852 0.21489
 C533 C 0.62360 0.47972 0.19604
 C534 C 0.63260 0.50165 0.19841
 C535 C 0.62413 0.51252 0.26110
 C536 C 0.61482 0.53420 0.26396
 C537 C 0.61535 0.54478 0.28532
 C538 C 0.62559 0.53391 0.30378
 C539 C 0.63509 0.51241 0.30098
 C540 C 0.63416 0.50166 0.27975
 H541 H 0.63951 0.52943 0.22140
 H542 H 0.60790 0.47048 0.25076
 H543 H 0.60686 0.54263 0.24970
 H544 H 0.64160 0.48504 0.27762
 H545 H 0.62364 0.47138 0.17959
 H546 H 0.62612 0.54213 0.32029
 C547 C 0.85574 0.49563 0.72097
 C548 C 0.86442 0.50690 0.74024
 C549 C 0.87371 0.52879 0.73802
 C550 C 0.87450 0.53917 0.71671
 C551 C 0.86560 0.52790 0.69761
 C552 C 0.85612 0.50619 0.69974
 C553 C 0.86376 0.49582 0.76266
 C554 C 0.87298 0.47412 0.76559
 C555 C 0.87251 0.46375 0.78692
 C556 C 0.86241 0.47482 0.80529
 C557 C 0.85300 0.49634 0.80242
 C558 C 0.85386 0.50691 0.78122
 H559 H 0.84838 0.47880 0.72257
 H560 H 0.88070 0.53752 0.75277
 H561 H 0.88087 0.46554 0.75142
 H562 H 0.84656 0.52358 0.77905
 H563 H 0.86614 0.53596 0.68111
 H564 H 0.86197 0.46676 0.82179
 C565 C 0.22014 0.35457 -0.00349
 C566 C 0.23934 0.36337 0.00784
 C567 C 0.23704 0.37266 0.02972
 C568 C 0.21574 0.37333 0.04003
 C569 C 0.19672 0.36432 0.02871
 C570 C 0.19892 0.35485 0.00701
 C571 C 0.26175 0.36287 -0.00316
 C572 C 0.26464 0.37208 -0.02491
 C573 C 0.28599 0.37186 -0.03515
 C574 C 0.30442 0.36202 -0.02390
 C575 C 0.30160 0.35261 -0.00233
 C576 C 0.28037 0.35322 0.00810
 H577 H 0.22179 0.34722 -0.02029
 H578 H 0.25173 0.37974 0.03848
 H579 H 0.25042 0.37981 -0.03361
 H580 H 0.27824 0.34595 0.02482
 H581 H 0.18023 0.36479 0.03671
 H582 H 0.32094 0.36179 -0.03185
 C583 C 0.72087 0.13229 1.01097
 C584 C 0.73984 0.12331 0.99994
 C585 C 0.73736 0.11430 0.97792
 C586 C 0.71610 0.11411 0.96716
 C587 C 0.69732 0.12332 0.97819
 C588 C 0.69972 0.13252 1.00003
 C589 C 0.76227 0.12376 1.01126
 C590 C 0.76506 0.11449 1.03302
 C591 C 0.78638 0.11498 1.04368
 C592 C 0.80488 0.12512 1.03281
 C593 C 0.80214 0.13458 1.01123
 C594 C 0.78094 0.13370 1.00039
 H595 H 0.72270 0.13955 1.02784
 H596 H 0.75189 0.10720 0.96933
 H597 H 0.75078 0.10660 1.04144
 H598 H 0.77886 0.14110 0.98370
 H599 H 0.68090 0.12338 0.96977
 H600 H 0.82136 0.12561 1.04110
 C601 C 0.21982 0.63302 0.51115
 C602 C 0.23882 0.62414 0.50010
 C603 C 0.23640 0.61517 0.47807
 C604 C 0.21515 0.61491 0.46729
 C605 C 0.19632 0.62402 0.47833
 C606 C 0.19867 0.63318 0.50019
 C607 C 0.26124 0.62463 0.51144
 C608 C 0.26405 0.61531 0.53318
 C609 C 0.28536 0.61579 0.54384
 C610 C 0.30385 0.62600 0.53301
 C611 C 0.30109 0.63552 0.51145
 C612 C 0.27990 0.63464 0.50061
 H613 H 0.22161 0.64024 0.52804
 H614 H 0.25096 0.60815 0.46947
 H615 H 0.24978 0.60736 0.54157
 H616 H 0.27781 0.64208 0.48394
 H617 H 0.17990 0.62402 0.46991
 H618 H 0.32033 0.62649 0.54130
 C619 C 0.72020 0.85634 0.49639
 C620 C 0.73939 0.86507 0.50779
 C621 C 0.73708 0.87429 0.52968
 C622 C 0.71575 0.87498 0.53996
 C623 C 0.69673 0.86605 0.52857
 C624 C 0.69896 0.85663 0.50684
 C625 C 0.76183 0.86450 0.49684
 C626 C 0.76481 0.87369 0.47509
 C627 C 0.78617 0.87335 0.46488
 C628 C 0.80453 0.86340 0.47616
 C629 C 0.80162 0.85401 0.49772
 C630 C 0.78037 0.85475 0.50813
 H631 H 0.72187 0.84903 0.47957
 H632 H 0.75176 0.88129 0.53850
 H633 H 0.75064 0.88148 0.46636
 H634 H 0.77818 0.84747 0.52484
 H635 H 0.68023 0.86651 0.53655
 H636 H 0.82106 0.86306 0.46823
 C637 C -0.00407 0.22027 0.35551
 C638 C 0.00728 0.23939 0.36442
 C639 C 0.02915 0.23702 0.37369
 C640 C 0.03945 0.21571 0.37424
 C641 C 0.02811 0.19676 0.36512
 C642 C 0.00641 0.19905 0.35566
 C643 C -0.00369 0.26181 0.36398
 C644 C -0.02537 0.26468 0.37325
 C645 C -0.03564 0.28601 0.37297
 C646 C -0.02447 0.30445 0.36302
 C647 C -0.00297 0.30166 0.35357
 C648 C 0.00749 0.28044 0.35424
 H649 H -0.02088 0.22199 0.34816
 H650 H 0.03793 0.25165 0.38085
 H651 H -0.03402 0.25044 0.38102
 H652 H 0.02415 0.27834 0.34690
 H653 H 0.03611 0.18027 0.36546
 H654 H -0.03244 0.32096 0.36273
 C655 C 1.01131 0.72003 0.13136
 C656 C 1.00013 0.73905 0.12260
 C657 C 0.97810 0.73655 0.11361
 C658 C 0.96748 0.71522 0.11322
 C659 C 0.97866 0.69639 0.12220
 C660 C 1.00052 0.69881 0.13137
 C661 C 1.01128 0.76156 0.12331
 C662 C 1.03301 0.76463 0.11417
 C663 C 1.04352 0.78602 0.11492
 C664 C 1.03252 0.80431 0.12521
 C665 C 1.01096 0.80129 0.13454
 C666 C 1.00028 0.78003 0.13339
 H667 H 1.02818 0.72188 0.13862
 H668 H 0.96939 0.75112 0.10670
 H669 H 1.04155 0.75051 0.10618
 H670 H 0.98361 0.77773 0.14071
 H671 H 0.97035 0.67991 0.12212
 H672 H 1.04068 0.82085 0.12590
 C673 C 0.51144 0.22039 0.63204
 C674 C 0.50026 0.23936 0.62320
 C675 C 0.47825 0.23683 0.61420
 C676 C 0.46763 0.21550 0.61387
 C677 C 0.47881 0.19670 0.62293
 C678 C 0.50066 0.19915 0.63212
 C679 C 0.51142 0.26187 0.62380
 C680 C 0.53312 0.26489 0.61455
 C681 C 0.54365 0.28627 0.61520
 C682 C 0.53273 0.30459 0.62550
 C683 C 0.51121 0.30162 0.63495
 C684 C 0.50050 0.28037 0.63389
 H685 H 0.52831 0.22226 0.63929
 H686 H 0.46954 0.25137 0.60722
 H687 H 0.54160 0.25073 0.60655
 H688 H 0.48386 0.27811 0.64130
 H689 H 0.47052 0.18021 0.62289
 H690 H 0.54093 0.32111 0.62614
 C691 C 0.49553 0.72060 0.85542
 C692 C 0.50693 0.73975 0.86420
 C693 C 0.52883 0.73739 0.87341
 C694 C 0.53910 0.71607 0.87403
 C695 C 0.52771 0.69710 0.86503
 C696 C 0.50598 0.69936 0.85564
 C697 C 0.49597 0.76218 0.86373
 C698 C 0.47427 0.76506 0.87295
 C699 C 0.46403 0.78641 0.87268
 C700 C 0.47525 0.80485 0.86278
 C701 C 0.49677 0.80204 0.85337
 C702 C 0.50719 0.78081 0.85403
 H703 H 0.47870 0.72230 0.84812
 H704 H 0.53765 0.75204 0.88048
 H705 H 0.46559 0.75083 0.88070
 H706 H 0.52387 0.77870 0.84673
 H707 H 0.53569 0.68060 0.86543
 H708 H 0.46729 0.82137 0.86249
 C709 C 0.42481 -0.13521 0.31026
 N710 N 0.43706 -0.11727 0.30266
 N711 N 0.42674 -0.09821 0.29651
 C712 C 0.40387 -0.09649 0.29781
 N713 N 0.39161 -0.11446 0.30534
 N714 N 0.40193 -0.13352 0.31149
 C715 C 0.43604 -0.15493 0.31884
 C716 C 0.44543 -0.17104 0.32709
 C717 C 0.39295 -0.07541 0.29285
 C718 C 0.38396 -0.05745 0.28940
 C719 C 0.92372 0.36416 0.81094
 N720 N 0.93597 0.38207 0.80328
 N721 N 0.92568 0.40116 0.79719
 C722 C 0.90282 0.40294 0.79862
 N723 N 0.89056 0.38501 0.80620
 N724 N 0.90085 0.36592 0.81229
 C725 C 0.93494 0.34439 0.81941
 C726 C 0.94433 0.32823 0.82755
 C727 C 0.89194 0.42405 0.79370
 C728 C 0.88297 0.44203 0.79027
 C729 C 0.06275 1.14259 0.80888
 N730 N 0.08487 1.13991 0.81465
 N731 N 0.09573 1.12100 0.80900
 C732 C 0.08480 1.10417 0.79746
 N733 N 0.06270 1.10689 0.79162
 N734 N 0.05183 1.12580 0.79727
 C735 C 0.05051 1.16198 0.81682
 C736 C 0.04001 1.17768 0.82448
 C737 C 0.09598 1.08312 0.79291
 C738 C 0.10509 1.06517 0.78972
 C739 C 0.56286 0.64408 0.30784
 N740 N 0.58498 0.64130 0.31357
 N741 N 0.59575 0.62235 0.30789
 C742 C 0.58473 0.60557 0.29636
 N743 N 0.56263 0.60838 0.29056
 N744 N 0.55186 0.62734 0.29623
 C745 C 0.55071 0.66352 0.31580
 C746 C 0.54029 0.67926 0.32348
 C747 C 0.59582 0.58449 0.29176
 C748 C 0.60487 0.56651 0.28853
 C749 C 0.56761 0.36513 0.19436
 N750 N 0.55448 0.38281 0.20070
 N751 N 0.56388 0.40277 0.20608
 C752 C 0.58669 0.40568 0.20522
 N753 N 0.59983 0.38798 0.19895
 N754 N 0.59043 0.36802 0.19358
 C755 C 0.55737 0.34434 0.18649
 C756 C 0.54881 0.32733 0.17876
 C757 C 0.59666 0.42760 0.20937
 C758 C 0.60492 0.44618 0.21219
 C759 C 0.06698 0.86417 0.69559
 N760 N 0.05399 0.88197 0.70183
 N761 N 0.06355 0.90184 0.70727
 C762 C 0.08639 0.90453 0.70658
 N763 N 0.09939 0.88670 0.70041
 N764 N 0.08983 0.86683 0.69498
 C765 C 0.05660 0.84349 0.68763
 C766 C 0.04792 0.82657 0.67981
 C767 C 0.09654 0.92636 0.71078
 C768 C 0.10495 0.94487 0.71362
 C769 C 0.92836 0.63894 0.69687
 N770 N 0.93868 0.62250 0.70909
 N771 N 0.92753 0.60351 0.71431
 C772 C 0.90574 0.60035 0.70742
 N773 N 0.89538 0.61683 0.69527
 N774 N 0.90653 0.63582 0.69006
 C775 C 0.94102 0.65835 0.68935
 C776 C 0.95192 0.67403 0.68202
 C777 C 0.89436 0.57916 0.71145
 C778 C 0.88513 0.56107 0.71417
 C779 C 0.42956 0.13932 0.19614
 N780 N 0.40775 0.13624 0.18924
 N781 N 0.39656 0.11725 0.19439
 C782 C 0.40684 0.10074 0.20656
 N783 N 0.42862 0.10386 0.21354
 N784 N 0.43981 0.12284 0.20839
 C785 C 0.44227 0.15872 0.18870
 C786 C 0.45321 0.17440 0.18143
 C787 C 0.39540 0.07958 0.21056
 C788 C 0.38612 0.06151 0.21326
 C789 C 0.30987 0.42356 -0.13469
 N790 N 0.30194 0.43567 -0.11684
 N791 N 0.29586 0.42525 -0.09778
 C792 C 0.29757 0.40241 -0.09598
 N793 N 0.30542 0.39029 -0.11385
 N794 N 0.31150 0.40071 -0.13291
 C795 C 0.31833 0.43495 -0.15440
 C796 C 0.32646 0.44446 -0.17051
 C797 C 0.29269 0.39141 -0.07488
 C798 C 0.28929 0.38237 -0.05690
 C799 C 0.81005 0.92458 0.36508
 N800 N 0.80231 0.93681 0.38294
 N801 N 0.79628 0.92650 0.40206
 C802 C 0.79783 0.90365 0.40394
 N803 N 0.80549 0.89141 0.38606
 N804 N 0.81153 0.90173 0.36693
 C805 C 0.81847 0.93583 0.34528
 C806 C 0.82658 0.94524 0.32908
 C807 C 0.79296 0.89275 0.42510
 C808 C 0.78954 0.88378 0.44311
 C809 C 0.80858 0.06248 1.14336
 N810 N 0.79690 0.05153 1.12662
 N811 N 0.79127 0.06233 1.10760
 C812 C 0.79721 0.08439 1.10471
 N813 N 0.80882 0.09536 1.12148
 N814 N 0.81444 0.08456 1.14050
 C815 C 0.81652 0.05028 1.16284
 C816 C 0.82421 0.03982 1.17861
 C817 C 0.79269 0.09548 1.08354
 C818 C 0.78952 0.10452 1.06549
 C819 C 0.30763 0.56294 0.64331
 N820 N 0.31338 0.58507 0.64057
 N821 N 0.30775 0.59593 0.62158
 C822 C 0.29623 0.58497 0.60473
 N823 N 0.29041 0.56287 0.60751
 N824 N 0.29604 0.55201 0.62649
 C825 C 0.31556 0.55071 0.66277
 C826 C 0.32322 0.54024 0.67855
 C827 C 0.29170 0.59614 0.58362
 C828 C 0.28852 0.60525 0.56561
 C829 C 0.19469 0.56701 0.36428
 N830 N 0.19395 0.58986 0.36688
 N831 N 0.19932 0.59944 0.38677
 C832 C 0.20553 0.58646 0.40467
 N833 N 0.20634 0.56362 0.40204
 N834 N 0.20098 0.55404 0.38216
 C835 C 0.18682 0.55660 0.34358
 C836 C 0.17907 0.54789 0.32662
 C837 C 0.20967 0.59662 0.42651
 C838 C 0.21247 0.60504 0.44503
 C839 C 0.69502 0.06634 0.86421
 N840 N 0.69466 0.08920 0.86678
 N841 N 0.70018 0.09873 0.88665
 C842 C 0.70620 0.08568 0.90457
 N843 N 0.70664 0.06282 0.90197
 N844 N 0.70111 0.05330 0.88211
 C845 C 0.68696 0.05602 0.84353
 C846 C 0.67904 0.04741 0.82660
 C847 C 0.71047 0.09581 0.92640
 C848 C 0.71336 0.10422 0.94490
 C849 C 0.69618 0.92862 0.63979
 N850 N 0.68888 0.90698 0.63650
 N851 N 0.69397 0.89584 0.61749
 C852 C 0.70649 0.90603 0.60117
 N853 N 0.71387 0.92764 0.60451
 N854 N 0.70877 0.93877 0.62351
 C855 C 0.68883 0.94131 0.65920
 C856 C 0.68163 0.95225 0.67488
 C857 C 0.71045 0.89469 0.57997
 C858 C 0.71315 0.88552 0.56187
 C859 C 0.19607 0.42750 0.13955
 N860 N 0.18878 0.40584 0.13637
 N861 N 0.19391 0.39459 0.11743
 C862 C 0.20645 0.40469 0.10108
 N863 N 0.21381 0.42632 0.10430
 N864 N 0.20868 0.43757 0.12323
 C865 C 0.18867 0.44031 0.15886
 C866 C 0.18143 0.45134 0.17445
 C867 C 0.21043 0.39324 0.07995
 C868 C 0.21315 0.38397 0.06189
 C869 C -0.13504 0.31008 0.42433
 N870 N -0.13334 0.31133 0.40142
 N871 N -0.11430 0.30519 0.39110
 C872 C -0.09637 0.29763 0.40338
 N873 N -0.09810 0.29630 0.42628
 N874 N -0.11714 0.30244 0.43660
 C875 C -0.15472 0.31866 0.43556
 C876 C -0.17081 0.32689 0.44494
 C877 C -0.07529 0.29270 0.39247
 C878 C -0.05734 0.28929 0.38347
 C879 C 0.36459 0.81048 0.92395
 N880 N 0.36635 0.81187 0.90106
 N881 N 0.38539 0.80574 0.89074
 C882 C 0.40327 0.79805 0.90301
 N883 N 0.40148 0.79657 0.92590
 N884 N 0.38244 0.80270 0.93621
 C885 C 0.34491 0.81904 0.93520
 C886 C 0.32883 0.82726 0.94460
 C887 C 0.42436 0.79312 0.89211
 C888 C 0.44232 0.78971 0.88314
 C889 C 1.14306 0.80911 0.06288
 N890 N 1.13997 0.81526 0.08485
 N891 N 1.12097 0.80953 0.09557
 C892 C 1.10446 0.79753 0.08463
 N893 N 1.10758 0.79132 0.06269
 N894 N 1.12658 0.79704 0.05197
 C895 C 1.16254 0.81708 0.05074
 C896 C 1.17832 0.82476 0.04032
 C897 C 1.08332 0.79281 0.09563
 C898 C 1.06530 0.78945 0.10459
 C899 C 0.64311 0.30906 0.56287
 N900 N 0.64019 0.31501 0.58492
 N901 N 0.62119 0.30935 0.59568
 C902 C 0.60452 0.29760 0.58470
 N903 N 0.60747 0.29158 0.56268
 N904 N 0.62647 0.29724 0.55192
 C905 C 0.66261 0.31696 0.55072
 C906 C 0.67841 0.32458 0.54029
 C907 C 0.58340 0.29295 0.59577
 C908 C 0.56541 0.28963 0.60478
 C909 C 0.36464 0.19451 0.56613
 N910 N 0.38245 0.20075 0.55308
 N911 N 0.40233 0.20622 0.56261
 C912 C 0.40502 0.20558 0.58548
 N913 N 0.38719 0.19942 0.59854
 N914 N 0.36731 0.19395 0.58901
 C915 C 0.34394 0.18652 0.55579
 C916 C 0.32700 0.17868 0.54715
 C917 C 0.42686 0.20982 0.59561
 C918 C 0.44537 0.21272 0.60400
 C919 C 0.86425 0.69445 0.06591
 N920 N 0.88207 0.70043 0.05274
 N921 N 0.90201 0.70586 0.06217
 C922 C 0.90476 0.70543 0.08504
 N923 N 0.88692 0.69953 0.09821
 N924 N 0.86698 0.69410 0.08878
 C925 C 0.84347 0.68650 0.05570
 C926 C 0.82646 0.67870 0.04717
 C927 C 0.92665 0.70963 0.09507
 C928 C 0.94519 0.71249 0.10341
 C929 C 0.63886 0.69590 0.92771
 N930 N 0.63546 0.68867 0.90604
 N931 N 0.61649 0.69392 0.89489
 C932 C 0.60030 0.70652 0.90508
 N933 N 0.60373 0.71382 0.92671
 N934 N 0.62271 0.70857 0.93786
 C935 C 0.65821 0.68837 0.94042
 C936 C 0.67383 0.68103 0.95139
 C937 C 0.57911 0.71061 0.89374
 C938 C 0.56101 0.71340 0.88457
 C939 C 0.13919 0.19550 0.42796
 N940 N 0.13589 0.18851 0.40621
 N941 N 0.11690 0.19376 0.39508
 C942 C 0.10061 0.20612 0.40538
 N943 N 0.10394 0.21318 0.42710
 N944 N 0.12293 0.20793 0.43823
 C945 C 0.15858 0.18798 0.44062
 C946 C 0.17426 0.18066 0.45152
 C947 C 0.07942 0.21022 0.39403
 C948 C 0.06134 0.21303 0.38483
 C949 C 0.55389 0.11089 0.68237
 N950 N 0.56470 0.12343 0.66647
 N951 N 0.55411 0.14048 0.65622
 C952 C 0.53240 0.14549 0.66156
 N953 N 0.52158 0.13295 0.67745
 N954 N 0.53216 0.11589 0.68770
 C955 C 0.56547 0.09280 0.69363
 C956 C 0.57551 0.07777 0.70304
 C957 C 0.52118 0.16417 0.65090
 C958 C 0.51182 0.18003 0.64218
 C959 C 1.05347 0.61024 0.18140
 N960 N 1.06272 0.62033 0.16298
 N961 N 1.05218 0.63744 0.15280
 C962 C 1.03206 0.64498 0.16072
 N963 N 1.02279 0.63488 0.17913
 N964 N 1.03334 0.61777 0.18932
 C965 C 1.06508 0.59215 0.19261
 C966 C 1.07514 0.57711 0.20199
 C967 C 1.02095 0.66373 0.15009
 C968 C 1.01165 0.67964 0.14139
 C969 C 0.95658 0.88676 0.18835
 N970 N 0.97528 0.89144 0.17590
 N971 N 0.98620 0.87485 0.16523
 C972 C 0.97870 0.85310 0.16666
 N973 N 0.96001 0.84844 0.17911
 N974 N 0.94911 0.86501 0.18978
 C975 C 0.94452 0.90459 0.19951
 C976 C 0.93398 0.91936 0.20877
 C977 C 0.99031 0.83519 0.15513
 C978 C 0.99983 0.81988 0.14562
 C979 C 0.45731 0.38727 0.68896
 N980 N 0.46882 0.39155 0.66958
 N981 N 0.47973 0.37496 0.65892
 C982 C 0.47943 0.35358 0.66731
 N983 N 0.46794 0.34932 0.68669
 N984 N 0.45703 0.36590 0.69735
 C985 C 0.44500 0.40494 0.70010
 C986 C 0.43430 0.41960 0.70936
 C987 C 0.49082 0.33559 0.65569
 C988 C 0.50020 0.32024 0.64611
 C989 C 0.45174 0.60800 0.80972
 N990 N 0.44451 0.62929 0.80520
 N991 N 0.45518 0.64721 0.81426
 C992 C 0.47338 0.64437 0.82814
 N993 N 0.48062 0.62308 0.83265
 N994 N 0.46994 0.60516 0.82359
 C995 C 0.44004 0.58871 0.80022
 C996 C 0.43004 0.57254 0.79239
 C997 C 0.48483 0.66367 0.83791
 C998 C 0.49445 0.67992 0.84606
 C999 C -0.04766 0.10791 0.30908
 N1000 N -0.05427 0.12925 0.30391
 N1001 N -0.04361 0.14712 0.31309
 C1002 C -0.02605 0.14418 0.32774
 N1003 N -0.01943 0.12284 0.33291
 N1004 N -0.03008 0.10497 0.32373
 C1005 C -0.05938 0.08869 0.29949
 C1006 C -0.06942 0.07256 0.29162
 C1007 C -0.01463 0.16343 0.33767
 C1008 C -0.00506 0.17964 0.34593
 C1009 C 0.05059 0.39060 0.30410
 N1010 N 0.03918 0.39351 0.32379
 N1011 N 0.02852 0.37608 0.33343
 C1012 C 0.02899 0.35520 0.32369
 N1013 N 0.04038 0.35229 0.30399
 N1014 N 0.05104 0.36973 0.29435
 C1015 C 0.06259 0.40925 0.29410
 C1016 C 0.07295 0.42492 0.28605
 C1017 C 0.01775 0.33638 0.33422
 C1018 C 0.00832 0.32056 0.34307
 C1019 C 0.55071 0.89101 0.80435
 N1020 N 0.53942 0.89384 0.82412
 N1021 N 0.52868 0.87640 0.83366
 C1022 C 0.52894 0.85560 0.82375
 N1023 N 0.54023 0.85277 0.80397
 N1024 N 0.55097 0.87021 0.79442
 C1025 C 0.56279 0.90966 0.79444
 C1026 C 0.57321 0.92533 0.78648
 C1027 C 0.51761 0.83678 0.83417
 C1028 C 0.50812 0.82095 0.84295
 C1029 C 0.68239 0.55485 0.10976
 N1030 N 0.66953 0.56666 0.12462
 N1031 N 0.65937 0.55612 0.14177
 C1032 C 0.66175 0.53346 0.14456
 N1033 N 0.67460 0.52164 0.12969
 N1034 N 0.68476 0.53218 0.11254
 C1035 C 0.69354 0.56632 0.09151
 C1036 C 0.70285 0.57629 0.07634
 C1037 C 0.65121 0.52222 0.16331
 C1038 C 0.64257 0.51284 0.17922
 C1039 C 0.18372 1.05230 0.61101
 N1040 N 0.16108 1.04807 0.61037
 N1041 N 0.15096 1.03767 0.62764
 C1042 C 0.16318 1.03121 0.64606
 N1043 N 0.18582 1.03542 0.64668
 N1044 N 0.19593 1.04582 0.62942
 C1045 C 0.19453 1.06398 0.59269
 C1046 C 0.20359 1.07410 0.57748
 C1047 C 0.15232 1.02024 0.66479
 C1048 C 0.14344 1.01105 0.68068
 C1049 C 0.18894 0.95762 0.88884
 N1050 N 0.16597 0.95845 0.88820
 N1051 N 0.15533 0.96937 0.87153
 C1052 C 0.16736 0.97977 0.85499
 N1053 N 0.19033 0.97897 0.85565
 N1054 N 0.20096 0.96805 0.87232
 C1055 C 0.20033 0.94524 0.90638
 C1056 C 0.20975 0.93447 0.92095
 C1057 C 0.15593 0.99101 0.83671
 C1058 C 0.14648 1.00028 0.82114
 C1059 C 0.68853 0.45863 0.38740
 N1060 N 0.66557 0.45975 0.38693
 N1061 N 0.65495 0.47069 0.37027
 C1062 C 0.66697 0.48083 0.35356
 N1063 N 0.68993 0.47973 0.35404
 N1064 N 0.70055 0.46879 0.37071
 C1065 C 0.69990 0.44626 0.40495
 C1066 C 0.70931 0.43551 0.41954
 C1067 C 0.65555 0.49212 0.33531
 C1068 C 0.64611 0.50144 0.31977
 C1069 C 0.81062 0.45243 0.60785
 N1070 N 0.79718 0.46367 0.62263
 N1071 N 0.80619 0.47428 0.64062
 C1072 C 0.82890 0.47396 0.64437
 N1073 N 0.84234 0.46273 0.62959
 N1074 N 0.83333 0.45211 0.61161
 C1075 C 0.80094 0.44078 0.58861
 C1076 C 0.79298 0.43082 0.57248
 C1077 C 0.83858 0.48529 0.66380
 C1078 C 0.84664 0.49480 0.68017
 C1079 C 0.31087 -0.04704 0.10727
 N1080 N 0.29758 -0.03534 0.12183
 N1081 N 0.30670 -0.02471 0.13975
 C1082 C 0.32937 -0.02546 0.14366
 N1083 N 0.34266 -0.03715 0.12909
 N1084 N 0.33354 -0.04778 0.11117
 C1085 C 0.30107 -0.05871 0.08811
 C1086 C 0.29301 -0.06870 0.07203
 C1087 C 0.33916 -0.01414 0.16303
 C1088 C 0.34732 -0.00464 0.17935
 C1089 C 0.30408 0.05012 0.39021
 N1090 N 0.29588 0.05270 0.36882
 N1091 N 0.30559 0.04210 0.35143
 C1092 C 0.32380 0.02862 0.35491
 N1093 N 0.33199 0.02603 0.37631
 N1094 N 0.32228 0.03663 0.39369
 C1095 C 0.29409 0.06206 0.40884
 C1096 C 0.28607 0.07239 0.42452
 C1097 C 0.33443 0.01744 0.33616
 C1098 C 0.34337 0.00807 0.32040
 C1099 C 0.80300 0.54966 0.89097
 N1100 N 0.79483 0.55224 0.86957
 N1101 N 0.80455 0.54161 0.85220
 C1102 C 0.82274 0.52812 0.85572
 N1103 N 0.83089 0.52552 0.87713
 N1104 N 0.82118 0.53615 0.89449
 C1105 C 0.79302 0.56166 0.90958
 C1106 C 0.78502 0.57205 0.92522
 C1107 C 0.83339 0.51692 0.83699
 C1108 C 0.84235 0.50755 0.82125
 C1109 C 0.11003 0.68309 0.55279
 N1110 N 0.11463 0.66095 0.55668
 N1111 N 0.13178 0.65088 0.54615
 C1112 C 0.14486 0.66267 0.53142
 N1113 N 0.14024 0.68481 0.52751
 N1114 N 0.12309 0.69488 0.53804
 C1115 C 0.09194 0.69406 0.56458
 C1116 C 0.07691 0.70322 0.57479
 C1117 C 0.16360 0.65200 0.52041
 C1118 C 0.17951 0.64327 0.51120
 C1119 C 0.61131 0.18306 1.05240
 N1120 N 0.62537 0.19510 1.03882
 N1121 N 0.64249 0.18492 1.02834
 C1122 C 0.64607 0.16242 1.03114
 N1123 N 0.63199 0.15037 1.04470
 N1124 N 0.61487 0.16055 1.05518
 C1125 C 0.59323 0.19410 1.06414
 C1126 C 0.57821 0.20333 1.07431
 C1127 C 0.66476 0.15160 1.02018
 C1128 C 0.68061 0.14274 1.01101
 C1129 C 0.88869 0.18766 0.95744
 N1130 N 0.88745 0.16469 0.95758
 N1131 N 0.87077 0.15412 0.96852
 C1132 C 0.85482 0.16621 0.97964
 N1133 N 0.85607 0.18918 0.97952
 N1134 N 0.87274 0.19975 0.96858
 C1135 C 0.90623 0.19902 0.94506
 C1136 C 0.92080 0.20844 0.93429
 C1137 C 0.83653 0.15488 0.99094
 C1138 C 0.82097 0.14551 1.00026
 C1139 C 0.38765 0.68867 0.45775
 N1140 N 0.38666 0.66569 0.45824
 N1141 N 0.36997 0.65512 0.46917
 C1142 C 0.35376 0.66722 0.47991
 N1143 N 0.35476 0.69019 0.47943
 N1144 N 0.37145 0.70076 0.46851
 C1145 C 0.40522 0.70002 0.44539
 C1146 C 0.41981 0.70943 0.43466
 C1147 C 0.33548 0.65587 0.49119
 C1148 C 0.31991 0.64648 0.50050
 C1149 C 0.60755 0.81089 0.45245
 N1150 N 0.62368 0.79737 0.46159
 N1151 N 0.64157 0.80642 0.47233
 C1152 C 0.64387 0.82925 0.47425
 N1153 N 0.62774 0.84277 0.46513
 N1154 N 0.60985 0.83372 0.45438
 C1155 C 0.58842 0.80120 0.44064
 C1156 C 0.57236 0.79324 0.43053
 C1157 C 0.66320 0.83899 0.48571
 C1158 C 0.67947 0.84710 0.49533
 C1159 C 0.10724 0.30908 -0.04691
 N1160 N 0.12320 0.29555 -0.03749
 N1161 N 0.14116 0.30459 -0.02686
 C1162 C 0.14372 0.32743 -0.02534
 N1163 N 0.12776 0.34095 -0.03476
 N1164 N 0.10980 0.33192 -0.04539
 C1165 C 0.08803 0.29940 -0.05860
 C1166 C 0.07192 0.29145 -0.06862
 C1167 C 0.16311 0.33715 -0.01399
 C1168 C 0.17942 0.34527 -0.00444
 C1169 C 0.39054 0.30413 0.05203
 N1170 N 0.38557 0.29838 0.03023
 N1171 N 0.36809 0.30784 0.01950
 C1172 C 0.35508 0.32336 0.03025
 N1173 N 0.36005 0.32910 0.05205
 N1174 N 0.37752 0.31964 0.06277
 C1175 C 0.40946 0.29418 0.06360
 C1176 C 0.42536 0.28619 0.07365
 C1177 C 0.33630 0.33363 0.01872
 C1178 C 0.32050 0.34230 0.00911
 C1179 C 0.88984 0.80457 0.55238
 N1180 N 0.88729 0.80204 0.52960
 N1181 N 0.86997 0.81170 0.51879
 C1182 C 0.85471 0.82421 0.53043
 N1183 N 0.85725 0.82673 0.55320
 N1184 N 0.87456 0.81707 0.56401
 C1185 C 0.90864 0.79450 0.56405
 C1186 C 0.92443 0.78641 0.57418
 C1187 C 0.83610 0.83470 0.51883
 C1188 C 0.82042 0.84354 0.50918
   
