data_POSCAR
  _audit_creation_date              2014-09-24
  _audit_creation_method            'ToBaCCo'
  _symmetry_space_group_name_H-M    'P1'
  _symmetry_Int_Tables_number       1
  _symmetry_cell_setting            triclinic
  loop_
  _symmetry_equiv_pos_as_xyz
 x,y,z
_cell_length_a 31.7524
_cell_length_b 31.6199
_cell_length_c 31.8494
_cell_angle_alpha 90.521700
_cell_angle_beta 89.963200
_cell_angle_gamma 89.752300
loop_
  _atom_site_label
  _atom_site_type_symbol
  _atom_site_fract_x
  _atom_site_fract_y
  _atom_site_fract_z
C1 C 0.18025 1.24124 0.24233
 C2 C 0.16148 1.27717 0.22467
 C3 C 0.17682 1.29445 0.18694
 C4 C 0.21112 1.27422 0.16682
 C5 C 0.23049 1.23862 0.18440
 C6 C 0.21510 1.22210 0.22237
 C7 C 0.16405 1.22370 0.27921
 C8 C 0.18188 1.18683 0.29666
 C9 C 0.21689 1.16812 0.27627
 C10 C 0.23377 1.18566 0.23967
 C11 C 0.26817 1.16647 0.21929
 C12 C 0.28378 1.18289 0.18153
 C13 C 0.26431 1.21856 0.16394
 H14 H 0.13516 1.29208 0.24079
 H15 H 0.22186 1.28520 0.13651
 H16 H 0.13750 1.23906 0.29452
 H17 H 0.22977 1.13852 0.28752
 H18 H 0.28260 1.13843 0.23247
 H19 H 0.27534 1.23042 0.13407
 C20 C 0.83246 0.78635 0.20977
 C21 C 0.84716 0.74738 0.19422
 C22 C 0.82445 0.72467 0.16338
 C23 C 0.78671 0.74242 0.14794
 C24 C 0.77162 0.78136 0.16328
 C25 C 0.79456 0.80342 0.19436
 C26 C 0.85577 0.80898 0.23978
 C27 C 0.84236 0.84915 0.25418
 C28 C 0.80360 0.86523 0.23951
 C29 C 0.78001 0.84297 0.20941
 C30 C 0.74275 0.86026 0.19314
 C31 C 0.71993 0.83851 0.16207
 C32 C 0.73443 0.79909 0.14731
 H33 H 0.87750 0.73575 0.20475
 H34 H 0.76855 0.72559 0.12436
 H35 H 0.88428 0.79498 0.25236
 H36 H 0.79266 0.89609 0.25001
 H37 H 0.73175 0.89097 0.20402
 H38 H 0.71715 0.78279 0.12271
 C39 C 0.84251 1.20536 -0.21430
 C40 C 0.86250 1.23916 -0.19376
 C41 C 0.84364 1.25875 -0.15877
 C42 C 0.80401 1.24535 -0.14487
 C43 C 0.78360 1.21159 -0.16507
 C44 C 0.80296 1.19143 -0.19990
 C45 C 0.86223 1.18425 -0.24791
 C46 C 0.84357 1.14844 -0.26690
 C47 C 0.80322 1.13602 -0.25336
 C48 C 0.78323 1.15672 -0.21968
 C49 C 0.74443 1.14233 -0.20456
 C50 C 0.72535 1.16189 -0.16964
 C51 C 0.74493 1.19660 -0.15012
 H52 H 0.89323 1.24963 -0.20416
 H53 H 0.78975 1.26049 -0.11765
 H54 H 0.89326 1.19438 -0.25775
 H55 H 0.78734 1.11002 -0.26905
 H56 H 0.72948 1.11516 -0.21916
 H57 H 0.73054 1.21108 -0.12262
 C58 C 0.16695 0.76635 -0.22689
 C59 C 0.15046 0.73025 -0.20772
 C60 C 0.16870 0.71374 -0.17087
 C61 C 0.20344 0.73507 -0.15303
 C62 C 0.21992 0.77148 -0.17153
 C63 C 0.20183 0.78709 -0.20876
 C64 C 0.14830 0.78289 -0.26319
 C65 C 0.16442 0.81954 -0.28160
 C66 C 0.19923 0.83997 -0.26373
 C67 C 0.21787 0.82419 -0.22718
 C68 C 0.25125 0.84571 -0.20788
 C69 C 0.26850 0.83077 -0.17028
 C70 C 0.25340 0.79331 -0.15265
 H71 H 0.12220 0.71607 -0.22062
 H72 H 0.21815 0.72303 -0.12481
 H73 H 0.12105 0.76760 -0.27701
 H74 H 0.21105 0.86867 -0.27783
 H75 H 0.26302 0.87480 -0.22121
 H76 H 0.26681 0.78212 -0.12346
 C77 C 0.54111 1.07674 -0.02460
 H78 H 0.53065 1.08918 0.00531
 C79 C 0.56993 1.09971 -0.04834
 H80 H 0.58170 1.12960 -0.03644
 C81 C 0.54056 1.02188 -0.07582
 H82 H 0.52964 0.99111 -0.08597
 C83 C 0.56922 1.04383 -0.10057
 H84 H 0.58018 1.02996 -0.12984
 N85 N 0.52730 1.03839 -0.03845
 C86 C 0.41559 1.04265 0.02140
 H87 H 0.40261 1.02543 -0.00493
 C88 C 0.38904 1.06803 0.04585
 H89 H 0.35593 1.07023 0.03796
 C90 C 0.47407 1.06096 0.06390
 H91 H 0.50727 1.05788 0.07089
 C92 C 0.44838 1.08602 0.08978
 H93 H 0.46183 1.10189 0.11687
 Zn94 Zn 0.49207 1.00475 -0.00426
 N95 N 0.45737 1.03971 0.03050
 C96 C 0.52123 0.96471 0.07060
 N97 N 0.52695 0.96912 0.02848
 C98 C 0.55908 0.94903 0.00814
 C99 C 0.58813 0.92485 0.03042
 C100 C 0.54962 0.94073 0.09414
 C101 C 0.43876 0.98853 -0.07310
 C102 C 0.40911 0.96581 -0.09632
 C103 C 0.41868 0.90694 -0.04929
 C104 C 0.44832 0.93071 -0.02704
 N105 N 0.45717 0.97095 -0.03882
 H106 H 0.49497 0.98007 0.08608
 H107 H 0.56273 0.95254 -0.02537
 H108 H 0.61421 0.90991 0.01402
 H109 H 0.54556 0.93831 0.12780
 H110 H 0.44609 1.02074 -0.08150
 H111 H 0.39378 0.98040 -0.12292
 H112 H 0.41077 0.87543 -0.03892
 H113 H 0.46311 0.91761 0.00054
 C114 C 0.40541 1.09028 0.08037
 C115 C 0.58433 1.08312 -0.08674
 C116 C 0.39805 0.92500 -0.08366
 C117 C 0.58370 0.92086 0.07394
 C118 C -0.01813 0.56479 1.05998
 H119 H 0.01584 0.56694 1.06126
 C120 C -0.04291 0.59308 1.08317
 H121 H -0.02803 0.61716 1.10240
 C122 C -0.07908 0.53138 1.03257
 H123 H -0.09300 0.50769 1.01232
 C124 C -0.10508 0.55926 1.05508
 H125 H -0.13898 0.55675 1.05238
 N126 N -0.03645 0.53439 1.03574
 C127 C 0.06206 0.43868 1.02380
 H128 H 0.06402 0.43606 0.98997
 C129 C 0.08761 0.41336 1.04893
 H130 H 0.10938 0.39114 1.03447
 C131 C 0.03035 0.46990 1.08406
 H132 H 0.00739 0.49130 1.09763
 C133 C 0.05516 0.44497 1.11037
 H134 H 0.05156 0.44761 1.14411
 Zn135 Zn -0.00006 0.49821 1.00489
 N136 N 0.03450 0.46662 1.04161
 C137 C 0.07578 0.53456 0.97496
 N138 N 0.03325 0.53279 0.96992
 C139 C 0.01317 0.55752 0.94141
 C140 C 0.03612 0.58472 0.91585
 C141 C 0.09988 0.56151 0.95024
 C142 C -0.05429 0.43005 0.99467
 C143 C -0.07535 0.39754 0.97366
 C144 C -0.04864 0.42423 0.90797
 C145 C -0.02791 0.45621 0.93026
 N146 N -0.03109 0.45849 0.97286
 H147 H 0.09105 0.51573 0.99865
 H148 H -0.02076 0.55622 0.93873
 H149 H 0.01989 0.60441 0.89333
 H150 H 0.13366 0.56295 0.95466
 H151 H -0.05570 0.43223 1.02856
 H152 H -0.09324 0.37466 0.99132
 H153 H -0.04546 0.42216 0.87415
 H154 H -0.00851 0.47841 0.91357
 C155 C 0.08436 0.41662 1.09271
 C156 C -0.08687 0.59020 1.08100
 C157 C -0.07211 0.39422 0.92990
 C158 C 0.07997 0.58669 0.92017
 C159 C 1.08242 -0.03835 0.53115
 H160 H 1.09949 -0.01421 0.51456
 C161 C 1.10384 -0.06465 0.55903
 H162 H 1.13739 -0.06071 0.56362
 C163 C 1.01749 -0.07061 0.54848
 H164 H 0.98362 -0.07183 0.54501
 C165 C 1.03769 -0.09778 0.57631
 H166 H 1.01933 -0.12024 0.59404
 N167 N 1.03997 -0.04176 0.52648
 C168 C 1.07317 0.01766 0.43779
 H169 H 1.07524 -0.01632 0.43397
 C170 C 1.09880 0.04388 0.41381
 H171 H 1.12073 0.03012 0.39144
 C172 C 1.04075 0.07726 0.47025
 H173 H 1.01736 0.09015 0.49147
 C174 C 1.06555 0.10462 0.44667
 H175 H 1.06147 0.13850 0.45012
 Zn176 Zn 1.00888 -0.00278 0.49407
 N177 N 1.04503 0.03464 0.46548
 C178 C 0.99509 0.04786 0.56400
 N179 N 0.97447 0.02735 0.53248
 C180 C 0.93164 0.02613 0.53109
 C181 C 0.90786 0.04606 0.56258
 C182 C 0.97260 0.06822 0.59592
 C183 C 0.97974 -0.07350 0.44668
 C184 C 0.95796 -0.09321 0.41389
 C185 C 0.92957 -0.02515 0.39429
 C186 C 0.95193 -0.00670 0.42739
 N187 N 0.97635 -0.03096 0.45280
 H188 H 1.02916 0.04768 0.56463
 H189 H 0.91591 0.00882 0.50632
 H190 H 0.87380 0.04441 0.56182
 H191 H 0.98934 0.08390 0.62123
 H192 H 1.00015 -0.09208 0.46646
 H193 H 0.96121 -0.12700 0.40888
 H194 H 0.91061 -0.00552 0.37391
 H195 H 0.95042 0.02714 0.43252
 C196 C 1.09495 0.08786 0.41817
 C197 C 1.08137 -0.09484 0.58193
 C198 C 0.93303 -0.06877 0.38703
 C199 C 0.92857 0.06689 0.59561
 C200 C 0.17764 0.36231 1.14684
 C201 C 0.15594 0.32908 1.16780
 C202 C 0.11157 0.32934 1.16720
 C203 C 0.08919 0.35863 1.14368
 C204 C 0.11007 0.38890 1.11985
 C205 C 0.15451 0.39175 1.12201
 C206 C 0.22138 0.36885 1.15220
 C207 C 0.24211 0.40120 1.13123
 C208 C 0.21974 0.42850 1.10546
 C209 C 0.17630 0.42427 1.10117
 H210 H 0.23984 0.34989 1.17351
 H211 H 0.27566 0.40545 1.13547
 H212 H 0.23598 0.45374 1.08948
 H213 H 0.15992 0.44727 1.08217
 H214 H 0.09370 0.30486 1.18263
 H215 H 0.05515 0.35652 1.14266
 C216 C -0.13765 0.65534 1.16975
 C217 C -0.15873 0.68686 1.14560
 C218 C -0.16012 0.68160 1.10163
 C219 C -0.13788 0.64925 1.08160
 C220 C -0.11353 0.62075 1.10454
 C221 C -0.11421 0.62270 1.14897
 C222 C -0.14149 0.65383 1.21398
 C223 C -0.12037 0.62312 1.23712
 C224 C -0.09594 0.59259 1.21683
 C225 C -0.09317 0.59195 1.17318
 H226 H -0.16170 0.67556 1.23105
 H227 H -0.12343 0.62270 1.27097
 H228 H -0.07984 0.56867 1.23496
 H229 H -0.07521 0.56662 1.15862
 H230 H -0.17582 0.70455 1.08196
 H231 H -0.13806 0.64767 1.04759
 C232 C -0.09782 0.28294 0.88963
 C233 C -0.13358 0.29212 0.86462
 C234 C -0.14793 0.33389 0.86148
 C235 C -0.12728 0.36663 0.88243
 C236 C -0.09192 0.35844 0.90734
 C237 C -0.07661 0.31644 0.91090
 C238 C -0.08293 0.24110 0.89433
 C239 C -0.04738 0.23264 0.91857
 C240 C -0.02607 0.26549 0.93856
 C241 C -0.04039 0.30703 0.93485
 H242 H -0.09862 0.21459 0.87952
 H243 H -0.03624 0.20042 0.92179
 H244 H 0.00167 0.25873 0.95712
 H245 H -0.02274 0.33160 0.95073
 H246 H -0.17525 0.34119 0.84247
 H247 H -0.13920 0.39863 0.87951
 C248 C 0.13422 0.64242 0.82841
 C249 C 0.15034 0.67880 0.84993
 C250 C 0.14583 0.68108 0.89392
 C251 C 0.12359 0.65065 0.91582
 C252 C 0.10480 0.61668 0.89489
 C253 C 0.11048 0.61181 0.85101
 C254 C 0.14363 0.63403 0.78570
 C255 C 0.12736 0.59858 0.76515
 C256 C 0.10243 0.57005 0.78679
 C257 C 0.09440 0.57618 0.82942
 H258 H 0.16461 0.65395 0.76800
 H259 H 0.13462 0.59293 0.73235
 H260 H 0.09010 0.54246 0.77070
 H261 H 0.07624 0.55233 0.84540
 H262 H 0.15733 0.70805 0.91163
 H263 H 0.11982 0.65441 0.94948
 C264 C 1.18535 0.14619 0.36395
 C265 C 1.16238 0.16672 0.33129
 C266 C 1.11807 0.16432 0.33192
 C267 C 1.09709 0.13961 0.36099
 C268 C 1.11931 0.11619 0.39066
 C269 C 1.16365 0.11997 0.39309
 C270 C 1.22887 0.15327 0.37020
 C271 C 1.25087 0.13259 0.40190
 C272 C 1.22996 0.10537 0.42881
 C273 C 1.18670 0.09939 0.42488
 H274 H 1.24613 0.17570 0.35150
 H275 H 1.28424 0.13815 0.40594
 H276 H 1.24719 0.08959 0.45350
 H277 H 1.17140 0.07925 0.44749
 H278 H 1.09918 0.17920 0.30786
 H279 H 1.06309 0.13732 0.35917
 C280 C 1.15883 -0.16711 0.64026
 C281 C 1.14333 -0.16177 0.68166
 C282 C 1.10745 -0.13700 0.68887
 C283 C 1.08748 -0.11646 0.65597
 C284 C 1.10260 -0.12023 0.61472
 C285 C 1.13803 -0.14656 0.60636
 C286 C 1.19431 -0.19281 0.63180
 C287 C 1.20870 -0.19860 0.59076
 C288 C 1.18793 -0.17926 0.55753
 C289 C 1.15281 -0.15362 0.56507
 H290 H 1.21095 -0.20885 0.65672
 H291 H 1.23590 -0.21849 0.58467
 H292 H 1.19897 -0.18430 0.52571
 H293 H 1.13716 -0.13993 0.53825
 H294 H 1.09536 -0.13279 0.72047
 H295 H 1.06048 -0.09652 0.66295
 C296 C 0.91128 -0.12416 0.28171
 C297 C 0.86647 -0.12781 0.28401
 C298 C 0.84539 -0.10868 0.31821
 C299 C 0.86749 -0.08953 0.35087
 C300 C 0.91145 -0.08857 0.35072
 C301 C 0.93381 -0.10519 0.31574
 C302 C 0.93404 -0.13587 0.24513
 C303 C 0.97773 -0.13219 0.24345
 C304 C 0.99971 -0.11560 0.27748
 C305 C 0.97809 -0.10168 0.31310
 H306 H 0.91840 -0.14673 0.21695
 H307 H 0.99456 -0.14167 0.21531
 H308 H 1.03361 -0.11250 0.27586
 H309 H 0.99636 -0.08737 0.33806
 H310 H 0.81145 -0.11051 0.32109
 H311 H 0.85008 -0.07626 0.37718
 C312 C 0.86696 0.08093 0.69824
 C313 C 0.86479 0.12611 0.70053
 C314 C 0.88457 0.14961 0.66883
 C315 C 0.90415 0.12984 0.63486
 C316 C 0.90474 0.08584 0.63100
 C317 C 0.88622 0.06087 0.66269
 C318 C 0.85385 0.05513 0.73191
 C319 C 0.85622 0.01117 0.72908
 C320 C 0.87289 -0.00821 0.69341
 C321 C 0.88831 0.01624 0.66072
 H322 H 0.84294 0.06837 0.76135
 H323 H 0.84564 -0.00796 0.75502
 H324 H 0.87490 -0.04236 0.69152
 H325 H 0.90250 -0.00019 0.63433
 H326 H 0.88368 0.18387 0.66940
 H327 H 0.91890 0.14915 0.61111
 C328 C 0.35465 1.18151 0.14351
 C329 C 0.31817 1.16059 0.15850
 C330 C 0.31256 1.11765 0.14901
 C331 C 0.34148 1.09566 0.12429
 C332 C 0.37679 1.11587 0.10751
 C333 C 0.38347 1.15938 0.11670
 C334 C 0.36330 1.22389 0.15476
 C335 C 0.39795 1.24478 0.13802
 C336 C 0.42459 1.22399 0.10986
 C337 C 0.41752 1.18177 0.09915
 H338 H 0.34366 1.24116 0.17680
 H339 H 0.40399 1.27737 0.14670
 H340 H 0.45102 1.24061 0.09641
 H341 H 0.43878 1.16716 0.07678
 H342 H 0.28493 1.10112 0.16007
 H343 H 0.33593 1.06245 0.11774
 C344 C 0.64846 1.16571 -0.14679
 C345 C 0.68701 1.14323 -0.15099
 C346 C 0.68996 1.10179 -0.13614
 C347 C 0.65609 1.08287 -0.11622
 C348 C 0.61804 1.10470 -0.11044
 C349 C 0.61363 1.14625 -0.12638
 C350 C 0.64342 1.20669 -0.16331
 C351 C 0.60515 1.22817 -0.15944
 C352 C 0.57114 1.20917 -0.13961
 C353 C 0.57510 1.16852 -0.12341
 H354 H 0.66871 1.22224 -0.17979
 H355 H 0.60173 1.25959 -0.17226
 H356 H 0.54141 1.22588 -0.13708
 H357 H 0.54760 1.15460 -0.10913
 H358 H 0.71919 1.08420 -0.13917
 H359 H 0.65993 1.05109 -0.10429
 C360 C 0.28943 0.89356 -0.12537
 C361 C 0.30036 0.85607 -0.14763
 C362 C 0.34211 0.84175 -0.14757
 C363 C 0.37329 0.86445 -0.12659
 C364 C 0.36355 0.90202 -0.10500
 C365 C 0.32123 0.91662 -0.10365
 C366 C 0.24733 0.90810 -0.12342
 C367 C 0.23685 0.94450 -0.10064
 C368 C 0.26782 0.96680 -0.07905
 C369 C 0.30958 0.95301 -0.08024
 H370 H 0.22211 0.89134 -0.13908
 H371 H 0.20445 0.95524 -0.09940
 H372 H 0.25941 0.99478 -0.06104
 H373 H 0.33236 0.97086 -0.06222
 H374 H 0.35063 0.81289 -0.16415
 H375 H 0.40542 0.85279 -0.12745
 C376 C 0.64201 0.84098 0.14319
 C377 C 0.68291 0.85882 0.14225
 C378 C 0.68965 0.89629 0.12021
 C379 C 0.65703 0.91574 0.09854
 C380 C 0.61650 0.89849 0.09830
 C381 C 0.60857 0.86079 0.12070
 C382 C 0.63348 0.80411 0.16628
 C383 C 0.59330 0.78646 0.16622
 C384 C 0.56097 0.80512 0.14330
 C385 C 0.56838 0.84191 0.12067
 H386 H 0.65762 0.78878 0.18474
 H387 H 0.58724 0.75809 0.18396
 H388 H 0.52995 0.79106 0.14314
 H389 H 0.54244 0.85522 0.10312
 H390 H 0.72075 0.91022 0.11912
 H391 H 0.66349 0.94457 0.08160
   
