data_POSCAR
  _audit_creation_date              2014-09-24
  _audit_creation_method            'ToBaCCo'
  _symmetry_space_group_name_H-M    'P1'
  _symmetry_Int_Tables_number       1
  _symmetry_cell_setting            triclinic
  loop_
  _symmetry_equiv_pos_as_xyz
 x,y,z
_cell_length_a 23.4960
_cell_length_b 24.0459
_cell_length_c 8.2831
_cell_angle_alpha 90.028800
_cell_angle_beta 90.087400
_cell_angle_gamma 89.990400
loop_
  _atom_site_label
  _atom_site_type_symbol
  _atom_site_fract_x
  _atom_site_fract_y
  _atom_site_fract_z
O1 O -0.07209 0.25394 0.10984
 O2 O 0.07248 0.25448 -0.08866
 O3 O -0.03970 0.25619 -0.18701
 O4 O 0.03955 0.25557 0.20731
 O5 O 0.04245 0.16412 0.19158
 O6 O -0.04237 0.16473 -0.17354
 O7 O 0.06390 0.16381 -0.11011
 O8 O -0.06398 0.16304 0.12672
 Cu9 Cu 0.00005 0.26495 0.01030
 Cu10 Cu 0.00006 0.15610 0.00871
 C11 C -0.09343 0.20658 0.14415
 C12 C 0.09388 0.20722 -0.12445
 C13 C -0.05764 0.20962 -0.24066
 C14 C 0.05756 0.20890 0.25985
 O15 O 0.45985 0.75750 0.68780
 O16 O 0.53971 0.75606 0.29590
 O17 O 0.42760 0.75377 0.39115
 O18 O 0.57162 0.75456 0.59353
 O19 O 0.56394 0.66363 0.61178
 O20 O 0.43534 0.66277 0.37679
 O21 O 0.54189 0.66460 0.31097
 O22 O 0.45753 0.66594 0.67743
 Cu23 Cu 0.49970 0.76529 0.49155
 Cu24 Cu 0.49967 0.65632 0.49436
 C25 C 0.44210 0.71114 0.74287
 C26 C 0.55750 0.70933 0.24343
 C27 C 0.40601 0.70635 0.35831
 C28 C 0.59311 0.70737 0.62940
 O29 O 1.04331 0.74397 0.19039
 O30 O 0.96125 0.74386 -0.19892
 O31 O 1.07362 0.74731 -0.10532
 O32 O 0.92990 0.74561 0.09944
 O33 O 0.93571 0.83675 0.11292
 O34 O 1.06507 0.83823 -0.11522
 O35 O 0.95890 0.83535 -0.18615
 O36 O 1.04081 0.83545 0.18580
 Cu37 Cu 1.00194 0.73535 -0.00363
 Cu38 Cu 1.00017 0.84419 -0.00074
 C39 C 1.05913 0.79071 0.24805
 C40 C 0.94338 0.79038 -0.25277
 C41 C 1.09495 0.79504 -0.13544
 C42 C 0.90741 0.79267 0.13235
 O43 O 0.42778 0.24568 0.40028
 O44 O 0.57150 0.24539 0.60312
 O45 O 0.45951 0.24344 0.69751
 O46 O 0.53952 0.24318 0.30580
 O47 O 0.54192 0.33471 0.31834
 O48 O 0.45743 0.33495 0.68447
 O49 O 0.56400 0.33639 0.61903
 O50 O 0.43558 0.33664 0.38347
 Cu51 Cu 0.49958 0.23459 0.50175
 Cu52 Cu 0.49975 0.34360 0.50148
 C53 C 0.40632 0.29298 0.36568
 C54 C 0.59313 0.29266 0.63731
 C55 C 0.44179 0.29006 0.75104
 C56 C 0.55730 0.28970 0.25182
 O57 O 0.73599 -0.05698 -0.08623
 O58 O 0.76525 0.06004 -0.37581
 O59 O 0.76604 -0.05701 -0.38450
 O60 O 0.73580 0.05521 -0.07905
 O61 O 0.82749 0.05383 -0.02340
 O62 O 0.85626 -0.05400 -0.31316
 O63 O 0.85634 0.05212 -0.32004
 O64 O 0.82676 -0.05290 -0.02064
 Cu65 Cu 0.74122 0.00029 -0.24228
 Cu66 Cu 0.84944 -0.00002 -0.16371
 C67 C 0.77841 -0.07577 -0.00709
 C68 C 0.81599 0.07888 -0.38467
 C69 C 0.81619 -0.07755 -0.38843
 C70 C 0.77862 0.07497 -0.00362
 O71 O 0.23499 0.55626 0.58461
 O72 O 0.26479 0.44272 0.88560
 O73 O 0.26483 0.55938 0.88261
 O74 O 0.23524 0.44386 0.58725
 O75 O 0.32635 0.44683 0.52566
 O76 O 0.35542 0.55428 0.81729
 O77 O 0.35537 0.44735 0.81981
 O78 O 0.32612 0.55311 0.52330
 Cu79 Cu 0.24044 0.50058 0.74545
 Cu80 Cu 0.34866 0.50039 0.66652
 C81 C 0.27750 0.57516 0.50645
 C82 C 0.31515 0.42283 0.89155
 C83 C 0.31521 0.57925 0.88781
 C84 C 0.27779 0.42459 0.50989
 O85 O 0.26450 0.94347 0.07557
 O86 O 0.23596 1.05731 0.37837
 O87 O 0.23609 0.94203 0.37386
 O88 O 0.26409 1.05840 0.07917
 O89 O 0.17365 1.05326 0.01227
 O90 O 0.14565 0.94712 0.30637
 O91 O 0.14568 1.05395 0.30778
 O92 O 0.17383 0.94825 0.01099
 Cu93 Cu 0.25987 1.00033 0.23495
 Cu94 Cu 0.15197 1.00063 0.15468
 C95 C 0.22181 0.92479 -0.00319
 C96 C 0.18566 1.07731 0.38424
 C97 C 0.18560 0.92252 0.37942
 C98 C 0.22145 1.07717 0.00038
 O99 O 0.73508 0.44112 0.11981
 O100 O 0.76469 0.55601 0.41697
 O101 O 0.76476 0.44309 0.41822
 O102 O 0.73533 0.55698 0.11796
 O103 O 0.64482 0.55274 0.18486
 O104 O 0.67366 0.44639 0.47956
 O105 O 0.67366 0.55275 0.47915
 O106 O 0.64449 0.44611 0.18550
 Cu107 Cu 0.75953 0.49929 0.25861
 Cu108 Cu 0.65133 0.49951 0.33756
 C109 C 0.68462 0.42150 0.11355
 C110 C 0.72213 0.57517 0.49456
 C111 C 0.72216 0.42407 0.49578
 C112 C 0.68496 0.57681 0.11156
 C113 C 0.11604 0.15121 0.44106
 C114 C 0.17293 0.13339 0.45126
 C115 C 0.21584 0.17393 0.45858
 C116 C 0.20279 0.23057 0.42940
 C117 C 0.14634 0.24495 0.38726
 C118 C 0.10347 0.20454 0.38276
 C119 C 0.24825 0.27355 0.41319
 C120 C 0.23597 0.32983 0.45060
 C121 C 0.27584 0.37161 0.41729
 C122 C 0.32554 0.35672 0.33524
 C123 C 0.34443 0.30139 0.33575
 C124 C 0.30432 0.25945 0.36452
 H125 H 0.08264 0.12010 0.43739
 H126 H 0.25935 0.16038 0.47358
 H127 H 0.13739 0.28584 0.33856
 H128 H 0.19693 0.34050 0.51276
 H129 H 0.35539 0.38933 0.30385
 H130 H 0.31775 0.21668 0.35311
 C131 C 0.82640 0.85590 0.16602
 C132 C 0.77660 0.87105 0.08467
 C133 C 0.73653 0.82939 0.05161
 C134 C 0.74883 0.77303 0.08804
 C135 C 0.80523 0.75869 0.13407
 C136 C 0.84545 0.80057 0.16324
 C137 C 0.70300 0.73032 0.07321
 C138 C 0.71554 0.67371 0.04226
 C139 C 0.67235 0.63345 0.04881
 C140 C 0.61561 0.65157 0.06150
 C141 C 0.60358 0.70480 0.12127
 C142 C 0.64679 0.74492 0.11732
 H143 H 0.85620 0.88848 0.19841
 H144 H 0.69723 0.84024 -0.00928
 H145 H 0.81871 0.71588 0.14359
 H146 H 0.75890 0.65995 0.02562
 H147 H 0.58197 0.62071 0.06467
 H148 H 0.63829 0.78576 0.16707
 C149 C 0.82611 0.14237 0.17348
 C150 C 0.84469 0.19783 0.17353
 C151 C 0.80425 0.23960 0.14540
 C152 C 0.74812 0.22518 0.09745
 C153 C 0.73606 0.16892 0.05974
 C154 C 0.77635 0.12737 0.09149
 C155 C 0.70240 0.26783 0.08125
 C156 C 0.64624 0.25345 0.12592
 C157 C 0.60311 0.29364 0.12887
 C158 C 0.61511 0.34660 0.06710
 C159 C 0.67187 0.36458 0.05316
 C160 C 0.71500 0.32423 0.04799
 H161 H 0.85618 0.10980 0.20389
 H162 H 0.81736 0.28247 0.15679
 H163 H 0.69691 0.15814 -0.00204
 H164 H 0.63778 0.21281 0.17697
 H165 H 0.58149 0.37749 0.06953
 H166 H 0.75841 0.33778 0.03066
 C167 C 0.11559 0.84835 0.42491
 C168 C 0.10317 0.79530 0.36354
 C169 C 0.14544 0.75420 0.37472
 C170 C 0.20184 0.76850 0.41916
 C171 C 0.21500 0.82508 0.44915
 C172 C 0.17237 0.86582 0.44081
 C173 C 0.24747 0.72557 0.40469
 C174 C 0.30369 0.73968 0.35681
 C175 C 0.34401 0.69775 0.32939
 C176 C 0.32523 0.64238 0.33000
 C177 C 0.27543 0.62766 0.41179
 C178 C 0.23528 0.66940 0.44310
 H179 H 0.08237 0.87968 0.42233
 H180 H 0.13673 0.71302 0.32755
 H181 H 0.25846 0.83838 0.46702
 H182 H 0.31699 0.78245 0.34451
 H183 H 0.35518 0.60972 0.29970
 H184 H 0.19611 0.65883 0.50469
 C185 C 0.67391 0.35630 0.66932
 C186 C 0.65502 0.30096 0.66801
 C187 C 0.69532 0.25901 0.64055
 C188 C 0.75169 0.27322 0.59484
 C189 C 0.76406 0.32947 0.55758
 C190 C 0.72392 0.37121 0.58892
 C191 C 0.79751 0.23047 0.58232
 C192 C 0.85337 0.24516 0.63002
 C193 C 0.89666 0.20521 0.63564
 C194 C 0.88500 0.15193 0.57565
 C195 C 0.82827 0.13343 0.56228
 C196 C 0.78514 0.17381 0.55033
 H197 H 0.64395 0.38891 0.70002
 H198 H 0.68199 0.21618 0.65119
 H199 H 0.80347 0.34015 0.49742
 H200 H 0.86150 0.28598 0.68040
 H201 H 0.91910 0.12152 0.57847
 H202 H 0.74182 0.16037 0.53003
 C203 C 0.38449 0.65475 0.92937
 C204 C 0.39629 0.70750 0.86591
 C205 C 0.35310 0.74766 0.86822
 C206 C 0.29707 0.73346 0.91466
 C207 C 0.28461 0.67705 0.94940
 C208 C 0.32782 0.63670 0.94490
 C209 C 0.25133 0.77633 0.90036
 C210 C 0.19457 0.76175 0.85811
 C211 C 0.15358 0.80350 0.83518
 C212 C 0.17263 0.85878 0.82954
 C213 C 0.22276 0.87423 0.90974
 C214 C 0.26389 0.83283 0.93593
 H215 H 0.41820 0.62395 0.92766
 H216 H 0.36146 0.78814 0.81598
 H217 H 0.24133 0.66345 0.96832
 H218 H 0.18151 0.71882 0.84825
 H219 H 0.14268 0.89116 0.79605
 H220 H 0.30383 0.84363 0.99348
 C221 C 0.38426 0.34736 0.93571
 C222 C 0.32766 0.36566 0.95090
 C223 C 0.28432 0.32550 0.95686
 C224 C 0.29650 0.26893 0.92341
 C225 C 0.35248 0.25439 0.87686
 C226 C 0.39585 0.29434 0.87363
 C227 C 0.25053 0.22620 0.91021
 C228 C 0.26320 0.16956 0.94358
 C229 C 0.22213 0.12825 0.91605
 C230 C 0.17184 0.14401 0.83723
 C231 C 0.15260 0.19917 0.84602
 C232 C 0.19353 0.24089 0.87047
 H233 H 0.41806 0.37805 0.93304
 H234 H 0.24113 0.33938 0.97572
 H235 H 0.36068 0.21377 0.82528
 H236 H 0.30328 0.15851 0.99995
 H237 H 0.14200 0.11172 0.80225
 H238 H 0.18028 0.28381 0.86281
 C239 C 0.67368 0.64368 0.66536
 C240 C 0.72387 0.62832 0.58651
 C241 C 0.76424 0.66980 0.55500
 C242 C 0.75195 0.72625 0.59042
 C243 C 0.69544 0.74076 0.63435
 C244 C 0.65493 0.69903 0.66187
 C245 C 0.79783 0.76892 0.57590
 C246 C 0.78537 0.82546 0.54350
 C247 C 0.82862 0.86567 0.54936
 C248 C 0.88535 0.84746 0.56276
 C249 C 0.89730 0.79446 0.62441
 C250 C 0.85400 0.75440 0.62121
 H251 H 0.64354 0.61128 0.69636
 H252 H 0.80372 0.65877 0.49567
 H253 H 0.68208 0.78361 0.64339
 H254 H 0.74204 0.83926 0.52616
 H255 H 0.91904 0.87828 0.56525
 H256 H 0.86242 0.71373 0.67217
   
