data_POSCAR
  _audit_creation_date              2014-09-24
  _audit_creation_method            'ToBaCCo'
  _symmetry_space_group_name_H-M    'P1'
  _symmetry_Int_Tables_number       1
  _symmetry_cell_setting            triclinic
  loop_
  _symmetry_equiv_pos_as_xyz
 x,y,z
_cell_length_a 61.3967
_cell_length_b 61.3583
_cell_length_c 21.7289
_cell_angle_alpha 90.120700
_cell_angle_beta 89.984400
_cell_angle_gamma 119.903200
loop_
  _atom_site_label
  _atom_site_type_symbol
  _atom_site_fract_x
  _atom_site_fract_y
  _atom_site_fract_z
O1 O 0.21285 0.47381 0.44780
 O2 O 0.25987 0.48034 0.56246
 O3 O 0.21789 0.48108 0.56563
 O4 O 0.25514 0.47323 0.44502
 O5 O 0.27610 0.51426 0.43055
 O6 O 0.23834 0.52209 0.55097
 O7 O 0.28046 0.52139 0.54920
 O8 O 0.23365 0.51476 0.43223
 Cu9 Cu 0.23433 0.47303 0.50656
 Cu10 Cu 0.25921 0.52224 0.48910
 C11 C 0.21502 0.49312 0.42069
 C12 C 0.27831 0.50190 0.57552
 C13 C 0.22157 0.50282 0.57882
 C14 C 0.27234 0.49242 0.41792
 O15 O 0.52583 -0.26041 0.45245
 O16 O 0.51915 -0.22067 0.56942
 O17 O 0.51790 -0.26364 0.56945
 O18 O 0.52710 -0.21720 0.45188
 O19 O 0.48623 -0.23673 0.43517
 O20 O 0.47698 -0.28328 0.55413
 O21 O 0.47825 -0.24011 0.55343
 O22 O 0.48502 -0.28001 0.43551
 Cu23 Cu 0.52656 -0.23852 0.51234
 Cu24 Cu 0.47752 -0.26201 0.49278
 C25 C 0.50661 -0.27726 0.42430
 C26 C 0.49766 -0.22344 0.58142
 C27 C 0.49602 -0.28153 0.58189
 C28 C 0.50823 -0.21881 0.42382
 O29 O 1.22339 0.74484 0.55889
 O30 O 1.26371 0.78439 0.43031
 O31 O 1.21919 0.74455 0.44039
 O32 O 1.26415 0.78884 0.54862
 O33 O 1.28542 0.76860 0.54894
 O34 O 1.23835 0.72224 0.43936
 O35 O 1.28289 0.76215 0.43011
 O36 O 1.24443 0.72440 0.55888
 Cu37 Cu 1.24066 0.76768 0.49462
 Cu38 Cu 1.26471 0.74222 0.49450
 C39 C 1.22705 0.72759 0.58040
 C40 C 1.28047 0.78000 0.40852
 C41 C 1.22051 0.72573 0.42166
 C42 C 1.28280 0.78705 0.56628
 O43 O 0.77644 0.51144 0.43689
 O44 O 0.73497 0.51666 0.54854
 O45 O 0.77528 0.51279 0.55590
 O46 O 0.73410 0.51155 0.43042
 O47 O 0.71217 0.47021 0.43707
 O48 O 0.75310 0.47145 0.56180
 O49 O 0.71273 0.47543 0.55661
 O50 O 0.75473 0.47006 0.44196
 Cu51 Cu 0.75740 0.51718 0.49228
 Cu52 Cu 0.73095 0.46765 0.49993
 C53 C 0.77304 0.49014 0.42040
 C54 C 0.71666 0.49719 0.57171
 C55 C 0.77129 0.49224 0.58004
 C56 C 0.71589 0.49057 0.41270
 O57 O 0.46728 0.21155 0.56729
 O58 O 0.46475 0.25465 0.45613
 O59 O 0.46477 0.21197 0.44901
 O60 O 0.47109 0.25554 0.57430
 O61 O 0.51231 0.27482 0.56479
 O62 O 0.50602 0.23167 0.43997
 O63 O 0.50596 0.27445 0.44628
 O64 O 0.50852 0.23060 0.55967
 Cu65 Cu 0.46289 0.23157 0.51233
 Cu66 Cu 0.51232 0.25482 0.50149
 C67 C 0.48805 0.21335 0.58265
 C68 C 0.48473 0.27217 0.43281
 C69 C 0.48447 0.21412 0.42391
 C70 C 0.49286 0.27268 0.59091
 O71 O 0.74699 0.22020 0.43260
 O72 O 0.78908 0.25672 0.56025
 O73 O 0.74686 0.21409 0.55021
 O74 O 0.79100 0.26061 0.44236
 O75 O 0.77170 0.28270 0.44976
 O76 O 0.72667 0.23523 0.55985
 O77 O 0.76897 0.27793 0.56901
 O78 O 0.72743 0.24199 0.44105
 Cu79 Cu 0.77038 0.23573 0.49553
 Cu80 Cu 0.74669 0.26160 0.50575
 C81 C 0.72980 0.22469 0.41546
 C82 C 0.78650 0.27399 0.58587
 C83 C 0.72907 0.21631 0.57303
 C84 C 0.78941 0.27981 0.42830
 O85 O 0.96631 0.45220 0.10933
 O86 O 0.93827 0.45833 0.05293
 C87 C 0.94362 0.44709 0.09587
 O88 O 1.03938 0.56342 0.09720
 O89 O 1.06537 0.55497 0.03867
 C90 C 1.06151 0.56788 0.08004
 O91 O 0.96906 0.52880 0.10892
 O92 O 0.93960 0.49519 0.05324
 C93 C 0.94600 0.51214 0.09586
 O94 O 1.03655 0.48336 0.09694
 O95 O 1.06400 0.51713 0.03869
 C96 C 1.05914 0.49999 0.07984
 Zr97 Zr 1.00123 0.47869 0.06997
 O98 O 1.00518 0.47929 0.16682
 O99 O 0.99881 0.44318 0.06336
 Zr100 Zr 1.00313 0.53471 0.06973
 O101 O 1.00730 0.53782 0.16656
 O102 O 1.00164 0.56845 0.06671
 O103 O 0.98002 0.49624 0.08419
 O104 O 1.02406 0.51704 0.07917
 O105 O 1.03271 0.48032 -0.11505
 O106 O 1.06215 0.51587 -0.06503
 C107 C 1.05576 0.49716 -0.10249
 O108 O 0.96549 0.52746 -0.11556
 O109 O 0.93770 0.49445 -0.05586
 C110 C 0.94288 0.51123 -0.09831
 O111 O 1.03526 0.56283 -0.11557
 O112 O 1.06354 0.55516 -0.06513
 C113 C 1.05802 0.56815 -0.10277
 O114 O 0.96271 0.44927 -0.11471
 O115 O 0.93646 0.45709 -0.05520
 C116 C 0.94052 0.44447 -0.09726
 Zr117 Zr 0.99866 0.47735 -0.08460
 O118 O 0.99990 0.47877 -0.18199
 O119 O 0.99522 0.44128 -0.08608
 Zr120 Zr 1.00053 0.53309 -0.08509
 O121 O 1.00189 0.53219 -0.18243
 O122 O 0.99888 0.56669 -0.08871
 Zr123 Zr 0.96322 0.48819 -0.00382
 Zr124 Zr 1.03846 0.52381 -0.01110
 O125 O 1.02143 0.51555 -0.09842
 O126 O 0.97685 0.49445 -0.09489
 O127 O 1.02232 0.48440 -0.00935
 O128 O 0.98003 0.52761 -0.00550
 O129 O 0.97780 0.46358 -0.00501
 O130 O 1.02444 0.54895 -0.00976
 H131 H 1.03564 0.52245 0.11488
 H132 H 0.96916 0.53529 -0.00420
 H133 H 1.03239 0.52074 -0.13526
 H134 H 0.96607 0.44520 -0.00348
 H135 H 1.01730 0.58149 0.04715
 H136 H 1.01051 0.57811 -0.05692
 H137 H 0.98608 0.51751 -0.19684
 H138 H 0.98480 0.47914 -0.19642
 H139 H 1.00590 0.44092 -0.05249
 H140 H 0.99926 0.43790 0.10618
 H141 H 0.99353 0.48436 0.18451
 H142 H 0.99450 0.52160 0.18426
 O143 O 0.44376 0.48204 0.11310
 O144 O 0.44866 0.51350 0.04771
 C145 C 0.43785 0.49844 0.09365
 O146 O 0.55602 0.52309 0.10057
 O147 O 0.54779 0.48622 0.05365
 C148 C 0.56116 0.50534 0.08930
 O149 O 0.51893 0.55634 0.10135
 O150 O 0.48495 0.54931 0.04287
 C151 C 0.50172 0.56160 0.08488
 O152 O 0.47684 0.44437 0.11640
 O153 O 0.51046 0.44926 0.05950
 C154 C 0.49375 0.43831 0.10215
 Zr155 Zr 0.47058 0.47292 0.07951
 O156 O 0.46890 0.47357 0.17680
 O157 O 0.43585 0.43896 0.07626
 Zr158 Zr 0.52580 0.52758 0.07002
 O159 O 0.52843 0.52944 0.16720
 O160 O 0.55874 0.56320 0.06279
 O161 O 0.48732 0.51194 0.08437
 O162 O 0.50917 0.48961 0.08856
 O163 O 0.47229 0.43678 -0.09602
 O164 O 0.50851 0.44557 -0.04507
 C165 C 0.48957 0.43155 -0.08059
 O166 O 0.51716 0.55028 -0.12299
 O167 O 0.48399 0.54650 -0.06582
 C168 C 0.50080 0.55697 -0.10866
 O169 O 0.55284 0.51565 -0.11281
 O170 O 0.54617 0.48267 -0.05091
 C171 C 0.55813 0.49868 -0.09433
 O172 O 0.44000 0.47412 -0.11091
 O173 O 0.44711 0.51001 -0.06085
 C174 C 0.43473 0.49174 -0.09957
 Zr175 Zr 0.46852 0.46823 -0.07446
 O176 O 0.46906 0.46412 -0.17114
 O177 O 0.43275 0.43543 -0.06920
 Zr178 Zr 0.52380 0.52261 -0.08430
 O179 O 0.52338 0.51809 -0.18101
 O180 O 0.55719 0.55791 -0.09019
 Zr181 Zr 0.47863 0.51702 -0.00655
 Zr182 Zr 0.51573 0.47880 0.00173
 O183 O 0.50668 0.48390 -0.08849
 O184 O 0.48496 0.50649 -0.09421
 O185 O 0.47647 0.45493 0.00573
 O186 O 0.51794 0.54020 -0.01006
 O187 O 0.45471 0.47792 0.00095
 O188 O 0.54023 0.51790 -0.00543
 H189 H 0.51549 0.48519 0.12566
 H190 H 0.52522 0.55867 -0.01264
 H191 H 0.51157 0.47687 -0.12349
 H192 H 0.43629 0.47102 0.00197
 H193 H 0.57120 0.56093 0.03899
 H194 H 0.57022 0.55689 -0.06564
 H195 H 0.50765 0.51677 -0.19678
 H196 H 0.47039 0.47937 -0.19014
 H197 H 0.43345 0.42498 -0.03550
 H198 H 0.43036 0.43465 0.11957
 H199 H 0.48627 0.48141 0.19268
 H200 H 0.51164 0.52506 0.18319
 O201 O 0.56196 0.03663 -0.10274
 O202 O 0.55624 0.06454 -0.04423
 C203 C 0.56778 0.05937 -0.08682
 O204 O 0.44965 -0.03209 -0.11008
 O205 O 0.45490 -0.06042 -0.05270
 C206 C 0.44368 -0.05493 -0.09513
 O207 O 0.48781 0.03831 -0.11126
 O208 O 0.52088 0.06521 -0.05006
 C209 C 0.50505 0.06067 -0.09450
 O210 O 0.52799 -0.03411 -0.09768
 O211 O 0.49140 -0.06171 -0.04832
 C212 C 0.51003 -0.05668 -0.08505
 Zr213 Zr 0.53345 0.00124 -0.06918
 O214 O 0.53521 -0.00101 -0.16611
 O215 O 0.56791 0.00173 -0.05850
 Zr216 Zr 0.47915 0.00277 -0.07640
 O217 O 0.47929 0.00084 -0.17369
 O218 O 0.44636 0.00593 -0.07839
 O219 O 0.51814 0.02439 -0.08407
 O220 O 0.49524 -0.01968 -0.08510
 O221 O 0.52362 -0.03558 0.11446
 O222 O 0.48937 -0.06211 0.05626
 C223 C 0.50617 -0.05788 0.09774
 O224 O 0.48413 0.03773 0.11297
 O225 O 0.51916 0.06510 0.05824
 C226 C 0.50183 0.06027 0.09887
 O227 O 0.44504 -0.03235 0.10378
 O228 O 0.45223 -0.06089 0.05241
 C229 C 0.43908 -0.05518 0.08917
 O230 O 0.55876 0.03449 0.12145
 O231 O 0.55483 0.06354 0.06344
 C232 C 0.56561 0.05744 0.10615
 Zr233 Zr 0.53023 0.00013 0.08528
 O234 O 0.52650 -0.00286 0.18225
 O235 O 0.56501 0.00086 0.09009
 Zr236 Zr 0.47631 0.00225 0.07798
 O237 O 0.47209 -0.00065 0.17480
 O238 O 0.44347 0.00484 0.06668
 Zr239 Zr 0.52446 0.03913 0.00609
 Zr240 Zr 0.48512 -0.03600 0.00293
 O241 O 0.49157 -0.02071 0.09223
 O242 O 0.51483 0.02355 0.09497
 O243 O 0.52415 -0.02202 0.00752
 O244 O 0.48543 0.02471 0.00112
 O245 O 0.54727 0.02255 0.00938
 O246 O 0.46178 -0.01997 -0.00055
 H247 H 0.49030 -0.03059 -0.12210
 H248 H 0.47890 0.03658 -0.00009
 H249 H 0.48493 -0.03215 0.12806
 H250 H 0.56577 0.03352 0.01080
 H251 H 0.43375 -0.00743 -0.05156
 H252 H 0.43730 0.00504 0.10871
 H253 H 0.48853 0.01150 0.19293
 H254 H 0.52618 0.01217 0.19754
 H255 H 0.56493 -0.01037 0.05723
 H256 H 0.57420 0.00205 -0.10069
 H257 H 0.53131 0.01150 -0.18367
 H258 H 0.49590 0.01424 -0.18802
 C259 C 1.15311 0.46515 0.33472
 C260 C 1.15599 0.48533 0.29747
 C261 C 1.17958 0.50786 0.29896
 C262 C 1.19882 0.51028 0.33861
 C263 C 1.19530 0.49032 0.37658
 C264 C 1.17242 0.46767 0.37335
 C265 C 1.18382 0.52797 0.26131
 C266 C 1.16517 0.52639 0.22221
 C267 C 1.14113 0.50466 0.21997
 C268 C 1.13631 0.48397 0.25913
 C269 C 1.11179 0.46293 0.26002
 C270 C 1.09261 0.46211 0.22443
 C271 C 1.09706 0.48191 0.18545
 C272 C 1.12150 0.50321 0.18132
 C273 C 1.12513 0.52221 0.13879
 C274 C 1.10511 0.52063 0.10460
 C275 C 1.08072 0.50018 0.11142
 C276 C 1.07700 0.48065 0.15124
 H277 H 1.13625 0.44704 0.33494
 H278 H 1.21656 0.52780 0.33997
 H279 H 1.16919 0.45182 0.40164
 H280 H 1.20181 0.54523 0.26210
 H281 H 1.17004 0.54295 0.19549
 H282 H 1.10650 0.44693 0.28931
 H283 H 1.07399 0.44575 0.22772
 H284 H 1.14321 0.53854 0.13059
 H285 H 1.10874 0.53586 0.07358
 H286 H 1.05834 0.46449 0.15635
 C287 C 0.53536 0.69168 0.33461
 C288 C 0.51460 0.67276 0.30179
 C289 C 0.49131 0.67219 0.30730
 C290 C 0.48872 0.68879 0.34751
 C291 C 0.50931 0.70685 0.38174
 C292 C 0.53272 0.70837 0.37349
 C293 C 0.47064 0.65490 0.27303
 C294 C 0.47247 0.63810 0.23329
 C295 C 0.49502 0.63738 0.22747
 C296 C 0.51620 0.65448 0.26375
 C297 C 0.53796 0.65216 0.26252
 C298 C 0.53906 0.63385 0.22718
 C299 C 0.51888 0.61753 0.19024
 C300 C 0.49684 0.61950 0.18831
 C301 C 0.47756 0.60345 0.14712
 C302 C 0.47964 0.58541 0.11219
 C303 C 0.50078 0.58247 0.11733
 C304 C 0.52055 0.59899 0.15576
 H305 H 0.55402 0.69435 0.33073
 H306 H 0.47054 0.68754 0.35205
 H307 H 0.54920 0.72227 0.39805
 H308 H 0.45276 0.65435 0.27688
 H309 H 0.45550 0.62522 0.20928
 H310 H 0.55427 0.66366 0.29033
 H311 H 0.55598 0.63246 0.22886
 H312 H 0.46073 0.60451 0.14026
 H313 H 0.46434 0.57341 0.08177
 H314 H 0.53729 0.59735 0.15927
 C315 C 0.33288 -0.19432 0.29516
 C316 C 0.33357 -0.17213 0.27471
 C317 C 0.31501 -0.16695 0.29800
 C318 C 0.29680 -0.18332 0.34026
 C319 C 0.29698 -0.20479 0.36182
 C320 C 0.31506 -0.21017 0.33785
 C321 C 0.31504 -0.14513 0.28014
 C322 C 0.33372 -0.12769 0.24195
 C323 C 0.35320 -0.13145 0.21936
 C324 C 0.35248 -0.15455 0.23375
 C325 C 0.37086 -0.15913 0.20727
 C326 C 0.39008 -0.14127 0.17090
 C327 C 0.39201 -0.11801 0.15978
 C328 C 0.37353 -0.11278 0.18346
 C329 C 0.37671 -0.08867 0.17197
 C330 C 0.39759 -0.07051 0.14010
 C331 C 0.41599 -0.07562 0.11772
 C332 C 0.41276 -0.09967 0.12645
 H333 H 0.34630 -0.19971 0.28063
 H334 H 0.28303 -0.17874 0.35797
 H335 H 0.31585 -0.22660 0.35283
 H336 H 0.30072 -0.14120 0.29696
 H337 H 0.33226 -0.11138 0.23085
 H338 H 0.37095 -0.17648 0.21360
 H339 H 0.40393 -0.14554 0.15236
 H340 H 0.36388 -0.08284 0.18860
 H341 H 0.39949 -0.05213 0.13367
 H342 H 0.42694 -0.10380 0.10964
 C343 C 0.80451 0.46626 0.30984
 C344 C 0.82695 0.48867 0.29435
 C345 C 0.83099 0.51135 0.32186
 C346 C 0.81314 0.51150 0.36172
 C347 C 0.79107 0.48924 0.37660
 C348 C 0.78696 0.46661 0.35047
 C349 C 0.85290 0.53392 0.30993
 C350 C 0.87142 0.53456 0.27239
 C351 C 0.86866 0.51255 0.24444
 C352 C 0.84566 0.48938 0.25354
 C353 C 0.84209 0.46788 0.22105
 C354 C 0.86051 0.46880 0.18215
 C355 C 0.88348 0.49094 0.17525
 C356 C 0.88807 0.51303 0.20706
 C357 C 0.91220 0.53460 0.20118
 C358 C 0.93069 0.53421 0.16479
 C359 C 0.92586 0.51252 0.13242
 C360 C 0.90208 0.49100 0.13737
 H361 H 0.80015 0.44808 0.29235
 H362 H 0.81675 0.52915 0.38207
 H363 H 0.77013 0.44910 0.36149
 H364 H 0.85590 0.55135 0.33036
 H365 H 0.88756 0.55287 0.26520
 H366 H 0.82497 0.45004 0.22382
 H367 H 0.85688 0.45184 0.15795
 H368 H 0.91772 0.55190 0.22544
 H369 H 0.94895 0.55107 0.16212
 H370 H 0.89823 0.47404 0.11304
 C371 C 0.45817 0.30782 0.34964
 C372 C 0.47922 0.32667 0.31775
 C373 C 0.50205 0.32617 0.32146
 C374 C 0.50385 0.30835 0.35853
 C375 C 0.48295 0.29034 0.39128
 C376 C 0.46009 0.29008 0.38559
 C377 C 0.52301 0.34355 0.28846
 C378 C 0.52184 0.36132 0.25125
 C379 C 0.49968 0.36285 0.24665
 C380 C 0.47830 0.34579 0.28214
 C381 C 0.45695 0.34883 0.28212
 C382 C 0.45626 0.36753 0.24782
 C383 C 0.47652 0.38365 0.21105
 C384 C 0.49836 0.38127 0.20891
 C385 C 0.51786 0.39732 0.16852
 C386 C 0.51601 0.41536 0.13361
 C387 C 0.49481 0.41829 0.13775
 C388 C 0.47505 0.40221 0.17644
 H389 H 0.43982 0.30600 0.34726
 H390 H 0.52156 0.30853 0.36189
 H391 H 0.44350 0.27623 0.40975
 H392 H 0.54055 0.34336 0.29116
 H393 H 0.53900 0.37415 0.22798
 H394 H 0.44057 0.33745 0.30969
 H395 H 0.43957 0.36930 0.24990
 H396 H 0.53466 0.39620 0.16197
 H397 H 0.53148 0.42725 0.10354
 H398 H 0.45838 0.40401 0.17935
 C399 C 0.67520 0.19858 0.30347
 C400 C 0.67352 0.17570 0.28450
 C401 C 0.69193 0.17020 0.30716
 C402 C 0.71091 0.18686 0.34718
 C403 C 0.71171 0.20893 0.36724
 C404 C 0.69390 0.21478 0.34433
 C405 C 0.69101 0.14778 0.29114
 C406 C 0.67143 0.12992 0.25581
 C407 C 0.65198 0.13390 0.23441
 C408 C 0.65380 0.15771 0.24584
 C409 C 0.63578 0.16260 0.21852
 C410 C 0.61603 0.14446 0.18359
 C411 C 0.61301 0.12053 0.17588
 C412 C 0.63080 0.11484 0.20178
 C413 C 0.62621 0.08995 0.19584
 C414 C 0.60511 0.07172 0.16494
 C415 C 0.58784 0.07749 0.13828
 C416 C 0.59203 0.10206 0.14330
 H417 H 0.66183 0.20412 0.28945
 H418 H 0.72451 0.18205 0.36475
 H419 H 0.69405 0.23174 0.35906
 H420 H 0.70531 0.14371 0.30728
 H421 H 0.67230 0.11321 0.24533
 H422 H 0.63662 0.18050 0.22257
 H423 H 0.60265 0.14906 0.16358
 H424 H 0.63809 0.08365 0.21615
 H425 H 0.60239 0.05290 0.16179
 H426 H 0.57863 0.10664 0.12337
 C427 C 0.46410 0.15735 -0.31650
 C428 C 0.48633 0.15777 -0.29779
 C429 C 0.50961 0.17860 -0.31578
 C430 C 0.51029 0.19713 -0.35521
 C431 C 0.48793 0.19576 -0.37578
 C432 C 0.46494 0.17595 -0.35454
 C433 C 0.53204 0.18073 -0.29455
 C434 C 0.53189 0.16269 -0.25558
 C435 C 0.50919 0.14119 -0.23808
 C436 C 0.48612 0.13827 -0.26154
 C437 C 0.46363 0.11557 -0.24999
 C438 C 0.46354 0.09652 -0.21573
 C439 C 0.48566 0.09948 -0.19031
 C440 C 0.50876 0.12205 -0.19961
 C441 C 0.53035 0.12442 -0.16969
 C442 C 0.52904 0.10478 -0.13432
 C443 C 0.50637 0.08213 -0.12830
 C444 C 0.48472 0.07975 -0.15593
 H445 H 0.44568 0.14315 -0.30171
 H446 H 0.52828 0.21258 -0.36980
 H447 H 0.44724 0.17443 -0.36798
 H448 H 0.54994 0.19661 -0.30791
 H449 H 0.55002 0.16565 -0.24171
 H450 H 0.44576 0.11144 -0.26892
 H451 H 0.44586 0.07925 -0.20898
 H452 H 0.54842 0.14131 -0.17199
 H453 H 0.54595 0.10714 -0.11264
 H454 H 0.46695 0.06246 -0.15032
 C455 C 0.68764 0.52735 -0.33710
 C456 C 0.66723 0.50663 -0.30821
 C457 C 0.66478 0.48258 -0.31667
 C458 C 0.68106 0.47937 -0.35650
 C459 C 0.70069 0.50007 -0.38679
 C460 C 0.70401 0.52409 -0.37529
 C461 C 0.64603 0.46185 -0.28548
 C462 C 0.62973 0.46445 -0.24569
 C463 C 0.63095 0.48788 -0.23721
 C464 C 0.64936 0.50906 -0.27097
 C465 C 0.64872 0.53174 -0.26828
 C466 C 0.63092 0.53379 -0.23328
 C467 C 0.61355 0.51365 -0.19807
 C468 C 0.61377 0.49064 -0.19791
 C469 C 0.59683 0.47142 -0.15810
 C470 C 0.57954 0.47453 -0.12290
 C471 C 0.57828 0.49667 -0.12664
 C472 C 0.59569 0.51634 -0.16355
 H473 H 0.69182 0.54645 -0.33023
 H474 H 0.67847 0.46072 -0.36352
 H475 H 0.71919 0.54066 -0.39664
 H476 H 0.64401 0.44339 -0.29156
 H477 H 0.61564 0.44745 -0.22399
 H478 H 0.66112 0.54807 -0.29491
 H479 H 0.63081 0.55141 -0.23372
 H480 H 0.59666 0.45390 -0.15249
 H481 H 0.56673 0.45922 -0.09362
 H482 H 0.59529 0.53380 -0.16570
 C483 C 0.84351 0.30469 -0.31534
 C484 C 0.84178 0.32495 -0.28927
 C485 C 0.81948 0.32582 -0.30011
 C486 C 0.80085 0.30839 -0.33978
 C487 C 0.80368 0.28946 -0.36892
 C488 C 0.82480 0.28733 -0.35435
 C489 C 0.81609 0.34446 -0.27258
 C490 C 0.83458 0.36268 -0.23530
 C491 C 0.85766 0.36341 -0.22533
 C492 C 0.86148 0.34448 -0.25368
 C493 C 0.88526 0.34634 -0.24790
 C494 C 0.90472 0.36609 -0.21624
 C495 C 0.90118 0.38444 -0.18768
 C496 C 0.87744 0.38302 -0.19000
 C497 C 0.87463 0.40144 -0.15705
 C498 C 0.89490 0.42098 -0.12589
 C499 C 0.91864 0.42303 -0.12703
 C500 C 0.92149 0.40442 -0.15726
 H501 H 0.85908 0.30168 -0.30664
 H502 H 0.78436 0.31003 -0.34897
 H503 H 0.82740 0.27263 -0.37462
 H504 H 0.79898 0.34512 -0.28038
 H505 H 0.83056 0.37661 -0.21691
 H506 H 0.88982 0.33331 -0.26947
 H507 H 0.92282 0.36705 -0.21435
 H508 H 0.85700 0.40118 -0.15382
 H509 H 0.89201 0.43474 -0.10157
 H510 H 0.93963 0.40540 -0.15705
 C511 C 0.47021 -0.19300 -0.31555
 C512 C 0.49189 -0.17308 -0.28755
 C513 C 0.51546 -0.17062 -0.30303
 C514 C 0.51703 -0.18738 -0.34445
 C515 C 0.49545 -0.20675 -0.37242
 C516 C 0.47205 -0.20945 -0.35723
 C517 C 0.53749 -0.15126 -0.27772
 C518 C 0.53692 -0.13358 -0.23897
 C519 C 0.51410 -0.13459 -0.22343
 C520 C 0.49112 -0.15524 -0.24602
 C521 C 0.46823 -0.15727 -0.22636
 C522 C 0.46778 -0.13932 -0.18797
 C523 C 0.49003 -0.11835 -0.16848
 C524 C 0.51353 -0.11560 -0.18612
 C525 C 0.53553 -0.09345 -0.16733
 C526 C 0.53416 -0.07487 -0.13341
 C527 C 0.51095 -0.07769 -0.11609
 C528 C 0.48891 -0.09973 -0.13277
 H529 H 0.45157 -0.19611 -0.30733
 H530 H 0.53530 -0.18498 -0.35577
 H531 H 0.45503 -0.22419 -0.37816
 H532 H 0.55553 -0.14952 -0.28866
 H533 H 0.55485 -0.11942 -0.22133
 H534 H 0.45019 -0.17272 -0.23951
 H535 H 0.44974 -0.14163 -0.17444
 H536 H 0.55416 -0.08939 -0.17977
 H537 H 0.55147 -0.05799 -0.12120
 H538 H 0.47084 -0.10188 -0.12037
 C539 C 0.33500 0.52944 -0.32297
 C540 C 0.33415 0.50773 -0.29786
 C541 C 0.31396 0.48402 -0.31607
 C542 C 0.29528 0.48233 -0.35632
 C543 C 0.29649 0.50398 -0.38156
 C544 C 0.31661 0.52753 -0.36422
 C545 C 0.31259 0.46197 -0.29474
 C546 C 0.33134 0.46278 -0.25759
 C547 C 0.35214 0.48585 -0.23904
 C548 C 0.35290 0.50867 -0.25675
 C549 C 0.37220 0.53155 -0.23229
 C550 C 0.39066 0.53222 -0.19386
 C551 C 0.39119 0.51030 -0.17983
 C552 C 0.37211 0.48683 -0.20287
 C553 C 0.37422 0.46534 -0.19028
 C554 C 0.39433 0.46717 -0.15632
 C555 C 0.41295 0.49031 -0.13284
 C556 C 0.41101 0.51178 -0.14389
 H557 H 0.35004 0.54817 -0.31309
 H558 H 0.28006 0.46388 -0.36919
 H559 H 0.31832 0.54469 -0.38280
 H560 H 0.29701 0.44377 -0.30781
 H561 H 0.32867 0.44484 -0.24301
 H562 H 0.37327 0.54934 -0.24102
 H563 H 0.40500 0.55019 -0.17594
 H564 H 0.36116 0.44693 -0.20781
 H565 H 0.39531 0.45023 -0.14865
 H566 H 0.42537 0.52979 -0.12631
 C567 C 1.19984 0.67492 -0.30249
 C568 C 1.17667 0.67320 -0.28663
 C569 C 1.17128 0.69119 -0.31275
 C570 C 1.18817 0.70957 -0.35391
 C571 C 1.21054 0.71029 -0.37085
 C572 C 1.21630 0.69303 -0.34388
 C573 C 1.14879 0.69047 -0.29877
 C574 C 1.13100 0.67176 -0.26132
 C575 C 1.13493 0.65278 -0.23604
 C576 C 1.15847 0.65396 -0.24727
 C577 C 1.16282 0.63565 -0.21949
 C578 C 1.14458 0.61636 -0.18392
 C579 C 1.12114 0.61428 -0.17477
 C580 C 1.11599 0.63251 -0.20045
 C581 C 1.09176 0.62926 -0.19077
 C582 C 1.07350 0.60870 -0.15830
 C583 C 1.07852 0.59057 -0.13362
 C584 C 1.10262 0.59374 -0.14108
 H585 H 1.20566 0.66221 -0.28497
 H586 H 1.18344 0.72278 -0.37442
 H587 H 1.23351 0.69316 -0.35570
 H588 H 1.14469 0.70435 -0.31781
 H589 H 1.11424 0.67277 -0.25322
 H590 H 1.18023 0.63559 -0.22440
 H591 H 1.14875 0.60263 -0.16418
 H592 H 1.08597 0.64190 -0.20876
 H593 H 1.05515 0.60694 -0.15289
 H594 H 1.10672 0.57980 -0.12244
 C595 C 0.79998 0.46965 -0.29915
 C596 C 0.82269 0.49181 -0.28423
 C597 C 0.82750 0.51443 -0.31357
 C598 C 0.81032 0.51460 -0.35597
 C599 C 0.78829 0.49237 -0.37135
 C600 C 0.78321 0.47000 -0.34203
 C601 C 0.84967 0.53676 -0.30146
 C602 C 0.86784 0.53708 -0.26299
 C603 C 0.86448 0.51495 -0.23446
 C604 C 0.84106 0.49219 -0.24286
 C605 C 0.83693 0.47060 -0.20998
 C606 C 0.85542 0.47087 -0.17255
 C607 C 0.87893 0.49244 -0.16715
 C608 C 0.88384 0.51480 -0.19807
 C609 C 0.90828 0.53587 -0.19300
 C610 C 0.92697 0.53460 -0.15966
 C611 C 0.92209 0.51247 -0.12945
 C612 C 0.89781 0.49160 -0.13222
 H613 H 0.79487 0.45156 -0.27991
 H614 H 0.81452 0.53204 -0.37840
 H615 H 0.76632 0.45250 -0.35293
 H616 H 0.85327 0.55418 -0.32292
 H617 H 0.88432 0.55518 -0.25621
 H618 H 0.81943 0.45309 -0.21181
 H619 H 0.85145 0.45377 -0.14868
 H620 H 0.91395 0.55344 -0.21589
 H621 H 0.94552 0.55110 -0.15811
 H622 H 0.89385 0.47439 -0.10912
 C623 C 0.52229 0.32801 -0.29910
 C624 C 0.50109 0.32739 -0.27153
 C625 C 0.47701 0.30747 -0.28862
 C626 C 0.47449 0.28932 -0.33189
 C627 C 0.49566 0.29068 -0.35996
 C628 C 0.51954 0.30999 -0.34252
 C629 C 0.45545 0.30598 -0.26344
 C630 C 0.45706 0.32451 -0.22399
 C631 C 0.48047 0.34539 -0.20776
 C632 C 0.50289 0.34623 -0.22941
 C633 C 0.52629 0.36603 -0.20880
 C634 C 0.52783 0.38516 -0.17145
 C635 C 0.50622 0.38561 -0.15387
 C636 C 0.48221 0.36567 -0.17139
 C637 C 0.46093 0.36746 -0.15409
 C638 C 0.46354 0.38846 -0.12283
 C639 C 0.48729 0.40827 -0.10674
 C640 C 0.50855 0.40640 -0.12072
 H641 H 0.54128 0.34253 -0.28956
 H642 H 0.45589 0.27444 -0.34485
 H643 H 0.53627 0.31152 -0.36334
 H644 H 0.43702 0.29053 -0.27536
 H645 H 0.43943 0.32179 -0.20675
 H646 H 0.54392 0.36732 -0.22072
 H647 H 0.54623 0.40017 -0.15764
 H648 H 0.44200 0.35350 -0.16608
 H649 H 0.44678 0.38940 -0.11219
 H650 H 0.52700 0.42174 -0.10876
 C651 C 0.69180 0.15279 -0.35137
 C652 C 0.67532 0.15598 -0.31174
 C653 C 0.67770 0.18019 -0.30865
 C654 C 0.69501 0.19985 -0.34651
 C655 C 0.71081 0.19609 -0.38632
 C656 C 0.70917 0.17249 -0.38766
 C657 C 0.66283 0.18464 -0.26774
 C658 C 0.64586 0.16572 -0.22914
 C659 C 0.64253 0.14122 -0.23110
 C660 C 0.65683 0.13606 -0.27476
 C661 C 0.65172 0.11102 -0.28119
 C662 C 0.63363 0.09176 -0.24559
 C663 C 0.62025 0.09663 -0.20115
 C664 C 0.62485 0.12148 -0.19214
 C665 C 0.61164 0.12549 -0.14414
 C666 C 0.59384 0.10548 -0.10898
 C667 C 0.58835 0.08076 -0.12050
 C668 C 0.60203 0.07660 -0.16611
 H669 H 0.69215 0.13545 -0.35467
 H670 H 0.69641 0.21816 -0.34437
 H671 H 0.72126 0.16905 -0.41758
 H672 H 0.66447 0.20304 -0.26515
 H673 H 0.63500 0.17073 -0.19940
 H674 H 0.66084 0.10544 -0.31497
 H675 H 0.63013 0.07279 -0.25291
 H676 H 0.61483 0.14388 -0.13202
 H677 H 0.58411 0.10946 -0.07298
 H678 H 0.59836 0.05766 -0.17491
 C679 C 1.19388 0.53156 -0.31447
 C680 C 1.17266 0.51006 -0.29007
 C681 C 1.16861 0.48613 -0.30846
 C682 C 1.18515 0.48404 -0.34925
 C683 C 1.20564 0.50548 -0.37417
 C684 C 1.20998 0.52922 -0.35598
 C685 C 1.14779 0.46429 -0.28717
 C686 C 1.13001 0.46553 -0.25041
 C687 C 1.13256 0.48884 -0.23277
 C688 C 1.15490 0.51143 -0.24990
 C689 C 1.15865 0.53454 -0.22647
 C690 C 1.14064 0.53570 -0.19013
 C691 C 1.11795 0.51403 -0.17703
 C692 C 1.11346 0.49030 -0.19852
 C693 C 1.08962 0.46908 -0.18682
 C694 C 1.07118 0.47143 -0.15519
 C695 C 1.07586 0.49485 -0.13348
 C696 C 1.09943 0.51606 -0.14373
 H697 H 1.19814 0.55046 -0.30409
 H698 H 1.18152 0.46553 -0.36310
 H699 H 1.22568 0.54612 -0.37461
 H700 H 1.14489 0.44595 -0.30016
 H701 H 1.11457 0.44775 -0.23582
 H702 H 1.17555 0.55216 -0.23475
 H703 H 1.14427 0.55387 -0.17338
 H704 H 1.08422 0.45050 -0.20332
 H705 H 1.05306 0.45477 -0.14792
 H706 H 1.10306 0.53433 -0.12778
 C707 C 0.46676 0.66191 -0.31732
 C708 C 0.48812 0.66197 -0.29255
 C709 C 0.51212 0.68188 -0.30970
 C710 C 0.51443 0.70099 -0.34884
 C711 C 0.49316 0.70034 -0.37461
 C712 C 0.46930 0.68067 -0.35799
 C713 C 0.53383 0.68241 -0.28895
 C714 C 0.53236 0.66279 -0.25441
 C715 C 0.50894 0.64209 -0.23790
 C716 C 0.48655 0.64254 -0.25339
 C717 C 0.46350 0.62368 -0.22890
 C718 C 0.46227 0.60438 -0.19286
 C719 C 0.48368 0.60250 -0.18220
 C720 C 0.50724 0.62109 -0.20568
 C721 C 0.52806 0.61746 -0.19791
 C722 C 0.52563 0.59657 -0.16690
 C723 C 0.50255 0.57871 -0.14188
 C724 C 0.48165 0.58191 -0.14905
 H725 H 0.44786 0.64709 -0.30815
 H726 H 0.53309 0.71592 -0.36112
 H727 H 0.45243 0.67950 -0.37699
 H728 H 0.55224 0.69785 -0.30093
 H729 H 0.55000 0.66466 -0.23997
 H730 H 0.44612 0.62370 -0.23552
 H731 H 0.44424 0.59045 -0.17446
 H732 H 0.54631 0.62994 -0.21716
 H733 H 0.54209 0.59452 -0.16214
 H734 H 0.46369 0.56806 -0.13027
 C735 C 0.31991 -0.14951 -0.35829
 C736 C 0.33755 -0.15204 -0.32186
 C737 C 0.33632 -0.17578 -0.32131
 C738 C 0.31880 -0.19566 -0.35844
 C739 C 0.30169 -0.19257 -0.39466
 C740 C 0.30239 -0.16939 -0.39376
 C741 C 0.35244 -0.17955 -0.28338
 C742 C 0.36937 -0.16051 -0.24485
 C743 C 0.37135 -0.13655 -0.24402
 C744 C 0.35599 -0.13193 -0.28526
 C745 C 0.35991 -0.10725 -0.28956
 C746 C 0.37766 -0.08789 -0.25344
 C747 C 0.39184 -0.09235 -0.21065
 C748 C 0.38860 -0.11682 -0.20440
 C749 C 0.40260 -0.12054 -0.15814
 C750 C 0.41976 -0.10060 -0.12182
 C751 C 0.42376 -0.07621 -0.13031
 C752 C 0.40944 -0.07232 -0.17440
 H753 H 0.31865 -0.13262 -0.35938
 H754 H 0.31816 -0.21364 -0.35824
 H755 H 0.28932 -0.16645 -0.42109
 H756 H 0.35175 -0.19756 -0.28285
 H757 H 0.38122 -0.16498 -0.21738
 H758 H 0.35008 -0.10200 -0.32196
 H759 H 0.38019 -0.06920 -0.25886
 H760 H 0.40051 -0.13868 -0.14820
 H761 H 0.43022 -0.10436 -0.08742
 H762 H 0.41209 -0.05364 -0.18089
 C763 C 0.53845 -0.15759 0.33600
 C764 C 0.51806 -0.15910 0.30206
 C765 C 0.49474 -0.18187 0.30521
 C766 C 0.49179 -0.20150 0.34370
 C767 C 0.51189 -0.19913 0.37918
 C768 C 0.53533 -0.17726 0.37387
 C769 C 0.47429 -0.18483 0.27085
 C770 C 0.47625 -0.16558 0.23376
 C771 C 0.49878 -0.14223 0.23034
 C772 C 0.51992 -0.13880 0.26579
 C773 C 0.54192 -0.11495 0.26547
 C774 C 0.54323 -0.09506 0.23225
 C775 C 0.52293 -0.09816 0.19703
 C776 C 0.50062 -0.12191 0.19421
 C777 C 0.48103 -0.12421 0.15551
 C778 C 0.48316 -0.10357 0.12358
 C779 C 0.50480 -0.07991 0.12889
 C780 C 0.52477 -0.07745 0.16509
 H781 H 0.55710 -0.14152 0.33449
 H782 H 0.47365 -0.21852 0.34670
 H783 H 0.55131 -0.17504 0.40013
 H784 H 0.45645 -0.20222 0.27296
 H785 H 0.45937 -0.16941 0.20975
 H786 H 0.55837 -0.11070 0.29204
 H787 H 0.56035 -0.07697 0.23442
 H788 H 0.46382 -0.14168 0.14848
 H789 H 0.46752 -0.10614 0.09532
 H790 H 0.54180 -0.05933 0.16866
 C791 C 0.30554 0.46387 0.33217
 C792 C 0.32397 0.48450 0.29819
 C793 C 0.32319 0.50721 0.29951
 C794 C 0.30588 0.50953 0.33727
 C795 C 0.28875 0.48931 0.37332
 C796 C 0.28832 0.46633 0.36908
 C797 C 0.33996 0.52764 0.26407
 C798 C 0.35775 0.52620 0.22751
 C799 C 0.35992 0.50435 0.22625
 C800 C 0.34317 0.48340 0.26346
 C801 C 0.34678 0.46244 0.26668
 C802 C 0.36598 0.46184 0.23458
 C803 C 0.38197 0.48175 0.19680
 C804 C 0.37884 0.50303 0.19068
 C805 C 0.39480 0.52205 0.14898
 C806 C 0.41360 0.52032 0.11696
 C807 C 0.41735 0.49983 0.12576
 C808 C 0.40123 0.48048 0.16531
 H809 H 0.30380 0.44552 0.33116
 H810 H 0.30605 0.52727 0.33929
 H811 H 0.27500 0.45024 0.39564
 H812 H 0.33941 0.54503 0.26476
 H813 H 0.37020 0.54300 0.20243
 H814 H 0.33562 0.44642 0.29553
 H815 H 0.36831 0.44553 0.23941
 H816 H 0.39304 0.53830 0.13921
 H817 H 0.42533 0.53522 0.08543
 H818 H 0.40352 0.46419 0.17139
 C819 C 1.15887 0.69278 0.33695
 C820 C 1.16065 0.67428 0.30207
 C821 C 1.18334 0.67350 0.30576
 C822 C 1.20287 0.68996 0.34533
 C823 C 1.20043 0.70784 0.38021
 C824 C 1.17835 0.70911 0.37512
 C825 C 1.18642 0.65639 0.26977
 C826 C 1.16759 0.64016 0.22972
 C827 C 1.14453 0.63996 0.22518
 C828 C 1.14075 0.65679 0.26343
 C829 C 1.11698 0.65518 0.26301
 C830 C 1.09764 0.63803 0.22604
 C831 C 1.10120 0.62202 0.18726
 C832 C 1.12478 0.62302 0.18507
 C833 C 1.12748 0.60693 0.14281
 C834 C 1.10722 0.58977 0.10708
 C835 C 1.08364 0.58802 0.11220
 C836 C 1.08098 0.60461 0.15148
 H837 H 1.14292 0.69558 0.33511
 H838 H 1.22005 0.68908 0.34827
 H839 H 1.17594 0.72285 0.40112
 H840 H 1.20366 0.65563 0.27225
 H841 H 1.17147 0.62745 0.20402
 H842 H 1.11229 0.66640 0.29232
 H843 H 1.07961 0.63723 0.22808
 H844 H 1.14495 0.60711 0.13613
 H845 H 1.10995 0.57740 0.07642
 H846 H 1.06294 0.60374 0.15513
 C847 C 0.45848 0.15418 0.33018
 C848 C 0.48015 0.15690 0.29984
 C849 C 0.50277 0.18015 0.30667
 C850 C 0.50382 0.19902 0.34538
 C851 C 0.48250 0.19543 0.37763
 C852 C 0.45974 0.17312 0.36839
 C853 C 0.52444 0.18432 0.27592
 C854 C 0.52440 0.16579 0.23908
 C855 C 0.50266 0.14196 0.23234
 C856 C 0.48023 0.13735 0.26378
 C857 C 0.45889 0.11310 0.25985
 C858 C 0.45940 0.09396 0.22697
 C859 C 0.48098 0.09818 0.19571
 C860 C 0.50278 0.12233 0.19665
 C861 C 0.52380 0.12569 0.16195
 C862 C 0.52331 0.10571 0.12974
 C863 C 0.50203 0.08169 0.13111
 C864 C 0.48084 0.07819 0.16380
 H865 H 0.44026 0.13764 0.32573
 H866 H 0.52150 0.21637 0.35139
 H867 H 0.44288 0.16993 0.39213
 H868 H 0.54177 0.20211 0.28077
 H869 H 0.54207 0.17058 0.21786
 H870 H 0.44153 0.10799 0.28320
 H871 H 0.44265 0.07554 0.22622
 H872 H 0.54087 0.14352 0.15822
 H873 H 0.53985 0.10909 0.10417
 H874 H 0.46405 0.05980 0.16433
 C875 C 0.66224 0.46569 0.29812
 C876 C 0.66239 0.48780 0.27875
 C877 C 0.68140 0.51106 0.30299
 C878 C 0.69930 0.51192 0.34472
 C879 C 0.69843 0.48979 0.36454
 C880 C 0.67988 0.46675 0.34037
 C881 C 0.68223 0.53339 0.28652
 C882 C 0.66397 0.53319 0.24854
 C883 C 0.64412 0.51050 0.22479
 C884 C 0.64395 0.48755 0.23784
 C885 C 0.62528 0.46517 0.20990
 C886 C 0.60671 0.46493 0.17294
 C887 C 0.60570 0.48684 0.16293
 C888 C 0.62436 0.50997 0.18864
 C889 C 0.62195 0.53146 0.17867
 C890 C 0.60176 0.52988 0.14554
 C891 C 0.58335 0.50698 0.12055
 C892 C 0.58573 0.48560 0.12844
 H893 H 0.64835 0.44717 0.28297
 H894 H 0.71348 0.52987 0.36327
 H895 H 0.67873 0.44932 0.35482
 H896 H 0.69693 0.55126 0.30416
 H897 H 0.66611 0.55131 0.23831
 H898 H 0.62454 0.44738 0.21531
 H899 H 0.59264 0.44724 0.15297
 H900 H 0.63486 0.54969 0.19737
 H901 H 0.60047 0.54674 0.14003
 H902 H 0.57152 0.46774 0.10964
 C903 C 0.85158 0.31801 0.34771
 C904 C 0.84867 0.33651 0.31616
 C905 C 0.82495 0.33520 0.31957
 C906 C 0.80561 0.31692 0.35654
 C907 C 0.80915 0.29910 0.38849
 C908 C 0.83218 0.29970 0.38291
 C909 C 0.82070 0.35206 0.28588
 C910 C 0.83928 0.36991 0.24794
 C911 C 0.86330 0.37218 0.24379
 C912 C 0.86837 0.35594 0.28068
 C913 C 0.89313 0.36003 0.28216
 C914 C 0.91212 0.37876 0.24733
 C915 C 0.90720 0.39382 0.20852
 C916 C 0.88266 0.39053 0.20517
 C917 C 0.87853 0.40551 0.16249
 C918 C 0.89813 0.42339 0.12636
 C919 C 0.92258 0.42730 0.13206
 C920 C 0.92684 0.41223 0.17307
 H921 H 0.86843 0.31673 0.34509
 H922 H 0.78771 0.31635 0.35972
 H923 H 0.83542 0.28605 0.40659
 H924 H 0.80268 0.35126 0.28824
 H925 H 0.83448 0.38224 0.22374
 H926 H 0.89871 0.34954 0.31150
 H927 H 0.93089 0.38133 0.25048
 H928 H 0.86027 0.40350 0.15491
 H929 H 0.89406 0.43423 0.09390
 H930 H 0.94553 0.41467 0.17721
   
