data_POSCAR
  _audit_creation_date              2014-09-24
  _audit_creation_method            'ToBaCCo'
  _symmetry_space_group_name_H-M    'P1'
  _symmetry_Int_Tables_number       1
  _symmetry_cell_setting            triclinic
  loop_
  _symmetry_equiv_pos_as_xyz
 x,y,z
_cell_length_a 64.1392
_cell_length_b 64.2998
_cell_length_c 64.5191
_cell_angle_alpha 90.129800
_cell_angle_beta 89.993800
_cell_angle_gamma 90.130000
loop_
  _atom_site_label
  _atom_site_type_symbol
  _atom_site_fract_x
  _atom_site_fract_y
  _atom_site_fract_z
N1 N 0.28549 0.24329 0.22924
 N2 N 0.27725 0.25981 0.22049
 C3 C 0.28836 0.26465 0.20342
 C4 C 0.30430 0.25043 0.20155
 C5 C 0.30210 0.23707 0.21808
 H6 H 0.28500 0.27734 0.19298
 H7 H 0.31167 0.22369 0.22154
 Cu8 Cu 0.25247 0.27288 0.23197
 Cu9 Cu 0.27373 0.23070 0.25409
 Cu10 Cu 0.22974 0.25409 0.27496
 N11 N 0.22792 0.28603 0.24388
 N12 N 0.21913 0.27858 0.26074
 C13 C 0.20229 0.29012 0.26544
 C14 C 0.20054 0.30556 0.25077
 C15 C 0.21694 0.30260 0.23728
 H16 H 0.19191 0.28733 0.27836
 H17 H 0.22037 0.31165 0.22359
 N18 N 0.24281 0.22920 0.28710
 N19 N 0.25957 0.22030 0.27914
 C20 C 0.26448 0.20354 0.29063
 C21 C 0.25017 0.20194 0.30646
 C22 C 0.23664 0.21833 0.30385
 H23 H 0.27735 0.19312 0.28764
 H24 H 0.22321 0.22188 0.31334
 H25 H 0.24341 0.24043 0.24932
 H26 H 0.26035 0.25754 0.26559
 N27 N 0.71295 -0.24372 0.22843
 N28 N 0.72115 -0.26023 0.21953
 C29 C 0.70975 -0.26528 0.20270
 C30 C 0.69368 -0.25119 0.20115
 C31 C 0.69606 -0.23770 0.21760
 H32 H 0.71300 -0.27803 0.19223
 H33 H 0.68644 -0.22439 0.22126
 Cu34 Cu 0.74622 -0.27307 0.23059
 Cu35 Cu 0.72507 -0.23094 0.25307
 Cu36 Cu 0.76962 -0.25390 0.27312
 N37 N 0.77108 -0.28599 0.24201
 N38 N 0.78015 -0.27838 0.25870
 C39 C 0.79717 -0.28977 0.26309
 C40 C 0.79872 -0.30526 0.24838
 C41 C 0.78205 -0.30251 0.23520
 H42 H 0.80778 -0.28682 0.27581
 H43 H 0.77842 -0.31164 0.22157
 N44 N 0.75659 -0.22906 0.28550
 N45 N 0.73962 -0.22033 0.27786
 C46 C 0.73486 -0.20349 0.28939
 C47 C 0.74948 -0.20168 0.30491
 C48 C 0.76305 -0.21801 0.30208
 H49 H 0.72192 -0.19312 0.28658
 H50 H 0.77674 -0.22136 0.31125
 H51 H 0.75537 -0.24046 0.24775
 H52 H 0.73887 -0.25762 0.26433
 N53 N 0.71538 0.24137 0.77308
 N54 N 0.72330 0.25809 0.78189
 C55 C 0.71191 0.26288 0.79878
 C56 C 0.69613 0.24839 0.80049
 C57 C 0.69871 0.23495 0.78404
 H58 H 0.71491 0.27577 0.80917
 H59 H 0.68927 0.22146 0.78043
 Cu60 Cu 0.74796 0.27162 0.77058
 Cu61 Cu 0.72749 0.22892 0.74831
 Cu62 Cu 0.77118 0.25312 0.72766
 N63 N 0.77231 0.28525 0.75873
 N64 N 0.78131 0.27790 0.74191
 C65 C 0.79787 0.28989 0.73716
 C66 C 0.79919 0.30548 0.75178
 C67 C 0.78285 0.30220 0.76527
 H68 H 0.80826 0.28734 0.72419
 H69 H 0.77911 0.31133 0.77887
 N70 N 0.75860 0.22790 0.71548
 N71 N 0.74195 0.21870 0.72335
 C72 C 0.73731 0.20183 0.71178
 C73 C 0.75169 0.20048 0.69600
 C74 C 0.76498 0.21712 0.69870
 H75 H 0.72455 0.19121 0.71467
 H76 H 0.77835 0.22095 0.68922
 H77 H 0.75762 0.23929 0.75322
 H78 H 0.74048 0.25604 0.73691
 N79 N 0.28876 -0.24400 0.76844
 N80 N 0.28132 -0.26105 0.77694
 C81 C 0.29279 -0.26570 0.79379
 C82 C 0.30815 -0.25081 0.79578
 C83 C 0.30522 -0.23725 0.77955
 H84 H 0.29004 -0.27871 0.80403
 H85 H 0.31419 -0.22337 0.77627
 Cu86 Cu 0.25695 -0.27518 0.76564
 Cu87 Cu 0.27617 -0.23149 0.74403
 Cu88 Cu 0.23208 -0.25549 0.72411
 N89 N 0.23174 -0.28797 0.75462
 N90 N 0.22213 -0.28023 0.73836
 C91 C 0.20495 -0.29164 0.73436
 C92 C 0.20387 -0.30727 0.74889
 C93 C 0.22097 -0.30458 0.76157
 H94 H 0.19389 -0.28856 0.72210
 H95 H 0.22499 -0.31376 0.77501
 N96 N 0.24448 -0.23032 0.71181
 N97 N 0.26128 -0.22116 0.71943
 C98 C 0.26557 -0.20412 0.70805
 C99 C 0.25079 -0.20263 0.69265
 C100 C 0.23764 -0.21935 0.69540
 H101 H 0.27826 -0.19340 0.71092
 H102 H 0.22394 -0.22300 0.68631
 H103 H 0.24637 -0.24244 0.74982
 H104 H 0.26309 -0.25843 0.73226
 N105 N 0.71338 -0.24316 0.77107
 N106 N 0.72165 -0.25966 0.77983
 C107 C 0.71044 -0.26464 0.79678
 C108 C 0.69443 -0.25050 0.79860
 C109 C 0.69666 -0.23707 0.78215
 H110 H 0.71378 -0.27738 0.80718
 H111 H 0.68702 -0.22374 0.77866
 Cu112 Cu 0.74654 -0.27258 0.76843
 Cu113 Cu 0.72523 -0.23043 0.74634
 Cu114 Cu 0.76946 -0.25355 0.72568
 N115 N 0.77122 -0.28558 0.75667
 N116 N 0.78010 -0.27803 0.73989
 C117 C 0.79708 -0.28942 0.73530
 C118 C 0.79879 -0.30485 0.74997
 C119 C 0.78227 -0.30207 0.76334
 H120 H 0.80757 -0.28648 0.72249
 H121 H 0.77881 -0.31113 0.77703
 N122 N 0.75635 -0.22870 0.71355
 N123 N 0.73950 -0.21990 0.72141
 C124 C 0.73468 -0.20304 0.71002
 C125 C 0.74914 -0.20129 0.69436
 C126 C 0.76268 -0.21766 0.69695
 H127 H 0.72183 -0.19261 0.71305
 H128 H 0.77627 -0.22104 0.68763
 H129 H 0.73881 -0.25717 0.73484
 H130 H 0.75556 -0.24002 0.75127
 N131 N 0.28645 0.24466 0.77035
 N132 N 0.27861 0.26138 0.77937
 C133 C 0.29049 0.26638 0.79587
 C134 C 0.30644 0.25217 0.79718
 C135 C 0.30352 0.23859 0.78089
 H136 H 0.28762 0.27920 0.80636
 H137 H 0.31295 0.22516 0.77724
 Cu138 Cu 0.25313 0.27529 0.76957
 Cu139 Cu 0.27369 0.23145 0.74584
 Cu140 Cu 0.22968 0.25358 0.72822
 N141 N 0.22782 0.28682 0.75762
 N142 N 0.21853 0.27839 0.74146
 C143 C 0.20128 0.28942 0.73696
 C144 C 0.19984 0.30550 0.75105
 C145 C 0.21681 0.30347 0.76396
 H146 H 0.19045 0.28593 0.72459
 H147 H 0.22071 0.31321 0.77709
 N148 N 0.24160 0.22923 0.71480
 N149 N 0.25884 0.22067 0.72177
 C150 C 0.26350 0.20401 0.70999
 C151 C 0.24839 0.20215 0.69492
 C152 C 0.23471 0.21829 0.69832
 H153 H 0.27675 0.19389 0.71232
 H154 H 0.22074 0.22162 0.68957
 H155 H 0.26391 0.26184 0.74248
 H156 H 0.24822 0.24493 0.76009
 N157 N 0.28725 -0.24311 0.23005
 N158 N 0.27765 -0.25818 0.22003
 C159 C 0.28857 -0.26291 0.20282
 C160 C 0.30581 -0.25011 0.20216
 C161 C 0.30458 -0.23771 0.21956
 H162 H 0.28414 -0.27450 0.19147
 H163 H 0.31525 -0.22543 0.22401
 Cu164 Cu 0.25141 -0.26977 0.22975
 Cu165 Cu 0.27602 -0.23107 0.25537
 Cu166 Cu 0.23234 -0.25477 0.27615
 N167 N 0.22879 -0.28467 0.24323
 N168 N 0.22143 -0.27883 0.26136
 C169 C 0.20545 -0.29137 0.26664
 C170 C 0.20282 -0.30577 0.25101
 C171 C 0.21776 -0.30116 0.23637
 H172 H 0.19614 -0.28984 0.28053
 H173 H 0.22013 -0.30894 0.22168
 N174 N 0.24565 -0.23022 0.28878
 N175 N 0.26233 -0.22116 0.28084
 C176 C 0.26721 -0.20437 0.29240
 C177 C 0.25294 -0.20293 0.30828
 C178 C 0.23946 -0.21942 0.30561
 H179 H 0.27984 -0.19367 0.28924
 H180 H 0.22588 -0.22293 0.31492
 H181 H 0.26204 -0.25870 0.26423
 H182 H 0.24503 -0.23906 0.25117
 N183 N 0.71593 0.23880 0.22682
 N184 N 0.72560 0.25340 0.21627
 C185 C 0.71427 0.25813 0.19936
 C186 C 0.69666 0.24582 0.19945
 C187 C 0.69812 0.23371 0.21698
 H188 H 0.71857 0.26954 0.18781
 H189 H 0.68716 0.22197 0.22208
 Cu190 Cu 0.75220 0.26470 0.22529
 Cu191 Cu 0.72745 0.22720 0.25219
 Cu192 Cu 0.77104 0.25177 0.27225
 N193 N 0.77415 0.28074 0.23857
 N194 N 0.78142 0.27571 0.25695
 C195 C 0.79665 0.28915 0.26225
 C196 C 0.79889 0.30326 0.24636
 C197 C 0.78447 0.29757 0.23154
 H198 H 0.80558 0.28856 0.27646
 H199 H 0.78185 0.30497 0.21673
 N200 N 0.75817 0.22724 0.28531
 N201 N 0.74152 0.21786 0.27764
 C202 C 0.73682 0.20133 0.28957
 C203 C 0.75119 0.20040 0.30540
 C204 C 0.76451 0.21693 0.30233
 H205 H 0.72417 0.19054 0.28677
 H206 H 0.77801 0.22088 0.31159
 H207 H 0.74143 0.25516 0.26005
 H208 H 0.75851 0.23497 0.24782
 C209 C 0.23864 0.01952 0.45682
 C210 C 0.23878 0.00065 0.44608
 C211 C 0.23837 -0.01831 0.45660
 C212 C 0.23778 -0.01860 0.47849
 C213 C 0.23761 0.00047 0.48959
 C214 C 0.23804 0.01964 0.47872
 C215 C 0.23791 0.03836 0.49002
 C216 C 0.23740 0.03828 0.51160
 C217 C 0.23702 0.01947 0.52267
 C218 C 0.23711 0.00039 0.51158
 C219 C 0.23742 -0.03741 0.48957
 C220 C 0.23694 -0.03750 0.51116
 C221 C 0.23680 -0.01877 0.52246
 C222 C 0.23642 -0.01864 0.54436
 C223 C 0.23630 0.00024 0.55510
 C224 C 0.23661 0.01919 0.54457
 H225 H 0.23820 0.05327 0.48225
 H226 H 0.23734 0.05313 0.51954
 H227 H 0.23752 -0.05226 0.48162
 H228 H 0.23669 -0.05240 0.51893
 H229 H 0.23931 0.00071 0.42926
 H230 H 0.23608 0.00020 0.57192
 C231 C 0.76294 0.01859 0.45614
 C232 C 0.76284 -0.00035 0.44552
 C233 C 0.76275 -0.01924 0.45616
 C234 C 0.76279 -0.01938 0.47806
 C235 C 0.76290 -0.00023 0.48904
 C236 C 0.76298 0.01886 0.47804
 C237 C 0.76304 0.03766 0.48921
 C238 C 0.76296 0.03774 0.51079
 C239 C 0.76283 0.01901 0.52200
 C240 C 0.76284 -0.00015 0.51104
 C241 C 0.76267 -0.03811 0.48928
 C242 C 0.76262 -0.03804 0.51087
 C243 C 0.76268 -0.01923 0.52205
 C244 C 0.76253 -0.01894 0.54395
 C245 C 0.76251 0.00002 0.55456
 C246 C 0.76263 0.01889 0.54390
 H247 H 0.76312 0.05252 0.48134
 H248 H 0.76299 0.05264 0.51864
 H249 H 0.76259 -0.05301 0.48142
 H250 H 0.76251 -0.05288 0.51876
 H251 H 0.76275 -0.00039 0.42869
 H252 H 0.76230 0.00008 0.57139
 C253 C 0.45528 0.23940 -0.01901
 C254 C 0.44443 0.23933 -0.00025
 C255 C 0.45497 0.23879 0.01868
 C256 C 0.47699 0.23833 0.01905
 C257 C 0.48819 0.23833 0.00008
 C258 C 0.47730 0.23883 -0.01906
 C259 C 0.48870 0.23881 -0.03768
 C260 C 0.51041 0.23838 -0.03752
 C261 C 0.52152 0.23800 -0.01874
 C262 C 0.51032 0.23796 0.00024
 C263 C 0.48810 0.23795 0.03783
 C264 C 0.50982 0.23765 0.03799
 C265 C 0.52122 0.23768 0.01937
 C266 C 0.54325 0.23750 0.01932
 C267 C 0.55410 0.23747 0.00055
 C268 C 0.54355 0.23772 -0.01837
 H269 H 0.48091 0.23914 -0.05256
 H270 H 0.51843 0.23839 -0.05229
 H271 H 0.48008 0.23793 0.05260
 H272 H 0.51761 0.23741 0.05287
 H273 H 0.42751 0.23982 -0.00038
 H274 H 0.57103 0.23737 0.00068
 C275 C 0.45554 0.76080 0.01858
 C276 C 0.44502 0.76088 -0.00037
 C277 C 0.45590 0.76080 -0.01912
 C278 C 0.47793 0.76067 -0.01911
 C279 C 0.48880 0.76060 0.00005
 C280 C 0.47756 0.76066 0.01899
 C281 C 0.48864 0.76053 0.03781
 C282 C 0.51035 0.76028 0.03802
 C283 C 0.52180 0.76015 0.01942
 C284 C 0.51093 0.76035 0.00026
 C285 C 0.48937 0.76056 -0.03771
 C286 C 0.51108 0.76033 -0.03750
 C287 C 0.52216 0.76019 -0.01868
 C288 C 0.54419 0.75981 -0.01827
 C289 C 0.55471 0.75961 0.00067
 C290 C 0.54383 0.75975 0.01943
 H291 H 0.48058 0.76060 0.05256
 H292 H 0.51811 0.76017 0.05292
 H293 H 0.48161 0.76064 -0.05261
 H294 H 0.51913 0.76023 -0.05225
 H295 H 0.42809 0.76092 -0.00053
 H296 H 0.57163 0.75922 0.00083
 C297 C -0.02053 0.45673 0.23573
 C298 C -0.00176 0.44579 0.23607
 C299 C 0.01738 0.45618 0.23626
 C300 C 0.01796 0.47816 0.23607
 C301 C -0.00103 0.48945 0.23572
 C302 C -0.02037 0.47870 0.23554
 C303 C -0.03900 0.49019 0.23525
 C304 C -0.03865 0.51185 0.23518
 C305 C -0.01966 0.52281 0.23540
 C306 C -0.00067 0.51153 0.23564
 C307 C 0.03695 0.48913 0.23628
 C308 C 0.03730 0.51079 0.23620
 C309 C 0.01867 0.52228 0.23591
 C310 C 0.01881 0.54426 0.23593
 C311 C 0.00002 0.55519 0.23568
 C312 C -0.01911 0.54478 0.23544
 H313 H -0.05404 0.48252 0.23510
 H314 H -0.05343 0.51995 0.23498
 H315 H 0.05173 0.48102 0.23653
 H316 H 0.05234 0.51848 0.23640
 H317 H -0.00205 0.42890 0.23629
 H318 H 0.00029 0.57207 0.23577
 C319 C 0.01762 0.45722 0.76341
 C320 C -0.00154 0.44687 0.76318
 C321 C -0.02029 0.45786 0.76321
 C322 C -0.02007 0.47984 0.76349
 C323 C -0.00069 0.49053 0.76374
 C324 C 0.01826 0.47918 0.76371
 C325 C 0.03729 0.49009 0.76393
 C326 C 0.03772 0.51175 0.76413
 C327 C 0.01914 0.52330 0.76412
 C328 C -0.00025 0.51261 0.76395
 C329 C -0.03866 0.49140 0.76346
 C330 C -0.03823 0.51306 0.76366
 C331 C -0.01920 0.52396 0.76389
 C332 C -0.01855 0.54593 0.76400
 C333 C 0.00061 0.55627 0.76418
 C334 C 0.01936 0.54528 0.76422
 H335 H 0.05205 0.48194 0.76393
 H336 H 0.05279 0.51938 0.76428
 H337 H -0.05372 0.48376 0.76328
 H338 H -0.05298 0.52121 0.76362
 H339 H -0.00187 0.42999 0.76290
 H340 H 0.00094 0.57316 0.76420
 C341 C 0.31939 0.24916 0.18515
 C342 C 0.33188 0.24804 0.17123
 C343 C 0.34654 0.24666 0.15440
 C344 C 0.36748 0.24198 0.15829
 C345 C 0.38165 0.24049 0.14186
 C346 C 0.37500 0.24363 0.12131
 C347 C 0.35393 0.24839 0.11760
 C348 C 0.33982 0.24989 0.13404
 C349 C 0.38993 0.24197 0.10378
 C350 C 0.38390 0.23231 0.08513
 C351 C 0.39771 0.23121 0.06842
 C352 C 0.41774 0.23972 0.07010
 C353 C 0.42400 0.24917 0.08865
 C354 C 0.41020 0.25027 0.10542
 C355 C 0.43151 0.23928 0.05249
 C356 C 0.44252 0.23900 0.03735
 H357 H 0.37284 0.23940 0.17399
 H358 H 0.39771 0.23658 0.14518
 H359 H 0.34839 0.25120 0.10201
 H360 H 0.32366 0.25358 0.13086
 H361 H 0.36853 0.22550 0.08349
 H362 H 0.39271 0.22385 0.05413
 H363 H 0.43943 0.25590 0.09007
 H364 H 0.41522 0.25800 0.11949
 C365 C 0.67900 0.74973 0.18597
 C366 C 0.66612 0.75054 0.17239
 C367 C 0.65093 0.75149 0.15601
 C368 C 0.65066 0.73618 0.14056
 C369 C 0.63619 0.73726 0.12440
 C370 C 0.62178 0.75370 0.12347
 C371 C 0.62210 0.76896 0.13913
 C372 C 0.63659 0.76785 0.15530
 C373 C 0.60673 0.75506 0.10601
 C374 C 0.60240 0.77433 0.09665
 C375 C 0.58887 0.77548 0.07970
 C376 C 0.57945 0.75742 0.07192
 C377 C 0.58342 0.73824 0.08130
 C378 C 0.59696 0.73705 0.09824
 C379 C 0.56641 0.75844 0.05380
 C380 C 0.55589 0.75913 0.03833
 H381 H 0.66176 0.72351 0.14091
 H382 H 0.63655 0.72544 0.11242
 H383 H 0.61106 0.78167 0.13897
 H384 H 0.63664 0.77976 0.16719
 H385 H 0.60988 0.78843 0.10210
 H386 H 0.58601 0.79039 0.07247
 H387 H 0.57622 0.72417 0.07539
 H388 H 0.59975 0.72204 0.10527
 C389 C 0.68061 0.24718 -0.18350
 C390 C 0.66768 0.24612 -0.16998
 C391 C 0.65237 0.24484 -0.15372
 C392 C 0.64710 0.26261 -0.14234
 C393 C 0.63249 0.26134 -0.12631
 C394 C 0.62297 0.24222 -0.12142
 C395 C 0.62831 0.22446 -0.13303
 C396 C 0.64291 0.22578 -0.14907
 C397 C 0.60783 0.24079 -0.10405
 C398 C 0.60829 0.22377 -0.09039
 C399 C 0.59455 0.22280 -0.07359
 C400 C 0.58015 0.23878 -0.07025
 C401 C 0.57937 0.25563 -0.08390
 C402 C 0.59311 0.25665 -0.10070
 C403 C 0.56677 0.23825 -0.05235
 C404 C 0.55596 0.23795 -0.03707
 H405 H 0.65439 0.27743 -0.14575
 H406 H 0.62894 0.27522 -0.11748
 H407 H 0.62107 0.20958 -0.12981
 H408 H 0.64686 0.21192 -0.15781
 H409 H 0.61960 0.21146 -0.09238
 H410 H 0.59537 0.20974 -0.06304
 H411 H 0.56829 0.26809 -0.08145
 H412 H 0.59219 0.26981 -0.11110
 C413 C 0.32338 0.75081 -0.18796
 C414 C 0.33601 0.75221 -0.17418
 C415 C 0.35086 0.75393 -0.15754
 C416 C 0.35245 0.77244 -0.14621
 C417 C 0.36643 0.77396 -0.12965
 C418 C 0.37902 0.75694 -0.12418
 C419 C 0.37747 0.73845 -0.13581
 C420 C 0.36346 0.73697 -0.15237
 C421 C 0.39334 0.75829 -0.10612
 C422 C 0.41334 0.74935 -0.10693
 C423 C 0.42657 0.75024 -0.08969
 C424 C 0.41997 0.76006 -0.07147
 C425 C 0.40018 0.76912 -0.07057
 C426 C 0.38696 0.76827 -0.08776
 C427 C 0.43319 0.76041 -0.05344
 C428 C 0.44380 0.76063 -0.03802
 H429 H 0.34279 0.78568 -0.15010
 H430 H 0.36745 0.78848 -0.12117
 H431 H 0.38675 0.72500 -0.13183
 H432 H 0.36231 0.72253 -0.16099
 H433 H 0.41880 0.74177 -0.12091
 H434 H 0.44186 0.74317 -0.09055
 H435 H 0.39488 0.77667 -0.05650
 H436 H 0.37156 0.77503 -0.08654
 C437 C 0.18429 0.32081 0.24926
 C438 C 0.17043 0.33339 0.24804
 C439 C 0.15360 0.34809 0.24667
 C440 C 0.15595 0.36640 0.23520
 C441 C 0.13941 0.38047 0.23364
 C442 C 0.12028 0.37635 0.24351
 C443 C 0.11814 0.35795 0.25510
 C444 C 0.13469 0.34394 0.25665
 C445 C 0.10253 0.39102 0.24162
 C446 C 0.08211 0.38344 0.23893
 C447 C 0.06532 0.39715 0.23748
 C448 C 0.06866 0.41863 0.23869
 C449 C 0.08892 0.42638 0.24120
 C450 C 0.10577 0.41266 0.24263
 C451 C 0.05114 0.43254 0.23767
 C452 C 0.03603 0.44364 0.23695
 H453 H 0.17051 0.36974 0.22735
 H454 H 0.14146 0.39437 0.22442
 H455 H 0.10373 0.35447 0.26313
 H456 H 0.13271 0.32984 0.26562
 H457 H 0.07913 0.36689 0.23776
 H458 H 0.04970 0.39100 0.23549
 H459 H 0.09166 0.44298 0.24222
 H460 H 0.12127 0.41896 0.24491
 C461 C 0.18837 0.67844 0.75103
 C462 C 0.17441 0.66599 0.75289
 C463 C 0.15744 0.65146 0.75503
 C464 C 0.13687 0.65863 0.75466
 C465 C 0.12030 0.64464 0.75665
 C466 C 0.12407 0.62323 0.75905
 C467 C 0.14482 0.61615 0.75940
 C468 C 0.16139 0.63020 0.75742
 C469 C 0.10638 0.60841 0.76101
 C470 C 0.10673 0.58911 0.75067
 C471 C 0.08966 0.57558 0.75187
 C472 C 0.07207 0.58113 0.76346
 C473 C 0.07172 0.60013 0.77406
 C474 C 0.08874 0.61368 0.77287
 C475 C 0.05401 0.56782 0.76387
 C476 C 0.03847 0.55723 0.76410
 H477 H 0.13364 0.67505 0.75273
 H478 H 0.10452 0.65054 0.75599
 H479 H 0.14822 0.59979 0.76144
 H480 H 0.17727 0.62448 0.75777
 H481 H 0.11998 0.58471 0.74124
 H482 H 0.09004 0.56094 0.74352
 H483 H 0.05818 0.60458 0.78307
 H484 H 0.08811 0.62827 0.78125
 C485 C -0.18583 0.68041 0.24663
 C486 C -0.17194 0.66789 0.24510
 C487 C -0.15511 0.65323 0.24332
 C488 C -0.13452 0.65998 0.24583
 C489 C -0.11808 0.64586 0.24412
 C490 C -0.12202 0.62473 0.23987
 C491 C -0.14280 0.61807 0.23741
 C492 C -0.15923 0.63225 0.23910
 C493 C -0.10450 0.60977 0.23815
 C494 C -0.10600 0.58979 0.24693
 C495 C -0.08918 0.57602 0.24588
 C496 C -0.07069 0.58200 0.23601
 C497 C -0.06915 0.60171 0.22699
 C498 C -0.08593 0.61550 0.22803
 C499 C -0.05299 0.56829 0.23566
 C500 C -0.03779 0.55730 0.23550
 H501 H -0.13116 0.67617 0.24916
 H502 H -0.10230 0.65141 0.24641
 H503 H -0.14631 0.60196 0.23391
 H504 H -0.17512 0.62687 0.23708
 H505 H -0.12000 0.58501 0.25502
 H506 H -0.09049 0.56082 0.25300
 H507 H -0.05492 0.60649 0.21929
 H508 H -0.08439 0.63064 0.22086
 C509 C -0.18598 0.32057 0.75302
 C510 C -0.17268 0.33382 0.75407
 C511 C -0.15661 0.34943 0.75525
 C512 C -0.15398 0.36117 0.77336
 C513 C -0.13804 0.37600 0.77464
 C514 C -0.12451 0.37928 0.75778
 C515 C -0.12738 0.36749 0.73960
 C516 C -0.14332 0.35267 0.73836
 C517 C -0.10717 0.39458 0.75927
 C518 C -0.10195 0.40721 0.74225
 C519 C -0.08504 0.42093 0.74337
 C520 C -0.07315 0.42224 0.76151
 C521 C -0.07841 0.40999 0.77864
 C522 C -0.09532 0.39627 0.77756
 C523 C -0.05498 0.43540 0.76224
 C524 C -0.03941 0.44592 0.76274
 H525 H -0.16421 0.35880 0.78653
 H526 H -0.13638 0.38498 0.78876
 H527 H -0.11704 0.36942 0.72647
 H528 H -0.14515 0.34361 0.72430
 H529 H -0.11093 0.40646 0.72805
 H530 H -0.08109 0.43033 0.73002
 H531 H -0.06923 0.41079 0.79272
 H532 H -0.09876 0.38657 0.79083
 C533 C 0.24914 0.18600 0.32199
 C534 C 0.24831 0.17248 0.33487
 C535 C 0.24737 0.15614 0.35006
 C536 C 0.23110 0.15557 0.36452
 C537 C 0.22998 0.13942 0.37897
 C538 C 0.24514 0.12363 0.37915
 C539 C 0.26149 0.12444 0.36463
 C540 C 0.26257 0.14057 0.35019
 C541 C 0.24373 0.10617 0.39413
 C542 C 0.26180 0.09830 0.40366
 C543 C 0.26056 0.08134 0.41713
 C544 C 0.24127 0.07202 0.42127
 C545 C 0.22317 0.07990 0.41210
 C546 C 0.22437 0.09687 0.39863
 C547 C 0.24018 0.05389 0.43427
 C548 C 0.23941 0.03842 0.44477
 H549 H 0.21926 0.16756 0.36458
 H550 H 0.21734 0.13937 0.39010
 H551 H 0.27322 0.11236 0.36415
 H552 H 0.27518 0.14082 0.33901
 H553 H 0.27689 0.10529 0.40072
 H554 H 0.27467 0.07536 0.42414
 H555 H 0.20818 0.07272 0.41510
 H556 H 0.21023 0.10238 0.39134
 C557 C 0.75289 0.18463 0.68032
 C558 C 0.75383 0.17120 0.66729
 C559 C 0.75486 0.15498 0.65192
 C560 C 0.73863 0.14049 0.65024
 C561 C 0.73975 0.12446 0.63562
 C562 C 0.75716 0.12269 0.62246
 C563 C 0.77335 0.13740 0.62418
 C564 C 0.77219 0.15344 0.63882
 C565 C 0.75855 0.10531 0.60731
 C566 C 0.77750 0.09475 0.60424
 C567 C 0.77859 0.07784 0.59061
 C568 C 0.76081 0.07132 0.57983
 C569 C 0.74196 0.08191 0.58253
 C570 C 0.74083 0.09880 0.59617
 C571 C 0.76166 0.05323 0.56668
 C572 C 0.76219 0.03778 0.55607
 H573 H 0.72519 0.14148 0.66037
 H574 H 0.72718 0.11321 0.63490
 H575 H 0.78684 0.13659 0.61412
 H576 H 0.78482 0.16459 0.63996
 H577 H 0.79134 0.09920 0.61278
 H578 H 0.79323 0.06967 0.58872
 H579 H 0.72809 0.07697 0.57427
 H580 H 0.72609 0.10678 0.59799
 C581 C 0.24882 -0.18628 0.67764
 C582 C 0.24716 -0.17236 0.66527
 C583 C 0.24519 -0.15547 0.65079
 C584 C 0.24761 -0.13496 0.65767
 C585 C 0.24569 -0.11847 0.64374
 C586 C 0.24133 -0.12226 0.62269
 C587 C 0.23896 -0.14295 0.61590
 C588 C 0.24086 -0.15945 0.62989
 C589 C 0.23939 -0.10467 0.60794
 C590 C 0.24815 -0.10590 0.58797
 C591 C 0.24697 -0.08899 0.57442
 C592 C 0.23697 -0.07068 0.58063
 C593 C 0.22794 -0.06942 0.60033
 C594 C 0.22912 -0.08629 0.61389
 C595 C 0.23660 -0.05284 0.56719
 C596 C 0.23644 -0.03751 0.55648
 H597 H 0.25103 -0.13171 0.67380
 H598 H 0.24792 -0.10275 0.64939
 H599 H 0.23538 -0.14636 0.59985
 H600 H 0.23892 -0.17527 0.62441
 H601 H 0.25635 -0.11976 0.58302
 H602 H 0.25411 -0.09008 0.55924
 H603 H 0.22016 -0.05532 0.60529
 H604 H 0.22195 -0.08497 0.62903
 C605 C 0.75092 -0.18546 0.32019
 C606 C 0.75216 -0.17166 0.33282
 C607 C 0.75369 -0.15494 0.34762
 C608 C 0.75145 -0.13436 0.34103
 C609 C 0.75311 -0.11802 0.35526
 C610 C 0.75704 -0.12206 0.37633
 C611 C 0.75917 -0.14282 0.38284
 C612 C 0.75752 -0.15915 0.36856
 C613 C 0.75892 -0.10462 0.39137
 C614 C 0.74988 -0.10602 0.41121
 C615 C 0.75112 -0.08927 0.42506
 C616 C 0.76147 -0.07099 0.41928
 C617 C 0.77075 -0.06959 0.39971
 C618 C 0.76951 -0.08627 0.38585
 C619 C 0.76202 -0.05334 0.43302
 C620 C 0.76239 -0.03808 0.44392
 H621 H 0.74842 -0.13092 0.32488
 H622 H 0.75108 -0.10224 0.34982
 H623 H 0.76241 -0.14641 0.39891
 H624 H 0.75933 -0.17504 0.37382
 H625 H 0.74144 -0.11985 0.41583
 H626 H 0.74379 -0.09048 0.44014
 H627 H 0.77881 -0.05551 0.39508
 H628 H 0.77690 -0.08483 0.37083
 C629 C 0.67912 0.75050 -0.18519
 C630 C 0.66640 0.75133 -0.17146
 C631 C 0.65141 0.75227 -0.15490
 C632 C 0.63715 0.76869 -0.15386
 C633 C 0.62282 0.76975 -0.13755
 C634 C 0.62258 0.75437 -0.12206
 C635 C 0.63693 0.73789 -0.12331
 C636 C 0.65124 0.73687 -0.13961
 C637 C 0.60765 0.75562 -0.10451
 C638 C 0.59782 0.73757 -0.09697
 C639 C 0.58431 0.73865 -0.08000
 C640 C 0.58043 0.75776 -0.07035
 C641 C 0.58994 0.77585 -0.07787
 C642 C 0.60344 0.77481 -0.09485
 C643 C 0.56728 0.75868 -0.05231
 C644 C 0.55658 0.75928 -0.03696
 H645 H 0.63714 0.78068 -0.16563
 H646 H 0.61183 0.78249 -0.13714
 H647 H 0.63735 0.72599 -0.11147
 H648 H 0.66228 0.72415 -0.14022
 H649 H 0.60052 0.72262 -0.10425
 H650 H 0.57702 0.72456 -0.07431
 H651 H 0.58713 0.79071 -0.07043
 H652 H 0.61097 0.78893 -0.10012
 C653 C 0.32216 0.25111 -0.18703
 C654 C 0.33511 0.25031 -0.17352
 C655 C 0.35026 0.24946 -0.15710
 C656 C 0.35407 0.26709 -0.14493
 C657 C 0.36815 0.26613 -0.12843
 C658 C 0.37860 0.24747 -0.12387
 C659 C 0.37489 0.22990 -0.13639
 C660 C 0.36079 0.23090 -0.15289
 C661 C 0.39284 0.24621 -0.10577
 C662 C 0.41168 0.23509 -0.10703
 C663 C 0.42485 0.23370 -0.08980
 C664 C 0.41934 0.24336 -0.07114
 C665 C 0.40067 0.25448 -0.06976
 C666 C 0.38751 0.25591 -0.08694
 C667 C 0.43257 0.24171 -0.05322
 C668 C 0.44319 0.24054 -0.03786
 H669 H 0.34603 0.28154 -0.14808
 H670 H 0.37087 0.27998 -0.11924
 H671 H 0.38249 0.21525 -0.13311
 H672 H 0.35789 0.21713 -0.16217
 H673 H 0.41631 0.22764 -0.12137
 H674 H 0.43929 0.22506 -0.09103
 H675 H 0.39621 0.26192 -0.05535
 H676 H 0.37297 0.26430 -0.08538
 C677 C 0.32105 0.75104 0.18590
 C678 C 0.33357 0.75205 0.17200
 C679 C 0.34816 0.75327 0.15510
 C680 C 0.36888 0.75914 0.15868
 C681 C 0.38291 0.76055 0.14213
 C682 C 0.37634 0.75614 0.12178
 C683 C 0.35549 0.75016 0.11838
 C684 C 0.34153 0.74875 0.13494
 C685 C 0.39107 0.75778 0.10410
 C686 C 0.38449 0.76633 0.08514
 C687 C 0.39813 0.76737 0.06829
 C688 C 0.41852 0.75993 0.07013
 C689 C 0.42532 0.75161 0.08897
 C690 C 0.41170 0.75057 0.10588
 C691 C 0.43216 0.76035 0.05243
 C692 C 0.44308 0.76061 0.03723
 H693 H 0.37416 0.76274 0.17424
 H694 H 0.39879 0.76540 0.14520
 H695 H 0.35004 0.74636 0.10295
 H696 H 0.32554 0.74413 0.13200
 H697 H 0.36882 0.77229 0.08337
 H698 H 0.39271 0.77386 0.05378
 H699 H 0.44106 0.74573 0.09053
 H700 H 0.41715 0.74371 0.12020
 C701 C 0.68055 0.24514 0.18401
 C702 C 0.66716 0.24446 0.17092
 C703 C 0.65139 0.24352 0.15509
 C704 C 0.64178 0.22456 0.15029
 C705 C 0.62699 0.22346 0.13442
 C706 C 0.62162 0.24135 0.12311
 C707 C 0.63118 0.26041 0.12823
 C708 C 0.64599 0.26146 0.14410
 C709 C 0.60657 0.24006 0.10567
 C710 C 0.59182 0.25591 0.10244
 C711 C 0.57822 0.25501 0.08552
 C712 C 0.57916 0.23829 0.07164
 C713 C 0.59359 0.22233 0.07485
 C714 C 0.60719 0.22318 0.09176
 C715 C 0.56597 0.23789 0.05361
 C716 C 0.55537 0.23764 0.03819
 H717 H 0.64583 0.21058 0.15873
 H718 H 0.61971 0.20863 0.13101
 H719 H 0.62759 0.27439 0.11964
 H720 H 0.65340 0.27621 0.14764
 H721 H 0.59080 0.26897 0.11301
 H722 H 0.56712 0.26746 0.08316
 H723 H 0.59455 0.20939 0.06411
 H724 H 0.61855 0.21090 0.09364
 C725 C -0.18567 0.68092 0.75161
 C726 C -0.17170 0.66849 0.75306
 C727 C -0.15479 0.65394 0.75478
 C728 C -0.15870 0.63318 0.76000
 C729 C -0.14218 0.61912 0.76174
 C730 C -0.12152 0.62569 0.75831
 C731 C -0.11778 0.64659 0.75304
 C732 C -0.13431 0.66060 0.75128
 C733 C -0.10390 0.61086 0.76017
 C734 C -0.08508 0.61711 0.76951
 C735 C -0.06827 0.60338 0.77074
 C736 C -0.07003 0.58324 0.76270
 C737 C -0.08876 0.57677 0.75358
 C738 C -0.10562 0.59048 0.75234
 C739 C -0.05236 0.56952 0.76329
 C740 C -0.03719 0.55850 0.76368
 H741 H -0.17450 0.62787 0.76278
 H742 H -0.14553 0.60319 0.76604
 H743 H -0.10210 0.65206 0.75000
 H744 H -0.13111 0.67662 0.74717
 H745 H -0.08337 0.63259 0.77595
 H746 H -0.05385 0.60854 0.77785
 H747 H -0.09025 0.56122 0.74722
 H748 H -0.11982 0.58529 0.74486
 C749 C -0.18611 0.31981 0.24509
 C750 C -0.17328 0.33349 0.24405
 C751 C -0.15765 0.34953 0.24286
 C752 C -0.15334 0.35919 0.22391
 C753 C -0.13749 0.37409 0.22258
 C754 C -0.12574 0.37952 0.24020
 C755 C -0.13042 0.36994 0.25924
 C756 C -0.14626 0.35504 0.26054
 C757 C -0.10820 0.39454 0.23864
 C758 C -0.10452 0.40917 0.25449
 C759 C -0.08734 0.42257 0.25347
 C760 C -0.07366 0.42153 0.23661
 C761 C -0.07737 0.40728 0.22061
 C762 C -0.09453 0.39389 0.22158
 C763 C -0.05531 0.43442 0.23614
 C764 C -0.03964 0.44481 0.23588
 H765 H -0.16209 0.35505 0.21014
 H766 H -0.13443 0.38137 0.20777
 H767 H -0.12147 0.37356 0.27302
 H768 H -0.14940 0.34759 0.27526
 H769 H -0.11490 0.41022 0.26768
 H770 H -0.08460 0.43354 0.26595
 H771 H -0.06680 0.40627 0.20754
 H772 H -0.09677 0.38262 0.20928
 C773 C 0.18350 0.32066 0.75254
 C774 C 0.16968 0.33326 0.75385
 C775 C 0.15302 0.34812 0.75548
 C776 C 0.15705 0.36939 0.75314
 C777 C 0.14079 0.38377 0.75472
 C778 C 0.12029 0.37704 0.75871
 C779 C 0.11643 0.35561 0.76106
 C780 C 0.13269 0.34128 0.75945
 C781 C 0.10294 0.39221 0.76024
 C782 C 0.08727 0.38971 0.77531
 C783 C 0.07055 0.40357 0.77632
 C784 C 0.06926 0.42012 0.76234
 C785 C 0.08489 0.42291 0.74746
 C786 C 0.10166 0.40907 0.74643
 C787 C 0.05149 0.43371 0.76282
 C788 C 0.03627 0.44467 0.76313
 H789 H 0.17275 0.37486 0.75013
 H790 H 0.14428 0.40017 0.75306
 H791 H 0.10079 0.34990 0.76382
 H792 H 0.12940 0.32485 0.76125
 H793 H 0.08797 0.37707 0.78634
 H794 H 0.05853 0.40127 0.78789
 H795 H 0.08398 0.43561 0.73649
 H796 H 0.11334 0.41126 0.73451
 C797 C 0.18666 0.67880 0.24949
 C798 C 0.17283 0.66615 0.24816
 C799 C 0.15598 0.65144 0.24650
 C800 C 0.13538 0.65828 0.24842
 C801 C 0.11889 0.64417 0.24657
 C802 C 0.12278 0.62297 0.24275
 C803 C 0.14356 0.61620 0.24097
 C804 C 0.16005 0.63037 0.24281
 C805 C 0.10518 0.60808 0.24063
 C806 C 0.10616 0.58823 0.24973
 C807 C 0.08922 0.57455 0.24828
 C808 C 0.07117 0.58051 0.23767
 C809 C 0.07019 0.60009 0.22832
 C810 C 0.08707 0.61378 0.22976
 C811 C 0.05329 0.56699 0.23696
 C812 C 0.03785 0.55628 0.23644
 H813 H 0.13206 0.67454 0.25135
 H814 H 0.10310 0.64980 0.24834
 H815 H 0.14703 0.60003 0.23784
 H816 H 0.17595 0.62492 0.24125
 H817 H 0.11980 0.58348 0.25837
 H818 H 0.09008 0.55946 0.25566
 H819 H 0.05630 0.60486 0.22006
 H820 H 0.08597 0.62882 0.22233
 C821 C 0.75052 -0.18504 0.67919
 C822 C 0.75174 -0.17122 0.66665
 C823 C 0.75325 -0.15450 0.65195
 C824 C 0.75063 -0.13394 0.65859
 C825 C 0.75230 -0.11760 0.64445
 C826 C 0.75663 -0.12160 0.62344
 C827 C 0.75914 -0.14233 0.61687
 C828 C 0.75748 -0.15867 0.63106
 C829 C 0.75853 -0.10416 0.60850
 C830 C 0.74984 -0.10568 0.58852
 C831 C 0.75112 -0.08895 0.57475
 C832 C 0.76115 -0.07054 0.58076
 C833 C 0.77008 -0.06900 0.60048
 C834 C 0.76880 -0.08567 0.61426
 C835 C 0.76174 -0.05292 0.56708
 C836 C 0.76214 -0.03770 0.55620
 H837 H 0.74729 -0.13055 0.67471
 H838 H 0.74997 -0.10184 0.64993
 H839 H 0.76269 -0.14588 0.60085
 H840 H 0.75958 -0.17453 0.62577
 H841 H 0.74165 -0.11963 0.58372
 H842 H 0.74407 -0.09026 0.55954
 H843 H 0.77789 -0.05482 0.60528
 H844 H 0.77592 -0.08414 0.62941
 C845 C 0.25139 -0.18657 0.32339
 C846 C 0.25003 -0.17260 0.33578
 C847 C 0.24837 -0.15560 0.35023
 C848 C 0.25175 -0.13523 0.34343
 C849 C 0.24995 -0.11860 0.35729
 C850 C 0.24474 -0.12213 0.37818
 C851 C 0.24147 -0.14269 0.38490
 C852 C 0.24325 -0.15932 0.37099
 C853 C 0.24274 -0.10439 0.39281
 C854 C 0.25067 -0.10574 0.41311
 C855 C 0.24932 -0.08874 0.42661
 C856 C 0.23998 -0.07024 0.42002
 C857 C 0.23181 -0.06887 0.39997
 C858 C 0.23316 -0.08581 0.38645
 C859 C 0.23928 -0.05241 0.43350
 C860 C 0.23881 -0.03710 0.44430
 H861 H 0.25577 -0.13218 0.32741
 H862 H 0.25288 -0.10300 0.35171
 H863 H 0.23722 -0.14588 0.40082
 H864 H 0.24055 -0.17504 0.37639
 H865 H 0.25833 -0.11975 0.41837
 H866 H 0.25577 -0.08993 0.44208
 H867 H 0.22453 -0.05463 0.39473
 H868 H 0.22663 -0.08440 0.37105
 C869 C 0.75265 0.18471 0.32112
 C870 C 0.75388 0.17136 0.33415
 C871 C 0.75532 0.15521 0.34947
 C872 C 0.73733 0.14476 0.35598
 C873 C 0.73875 0.12864 0.37042
 C874 C 0.75822 0.12275 0.37852
 C875 C 0.77621 0.13348 0.37200
 C876 C 0.77475 0.14960 0.35757
 C877 C 0.75979 0.10516 0.39331
 C878 C 0.77602 0.09057 0.39151
 C879 C 0.77704 0.07356 0.40491
 C880 C 0.76191 0.07091 0.42030
 C881 C 0.74587 0.08547 0.42242
 C882 C 0.74480 0.10249 0.40902
 C883 C 0.76243 0.05283 0.43338
 C884 C 0.76273 0.03741 0.44396
 H885 H 0.72222 0.14891 0.34973
 H886 H 0.72466 0.12050 0.37489
 H887 H 0.79139 0.12946 0.37812
 H888 H 0.78877 0.15760 0.35264
 H889 H 0.78763 0.09203 0.37940
 H890 H 0.78946 0.06231 0.40306
 H891 H 0.73407 0.08356 0.43429
 H892 H 0.73227 0.11359 0.41096
 C893 C 0.24682 0.18620 0.67938
 C894 C 0.24550 0.17268 0.66648
 C895 C 0.24396 0.15635 0.65128
 C896 C 0.22438 0.14891 0.64514
 C897 C 0.22288 0.13265 0.63080
 C898 C 0.24097 0.12359 0.62241
 C899 C 0.26058 0.13131 0.62854
 C900 C 0.26204 0.14756 0.64290
 C901 C 0.23944 0.10586 0.60770
 C902 C 0.25289 0.10450 0.59051
 C903 C 0.25188 0.08740 0.57710
 C904 C 0.23744 0.07147 0.58070
 C905 C 0.22383 0.07280 0.59760
 C906 C 0.22480 0.08988 0.61101
 C907 C 0.23702 0.05341 0.56751
 C908 C 0.23677 0.03800 0.55685
 H909 H 0.21028 0.15562 0.65153
 H910 H 0.20757 0.12724 0.62619
 H911 H 0.27479 0.12448 0.62258
 H912 H 0.27728 0.15313 0.64762
 H913 H 0.26415 0.11668 0.58741
 H914 H 0.26248 0.08652 0.56405
 H915 H 0.21267 0.06049 0.60059
 H916 H 0.21443 0.09032 0.62425
   
