data_POSCAR
  _audit_creation_date              2014-09-24
  _audit_creation_method            'ToBaCCo'
  _symmetry_space_group_name_H-M    'P1'
  _symmetry_Int_Tables_number       1
  _symmetry_cell_setting            triclinic
  loop_
  _symmetry_equiv_pos_as_xyz
 x,y,z
_cell_length_a 37.8678
_cell_length_b 17.6415
_cell_length_c 14.2855
_cell_angle_alpha 89.991700
_cell_angle_beta 89.973000
_cell_angle_gamma 89.832300
loop_
  _atom_site_label
  _atom_site_type_symbol
  _atom_site_fract_x
  _atom_site_fract_y
  _atom_site_fract_z
C1 C 0.82009 0.20374 0.41432
 C2 C 0.83703 0.19070 0.50028
 C3 C 0.82065 0.20636 0.58636
 C4 C 0.78423 0.22642 0.58700
 C5 C 0.76561 0.23382 0.50106
 C6 C 0.78359 0.22314 0.41458
 C7 C 0.76392 0.22691 0.33113
 C8 C 0.72843 0.24670 0.33149
 C9 C 0.71014 0.25823 0.41573
 C10 C 0.72867 0.25070 0.50161
 C11 C 0.76527 0.23457 0.67111
 C12 C 0.72980 0.25450 0.67148
 C13 C 0.71041 0.26019 0.58794
 C14 C 0.67379 0.27897 0.58780
 C15 C 0.65689 0.29104 0.50166
 C16 C 0.67391 0.27805 0.41636
 H17 H 0.77536 0.21284 0.26409
 H18 H 0.71557 0.25257 0.26437
 H19 H 0.77723 0.22426 0.73846
 H20 H 0.71813 0.26619 0.73887
 H21 H 0.86499 0.17756 0.50000
 H22 H 0.62890 0.30408 0.50040
 C23 C 0.32558 0.73146 0.41478
 C24 C 0.34337 0.72413 0.49995
 C25 C 0.32616 0.73405 0.58560
 C26 C 0.28947 0.74959 0.58683
 C27 C 0.27064 0.75487 0.50112
 C28 C 0.28883 0.74636 0.41470
 C29 C 0.26966 0.75170 0.33083
 C30 C 0.23368 0.76737 0.33135
 C31 C 0.21497 0.77509 0.41584
 C32 C 0.23355 0.76864 0.50180
 C33 C 0.27103 0.75934 0.67121
 C34 C 0.23506 0.77516 0.67177
 C35 C 0.21530 0.77708 0.58832
 C36 C 0.17835 0.79231 0.58826
 C37 C 0.16112 0.80224 0.50212
 C38 C 0.17839 0.79132 0.41667
 H39 H 0.28220 0.74378 0.26355
 H40 H 0.22086 0.77415 0.26429
 H41 H 0.28414 0.75534 0.73818
 H42 H 0.22334 0.78775 0.73887
 H43 H 0.37161 0.71354 0.49953
 H44 H 0.13287 0.81240 0.50095
 C45 C 0.17445 0.21751 -0.41328
 C46 C 0.15766 0.20386 -0.49922
 C47 C 0.17384 0.22018 -0.58531
 C48 C 0.21001 0.24177 -0.58597
 C49 C 0.22858 0.24964 -0.50003
 C50 C 0.21070 0.23842 -0.41352
 C51 C 0.23031 0.24306 -0.33006
 C52 C 0.26567 0.26350 -0.33051
 C53 C 0.28394 0.27477 -0.41480
 C54 C 0.26541 0.26716 -0.50062
 C55 C 0.22885 0.25088 -0.67010
 C56 C 0.26418 0.27143 -0.67044
 C57 C 0.28361 0.27678 -0.58695
 C58 C 0.32023 0.29511 -0.58694
 C59 C 0.33715 0.30712 -0.50085
 C60 C 0.32017 0.29421 -0.41549
 H61 H 0.21898 0.22903 -0.26294
 H62 H 0.27846 0.26994 -0.26341
 H63 H 0.21695 0.24067 -0.73750
 H64 H 0.27577 0.28368 -0.73777
 H65 H 0.12987 0.18945 -0.49894
 H66 H 0.36516 0.31960 -0.49966
 C67 C -0.32089 0.70158 -0.41325
 C68 C -0.33781 0.68861 -0.49919
 C69 C -0.32147 0.70429 -0.58525
 C70 C -0.28509 0.72421 -0.58588
 C71 C -0.26650 0.73160 -0.49996
 C72 C -0.28444 0.72086 -0.41350
 C73 C -0.26478 0.72453 -0.33005
 C74 C -0.22937 0.74451 -0.33038
 C75 C -0.21113 0.75622 -0.41461
 C76 C -0.22963 0.74862 -0.50049
 C77 C -0.26615 0.73231 -0.66999
 C78 C -0.23077 0.75238 -0.67037
 C79 C -0.21141 0.75821 -0.58681
 C80 C -0.17487 0.77722 -0.58665
 C81 C -0.15802 0.78944 -0.50054
 C82 C -0.17499 0.77631 -0.41524
 H83 H -0.27617 0.71032 -0.26304
 H84 H -0.21654 0.75039 -0.26325
 H85 H -0.27807 0.72188 -0.73734
 H86 H -0.21913 0.76410 -0.73776
 H87 H -0.36575 0.67561 -0.49891
 H88 H -0.13008 0.80268 -0.49928
 N89 N 0.03528 1.13525 -0.10059
 N90 N 0.06191 1.18251 -0.11272
 N91 N -0.03858 1.07967 -0.16508
 N92 N -0.06504 1.08861 -0.22408
 N93 N -0.03923 1.13238 -0.10022
 N94 N -0.06632 1.17858 -0.11317
 N95 N 0.03551 1.08256 -0.16554
 N96 N 0.06208 1.09268 -0.22388
 C97 C 0.07828 1.15514 -0.19004
 C98 C -0.08210 1.15039 -0.19072
 N99 N -0.03642 0.86374 -0.10002
 N100 N -0.06279 0.81587 -0.11212
 N101 N 0.03716 0.91938 -0.16540
 N102 N 0.06386 0.91089 -0.22385
 N103 N 0.03800 0.86698 -0.10015
 N104 N 0.06545 0.82163 -0.11205
 N105 N -0.03704 0.91676 -0.16452
 N106 N -0.06381 0.90660 -0.22216
 Mn107 Mn -0.00074 0.99957 -0.16615
 C108 C -0.07959 0.84355 -0.18854
 C109 C 0.08123 0.84979 -0.18958
 N110 N -0.03922 1.13219 0.10168
 N111 N -0.06677 1.17727 0.11381
 N112 N 0.03569 1.08285 0.16628
 N113 N 0.06195 1.09395 0.22526
 N114 N 0.03529 1.13552 0.10134
 N115 N 0.06144 1.18386 0.11420
 N116 N -0.03839 1.07951 0.16663
 N117 N -0.06514 1.08748 0.22497
 Mn118 Mn -0.00198 1.13489 0.00055
 C119 C -0.08259 1.14858 0.19111
 C120 C 0.07776 1.15702 0.19181
 N121 N 0.03814 0.86699 0.10135
 N122 N 0.06554 0.82151 0.11342
 N123 N -0.03660 0.91633 0.16664
 N124 N -0.06303 0.90545 0.22526
 N125 N -0.03627 0.86382 0.10153
 N126 N -0.06262 0.81593 0.11372
 N127 N 0.03758 0.91997 0.16589
 N128 N 0.06453 0.91214 0.22356
 Mn129 Mn 0.00087 0.86438 0.00067
 Mn130 Mn -0.00043 0.99965 0.16737
 Cl131 Cl -0.00057 0.99967 0.00061
 C132 C 0.08169 0.85059 0.18989
 C133 C -0.07899 0.84272 0.19125
 N134 N 0.53738 0.58097 0.16634
 N135 N 0.56382 0.58923 0.22550
 N136 N 0.46398 0.63862 0.10131
 N137 N 0.43753 0.68671 0.11269
 N138 N 0.46320 0.58565 0.16588
 N139 N 0.43629 0.59628 0.22309
 N140 N 0.53837 0.63341 0.10120
 N141 N 0.56561 0.67881 0.11414
 C142 C 0.58118 0.65037 0.19194
 C143 C 0.42057 0.65944 0.18896
 N144 N 0.46296 0.58592 -0.16444
 N145 N 0.43633 0.59747 -0.22225
 N146 N 0.53832 0.63321 -0.10065
 N147 N 0.56604 0.67742 -0.11276
 N148 N 0.53715 0.58080 -0.16584
 N149 N 0.56390 0.58802 -0.22428
 N150 N 0.46393 0.63886 -0.09994
 N151 N 0.43793 0.68796 -0.11202
 Mn152 Mn 0.50121 0.63702 0.00048
 C153 C 0.42099 0.66121 -0.18851
 C154 C 0.58165 0.64844 -0.19025
 N155 N 0.46124 0.42239 0.16629
 N156 N 0.43457 0.41413 0.22486
 N157 N 0.53496 0.36536 0.10132
 N158 N 0.56143 0.31738 0.11335
 N159 N 0.53545 0.41824 0.16599
 N160 N 0.56224 0.40794 0.22357
 N161 N 0.46053 0.36976 0.10135
 N162 N 0.43321 0.32447 0.11359
 Mn163 Mn 0.49928 0.50181 0.16718
 C164 C 0.41735 0.35291 0.19095
 C165 C 0.57816 0.34489 0.18987
 N166 N 0.53498 0.41779 -0.16589
 N167 N 0.56144 0.40678 -0.22446
 N168 N 0.46037 0.36976 -0.10013
 N169 N 0.43310 0.32433 -0.11244
 N170 N 0.46078 0.42294 -0.16443
 N171 N 0.43385 0.41529 -0.22217
 N172 N 0.53479 0.36542 -0.10057
 N173 N 0.56125 0.31745 -0.11267
 Mn174 Mn 0.49894 0.50187 -0.16621
 Mn175 Mn 0.49768 0.36656 0.00049
 Cl176 Cl 0.49929 0.50180 0.00049
 C177 C 0.57754 0.34406 -0.19033
 C178 C 0.41684 0.35365 -0.18875
 N179 N 0.36638 0.26419 0.19686
 N180 N 0.33863 0.24916 0.25838
 C181 C 0.34120 0.29781 0.33114
 C182 C 0.37071 0.34353 0.31778
 C183 C 0.38537 0.32120 0.23346
 H184 H 0.38050 0.38744 0.36382
 H185 H 0.37156 0.23449 0.13511
 H186 H 0.32201 0.20222 0.25294
 N187 N -0.12849 0.75014 0.19677
 N188 N -0.15596 0.73296 0.25834
 C189 C -0.15398 0.78136 0.33148
 C190 C -0.12516 0.82901 0.31839
 C191 C -0.11030 0.80818 0.23378
 H192 H -0.11599 0.87336 0.36471
 H193 H -0.12301 0.72131 0.13457
 H194 H -0.17201 0.68516 0.25248
 N195 N 0.63138 0.74088 0.20137
 N196 N 0.65911 0.75499 0.26319
 C197 C 0.65716 0.70382 0.33347
 C198 C 0.62798 0.65753 0.31841
 C199 C 0.61295 0.68203 0.23547
 H200 H 0.61870 0.61167 0.36229
 H201 H 0.62582 0.77234 0.14120
 H202 H 0.67535 0.80266 0.25974
 N203 N 0.12619 1.25207 0.20087
 N204 N 0.15363 1.26873 0.26269
 C205 C 0.15253 1.21779 0.33334
 C206 C 0.12421 1.16908 0.31851
 C207 C 0.10881 1.19188 0.23531
 H208 H 0.11576 1.12266 0.36267
 H209 H 0.12017 1.28266 0.14033
 H210 H 0.16908 1.31759 0.25889
 N211 N 0.62745 0.25176 -0.19560
 N212 N 0.65503 0.23476 -0.25705
 C213 C 0.65286 0.28304 -0.33033
 C214 C 0.62381 0.33045 -0.31738
 C215 C 0.60900 0.30959 -0.23276
 H216 H 0.61446 0.37469 -0.36379
 H217 H 0.62209 0.22298 -0.13332
 H218 H 0.67130 0.18710 -0.25105
 N219 N 0.13324 0.76303 -0.19380
 N220 N 0.16105 0.74824 -0.25538
 C221 C 0.15751 0.79510 -0.32967
 C222 C 0.12742 0.83949 -0.31715
 C223 C 0.11335 0.81823 -0.23184
 H224 H 0.11693 0.88204 -0.36425
 H225 H 0.12875 0.73463 -0.13078
 H226 H 0.17854 0.70269 -0.24853
 N227 N 0.37576 0.76362 -0.20312
 N228 N 0.35036 0.78258 -0.26226
 C229 C 0.34800 0.72853 -0.32869
 C230 C 0.37328 0.67339 -0.31169
 C231 C 0.39022 0.69774 -0.23164
 H232 H 0.37946 0.62421 -0.35402
 H233 H 0.38374 0.79666 -0.14632
 H234 H 0.33615 0.83335 -0.25933
 N235 N -0.13221 1.24188 -0.20006
 N236 N -0.15994 1.25652 -0.26188
 C237 C -0.15799 1.20548 -0.33231
 C238 C -0.12884 1.15873 -0.31732
 C239 C -0.11381 1.18282 -0.23427
 H240 H -0.11959 1.11280 -0.36131
 H241 H -0.12667 1.27309 -0.13974
 H242 H -0.17618 1.30438 -0.25828
 N243 N 0.63341 0.73505 -0.19681
 N244 N 0.66124 0.74866 -0.25862
 C245 C 0.65823 0.69973 -0.33102
 C246 C 0.62839 0.65515 -0.31699
 C247 C 0.61394 0.67860 -0.23285
 H248 H 0.61819 0.61131 -0.36251
 H249 H 0.62849 0.76536 -0.13537
 H250 H 0.67826 0.79496 -0.25358
 N251 N 0.12832 1.24648 -0.19641
 N252 N 0.15585 1.26263 -0.25826
 C253 C 0.15363 1.21384 -0.33101
 C254 C 0.12462 1.16682 -0.31716
 C255 C 0.10984 1.18862 -0.23275
 H256 H 0.11520 1.12234 -0.36292
 H257 H 0.12298 1.27593 -0.13458
 H258 H 0.17212 1.31012 -0.25288
 N259 N 0.36997 0.25580 -0.20635
 N260 N 0.34419 0.24042 -0.26569
 C261 C 0.34220 0.29660 -0.32961
 C262 C 0.36827 0.34937 -0.31073
 C263 C 0.38520 0.32137 -0.23223
 H264 H 0.37506 0.39917 -0.35113
 H265 H 0.37781 0.22032 -0.15158
 H266 H 0.32956 0.19033 -0.26498
 N267 N -0.12489 0.74216 -0.20554
 N268 N -0.15038 0.72473 -0.26491
 C269 C -0.15313 0.78044 -0.32925
 C270 C -0.12791 0.83507 -0.31061
 C271 C -0.11065 0.80865 -0.23185
 H272 H -0.12186 0.88514 -0.35133
 H273 H -0.11658 0.70754 -0.15042
 H274 H -0.16430 0.67371 -0.26387
 N275 N 0.37372 0.75873 0.20065
 N276 N 0.34820 0.77725 0.25968
 C277 C 0.34692 0.72476 0.32825
 C278 C 0.37297 0.67103 0.31256
 C279 C 0.38930 0.69467 0.23125
 H280 H 0.38012 0.62350 0.35666
 H281 H 0.38103 0.79097 0.14248
 H282 H 0.33320 0.82690 0.25527
 N283 N -0.13424 1.23629 0.19768
 N284 N -0.16204 1.25041 0.25952
 C285 C -0.15903 1.20156 0.33206
 C286 C -0.12922 1.15652 0.31807
 C287 C -0.11478 1.17958 0.23380
 H288 H -0.11905 1.11256 0.36366
 H289 H -0.12935 1.26636 0.13607
 H290 H -0.17907 1.29689 0.25434
 N291 N 0.62388 0.24369 0.20669
 N292 N 0.64947 0.22640 0.26598
 C293 C 0.65202 0.28208 0.33036
 C294 C 0.62655 0.33655 0.31181
 C295 C 0.60936 0.31006 0.23308
 H296 H 0.62031 0.38655 0.35257
 H297 H 0.61569 0.20906 0.15155
 H298 H 0.66362 0.17549 0.26485
 N299 N 0.12963 0.75417 0.20568
 N300 N 0.15547 0.73892 0.26506
 C301 C 0.15650 0.79390 0.33064
 C302 C 0.12984 0.84579 0.31272
 C303 C 0.11350 0.81852 0.23315
 H304 H 0.12236 0.89457 0.35428
 H305 H 0.12245 0.71951 0.14960
 H306 H 0.17088 0.68974 0.26303
   
