data_POSCAR
  _audit_creation_date              2014-09-24
  _audit_creation_method            'ToBaCCo'
  _symmetry_space_group_name_H-M    'P1'
  _symmetry_Int_Tables_number       1
  _symmetry_cell_setting            triclinic
  loop_
  _symmetry_equiv_pos_as_xyz
 x,y,z
_cell_length_a 32.6846
_cell_length_b 32.4141
_cell_length_c 32.7566
_cell_angle_alpha 89.486000
_cell_angle_beta 89.552000
_cell_angle_gamma 91.067000
loop_
  _atom_site_label
  _atom_site_type_symbol
  _atom_site_fract_x
  _atom_site_fract_y
  _atom_site_fract_z
N1 N 0.14986 0.18965 0.28161
 N2 N 0.17193 0.15724 0.27336
 C3 C 0.15460 0.12367 0.29113
 C4 C 0.12024 0.13560 0.31284
 C5 C 0.11845 0.17800 0.30631
 H6 H 0.16729 0.09316 0.28989
 H7 H 0.09562 0.19878 0.31774
 Cu8 Cu 0.22286 0.16249 0.24274
 Cu9 Cu 0.16344 0.24399 0.25806
 Cu10 Cu 0.23875 0.24392 0.18235
 N11 N 0.27472 0.17030 0.21395
 N12 N 0.28063 0.20265 0.19010
 C13 C 0.31537 0.19812 0.16857
 C14 C 0.33227 0.16043 0.17901
 C15 C 0.30575 0.14407 0.20865
 H16 H 0.32556 0.21949 0.14497
 H17 H 0.30675 0.11377 0.22255
 N18 N 0.20014 0.28914 0.18903
 N19 N 0.17164 0.28951 0.21777
 C20 C 0.14701 0.32167 0.21075
 C21 C 0.16063 0.34255 0.17581
 C22 C 0.19470 0.32106 0.16333
 H23 H 0.11947 0.32741 0.22809
 H24 H 0.21249 0.32624 0.13579
 H25 H 0.18561 0.21588 0.20742
 H26 H 0.22527 0.23782 0.24214
 N27 N -0.17376 0.80933 0.26514
 N28 N -0.19343 0.84408 0.26120
 C29 C -0.19162 0.86486 0.29648
 C30 C -0.16919 0.84222 0.32421
 C31 C -0.15841 0.80701 0.30314
 H32 H -0.20326 0.89555 0.30063
 H33 H -0.13885 0.78269 0.31376
 Cu34 Cu -0.21561 0.86164 0.20935
 Cu35 Cu -0.16423 0.77315 0.21878
 Cu36 Cu -0.20596 0.80307 0.12625
 N37 N -0.25131 0.86762 0.16275
 N38 N -0.24895 0.84338 0.13097
 C39 C -0.27783 0.85380 0.10388
 C40 C -0.29922 0.88694 0.11934
 C41 C -0.28132 0.89472 0.15687
 H42 H -0.28179 0.83921 0.07458
 H43 H -0.28985 0.91771 0.17890
 N44 N -0.17155 0.75442 0.13221
 N45 N -0.15753 0.74172 0.16778
 C46 C -0.13533 0.70770 0.16186
 C47 C -0.13500 0.69896 0.12062
 C48 C -0.15822 0.72921 0.10269
 H49 H -0.11890 0.69156 0.18545
 H50 H -0.16474 0.73268 0.07054
 H51 H -0.16651 0.81761 0.17424
 H52 H -0.21588 0.79044 0.18684
 N53 N -0.16225 0.17692 -0.26027
 N54 N -0.19775 0.16232 -0.27272
 C55 C -0.19165 0.13732 -0.30466
 C56 C -0.15009 0.13668 -0.31292
 C57 C -0.13232 0.16226 -0.28427
 H58 H -0.21545 0.11986 -0.31991
 H59 H -0.09994 0.16778 -0.27968
 Cu60 Cu -0.24815 0.17458 -0.24397
 Cu61 Cu -0.15737 0.20870 -0.21040
 Cu62 Cu -0.24793 0.24744 -0.17189
 N63 N -0.29340 0.17940 -0.20565
 N64 N -0.29373 0.20817 -0.17770
 C65 C -0.32740 0.20288 -0.15414
 C66 C -0.34924 0.16832 -0.16763
 C67 C -0.32658 0.15464 -0.20080
 H68 H -0.33396 0.22163 -0.12786
 H69 H -0.33236 0.12758 -0.21904
 N70 N -0.19353 0.26927 -0.15637
 N71 N -0.15929 0.25278 -0.16950
 C72 C -0.12734 0.27241 -0.15228
 C73 C -0.14197 0.30289 -0.12711
 C74 C -0.18418 0.30023 -0.13059
 H75 H -0.09561 0.26588 -0.15861
 H76 H -0.20641 0.31894 -0.11509
 H77 H -0.21392 0.19743 -0.18211
 H78 H -0.21051 0.23715 -0.22357
 N79 N 0.18833 0.79065 -0.29866
 N80 N 0.21055 0.82417 -0.29254
 C81 C 0.20225 0.85216 -0.32185
 C82 C 0.17294 0.83539 -0.34760
 C83 C 0.16529 0.79604 -0.33200
 H84 H 0.21376 0.88364 -0.32219
 H85 H 0.14235 0.77404 -0.34202
 Cu86 Cu 0.24192 0.82981 -0.24257
 Cu87 Cu 0.18349 0.74670 -0.25787
 Cu88 Cu 0.26003 0.74661 -0.18460
 N89 N 0.27450 0.83399 -0.19334
 N90 N 0.28370 0.80106 -0.17183
 C91 C 0.30901 0.81233 -0.14136
 C92 C 0.31495 0.85497 -0.14313
 C93 C 0.29230 0.86741 -0.17658
 H94 H 0.32100 0.79117 -0.11892
 H95 H 0.29004 0.89831 -0.18885
 N96 N 0.22039 0.70001 -0.19210
 N97 N 0.19142 0.70029 -0.21994
 C98 C 0.16613 0.66758 -0.21382
 C99 C 0.17911 0.64561 -0.18003
 C100 C 0.21395 0.66707 -0.16729
 H101 H 0.13827 0.66228 -0.23063
 H102 H 0.23149 0.66123 -0.14009
 H103 H 0.20833 0.77370 -0.20520
 H104 H 0.24346 0.75458 -0.24571
 N105 N 0.17077 1.15955 0.73236
 N106 N 0.15274 1.19326 0.71991
 C107 C 0.12331 1.18305 0.69305
 C108 C 0.12252 1.14051 0.68910
 C109 C 0.15303 1.12667 0.71453
 H110 H 0.10355 1.20479 0.67809
 H111 H 0.16243 1.09513 0.71883
 Cu112 Cu 0.16781 1.24662 0.74233
 Cu113 Cu 0.21668 1.16066 0.76975
 Cu114 Cu 0.25226 1.25696 0.79930
 N115 N 0.17536 1.29285 0.77919
 N116 N 0.20817 1.29682 0.80186
 C117 C 0.20372 1.32934 0.82673
 C118 C 0.16588 1.34662 0.81941
 C119 C 0.14893 1.32262 0.78882
 H120 H 0.22570 1.33850 0.84959
 H121 H 0.11853 1.32485 0.77628
 N122 N 0.28366 1.20629 0.80771
 N123 N 0.26990 1.16965 0.79639
 C124 C 0.29723 1.14104 0.80700
 C125 C 0.32956 1.16040 0.82653
 C126 C 0.31984 1.20187 0.82656
 H127 H 0.29305 1.10823 0.80249
 H128 H 0.33723 1.22681 0.84019
 H129 H 0.20527 1.21624 0.79871
 H130 H 0.23598 1.21804 0.75034
 N131 N 0.79154 0.83330 0.73642
 N132 N 0.80957 0.79813 0.72961
 C133 C 0.82594 0.79894 0.69177
 C134 C 0.81787 0.83688 0.67382
 C135 C 0.79582 0.85776 0.70323
 H136 H 0.84447 0.77471 0.67935
 H137 H 0.78633 0.88952 0.70193
 Cu138 Cu 0.81510 0.75752 0.77309
 Cu139 Cu 0.76995 0.84693 0.79007
 Cu140 Cu 0.75502 0.76347 0.85622
 N141 N 0.82671 0.72651 0.82256
 N142 N 0.80201 0.72674 0.85446
 C143 C 0.81675 0.70135 0.88349
 C144 C 0.85312 0.68533 0.86919
 C145 C 0.85844 0.70198 0.83048
 H146 H 0.80301 0.69634 0.91332
 H147 H 0.88349 0.69652 0.80955
 N148 N 0.72570 0.81588 0.86204
 N149 N 0.73387 0.84829 0.83844
 C150 C 0.71166 0.88021 0.85120
 C151 C 0.68804 0.86739 0.88421
 C152 C 0.69744 0.82627 0.89021
 H153 H 0.71157 0.91030 0.83666
 H154 H 0.68528 0.80576 0.91374
 H155 H 0.79477 0.80271 0.82853
 H156 H 0.75060 0.78730 0.79606
 N157 N 0.21071 0.81475 1.30553
 N158 N 0.18364 0.78429 1.30708
 C159 C 0.15704 0.79089 1.33774
 C160 C 0.16778 0.82772 1.35654
 C161 C 0.20238 0.84170 1.33535
 H162 H 0.13050 0.77142 1.34403
 H163 H 0.21870 0.87069 1.33922
 Cu164 Cu 0.18265 0.74116 1.26620
 Cu165 Cu 0.25080 0.81985 1.26112
 Cu166 Cu 0.21541 0.77266 1.17381
 N167 N 0.17615 0.70624 1.21870
 N168 N 0.19036 0.71859 1.18291
 C169 C 0.18065 0.69036 1.15479
 C170 C 0.15893 0.65848 1.17373
 C171 C 0.15633 0.66967 1.21441
 H172 H 0.18684 0.69404 1.12246
 H173 H 0.14023 0.65320 1.23868
 N174 N 0.25627 0.81786 1.17279
 N175 N 0.27200 0.83378 1.20625
 C176 C 0.30174 0.86116 1.19572
 C177 C 0.30453 0.86276 1.15352
 C178 C 0.27518 0.83502 1.13998
 H179 H 0.31960 0.87900 1.21717
 H180 H 0.26920 0.82672 1.10866
 H181 H 0.20197 0.80339 1.22755
 H182 H 0.24346 0.76464 1.22782
 N183 N 0.81237 1.15161 1.26491
 N184 N 0.84090 1.18064 1.26647
 C185 C 0.86933 1.16974 1.29390
 C186 C 0.85823 1.13139 1.30973
 C187 C 0.82198 1.12083 1.29064
 H188 H 0.89700 1.18727 1.30024
 H189 H 0.80414 1.09264 1.29484
 Cu190 Cu 0.84054 1.22701 1.22875
 Cu191 Cu 0.76610 1.15481 1.22804
 Cu192 Cu 0.75556 1.24793 1.17659
 N193 N 0.84209 1.26215 1.18042
 N194 N 0.80852 1.27207 1.16112
 C195 C 0.81815 1.29838 1.13034
 C196 C 0.86018 1.30445 1.12987
 C197 C 0.87436 1.28103 1.16212
 H198 H 0.79630 1.31141 1.10945
 H199 H 0.90569 1.27869 1.17217
 N200 N 0.71137 1.20604 1.18059
 N201 N 0.71565 1.17035 1.19962
 C202 C 0.68219 1.14664 1.19316
 C203 C 0.65578 1.16806 1.16824
 C204 C 0.67529 1.20577 1.16102
 H205 H 0.67871 1.11490 1.20321
 H206 H 0.66532 1.23015 1.14089
 H207 H 0.78848 1.19685 1.18485
 H208 H 0.76595 1.21734 1.23287
 O209 O 0.52923 0.96125 0.95273
 O210 O 0.45680 0.95999 1.06821
 O211 O 0.57752 1.01104 1.03356
 O212 O 0.40682 0.99625 0.96097
 O213 O 0.53437 0.96371 1.05435
 O214 O 0.45571 0.95547 0.94990
 O215 O 0.40674 0.99143 1.03688
 O216 O 0.57373 1.00936 0.96042
 C217 C 0.56570 0.97228 0.95311
 C218 C 0.41954 0.96343 1.06055
 C219 C 0.57035 0.97556 1.04817
 C220 C 0.41857 0.96176 0.94974
 O221 O 0.45262 1.03322 0.91635
 O222 O 0.53338 1.04089 1.08243
 O223 O 0.53219 1.08196 0.96110
 O224 O 0.42305 1.07092 1.04136
 O225 O 0.45805 1.03783 1.08785
 O226 O 0.52676 1.03670 0.91510
 O227 O 0.43239 1.07433 0.96392
 O228 O 0.54015 1.08501 1.03408
 Co229 Co 0.49105 0.99862 0.93913
 Co230 Co 0.49558 1.00209 1.06604
 Co231 Co 0.55050 1.04455 0.99735
 Co232 Co 0.42438 1.03198 1.00042
 O233 O 0.49007 1.01902 1.00119
 C234 C 0.43696 1.06689 0.92696
 C235 C 0.54253 1.07681 1.07094
 C236 C 0.53532 1.07315 0.92467
 C237 C 0.43389 1.06603 1.07758
 O238 O 0.03021 0.45517 0.07885
 O239 O 0.03620 0.53391 -0.09051
 O240 O 0.07611 0.45150 -0.04100
 O241 O 0.07007 0.56475 0.03444
 O242 O 0.03350 0.45956 -0.08896
 O243 O 0.03374 0.53155 0.08126
 O244 O 0.07636 0.55253 -0.04159
 O245 O 0.07504 0.44478 0.03254
 C246 C 0.06551 0.44442 0.06920
 C247 C 0.07065 0.54748 -0.07870
 C248 C 0.06868 0.45000 -0.07793
 C249 C 0.06354 0.55484 0.07091
 O250 O -0.04246 0.53626 0.05860
 O251 O -0.04280 0.46047 -0.05447
 O252 O -0.00164 0.41135 0.02976
 O253 O 0.00134 0.58176 -0.04992
 O254 O -0.04275 0.53424 -0.05910
 O255 O -0.04500 0.45754 0.04825
 O256 O -0.00691 0.58415 0.02517
 O257 O 0.00083 0.41376 -0.04371
 Co258 Co -0.00407 0.49505 0.05955
 Co259 Co -0.00227 0.49717 -0.06768
 Co260 Co 0.03574 0.43600 -0.00579
 Co261 Co 0.03351 0.56376 -0.00808
 O262 O 0.01570 0.49831 -0.00502
 C263 C -0.03659 0.57317 0.04806
 C264 C -0.03487 0.42330 -0.05286
 C265 C -0.03659 0.42062 0.04308
 C266 C -0.03435 0.57149 -0.05877
 O267 O 1.03844 0.04036 0.46141
 O268 O 0.93090 0.03872 0.53685
 O269 O 0.94797 -0.00839 0.41805
 O270 O 1.01779 0.00327 0.58709
 O271 O 0.93667 0.03682 0.46341
 O272 O 1.04848 0.04071 0.53922
 O273 O 0.94220 -0.00418 0.58490
 O274 O 1.02173 -0.00534 0.41640
 C275 C 1.03421 0.03057 0.42499
 C276 C 0.93111 0.03072 0.57377
 C277 C 0.93776 0.02742 0.42688
 C278 C 1.03906 0.03449 0.57595
 O279 O 1.07216 -0.03627 0.53641
 O280 O 0.90199 -0.04035 0.46374
 O281 O 1.02373 -0.08132 0.45170
 O282 O 0.94830 -0.08068 0.55710
 O283 O 0.90001 -0.04031 0.53780
 O284 O 1.07020 -0.03533 0.46092
 O285 O 1.02565 -0.07465 0.56817
 O286 O 0.95015 -0.08283 0.45727
 Co287 Co 1.05030 0.00048 0.49931
 Co288 Co 0.92305 -0.00299 0.50053
 Co289 Co 0.98573 -0.04246 0.44128
 Co290 Co 0.98332 -0.03748 0.56727
 O291 O 0.98591 -0.02039 0.50232
 C292 C 1.06219 -0.06699 0.55873
 C293 C 0.91340 -0.07551 0.45368
 C294 C 1.06048 -0.07156 0.45156
 C295 C 0.91113 -0.07406 0.55340
 C296 C 1.09611 0.06686 0.33420
 C297 C 1.09476 0.11014 0.33762
 C298 C 1.06888 0.12692 0.36760
 C299 C 1.04785 0.10107 0.39549
 C300 C 1.05081 0.05807 0.39271
 C301 C 1.07394 0.04123 0.36103
 H302 H 1.11443 0.05239 0.31092
 H303 H 1.06672 0.15995 0.37131
 H304 H 1.03002 0.11461 0.41978
 H305 H 1.07671 0.00810 0.35837
 C306 C 0.82915 -0.10876 0.38293
 C307 C 0.84690 -0.14279 0.36376
 C308 C 0.88277 -0.15914 0.38027
 C309 C 0.90264 -0.13935 0.41250
 C310 C 0.88696 -0.10290 0.42890
 C311 C 0.84895 -0.08904 0.41521
 H312 H 0.80100 -0.09598 0.37168
 H313 H 0.89718 -0.18547 0.36657
 H314 H 0.93180 -0.15092 0.42255
 H315 H 0.83592 -0.06120 0.42741
 C316 C 0.90519 0.12481 0.63539
 C317 C 0.87107 0.11001 0.65783
 C318 C 0.85746 0.06910 0.65272
 C319 C 0.87788 0.04321 0.62593
 C320 C 0.91137 0.05819 0.60289
 C321 C 0.92481 0.09920 0.60743
 H322 H 0.91613 0.15630 0.63898
 H323 H 0.83148 0.05695 0.67001
 H324 H 0.86707 0.01161 0.62258
 H325 H 0.95070 0.11110 0.58983
 C326 C 1.10967 -0.15829 0.61034
 C327 C 1.14791 -0.14205 0.62216
 C328 C 1.15990 -0.10249 0.60788
 C329 C 1.13305 -0.07872 0.58472
 C330 C 1.09369 -0.09400 0.57586
 C331 C 1.08284 -0.13447 0.58772
 H332 H 1.09921 -0.18858 0.62031
 H333 H 1.18939 -0.08926 0.61579
 H334 H 1.14216 -0.04760 0.57580
 H335 H 1.05282 -0.14720 0.58084
 C336 C 0.38228 1.15744 1.12304
 C337 C 0.36417 1.14003 1.15858
 C338 C 0.37616 1.10014 1.17075
 C339 C 0.40199 1.07698 1.14595
 C340 C 0.41600 1.09310 1.10846
 C341 C 0.40731 1.13399 1.09802
 H342 H 0.37534 1.18824 1.11270
 H343 H 0.36433 1.08578 1.19844
 H344 H 0.40853 1.04547 1.15464
 H345 H 0.41838 1.14722 1.06942
 C346 C 0.33416 0.92358 0.88152
 C347 C 0.33899 0.88046 0.88232
 C348 C 0.36899 0.86400 0.90827
 C349 C 0.39487 0.89019 0.93076
 C350 C 0.39002 0.93310 0.92915
 C351 C 0.35888 0.94938 0.90505
 H352 H 0.31098 0.93784 0.86304
 H353 H 0.37389 0.83111 0.90988
 H354 H 0.41879 0.87701 0.94918
 H355 H 0.35461 0.98241 0.90314
 C356 C 0.64763 0.89251 1.06698
 C357 C 0.66862 0.90851 1.10106
 C358 C 0.65663 0.94687 1.11665
 C359 C 0.62514 0.96865 1.09857
 C360 C 0.60399 0.95216 1.06539
 C361 C 0.61500 0.91385 1.04982
 H362 H 0.65544 0.86301 1.05416
 H363 H 0.67205 0.96093 1.14222
 H364 H 0.61681 0.99829 1.11090
 H365 H 0.59861 0.90068 1.02433
 C366 C 0.59928 1.16403 0.88735
 C367 C 0.61654 1.14847 0.85118
 C368 C 0.60047 1.11094 0.83596
 C369 C 0.57132 1.08785 0.85831
 C370 C 0.55729 1.10173 0.89626
 C371 C 0.57015 1.14090 0.90961
 H372 H 0.60943 1.19317 0.89988
 H373 H 0.61159 1.09801 0.80778
 H374 H 0.56171 1.05792 0.84704
 H375 H 0.55950 1.15270 0.93856
 C376 C 0.10008 0.38800 0.16398
 C377 C 0.13899 0.37461 0.15187
 C378 C 0.15552 0.38949 0.11460
 C379 C 0.13244 0.41414 0.08865
 C380 C 0.09248 0.42495 0.09953
 C381 C 0.07711 0.41297 0.13811
 H382 H 0.08644 0.37785 0.19261
 H383 H 0.18569 0.38093 0.10442
 H384 H 0.14531 0.42337 0.05932
 H385 H 0.04645 0.42106 0.14746
 C386 C -0.13073 0.37259 -0.09568
 C387 C -0.11691 0.33263 -0.10355
 C388 C -0.07753 0.32185 -0.09093
 C389 C -0.05176 0.35088 -0.07258
 C390 C -0.06454 0.39157 -0.06690
 C391 C -0.10464 0.40194 -0.07774
 H392 H -0.16096 0.38170 -0.10507
 H393 H -0.06630 0.29108 -0.09589
 H394 H -0.02118 0.34181 -0.06427
 H395 H -0.11539 0.43302 -0.07351
 C396 C 0.11836 0.59680 -0.17305
 C397 C 0.15524 0.61310 -0.15727
 C398 C 0.16676 0.60115 -0.11772
 C399 C 0.14038 0.57698 -0.09329
 C400 C 0.10187 0.56406 -0.10778
 C401 C 0.09192 0.57257 -0.14852
 H402 H 0.10878 0.60426 -0.20371
 H403 H 0.19510 0.61219 -0.10457
 H404 H 0.14926 0.57036 -0.06215
 H405 H 0.06265 0.56271 -0.16068
 C406 C -0.09491 0.67217 0.06123
 C407 C -0.11226 0.66594 0.10027
 C408 C -0.10634 0.62837 0.12069
 C409 C -0.08299 0.59775 0.10279
 C410 C -0.06427 0.60446 0.06449
 C411 C -0.07059 0.64183 0.04368
 H412 H -0.09894 0.70102 0.04496
 H413 H -0.11966 0.62272 0.15065
 H414 H -0.07841 0.56930 0.11960
 H415 H -0.05655 0.64763 0.01406
 C416 C 1.08616 0.07422 0.67306
 C417 C 1.09671 0.11504 0.66200
 C418 C 1.08460 0.13036 0.62384
 C419 C 1.06444 0.10451 0.59625
 C420 C 1.05516 0.06325 0.60679
 C421 C 1.06512 0.04868 0.64587
 H422 H 1.09481 0.06182 0.70250
 H423 H 1.09245 0.16168 0.61457
 H424 H 1.05695 0.11647 0.56630
 H425 H 1.05847 0.01694 0.65465
 C426 C 0.87154 -0.16228 0.61865
 C427 C 0.83641 -0.14502 0.63605
 C428 C 0.82197 -0.10777 0.61972
 C429 C 0.84430 -0.08635 0.58942
 C430 C 0.88164 -0.10167 0.57515
 C431 C 0.89399 -0.14074 0.58864
 H432 H 0.88347 -0.19101 0.63010
 H433 H 0.79452 -0.09405 0.63178
 H434 H 0.83398 -0.05633 0.57957
 H435 H 0.92254 -0.15342 0.57797
 C436 C 1.15627 -0.10994 0.40019
 C437 C 1.14320 -0.14914 0.38678
 C438 C 1.10475 -0.16450 0.39998
 C439 C 1.07879 -0.14008 0.42315
 C440 C 1.09071 -0.09981 0.43391
 C441 C 1.13028 -0.08553 0.42351
 H442 H 1.18590 -0.09723 0.39143
 H443 H 1.09368 -0.19469 0.39107
 H444 H 1.04861 -0.15213 0.43113
 H445 H 1.14044 -0.05471 0.43164
 C446 C 0.88112 0.06262 0.33366
 C447 C 0.88127 0.10556 0.33845
 C448 C 0.90253 0.12320 0.37128
 C449 C 0.92175 0.09794 0.39999
 C450 C 0.92097 0.05490 0.39541
 C451 C 0.90123 0.03757 0.36156
 H452 H 0.86533 0.04836 0.30833
 H453 H 0.90300 0.15630 0.37550
 H454 H 0.93687 0.11191 0.42587
 H455 H 0.89998 0.00444 0.35749
 C456 C 0.10927 0.39706 -0.17174
 C457 C 0.14488 0.37880 -0.15668
 C458 C 0.15812 0.38908 -0.11725
 C459 C 0.13464 0.41453 -0.09240
 C460 C 0.09753 0.43036 -0.10653
 C461 C 0.08589 0.42260 -0.14696
 H462 H 0.09862 0.39057 -0.20225
 H463 H 0.18542 0.37576 -0.10464
 H464 H 0.14451 0.42008 -0.06141
 H465 H 0.05763 0.43462 -0.15885
 C466 C -0.13143 0.36838 0.08713
 C467 C -0.11519 0.33166 0.10257
 C468 C -0.07429 0.32235 0.09389
 C469 C -0.04944 0.35019 0.07184
 C470 C -0.06486 0.38822 0.05888
 C471 C -0.10632 0.39667 0.06581
 H472 H -0.16290 0.37622 0.09341
 H473 H -0.06123 0.29395 0.10497
 H474 H -0.01756 0.34293 0.06699
 H475 H -0.11893 0.42575 0.05598
 C476 C -0.07611 0.66399 -0.11405
 C477 C -0.11851 0.65772 -0.10947
 C478 C -0.13324 0.62404 -0.08605
 C479 C -0.10589 0.59597 -0.06907
 C480 C -0.06347 0.60203 -0.07419
 C481 C -0.04884 0.63677 -0.09603
 H482 H -0.06406 0.68994 -0.13172
 H483 H -0.16584 0.61862 -0.08221
 H484 H -0.11779 0.56944 -0.05215
 H485 H -0.01628 0.64205 -0.10048
 C486 C 0.10019 0.60804 0.16631
 C487 C 0.13812 0.62415 0.15248
 C488 C 0.15390 0.61102 0.11495
 C489 C 0.13061 0.58560 0.08984
 C490 C 0.09107 0.57262 0.10178
 C491 C 0.07674 0.58231 0.14103
 H492 H 0.08740 0.61764 0.19521
 H493 H 0.18348 0.62213 0.10399
 H494 H 0.14269 0.57794 0.06001
 H495 H 0.04631 0.57263 0.15087
 C496 C 0.38059 1.15733 0.88306
 C497 C 0.36337 1.13978 0.84797
 C498 C 0.37585 1.10041 0.83588
 C499 C 0.40282 1.07787 0.85993
 C500 C 0.41727 1.09408 0.89682
 C501 C 0.40704 1.13455 0.90743
 H502 H 0.37160 1.18757 0.89316
 H503 H 0.36354 1.08636 0.80863
 H504 H 0.41008 1.04672 0.85106
 H505 H 0.41787 1.14781 0.93569
 C506 C 0.32331 0.90238 1.08966
 C507 C 0.33394 0.88733 1.12850
 C508 C 0.37309 0.89601 1.14364
 C509 C 0.40110 0.91948 1.12060
 C510 C 0.39032 0.93560 1.08226
 C511 C 0.35114 0.92690 1.06691
 H512 H 0.29318 0.89610 1.07742
 H513 H 0.38219 0.88444 1.17326
 H514 H 0.43095 0.92603 1.13343
 H515 H 0.34210 0.93907 1.03750
 C516 C 0.59981 1.11495 1.16279
 C517 C 0.61999 1.15022 1.14682
 C518 C 0.60887 1.16506 1.10808
 C519 C 0.58096 1.14282 1.08429
 C520 C 0.56360 1.10551 1.09895
 C521 C 0.57182 1.09286 1.13914
 H522 H 0.60708 1.10326 1.19288
 H523 H 0.62375 1.19220 1.09491
 H524 H 0.57505 1.15344 1.05349
 H525 H 0.55859 1.06446 1.15147
 C526 C 0.62075 0.87585 0.92021
 C527 C 0.65829 0.89273 0.90644
 C528 C 0.66624 0.93509 0.91124
 C529 C 0.63673 0.96046 0.92821
 C530 C 0.59826 0.94416 0.93992
 C531 C 0.59071 0.90149 0.93635
 H532 H 0.61393 0.84326 0.91671
 H533 H 0.69514 0.94876 0.90122
 H534 H 0.64351 0.99318 0.93065
 H535 H 0.56136 0.88810 0.94536
   
