data_POSCAR
  _audit_creation_date              2014-09-24
  _audit_creation_method            'ToBaCCo'
  _symmetry_space_group_name_H-M    'P1'
  _symmetry_Int_Tables_number       1
  _symmetry_cell_setting            triclinic
  loop_
  _symmetry_equiv_pos_as_xyz
 x,y,z
_cell_length_a 30.9573
_cell_length_b 31.0060
_cell_length_c 30.9931
_cell_angle_alpha 105.114800
_cell_angle_beta 74.952900
_cell_angle_gamma 74.469600
loop_
  _atom_site_label
  _atom_site_type_symbol
  _atom_site_fract_x
  _atom_site_fract_y
  _atom_site_fract_z
C1 C 0.52824 0.46900 -0.00358
 C2 C 0.49396 0.50293 -0.00916
 C3 C 0.44820 0.49744 -0.01109
 C4 C 0.49999 0.54774 -0.01353
 C5 C 0.57272 0.47586 0.00108
 C6 C 0.52368 0.42266 -0.00289
 C7 C 0.43409 0.50206 -0.04949
 C8 C 0.39012 0.49960 -0.05092
 C9 C 0.35807 0.49282 -0.01348
 C10 C 0.37348 0.48768 0.02491
 C11 C 0.41757 0.49027 0.02610
 C12 C 0.53927 0.54660 -0.04945
 C13 C 0.54306 0.58922 -0.05423
 C14 C 0.50731 0.63361 -0.02357
 C15 C 0.46813 0.63450 0.01232
 C16 C 0.46446 0.59201 0.01717
 C17 C 0.57094 0.51534 0.03722
 C18 C 0.61332 0.52102 0.04097
 C19 C 0.65816 0.48721 0.00875
 C20 C 0.65968 0.44740 -0.02688
 C21 C 0.61741 0.44172 -0.03053
 C22 C 0.52810 0.40793 0.03538
 C23 C 0.52530 0.36386 0.03597
 C24 C 0.51843 0.33343 -0.00195
 C25 C 0.51421 0.34820 -0.04039
 C26 C 0.51701 0.39232 -0.04094
 H27 H 0.45751 0.50725 -0.07881
 H28 H 0.38303 0.50108 -0.08292
 H29 H 0.35083 0.48466 0.05610
 H30 H 0.42729 0.48787 0.05678
 H31 H 0.56655 0.51273 -0.07418
 H32 H 0.57335 0.58741 -0.08257
 H33 H 0.43382 0.59363 0.04500
 H34 H 0.53676 0.54168 0.06247
 H35 H 0.61103 0.55214 0.06865
 H36 H 0.69365 0.42030 -0.05166
 H37 H 0.61953 0.41079 -0.05837
 H38 H 0.53375 0.43064 0.06484
 H39 H 0.52947 0.35318 0.06569
 H40 H 0.50854 0.32572 -0.06996
 H41 H 0.51438 0.40264 -0.07123
 H42 H 0.44041 0.66815 0.03693
 C43 C -0.00347 0.53130 0.52899
 C44 C -0.00883 0.49754 0.49476
 C45 C -0.01330 0.45276 0.50083
 C46 C -0.01015 0.50310 0.44892
 C47 C -0.00283 0.57768 0.52444
 C48 C 0.00121 0.52408 0.57331
 C49 C 0.01756 0.40847 0.46553
 C50 C 0.01261 0.36604 0.46923
 C51 C -0.02356 0.36700 0.50821
 C52 C -0.05436 0.41140 0.54374
 C53 C -0.04946 0.45396 0.53993
 C54 C 0.02773 0.50995 0.41856
 C55 C 0.02716 0.51235 0.37429
 C56 C -0.01114 0.50760 0.35947
 C57 C -0.04911 0.50103 0.39013
 C58 C -0.04850 0.49863 0.43432
 C59 C -0.04084 0.60811 0.51735
 C60 C -0.04037 0.65227 0.51455
 C61 C -0.00206 0.66699 0.51918
 C62 C 0.03582 0.63647 0.52646
 C63 C 0.03531 0.59237 0.52926
 C64 C -0.03062 0.55801 0.61786
 C65 C -0.02690 0.55197 0.65997
 C66 C 0.00900 0.51200 0.65839
 C67 C 0.04143 0.47840 0.61368
 C68 C 0.03761 0.48445 0.57147
 H69 H 0.04560 0.40680 0.43504
 H70 H 0.03733 0.33238 0.44168
 H71 H -0.08290 0.41327 0.57388
 H72 H -0.07431 0.48785 0.56703
 H73 H 0.05804 0.51268 0.42885
 H74 H 0.05672 0.51781 0.35159
 H75 H -0.07783 0.49289 0.45707
 H76 H -0.07104 0.59784 0.51439
 H77 H -0.06989 0.67482 0.50856
 H78 H 0.06543 0.64711 0.53095
 H79 H 0.06474 0.56959 0.53521
 H80 H -0.05865 0.58905 0.61999
 H81 H -0.05184 0.57889 0.69385
 H82 H 0.06932 0.44717 0.61138
 H83 H 0.06302 0.45827 0.53739
 H84 H -0.07871 0.49650 0.37943
 C85 C 0.51143 0.00298 0.47753
 C86 C 0.47779 -0.00306 0.51131
 C87 C 0.48490 -0.00820 0.55563
 C88 C 0.43142 -0.00380 0.50654
 C89 C 0.50654 0.00353 0.43117
 C90 C 0.55558 0.00858 0.48462
 C91 C 0.52514 -0.04377 0.55375
 C92 C 0.53056 -0.04883 0.59581
 C93 C 0.49537 -0.01882 0.64108
 C94 C 0.45498 0.01676 0.64217
 C95 C 0.44988 0.02180 0.60014
 C96 C 0.41640 -0.04153 0.51207
 C97 C 0.37149 -0.04118 0.51106
 C98 C 0.34046 -0.00285 0.50485
 C99 C 0.35574 0.03477 0.49892
 C100 C 0.40074 0.03437 0.49992
 C101 C 0.51172 0.04123 0.41582
 C102 C 0.51052 0.04079 0.37098
 C103 C 0.50447 0.00240 0.34034
 C104 C 0.49891 -0.03520 0.35594
 C105 C 0.50010 -0.03471 0.40086
 C106 C 0.55320 0.04449 0.52451
 C107 C 0.59510 0.04993 0.52999
 C108 C 0.64070 0.01997 0.49520
 C109 C 0.64229 -0.01589 0.45511
 C110 C 0.60041 -0.02132 0.44995
 H111 H 0.55206 -0.06815 0.51962
 H112 H 0.56145 -0.07789 0.59214
 H113 H 0.42771 0.04235 0.67544
 H114 H 0.41862 0.04967 0.60239
 H115 H 0.43936 -0.07107 0.51770
 H116 H 0.36051 -0.07031 0.51643
 H117 H 0.41126 0.06428 0.49645
 H118 H 0.51719 0.07084 0.43847
 H119 H 0.51562 0.06991 0.35977
 H120 H 0.49379 -0.06508 0.33332
 H121 H 0.49689 -0.06459 0.41163
 H122 H 0.51878 0.06882 0.55111
 H123 H 0.59105 0.07920 0.56060
 H124 H 0.67586 -0.04144 0.42817
 H125 H 0.60303 -0.04942 0.41896
 H126 H 0.33282 0.06459 0.49367
 O127 O 0.47568 -0.01243 -0.06447
 O128 O 0.47407 0.00337 0.05783
 O129 O 0.47476 0.05656 0.00472
 O130 O 0.47622 -0.06596 -0.01195
 O131 O 0.55550 -0.09368 -0.03921
 O132 O 0.55404 0.02881 -0.02236
 O133 O 0.55334 -0.02444 0.03085
 O134 O 0.55496 -0.04009 -0.09186
 Cu135 Cu 0.46721 -0.00182 -0.00072
 Cu136 Cu 0.56246 -0.03511 -0.03333
 C137 C 0.51544 -0.02845 -0.09873
 C138 C 0.51339 -0.00838 0.06496
 C139 C 0.51422 0.06326 -0.00657
 C140 C 0.51608 -0.10043 -0.02802
 O141 O -0.06974 0.54030 1.02554
 O142 O 0.05380 0.53638 1.00856
 O143 O 0.00039 0.53673 0.95561
 O144 O -0.01645 0.54064 1.07867
 O145 O 0.00985 0.46150 1.05302
 O146 O 0.02650 0.45760 0.92975
 O147 O 0.07991 0.45725 0.98273
 O148 O -0.04344 0.46117 0.99989
 Cu149 Cu -0.01064 0.54650 1.01967
 Cu150 Cu 0.02082 0.45139 0.98877
 C151 C -0.07731 0.50129 1.01504
 C152 C 0.08760 0.49616 0.99329
 C153 C 0.01575 0.49662 0.92201
 C154 C -0.00555 0.50171 1.08653
 O155 O 0.00425 -0.05574 0.47575
 O156 O -0.01239 0.06689 0.47725
 O157 O 0.05751 -0.00296 0.47515
 O158 O -0.06506 0.01379 0.47659
 O159 O -0.09264 0.04104 0.55562
 O160 O 0.03037 0.02446 0.55417
 O161 O -0.03983 0.09422 0.55628
 O162 O -0.02300 -0.02838 0.55478
 Cu163 Cu -0.00115 0.00274 0.46823
 Cu164 Cu -0.03398 0.03555 0.56320
 C165 C -0.00712 -0.06265 0.51509
 C166 C -0.02854 0.10118 0.51699
 C167 C 0.06460 0.00843 0.51437
 C168 C -0.09945 0.02976 0.51619
 C169 C -0.20925 0.50033 1.01720
 C170 C -0.21471 0.48617 0.97285
 C171 C -0.25802 0.48258 0.97022
 C172 C -0.29661 0.49309 1.01201
 C173 C -0.29112 0.50808 1.05657
 C174 C -0.24761 0.51157 1.05911
 C175 C -0.16372 0.50202 1.01903
 C176 C -0.12469 0.50227 1.01843
 H177 H -0.18530 0.47752 0.94019
 H178 H -0.26139 0.47167 0.93546
 H179 H -0.32004 0.51597 1.08930
 H180 H -0.24373 0.52246 1.09364
 C181 C 0.22210 0.49209 0.98604
 C182 C 0.24697 0.51162 0.95705
 C183 C 0.29219 0.51157 0.95679
 C184 C 0.31404 0.49195 0.98589
 C185 C 0.28788 0.47195 1.01469
 C186 C 0.24269 0.47212 1.01465
 C187 C 0.17496 0.49340 0.98729
 C188 C 0.13521 0.49466 0.98933
 H189 H 0.23105 0.52773 0.93510
 H190 H 0.30798 0.52972 0.93548
 H191 H 0.30242 0.45394 1.03605
 H192 H 0.22384 0.45641 1.03697
 C193 C -0.00178 -0.19534 0.51563
 C194 C -0.04430 -0.20022 0.53936
 C195 C -0.04447 -0.24500 0.54027
 C196 C -0.00201 -0.28560 0.51742
 C197 C 0.04056 -0.28036 0.49352
 C198 C 0.04063 -0.23550 0.49263
 C199 C -0.00202 -0.14905 0.51492
 C200 C -0.00350 -0.10984 0.51477
 H201 H -0.07733 -0.16935 0.55735
 H202 H -0.07765 -0.24771 0.55953
 H203 H 0.07368 -0.31103 0.47513
 H204 H 0.07370 -0.23216 0.47399
 C205 C -0.03489 0.23385 0.51580
 C206 C -0.04081 0.27017 0.55717
 C207 C -0.03804 0.31391 0.55502
 C208 C -0.02904 0.32168 0.51133
 C209 C -0.02404 0.28524 0.47017
 C210 C -0.02690 0.24164 0.47242
 C211 C -0.03453 0.18772 0.51713
 C212 C -0.03267 0.14847 0.51739
 H213 H -0.04673 0.26439 0.59089
 H214 H -0.04159 0.34113 0.58718
 H215 H -0.01783 0.29044 0.43618
 H216 H -0.02224 0.21377 0.44018
 C217 C 0.50938 -0.03164 -0.22930
 C218 C 0.46411 -0.01234 -0.23147
 C219 C 0.45944 -0.00860 -0.27408
 C220 C 0.50019 -0.02405 -0.31590
 C221 C 0.54573 -0.04440 -0.31315
 C222 C 0.55015 -0.04791 -0.27025
 C223 C 0.51353 -0.03281 -0.18438
 C224 C 0.51530 -0.03191 -0.14576
 H225 H 0.43220 0.00004 -0.20002
 H226 H 0.42344 0.00514 -0.27404
 H227 H 0.57847 -0.05560 -0.34321
 H228 H 0.58550 -0.06255 -0.26885
 C229 C 0.50947 -0.00124 0.19934
 C230 C 0.53187 -0.04310 0.20640
 C231 C 0.52989 -0.04203 0.25227
 C232 C 0.50542 0.00102 0.29179
 C233 C 0.48284 0.04291 0.28435
 C234 C 0.48485 0.04173 0.23843
 C235 C 0.51125 -0.00268 0.15206
 C236 C 0.51250 -0.00471 0.11234
 H237 H 0.55102 -0.07658 0.17641
 H238 H 0.54822 -0.07472 0.25668
 H239 H 0.46327 0.07647 0.31410
 H240 H 0.46712 0.07431 0.23343
 C241 C 0.51488 -0.23308 -0.03454
 C242 C 0.47140 -0.24068 -0.02677
 C243 C 0.46916 -0.28432 -0.02402
 C244 C 0.51042 -0.32101 -0.02892
 C245 C 0.55422 -0.31343 -0.03769
 C246 C 0.55637 -0.26965 -0.04035
 C247 C 0.51620 -0.18694 -0.03410
 C248 C 0.51647 -0.14769 -0.03219
 H249 H 0.43908 -0.21262 -0.02220
 H250 H 0.43509 -0.28936 -0.01798
 H251 H 0.58646 -0.34083 -0.04116
 H252 H 0.59016 -0.26403 -0.04610
 C253 C 0.51485 0.19586 -0.00139
 C254 C 0.49142 0.23600 0.04075
 C255 C 0.49233 0.28083 0.04059
 C256 C 0.51667 0.28605 -0.00181
 C257 C 0.53994 0.24547 -0.04399
 C258 C 0.53902 0.20072 -0.04373
 C259 C 0.51410 0.14960 -0.00155
 C260 C 0.51392 0.11041 -0.00298
 H261 H 0.47244 0.23268 0.07368
 H262 H 0.47360 0.31149 0.07349
 H263 H 0.55955 0.24816 -0.07702
 H264 H 0.55733 0.16986 -0.07655
 C265 C -0.23008 0.03341 0.50970
 C266 C -0.27127 0.04968 0.55023
 C267 C -0.31407 0.04600 0.54563
 C268 C -0.31645 0.02549 0.50017
 C269 C -0.27441 0.01011 0.45967
 C270 C -0.23190 0.01402 0.46451
 C271 C -0.18520 0.03454 0.51406
 C272 C -0.14656 0.03350 0.51597
 H273 H -0.27011 0.06439 0.58551
 H274 H -0.34431 0.05717 0.57819
 H275 H -0.27413 -0.00374 0.42374
 H276 H -0.20025 0.00163 0.43281
 C277 C 0.19921 0.00077 0.51047
 C278 C 0.20607 0.04261 0.53261
 C279 C 0.25203 0.04153 0.53045
 C280 C 0.29183 -0.00151 0.50607
 C281 C 0.28458 -0.04338 0.48380
 C282 C 0.23856 -0.04220 0.48597
 C283 C 0.15187 0.00229 0.51228
 C284 C 0.11207 0.00448 0.51353
 H285 H 0.17587 0.07608 0.55164
 H286 H 0.25631 0.07420 0.54855
 H287 H 0.31455 -0.07693 0.46432
 H288 H 0.23370 -0.07475 0.46845
 C289 C -0.01089 0.50572 1.22030
 C290 C 0.03153 0.48252 1.22608
 C291 C 0.03157 0.48358 1.27141
 C292 C -0.01090 0.50790 1.31161
 C293 C -0.05334 0.53139 1.30548
 C294 C -0.05329 0.53031 1.26008
 C295 C -0.01057 0.50445 1.17350
 C296 C -0.00909 0.50320 1.13395
 H297 H 0.06454 0.46338 1.19549
 H298 H 0.06463 0.46459 1.27486
 H299 H -0.08646 0.55086 1.33583
 H300 H -0.08626 0.54861 1.25601
 C301 C 0.01776 0.49788 0.79042
 C302 C -0.02676 0.51201 0.78494
 C303 C -0.02948 0.51591 0.74178
 C304 C 0.01237 0.50574 0.70341
 C305 C 0.05710 0.49075 0.70890
 C306 C 0.05973 0.48695 0.75225
 C307 C 0.01965 0.49600 0.83581
 C308 C 0.01910 0.49566 0.87474
 H309 H -0.05946 0.52043 0.81422
 H310 H -0.06434 0.52682 0.73838
 H311 H 0.08987 0.48312 0.68012
 H312 H 0.09437 0.47610 0.75618
   
