data_POSCAR
  _audit_creation_date              2014-09-24
  _audit_creation_method            'ToBaCCo'
  _symmetry_space_group_name_H-M    'P1'
  _symmetry_Int_Tables_number       1
  _symmetry_cell_setting            triclinic
  loop_
  _symmetry_equiv_pos_as_xyz
 x,y,z
_cell_length_a 30.6016
_cell_length_b 30.6123
_cell_length_c 30.7531
_cell_angle_alpha 89.828800
_cell_angle_beta 89.846200
_cell_angle_gamma 89.791100
loop_
  _atom_site_label
  _atom_site_type_symbol
  _atom_site_fract_x
  _atom_site_fract_y
  _atom_site_fract_z
C1 C 0.26587 0.90535 0.02702
 C2 C 0.25540 0.88263 -0.01111
 C3 C 0.24921 0.90392 -0.05156
 C4 C 0.25122 0.95050 -0.05231
 C5 C 0.26472 0.97369 -0.01470
 C6 C 0.27365 0.95074 0.02451
 C7 C 0.29138 0.97360 0.05969
 C8 C 0.29557 1.01856 0.05852
 C9 C 0.28404 1.04263 0.02130
 C10 C 0.26926 1.02007 -0.01617
 C11 C 0.23845 0.97483 -0.08910
 C12 C 0.24127 1.02012 -0.09003
 C13 C 0.25782 1.04375 -0.05450
 C14 C 0.26124 1.09028 -0.05527
 C15 C 0.27689 1.11121 -0.01770
 C16 C 0.28655 1.08859 0.02082
 H17 H 0.30300 0.95710 0.08852
 H18 H 0.30814 1.03383 0.08745
 H19 H 0.22420 0.95956 -0.11730
 H20 H 0.22922 1.03594 -0.11902
 H21 H 0.25390 0.84749 -0.00863
 H22 H 0.28347 1.14587 -0.01834
 C23 C 0.75944 0.38823 0.53745
 C24 C 0.74804 0.36701 0.49873
 C25 C 0.74149 0.38961 0.45947
 C26 C 0.74420 0.43586 0.45951
 C27 C 0.75805 0.45782 0.49785
 C28 C 0.76694 0.43386 0.53653
 C29 C 0.78451 0.45604 0.57244
 C30 C 0.78912 0.50124 0.57214
 C31 C 0.77709 0.52603 0.53563
 C32 C 0.76303 0.50400 0.49752
 C33 C 0.73216 0.46095 0.42309
 C34 C 0.73754 0.50604 0.42262
 C35 C 0.75393 0.52807 0.45906
 C36 C 0.76052 0.57372 0.45846
 C37 C 0.77450 0.59466 0.49635
 C38 C 0.78069 0.57214 0.53522
 H39 H 0.79593 0.43873 0.60089
 H40 H 0.80327 0.51644 0.60049
 H41 H 0.71755 0.44628 0.39478
 H42 H 0.72801 0.52354 0.39351
 H43 H 0.74412 0.33179 0.49920
 H44 H 0.78019 0.62961 0.49591
 C45 C 0.75144 0.95156 1.08227
 C46 C 0.74747 0.99348 1.10140
 C47 C 0.73544 1.03059 1.07746
 C48 C 0.72892 1.02671 1.03245
 C49 C 0.73575 0.98595 1.01152
 C50 C 0.74545 0.94788 1.03634
 C51 C 0.74821 0.90758 1.01411
 C52 C 0.74288 0.90500 0.96925
 C53 C 0.73681 0.94265 0.94393
 C54 C 0.73230 0.98342 0.96545
 C55 C 0.71359 1.06232 1.00807
 C56 C 0.70954 1.05938 0.96344
 C57 C 0.72325 1.02177 0.94111
 C58 C 0.72482 1.02042 0.89513
 C59 C 0.72657 0.97969 0.87463
 C60 C 0.73294 0.94092 0.89794
 H61 H 0.75413 0.87695 1.03032
 H62 H 0.74340 0.87286 0.95491
 H63 H 0.70396 1.09274 1.02323
 H64 H 0.69504 1.08692 0.94667
 H65 H 0.75333 0.99772 1.13584
 H66 H 0.72556 0.97815 0.83936
 C67 C 0.25969 0.54151 0.39407
 C68 C 0.26078 0.50187 0.37133
 C69 C 0.25628 0.46118 0.39214
 C70 C 0.25060 0.45989 0.43794
 C71 C 0.24905 0.49976 0.46155
 C72 C 0.25426 0.54049 0.43976
 C73 C 0.25427 0.57890 0.46453
 C74 C 0.24224 0.57843 0.50781
 C75 C 0.23740 0.53893 0.53036
 C76 C 0.24212 0.49904 0.50729
 C77 C 0.24545 0.42038 0.46090
 C78 C 0.24252 0.41966 0.50607
 C79 C 0.23996 0.45858 0.52988
 C80 C 0.23536 0.45870 0.57567
 C81 C 0.22817 0.49802 0.59725
 C82 C 0.22836 0.53788 0.57538
 H83 H 0.26335 0.61016 0.45127
 H84 H 0.23781 0.60976 0.52306
 H85 H 0.24352 0.38935 0.44463
 H86 H 0.24095 0.38814 0.52183
 H87 H 0.26468 0.50274 0.33625
 H88 H 0.22344 0.49768 0.63228
 C89 C 0.89573 0.23785 -0.02958
 C90 C 0.87567 0.22491 0.00975
 C91 C 0.89838 0.22246 0.04946
 C92 C 0.94409 0.23013 0.04912
 C93 C 0.96512 0.24404 0.01015
 C94 C 0.94028 0.25091 -0.02834
 C95 C 0.95964 0.27502 -0.06222
 C96 C 1.00401 0.28426 -0.06221
 C97 C 1.03104 0.27017 -0.02813
 C98 C 1.01077 0.25360 0.01023
 C99 C 0.96906 0.22658 0.08723
 C100 C 1.01346 0.23549 0.08726
 C101 C 1.03543 0.24857 0.04915
 C102 C 1.08049 0.25978 0.04948
 C103 C 1.10010 0.27260 0.00993
 C104 C 1.07698 0.27657 -0.02914
 H105 H 0.94044 0.28920 -0.08809
 H106 H 1.01639 0.30455 -0.08825
 H107 H 0.95483 0.21763 0.11810
 H108 H 1.02960 0.23306 0.11831
 H109 H 0.84158 0.21547 0.00924
 H110 H 1.13528 0.27618 0.00844
 C111 C 0.57976 0.74465 0.55427
 C112 C 0.60384 0.75269 0.51633
 C113 C 0.58374 0.76593 0.47765
 C114 C 0.53762 0.76896 0.47585
 C115 C 0.51278 0.75902 0.51360
 C116 C 0.53414 0.74914 0.55331
 C117 C 0.50969 0.74744 0.59179
 C118 C 0.46488 0.75288 0.59097
 C119 C 0.44217 0.75575 0.55138
 C120 C 0.46650 0.76093 0.51231
 C121 C 0.51564 0.78428 0.43874
 C122 C 0.47023 0.78475 0.43702
 C123 C 0.44494 0.77045 0.47250
 C124 C 0.39872 0.76849 0.47059
 C125 C 0.37530 0.76224 0.50948
 C126 C 0.39608 0.75642 0.54982
 H127 H 0.52510 0.74383 0.62324
 H128 H 0.44900 0.75574 0.62208
 H129 H 0.53305 0.79689 0.41086
 H130 H 0.45537 0.79825 0.40813
 H131 H 0.63914 0.74928 0.51710
 H132 H 0.33986 0.76213 0.50840
 C133 C -0.04743 0.73189 -0.07077
 C134 C -0.00713 0.72523 -0.09233
 C135 C 0.03347 0.73516 -0.07320
 C136 C 0.03338 0.75118 -0.03018
 C137 C -0.00573 0.75035 -0.00528
 C138 C -0.04611 0.73951 -0.02524
 C139 C -0.08361 0.73680 0.00108
 C140 C -0.08188 0.74561 0.04526
 C141 C -0.04291 0.75930 0.06533
 C142 C -0.00430 0.76106 0.03968
 C143 C 0.07091 0.76997 -0.01182
 C144 C 0.07179 0.78167 0.03152
 C145 C 0.03594 0.77345 0.05870
 C146 C 0.03874 0.77904 0.10405
 C147 C 0.00026 0.77838 0.12890
 C148 C -0.04108 0.76959 0.11045
 H149 H -0.11469 0.72603 -0.01123
 H150 H -0.11172 0.74021 0.06319
 H151 H 0.09981 0.77705 -0.03081
 H152 H 0.10091 0.79755 0.04331
 H153 H -0.00762 0.70967 -0.12374
 H154 H 0.00319 0.78635 0.16296
 C155 C 0.53413 0.26615 0.42711
 C156 C 0.49555 0.27268 0.40407
 C157 C 0.45430 0.26456 0.42247
 C158 C 0.45174 0.25541 0.46786
 C159 C 0.49075 0.25292 0.49282
 C160 C 0.53206 0.25644 0.47191
 C161 C 0.57006 0.25012 0.49638
 C162 C 0.56775 0.23950 0.53996
 C163 C 0.52805 0.24163 0.56285
 C164 C 0.48866 0.24641 0.53874
 C165 C 0.41176 0.24726 0.48894
 C166 C 0.40977 0.24054 0.53384
 C167 C 0.44739 0.24303 0.55997
 C168 C 0.44567 0.23969 0.60624
 C169 C 0.48536 0.23645 0.62929
 C170 C 0.52646 0.23752 0.60872
 H171 H 0.60230 0.25295 0.48243
 H172 H 0.59793 0.22937 0.55486
 H173 H 0.38149 0.24543 0.47106
 H174 H 0.37838 0.23197 0.54735
 H175 H 0.49821 0.28299 0.37046
 H176 H 0.48429 0.23341 0.66444
 C177 C 0.92494 -0.02945 0.25400
 C178 C 0.90047 0.00681 0.24157
 C179 C 0.91915 0.04829 0.23684
 C180 C 0.96516 0.05244 0.23898
 C181 C 0.99112 0.01526 0.24902
 C182 C 0.97071 -0.02549 0.25822
 C183 C 0.99669 -0.06114 0.27046
 C184 C 1.04182 -0.05750 0.27192
 C185 C 1.06305 -0.01912 0.25817
 C186 C 1.03755 0.01865 0.24945
 C187 C 0.98595 0.09254 0.23134
 C188 C 1.03122 0.09591 0.23167
 C189 C 1.05813 0.05956 0.24087
 C190 C 1.10472 0.06256 0.24023
 C191 C 1.12894 0.02344 0.24631
 C192 C 1.10901 -0.01717 0.25391
 H193 H 0.98257 -0.09236 0.27883
 H194 H 1.05967 -0.08538 0.28418
 H195 H 0.96772 0.12193 0.22413
 H196 H 1.04433 0.12749 0.22327
 H197 H 0.86568 0.00262 0.23646
 H198 H 1.16425 0.02403 0.24690
 C199 C 0.41732 0.45669 0.75520
 C200 C 0.39676 0.49724 0.76059
 C201 C 0.41859 0.53683 0.75312
 C202 C 0.46435 0.53562 0.74480
 C203 C 0.48626 0.49460 0.74207
 C204 C 0.46225 0.45518 0.74553
 C205 C 0.48341 0.41524 0.73744
 C206 C 0.52789 0.41363 0.72928
 C207 C 0.55338 0.45161 0.73060
 C208 C 0.53214 0.49279 0.73475
 C209 C 0.48874 0.57387 0.73777
 C210 C 0.53377 0.57207 0.73053
 C211 C 0.55648 0.53200 0.73054
 C212 C 0.60248 0.52948 0.72442
 C213 C 0.62272 0.48862 0.72169
 C214 C 0.59930 0.44981 0.72580
 H215 H 0.46580 0.38470 0.73660
 H216 H 0.54176 0.38218 0.72121
 H217 H 0.47338 0.60571 0.73736
 H218 H 0.55035 0.60253 0.72415
 H219 H 0.36281 0.49774 0.77061
 H220 H 0.65795 0.48701 0.71754
 C221 C 1.04240 0.90141 0.72979
 C222 C 1.00314 0.87939 0.73590
 C223 C 0.96568 0.90083 0.74979
 C224 C 0.96570 0.94662 0.75505
 C225 C 1.00436 0.97026 0.74568
 C226 C 1.04305 0.94756 0.73331
 C227 C 1.08025 0.97177 0.72242
 C228 C 1.08137 1.01654 0.72862
 C229 C 1.04427 1.03970 0.74337
 C230 C 1.00457 1.01652 0.74958
 C231 C 0.92897 0.96913 0.77087
 C232 C 0.92900 1.01443 0.77415
 C233 C 0.96546 1.03913 0.76112
 C234 C 0.96556 1.08551 0.76299
 C235 C 1.00631 1.10666 0.76307
 C236 C 1.04605 1.08461 0.75436
 H237 H 1.10908 0.95641 0.70886
 H238 H 1.11198 1.03211 0.72112
 H239 H 0.90004 0.95191 0.78153
 H240 H 0.90079 1.02957 0.78908
 H241 H 1.00221 0.84403 0.73264
 H242 H 1.00662 1.14191 0.76626
 C243 C 0.55560 0.43064 0.22864
 C244 C 0.51615 0.40925 0.21993
 C245 C 0.47686 0.43177 0.21489
 C246 C 0.47680 0.47783 0.21616
 C247 C 0.51628 0.50047 0.22504
 C248 C 0.55603 0.47690 0.23016
 C249 C 0.59497 0.50029 0.23596
 C250 C 0.59498 0.54580 0.23705
 C251 C 0.55576 0.56987 0.23530
 C252 C 0.51602 0.54684 0.22819
 C253 C 0.43915 0.50191 0.20605
 C254 C 0.43900 0.54710 0.20863
 C255 C 0.47612 0.57003 0.22255
 C256 C 0.47516 0.61578 0.22851
 C257 C 0.51453 0.63799 0.23516
 C258 C 0.55484 0.61627 0.23834
 H259 H 0.62611 0.48379 0.23896
 H260 H 0.62638 0.56151 0.23872
 H261 H 0.40966 0.48618 0.19492
 H262 H 0.40962 0.56373 0.19831
 H263 H 0.51582 0.37396 0.21696
 H264 H 0.51376 0.67331 0.23818
 O265 O 0.28835 0.15974 0.14529
 O266 O 0.34599 0.14902 0.20449
 O267 O 0.17531 0.18648 0.22293
 O268 O 0.15308 0.23820 0.26965
 O269 O 0.21492 0.28280 0.11585
 O270 O 0.27174 0.32174 0.09802
 O271 O 0.28116 0.31145 0.34012
 O272 O 0.23307 0.24867 0.34631
 O273 O 0.39268 0.26591 0.27956
 O274 O 0.40747 0.22592 0.20830
 O275 O 0.32820 0.38008 0.23440
 O276 O 0.26528 0.38927 0.18494
 O277 O 0.27068 0.36803 0.29328
 O278 O 0.22061 0.38428 0.24164
 O279 O 0.38522 0.33291 0.22615
 O280 O 0.40651 0.28232 0.17489
 O281 O 0.34254 0.25689 0.33354
 O282 O 0.29296 0.20112 0.34099
 O283 O 0.27445 0.21856 0.10212
 O284 O 0.32616 0.28086 0.09912
 O285 O 0.16511 0.25558 0.16366
 O286 O 0.14941 0.29613 0.22992
 O287 O 0.23464 0.14269 0.21262
 O288 O 0.29591 0.12763 0.24618
 Zr289 Zr 0.28732 0.18554 0.20958
 O290 O 0.32376 0.22172 0.25509
 Zr291 Zr 0.20159 0.25114 0.22221
 O292 O 0.23585 0.29189 0.26608
 Zr293 Zr 0.27525 0.27113 0.14491
 O294 O 0.31319 0.31052 0.18545
 Zr295 Zr 0.28328 0.25543 0.29934
 O296 O 0.24664 0.21337 0.25826
 Zr297 Zr 0.35671 0.27123 0.22137
 O298 O 0.32324 0.23255 0.17527
 Zr299 Zr 0.27251 0.33932 0.23212
 O300 O 0.23339 0.30284 0.18901
 O301 O 0.24050 0.22124 0.17573
 O302 O 0.31872 0.30382 0.26740
 C303 C 0.28114 0.17777 0.10799
 C304 C 0.19370 0.14854 0.21891
 C305 C 0.17606 0.27177 0.12646
 C306 C 0.27548 0.35239 0.33159
 C307 C 0.38193 0.26049 0.31965
 C308 C 0.36922 0.37143 0.23062
 H309 H 0.34396 0.20175 0.27050
 H310 H 0.32852 0.33262 0.16759
 H311 H 0.22197 0.20318 0.15658
 H312 H 0.21519 0.30554 0.28680
 H313 H 0.21461 0.22402 0.33676
 H314 H 0.16145 0.25386 0.29643
 H315 H 0.39263 0.29707 0.14981
 H316 H 0.34655 0.25580 0.10179
 H317 H 0.27417 0.17743 0.32989
 H318 H 0.30262 0.13678 0.27620
 H319 H 0.24109 0.38046 0.16551
 H320 H 0.28171 0.34888 0.11216
 H321 H 0.36149 0.15947 0.17816
 H322 H 0.40724 0.20368 0.23170
 H323 H 0.15515 0.32081 0.20985
 H324 H 0.19528 0.36756 0.25254
 O325 O 0.76692 0.88748 0.22978
 O326 O 0.71520 0.89948 0.28403
 O327 O 0.87534 0.83301 0.30394
 O328 O 0.88079 0.77825 0.35375
 O329 O 0.84119 0.77300 0.18619
 O330 O 0.78331 0.72442 0.16435
 O331 O 0.74095 0.71322 0.39762
 O332 O 0.79210 0.76828 0.41756
 O333 O 0.64178 0.76673 0.33027
 O334 O 0.63809 0.82246 0.26842
 O335 O 0.70096 0.66056 0.28226
 O336 O 0.77061 0.64718 0.23983
 O337 O 0.75188 0.66017 0.34708
 O338 O 0.80930 0.64589 0.29274
 O339 O 0.65050 0.71348 0.26865
 O340 O 0.64482 0.77766 0.22111
 O341 O 0.68604 0.77259 0.38919
 O342 O 0.74240 0.82078 0.41211
 O343 O 0.77613 0.83424 0.17568
 O344 O 0.73555 0.77195 0.15555
 O345 O 0.88407 0.77116 0.24654
 O346 O 0.88446 0.72171 0.30700
 O347 O 0.82346 0.88544 0.29291
 O348 O 0.75783 0.89692 0.33784
 Zr349 Zr 0.76437 0.85093 0.28702
 O350 O 0.71720 0.81383 0.32023
 Zr351 Zr 0.84001 0.77423 0.29842
 O352 O 0.79644 0.73331 0.33257
 Zr353 Zr 0.77634 0.77472 0.21082
 O354 O 0.72974 0.73398 0.24118
 Zr355 Zr 0.74924 0.77191 0.36379
 O356 O 0.79619 0.81305 0.33448
 Zr357 Zr 0.68503 0.77211 0.27676
 O358 O 0.72862 0.81329 0.24222
 Zr359 Zr 0.76055 0.69495 0.28853
 O360 O 0.80810 0.73225 0.25456
 O361 O 0.81043 0.81489 0.25257
 O362 O 0.71419 0.73118 0.32244
 C363 C 0.77036 0.87694 0.18754
 C364 C 0.86316 0.87295 0.29907
 C365 C 0.87867 0.77093 0.20530
 C366 C 0.74392 0.67318 0.38599
 C367 C 0.64841 0.76844 0.37150
 C368 C 0.66183 0.67335 0.27356
 H369 H 0.69642 0.83353 0.33515
 H370 H 0.71498 0.71625 0.21884
 H371 H 0.83091 0.83350 0.23588
 H372 H 0.81274 0.71522 0.35375
 H373 H 0.81513 0.79043 0.41267
 H374 H 0.86957 0.75747 0.37576
 H375 H 0.65435 0.75506 0.20016
 H376 H 0.70972 0.79034 0.16214
 H377 H 0.72532 0.84519 0.39958
 H378 H 0.77863 0.88817 0.36092
 H379 H 0.74865 0.65205 0.21677
 H380 H 0.80077 0.70106 0.17838
 H381 H 0.69209 0.88778 0.26491
 H382 H 0.63576 0.83886 0.29600
 H383 H 0.87790 0.69992 0.28423
 H384 H 0.82733 0.65216 0.31862
 O385 O 0.74760 0.12164 0.80797
 O386 O 0.70565 0.10755 0.74835
 O387 O 0.86381 0.17736 0.75197
 O388 O 0.87764 0.23697 0.70705
 O389 O 0.80872 0.23345 0.86640
 O390 O 0.75140 0.27835 0.88231
 O391 O 0.74918 0.29666 0.64017
 O392 O 0.78591 0.23614 0.62141
 O393 O 0.63166 0.23983 0.70130
 O394 O 0.61831 0.19541 0.75825
 O395 O 0.69185 0.35117 0.75210
 O396 O 0.75148 0.36603 0.79812
 O397 O 0.74788 0.34942 0.69191
 O398 O 0.80251 0.35896 0.75572
 O399 O 0.63793 0.30046 0.75752
 O400 O 0.63011 0.23372 0.81126
 O401 O 0.68122 0.24867 0.64689
 O402 O 0.74228 0.18573 0.63245
 O403 O 0.74923 0.17145 0.86274
 O404 O 0.69912 0.23544 0.87638
 O405 O 0.86204 0.23558 0.81493
 O406 O 0.87202 0.28824 0.75204
 O407 O 0.81204 0.12438 0.74876
 O408 O 0.74849 0.11680 0.69714
 Zr409 Zr 0.75148 0.15890 0.75148
 O410 O 0.70721 0.19740 0.71537
 Zr411 Zr 0.82760 0.23550 0.75451
 O412 O 0.78932 0.27534 0.71309
 Zr413 Zr 0.75104 0.23279 0.83084
 O414 O 0.71180 0.27693 0.79569
 Zr415 Zr 0.74410 0.23910 0.67607
 O416 O 0.78905 0.19881 0.71063
 Zr417 Zr 0.67113 0.23967 0.75603
 O418 O 0.70903 0.19507 0.79250
 Zr419 Zr 0.74954 0.31484 0.75213
 O420 O 0.78954 0.27662 0.79393
 O421 O 0.79164 0.19348 0.79333
 O422 O 0.70579 0.28037 0.71375
 C423 C 0.74683 0.13214 0.84820
 C424 C 0.85218 0.13719 0.74981
 C425 C 0.84889 0.23480 0.85494
 C426 C 0.74880 0.33671 0.65195
 C427 C 0.64156 0.24649 0.66155
 C428 C 0.65163 0.34001 0.75441
 H429 H 0.68785 0.17845 0.69802
 H430 H 0.69497 0.29536 0.81615
 H431 H 0.81020 0.17415 0.81142
 H432 H 0.80911 0.29251 0.69423
 H433 H 0.81541 0.24349 0.63214
 H434 H 0.86654 0.22031 0.68188
 H435 H 0.62927 0.26232 0.82616
 H436 H 0.68051 0.20957 0.87131
 H437 H 0.71128 0.17868 0.62683
 H438 H 0.77406 0.12354 0.67852
 H439 H 0.73601 0.35566 0.82443
 H440 H 0.76668 0.30452 0.87108
 H441 H 0.67940 0.11780 0.76423
 H442 H 0.62857 0.16811 0.74440
 H443 H 0.86577 0.30686 0.77759
 H444 H 0.81895 0.35713 0.72804
 O445 O 0.23713 0.82966 0.82986
 O446 O 0.29754 0.84023 0.77461
 O447 O 0.12984 0.80338 0.74193
 O448 O 0.11210 0.75439 0.69141
 O449 O 0.15410 0.72014 0.85352
 O450 O 0.21018 0.66055 0.86397
 O451 O 0.24520 0.68259 0.63358
 O452 O 0.19346 0.74422 0.62506
 O453 O 0.34731 0.71891 0.69787
 O454 O 0.35802 0.76409 0.77111
 O455 O 0.28069 0.61128 0.73897
 O456 O 0.21087 0.59991 0.78315
 O457 O 0.22823 0.62527 0.67768
 O458 O 0.17299 0.60757 0.73025
 O459 O 0.33820 0.65575 0.75317
 O460 O 0.35561 0.70650 0.80556
 O461 O 0.30012 0.73829 0.64419
 O462 O 0.25241 0.79221 0.63463
 O463 O 0.22311 0.77032 0.87219
 O464 O 0.25878 0.70442 0.88219
 O465 O 0.11143 0.73669 0.79524
 O466 O 0.10305 0.69550 0.73212
 O467 O 0.18609 0.84841 0.75931
 O468 O 0.25013 0.86328 0.73028
 Zr469 Zr 0.23895 0.80489 0.76533
 O470 O 0.27873 0.76903 0.72193
 Zr471 Zr 0.15483 0.73976 0.74361
 O472 O 0.19153 0.69921 0.70265
 Zr473 Zr 0.21907 0.71877 0.82786
 O474 O 0.26175 0.68010 0.78964
 Zr475 Zr 0.24061 0.73725 0.67486
 O476 O 0.20194 0.77899 0.71321
 Zr477 Zr 0.30886 0.71800 0.75636
 O478 O 0.27101 0.75573 0.80108
 Zr479 Zr 0.22494 0.65191 0.73983
 O480 O 0.18189 0.68795 0.77991
 O481 O 0.18892 0.76932 0.79413
 O482 O 0.27326 0.68754 0.70803
 C483 C 0.23108 0.81107 0.86710
 C484 C 0.14629 0.84136 0.74853
 C485 C 0.11670 0.72774 0.83538
 C486 C 0.23853 0.64180 0.64078
 C487 C 0.33812 0.72856 0.65787
 C488 C 0.32163 0.61818 0.74503
 H489 H 0.30025 0.78877 0.70817
 H490 H 0.27585 0.65785 0.80833
 H491 H 0.17009 0.78808 0.81257
 H492 H 0.17273 0.68585 0.68027
 H493 H 0.17493 0.76959 0.63290
 H494 H 0.11956 0.73505 0.66674
 H495 H 0.33992 0.69219 0.82984
 H496 H 0.28724 0.71864 0.87652
 H497 H 0.23301 0.81588 0.64511
 H498 H 0.26004 0.85454 0.70094
 H499 H 0.23531 0.59746 0.80403
 H500 H 0.18512 0.64511 0.85085
 H501 H 0.31190 0.82795 0.80076
 H502 H 0.36425 0.78104 0.74437
 H503 H 0.10874 0.66924 0.75012
 H504 H 0.15245 0.62119 0.70941
 O505 O 0.22208 0.37386 0.68034
 O506 O 0.17172 0.39249 0.74032
 O507 O 0.33713 0.33862 0.75187
 O508 O 0.35487 0.28782 0.80290
 O509 O 0.29165 0.26074 0.64543
 O510 O 0.23330 0.20376 0.64285
 O511 O 0.23144 0.22738 0.87623
 O512 O 0.27796 0.29200 0.87816
 O513 O 0.11472 0.27336 0.81780
 O514 O 0.10290 0.31977 0.74877
 O515 O 0.16820 0.16044 0.77444
 O516 O 0.23456 0.14333 0.72359
 O517 O 0.23221 0.16800 0.83196
 O518 O 0.27565 0.14479 0.77478
 O519 O 0.11546 0.21268 0.76827
 O520 O 0.10069 0.26460 0.71081
 O521 O 0.16736 0.28049 0.86919
 O522 O 0.21687 0.33375 0.87777
 O523 O 0.22255 0.31457 0.63581
 O524 O 0.18400 0.24959 0.63074
 O525 O 0.34279 0.26818 0.69848
 O526 O 0.35447 0.22832 0.76468
 O527 O 0.28171 0.38667 0.73880
 O528 O 0.22187 0.40545 0.78336
 Zr529 Zr 0.22548 0.34899 0.74398
 O530 O 0.18689 0.31708 0.79076
 Zr531 Zr 0.30594 0.27698 0.75569
 O532 O 0.26947 0.23991 0.80081
 Zr533 Zr 0.23085 0.26213 0.67942
 O534 O 0.18968 0.22693 0.72222
 Zr535 Zr 0.22616 0.28133 0.83405
 O536 O 0.26536 0.31947 0.79171
 Zr537 Zr 0.14999 0.26986 0.75867
 O538 O 0.18598 0.30425 0.71098
 Zr539 Zr 0.22840 0.19500 0.76886
 O540 O 0.27015 0.22764 0.72388
 O541 O 0.26859 0.30941 0.70943
 O542 O 0.18664 0.23508 0.80438
 C543 C 0.22063 0.35584 0.64266
 C544 C 0.32202 0.37732 0.74438
 C545 C 0.33164 0.26264 0.65865
 C546 C 0.23379 0.18602 0.86965
 C547 C 0.12729 0.27669 0.85751
 C548 C 0.12796 0.17337 0.77389
 H549 H 0.16848 0.33845 0.80652
 H550 H 0.17199 0.20607 0.70533
 H551 H 0.28640 0.32626 0.68840
 H552 H 0.29003 0.22516 0.82083
 H553 H 0.29475 0.31736 0.86712
 H554 H 0.34484 0.27429 0.83038
 H555 H 0.10796 0.23926 0.69224
 H556 H 0.15702 0.26498 0.63990
 H557 H 0.22178 0.36073 0.86086
 H558 H 0.24449 0.40232 0.80612
 H559 H 0.20708 0.14175 0.70681
 H560 H 0.25853 0.18667 0.65376
 H561 H 0.15145 0.38055 0.71836
 H562 H 0.10332 0.33937 0.77428
 H563 H 0.34618 0.20322 0.74626
 H564 H 0.30194 0.15816 0.78771
 O565 O 0.76630 0.61920 0.68354
 O566 O 0.81500 0.60794 0.74109
 O567 O 0.65372 0.67389 0.74691
 O568 O 0.63503 0.73090 0.78364
 O569 O 0.70773 0.74281 0.62888
 O570 O 0.76595 0.77044 0.60579
 O571 O 0.77296 0.79619 0.85272
 O572 O 0.72417 0.74007 0.86824
 O573 O 0.88203 0.73934 0.79350
 O574 O 0.89782 0.69615 0.73587
 O575 O 0.81935 0.85176 0.73722
 O576 O 0.76210 0.86238 0.69302
 O577 O 0.76387 0.84770 0.79998
 O578 O 0.70935 0.85571 0.73838
 O579 O 0.87399 0.80123 0.73932
 O580 O 0.88692 0.73679 0.68405
 O581 O 0.83362 0.73734 0.84966
 O582 O 0.77880 0.68620 0.86453
 O583 O 0.76581 0.67074 0.63016
 O584 O 0.82005 0.73513 0.62087
 O585 O 0.65418 0.73625 0.67997
 O586 O 0.64412 0.78527 0.74620
 O587 O 0.70656 0.62170 0.74272
 O588 O 0.77201 0.61217 0.79299
 Zr589 Zr 0.76589 0.65668 0.74051
 O590 O 0.80828 0.69588 0.77760
 Zr591 Zr 0.68848 0.73237 0.74011
 O592 O 0.72583 0.77273 0.78113
 Zr593 Zr 0.76504 0.73155 0.66268
 O594 O 0.80275 0.77614 0.69786
 Zr595 Zr 0.77161 0.73691 0.81816
 O596 O 0.72822 0.69530 0.78319
 Zr597 Zr 0.84379 0.73930 0.73797
 O598 O 0.80774 0.69414 0.70051
 Zr599 Zr 0.76395 0.81293 0.74105
 O600 O 0.72536 0.77407 0.70007
 O601 O 0.72437 0.69155 0.69949
 O602 O 0.80857 0.77928 0.78011
 C603 C 0.76687 0.63083 0.64352
 C604 C 0.66650 0.63405 0.74623
 C605 C 0.66785 0.74335 0.64085
 C606 C 0.76793 0.83584 0.83989
 C607 C 0.87284 0.73833 0.83397
 C608 C 0.85958 0.84083 0.73814
 H609 H 0.82780 0.67658 0.79468
 H610 H 0.81895 0.79525 0.67748
 H611 H 0.70501 0.67334 0.68128
 H612 H 0.70608 0.78952 0.80039
 H613 H 0.70123 0.71877 0.86063
 H614 H 0.64763 0.73280 0.81313
 H615 H 0.88719 0.76598 0.67014
 H616 H 0.83612 0.70712 0.62356
 H617 H 0.75526 0.66493 0.85905
 H618 H 0.74421 0.61275 0.80950
 H619 H 0.74851 0.84912 0.66708
 H620 H 0.76893 0.80107 0.61553
 H621 H 0.83845 0.61830 0.72141
 H622 H 0.88764 0.66805 0.74810
 H623 H 0.64755 0.80377 0.71997
 H624 H 0.69322 0.85354 0.76621
 O625 O 0.25525 0.64592 0.30314
 O626 O 0.21286 0.63312 0.24439
 O627 O 0.37117 0.70401 0.24794
 O628 O 0.38863 0.76450 0.20996
 O629 O 0.31112 0.75951 0.36403
 O630 O 0.25385 0.80165 0.37928
 O631 O 0.25808 0.81861 0.13333
 O632 O 0.30010 0.76151 0.11771
 O633 O 0.14310 0.76671 0.19012
 O634 O 0.12581 0.72276 0.24804
 O635 O 0.20183 0.87851 0.24713
 O636 O 0.25970 0.89339 0.28853
 O637 O 0.25585 0.87277 0.18358
 O638 O 0.31310 0.88150 0.24872
 O639 O 0.14755 0.82838 0.24242
 O640 O 0.13446 0.76469 0.29950
 O641 O 0.19460 0.76247 0.13692
 O642 O 0.26148 0.70789 0.12809
 O643 O 0.24760 0.69627 0.35690
 O644 O 0.19996 0.76447 0.36752
 O645 O 0.36647 0.75936 0.31453
 O646 O 0.37787 0.81498 0.25299
 O647 O 0.32016 0.65023 0.24753
 O648 O 0.25777 0.64113 0.19373
 Zr649 Zr 0.25917 0.68404 0.24754
 O650 O 0.21655 0.72210 0.20922
 Zr651 Zr 0.33471 0.76113 0.25286
 O652 O 0.29887 0.79971 0.20842
 Zr653 Zr 0.25480 0.75848 0.32585
 O654 O 0.21842 0.80328 0.28806
 Zr655 Zr 0.25567 0.76203 0.17040
 O656 O 0.29887 0.72302 0.20788
 Zr657 Zr 0.17917 0.76639 0.24685
 O658 O 0.21460 0.72119 0.28558
 Zr659 Zr 0.25795 0.84010 0.24512
 O660 O 0.29482 0.80234 0.29014
 O661 O 0.29736 0.71907 0.29075
 O662 O 0.21606 0.80515 0.20505
 C663 C 0.24908 0.65652 0.34276
 C664 C 0.36002 0.66385 0.24654
 C665 C 0.35176 0.75970 0.35395
 C666 C 0.25694 0.85888 0.14393
 C667 C 0.15460 0.76494 0.15028
 C668 C 0.16160 0.86805 0.24393
 H669 H 0.19782 0.70253 0.19187
 H670 H 0.20111 0.82250 0.30740
 H671 H 0.31508 0.69963 0.30957
 H672 H 0.31923 0.81663 0.18994
 H673 H 0.32892 0.76921 0.12986
 H674 H 0.37853 0.75220 0.18203
 H675 H 0.13279 0.79433 0.31215
 H676 H 0.18104 0.73889 0.36217
 H677 H 0.23259 0.69358 0.12647
 H678 H 0.28520 0.64556 0.17718
 H679 H 0.25151 0.88157 0.31736
 H680 H 0.26641 0.82942 0.36855
 H681 H 0.18616 0.64425 0.25889
 H682 H 0.13635 0.69503 0.23531
 H683 H 0.37256 0.83123 0.28031
 H684 H 0.32533 0.88468 0.21907
 O685 O 0.73674 0.34309 0.30664
 O686 O 0.77718 0.34846 0.23684
 O687 O 0.61358 0.29225 0.26216
 O688 O 0.59110 0.23463 0.22303
 O689 O 0.67732 0.23326 0.37216
 O690 O 0.74207 0.18524 0.37870
 O691 O 0.71326 0.15529 0.14799
 O692 O 0.65505 0.21347 0.14012
 O693 O 0.82580 0.21957 0.17502
 O694 O 0.84774 0.27266 0.23571
 O695 O 0.77978 0.11308 0.25619
 O696 O 0.72143 0.10912 0.31481
 O697 O 0.71292 0.10888 0.20585
 O698 O 0.67471 0.10074 0.27027
 O699 O 0.83311 0.16185 0.23912
 O700 O 0.85830 0.22201 0.27725
 O701 O 0.76545 0.21982 0.13212
 O702 O 0.70664 0.26107 0.12205
 O703 O 0.73803 0.29341 0.36177
 O704 O 0.78730 0.23551 0.37161
 O705 O 0.61910 0.23740 0.32634
 O706 O 0.59908 0.18267 0.27450
 O707 O 0.66696 0.34284 0.25165
 O708 O 0.72201 0.35201 0.19896
 Zr709 Zr 0.72490 0.30523 0.24961
 O710 O 0.75710 0.26302 0.20557
 Zr711 Zr 0.64634 0.23213 0.26433
 O712 O 0.67623 0.18609 0.22314
 Zr713 Zr 0.73232 0.23345 0.33020
 O714 O 0.76731 0.18972 0.29053
 Zr715 Zr 0.71352 0.21881 0.17624
 O716 O 0.68010 0.26583 0.21490
 Zr717 Zr 0.80048 0.22249 0.23978
 O718 O 0.77083 0.26727 0.28400
 Zr719 Zr 0.72207 0.14970 0.25894
 O720 O 0.68723 0.19105 0.30138
 O721 O 0.68873 0.27347 0.29701
 O722 O 0.75816 0.17938 0.20908
 C723 C 0.74007 0.33262 0.34726
 C724 C 0.62680 0.33159 0.25657
 C725 C 0.63612 0.23588 0.36431
 C726 C 0.71221 0.11666 0.16507
 C727 C 0.80686 0.22046 0.13753
 C728 C 0.81949 0.12318 0.24797
 H729 H 0.77224 0.28138 0.18379
 H730 H 0.78766 0.17285 0.30907
 H731 H 0.67312 0.29414 0.31631
 H732 H 0.65405 0.16719 0.20948
 H733 H 0.63641 0.23866 0.14838
 H734 H 0.59393 0.21079 0.20154
 H735 H 0.84990 0.21320 0.30705
 H736 H 0.80948 0.25361 0.35659
 H737 H 0.71821 0.28976 0.13096
 H738 H 0.69904 0.34212 0.17868
 H739 H 0.75011 0.11183 0.32933
 H740 H 0.71718 0.16478 0.37692
 H741 H 0.80079 0.34085 0.25750
 H742 H 0.84107 0.29040 0.20960
 H743 H 0.61066 0.16286 0.29725
 H744 H 0.64731 0.11043 0.25619
 C745 C 0.29683 0.11422 0.06070
 C746 C 0.27504 0.15100 0.06922
 H747 H 0.32118 0.10290 0.08358
 H748 H 0.25093 0.16299 0.04630
 C749 C 0.78919 0.59979 0.57377
 C750 C 0.76657 0.59596 0.61079
 H751 H 0.80895 0.62878 0.56894
 H752 H 0.74569 0.56801 0.61642
 C753 C 0.76008 0.91477 0.10927
 C754 C 0.76603 0.91879 0.15200
 H755 H 0.76028 0.88195 0.09666
 H756 H 0.76874 0.89604 0.16671
 C757 C 0.24290 0.42068 0.60417
 C758 C 0.21770 0.38524 0.60508
 H759 H 0.26598 0.42554 0.63047
 H760 H 0.19347 0.37933 0.58022
 C761 C 0.72678 0.05753 0.86804
 C762 C 0.74375 0.09631 0.87958
 H763 H 0.71775 0.05312 0.83424
 H764 H 0.75751 0.10185 0.91141
 C765 C 0.26554 0.58223 0.36783
 C766 C 0.24315 0.61987 0.37326
 H767 H 0.28795 0.57987 0.34054
 H768 H 0.21853 0.62327 0.39832
 C769 C 0.24398 0.87940 0.90933
 C770 C 0.23280 0.83696 0.90766
 H771 H 0.25023 0.89520 0.87849
 H772 H 0.22391 0.81941 0.93684
 C773 C 0.73043 0.36216 0.42089
 C774 C 0.74634 0.36728 0.38023
 H775 H 0.71173 0.33290 0.42782
 H776 H 0.76618 0.39522 0.37170
 C777 C 0.10684 0.25617 0.08739
 C778 C 0.14341 0.27957 0.09254
 H779 H 0.09832 0.23357 0.11304
 H780 H 0.15199 0.30477 0.06932
 C781 C 0.60327 0.73309 0.59480
 C782 C 0.63772 0.75638 0.60663
 H783 H 0.59266 0.70550 0.61426
 H784 H 0.64799 0.78360 0.58644
 C785 C 0.07334 0.72877 0.90378
 C786 C 0.07578 0.72829 0.86043
 H787 H 0.10384 0.72662 0.92134
 H788 H 0.04674 0.73360 0.84113
 C789 C 0.57502 0.26935 0.40146
 C790 C 0.60541 0.23779 0.40065
 H791 H 0.57632 0.29465 0.37667
 H792 H 0.60431 0.21036 0.42290
 C793 C 0.92024 0.77223 0.13604
 C794 C 0.91921 0.76850 0.17946
 H795 H 0.88918 0.77714 0.12021
 H796 H 0.94863 0.76173 0.19767
 C797 C 0.40469 0.23851 0.63347
 C798 C 0.36741 0.26092 0.62595
 H799 H 0.40692 0.22088 0.66404
 H800 H 0.36369 0.28083 0.59711
 C801 C 0.86878 0.23779 0.93280
 C802 C 0.88155 0.23451 0.89065
 H803 H 0.83389 0.23767 0.93903
 H804 H 0.91541 0.22941 0.88191
 C805 C 0.37230 0.77386 0.43005
 C806 C 0.38314 0.75818 0.39050
 H807 H 0.34016 0.78835 0.43412
 H808 H 0.41414 0.74196 0.38516
 C809 C 0.12669 0.10358 0.23512
 C810 C 0.16817 0.10743 0.22106
 H811 H 0.10990 0.13364 0.24286
 H812 H 0.18582 0.07876 0.21033
 C813 C 0.63211 0.56747 0.72053
 C814 C 0.63265 0.60036 0.74892
 H815 H 0.65798 0.56553 0.69639
 H816 H 0.60798 0.60296 0.77408
 C817 C 0.92795 0.11301 0.76447
 C818 C 0.88751 0.10372 0.74949
 H819 H 0.93327 0.14629 0.77521
 H820 H 0.88013 0.07250 0.73503
 C821 C 0.43477 0.64295 0.22698
 C822 C 0.39608 0.63189 0.24482
 H823 H 0.43843 0.67554 0.21355
 H824 H 0.39131 0.60030 0.25995
 C825 C 0.07883 0.87446 0.72330
 C826 C 0.11665 0.87895 0.74468
 H827 H 0.07276 0.84336 0.70759
 H828 H 0.12364 0.90770 0.76383
 C829 C 0.59532 0.40317 0.23527
 C830 C 0.59250 0.36507 0.25666
 H831 H 0.62585 0.41251 0.22007
 H832 H 0.56190 0.35599 0.27199
 C833 C 0.90020 0.92936 0.25865
 C834 C 0.89696 0.90670 0.29580
 H835 H 0.87808 0.92145 0.23229
 H836 H 0.91738 0.91396 0.32354
 C837 C 0.39074 0.41641 0.75901
 C838 C 0.35159 0.41446 0.74030
 H839 H 0.40337 0.38846 0.77669
 H840 H 0.33933 0.44262 0.72259
 C841 C 0.10279 0.28527 0.93338
 C842 C 0.09370 0.27372 0.89217
 H843 H 0.13530 0.29806 0.93910
 H844 H 0.06355 0.25753 0.88391
 C845 C 0.61369 0.77841 0.44200
 C846 C 0.61098 0.76357 0.40117
 H847 H 0.64276 0.79605 0.45169
 H848 H 0.58316 0.74464 0.39062
 C849 C 0.91267 0.73161 0.90513
 C850 C 0.91179 0.73843 0.86201
 H851 H 0.88138 0.72914 0.92107
 H852 H 0.94177 0.74551 0.84468
 C853 C 0.41516 0.26641 0.39331
 C854 C 0.41813 0.25670 0.35073
 H855 H 0.38394 0.27680 0.40631
 H856 H 0.44882 0.24566 0.33704
 C857 C 0.08058 0.78522 0.12798
 C858 C 0.11851 0.76452 0.11875
 H859 H 0.07860 0.80407 0.15775
 H860 H 0.12198 0.74402 0.09037
 C861 C 0.56603 0.23252 0.63712
 C862 C 0.60455 0.25332 0.63151
 H863 H 0.56242 0.21135 0.66522
 H864 H 0.60893 0.27690 0.60562
 C865 C 0.87368 0.21244 0.09078
 C866 C 0.83254 0.22624 0.09710
 H867 H 0.88922 0.19444 0.11681
 H868 H 0.81599 0.24375 0.07128
 C869 C 0.36738 0.75486 0.58886
 C870 C 0.37220 0.72863 0.62399
 H871 H 0.33879 0.77583 0.58710
 H872 H 0.39894 0.70558 0.62665
 C873 C 0.25087 0.11572 0.90722
 C874 C 0.24006 0.15846 0.90865
 H875 H 0.25155 0.10065 0.87555
 H876 H 0.23599 0.17492 0.93947
 C877 C 0.75520 0.60050 0.41855
 C878 C 0.73890 0.64100 0.42082
 H879 H 0.76822 0.58826 0.38812
 H880 H 0.72539 0.65274 0.45127
 C881 C 0.73160 0.07360 0.09987
 C882 C 0.71061 0.07737 0.13775
 H883 H 0.74699 0.10201 0.08545
 H884 H 0.69580 0.04856 0.15205
 C885 C 0.21827 0.57653 0.60206
 C886 C 0.24464 0.61101 0.60524
 H887 H 0.19126 0.57341 0.62480
 H888 H 0.27340 0.61437 0.58497
 C889 C 0.73428 0.90056 0.87129
 C890 C 0.76601 0.87037 0.87301
 H891 H 0.71070 0.89857 0.84507
 H892 H 0.79108 0.87147 0.89773
 C893 C 0.25350 0.42261 0.36285
 C894 C 0.27532 0.38457 0.36741
 H895 H 0.23524 0.42797 0.33311
 H896 H 0.29540 0.37818 0.39564
 C897 C 0.27054 0.87879 0.06756
 C898 C 0.25602 0.89048 0.10742
 H899 H 0.28347 0.84607 0.06322
 H900 H 0.24154 0.92231 0.11288
 C901 C 0.76409 0.35998 0.57679
 C902 C 0.74892 0.36985 0.61678
 H903 H 0.77684 0.32738 0.57118
 H904 H 0.73460 0.40154 0.62337
 C905 C 0.08608 0.10791 0.75542
 C906 C 0.09208 0.14275 0.78071
 H907 H 0.11339 0.09827 0.73535
 H908 H 0.06679 0.15331 0.80306
 C909 C 0.59397 0.64515 0.24167
 C910 C 0.62731 0.63984 0.26954
 H911 H 0.59300 0.67491 0.22245
 H912 H 0.62891 0.61155 0.29064
 C913 C 0.13841 0.94395 0.25788
 C914 C 0.12979 0.90427 0.24107
 H915 H 0.16991 0.94929 0.27297
 H916 H 0.09950 0.89828 0.22405
 C917 C 0.62546 0.40897 0.72524
 C918 C 0.61953 0.37554 0.75287
 H919 H 0.65400 0.40859 0.70420
 H920 H 0.59236 0.37487 0.77545
 C921 C 0.88936 0.08632 0.23095
 C922 C 0.85082 0.08741 0.25148
 H923 H 0.89862 0.11341 0.21027
 H924 H 0.84117 0.06067 0.27251
 C925 C 0.39246 0.57832 0.75481
 C926 C 0.35051 0.57963 0.74172
 H927 H 0.40724 0.60765 0.76756
 H928 H 0.33582 0.55064 0.72803
 C929 C 0.92838 0.87242 0.75906
 C930 C 0.89124 0.87619 0.73720
 H931 H 0.93450 0.84318 0.77819
 H932 H 0.88469 0.90472 0.71727
 C933 C 0.43779 0.40433 0.20787
 C934 C 0.40081 0.40758 0.23120
 H935 H 0.44242 0.37589 0.18736
 H936 H 0.39507 0.43503 0.25261
   
