data_POSCAR
  _audit_creation_date              2014-09-24
  _audit_creation_method            'ToBaCCo'
  _symmetry_space_group_name_H-M    'P1'
  _symmetry_Int_Tables_number       1
  _symmetry_cell_setting            triclinic
  loop_
  _symmetry_equiv_pos_as_xyz
 x,y,z
_cell_length_a 49.0224
_cell_length_b 50.2181
_cell_length_c 47.1471
_cell_angle_alpha 88.694600
_cell_angle_beta 90.543100
_cell_angle_gamma 90.706100
loop_
  _atom_site_label
  _atom_site_type_symbol
  _atom_site_fract_x
  _atom_site_fract_y
  _atom_site_fract_z
C1 C 0.18647 0.21020 0.19115
 C2 C 0.18266 0.22410 0.16535
 C3 C 0.20045 0.22064 0.14316
 C4 C 0.22219 0.20282 0.14650
 C5 C 0.22604 0.18935 0.17209
 C6 C 0.20799 0.19305 0.19458
 C7 C 0.17166 0.20901 0.21574
 N8 N 0.18345 0.19131 0.23441
 C9 C 0.20591 0.18163 0.22131
 C10 C 0.24808 0.17304 0.16910
 N11 N 0.25772 0.17580 0.14211
 C12 C 0.24178 0.19413 0.12824
 C13 C 0.19146 0.23655 0.12078
 N14 N 0.16857 0.24923 0.12895
 C15 C 0.16306 0.24165 0.15613
 H16 H 0.15346 0.22036 0.21915
 H17 H 0.21953 0.16662 0.22978
 H18 H 0.25546 0.15923 0.18525
 H19 H 0.24418 0.20107 0.10652
 H20 H 0.20063 0.23849 0.10003
 H21 H 0.14615 0.24865 0.16842
 C22 C -0.19902 0.77214 0.27760
 C23 C -0.20306 0.74964 0.26084
 C24 C -0.22644 0.74737 0.24442
 C25 C -0.24591 0.76757 0.24421
 C26 C -0.24181 0.78981 0.26033
 C27 C -0.21813 0.79215 0.27712
 C28 C -0.17730 0.78076 0.29385
 N29 N -0.18248 0.80575 0.30309
 C30 C -0.20756 0.81270 0.29272
 C31 C -0.26224 0.80740 0.25326
 N32 N -0.27874 0.79658 0.23288
 C33 C -0.26862 0.77198 0.22755
 C34 C -0.22347 0.72564 0.22765
 N35 N -0.19864 0.71471 0.23300
 C36 C -0.18614 0.72920 0.25356
 H37 H -0.15850 0.77003 0.29710
 H38 H -0.21774 0.83132 0.29612
 H39 H -0.26357 0.82725 0.26144
 H40 H -0.27623 0.75822 0.21200
 H41 H -0.23792 0.71918 0.21166
 H42 H -0.16541 0.72648 0.26105
 C43 C -0.18790 0.23090 -0.23832
 C44 C -0.19591 0.25338 -0.22337
 C45 C -0.21614 0.25095 -0.20321
 C46 C -0.22845 0.22608 -0.19739
 C47 C -0.22017 0.20399 -0.21161
 C48 C -0.19983 0.20642 -0.23223
 C49 C -0.16810 0.22687 -0.25832
 N50 N -0.16747 0.20040 -0.26431
 C51 C -0.18695 0.18792 -0.24817
 C52 C -0.23379 0.18232 -0.20005
 N53 N -0.25039 0.19056 -0.17896
 C54 C -0.24711 0.21753 -0.17743
 C55 C -0.21801 0.27506 -0.19026
 N56 N -0.19907 0.29218 -0.20157
 C57 C -0.18564 0.27900 -0.22208
 H58 H -0.15446 0.24209 -0.26679
 H59 H -0.19202 0.16690 -0.24813
 H60 H -0.23151 0.16208 -0.20690
 H61 H -0.25639 0.23020 -0.16210
 H62 H -0.23158 0.27927 -0.17303
 H63 H -0.16837 0.28673 -0.23392
 C64 C 0.21557 0.77253 -0.24625
 C65 C 0.21473 0.75552 -0.22230
 C66 C 0.23545 0.75642 -0.20222
 C67 C 0.25762 0.77402 -0.20623
 C68 C 0.25847 0.79068 -0.22989
 C69 C 0.23722 0.78996 -0.25007
 C70 C 0.19712 0.77745 -0.26778
 N71 N 0.20677 0.79771 -0.28486
 C72 C 0.23160 0.80518 -0.27401
 C73 C 0.28154 0.80639 -0.22747
 N74 N 0.29506 0.79969 -0.20290
 C75 C 0.28022 0.77976 -0.18992
 C76 C 0.22828 0.73908 -0.18039
 N77 N 0.20389 0.72755 -0.18701
 C78 C 0.19549 0.73747 -0.21260
 H79 H 0.17788 0.76698 -0.27013
 H80 H 0.24432 0.82147 -0.28169
 H81 H 0.28772 0.82145 -0.24291
 H82 H 0.28461 0.77044 -0.16953
 H83 H 0.23979 0.73526 -0.16104
 H84 H 0.17634 0.73251 -0.22296
 C85 C 0.20436 1.19187 0.81919
 C86 C 0.22561 1.19414 0.83914
 C87 C 0.22268 1.21023 0.86234
 C88 C 0.19863 1.22463 0.86560
 C89 C 0.17764 1.22207 0.84612
 C90 C 0.18048 1.20552 0.82283
 C91 C 0.20095 1.17664 0.79552
 N92 N 0.17535 1.18046 0.78464
 C93 C 0.16283 1.19828 0.80148
 C94 C 0.15655 1.23742 0.85501
 N95 N 0.16419 1.24979 0.87935
 C96 C 0.19005 1.24183 0.88591
 C97 C 0.24525 1.20656 0.87951
 N98 N 0.26175 1.18873 0.86719
 C99 C 0.25001 1.18119 0.84240
 H100 H 0.21580 1.16284 0.78786
 H101 H 0.14241 1.20584 0.79859
 H102 H 0.13746 1.24000 0.84365
 H103 H 0.20182 1.24750 0.90438
 H104 H 0.24886 1.21532 0.90000
 H105 H 0.25783 1.16610 0.82870
 C106 C 0.75705 0.78580 0.72475
 C107 C 0.73443 0.78197 0.74244
 C108 C 0.73206 0.75900 0.75898
 C109 C 0.75230 0.73952 0.75804
 C110 C 0.77450 0.74330 0.74062
 C111 C 0.77694 0.76668 0.72389
 C112 C 0.76594 0.80724 0.70855
 N113 N 0.79101 0.80188 0.69779
 C114 C 0.79765 0.77685 0.70726
 C115 C 0.79216 0.72275 0.74632
 N116 N 0.78149 0.70642 0.76709
 C117 C 0.75685 0.71678 0.77408
 C118 C 0.70993 0.76202 0.77632
 N119 N 0.69883 0.78632 0.77083
 C120 C 0.71372 0.79856 0.75000
 H121 H 0.75518 0.82583 0.70634
 H122 H 0.81630 0.76648 0.70301
 H123 H 0.81208 0.72118 0.73693
 H124 H 0.74321 0.70922 0.79030
 H125 H 0.70311 0.74786 0.79246
 H126 H 0.71090 0.81878 0.74218
 C127 C 0.22363 0.81110 1.22938
 C128 C 0.24775 0.80349 1.21629
 C129 C 0.24743 0.78271 1.19763
 C130 C 0.22282 0.76929 1.19167
 C131 C 0.19893 0.77707 1.20436
 C132 C 0.19938 0.79815 1.22341
 C133 C 0.21800 0.83114 1.24765
 N134 N 0.19073 0.83089 1.25323
 C135 C 0.17927 0.81067 1.23811
 C136 C 0.17805 0.76192 1.19324
 N137 N 0.18866 0.74508 1.17417
 C138 C 0.21605 0.74944 1.17312
 C139 C 0.27317 0.78134 1.18637
 N140 N 0.28908 0.80102 1.19751
 C141 C 0.27354 0.81448 1.21602
 H142 H 0.23296 0.84526 1.25540
 H143 H 0.15797 0.80485 1.23796
 H144 H 0.15666 0.76326 1.19842
 H145 H 0.22989 0.73955 1.15916
 H146 H 0.27937 0.76758 1.17041
 H147 H 0.27981 0.83221 1.22710
 C148 C 0.77976 1.20871 1.23609
 C149 C 0.76478 1.20715 1.21071
 C150 C 0.76241 1.22932 1.19298
 C151 C 0.77522 1.25335 1.20036
 C152 C 0.79018 1.25482 1.22531
 C153 C 0.79249 1.23227 1.24329
 C154 C 0.78688 1.18984 1.25626
 N155 N 0.80399 1.20111 1.27572
 C156 C 0.80736 1.22726 1.26769
 C157 C 0.80219 1.27972 1.22576
 N158 N 0.79499 1.29342 1.20165
 C159 C 0.77840 1.27735 1.18608
 C160 C 0.74804 1.22156 1.16925
 N161 N 0.74182 1.19519 1.17215
 C162 C 0.75200 1.18626 1.19748
 H163 H 0.78100 1.16906 1.25549
 H164 H 0.81980 1.24190 1.27839
 H165 H 0.81576 1.28698 1.24216
 H166 H 0.77043 1.28212 1.16512
 H167 H 0.74321 1.23398 1.15086
 H168 H 0.75038 1.16599 1.20564
 O169 O 0.54404 0.97202 0.94122
 O170 O 0.49655 0.96775 1.05843
 O171 O 0.55382 0.94384 1.02586
 O172 O 0.48301 0.94386 0.97207
 O173 O 0.54701 0.97244 1.05737
 O174 O 0.49489 0.97203 0.93900
 O175 O 0.47506 0.94495 1.02552
 O176 O 0.55037 0.94374 0.97501
 C177 C 0.54907 0.94860 0.94917
 C178 C 0.48205 0.94803 1.05089
 C179 C 0.55329 0.94930 1.05126
 C180 C 0.48631 0.94914 0.94641
 O181 O 0.49503 1.02189 0.96079
 O182 O 0.54338 1.02148 1.03601
 O183 O 0.57455 0.99265 0.97206
 O184 O 0.46076 0.99484 1.02036
 O185 O 0.49157 1.01826 1.04312
 O186 O 0.54364 1.02132 0.96517
 O187 O 0.46337 0.99332 0.96834
 O188 O 0.57509 0.99455 1.02321
 Co189 Co 0.51944 0.99561 0.95540
 Co190 Co 0.51969 0.99391 1.04383
 Co191 Co 0.55976 0.96990 0.99899
 Co192 Co 0.47515 0.97032 0.99649
 O193 O 0.51823 0.98248 0.99891
 C194 C 0.47036 1.01686 0.96282
 C195 C 0.56788 1.01736 1.03088
 C196 C 0.56821 1.01614 0.96612
 C197 C 0.46730 1.01421 1.03574
 O198 O 0.01431 0.48499 0.03399
 O199 O 0.01991 0.53192 -0.04232
 O200 O -0.02096 0.45878 -0.02891
 O201 O -0.00053 0.56841 0.01577
 O202 O 0.01274 0.48480 -0.03687
 O203 O 0.01976 0.53593 0.03927
 O204 O -0.00429 0.56615 -0.03624
 O205 O -0.01888 0.45837 0.02226
 C206 C 0.00573 0.46193 0.02951
 C207 C 0.01827 0.55645 -0.04204
 C208 C 0.00388 0.46174 -0.03379
 C209 C 0.01871 0.55992 0.03137
 O210 O -0.03160 0.53816 0.05460
 O211 O -0.03779 0.48987 -0.06144
 O212 O -0.06653 0.48554 0.02315
 O213 O -0.05719 0.55314 -0.03199
 O214 O -0.03140 0.53748 -0.06446
 O215 O -0.03568 0.48904 0.05505
 O216 O -0.05309 0.56129 0.02133
 O217 O -0.06691 0.48834 -0.02815
 Co218 Co -0.00950 0.51200 0.04082
 Co219 Co -0.01027 0.51123 -0.04744
 Co220 Co -0.04159 0.47615 -0.00310
 Co221 Co -0.02834 0.55764 -0.00777
 O222 O -0.02234 0.51446 -0.00414
 C223 C -0.04972 0.55464 0.04692
 C224 C -0.06207 0.48699 -0.05382
 C225 C -0.06019 0.48511 0.04861
 C226 C -0.05360 0.54776 -0.05733
 O227 O 1.07224 0.04381 0.47804
 O228 O 0.97784 0.04594 0.52324
 O229 O 0.98834 0.05372 0.47051
 O230 O 1.04544 0.01746 0.56167
 O231 O 0.95708 0.02649 0.47863
 O232 O 1.06808 0.04186 0.53110
 O233 O 0.99732 0.02841 0.55975
 O234 O 1.03444 0.06077 0.46443
 C235 C 1.05959 0.06188 0.46538
 C236 C 0.98397 0.04718 0.54881
 C237 C 0.96399 0.04784 0.46716
 C238 C 1.06077 0.03721 0.55600
 O239 O 1.07145 -0.01019 0.52933
 O240 O 0.97869 -0.01810 0.48870
 O241 O 1.04190 0.01109 0.44434
 O242 O 0.98574 -0.02091 0.53929
 O243 O 0.95058 0.00236 0.52686
 O244 O 1.07002 -0.00696 0.47597
 O245 O 1.03330 -0.02998 0.53720
 O246 O 0.99237 0.00222 0.45014
 Co247 Co 1.06568 0.01708 0.50379
 Co248 Co 0.97984 0.01374 0.50675
 Co249 Co 1.01451 0.03055 0.46095
 Co250 Co 1.01587 0.00040 0.54546
 O251 O 1.02083 0.01649 0.50291
 C252 C 1.05852 -0.03088 0.53619
 C253 C 0.98150 -0.01796 0.46231
 C254 C 1.06123 -0.00463 0.45087
 C255 C 0.96067 -0.01622 0.54311
 C256 C 1.15241 0.16603 0.31402
 C257 C 1.13784 0.18391 0.29654
 C258 C 1.14832 0.19273 0.27048
 C259 C 1.17381 0.18383 0.26082
 C260 C 1.18871 0.16650 0.27907
 C261 C 1.17816 0.15778 0.30518
 C262 C 1.14018 0.15504 0.34057
 N263 N 1.15427 0.13790 0.35774
 N264 N 1.14257 0.12655 0.38043
 C265 C 1.11627 0.13183 0.38696
 N266 N 1.10233 0.14929 0.37004
 N267 N 1.11404 0.16068 0.34737
 C268 C 1.10238 0.11703 0.41042
 C269 C 1.07407 0.11926 0.41417
 C270 C 1.06030 0.10241 0.43338
 C271 C 1.07455 0.08304 0.44936
 C272 C 1.10308 0.08205 0.44703
 C273 C 1.11684 0.09883 0.42775
 H274 H 1.11796 0.19080 0.30272
 H275 H 1.13570 0.20597 0.25789
 H276 H 1.20859 0.15936 0.27353
 H277 H 1.19008 0.14413 0.31822
 H278 H 1.06229 0.13318 0.40133
 H279 H 1.03831 0.10373 0.43474
 H280 H 1.11468 0.06740 0.45909
 H281 H 1.13868 0.09675 0.42564
 C282 C 0.87115 -0.14595 0.35040
 C283 C 0.87463 -0.17362 0.35011
 C284 C 0.85694 -0.18970 0.33426
 C285 C 0.83483 -0.17858 0.31882
 C286 C 0.83125 -0.15076 0.31983
 C287 C 0.84934 -0.13472 0.33509
 C288 C 0.89018 -0.12867 0.36637
 N289 N 0.89417 -0.10289 0.35801
 N290 N 0.91087 -0.08702 0.37252
 C291 C 0.92413 -0.09619 0.39612
 N292 N 0.92016 -0.12200 0.40453
 N293 N 0.90364 -0.13799 0.38983
 C294 C 0.94155 -0.07792 0.41277
 C295 C 0.94555 -0.08217 0.44208
 C296 C 0.95941 -0.06312 0.45821
 C297 C 0.96991 -0.03975 0.44521
 C298 C 0.96716 -0.03628 0.41567
 C299 C 0.95294 -0.05504 0.39968
 H300 H 0.89128 -0.18281 0.36181
 H301 H 0.86036 -0.21092 0.33487
 H302 H 0.81511 -0.14093 0.30805
 H303 H 0.84611 -0.11342 0.33501
 H304 H 0.93696 -0.09962 0.45273
 H305 H 0.96126 -0.06633 0.48094
 H306 H 0.97505 -0.01852 0.40499
 H307 H 0.95041 -0.05137 0.37709
 C308 C 0.88503 0.16286 0.67919
 C309 C 0.88088 0.19042 0.67692
 C310 C 0.86381 0.20308 0.69598
 C311 C 0.84980 0.18831 0.71730
 C312 C 0.85403 0.16056 0.71911
 C313 C 0.87157 0.14816 0.70058
 C314 C 0.90319 0.14910 0.65954
 N315 N 0.91560 0.12625 0.66808
 N316 N 0.93095 0.11290 0.65030
 C317 C 0.93441 0.12169 0.62311
 N318 N 0.92211 0.14465 0.61452
 N319 N 0.90691 0.15819 0.63245
 C320 C 0.95000 0.10544 0.60320
 C321 C 0.94541 0.10732 0.57372
 C322 C 0.95742 0.08914 0.55560
 C323 C 0.97439 0.06898 0.56667
 C324 C 0.98021 0.06825 0.59591
 C325 C 0.96811 0.08617 0.61394
 H326 H 0.89106 0.20223 0.66058
 H327 H 0.86102 0.22430 0.69326
 H328 H 0.84455 0.14823 0.73540
 H329 H 0.87435 0.12685 0.70284
 H330 H 0.93154 0.12197 0.56483
 H331 H 0.95259 0.09020 0.53314
 H332 H 0.99325 0.05306 0.60515
 H333 H 0.97234 0.08440 0.63649
 C334 C 1.16426 -0.16328 0.64826
 C335 C 1.15132 -0.18305 0.66497
 C336 C 1.16555 -0.19652 0.68662
 C337 C 1.19327 -0.19049 0.69250
 C338 C 1.20636 -0.17128 0.67478
 C339 C 1.19208 -0.15795 0.65305
 C340 C 1.14854 -0.14735 0.62702
 N341 N 1.16121 -0.12872 0.61029
 N342 N 1.14689 -0.11301 0.59274
 C343 C 1.11928 -0.11521 0.59113
 N344 N 1.10662 -0.13411 0.60754
 N345 N 1.12095 -0.14986 0.62508
 C346 C 1.10327 -0.09589 0.57371
 C347 C 1.07458 -0.09593 0.57465
 C348 C 1.05977 -0.07552 0.56119
 C349 C 1.07338 -0.05468 0.54658
 C350 C 1.10191 -0.05551 0.54425
 C351 C 1.11667 -0.07588 0.55762
 H352 H 1.12992 -0.18779 0.66176
 H353 H 1.15412 -0.21091 0.69917
 H354 H 1.22769 -0.16625 0.67739
 H355 H 1.20281 -0.14300 0.64039
 H356 H 1.06358 -0.11113 0.58670
 H357 H 1.03779 -0.07545 0.56329
 H358 H 1.11296 -0.03986 0.53290
 H359 H 1.13870 -0.07534 0.55617
 C360 C 0.32191 1.13196 1.10793
 C361 C 0.31922 1.13412 1.13737
 C362 C 0.29796 1.14865 1.14871
 C363 C 0.27896 1.16198 1.13090
 C364 C 0.28229 1.16027 1.10126
 C365 C 0.30325 1.14519 1.08999
 C366 C 0.34390 1.11566 1.09615
 N367 N 0.34130 1.10497 1.07003
 N368 N 0.36077 1.08961 1.05989
 C369 C 0.38373 1.08452 1.07536
 N370 N 0.38640 1.09541 1.10136
 N371 N 0.36685 1.11056 1.11159
 C372 C 0.40520 1.06707 1.06448
 C373 C 0.43201 1.06889 1.07509
 C374 C 0.45220 1.05199 1.06545
 C375 C 0.44595 1.03255 1.04532
 C376 C 0.41907 1.03065 1.03482
 C377 C 0.39899 1.04796 1.04400
 H378 H 0.33335 1.12418 1.15176
 H379 H 0.29702 1.14980 1.17153
 H380 H 0.26820 1.16965 1.08650
 H381 H 0.30489 1.14394 1.06716
 H382 H 0.43743 1.08348 1.09081
 H383 H 0.47266 1.05396 1.07407
 H384 H 0.41349 1.01566 1.01963
 H385 H 0.37846 1.04594 1.03559
 C386 C 0.36593 0.83669 0.83033
 C387 C 0.35286 0.84731 0.80607
 C388 C 0.32969 0.83483 0.79469
 C389 C 0.31865 0.81132 0.80735
 C390 C 0.33251 0.80041 0.83125
 C391 C 0.35570 0.81287 0.84248
 C392 C 0.38916 0.85099 0.84383
 N393 N 0.40125 0.84085 0.86768
 N394 N 0.42058 0.85457 0.88121
 C395 C 0.42875 0.87903 0.87148
 N396 N 0.41704 0.88898 0.84731
 N397 N 0.39768 0.87524 0.83376
 C398 C 0.44784 0.89551 0.88853
 C399 C 0.45557 0.92134 0.87928
 C400 C 0.46987 0.93835 0.89745
 C401 C 0.47645 0.92991 0.92525
 C402 C 0.47050 0.90350 0.93374
 C403 C 0.45646 0.88647 0.91556
 H404 H 0.36021 0.86564 0.79611
 H405 H 0.32019 0.84441 0.77649
 H406 H 0.32582 0.78209 0.84155
 H407 H 0.36537 0.80395 0.86107
 H408 H 0.44953 0.92886 0.85848
 H409 H 0.47432 0.95857 0.89030
 H410 H 0.47565 0.89633 0.95494
 H411 H 0.45118 0.86663 0.92332
 C412 C 0.65849 0.83591 1.18714
 C413 C 0.67054 0.84755 1.21104
 C414 C 0.69085 0.83430 1.22666
 C415 C 0.69990 0.80887 1.21884
 C416 C 0.68669 0.79690 1.19546
 C417 C 0.66647 0.81024 1.17989
 C418 C 0.63873 0.85087 1.16905
 N419 N 0.62978 0.84086 1.14406
 N420 N 0.61352 0.85499 1.12683
 C421 C 0.60543 0.87973 1.13387
 N422 N 0.61406 0.88960 1.15906
 N423 N 0.63037 0.87548 1.17627
 C424 C 0.58921 0.89632 1.11363
 C425 C 0.58001 0.92154 1.12132
 C426 C 0.56727 0.93832 1.10133
 C427 C 0.56359 0.93032 1.07317
 C428 C 0.57163 0.90465 1.06579
 C429 C 0.58425 0.88781 1.08581
 H430 H 0.66469 0.86724 1.21744
 H431 H 0.69936 0.84442 1.24470
 H432 H 0.69214 0.77746 1.18827
 H433 H 0.65745 0.80052 1.16173
 H434 H 0.58328 0.92865 1.14261
 H435 H 0.56113 0.95793 1.10770
 H436 H 0.56891 0.89786 1.04430
 H437 H 0.59092 0.86847 1.07917
 C438 C 0.69948 1.14156 0.87311
 C439 C 0.69638 1.16931 0.87245
 C440 C 0.71310 1.18561 0.85536
 C441 C 0.73328 1.17461 0.83806
 C442 C 0.73615 1.14664 0.83890
 C443 C 0.71965 1.13046 0.85626
 C444 C 0.68144 1.12416 0.89073
 N445 N 0.68746 1.09808 0.89535
 N446 N 0.67074 1.08210 0.91017
 C447 C 0.64724 1.09148 0.92098
 N448 N 0.64132 1.11763 0.91658
 N449 N 0.65811 1.13365 0.90185
 C450 C 0.62774 1.07315 0.93559
 C451 C 0.60079 1.08098 0.94054
 C452 C 0.58160 1.06268 0.95137
 C453 C 0.58903 1.03625 0.95765
 C454 C 0.61629 1.02882 0.95418
 C455 C 0.63541 1.04703 0.94315
 H456 H 0.68097 1.17851 0.88516
 H457 H 0.70944 1.20677 0.85534
 H458 H 0.75152 1.13690 0.82675
 H459 H 0.72259 1.10913 0.85624
 H460 H 0.59422 1.10097 0.93509
 H461 H 0.56078 1.06904 0.95410
 H462 H 0.62267 1.00865 0.95909
 H463 H 0.65607 1.04042 0.93992
 C464 C 0.12166 0.30732 0.08371
 C465 C 0.10885 0.28714 0.10010
 C466 C 0.12426 0.26778 0.11436
 C467 C 0.15278 0.26785 0.11222
 C468 C 0.16562 0.28726 0.09489
 C469 C 0.15021 0.30699 0.08094
 C470 C 0.10530 0.32928 0.07107
 N471 N 0.11725 0.35277 0.06294
 N472 N 0.10216 0.37322 0.05384
 C473 C 0.07452 0.37098 0.05237
 N474 N 0.06268 0.34734 0.05999
 N475 N 0.07772 0.32697 0.06920
 C476 C 0.05742 0.39421 0.04451
 C477 C 0.02925 0.39082 0.03979
 C478 C 0.01259 0.41280 0.03474
 C479 C 0.02366 0.43873 0.03439
 C480 C 0.05191 0.44217 0.03841
 C481 C 0.06865 0.42012 0.04329
 H482 H 0.08692 0.28678 0.10271
 H483 H 0.11391 0.25285 0.12738
 H484 H 0.18761 0.28776 0.09306
 H485 H 0.16067 0.32219 0.06837
 H486 H 0.01994 0.37115 0.04033
 H487 H -0.00906 0.40947 0.03141
 H488 H 0.06107 0.46190 0.03787
 H489 H 0.09027 0.42344 0.04678
 C490 C -0.17407 0.36723 -0.16812
 C491 C -0.16715 0.36051 -0.19591
 C492 C -0.17615 0.33639 -0.20729
 C493 C -0.19203 0.31827 -0.19104
 C494 C -0.19969 0.32557 -0.16360
 C495 C -0.19097 0.34974 -0.15240
 C496 C -0.16213 0.39116 -0.15465
 N497 N -0.17036 0.39838 -0.12852
 N498 N -0.15770 0.41798 -0.11491
 C499 C -0.13623 0.43126 -0.12682
 N500 N -0.12841 0.42448 -0.15326
 N501 N -0.14112 0.40488 -0.16690
 C502 C -0.11974 0.45027 -0.10993
 C503 C -0.09498 0.46072 -0.12044
 C504 C -0.07695 0.47437 -0.10263
 C505 C -0.08332 0.47788 -0.07397
 C506 C -0.10904 0.46949 -0.06412
 C507 C -0.12706 0.45581 -0.08191
 H508 H -0.15434 0.37365 -0.20870
 H509 H -0.17028 0.33185 -0.22867
 H510 H -0.21157 0.31229 -0.15012
 H511 H -0.19665 0.35418 -0.13089
 H512 H -0.08881 0.45711 -0.14199
 H513 H -0.05739 0.48092 -0.11091
 H514 H -0.11464 0.47213 -0.04220
 H515 H -0.14611 0.44837 -0.07319
 C516 C 0.15648 0.67357 -0.13637
 C517 C 0.15960 0.66951 -0.16555
 C518 C 0.17535 0.68714 -0.18206
 C519 C 0.18878 0.70882 -0.16964
 C520 C 0.18636 0.71253 -0.14035
 C521 C 0.17006 0.69522 -0.12389
 C522 C 0.13847 0.65565 -0.11944
 N523 N 0.12616 0.66426 -0.09569
 N524 N 0.10875 0.64849 -0.08141
 C525 C 0.10320 0.62339 -0.09018
 N526 N 0.11580 0.61471 -0.11371
 N527 N 0.13299 0.63054 -0.12810
 C528 C 0.08288 0.60616 -0.07542
 C529 C 0.08296 0.57849 -0.07913
 C530 C 0.06251 0.56227 -0.06734
 C531 C 0.04124 0.57342 -0.05198
 C532 C 0.04153 0.60099 -0.04749
 C533 C 0.06231 0.61720 -0.05892
 H534 H 0.14929 0.65307 -0.17579
 H535 H 0.17709 0.68388 -0.20459
 H536 H 0.19641 0.72927 -0.13042
 H537 H 0.16808 0.69876 -0.10143
 H538 H 0.09866 0.56937 -0.09154
 H539 H 0.06286 0.54108 -0.07108
 H540 H 0.02547 0.61004 -0.03555
 H541 H 0.06171 0.63846 -0.05570
 C542 C -0.15972 0.65646 0.18306
 C543 C -0.15135 0.66042 0.21129
 C544 C -0.16449 0.67905 0.22794
 C545 C -0.18622 0.69415 0.21671
 C546 C -0.19485 0.68967 0.18867
 C547 C -0.18187 0.67107 0.17216
 C548 C -0.14491 0.63824 0.16442
 N549 N -0.15320 0.63521 0.13713
 N550 N -0.13925 0.62021 0.11963
 C551 C -0.11635 0.60751 0.12860
 N552 N -0.10818 0.61020 0.15604
 N553 N -0.12217 0.62528 0.17360
 C554 C -0.10005 0.59235 0.10827
 C555 C -0.07728 0.57749 0.11725
 C556 C -0.06119 0.56461 0.09746
 C557 C -0.06743 0.56661 0.06833
 C558 C -0.09053 0.58096 0.05951
 C559 C -0.10667 0.59356 0.07920
 H560 H -0.13442 0.64942 0.22040
 H561 H -0.15752 0.68174 0.24954
 H562 H -0.21110 0.70114 0.17897
 H563 H -0.18888 0.66865 0.15051
 H564 H -0.07169 0.57607 0.13950
 H565 H -0.04354 0.55362 0.10490
 H566 H -0.09606 0.58271 0.03725
 H567 H -0.12406 0.60475 0.07146
 C568 C 1.14050 0.14128 0.71481
 C569 C 1.16888 0.14187 0.71890
 C570 C 1.18048 0.15483 0.74207
 C571 C 1.16402 0.16803 0.76163
 C572 C 1.13551 0.16776 0.75694
 C573 C 1.12396 0.15436 0.73405
 C574 C 1.12819 0.12679 0.69084
 N575 N 1.10171 0.11855 0.69163
 N576 N 1.09076 0.10502 0.67029
 C577 C 1.10580 0.09935 0.64719
 N578 N 1.13223 0.10774 0.64632
 N579 N 1.14323 0.12110 0.66775
 C580 C 1.09381 0.08399 0.62368
 C581 C 1.10574 0.08509 0.59670
 C582 C 1.09474 0.07021 0.57459
 C583 C 1.07188 0.05357 0.57915
 C584 C 1.05993 0.05248 0.60611
 C585 C 1.07063 0.06774 0.62810
 H586 H 1.18217 0.13198 0.70437
 H587 H 1.20245 0.15487 0.74406
 H588 H 1.12173 0.17702 0.77137
 H589 H 1.10199 0.15429 0.73140
 H590 H 1.12352 0.09754 0.59262
 H591 H 1.10440 0.07143 0.55402
 H592 H 1.04230 0.03982 0.61022
 H593 H 1.06106 0.06641 0.64870
 C594 C 0.84066 -0.14481 0.64996
 C595 C 0.85099 -0.16913 0.66030
 C596 C 0.83450 -0.18697 0.67578
 C597 C 0.80703 -0.18102 0.68167
 C598 C 0.79675 -0.15664 0.67073
 C599 C 0.81329 -0.13890 0.65517
 C600 C 0.85841 -0.12564 0.63411
 N601 N 0.84820 -0.10259 0.62302
 N602 N 0.86422 -0.08527 0.60903
 C603 C 0.89115 -0.09022 0.60558
 N604 N 0.90135 -0.11328 0.61666
 N605 N 0.88533 -0.13061 0.63062
 C606 C 0.90902 -0.07096 0.58999
 C607 C 0.93716 -0.07555 0.58778
 C608 C 0.95395 -0.05760 0.57281
 C609 C 0.94298 -0.03473 0.55962
 C610 C 0.91495 -0.02995 0.56200
 C611 C 0.89814 -0.04787 0.57705
 H612 H 0.87199 -0.17440 0.65662
 H613 H 0.84389 -0.20506 0.68355
 H614 H 0.77582 -0.15100 0.67371
 H615 H 0.80456 -0.12041 0.64733
 H616 H 0.94626 -0.09306 0.59755
 H617 H 0.97552 -0.06177 0.57136
 H618 H 0.90597 -0.01242 0.55214
 H619 H 0.87659 -0.04367 0.57835
 C620 C 1.15042 -0.11779 0.30819
 C621 C 1.13542 -0.13362 0.28933
 C622 C 1.14870 -0.15071 0.27107
 C623 C 1.17749 -0.15221 0.27090
 C624 C 1.19230 -0.13587 0.28974
 C625 C 1.17898 -0.11909 0.30809
 C626 C 1.13664 -0.10041 0.32842
 N627 N 1.15084 -0.09000 0.35048
 N628 N 1.13865 -0.07472 0.36909
 C629 C 1.11174 -0.06906 0.36643
 N630 N 1.09748 -0.07931 0.34427
 N631 N 1.10968 -0.09474 0.32567
 C632 C 1.09842 -0.05245 0.38769
 C633 C 1.07279 -0.04097 0.38235
 C634 C 1.06065 -0.02514 0.40270
 C635 C 1.07379 -0.02087 0.42887
 C636 C 1.09928 -0.03250 0.43418
 C637 C 1.11150 -0.04795 0.41381
 H638 H 1.11334 -0.13305 0.28888
 H639 H 1.13615 -0.16225 0.25684
 H640 H 1.21427 -0.13636 0.29124
 H641 H 1.19121 -0.10715 0.32236
 H642 H 1.06223 -0.04404 0.36239
 H643 H 1.04091 -0.01650 0.39812
 H644 H 1.10996 -0.02952 0.45410
 H645 H 1.13118 -0.05658 0.41870
 C646 C 0.84479 0.15984 0.34217
 C647 C 0.85230 0.18612 0.33475
 C648 C 0.83837 0.20010 0.31323
 C649 C 0.81659 0.18810 0.29817
 C650 C 0.80864 0.16194 0.30651
 C651 C 0.82250 0.14810 0.32814
 C652 C 0.86081 0.14437 0.36354
 N653 N 0.85277 0.11944 0.37190
 N654 N 0.86794 0.10501 0.38994
 C655 C 0.89185 0.11488 0.40034
 N656 N 0.89974 0.13990 0.39220
 N657 N 0.88455 0.15435 0.37422
 C658 C 0.90960 0.09828 0.41903
 C659 C 0.93617 0.10700 0.42587
 C660 C 0.95362 0.09073 0.44190
 C661 C 0.94484 0.06546 0.45167
 C662 C 0.91810 0.05694 0.44554
 C663 C 0.90066 0.07316 0.42930
 H664 H 0.86931 0.19586 0.34524
 H665 H 0.84565 0.21996 0.30799
 H666 H 0.79158 0.15186 0.29664
 H667 H 0.81596 0.12795 0.33350
 H668 H 0.94376 0.12619 0.41832
 H669 H 0.97415 0.09780 0.44635
 H670 H 0.91086 0.03751 0.45281
 H671 H 0.88030 0.06586 0.42450
 C672 C 0.11760 0.30667 -0.07920
 C673 C 0.14568 0.30470 -0.07369
 C674 C 0.16109 0.28522 -0.08669
 C675 C 0.14888 0.26758 -0.10614
 C676 C 0.12049 0.26934 -0.11088
 C677 C 0.10511 0.28843 -0.09746
 C678 C 0.10147 0.32839 -0.06734
 N679 N 0.07381 0.32683 -0.06737
 N680 N 0.05904 0.34721 -0.05902
 C681 C 0.07126 0.37008 -0.05040
 N682 N 0.09895 0.37153 -0.04993
 N683 N 0.11377 0.35105 -0.05816
 C684 C 0.05454 0.39344 -0.04382
 C685 C 0.06636 0.41903 -0.04216
 C686 C 0.04997 0.44134 -0.03888
 C687 C 0.02152 0.43841 -0.03696
 C688 C 0.00984 0.41276 -0.03766
 C689 C 0.02614 0.39056 -0.04109
 H690 H 0.15585 0.31846 -0.05960
 H691 H 0.18277 0.28504 -0.08239
 H692 H 0.10978 0.25581 -0.12470
 H693 H 0.08346 0.28933 -0.10207
 H694 H 0.08819 0.42191 -0.04414
 H695 H 0.05952 0.46087 -0.03798
 H696 H -0.01201 0.40985 -0.03585
 H697 H 0.01639 0.37113 -0.04201
 C698 C -0.17181 0.36729 0.17041
 C699 C -0.19790 0.35866 0.16172
 C700 C -0.20918 0.33494 0.17271
 C701 C -0.19460 0.31921 0.19255
 C702 C -0.16901 0.32844 0.20213
 C703 C -0.15779 0.35222 0.19124
 C704 C -0.15841 0.39059 0.15626
 N705 N -0.13343 0.39927 0.16499
 N706 N -0.12011 0.41834 0.15051
 C707 C -0.13119 0.42957 0.12664
 N708 N -0.15643 0.42130 0.11826
 N709 N -0.16977 0.40225 0.13278
 C710 C -0.11484 0.44810 0.10847
 C711 C -0.12417 0.45551 0.08115
 C712 C -0.10691 0.46903 0.06216
 C713 C -0.07999 0.47554 0.07012
 C714 C -0.07136 0.46999 0.09811
 C715 C -0.08858 0.45635 0.11707
 H716 H -0.20939 0.36988 0.14590
 H717 H -0.22917 0.32871 0.16531
 H718 H -0.15705 0.31680 0.21715
 H719 H -0.13764 0.35823 0.19842
 H720 H -0.14435 0.44968 0.07388
 H721 H -0.11422 0.47325 0.04079
 H722 H -0.05080 0.47495 0.10494
 H723 H -0.08084 0.45126 0.13806
 C724 C -0.17732 0.64375 -0.19019
 C725 C -0.20300 0.65190 -0.18108
 C726 C -0.21709 0.67204 -0.19570
 C727 C -0.20584 0.68496 -0.21995
 C728 C -0.18059 0.67559 -0.22976
 C729 C -0.16660 0.65539 -0.21508
 C730 C -0.16116 0.62449 -0.17285
 N731 N -0.13617 0.61661 -0.18138
 N732 N -0.12072 0.60113 -0.16463
 C733 C -0.12959 0.59289 -0.13862
 N734 N -0.15477 0.60039 -0.13033
 N735 N -0.17021 0.61582 -0.14708
 C736 C -0.11137 0.57812 -0.11869
 C737 C -0.11853 0.57479 -0.09002
 C738 C -0.10006 0.56403 -0.07033
 C739 C -0.07407 0.55613 -0.07886
 C740 C -0.06743 0.55792 -0.10776
 C741 C -0.08585 0.56897 -0.12748
 H742 H -0.21205 0.64318 -0.16211
 H743 H -0.23638 0.67777 -0.18705
 H744 H -0.17114 0.68379 -0.24865
 H745 H -0.14698 0.64936 -0.22295
 H746 H -0.13804 0.58144 -0.08249
 H747 H -0.10588 0.56256 -0.04824
 H748 H -0.04760 0.55179 -0.11496
 H749 H -0.07979 0.57102 -0.14945
 C750 C 0.14300 0.69036 0.12408
 C751 C 0.16942 0.68405 0.13374
 C752 C 0.18450 0.70210 0.14995
 C753 C 0.17334 0.72664 0.15715
 C754 C 0.14698 0.73296 0.14747
 C755 C 0.13204 0.71510 0.13098
 C756 C 0.12668 0.67112 0.10740
 N757 N 0.10364 0.67896 0.09353
 N758 N 0.08837 0.66154 0.07937
 C759 C 0.09544 0.63550 0.07853
 N760 N 0.11859 0.62768 0.09225
 N761 N 0.13394 0.64514 0.10631
 C762 C 0.07744 0.61592 0.06425
 C763 C 0.08073 0.58843 0.06919
 C764 C 0.06212 0.57012 0.05785
 C765 C 0.03995 0.57891 0.04115
 C766 C 0.03738 0.60633 0.03518
 C767 C 0.05585 0.62462 0.04668
 H768 H 0.17846 0.66518 0.12876
 H769 H 0.20471 0.69669 0.15731
 H770 H 0.13803 0.75188 0.15240
 H771 H 0.11174 0.72057 0.12394
 H772 H 0.09718 0.58106 0.08257
 H773 H 0.06475 0.54913 0.06273
 H774 H 0.02062 0.61377 0.02227
 H775 H 0.05288 0.64563 0.04221
 C776 C 0.32960 1.14809 0.90334
 C777 C 0.33008 1.15695 0.87486
 C778 C 0.30806 1.17091 0.86316
 C779 C 0.28549 1.17677 0.87988
 C780 C 0.28554 1.16900 0.90866
 C781 C 0.30728 1.15453 0.92023
 C782 C 0.35139 1.13077 0.91479
 N783 N 0.34615 1.11303 0.93628
 N784 N 0.36516 1.09604 0.94530
 C785 C 0.39026 1.09628 0.93334
 N786 N 0.39564 1.11430 0.91215
 N787 N 0.37654 1.13112 0.90295
 C788 C 0.41084 1.07649 0.94218
 C789 C 0.43873 1.08180 0.93804
 C790 C 0.45811 1.06258 0.94523
 C791 C 0.44994 1.03749 0.95614
 C792 C 0.42205 1.03220 0.96026
 C793 C 0.40271 1.05164 0.95372
 H794 H 0.34697 1.15216 0.86132
 H795 H 0.30839 1.17681 0.84093
 H796 H 0.26819 1.17309 0.92185
 H797 H 0.30644 1.14803 0.94227
 H798 H 0.44555 1.10082 0.92926
 H799 H 0.47948 1.06723 0.94180
 H800 H 0.41515 1.01296 0.96838
 H801 H 0.38132 1.04694 0.95692
 C802 C 0.36595 0.83009 1.16738
 C803 C 0.35703 0.83646 1.19458
 C804 C 0.33253 0.82583 1.20507
 C805 C 0.31616 0.80889 1.18844
 C806 C 0.32592 0.80146 1.16183
 C807 C 0.35055 0.81181 1.15152
 C808 C 0.38967 0.84411 1.15442
 N809 N 0.39973 0.83601 1.12938
 N810 N 0.41870 0.85036 1.11578
 C811 C 0.42845 0.87349 1.12657
 N812 N 0.41893 0.88127 1.15202
 N813 N 0.39995 0.86685 1.16568
 C814 C 0.44645 0.89118 1.10921
 C815 C 0.45485 0.91639 1.11875
 C816 C 0.46798 0.93460 1.10031
 C817 C 0.47258 0.92794 1.07201
 C818 C 0.46579 0.90220 1.06310
 C819 C 0.45304 0.88400 1.08150
 H820 H 0.36861 0.85022 1.20748
 H821 H 0.32616 0.83146 1.22597
 H822 H 0.31403 0.78865 1.14823
 H823 H 0.35680 0.80644 1.13046
 H824 H 0.45025 0.92249 1.14004
 H825 H 0.47316 0.95430 1.10771
 H826 H 0.46952 0.89639 1.04150
 H827 H 0.44721 0.86471 1.07345
 C828 C 0.69725 1.14704 1.11409
 C829 C 0.71906 1.13640 1.13006
 C830 C 0.73386 1.15229 1.14880
 C831 C 0.72738 1.17923 1.15182
 C832 C 0.70618 1.19014 1.13521
 C833 C 0.69116 1.17417 1.11664
 C834 C 0.68006 1.12955 1.09619
 N835 N 0.65556 1.13796 1.08599
 N836 N 0.63909 1.12152 1.07188
 C837 C 0.64648 1.09602 1.06723
 N838 N 0.67122 1.08777 1.07694
 N839 N 0.68764 1.10418 1.09114
 C840 C 0.62703 1.07694 1.05425
 C841 C 0.63543 1.05131 1.04698
 C842 C 0.61636 1.03222 1.03816
 C843 C 0.58848 1.03830 1.03674
 C844 C 0.58028 1.06430 1.04255
 C845 C 0.59935 1.08344 1.05109
 H846 H 0.72433 1.11560 1.12862
 H847 H 0.75038 1.14348 1.16101
 H848 H 0.70070 1.21082 1.13723
 H849 H 0.67453 1.18301 1.10461
 H850 H 0.65665 1.04575 1.04889
 H851 H 0.62332 1.01242 1.03351
 H852 H 0.55896 1.06967 1.04125
 H853 H 0.59218 1.10301 1.05634
 C854 C 0.63842 0.82543 0.81894
 C855 C 0.65312 0.80402 0.83088
 C856 C 0.67234 0.79072 0.81491
 C857 C 0.67728 0.79843 0.78654
 C858 C 0.66180 0.81916 0.77428
 C859 C 0.64263 0.83253 0.79029
 C860 C 0.62015 0.84124 0.83678
 N861 N 0.60865 0.86400 0.82645
 N862 N 0.59407 0.87931 0.84317
 C863 C 0.59032 0.87251 0.87093
 N864 N 0.60142 0.84951 0.88111
 N865 N 0.61601 0.83422 0.86441
 C866 C 0.57645 0.89077 0.89029
 C867 C 0.57400 0.88413 0.91930
 C868 C 0.56407 0.90257 0.93825
 C869 C 0.55635 0.92809 0.92864
 C870 C 0.55734 0.93427 0.89945
 C871 C 0.56730 0.91580 0.88047
 H872 H 0.65043 0.79799 0.85288
 H873 H 0.68402 0.77509 0.82521
 H874 H 0.66471 0.82528 0.75235
 H875 H 0.63151 0.84878 0.78032
 H876 H 0.58061 0.86496 0.92760
 H877 H 0.56328 0.89712 0.96059
 H878 H 0.55126 0.95370 0.89140
 H879 H 0.56868 0.92152 0.85824
   
