data_POSCAR
  _audit_creation_date              2014-09-24
  _audit_creation_method            'ToBaCCo'
  _symmetry_space_group_name_H-M    'P1'
  _symmetry_Int_Tables_number       1
  _symmetry_cell_setting            triclinic
  loop_
  _symmetry_equiv_pos_as_xyz
 x,y,z
_cell_length_a 39.7562
_cell_length_b 34.7564
_cell_length_c 35.5330
_cell_angle_alpha 92.103900
_cell_angle_beta 89.403600
_cell_angle_gamma 91.502400
loop_
  _atom_site_label
  _atom_site_type_symbol
  _atom_site_fract_x
  _atom_site_fract_y
  _atom_site_fract_z
C1 C 0.16768 1.21315 0.22083
 C2 C 0.15034 1.24446 0.20740
 C3 C 0.16345 1.26626 0.17745
 C4 C 0.19509 1.25605 0.16206
 C5 C 0.21262 1.22479 0.17524
 C6 C 0.19876 1.20315 0.20460
 C7 C 0.15379 1.19116 0.24975
 C8 C 0.17026 1.15875 0.26300
 C9 C 0.20165 1.14937 0.24635
 C10 C 0.21578 1.17119 0.21739
 C11 C 0.24640 1.16082 0.20040
 C12 C 0.26040 1.18185 0.17066
 C13 C 0.24351 1.21439 0.15883
 H14 H 0.12615 1.25032 0.22001
 H15 H 0.20621 1.27206 0.13924
 H16 H 0.12972 1.19945 0.26164
 H17 H 0.21543 1.12490 0.25486
 H18 H 0.25899 1.13569 0.20989
 H19 H 0.25416 1.23183 0.13687
 C20 C 0.81626 0.77446 0.20033
 C21 C 0.83216 0.74364 0.18140
 C22 C 0.81997 0.72789 0.14669
 C23 C 0.79082 0.74398 0.13176
 C24 C 0.77479 0.77481 0.15039
 C25 C 0.78747 0.79004 0.18483
 C26 C 0.82937 0.79052 0.23409
 C27 C 0.81440 0.82246 0.25292
 C28 C 0.78497 0.83709 0.23714
 C29 C 0.77170 0.82133 0.20337
 C30 C 0.74344 0.83734 0.18720
 C31 C 0.73120 0.82303 0.15235
 C32 C 0.74670 0.79133 0.13443
 H33 H 0.85441 0.73227 0.19388
 H34 H 0.78057 0.73397 0.10510
 H35 H 0.85180 0.77820 0.24523
 H36 H 0.77233 0.86140 0.24987
 H37 H 0.73164 0.86188 0.20109
 H38 H 0.73698 0.77952 0.10795
 C39 C 0.81691 1.20403 -0.22031
 C40 C 0.83434 1.23608 -0.20425
 C41 C 0.82086 1.25682 -0.17318
 C42 C 0.78952 1.24509 -0.15816
 C43 C 0.77192 1.21293 -0.17379
 C44 C 0.78562 1.19237 -0.20507
 C45 C 0.83079 1.18298 -0.25081
 C46 C 0.81431 1.14961 -0.26643
 C47 C 0.78256 1.13879 -0.25110
 C48 C 0.76835 1.15974 -0.22062
 C49 C 0.73747 1.14783 -0.20478
 C50 C 0.72389 1.16778 -0.17322
 C51 C 0.74127 1.20037 -0.15799
 H52 H 0.85856 1.24486 -0.21584
 H53 H 0.77929 1.26017 -0.13356
 H54 H 0.85510 1.19242 -0.26166
 H55 H 0.76827 1.11429 -0.26237
 H56 H 0.72473 1.12207 -0.21611
 H57 H 0.73100 1.21579 -0.13358
 C58 C 0.18059 0.80595 -0.20867
 C59 C 0.16855 0.77188 -0.19265
 C60 C 0.18484 0.75610 -0.16172
 C61 C 0.21480 0.77480 -0.14858
 C62 C 0.22701 0.80893 -0.16430
 C63 C 0.20968 0.82483 -0.19412
 C64 C 0.16339 0.82204 -0.23837
 C65 C 0.17444 0.85723 -0.25305
 C66 C 0.20360 0.87580 -0.23847
 C67 C 0.22125 0.85987 -0.20912
 C68 C 0.24995 0.87881 -0.19408
 C69 C 0.26725 0.86324 -0.16410
 C70 C 0.25591 0.82799 -0.14982
 H71 H 0.14578 0.75833 -0.20397
 H72 H 0.22899 0.76382 -0.12584
 H73 H 0.14080 0.80775 -0.24938
 H74 H 0.21266 0.90260 -0.25006
 H75 H 0.25882 0.90562 -0.20579
 H76 H 0.26902 0.81600 -0.12653
 C77 C 0.54854 1.07301 0.01530
 H78 H 0.54406 1.07695 0.04527
 C79 C 0.57335 1.09528 -0.00233
 H80 H 0.58677 1.11700 0.01452
 C81 C 0.53584 1.03956 -0.04225
 H82 H 0.52185 1.01701 -0.05744
 C83 C 0.56077 1.06080 -0.06095
 H84 H 0.56525 1.05446 -0.09061
 N85 N 0.53044 1.04578 -0.00471
 C86 C 0.45279 1.02096 0.07902
 H87 H 0.45622 0.99033 0.08097
 C88 C 0.42833 1.03916 0.10116
 H89 H 0.41296 1.02221 0.12004
 C90 C 0.46723 1.07953 0.04998
 H91 H 0.48180 1.09484 0.02920
 C92 C 0.44257 1.09876 0.07114
 H93 H 0.43870 1.12902 0.06692
 Zn94 Zn 0.50137 1.01294 0.02260
 N95 N 0.47185 1.04130 0.05433
 C96 C 0.53209 0.98641 0.08881
 N97 N 0.52948 0.98196 0.05076
 C98 C 0.54926 0.95718 0.03077
 C99 C 0.57235 0.93503 0.04904
 C100 C 0.55515 0.96507 0.10826
 C101 C 0.45493 1.00083 -0.03508
 C102 C 0.43174 0.98039 -0.05781
 C103 C 0.44722 0.92196 -0.02834
 C104 C 0.47036 0.94354 -0.00640
 N105 N 0.47377 0.98223 -0.01015
 H106 H 0.51711 1.00742 0.10403
 H107 H 0.54726 0.95491 0.00042
 H108 H 0.58769 0.91546 0.03231
 H109 H 0.55733 0.97034 0.13829
 H110 H 0.45759 1.03177 -0.03685
 H111 H 0.41695 0.99597 -0.07731
 H112 H 0.44421 0.89155 -0.02350
 H113 H 0.48460 0.92952 0.01464
 C114 C 0.42282 1.07852 0.09715
 C115 C 0.58053 1.08863 -0.04089
 C116 C 0.42736 0.94037 -0.05453
 C117 C 0.57576 0.93878 0.08837
 C118 C -0.01091 0.53048 1.05714
 H119 H 0.00730 0.51286 1.07022
 C120 C -0.03074 0.55500 1.07958
 H121 H -0.02805 0.55512 1.10985
 C122 C -0.03629 0.55185 1.00187
 H123 H -0.03792 0.55075 0.97147
 C124 C -0.05668 0.57657 1.02317
 H125 H -0.07400 0.59447 1.00885
 N126 N -0.01410 0.52930 1.01903
 C127 C 0.07698 0.47245 1.01160
 H128 H 0.08807 0.49286 0.99260
 C129 C 0.09781 0.44859 1.03129
 H130 H 0.12479 0.45185 1.02785
 C131 C 0.02844 0.44327 1.03872
 H132 H 0.00130 0.44104 1.04096
 C133 C 0.04827 0.41895 1.05899
 H134 H 0.03612 0.39804 1.07683
 Zn135 Zn 0.01373 0.49877 0.98719
 N136 N 0.04296 0.46942 1.01569
 C137 C 0.05831 0.56009 0.97480
 N138 N 0.03844 0.53313 0.95662
 C139 C 0.03514 0.53257 0.91853
 C140 C 0.05258 0.55972 0.89716
 C141 C 0.07634 0.58755 0.95458
 C142 C -0.04628 0.45917 0.96339
 C143 C -0.06486 0.43075 0.94332
 C144 C -0.01377 0.41148 0.91135
 C145 C 0.00385 0.43999 0.93232
 N146 N -0.01254 0.46324 0.95760
 H147 H 0.05998 0.56032 1.00518
 H148 H 0.01863 0.51149 0.90465
 H149 H 0.04989 0.55844 0.86687
 H150 H 0.09187 0.60887 0.96969
 H151 H -0.05875 0.47724 0.98430
 H152 H -0.09159 0.42766 0.94895
 H153 H 0.00004 0.39420 0.89091
 H154 H 0.03079 0.44354 0.92862
 C155 C 0.08346 0.42104 1.05508
 C156 C -0.05386 0.57872 1.06256
 C157 C -0.04864 0.40601 0.91714
 C158 C 0.07339 0.58787 0.91525
 C159 C 1.04431 -0.02379 0.55029
 H160 H 1.04483 0.00728 0.54907
 C161 C 1.06464 -0.04165 0.57583
 H162 H 1.08098 -0.02383 0.59379
 C163 C 1.02158 -0.08413 0.52868
 H164 H 1.00412 -0.10049 0.51088
 C165 C 1.04122 -0.10323 0.55414
 H166 H 1.03812 -0.13412 0.55526
 N167 N 1.02356 -0.04512 0.52714
 C168 C 1.00240 0.03239 0.43716
 H169 H 0.97521 0.02993 0.43748
 C170 C 1.01880 0.05559 0.41115
 H171 H 1.00385 0.07038 0.39122
 C172 C 1.05455 0.01420 0.46180
 H173 H 1.06840 -0.00250 0.48112
 C174 C 1.07202 0.03705 0.43615
 H175 H 1.09927 0.03809 0.43642
 Zn176 Zn 0.99508 -0.01820 0.49556
 N177 N 1.02032 0.01273 0.46216
 C178 C 0.96964 0.05209 0.52588
 N179 N 0.96774 0.01304 0.52738
 C180 C 0.94789 -0.00460 0.55331
 C181 C 0.92872 0.01721 0.57895
 C182 C 0.95103 0.07499 0.55109
 C183 C 0.98529 -0.07573 0.43995
 C184 C 0.96756 -0.09934 0.41402
 C185 C 0.91566 -0.07554 0.44076
 C186 C 0.93442 -0.05235 0.46620
 N187 N 0.96861 -0.05279 0.46526
 H188 H 0.98605 0.06566 0.50561
 H189 H 0.94728 -0.03568 0.55430
 H190 H 0.91334 0.00264 0.59964
 H191 H 0.95275 0.10597 0.54908
 H192 H 1.01251 -0.07479 0.43926
 H193 H 0.98161 -0.11607 0.39330
 H194 H 0.88847 -0.07434 0.44157
 H195 H 0.92162 -0.03320 0.48586
 C196 C 1.05413 0.05850 0.41064
 C197 C 1.06333 -0.08199 0.57825
 C198 C 0.93219 -0.09931 0.41400
 C199 C 0.93050 0.05759 0.57840
 C200 C 0.14081 0.34019 1.11180
 C201 C 0.11005 0.35262 1.12650
 N202 N 0.09784 0.33769 1.15872
 C203 C 0.11466 0.31031 1.17673
 C204 C 0.14543 0.29652 1.16160
 N205 N 0.15756 0.31268 1.12952
 N206 N 0.15303 0.35498 1.07944
 C207 C 0.13568 0.38162 1.06096
 C208 C 0.10444 0.39395 1.07538
 N209 N 0.09255 0.37896 1.10801
 H210 H 0.10366 0.30022 1.20248
 H211 H 0.14579 0.39197 1.03474
 C212 C -0.11335 0.65957 1.12370
 C213 C -0.12460 0.64220 1.08987
 N214 N -0.15455 0.65211 1.07580
 C215 C -0.17370 0.67913 1.09364
 C216 C -0.16228 0.69787 1.12748
 N217 N -0.13226 0.68677 1.14148
 N218 N -0.08330 0.64969 1.13779
 C219 C -0.06389 0.62323 1.11938
 C220 C -0.07490 0.60595 1.08501
 N221 N -0.10519 0.61606 1.07128
 H222 H -0.19742 0.68507 1.08102
 H223 H -0.03973 0.61677 1.13097
 C224 C -0.10607 0.31625 0.86171
 C225 C -0.12165 0.34837 0.87840
 N226 N -0.15568 0.35050 0.87763
 C227 C -0.17489 0.32176 0.86112
 C228 C -0.15936 0.28928 0.84450
 N229 N -0.12516 0.28763 0.84512
 N230 N -0.07213 0.31380 0.86300
 C231 C -0.05292 0.34209 0.88017
 C232 C -0.06833 0.37472 0.89689
 N233 N -0.10253 0.37670 0.89548
 H234 H -0.20192 0.32450 0.86066
 H235 H -0.02609 0.33830 0.88139
 C236 C 0.12508 0.67683 0.85780
 C237 C 0.13805 0.66222 0.89061
 N238 N 0.16694 0.67767 0.90511
 C239 C 0.18344 0.70746 0.88860
 C240 C 0.17025 0.72330 0.85575
 N241 N 0.14128 0.70682 0.84141
 N242 N 0.09599 0.66153 0.84339
 C243 C 0.07916 0.63232 0.86055
 C244 C 0.09185 0.61787 0.89398
 N245 N 0.12117 0.63338 0.90801
 H246 H 0.20602 0.71844 0.90206
 H247 H 0.05563 0.62148 0.84880
 C248 C 1.10645 0.12605 0.33078
 C249 C 1.12109 0.09374 0.34541
 N250 N 1.15217 0.08356 0.33336
 C251 C 1.16929 0.10398 0.30704
 C252 C 1.15458 0.13652 0.29149
 N253 N 1.12338 0.14639 0.30448
 N254 N 1.07541 0.13648 0.34284
 C255 C 1.05811 0.11569 0.36868
 C256 C 1.07243 0.08266 0.38310
 N257 N 1.10388 0.07283 0.37116
 H258 H 1.19392 0.09427 0.29899
 H259 H 1.03366 0.12525 0.37805
 C260 C 1.12184 -0.13299 0.66196
 C261 C 1.11770 -0.09311 0.66179
 N262 N 1.13228 -0.07008 0.68897
 C263 C 1.15093 -0.08517 0.71639
 C264 C 1.15506 -0.12527 0.71688
 N265 N 1.14019 -0.14821 0.68953
 N266 N 1.10753 -0.15585 0.63446
 C267 C 1.08895 -0.14070 0.60693
 C268 C 1.08407 -0.10058 0.60696
 N269 N 1.09895 -0.07801 0.63459
 H270 H 1.16177 -0.06608 0.73800
 H271 H 1.07862 -0.16004 0.58533
 C272 C 0.87699 -0.15794 0.32681
 C273 C 0.86405 -0.12576 0.34612
 N274 N 0.83412 -0.11200 0.33570
 C275 C 0.81666 -0.12847 0.30634
 C276 C 0.82992 -0.16041 0.28562
 N277 N 0.85980 -0.17426 0.29728
 N278 N 0.90692 -0.17185 0.33727
 C279 C 0.92486 -0.15448 0.36583
 C280 C 0.91249 -0.12126 0.38466
 N281 N 0.88201 -0.10815 0.37440
 H282 H 0.79299 -0.11603 0.29986
 H283 H 0.94845 -0.16662 0.37359
 C284 C 0.87677 0.12253 0.66137
 C285 C 0.86437 0.08666 0.64794
 N286 N 0.83518 0.07216 0.66229
 C287 C 0.81777 0.09178 0.68965
 C288 C 0.83023 0.12800 0.70393
 N289 N 0.85964 0.14201 0.68884
 N290 N 0.90607 0.13708 0.64728
 C291 C 0.92363 0.11725 0.62023
 C292 C 0.91142 0.08096 0.60669
 N293 N 0.88196 0.06662 0.62114
 H294 H 0.79512 0.07815 0.70022
 H295 H 0.94727 0.12935 0.61028
 C296 C 0.34013 1.12956 0.15385
 C297 C 0.34891 1.13949 0.11711
 N298 N 0.32935 1.16384 0.09861
 C299 C 0.30125 1.17865 0.11509
 C300 C 0.29209 1.16868 0.15205
 N301 N 0.31212 1.14430 0.17033
 N302 N 0.35916 1.10443 0.17207
 C303 C 0.38638 1.08829 0.15496
 C304 C 0.39500 1.09764 0.11780
 N305 N 0.37609 1.12343 0.09997
 H306 H 0.28588 1.19688 0.09876
 H307 H 0.40105 1.06829 0.17017
 C308 C 0.66346 1.14172 -0.09730
 C309 C 0.63734 1.12307 -0.11754
 N310 N 0.63925 1.12031 -0.15571
 C311 C 0.66637 1.13499 -0.17455
 C312 C 0.69295 1.15324 -0.15429
 N313 N 0.69051 1.15637 -0.11602
 N314 N 0.66192 1.14378 -0.05917
 C315 C 0.63547 1.12789 -0.04018
 C316 C 0.60902 1.10887 -0.06025
 N317 N 0.61090 1.10716 -0.09866
 H318 H 0.66708 1.13248 -0.20498
 H319 H 0.63603 1.12929 -0.00981
 C320 C 0.34856 0.88145 -0.11486
 C321 C 0.34948 0.92166 -0.11035
 N322 N 0.32425 0.94226 -0.12434
 C323 C 0.29794 0.92439 -0.14255
 C324 C 0.29657 0.88392 -0.14670
 N325 N 0.32212 0.86351 -0.13263
 N326 N 0.37393 0.86096 -0.10101
 C327 C 0.40000 0.87881 -0.08229
 C328 C 0.40062 0.91923 -0.07663
 N329 N 0.37524 0.93947 -0.09133
 H330 H 0.27785 0.94162 -0.15260
 H331 H 0.41991 0.86140 -0.07227
 C332 C 0.65255 0.87696 0.14044
 C333 C 0.65197 0.88082 0.10137
 N334 N 0.67664 0.86525 0.07953
 C335 C 0.70203 0.84595 0.09503
 C336 C 0.70298 0.84220 0.13435
 N337 N 0.67807 0.85801 0.15608
 N338 N 0.62766 0.89237 0.16213
 C339 C 0.60235 0.91189 0.14655
 C340 C 0.60200 0.91666 0.10727
 N341 N 0.62696 0.90054 0.08586
 H342 H 0.72170 0.83462 0.07687
 H343 H 0.58279 0.92306 0.16485
   
