data_POSCAR
  _audit_creation_date              2014-09-24
  _audit_creation_method            'ToBaCCo'
  _symmetry_space_group_name_H-M    'P1'
  _symmetry_Int_Tables_number       1
  _symmetry_cell_setting            triclinic
  loop_
  _symmetry_equiv_pos_as_xyz
 x,y,z
_cell_length_a 27.2678
_cell_length_b 28.7971
_cell_length_c 27.1110
_cell_angle_alpha 87.185700
_cell_angle_beta 89.188900
_cell_angle_gamma 90.354400
loop_
  _atom_site_label
  _atom_site_type_symbol
  _atom_site_fract_x
  _atom_site_fract_y
  _atom_site_fract_z
C1 C 0.16375 0.51708 1.07421
 H2 H 0.16184 0.54403 1.04507
 C3 C 0.12648 0.51276 1.11011
 H4 H 0.09637 0.53700 1.10812
 C5 C 0.20559 0.45273 1.11104
 H6 H 0.23657 0.42952 1.11135
 C7 C 0.16924 0.44709 1.14762
 H8 H 0.17298 0.41931 1.17569
 N9 N 0.20209 0.48713 1.07516
 C10 C 0.32331 0.55540 0.99398
 H11 H 0.32557 0.53366 0.96260
 C12 C 0.35674 0.59159 0.99803
 H13 H 0.38414 0.59744 0.96915
 C14 C 0.28601 0.57188 1.07060
 H15 H 0.25883 0.56343 1.09910
 C16 C 0.31914 0.60848 1.07632
 H17 H 0.31685 0.62842 1.10910
 Zn18 Zn 0.24915 0.49259 1.02335
 N19 N 0.28896 0.54604 1.02999
 C20 C 0.22043 0.53713 0.93251
 N21 N 0.21443 0.49823 0.96268
 C22 C 0.18140 0.46473 0.95175
 C23 C 0.15385 0.46918 0.90862
 C24 C 0.19444 0.54254 0.88874
 C25 C 0.34010 0.44593 1.03296
 C26 C 0.37199 0.40827 1.03508
 C27 C 0.30264 0.35712 1.02600
 C28 C 0.27212 0.39598 1.02256
 N29 N 0.29116 0.43952 1.02581
 H30 H 0.24452 0.56478 0.94251
 H31 H 0.17554 0.43499 0.97700
 H32 H 0.12783 0.44215 0.90055
 H33 H 0.19999 0.57375 0.86531
 H34 H 0.35487 0.48011 1.03787
 H35 H 0.41076 0.41422 1.04047
 H36 H 0.28693 0.32269 1.02353
 H37 H 0.23314 0.39119 1.01840
 C38 C 0.35525 0.61845 1.03980
 C39 C 0.12877 0.47720 1.14754
 C40 C 0.35328 0.36327 1.03174
 C41 C 0.16057 0.50844 0.87640
 C42 C 0.81502 0.54918 -0.07625
 H43 H 0.80092 0.57797 -0.05631
 C44 C 0.85059 0.55718 -0.11316
 H45 H 0.86345 0.59238 -0.12146
 C46 C 0.81597 0.46827 -0.08855
 H47 H 0.80250 0.43367 -0.07834
 C48 C 0.85200 0.47469 -0.12561
 H49 H 0.86573 0.44478 -0.14397
 N50 N 0.79835 0.50535 -0.06478
 C51 C 0.69382 0.57259 0.02356
 H52 H 0.70804 0.56301 0.05952
 C53 C 0.65910 0.60807 0.01891
 H54 H 0.64719 0.62541 0.05146
 C55 C 0.69183 0.56209 -0.06248
 H56 H 0.70485 0.54428 -0.09421
 C57 C 0.65773 0.59757 -0.06888
 H58 H 0.64449 0.60635 -0.10561
 Zn59 Zn 0.75132 0.49781 -0.01276
 N60 N 0.70875 0.54979 -0.01678
 C61 C 0.76044 0.48872 0.09268
 N62 N 0.78497 0.49428 0.04865
 C63 C 0.83474 0.49834 0.04695
 C64 C 0.86169 0.49736 0.09034
 C65 C 0.78609 0.48702 0.13706
 C66 C 0.69196 0.44062 -0.06731
 C67 C 0.65661 0.40670 -0.07529
 C68 C 0.66369 0.37938 0.00988
 C69 C 0.69951 0.41352 0.01608
 N70 N 0.71185 0.44424 -0.02192
 H71 H 0.72088 0.48582 0.09347
 H72 H 0.85387 0.50257 0.01187
 H73 H 0.90120 0.50055 0.08778
 H74 H 0.76595 0.48263 0.17171
 H75 H 0.70279 0.46474 -0.09729
 H76 H 0.64052 0.40520 -0.11148
 H77 H 0.65357 0.35599 0.04087
 H78 H 0.71617 0.41611 0.05166
 C79 C 0.64031 0.62053 -0.02781
 C80 C 0.86982 0.51968 -0.13819
 C81 C 0.64106 0.37638 -0.03607
 C82 C 0.83737 0.49171 0.13619
 C83 C -0.04456 0.30814 0.43773
 H84 H -0.06676 0.27880 0.42840
 C85 C -0.04441 0.34849 0.40677
 H86 H -0.06637 0.34913 0.37382
 C87 C 0.00991 0.34317 0.49235
 H88 H 0.03130 0.34075 0.52566
 C89 C 0.00968 0.38462 0.46362
 H90 H 0.03132 0.41367 0.47529
 N91 N -0.01710 0.30602 0.47931
 C92 C -0.09894 0.19568 0.54814
 H93 H -0.09917 0.21140 0.58356
 C94 C -0.13091 0.15873 0.53979
 H95 H -0.15643 0.14678 0.56869
 C96 C -0.06380 0.19044 0.46814
 H97 H -0.03599 0.20162 0.44120
 C98 C -0.09569 0.15430 0.45786
 H99 H -0.09292 0.13849 0.42251
 Zn100 Zn -0.01551 0.25342 0.52437
 N101 N -0.06610 0.21052 0.51247
 C102 C -0.05310 0.31019 0.59646
 N103 N -0.01886 0.27712 0.58843
 C104 C 0.01848 0.26922 0.62043
 C105 C 0.02437 0.29733 0.66053
 C106 C -0.04807 0.33966 0.63561
 C107 C 0.07784 0.23642 0.48218
 C108 C 0.11828 0.20907 0.47139
 C109 C 0.08740 0.14957 0.52992
 C110 C 0.04760 0.17818 0.53975
 N111 N 0.04338 0.22050 0.51564
 H112 H -0.08193 0.31632 0.56996
 H113 H 0.04587 0.24345 0.61298
 H114 H 0.05592 0.29214 0.68393
 H115 H -0.07399 0.36758 0.63962
 H116 H 0.07335 0.26978 0.46281
 H117 H 0.14493 0.22209 0.44404
 H118 H 0.08958 0.11576 0.54895
 H119 H 0.01917 0.16611 0.56560
 C120 C -0.12915 0.13748 0.49420
 C121 C -0.01725 0.38767 0.41977
 C122 C 0.12305 0.16473 0.49480
 C123 C -0.00775 0.33453 0.66703
 C124 C 1.03259 0.66247 0.50625
 H125 H 1.03160 0.65913 0.46689
 C126 C 1.03602 0.62218 0.53641
 H127 H 1.03738 0.58896 0.51938
 C128 C 1.03207 0.70908 0.57569
 H129 H 1.03033 0.74307 0.59087
 C130 C 1.03502 0.66919 0.60757
 H131 H 1.03557 0.67302 0.64706
 N132 N 1.02893 0.70495 0.52594
 C133 C 0.94013 0.82050 0.46427
 H134 H 0.95656 0.82317 0.42780
 C135 C 0.90320 0.85134 0.47645
 H136 H 0.89207 0.87733 0.44881
 C137 C 0.93523 0.78334 0.54400
 H138 H 0.94774 0.75698 0.57039
 C139 C 0.89815 0.81374 0.55789
 H140 H 0.88264 0.81027 0.59488
 Zn141 Zn 1.01401 0.75563 0.47971
 N142 N 0.95649 0.78816 0.49825
 C143 C 0.96052 0.70683 0.41014
 N144 N 1.00372 0.72907 0.41782
 C145 C 1.04256 0.72537 0.38621
 C146 C 1.03922 0.69769 0.34562
 C147 C 0.95599 0.67784 0.37052
 C148 C 1.09833 0.80994 0.50722
 C149 C 1.13132 0.84750 0.50033
 C150 C 1.09587 0.86502 0.42055
 C151 C 1.06347 0.82798 0.42918
 N152 N 1.06507 0.80110 0.47179
 H153 H 0.93065 0.70931 0.43655
 H154 H 1.07728 0.74146 0.39414
 H155 H 1.07125 0.69372 0.32217
 H156 H 0.92216 0.65868 0.36620
 H157 H 1.09855 0.78870 0.54122
 H158 H 1.15714 0.85451 0.52903
 H159 H 1.09332 0.88581 0.38631
 H160 H 1.03666 0.82087 0.40158
 C161 C 0.88250 0.84901 0.52423
 C162 C 1.03576 0.62489 0.58781
 C163 C 1.12996 0.87572 0.45649
 C164 C 0.99619 0.67216 0.33849
 C165 C 0.44021 -0.03887 0.30062
 H166 H 0.45247 -0.07413 0.29651
 C167 C 0.40319 -0.02980 0.33520
 H168 H 0.38655 -0.05827 0.35716
 C169 C 0.45016 0.04179 0.28077
 H170 H 0.47000 0.06979 0.26130
 C171 C 0.41439 0.05235 0.31542
 H172 H 0.40625 0.08844 0.32134
 N173 N 0.46300 -0.00311 0.27453
 C174 C 0.56649 -0.07081 0.17727
 H175 H 0.59787 -0.04971 0.18601
 C176 C 0.57186 -0.10600 0.14434
 H177 H 0.60783 -0.11176 0.12838
 C178 C 0.48161 -0.08731 0.18715
 H179 H 0.44645 -0.07918 0.20339
 C180 C 0.48501 -0.12228 0.15308
 H181 H 0.45218 -0.14128 0.14432
 Zn182 Zn 0.52232 -0.01135 0.23935
 N183 N 0.52222 -0.06263 0.19858
 C184 C 0.59195 -0.06117 0.29631
 N185 N 0.57154 -0.01865 0.28763
 C186 C 0.58187 0.01731 0.31662
 C187 C 0.61470 0.01142 0.35558
 C188 C 0.62478 -0.06859 0.33476
 C189 C 0.49712 0.04914 0.16281
 C190 C 0.50023 0.08685 0.12875
 C191 C 0.57870 0.10681 0.16258
 C192 C 0.57392 0.06866 0.19636
 N193 N 0.53327 0.04110 0.19608
 H194 H 0.58167 -0.08994 0.27447
 H195 H 0.56393 0.05038 0.30996
 H196 H 0.62221 0.04040 0.37831
 H197 H 0.64029 -0.10285 0.34110
 H198 H 0.46552 0.02621 0.16312
 H199 H 0.47081 0.09240 0.10283
 H200 H 0.61111 0.12866 0.16331
 H201 H 0.60269 0.06103 0.22249
 C202 C 0.53080 -0.13212 0.13125
 C203 C 0.39127 0.01647 0.34383
 C204 C 0.54130 0.11644 0.12847
 C205 C 0.63642 -0.03214 0.36514
 C206 C 0.55365 -0.03464 0.69595
 H207 H 0.53458 -0.06748 0.70163
 C208 C 0.59539 -0.03158 0.66526
 H209 H 0.60830 -0.06240 0.64799
 C210 C 0.55911 0.04574 0.71012
 H211 H 0.54400 0.07623 0.72613
 C212 C 0.60091 0.05026 0.68018
 H213 H 0.61793 0.08421 0.67439
 N214 N 0.53638 0.00379 0.71761
 C215 C 0.47716 -0.04898 0.84671
 H216 H 0.48391 -0.01589 0.86227
 C217 C 0.47278 -0.08848 0.87828
 H218 H 0.47669 -0.08513 0.91762
 C219 C 0.46221 -0.09347 0.77718
 H220 H 0.45736 -0.09495 0.73777
 C221 C 0.45681 -0.13383 0.80755
 H222 H 0.44873 -0.16649 0.79114
 Zn223 Zn 0.47671 0.00189 0.75456
 N224 N 0.47263 -0.05216 0.79705
 C225 C 0.37740 -0.00755 0.72734
 N226 N 0.42388 0.00106 0.71023
 C227 C 0.43362 0.00888 0.66124
 C228 C 0.39580 0.00879 0.62726
 C229 C 0.33828 -0.00776 0.69452
 C230 C 0.51160 0.06456 0.82236
 C231 C 0.50967 0.10202 0.85303
 C232 C 0.42960 0.12070 0.82087
 C233 C 0.43315 0.08298 0.79069
 N234 N 0.47329 0.05525 0.79266
 H235 H 0.37075 -0.01395 0.76653
 H236 H 0.47076 0.01570 0.64836
 H237 H 0.40480 0.01561 0.58862
 H238 H 0.30143 -0.01424 0.70873
 H239 H 0.54338 0.04225 0.82280
 H240 H 0.54013 0.10806 0.87706
 H241 H 0.39691 0.14184 0.81948
 H242 H 0.40343 0.07552 0.76634
 C243 C 0.46261 -0.13156 0.85872
 C244 C 0.61931 0.01147 0.65686
 C245 C 0.46790 0.13022 0.85302
 C246 C 0.34729 0.00065 0.64373
 Si247 Si 0.24689 0.02280 0.47837
 Si248 Si 0.75572 -0.01194 0.51715
 Si249 Si 0.49893 0.24974 0.99336
 Si250 Si 0.49708 0.74183 0.00158
 Si251 Si 0.97959 0.50646 0.26701
 Si252 Si 0.02263 0.49955 0.74010
 N253 N 0.23005 0.11267 0.44462
 N254 N 0.20011 0.14829 0.44849
 C255 C 0.16443 0.13471 0.48110
 C256 C 0.17356 0.08912 0.49701
 N257 N 0.21478 0.07690 0.47335
 H258 H 0.15262 0.06692 0.52298
 N259 N 0.55379 0.70508 -0.07117
 N260 N 0.58938 0.67525 -0.07915
 C261 C 0.60257 0.65679 -0.03462
 C262 C 0.57358 0.67635 0.00105
 N263 N 0.54377 0.70611 -0.02341
 H264 H 0.57340 0.66926 0.04062
 N265 N 0.79424 -0.07903 0.58298
 N266 N 0.82521 -0.11446 0.58459
 C267 C 0.84570 -0.11636 0.53905
 C268 C 0.82644 -0.08062 0.50975
 N269 N 0.79474 -0.05837 0.53833
 H270 H 0.83367 -0.07187 0.47106
 N271 N 0.41060 0.25245 1.04261
 N272 N 0.37278 0.27982 1.05070
 C273 C 0.38633 0.32297 1.03420
 C274 C 0.43385 0.32121 1.01601
 N275 N 0.44755 0.27662 1.02195
 H276 H 0.45479 0.34871 0.99672
 N277 N 0.79788 0.04755 0.44508
 N278 N 0.82624 0.08499 0.43892
 C279 C 0.83907 0.09734 0.48439
 C280 C 0.81818 0.06584 0.51855
 N281 N 0.79279 0.03555 0.49259
 H282 H 0.82113 0.06490 0.55836
 N283 N 0.43464 0.70924 0.07755
 N284 N 0.39857 0.67887 0.08715
 C285 C 0.39176 0.65588 0.04552
 C286 C 0.42487 0.67319 0.01025
 N287 N 0.45073 0.70612 0.03160
 H288 H 0.42959 0.66353 -0.02758
 N289 N 0.19394 -0.02232 0.40971
 N290 N 0.16502 -0.05857 0.40365
 C291 C 0.16217 -0.08299 0.44741
 C292 C 0.19068 -0.06027 0.48067
 N293 N 0.20963 -0.02267 0.45560
 H294 H 0.19577 -0.06910 0.51950
 N295 N 0.54939 0.30010 0.91963
 N296 N 0.58510 0.33107 0.91173
 C297 C 0.60111 0.34257 0.95643
 C298 C 0.57348 0.31790 0.99207
 N299 N 0.54182 0.29193 0.96755
 H300 H 0.57617 0.31837 1.03183
 N301 N 0.57496 0.21629 1.05130
 N302 N 0.58591 0.18336 1.08516
 C303 C 0.54517 0.15701 1.09294
 C304 C 0.50886 0.17506 1.06267
 N305 N 0.52891 0.21181 1.03752
 H306 H 0.47136 0.16325 1.05942
 N307 N 0.03060 0.50771 0.63848
 N308 N 0.03460 0.53837 0.60064
 C309 C 0.03442 0.58109 0.61912
 C310 C 0.03003 0.57535 0.67000
 N311 N 0.02761 0.52916 0.68037
 H312 H 0.02827 0.60188 0.69687
 N313 N 0.44677 0.75458 -0.08519
 N314 N 0.43894 0.78550 -0.12196
 C315 C 0.45888 0.82596 -0.10878
 C316 C 0.47893 0.81884 -0.06256
 N317 N 0.47056 0.77402 -0.04927
 H318 H 0.50053 0.84281 -0.04213
 N319 N 1.00144 0.49937 0.36560
 N320 N 1.00437 0.46910 0.40374
 C321 C 0.98380 0.42904 0.39008
 C322 C 0.96780 0.43610 0.34202
 N323 N 0.97946 0.48033 0.32834
 H324 H 0.95242 0.41099 0.31805
 N325 N 0.57144 0.78800 0.04650
 N326 N 0.58024 0.82013 0.07854
 C327 C 0.53640 0.83345 0.09669
 C328 C 0.50026 0.80822 0.07433
 N329 N 0.52377 0.78047 0.04349
 H330 H 0.46086 0.81038 0.07881
 N331 N 0.04685 0.40690 0.75469
 N332 N 0.03967 0.36544 0.73679
 C333 C 0.00438 0.37030 0.70254
 C334 C -0.00992 0.41639 0.70034
 N335 N 0.01758 0.43795 0.73316
 H336 H -0.03467 0.43345 0.67450
 N337 N 0.42944 0.22165 0.92862
 N338 N 0.42118 0.19243 0.89347
 C339 C 0.46288 0.16829 0.88728
 C340 C 0.49714 0.18391 0.91992
 N341 N 0.47469 0.21698 0.94489
 H342 H 0.53431 0.17214 0.92577
 N343 N 1.02502 0.59146 0.24715
 N344 N 1.02981 0.63320 0.26507
 C345 C 0.99603 0.63600 0.30166
 C346 C 0.97021 0.59454 0.30527
 N347 N 0.98953 0.56775 0.27089
 H348 H 0.94371 0.58309 0.33347
 N349 N 1.05553 0.44624 0.25138
 N350 N 1.09373 0.43909 0.22213
 C351 C 1.09238 0.47176 0.18469
 C352 C 1.05125 0.49884 0.19186
 N353 N 1.02962 0.48183 0.23383
 H354 H 1.03916 0.52910 0.17025
 N355 N 0.72085 0.05127 0.58138
 N356 N 0.68731 0.05768 0.61602
 C357 C 0.66216 0.01736 0.62301
 C358 C 0.68170 -0.01420 0.59129
 N359 N 0.71810 0.00847 0.56612
 H360 H 0.66990 -0.04949 0.58577
 N361 N -0.03795 0.56549 0.77759
 N362 N -0.07545 0.57112 0.80818
 C363 C -0.09105 0.52829 0.82394
 C364 C -0.06174 0.49608 0.80157
 N365 N -0.02929 0.52080 0.77303
 H366 H -0.06221 0.45862 0.80717
 N367 N 0.33058 0.06736 0.44469
 N368 N 0.36594 0.06709 0.41089
 C369 C 0.35926 0.02858 0.38541
 C370 C 0.31851 0.00500 0.40487
 N371 N 0.30169 0.03062 0.44162
 H372 H 0.30198 -0.02663 0.39268
 N373 N 0.11142 0.54126 0.75837
 N374 N 0.14587 0.54398 0.79205
 C375 C 0.13247 0.51474 0.83039
 C376 C 0.08842 0.49413 0.81909
 N377 N 0.07670 0.51162 0.77399
 H378 H 0.06648 0.46963 0.84163
 N379 N 0.71906 -0.07708 0.45649
 N380 N 0.69003 -0.08259 0.41852
 C381 C 0.67030 -0.04072 0.40671
 C382 C 0.68819 -0.00927 0.43916
 N383 N 0.71843 -0.03342 0.46936
 H384 H 0.68103 0.02759 0.44025
 N385 N 0.88282 0.47826 0.25933
 N386 N 0.84703 0.47465 0.22712
 C387 C 0.86516 0.49040 0.18276
 C388 C 0.91327 0.50403 0.18907
 N389 N 0.92274 0.49582 0.23710
 H390 H 0.93900 0.51858 0.16167
 N391 N 0.23334 0.00486 0.57934
 N392 N 0.25825 -0.00048 0.62090
 C393 C 0.30636 0.00204 0.60835
 C394 C 0.30991 0.00881 0.55773
 N395 N 0.26389 0.01045 0.54116
 H396 H 0.34261 0.01324 0.53491
   
