data_POSCAR
  _audit_creation_date              2014-09-24
  _audit_creation_method            'ToBaCCo'
  _symmetry_space_group_name_H-M    'P1'
  _symmetry_Int_Tables_number       1
  _symmetry_cell_setting            triclinic
  loop_
  _symmetry_equiv_pos_as_xyz
 x,y,z
_cell_length_a 18.7149
_cell_length_b 18.9246
_cell_length_c 18.4591
_cell_angle_alpha 88.139000
_cell_angle_beta 90.597700
_cell_angle_gamma 89.502000
loop_
  _atom_site_label
  _atom_site_type_symbol
  _atom_site_fract_x
  _atom_site_fract_y
  _atom_site_fract_z
N1 N 0.58541 0.14354 0.01941
 N2 N 0.63487 0.18753 0.04171
 N3 N 0.43805 0.14712 -0.05888
 N4 N 0.38829 0.18741 -0.09079
 N5 N 0.43554 0.15178 0.01184
 N6 N 0.38416 0.19544 0.03043
 N7 N 0.58769 0.13803 -0.05122
 N8 N 0.63857 0.17783 -0.07917
 C9 C 0.66793 0.20730 -0.02054
 C10 C 0.35530 0.21663 -0.03419
 N11 N 0.43140 -0.03545 -0.15176
 N12 N 0.37996 -0.05745 -0.19522
 N13 N 0.58581 0.02379 -0.14882
 N14 N 0.64739 0.04359 -0.17664
 N15 N 0.58195 -0.04544 -0.14264
 N16 N 0.64503 -0.07571 -0.16751
 N17 N 0.43642 0.03372 -0.15704
 N18 N 0.38898 0.06092 -0.20333
 Mn19 Mn 0.51202 0.08588 -0.10450
 C20 C 0.35416 0.00384 -0.22623
 C21 C 0.68205 -0.01765 -0.18861
 N22 N 0.42535 0.05315 0.13272
 N23 N 0.37477 0.08420 0.17007
 N24 N 0.57013 -0.02469 0.14988
 N25 N 0.60308 -0.04567 0.21079
 N26 N 0.57600 0.04416 0.13955
 N27 N 0.61596 0.07187 0.19577
 N28 N 0.42050 -0.01598 0.13925
 N29 N 0.36651 -0.03405 0.18125
 Mn30 Mn 0.50555 0.09852 0.07632
 C31 C 0.33836 0.02908 0.19927
 C32 C 0.63261 0.01368 0.23660
 N33 N 0.57152 -0.14570 -0.02149
 N34 N 0.62205 -0.19093 -0.03936
 N35 N 0.41911 -0.13156 0.04053
 N36 N 0.36881 -0.17256 0.06805
 N37 N 0.42146 -0.13681 -0.03032
 N38 N 0.37300 -0.18188 -0.05279
 N39 N 0.56931 -0.14011 0.04934
 N40 N 0.61818 -0.18138 0.08160
 Mn41 Mn 0.50147 -0.09154 -0.08719
 Mn42 Mn 0.49476 -0.07860 0.09515
 Cl43 Cl 0.50347 0.00335 -0.00494
 C44 C 0.65067 -0.21222 0.02552
 C45 C 0.34010 -0.20263 0.00924
 N46 N 0.15082 0.43079 0.03420
 N47 N 0.19599 0.38455 0.06448
 N48 N 0.14654 0.57103 -0.05533
 N49 N 0.18749 0.61867 -0.08805
 N50 N 0.14804 0.57868 0.01521
 N51 N 0.18999 0.63138 0.03255
 N52 N 0.14689 0.42300 -0.03619
 N53 N 0.18982 0.37165 -0.05608
 C54 C 0.21905 0.34800 0.00759
 C55 C 0.21350 0.65603 -0.03245
 N56 N -0.03676 0.56481 -0.15575
 N57 N -0.06094 0.62526 -0.18494
 N58 N 0.03230 0.41328 -0.14265
 N59 N 0.05333 0.36125 -0.18404
 N60 N -0.03781 0.41565 -0.13947
 N61 N -0.06640 0.36516 -0.17758
 N62 N 0.03318 0.56074 -0.16086
 N63 N 0.05900 0.62134 -0.19581
 Mn64 Mn 0.09018 0.49163 -0.09921
 C65 C -0.00173 0.65790 -0.21034
 C66 C -0.00916 0.33136 -0.20421
 N67 N 0.04433 0.58759 0.12974
 N68 N 0.07017 0.63881 0.16889
 N69 N -0.02152 0.43762 0.15070
 N70 N -0.04180 0.38628 0.19616
 N71 N 0.04854 0.43952 0.14730
 N72 N 0.07801 0.38972 0.18970
 N73 N -0.02573 0.58616 0.13365
 N74 N -0.04960 0.63637 0.17535
 Mn75 Mn 0.09837 0.50948 0.08202
 C76 C 0.01086 0.66914 0.19575
 C77 C 0.02120 0.35720 0.21962
 N78 N -0.14041 0.42495 -0.02564
 N79 N -0.18261 0.37273 -0.04366
 N80 N -0.13989 0.57775 0.02862
 N81 N -0.18414 0.62799 0.04937
 N82 N -0.14154 0.57321 -0.04229
 N83 N -0.18683 0.61988 -0.07178
 N84 N -0.13654 0.42946 0.04520
 N85 N -0.17630 0.38080 0.07751
 Mn86 Mn -0.08958 0.49480 -0.09141
 Mn87 Mn -0.08145 0.50761 0.09020
 Cl88 Cl 0.00429 0.50091 -0.00461
 C89 C -0.20389 0.34572 0.02131
 C90 C -0.21219 0.65397 -0.01419
 N91 N 0.02508 0.13856 0.42640
 N92 N 0.04427 0.18453 0.37480
 N93 N -0.02333 0.13013 0.58719
 N94 N -0.03849 0.17336 0.63983
 N95 N 0.04610 0.12653 0.57763
 N96 N 0.08007 0.16686 0.62368
 N97 N -0.04442 0.14201 0.43627
 N98 N -0.07446 0.18954 0.39159
 C99 C -0.01876 0.21505 0.35348
 C100 C 0.02663 0.19477 0.66260
 N101 N -0.14501 -0.04043 0.59014
 N102 N -0.16917 -0.06922 0.65109
 N103 N -0.15955 0.04208 0.44517
 N104 N -0.21588 0.07291 0.41375
 N105 N -0.16262 -0.02687 0.43885
 N106 N -0.22085 -0.04422 0.40271
 N107 N -0.13775 0.02817 0.59603
 N108 N -0.15634 0.04785 0.66125
 Mn109 Mn -0.09163 0.08601 0.51643
 C110 C -0.17720 -0.01338 0.69394
 C111 C -0.25196 0.01875 0.38515
 N112 N 0.14629 0.01171 0.56078
 N113 N 0.19375 0.02879 0.61060
 N114 N 0.12324 -0.04626 0.40780
 N115 N 0.16396 -0.07181 0.35681
 N116 N 0.12815 0.02301 0.40902
 N117 N 0.17321 0.04627 0.35901
 N118 N 0.14026 -0.05731 0.55884
 N119 N 0.18346 -0.08930 0.60667
 Mn120 Mn 0.08701 0.07555 0.49307
 C121 C 0.21596 -0.03496 0.63853
 C122 C 0.19362 -0.01362 0.32621
 N123 N -0.06082 -0.14097 0.42110
 N124 N -0.09238 -0.17849 0.37089
 N125 N 0.02487 -0.15614 0.56758
 N126 N 0.05358 -0.18410 0.62773
 N127 N -0.04505 -0.15345 0.57270
 N128 N -0.06557 -0.18001 0.63596
 N129 N 0.00896 -0.14512 0.41542
 N130 N 0.02710 -0.18473 0.36115
 Mn131 Mn -0.10386 -0.09087 0.50519
 Mn132 Mn 0.07456 -0.10174 0.48750
 Cl133 Cl -0.00843 -0.00747 0.50024
 C134 C -0.03649 -0.20440 0.33364
 C135 C -0.00382 -0.20062 0.66852
 N136 N -0.27874 0.26032 -0.02597
 N137 N -0.25463 0.29044 0.02956
 N138 N 0.28729 0.74337 0.01429
 N139 N 0.26428 0.71168 -0.04093
 N140 N 0.29913 0.26742 -0.04199
 N141 N 0.27359 0.29543 0.01379
 N142 N -0.29358 0.73590 0.03434
 N143 N -0.26674 0.70724 -0.02061
 N144 N 0.01332 -0.27776 0.24856
 N145 N -0.04297 -0.25413 0.27767
 N146 N -0.01599 0.27598 0.74536
 N147 N 0.03739 0.24774 0.71516
 N148 N 0.02821 0.29957 0.27118
 N149 N -0.02607 0.27175 0.30087
 N150 N -0.00140 -0.27955 0.76600
 N151 N 0.00094 -0.21773 0.74386
 N152 N 0.29937 0.00930 0.71966
 N153 N 0.26944 -0.04433 0.69374
 N154 N -0.34446 0.01784 0.30025
 N155 N -0.32495 0.02521 0.36338
 N156 N 0.28079 0.03678 0.24875
 N157 N 0.24889 -0.01762 0.27374
 N158 N -0.25492 -0.01975 0.78973
 N159 N -0.19270 -0.02040 0.76905
   
