data_POSCAR
  _audit_creation_date              2014-09-24
  _audit_creation_method            'ToBaCCo'
  _symmetry_space_group_name_H-M    'P1'
  _symmetry_Int_Tables_number       1
  _symmetry_cell_setting            triclinic
  loop_
  _symmetry_equiv_pos_as_xyz
 x,y,z
_cell_length_a 13.8284
_cell_length_b 34.0982
_cell_length_c 26.1832
_cell_angle_alpha 89.952000
_cell_angle_beta 90.237300
_cell_angle_gamma 90.108000
loop_
  _atom_site_label
  _atom_site_type_symbol
  _atom_site_fract_x
  _atom_site_fract_y
  _atom_site_fract_z
B1 B -0.08937 -0.02588 0.02206
 B2 B 0.02575 -0.03400 0.03998
 B3 B -0.00963 -0.04472 -0.02000
 B4 B -0.09056 -0.01043 -0.03889
 B5 B -0.10331 0.02210 0.00974
 B6 B -0.03043 0.00705 0.05868
 B7 B 0.08606 0.02401 -0.02176
 B8 B -0.02898 0.03218 -0.03975
 B9 B 0.00632 0.04284 0.02029
 B10 B 0.08725 0.00857 0.03909
 B11 B 0.10003 -0.02393 -0.00951
 B12 B 0.02718 -0.00890 -0.05846
 B13 B 0.55265 0.48208 0.54928
 B14 B 0.43649 0.47245 0.53424
 B15 B 0.46969 0.51804 0.55320
 B16 B 0.58087 0.52767 0.52922
 B17 B 0.61601 0.48806 0.49467
 B18 B 0.52623 0.45388 0.49820
 B19 B 0.45266 0.51783 0.45002
 B20 B 0.56879 0.52736 0.46512
 B21 B 0.53546 0.48183 0.44614
 B22 B 0.42434 0.47220 0.47010
 B23 B 0.38918 0.51180 0.50462
 B24 B 0.47905 0.54599 0.50111
 B25 B 0.57844 0.02421 0.52668
 B26 B 0.46320 0.03432 0.54236
 B27 B 0.50162 0.04228 0.48240
 B28 B 0.58108 0.00632 0.46717
 B29 B 0.58921 -0.02434 0.51859
 B30 B 0.51582 -0.00620 0.56461
 B31 B 0.40173 -0.02560 0.48373
 B32 B 0.51737 -0.03545 0.46854
 B33 B 0.47727 -0.04335 0.52875
 B34 B 0.39855 -0.00755 0.54326
 B35 B 0.39012 0.02304 0.49245
 B36 B 0.46420 0.00546 0.44598
 B37 B -0.04764 0.51843 0.04811
 B38 B 0.06817 0.52822 0.03303
 B39 B 0.03595 0.48265 0.05237
 B40 B -0.07546 0.47272 0.02845
 B41 B -0.11170 0.51212 -0.00647
 B42 B -0.02232 0.54651 -0.00318
 B43 B 0.05141 0.48264 -0.05082
 B44 B -0.06432 0.47283 -0.03564
 B45 B -0.03197 0.51841 -0.05503
 B46 B 0.07939 0.52835 -0.03108
 B47 B 0.11564 0.48894 0.00374
 B48 B 0.02627 0.45455 0.00049
 B49 B 0.09178 0.47458 0.47898
 B50 B -0.02275 0.46654 0.45988
 B51 B 0.01017 0.45596 0.52028
 B52 B 0.09097 0.49019 0.53975
 B53 B 0.10617 0.52255 0.49111
 B54 B 0.03491 0.50746 0.44151
 B55 B -0.08433 0.52475 0.52056
 B56 B 0.03014 0.53283 0.53970
 B57 B -0.00262 0.54341 0.47931
 B58 B -0.08347 0.50919 0.45984
 B59 B -0.09867 0.47680 0.50848
 B60 B -0.02744 0.49190 0.55808
 B61 B 0.44840 -0.01819 -0.05016
 B62 B 0.56505 -0.02750 -0.03598
 B63 B 0.53105 0.01783 -0.05551
 B64 B 0.42067 0.02754 -0.03073
 B65 B 0.38674 -0.01174 0.00486
 B66 B 0.47651 -0.04581 0.00121
 B67 B 0.55155 0.01876 0.04744
 B68 B 0.43490 0.02796 0.03324
 B69 B 0.46886 -0.01732 0.05280
 B70 B 0.57926 -0.02703 0.02804
 B71 B 0.61319 0.01223 -0.00760
 B72 B 0.52339 0.04630 -0.00396
 B73 B 0.41185 0.52548 -0.02002
 B74 B 0.52599 0.53363 -0.03917
 B75 B 0.49402 0.54421 0.02126
 B76 B 0.41392 0.50982 0.04077
 B77 B 0.39812 0.47748 -0.00780
 B78 B 0.46830 0.49264 -0.05745
 B79 B 0.58926 0.47561 0.02144
 B80 B 0.47525 0.46730 0.04073
 B81 B 0.50693 0.45677 -0.01966
 B82 B 0.58704 0.49110 -0.03924
 B83 B 0.60285 0.52355 0.00933
 B84 B 0.53272 0.50831 0.05900
 B85 B 0.04823 0.01956 0.45048
 B86 B -0.06919 0.02805 0.46291
 B87 B -0.03286 -0.01682 0.44311
 B88 B 0.07648 -0.02628 0.46968
 B89 B 0.10773 0.01273 0.50624
 B90 B 0.01711 0.04643 0.50175
 B91 B -0.05783 -0.01896 0.54572
 B92 B 0.05966 -0.02750 0.53330
 B93 B 0.02388 0.01751 0.55301
 B94 B -0.08603 0.02684 0.52667
 B95 B -0.11738 -0.01227 0.48969
 B96 B -0.02689 -0.04590 0.49432
 B97 B 0.76843 0.21684 0.26914
 B98 B 0.82362 0.22136 0.21294
 B99 B 0.70318 0.21814 0.21580
 B100 B 0.66380 0.24252 0.26784
 B101 B 0.76493 0.26084 0.29735
 B102 B 0.86458 0.24685 0.26322
 B103 B 0.75305 0.29317 0.20225
 B104 B 0.69755 0.28953 0.25848
 B105 B 0.81791 0.29147 0.25555
 B106 B 0.85645 0.26767 0.20388
 B107 B 0.75553 0.24932 0.17421
 B108 B 0.65575 0.26334 0.20818
 B109 B 0.72419 0.78295 0.76946
 B110 B 0.66659 0.77771 0.71381
 B111 B 0.78664 0.78240 0.71539
 B112 B 0.83049 0.75844 0.76710
 B113 B 0.73212 0.73889 0.79751
 B114 B 0.63003 0.75177 0.76433
 B115 B 0.74179 0.70685 0.70216
 B116 B 0.79953 0.71099 0.75801
 B117 B 0.67931 0.70776 0.75599
 B118 B 0.63667 0.73113 0.70483
 B119 B 0.73465 0.75069 0.67429
 B120 B 0.83708 0.73779 0.70735
 B121 B 0.30553 0.21037 0.74294
 B122 B 0.18526 0.21235 0.73828
 B123 B 0.23877 0.20859 0.79533
 B124 B 0.34258 0.23401 0.79518
 B125 B 0.35321 0.25491 0.73605
 B126 B 0.25460 0.24107 0.70041
 B127 B 0.19082 0.28378 0.78113
 B128 B 0.31099 0.28036 0.78577
 B129 B 0.25808 0.28511 0.72873
 B130 B 0.15280 0.25953 0.72849
 B131 B 0.14222 0.23861 0.78801
 B132 B 0.24099 0.25245 0.82344
 B133 B 0.24091 0.71554 0.22792
 B134 B 0.18830 0.72028 0.28477
 B135 B 0.30842 0.71669 0.28050
 B136 B 0.34629 0.74095 0.22794
 B137 B 0.24443 0.75958 0.19957
 B138 B 0.14590 0.74586 0.23491
 B139 B 0.26120 0.79188 0.29445
 B140 B 0.31417 0.78809 0.23763
 B141 B 0.19401 0.79037 0.24192
 B142 B 0.15710 0.76667 0.29407
 B143 B 0.25871 0.74804 0.32261
 B144 B 0.35739 0.76175 0.28746
 B145 B 0.30013 0.78337 0.78071
 B146 B 0.17987 0.77971 0.78447
 B147 B 0.23353 0.78445 0.72780
 B148 B 0.33881 0.75909 0.72846
 B149 B 0.34887 0.73838 0.78814
 B150 B 0.24964 0.75207 0.82276
 B151 B 0.18627 0.70951 0.74203
 B152 B 0.30648 0.71192 0.73824
 B153 B 0.25252 0.70815 0.79492
 B154 B 0.14847 0.73326 0.79387
 B155 B 0.13830 0.75398 0.73453
 B156 B 0.23741 0.74032 0.69972
 B157 B 0.25879 0.29241 0.29580
 B158 B 0.20435 0.28914 0.23895
 B159 B 0.32465 0.29095 0.24310
 B160 B 0.36220 0.26681 0.29492
 B161 B 0.26071 0.24838 0.32349
 B162 B 0.16159 0.26268 0.28867
 B163 B 0.27508 0.21632 0.22843
 B164 B 0.32936 0.22054 0.28516
 B165 B 0.20895 0.21750 0.28120
 B166 B 0.17057 0.24216 0.22896
 B167 B 0.27232 0.26056 0.20052
 B168 B 0.37127 0.24629 0.23547
 B169 B 0.80703 0.71717 0.21729
 B170 B 0.68640 0.71963 0.21763
 B171 B 0.74789 0.71399 0.27212
 B172 B 0.85167 0.74053 0.26915
 B173 B 0.85203 0.76289 0.21027
 B174 B 0.74909 0.74903 0.17851
 B175 B 0.69481 0.78851 0.26349
 B176 B 0.81537 0.78759 0.26264
 B177 B 0.75323 0.79221 0.20828
 B178 B 0.65102 0.76592 0.21172
 B179 B 0.65060 0.74341 0.27011
 B180 B 0.75366 0.75726 0.30211
 B181 B 0.74661 0.20820 0.70476
 B182 B 0.69141 0.21212 0.76098
 B183 B 0.81167 0.20956 0.75802
 B184 B 0.85096 0.23316 0.70624
 B185 B 0.75064 0.25198 0.67658
 B186 B 0.65047 0.23847 0.71068
 B187 B 0.76510 0.28451 0.77138
 B188 B 0.81987 0.27963 0.71514
 B189 B 0.69962 0.28341 0.71812
 B190 B 0.65949 0.25929 0.77027
 B191 B 0.76002 0.24049 0.79977
 B192 B 0.86009 0.25400 0.76549
 C193 C 0.12488 0.39258 0.84083
 C194 C 0.18566 0.39967 0.88244
 C195 C 0.17343 0.43286 0.91256
 C196 C 0.09756 0.45919 0.90221
 C197 C 0.04660 0.45496 0.85570
 C198 C 0.05871 0.42130 0.82562
 C199 C 0.13082 0.35489 0.81638
 C200 C 0.14712 0.32268 0.79959
 H201 H 0.23813 0.37798 0.89370
 H202 H 0.21648 0.43524 0.94705
 H203 H -0.00961 0.47534 0.84511
 H204 H 0.01297 0.41673 0.79247
 C205 C 0.37644 0.60795 0.34119
 C206 C 0.44304 0.57942 0.32622
 C207 C 0.45631 0.54584 0.35650
 C208 C 0.40597 0.54145 0.40298
 C209 C 0.32992 0.56765 0.41321
 C210 C 0.31660 0.60077 0.38292
 C211 C 0.36915 0.64558 0.31639
 C212 C 0.35215 0.67771 0.29929
 H213 H 0.48815 0.58405 0.29303
 H214 H 0.51270 0.52559 0.34602
 H215 H 0.28738 0.56521 0.44768
 H216 H 0.26395 0.62232 0.39408
 C217 C 0.85283 0.89075 0.65201
 C218 C 0.79612 0.89832 0.60882
 C219 C 0.81516 0.93102 0.57848
 C220 C 0.89204 0.95660 0.59072
 C221 C 0.93896 0.95178 0.63821
 C222 C 0.92091 0.91853 0.66821
 C223 C 0.84299 0.85338 0.67709
 C224 C 0.82680 0.82151 0.69513
 H225 H 0.74124 0.87755 0.59664
 H226 H 0.77566 0.93384 0.54292
 H227 H 0.99611 0.97148 0.64991
 H228 H 0.96357 0.91349 0.70238
 C229 C 0.63150 0.10991 0.15431
 C230 C 0.68759 0.10338 0.11106
 C231 C 0.67372 0.07004 0.08133
 C232 C 0.60002 0.04307 0.09337
 C233 C 0.55299 0.04711 0.14084
 C234 C 0.56750 0.08077 0.17084
 C235 C 0.64048 0.14737 0.17934
 C236 C 0.65870 0.17935 0.19662
 H237 H 0.73763 0.12552 0.09840
 H238 H 0.71356 0.06801 0.04593
 H239 H 0.49826 0.02642 0.15255
 H240 H 0.52527 0.08494 0.20515
 C241 C 0.80586 0.11979 0.36428
 C242 C 0.79754 0.08049 0.34942
 C243 C 0.82853 0.05055 0.38241
 C244 C 0.87129 0.05969 0.42985
 C245 C 0.87233 0.09934 0.44540
 C246 C 0.84001 0.12893 0.41298
 C247 C 0.78750 0.15137 0.32913
 C248 C 0.77711 0.17944 0.30168
 H249 H 0.77025 0.07306 0.31181
 H250 H 0.82447 0.02075 0.36910
 H251 H 0.90176 0.10805 0.48203
 H252 H 0.84576 0.15921 0.42520
 C253 C 0.30771 0.38195 0.63395
 C254 C 0.29494 0.42167 0.64614
 C255 C 0.32671 0.45105 0.61231
 C256 C 0.37603 0.44096 0.56721
 C257 C 0.38309 0.40081 0.55454
 C258 C 0.34915 0.37184 0.58738
 C259 C 0.28437 0.35082 0.66925
 C260 C 0.27012 0.32278 0.69647
 H261 H 0.26192 0.42992 0.68198
 H262 H 0.31789 0.48139 0.62309
 H263 H 0.41765 0.39126 0.51972
 H264 H 0.35859 0.34130 0.57712
 C265 C 0.68617 0.88052 0.86461
 C266 C 0.64946 0.87122 0.91262
 C267 C 0.61906 0.90076 0.94547
 C268 C 0.62439 0.94066 0.93120
 C269 C 0.67003 0.94999 0.88470
 C270 C 0.69886 0.92004 0.85109
 C271 C 0.70419 0.84887 0.82927
 C272 C 0.71463 0.82061 0.80198
 H273 H 0.64048 0.84086 0.92399
 H274 H 0.58769 0.89183 0.98144
 H275 H 0.67777 0.98014 0.87271
 H276 H 0.72854 0.92769 0.81418
 C277 C 0.19506 0.61894 0.13272
 C278 C 0.15405 0.62896 0.08582
 C279 C 0.12107 0.59989 0.05283
 C280 C 0.12864 0.55980 0.06579
 C281 C 0.17799 0.54985 0.11115
 C282 C 0.20884 0.57931 0.14508
 C283 C 0.21657 0.65003 0.16825
 C284 C 0.22946 0.67801 0.19564
 H285 H 0.14397 0.65947 0.07547
 H286 H 0.08657 0.60929 0.01776
 H287 H 0.18733 0.51955 0.12210
 H288 H 0.24163 0.57118 0.18120
 C289 C 0.40771 0.89105 0.16607
 C290 C 0.49499 0.91193 0.16936
 C291 C 0.51084 0.94475 0.13775
 C292 C 0.43952 0.95737 0.10257
 C293 C 0.34939 0.93792 0.10312
 C294 C 0.33485 0.90481 0.13358
 C295 C 0.39091 0.85470 0.19361
 C296 C 0.36571 0.82446 0.21413
 H297 H 0.55230 0.90183 0.19443
 H298 H 0.58124 0.95861 0.13835
 H299 H 0.29224 0.94603 0.07681
 H300 H 0.26794 0.88859 0.12977
 C301 C 0.60136 0.39125 0.33178
 C302 C 0.67250 0.40443 0.36578
 C303 C 0.65628 0.43686 0.39717
 C304 C 0.56632 0.45630 0.39687
 C305 C 0.49655 0.44411 0.36054
 C306 C 0.51402 0.41193 0.32815
 C307 C 0.61971 0.35559 0.30309
 C308 C 0.64571 0.32579 0.28190
 H309 H 0.73941 0.38834 0.36988
 H310 H 0.71216 0.44459 0.42445
 H311 H 0.42619 0.45788 0.35935
 H312 H 0.45792 0.40222 0.30205
 C313 C 0.89988 0.60932 0.83072
 C314 C 0.82886 0.59548 0.86412
 C315 C 0.84583 0.56290 0.89535
 C316 C 0.93639 0.54391 0.89551
 C317 C 1.00600 0.55673 0.85970
 C318 C 0.98783 0.58905 0.82749
 C319 C 0.88073 0.64516 0.80222
 C320 C 0.85377 0.67499 0.78115
 H321 H 0.76145 0.61121 0.86793
 H322 H 0.79008 0.55472 0.92225
 H323 H 1.07682 0.54335 0.85884
 H324 H 1.04386 0.59921 0.80185
 C325 C 0.08705 0.10940 0.66657
 C326 C -0.00137 0.08914 0.66912
 C327 C -0.01832 0.05624 0.63754
 C328 C 0.05300 0.04286 0.60318
 C329 C 0.14397 0.06173 0.60455
 C330 C 0.15949 0.09493 0.63476
 C331 C 0.10598 0.14575 0.69415
 C332 C 0.13294 0.17588 0.71464
 H333 H -0.05857 0.09974 0.69362
 H334 H -0.08926 0.04285 0.63756
 H335 H 0.20145 0.05313 0.57901
 H336 H 0.22704 0.11068 0.63126
 C337 C 0.25050 0.38991 0.39144
 C338 C 0.24148 0.38382 0.44407
 C339 C 0.20544 0.41374 0.47507
 C340 C 0.17587 0.44940 0.45323
 C341 C 0.20189 0.45725 0.40213
 C342 C 0.23698 0.42733 0.37116
 C343 C 0.25657 0.35701 0.35755
 C344 C 0.25683 0.32909 0.32952
 H345 H 0.25360 0.35502 0.46036
 H346 H 0.19086 0.40722 0.51460
 H347 H 0.18534 0.48506 0.38422
 H348 H 0.24591 0.43259 0.33063
 C349 C 0.25704 0.61064 0.89105
 C350 C 0.26822 0.57296 0.87130
 C351 C 0.30117 0.54285 0.90286
 C352 C 0.32757 0.55074 0.95400
 C353 C 0.29959 0.58675 0.97528
 C354 C 0.26559 0.61686 0.94371
 C355 C 0.25348 0.64348 0.85680
 C356 C 0.25463 0.67138 0.82864
 H357 H 0.25935 0.56758 0.83076
 H358 H 0.31626 0.51479 0.88537
 H359 H 0.31431 0.59335 1.01482
 H360 H 0.25498 0.64584 0.95963
 C361 C 0.73976 0.10914 0.61253
 C362 C 0.73429 0.11380 0.55952
 C363 C 0.69741 0.08344 0.52937
 C364 C 0.66348 0.04893 0.55252
 C365 C 0.68660 0.04217 0.60433
 C366 C 0.72243 0.07254 0.63442
 C367 C 0.74497 0.14285 0.64486
 C368 C 0.74447 0.17129 0.67183
 H369 H 0.74949 0.14197 0.54210
 H370 H 0.68548 0.08888 0.48927
 H371 H 0.66674 0.01512 0.62325
 H372 H 0.72870 0.06842 0.67535
 C373 C 0.75409 0.89024 0.11295
 C374 C 0.76924 0.92781 0.13239
 C375 C 0.80330 0.95745 0.10046
 C376 C 0.82709 0.94917 0.04917
 C377 C 0.79597 0.91335 0.02830
 C378 C 0.76070 0.88373 0.06028
 C379 C 0.74924 0.85756 0.14751
 C380 C 0.75079 0.82960 0.17561
 H381 H 0.76227 0.93344 0.17293
 H382 H 0.82095 0.98540 0.11770
 H383 H 0.80899 0.90646 -0.01127
 H384 H 0.74740 0.85482 0.04461
 C385 C 0.92895 0.11634 0.83489
 C386 C 0.89442 0.07801 0.82982
 C387 C 0.90492 0.05164 0.87028
 C388 C 0.95069 0.06335 0.91608
 C389 C 0.98870 0.10154 0.91910
 C390 C 0.97749 0.12780 0.87908
 C391 C 0.89695 0.14633 0.80112
 C392 C 0.86338 0.17362 0.77858
 H393 H 0.85480 0.06922 0.79591
 H394 H 0.87659 0.02224 0.86561
 H395 H 1.02766 0.11162 0.95217
 H396 H 1.00358 0.15762 0.88345
 C397 C 0.06882 0.61656 0.66537
 C398 C 0.02077 0.62804 0.62103
 C399 C 0.01102 0.60197 0.58075
 C400 C 0.04951 0.56392 0.58388
 C401 C 0.09496 0.55223 0.62978
 C402 C 0.10444 0.57847 0.67034
 C403 C 0.10008 0.64648 0.69932
 C404 C 0.13373 0.67369 0.72190
 H405 H -0.00574 0.65777 0.61670
 H406 H -0.02689 0.61206 0.54733
 H407 H 0.12382 0.52295 0.63446
 H408 H 0.14390 0.56975 0.70433
 C409 C 0.58403 0.87384 0.35560
 C410 C 0.62660 0.87220 0.40417
 C411 C 0.60972 0.90201 0.43932
 C412 C 0.54434 0.93210 0.42754
 C413 C 0.50662 0.93432 0.37738
 C414 C 0.52532 0.90513 0.34191
 C415 C 0.61178 0.84597 0.31822
 C416 C 0.64322 0.82169 0.29006
 H417 H 0.67598 0.84871 0.41405
 H418 H 0.64587 0.90089 0.47607
 H419 H 0.46339 0.95878 0.36468
 H420 H 0.49566 0.90739 0.30363
 C421 C 0.44182 0.38367 0.16676
 C422 C 0.48805 0.37216 0.12214
 C423 C 0.49597 0.39819 0.08169
 C424 C 0.45739 0.43619 0.08497
 C425 C 0.41372 0.44790 0.13111
 C426 C 0.40612 0.42171 0.17184
 C427 C 0.41147 0.35377 0.20079
 C428 C 0.37790 0.32658 0.22331
 H429 H 0.51448 0.34244 0.11774
 H430 H 0.53271 0.38811 0.04808
 H431 H 0.38482 0.47714 0.13587
 H432 H 0.36788 0.43042 0.20604
 C433 C 0.54130 0.64439 0.12121
 C434 C 0.46529 0.61874 0.13128
 C435 C 0.44136 0.58991 0.09565
 C436 C 0.49537 0.58545 0.05027
 C437 C 0.56760 0.61330 0.03949
 C438 C 0.58758 0.64342 0.07387
 C439 C 0.58181 0.66826 0.16083
 C440 C 0.62418 0.68913 0.19029
 H441 H 0.42868 0.61940 0.16778
 H442 H 0.38690 0.56877 0.10624
 H443 H 0.61401 0.61022 0.00657
 H444 H 0.64555 0.66383 0.06549
 C445 C 0.03635 0.85490 0.88098
 C446 C 0.08473 0.85659 0.92787
 C447 C 0.06465 0.88661 0.96217
 C448 C -0.00930 0.91376 0.95175
 C449 C -0.06564 0.90845 0.90707
 C450 C -0.04178 0.87964 0.87145
 C451 C 0.07637 0.83105 0.84139
 C452 C 0.11845 0.81017 0.81205
 H453 H 0.14414 0.83682 0.93595
 H454 H 0.11242 0.89025 0.99466
 H455 H -0.12216 0.92889 0.89705
 H456 H -0.08029 0.87830 0.83537
 C457 C 0.46713 0.14241 0.38052
 C458 C 0.41887 0.14203 0.42723
 C459 C 0.43450 0.11170 0.46177
 C460 C 0.50465 0.08289 0.45204
 C461 C 0.56074 0.08631 0.40719
 C462 C 0.54077 0.11549 0.37117
 C463 C 0.43032 0.16736 0.34103
 C464 C 0.38980 0.18928 0.31215
 H465 H 0.36282 0.16334 0.43508
 H466 H 0.38637 0.10940 0.49409
 H467 H 0.61429 0.06449 0.39765
 H468 H 0.57883 0.11568 0.33508
 C469 C 0.96332 0.35525 0.61917
 C470 C 1.03976 0.38068 0.62952
 C471 C 1.06334 0.40977 0.59425
 C472 C 1.00870 0.41461 0.54893
 C473 C 0.93585 0.38703 0.53788
 C474 C 0.91590 0.35676 0.57197
 C475 C 0.92349 0.33109 0.65848
 C476 C 0.88163 0.31006 0.68775
 H477 H 1.07691 0.37967 0.66601
 H478 H 1.11815 0.43076 0.60502
 H479 H 0.88895 0.39045 0.50500
 H480 H 0.85707 0.33670 0.56353
 C481 C 0.87604 0.60935 0.15459
 C482 C 0.81646 0.60182 0.11269
 C483 C 0.82926 0.56826 0.08340
 C484 C 0.90514 0.54211 0.09459
 C485 C 0.95511 0.54684 0.14129
 C486 C 0.94200 0.58081 0.17074
 C487 C 0.86816 0.64708 0.17884
 C488 C 0.85064 0.67901 0.19619
 H489 H 0.76441 0.62337 0.10057
 H490 H 0.78678 0.56553 0.04878
 H491 H 1.01106 0.52654 0.15254
 H492 H 0.98671 0.58569 0.20421
 C493 C 0.63151 0.39223 0.65769
 C494 C 0.69098 0.39966 0.61591
 C495 C 0.67676 0.43275 0.58574
 C496 C 0.60018 0.45865 0.59617
 C497 C 0.55045 0.45414 0.64277
 C498 C 0.56455 0.42056 0.67293
 C499 C 0.63934 0.35454 0.68217
 C500 C 0.65649 0.32239 0.69909
 H501 H 0.74397 0.37830 0.60456
 H502 H 0.71902 0.43535 0.55120
 H503 H 0.49399 0.47429 0.65346
 H504 H 0.51979 0.41574 0.70621
 C505 C 0.13334 0.11033 0.34396
 C506 C 0.07095 0.08085 0.32656
 C507 C 0.05449 0.04760 0.35700
 C508 C 0.09813 0.04427 0.40563
 C509 C 0.17000 0.07173 0.41910
 C510 C 0.18577 0.10468 0.38893
 C511 C 0.14421 0.14728 0.31796
 C512 C 0.16360 0.17893 0.30014
 H513 H 0.03153 0.08441 0.29103
 H514 H 0.00122 0.02655 0.34433
 H515 H 0.20706 0.07025 0.45555
 H516 H 0.23442 0.12716 0.40241
 C517 C 0.36890 0.89167 0.84188
 C518 C 0.31203 0.89795 0.88493
 C519 C 0.32596 0.93098 0.91520
 C520 C 0.39997 0.95793 0.90364
 C521 C 0.44714 0.95432 0.85617
 C522 C 0.43303 0.92089 0.82581
 C523 C 0.36119 0.85429 0.81676
 C524 C 0.34396 0.82226 0.79952
 H525 H 0.26142 0.87580 0.89705
 H526 H 0.28586 0.93282 0.95053
 H527 H 0.50190 0.97510 0.84478
 H528 H 0.47577 0.91690 0.79163
 C529 C 0.18950 0.88148 0.63232
 C530 C 0.14637 0.87157 0.58590
 C531 C 0.11194 0.90067 0.55334
 C532 C 0.11948 0.94077 0.56634
 C533 C 0.17053 0.95068 0.61122
 C534 C 0.20401 0.92116 0.64446
 C535 C 0.21103 0.85023 0.66785
 C536 C 0.22319 0.82211 0.69527
 H537 H 0.13582 0.84108 0.57560
 H538 H 0.07658 0.89122 0.51854
 H539 H 0.17985 0.98099 0.62218
 H540 H 0.23838 0.92927 0.68017
 C541 C 0.70235 0.61680 0.36583
 C542 C 0.65933 0.62734 0.41184
 C543 C 0.62331 0.59871 0.44449
 C544 C 0.63007 0.55850 0.43223
 C545 C 0.68074 0.54796 0.38772
 C546 C 0.71437 0.57701 0.35399
 C547 C 0.72683 0.64765 0.33047
 C548 C 0.74044 0.67578 0.30342
 H549 H 0.65018 0.65798 0.42170
 H550 H 0.58762 0.60855 0.47885
 H551 H 0.68939 0.51755 0.37730
 H552 H 0.74831 0.56846 0.31850
 C553 C 0.31245 0.11929 0.13285
 C554 C 0.29942 0.07972 0.14593
 C555 C 0.32885 0.04999 0.11219
 C556 C 0.37546 0.05963 0.06609
 C557 C 0.38139 0.09961 0.05228
 C558 C 0.35024 0.12892 0.08521
 C559 C 0.29417 0.15067 0.16842
 C560 C 0.28389 0.17879 0.19586
 H561 H 0.26900 0.07185 0.18260
 H562 H 0.32074 0.01977 0.12381
 H563 H 0.41357 0.10876 0.01660
 H564 H 0.35955 0.15935 0.07425
 C565 C 0.80735 0.38165 0.86600
 C566 C 0.84889 0.37189 0.91284
 C567 C 0.88227 0.40113 0.94540
 C568 C 0.87477 0.44114 0.93203
 C569 C 0.82449 0.45088 0.88688
 C570 C 0.79294 0.42121 0.85340
 C571 C 0.78683 0.35034 0.83067
 C572 C 0.77518 0.32216 0.80351
 H573 H 0.85933 0.34145 0.92340
 H574 H 0.91721 0.39189 0.98043
 H575 H 0.81509 0.48113 0.87571
 H576 H 0.75967 0.42913 0.81732
 C577 C 0.59344 0.10957 0.83159
 C578 C 0.66610 0.09534 0.86383
 C579 C 0.65098 0.06215 0.89402
 C580 C 0.56029 0.04319 0.89477
 C581 C 0.48875 0.05642 0.86005
 C582 C 0.50534 0.08925 0.82853
 C583 C 0.61149 0.14586 0.80418
 C584 C 0.63813 0.17597 0.78390
 H585 H 0.73334 0.11130 0.86768
 H586 H 0.70821 0.05364 0.92006
 H587 H 0.41770 0.04308 0.85974
 H588 H 0.44803 0.09978 0.80377
 C589 C 0.40331 0.60968 0.66599
 C590 C 0.33217 0.59599 0.63233
 C591 C 0.34840 0.56312 0.60171
 C592 C 0.43849 0.54375 0.60230
 C593 C 0.50818 0.55642 0.63840
 C594 C 0.49066 0.58902 0.67009
 C595 C 0.38477 0.64570 0.69400
 C596 C 0.35860 0.67566 0.71479
 H597 H 0.26520 0.61199 0.62788
 H598 H 0.29250 0.55501 0.57464
 H599 H 0.57856 0.54269 0.63987
 H600 H 0.54673 0.59907 0.69599
 C601 C 0.10648 0.39151 0.16601
 C602 C 0.01841 0.41169 0.16970
 C603 C -0.00052 0.44410 0.13772
 C604 C 0.06840 0.45708 0.10167
 C605 C 0.15914 0.43819 0.10141
 C606 C 0.17683 0.40551 0.13235
 C607 C 0.12625 0.35559 0.19429
 C608 C 0.15277 0.32565 0.21530
 H609 H -0.03714 0.40140 0.19554
 H610 H -0.07138 0.45743 0.13893
 H611 H 0.21452 0.44652 0.07437
 H612 H 0.24429 0.38987 0.12815
 C613 C 0.91077 0.89361 0.32653
 C614 C 1.00322 0.91014 0.33062
 C615 C 1.01828 0.94320 0.36184
 C616 C 0.94265 0.95896 0.39159
 C617 C 0.84887 0.94412 0.38335
 C618 C 0.83340 0.91257 0.35018
 C619 C 0.89322 0.85592 0.30208
 C620 C 0.86772 0.82471 0.28411
 H621 H 1.06409 0.89667 0.31157
 H622 H 1.09054 0.95471 0.36575
 H623 H 0.78793 0.95526 0.40472
 H624 H 0.76130 0.90153 0.34496
 C625 C 0.75381 0.60917 0.60710
 C626 C 0.76836 0.57192 0.62772
 C627 C 0.80487 0.54207 0.59713
 C628 C 0.83117 0.54982 0.54605
 C629 C 0.80088 0.58525 0.52384
 C630 C 0.76350 0.61511 0.55448
 C631 C 0.74611 0.64215 0.64072
 C632 C 0.74469 0.67013 0.66859
 H633 H 0.75908 0.56679 0.66826
 H634 H 0.82205 0.51442 0.61530
 H635 H 0.81590 0.59167 0.48432
 H636 H 0.75071 0.64378 0.53795
 C637 C 0.75048 0.39118 0.10778
 C638 C 0.74139 0.38542 0.05510
 C639 C 0.70478 0.41548 0.02437
 C640 C 0.67474 0.45082 0.04665
 C641 C 0.70175 0.45851 0.09772
 C642 C 0.73740 0.42845 0.12842
 C643 C 0.75432 0.35806 0.14129
 C644 C 0.75255 0.32997 0.16896
 H645 H 0.75327 0.35672 0.03859
 H646 H 0.68970 0.40922 -0.01523
 H647 H 0.68504 0.48616 0.11586
 H648 H 0.74643 0.43340 0.16905
 C649 C 0.26204 0.88844 0.39135
 C650 C 0.26980 0.88104 0.44369
 C651 C 0.29655 0.91124 0.47677
 C652 C 0.31896 0.94854 0.45737
 C653 C 0.29089 0.95725 0.40679
 C654 C 0.26649 0.92691 0.37335
 C655 C 0.26156 0.85634 0.35611
 C656 C 0.26371 0.82867 0.32778
 H657 H 0.26264 0.85147 0.45840
 H658 H 0.30725 0.90432 0.51650
 H659 H 0.30083 0.98634 0.39104
 H660 H 0.25775 0.93313 0.33300
 C661 C 0.23784 0.10983 0.88934
 C662 C 0.23376 0.11512 0.94229
 C663 C 0.20094 0.08461 0.97351
 C664 C 0.16954 0.04921 0.95159
 C665 C 0.19178 0.04207 0.89984
 C666 C 0.22369 0.07257 0.86867
 C667 C 0.23970 0.14325 0.85601
 C668 C 0.23733 0.17154 0.82854
 H669 H 0.24683 0.14374 0.95889
 H670 H 0.18951 0.09054 1.01348
 H671 H 0.17393 0.01445 0.88177
 H672 H 0.22916 0.06788 0.82785
 C673 C 0.07134 0.88255 0.16561
 C674 C 0.02144 0.87079 0.12193
 C675 C 0.00900 0.89682 0.08171
 C676 C 0.04682 0.93506 0.08422
 C677 C 0.09388 0.94703 0.12955
 C678 C 0.10581 0.92089 0.17007
 C679 C 0.10522 0.85288 0.19930
 C680 C 0.14058 0.82597 0.22177
 H681 H -0.00445 0.84090 0.11802
 H682 H -0.03023 0.88653 0.04880
 H683 H 0.12227 0.97646 0.13381
 H684 H 0.14651 0.92989 0.20354
 C685 C 0.93679 0.38335 0.33378
 C686 C 0.98443 0.37150 0.37810
 C687 C 0.99480 0.39741 0.41856
 C688 C 0.95725 0.43561 0.41561
 C689 C 0.91197 0.44760 0.36979
 C690 C 0.90201 0.42157 0.32906
 C691 C 0.90515 0.35380 0.29941
 C692 C 0.87101 0.32694 0.27631
 H693 H 1.01026 0.34166 0.38223
 H694 H 1.03249 0.38708 0.45194
 H695 H 0.88368 0.47698 0.36524
 H696 H 0.86283 0.43059 0.29511
 C697 C 0.42697 0.11881 0.66676
 C698 C 0.38963 0.08103 0.67158
 C699 C 0.39711 0.05495 0.63099
 C700 C 0.44367 0.06620 0.58534
 C701 C 0.48502 0.10381 0.58251
 C702 C 0.47597 0.13003 0.62272
 C703 C 0.39505 0.14859 0.70034
 C704 C 0.35968 0.17524 0.72291
 H705 H 0.34954 0.07255 0.70533
 H706 H 0.36627 0.02598 0.63571
 H707 H 0.52490 0.11333 0.54955
 H708 H 0.50405 0.15957 0.61866
 C709 C 0.56313 0.61593 0.83406
 C710 C 0.51795 0.62825 0.87862
 C711 C 0.50885 0.60263 0.91940
 C712 C 0.54518 0.56429 0.91641
 C713 C 0.58805 0.55186 0.87036
 C714 C 0.59673 0.57759 0.82933
 C715 C 0.59466 0.64517 0.79958
 C716 C 0.62846 0.67200 0.77660
 H717 H 0.49320 0.65824 0.88266
 H718 H 0.47285 0.61324 0.95296
 H719 H 0.61535 0.52234 0.86581
 H720 H 0.63414 0.56828 0.79514
 C721 C 0.45611 0.35611 0.88194
 C722 C 0.53324 0.38116 0.87143
 C723 C 0.55839 0.41022 0.90655
 C724 C 0.50471 0.41535 0.95190
 C725 C 0.43156 0.38801 0.96321
 C726 C 0.40994 0.35784 0.92925
 C727 C 0.41476 0.33196 0.84285
 C728 C 0.37221 0.31092 0.81366
 H729 H 0.56987 0.37984 0.83496
 H730 H 0.61381 0.43092 0.89572
 H731 H 0.38562 0.39157 0.99623
 H732 H 0.35088 0.33802 0.93794
 C733 C 0.96498 0.14451 0.11814
 C734 C 1.04104 0.11891 0.12838
 C735 C 1.06293 0.08942 0.09340
 C736 C 1.00657 0.08429 0.04868
 C737 C 0.93402 0.11194 0.03785
 C738 C 0.91648 0.14275 0.07131
 C739 C 0.92621 0.16913 0.15717
 C740 C 0.88471 0.19055 0.18601
 H741 H 1.07943 0.12022 0.16451
 H742 H 1.11807 0.06851 0.10392
 H743 H 0.88579 0.10835 0.00555
 H744 H 0.85871 0.16318 0.06271
 C745 C 0.50434 0.85525 0.62894
 C746 C 0.51115 0.84939 0.57619
 C747 C 0.49005 0.88009 0.54266
 C748 C 0.46656 0.91722 0.56185
 C749 C 0.44493 0.92029 0.61462
 C750 C 0.46513 0.88970 0.64794
 C751 C 0.55300 0.82929 0.66297
 C752 C 0.60088 0.80772 0.68871
 H753 H 0.53836 0.82197 0.56114
 H754 H 0.49452 0.87480 0.50235
 H755 H 0.42007 0.94745 0.63136
 H756 H 0.45729 0.89409 0.68871
 C757 C 0.04574 0.64429 0.38088
 C758 C 0.09238 0.64272 0.42829
 C759 C 0.07196 0.61237 0.46218
 C760 C -0.00069 0.58478 0.45073
 C761 C -0.05444 0.58963 0.40515
 C762 C -0.03034 0.61879 0.37008
 C763 C 0.08588 0.66861 0.34183
 C764 C 0.12752 0.68974 0.31258
 H765 H 0.15099 0.66280 0.43708
 H766 H 0.11837 0.60891 0.49524
 H767 H -0.10880 0.56855 0.39402
 H768 H -0.06677 0.61981 0.33339
   
