data_POSCAR
  _audit_creation_date              2014-09-24
  _audit_creation_method            'ToBaCCo'
  _symmetry_space_group_name_H-M    'P1'
  _symmetry_Int_Tables_number       1
  _symmetry_cell_setting            triclinic
  loop_
  _symmetry_equiv_pos_as_xyz
 x,y,z
_cell_length_a 20.5718
_cell_length_b 19.5827
_cell_length_c 19.5771
_cell_angle_alpha 102.958700
_cell_angle_beta 98.666500
_cell_angle_gamma 89.625100
loop_
  _atom_site_label
  _atom_site_type_symbol
  _atom_site_fract_x
  _atom_site_fract_y
  _atom_site_fract_z
C1 C 0.64870 0.52877 0.01497
 C2 C 0.64631 0.60225 0.02699
 C3 C 0.58708 0.63838 0.02772
 C4 C 0.52775 0.59836 0.01981
 C5 C 0.52858 0.52367 0.00202
 C6 C 0.58877 0.48904 -0.00367
 C7 C 0.58674 0.41606 -0.03168
 C8 C 0.52894 0.37650 -0.04148
 C9 C 0.47004 0.40867 -0.02693
 C10 C 0.46904 0.48322 -0.00920
 C11 C 0.46885 0.63003 0.03580
 C12 C 0.41111 0.59036 0.02647
 C13 C 0.40889 0.51745 -0.00171
 C14 C 0.34914 0.47715 -0.01739
 C15 C 0.35225 0.40367 -0.02870
 C16 C 0.41153 0.36873 -0.03263
 H17 H 0.62953 0.38859 -0.04790
 H18 H 0.53075 0.32061 -0.06222
 H19 H 0.46721 0.68536 0.05917
 H20 H 0.36876 0.61756 0.04432
 H21 H 0.69191 0.63217 0.03628
 H22 H 0.30751 0.37217 -0.03739
 C23 C 0.06511 0.62180 0.47521
 C24 C 0.07821 0.58707 0.40800
 C25 C 0.06453 0.51460 0.38226
 C26 C 0.04666 0.47645 0.43053
 C27 C 0.02180 0.51250 0.49153
 C28 C 0.03165 0.58554 0.51484
 C29 C 0.00654 0.62011 0.57609
 C30 C -0.02827 0.58328 0.61256
 C31 C -0.04130 0.51077 0.58795
 C32 C -0.01421 0.47508 0.52803
 C33 C 0.05217 0.40351 0.42018
 C34 C 0.01591 0.36616 0.45456
 C35 C -0.02216 0.40161 0.50468
 C36 C -0.06496 0.36534 0.53466
 C37 C -0.09137 0.40029 0.59406
 C38 C -0.07808 0.47200 0.62267
 H39 H 0.01183 0.67623 0.59576
 H40 H -0.04535 0.61309 0.65939
 H41 H 0.08193 0.37474 0.38282
 H42 H 0.01793 0.30957 0.44137
 H43 H 0.09706 0.61792 0.37554
 H44 H -0.12024 0.37076 0.62017
 C45 C 0.58875 -0.00229 0.64132
 C46 C 0.64683 -0.01500 0.61077
 C47 C 0.64702 -0.02882 0.53724
 C48 C 0.58720 -0.02206 0.49202
 C49 C 0.52805 -0.00602 0.52112
 C50 C 0.52850 0.00317 0.59567
 C51 C 0.46968 0.02309 0.62234
 C52 C 0.41132 0.02804 0.57776
 C53 C 0.40955 0.02032 0.50446
 C54 C 0.46862 0.00357 0.47565
 C55 C 0.58568 -0.02541 0.41913
 C56 C 0.52753 -0.01968 0.37473
 C57 C 0.46846 -0.00364 0.40153
 C58 C 0.40916 0.00477 0.35649
 C59 C 0.35125 0.01929 0.38628
 C60 C 0.35040 0.02851 0.45920
 H61 H 0.46753 0.03779 0.67825
 H62 H 0.36775 0.03900 0.60241
 H63 H 0.62975 -0.03030 0.39498
 H64 H 0.53036 -0.02755 0.31902
 H65 H 0.69230 -0.02148 0.64437
 H66 H 0.30605 0.02584 0.35219
 O67 O 0.49223 -0.03082 -0.11723
 O68 O 0.41482 -0.02349 0.04369
 O69 O 0.41780 0.05765 -0.04788
 O70 O 0.48924 -0.11191 -0.02581
 O71 O 0.57578 -0.05331 0.04176
 O72 O 0.50439 0.11570 0.02015
 O73 O 0.50139 0.03475 0.11155
 O74 O 0.57888 0.02694 -0.04905
 Cu75 Cu 0.44472 -0.03261 -0.04332
 Cu76 Cu 0.54869 0.03665 0.03770
 C77 C 0.54863 -0.00172 -0.11032
 C78 C 0.44538 0.00493 0.10491
 C79 C 0.44939 0.11512 -0.01941
 C80 C 0.54464 -0.11099 0.01323
 O81 O -0.08739 0.54748 1.03771
 O82 O 0.08032 0.57090 1.00472
 O83 O -0.03775 0.56960 0.93304
 O84 O 0.02844 0.54658 1.11238
 O85 O 0.02945 0.43209 1.06941
 O86 O -0.02892 0.45553 0.89276
 O87 O 0.08635 0.45593 0.96886
 O88 O -0.08341 0.43291 0.99617
 Cu89 Cu -0.00372 0.57061 1.02663
 Cu90 Cu 0.00184 0.43253 0.97706
 C91 C -0.11419 0.48669 1.02142
 C92 C 0.11208 0.51703 0.98213
 C93 C -0.04512 0.51541 0.88265
 C94 C 0.03745 0.48463 1.12117
 O95 O 0.01962 -0.11139 0.45028
 O96 O -0.03735 0.06284 0.43501
 O97 O 0.07804 0.00208 0.44253
 O98 O -0.09389 -0.05244 0.44224
 O99 O -0.08156 -0.01627 0.55882
 O100 O 0.09023 0.04064 0.55888
 O101 O -0.02391 0.09778 0.55185
 O102 O 0.03542 -0.07552 0.56708
 Cu103 Cu -0.00975 -0.02799 0.43075
 Cu104 Cu 0.00638 0.01466 0.57102
 C105 C 0.03853 -0.12247 0.51138
 C106 C -0.04131 0.10948 0.49075
 C107 C 0.11363 0.02998 0.50098
 C108 C -0.11740 -0.04259 0.49998
 N109 N -0.21006 0.42442 1.04535
 N110 N -0.27708 0.43662 1.04351
 C111 C -0.28917 0.49789 1.02347
 C112 C -0.23009 0.52695 1.01573
 C113 C -0.18282 0.47955 1.02894
 H114 H -0.22215 0.57464 0.99857
 H115 H -0.18626 0.38063 1.05808
 H116 H -0.30946 0.40597 1.06111
 N117 N 0.20627 0.58006 0.95600
 N118 N 0.27321 0.56851 0.95604
 C119 C 0.28667 0.50746 0.97605
 C120 C 0.22850 0.47787 0.98560
 C121 C 0.18037 0.52482 0.97350
 H122 H 0.22179 0.42997 1.00288
 H123 H 0.18158 0.62344 0.94342
 H124 H 0.30445 0.59930 0.93717
 N125 N 0.10183 -0.20360 0.57541
 N126 N 0.11144 -0.27166 0.56442
 C127 C 0.07990 -0.30260 0.49945
 C128 C 0.05033 -0.25236 0.46691
 C129 C 0.06450 -0.19062 0.51734
 H130 H 0.01773 -0.26040 0.41677
 H131 H 0.11869 -0.16738 0.62266
 H132 H 0.13572 -0.29673 0.60237
 N133 N -0.09364 0.19445 0.42398
 N134 N -0.10237 0.26270 0.43658
 C135 C -0.08053 0.29047 0.50566
 C136 C -0.05778 0.23797 0.53880
 C137 C -0.06600 0.17819 0.48489
 H138 H -0.03214 0.24359 0.59236
 H139 H -0.10349 0.16056 0.37395
 H140 H -0.11871 0.29021 0.39758
 N141 N 0.63888 0.03080 -0.16947
 N142 N 0.64922 0.03136 -0.23810
 C143 C 0.59476 0.00424 -0.28378
 C144 C 0.54983 -0.01661 -0.24448
 C145 C 0.57893 0.00193 -0.17351
 H146 H 0.50261 -0.04334 -0.26428
 H147 H 0.67171 0.05179 -0.12346
 H148 H 0.69075 0.05412 -0.24980
 N149 N 0.36208 -0.03913 0.16610
 N150 N 0.35391 -0.04071 0.23143
 C151 C 0.40343 -0.00379 0.27774
 C152 C 0.44422 0.02417 0.23932
 C153 C 0.41670 -0.00057 0.16859
 H154 H 0.48827 0.05673 0.25958
 H155 H 0.33157 -0.06594 0.12052
 H156 H 0.31568 -0.06829 0.24382
 N157 N 0.63261 -0.17823 0.06725
 N158 N 0.64381 -0.24725 0.07228
 C159 C 0.59070 -0.28735 0.03681
 C160 C 0.54509 -0.24406 0.00771
 C161 C 0.57338 -0.17656 0.02800
 H162 H 0.49849 -0.25960 -0.02604
 H163 H 0.66506 -0.13586 0.09095
 H164 H 0.68529 -0.26254 0.10239
 N165 N 0.36855 0.18395 -0.08250
 N166 N 0.35994 0.24962 -0.08769
 C167 C 0.40871 0.29060 -0.04430
 C168 C 0.45004 0.24850 -0.00921
 C169 C 0.42274 0.18113 -0.03526
 H170 H 0.49328 0.26459 0.03008
 H171 H 0.33795 0.14175 -0.11159
 H172 H 0.32125 0.26577 -0.12097
 N173 N -0.22362 -0.10356 0.44143
 N174 N -0.28946 -0.09878 0.45092
 C175 C -0.29333 -0.05074 0.51147
 C176 C -0.22948 -0.02714 0.54355
 C177 C -0.18776 -0.05997 0.49710
 H178 H -0.21567 0.01329 0.59128
 H179 H -0.20649 -0.13384 0.39699
 H180 H -0.32759 -0.13038 0.41785
 N181 N 0.21735 0.10038 0.55199
 N182 N 0.27929 0.10031 0.54119
 C183 C 0.28673 0.04745 0.48566
 C184 C 0.22571 0.01428 0.45809
 C185 C 0.18329 0.04895 0.50242
 H186 H 0.21453 -0.03077 0.41426
 H187 H 0.19890 0.13517 0.59282
 H188 H 0.31568 0.13609 0.57158
 N189 N 0.02698 0.41143 1.20409
 N190 N 0.03028 0.42059 1.27673
 C191 C 0.05974 0.48383 1.30857
 C192 C 0.07233 0.51715 1.25543
 C193 C 0.05033 0.47042 1.19172
 H194 H 0.08991 0.57031 1.26105
 H195 H 0.00116 0.37025 1.16671
 H196 H 0.00160 0.38931 1.29775
 N197 N -0.10747 0.57254 0.79156
 N198 N -0.11913 0.55940 0.72142
 C199 C -0.08975 0.49924 0.69591
 C200 C -0.06010 0.47215 0.75131
 C201 C -0.07140 0.52035 0.81069
 H202 H -0.02996 0.42634 0.74870
 H203 H -0.12316 0.61669 0.82521
 H204 H -0.14505 0.59204 0.69206
   
