data_POSCAR
  _audit_creation_date              2014-09-24
  _audit_creation_method            'ToBaCCo'
  _symmetry_space_group_name_H-M    'P1'
  _symmetry_Int_Tables_number       1
  _symmetry_cell_setting            triclinic
  loop_
  _symmetry_equiv_pos_as_xyz
 x,y,z
_cell_length_a 53.5327
_cell_length_b 53.4523
_cell_length_c 20.2752
_cell_angle_alpha 90.017400
_cell_angle_beta 89.988900
_cell_angle_gamma 120.099000
loop_
  _atom_site_label
  _atom_site_type_symbol
  _atom_site_fract_x
  _atom_site_fract_y
  _atom_site_fract_z
C1 C 0.19596 0.49774 0.44312
 C2 C 0.18210 0.49267 0.50437
 C3 C 0.19643 0.49652 0.56468
 C4 C 0.22580 0.50341 0.56368
 C5 C 0.24004 0.50685 0.50205
 C6 C 0.22528 0.50454 0.44162
 C7 C 0.23924 0.50590 0.38172
 C8 C 0.26665 0.50935 0.38044
 C9 C 0.28125 0.51093 0.43888
 C10 C 0.26831 0.51028 0.50060
 C11 C 0.24023 0.50353 0.62175
 C12 C 0.26771 0.50696 0.62024
 C13 C 0.28245 0.51041 0.56053
 C14 C 0.30926 0.51063 0.55771
 C15 C 0.32093 0.51088 0.49553
 C16 C 0.30752 0.51093 0.43699
 H17 H 0.22876 0.50247 0.33456
 H18 H 0.27579 0.50947 0.33273
 H19 H 0.22989 0.49901 0.66935
 H20 H 0.27613 0.50499 0.66693
 H21 H 0.15986 0.48787 0.50528
 H22 H 0.34117 0.51089 0.49192
 C23 C 0.48140 -0.31145 0.43980
 C24 C 0.48461 -0.32248 0.49923
 C25 C 0.48299 -0.31123 0.56068
 C26 C 0.47858 -0.28699 0.56178
 C27 C 0.47587 -0.27506 0.50099
 C28 C 0.47675 -0.28778 0.43997
 C29 C 0.47494 -0.27537 0.38050
 C30 C 0.47385 -0.25001 0.38020
 C31 C 0.47455 -0.23607 0.43935
 C32 C 0.47470 -0.24897 0.50068
 C33 C 0.48003 -0.27231 0.62052
 C34 C 0.47887 -0.24687 0.62022
 C35 C 0.47621 -0.23458 0.56115
 C36 C 0.47831 -0.20686 0.55938
 C37 C 0.47889 -0.19463 0.49765
 C38 C 0.47705 -0.20860 0.43852
 H39 H 0.47544 -0.28452 0.33328
 H40 H 0.47349 -0.24089 0.33282
 H41 H 0.48383 -0.27908 0.66766
 H42 H 0.48186 -0.23633 0.66720
 H43 H 0.48802 -0.34085 0.49697
 H44 H 0.48074 -0.17348 0.49489
 C45 C 1.20570 0.68634 0.55796
 C46 C 1.19417 0.67457 0.49581
 C47 C 1.20755 0.68812 0.43716
 C48 C 1.23365 0.71470 0.43896
 C49 C 1.24585 0.72781 0.50061
 C50 C 1.23208 0.71349 0.56061
 C51 C 1.24333 0.72838 0.62029
 C52 C 1.26704 0.75618 0.62167
 C53 C 1.28095 0.77083 0.56350
 C54 C 1.27031 0.75643 0.50192
 C55 C 1.24657 0.72938 0.38043
 C56 C 1.27020 0.75712 0.38156
 C57 C 1.28250 0.77135 0.44140
 C58 C 1.30441 0.80099 0.44285
 C59 C 1.31300 0.81490 0.50408
 C60 C 1.30283 0.80050 0.56438
 H61 H 1.23315 0.71984 0.66711
 H62 H 1.27288 0.76656 0.66927
 H63 H 1.23770 0.72002 0.33275
 H64 H 1.27725 0.76759 0.33437
 H65 H 1.17396 0.65421 0.49235
 H66 H 1.33009 0.83736 0.50498
 C67 C 0.69528 0.49494 0.44051
 C68 C 0.68394 0.49755 0.50019
 C69 C 0.69549 0.49622 0.56148
 C70 C 0.72058 0.49326 0.56218
 C71 C 0.73288 0.49133 0.50126
 C72 C 0.71979 0.49165 0.44041
 C73 C 0.73260 0.49064 0.38082
 C74 C 0.75852 0.49071 0.38028
 C75 C 0.77267 0.49177 0.43930
 C76 C 0.75956 0.49136 0.50071
 C77 C 0.73563 0.49544 0.62078
 C78 C 0.76161 0.49541 0.62025
 C79 C 0.77413 0.49325 0.56109
 C80 C 0.80215 0.49617 0.55927
 C81 C 0.81466 0.49750 0.49750
 C82 C 0.80050 0.49515 0.43837
 H83 H 0.72331 0.49091 0.33366
 H84 H 0.76786 0.49101 0.33278
 H85 H 0.72872 0.49901 0.66799
 H86 H 0.77238 0.49894 0.66708
 H87 H 0.66499 0.49997 0.49830
 H88 H 0.83596 0.49980 0.49470
 C89 C 0.52077 0.20762 0.44256
 C90 C 0.51972 0.19472 0.50315
 C91 C 0.51971 0.20778 0.56280
 C92 C 0.52071 0.23473 0.56234
 C93 C 0.52153 0.24811 0.50125
 C94 C 0.52187 0.23459 0.44105
 C95 C 0.52145 0.24746 0.38104
 C96 C 0.51962 0.27247 0.37981
 C97 C 0.51821 0.28566 0.43853
 C98 C 0.51983 0.27386 0.50016
 C99 C 0.51887 0.24758 0.62102
 C100 C 0.51713 0.27268 0.62013
 C101 C 0.51771 0.28651 0.56045
 C102 C 0.51329 0.31073 0.55827
 C103 C 0.51055 0.32092 0.49631
 C104 C 0.51337 0.30925 0.43722
 H105 H 0.52162 0.23783 0.33424
 H106 H 0.51834 0.28078 0.33207
 H107 H 0.51764 0.23773 0.66842
 H108 H 0.51379 0.27988 0.66717
 H109 H 0.51797 0.17359 0.50385
 H110 H 0.50701 0.33919 0.49335
 C111 C 0.79149 0.31324 0.44299
 C112 C 0.80368 0.32576 0.50362
 C113 C 0.79128 0.31202 0.56312
 C114 C 0.76556 0.28487 0.56254
 C115 C 0.75277 0.27175 0.50140
 C116 C 0.76571 0.28616 0.44130
 C117 C 0.75361 0.27236 0.38122
 C118 C 0.72989 0.24454 0.37985
 C119 C 0.71722 0.22946 0.43852
 C120 C 0.72835 0.24329 0.50019
 C121 C 0.75350 0.26970 0.62117
 C122 C 0.72970 0.24189 0.62017
 C123 C 0.71639 0.22810 0.56044
 C124 C 0.69340 0.19876 0.55826
 C125 C 0.68393 0.18549 0.49630
 C126 C 0.69489 0.20032 0.43716
 H127 H 0.76289 0.28263 0.33453
 H128 H 0.72225 0.23466 0.33205
 H129 H 0.76300 0.27885 0.66857
 H130 H 0.72319 0.23112 0.66714
 H131 H 0.82408 0.34601 0.50446
 H132 H 0.66651 0.16320 0.49338
 O133 O 0.95821 0.43717 0.12429
 O134 O 0.92719 0.44502 0.06115
 C135 C 0.93259 0.43199 0.10831
 O136 O 1.04382 0.56486 0.11447
 O137 O 1.07463 0.55480 0.05657
 C138 C 1.06943 0.56969 0.09936
 O139 O 0.96326 0.52575 0.12066
 O140 O 0.92970 0.48751 0.05922
 C141 C 0.93687 0.50684 0.10511
 O142 O 1.03821 0.47149 0.11850
 O143 O 1.07202 0.51017 0.05860
 C144 C 1.06464 0.49016 0.10298
 Zr145 Zr 0.99892 0.46703 0.08478
 O146 O 1.00192 0.46775 0.18893
 O147 O 0.99325 0.42486 0.08253
 Zr148 Zr 1.00273 0.53210 0.08210
 O149 O 1.00592 0.53553 0.18613
 O150 O 1.00178 0.57119 0.07632
 O151 O 0.97520 0.48793 0.09668
 O152 O 1.02581 0.51106 0.09590
 O153 O 1.03832 0.47008 -0.11260
 O154 O 1.07209 0.50952 -0.05454
 C155 C 1.06477 0.48896 -0.09747
 O156 O 0.96332 0.52392 -0.12279
 O157 O 0.92956 0.48685 -0.05908
 C158 C 0.93688 0.50551 -0.10661
 O159 O 1.04357 0.56296 -0.11681
 O160 O 1.07468 0.55415 -0.05663
 C161 C 1.06924 0.56819 -0.10131
 O162 O 0.95815 0.43556 -0.11877
 O163 O 0.92720 0.44427 -0.05764
 C164 C 0.93254 0.43064 -0.10344
 Zr165 Zr 0.99892 0.46593 -0.08011
 O166 O 1.00189 0.46521 -0.18413
 O167 O 0.99327 0.42382 -0.07412
 Zr168 Zr 1.00268 0.53096 -0.08275
 O169 O 1.00577 0.53352 -0.18684
 O170 O 1.00172 0.57009 -0.07963
 Zr171 Zr 0.95736 0.47913 0.00090
 Zr172 Zr 1.04426 0.51886 0.00100
 O173 O 1.02575 0.50978 -0.09390
 O174 O 0.97518 0.48665 -0.09481
 O175 O 1.02475 0.47338 0.00260
 O176 O 0.97747 0.52453 -0.00058
 O177 O 0.97315 0.45016 0.00250
 O178 O 1.02913 0.54851 -0.00058
 H179 H 1.03841 0.51708 0.13537
 H180 H 0.96505 0.53339 -0.00128
 H181 H 1.03830 0.51524 -0.13342
 H182 H 0.95900 0.42914 0.00313
 H183 H 1.01973 0.58572 0.05424
 H184 H 1.02008 0.58510 -0.05989
 H185 H 0.99157 0.51429 -0.20437
 H186 H 0.98822 0.47071 -0.20260
 H187 H 1.01063 0.42543 -0.05275
 H188 H 1.01045 0.42611 0.06115
 H189 H 0.98832 0.47359 0.20624
 H190 H 0.99084 0.51688 0.20449
 O191 O 0.52341 0.56398 -0.12064
 O192 O 0.48473 0.55729 -0.05830
 C193 C 0.50354 0.57005 -0.10494
 O194 O 0.47767 0.43618 -0.11622
 O195 O 0.51758 0.44413 -0.05708
 C196 C 0.49771 0.43029 -0.10113
 O197 O 0.43893 0.47767 -0.12275
 O198 O 0.44368 0.51539 -0.05928
 C199 C 0.43185 0.49680 -0.10680
 O200 O 0.56695 0.52730 -0.11432
 O201 O 0.56014 0.48763 -0.05562
 C202 C 0.57370 0.50786 -0.09913
 Zr203 Zr 0.53283 0.53311 -0.08121
 O204 O 0.53652 0.53375 -0.18520
 O205 O 0.57020 0.57464 -0.07548
 Zr206 Zr 0.47015 0.46914 -0.08235
 O207 O 0.46973 0.46562 -0.18632
 O208 O 0.42929 0.43088 -0.07739
 O209 O 0.48839 0.51360 -0.09523
 O210 O 0.51432 0.48906 -0.09434
 O211 O 0.56660 0.52695 0.11678
 O212 O 0.55978 0.48740 0.05744
 C213 C 0.57329 0.50749 0.10122
 O214 O 0.43749 0.47652 0.12109
 O215 O 0.44342 0.51509 0.05919
 C216 C 0.43082 0.49598 0.10532
 O217 O 0.47654 0.43508 0.11506
 O218 O 0.51680 0.44356 0.05660
 C219 C 0.49663 0.42929 0.09971
 O220 O 0.52304 0.56375 0.12267
 O221 O 0.48435 0.55682 0.05996
 C222 C 0.50308 0.56965 0.10665
 Zr223 Zr 0.53237 0.53269 0.08365
 O224 O 0.53482 0.53211 0.18778
 O225 O 0.56982 0.57422 0.08064
 Zr226 Zr 0.46966 0.46873 0.08251
 O227 O 0.46989 0.46587 0.18661
 O228 O 0.42884 0.43043 0.07821
 Zr229 Zr 0.47892 0.52205 0.00045
 Zr230 Zr 0.52353 0.47977 0.00056
 O231 O 0.51381 0.48851 0.09551
 O232 O 0.48781 0.51315 0.09627
 O233 O 0.55085 0.52510 0.00129
 O234 O 0.45231 0.47678 -0.00013
 O235 O 0.52396 0.54987 0.00123
 O236 O 0.47847 0.45126 -0.00005
 H237 H 0.52088 0.48313 -0.13399
 H238 H 0.43110 0.46860 -0.00059
 H239 H 0.52019 0.48225 0.13489
 H240 H 0.53153 0.57102 0.00139
 H241 H 0.43220 0.41536 -0.05915
 H242 H 0.43141 0.41554 0.05521
 H243 H 0.47384 0.48471 0.20455
 H244 H 0.51568 0.52725 0.20531
 H245 H 0.58524 0.57231 0.05846
 H246 H 0.58583 0.57237 -0.05560
 H247 H 0.51729 0.52803 -0.20366
 H248 H 0.47642 0.48514 -0.20444
 O249 O 0.52043 -0.04160 0.12082
 O250 O 0.48078 -0.07289 0.05975
 C251 C 0.49979 -0.06734 0.10555
 O252 O 0.47763 0.04321 0.11779
 O253 O 0.51762 0.07430 0.05745
 C254 C 0.49810 0.06892 0.10190
 O255 O 0.43675 -0.03730 0.12427
 O256 O 0.44053 -0.07093 0.06121
 C257 C 0.42900 -0.06372 0.10842
 O258 O 0.56602 0.03878 0.11380
 O259 O 0.55970 0.07210 0.05573
 C260 C 0.57319 0.06515 0.09859
 Zr261 Zr 0.53067 -0.00086 0.08180
 O262 O 0.53485 0.00185 0.18573
 O263 O 0.56819 -0.00414 0.07109
 Zr264 Zr 0.46909 0.00222 0.08441
 O265 O 0.47007 0.00550 0.18852
 O266 O 0.42885 0.00083 0.08197
 O267 O 0.48617 -0.02497 0.09656
 O268 O 0.51340 0.02569 0.09540
 O269 O 0.56435 0.03833 -0.11674
 O270 O 0.55905 0.07199 -0.05740
 C271 C 0.57184 0.06477 -0.10165
 O272 O 0.43509 -0.03767 -0.11888
 O273 O 0.43973 -0.07111 -0.05710
 C274 C 0.42753 -0.06406 -0.10309
 O275 O 0.47620 0.04297 -0.11354
 O276 O 0.51689 0.07417 -0.05533
 C277 C 0.49687 0.06872 -0.09844
 O278 O 0.51891 -0.04180 -0.12187
 O279 O 0.48015 -0.07320 -0.05868
 C280 C 0.49866 -0.06757 -0.10581
 Zr281 Zr 0.52952 -0.00111 -0.08297
 O282 O 0.53166 0.00174 -0.18715
 O283 O 0.56647 -0.00588 -0.08080
 Zr284 Zr 0.46800 0.00200 -0.08056
 O285 O 0.46757 0.00500 -0.18459
 O286 O 0.42783 0.00065 -0.07466
 Zr287 Zr 0.47590 -0.04300 0.00097
 Zr288 Zr 0.52265 0.04402 0.00035
 O289 O 0.51213 0.02544 -0.09443
 O290 O 0.48488 -0.02526 -0.09491
 O291 O 0.54885 0.02494 -0.00096
 O292 O 0.45041 -0.02321 0.00232
 O293 O 0.52073 -0.02683 -0.00052
 O294 O 0.47782 0.02850 0.00194
 H295 H 0.52046 0.03834 0.13480
 H296 H 0.42913 -0.03578 0.00303
 H297 H 0.51868 0.03801 -0.13399
 H298 H 0.52778 -0.04080 -0.00098
 H299 H 0.43191 0.01879 0.06058
 H300 H 0.43123 0.01878 -0.05347
 H301 H 0.47161 -0.00976 -0.20286
 H302 H 0.51232 -0.01227 -0.20438
 H303 H 0.58115 0.00985 -0.05298
 H304 H 0.57491 -0.00453 0.11641
 H305 H 0.51540 -0.01075 0.20437
 H306 H 0.47417 -0.00932 0.20604
 C307 C 1.14517 0.49150 0.28315
 N308 N 1.17397 0.51069 0.28196
 N309 N 1.19067 0.51242 0.33271
 C310 C 1.17924 0.49515 0.38664
 N311 N 1.15033 0.47632 0.38750
 N312 N 1.13374 0.47439 0.33682
 C313 C 1.12578 0.48992 0.23009
 N314 N 1.13426 0.51083 0.18320
 N315 N 1.11518 0.51044 0.14013
 C316 C 1.08705 0.48905 0.14244
 N317 N 1.07891 0.46793 0.18837
 N318 N 1.09786 0.46836 0.23127
 C319 C 0.49355 0.64741 0.27786
 N320 N 0.51482 0.66171 0.32279
 N321 N 0.51119 0.67575 0.37261
 C322 C 0.48620 0.67618 0.37929
 N323 N 0.46493 0.66213 0.33400
 N324 N 0.46857 0.64801 0.28401
 C325 C 0.49684 0.62935 0.22806
 N326 N 0.47555 0.61348 0.18402
 N327 N 0.47786 0.59509 0.14342
 C328 C 0.50147 0.59186 0.14579
 N329 N 0.52282 0.60800 0.18923
 N330 N 0.52058 0.62642 0.22945
 C331 C 0.34926 -0.14652 0.28522
 N332 N 0.34006 -0.17526 0.28276
 N333 N 0.32477 -0.19261 0.33249
 C334 C 0.31820 -0.18189 0.38657
 N335 N 0.32765 -0.15309 0.38836
 N336 N 0.34263 -0.13587 0.33878
 C337 C 0.36774 -0.12630 0.23400
 N338 N 0.37483 -0.09820 0.23834
 N339 N 0.39364 -0.07866 0.19669
 C340 C 0.40617 -0.08640 0.14892
 N341 N 0.39881 -0.11464 0.14362
 N342 N 0.37987 -0.13431 0.18551
 C343 C 0.85238 0.50389 0.27588
 N344 N 0.82588 0.47990 0.28212
 N345 N 0.80859 0.47746 0.33216
 C346 C 0.81719 0.49899 0.37744
 N347 N 0.84353 0.52301 0.37063
 N348 N 0.86073 0.52545 0.32076
 C349 C 0.87313 0.50565 0.22609
 N350 N 0.90058 0.52829 0.22725
 N351 N 0.92057 0.52898 0.18712
 C352 C 0.91388 0.50711 0.14400
 N353 N 0.88629 0.48463 0.14187
 N354 N 0.86626 0.48387 0.18236
 C355 C 0.50281 0.34996 0.27197
 N356 N 0.52740 0.34870 0.27937
 N357 N 0.53047 0.33472 0.33047
 C358 C 0.50904 0.32151 0.37582
 N359 N 0.48446 0.32264 0.36801
 N360 N 0.48137 0.33649 0.31700
 C361 C 0.50021 0.36797 0.22070
 N362 N 0.47638 0.37072 0.21913
 N363 N 0.47488 0.38941 0.17836
 C364 C 0.49710 0.40602 0.13723
 N365 N 0.52078 0.40289 0.13762
 N366 N 0.52232 0.38419 0.17872
 C367 C 0.65394 0.14919 0.27155
 N368 N 0.65588 0.17539 0.27868
 N369 N 0.66993 0.19234 0.32989
 C370 C 0.68261 0.18371 0.37563
 N371 N 0.68080 0.15763 0.36809
 N372 N 0.66682 0.14075 0.31699
 C373 C 0.63572 0.12879 0.22012
 N374 N 0.63161 0.10160 0.21930
 N375 N 0.61259 0.08174 0.17829
 C376 C 0.59703 0.08832 0.13619
 N377 N 0.60155 0.11571 0.13588
 N378 N 0.62055 0.13560 0.17717
 C379 C 0.50682 0.15512 -0.27318
 N380 N 0.48642 0.14705 -0.32083
 N381 N 0.49033 0.16431 -0.37175
 C382 C 0.51472 0.19045 -0.37685
 N383 N 0.53512 0.19879 -0.32893
 N384 N 0.53125 0.18139 -0.27795
 C385 C 0.50325 0.13433 -0.22140
 N386 N 0.52470 0.13991 -0.17774
 N387 N 0.52225 0.11947 -0.13603
 C388 C 0.49826 0.09277 -0.13657
 N389 N 0.47668 0.08748 -0.17936
 N390 N 0.47910 0.10785 -0.22081
 C391 C 0.65217 0.50419 -0.27810
 N392 N 0.66453 0.48740 -0.27337
 N393 N 0.67923 0.48521 -0.32425
 C394 C 0.68187 0.49946 -0.38186
 N395 N 0.66909 0.51587 -0.38602
 N396 N 0.65484 0.51839 -0.33527
 C397 C 0.63484 0.50650 -0.22477
 N398 N 0.62844 0.52800 -0.22768
 N399 N 0.61003 0.52894 -0.18525
 C400 C 0.59711 0.50837 -0.13815
 N401 N 0.60386 0.48703 -0.13410
 N402 N 0.62251 0.48616 -0.17663
 C403 C 0.84497 0.35361 -0.27577
 N404 N 0.81890 0.35207 -0.28048
 N405 N 0.80105 0.33785 -0.33033
 C406 C 0.80874 0.32471 -0.37700
 N407 N 0.83463 0.32609 -0.37184
 N408 N 0.85235 0.34016 -0.32211
 C409 C 0.86630 0.37154 -0.22561
 N410 N 0.89282 0.37411 -0.22654
 N411 N 0.91349 0.39229 -0.18599
 C412 C 0.90848 0.40861 -0.14265
 N413 N 0.88179 0.40577 -0.14074
 N414 N 0.86105 0.38756 -0.18163
 C415 C 0.48852 -0.15313 -0.28364
 N416 N 0.50173 -0.14249 -0.34218
 N417 N 0.49845 -0.16008 -0.39171
 C418 C 0.48221 -0.18923 -0.38502
 N419 N 0.46894 -0.19999 -0.32600
 N420 N 0.47193 -0.18226 -0.27622
 C421 C 0.49208 -0.13250 -0.23161
 N422 N 0.47317 -0.13955 -0.18067
 N423 N 0.47548 -0.11919 -0.13868
 C424 C 0.49683 -0.09121 -0.14632
 N425 N 0.51588 -0.08450 -0.19643
 N426 N 0.51352 -0.10468 -0.23823
 C427 C 0.35527 0.50350 -0.28667
 N428 N 0.34110 0.51843 -0.27834
 N429 N 0.32572 0.52054 -0.32779
 C430 C 0.32413 0.50801 -0.38736
 N431 N 0.33878 0.49355 -0.39504
 N432 N 0.35376 0.49114 -0.34586
 C433 C 0.37277 0.50071 -0.23466
 N434 N 0.38095 0.48066 -0.24227
 N435 N 0.39896 0.47903 -0.19987
 C436 C 0.40970 0.49749 -0.14813
 N437 N 0.40128 0.51744 -0.13960
 N438 N 0.38302 0.51898 -0.18216
 C439 C 1.15330 0.64149 -0.28407
 N440 N 1.18247 0.65543 -0.27691
 N441 N 1.19970 0.67021 -0.32732
 C442 C 1.18844 0.67140 -0.38675
 N443 N 1.15926 0.65673 -0.39349
 N444 N 1.14213 0.64238 -0.34329
 C445 C 1.13328 0.62533 -0.23031
 N446 N 1.10574 0.61984 -0.23464
 N447 N 1.08598 0.60275 -0.19120
 C448 C 1.09282 0.59024 -0.14166
 N449 N 1.12057 0.59604 -0.13628
 N450 N 1.14054 0.61345 -0.17980
 C451 C 0.85464 0.50319 -0.28378
 N452 N 0.86576 0.51736 -0.34116
 N453 N 0.84859 0.51528 -0.39058
 C454 C 0.81940 0.49930 -0.38491
 N455 N 0.80818 0.48517 -0.32695
 N456 N 0.82547 0.48698 -0.27733
 C457 C 0.87472 0.50489 -0.23226
 N458 N 0.86630 0.48574 -0.18145
 N459 N 0.88585 0.48621 -0.13963
 C460 C 0.91438 0.50590 -0.14728
 N461 N 0.92251 0.52522 -0.19733
 N462 N 0.90312 0.52469 -0.23896
 C463 C 0.50486 0.35444 -0.28259
 N464 N 0.49013 0.35087 -0.33937
 N465 N 0.49290 0.33663 -0.38985
 C466 C 0.51013 0.32477 -0.38575
 N467 N 0.52505 0.32850 -0.32869
 N468 N 0.52257 0.34314 -0.27809
 C469 C 0.50191 0.37134 -0.22916
 N470 N 0.52200 0.38390 -0.18064
 N471 N 0.52028 0.40187 -0.13739
 C472 C 0.49829 0.40764 -0.14107
 N473 N 0.47800 0.39450 -0.18862
 N474 N 0.47979 0.37678 -0.23176
 C475 C 0.64969 0.14651 -0.28264
 N476 N 0.65394 0.13537 -0.33869
 N477 N 0.66829 0.15241 -0.38912
 C478 C 0.67953 0.18151 -0.38567
 N479 N 0.67514 0.19266 -0.32931
 N480 N 0.66045 0.17551 -0.27880
 C481 C 0.63227 0.12672 -0.22959
 N482 N 0.62056 0.13498 -0.18065
 N483 N 0.60218 0.11560 -0.13746
 C484 C 0.59509 0.08739 -0.14160
 N485 N 0.60735 0.07945 -0.18961
 N486 N 0.62553 0.09869 -0.23270
 C487 C 1.14612 0.48868 -0.27307
 N488 N 1.13463 0.47188 -0.32715
 N489 N 1.15115 0.47410 -0.37822
 C490 C 1.18007 0.49288 -0.37746
 N491 N 1.19168 0.50958 -0.32274
 N492 N 1.17502 0.50761 -0.27159
 C493 C 1.12658 0.48736 -0.22045
 N494 N 1.13485 0.50862 -0.17450
 N495 N 1.11553 0.50867 -0.13279
 C496 C 1.08735 0.48741 -0.13556
 N497 N 1.07940 0.46594 -0.18048
 N498 N 1.09858 0.46593 -0.22204
 C499 C 0.49473 0.64662 -0.28169
 N500 N 0.50883 0.65035 -0.33944
 N501 N 0.50521 0.66439 -0.38906
 C502 C 0.48768 0.67585 -0.38325
 N503 N 0.47364 0.67230 -0.32490
 N504 N 0.47700 0.65784 -0.27508
 C505 C 0.49812 0.62928 -0.23001
 N506 N 0.47906 0.61727 -0.17938
 N507 N 0.48109 0.59900 -0.13768
 C508 C 0.50229 0.59224 -0.14523
 N509 N 0.52151 0.60472 -0.19505
 N510 N 0.51943 0.62278 -0.23659
 C511 C 0.34560 -0.14764 -0.27560
 N512 N 0.33632 -0.17642 -0.27327
 N513 N 0.32134 -0.19369 -0.32348
 C514 C 0.31528 -0.18280 -0.37803
 N515 N 0.32455 -0.15403 -0.37937
 N516 N 0.33915 -0.13692 -0.32929
 C517 C 0.36438 -0.12731 -0.22469
 N518 N 0.37140 -0.09922 -0.22898
 N519 N 0.39079 -0.07948 -0.18855
 C520 C 0.40406 -0.08696 -0.14211
 N521 N 0.39676 -0.11520 -0.13676
 N522 N 0.37724 -0.13507 -0.17744
 C523 C 0.48918 -0.15528 0.27658
 N524 N 0.46406 -0.18084 0.28306
 N525 N 0.46041 -0.19866 0.33297
 C526 C 0.48181 -0.19151 0.37785
 N527 N 0.50691 -0.16614 0.37083
 N528 N 0.51056 -0.14843 0.32108
 C529 C 0.49261 -0.13381 0.22681
 N530 N 0.51674 -0.10731 0.22746
 N531 N 0.51925 -0.08652 0.18729
 C532 C 0.49776 -0.09141 0.14462
 N533 N 0.47373 -0.11808 0.14301
 N534 N 0.47117 -0.13892 0.18355
 C535 C 0.35012 0.50126 0.27484
 N536 N 0.34818 0.52556 0.28101
 N537 N 0.33344 0.52832 0.33087
 C538 C 0.32009 0.50681 0.37601
 N539 N 0.32180 0.48248 0.36925
 N540 N 0.33643 0.47972 0.31955
 C541 C 0.36899 0.49905 0.22540
 N542 N 0.37303 0.47595 0.22670
 N543 N 0.39215 0.47472 0.18695
 C544 C 0.40792 0.49649 0.14406
 N545 N 0.40359 0.51946 0.14179
 N546 N 0.38450 0.52076 0.18192
 C547 C 1.15607 0.64747 0.27213
 N548 N 1.18141 0.64775 0.28053
 N549 N 1.19856 0.66161 0.33166
 C550 C 1.19089 0.67563 0.37602
 N551 N 1.16573 0.67550 0.36722
 N552 N 1.14871 0.66178 0.31619
 C553 C 1.13529 0.62978 0.22071
 N554 N 1.10922 0.62820 0.21818
 N555 N 1.08878 0.60991 0.17726
 C556 C 1.09361 0.59253 0.13689
 N557 N 1.11992 0.59448 0.13824
 N558 N 1.14041 0.61278 0.17950
 C559 C 0.50888 0.15483 0.27924
 N560 N 0.48822 0.14679 0.32626
 N561 N 0.49194 0.16400 0.37719
 C562 C 0.51642 0.19002 0.38297
 N563 N 0.53713 0.19829 0.33579
 N564 N 0.53343 0.18095 0.28478
 C565 C 0.50524 0.13421 0.22698
 N566 N 0.52667 0.13981 0.18323
 N567 N 0.52401 0.11950 0.14077
 C568 C 0.49981 0.09294 0.14067
 N569 N 0.47827 0.08767 0.18357
 N570 N 0.48090 0.10790 0.22573
 C571 C 0.65289 0.50348 0.27596
 N572 N 0.65497 0.47932 0.28350
 N573 N 0.66929 0.47682 0.33460
 C574 C 0.68201 0.49841 0.37983
 N575 N 0.68000 0.52253 0.37198
 N576 N 0.66580 0.52504 0.32098
 C577 C 0.63478 0.50553 0.22423
 N578 N 0.63131 0.52897 0.22238
 N579 N 0.61259 0.52998 0.18093
 C580 C 0.59668 0.50766 0.13937
 N581 N 0.60053 0.48438 0.14007
 N582 N 0.61926 0.48333 0.18184
 C583 C 0.84556 0.35614 0.28316
 N584 N 0.81927 0.35416 0.28749
 N585 N 0.80141 0.33972 0.33718
 C586 C 0.80931 0.32685 0.38404
 N587 N 0.83545 0.32874 0.37932
 N588 N 0.85317 0.34302 0.32977
 C589 C 0.86675 0.37392 0.23266
 N590 N 0.89330 0.37659 0.23373
 N591 N 0.91382 0.39447 0.19253
 C592 C 0.90863 0.41035 0.14834
 N593 N 0.88190 0.40742 0.14631
 N594 N 0.86129 0.38951 0.18788
   
