data_POSCAR
  _audit_creation_date              2014-09-24
  _audit_creation_method            'ToBaCCo'
  _symmetry_space_group_name_H-M    'P1'
  _symmetry_Int_Tables_number       1
  _symmetry_cell_setting            triclinic
  loop_
  _symmetry_equiv_pos_as_xyz
 x,y,z
_cell_length_a 33.7091
_cell_length_b 33.7255
_cell_length_c 33.7238
_cell_angle_alpha 90.852400
_cell_angle_beta 88.888300
_cell_angle_gamma 88.858600
loop_
  _atom_site_label
  _atom_site_type_symbol
  _atom_site_fract_x
  _atom_site_fract_y
  _atom_site_fract_z
C1 C 0.57124 0.40000 -0.02323
 C2 C 0.59977 0.42840 -0.02426
 C3 C 0.58264 0.46272 -0.00764
 N4 N 0.54437 0.45641 0.00269
 C5 C 0.53745 0.41807 -0.00673
 C6 C 0.60242 0.49874 -0.00051
 C7 C 0.58068 0.53450 0.00771
 C8 C 0.59528 0.56707 0.02792
 C9 C 0.56624 0.59614 0.02764
 C10 C 0.53454 0.58068 0.00727
 N11 N 0.54326 0.54275 -0.00415
 C12 C 0.49913 0.60205 -0.00141
 C13 C 0.46341 0.58193 -0.00857
 C14 C 0.42974 0.59828 -0.02551
 C15 C 0.40132 0.56976 -0.02437
 C16 C 0.41877 0.53674 -0.00750
 N17 N 0.45672 0.54412 0.00205
 C18 C 0.39909 0.50126 0.00100
 C19 C 0.41975 0.46582 0.00999
 C20 C 0.40268 0.43252 0.02622
 C21 C 0.43181 0.40336 0.02635
 C22 C 0.46579 0.41974 0.01021
 N23 N 0.45825 0.45785 0.00054
 C24 C 0.50159 0.39872 0.00154
 H25 H 0.57484 0.36963 -0.03370
 H26 H 0.62967 0.42422 -0.03603
 H27 H 0.47682 0.47574 -0.01613
 H28 H 0.62388 0.56956 0.04169
 H29 H 0.56816 0.62533 0.04117
 H30 H 0.42600 0.62763 -0.03757
 H31 H 0.37135 0.57286 -0.03502
 H32 H 0.42819 0.37333 0.03649
 H33 H 0.52630 0.52499 -0.02255
 H34 H 0.37223 0.42933 0.03622
 C35 C -0.02113 0.57142 0.60101
 C36 C -0.02183 0.60014 0.57270
 C37 C -0.00644 0.58279 0.53796
 N38 N 0.00290 0.54419 0.54399
 C39 C -0.00603 0.53728 0.58253
 C40 C -0.00009 0.60265 0.50166
 C41 C 0.00673 0.58120 0.46551
 C42 C 0.02431 0.59642 0.43154
 C43 C 0.02314 0.56734 0.40267
 C44 C 0.00549 0.53490 0.41986
 N45 N -0.00425 0.54342 0.45823
 C46 C -0.00323 0.49941 0.39935
 C47 C -0.01035 0.46352 0.41890
 C48 C -0.02368 0.42916 0.40095
 C49 C -0.02320 0.40047 0.42939
 C50 C -0.00961 0.41834 0.46367
 N51 N -0.00173 0.45684 0.45718
 C52 C -0.00206 0.39864 0.49944
 C53 C 0.00668 0.41902 0.53501
 C54 C 0.02249 0.40150 0.56830
 C55 C 0.02364 0.43058 0.59726
 C56 C 0.00849 0.46501 0.58082
 N57 N -0.00170 0.45775 0.54288
 C58 C 0.00128 0.50107 0.60174
 H59 H -0.03099 0.57511 0.63160
 H60 H -0.03276 0.63029 0.57721
 H61 H -0.01787 0.47689 0.52515
 H62 H 0.03673 0.62550 0.42786
 H63 H 0.03415 0.56977 0.37246
 H64 H -0.03244 0.42509 0.37048
 H65 H -0.03157 0.36990 0.42520
 H66 H 0.03392 0.42667 0.62718
 H67 H -0.02133 0.52607 0.47699
 H68 H 0.03181 0.37084 0.57155
 C69 C 0.40122 -0.02458 0.56934
 C70 C 0.42966 -0.02564 0.59785
 C71 C 0.46328 -0.00866 0.58148
 N72 N 0.45655 0.00191 0.54366
 C73 C 0.41862 -0.00771 0.53629
 C74 C 0.49901 -0.00143 0.60160
 C75 C 0.53439 0.00725 0.58022
 C76 C 0.56607 0.02765 0.59567
 C77 C 0.59511 0.02791 0.56659
 C78 C 0.58051 0.00767 0.53404
 N79 N 0.54311 -0.00420 0.54230
 C80 C 0.60224 -0.00056 0.49829
 C81 C 0.58244 -0.00769 0.46226
 C82 C 0.59956 -0.02430 0.42795
 C83 C 0.57101 -0.02326 0.39955
 C84 C 0.53723 -0.00678 0.41763
 N85 N 0.54416 0.00263 0.45596
 C86 C 0.50136 0.00149 0.39827
 C87 C 0.46554 0.01009 0.41929
 C88 C 0.43152 0.02618 0.40292
 C89 C 0.40240 0.02598 0.43208
 C90 C 0.41952 0.00976 0.46537
 N91 N 0.45804 0.00038 0.45740
 C92 C 0.39891 0.00073 0.50080
 H93 H 0.37128 -0.03527 0.57245
 H94 H 0.42596 -0.03767 0.62722
 H95 H 0.47666 -0.01625 0.47529
 H96 H 0.56800 0.04120 0.62484
 H97 H 0.62369 0.04170 0.56908
 H98 H 0.62947 -0.03607 0.42376
 H99 H 0.57460 -0.03373 0.36917
 H100 H 0.37192 0.03593 0.42889
 H101 H 0.52615 -0.02262 0.52455
 H102 H 0.42786 0.03633 0.37289
 O103 O 0.46862 -0.00007 -0.05479
 O104 O 0.46865 0.00071 0.05447
 O105 O 0.46868 0.05494 0.00026
 O106 O 0.46861 -0.05432 -0.00055
 O107 O 0.53424 -0.05570 -0.00187
 O108 O 0.53431 0.05358 -0.00106
 O109 O 0.53428 -0.00066 0.05316
 O110 O 0.53425 -0.00145 -0.05612
 Cu111 Cu 0.46203 0.00045 -0.00003
 Cu112 Cu 0.54089 -0.00120 -0.00161
 C113 C 0.50142 -0.00087 -0.07390
 C114 C 0.50147 0.00015 0.07226
 C115 C 0.50151 0.07270 -0.00027
 C116 C 0.50141 -0.07345 -0.00132
 O117 O -0.05534 0.53375 1.00133
 O118 O 0.05395 0.53387 1.00073
 O119 O 0.00004 0.53378 0.94642
 O120 O -0.00143 0.53383 1.05564
 O121 O -0.00004 0.46823 1.05466
 O122 O 0.00144 0.46818 0.94545
 O123 O 0.05534 0.46827 0.99975
 O124 O -0.05393 0.46816 1.00035
 Cu125 Cu -0.00083 0.54043 1.00113
 Cu126 Cu 0.00085 0.46159 0.99996
 C127 C -0.07308 0.50093 1.00091
 C128 C 0.07309 0.50109 1.00016
 C129 C 0.00096 0.50097 0.92751
 C130 C -0.00097 0.50104 1.07358
 O131 O 0.00116 -0.05523 0.46767
 O132 O -0.00015 0.05397 0.46759
 O133 O 0.05515 -0.00103 0.46769
 O134 O -0.05413 -0.00022 0.46760
 O135 O -0.05549 0.00083 0.53320
 O136 O 0.05380 0.00003 0.53329
 O137 O -0.00151 0.05503 0.53319
 O138 O -0.00019 -0.05417 0.53327
 Cu139 Cu 0.00064 -0.00073 0.46101
 Cu140 Cu -0.00098 0.00053 0.53986
 C141 C 0.00067 -0.07313 0.50048
 C142 C -0.00103 0.07293 0.50037
 C143 C 0.07292 -0.00061 0.50050
 C144 C -0.07326 0.00042 0.50039
 C145 C -0.29291 0.53026 0.98198
 C146 C -0.27168 0.50000 1.00058
 C147 C -0.29204 0.46936 1.01897
 C148 C -0.33348 0.46884 1.01868
 C149 C -0.35541 0.49902 0.99983
 C150 C -0.33436 0.52987 0.98164
 C151 C -0.22900 0.50036 1.00078
 C152 C -0.19325 0.50059 1.00091
 C153 C -0.15139 0.50077 1.00100
 C154 C -0.11563 0.50087 1.00100
 H155 H -0.27743 0.55409 0.96754
 H156 H -0.27589 0.44593 1.03375
 H157 H -0.34841 0.44533 1.03418
 H158 H -0.34995 0.55327 0.96627
 C159 C 0.29368 0.47613 0.97429
 C160 C 0.27171 0.50123 1.00029
 C161 C 0.29138 0.52635 1.02650
 C162 C 0.33284 0.52637 1.02674
 C163 C 0.35502 0.50126 1.00074
 C164 C 0.33515 0.47614 0.97449
 C165 C 0.22902 0.50119 1.00011
 C166 C 0.19327 0.50117 1.00002
 C167 C 0.15140 0.50115 0.99999
 C168 C 0.11564 0.50112 1.00003
 H169 H 0.27876 0.45659 0.95389
 H170 H 0.27467 0.54587 1.04675
 H171 H 0.34769 0.54584 1.04725
 H172 H 0.35180 0.45667 0.95416
 C173 C -0.01946 -0.29242 0.47181
 C174 C 0.00100 -0.27158 0.50087
 C175 C 0.02123 -0.29230 0.53013
 C176 C 0.02095 -0.33372 0.53045
 C177 C 0.00031 -0.35523 0.50145
 C178 C -0.01979 -0.33384 0.47202
 C179 C 0.00115 -0.22893 0.50071
 C180 C 0.00119 -0.19320 0.50062
 C181 C 0.00113 -0.15137 0.50055
 C182 C 0.00098 -0.11564 0.50051
 H183 H -0.03535 -0.27664 0.44909
 H184 H 0.03738 -0.27644 0.55263
 H185 H 0.03771 -0.34897 0.55290
 H186 H -0.03661 -0.34916 0.44965
 C187 C 0.02566 0.29121 0.47628
 C188 C -0.00202 0.27139 0.49986
 C189 C -0.02971 0.29317 0.52327
 C190 C -0.02975 0.33462 0.52310
 C191 C -0.00210 0.35462 0.49947
 C192 C 0.02566 0.33265 0.47611
 C193 C -0.00196 0.22874 0.50004
 C194 C -0.00186 0.19301 0.50016
 C195 C -0.00166 0.15118 0.50027
 C196 C -0.00142 0.11545 0.50033
 H197 H 0.04724 0.27464 0.45810
 H198 H -0.05123 0.27812 0.54163
 H199 H -0.05134 0.35115 0.54129
 H200 H 0.04731 0.34765 0.45787
 C201 C 0.53142 -0.01945 -0.29452
 C202 C 0.50034 -0.00130 -0.27249
 C203 C 0.46883 0.01693 -0.29207
 C204 C 0.46829 0.01694 -0.33350
 C205 C 0.49930 -0.00144 -0.35623
 C206 C 0.53100 -0.01948 -0.33596
 C207 C 0.50078 -0.00131 -0.22981
 C208 C 0.50105 -0.00128 -0.19406
 C209 C 0.50127 -0.00120 -0.15220
 C210 C 0.50138 -0.00108 -0.11645
 H211 H 0.55594 -0.03374 -0.27966
 H212 H 0.44475 0.03137 -0.27529
 H213 H 0.44405 0.03233 -0.34774
 H214 H 0.55509 -0.03449 -0.35220
 C215 C 0.52537 0.02742 0.29154
 C216 C 0.50132 0.00111 0.27088
 C217 C 0.47726 -0.02504 0.29187
 C218 C 0.47726 -0.02493 0.33333
 C219 C 0.50132 0.00139 0.35420
 C220 C 0.52537 0.02758 0.33300
 C221 C 0.50135 0.00095 0.22819
 C222 C 0.50139 0.00080 0.19243
 C223 C 0.50144 0.00060 0.15057
 C224 C 0.50147 0.00041 0.11481
 H225 H 0.54408 0.04779 0.27561
 H226 H 0.45857 -0.04553 0.27619
 H227 H 0.45862 -0.04541 0.34920
 H228 H 0.54402 0.04815 0.34862
 C229 C 0.46893 -0.29159 0.01682
 C230 C 0.50040 -0.27204 -0.00147
 C231 C 0.53148 -0.29410 -0.01960
 C232 C 0.53108 -0.33554 -0.01956
 C233 C 0.49941 -0.35578 -0.00147
 C234 C 0.46841 -0.33302 0.01690
 C235 C 0.50081 -0.22936 -0.00156
 C236 C 0.50106 -0.19361 -0.00159
 C237 C 0.50126 -0.15175 -0.00157
 C238 C 0.50136 -0.11600 -0.00149
 H239 H 0.44486 -0.27479 0.03125
 H240 H 0.55597 -0.27926 -0.03394
 H241 H 0.55516 -0.35180 -0.03457
 H242 H 0.44420 -0.34723 0.03234
 C243 C 0.47742 0.29238 -0.02514
 C244 C 0.50151 0.27133 0.00095
 C245 C 0.52562 0.29192 0.02726
 C246 C 0.52564 0.33338 0.02748
 C247 C 0.50156 0.35464 0.00136
 C248 C 0.47744 0.33384 -0.02496
 C249 C 0.50150 0.22863 0.00073
 C250 C 0.50151 0.19288 0.00053
 C251 C 0.50152 0.15101 0.00028
 C252 C 0.50152 0.11526 0.00003
 H253 H 0.45867 0.27676 -0.04563
 H254 H 0.54435 0.27593 0.04759
 H255 H 0.54433 0.34894 0.04806
 H256 H 0.45877 0.34976 -0.04539
 C257 C -0.29224 0.01884 0.46890
 C258 C -0.27187 0.00044 0.49954
 C259 C -0.29308 -0.01812 0.52982
 C260 C -0.33453 -0.01842 0.52944
 C261 C -0.35559 -0.00023 0.49858
 C262 C -0.33368 0.01859 0.46839
 C263 C -0.22918 0.00058 0.49988
 C264 C -0.19343 0.00065 0.50009
 C265 C -0.15156 0.00065 0.50025
 C266 C -0.11581 0.00059 0.50034
 H267 H -0.27609 0.03359 0.44546
 H268 H -0.27759 -0.03256 0.55366
 H269 H -0.35011 -0.03376 0.55285
 H270 H -0.34861 0.03409 0.44487
 C271 C 0.29112 0.02597 0.52585
 C272 C 0.27153 -0.00029 0.50072
 C273 C 0.29357 -0.02624 0.47563
 C274 C 0.33504 -0.02594 0.47567
 C275 C 0.35484 0.00035 0.50079
 C276 C 0.33258 0.02631 0.52589
 C277 C 0.22885 -0.00056 0.50065
 C278 C 0.19309 -0.00071 0.50060
 C279 C 0.15123 -0.00078 0.50056
 C280 C 0.11547 -0.00076 0.50054
 H281 H 0.27436 0.04619 0.54535
 H282 H 0.27872 -0.04669 0.45609
 H283 H 0.35175 -0.04624 0.45621
 H284 H 0.34737 0.04687 0.54536
 C285 C -0.02988 0.52419 1.29380
 C286 C -0.00251 0.50036 1.27207
 C287 C 0.02468 0.47623 1.29193
 C288 C 0.02447 0.47587 1.33337
 C289 C -0.00303 0.49959 1.35531
 C290 C -0.03013 0.52384 1.33525
 C291 C -0.00230 0.50066 1.22941
 C292 C -0.00208 0.50084 1.19368
 C293 C -0.00176 0.50098 1.15184
 C294 C -0.00143 0.50103 1.11611
 H295 H -0.05101 0.54299 1.27872
 H296 H 0.04602 0.45774 1.27539
 H297 H 0.04576 0.45722 1.34839
 H298 H -0.05148 0.54235 1.35175
 C299 C 0.02921 0.52348 0.70797
 C300 C 0.00185 0.50075 0.72902
 C301 C -0.02563 0.47806 0.70847
 C302 C -0.02580 0.47812 0.66703
 C303 C 0.00155 0.50089 0.64577
 C304 C 0.02909 0.52355 0.66652
 C305 C 0.00188 0.50079 0.77168
 C306 C 0.00181 0.50084 0.80741
 C307 C 0.00163 0.50090 0.84925
 C308 C 0.00138 0.50094 0.88499
 H309 H 0.05060 0.54113 0.72358
 H310 H -0.04694 0.46039 0.72448
 H311 H -0.04730 0.46057 0.65148
 H312 H 0.05045 0.54119 0.65057
   
