data_POSCAR
  _audit_creation_date              2014-09-24
  _audit_creation_method            'ToBaCCo'
  _symmetry_space_group_name_H-M    'P1'
  _symmetry_Int_Tables_number       1
  _symmetry_cell_setting            triclinic
  loop_
  _symmetry_equiv_pos_as_xyz
 x,y,z
_cell_length_a 30.3799
_cell_length_b 32.3669
_cell_length_c 27.4484
_cell_angle_alpha 89.428000
_cell_angle_beta 91.462200
_cell_angle_gamma 87.288700
loop_
  _atom_site_label
  _atom_site_type_symbol
  _atom_site_fract_x
  _atom_site_fract_y
  _atom_site_fract_z
C1 C 0.18726 0.21994 0.22419
 C2 C 0.18834 0.24493 0.18226
 C3 C 0.21139 0.23120 0.14221
 C4 C 0.23410 0.19254 0.14383
 C5 C 0.23323 0.16797 0.18522
 C6 C 0.21005 0.18195 0.22584
 C7 C 0.16266 0.22275 0.26558
 N8 N 0.17034 0.18763 0.29254
 C9 C 0.19976 0.16265 0.26857
 C10 C 0.25522 0.13101 0.17522
 N11 N 0.27000 0.13295 0.12887
 C12 C 0.25719 0.17050 0.10955
 C13 C 0.20198 0.25902 0.10474
 N14 N 0.17442 0.28952 0.12138
 C15 C 0.16581 0.28120 0.16870
 H16 H 0.13906 0.24759 0.27415
 H17 H 0.21015 0.13126 0.27876
 H18 H 0.26046 0.10519 0.20035
 H19 H 0.26388 0.18087 0.07294
 H20 H 0.21233 0.25614 0.06741
 H21 H 0.14230 0.29852 0.19047
 C22 C -0.13975 0.80875 0.22623
 C23 C -0.14570 0.77238 0.19982
 C24 C -0.18743 0.76290 0.18354
 C25 C -0.22347 0.79013 0.19202
 C26 C -0.21789 0.82614 0.21775
 C27 C -0.17564 0.83517 0.23575
 C28 C -0.10265 0.82692 0.24421
 N29 N -0.11500 0.86320 0.26557
 C30 C -0.15969 0.86867 0.26004
 C31 C -0.25704 0.84959 0.21293
 N32 N -0.28553 0.82878 0.18404
 C33 C -0.26535 0.79218 0.17206
 C34 C -0.18313 0.72839 0.15486
 N35 N -0.13975 0.71678 0.15318
 C36 C -0.11656 0.74356 0.18026
 H37 H -0.06904 0.81442 0.24227
 H38 H -0.17942 0.89534 0.27152
 H39 H -0.26230 0.88099 0.22541
 H40 H -0.27873 0.77023 0.14678
 H41 H -0.20924 0.71459 0.13399
 H42 H -0.08094 0.74328 0.18340
 C43 C -0.17277 0.19601 -0.21813
 C44 C -0.17842 0.22885 -0.18499
 C45 C -0.21355 0.22931 -0.15369
 C46 C -0.24368 0.19783 -0.15518
 C47 C -0.23851 0.16586 -0.18769
 C48 C -0.20255 0.16474 -0.21891
 C49 C -0.13977 0.18465 -0.25011
 N50 N -0.14873 0.14711 -0.26924
 C51 C -0.18697 0.13503 -0.25026
 C52 C -0.27106 0.13846 -0.17868
 N53 N -0.29552 0.15314 -0.14107
 C54 C -0.27877 0.18935 -0.12661
 C55 C -0.20896 0.26184 -0.12249
 N56 N -0.17229 0.28171 -0.13391
 C57 C -0.15318 0.26183 -0.17212
 H58 H -0.11045 0.20139 -0.25658
 H59 H -0.20180 0.10586 -0.25760
 H60 H -0.27501 0.10930 -0.19682
 H61 H -0.29055 0.20774 -0.09643
 H62 H -0.23000 0.26967 -0.09235
 H63 H -0.12209 0.26931 -0.18762
 C64 C 0.17970 0.77349 -0.25395
 C65 C 0.17193 0.74300 -0.21884
 C66 C 0.19681 0.74051 -0.17570
 C67 C 0.23008 0.76874 -0.16722
 C68 C 0.23873 0.79749 -0.20289
 C69 C 0.21349 0.79987 -0.24622
 C70 C 0.15758 0.78644 -0.29646
 N71 N 0.17754 0.82005 -0.31435
 C72 C 0.21212 0.82784 -0.28415
 C73 C 0.27025 0.82251 -0.18462
 N74 N 0.28087 0.81041 -0.13801
 C75 C 0.25642 0.77748 -0.12707
 C76 C 0.18109 0.70845 -0.14849
 N77 N 0.14775 0.69141 -0.17438
 C78 C 0.14182 0.71270 -0.21706
 H79 H 0.12842 0.77313 -0.31190
 H80 H 0.23316 0.85374 -0.28787
 H81 H 0.28188 0.84937 -0.20318
 H82 H 0.25664 0.76191 -0.09195
 H83 H 0.19338 0.69834 -0.11280
 H84 H 0.11739 0.70633 -0.24507
 C85 C 0.18373 1.14019 0.82343
 C86 C 0.22252 1.15289 0.84655
 C87 C 0.22131 1.18767 0.87570
 C88 C 0.18133 1.21062 0.88132
 C89 C 0.14309 1.19686 0.85998
 C90 C 0.14427 1.16167 0.83112
 C91 C 0.17478 1.10851 0.79198
 N92 N 0.13073 1.11073 0.78061
 C93 C 0.11190 1.14271 0.80524
 C94 C 0.10903 1.22353 0.87226
 N95 N 0.12551 1.25426 0.89923
 C96 C 0.16982 1.24667 0.90544
 C97 C 0.26214 1.18934 0.89842
 N98 N 0.28797 1.15662 0.88379
 C99 C 0.26413 1.13448 0.85154
 H100 H 0.19875 1.08599 0.77837
 H101 H 0.07734 1.15263 0.80274
 H102 H 0.07475 1.22148 0.86107
 H103 H 0.19191 1.26545 0.92625
 H104 H 0.27125 1.21079 0.92655
 H105 H 0.27463 1.10486 0.83673
 C106 C 0.80269 0.83240 0.73466
 C107 C 0.77499 0.83086 0.77451
 C108 C 0.77784 0.79721 0.80640
 C109 C 0.80942 0.76475 0.79887
 C110 C 0.83725 0.76693 0.75982
 C111 C 0.83348 0.80055 0.72738
 C112 C 0.81084 0.86360 0.70203
 N113 N 0.84604 0.85117 0.67521
 C114 C 0.85982 0.81261 0.69046
 C115 C 0.86965 0.73625 0.76595
 N116 N 0.86229 0.71486 0.80736
 C117 C 0.82516 0.73172 0.82769
 C118 C 0.75149 0.80741 0.84527
 N119 N 0.73354 0.84625 0.83745
 C120 C 0.74786 0.86075 0.79458
 H121 H 0.79383 0.89372 0.70025
 H122 H 0.88864 0.79548 0.67750
 H123 H 0.89814 0.73139 0.74338
 H124 H 0.81287 0.72337 0.86294
 H125 H 0.74856 0.78948 0.87844
 H126 H 0.74115 0.89187 0.78055
 C127 C 0.19983 0.84300 1.19916
 C128 C 0.23446 0.83240 1.16760
 C129 C 0.22990 0.80016 1.13525
 C130 C 0.19166 0.77788 1.13429
 C131 C 0.15859 0.78718 1.16647
 C132 C 0.16264 0.81985 1.19886
 C133 C 0.19191 0.87529 1.23093
 N134 N 0.15102 0.87167 1.24967
 C135 C 0.13339 0.83760 1.23049
 C136 C 0.12424 0.76258 1.15528
 N137 N 0.13578 0.73893 1.11671
 C138 C 0.17680 0.74816 1.10339
 C139 C 0.26600 0.79847 1.10631
 N140 N 0.29313 0.82823 1.12057
 C141 C 0.27420 0.84949 1.15783
 H142 H 0.21415 0.89959 1.23903
 H143 H 0.10069 0.82736 1.23759
 H144 H 0.09236 0.76345 1.17210
 H145 H 0.19391 0.73502 1.07263
 H146 H 0.27168 0.77779 1.07610
 H147 H 0.28723 0.87651 1.17486
 C148 C 0.76316 1.20250 1.23779
 C149 C 0.73411 1.20327 1.19740
 C150 C 0.73780 1.23245 1.16101
 C151 C 0.76944 1.26210 1.16534
 C152 C 0.79854 1.26173 1.20511
 C153 C 0.79587 1.23086 1.24154
 C154 C 0.77056 1.17365 1.27427
 N155 N 0.80747 1.18269 1.29994
 C156 C 0.82321 1.21795 1.28049
 C157 C 0.82782 1.29235 1.19631
 N158 N 0.81649 1.31070 1.15254
 C159 C 0.78128 1.29201 1.13346
 C160 C 0.71162 1.22133 1.12215
 N161 N 0.69176 1.18635 1.13453
 C162 C 0.70508 1.17508 1.18053
 H163 H 0.75202 1.14625 1.27966
 H164 H 0.85319 1.23221 1.29194
 H165 H 0.85601 1.29952 1.21903
 H166 H 0.76595 1.29913 1.09811
 H167 H 0.70957 1.23583 1.08639
 H168 H 0.69754 1.14642 1.19848
 O169 O 0.53901 0.91731 0.94567
 O170 O 0.46625 0.95801 1.09634
 O171 O 0.58941 0.95000 1.06026
 O172 O 0.39876 0.95480 0.96340
 O173 O 0.54266 0.97882 1.11068
 O174 O 0.46092 0.92685 0.94004
 O175 O 0.44960 0.92531 1.02985
 O176 O 0.59631 0.94892 0.96908
 C177 C 0.57953 0.91763 0.95153
 C178 C 0.45258 0.92610 1.07552
 C179 C 0.57512 0.95412 1.10240
 C180 C 0.41942 0.93057 0.93358
 O181 O 0.46897 1.00661 0.90792
 O182 O 0.51890 1.05403 1.07034
 O183 O 0.58251 1.02921 0.96651
 O184 O 0.40400 0.99129 1.04553
 O185 O 0.44759 1.03753 1.05840
 O186 O 0.55018 0.99462 0.90897
 O187 O 0.43197 1.02508 0.97001
 O188 O 0.58416 1.03011 1.05724
 Co189 Co 0.50486 0.96370 0.93272
 Co190 Co 0.49469 1.00502 1.07804
 Co191 Co 0.58042 0.98911 1.01259
 Co192 Co 0.44342 0.97510 0.99878
 O193 O 0.50850 0.98486 1.00748
 C194 C 0.44146 1.03108 0.92694
 C195 C 0.55883 1.05860 1.07133
 C196 C 0.57497 1.02311 0.92232
 C197 C 0.41005 1.02547 1.06334
 O198 O 0.05328 0.48367 0.08223
 O199 O 0.03820 0.54025 -0.07884
 O200 O 0.02152 0.41405 -0.02698
 O201 O -0.00602 0.60759 0.03796
 O202 O 0.05023 0.46106 -0.07433
 O203 O 0.03037 0.55766 0.07887
 O204 O 0.04690 0.56180 -0.00547
 O205 O 0.02456 0.42582 0.06030
 C206 C 0.05658 0.44524 0.07762
 C207 C 0.05949 0.56049 -0.04809
 C208 C 0.05095 0.42503 -0.05598
 C209 C 0.01796 0.59579 0.07643
 O210 O -0.05380 0.53697 0.09166
 O211 O -0.03238 0.45312 -0.09223
 O212 O -0.06574 0.44811 0.05391
 O213 O -0.02766 0.58211 -0.05121
 O214 O -0.04934 0.52903 -0.08950
 O215 O -0.02428 0.46515 0.11105
 O216 O -0.06988 0.56283 0.02071
 O217 O -0.06599 0.43131 -0.02974
 Co218 Co -0.00027 0.50985 0.08226
 Co219 Co 0.00073 0.49677 -0.07560
 Co220 Co -0.02059 0.43525 0.01443
 Co221 Co -0.01180 0.55919 0.00797
 O222 O -0.00934 0.49763 0.00341
 C223 C -0.08008 0.55745 0.06376
 C224 C -0.06094 0.43140 -0.07444
 C225 C -0.05781 0.44788 0.09790
 C226 C -0.05315 0.56685 -0.08178
 O227 O 1.11338 0.03341 0.45840
 O228 O 0.96422 0.08073 0.52872
 O229 O 0.98723 0.08857 0.44030
 O230 O 1.05588 0.00672 0.59806
 O231 O 0.92659 0.06291 0.44812
 O232 O 1.10490 0.02971 0.54879
 O233 O 0.98366 0.04396 0.59143
 O234 O 1.06246 0.07848 0.43741
 C235 C 1.10205 0.06794 0.44086
 C236 C 0.96992 0.07813 0.57359
 C237 C 0.94725 0.09130 0.43091
 C238 C 1.09076 0.02552 0.59074
 O239 O 1.08749 -0.04769 0.54158
 O240 O 0.94136 -0.01271 0.46262
 O241 O 1.05713 0.00308 0.39605
 O242 O 0.94979 -0.02322 0.54864
 O243 O 0.90383 0.02752 0.52911
 O244 O 1.08738 -0.04104 0.44996
 O245 O 1.01966 -0.05864 0.55195
 O246 O 0.97520 0.01037 0.39959
 Co247 Co 1.09070 -0.00412 0.49939
 Co248 Co 0.95517 0.03268 0.49719
 Co249 Co 1.01993 0.04281 0.42422
 Co250 Co 1.00388 -0.00548 0.56600
 O251 O 1.02073 0.01721 0.49497
 C252 C 1.05859 -0.07148 0.55390
 C253 C 0.94825 -0.01390 0.41797
 C254 C 1.07893 -0.03038 0.40662
 C255 C 0.91235 -0.00556 0.55514
 C256 C 1.14711 0.17775 0.33249
 C257 C 1.15697 0.14384 0.35966
 C258 C 1.12534 0.12785 0.39397
 C259 C 1.13560 0.09307 0.41916
 H260 H 1.18709 0.12551 0.35402
 H261 H 1.09206 0.14153 0.39405
 H262 H 1.11843 0.19720 0.34145
 H263 H 1.16901 0.07972 0.41866
 C264 C 0.91372 -0.11158 0.28834
 C265 C 0.90043 -0.08050 0.31723
 C266 C 0.93203 -0.05550 0.34446
 C267 C 0.92091 -0.04059 0.38787
 H268 H 0.86578 -0.07500 0.32425
 H269 H 0.96417 -0.05029 0.32993
 H270 H 0.94885 -0.11850 0.28546
 H271 H 0.88987 -0.04894 0.40302
 C272 C 0.87617 0.12244 0.70103
 C273 C 0.91146 0.13445 0.67698
 C274 C 0.93612 0.10344 0.64768
 C275 C 0.95528 0.11233 0.60558
 H276 H 0.92105 0.16623 0.67734
 H277 H 0.93442 0.07124 0.65859
 H278 H 0.86615 0.09100 0.69557
 H279 H 0.95378 0.14381 0.59164
 C280 C 1.16500 -0.15475 0.64724
 C281 C 1.12599 -0.15587 0.62339
 C282 C 1.11316 -0.12217 0.58857
 C283 C 1.07097 -0.11188 0.57702
 H284 H 1.10218 -0.17825 0.63281
 H285 H 1.13865 -0.10225 0.57671
 H286 H 1.18641 -0.13004 0.63804
 H287 H 1.04509 -0.13079 0.58997
 C288 C 0.29539 1.10428 1.10519
 C289 C 0.30471 1.06586 1.12259
 C290 C 0.33745 1.03793 1.09945
 C291 C 0.37524 1.05215 1.08385
 H292 H 0.28822 1.05413 1.15392
 H293 H 0.33218 1.00507 1.09921
 H294 H 0.30906 1.11310 1.07066
 H295 H 0.38208 1.08447 1.08842
 C296 C 0.30778 0.82987 0.89416
 C297 C 0.33529 0.85877 0.87999
 C298 C 0.36016 0.88342 0.91515
 C299 C 0.39599 0.90253 0.90135
 H300 H 0.33990 0.86486 0.84168
 H301 H 0.34871 0.88661 0.95208
 H302 H 0.30706 0.82163 0.93253
 H303 H 0.40922 0.89680 0.86562
 C304 C 0.67601 0.84319 1.16201
 C305 C 0.65667 0.88038 1.17038
 C306 C 0.62333 0.89762 1.13494
 C307 C 0.59899 0.93220 1.14303
 H308 H 0.66776 0.89952 1.19993
 H309 H 0.62118 0.88327 1.09943
 H310 H 0.66172 0.82450 1.13358
 H311 H 0.59899 0.94597 1.17885
 C312 C 0.67123 1.13489 0.88233
 C313 C 0.65284 1.10000 0.86760
 C314 C 0.62162 1.07981 0.89962
 C315 C 0.59876 1.04715 0.88603
 H316 H 0.66178 1.08543 0.83372
 H317 H 0.61914 1.09088 0.93668
 H318 H 0.65930 1.14919 0.91541
 H319 H 0.59987 1.03642 0.84881
 C320 C 0.15155 0.32034 0.09134
 C321 C 0.13802 0.35668 0.10947
 C322 C 0.10588 0.38378 0.08235
 C323 C 0.09570 0.42201 0.09738
 H324 H 0.14813 0.36498 0.14610
 H325 H 0.08780 0.37112 0.05183
 H326 H 0.14348 0.31298 0.05379
 H327 H 0.11487 0.43554 0.12646
 C328 C -0.15535 0.31456 -0.10499
 C329 C -0.12789 0.34205 -0.12213
 C330 C -0.11024 0.37397 -0.08970
 C331 C -0.08535 0.40367 -0.10675
 H332 H -0.11810 0.34076 -0.15978
 H333 H -0.11597 0.37190 -0.05093
 H334 H -0.16638 0.31762 -0.06787
 H335 H -0.07948 0.40537 -0.14549
 C336 C 0.12195 0.65690 -0.16147
 C337 C 0.12686 0.63607 -0.11912
 C338 C 0.09705 0.60270 -0.10756
 C339 C 0.09532 0.58689 -0.06247
 H340 H 0.15130 0.64455 -0.09215
 H341 H 0.07363 0.59338 -0.13535
 H342 H 0.09663 0.64791 -0.18732
 H343 H 0.11701 0.59798 -0.03400
 C344 C -0.12044 0.68626 0.12173
 C345 C -0.14070 0.65186 0.10940
 C346 C -0.11870 0.62258 0.07633
 C347 C -0.11702 0.58169 0.08434
 H348 H -0.17165 0.64454 0.12539
 H349 H -0.09710 0.63538 0.04977
 H350 H -0.08762 0.69095 0.10867
 H351 H -0.13447 0.56895 0.11454
 C352 C 1.10791 0.08786 0.74821
 C353 C 1.12749 0.06411 0.71480
 C354 C 1.10083 0.04566 0.67609
 C355 C 1.11702 0.04082 0.63174
 H356 H 1.16302 0.06179 0.71249
 H357 H 1.06685 0.03902 0.68283
 H358 H 1.07222 0.09207 0.74639
 H359 H 1.15013 0.05006 0.62466
 C360 C 0.86794 -0.12677 0.64197
 C361 C 0.85674 -0.08759 0.62884
 C362 C 0.88647 -0.06546 0.59751
 C363 C 0.87852 -0.02635 0.58239
 H364 H 0.82766 -0.07141 0.64236
 H365 H 0.91702 -0.08165 0.58772
 H366 H 0.89724 -0.14142 0.62651
 H367 H 0.84792 -0.00968 0.59067
 C368 C 1.12901 -0.10333 0.28144
 C369 C 1.14261 -0.06636 0.29535
 C370 C 1.11787 -0.04042 0.33037
 C371 C 1.09712 -0.05659 0.36807
 H372 H 1.17114 -0.05346 0.27934
 H373 H 1.12047 -0.00720 0.32769
 H374 H 1.09787 -0.11331 0.29476
 H375 H 1.09891 -0.08972 0.37442
 C376 C 0.82547 0.15702 0.33555
 C377 C 0.86547 0.16095 0.35608
 C378 C 0.88419 0.12817 0.38939
 C379 C 0.92675 0.12648 0.40286
 H380 H 0.88557 0.18629 0.34618
 H381 H 0.86346 0.10360 0.40066
 H382 H 0.80739 0.13024 0.34577
 H383 H 0.94783 0.15045 0.39077
 C384 C 0.09986 0.28626 -0.08411
 C385 C 0.11548 0.32235 -0.07029
 C386 C 0.08375 0.35489 -0.05503
 C387 C 0.08645 0.39458 -0.06810
 H388 H 0.14996 0.32876 -0.07338
 H389 H 0.05510 0.34510 -0.03600
 H390 H 0.06434 0.28350 -0.08563
 H391 H 0.11371 0.40422 -0.08951
 C392 C -0.16181 0.34196 0.12623
 C393 C -0.13306 0.36698 0.14651
 C394 C -0.11261 0.39747 0.11517
 C395 C -0.08236 0.42272 0.13188
 H396 H -0.12446 0.36473 0.18500
 H397 H -0.12109 0.39780 0.07651
 H398 H -0.17038 0.34597 0.08777
 H399 H -0.07301 0.42239 0.17025
 C400 C -0.10839 0.68576 -0.17323
 C401 C -0.11779 0.66028 -0.13675
 C402 C -0.08260 0.63321 -0.11440
 C403 C -0.08758 0.59292 -0.10715
 H404 H -0.15098 0.65885 -0.12360
 H405 H -0.05147 0.64656 -0.10499
 H406 H -0.07585 0.68256 -0.18865
 H407 H -0.11727 0.57885 -0.12019
 C408 C 0.10815 0.71173 0.09084
 C409 C 0.07905 0.68960 0.11388
 C410 C 0.05208 0.66130 0.08639
 C411 C 0.03991 0.62611 0.10636
 H412 H 0.07693 0.69073 0.15321
 H413 H 0.04523 0.66778 0.04801
 H414 H 0.11278 0.70759 0.05211
 H415 H 0.05020 0.61772 0.14338
 C416 C 0.32835 1.14238 0.90817
 C417 C 0.35666 1.11524 0.88776
 C418 C 0.39017 1.09167 0.91779
 C419 C 0.41833 1.06418 0.89772
 H420 H 0.35226 1.10729 0.84975
 H421 H 0.38837 1.09340 0.95715
 H422 H 0.33406 1.15151 0.94562
 H423 H 0.42066 1.06293 0.85842
 C424 C 0.33165 0.83815 1.09464
 C425 C 0.36561 0.85617 1.11590
 C426 C 0.40056 0.87205 1.08574
 C427 C 0.43196 0.89473 1.10520
 H428 H 0.36571 0.86211 1.15469
 H429 H 0.39636 0.87073 1.04641
 H430 H 0.33272 0.83095 1.05615
 H431 H 0.43517 0.89704 1.14450
 C432 C 0.66840 1.16110 1.10131
 C433 C 0.63507 1.13949 1.11631
 C434 C 0.61577 1.10816 1.08537
 C435 C 0.57588 1.09522 1.09451
 H436 H 0.62302 1.14387 1.15284
 H437 H 0.63510 1.09417 1.05666
 H438 H 0.67874 1.15907 1.06385
 H439 H 0.55576 1.11094 1.12136
 C440 C 0.71015 0.87172 0.87137
 C441 C 0.67687 0.85813 0.89690
 C442 C 0.65038 0.88800 0.92533
 C443 C 0.60765 0.88326 0.93298
 H444 H 0.66703 0.82655 0.89314
 H445 H 0.66501 0.91674 0.93542
 H446 H 0.71687 0.90434 0.87221
 H447 H 0.59223 0.85561 0.92051
   
