data_POSCAR
  _audit_creation_date              2014-09-24
  _audit_creation_method            'ToBaCCo'
  _symmetry_space_group_name_H-M    'P1'
  _symmetry_Int_Tables_number       1
  _symmetry_cell_setting            triclinic
  loop_
  _symmetry_equiv_pos_as_xyz
 x,y,z
_cell_length_a 31.2547
_cell_length_b 31.2214
_cell_length_c 31.1651
_cell_angle_alpha 88.372100
_cell_angle_beta 91.131600
_cell_angle_gamma 87.789800
loop_
  _atom_site_label
  _atom_site_type_symbol
  _atom_site_fract_x
  _atom_site_fract_y
  _atom_site_fract_z
Si1 Si -0.00281 0.49408 0.24943
 Si2 Si 0.00420 0.50476 0.75132
 Si3 Si 0.24932 0.00993 0.50650
 Si4 Si 0.75040 -0.00888 0.49713
 Si5 Si 0.49112 0.24889 1.00572
 Si6 Si 0.50853 0.75131 0.99021
 B7 B 0.99951 1.04532 0.02612
 B8 B 1.00240 1.04291 -0.02885
 B9 B 1.04555 1.02423 0.00339
 B10 B 1.02506 0.99962 0.04856
 B11 B 0.97004 1.00255 0.04404
 B12 B 0.95605 1.02953 -0.00354
 B13 B 1.00078 0.95335 -0.02288
 B14 B 0.99789 0.95584 0.03208
 B15 B 0.95473 0.97450 -0.00018
 B16 B 0.97524 0.99912 -0.04539
 B17 B 1.03024 0.99617 -0.04081
 B18 B 1.04424 0.96921 0.00676
 B19 B 0.54470 0.50002 0.47090
 B20 B 0.54550 0.50123 0.52612
 B21 B 0.52641 0.54550 0.49645
 B22 B 0.49841 0.52731 0.45161
 B23 B 0.50076 0.47176 0.45506
 B24 B 0.52995 0.45593 0.50074
 B25 B 0.45547 0.50087 0.52517
 B26 B 0.45530 0.49988 0.47021
 B27 B 0.47492 0.45538 0.50064
 B28 B 0.50211 0.47413 0.54478
 B29 B 0.49866 0.52954 0.54167
 B30 B 0.47062 0.54552 0.49587
 C31 C 1.00239 1.40880 0.14946
 C32 C 0.99957 1.36913 0.17124
 C33 C 0.99580 1.36752 0.21589
 C34 C 0.99507 1.40527 0.23877
 C35 C 0.99834 1.44501 0.21726
 C36 C 1.00166 1.44673 0.17244
 C37 C 1.00044 1.32978 0.14834
 C38 C 1.00099 1.29587 0.13082
 C39 C 1.00137 1.25534 0.11197
 C40 C 1.00142 1.22022 0.09695
 C41 C 1.00109 1.17789 0.07996
 C42 C 1.01940 1.14311 0.10356
 C43 C 1.01805 1.10180 0.08767
 C44 C 0.99878 1.09354 0.04733
 C45 C 0.97919 1.12969 0.02516
 C46 C 0.98062 1.17102 0.04088
 H47 H 1.00513 1.41039 0.11486
 H48 H 0.99347 1.33705 0.23305
 H49 H 0.99218 1.40344 0.27335
 H50 H 1.00368 1.47714 0.15523
 H51 H 1.03424 1.14775 0.13472
 H52 H 1.03031 1.07681 0.10874
 H53 H 0.96081 1.12672 -0.00390
 H54 H 0.96507 1.19756 0.02272
 C55 C 1.03831 0.59410 0.17306
 C56 C 1.00565 0.62563 0.17711
 C57 C 0.96888 0.61624 0.19984
 C58 C 0.96521 0.57598 0.21960
 C59 C 0.99822 0.54453 0.21658
 C60 C 1.03459 0.55363 0.19279
 C61 C 1.01009 0.66835 0.15988
 C62 C 1.01207 0.70476 0.14655
 C63 C 1.01224 0.74769 0.13146
 C64 C 1.01050 0.78431 0.11821
 C65 C 1.00615 0.82751 0.10117
 C66 C 0.96950 0.84026 0.07755
 C67 C 0.96583 0.88109 0.05835
 C68 C 0.99829 0.91106 0.06188
 C69 C 1.03439 0.89744 0.08766
 C70 C 1.03839 0.85645 0.10695
 H71 H 1.06698 0.60113 0.15564
 H72 H 0.94353 0.64049 0.20330
 H73 H 0.93722 0.57032 0.23842
 H74 H 1.06067 0.52996 0.19073
 H75 H 0.94391 0.81825 0.07304
 H76 H 0.93730 0.88780 0.04053
 H77 H 1.06042 0.91768 0.09292
 H78 H 1.06704 0.84716 0.12561
 C79 C 0.99708 1.40890 -0.15368
 C80 C 0.99479 1.37206 -0.17828
 C81 C 0.99607 1.37562 -0.22301
 C82 C 0.99951 1.41564 -0.24320
 C83 C 1.00196 1.45263 -0.21892
 C84 C 1.00053 1.44925 -0.17402
 C85 C 0.99188 1.33019 -0.15842
 C86 C 0.99025 1.29420 -0.14375
 C87 C 0.98972 1.25149 -0.12791
 C88 C 0.99089 1.21491 -0.11445
 C89 C 0.99467 1.17164 -0.09741
 C90 C 1.03142 1.15838 -0.07423
 C91 C 1.03485 1.11746 -0.05526
 C92 C 1.00207 1.08781 -0.05855
 C93 C 0.96580 1.10187 -0.08390
 C94 C 0.96204 1.14302 -0.10298
 H95 H 0.99611 1.40644 -0.11898
 H96 H 0.99438 1.34740 -0.24234
 H97 H 1.00018 1.41774 -0.27794
 H98 H 1.00174 1.47752 -0.15483
 H99 H 1.05732 1.18007 -0.06991
 H100 H 1.06351 1.11049 -0.03779
 H101 H 0.93952 1.08182 -0.08896
 H102 H 0.93332 1.15268 -0.12136
 C103 C 0.97267 0.62296 -0.19834
 C104 C 1.00525 0.62841 -0.16782
 C105 C 1.03696 0.59588 -0.16047
 C106 C 1.03615 0.55823 -0.18392
 C107 C 1.00354 0.55284 -0.21466
 C108 C 0.97189 0.58555 -0.22172
 C109 C 1.00646 0.66824 -0.14565
 C110 C 1.00631 0.70245 -0.12858
 C111 C 1.00521 0.74321 -0.10995
 C112 C 1.00396 0.77838 -0.09485
 C113 C 1.00254 0.82066 -0.07742
 C114 C 1.02231 0.82784 -0.03805
 C115 C 1.02215 0.86908 -0.02184
 C116 C 1.00185 0.90494 -0.04393
 C117 C 0.98259 0.89631 -0.08418
 C118 C 0.98281 0.85506 -0.10055
 H119 H 0.94820 0.64802 -0.20462
 H120 H 1.06255 0.59986 -0.13714
 H121 H 1.06122 0.53363 -0.17853
 H122 H 0.94699 0.58292 -0.24595
 H123 H 1.03861 0.80165 -0.02003
 H124 H 1.04008 0.87226 0.00745
 H125 H 0.96915 0.92111 -0.10481
 H126 H 0.96813 0.85021 -0.13174
 C127 C 1.14840 1.00976 0.41783
 C128 C 1.16901 1.01728 0.37893
 C129 C 1.21292 1.02443 0.37899
 C130 C 1.23635 1.02326 0.41758
 C131 C 1.21611 1.01489 0.45649
 C132 C 1.17192 1.00867 0.45660
 C133 C 1.14606 1.01591 0.33857
 C134 C 1.12863 1.01424 0.30386
 C135 C 1.11002 1.01180 0.26246
 C136 C 1.09532 1.00943 0.22661
 C137 C 1.07884 1.00640 0.18344
 C138 C 1.10139 1.02309 0.14915
 C139 C 1.08578 1.01972 0.10714
 C140 C 1.04670 1.00004 0.09764
 C141 C 1.02591 0.98167 0.13337
 C142 C 1.04135 0.98514 0.17541
 H143 H 1.11444 1.00407 0.41810
 H144 H 1.22921 1.03016 0.34912
 H145 H 1.27048 1.02803 0.41698
 H146 H 1.15582 1.00205 0.48636
 H147 H 1.13146 1.03839 0.15476
 H148 H 1.10609 1.03088 0.08271
 H149 H 0.99820 0.96289 0.12959
 H150 H 1.02415 0.97070 0.20162
 C151 C 1.17776 1.04669 -0.38922
 C152 C 1.17505 1.00832 -0.36529
 C153 C 1.19098 0.96987 -0.38192
 C154 C 1.21113 0.97002 -0.42152
 C155 C 1.21585 1.00869 -0.44471
 C156 C 1.19790 1.04684 -0.42887
 C157 C 1.15790 1.00855 -0.32284
 C158 C 1.14442 1.00822 -0.28691
 C159 C 1.12904 1.00701 -0.24470
 C160 C 1.11562 1.00511 -0.20878
 C161 C 1.09861 1.00160 -0.16638
 C162 C 1.07765 0.96495 -0.15404
 C163 C 1.05855 0.96226 -0.11407
 C164 C 1.05956 0.99572 -0.08458
 C165 C 1.08245 1.03193 -0.09781
 C166 C 1.10164 1.03492 -0.13788
 H167 H 1.16529 1.07661 -0.37675
 H168 H 1.18874 0.93993 -0.36381
 H169 H 1.22373 0.93996 -0.43338
 H170 H 1.20046 1.07700 -0.44627
 H171 H 1.07519 0.93859 -0.17573
 H172 H 1.04291 0.93360 -0.10764
 H173 H 1.08564 1.05873 -0.07790
 H174 H 1.11811 1.06364 -0.14685
 C175 C 0.83137 0.95884 0.39837
 C176 C 0.82524 0.99345 0.36902
 C177 C 0.80005 1.02930 0.38011
 C178 C 0.77941 1.02978 0.41943
 C179 C 0.78327 0.99411 0.44787
 C180 C 0.81078 0.95937 0.43785
 C181 C 0.84301 0.99178 0.32680
 C182 C 0.85672 0.99124 0.29093
 C183 C 0.87213 0.99178 0.24864
 C184 C 0.88542 0.99339 0.21260
 C185 C 0.90219 0.99687 0.17001
 C186 C 0.92266 1.03373 0.15737
 C187 C 0.94147 1.03655 0.11724
 C188 C 0.94071 1.00296 0.08786
 C189 C 0.91815 0.96658 0.10129
 C190 C 0.89926 0.96348 0.14155
 H191 H 0.85111 0.93105 0.39031
 H192 H 0.79556 1.05653 0.35792
 H193 H 0.75990 1.05777 0.42689
 H194 H 0.81482 0.93189 0.45975
 H195 H 0.92498 1.06020 0.17895
 H196 H 0.95678 1.06539 0.11066
 H197 H 0.91505 0.93973 0.08137
 H198 H 0.88309 0.93462 0.15067
 C199 C 0.81232 0.95015 -0.38894
 C200 C 0.83798 0.98458 -0.37960
 C201 C 0.84072 1.01864 -0.40954
 C202 C 0.81630 1.01916 -0.44770
 C203 C 0.78830 0.98610 -0.45578
 C204 C 0.78785 0.95074 -0.42697
 C205 C 0.85883 0.98618 -0.33808
 C206 C 0.87467 0.98768 -0.30258
 C207 C 0.89180 0.98963 -0.26042
 C208 C 0.90566 0.99148 -0.22416
 C209 C 0.92176 0.99395 -0.18071
 C210 C 0.95918 1.01516 -0.17218
 C211 C 0.97454 1.01795 -0.13003
 C212 C 0.95377 0.99897 -0.09461
 C213 C 0.91483 0.97923 -0.10454
 C214 C 0.89926 0.97652 -0.14671
 H215 H 0.81027 0.92341 -0.36624
 H216 H 0.86064 1.04538 -0.40279
 H217 H 0.81772 1.04633 -0.46994
 H218 H 0.76799 0.92395 -0.43304
 H219 H 0.97643 1.03004 -0.19810
 H220 H 1.00228 1.03664 -0.12594
 H221 H 0.89471 0.96731 -0.08027
 H222 H 0.86933 0.96110 -0.15266
 C223 C 1.40733 1.14841 0.00589
 C224 C 1.36736 1.17027 0.00765
 C225 C 1.36516 1.21507 0.00817
 C226 C 1.40255 1.23797 0.00706
 C227 C 1.44261 1.21639 0.00515
 C228 C 1.44495 1.17145 0.00475
 C229 C 1.32826 1.14742 0.00899
 C230 C 1.29446 1.13011 0.00999
 C231 C 1.25404 1.11146 0.01076
 C232 C 1.21910 1.09639 0.01085
 C233 C 1.17716 1.07890 0.01004
 C234 C 1.14247 1.10122 0.02740
 C235 C 1.10146 1.08493 0.02488
 C236 C 1.09345 1.04560 0.00507
 C237 C 1.12960 1.02444 -0.01282
 C238 C 1.17055 1.04054 -0.01021
 H239 H 1.40939 1.11371 0.00559
 H240 H 1.33449 1.23233 0.00960
 H241 H 1.40021 1.27265 0.00779
 H242 H 1.47560 1.15422 0.00388
 H243 H 1.14689 1.13171 0.04232
 H244 H 1.07637 1.10486 0.03680
 H245 H 1.12688 0.99606 -0.03100
 H246 H 1.19698 1.02329 -0.02483
 C247 C 0.59433 1.17096 -0.02894
 C248 C 0.62443 1.17660 0.00417
 C249 C 0.61329 1.20160 0.03905
 C250 C 0.57270 1.22172 0.04047
 C251 C 0.54261 1.21684 0.00709
 C252 C 0.55355 1.19107 -0.02749
 C253 C 0.66744 1.15868 0.00174
 C254 C 0.70389 1.14473 0.00031
 C255 C 0.74679 1.12898 -0.00102
 C256 C 0.78337 1.11540 -0.00223
 C257 C 0.82673 1.09832 -0.00409
 C258 C 0.85538 1.10226 0.03024
 C259 C 0.89647 1.08297 0.02908
 C260 C 0.91067 1.05902 -0.00621
 C261 C 0.88100 1.05718 -0.04083
 C262 C 0.83998 1.07636 -0.03995
 H263 H 0.60268 1.15186 -0.05624
 H264 H 0.63637 1.20644 0.06469
 H265 H 0.56567 1.24211 0.06707
 H266 H 0.53100 1.18750 -0.05386
 H267 H 0.84575 1.11949 0.05838
 H268 H 0.91641 1.08685 0.05659
 H269 H 0.88812 1.04082 -0.06905
 H270 H 0.81824 1.07319 -0.06711
 C271 C 1.38679 0.80218 -0.03859
 C272 C 1.37607 0.82414 -0.00163
 C273 C 1.40635 0.82676 0.03189
 C274 C 1.44695 0.80657 0.02867
 C275 C 1.45742 0.78375 -0.00807
 C276 C 1.42709 0.78199 -0.04176
 C277 C 1.33321 0.84190 0.00211
 C278 C 1.29673 0.85554 0.00394
 C279 C 1.25373 0.87081 0.00518
 C280 C 1.21704 0.88400 0.00612
 C281 C 1.17360 0.90071 0.00773
 C282 C 1.16004 0.92227 0.04368
 C283 C 1.11901 0.94133 0.04439
 C284 C 1.08961 0.93977 0.00951
 C285 C 1.10412 0.91618 -0.02590
 C286 C 1.14527 0.89700 -0.02689
 H287 H 1.36354 0.79972 -0.06458
 H288 H 1.39829 0.84351 0.06078
 H289 H 1.46969 0.80773 0.05525
 H290 H 1.43364 0.76397 -0.07012
 H291 H 1.18156 0.92524 0.07105
 H292 H 1.11175 0.95736 0.07272
 H293 H 1.08438 0.91252 -0.05362
 H294 H 1.15520 0.88008 -0.05512
 C295 C 0.63456 0.78475 -0.01383
 C296 C 0.63277 0.82915 -0.00886
 C297 C 0.59310 0.85079 -0.00380
 C298 C 0.55537 0.82793 -0.00369
 C299 C 0.55731 0.78336 -0.00840
 C300 C 0.59705 0.76201 -0.01372
 C301 C 0.67197 0.85184 -0.00892
 C302 C 0.70581 0.86908 -0.00898
 C303 C 0.74624 0.88768 -0.00884
 C304 C 0.78120 0.90267 -0.00833
 C305 C 0.82319 0.91999 -0.00703
 C306 C 0.82981 0.95821 0.01348
 C307 C 0.87078 0.97425 0.01622
 C308 C 0.90688 0.95318 -0.00185
 C309 C 0.89888 0.91394 -0.02179
 C310 C 0.85787 0.89771 -0.02444
 H311 H 0.66501 0.76768 -0.01784
 H312 H 0.59137 0.88519 -0.00005
 H313 H 0.52495 0.84502 -0.00009
 H314 H 0.59905 0.72765 -0.01777
 H315 H 0.80337 0.97543 0.02811
 H316 H 0.87354 1.00261 0.03444
 H317 H 0.92396 0.89410 -0.03384
 H318 H 0.85342 0.86734 -0.03958
 C319 C 0.86876 0.49034 0.27541
 C320 C 0.86719 0.49464 0.31989
 C321 C 0.90527 0.49740 0.34404
 C322 C 0.94479 0.49648 0.32355
 C323 C 0.94622 0.49304 0.27884
 C324 C 0.90807 0.48945 0.25501
 C325 C 0.82625 0.49657 0.34017
 C326 C 0.79135 0.49810 0.35593
 C327 C 0.75015 0.49950 0.37361
 C328 C 0.71497 0.50008 0.38875
 C329 C 0.67335 0.49976 0.40759
 C330 C 0.66743 0.47514 0.44467
 C331 C 0.62732 0.47455 0.46334
 C332 C 0.59145 0.49914 0.44634
 C333 C 0.59838 0.52232 0.40759
 C334 C 0.63861 0.52300 0.38870
 H335 H 0.83955 0.48805 0.25643
 H336 H 0.90439 0.50056 0.37854
 H337 H 0.97392 0.49892 0.34250
 H338 H 0.90865 0.48661 0.22046
 H339 H 0.69392 0.45630 0.45942
 H340 H 0.62550 0.45475 0.49191
 H341 H 0.57266 0.53856 0.39002
 H342 H 0.64239 0.54129 0.35905
 C343 C 0.09273 0.53447 0.33060
 C344 C 0.12537 0.50294 0.32636
 C345 C 0.11782 0.46675 0.30229
 C346 C 0.07841 0.46269 0.28130
 C347 C 0.04598 0.49472 0.28439
 C348 C 0.05313 0.53035 0.30965
 C349 C 0.16741 0.50826 0.34455
 C350 C 0.20332 0.51127 0.35859
 C351 C 0.24583 0.51282 0.37434
 C352 C 0.28220 0.51216 0.38794
 C353 C 0.32529 0.50874 0.40508
 C354 C 0.33913 0.47144 0.42734
 C355 C 0.38015 0.46794 0.44568
 C356 C 0.40936 0.50118 0.44257
 C357 C 0.39446 0.53831 0.41874
 C358 C 0.35325 0.54211 0.40025
 H359 H 0.09828 0.56270 0.34902
 H360 H 0.14291 0.44226 0.29865
 H361 H 0.07421 0.43533 0.26139
 H362 H 0.02872 0.55574 0.31178
 H363 H 0.31790 0.44501 0.43118
 H364 H 0.38762 0.43873 0.46225
 H365 H 0.41396 0.56513 0.41422
 H366 H 0.34312 0.57135 0.38274
 C367 C 0.91367 0.50274 0.65159
 C368 C 0.87545 0.49992 0.67423
 C369 C 0.87647 0.49991 0.71907
 C370 C 0.91533 0.50234 0.74128
 C371 C 0.95370 0.50509 0.71898
 C372 C 0.95285 0.50522 0.67398
 C373 C 0.83480 0.49700 0.65232
 C374 C 0.79968 0.49487 0.63607
 C375 C 0.75782 0.49322 0.61860
 C376 C 0.72184 0.49302 0.60404
 C377 C 0.67904 0.49470 0.58610
 C378 C 0.65005 0.46346 0.59647
 C379 C 0.60886 0.46547 0.57780
 C380 C 0.59396 0.49991 0.55013
 C381 C 0.62616 0.52836 0.53758
 C382 C 0.66712 0.52679 0.55609
 H383 H 0.91319 0.50270 0.61683
 H384 H 0.84719 0.49772 0.73691
 H385 H 0.91547 0.50174 0.77607
 H386 H 0.98221 0.50663 0.65627
 H387 H 0.65949 0.43692 0.61821
 H388 H 0.58970 0.43893 0.58493
 H389 H 0.62255 0.54934 0.50997
 H390 H 0.69017 0.54962 0.54533
 C391 C 0.12477 0.47336 0.70593
 C392 C 0.13246 0.50708 0.67697
 C393 C 0.10088 0.53968 0.66923
 C394 C 0.06191 0.53857 0.69071
 C395 C 0.05422 0.50477 0.71982
 C396 C 0.08603 0.47228 0.72733
 C397 C 0.17332 0.50823 0.65641
 C398 C 0.20808 0.50795 0.64023
 C399 C 0.24913 0.50672 0.62197
 C400 C 0.28419 0.50540 0.60641
 C401 C 0.32582 0.50404 0.58732
 C402 C 0.33149 0.52413 0.54760
 C403 C 0.37167 0.52305 0.52890
 C404 C 0.40823 0.50210 0.54901
 C405 C 0.40089 0.48143 0.58906
 C406 C 0.36064 0.48256 0.60802
 H407 H 0.14903 0.44816 0.71246
 H408 H 0.10656 0.56610 0.64705
 H409 H 0.03803 0.56428 0.68503
 H410 H 0.08161 0.44641 0.75040
 H411 H 0.30487 0.54121 0.53109
 H412 H 0.37363 0.54130 0.49948
 H413 H 0.42503 0.46223 0.60557
 H414 H 0.35662 0.46603 0.63863
 C415 C 0.47149 0.66360 0.08341
 C416 C 0.50373 0.66576 0.11511
 C417 C 0.53896 0.69103 0.10762
 C418 C 0.54148 0.71498 0.06930
 C419 C 0.50888 0.71374 0.03777
 C420 C 0.47407 0.68753 0.04487
 C421 C 0.49980 0.64459 0.15649
 C422 C 0.49739 0.62851 0.19199
 C423 C 0.49542 0.61120 0.23429
 C424 C 0.49431 0.59736 0.27079
 C425 C 0.49350 0.58160 0.31469
 C426 C 0.50865 0.60629 0.34776
 C427 C 0.50799 0.59093 0.39032
 C428 C 0.49414 0.54956 0.40184
 C429 C 0.47502 0.52762 0.36747
 C430 C 0.47561 0.54262 0.32482
 H431 H 0.44388 0.64441 0.08895
 H432 H 0.56393 0.69325 0.13199
 H433 H 0.56825 0.73550 0.06528
 H434 H 0.44823 0.68673 0.02127
 H435 H 0.52011 0.63802 0.34086
 H436 H 0.51510 0.61388 0.41380
 H437 H 0.45723 0.49947 0.37277
 H438 H 0.46133 0.52399 0.29985
 C439 C 0.50206 0.66423 0.89201
 C440 C 0.50589 0.69094 0.85541
 C441 C 0.51310 0.73448 0.85995
 C442 C 0.51537 0.75156 0.90072
 C443 C 0.51033 0.72531 0.93743
 C444 C 0.50441 0.68138 0.93303
 C445 C 0.50119 0.67436 0.81306
 C446 C 0.49700 0.66112 0.77735
 C447 C 0.49216 0.64513 0.73574
 C448 C 0.48846 0.62983 0.70087
 C449 C 0.48498 0.60841 0.66080
 C450 C 0.49339 0.62882 0.62172
 C451 C 0.49441 0.60513 0.58418
 C452 C 0.49142 0.55975 0.58495
 C453 C 0.47497 0.54295 0.62355
 C454 C 0.47356 0.56592 0.66115
 H455 H 0.49657 0.63042 0.88880
 H456 H 0.51617 0.75541 0.83193
 H457 H 0.51990 0.78559 0.90356
 H458 H 0.50061 0.66063 0.96097
 H459 H 0.49909 0.66282 0.62010
 H460 H 0.49701 0.62310 0.55438
 H461 H 0.46394 0.51150 0.62640
 H462 H 0.46403 0.55014 0.69068
 C463 C 0.48006 0.27540 0.13371
 C464 C 0.48141 0.32006 0.13477
 C465 C 0.48475 0.34418 0.09640
 C466 C 0.48721 0.32350 0.05712
 C467 C 0.48667 0.27865 0.05625
 C468 C 0.48258 0.25484 0.09468
 C469 C 0.48088 0.34036 0.17563
 C470 C 0.48133 0.35579 0.21064
 C471 C 0.48304 0.37275 0.25209
 C472 C 0.48567 0.38704 0.28752
 C473 C 0.49037 0.40464 0.32943
 C474 C 0.52658 0.42713 0.33934
 C475 C 0.53072 0.44607 0.37909
 C476 C 0.49933 0.44313 0.41098
 C477 C 0.46326 0.41930 0.39989
 C478 C 0.45885 0.40026 0.36002
 H479 H 0.47755 0.25641 0.16314
 H480 H 0.48583 0.37880 0.09689
 H481 H 0.48989 0.34244 0.02776
 H482 H 0.48187 0.22018 0.09455
 H483 H 0.55148 0.43084 0.31595
 H484 H 0.55877 0.46324 0.38351
 H485 H 0.43755 0.41537 0.42127
 H486 H 0.43041 0.38278 0.35288
 C487 C 0.46436 0.30152 0.88415
 C488 C 0.49858 0.32828 0.87718
 C489 C 0.52909 0.33331 0.91003
 C490 C 0.52576 0.31094 0.94936
 C491 C 0.49186 0.28349 0.95612
 C492 C 0.46107 0.27915 0.92330
 C493 C 0.50305 0.34866 0.83552
 C494 C 0.50589 0.36446 0.79996
 C495 C 0.50819 0.38191 0.75778
 C496 C 0.50933 0.39635 0.72151
 C497 C 0.50969 0.41347 0.67810
 C498 C 0.53161 0.45037 0.66845
 C499 C 0.53007 0.46804 0.62675
 C500 C 0.50596 0.45010 0.59307
 C501 C 0.48598 0.41135 0.60376
 C502 C 0.48746 0.39361 0.64549
 H503 H 0.44073 0.29713 0.85891
 H504 H 0.55588 0.35373 0.90493
 H505 H 0.55021 0.31414 0.97405
 H506 H 0.43514 0.25754 0.92713
 H507 H 0.54934 0.46608 0.69332
 H508 H 0.54664 0.49740 0.62159
 H509 H 0.47027 0.39321 0.58035
 H510 H 0.47114 0.36425 0.65225
 C511 C 0.69602 0.87764 0.46223
 C512 C 0.67332 0.86602 0.49872
 C513 C 0.66968 0.89447 0.53256
 C514 C 0.69050 0.93339 0.53070
 C515 C 0.71584 0.94369 0.49545
 C516 C 0.71692 0.91638 0.46045
 C517 C 0.65596 0.82398 0.50202
 C518 C 0.64274 0.78819 0.50394
 C519 C 0.62801 0.74595 0.50512
 C520 C 0.61532 0.70994 0.50507
 C521 C 0.59921 0.66738 0.50358
 C522 C 0.58985 0.64454 0.54102
 C523 C 0.57064 0.60491 0.53829
 C524 C 0.55559 0.58914 0.49866
 C525 C 0.57474 0.60817 0.46269
 C526 C 0.59392 0.64782 0.46437
 H527 H 0.69858 0.85620 0.43558
 H528 H 0.65188 0.88602 0.56084
 H529 H 0.68862 0.95444 0.55769
 H530 H 0.73466 0.92415 0.43208
 H531 H 0.59763 0.65698 0.57220
 H532 H 0.56854 0.58616 0.56770
 H533 H 0.57622 0.59291 0.43288
 H534 H 0.60500 0.66287 0.43509
 C535 C 0.66469 0.09242 0.46595
 C536 C 0.67158 0.12108 0.49895
 C537 C 0.69826 0.10843 0.53400
 C538 C 0.71976 0.06834 0.53500
 C539 C 0.71529 0.04065 0.50063
 C540 C 0.68613 0.05215 0.46704
 C541 C 0.65348 0.16428 0.49607
 C542 C 0.63973 0.20096 0.49438
 C543 C 0.62453 0.24423 0.49349
 C544 C 0.61162 0.28114 0.49395
 C545 C 0.59556 0.32490 0.49630
 C546 C 0.57861 0.33923 0.53444
 C547 C 0.56075 0.38074 0.53668
 C548 C 0.55869 0.40987 0.50109
 C549 C 0.57814 0.39470 0.46337
 C550 C 0.59610 0.35307 0.46087
 H551 H 0.64384 0.10167 0.43880
 H552 H 0.70341 0.13007 0.56001
 H553 H 0.74066 0.05979 0.56215
 H554 H 0.68168 0.03092 0.44057
 H555 H 0.57848 0.31800 0.56256
 H556 H 0.54869 0.38843 0.56690
 H557 H 0.57974 0.41451 0.43518
 H558 H 0.60979 0.34277 0.43103
 C559 C 0.29726 0.89000 0.47342
 C560 C 0.32257 0.87676 0.50921
 C561 C 0.32874 0.90496 0.54275
 C562 C 0.30863 0.94586 0.54090
 C563 C 0.28220 0.95880 0.50555
 C564 C 0.27711 0.93069 0.47161
 C565 C 0.34039 0.83355 0.51184
 C566 C 0.35420 0.79695 0.51264
 C567 C 0.36981 0.75397 0.51189
 C568 C 0.38337 0.71745 0.50976
 C569 C 0.40059 0.67442 0.50538
 C570 C 0.39770 0.64367 0.53825
 C571 C 0.41717 0.60290 0.53419
 C572 C 0.44114 0.59136 0.49755
 C573 C 0.44023 0.62268 0.46414
 C574 C 0.42097 0.66340 0.46787
 H575 H 0.29216 0.86841 0.44735
 H576 H 0.34812 0.89498 0.57073
 H577 H 0.31226 0.96667 0.56784
 H578 H 0.25649 0.93927 0.44424
 H579 H 0.38143 0.65141 0.56758
 H580 H 0.41506 0.58177 0.56178
 H581 H 0.45221 0.61642 0.43384
 H582 H 0.42212 0.68638 0.44122
 C583 C 0.34818 0.09452 0.52079
 C584 C 0.32746 0.13421 0.51052
 C585 C 0.28422 0.13597 0.49801
 C586 C 0.26157 0.09844 0.49637
 C587 C 0.28175 0.05865 0.50749
 C588 C 0.32541 0.05677 0.51912
 C589 C 0.34995 0.17347 0.51264
 C590 C 0.36714 0.20732 0.51374
 C591 C 0.38582 0.24773 0.51410
 C592 C 0.40105 0.28261 0.51344
 C593 C 0.41888 0.32439 0.51133
 C594 C 0.39741 0.35950 0.52878
 C595 C 0.41394 0.40038 0.52472
 C596 C 0.45277 0.40782 0.50339
 C597 C 0.47271 0.37133 0.48504
 C598 C 0.45643 0.33050 0.48919
 H599 H 0.38176 0.09277 0.53023
 H600 H 0.26794 0.16643 0.48965
 H601 H 0.22813 0.10060 0.48647
 H602 H 0.34188 0.02647 0.52719
 H603 H 0.36732 0.35553 0.54483
 H604 H 0.39429 0.42582 0.53632
 H605 H 0.49988 0.37373 0.46500
 H606 H 0.47277 0.30381 0.47414
   
