data_POSCAR
  _audit_creation_date              2014-09-24
  _audit_creation_method            'ToBaCCo'
  _symmetry_space_group_name_H-M    'P1'
  _symmetry_Int_Tables_number       1
  _symmetry_cell_setting            triclinic
  loop_
  _symmetry_equiv_pos_as_xyz
 x,y,z
_cell_length_a 19.9098
_cell_length_b 20.3278
_cell_length_c 36.3712
_cell_angle_alpha 88.503300
_cell_angle_beta 87.837700
_cell_angle_gamma 119.421400
loop_
  _atom_site_label
  _atom_site_type_symbol
  _atom_site_fract_x
  _atom_site_fract_y
  _atom_site_fract_z
C1 C 0.01474 0.09294 0.55021
 H2 H 0.06273 0.08216 0.55127
 C3 C 0.01582 0.15140 0.56965
 H4 H 0.06407 0.18487 0.58625
 C5 C -0.10439 0.06527 0.52545
 H6 H -0.14941 0.03340 0.50707
 C7 C -0.10512 0.12423 0.54421
 H8 H -0.15144 0.13686 0.54070
 N9 N -0.04439 0.05155 0.52851
 C10 C 0.00129 -0.13278 0.50745
 H11 H 0.00865 -0.12693 0.47771
 C12 C -0.00028 -0.19444 0.52609
 H13 H 0.00667 -0.23577 0.51066
 C14 C -0.02168 -0.08870 0.56370
 H15 H -0.03331 -0.04935 0.57817
 C16 C -0.02233 -0.14879 0.58348
 H17 H -0.03216 -0.15407 0.61317
 Zn18 Zn -0.02678 -0.01267 0.49803
 N19 N -0.01079 -0.08231 0.52633
 C20 C 0.13191 0.06160 0.47166
 N21 N 0.06074 0.05386 0.46773
 C22 C 0.05039 0.10213 0.44517
 C23 C 0.11320 0.16186 0.42567
 C24 C 0.19675 0.12132 0.45281
 C25 C -0.18248 -0.11255 0.48486
 C26 C -0.24244 -0.16578 0.46503
 C27 C -0.15151 -0.13545 0.41294
 C28 C -0.09391 -0.08167 0.43348
 N29 N -0.11014 -0.07135 0.46877
 H30 H 0.13881 0.02381 0.49065
 H31 H -0.00669 0.09556 0.44338
 H32 H 0.10433 0.20078 0.40834
 H33 H 0.25368 0.12899 0.45699
 H34 H -0.19293 -0.10635 0.51362
 H35 H -0.29825 -0.20051 0.47942
 H36 H -0.13628 -0.14171 0.38484
 H37 H -0.03531 -0.05051 0.42170
 C38 C -0.01447 -0.20395 0.56444
 C39 C -0.04321 0.16914 0.56571
 C40 C -0.22793 -0.17858 0.42831
 C41 C 0.18744 0.17242 0.42972
 C42 C 1.16328 0.06527 0.14474
 H43 H 1.17993 0.11230 0.16216
 C44 C 1.22089 0.05973 0.12452
 H45 H 1.28086 0.10127 0.12745
 C46 C 1.06615 -0.04363 0.11838
 H47 H 1.00588 -0.08316 0.11554
 C48 C 1.12224 -0.05031 0.09694
 H49 H 1.10463 -0.09503 0.07778
 N50 N 1.08740 0.01330 0.14204
 C51 C 0.89339 0.05466 0.15797
 H52 H 0.88899 0.05406 0.18773
 C53 C 0.83407 0.05189 0.13769
 H54 H 0.78454 0.05066 0.15180
 C55 C 0.96024 0.05073 0.10341
 H56 H 1.00822 0.04772 0.09034
 C57 C 0.90189 0.04757 0.08205
 H58 H 0.90549 0.04285 0.05253
 Zn59 Zn 1.01354 0.02710 0.17122
 N60 N 0.95346 0.05146 0.14075
 C61 C 1.07518 0.17399 0.19996
 N62 N 1.06921 0.10453 0.20384
 C63 C 1.11095 0.09026 0.22843
 C64 C 1.16293 0.14752 0.24952
 C65 C 1.12695 0.23321 0.22055
 C66 C 0.88962 -0.12120 0.17925
 C67 C 0.82712 -0.18399 0.19743
 C68 C 0.86959 -0.12517 0.25520
 C69 C 0.93125 -0.06341 0.23594
 N70 N 0.94053 -0.06253 0.19858
 H71 H 1.04266 0.18439 0.17971
 H72 H 1.10653 0.03505 0.23027
 H73 H 1.19765 0.13604 0.26809
 H74 H 1.13386 0.28919 0.21630
 H75 H 0.89498 -0.11763 0.14953
 H76 H 0.78605 -0.22956 0.18169
 H77 H 0.86214 -0.12480 0.28484
 H78 H 0.96929 -0.01508 0.25087
 C79 C 0.83657 0.04494 0.09950
 C80 C 1.20079 0.00109 0.10052
 C81 C 0.81678 -0.18610 0.23582
 C82 C 1.17213 0.22013 0.24525
 C83 C 0.10048 1.00718 0.89051
 H84 H 0.04210 0.98112 0.90255
 C85 C 0.15961 1.01298 0.91190
 H86 H 0.14675 0.99278 0.94054
 C87 C 0.18764 1.06020 0.83797
 H88 H 0.19724 1.07580 0.80881
 C89 C 0.24836 1.06610 0.85830
 H90 H 0.30503 1.08686 0.84475
 N91 N 0.11515 1.02963 0.85415
 C92 C -0.12472 0.92578 0.85759
 H93 H -0.13387 0.87791 0.84194
 C94 C -0.18580 0.92242 0.87950
 H95 H -0.24213 0.87238 0.87934
 C96 C -0.04199 1.05093 0.87446
 H97 H 0.01438 1.10085 0.87256
 C98 C -0.10085 1.04995 0.89671
 H99 H -0.08821 1.09937 0.91201
 Zn100 Zn 0.03034 1.00322 0.82450
 N101 N -0.05466 0.98977 0.85530
 C102 C -0.04880 0.87740 0.77785
 N103 N 0.01048 0.91305 0.80048
 C104 C 0.06036 0.88652 0.80623
 C105 C 0.05526 0.82590 0.78717
 C106 C -0.05565 0.81653 0.75790
 C107 C 0.09176 1.15622 0.80223
 C108 C 0.09059 1.21620 0.78316
 C109 C 0.01286 1.12929 0.73831
 C110 C 0.01540 1.07100 0.75823
 N111 N 0.05213 1.08472 0.79030
 H112 H -0.09022 0.89668 0.77479
 H113 H 0.10543 0.91286 0.82516
 H114 H 0.09659 0.80677 0.79149
 H115 H -0.10137 0.79013 0.73905
 H116 H 0.12008 1.16596 0.82790
 H117 H 0.11821 1.27196 0.79409
 H118 H -0.02035 1.11694 0.71402
 H119 H -0.01594 1.01436 0.74903
 C120 C -0.17433 0.98499 0.89984
 C121 C 0.23423 1.04150 0.89563
 C122 C 0.04836 1.20203 0.75162
 C123 C -0.00148 0.79204 0.76173
 C124 C 0.46185 0.01049 -0.02301
 C125 C 0.45534 0.00524 0.01584
 C126 C 0.51439 0.00454 0.03537
 C127 C 0.57676 0.00331 0.01684
 C128 C 0.57894 0.00093 -0.02199
 C129 C 0.52271 0.00677 -0.04160
 H130 H 0.52611 0.00810 -0.07146
 H131 H 0.51157 0.00467 0.06520
 C132 C -0.01953 0.42373 0.64308
 C133 C -0.00750 0.42738 0.68116
 C134 C -0.00428 0.48787 0.70028
 C135 C -0.01151 0.54531 0.68184
 C136 C -0.02304 0.54169 0.64369
 C137 C -0.02780 0.48062 0.62481
 H138 H -0.03681 0.47793 0.59555
 H139 H 0.00556 0.49107 0.72946
 C140 C 0.54799 0.57388 0.31611
 C141 C 0.54708 0.57018 0.35496
 C142 C 0.49042 0.50487 0.37471
 C143 C 0.43181 0.44596 0.35640
 C144 C 0.42626 0.45554 0.31814
 C145 C 0.48614 0.51796 0.29815
 H146 H 0.48504 0.52280 0.26844
 H147 H 0.49204 0.50000 0.40437
 C148 C 0.02548 0.31051 0.57354
 C149 C -0.03734 0.23695 0.58273
 C150 C -0.09304 0.22703 0.61025
 C151 C -0.08640 0.28820 0.62936
 C152 C -0.02353 0.36089 0.62173
 C153 C 0.03336 0.37267 0.59378
 C154 C 0.08043 0.32379 0.54443
 C155 C 0.14336 0.39582 0.53663
 C156 C 0.15281 0.45589 0.55748
 C157 C 0.09854 0.44475 0.58581
 H158 H 0.07502 0.27901 0.52724
 H159 H 0.18516 0.40501 0.51436
 H160 H 0.20222 0.51153 0.55155
 H161 H 0.10841 0.49300 0.60139
 H162 H -0.14124 0.17118 0.61747
 H163 H -0.13040 0.27873 0.65055
 C164 C 0.73789 0.67566 0.25735
 C165 C 0.74866 0.74998 0.25552
 C166 C 0.69350 0.76442 0.27287
 C167 C 0.62784 0.70657 0.29164
 C168 C 0.61573 0.63269 0.29373
 C169 C 0.67077 0.61648 0.27656
 C170 C 0.79348 0.65926 0.24145
 C171 C 0.78261 0.58607 0.24398
 C172 C 0.71690 0.52816 0.26263
 C173 C 0.66156 0.54297 0.27896
 H174 H 0.84611 0.70276 0.22731
 H175 H 0.82569 0.57434 0.23163
 H176 H 0.70903 0.47155 0.26469
 H177 H 0.61202 0.49643 0.29365
 H178 H 0.70133 0.82111 0.27176
 H179 H 0.58655 0.71957 0.30506
 C180 C 0.36747 0.10267 -0.07830
 C181 C 0.29487 0.03816 -0.08330
 C182 C 0.27920 -0.03268 -0.06840
 C183 C 0.33407 -0.04073 -0.04925
 C184 C 0.40654 0.02169 -0.04465
 C185 C 0.42411 0.09412 -0.05919
 C186 C 0.38436 0.17580 -0.09088
 C187 C 0.45608 0.23855 -0.08572
 C188 C 0.51190 0.22995 -0.06767
 C189 C 0.49624 0.15862 -0.05433
 H190 H 0.34221 0.18541 -0.10432
 H191 H 0.46826 0.29424 -0.09560
 H192 H 0.56737 0.27893 -0.06366
 H193 H 0.54078 0.15462 -0.03993
 H194 H 0.22399 -0.08249 -0.07195
 H195 H 0.32000 -0.09613 -0.03789
 C196 C -0.08949 0.67682 0.60618
 C197 C -0.02199 0.72801 0.58435
 C198 C 0.03997 0.71384 0.58081
 C199 C 0.03735 0.65194 0.59938
 C200 C -0.02670 0.60304 0.62261
 C201 C -0.09147 0.61411 0.62567
 C202 C -0.15593 0.68511 0.60830
 C203 C -0.22148 0.63438 0.62997
 C204 C -0.22282 0.57379 0.64936
 C205 C -0.15885 0.56310 0.64703
 H206 H -0.15859 0.72987 0.59289
 H207 H -0.27180 0.64171 0.63142
 H208 H -0.27407 0.53432 0.66592
 H209 H -0.16288 0.51427 0.66180
 H210 H 0.09142 0.75177 0.56389
 H211 H 0.08671 0.64318 0.59642
 C212 C 0.21958 0.32523 0.29040
 C213 C 0.23425 0.28314 0.26400
 C214 C 0.31052 0.30087 0.25489
 C215 C 0.37196 0.35846 0.27177
 C216 C 0.35909 0.39992 0.29849
 C217 C 0.28271 0.38532 0.30714
 C218 C 0.14360 0.30816 0.30106
 C219 C 0.13032 0.35118 0.32654
 C220 C 0.19215 0.41202 0.34164
 C221 C 0.26771 0.42940 0.33196
 H222 H 0.09394 0.26140 0.29000
 H223 H 0.07176 0.33757 0.33442
 H224 H 0.18150 0.44577 0.36107
 H225 H 0.31413 0.47747 0.34412
 H226 H 0.32253 0.26929 0.23463
 H227 H 0.43003 0.36942 0.26469
 C228 C 0.70873 -0.07761 -0.05626
 C229 C 0.76448 -0.01458 -0.07909
 C230 C 0.75709 0.05091 -0.08175
 C231 C 0.69604 0.05410 -0.06378
 C232 C 0.63958 -0.00791 -0.04249
 C233 C 0.64426 -0.07511 -0.03930
 C234 C 0.71788 -0.14094 -0.04760
 C235 C 0.66135 -0.20287 -0.02626
 C236 C 0.59511 -0.20290 -0.01270
 C237 C 0.58645 -0.13970 -0.01907
 H238 H 0.76946 -0.14266 -0.05626
 H239 H 0.66904 -0.25110 -0.02021
 H240 H 0.55092 -0.25151 0.00344
 H241 H 0.53444 -0.14161 -0.00782
 H242 H 0.79744 0.09977 -0.09906
 H243 H 0.69294 0.10576 -0.06638
 C244 C 0.27212 -0.06803 0.07927
 C245 C 0.26256 -0.00322 0.07832
 C246 C 0.31522 0.06125 0.05669
 C247 C 0.37687 0.06293 0.03658
 C248 C 0.38704 -0.00040 0.03670
 C249 C 0.33370 -0.06715 0.05752
 C250 C 0.22336 -0.13301 0.10205
 C251 C 0.23241 -0.19682 0.10185
 C252 C 0.29018 -0.19716 0.07925
 C253 C 0.34050 -0.13310 0.05728
 H254 H 0.17842 -0.13514 0.12047
 H255 H 0.19427 -0.24634 0.11929
 H256 H 0.29645 -0.24711 0.07897
 H257 H 0.38447 -0.13587 0.04009
 H258 H 0.30903 0.11133 0.05574
 H259 H 0.41750 0.11443 0.02104
 C260 C 0.63692 0.74764 0.41122
 C261 C 0.71610 0.76517 0.40941
 C262 C 0.73626 0.71947 0.38822
 C263 C 0.68074 0.65550 0.37217
 C264 C 0.60290 0.63550 0.37525
 C265 C 0.58023 0.68178 0.39454
 C266 C 0.61380 0.79808 0.42559
 C267 C 0.53678 0.78075 0.42676
 C268 C 0.48122 0.71442 0.41244
 C269 C 0.50257 0.66588 0.39597
 H270 H 0.65507 0.85274 0.43486
 H271 H 0.52036 0.81977 0.43824
 H272 H 0.42157 0.70157 0.41314
 H273 H 0.45774 0.61674 0.38375
 H274 H 0.79500 0.72952 0.38606
 H275 H 0.69881 0.62098 0.35714
 C276 C -0.03702 0.26052 0.74439
 C277 C 0.03272 0.26013 0.73536
 C278 C 0.08737 0.31454 0.70988
 C279 C 0.07358 0.36869 0.69294
 C280 C 0.00477 0.36985 0.70102
 C281 C -0.05131 0.31558 0.72690
 C282 C -0.09306 0.20707 0.77039
 C283 C -0.16197 0.20727 0.77851
 C284 C -0.17649 0.26027 0.76092
 C285 C -0.12196 0.31393 0.73529
 H286 H -0.08418 0.16483 0.78467
 H287 H -0.20444 0.16592 0.79847
 H288 H -0.23032 0.25980 0.76717
 H289 H -0.13584 0.35371 0.72208
 H290 H 0.14072 0.31455 0.70279
 H291 H 0.11671 0.40984 0.67309
 C292 C 0.69674 -0.03785 0.08448
 C293 C 0.76876 0.02973 0.07834
 C294 C 0.77647 0.08428 0.05174
 C295 C 0.71374 0.07412 0.03206
 C296 C 0.64137 0.00902 0.03827
 C297 C 0.63226 -0.04785 0.06462
 C298 C 0.68782 -0.09654 0.10936
 C299 C 0.61677 -0.16253 0.11517
 C300 C 0.55354 -0.17170 0.09624
 C301 C 0.56097 -0.11522 0.07114
 H302 H 0.73564 -0.09258 0.12419
 H303 H 0.61085 -0.20694 0.13435
 H304 H 0.49858 -0.22316 0.10079
 H305 H 0.51065 -0.12544 0.05663
 H306 H 0.83128 0.13579 0.04660
 H307 H 0.72142 0.11811 0.01209
 C308 C 0.30656 0.23590 0.38543
 C309 C 0.25494 0.24024 0.41189
 C310 C 0.26635 0.31130 0.42139
 C311 C 0.32616 0.37747 0.40447
 C312 C 0.37641 0.37470 0.37742
 C313 C 0.36912 0.30382 0.36889
 C314 C 0.29645 0.16573 0.37429
 C315 C 0.34886 0.16265 0.34882
 C316 C 0.41218 0.22902 0.33410
 C317 C 0.42263 0.29905 0.34407
 H318 H 0.24798 0.11277 0.38489
 H319 H 0.34054 0.10845 0.34063
 H320 H 0.45317 0.22625 0.31468
 H321 H 0.47270 0.34932 0.33209
 H322 H 0.22757 0.31547 0.44172
 H323 H 0.33148 0.43124 0.41149
 C324 C 0.06109 0.74478 0.71526
 C325 C -0.00270 0.73179 0.73923
 C326 C -0.06645 0.65883 0.74396
 C327 C -0.06744 0.59880 0.72587
 C328 C -0.00476 0.61000 0.70253
 C329 C 0.06090 0.68298 0.69766
 C330 C 0.12480 0.81809 0.70804
 C331 C 0.18810 0.82952 0.68539
 C332 C 0.18937 0.76849 0.66962
 C333 C 0.12663 0.69577 0.67572
 H334 H 0.12605 0.86724 0.71947
 H335 H 0.23658 0.88600 0.68020
 H336 H 0.23901 0.77757 0.65239
 H337 H 0.12991 0.64980 0.66303
 H338 H -0.11536 0.64808 0.76227
 H339 H -0.11790 0.54313 0.72981
   
