data_POSCAR
  _audit_creation_date              2014-09-24
  _audit_creation_method            'ToBaCCo'
  _symmetry_space_group_name_H-M    'P1'
  _symmetry_Int_Tables_number       1
  _symmetry_cell_setting            triclinic
  loop_
  _symmetry_equiv_pos_as_xyz
 x,y,z
_cell_length_a 38.2303
_cell_length_b 37.8535
_cell_length_c 37.5747
_cell_angle_alpha 89.961400
_cell_angle_beta 89.891900
_cell_angle_gamma 89.959700
loop_
  _atom_site_label
  _atom_site_type_symbol
  _atom_site_fract_x
  _atom_site_fract_y
  _atom_site_fract_z
N1 N 0.18850 1.26152 0.16350
 N2 N 0.16421 1.26095 0.18822
 C3 C 0.14086 1.28678 0.18162
 C4 C 0.15097 1.30467 0.15094
 C5 C 0.18156 1.28775 0.14038
 H6 H 0.11789 1.29156 0.19767
 H7 H 0.19732 1.29331 0.11717
 Cu8 Cu 0.16424 1.22557 0.22584
 Cu9 Cu 0.22606 1.22688 0.16176
 Cu10 Cu 0.22577 1.16174 0.22648
 N11 N 0.16393 1.18779 0.26101
 N12 N 0.18810 1.16314 0.26130
 C13 C 0.18101 1.13993 0.28746
 C14 C 0.15045 1.15034 0.30463
 C15 C 0.14052 1.18103 0.28695
 H16 H 0.19666 1.11678 0.29283
 H17 H 0.11764 1.19702 0.29196
 N18 N 0.26173 1.16469 0.18899
 N19 N 0.26186 1.18952 0.16436
 C20 C 0.28844 1.18339 0.14161
 C21 C 0.30595 1.15313 0.15231
 C22 C 0.28824 1.14212 0.18256
 H23 H 0.29409 1.19938 0.11850
 H24 H 0.29344 1.11866 0.19806
 H25 H 0.19798 1.18709 0.18664
 H26 H 0.22645 1.21518 0.21544
 N27 N 0.81055 0.73839 0.16345
 N28 N 0.83542 0.73954 0.18749
 C29 C 0.85866 0.71359 0.18086
 C30 C 0.84783 0.69514 0.15097
 C31 C 0.81708 0.71171 0.14074
 H32 H 0.88226 0.70921 0.19599
 H33 H 0.80090 0.70537 0.11809
 Cu34 Cu 0.83578 0.77623 0.22372
 Cu35 Cu 0.77277 0.77299 0.16185
 Cu36 Cu 0.77339 0.83847 0.22652
 N37 N 0.83611 0.81290 0.25997
 N38 N 0.81147 0.83706 0.26098
 C39 C 0.81830 0.85989 0.28749
 C40 C 0.84916 0.84971 0.30415
 C41 C 0.85955 0.81956 0.28581
 H42 H 0.80225 0.88262 0.29345
 H43 H 0.88276 0.80393 0.29031
 N44 N 0.73719 0.83531 0.18930
 N45 N 0.73693 0.81040 0.16477
 C46 C 0.71024 0.81648 0.14225
 C47 C 0.69280 0.84680 0.15295
 C48 C 0.71067 0.85789 0.18300
 H49 H 0.70453 0.80047 0.11921
 H50 H 0.70556 0.88137 0.19846
 H51 H 0.80007 0.81379 0.18559
 H52 H 0.77322 0.78512 0.21538
 N53 N 0.81054 1.26177 -0.16349
 N54 N 0.83542 1.26044 -0.18760
 C55 C 0.85872 1.28632 -0.18113
 C56 C 0.84791 1.30494 -0.15128
 C57 C 0.81710 1.28852 -0.14092
 H58 H 0.88235 1.29055 -0.19634
 H59 H 0.80092 1.29499 -0.11824
 Cu60 Cu 0.83589 1.22367 -0.22375
 Cu61 Cu 0.77275 1.22729 -0.16163
 Cu62 Cu 0.77329 1.16156 -0.22605
 N63 N 0.83604 1.18676 -0.25977
 N64 N 0.81138 1.16266 -0.26061
 C65 C 0.81823 1.13970 -0.28703
 C66 C 0.84913 1.14971 -0.30381
 C67 C 0.85952 1.17991 -0.28563
 H68 H 0.80215 1.11699 -0.29285
 H69 H 0.88276 1.19546 -0.29025
 N70 N 0.73705 1.16500 -0.18875
 N71 N 0.73687 1.18997 -0.16426
 C72 C 0.71023 1.18399 -0.14155
 C73 C 0.69274 1.15373 -0.15212
 C74 C 0.71050 1.14252 -0.18225
 H75 H 0.70450 1.20008 -0.11854
 H76 H 0.70534 1.11893 -0.19751
 H77 H 0.80001 1.18634 -0.18532
 H78 H 0.77321 1.21497 -0.21513
 N79 N 0.19019 0.73926 -0.16334
 N80 N 0.16561 0.73985 -0.18771
 C81 C 0.14252 0.71385 -0.18091
 C82 C 0.15316 0.69590 -0.15062
 C83 C 0.18363 0.71286 -0.14028
 H84 H 0.11921 0.70900 -0.19635
 H85 H 0.19966 0.70688 -0.11741
 Cu86 Cu 0.16524 0.77536 -0.22519
 Cu87 Cu 0.22777 0.77389 -0.16217
 Cu88 Cu 0.22706 0.83860 -0.22743
 N89 N 0.16469 0.81267 -0.26084
 N90 N 0.18910 0.83704 -0.26182
 C91 C 0.18201 0.85992 -0.28826
 C92 C 0.15121 0.84957 -0.30488
 C93 C 0.14113 0.81928 -0.28659
 H94 H 0.19784 0.88280 -0.29419
 H95 H 0.11808 0.80345 -0.29110
 N96 N 0.26328 0.83583 -0.19030
 N97 N 0.26353 0.81123 -0.16542
 C98 C 0.29018 0.81761 -0.14293
 C99 C 0.30757 0.84779 -0.15405
 C100 C 0.28975 0.85848 -0.18429
 H101 H 0.29566 0.80215 -0.11942
 H102 H 0.29508 0.88156 -0.20030
 H103 H 0.19974 0.81383 -0.18681
 H104 H 0.22760 0.78528 -0.21587
 C105 C 0.49976 0.99988 0.00026
 C106 C 0.00084 0.49964 0.99995
 C107 C 0.99962 -0.00061 0.50000
 C108 C 0.08332 0.37254 1.12889
 C109 C 0.09676 0.38654 1.09728
 C110 C 0.12866 0.37418 1.08402
 C111 C 0.14685 0.34754 1.10194
 C112 C 0.13336 0.33260 1.13357
 C113 C 0.10141 0.34592 1.14695
 C114 C 0.07714 0.41251 1.07769
 C115 C 0.06034 0.43358 1.06078
 C116 C 0.04023 0.45740 1.04039
 C117 C 0.02267 0.47695 1.02243
 H118 H 0.05856 0.38189 1.13937
 H119 H 0.13931 0.38483 1.05951
 H120 H 0.17128 0.33866 1.09052
 H121 H 0.08982 0.33569 1.17109
 C122 C -0.08606 0.62294 1.13033
 C123 C -0.09673 0.61224 1.09643
 C124 C -0.12612 0.62780 1.08080
 C125 C -0.14450 0.65433 1.09873
 C126 C -0.13367 0.66578 1.13261
 C127 C -0.10439 0.64947 1.14834
 C128 C -0.07672 0.58638 1.07705
 C129 C -0.05959 0.56542 1.06030
 C130 C -0.03914 0.54172 1.04009
 C131 C -0.02129 0.52225 1.02227
 H132 H -0.06331 0.61109 1.14269
 H133 H -0.13454 0.61980 1.05449
 H134 H -0.16674 0.66620 1.08560
 H135 H -0.09539 0.65723 1.17445
 C136 C -0.08555 0.37663 0.86927
 C137 C -0.09650 0.38771 0.90300
 C138 C -0.12620 0.37258 0.91852
 C139 C -0.14462 0.34612 0.90066
 C140 C -0.13352 0.33427 0.86695
 C141 C -0.10393 0.35015 0.85132
 C142 C -0.07646 0.41347 0.92237
 C143 C -0.05935 0.43434 0.93916
 C144 C -0.03894 0.45790 0.95948
 C145 C -0.02117 0.47723 0.97742
 H146 H -0.06255 0.38814 0.85700
 H147 H -0.13484 0.38088 0.94470
 H148 H -0.16711 0.33461 0.91371
 H149 H -0.09469 0.34210 0.82535
 C150 C 0.08792 0.62289 0.86976
 C151 C 0.09845 0.61242 0.90379
 C152 C 0.12745 0.62845 0.91965
 C153 C 0.14557 0.65520 0.90179
 C154 C 0.13488 0.66641 0.86775
 C155 C 0.10599 0.64964 0.85182
 C156 C 0.07860 0.58639 0.92311
 C157 C 0.06153 0.56533 0.93979
 C158 C 0.04104 0.54159 0.95993
 C159 C 0.02312 0.52215 0.97768
 H160 H 0.06546 0.61069 0.85724
 H161 H 0.13575 0.62063 0.94607
 H162 H 0.16751 0.66742 0.91506
 H163 H 0.09710 0.65720 0.82560
 C164 C 1.08270 0.12806 0.37289
 C165 C 1.09600 0.09652 0.38668
 C166 C 1.12783 0.08334 0.37404
 C167 C 1.14610 0.10131 0.34734
 C168 C 1.13275 0.13290 0.33261
 C169 C 1.10087 0.14617 0.34620
 C170 C 1.07631 0.07692 0.41271
 C171 C 1.05944 0.06002 0.43383
 C172 C 1.03925 0.03967 0.45769
 C173 C 1.02159 0.02177 0.47728
 H174 H 1.05801 0.13848 0.38245
 H175 H 1.13836 0.05888 0.38453
 H176 H 1.17046 0.08996 0.33825
 H177 H 1.08940 0.17027 0.33614
 C178 C 1.12875 -0.08438 0.62477
 C179 C 1.09667 -0.09737 0.61278
 C180 C 1.08316 -0.12851 0.62728
 C181 C 1.10135 -0.14637 0.65406
 C182 C 1.13348 -0.13326 0.66703
 C183 C 1.14704 -0.10211 0.65157
 C184 C 1.07690 -0.07790 0.58676
 C185 C 1.05992 -0.06108 0.56571
 C186 C 1.03958 -0.04080 0.54198
 C187 C 1.02177 -0.02294 0.52253
 H188 H 1.13945 -0.06024 0.61373
 H189 H 1.05826 -0.13877 0.61823
 H190 H 1.08969 -0.17013 0.66470
 H191 H 1.17161 -0.09091 0.66015
 C192 C 0.91696 -0.12809 0.37210
 C193 C 0.90329 -0.09697 0.38648
 C194 C 0.87119 -0.08408 0.37437
 C195 C 0.85302 -0.10191 0.34759
 C196 C 0.86675 -0.13304 0.33225
 C197 C 0.89890 -0.14604 0.34533
 C198 C 0.92288 -0.07748 0.41258
 C199 C 0.93970 -0.06070 0.43375
 C200 C 0.95989 -0.04052 0.45766
 C201 C 0.97758 -0.02278 0.47727
 H202 H 0.94186 -0.13829 0.38126
 H203 H 0.86036 -0.05995 0.38532
 H204 H 0.82844 -0.09079 0.33891
 H205 H 0.91067 -0.16981 0.33481
 C206 C 0.87122 0.08311 0.62624
 C207 C 0.90331 0.09591 0.61394
 C208 C 0.91697 0.12709 0.62812
 C209 C 0.89890 0.14519 0.65487
 C210 C 0.86675 0.13229 0.66813
 C211 C 0.85304 0.10109 0.65300
 C212 C 0.92290 0.07631 0.58782
 C213 C 0.93972 0.05947 0.56662
 C214 C 0.95991 0.03925 0.54263
 C215 C 0.97759 0.02152 0.52291
 H216 H 0.86040 0.05894 0.61545
 H217 H 0.94187 0.13722 0.61881
 H218 H 0.91066 0.16900 0.66522
 H219 H 0.82846 0.09004 0.66183
 C220 C 0.37861 1.08765 0.13169
 C221 C 0.38846 1.09807 0.09739
 C222 C 0.37229 1.12724 0.08153
 C223 C 0.34596 1.14558 0.09962
 C224 C 0.33529 1.13491 0.13388
 C225 C 0.35228 1.10594 0.14985
 C226 C 0.41399 1.07794 0.07781
 C227 C 0.43468 1.06069 0.06091
 C228 C 0.45806 1.04008 0.04053
 C229 C 0.47731 1.02212 0.02263
 H230 H 0.39096 1.06508 0.14422
 H231 H 0.37964 1.13548 0.05493
 H232 H 0.33359 1.16759 0.08630
 H233 H 0.34517 1.09709 0.17625
 C234 C 0.61923 1.08926 -0.13182
 C235 C 0.61053 1.09864 -0.09690
 C236 C 0.62774 1.12685 -0.08050
 C237 C 0.65397 1.14523 -0.09867
 C238 C 0.66348 1.13558 -0.13356
 C239 C 0.64548 1.10760 -0.15006
 C240 C 0.58511 1.07839 -0.07730
 C241 C 0.56454 1.06104 -0.06037
 C242 C 0.54128 1.04031 -0.03998
 C243 C 0.52212 1.02224 -0.02207
 H244 H 0.60607 1.06745 -0.14478
 H245 H 0.62131 1.13426 -0.05342
 H246 H 0.66724 1.16642 -0.08494
 H247 H 0.65171 1.09961 -0.17696
 C248 C 0.38026 0.86862 -0.08846
 C249 C 0.38958 0.90285 -0.09879
 C250 C 0.37309 0.91859 -0.12797
 C251 C 0.34695 0.90045 -0.14640
 C252 C 0.33680 0.86625 -0.13582
 C253 C 0.35412 0.85040 -0.10685
 C254 C 0.41490 0.92247 -0.07854
 C255 C 0.43540 0.93940 -0.06119
 C256 C 0.45855 0.95977 -0.04043
 C257 C 0.47759 0.97764 -0.02229
 H258 H 0.39285 0.85618 -0.06588
 H259 H 0.38003 0.94514 -0.13613
 H260 H 0.33432 0.91368 -0.16841
 H261 H 0.34739 0.82406 -0.09807
 C262 C 0.62538 0.87163 0.08302
 C263 C 0.61033 0.90180 0.09808
 C264 C 0.62123 0.91328 0.13164
 C265 C 0.64752 0.89502 0.14983
 C266 C 0.66343 0.86502 0.13461
 C267 C 0.65167 0.85332 0.10112
 C268 C 0.58490 0.92187 0.07836
 C269 C 0.56432 0.93905 0.06131
 C270 C 0.54109 0.95962 0.04077
 C271 C 0.52199 0.97758 0.02274
 H272 H 0.61720 0.86255 0.05699
 H273 H 0.60977 0.93665 0.14355
 H274 H 0.65548 0.90475 0.17561
 H275 H 0.66311 0.83046 0.08840
   
