data_POSCAR
  _audit_creation_date              2014-09-24
  _audit_creation_method            'ToBaCCo'
  _symmetry_space_group_name_H-M    'P1'
  _symmetry_Int_Tables_number       1
  _symmetry_cell_setting            triclinic
  loop_
  _symmetry_equiv_pos_as_xyz
 x,y,z
_cell_length_a 16.3959
_cell_length_b 16.3948
_cell_length_c 26.9118
_cell_angle_alpha 90.386100
_cell_angle_beta 89.791500
_cell_angle_gamma 90.010400
loop_
  _atom_site_label
  _atom_site_type_symbol
  _atom_site_fract_x
  _atom_site_fract_y
  _atom_site_fract_z
O1 O 0.07996 0.56978 1.04796
 O2 O 0.05545 0.41137 0.95145
 O3 O 0.08079 0.56862 0.95087
 O4 O 0.05520 0.41269 1.04752
 O5 O -0.07773 0.43430 1.04779
 O6 O -0.05189 0.59111 0.95170
 O7 O -0.07732 0.43383 0.95070
 O8 O -0.05298 0.59133 1.04763
 Cu9 Cu 0.08123 0.48865 0.99941
 Cu10 Cu -0.07836 0.51455 0.99940
 C11 C 0.01762 0.60779 1.06410
 C12 C -0.01516 0.39528 0.93482
 C13 C 0.01890 0.60720 0.93509
 C14 C -0.01563 0.39660 1.06395
 O15 O 0.43214 0.07712 0.54842
 O16 O 0.59062 0.05285 0.45212
 O17 O 0.43334 0.07834 0.45129
 O18 O 0.58917 0.05237 0.54806
 O19 O 0.56755 -0.08058 0.54728
 O20 O 0.41084 -0.05446 0.45100
 O21 O 0.56803 -0.07981 0.45024
 O22 O 0.41050 -0.05582 0.54705
 Cu23 Cu 0.51323 0.07856 0.50003
 Cu24 Cu 0.48726 -0.08104 0.49875
 C25 C 0.39415 0.01474 0.56406
 C26 C 0.60694 -0.01769 0.43496
 C27 C 0.39506 0.01641 0.43493
 C28 C 0.60532 -0.01853 0.56394
 Si29 Si -0.00101 0.00428 0.25042
 Si30 Si -0.00121 -0.00394 0.75037
 C31 C -0.03063 -0.21301 0.14345
 C32 C 0.04282 -0.20106 0.16917
 N33 N 0.10648 -0.25228 0.16062
 C34 C 0.10018 -0.31481 0.12734
 C35 C 0.02663 -0.32699 0.10155
 N36 N -0.03709 -0.27563 0.11052
 N37 N -0.09369 -0.16071 0.15098
 C38 C -0.08660 -0.09674 0.18305
 C39 C -0.01353 -0.08502 0.20904
 N40 N 0.04974 -0.13742 0.20146
 H41 H 0.15203 -0.35447 0.12108
 H42 H -0.13736 -0.05523 0.18803
 C43 C 0.03143 0.21986 0.14402
 C44 C -0.04288 0.20788 0.16902
 N45 N -0.10666 0.25830 0.15982
 C46 C -0.09966 0.32007 0.12655
 C47 C -0.02530 0.33224 0.10141
 N48 N 0.03855 0.28169 0.11104
 N49 N 0.09463 0.16828 0.15222
 C50 C 0.08686 0.10503 0.18429
 C51 C 0.01291 0.09332 0.20959
 N52 N -0.05051 0.14492 0.20124
 H53 H -0.15163 0.35908 0.11978
 H54 H 0.13770 0.06397 0.18969
 C55 C 0.21584 -0.03384 0.64350
 C56 C 0.20369 0.03981 0.66941
 N57 N 0.25450 0.10368 0.66098
 C58 C 0.31680 0.09740 0.62762
 C59 C 0.32915 0.02368 0.60160
 N60 N 0.27822 -0.04026 0.61046
 N61 N 0.16393 -0.09712 0.65093
 C62 C 0.10014 -0.09004 0.68306
 C63 C 0.08818 -0.01672 0.70920
 N64 N 0.14021 0.04674 0.70173
 H65 H 0.35613 0.14942 0.62147
 H66 H 0.05891 -0.14096 0.68793
 C67 C -0.21700 0.02821 0.64388
 C68 C -0.20524 -0.04592 0.66867
 N69 N -0.25610 -0.10952 0.65935
 C70 C -0.31811 -0.10249 0.62617
 C71 C -0.33009 -0.02827 0.60129
 N72 N -0.27909 0.03538 0.61103
 N73 N -0.16500 0.09122 0.65218
 C74 C -0.10157 0.08345 0.68418
 C75 C -0.09013 0.00971 0.70933
 N76 N -0.14213 -0.05354 0.70085
 H77 H -0.35748 -0.15431 0.61929
 H78 H -0.06021 0.13415 0.68969
 C79 C -0.03117 -0.22261 0.85473
 C80 C 0.04494 -0.20471 0.83340
 N81 N 0.11092 -0.25028 0.84559
 C82 C 0.10444 -0.31280 0.87838
 C83 C 0.02812 -0.33107 0.89993
 N84 N -0.03784 -0.28529 0.88713
 N85 N -0.09674 -0.17561 0.84377
 C86 C -0.08964 -0.11136 0.81239
 C87 C -0.01386 -0.09394 0.79057
 N88 N 0.05193 -0.14089 0.80175
 H89 H 0.15843 -0.34754 0.88751
 H90 H -0.14249 -0.07395 0.80490
 C91 C 0.03089 0.21375 0.85688
 C92 C -0.04221 0.20314 0.83059
 N93 N -0.10480 0.25601 0.83826
 C94 C -0.09778 0.31891 0.87122
 C95 C -0.02458 0.32978 0.89758
 N96 N 0.03810 0.27678 0.88949
 N97 N 0.09281 0.15980 0.85022
 C98 C 0.08492 0.09552 0.81843
 C99 C 0.01222 0.08518 0.79183
 N100 N -0.04989 0.13922 0.79858
 H101 H -0.14881 0.35986 0.87678
 H102 H 0.13478 0.05277 0.81409
 C103 C -0.22130 0.03330 0.35504
 C104 C -0.20321 -0.04254 0.33316
 N105 N -0.24915 -0.10861 0.34484
 C106 C -0.31224 -0.10249 0.37764
 C107 C -0.33072 -0.02645 0.39975
 N108 N -0.28456 0.03963 0.38746
 N109 N -0.17395 0.09893 0.34456
 C110 C -0.10916 0.09215 0.31314
 C111 C -0.09154 0.01663 0.29079
 N112 N -0.13886 -0.04921 0.30149
 H113 H -0.34726 -0.15655 0.38636
 H114 H -0.07152 0.14503 0.30599
 C115 C 0.21496 -0.02875 0.35665
 C116 C 0.20476 0.04467 0.33083
 N117 N 0.25743 0.10723 0.33894
 C118 C 0.31974 0.09987 0.37188
 C119 C 0.33021 0.02634 0.39775
 N120 N 0.27740 -0.03630 0.38923
 N121 N 0.16119 -0.09066 0.34959
 C122 C 0.09746 -0.08246 0.31786
 C123 C 0.08753 -0.00946 0.29171
 N124 N 0.14139 0.05266 0.29886
 H125 H 0.36055 0.15088 0.37780
 H126 H 0.05482 -0.13232 0.31322
   
