data_POSCAR
  _audit_creation_date              2014-09-24
  _audit_creation_method            'ToBaCCo'
  _symmetry_space_group_name_H-M    'P1'
  _symmetry_Int_Tables_number       1
  _symmetry_cell_setting            triclinic
  loop_
  _symmetry_equiv_pos_as_xyz
 x,y,z
_cell_length_a 49.5532
_cell_length_b 48.7904
_cell_length_c 48.5114
_cell_angle_alpha 89.455100
_cell_angle_beta 89.880100
_cell_angle_gamma 90.024500
loop_
  _atom_site_label
  _atom_site_type_symbol
  _atom_site_fract_x
  _atom_site_fract_y
  _atom_site_fract_z
N1 N 0.19457 1.24842 0.17420
 N2 N 0.17515 1.24719 0.19273
 C3 C 0.15713 1.26726 0.18749
 C4 C 0.16594 1.28168 0.16463
 C5 C 0.18963 1.26930 0.15657
 H6 H 0.13869 1.27067 0.19891
 H7 H 0.20188 1.27455 0.13880
 Cu8 Cu 0.17476 1.21848 0.22082
 Cu9 Cu 0.22392 1.22185 0.17328
 Cu10 Cu 0.22326 1.17056 0.22342
 N11 N 0.17445 1.18980 0.24894
 N12 N 0.19358 1.17111 0.24986
 C13 C 0.18819 1.15317 0.27042
 C14 C 0.16452 1.16121 0.28291
 C15 C 0.15619 1.18438 0.26889
 H16 H 0.20019 1.13528 0.27542
 H17 H 0.13793 1.19594 0.27254
 N18 N 0.25152 1.17355 0.19485
 N19 N 0.25178 1.19310 0.17580
 C20 C 0.27268 1.18880 0.15856
 C21 C 0.28608 1.16560 0.16730
 C22 C 0.27226 1.15632 0.19020
 H23 H 0.27731 1.20103 0.14046
 H24 H 0.27650 1.13790 0.20199
 H25 H 0.20290 1.18984 0.19156
 H26 H 0.22316 1.21205 0.21478
 N27 N 0.80827 0.75271 0.17255
 N28 N 0.82775 0.75419 0.19086
 C29 C 0.84596 0.73433 0.18585
 C30 C 0.83727 0.71979 0.16332
 C31 C 0.81340 0.73189 0.15528
 H32 H 0.86439 0.73099 0.19729
 H33 H 0.80103 0.72633 0.13785
 Cu34 Cu 0.82784 0.78256 0.21877
 Cu35 Cu 0.77841 0.77864 0.17165
 Cu36 Cu 0.77786 0.82899 0.22168
 N37 N 0.82709 0.81058 0.24703
 N38 N 0.80740 0.82864 0.24809
 C39 C 0.81196 0.84595 0.26903
 C40 C 0.83568 0.83818 0.28162
 C41 C 0.84489 0.81579 0.26729
 H42 H 0.79923 0.86312 0.27440
 H43 H 0.86330 0.80449 0.27110
 N44 N 0.74977 0.82594 0.19316
 N45 N 0.74996 0.80674 0.17414
 C46 C 0.72892 0.81078 0.15703
 C47 C 0.71495 0.83348 0.16583
 C48 C 0.72859 0.84271 0.18864
 H49 H 0.72449 0.79868 0.13904
 H50 H 0.72385 0.86074 0.20050
 H51 H 0.79871 0.81085 0.18970
 H52 H 0.77923 0.78760 0.21318
 N53 N 0.80628 1.25200 -0.17415
 N54 N 0.82452 1.25221 -0.19390
 C55 C 0.84238 1.27244 -0.18912
 C56 C 0.83475 1.28548 -0.16527
 C57 C 0.81187 1.27209 -0.15619
 H58 H 0.86002 1.27688 -0.20155
 H59 H 0.80064 1.27616 -0.13754
 Cu60 Cu 0.82429 1.22516 -0.22313
 Cu61 Cu 0.77768 1.22476 -0.17229
 Cu62 Cu 0.77762 1.17480 -0.22244
 N63 N 0.82448 1.19602 -0.25025
 N64 N 0.80619 1.17646 -0.24993
 C65 C 0.81166 1.15854 -0.27012
 C66 C 0.83452 1.16746 -0.28369
 C67 C 0.84230 1.19116 -0.27067
 H68 H 0.80033 1.14005 -0.27413
 H69 H 0.85995 1.20346 -0.27524
 N70 N 0.75032 1.17646 -0.19298
 N71 N 0.75034 1.19552 -0.17383
 C72 C 0.73001 1.19048 -0.15599
 C73 C 0.71669 1.16727 -0.16446
 C74 C 0.72997 1.15879 -0.18783
 H75 H 0.72564 1.20230 -0.13778
 H76 H 0.72557 1.14068 -0.19969
 H77 H 0.79946 1.19456 -0.19214
 H78 H 0.77661 1.21621 -0.21389
 N79 N 0.19653 0.74992 -0.17551
 N80 N 0.18018 0.74803 -0.19675
 C81 C 0.16239 0.72762 -0.19205
 C82 C 0.16809 0.71621 -0.16662
 C83 C 0.18975 0.73074 -0.15659
 H84 H 0.14617 0.72196 -0.20577
 H85 H 0.19939 0.72802 -0.13677
 Cu86 Cu 0.18286 0.77315 -0.22789
 Cu87 Cu 0.22443 0.77795 -0.17342
 Cu88 Cu 0.22366 0.82814 -0.22435
 N89 N 0.17930 0.80382 -0.25338
 N90 N 0.19535 0.82526 -0.25199
 C91 C 0.18798 0.84378 -0.27132
 C92 C 0.16626 0.83322 -0.28540
 C93 C 0.16111 0.80794 -0.27359
 H94 H 0.19726 0.86364 -0.27441
 H95 H 0.14501 0.79393 -0.27882
 N96 N 0.25063 0.82724 -0.19453
 N97 N 0.25092 0.80808 -0.17511
 C98 C 0.27098 0.81352 -0.15727
 C99 C 0.28379 0.83710 -0.16601
 C100 C 0.27051 0.84538 -0.18957
 H101 H 0.27558 0.80162 -0.13896
 H102 H 0.27466 0.86357 -0.20176
 H103 H 0.20163 0.80582 -0.19573
 H104 H 0.22843 0.78695 -0.21503
 Si105 Si 0.49978 1.00001 0.00035
 Si106 Si 0.00079 0.49995 1.00130
 Si107 Si 0.99683 -0.00081 0.50150
 C108 C 0.15264 0.30217 1.15121
 C109 C 0.14059 0.32003 1.13910
 C110 C 0.12587 0.34092 1.12435
 C111 C 0.13467 0.36818 1.12455
 C112 C 0.12037 0.38833 1.10997
 C113 C 0.09712 0.38141 1.09495
 C114 C 0.08842 0.35395 1.09498
 C115 C 0.10271 0.33387 1.10958
 C116 C 0.08198 0.40263 1.07921
 C117 C 0.07156 0.39674 1.05296
 C118 C 0.05675 0.41641 1.03837
 C119 C 0.05213 0.44223 1.04974
 C120 C 0.06261 0.44843 1.07572
 C121 C 0.07749 0.42877 1.09037
 C122 C 0.03611 0.46197 1.03485
 C123 C 0.02230 0.47776 1.02186
 H124 H 0.15262 0.37384 1.13587
 H125 H 0.12773 0.40923 1.11010
 H126 H 0.07038 0.34803 1.08397
 H127 H 0.09568 0.31284 1.10935
 H128 H 0.07501 0.37697 1.04364
 H129 H 0.04877 0.41142 1.01825
 H130 H 0.05907 0.46833 1.08476
 H131 H 0.08500 0.43380 1.11065
 C132 C -0.14872 0.69794 1.14979
 C133 C -0.13665 0.67991 1.13826
 C134 C -0.12186 0.65878 1.12428
 C135 C -0.10052 0.66591 1.10670
 C136 C -0.08596 0.64554 1.09313
 C137 C -0.09255 0.61771 1.09697
 C138 C -0.11412 0.61073 1.11462
 C139 C -0.12865 0.63116 1.12820
 C140 C -0.07701 0.59615 1.08249
 C141 C -0.09022 0.57355 1.07077
 C142 C -0.07559 0.55384 1.05625
 C143 C -0.04759 0.55642 1.05337
 C144 C -0.03424 0.57860 1.06530
 C145 C -0.04881 0.59832 1.07978
 C146 C -0.03258 0.53706 1.03724
 C147 C -0.01958 0.52161 1.02326
 H148 H -0.09516 0.68722 1.10343
 H149 H -0.06976 0.65161 1.07936
 H150 H -0.11950 0.58948 1.11820
 H151 H -0.14512 0.62542 1.14181
 H152 H -0.11194 0.57147 1.07224
 H153 H -0.08615 0.53683 1.04695
 H154 H -0.01257 0.58081 1.06318
 H155 H -0.03801 0.61525 1.08890
 C156 C -0.15089 0.30682 0.84866
 C157 C -0.13860 0.32438 0.86063
 C158 C -0.12361 0.34490 0.87523
 C159 C -0.09724 0.33933 0.88388
 C160 C -0.08276 0.35888 0.89863
 C161 C -0.09448 0.38433 0.90498
 C162 C -0.12093 0.38985 0.89599
 C163 C -0.13540 0.37022 0.88124
 C164 C -0.07923 0.40482 0.92119
 C165 C -0.08031 0.43288 0.91427
 C166 C -0.06559 0.45202 0.92942
 C167 C -0.04972 0.44335 0.95168
 C168 C -0.04869 0.41553 0.95881
 C169 C -0.06333 0.39639 0.94371
 C170 C -0.03411 0.46275 0.96712
 C171 C -0.02055 0.47824 0.98045
 H172 H -0.08790 0.31982 0.87929
 H173 H -0.06231 0.35417 0.90490
 H174 H -0.13060 0.40911 0.90082
 H175 H -0.15584 0.37471 0.87473
 H176 H -0.09215 0.43996 0.89687
 H177 H -0.06646 0.47352 0.92367
 H178 H -0.03651 0.40861 0.97605
 H179 H -0.06241 0.37500 0.94982
 C180 C 0.15326 0.69502 0.84752
 C181 C 0.14072 0.67753 0.85972
 C182 C 0.12562 0.65703 0.87469
 C183 C 0.12036 0.63154 0.86285
 C184 C 0.10547 0.61178 0.87742
 C185 C 0.09561 0.61734 0.90402
 C186 C 0.10113 0.64301 0.91575
 C187 C 0.11603 0.66269 0.90117
 C188 C 0.07952 0.59659 0.91947
 C189 C 0.05685 0.60460 0.93494
 C190 C 0.04193 0.58522 0.94988
 C191 C 0.04940 0.55757 0.94959
 C192 C 0.07180 0.54932 0.93413
 C193 C 0.08676 0.56870 0.91912
 C194 C 0.03421 0.53793 0.96559
 C195 C 0.02115 0.52218 0.97948
 H196 H 0.12764 0.62697 0.84233
 H197 H 0.10129 0.59234 0.86773
 H198 H 0.09417 0.64776 0.93633
 H199 H 0.12006 0.68233 0.91056
 H200 H 0.05052 0.62583 0.93531
 H201 H 0.02459 0.59181 0.96175
 H202 H 0.07781 0.52798 0.93385
 H203 H 0.10427 0.56195 0.90766
 C204 C 1.15095 0.14774 0.30330
 C205 C 1.13863 0.13568 0.32112
 C206 C 1.12358 0.12110 0.34200
 C207 C 1.12549 0.12870 0.36968
 C208 C 1.11052 0.11468 0.38983
 C209 C 1.09341 0.09292 0.38251
 C210 C 1.09176 0.08538 0.35463
 C211 C 1.10674 0.09939 0.33455
 C212 C 1.07722 0.07816 0.40376
 C213 C 1.05044 0.07041 0.39823
 C214 C 1.03534 0.05603 0.41795
 C215 C 1.04673 0.04921 0.44346
 C216 C 1.07328 0.05702 0.44929
 C217 C 1.08844 0.07145 0.42959
 C218 C 1.03126 0.03361 0.46323
 C219 C 1.01786 0.02016 0.47909
 H220 H 1.13840 0.14554 0.37566
 H221 H 1.11199 0.12115 0.41107
 H222 H 1.07908 0.06847 0.34839
 H223 H 1.10518 0.09330 0.31319
 H224 H 1.04110 0.07562 0.37871
 H225 H 1.01479 0.05011 0.41323
 H226 H 1.08234 0.05172 0.46894
 H227 H 1.10910 0.07687 0.43433
 C228 C 1.15165 -0.15394 0.69462
 C229 C 1.13859 -0.14229 0.67715
 C230 C 1.12284 -0.12804 0.65666
 C231 C 1.10213 -0.11041 0.66486
 C232 C 1.08694 -0.09626 0.64511
 C233 C 1.09226 -0.09955 0.61683
 C234 C 1.11311 -0.11737 0.60877
 C235 C 1.12828 -0.13153 0.62859
 C236 C 1.07626 -0.08423 0.59592
 C237 C 1.08889 -0.07236 0.57269
 C238 C 1.07389 -0.05712 0.55355
 C239 C 1.04610 -0.05364 0.55734
 C240 C 1.03331 -0.06567 0.58017
 C241 C 1.04825 -0.08087 0.59932
 C242 C 1.03075 -0.03702 0.53839
 C243 C 1.01751 -0.02279 0.52315
 H244 H 1.09782 -0.10747 0.68654
 H245 H 1.07131 -0.08239 0.65198
 H246 H 1.11749 -0.12056 0.58717
 H247 H 1.14425 -0.14517 0.62202
 H248 H 1.11046 -0.07431 0.56966
 H249 H 1.08402 -0.04778 0.53601
 H250 H 1.01180 -0.06311 0.58329
 H251 H 1.03788 -0.09007 0.61677
 C252 C 0.84821 -0.14906 0.30285
 C253 C 0.85945 -0.13758 0.32148
 C254 C 0.87306 -0.12364 0.34346
 C255 C 0.86091 -0.10110 0.35608
 C256 C 0.87449 -0.08699 0.37683
 C257 C 0.90043 -0.09525 0.38522
 C258 C 0.91234 -0.11813 0.37260
 C259 C 0.89873 -0.13219 0.35185
 C260 C 0.91532 -0.07967 0.40651
 C261 C 0.93093 -0.09341 0.42653
 C262 C 0.94571 -0.07861 0.44591
 C263 C 0.94505 -0.04993 0.44555
 C264 C 0.92936 -0.03610 0.42593
 C265 C 0.91456 -0.05084 0.40656
 C266 C 0.96127 -0.03460 0.46454
 C267 C 0.97519 -0.02139 0.47982
 H268 H 0.84103 -0.09432 0.34976
 H269 H 0.86465 -0.06967 0.38637
 H270 H 0.93243 -0.12477 0.37832
 H271 H 0.90837 -0.14955 0.34213
 H272 H 0.93166 -0.11558 0.42723
 H273 H 0.95782 -0.08952 0.46099
 H274 H 0.92886 -0.01390 0.42535
 H275 H 0.90307 -0.03965 0.39119
 C276 C 0.84791 0.15421 0.69591
 C277 C 0.85978 0.14203 0.67810
 C278 C 0.87393 0.12693 0.65723
 C279 C 0.89233 0.14020 0.63970
 C280 C 0.90654 0.12526 0.61993
 C281 C 0.90256 0.09682 0.61752
 C282 C 0.88383 0.08375 0.63509
 C283 C 0.86964 0.09871 0.65480
 C284 C 0.91817 0.08071 0.59713
 C285 C 0.92843 0.05473 0.60431
 C286 C 0.94321 0.03955 0.58524
 C287 C 0.94794 0.05006 0.55874
 C288 C 0.93784 0.07588 0.55135
 C289 C 0.92305 0.09115 0.57043
 C290 C 0.96339 0.03430 0.53938
 C291 C 0.97655 0.02064 0.52376
 H292 H 0.89587 0.16202 0.64148
 H293 H 0.92104 0.13584 0.60694
 H294 H 0.88003 0.06197 0.63349
 H295 H 0.85541 0.08825 0.66823
 H296 H 0.92539 0.04632 0.62481
 H297 H 0.95105 0.01964 0.59122
 H298 H 0.94137 0.08420 0.53088
 H299 H 0.91517 0.11095 0.56420
 C300 C 0.30787 1.15207 0.15339
 C301 C 0.32571 1.14048 0.14124
 C302 C 0.34641 1.12636 0.12615
 C303 C 0.36957 1.11672 0.13958
 C304 C 0.38918 1.10223 0.12490
 C305 C 0.38580 1.09714 0.09661
 C306 C 0.36260 1.10722 0.08327
 C307 C 0.34306 1.12170 0.09796
 C308 C 0.40604 1.08094 0.08111
 C309 C 0.39758 1.06145 0.06176
 C310 C 0.41649 1.04629 0.04694
 C311 C 0.44410 1.05033 0.05122
 C312 C 0.45278 1.06957 0.07052
 C313 C 0.43386 1.08477 0.08542
 C314 C 0.46329 1.03472 0.03557
 C315 C 0.47853 1.02120 0.02191
 H316 H 0.37232 1.12015 0.16143
 H317 H 0.40668 1.09449 0.13580
 H318 H 0.35960 1.10399 0.06144
 H319 H 0.32525 1.12912 0.08734
 H320 H 0.37633 1.05770 0.05829
 H321 H 0.40956 1.03138 0.03213
 H322 H 0.47413 1.07289 0.07395
 H323 H 0.44098 1.09980 0.09999
 C324 C 0.69519 1.15324 -0.15031
 C325 C 0.67752 1.14114 -0.13816
 C326 C 0.65689 1.12632 -0.12333
 C327 C 0.63031 1.12599 -0.13303
 C328 C 0.61046 1.11117 -0.11873
 C329 C 0.61700 1.09644 -0.09457
 C330 C 0.64376 1.09707 -0.08494
 C331 C 0.66354 1.11190 -0.09923
 C332 C 0.59615 1.08030 -0.07953
 C333 C 0.60244 1.05434 -0.06842
 C334 C 0.58305 1.03932 -0.05378
 C335 C 0.55711 1.04997 -0.05004
 C336 C 0.55054 1.07567 -0.06118
 C337 C 0.56992 1.09075 -0.07588
 C338 C 0.53757 1.03457 -0.03429
 C339 C 0.52191 1.02116 -0.02074
 H340 H 0.62496 1.13702 -0.15172
 H341 H 0.59011 1.11084 -0.12683
 H342 H 0.64936 1.08629 -0.06619
 H343 H 0.68404 1.11208 -0.09150
 H344 H 0.62230 1.04555 -0.07123
 H345 H 0.58834 1.01941 -0.04529
 H346 H 0.53053 1.08414 -0.05831
 H347 H 0.56455 1.11079 -0.08393
 C348 C 0.30507 0.85136 -0.15210
 C349 C 0.32261 0.86350 -0.14009
 C350 C 0.34312 0.87823 -0.12537
 C351 C 0.33623 0.89278 -0.10167
 C352 C 0.35596 0.90728 -0.08733
 C353 C 0.38292 0.90742 -0.09651
 C354 C 0.38969 0.89262 -0.12031
 C355 C 0.36988 0.87814 -0.13465
 C356 C 0.40378 0.92303 -0.08131
 C357 C 0.42969 0.91198 -0.07702
 C358 C 0.44904 0.92650 -0.06208
 C359 C 0.44275 0.95225 -0.05133
 C360 C 0.41715 0.96351 -0.05573
 C361 C 0.39780 0.94904 -0.07061
 C362 C 0.46220 0.96700 -0.03523
 C363 C 0.47779 0.97982 -0.02134
 H364 H 0.31559 0.89291 -0.09425
 H365 H 0.35018 0.91811 -0.06886
 H366 H 0.41019 0.89258 -0.12805
 H367 H 0.37542 0.86698 -0.15302
 H368 H 0.43481 0.89188 -0.08473
 H369 H 0.46877 0.91755 -0.05870
 H370 H 0.41209 0.98344 -0.04754
 H371 H 0.37819 0.95828 -0.07390
 C372 C 0.69258 0.84650 0.15225
 C373 C 0.67420 0.85763 0.14039
 C374 C 0.65276 0.87118 0.12566
 C375 C 0.63535 0.88909 0.13935
 C376 C 0.61536 0.90322 0.12466
 C377 C 0.61263 0.89964 0.09604
 C378 C 0.62997 0.88123 0.08258
 C379 C 0.64989 0.86713 0.09730
 C380 C 0.59240 0.91567 0.08011
 C381 C 0.59921 0.92689 0.05419
 C382 C 0.58046 0.94241 0.03931
 C383 C 0.55466 0.94695 0.05007
 C384 C 0.54760 0.93582 0.07579
 C385 C 0.56636 0.92027 0.09075
 C386 C 0.53581 0.96353 0.03477
 C387 C 0.52080 0.97780 0.02141
 H388 H 0.63747 0.89246 0.16128
 H389 H 0.60254 0.91747 0.13554
 H390 H 0.62813 0.87775 0.06066
 H391 H 0.66324 0.85329 0.08651
 H392 H 0.61921 0.92411 0.04563
 H393 H 0.58619 0.95108 0.01950
 H394 H 0.52767 0.93922 0.08430
 H395 H 0.56045 0.91168 0.11052
   
