data_POSCAR
  _audit_creation_date              2014-09-24
  _audit_creation_method            'ToBaCCo'
  _symmetry_space_group_name_H-M    'P1'
  _symmetry_Int_Tables_number       1
  _symmetry_cell_setting            triclinic
  loop_
  _symmetry_equiv_pos_as_xyz
 x,y,z
_cell_length_a 33.6190
_cell_length_b 33.8280
_cell_length_c 28.5950
_cell_angle_alpha 90.009700
_cell_angle_beta 89.796100
_cell_angle_gamma 89.255200
loop_
  _atom_site_label
  _atom_site_type_symbol
  _atom_site_fract_x
  _atom_site_fract_y
  _atom_site_fract_z
O1 O 0.04062 0.30742 -0.03589
 O2 O -0.03305 0.29182 0.05852
 O3 O 0.04471 0.30415 0.05420
 O4 O -0.03718 0.31588 -0.02981
 O5 O -0.03700 0.25113 -0.04005
 O6 O 0.04630 0.23963 0.04223
 O7 O -0.02913 0.22719 0.04776
 O8 O 0.04074 0.24283 -0.04749
 Cu9 Cu 0.00313 0.31061 0.01346
 Cu10 Cu 0.00491 0.23434 -0.00105
 C11 C 0.05328 0.27686 -0.05774
 C12 C -0.04354 0.25680 0.06907
 C13 C 0.06004 0.27036 0.06189
 C14 C -0.05136 0.28540 -0.04893
 O15 O 0.53156 0.81121 0.45373
 O16 O 0.45166 0.80607 0.54305
 O17 O 0.52935 0.80966 0.54553
 O18 O 0.45349 0.80729 0.45212
 O19 O 0.45746 0.74210 0.45187
 O20 O 0.53371 0.74469 0.54269
 O21 O 0.45699 0.74093 0.54211
 O22 O 0.53468 0.74609 0.45255
 Cu23 Cu 0.49121 0.81520 0.49861
 Cu24 Cu 0.49614 0.73700 0.49703
 C25 C 0.54709 0.77929 0.43838
 C26 C 0.44098 0.77239 0.55788
 C27 C 0.54486 0.77739 0.55966
 C28 C 0.44180 0.77405 0.43716
 O29 O 0.95079 0.70772 -0.04442
 O30 O 1.03328 0.69461 0.03953
 O31 O 0.95749 0.68082 0.04143
 O32 O 1.03132 0.69571 -0.05097
 O33 O 1.03064 0.76010 -0.04005
 O34 O 0.95267 0.74570 0.04913
 O35 O 1.03068 0.75932 0.04995
 O36 O 0.95557 0.77263 -0.04022
 Cu37 Cu 0.99304 0.68917 -0.00587
 Cu38 Cu 0.99151 0.76491 0.00666
 C39 C 0.93905 0.74237 -0.05657
 C40 C 1.04567 0.72578 0.05957
 C41 C 0.94179 0.71088 0.06061
 C42 C 1.04528 0.72947 -0.06007
 O43 O 0.46952 0.18771 0.46320
 O44 O 0.54795 0.19468 0.55368
 O45 O 0.46994 0.18726 0.55397
 O46 O 0.54768 0.19108 0.46237
 O47 O 0.54092 0.25608 0.45982
 O48 O 0.46631 0.25258 0.55351
 O49 O 0.54308 0.25974 0.55027
 O50 O 0.46404 0.25281 0.46347
 Cu51 Cu 0.50947 0.18357 0.50848
 Cu52 Cu 0.50320 0.26175 0.50664
 C53 C 0.45272 0.21938 0.44896
 C54 C 0.55880 0.22871 0.56728
 C55 C 0.45473 0.21944 0.56885
 C56 C 0.55717 0.22429 0.44523
 O57 O 0.70450 -0.03003 0.04665
 O58 O 0.71579 0.04652 -0.04548
 O59 O 0.70109 -0.02963 -0.04338
 O60 O 0.71408 0.04682 0.04719
 O61 O 0.77905 0.03767 0.04435
 O62 O 0.76615 -0.04014 -0.04375
 O63 O 0.78018 0.03454 -0.04692
 O64 O 0.76987 -0.03824 0.04652
 Cu65 Cu 0.70232 0.00997 0.00140
 Cu66 Cu 0.78023 -0.00233 -0.00002
 C67 C 0.73574 -0.04731 0.06172
 C68 C 0.75006 0.05255 -0.06325
 C69 C 0.73154 -0.04834 -0.05823
 C70 C 0.74866 0.05474 0.06197
 O71 O 0.19971 0.45756 0.54383
 O72 O 0.19753 0.53490 0.45257
 O73 O 0.20026 0.45722 0.45289
 O74 O 0.19533 0.53526 0.54378
 O75 O 0.26098 0.53570 0.54571
 O76 O 0.26581 0.46054 0.45325
 O77 O 0.26310 0.53723 0.45505
 O78 O 0.26533 0.45897 0.54337
 Cu79 Cu 0.19156 0.49609 0.49819
 Cu80 Cu 0.27032 0.49842 0.49948
 C81 C 0.23308 0.44428 0.55802
 C82 C 0.23014 0.54973 0.43901
 C83 C 0.23403 0.44568 0.43762
 C84 C 0.22753 0.54852 0.56038
 O85 O 0.30485 1.03140 0.04503
 O86 O 0.29911 0.95964 -0.05215
 O87 O 0.30119 1.03747 -0.04438
 O88 O 0.30175 0.95380 0.03895
 O89 O 0.23612 0.95726 0.04216
 O90 O 0.23587 1.03930 -0.04112
 O91 O 0.23354 0.96309 -0.04827
 O92 O 0.23966 1.03305 0.04908
 Cu93 Cu 0.30838 0.99502 -0.00361
 Cu94 Cu 0.22981 0.99834 0.00073
 C95 C 0.27315 1.04537 0.06311
 C96 C 0.26515 0.94932 -0.06676
 C97 C 0.26834 1.05361 -0.05590
 C98 C 0.26878 0.94166 0.05498
 O99 O 0.80325 0.46526 0.45663
 O100 O 0.80021 0.54631 0.54273
 O101 O 0.80421 0.46850 0.54697
 O102 O 0.79535 0.54222 0.45154
 O103 O 0.73001 0.53953 0.45736
 O104 O 0.73882 0.46412 0.54851
 O105 O 0.73488 0.54136 0.54745
 O106 O 0.73751 0.46337 0.45840
 Cu107 Cu 0.80739 0.50617 0.49934
 Cu108 Cu 0.72880 0.50179 0.50353
 C109 C 0.77074 0.45059 0.44305
 C110 C 0.76698 0.55798 0.55916
 C111 C 0.77278 0.45251 0.56247
 C112 C 0.76089 0.55324 0.43806
 C113 C 0.24509 0.17875 0.17915
 C114 C 0.21224 0.19713 0.15823
 C115 C 0.19548 0.23190 0.17617
 C116 C 0.21226 0.24967 0.21606
 C117 C 0.24572 0.23150 0.23778
 C118 C 0.26189 0.19558 0.21971
 C119 C 0.29441 0.17764 0.24246
 C120 C 0.31175 0.19539 0.28120
 C121 C 0.29672 0.23132 0.29907
 C122 C 0.26313 0.24936 0.27751
 C123 C 0.19662 0.28509 0.23462
 C124 C 0.21403 0.30288 0.27329
 C125 C 0.24734 0.28559 0.29511
 C126 C 0.26571 0.30377 0.33377
 C127 C 0.29881 0.28572 0.35452
 C128 C 0.31451 0.24993 0.33781
 H129 H 0.30701 0.14993 0.23010
 H130 H 0.33715 0.18072 0.29702
 H131 H 0.17098 0.29954 0.21905
 H132 H 0.20118 0.33041 0.28592
 H133 H 0.19937 0.18405 0.12720
 H134 H 0.31298 0.30010 0.38390
 C135 C 0.76300 0.81443 0.17153
 C136 C 0.79631 0.79528 0.15225
 C137 C 0.80901 0.75812 0.16813
 C138 C 0.78965 0.74069 0.20687
 C139 C 0.75656 0.76041 0.22778
 C140 C 0.74263 0.79701 0.20943
 C141 C 0.70854 0.81498 0.22911
 C142 C 0.68899 0.79784 0.26685
 C143 C 0.70293 0.76221 0.28641
 C144 C 0.73683 0.74310 0.26650
 C145 C 0.80205 0.70382 0.22476
 C146 C 0.78307 0.68712 0.26321
 C147 C 0.75064 0.70641 0.28479
 C148 C 0.73096 0.68960 0.32357
 C149 C 0.69817 0.70917 0.34331
 C150 C 0.68369 0.74484 0.32515
 H151 H 0.69669 0.84255 0.21550
 H152 H 0.66291 0.81287 0.28077
 H153 H 0.82663 0.68748 0.20926
 H154 H 0.79389 0.65877 0.27570
 H155 H 0.81168 0.80878 0.12301
 H156 H 0.68317 0.69599 0.37303
 C157 C 0.82381 0.24086 0.18363
 C158 C 0.80976 0.20545 0.16515
 C159 C 0.77632 0.18695 0.18330
 C160 C 0.75560 0.20435 0.22124
 C161 C 0.76982 0.24005 0.24092
 C162 C 0.80429 0.25825 0.22225
 C163 C 0.81796 0.29339 0.24227
 C164 C 0.79817 0.31048 0.28017
 C165 C 0.76369 0.29332 0.29880
 C166 C 0.74943 0.25771 0.27915
 C167 C 0.72140 0.18698 0.24019
 C168 C 0.70113 0.20461 0.27751
 C169 C 0.71466 0.23992 0.29745
 C170 C 0.69424 0.25825 0.33503
 C171 C 0.70870 0.29321 0.35412
 C172 C 0.74290 0.31091 0.33656
 H173 H 0.84412 0.30790 0.22876
 H174 H 0.80999 0.33747 0.29455
 H175 H 0.70999 0.15967 0.22615
 H176 H 0.67475 0.19029 0.29072
 H177 H 0.82525 0.19193 0.13571
 H178 H 0.69271 0.30718 0.38287
 C179 C 0.18973 0.74890 0.15971
 C180 C 0.20620 0.78261 0.13962
 C181 C 0.24018 0.79991 0.15818
 C182 C 0.25885 0.78290 0.19760
 C183 C 0.24275 0.74836 0.21799
 C184 C 0.20813 0.73114 0.19889
 C185 C 0.19238 0.69721 0.21998
 C186 C 0.21011 0.68064 0.25947
 C187 C 0.24402 0.69761 0.27937
 C188 C 0.26056 0.73173 0.25843
 C189 C 0.29264 0.80000 0.21768
 C190 C 0.31010 0.78371 0.25746
 C191 C 0.29440 0.74973 0.27843
 C192 C 0.31130 0.73348 0.31935
 C193 C 0.29495 0.69972 0.33934
 C194 C 0.26167 0.68172 0.32007
 H195 H 0.16611 0.68327 0.20612
 H196 H 0.19683 0.65457 0.27457
 H197 H 0.30571 0.82630 0.20291
 H198 H 0.33593 0.79807 0.27181
 H199 H 0.19133 0.79663 0.11024
 H200 H 0.30794 0.68764 0.37105
 C201 C 0.69935 0.26129 0.67268
 C202 C 0.71424 0.29661 0.65480
 C203 C 0.74785 0.31422 0.67379
 C204 C 0.76697 0.29657 0.71253
 C205 C 0.75340 0.25971 0.72966
 C206 C 0.71969 0.24172 0.70932
 C207 C 0.70694 0.20511 0.72659
 C208 C 0.72726 0.18617 0.76280
 C209 C 0.76019 0.20383 0.78412
 C210 C 0.77322 0.24115 0.76766
 C211 C 0.79889 0.31501 0.73483
 C212 C 0.81730 0.29759 0.77331
 C213 C 0.80545 0.26037 0.78976
 C214 C 0.82434 0.24209 0.82833
 C215 C 0.81281 0.20424 0.84205
 C216 C 0.78074 0.18519 0.82130
 H217 H 0.68138 0.19056 0.71185
 H218 H 0.71675 0.15761 0.77413
 H219 H 0.80950 0.34343 0.72308
 H220 H 0.84116 0.31354 0.78972
 H221 H 0.69894 0.31102 0.62598
 H222 H 0.82785 0.19014 0.87127
 C223 C 0.30023 0.74010 0.66399
 C224 C 0.28370 0.70545 0.64664
 C225 C 0.24922 0.68960 0.66609
 C226 C 0.22994 0.70934 0.70361
 C227 C 0.24659 0.74449 0.72181
 C228 C 0.28176 0.76006 0.70176
 C229 C 0.29800 0.79467 0.72052
 C230 C 0.28026 0.81354 0.75863
 C231 C 0.24590 0.79824 0.77959
 C232 C 0.22870 0.76353 0.76094
 C233 C 0.19497 0.69464 0.72382
 C234 C 0.17699 0.71374 0.76180
 C235 C 0.19391 0.74763 0.78164
 C236 C 0.17732 0.76600 0.82193
 C237 C 0.19468 0.80026 0.83955
 C238 C 0.22822 0.81672 0.81883
 H239 H 0.32473 0.80736 0.70601
 H240 H 0.29394 0.84007 0.77185
 H241 H 0.18128 0.66817 0.71042
 H242 H 0.14999 0.70135 0.77600
 H243 H 0.29871 0.68980 0.61838
 H244 H 0.18184 0.81445 0.87023
 C245 C 0.24108 0.19448 0.83785
 C246 C 0.20769 0.21430 0.85604
 C247 C 0.19230 0.24844 0.83506
 C248 C 0.21133 0.26439 0.79546
 C249 C 0.24540 0.24486 0.77664
 C250 C 0.25999 0.20940 0.79735
 C251 C 0.29265 0.18965 0.77672
 C252 C 0.31160 0.20517 0.73754
 C253 C 0.29829 0.24078 0.71729
 C254 C 0.26444 0.26044 0.73650
 C255 C 0.19681 0.29894 0.77389
 C256 C 0.21550 0.31422 0.73448
 C257 C 0.24933 0.29544 0.71532
 C258 C 0.26831 0.31055 0.67518
 C259 C 0.30228 0.29163 0.65748
 C260 C 0.31762 0.25718 0.67796
 H261 H 0.30398 0.16206 0.79084
 H262 H 0.33679 0.18898 0.72316
 H263 H 0.17086 0.31448 0.78740
 H264 H 0.20322 0.34095 0.71913
 H265 H 0.19269 0.20230 0.88645
 H266 H 0.31681 0.30372 0.62680
 C267 C 0.73057 0.69155 0.67519
 C268 C 0.69621 0.70887 0.65659
 C269 C 0.67816 0.74193 0.67729
 C270 C 0.69472 0.75827 0.71819
 C271 C 0.72985 0.74108 0.73729
 C272 C 0.74780 0.70745 0.71585
 C273 C 0.78264 0.69097 0.73523
 C274 C 0.79980 0.70743 0.77489
 C275 C 0.78276 0.74098 0.79630
 C276 C 0.74739 0.75791 0.77748
 C277 C 0.67735 0.79144 0.74016
 C278 C 0.69495 0.80838 0.77920
 C279 C 0.73007 0.79225 0.79809
 C280 C 0.74874 0.80982 0.83682
 C281 C 0.78290 0.79236 0.85559
 C282 C 0.80020 0.75843 0.83591
 H283 H 0.79698 0.66529 0.71970
 H284 H 0.82667 0.69382 0.78858
 H285 H 0.65026 0.80490 0.72693
 H286 H 0.68081 0.83426 0.79452
 H287 H 0.68349 0.69657 0.62502
 H288 H 0.79722 0.80633 0.88517
 C289 C 0.30330 0.10534 0.10136
 C290 C 0.27372 0.07518 0.09789
 C291 C 0.24017 0.07778 0.12740
 C292 C 0.23374 0.10982 0.15672
 C293 C 0.25977 0.14155 0.15694
 C294 C 0.29520 0.13938 0.12998
 C295 C 0.33917 0.10473 0.07502
 C296 C 0.36541 0.13627 0.07631
 C297 C 0.35665 0.16952 0.10302
 C298 C 0.32186 0.17130 0.12939
 H299 H 0.34828 0.08048 0.05312
 H300 H 0.39263 0.13504 0.05600
 H301 H 0.37694 0.19411 0.10327
 H302 H 0.31613 0.19798 0.14923
 H303 H 0.21769 0.05508 0.12703
 H304 H 0.20657 0.11111 0.17722
 C305 C 0.77977 0.62973 0.57931
 C306 C 0.76481 0.59197 0.59138
 C307 C 0.74312 0.58743 0.63292
 C308 C 0.73479 0.61968 0.66166
 C309 C 0.74778 0.65740 0.64955
 C310 C 0.77130 0.66265 0.60894
 C311 C 0.80106 0.63613 0.53734
 C312 C 0.81449 0.67369 0.52562
 C313 C 0.80684 0.70563 0.55511
 C314 C 0.78533 0.70035 0.59635
 H315 H 0.80732 0.61253 0.51293
 H316 H 0.83079 0.67806 0.49335
 H317 H 0.81735 0.73471 0.54582
 H318 H 0.77974 0.72596 0.61822
 H319 H 0.73127 0.55885 0.64231
 H320 H 0.71632 0.61558 0.69236
 C321 C 0.74742 0.92390 0.14184
 C322 C 0.73321 0.92008 0.09557
 C323 C 0.72451 0.88262 0.07802
 C324 C 0.73240 0.84885 0.10435
 C325 C 0.74940 0.85164 0.14887
 C326 C 0.75622 0.88938 0.16856
 C327 C 0.75357 0.96138 0.16181
 C328 C 0.76908 0.96483 0.20679
 C329 C 0.77882 0.93108 0.23245
 C330 C 0.77257 0.89361 0.21363
 H331 H 0.74575 0.98811 0.14302
 H332 H 0.77358 0.99380 0.22179
 H333 H 0.79110 0.93395 0.26721
 H334 H 0.78043 0.86814 0.23469
 H335 H 0.71400 0.87930 0.04251
 H336 H 0.72711 0.82013 0.08894
 C337 C 0.21532 0.37461 0.58403
 C338 C 0.23539 0.41087 0.59126
 C339 C 0.26257 0.41390 0.62815
 C340 C 0.27121 0.38167 0.65666
 C341 C 0.25297 0.34536 0.64919
 C342 C 0.22418 0.34167 0.61351
 C343 C 0.18826 0.36945 0.54686
 C344 C 0.16982 0.33327 0.53972
 C345 C 0.17808 0.30141 0.56901
 C346 C 0.20511 0.30537 0.60547
 H347 H 0.18113 0.39286 0.52264
 H348 H 0.14913 0.32989 0.51111
 H349 H 0.16371 0.27339 0.56321
 H350 H 0.21102 0.27975 0.62715
 H351 H 0.27834 0.44119 0.63393
 H352 H 0.29352 0.38459 0.68366
 C353 C 0.88567 0.25611 0.08132
 C354 C 0.92449 0.25165 0.09918
 C355 C 0.93003 0.25037 0.14782
 C356 C 0.89683 0.25039 0.17766
 C357 C 0.85865 0.25791 0.15959
 C358 C 0.85484 0.26669 0.11176
 C359 C 0.87645 0.25005 0.03351
 C360 C 0.84040 0.26625 0.01073
 C361 C 0.81864 0.29099 0.04458
 C362 C 0.82140 0.28580 0.09328
 H363 H 0.89986 0.23491 0.01301
 H364 H 0.82890 0.23958 0.02905
 H365 H 0.79620 0.31222 0.03284
 H366 H 0.79937 0.29933 0.11617
 H367 H 0.95962 0.24718 0.16236
 H368 H 0.90068 0.24346 0.21436
 C369 C 0.41006 0.74177 0.62996
 C370 C 0.40832 0.76907 0.59231
 C371 C 0.37281 0.78995 0.58370
 C372 C 0.33836 0.78162 0.60885
 C373 C 0.33866 0.75253 0.64363
 C374 C 0.37482 0.73320 0.65553
 C375 C 0.44610 0.72294 0.64296
 C376 C 0.44708 0.69555 0.67939
 C377 C 0.41241 0.68656 0.70371
 C378 C 0.37656 0.70522 0.69213
 H379 H 0.47388 0.72970 0.62575
 H380 H 0.47493 0.68135 0.68894
 H381 H 0.41337 0.66528 0.73197
 H382 H 0.35040 0.69784 0.71233
 H383 H 0.37107 0.81114 0.55540
 H384 H 0.31082 0.79667 0.59971
 C385 C 0.07851 0.74464 0.13548
 C386 C 0.07935 0.72390 0.09240
 C387 C 0.11510 0.70672 0.07666
 C388 C 0.15048 0.71293 0.10067
 C389 C 0.15087 0.73602 0.14127
 C390 C 0.11463 0.75098 0.15997
 C391 C 0.04253 0.75960 0.15448
 C392 C 0.04233 0.78096 0.19620
 C393 C 0.07779 0.78785 0.21967
 C394 C 0.11369 0.77312 0.20184
 H395 H 0.01430 0.75450 0.13760
 H396 H 0.01452 0.79222 0.21039
 H397 H 0.07746 0.80458 0.25194
 H398 H 0.14055 0.77901 0.22124
 H399 H 0.11619 0.69093 0.04370
 H400 H 0.17811 0.70152 0.08606
 C401 C 0.59015 0.26177 0.63772
 C402 C 0.59130 0.23280 0.60168
 C403 C 0.62607 0.21010 0.59496
 C404 C 0.66044 0.21792 0.62034
 C405 C 0.66068 0.24801 0.65390
 C406 C 0.62505 0.26907 0.66424
 C407 C 0.55519 0.28378 0.64810
 C408 C 0.55465 0.31198 0.68366
 C409 C 0.58877 0.31896 0.70957
 C410 C 0.62371 0.29782 0.70007
 H411 H 0.52780 0.27927 0.62944
 H412 H 0.52753 0.32838 0.69128
 H413 H 0.58814 0.34081 0.73724
 H414 H 0.64951 0.30390 0.72132
 H415 H 0.62748 0.18793 0.56762
 H416 H 0.68761 0.20175 0.61210
 C417 C 0.78874 0.08007 0.86933
 C418 C 0.75506 0.08036 0.90027
 C419 C 0.72707 0.11150 0.89633
 C420 C 0.73455 0.14426 0.86822
 C421 C 0.76942 0.14640 0.84158
 C422 C 0.79582 0.11353 0.84022
 C423 C 0.81479 0.04694 0.86486
 C424 C 0.84740 0.04761 0.83465
 C425 C 0.85473 0.08081 0.80758
 C426 C 0.82914 0.11340 0.80997
 H427 H 0.80996 0.01952 0.88299
 H428 H 0.86683 0.02194 0.83181
 H429 H 0.87998 0.08104 0.78399
 H430 H 0.83522 0.13817 0.78719
 H431 H 0.70069 0.11236 0.91821
 H432 H 0.71401 0.16920 0.86933
 C433 C 0.20937 0.61842 0.41132
 C434 C 0.23066 0.58228 0.40461
 C435 C 0.25751 0.57872 0.36719
 C436 C 0.26495 0.61055 0.33786
 C437 C 0.24590 0.64698 0.34515
 C438 C 0.21713 0.65103 0.38116
 C439 C 0.18223 0.62381 0.44868
 C440 C 0.16277 0.66002 0.45554
 C441 C 0.17008 0.69163 0.42574
 C442 C 0.19711 0.68738 0.38896
 H443 H 0.17583 0.60046 0.47315
 H444 H 0.14202 0.66362 0.48432
 H445 H 0.15493 0.71967 0.43133
 H446 H 0.20223 0.71275 0.36679
 H447 H 0.27417 0.55145 0.36181
 H448 H 0.28736 0.60737 0.31073
 C449 C 0.23417 0.92394 0.85875
 C450 C 0.26167 0.91943 0.89592
 C451 C 0.28203 0.88335 0.90159
 C452 C 0.27278 0.85082 0.87396
 C453 C 0.24327 0.85370 0.83970
 C454 C 0.22472 0.89068 0.83060
 C455 C 0.21572 0.96075 0.84903
 C456 C 0.18804 0.96443 0.81303
 C457 C 0.17830 0.93170 0.78604
 C458 C 0.19641 0.89510 0.79459
 H459 H 0.22296 0.98706 0.86861
 H460 H 0.17415 0.99284 0.80594
 H461 H 0.15679 0.93474 0.75816
 H462 H 0.18841 0.87045 0.77254
 H463 H 0.30312 0.87949 0.92985
 H464 H 0.28706 0.82259 0.88117
 C465 C 0.75660 0.42035 0.36446
 C466 C 0.77096 0.41692 0.41070
 C467 C 0.77979 0.37960 0.42921
 C468 C 0.77231 0.34560 0.40358
 C469 C 0.75557 0.34809 0.35892
 C470 C 0.74809 0.38561 0.33853
 C471 C 0.75023 0.45763 0.34364
 C472 C 0.73442 0.46067 0.29873
 C473 C 0.72481 0.42670 0.27388
 C474 C 0.73153 0.38942 0.29344
 H475 H 0.75809 0.48449 0.36169
 H476 H 0.72960 0.48949 0.28315
 H477 H 0.71233 0.42924 0.23915
 H478 H 0.72382 0.36377 0.27294
 H479 H 0.79046 0.37666 0.46472
 H480 H 0.77796 0.31701 0.41950
 C481 C 0.08219 0.25814 0.86387
 C482 C 0.08464 0.27963 0.90629
 C483 C 0.12078 0.29670 0.91895
 C484 C 0.15529 0.28880 0.89326
 C485 C 0.15424 0.26428 0.85387
 C486 C 0.11734 0.25026 0.83750
 C487 C 0.04558 0.24358 0.84763
 C488 C 0.04380 0.22144 0.80657
 C489 C 0.07832 0.21326 0.78111
 C490 C 0.11485 0.22737 0.79636
 H491 H 0.01809 0.24960 0.86625
 H492 H 0.01550 0.21055 0.79446
 H493 H 0.07678 0.19594 0.74935
 H494 H 0.14097 0.22048 0.77553
 H495 H 0.12311 0.31326 0.95115
 H496 H 0.18343 0.29967 0.90596
 C497 C 0.61483 0.80262 0.40816
 C498 C 0.58006 0.77929 0.40373
 C499 C 0.57886 0.75015 0.36889
 C500 C 0.61190 0.74163 0.34125
 C501 C 0.64745 0.76182 0.34757
 C502 C 0.64895 0.79336 0.38005
 C503 C 0.61747 0.83368 0.44098
 C504 C 0.65231 0.85529 0.44537
 C505 C 0.68558 0.84580 0.41844
 C506 C 0.68418 0.81492 0.38633
 H507 H 0.59293 0.84210 0.46328
 H508 H 0.65359 0.87955 0.46990
 H509 H 0.71263 0.86246 0.42246
 H510 H 0.71081 0.80834 0.36631
 H511 H 0.55259 0.73227 0.36459
 H512 H 0.61047 0.71740 0.31654
 C513 C 0.86906 0.73023 0.93098
 C514 C 0.90510 0.74663 0.91573
 C515 C 0.90676 0.76420 0.87145
 C516 C 0.87301 0.76440 0.84285
 C517 C 0.83814 0.74491 0.85686
 C518 C 0.83784 0.72442 0.89988
 C519 C 0.86104 0.72519 0.97873
 C520 C 0.83431 0.69537 0.99753
 C521 C 0.80821 0.68173 0.95911
 C522 C 0.80676 0.69998 0.91430
 H523 H 0.87742 0.74494 1.00177
 H524 H 0.81997 0.67334 1.02100
 H525 H 0.78377 0.66109 0.96541
 H526 H 0.78291 0.69280 0.89051
 H527 H 0.93379 0.77801 0.85928
 H528 H 0.87348 0.78104 0.81049
 C529 C 0.38398 0.19663 0.42359
 C530 C 0.41916 0.21861 0.41563
 C531 C 0.42006 0.24599 0.37886
 C532 C 0.38654 0.25362 0.35192
 C533 C 0.35084 0.23433 0.36101
 C534 C 0.34947 0.20483 0.39608
 C535 C 0.38138 0.16826 0.45969
 C536 C 0.34602 0.14831 0.46808
 C537 C 0.31249 0.15634 0.44115
 C538 C 0.31399 0.18444 0.40559
 H539 H 0.40623 0.16121 0.48207
 H540 H 0.34455 0.12666 0.49589
 H541 H 0.28511 0.14086 0.44802
 H542 H 0.28720 0.19007 0.38569
 H543 H 0.44650 0.26316 0.37238
 H544 H 0.38781 0.27639 0.32532
 C545 C 0.74460 0.92007 0.86338
 C546 C 0.72726 0.91886 0.90846
 C547 C 0.71144 0.88348 0.92513
 C548 C 0.71599 0.84860 0.89965
 C549 C 0.73610 0.84842 0.85670
 C550 C 0.74945 0.88449 0.83737
 C551 C 0.75770 0.95592 0.84392
 C552 C 0.77618 0.95656 0.80019
 C553 C 0.78185 0.92160 0.77516
 C554 C 0.76868 0.88580 0.79343
 H555 H 0.75308 0.98365 0.86209
 H556 H 0.78612 0.98430 0.78566
 H557 H 0.79634 0.92224 0.74131
 H558 H 0.77347 0.85935 0.77278
 H559 H 0.69795 0.88228 0.95952
 H560 H 0.70590 0.82112 0.91481
 C561 C 0.26479 0.41340 0.36570
 C562 C 0.23700 0.41305 0.40318
 C563 C 0.21520 0.37873 0.41176
 C564 C 0.22323 0.34400 0.38700
 C565 C 0.25287 0.34281 0.35254
 C566 C 0.27298 0.37789 0.34046
 C567 C 0.28454 0.44830 0.35256
 C568 C 0.31237 0.44793 0.31628
 C569 C 0.32095 0.41301 0.29230
 C570 C 0.30148 0.37824 0.30409
 H571 H 0.27816 0.47624 0.36954
 H572 H 0.32725 0.47493 0.30659
 H573 H 0.34259 0.41293 0.26417
 H574 H 0.30858 0.35183 0.28422
 H575 H 0.19359 0.37799 0.43988
 H576 H 0.20761 0.31732 0.39641
 C577 C 0.29595 0.11813 0.91500
 C578 C 0.26677 0.08752 0.91525
 C579 C 0.23246 0.09261 0.88774
 C580 C 0.22626 0.12625 0.86100
 C581 C 0.25341 0.15706 0.86137
 C582 C 0.28864 0.15330 0.88820
 C583 C 0.33045 0.11677 0.94342
 C584 C 0.35712 0.14796 0.94417
 C585 C 0.34990 0.18173 0.91783
 C586 C 0.31584 0.18470 0.89053
 H587 H 0.33742 0.09255 0.96638
 H588 H 0.38334 0.14615 0.96597
 H589 H 0.37052 0.20602 0.91908
 H590 H 0.31095 0.21199 0.87160
 H591 H 0.20982 0.07009 0.88664
 H592 H 0.19907 0.12890 0.84091
 C593 C 0.72454 0.58370 0.36835
 C594 C 0.75633 0.58378 0.40115
 C595 C 0.78233 0.61589 0.40180
 C596 C 0.77522 0.64914 0.37415
 C597 C 0.74240 0.65090 0.34429
 C598 C 0.71773 0.61755 0.33970
 C599 C 0.69937 0.55083 0.36302
 C600 C 0.66839 0.55147 0.33073
 C601 C 0.66173 0.58467 0.30306
 C602 C 0.68609 0.61746 0.30734
 H603 H 0.70350 0.52403 0.38290
 H604 H 0.64959 0.52594 0.32700
 H605 H 0.63770 0.58494 0.27795
 H606 H 0.68025 0.64251 0.28471
 H607 H 0.80697 0.61639 0.42607
 H608 H 0.79428 0.67452 0.37785
 C609 C 0.11007 0.70659 0.90466
 C610 C 0.07717 0.73382 0.90824
 C611 C 0.07772 0.76849 0.88124
 C612 C 0.10893 0.77646 0.85096
 C613 C 0.14194 0.75106 0.84764
 C614 C 0.14288 0.71585 0.87461
 C615 C 0.11343 0.67248 0.93330
 C616 C 0.14691 0.64782 0.93119
 C617 C 0.17842 0.65687 0.90178
 C618 C 0.17681 0.69075 0.87426
 H619 H 0.09132 0.66460 0.95883
 H620 H 0.14875 0.62190 0.95332
 H621 H 0.20460 0.63791 0.90092
 H622 H 0.20269 0.69721 0.85323
 H623 H 0.05339 0.78979 0.88319
 H624 H 0.10814 0.80382 0.83124
 C625 C 0.58512 0.25131 0.36956
 C626 C 0.58884 0.22670 0.40949
 C627 C 0.62539 0.20800 0.41888
 C628 C 0.65895 0.21630 0.39207
 C629 C 0.65668 0.24315 0.35492
 C630 C 0.61942 0.25979 0.34224
 C631 C 0.54807 0.26780 0.35623
 C632 C 0.54512 0.29271 0.31749
 C633 C 0.57885 0.30157 0.29132
 C634 C 0.61574 0.28532 0.30342
 H635 H 0.52106 0.26112 0.37511
 H636 H 0.51651 0.30510 0.30767
 H637 H 0.57638 0.32094 0.26131
 H638 H 0.64119 0.29255 0.28191
 H639 H 0.62866 0.18905 0.44921
 H640 H 0.68740 0.20357 0.40209
 C641 C 0.87526 0.28471 0.93570
 C642 C 0.91461 0.28844 0.91866
 C643 C 0.92222 0.28193 0.87099
 C644 C 0.89202 0.26968 0.84104
 C645 C 0.85374 0.26247 0.85839
 C646 C 0.84556 0.26968 0.90628
 C647 C 0.86472 0.29329 0.98273
 C648 C 0.80576 0.25859 0.97545
 C649 C 0.80874 0.26118 0.92648
 H650 H 0.88238 0.31579 1.00028
 H651 H 0.84145 0.23641 0.99427
 H652 H 0.77619 0.25073 0.98835
 H653 H 0.78299 0.25402 0.90566
 H654 H 0.95229 0.28374 0.85754
 H655 H 0.89922 0.26316 0.80488
 C656 C 0.37116 0.78951 0.41035
 C657 C 0.40911 0.77148 0.40293
 C658 C 0.41461 0.74556 0.36512
 C659 C 0.38309 0.73576 0.33618
 C660 C 0.34508 0.75154 0.34419
 C661 C 0.33894 0.77943 0.38050
 C662 C 0.36370 0.81557 0.44810
 C663 C 0.32587 0.83183 0.45555
 C664 C 0.29466 0.82233 0.42597
 C665 C 0.30093 0.79627 0.38886
 H666 H 0.38662 0.82360 0.47246
 H667 H 0.32072 0.85178 0.48461
 H668 H 0.26536 0.83501 0.43201
 H669 H 0.27581 0.78938 0.36687
 H670 H 0.44328 0.73138 0.35919
 H671 H 0.38790 0.71408 0.30876
 C672 C 0.24462 0.90986 0.12950
 C673 C 0.26755 0.90814 0.08782
 C674 C 0.28497 0.87219 0.07385
 C675 C 0.27742 0.83752 0.09847
 C676 C 0.25261 0.83807 0.13787
 C677 C 0.23686 0.87445 0.15456
 C678 C 0.22911 0.94605 0.14675
 C679 C 0.20582 0.94710 0.18720
 C680 C 0.19759 0.91233 0.21119
 C681 C 0.21289 0.87626 0.19518
 H682 H 0.23526 0.97381 0.12956
 H683 H 0.19414 0.97506 0.20002
 H684 H 0.17941 0.91333 0.24250
 H685 H 0.20599 0.84995 0.21499
 H686 H 0.30245 0.87049 0.04198
 H687 H 0.28953 0.80975 0.08551
 C688 C 0.79913 0.38502 0.58934
 C689 C 0.77460 0.41921 0.59614
 C690 C 0.74606 0.41923 0.63207
 C691 C 0.73974 0.38575 0.65914
 C692 C 0.76181 0.35109 0.65132
 C693 C 0.79258 0.35074 0.61736
 C694 C 0.82849 0.38298 0.55384
 C695 C 0.85113 0.34864 0.54685
 C696 C 0.84488 0.31550 0.57452
 C697 C 0.81578 0.31631 0.60929
 H698 H 0.83432 0.40735 0.53069
 H699 H 0.87350 0.34767 0.51954
 H700 H 0.86247 0.28890 0.56876
 H701 H 0.81158 0.28973 0.62967
 H702 H 0.72702 0.44490 0.63771
 H703 H 0.71597 0.38619 0.68484
 C704 C 0.78335 0.08232 0.13430
 C705 C 0.75355 0.08499 0.09908
 C706 C 0.72838 0.11842 0.09789
 C707 C 0.73418 0.15020 0.12798
 C708 C 0.76492 0.14929 0.16075
 C709 C 0.78890 0.11481 0.16527
 C710 C 0.80763 0.04821 0.13999
 C711 C 0.83673 0.04646 0.17457
 C712 C 0.84228 0.07838 0.20435
 C713 C 0.81864 0.11227 0.19993
 H714 H 0.80418 0.02217 0.11874
 H715 H 0.85489 0.02001 0.17849
 H716 H 0.86483 0.07676 0.23124
 H717 H 0.82347 0.13625 0.22425
 H718 H 0.70529 0.12095 0.07167
 H719 H 0.71592 0.17660 0.12397
 C720 C 0.25250 0.58021 0.63484
 C721 C 0.22675 0.58058 0.59564
 C722 C 0.20377 0.61455 0.58633
 C723 C 0.20905 0.64915 0.61202
 C724 C 0.23698 0.65046 0.64814
 C725 C 0.25781 0.61552 0.66108
 C726 C 0.27324 0.54555 0.64846
 C727 C 0.29928 0.54596 0.68631
 C728 C 0.30507 0.58070 0.71136
 C729 C 0.28455 0.61522 0.69904
 H730 H 0.26906 0.51776 0.63053
 H731 H 0.31497 0.51915 0.69635
 H732 H 0.32534 0.58084 0.74067
 H733 H 0.28946 0.64150 0.71974
 H734 H 0.18370 0.61525 0.55682
 H735 H 0.19308 0.67577 0.60174
 C736 C 0.86947 0.70160 0.07562
 C737 C 0.90825 0.70662 0.09371
 C738 C 0.91275 0.72248 0.13861
 C739 C 0.87970 0.73608 0.16379
 C740 C 0.84216 0.73797 0.14263
 C741 C 0.83766 0.72293 0.09659
 C742 C 0.86300 0.68067 0.03287
 C743 C 0.80350 0.72298 0.02166
 C744 C 0.80406 0.73185 0.06948
 H745 H 0.88731 0.65973 0.02404
 H746 H 0.84609 0.67187 -0.02253
 H747 H 0.77919 0.73672 0.00217
 H748 H 0.77928 0.74881 0.08339
 H749 H 0.94218 0.72663 0.15296
 H750 H 0.88395 0.74842 0.19835
 C751 C 0.42614 0.23146 0.64931
 C752 C 0.42151 0.21913 0.60243
 C753 C 0.38333 0.21401 0.58440
 C754 C 0.34987 0.22373 0.61092
 C755 C 0.35367 0.23935 0.65603
 C756 C 0.39200 0.24251 0.67616
 C757 C 0.46411 0.23376 0.66970
 C758 C 0.46855 0.24795 0.71515
 C759 C 0.43534 0.26016 0.74088
 C760 C 0.39735 0.25761 0.72169
 H761 H 0.49039 0.22399 0.65081
 H762 H 0.49790 0.24959 0.73043
 H763 H 0.43902 0.27148 0.77599
 H764 H 0.37237 0.26737 0.74284
 H765 H 0.37940 0.20504 0.54841
 H766 H 0.32076 0.22141 0.59506
 C767 C 0.12953 0.28835 0.08953
 C768 C 0.09416 0.26601 0.09399
 C769 C 0.09211 0.23625 0.12791
 C770 C 0.12447 0.22753 0.15635
 C771 C 0.16011 0.24803 0.15154
 C772 C 0.16284 0.27904 0.11849
 C773 C 0.13343 0.31836 0.05554
 C774 C 0.16893 0.33884 0.05055
 C775 C 0.20131 0.32974 0.07890
 C776 C 0.19852 0.30002 0.11244
 H777 H 0.10949 0.32623 0.03219
 H778 H 0.17139 0.36174 0.02430
 H779 H 0.22883 0.34563 0.07468
 H780 H 0.22451 0.29360 0.13345
 H781 H 0.06540 0.21891 0.13168
 H782 H 0.12231 0.20336 0.18107
 C783 C 0.60909 0.80259 0.59766
 C784 C 0.57627 0.77633 0.59612
 C785 C 0.57582 0.74380 0.62658
 C786 C 0.60799 0.73497 0.65514
 C787 C 0.64203 0.75813 0.65414
 C788 C 0.64258 0.79279 0.62633
 C789 C 0.61049 0.83746 0.57050
 C790 C 0.64355 0.86190 0.57179
 C791 C 0.67647 0.85162 0.59861
 C792 C 0.67629 0.81723 0.62532
 H793 H 0.58631 0.84692 0.54851
 H794 H 0.64371 0.88898 0.55168
 H795 H 0.70226 0.87045 0.59881
 H796 H 0.70264 0.81025 0.64542
 H797 H 0.55096 0.72372 0.62669
 H798 H 0.60724 0.70843 0.67634
   
