data_POSCAR
  _audit_creation_date              2014-09-24
  _audit_creation_method            'ToBaCCo'
  _symmetry_space_group_name_H-M    'P1'
  _symmetry_Int_Tables_number       1
  _symmetry_cell_setting            triclinic
  loop_
  _symmetry_equiv_pos_as_xyz
 x,y,z
_cell_length_a 31.0984
_cell_length_b 30.9922
_cell_length_c 31.4687
_cell_angle_alpha 89.812900
_cell_angle_beta 90.090400
_cell_angle_gamma 89.490900
loop_
  _atom_site_label
  _atom_site_type_symbol
  _atom_site_fract_x
  _atom_site_fract_y
  _atom_site_fract_z
C1 C 0.21158 0.15704 0.21487
 C2 C 0.18987 0.13894 0.24946
 C3 C 0.15023 0.15620 0.26305
 C4 C 0.13486 0.19473 0.24411
 C5 C 0.15649 0.21345 0.20968
 C6 C 0.19475 0.19420 0.19462
 C7 C 0.24804 0.13652 0.19817
 C8 C 0.26740 0.15209 0.16091
 C9 C 0.25205 0.19042 0.14217
 C10 C 0.21518 0.21095 0.15819
 C11 C 0.19686 0.24626 0.13674
 C12 C 0.15927 0.26631 0.15203
 C13 C 0.13937 0.24982 0.18871
 H14 H 0.20216 0.10932 0.26357
 H15 H 0.10539 0.20956 0.25559
 H16 H 0.26009 0.10699 0.21269
 H17 H 0.26673 0.20227 0.11318
 H18 H 0.21133 0.25767 0.10750
 H19 H 0.10990 0.26464 0.20016
 C20 C -0.20115 0.85080 0.20827
 C21 C -0.18277 0.86935 0.24462
 C22 C -0.14683 0.85001 0.26503
 C23 C -0.12776 0.81330 0.24617
 C24 C -0.14535 0.79481 0.20960
 C25 C -0.18270 0.81297 0.19117
 C26 C -0.23703 0.86998 0.18809
 C27 C -0.25444 0.85186 0.15076
 C28 C -0.23748 0.81226 0.13623
 C29 C -0.20124 0.79352 0.15525
 C30 C -0.18265 0.75614 0.13809
 C31 C -0.14488 0.73855 0.15561
 C32 C -0.12608 0.75836 0.19110
 H33 H -0.19599 0.89944 0.25652
 H34 H -0.10008 0.79784 0.26090
 H35 H -0.24994 0.90008 0.20030
 H36 H -0.25220 0.79620 0.10939
 H37 H -0.19698 0.74115 0.11045
 H38 H -0.09639 0.74536 0.20419
 C39 C -0.21340 0.14829 -0.20590
 C40 C -0.19510 0.13049 -0.24282
 C41 C -0.15881 0.14941 -0.26161
 C42 C -0.14020 0.18570 -0.24253
 C43 C -0.15864 0.20446 -0.20643
 C44 C -0.19549 0.18587 -0.18809
 C45 C -0.24822 0.12825 -0.18560
 C46 C -0.26501 0.14486 -0.14723
 C47 C -0.24900 0.18447 -0.13208
 C48 C -0.21369 0.20424 -0.15127
 C49 C -0.19487 0.24080 -0.13289
 C50 C -0.15744 0.25840 -0.15035
 C51 C -0.13994 0.24067 -0.18754
 H52 H -0.20887 0.10186 -0.25689
 H53 H -0.11126 0.19937 -0.25601
 H54 H -0.26028 0.09822 -0.19828
 H55 H -0.26342 0.19950 -0.10442
 H56 H -0.20784 0.25418 -0.10375
 H57 H -0.11077 0.25419 -0.20070
 C58 C 0.19253 0.86375 -0.19523
 C59 C 0.17608 0.88269 -0.23234
 C60 C 0.14432 0.86195 -0.25672
 C61 C 0.12657 0.82326 -0.24067
 C62 C 0.14157 0.80480 -0.20254
 C63 C 0.17520 0.82481 -0.18013
 C64 C 0.22707 0.88252 -0.17373
 C65 C 0.24634 0.86135 -0.13894
 C66 C 0.22749 0.82390 -0.12251
 C67 C 0.19179 0.80572 -0.14272
 C68 C 0.17330 0.76803 -0.12685
 C69 C 0.14013 0.74748 -0.14914
 C70 C 0.12424 0.76612 -0.18691
 H71 H 0.18812 0.91389 -0.24213
 H72 H 0.10213 0.80643 -0.25856
 H73 H 0.24068 0.91237 -0.18545
 H74 H 0.24164 0.80808 -0.09500
 H75 H 0.18517 0.75415 -0.09736
 H76 H 0.09862 0.75033 -0.20413
 C77 C 0.15504 1.20879 0.78866
 C78 C 0.13780 1.19170 0.75112
 C79 C 0.15471 1.15347 0.73306
 C80 C 0.18888 1.13205 0.75426
 C81 C 0.20681 1.14898 0.79149
 C82 C 0.18976 1.18751 0.80872
 C83 C 0.13785 1.24673 0.80657
 C84 C 0.15452 1.26372 0.84484
 C85 C 0.18855 1.24115 0.86488
 C86 C 0.20680 1.20417 0.84667
 C87 C 0.24105 1.18283 0.86676
 C88 C 0.25746 1.14392 0.85054
 C89 C 0.24069 1.12735 0.81256
 H90 H 0.11162 1.20880 0.73546
 H91 H 0.20063 1.10124 0.74264
 H92 H 0.11193 1.26338 0.79010
 H93 H 0.19996 1.25124 0.89582
 H94 H 0.25425 1.19570 0.89597
 H95 H 0.25333 1.09724 0.80010
 C96 C 0.85606 0.80444 0.79541
 C97 C 0.87390 0.82440 0.75945
 C98 C 0.85338 0.86031 0.74023
 C99 C 0.81611 0.87754 0.75924
 C100 C 0.79842 0.85848 0.79543
 C101 C 0.81832 0.82172 0.81360
 C102 C 0.87499 0.76714 0.81307
 C103 C 0.85604 0.74579 0.84801
 C104 C 0.81944 0.76489 0.86705
 C105 C 0.80052 0.80242 0.85006
 C106 C 0.76350 0.82053 0.86849
 C107 C 0.74294 0.85647 0.84973
 C108 C 0.76086 0.87552 0.81350
 H109 H 0.90275 0.81081 0.74529
 H110 H 0.80127 0.90656 0.74631
 H111 H 0.90481 0.75496 0.79973
 H112 H 0.80425 0.74946 0.89403
 H113 H 0.75020 0.80635 0.89709
 H114 H 0.74520 0.90340 0.79918
 C115 C 0.13879 0.79865 1.20037
 C116 C 0.12227 0.81645 1.23808
 C117 C 0.14370 0.85038 1.25854
 C118 C 0.18223 0.86610 1.24124
 C119 C 0.19931 0.84844 1.20389
 C120 C 0.17680 0.81561 1.18270
 C121 C 0.11875 0.76344 1.18064
 C122 C 0.13639 0.74494 1.14346
 C123 C 0.17130 0.76569 1.12383
 C124 C 0.19237 0.79973 1.14378
 C125 C 0.22965 0.81712 1.12593
 C126 C 0.25472 0.84674 1.14868
 C127 C 0.23874 0.86276 1.18756
 H128 H 0.09287 0.80394 1.25166
 H129 H 0.19871 0.89237 1.25684
 H130 H 0.09108 0.74894 1.19573
 H131 H 0.18314 0.75425 1.09344
 H132 H 0.23993 0.80641 1.09478
 H133 H 0.25703 0.88619 1.20536
 C134 C 0.84489 1.20955 1.20614
 C135 C 0.86387 1.19196 1.24303
 C136 C 0.84658 1.15470 1.26209
 C137 C 0.80706 1.13899 1.24727
 C138 C 0.78824 1.15567 1.21043
 C139 C 0.80765 1.19038 1.18904
 C140 C 0.86356 1.24459 1.18487
 C141 C 0.84613 1.25983 1.14630
 C142 C 0.81048 1.23892 1.12842
 C143 C 0.79060 1.20489 1.14987
 C144 C 0.75487 1.18406 1.13218
 C145 C 0.73608 1.14918 1.15349
 C146 C 0.75197 1.13604 1.19312
 H147 H 0.89383 1.20511 1.25471
 H148 H 0.79211 1.11193 1.26328
 H149 H 0.89179 1.25987 1.19807
 H150 H 0.79809 1.24950 1.09785
 H151 H 0.74253 1.19391 1.10136
 H152 H 0.73754 1.10871 1.20912
 O153 O 0.55741 0.92390 0.92307
 O154 O 0.60564 0.96093 0.96416
 C155 C 0.59629 0.93384 0.93423
 O156 O 0.43582 1.07741 0.93588
 O157 O 0.38969 1.03408 0.97309
 C158 C 0.39735 1.06515 0.94645
 O159 O 0.55677 1.07436 0.93015
 O160 O 0.60509 1.03348 0.96858
 C161 C 0.59571 1.06300 0.94063
 O162 O 0.43659 0.92242 0.92712
 O163 O 0.39033 0.96043 0.96982
 C164 C 0.39820 0.93354 0.93936
 Zr165 Zr 0.49750 0.94402 0.94847
 O166 O 0.49387 0.94856 0.88143
 O167 O 0.49938 0.87587 0.94449
 Zr168 Zr 0.49706 1.05301 0.95494
 O169 O 0.49125 1.05960 0.88823
 O170 O 0.50122 1.12082 0.96157
 O171 O 0.53545 0.99889 0.94252
 O172 O 0.46000 0.99907 0.94461
 O173 O 0.44132 0.91012 1.07487
 O174 O 0.39266 0.95451 1.04082
 C175 C 0.40242 0.92255 1.06600
 O176 O 0.55963 1.06389 1.08707
 O177 O 0.60638 1.02841 1.04272
 C178 C 0.59820 1.05381 1.07453
 O179 O 0.43871 1.06788 1.08541
 O180 O 0.39152 1.03071 1.04391
 C181 C 0.39982 1.05775 1.07392
 O182 O 0.56100 0.91444 1.07729
 O183 O 0.60684 0.95521 1.03696
 C184 C 0.59922 0.92573 1.06529
 Zr185 Zr 0.50023 0.93743 1.05591
 O186 O 0.49995 0.94038 1.12298
 O187 O 0.50264 0.86924 1.05763
 Zr188 Zr 0.49922 1.04576 1.06214
 O189 O 0.49658 1.04199 1.12924
 O190 O 0.50331 1.11386 1.06492
 Zr191 Zr 0.56260 0.99472 1.00381
 Zr192 Zr 0.43454 0.99514 1.00646
 O193 O 0.46217 0.99102 1.06739
 O194 O 0.53852 0.99098 1.06627
 O195 O 0.46068 0.93229 1.00245
 O196 O 0.53559 1.05707 1.00832
 O197 O 0.53611 0.93255 1.00088
 O198 O 0.45964 1.05798 1.00974
 H199 H 0.44052 1.00068 0.91970
 H200 H 0.55503 1.08219 1.00958
 H201 H 0.44308 0.98931 1.09252
 H202 H 0.55537 0.90701 0.99910
 H203 H 0.47501 1.13083 0.97650
 H204 H 0.47772 1.12593 1.05025
 H205 H 0.51735 1.01935 1.13823
 H206 H 0.49996 0.91008 1.13311
 H207 H 0.50483 0.85935 1.02792
 H208 H 0.47549 0.86447 0.96184
 H209 H 0.51788 0.96675 0.87161
 H210 H 0.51234 1.03958 0.87524
 O211 O -0.08070 0.43794 0.06778
 O212 O -0.03737 0.39048 0.03162
 C213 C -0.06901 0.39916 0.05719
 O214 O -0.07480 0.55843 -0.08442
 O215 O -0.03917 0.60633 -0.04183
 C216 C -0.06492 0.59739 -0.07294
 O217 O -0.07634 0.43605 -0.07884
 O218 O -0.03663 0.38985 -0.03754
 C219 C -0.06499 0.39722 -0.06673
 O220 O -0.07392 0.55783 0.07660
 O221 O -0.03831 0.60616 0.03451
 C222 C -0.06338 0.59683 0.06609
 Zr223 Zr -0.05565 0.49825 0.04933
 O224 O -0.12335 0.50502 0.04928
 O225 O -0.05923 0.49114 0.11602
 Zr226 Zr -0.05580 0.49819 -0.05765
 O227 O -0.12371 0.50268 -0.05410
 O228 O -0.06149 0.49407 -0.12440
 O229 O -0.06330 0.45955 -0.00415
 O230 O -0.06438 0.53621 -0.00422
 O231 O 0.07319 0.56071 0.07197
 O232 O 0.03214 0.60789 0.03243
 C233 C 0.06110 0.59939 0.06091
 O234 O 0.07945 0.44014 -0.07700
 O235 O 0.03843 0.39160 -0.04007
 C236 C 0.06876 0.40116 -0.06667
 O237 O 0.07341 0.56075 -0.08005
 O238 O 0.03316 0.60784 -0.04010
 C239 C 0.06202 0.59942 -0.06862
 O240 O 0.08104 0.44030 0.06792
 O241 O 0.04000 0.39169 0.03157
 C242 C 0.07114 0.40127 0.05731
 Zr243 Zr 0.05253 0.49952 0.05010
 O244 O 0.11988 0.50318 0.05773
 O245 O 0.04788 0.49434 0.11708
 Zr246 Zr 0.05265 0.49977 -0.05765
 O247 O 0.12034 0.50360 -0.06161
 O248 O 0.04958 0.49564 -0.12478
 Zr249 Zr 0.00017 0.43440 -0.00377
 Zr250 Zr -0.00256 0.56344 -0.00412
 O251 O 0.06005 0.53688 -0.00383
 O252 O 0.06217 0.46160 -0.00374
 O253 O -0.00218 0.53732 0.05805
 O254 O -0.00061 0.46136 -0.06533
 O255 O -0.00072 0.46089 0.05771
 O256 O -0.00225 0.53754 -0.06614
 H257 H -0.08940 0.55624 -0.00404
 H258 H 0.00005 0.44192 -0.09026
 H259 H 0.08526 0.55615 -0.00385
 H260 H -0.00036 0.44068 0.08218
 H261 H -0.03324 0.50200 -0.13618
 H262 H 0.03725 0.52309 -0.13568
 H263 H 0.13233 0.48558 -0.03844
 H264 H 0.13231 0.50508 0.02897
 H265 H 0.03899 0.52286 0.12827
 H266 H -0.03153 0.50089 0.12765
 H267 H -0.13409 0.48903 0.02447
 H268 H -0.13479 0.47370 -0.04702
 O269 O 1.08201 -0.06429 0.56032
 O270 O 1.03930 -0.02589 0.60656
 C271 C 1.07033 -0.05285 0.59830
 O272 O 1.07097 0.08462 0.43636
 O273 O 1.03214 0.04195 0.39124
 C274 C 1.05932 0.07264 0.39861
 O275 O 1.07836 0.08259 0.55487
 O276 O 1.03784 0.04609 0.60384
 C277 C 1.06819 0.07256 0.59364
 O278 O 1.07719 -0.07102 0.44110
 O279 O 1.03618 -0.03256 0.39336
 C280 C 1.06622 -0.06056 0.40247
 Zr281 Zr 1.05562 -0.04661 0.50055
 O282 O 1.12350 -0.04558 0.49784
 O283 O 1.05671 -0.11466 0.50691
 Zr284 Zr 1.05052 0.06271 0.49684
 O285 O 1.11759 0.07282 0.49352
 O286 O 1.04149 0.13051 0.49989
 O287 O 1.06210 0.00949 0.53615
 O288 O 1.06067 0.00717 0.46184
 O289 O 0.92495 -0.07576 0.44408
 O290 O 0.96335 -0.03690 0.39511
 C291 C 0.93513 -0.06580 0.40536
 O292 O 0.91871 0.08045 0.55783
 O293 O 0.96214 0.04459 0.60559
 C294 C 0.93126 0.07149 0.59631
 O295 O 0.91892 0.07986 0.43870
 O296 O 0.95847 0.03804 0.39268
 C297 C 0.92924 0.06713 0.40079
 O298 O 0.92208 -0.06695 0.56197
 O299 O 0.96315 -0.02680 0.60736
 C300 C 0.93283 -0.05418 0.59972
 Zr301 Zr 0.94791 -0.05045 0.50209
 O302 O 0.88078 -0.05997 0.50092
 O303 O 0.95694 -0.11796 0.50914
 Zr304 Zr 0.94266 0.05879 0.49844
 O305 O 0.87466 0.05675 0.49586
 O306 O 0.94106 0.12707 0.49911
 Zr307 Zr 1.00001 0.00816 0.56302
 Zr308 Zr 0.99831 0.00408 0.43591
 O309 O 0.93677 0.00272 0.46367
 O310 O 0.93715 0.00515 0.53796
 O311 O 1.00157 -0.05813 0.46321
 O312 O 0.99695 0.06976 0.53477
 O313 O 1.00247 -0.05509 0.53905
 O314 O 0.99569 0.06785 0.45902
 H315 H 1.08577 0.00748 0.44252
 H316 H 0.99665 0.09534 0.55359
 H317 H 0.91091 0.00130 0.44537
 H318 H 1.00333 -0.07941 0.55958
 H319 H 1.03190 0.14070 0.47156
 H320 H 0.95723 0.13746 0.47410
 H321 H 0.86479 0.03944 0.52041
 H322 H 0.86735 -0.03099 0.50074
 H323 H 0.96620 -0.12966 0.48136
 H324 H 1.04156 -0.12682 0.48207
 H325 H 1.13315 -0.02139 0.51577
 H326 H 1.13115 0.04494 0.48607
 C327 C 1.08115 0.12669 0.29028
 C328 C 1.12609 0.13443 0.29446
 C329 C 1.14727 0.11982 0.33136
 C330 C 1.12484 0.10041 0.36439
 C331 C 1.08032 0.09443 0.36203
 C332 C 1.05796 0.10834 0.32495
 C333 C 1.05906 0.13418 0.25150
 C334 C 1.01485 0.12841 0.24846
 C335 C 0.99180 0.11465 0.28359
 C336 C 1.01298 0.10474 0.32146
 H337 H 1.07564 0.14354 0.22283
 H338 H 0.99839 0.13478 0.21873
 H339 H 0.95745 0.11100 0.28117
 H340 H 0.99383 0.09473 0.34795
 H341 H 1.18146 0.12482 0.33551
 H342 H 1.14263 0.08984 0.39223
 C343 C 0.84603 -0.11402 0.33601
 C344 C 0.87131 -0.13186 0.30238
 C345 C 0.91647 -0.12957 0.30568
 C346 C 0.93621 -0.10842 0.33927
 C347 C 0.91198 -0.08808 0.37075
 C348 C 0.86641 -0.09017 0.36904
 C349 C 0.80123 -0.12108 0.33900
 C350 C 0.77661 -0.10081 0.37019
 C351 C 0.79602 -0.07371 0.39945
 C352 C 0.84045 -0.06849 0.39910
 H353 H 0.78481 -0.14290 0.31788
 H354 H 0.74227 -0.10601 0.37152
 H355 H 0.77666 -0.05725 0.42304
 H356 H 0.85401 -0.04702 0.42233
 H357 H 0.93710 -0.14241 0.28100
 H358 H 0.97091 -0.10778 0.34058
 C359 C 0.87131 0.15582 0.66351
 C360 C 0.86128 0.13044 0.69974
 C361 C 0.87411 0.08696 0.70084
 C362 C 0.89707 0.06867 0.66730
 C363 C 0.90876 0.09343 0.63186
 C364 C 0.89711 0.13788 0.63048
 C365 C 0.85621 0.19878 0.65932
 C366 C 0.86919 0.22453 0.62539
 C367 C 0.89749 0.20818 0.59519
 C368 C 0.91152 0.16541 0.59770
 H369 H 0.83413 0.21281 0.68202
 H370 H 0.85776 0.25753 0.62288
 H371 H 0.90855 0.22869 0.56960
 H372 H 0.93454 0.15466 0.57438
 H373 H 0.86690 0.06710 0.72827
 H374 H 0.90571 0.03475 0.66902
 C375 C 1.15597 -0.09714 0.67508
 C376 C 1.12896 -0.11925 0.70476
 C377 C 1.08452 -0.12046 0.69628
 C378 C 1.06675 -0.09871 0.66175
 C379 C 1.09206 -0.07401 0.63462
 C380 C 1.13705 -0.07290 0.64105
 C381 C 1.20137 -0.10072 0.67646
 C382 C 1.22705 -0.07707 0.64873
 C383 C 1.20827 -0.05030 0.61827
 C384 C 1.16371 -0.04848 0.61407
 H385 H 1.21757 -0.12250 0.69821
 H386 H 1.26173 -0.07968 0.65080
 H387 H 1.22834 -0.03164 0.59712
 H388 H 1.15037 -0.02798 0.58949
 H389 H 1.06256 -0.13673 0.71751
 H390 H 1.03272 -0.10147 0.65589
 C391 C 0.28881 1.08529 1.12372
 C392 C 0.29831 1.12702 1.13967
 C393 C 0.33867 1.14485 1.13193
 C394 C 0.37061 1.12122 1.11152
 C395 C 0.36307 1.07952 1.09601
 C396 C 0.32102 1.06150 1.10109
 C397 C 0.24670 1.06824 1.12674
 C398 C 0.23665 1.02846 1.10936
 C399 C 0.26770 1.00517 1.08767
 C400 C 0.30906 1.02140 1.08326
 H401 H 0.22051 1.08585 1.14126
 H402 H 0.20434 1.01603 1.11204
 H403 H 0.25961 0.97442 1.07366
 H404 H 0.33038 1.00145 1.06527
 H405 H 0.34604 1.17704 1.14300
 H406 H 0.40158 1.13633 1.10712
 C407 C 0.32344 0.88707 0.85406
 C408 C 0.28695 0.87783 0.87951
 C409 C 0.28845 0.88601 0.92322
 C410 C 0.32487 0.90368 0.94180
 C411 C 0.36064 0.91492 0.91717
 C412 C 0.35939 0.90819 0.87251
 C413 C 0.32511 0.87570 0.81061
 C414 C 0.35926 0.88860 0.78510
 C415 C 0.39219 0.91312 0.80220
 C416 C 0.39228 0.92302 0.84537
 H417 H 0.30032 0.85656 0.79593
 H418 H 0.35979 0.88016 0.75175
 H419 H 0.41793 0.92435 0.78199
 H420 H 0.41767 0.94336 0.85672
 H421 H 0.26100 0.87899 0.94315
 H422 H 0.32499 0.90881 0.97586
 C423 C 0.70998 0.87374 1.08286
 C424 C 0.71142 0.87230 1.12821
 C425 C 0.67633 0.88945 1.15097
 C426 C 0.63975 0.90506 1.13004
 C427 C 0.63677 0.90425 1.08566
 C428 C 0.67164 0.88746 1.06176
 C429 C 0.74677 0.86471 1.05781
 C430 C 0.74413 0.86328 1.01370
 C431 C 0.70522 0.87163 0.99355
 C432 C 0.66932 0.88400 1.01714
 H433 H 0.77809 0.85937 1.07192
 H434 H 0.77235 0.85535 0.99508
 H435 H 0.70322 0.86919 0.95946
 H436 H 0.63967 0.89028 1.00033
 H437 H 0.67621 0.88920 1.18538
 H438 H 0.61362 0.91838 1.14874
 C439 C 0.70287 1.11976 0.92118
 C440 C 0.70285 1.12237 0.87584
 C441 C 0.66835 1.10366 0.85363
 C442 C 0.63373 1.08535 0.87511
 C443 C 0.63195 1.08521 0.91953
 C444 C 0.66608 1.10376 0.94288
 C445 C 0.73949 1.13052 0.94565
 C446 C 0.73746 1.13224 0.98979
 C447 C 0.69947 1.12217 1.01047
 C448 C 0.66430 1.10728 0.98753
 H449 H 0.77015 1.13736 0.93109
 H450 H 0.76531 1.14191 1.00798
 H451 H 0.69755 1.12538 1.04446
 H452 H 0.63555 1.09937 1.00493
 H453 H 0.66701 1.10476 0.81925
 H454 H 0.60796 1.07116 0.85679
 C455 C 0.16184 0.33874 0.11305
 C456 C 0.13873 0.30217 0.12751
 C457 C 0.09537 0.29794 0.11596
 C458 C 0.07455 0.32937 0.09160
 C459 C 0.09651 0.36575 0.07709
 C460 C 0.14121 0.36939 0.08577
 C461 C 0.20486 0.34599 0.12549
 C462 C 0.22814 0.38007 0.10833
 C463 C 0.20914 0.40760 0.07865
 C464 C 0.16614 0.40245 0.06740
 H465 H 0.22086 0.32568 0.14872
 H466 H 0.26126 0.38483 0.11771
 H467 H 0.22769 0.43331 0.06451
 H468 H 0.15304 0.42398 0.04354
 H469 H 0.07730 0.26999 0.12602
 H470 H 0.04067 0.32568 0.08491
 C471 C -0.09444 0.28202 -0.10558
 C472 C -0.13333 0.29192 -0.12705
 C473 C -0.14866 0.33433 -0.12773
 C474 C -0.12580 0.36724 -0.10818
 C475 C -0.08638 0.35927 -0.08734
 C476 C -0.07000 0.31569 -0.08637
 C477 C -0.07947 0.23885 -0.10297
 C478 C -0.04052 0.22877 -0.08353
 C479 C -0.01562 0.26128 -0.06648
 C480 C -0.02989 0.30400 -0.06784
 H481 H -0.09774 0.21236 -0.11584
 H482 H -0.02940 0.19559 -0.08206
 H483 H 0.01515 0.25340 -0.05213
 H484 H -0.00780 0.32671 -0.05500
 H485 H -0.17853 0.34212 -0.14391
 H486 H -0.13946 0.39949 -0.10938
 C487 C 0.14767 0.67160 -0.11868
 C488 C 0.12153 0.70701 -0.13188
 C489 C 0.07707 0.70570 -0.12468
 C490 C 0.05848 0.67069 -0.10404
 C491 C 0.08384 0.63626 -0.08909
 C492 C 0.12907 0.63723 -0.09507
 C493 C 0.19201 0.66958 -0.12834
 C494 C 0.21804 0.63669 -0.11189
 C495 C 0.20054 0.60535 -0.08553
 C496 C 0.15657 0.60557 -0.07703
 H497 H 0.20694 0.69321 -0.14878
 H498 H 0.25205 0.63590 -0.11911
 H499 H 0.22108 0.58062 -0.07175
 H500 H 0.14470 0.58139 -0.05543
 H501 H 0.05662 0.73246 -0.13438
 H502 H 0.02393 0.67055 -0.09959
 C503 C -0.11137 0.66317 0.15756
 C504 C -0.12374 0.70097 0.13495
 C505 C -0.11429 0.70418 0.09152
 C506 C -0.09382 0.67063 0.07018
 C507 C -0.08127 0.63292 0.09160
 C508 C -0.08791 0.62999 0.13625
 C509 C -0.12209 0.65732 0.20081
 C510 C -0.10676 0.62165 0.22346
 C511 C -0.08042 0.59136 0.20365
 C512 C -0.07087 0.59547 0.16057
 H513 H -0.14250 0.68000 0.21750
 H514 H -0.11478 0.61788 0.25672
 H515 H -0.06743 0.56444 0.22170
 H516 H -0.04908 0.57209 0.14702
 H517 H -0.12300 0.73302 0.07382
 H518 H -0.08827 0.67401 0.03641
 C519 C 1.15995 0.11576 0.66273
 C520 C 1.13566 0.13541 0.69615
 C521 C 1.09043 0.13470 0.69345
 C522 C 1.06949 0.11371 0.66045
 C523 C 1.09269 0.09277 0.62851
 C524 C 1.13827 0.09294 0.62977
 C525 C 1.20509 0.12033 0.65969
 C526 C 1.22850 0.09902 0.62826
 C527 C 1.20757 0.07352 0.59861
 C528 C 1.16292 0.07068 0.59901
 H529 H 1.22274 0.14104 0.68092
 H530 H 1.26310 0.10234 0.62691
 H531 H 1.22596 0.05651 0.57465
 H532 H 1.14809 0.05076 0.57511
 H533 H 1.07066 0.14874 0.71821
 H534 H 1.03464 0.11385 0.65988
 C535 C 0.84557 -0.10575 0.66847
 C536 C 0.87104 -0.11974 0.70383
 C537 C 0.91514 -0.11035 0.70404
 C538 C 0.93375 -0.08689 0.67129
 C539 C 0.90957 -0.07298 0.63630
 C540 C 0.86467 -0.08062 0.63559
 C541 C 0.80213 -0.11814 0.66364
 C542 C 0.77712 -0.10220 0.63021
 C543 C 0.79479 -0.07408 0.60066
 C544 C 0.83812 -0.06335 0.60316
 H545 H 0.78718 -0.14074 0.68514
 H546 H 0.74377 -0.11150 0.62740
 H547 H 0.77499 -0.06095 0.57533
 H548 H 0.85032 -0.04090 0.57989
 H549 H 0.93530 -0.11960 0.73074
 H550 H 0.96756 -0.07978 0.67323
 C551 C 1.14913 -0.12405 0.33527
 C552 C 1.12515 -0.12923 0.29728
 C553 C 1.08389 -0.11101 0.29448
 C554 C 1.06617 -0.08811 0.32833
 C555 C 1.08902 -0.08219 0.36635
 C556 C 1.13207 -0.09833 0.36897
 C557 C 1.18995 -0.14379 0.34044
 C558 C 1.21506 -0.13534 0.37608
 C559 C 1.20031 -0.10681 0.40687
 C560 C 1.15949 -0.08821 0.40327
 H561 H 1.20282 -0.16589 0.31707
 H562 H 1.24651 -0.15025 0.37935
 H563 H 1.22063 -0.09894 0.43366
 H564 H 1.15067 -0.06460 0.42669
 H565 H 1.06536 -0.11395 0.26546
 H566 H 1.03419 -0.07469 0.32453
 C567 C 0.87371 0.08607 0.29342
 C568 C 0.86899 0.13192 0.29426
 C569 C 0.88564 0.15467 0.32903
 C570 C 0.90386 0.13292 0.36356
 C571 C 0.90654 0.08776 0.36448
 C572 C 0.89053 0.06392 0.32957
 C573 C 0.86488 0.06186 0.25631
 C574 C 0.86762 0.01702 0.25657
 C575 C 0.87962 -0.00465 0.29342
 C576 C 0.89087 0.01844 0.32963
 H577 H 0.85675 0.07721 0.22644
 H578 H 0.86022 -0.00099 0.22810
 H579 H 0.88094 -0.03944 0.29356
 H580 H 0.89940 0.00047 0.35770
 H581 H 0.88306 0.18952 0.33038
 H582 H 0.91644 0.15165 0.38973
 C583 C 0.15968 0.33145 -0.11177
 C584 C 0.13552 0.30060 -0.13550
 C585 C 0.09039 0.30547 -0.13666
 C586 C 0.06950 0.33771 -0.11369
 C587 C 0.09245 0.36564 -0.08758
 C588 C 0.13781 0.36226 -0.08584
 C589 C 0.20496 0.33442 -0.11510
 C590 C 0.22810 0.36257 -0.08945
 C591 C 0.20675 0.38910 -0.06069
 C592 C 0.16201 0.38933 -0.05907
 H593 H 0.22290 0.31567 -0.13805
 H594 H 0.26279 0.36374 -0.09186
 H595 H 0.22486 0.41034 -0.04025
 H596 H 0.14654 0.41075 -0.03668
 H597 H 0.07044 0.28312 -0.15401
 H598 H 0.03498 0.34110 -0.11672
 C599 C -0.15817 0.33294 0.10929
 C600 C -0.13387 0.29669 0.12359
 C601 C -0.08991 0.29416 0.11394
 C602 C -0.06978 0.32685 0.09111
 C603 C -0.09305 0.36280 0.07637
 C604 C -0.13815 0.36483 0.08350
 C605 C -0.20191 0.33854 0.12035
 C606 C -0.22624 0.37236 0.10324
 C607 C -0.20765 0.40108 0.07481
 C608 C -0.16413 0.39735 0.06486
 H609 H -0.21769 0.31712 0.14244
 H610 H -0.25984 0.37590 0.11159
 H611 H -0.22698 0.42649 0.06054
 H612 H -0.15141 0.41940 0.04161
 H613 H -0.07090 0.26657 0.12423
 H614 H -0.03553 0.32439 0.08563
 C615 C -0.10893 0.67278 -0.16054
 C616 C -0.12578 0.70709 -0.13494
 C617 C -0.12305 0.70279 -0.09045
 C618 C -0.10314 0.66729 -0.07153
 C619 C -0.08480 0.63438 -0.09593
 C620 C -0.08664 0.63737 -0.14087
 C621 C -0.11593 0.67115 -0.20496
 C622 C -0.09718 0.63886 -0.22968
 C623 C -0.07175 0.60705 -0.21080
 C624 C -0.06662 0.60604 -0.16684
 H625 H -0.13669 0.69408 -0.22106
 H626 H -0.10235 0.63858 -0.26370
 H627 H -0.05660 0.58252 -0.23024
 H628 H -0.04665 0.58066 -0.15359
 H629 H -0.13487 0.72802 -0.06966
 H630 H -0.10205 0.66553 -0.03720
 C631 C 0.14630 0.67331 0.10838
 C632 C 0.11946 0.70660 0.12571
 C633 C 0.07455 0.70201 0.12283
 C634 C 0.05638 0.66745 0.10126
 C635 C 0.08227 0.63615 0.08178
 C636 C 0.12759 0.63941 0.08432
 C637 C 0.19114 0.67139 0.11632
 C638 C 0.21720 0.64065 0.09657
 C639 C 0.19925 0.61065 0.06922
 C640 C 0.15490 0.60975 0.06325
 H641 H 0.20651 0.69303 0.13838
 H642 H 0.25152 0.64024 0.10240
 H643 H 0.21968 0.58739 0.05320
 H644 H 0.14239 0.58582 0.04180
 H645 H 0.05304 0.72639 0.13558
 H646 H 0.02165 0.66518 0.09965
 C647 C 0.28420 1.10857 0.91820
 C648 C 0.29084 1.12007 0.87514
 C649 C 0.33123 1.11306 0.85682
 C650 C 0.36514 1.09589 0.88074
 C651 C 0.36019 1.08600 0.92409
 C652 C 0.31948 1.09368 0.94345
 C653 C 0.24300 1.11209 0.93683
 C654 C 0.23737 1.10525 0.98009
 C655 C 0.27246 1.09479 1.00546
 C656 C 0.31308 1.08873 0.98752
 H657 H 0.21481 1.12034 0.91821
 H658 H 0.20581 1.10896 0.99416
 H659 H 0.26787 1.09153 1.03919
 H660 H 0.33942 1.08174 1.00862
 H661 H 0.33679 1.12170 0.82391
 H662 H 0.39563 1.09018 0.86505
 C663 C 0.32591 0.83599 1.10803
 C664 C 0.29620 0.86280 1.13059
 C665 C 0.30534 0.90688 1.13440
 C666 C 0.34112 0.92459 1.11492
 C667 C 0.36697 0.90019 1.08776
 C668 C 0.36013 0.85524 1.08462
 C669 C 0.32336 0.79050 1.10904
 C670 C 0.35088 0.76507 1.08447
 C671 C 0.38191 0.78424 1.05900
 C672 C 0.38680 0.82890 1.05914
 H673 H 0.30077 0.77407 1.12938
 H674 H 0.34811 0.73029 1.08523
 H675 H 0.40286 0.76434 1.03966
 H676 H 0.41176 0.84246 1.03941
 H677 H 0.28440 0.92828 1.15214
 H678 H 0.34887 0.95784 1.12126
 C679 C 0.71019 1.08032 1.11979
 C680 C 0.70235 1.12337 1.13288
 C681 C 0.66144 1.14158 1.12783
 C682 C 0.62826 1.11793 1.10989
 C683 C 0.63469 1.07508 1.09664
 C684 C 0.67590 1.05551 1.10273
 C685 C 0.75175 1.06163 1.12275
 C686 C 0.75895 1.01886 1.11126
 C687 C 0.72506 0.99389 1.09698
 C688 C 0.68397 1.01180 1.09308
 H689 H 0.77910 1.07986 1.13368
 H690 H 0.79088 1.00489 1.11386
 H691 H 0.73070 0.96050 1.08882
 H692 H 0.65871 0.99076 1.08347
 H693 H 0.65518 1.17448 1.13780
 H694 H 0.59735 1.13374 1.10552
 C695 C 0.66690 0.84925 0.87836
 C696 C 0.70312 0.87491 0.86856
 C697 C 0.70268 0.91880 0.87926
 C698 C 0.66769 0.93724 0.90016
 C699 C 0.63234 0.91222 0.91192
 C700 C 0.63238 0.86740 0.90227
 C701 C 0.66432 0.80579 0.86522
 C702 C 0.63059 0.77978 0.87856
 C703 C 0.59908 0.79638 0.90536
 C704 C 0.59999 0.83962 0.91733
 H705 H 0.68817 0.79154 0.84448
 H706 H 0.62933 0.74639 0.86870
 H707 H 0.57374 0.77569 0.91686
 H708 H 0.57584 0.85046 0.93942
 H709 H 0.73008 0.93888 0.87204
 H710 H 0.66842 0.97136 0.90755
   
