data_POSCAR
  _audit_creation_date              2014-09-24
  _audit_creation_method            'ToBaCCo'
  _symmetry_space_group_name_H-M    'P1'
  _symmetry_Int_Tables_number       1
  _symmetry_cell_setting            triclinic
  loop_
  _symmetry_equiv_pos_as_xyz
 x,y,z
_cell_length_a 51.0627
_cell_length_b 50.9758
_cell_length_c 51.0684
_cell_angle_alpha 90.009100
_cell_angle_beta 89.988000
_cell_angle_gamma 89.985500
loop_
  _atom_site_label
  _atom_site_type_symbol
  _atom_site_fract_x
  _atom_site_fract_y
  _atom_site_fract_z
C1 C 0.61368 0.64726 0.61442
 C2 C 0.63621 0.63613 0.60329
 C3 C 0.64723 0.61394 0.61433
 C4 C 0.63601 0.60274 0.63677
 C5 C 0.61380 0.61362 0.64765
 C6 C 0.60263 0.63615 0.63652
 C7 C 0.59866 0.66868 0.60781
 N8 N 0.57889 0.67093 0.62548
 C9 C 0.58119 0.65113 0.64314
 C10 C 0.60711 0.59853 0.66894
 N11 N 0.62488 0.57868 0.67157
 C12 C 0.64267 0.58137 0.65178
 C13 C 0.66867 0.60734 0.59938
 N14 N 0.67102 0.62508 0.57967
 C15 C 0.65126 0.64280 0.58195
 H16 H 0.60207 0.68185 0.59154
 H17 H 0.56805 0.64768 0.65941
 H18 H 0.59083 0.60250 0.68188
 H19 H 0.65894 0.56839 0.64778
 H20 H 0.68180 0.59101 0.60279
 H21 H 0.64788 0.65914 0.56884
 C22 C 0.88683 0.35248 0.11414
 C23 C 0.86440 0.36371 0.10291
 C24 C 0.85339 0.38594 0.11389
 C25 C 0.86451 0.39707 0.13641
 C26 C 0.88659 0.38593 0.14749
 C27 C 0.89770 0.36338 0.13634
 C28 C 0.90182 0.33108 0.10752
 N29 N 0.92160 0.32840 0.12531
 C30 C 0.91897 0.34826 0.14305
 C31 C 0.89321 0.40090 0.16891
 N32 N 0.87558 0.42074 0.17119
 C33 C 0.85792 0.41851 0.15141
 C34 C 0.83206 0.39262 0.09883
 N35 N 0.82977 0.37488 0.07910
 C36 C 0.84946 0.35711 0.08147
 H37 H 0.89782 0.31810 0.09127
 H38 H 0.93192 0.35224 0.15933
 H39 H 0.90946 0.39742 0.18206
 H40 H 0.84168 0.43172 0.14797
 H41 H 0.81896 0.40898 0.10219
 H42 H 0.85286 0.34075 0.06838
 C43 C 0.38627 0.14714 -0.11432
 C44 C 0.36378 0.13598 -0.10316
 C45 C 0.35277 0.11379 -0.11420
 C46 C 0.36396 0.10262 -0.13668
 C47 C 0.38613 0.11353 -0.14759
 C48 C 0.39730 0.13606 -0.13646
 C49 C 0.40129 0.16857 -0.10772
 N50 N 0.42103 0.17085 -0.12543
 C51 C 0.41870 0.15105 -0.14310
 C52 C 0.39280 0.09846 -0.16890
 N53 N 0.37505 0.07860 -0.17153
 C54 C 0.35730 0.08125 -0.15170
 C55 C 0.33136 0.10716 -0.09924
 N56 N 0.32901 0.12488 -0.07950
 C57 C 0.34874 0.14262 -0.08179
 H58 H 0.39790 0.18173 -0.09143
 H59 H 0.43182 0.14762 -0.15940
 H60 H 0.40905 0.10246 -0.18188
 H61 H 0.34106 0.06826 -0.14769
 H62 H 0.31826 0.09081 -0.10264
 H63 H 0.35211 0.15895 -0.06866
 C64 C 0.11310 0.85304 0.38576
 C65 C 0.13560 0.86418 0.39691
 C66 C 0.14665 0.88633 0.38585
 C67 C 0.13550 0.89746 0.36334
 C68 C 0.11335 0.88650 0.35243
 C69 C 0.10220 0.86398 0.36360
 C70 C 0.09806 0.83170 0.39242
 N71 N 0.07823 0.82909 0.37468
 C72 C 0.08086 0.84895 0.35695
 C73 C 0.10670 0.90150 0.33108
 N74 N 0.12442 0.92138 0.32843
 C75 C 0.14215 0.91880 0.34828
 C76 C 0.16805 0.89296 0.40084
 N77 N 0.17033 0.87527 0.42060
 C78 C 0.15057 0.85757 0.41832
 H79 H 0.10208 0.81869 0.40865
 H80 H 0.06788 0.85297 0.34071
 H81 H 0.09047 0.89745 0.31809
 H82 H 0.15837 0.93182 0.35229
 H83 H 0.18119 0.90927 0.39742
 H84 H 0.14714 0.84126 0.43146
 N85 N 0.09302 0.16602 0.11387
 N86 N 0.08358 0.15615 0.13571
 C87 C 0.06289 0.17063 0.14346
 C88 C 0.05897 0.19023 0.12520
 C89 C 0.07832 0.18670 0.10665
 H90 H 0.05119 0.16698 0.16073
 H91 H 0.08172 0.19862 0.08947
 Cu92 Cu 0.09866 0.12469 0.15109
 Cu93 Cu 0.12437 0.15216 0.09712
 Cu94 Cu 0.15258 0.09708 0.12532
 N95 N 0.11404 0.09323 0.16617
 N96 N 0.13584 0.08330 0.15671
 C97 C 0.14306 0.06263 0.17141
 C98 C 0.12452 0.05916 0.19079
 C99 C 0.10630 0.07879 0.18688
 H100 H 0.16021 0.05067 0.16800
 H101 H 0.08904 0.08249 0.19860
 N102 N 0.16653 0.11393 0.09351
 N103 N 0.15615 0.13526 0.08315
 C104 C 0.17049 0.14244 0.06220
 C105 C 0.19063 0.12460 0.05903
 C106 C 0.18748 0.10675 0.07916
 H107 H 0.16638 0.15918 0.04987
 H108 H 0.19982 0.09002 0.08325
 H109 H 0.11935 0.11387 0.10946
 H110 H 0.14029 0.13537 0.13036
 N111 N 0.40606 0.83361 0.61415
 N112 N 0.41607 0.84406 0.63545
 C113 C 0.43697 0.82979 0.64300
 C114 C 0.44040 0.80956 0.62525
 C115 C 0.42046 0.81263 0.60719
 H116 H 0.44905 0.83396 0.65988
 H117 H 0.41650 0.80027 0.59045
 Cu118 Cu 0.40077 0.87547 0.65073
 Cu119 Cu 0.37467 0.84743 0.59737
 Cu120 Cu 0.34664 0.90278 0.62540
 N121 N 0.38546 0.90687 0.66601
 N122 N 0.36351 0.91664 0.65671
 C123 C 0.35619 0.93720 0.67153
 C124 C 0.37477 0.94074 0.69084
 C125 C 0.39315 0.92127 0.68676
 H126 H 0.33894 0.94906 0.66823
 H127 H 0.41045 0.91763 0.69841
 N128 N 0.33263 0.88582 0.59367
 N129 N 0.34292 0.86441 0.58337
 C130 C 0.32861 0.85725 0.56241
 C131 C 0.30856 0.87519 0.55917
 C132 C 0.31175 0.89307 0.57927
 H133 H 0.33267 0.84049 0.55009
 H134 H 0.29949 0.90988 0.58328
 H135 H 0.37962 0.88584 0.60924
 H136 H 0.35893 0.86453 0.63051
 N137 N 0.90708 0.66664 0.38631
 N138 N 0.91680 0.65644 0.36472
 C139 C 0.93742 0.67096 0.35690
 C140 C 0.94102 0.69090 0.37486
 C141 C 0.92154 0.68755 0.39330
 H142 H 0.94927 0.66712 0.33976
 H143 H 0.91790 0.69974 0.41025
 Cu144 Cu 0.90162 0.62486 0.34974
 Cu145 Cu 0.87567 0.65289 0.40312
 Cu146 Cu 0.84773 0.59744 0.37515
 N147 N 0.88634 0.59357 0.33424
 N148 N 0.86469 0.58349 0.34390
 C149 C 0.85748 0.56279 0.32924
 C150 C 0.87571 0.55954 0.30947
 C151 C 0.89381 0.57939 0.31327
 H152 H 0.84045 0.55074 0.33292
 H153 H 0.91084 0.58341 0.30134
 N154 N 0.83361 0.61452 0.40681
 N155 N 0.84387 0.63595 0.41707
 C156 C 0.82952 0.64314 0.43801
 C157 C 0.80948 0.62521 0.44126
 C158 C 0.81271 0.60730 0.42119
 H159 H 0.83355 0.65992 0.45030
 H160 H 0.80048 0.59046 0.41720
 H161 H 0.88053 0.61459 0.39129
 H162 H 0.85984 0.63584 0.36997
 N163 N 0.59386 0.33347 -0.11436
 N164 N 0.58388 0.34390 -0.13568
 C165 C 0.56293 0.32967 -0.14317
 C166 C 0.55950 0.30945 -0.12541
 C167 C 0.57946 0.31252 -0.10736
 H168 H 0.55083 0.33384 -0.16004
 H169 H 0.58343 0.30019 -0.09060
 Cu170 Cu 0.59913 0.37531 -0.15100
 Cu171 Cu 0.62528 0.34727 -0.09762
 Cu172 Cu 0.65330 0.40258 -0.12562
 N173 N 0.61448 0.40672 -0.16621
 N174 N 0.63641 0.41650 -0.15688
 C175 C 0.64371 0.43710 -0.17165
 C176 C 0.62511 0.44069 -0.19095
 C177 C 0.60675 0.42120 -0.18690
 H178 H 0.66098 0.44894 -0.16833
 H179 H 0.58944 0.41759 -0.19855
 N180 N 0.66735 0.38559 -0.09393
 N181 N 0.65705 0.36418 -0.08364
 C182 C 0.67140 0.35700 -0.06270
 C183 C 0.69148 0.37490 -0.05947
 C184 C 0.68826 0.39279 -0.07955
 H185 H 0.66734 0.34023 -0.05040
 H186 H 0.70053 0.40959 -0.08357
 H187 H 0.62021 0.38571 -0.10953
 H188 H 0.64094 0.36434 -0.13085
 C189 C -0.02052 0.27000 0.12539
 C190 C -0.03485 0.27481 0.10247
 C191 C -0.05435 0.29418 0.10260
 C192 C -0.05940 0.30928 0.12534
 C193 C -0.04437 0.30416 0.14810
 C194 C -0.02520 0.28444 0.14828
 C195 C -0.00019 0.24943 0.12540
 C196 C 0.01364 0.24409 0.14857
 C197 C 0.03270 0.22425 0.14855
 C198 C 0.03847 0.21054 0.12536
 C199 C 0.02474 0.21636 0.10222
 C200 C 0.00505 0.23554 0.10223
 C201 C -0.01072 0.27876 0.17100
 C202 C 0.00825 0.25881 0.17120
 C203 C -0.02927 0.26026 0.07975
 C204 C -0.00955 0.24107 0.07959
 H205 H -0.01413 0.28977 0.18883
 H206 H 0.01890 0.25501 0.18915
 H207 H -0.04017 0.26380 0.06190
 H208 H -0.00580 0.23039 0.06163
 H209 H -0.06485 0.29790 0.08460
 H210 H -0.04800 0.31476 0.16607
 H211 H 0.04345 0.21986 0.16633
 H212 H 0.02907 0.20561 0.08441
 C213 C 0.52016 0.72978 0.62548
 C214 C 0.52913 0.71958 0.60155
 C215 C 0.54868 0.70025 0.60168
 C216 C 0.55894 0.69087 0.62549
 C217 C 0.54956 0.70117 0.64931
 C218 C 0.53030 0.72080 0.64941
 C219 C 0.49976 0.75027 0.62546
 C220 C 0.49113 0.76084 0.64935
 C221 C 0.47188 0.78050 0.64919
 C222 C 0.46096 0.78915 0.62539
 C223 C 0.46968 0.77816 0.60164
 C224 C 0.48926 0.75887 0.60154
 C225 C 0.52103 0.73170 0.67294
 C226 C 0.50186 0.75146 0.67290
 C227 C 0.51830 0.72884 0.57801
 C228 C 0.49863 0.74808 0.57801
 H229 H 0.52871 0.72496 0.69154
 H230 H 0.49531 0.75939 0.69147
 H231 H 0.52502 0.72109 0.55943
 H232 H 0.49074 0.75462 0.55943
 H233 H 0.55563 0.69217 0.58332
 H234 H 0.55760 0.69421 0.66767
 H235 H 0.46507 0.78869 0.66755
 H236 H 0.46156 0.78492 0.58323
 C237 C 1.02029 0.77080 0.37465
 C238 C 1.02492 0.78527 0.35177
 C239 C 1.04411 0.80496 0.35194
 C240 C 1.05920 0.81002 0.37467
 C241 C 1.05419 0.79489 0.39739
 C242 C 1.03467 0.77556 0.39754
 C243 C 0.99996 0.75024 0.37464
 C244 C 0.99479 0.73631 0.39779
 C245 C 0.97515 0.71710 0.39780
 C246 C 0.96142 0.71127 0.37467
 C247 C 0.96708 0.72505 0.35150
 C248 C 0.98608 0.74493 0.35148
 C249 C 1.02915 0.76097 0.42024
 C250 C 1.00943 0.74180 0.42041
 C251 C 1.01038 0.77965 0.32907
 C252 C 0.99141 0.75971 0.32888
 H253 H 1.04010 0.76447 0.43808
 H254 H 1.00573 0.73108 0.43836
 H255 H 1.01376 0.79068 0.31126
 H256 H 0.98072 0.75594 0.31094
 H257 H 1.04771 0.81557 0.33397
 H258 H 1.06474 0.79856 0.41537
 H259 H 0.97087 0.70633 0.41560
 H260 H 0.95628 0.72067 0.33375
 C261 C 0.47974 0.22970 -0.12552
 C262 C 0.46956 0.22072 -0.14944
 C263 C 0.45030 0.20109 -0.14931
 C264 C 0.44096 0.19079 -0.12547
 C265 C 0.45127 0.20017 -0.10168
 C266 C 0.47082 0.21949 -0.10159
 C267 C 0.50013 0.25019 -0.12553
 C268 C 0.51066 0.25879 -0.10163
 C269 C 0.53023 0.27808 -0.10175
 C270 C 0.53892 0.28906 -0.12550
 C271 C 0.52795 0.28043 -0.14929
 C272 C 0.50871 0.26078 -0.14943
 C273 C 0.48170 0.22874 -0.07806
 C274 C 0.50136 0.24799 -0.07809
 C275 C 0.47879 0.23162 -0.17298
 C276 C 0.49795 0.25139 -0.17297
 H277 H 0.47502 0.22099 -0.05947
 H278 H 0.50928 0.25452 -0.05952
 H279 H 0.47108 0.22488 -0.19156
 H280 H 0.50445 0.25932 -0.19155
 H281 H 0.44223 0.19413 -0.16765
 H282 H 0.44437 0.19208 -0.08331
 H283 H 0.53839 0.28483 -0.08335
 H284 H 0.53473 0.28863 -0.16766
 C285 C 0.12435 -0.02041 0.27042
 C286 C 0.10149 -0.03491 0.27505
 C287 C 0.10167 -0.05457 0.29426
 C288 C 0.12440 -0.05958 0.30939
 C289 C 0.14711 -0.04442 0.30437
 C290 C 0.14724 -0.02511 0.28483
 C291 C 0.12433 0.00010 0.25004
 C292 C 0.14748 0.01405 0.24485
 C293 C 0.14749 0.03318 0.22512
 C294 C 0.12437 0.03889 0.21131
 C295 C 0.10120 0.02513 0.21703
 C296 C 0.10119 0.00534 0.23612
 C297 C 0.16993 -0.01050 0.27930
 C298 C 0.17009 0.00864 0.25954
 C299 C 0.07879 -0.02934 0.26048
 C300 C 0.07859 -0.00944 0.24147
 H301 H 0.18776 -0.01396 0.29027
 H302 H 0.18803 0.01937 0.25583
 H303 H 0.06099 -0.04039 0.26386
 H304 H 0.06066 -0.00572 0.23076
 H305 H 0.08372 -0.06520 0.29786
 H306 H 0.16508 -0.04806 0.31495
 H307 H 0.16527 0.04398 0.22083
 H308 H 0.08345 0.02944 0.20621
 C309 C 0.62489 0.52036 -0.27050
 C310 C 0.64780 0.52517 -0.28485
 C311 C 0.64764 0.54451 -0.30437
 C312 C 0.62488 0.55959 -0.30942
 C313 C 0.60213 0.55446 -0.29438
 C314 C 0.60198 0.53477 -0.27519
 C315 C 0.62490 0.49982 -0.25015
 C316 C 0.60173 0.49448 -0.23630
 C317 C 0.60177 0.47467 -0.21723
 C318 C 0.62497 0.46098 -0.21146
 C319 C 0.64812 0.46681 -0.22519
 C320 C 0.64809 0.48596 -0.24490
 C321 C 0.57926 0.52909 -0.26069
 C322 C 0.57909 0.50917 -0.24170
 C323 C 0.67054 0.51065 -0.27927
 C324 C 0.67072 0.49149 -0.25952
 H325 H 0.56141 0.54007 -0.26411
 H326 H 0.56114 0.50537 -0.23104
 H327 H 0.68839 0.51419 -0.29018
 H328 H 0.68870 0.48084 -0.25577
 H329 H 0.66563 0.54823 -0.31489
 H330 H 0.58414 0.56504 -0.29801
 H331 H 0.58400 0.47028 -0.20647
 H332 H 0.66593 0.45608 -0.22086
 C333 C 0.37500 1.02035 0.77047
 C334 C 0.39791 1.03477 0.77514
 C335 C 0.39777 1.05443 0.79435
 C336 C 0.37504 1.05953 0.80944
 C337 C 0.35228 1.04445 0.80441
 C338 C 0.35211 1.02514 0.78485
 C339 C 0.37498 0.99984 0.75009
 C340 C 0.35180 0.98597 0.74486
 C341 C 0.35177 0.96682 0.72513
 C342 C 0.37491 0.96102 0.71137
 C343 C 0.39810 0.97472 0.71712
 C344 C 0.39814 0.99452 0.73620
 C345 C 0.32937 1.01061 0.77929
 C346 C 0.32918 0.99147 0.75952
 C347 C 0.42061 1.02912 0.76060
 C348 C 0.42077 1.00922 0.74158
 H349 H 0.31153 1.01413 0.79024
 H350 H 0.31120 0.98081 0.75578
 H351 H 0.43845 1.04010 0.76401
 H352 H 0.43871 1.00543 0.73089
 H353 H 0.41575 1.06501 0.79797
 H354 H 0.33430 1.04815 0.81496
 H355 H 0.33396 0.95609 0.72080
 H356 H 0.41587 0.97037 0.70632
 C357 C 0.87569 0.47969 0.22981
 C358 C 0.89961 0.47049 0.21982
 C359 C 0.89946 0.45083 0.20060
 C360 C 0.87562 0.44070 0.19111
 C361 C 0.85182 0.45027 0.20126
 C362 C 0.85173 0.46964 0.22076
 C363 C 0.87571 0.50025 0.25013
 C364 C 0.85180 0.50909 0.26047
 C365 C 0.85195 0.52843 0.27999
 C366 C 0.87575 0.53921 0.28883
 C367 C 0.89954 0.53033 0.27805
 C368 C 0.89964 0.51064 0.25885
 C369 C 0.82820 0.47911 0.23145
 C370 C 0.82824 0.49843 0.25105
 C371 C 0.92317 0.48121 0.22919
 C372 C 0.92318 0.50102 0.24830
 H373 H 0.80960 0.47147 0.22468
 H374 H 0.80966 0.50513 0.25883
 H375 H 0.94176 0.47428 0.22164
 H376 H 0.94178 0.50880 0.25494
 H377 H 0.91782 0.44373 0.19266
 H378 H 0.83344 0.44231 0.19425
 H379 H 0.83355 0.53537 0.28800
 H380 H 0.91793 0.53836 0.28495
 C381 C 0.27026 0.12475 -0.02075
 C382 C 0.28052 0.10080 -0.02969
 C383 C 0.29979 0.10096 -0.04927
 C384 C 0.30907 0.12484 -0.05958
 C385 C 0.29869 0.14867 -0.05025
 C386 C 0.27912 0.14874 -0.03097
 C387 C 0.24985 0.12470 -0.00031
 C388 C 0.23923 0.14862 0.00827
 C389 C 0.21966 0.14845 0.02755
 C390 C 0.21110 0.12462 0.03855
 C391 C 0.22214 0.10083 0.02991
 C392 C 0.24136 0.10074 0.01028
 C393 C 0.26815 0.17228 -0.02176
 C394 C 0.24847 0.17222 -0.00254
 C395 C 0.27137 0.07721 -0.01878
 C396 C 0.25220 0.07718 0.00094
 H397 H 0.27478 0.19092 -0.02951
 H398 H 0.24049 0.19081 0.00396
 H399 H 0.27915 0.05860 -0.02549
 H400 H 0.24575 0.05856 0.00887
 H401 H 0.30792 0.08258 -0.05618
 H402 H 0.30556 0.16707 -0.05834
 H403 H 0.21144 0.16685 0.03430
 H404 H 0.21544 0.08240 0.03811
 C405 C 0.72985 0.62511 0.52101
 C406 C 0.72088 0.64908 0.53121
 C407 C 0.70129 0.64895 0.55046
 C408 C 0.69098 0.62509 0.55978
 C409 C 0.70036 0.60124 0.54948
 C410 C 0.71966 0.60114 0.52993
 C411 C 0.75028 0.62513 0.50060
 C412 C 0.75888 0.60119 0.49003
 C413 C 0.77812 0.60134 0.47042
 C414 C 0.78905 0.62517 0.46177
 C415 C 0.78040 0.64897 0.47277
 C416 C 0.76081 0.64908 0.49203
 C417 C 0.72891 0.57757 0.51904
 C418 C 0.74812 0.57760 0.49935
 C419 C 0.73176 0.67266 0.52200
 C420 C 0.75147 0.67265 0.50282
 H421 H 0.72119 0.55894 0.52573
 H422 H 0.75464 0.55900 0.49142
 H423 H 0.72504 0.69127 0.52973
 H424 H 0.75938 0.69127 0.49632
 H425 H 0.69434 0.66734 0.55853
 H426 H 0.69228 0.58284 0.55638
 H427 H 0.78490 0.58293 0.46224
 H428 H 0.78855 0.66740 0.46601
 C429 C 0.77112 0.37489 0.02027
 C430 C 0.78002 0.35092 0.03050
 C431 C 0.79956 0.35103 0.04981
 C432 C 0.80988 0.37488 0.05914
 C433 C 0.80058 0.39874 0.04879
 C434 C 0.78133 0.39885 0.02919
 C435 C 0.75072 0.37489 -0.00017
 C436 C 0.74218 0.39883 -0.01076
 C437 C 0.72294 0.39871 -0.03036
 C438 C 0.71194 0.37490 -0.03899
 C439 C 0.72056 0.35108 -0.02799
 C440 C 0.74014 0.35095 -0.00873
 C441 C 0.77215 0.42242 0.01827
 C442 C 0.75298 0.42241 -0.00145
 C443 C 0.76912 0.32735 0.02129
 C444 C 0.74944 0.32737 0.00208
 H445 H 0.77990 0.44104 0.02495
 H446 H 0.74651 0.44102 -0.00940
 H447 H 0.77579 0.30873 0.02905
 H448 H 0.74151 0.30876 -0.00442
 H449 H 0.80644 0.33264 0.05791
 H450 H 0.80867 0.41713 0.05570
 H451 H 0.71621 0.41712 -0.03856
 H452 H 0.71237 0.33267 -0.03473
 C453 C 0.22899 0.87525 0.47939
 C454 C 0.21883 0.89922 0.47043
 C455 C 0.19958 0.89912 0.45084
 C456 C 0.19024 0.87526 0.44053
 C457 C 0.20051 0.85140 0.44990
 C458 C 0.22005 0.85128 0.46920
 C459 C 0.24938 0.87524 0.49984
 C460 C 0.25990 0.85128 0.50844
 C461 C 0.27947 0.85140 0.52771
 C462 C 0.28813 0.87521 0.53868
 C463 C 0.27719 0.89904 0.53001
 C464 C 0.25796 0.89918 0.51039
 C465 C 0.23090 0.82770 0.47845
 C466 C 0.25056 0.82771 0.49766
 C467 C 0.22805 0.92279 0.48132
 C468 C 0.24721 0.92277 0.50104
 H469 H 0.22419 0.80908 0.47072
 H470 H 0.25846 0.80909 0.50419
 H471 H 0.22034 0.94142 0.47460
 H472 H 0.25372 0.94137 0.50897
 H473 H 0.19153 0.91751 0.44390
 H474 H 0.19358 0.83301 0.44182
 H475 H 0.28762 0.83298 0.53448
 H476 H 0.28395 0.91745 0.53819
   
