data_POSCAR
  _audit_creation_date              2014-09-24
  _audit_creation_method            'ToBaCCo'
  _symmetry_space_group_name_H-M    'P1'
  _symmetry_Int_Tables_number       1
  _symmetry_cell_setting            triclinic
  loop_
  _symmetry_equiv_pos_as_xyz
 x,y,z
_cell_length_a 28.0392
_cell_length_b 28.0767
_cell_length_c 69.0098
_cell_angle_alpha 90.158400
_cell_angle_beta 89.708600
_cell_angle_gamma 119.285900
loop_
  _atom_site_label
  _atom_site_type_symbol
  _atom_site_fract_x
  _atom_site_fract_y
  _atom_site_fract_z
C1 C -0.00878 0.03334 0.51359
 C2 C -0.05212 0.00082 0.49800
 C3 C -0.04124 -0.03438 0.48753
 C4 C 0.01255 -0.03266 0.49336
 C5 C -0.00614 -0.01110 0.52558
 C6 C 0.00429 -0.04621 0.51513
 C7 C 0.04527 0.06156 0.50262
 C8 C 0.05663 0.02776 0.49197
 H9 H -0.09119 -0.00039 0.49723
 H10 H 0.02306 -0.05958 0.48469
 H11 H -0.01609 -0.01661 0.54088
 H12 H 0.07033 0.10562 0.50205
 C13 C 0.96037 -0.04838 0.18333
 C14 C 0.99683 -0.05736 0.16863
 C15 C 1.03191 -0.01125 0.15854
 C16 C 1.02643 0.03938 0.16417
 C17 C 0.99896 -0.00400 0.19535
 C18 C 1.03508 0.04522 0.18522
 C19 C 0.93147 -0.02449 0.17140
 C20 C 0.96544 0.02103 0.16128
 H21 H 0.99876 -0.09479 0.16766
 H22 H 1.05216 0.07630 0.15549
 H23 H 1.00470 -0.01106 0.21035
 H24 H 0.88735 -0.04432 0.17009
 C25 C 0.05103 1.00709 0.84763
 C26 C 0.06166 1.05067 0.83205
 C27 C 0.01596 1.04091 0.82184
 C28 C -0.03565 0.98795 0.82791
 C29 C 0.00471 1.00569 0.85991
 C30 C -0.04051 0.99632 0.84973
 C31 C 0.02504 0.95306 0.83671
 C32 C -0.01984 0.94283 0.82632
 H33 H 0.09927 1.08909 0.83101
 H34 H -0.07277 0.97849 0.81945
 H35 H 0.00922 1.01509 0.87524
 H36 H 0.04367 0.92716 0.83598
 O37 O 0.49283 0.07094 0.02396
 O38 O 0.58443 0.07605 -0.01584
 O39 O 0.49091 0.07283 -0.01349
 O40 O 0.59219 0.08314 0.02202
 O41 O 0.55400 -0.00658 0.02317
 O42 O 0.45426 -0.01693 -0.01378
 O43 O 0.54781 -0.01358 -0.01418
 O44 O 0.45448 -0.01886 0.02403
 Cu45 Cu 0.54414 0.08473 0.00428
 Cu46 Cu 0.49871 -0.02293 0.00507
 C47 C 0.45671 0.02463 0.03035
 C48 C 0.58128 0.03166 -0.02184
 C49 C 0.45589 0.02652 -0.01997
 C50 C 0.59116 0.04044 0.02851
 O51 O -0.07597 0.50407 0.64933
 O52 O -0.07033 0.41876 0.68920
 O53 O -0.08253 0.50599 0.68724
 O54 O -0.07331 0.41360 0.65177
 O55 O 0.01658 0.46461 0.65107
 O56 O 0.00735 0.55539 0.68808
 O57 O 0.01962 0.46805 0.68884
 O58 O 0.01382 0.55511 0.65070
 Cu59 Cu -0.08453 0.45590 0.66954
 Cu60 Cu 0.02329 0.51562 0.66989
 C61 C -0.03156 0.54411 0.64317
 C62 C -0.02383 0.42805 0.69537
 C63 C -0.03959 0.54677 0.69361
 C64 C -0.02715 0.42356 0.64509
 O65 O 0.52974 0.54946 0.31956
 O66 O 0.43912 0.44951 0.35620
 O67 O 0.52706 0.54693 0.35735
 O68 O 0.43831 0.45993 0.31894
 O69 O 0.48635 0.41711 0.31661
 O70 O 0.57640 0.50538 0.35603
 O71 O 0.48848 0.40807 0.35433
 O72 O 0.57881 0.50745 0.31855
 Cu73 Cu 0.47886 0.50574 0.33840
 Cu74 Cu 0.53711 0.45505 0.33638
 C75 C 0.56966 0.54499 0.31274
 C76 C 0.44790 0.41084 0.36119
 C77 C 0.56764 0.54250 0.36299
 C78 C 0.44724 0.42444 0.31090
 C79 C -0.01860 0.15730 0.54865
 C80 C 0.01555 0.13592 0.55376
 C81 C 0.01752 0.09579 0.54249
 C82 C -0.01581 0.07431 0.52604
 C83 C -0.05021 0.09558 0.52087
 C84 C -0.05168 0.13654 0.53211
 C85 C -0.01916 0.20103 0.56070
 C86 C -0.06813 0.20177 0.56434
 C87 C -0.06900 0.24039 0.57696
 C88 C -0.02103 0.27881 0.58641
 C89 C 0.02821 0.27912 0.58224
 C90 C 0.02921 0.24107 0.56944
 C91 C -0.02267 0.31674 0.60117
 C92 C 0.02172 0.36987 0.60349
 C93 C 0.02080 0.40444 0.61794
 C94 C -0.02488 0.38693 0.63017
 C95 C -0.06938 0.33416 0.62777
 C96 C -0.06813 0.29935 0.61356
 H97 H 0.04090 0.15010 0.56656
 H98 H 0.04580 0.08175 0.54659
 H99 H -0.07482 0.08209 0.50792
 H100 H -0.07772 0.15286 0.52757
 H101 H -0.10615 0.17149 0.55792
 H102 H -0.10747 0.23967 0.57949
 H103 H 0.06589 0.30767 0.58931
 H104 H 0.06794 0.24260 0.56661
 H105 H 0.05706 0.38501 0.59402
 H106 H 0.05541 0.44516 0.61934
 H107 H -0.10502 0.31941 0.63709
 H108 H -0.10248 0.25839 0.61256
 C109 C 0.83467 0.81702 0.21683
 C110 C 0.85227 0.87166 0.22169
 C111 C 0.89273 0.91393 0.21089
 C112 C 0.91860 0.90333 0.19523
 C113 C 0.90105 0.84854 0.19028
 C114 C 0.85960 0.80587 0.20101
 C115 C 0.79079 0.77250 0.22850
 C116 C 0.79260 0.72446 0.23265
 C117 C 0.75406 0.68518 0.24513
 C118 C 0.71324 0.69335 0.25398
 C119 C 0.71031 0.74047 0.24922
 C120 C 0.74817 0.77917 0.23650
 C121 C 0.67558 0.65438 0.26878
 C122 C 0.62158 0.64484 0.27088
 C123 C 0.58733 0.61012 0.28541
 C124 C 0.60596 0.58337 0.29785
 C125 C 0.65952 0.59233 0.29567
 C126 C 0.69408 0.62780 0.28145
 H127 H 0.83499 0.88207 0.23398
 H128 H 0.90388 0.95548 0.21480
 H129 H 0.91790 0.83820 0.17790
 H130 H 0.84629 0.76419 0.19665
 H131 H 0.82485 0.71795 0.22680
 H132 H 0.75682 0.64876 0.24805
 H133 H 0.67990 0.74859 0.25579
 H134 H 0.74453 0.81493 0.23322
 H135 H 0.60549 0.66376 0.26121
 H136 H 0.54594 0.60333 0.28665
 H137 H 0.67505 0.57248 0.30519
 H138 H 0.73567 0.63507 0.28067
 C139 C 0.18363 0.01521 -0.11743
 C140 C 0.12862 -0.01954 -0.11255
 C141 C 0.08692 -0.02123 -0.12387
 C142 C 0.09860 0.01292 -0.14013
 C143 C 0.15375 0.04771 -0.14512
 C144 C 0.19578 0.04890 -0.13385
 C145 C 0.22759 0.01612 -0.10518
 C146 C 0.27568 0.06531 -0.10139
 C147 C 0.31473 0.06653 -0.08858
 C148 C 0.30634 0.01872 -0.07907
 C149 C 0.25908 -0.03073 -0.08338
 C150 C 0.22050 -0.03208 -0.09639
 C151 C 0.34542 0.02070 -0.06414
 C152 C 0.35568 -0.02325 -0.06167
 C153 C 0.39087 -0.02191 -0.04712
 C154 C 0.41720 0.02376 -0.03495
 C155 C 0.40734 0.06779 -0.03747
 C156 C 0.37157 0.06612 -0.05177
 H157 H 0.11752 -0.04540 -0.09985
 H158 H 0.04502 -0.04968 -0.11989
 H159 H 0.16487 0.07304 -0.15792
 H160 H 0.23777 0.07539 -0.13823
 H161 H 0.28243 0.10323 -0.10784
 H162 H 0.35122 0.10517 -0.08595
 H163 H 0.25088 -0.06832 -0.07628
 H164 H 0.18459 -0.07096 -0.09932
 H165 H 0.33700 -0.05852 -0.07110
 H166 H 0.39822 -0.05617 -0.04562
 H167 H 0.42680 0.10340 -0.02819
 H168 H 0.36374 0.10012 -0.05288
 C169 C -0.01713 0.80536 0.54127
 C170 C 0.02211 0.83105 0.52650
 C171 C 0.02867 0.87884 0.51765
 C172 C -0.00366 0.90185 0.52352
 C173 C -0.04429 0.87480 0.53767
 C174 C -0.05061 0.82761 0.54652
 C175 C -0.02104 0.75817 0.55235
 C176 C -0.07170 0.71777 0.55971
 C177 C -0.07434 0.67924 0.57305
 C178 C -0.02645 0.67950 0.57913
 C179 C 0.02367 0.71712 0.57056
 C180 C 0.02641 0.75623 0.55745
 C181 C -0.02814 0.64369 0.59531
 C182 C 0.01467 0.66320 0.60883
 C183 C 0.01308 0.63083 0.62436
 C184 C -0.03176 0.57838 0.62701
 C185 C -0.07508 0.55883 0.61374
 C186 C -0.07313 0.59102 0.59796
 H187 H 0.04812 0.81459 0.52192
 H188 H 0.05993 0.89856 0.50665
 H189 H -0.07126 0.89026 0.54209
 H190 H -0.08070 0.80968 0.55799
 H191 H -0.10929 0.71713 0.55570
 H192 H -0.11367 0.65105 0.57929
 H193 H 0.06122 0.71752 0.57445
 H194 H 0.06613 0.78664 0.55213
 H195 H 0.04919 0.70402 0.60766
 H196 H 0.04689 0.64718 0.63445
 H197 H -0.10989 0.51830 0.61535
 H198 H -0.10659 0.57439 0.58775
 C199 C 0.16205 0.17801 0.21603
 C200 C 0.16432 0.17623 0.19576
 C201 C 0.12141 0.13434 0.18535
 C202 C 0.07611 0.09181 0.19506
 C203 C 0.07337 0.09619 0.21541
 C204 C 0.11561 0.13829 0.22567
 C205 C 0.20787 0.22027 0.22744
 C206 C 0.19705 0.24647 0.24281
 C207 C 0.23899 0.28197 0.25498
 C208 C 0.29283 0.29217 0.25209
 C209 C 0.30402 0.26692 0.23645
 C210 C 0.26188 0.23147 0.22414
 C211 C 0.33632 0.32822 0.26576
 C212 C 0.37420 0.31367 0.27308
 C213 C 0.41141 0.34539 0.28750
 C214 C 0.41117 0.39204 0.29480
 C215 C 0.37465 0.40748 0.28687
 C216 C 0.33785 0.37609 0.27253
 H217 H 0.19933 0.20730 0.18797
 H218 H 0.12556 0.13534 0.16984
 H219 H 0.03833 0.06766 0.22377
 H220 H 0.11241 0.13900 0.24130
 H221 H 0.15582 0.23874 0.24560
 H222 H 0.22894 0.30030 0.26703
 H223 H 0.34522 0.27441 0.23381
 H224 H 0.27112 0.21136 0.21247
 H225 H 0.37369 0.27675 0.26819
 H226 H 0.43921 0.33263 0.29328
 H227 H 0.37394 0.44369 0.29193
 H228 H 0.30996 0.38894 0.26689
 C229 C 0.83232 0.01775 -0.12328
 C230 C 0.81959 -0.02047 -0.13837
 C231 C 0.86087 -0.02707 -0.14744
 C232 C 0.91546 0.00423 -0.14152
 C233 C 0.92821 0.04377 -0.12698
 C234 C 0.88727 0.05011 -0.11790
 C235 C 0.78891 0.02179 -0.11209
 C236 C 0.79850 0.07221 -0.10444
 C237 C 0.76204 0.07477 -0.09117
 C238 C 0.71457 0.02706 -0.08546
 C239 C 0.70294 -0.02275 -0.09426
 C240 C 0.73982 -0.02543 -0.10731
 C241 C 0.67955 0.02853 -0.06943
 C242 C 0.65577 -0.01482 -0.05611
 C243 C 0.62421 -0.01339 -0.04069
 C244 C 0.61622 0.03178 -0.03796
 C245 C 0.64034 0.07556 -0.05105
 C246 C 0.67141 0.07381 -0.06672
 H247 H 0.77773 -0.04561 -0.14303
 H248 H 0.84990 -0.05757 -0.15869
 H249 H 0.97004 0.06994 -0.12248
 H250 H 0.89875 0.07937 -0.10619
 H251 H 0.83524 0.10964 -0.10818
 H252 H 0.77253 0.11385 -0.08472
 H253 H 0.66600 -0.06011 -0.09064
 H254 H 0.73106 -0.06497 -0.11287
 H255 H 0.66233 -0.04963 -0.05735
 H256 H 0.60649 -0.04758 -0.03074
 H257 H 0.63437 0.11066 -0.04939
 H258 H 0.68859 0.10768 -0.07678
 C259 C 0.15671 -0.00383 0.11960
 C260 C 0.10785 -0.05322 0.12232
 C261 C 0.06697 -0.05572 0.13473
 C262 C 0.07435 -0.00898 0.14486
 C263 C 0.12341 0.04015 0.14206
 C264 C 0.16388 0.04278 0.12956
 C265 C 0.20062 -0.00057 0.10664
 C266 C 0.22785 0.04367 0.09386
 C267 C 0.27046 0.04790 0.08209
 C268 C 0.28720 0.00821 0.08291
 C269 C 0.25978 -0.03613 0.09570
 C270 C 0.21681 -0.04059 0.10736
 C271 C 0.33231 0.01256 0.07021
 C272 C 0.32966 -0.03446 0.06193
 C273 C 0.37083 -0.03044 0.04945
 C274 C 0.41558 0.02073 0.04477
 C275 C 0.41882 0.06777 0.05325
 C276 C 0.37776 0.06371 0.06589
 H277 H 0.10102 -0.08973 0.11466
 H278 H 0.02946 -0.09417 0.13622
 H279 H 0.13162 0.07663 0.14980
 H280 H 0.20149 0.08120 0.12801
 H281 H 0.21576 0.07477 0.09284
 H282 H 0.28974 0.08193 0.07213
 H283 H 0.27208 -0.06702 0.09695
 H284 H 0.19705 -0.07470 0.11727
 H285 H 0.29496 -0.07441 0.06466
 H286 H 0.36681 -0.06751 0.04307
 H287 H 0.45284 0.10777 0.05000
 H288 H 0.38166 0.10070 0.07227
 C289 C 0.83992 0.83797 0.45092
 C290 C 0.84158 0.88884 0.45223
 C291 C 0.88028 0.93056 0.46395
 C292 C 0.91805 0.92228 0.47470
 C293 C 0.91601 0.87130 0.47347
 C294 C 0.87786 0.82997 0.46165
 C295 C 0.79904 0.79334 0.43845
 C296 C 0.77603 0.73827 0.44414
 C297 C 0.73856 0.69631 0.43226
 C298 C 0.72260 0.70844 0.41455
 C299 C 0.74522 0.76331 0.40886
 C300 C 0.78319 0.80524 0.42061
 C301 C 0.68176 0.66425 0.40212
 C302 C 0.63862 0.66932 0.39410
 C303 C 0.60090 0.62891 0.38189
 C304 C 0.60567 0.58260 0.37722
 C305 C 0.64842 0.57703 0.38547
 C306 C 0.68592 0.61735 0.39794
 H307 H 0.81252 0.89628 0.44439
 H308 H 0.88075 0.96932 0.46453
 H309 H 0.94321 0.86255 0.48190
 H310 H 0.87845 0.79176 0.46085
 H311 H 0.78636 0.72750 0.45794
 H312 H 0.72119 0.65440 0.43709
 H313 H 0.73406 0.77373 0.39514
 H314 H 0.80074 0.84694 0.41555
 H315 H 0.63406 0.70469 0.39728
 H316 H 0.56856 0.63463 0.37578
 H317 H 0.65323 0.54190 0.38213
 H318 H 0.71899 0.61260 0.40391
 C319 C 0.00721 0.15941 0.78451
 C320 C -0.03792 0.12348 0.79575
 C321 C -0.03472 0.08548 0.80786
 C322 C 0.01350 0.08183 0.80886
 C323 C 0.05890 0.11804 0.79768
 C324 C 0.05584 0.15663 0.78567
 C325 C 0.00318 0.19970 0.77174
 C326 C 0.04464 0.25451 0.77153
 C327 C 0.03978 0.29272 0.75995
 C328 C -0.00637 0.27682 0.74811
 C329 C -0.04761 0.22175 0.74827
 C330 C -0.04300 0.18374 0.76001
 C331 C -0.01093 0.31713 0.73534
 C332 C -0.06195 0.31373 0.73180
 C333 C -0.06628 0.35021 0.71909
 C334 C -0.01961 0.39126 0.70978
 C335 C 0.03147 0.39542 0.71366
 C336 C 0.03572 0.35871 0.72618
 H337 H -0.07552 0.12549 0.79544
 H338 H -0.06993 0.05982 0.81674
 H339 H 0.09654 0.11616 0.79804
 H340 H 0.09117 0.18374 0.77706
 H341 H 0.08030 0.26803 0.78064
 H342 H 0.07192 0.33489 0.76047
 H343 H -0.08313 0.20771 0.73907
 H344 H -0.07529 0.14157 0.75974
 H345 H -0.09863 0.28286 0.73887
 H346 H -0.10618 0.34607 0.71646
 H347 H 0.06822 0.42627 0.70661
 H348 H 0.07551 0.36210 0.72825
 C349 C 0.88426 0.06792 0.11947
 C350 C 0.86989 0.06377 0.13917
 C351 C 0.89901 0.05236 0.15299
 C352 C 0.94339 0.04530 0.14745
 C353 C 0.96047 0.05337 0.12803
 C354 C 0.93087 0.06426 0.11409
 C355 C 0.84725 0.07034 0.10466
 C356 C 0.83257 0.03622 0.08829
 C357 C 0.79219 0.03280 0.07565
 C358 C 0.76577 0.06361 0.07904
 C359 C 0.78193 0.09928 0.09500
 C360 C 0.82213 0.10251 0.10769
 C361 C 0.72059 0.05753 0.06628
 C362 C 0.71659 0.10346 0.06063
 C363 C 0.67413 0.09773 0.04861
 C364 C 0.63449 0.04589 0.04202
 C365 C 0.63811 -0.00014 0.04786
 C366 C 0.68076 0.00564 0.05983
 H367 H 0.83399 0.06588 0.14378
 H368 H 0.88521 0.04633 0.16793
 H369 H 0.99434 0.04767 0.12344
 H370 H 0.94319 0.06784 0.09903
 H371 H 0.85069 0.01044 0.08568
 H372 H 0.78119 0.00556 0.06332
 H373 H 0.76218 0.12335 0.09806
 H374 H 0.83282 0.12939 0.12012
 H375 H 0.74688 0.14400 0.06523
 H376 H 0.67268 0.13408 0.04434
 H377 H 0.60830 -0.04062 0.04303
 H378 H 0.68227 -0.03062 0.06418
 C379 C 0.18425 0.11292 0.45063
 C380 C 0.13456 0.06790 0.44477
 C381 C 0.09432 0.03661 0.45848
 C382 C 0.10300 0.05036 0.47819
 C383 C 0.15396 0.09288 0.48414
 C384 C 0.19423 0.12373 0.47053
 C385 C 0.22331 0.15196 0.43624
 C386 C 0.28002 0.17574 0.43904
 C387 C 0.31662 0.21715 0.42675
 C388 C 0.29736 0.23588 0.41139
 C389 C 0.24070 0.21111 0.40828
 C390 C 0.20410 0.16954 0.42054
 C391 C 0.33624 0.28145 0.39882
 C392 C 0.32481 0.32276 0.39293
 C393 C 0.36146 0.36549 0.38103
 C394 C 0.41020 0.36767 0.37470
 C395 C 0.42175 0.32658 0.38075
 C396 C 0.38528 0.28408 0.39267
 H397 H 0.12604 0.05825 0.42954
 H398 H 0.05512 0.00426 0.45357
 H399 H 0.16145 0.10417 0.49930
 H400 H 0.23181 0.15829 0.47552
 H401 H 0.29606 0.16287 0.45095
 H402 H 0.36001 0.23560 0.42960
 H403 H 0.22464 0.22410 0.39642
 H404 H 0.16064 0.15255 0.41815
 H405 H 0.28769 0.32226 0.39766
 H406 H 0.35132 0.39643 0.37661
 H407 H 0.45883 0.32687 0.37610
 H408 H 0.39502 0.25263 0.39678
 C409 C -0.06638 0.81440 0.78487
 C410 C -0.06278 0.80464 0.80462
 C411 C -0.05162 0.84531 0.81833
 C412 C -0.04417 0.89647 0.81263
 C413 C -0.05183 0.90504 0.79315
 C414 C -0.06253 0.86440 0.77933
 C415 C -0.06844 0.77472 0.77015
 C416 C -0.03413 0.79310 0.75377
 C417 C -0.03068 0.75587 0.74114
 C418 C -0.06164 0.69942 0.74455
 C419 C -0.09738 0.68098 0.76056
 C420 C -0.10065 0.71822 0.77324
 C421 C -0.05580 0.65997 0.73172
 C422 C -0.10195 0.61110 0.72610
 C423 C -0.09650 0.57411 0.71397
 C424 C -0.04471 0.58499 0.70721
 C425 C 0.00156 0.63358 0.71300
 C426 C -0.00395 0.67071 0.72509
 H427 H -0.06511 0.76681 0.80935
 H428 H -0.04602 0.83780 0.83332
 H429 H -0.04586 0.94434 0.78841
 H430 H -0.06577 0.87277 0.76423
 H431 H -0.00829 0.83636 0.75112
 H432 H -0.00338 0.77128 0.72878
 H433 H -0.12157 0.63776 0.76363
 H434 H -0.12768 0.70284 0.78567
 H435 H -0.14247 0.60189 0.73083
 H436 H -0.13303 0.53715 0.70975
 H437 H 0.04200 0.64321 0.70804
 H438 H 0.03247 0.70765 0.72940
   
