data_POSCAR
  _audit_creation_date              2014-09-24
  _audit_creation_method            'ToBaCCo'
  _symmetry_space_group_name_H-M    'P1'
  _symmetry_Int_Tables_number       1
  _symmetry_cell_setting            triclinic
  loop_
  _symmetry_equiv_pos_as_xyz
 x,y,z
_cell_length_a 33.1498
_cell_length_b 34.3908
_cell_length_c 31.2705
_cell_angle_alpha 91.637700
_cell_angle_beta 89.676000
_cell_angle_gamma 92.722900
loop_
  _atom_site_label
  _atom_site_type_symbol
  _atom_site_fract_x
  _atom_site_fract_y
  _atom_site_fract_z
C1 C 0.18635 0.53220 1.05484
 H2 H 0.18691 0.55527 1.03201
 C3 C 0.15669 0.53070 1.08670
 H4 H 0.13496 0.55315 1.08823
 C5 C 0.21306 0.47387 1.07853
 H6 H 0.23413 0.45107 1.07441
 C7 C 0.18403 0.47126 1.11086
 H8 H 0.18350 0.44667 1.13180
 N9 N 0.21353 0.50388 1.05116
 C10 C 0.30979 0.55164 0.96970
 H11 H 0.30992 0.52882 0.94516
 C12 C 0.33751 0.58335 0.96779
 H13 H 0.35936 0.58470 0.94192
 C14 C 0.28216 0.57698 1.03419
 H15 H 0.26091 0.57406 1.06035
 C16 C 0.30961 0.60920 1.03360
 H17 H 0.30948 0.63073 1.05951
 Zn18 Zn 0.24736 0.50401 1.00249
 N19 N 0.28281 0.54899 1.00251
 C20 C 0.21436 0.53334 0.92717
 N21 N 0.21244 0.50370 0.95509
 C22 C 0.18281 0.47498 0.95240
 C23 C 0.15341 0.47541 0.92066
 C24 C 0.18562 0.53485 0.89497
 C25 C 0.30628 0.45607 1.03253
 C26 C 0.33057 0.42403 1.03312
 C27 C 0.29823 0.39901 0.96832
 C28 C 0.27440 0.43153 0.96901
 N29 N 0.27873 0.45919 1.00091
 H30 H 0.23736 0.55650 0.93053
 H31 H 0.18151 0.45225 0.97565
 H32 H 0.12967 0.45272 0.91931
 H33 H 0.18698 0.55889 0.87330
 H34 H 0.30942 0.47865 1.05726
 H35 H 0.35273 0.42212 1.05820
 H36 H 0.29489 0.37760 0.94241
 H37 H 0.25288 0.43482 0.94372
 C38 C 0.33785 0.61233 1.00021
 C39 C 0.15489 0.49951 1.11480
 C40 C 0.32678 0.39521 1.00062
 C41 C 0.15456 0.50589 0.89188
 C42 C 0.81572 0.52723 -0.04249
 H43 H 0.81738 0.54760 -0.01547
 C44 C 0.84433 0.53008 -0.07515
 H45 H 0.86807 0.55281 -0.07345
 C46 C 0.78325 0.47214 -0.07719
 H47 H 0.75990 0.44916 -0.07739
 C48 C 0.81124 0.47406 -0.11073
 H49 H 0.80893 0.45270 -0.13677
 N50 N 0.78581 0.49878 -0.04418
 C51 C 0.69254 0.54644 0.03801
 H52 H 0.68926 0.52455 0.06211
 C53 C 0.66823 0.57859 0.03962
 H54 H 0.64601 0.58132 0.06492
 C55 C 0.72421 0.56892 -0.02537
 H56 H 0.74542 0.56473 -0.05123
 C57 C 0.70047 0.60142 -0.02501
 H58 H 0.70377 0.62186 -0.05058
 Zn59 Zn 0.75072 0.49693 0.00343
 N60 N 0.71988 0.54217 0.00582
 C61 C 0.78461 0.52201 0.08405
 N62 N 0.78441 0.49483 0.05156
 C63 C 0.81115 0.46604 0.05030
 C64 C 0.83951 0.46364 0.08267
 C65 C 0.81249 0.52058 0.11727
 C66 C 0.68841 0.44878 -0.03279
 C67 C 0.66066 0.41701 -0.03585
 C68 C 0.68823 0.39231 0.02876
 C69 C 0.71563 0.42450 0.03053
 N70 N 0.71518 0.45200 0.00004
 H71 H 0.76377 0.54521 0.08388
 H72 H 0.81074 0.44527 0.02364
 H73 H 0.86089 0.44078 0.08115
 H74 H 0.81260 0.54251 0.14277
 H75 H 0.68831 0.47126 -0.05629
 H76 H 0.63889 0.41522 -0.06161
 H77 H 0.68824 0.37129 0.05385
 H78 H 0.73655 0.42788 0.05686
 C79 C 0.67185 0.60627 0.00758
 C80 C 0.84214 0.50332 -0.10970
 C81 C 0.66012 0.38862 -0.00453
 C82 C 0.84041 0.49120 0.11646
 C83 C -0.03772 0.29930 0.47351
 H84 H -0.06127 0.30004 0.49757
 C85 C -0.03703 0.32564 0.44050
 H86 H -0.06028 0.34667 0.43919
 C87 C 0.02216 0.27196 0.44714
 H88 H 0.04585 0.25184 0.45054
 C89 C 0.02407 0.29783 0.41354
 H90 H 0.04914 0.29670 0.39138
 N91 N -0.00852 0.27306 0.47614
 C92 C -0.06603 0.18496 0.55639
 H93 H -0.04540 0.18528 0.58309
 C94 C -0.09886 0.15797 0.55448
 H95 H -0.10335 0.13722 0.57968
 C96 C -0.08375 0.20958 0.48933
 H97 H -0.07704 0.22873 0.46322
 C98 C -0.11691 0.18313 0.48620
 H99 H -0.13532 0.18230 0.45771
 Zn100 Zn -0.01063 0.24147 0.52446
 N101 N -0.05878 0.20967 0.52376
 C102 C -0.03867 0.27949 0.60100
 N103 N -0.00828 0.27623 0.57185
 C104 C 0.02449 0.30149 0.57221
 C105 C 0.02735 0.33212 0.60210
 C106 C -0.03715 0.31014 0.63145
 C107 C 0.03857 0.18423 0.49079
 C108 C 0.07224 0.16149 0.48794
 C109 C 0.09538 0.18951 0.55570
 C110 C 0.06141 0.21203 0.55710
 N111 N 0.03418 0.20944 0.52458
 H112 H -0.06486 0.25956 0.59939
 H113 H 0.04773 0.29859 0.54805
 H114 H 0.05291 0.35290 0.60100
 H115 H -0.06221 0.31367 0.65332
 H116 H 0.01618 0.18236 0.46568
 H117 H 0.07561 0.14168 0.46073
 H118 H 0.11671 0.19177 0.58181
 H119 H 0.05687 0.23144 0.58427
 C120 C -0.12410 0.15639 0.51859
 C121 C -0.00568 0.32534 0.41013
 C122 C 0.10106 0.16413 0.52063
 C123 C -0.00415 0.33720 0.63135
 C124 C 0.98047 0.69766 0.52391
 H125 H 0.95794 0.69571 0.49895
 C126 C 0.97837 0.67153 0.55710
 H127 H 0.95417 0.64925 0.55777
 C128 C 1.04025 0.72839 0.55285
 H129 H 1.06482 0.74997 0.55053
 C130 C 1.03936 0.70268 0.58660
 H131 H 1.06313 0.70493 0.61021
 N132 N 1.01082 0.72561 0.52260
 C133 C 0.95734 0.81108 0.44338
 H134 H 0.97881 0.81314 0.41727
 C135 C 0.92370 0.83407 0.44417
 H136 H 0.91933 0.85409 0.41867
 C137 C 0.93763 0.78388 0.50955
 H138 H 0.94366 0.76520 0.53568
 C139 C 0.90363 0.80625 0.51154
 H140 H 0.88382 0.80432 0.53907
 Zn141 Zn 1.01109 0.75805 0.47513
 N142 N 0.96366 0.78661 0.47581
 C143 C 0.98204 0.71959 0.39872
 N144 N 1.01316 0.72444 0.42685
 C145 C 1.04490 0.70086 0.42539
 C146 C 1.04549 0.66991 0.39581
 C147 C 0.98136 0.68875 0.36861
 C148 C 1.05903 0.81826 0.51152
 C149 C 1.09148 0.84528 0.51552
 C150 C 1.11776 0.82127 0.44803
 C151 C 1.08493 0.79424 0.44553
 N152 N 1.05645 0.79327 0.47710
 H153 H 0.95661 0.73806 0.40125
 H154 H 1.06871 0.70490 0.44884
 H155 H 1.06995 0.65013 0.39635
 H156 H 0.95547 0.68384 0.34790
 H157 H 1.03569 0.81714 0.53583
 H158 H 1.09291 0.86540 0.54282
 H159 H 1.13969 0.82252 0.42228
 H160 H 1.08186 0.77463 0.41801
 C161 C 0.89669 0.83194 0.47877
 C162 C 1.00815 0.67388 0.58870
 C163 C 1.12097 0.84723 0.48329
 C164 C 1.01286 0.66297 0.36801
 C165 C 0.45153 -0.02156 0.30532
 H166 H 0.47352 -0.04382 0.30534
 C167 C 0.42106 -0.02134 0.33637
 H168 H 0.41959 -0.04372 0.36001
 C169 C 0.42784 0.03561 0.27539
 H170 H 0.43110 0.05826 0.25222
 C171 C 0.39699 0.03697 0.30597
 H172 H 0.37636 0.06047 0.30591
 N173 N 0.45435 0.00660 0.27559
 C174 C 0.52625 -0.04183 0.17075
 H175 H 0.54922 -0.01866 0.16762
 C176 C 0.52690 -0.07490 0.14378
 H177 H 0.55055 -0.07697 0.11987
 C178 C 0.46755 -0.06713 0.20568
 H179 H 0.44419 -0.06387 0.22954
 C180 C 0.46712 -0.10079 0.17946
 H181 H 0.44333 -0.12290 0.18395
 Zn182 Zn 0.49942 0.00661 0.23790
 N183 N 0.49724 -0.03877 0.20144
 C184 C 0.57191 -0.02215 0.27022
 N185 N 0.54582 0.00718 0.27333
 C186 C 0.54985 0.03538 0.30468
 C187 C 0.58086 0.03456 0.33475
 C188 C 0.60334 -0.02400 0.29951
 C189 C 0.47041 0.05260 0.17330
 C190 C 0.46929 0.08420 0.14629
 C191 C 0.52972 0.11196 0.18013
 C192 C 0.52984 0.07968 0.20641
 N193 N 0.50020 0.05099 0.20286
 H194 H 0.56774 -0.04486 0.24588
 H195 H 0.52821 0.05794 0.30701
 H196 H 0.58320 0.05678 0.35992
 H197 H 0.62348 -0.04787 0.29717
 H198 H 0.44745 0.02923 0.17079
 H199 H 0.44537 0.08515 0.12295
 H200 H 0.55342 0.13454 0.18348
 H201 H 0.55366 0.07762 0.22954
 C202 C 0.49736 -0.10523 0.14821
 C203 C 0.39359 0.00839 0.33702
 C204 C 0.49908 0.11442 0.14972
 C205 C 0.60769 0.00429 0.33251
 C206 C 0.54853 -0.03689 0.69053
 H207 H 0.52412 -0.05893 0.68962
 C208 C 0.57948 -0.03815 0.66019
 H209 H 0.57906 -0.06139 0.63606
 C210 C 0.57813 0.02096 0.72228
 H211 H 0.57700 0.04438 0.74595
 C212 C 0.60984 0.02072 0.69250
 H213 H 0.63315 0.04381 0.69384
 N214 N 0.54836 -0.00771 0.72082
 C215 C 0.47016 -0.05627 0.82164
 H216 H 0.44655 -0.03560 0.82322
 C217 C 0.46952 -0.08724 0.84983
 H218 H 0.44523 -0.09033 0.87290
 C219 C 0.53126 -0.07666 0.79056
 H220 H 0.55579 -0.07210 0.76813
 C221 C 0.53176 -0.10793 0.81808
 H222 H 0.55648 -0.12741 0.81632
 Zn223 Zn 0.50227 -0.00741 0.75713
 N224 N 0.50070 -0.05159 0.79267
 C225 C 0.42597 -0.03516 0.72117
 N226 N 0.45723 -0.00807 0.71989
 C227 C 0.45876 0.01994 0.69000
 C228 C 0.42775 0.02203 0.66037
 C229 C 0.39410 -0.03403 0.69205
 C230 C 0.53244 0.04489 0.82249
 C231 C 0.53222 0.07754 0.85034
 C232 C 0.47048 0.09582 0.81741
 C233 C 0.47182 0.06296 0.79030
 N234 N 0.50260 0.03832 0.79304
 H235 H 0.42568 -0.05763 0.74464
 H236 H 0.48422 0.04080 0.68934
 H237 H 0.42925 0.04468 0.63696
 H238 H 0.36926 -0.05551 0.69357
 H239 H 0.55623 0.02457 0.82457
 H240 H 0.55601 0.08225 0.87370
 H241 H 0.44566 0.11501 0.81503
 H242 H 0.44780 0.05692 0.76756
 C243 C 0.50078 -0.11334 0.84827
 C244 C 0.61048 -0.00905 0.66090
 C245 C 0.50082 0.10332 0.84791
 C246 C 0.39489 -0.00502 0.66134
 C247 C 0.22138 0.05339 0.50705
 C248 C 0.24859 0.04790 0.54569
 C249 C 0.27178 0.01612 0.54158
 C250 C 0.26593 -0.00701 0.49895
 C251 C 0.25020 0.05524 0.46861
 C252 C 0.27364 0.02363 0.46444
 C253 C 0.19744 0.01471 0.50104
 C254 C 0.22033 -0.01681 0.49690
 H255 H 0.25097 0.06843 0.57269
 H256 H 0.28464 -0.03281 0.49520
 H257 H 0.25236 0.07969 0.44742
 H258 H 0.16462 0.01229 0.50060
 C259 C 0.78070 -0.05274 0.49006
 C260 C 0.75301 -0.05201 0.52954
 C261 C 0.72959 -0.02031 0.53204
 C262 C 0.73588 0.00763 0.49467
 C263 C 0.75235 -0.05009 0.45193
 C264 C 0.72874 -0.01855 0.45433
 C265 C 0.80462 -0.01374 0.49206
 C266 C 0.78151 0.01778 0.49463
 H267 H 0.75109 -0.07506 0.55259
 H268 H 0.71707 0.03347 0.49617
 H269 H 0.75040 -0.07195 0.42624
 H270 H 0.83741 -0.01125 0.49321
 C271 C 0.44813 0.28458 0.99793
 C272 C 0.44929 0.25500 0.96031
 C273 C 0.48308 0.23356 0.95963
 C274 C 0.51280 0.24409 0.99633
 C275 C 0.45300 0.26031 1.03788
 C276 C 0.48683 0.23891 1.03706
 C277 C 0.48748 0.30903 0.99452
 C278 C 0.52126 0.28833 0.99357
 H279 H 0.42444 0.24992 0.93812
 H280 H 0.54054 0.22724 0.99528
 H281 H 0.42971 0.25707 1.06225
 H282 H 0.48867 0.34067 0.99434
 C283 C 0.54991 0.71621 0.00352
 C284 C 0.54917 0.74267 -0.03514
 C285 C 0.51551 0.76421 -0.03670
 C286 C 0.48545 0.75680 0.00030
 C287 C 0.54486 0.74376 0.04249
 C288 C 0.51114 0.76518 0.04078
 C289 C 0.51048 0.69168 0.00097
 C290 C 0.47681 0.71242 -0.00072
 H291 H 0.57429 0.74594 -0.05732
 H292 H 0.45782 0.77368 -0.00137
 H293 H 0.56787 0.74877 0.06687
 H294 H 0.50917 0.66005 0.00163
 C295 C 0.99827 0.44361 0.29336
 C296 C 0.96043 0.44549 0.26577
 C297 C 0.96157 0.47641 0.23933
 C298 C 1.00062 0.50224 0.24237
 C299 C 1.03350 0.44331 0.26149
 C300 C 1.03469 0.47410 0.23491
 C301 C 1.00252 0.48337 0.31660
 C302 C 1.00383 0.51397 0.28987
 H303 H 0.93560 0.42372 0.26610
 H304 H 1.00194 0.52714 0.22056
 H305 H 1.05577 0.42117 0.26075
 H306 H 1.00363 0.48705 0.35120
 C307 C 0.00152 0.55485 0.70947
 C308 C -0.03644 0.55213 0.73761
 C309 C -0.03748 0.52118 0.76405
 C310 C -0.00033 0.49621 0.76045
 C311 C 0.03683 0.55596 0.74083
 C312 C 0.03583 0.52522 0.76747
 C313 C 0.00274 0.51518 0.68623
 C314 C 0.00180 0.48457 0.71289
 H315 H -0.05956 0.57348 0.73778
 H316 H -0.00074 0.47126 0.78218
 H317 H 0.06039 0.57897 0.74161
 H318 H 0.00295 0.51151 0.65160
 C319 C 0.16094 0.08798 0.54775
 C320 C 0.16877 0.13259 0.55239
 C321 C 0.13591 0.13790 0.51866
 C322 C 0.12799 0.09360 0.51415
 C323 C 0.16763 0.13693 0.48256
 C324 C 0.20098 0.13098 0.51616
 C325 C 0.19262 0.08670 0.51159
 C326 C 0.15977 0.09237 0.47798
 H327 H 0.15843 0.06757 0.57460
 H328 H 0.17263 0.14907 0.58323
 H329 H 0.09778 0.07822 0.51338
 H330 H 0.17000 0.15737 0.45573
 H331 H 0.23138 0.14596 0.51689
 H332 H 0.15630 0.07566 0.44722
 C333 C 0.59368 0.65967 -0.03087
 C334 C 0.63951 0.66975 -0.02755
 C335 C 0.64259 0.63837 0.00639
 C336 C 0.59703 0.62825 0.00302
 C337 C 0.63516 0.66867 0.04243
 C338 C 0.63146 0.70046 0.00850
 C339 C 0.58594 0.68996 0.00512
 C340 C 0.58928 0.65865 0.03904
 H341 H 0.57637 0.65611 -0.06113
 H342 H 0.66003 0.67471 -0.05522
 H343 H 0.58284 0.59837 0.00072
 H344 H 0.65252 0.67210 0.07266
 H345 H 0.64525 0.73049 0.01076
 H346 H 0.56838 0.65428 0.06652
 C347 C 0.84079 -0.09003 0.45138
 C348 C 0.87310 -0.09617 0.48556
 C349 C 0.86320 -0.14027 0.48229
 C350 C 0.83102 -0.13443 0.44808
 C351 C 0.83129 -0.13699 0.51812
 C352 C 0.84109 -0.09260 0.52134
 C353 C 0.80895 -0.08653 0.48717
 C354 C 0.79870 -0.13059 0.48391
 H355 H 0.84444 -0.07042 0.42390
 H356 H 0.90393 -0.08209 0.48624
 H357 H 0.82721 -0.15193 0.41788
 H358 H 0.82697 -0.15622 0.54582
 H359 H 0.84499 -0.07512 0.55155
 H360 H 0.76772 -0.14432 0.48326
 C361 C 0.36643 0.30076 1.00210
 C362 C 0.36265 0.33467 1.03558
 C363 C 0.35566 0.36276 0.99915
 C364 C 0.35880 0.32926 0.96564
 C365 C 0.40129 0.37244 0.99566
 C366 C 0.40855 0.34430 1.03208
 C367 C 0.41203 0.31084 0.99863
 C368 C 0.40473 0.33888 0.96221
 H369 H 0.35248 0.27094 1.00477
 H370 H 0.34504 0.33323 1.06583
 H371 H 0.33837 0.32284 0.93809
 H372 H 0.41565 0.40210 0.99296
 H373 H 0.42924 0.35031 1.05953
 H374 H 0.42230 0.34044 0.93193
 C375 C 0.78431 0.09822 0.50574
 C376 C 0.81351 0.10774 0.54380
 C377 C 0.84611 0.12251 0.51215
 C378 C 0.81730 0.11373 0.47418
 C379 C 0.86256 0.08154 0.50750
 C380 C 0.82995 0.06649 0.53908
 C381 C 0.80132 0.05749 0.50114
 C382 C 0.83378 0.07253 0.46959
 H383 H 0.75183 0.10465 0.50493
 H384 H 0.80544 0.12259 0.57443
 H385 H 0.81174 0.13308 0.44725
 H386 H 0.89493 0.07467 0.50822
 H387 H 0.83496 0.04670 0.56578
 H388 H 0.84197 0.05776 0.43895
 C389 C 0.42418 0.66442 0.03675
 C390 C 0.38012 0.67703 0.03372
 C391 C 0.37131 0.64344 0.00088
 C392 C 0.41505 0.63084 0.00401
 C393 C 0.38302 0.67034 -0.03618
 C394 C 0.39264 0.70435 -0.00341
 C395 C 0.43620 0.69118 -0.00030
 C396 C 0.42699 0.65770 -0.03304
 H397 H 0.44140 0.66216 0.06686
 H398 H 0.36080 0.68509 0.06136
 H399 H 0.42435 0.60047 0.00712
 H400 H 0.36576 0.67250 -0.06627
 H401 H 0.38383 0.73488 -0.00649
 H402 H 0.44646 0.64985 -0.06066
 C403 C 0.21512 -0.09795 0.48999
 C404 C 0.18161 -0.11058 0.52243
 C405 C 0.15237 -0.11997 0.48508
 C406 C 0.18545 -0.10817 0.45247
 C407 C 0.13781 -0.07819 0.48717
 C408 C 0.16696 -0.06863 0.52457
 C409 C 0.19991 -0.05638 0.49213
 C410 C 0.17087 -0.06607 0.45473
 H411 H 0.24725 -0.10556 0.49120
 H412 H 0.18570 -0.12926 0.55029
 H413 H 0.19307 -0.12454 0.42265
 H414 H 0.10585 -0.06999 0.48598
 H415 H 0.15948 -0.05216 0.55440
 H416 H 0.16668 -0.04742 0.42685
 C417 C 0.57361 0.33796 1.03136
 C418 C 0.61768 0.32526 1.02784
 C419 C 0.62657 0.35761 0.99548
 C420 C 0.58281 0.37030 0.99910
 C421 C 0.61503 0.32927 0.95804
 C422 C 0.60534 0.29650 0.99034
 C423 C 0.56176 0.30975 0.99397
 C424 C 0.57103 0.34199 0.96167
 H425 H 0.55629 0.34134 1.06162
 H426 H 0.63686 0.31820 1.05526
 H427 H 0.57347 0.40080 1.00273
 H428 H 0.63239 0.32599 0.92780
 H429 H 0.61419 0.26586 0.98673
 H430 H 0.55163 0.34875 0.93429
 C431 C 0.52923 0.18184 1.07145
 C432 C 0.52593 0.18552 1.12085
 C433 C 0.49772 0.14857 1.12069
 C434 C 0.50108 0.14457 1.07167
 C435 C 0.46050 0.17335 1.11674
 C436 C 0.48860 0.21061 1.11656
 C437 C 0.49195 0.20650 1.06758
 C438 C 0.46383 0.16960 1.06746
 H439 H 0.55772 0.18526 1.05286
 H440 H 0.55164 0.19253 1.14274
 H441 H 0.50625 0.11712 1.05332
 H442 H 0.43217 0.16967 1.13560
 H443 H 0.48343 0.23810 1.13479
 H444 H 0.43825 0.16332 1.04517
 C445 C -0.02738 0.59260 0.64252
 C446 C -0.02833 0.63666 0.65369
 C447 C 0.00722 0.64416 0.62270
 C448 C 0.00817 0.60043 0.61128
 C449 C 0.03776 0.64002 0.65900
 C450 C 0.00218 0.63204 0.69040
 C451 C 0.00313 0.58837 0.67875
 C452 C 0.03865 0.59597 0.64777
 H453 H -0.05418 0.57274 0.63614
 H454 H -0.05584 0.65380 0.65578
 H455 H 0.01074 0.58765 0.57843
 H456 H 0.06475 0.65938 0.66614
 H457 H -0.00039 0.64453 0.72337
 H458 H 0.06616 0.57881 0.64566
 C459 C 0.47509 0.79941 -0.09840
 C460 C 0.47249 0.84295 -0.08488
 C461 C 0.50259 0.85394 -0.12082
 C462 C 0.50507 0.81080 -0.13470
 C463 C 0.53836 0.85062 -0.09018
 C464 C 0.50838 0.83930 -0.05400
 C465 C 0.51097 0.79622 -0.06793
 C466 C 0.54097 0.80725 -0.10385
 H467 H 0.44912 0.77794 -0.10153
 H468 H 0.44415 0.85744 -0.07671
 H469 H 0.50358 0.79924 -0.16819
 H470 H 0.56441 0.87198 -0.08681
 H471 H 0.50983 0.85091 -0.02057
 H472 H 0.56931 0.79280 -0.11214
 C473 C 0.96590 0.40431 0.36015
 C474 C 0.96273 0.36021 0.34907
 C475 C 0.99640 0.35434 0.37829
 C476 C 1.00036 0.39585 0.39101
 C477 C 1.02695 0.35846 0.34410
 C478 C 0.99318 0.36609 0.31187
 C479 C 0.99723 0.40993 0.32387
 C480 C 1.03178 0.40251 0.35506
 H481 H 0.94015 0.42286 0.36768
 H482 H 0.93454 0.34141 0.34798
 H483 H 1.00340 0.40670 0.42470
 H484 H 1.05221 0.33909 0.33758
 H485 H 0.99007 0.35284 0.27920
 H486 H 1.06088 0.41963 0.35841
 C487 C 0.53351 0.83699 0.06977
 C488 C 0.49615 0.86202 0.07435
 C489 C 0.49893 0.86035 0.12121
 C490 C 0.53522 0.83727 0.11913
 C491 C 0.47150 0.82538 0.12295
 C492 C 0.46813 0.82473 0.07359
 C493 C 0.50560 0.79975 0.07033
 C494 C 0.50826 0.79936 0.11957
 H495 H 0.55958 0.84283 0.04807
 H496 H 0.49099 0.88909 0.05704
 H497 H 0.56251 0.84376 0.13900
 H498 H 0.44575 0.82071 0.14531
 H499 H 0.43952 0.82069 0.05540
 H500 H 0.51331 0.77384 0.13948
 C501 C -0.03558 0.42764 0.66746
 C502 C -0.00463 0.41307 0.63441
 C503 C -0.00405 0.37424 0.65761
 C504 C -0.03512 0.38845 0.69059
 C505 C 0.03108 0.39018 0.68598
 C506 C 0.03051 0.42926 0.66280
 C507 C -0.00042 0.44364 0.69564
 C508 C 0.00011 0.40508 0.71930
 H509 H -0.06293 0.44355 0.66004
 H510 H -0.00666 0.41619 0.59926
 H511 H -0.06218 0.37157 0.70214
 H512 H 0.05847 0.37435 0.69342
 H513 H 0.05753 0.44641 0.65153
 H514 H 0.00215 0.40215 0.75446
 C515 C 0.45923 0.18570 0.89322
 C516 C 0.49584 0.18016 0.86311
 C517 C 0.49821 0.13807 0.87806
 C518 C 0.46173 0.14336 0.90797
 C519 C 0.52745 0.15172 0.91419
 C520 C 0.52495 0.19424 0.89959
 C521 C 0.48837 0.19939 0.92933
 C522 C 0.49084 0.15737 0.94434
 H523 H 0.43102 0.19944 0.88413
 H524 H 0.49804 0.18934 0.82940
 H525 H 0.43571 0.12212 0.91140
 H526 H 0.55567 0.13794 0.92317
 H527 H 0.55089 0.21561 0.89640
 H528 H 0.48866 0.14813 0.97798
 C529 C 1.00931 0.59309 0.28206
 C530 C 0.97639 0.61000 0.31179
 C531 C 1.00965 0.62519 0.34302
 C532 C 1.04255 0.60893 0.31361
 C533 C 1.00633 0.58688 0.36733
 C534 C 0.97314 0.57135 0.33602
 C535 C 1.00604 0.55503 0.30676
 C536 C 1.03921 0.57032 0.33786
 H537 H 1.01060 0.59542 0.24675
 H538 H 0.95045 0.62628 0.30080
 H539 H 1.07112 0.62482 0.30454
 H540 H 1.00506 0.58453 0.40266
 H541 H 0.94461 0.55540 0.34508
 H542 H 1.06500 0.55358 0.34840
 C543 C 1.05974 0.48516 0.15429
 C544 C 1.08990 0.52085 0.15399
 C545 C 1.12323 0.49470 0.14574
 C546 C 1.09596 0.45964 0.14441
 C547 C 1.13176 0.49113 0.19152
 C548 C 1.09640 0.51744 0.20263
 C549 C 1.06732 0.48106 0.20251
 C550 C 1.10278 0.45464 0.19270
 H551 H 1.03008 0.48272 0.13785
 H552 H 1.08492 0.54845 0.13772
 H553 H 1.09703 0.43638 0.11910
 H554 H 1.16258 0.49409 0.20535
 H555 H 1.09729 0.54197 0.22653
 H556 H 1.10954 0.42684 0.20770
 C557 C 0.66113 -0.04356 0.57100
 C558 C 0.66943 -0.04535 0.61951
 C559 C 0.64318 -0.01007 0.62737
 C560 C 0.63461 -0.00825 0.57914
 C561 C 0.68041 0.01808 0.62279
 C562 C 0.70696 -0.01729 0.61456
 C563 C 0.69829 -0.01550 0.56641
 C564 C 0.67216 0.01984 0.57415
 H565 H 0.65344 -0.06891 0.54930
 H566 H 0.66815 -0.07219 0.63847
 H567 H 0.60457 -0.00450 0.56473
 H568 H 0.68877 0.04359 0.64397
 H569 H 0.73707 -0.02105 0.62880
 H570 H 0.67313 0.04687 0.55556
 C571 C -0.11515 0.51885 0.78876
 C572 C -0.12436 0.48133 0.81400
 C573 C -0.12673 0.50633 0.85549
 C574 C -0.11791 0.54375 0.83058
 C575 C -0.08137 0.50243 0.86350
 C576 C -0.07861 0.47752 0.82165
 C577 C -0.06986 0.51499 0.79689
 C578 C -0.07224 0.53990 0.83828
 H579 H -0.12868 0.52567 0.75762
 H580 H -0.14570 0.45712 0.80358
 H581 H -0.13442 0.57097 0.83450
 H582 H -0.06771 0.49560 0.89457
 H583 H -0.06247 0.45007 0.81788
 H584 H -0.05037 0.56398 0.84787
 C585 C 0.30677 -0.01541 0.39858
 C586 C 0.31630 0.01305 0.36192
 C587 C 0.36165 0.01094 0.37124
 C588 C 0.35251 -0.01763 0.40754
 C589 C 0.35995 0.04584 0.40302
 C590 C 0.31431 0.04805 0.39396
 C591 C 0.30516 0.01955 0.43020
 C592 C 0.35044 0.01736 0.43962
 H593 H 0.28447 -0.04053 0.39713
 H594 H 0.30243 0.01113 0.32966
 H595 H 0.36792 -0.04487 0.41356
 H596 H 0.38215 0.07103 0.40470
 H597 H 0.29873 0.07522 0.38801
 H598 H 0.36412 0.01925 0.47199
 C599 C 0.05850 0.51714 0.84851
 C600 C 0.08513 0.48142 0.85025
 C601 C 0.12227 0.50909 0.85902
 C602 C 0.09593 0.54467 0.85771
 C603 C 0.13104 0.51167 0.81083
 C604 C 0.09356 0.48414 0.80162
 C605 C 0.06742 0.51981 0.80040
 C606 C 0.10451 0.54738 0.80923
 H607 H 0.02825 0.51955 0.86351
 H608 H 0.07689 0.45411 0.86694
 H609 H 0.09710 0.56954 0.88118
 H610 H 0.16117 0.50925 0.79559
 H611 H 0.09214 0.45937 0.77804
 H612 H 0.11288 0.57470 0.79262
 C613 C 0.68700 -0.03797 0.38235
 C614 C 0.64155 -0.03598 0.39295
 C615 C 0.63980 0.00049 0.36575
 C616 C 0.68502 -0.00136 0.35501
 C617 C 0.64948 0.02699 0.40532
 C618 C 0.65164 -0.00964 0.43279
 C619 C 0.69680 -0.01160 0.42191
 C620 C 0.69514 0.02498 0.39494
 H621 H 0.70206 -0.06489 0.37225
 H622 H 0.61920 -0.06107 0.39201
 H623 H 0.69858 0.00219 0.32274
 H624 H 0.63419 0.05387 0.41505
 H625 H 0.63828 -0.01319 0.46517
 H626 H 0.71761 0.04997 0.39612
 C627 C 0.92329 0.45584 0.16699
 C628 C 0.87744 0.45250 0.17649
 C629 C 0.87187 0.48912 0.15043
 C630 C 0.91743 0.49251 0.14064
 C631 C 0.87778 0.51536 0.19083
 C632 C 0.88372 0.47864 0.21723
 C633 C 0.92920 0.48198 0.20732
 C634 C 0.92373 0.51867 0.18140
 H635 H 0.94244 0.43138 0.15754
 H636 H 0.85806 0.42530 0.17425
 H637 H 0.93107 0.49828 0.10881
 H638 H 0.85915 0.53996 0.20105
 H639 H 0.87022 0.47287 0.24913
 H640 H 0.94275 0.54609 0.18345
 C641 C 0.29785 0.01013 0.62211
 C642 C 0.32176 -0.02725 0.62575
 C643 C 0.36115 -0.00183 0.62986
 C644 C 0.33753 0.03544 0.62654
 C645 C 0.36721 -0.00364 0.58099
 C646 C 0.32745 -0.02896 0.57648
 C647 C 0.30400 0.00839 0.57332
 C648 C 0.34333 0.03369 0.57743
 H649 H 0.26899 0.01589 0.63876
 H650 H 0.31255 -0.05246 0.64554
 H651 H 0.34184 0.06194 0.64741
 H652 H 0.39602 -0.00938 0.56423
 H653 H 0.32322 -0.05559 0.55581
 H654 H 0.35190 0.05879 0.55718
   
