data_POSCAR
  _audit_creation_date              2014-09-24
  _audit_creation_method            'ToBaCCo'
  _symmetry_space_group_name_H-M    'P1'
  _symmetry_Int_Tables_number       1
  _symmetry_cell_setting            triclinic
  loop_
  _symmetry_equiv_pos_as_xyz
 x,y,z
_cell_length_a 37.7762
_cell_length_b 35.9511
_cell_length_c 35.9362
_cell_angle_alpha 89.898800
_cell_angle_beta 90.020800
_cell_angle_gamma 89.976900
loop_
  _atom_site_label
  _atom_site_type_symbol
  _atom_site_fract_x
  _atom_site_fract_y
  _atom_site_fract_z
C1 C 0.30435 0.30138 0.23544
 H2 H 0.30587 0.30203 0.26550
 C3 C 0.32723 0.32330 0.21420
 H4 H 0.34640 0.34105 0.22787
 C5 C 0.27779 0.27718 0.18077
 H6 H 0.25888 0.25879 0.16782
 C7 C 0.30019 0.29865 0.15850
 H8 H 0.29820 0.29701 0.12847
 N9 N 0.27994 0.27927 0.21854
 C10 C 0.19616 0.26409 0.30073
 H11 H 0.19462 0.23405 0.30144
 C12 C 0.17335 0.28531 0.32271
 H13 H 0.15422 0.27163 0.34054
 C14 C 0.22270 0.31875 0.27639
 H15 H 0.24158 0.33171 0.25793
 C16 C 0.20037 0.34100 0.29791
 H17 H 0.20238 0.37102 0.29623
 Zn18 Zn 0.25021 0.25015 0.24941
 N19 N 0.22053 0.28100 0.27854
 C20 C 0.27783 0.22316 0.31807
 N21 N 0.27993 0.22097 0.28031
 C22 C 0.30427 0.19876 0.26344
 C23 C 0.32714 0.17681 0.28473
 C24 C 0.30022 0.20169 0.34038
 C25 C 0.19607 0.23632 0.19812
 C26 C 0.17313 0.21514 0.17625
 C27 C 0.20007 0.15940 0.20112
 C28 C 0.22252 0.18161 0.22253
 N29 N 0.22044 0.21936 0.22031
 H30 H 0.25898 0.24164 0.33099
 H31 H 0.30576 0.19803 0.23339
 H32 H 0.34626 0.15898 0.27109
 H33 H 0.29827 0.20341 0.37041
 H34 H 0.19460 0.26637 0.19737
 H35 H 0.15399 0.22885 0.15844
 H36 H 0.20199 0.12938 0.20287
 H37 H 0.24140 0.16862 0.24099
 C38 C 0.17559 0.32411 0.32137
 C39 C 0.32502 0.32201 0.17539
 C40 C 0.17526 0.17633 0.17769
 C41 C 0.32498 0.17821 0.32354
 C42 C 0.80421 0.80208 0.23561
 H43 H 0.80570 0.80270 0.26567
 C44 C 0.82702 0.82417 0.21443
 H45 H 0.84607 0.84197 0.22825
 C46 C 0.77781 0.77785 0.18088
 H47 H 0.75900 0.75939 0.16787
 C48 C 0.80013 0.79946 0.15864
 H49 H 0.79810 0.79779 0.12861
 N50 N 0.77992 0.77990 0.21864
 C51 C 0.69607 0.76426 0.30071
 H52 H 0.69460 0.73421 0.30134
 C53 C 0.67319 0.78537 0.32273
 H54 H 0.65410 0.77160 0.34051
 C55 C 0.72249 0.81905 0.27651
 H56 H 0.74135 0.83211 0.25810
 C57 C 0.70010 0.84119 0.29807
 H58 H 0.70204 0.87122 0.29647
 Zn59 Zn 0.75023 0.75060 0.24942
 N60 N 0.72042 0.78129 0.27857
 C61 C 0.77777 0.72344 0.31805
 N62 N 0.77998 0.72143 0.28029
 C63 C 0.80439 0.69931 0.26339
 C64 C 0.82720 0.67727 0.28464
 C65 C 0.80010 0.70186 0.34033
 C66 C 0.69622 0.73668 0.19797
 C67 C 0.67344 0.71544 0.17597
 C68 C 0.70051 0.65977 0.20082
 C69 C 0.72281 0.68203 0.22236
 N70 N 0.72060 0.71978 0.22020
 H71 H 0.75887 0.74184 0.33100
 H72 H 0.80596 0.69872 0.23334
 H73 H 0.84635 0.65950 0.27098
 H74 H 0.79805 0.70342 0.37035
 H75 H 0.69464 0.76672 0.19727
 H76 H 0.65430 0.72911 0.15812
 H77 H 0.70255 0.62975 0.20252
 H78 H 0.74168 0.66907 0.24085
 C79 C 0.67535 0.82418 0.32148
 C80 C 0.82486 0.82294 0.17558
 C81 C 0.67572 0.67665 0.17733
 C82 C 0.82491 0.67846 0.32345
 C83 C 0.80531 0.29970 0.73682
 H84 H 0.80683 0.30045 0.76687
 C85 C 0.82812 0.32164 0.71551
 H86 H 0.84723 0.33950 0.72912
 C87 C 0.77878 0.27530 0.68223
 H88 H 0.75990 0.25684 0.66932
 C89 C 0.80111 0.29678 0.65989
 H90 H 0.79910 0.29508 0.62986
 N91 N 0.78093 0.27751 0.71998
 C92 C 0.69698 0.26283 0.80210
 H93 H 0.69540 0.23279 0.80298
 C94 C 0.67412 0.28421 0.82387
 H95 H 0.65493 0.27067 0.84172
 C96 C 0.72363 0.31730 0.77749
 H97 H 0.74256 0.33014 0.75899
 C98 C 0.70126 0.33971 0.79879
 H99 H 0.70330 0.36972 0.79692
 Zn100 Zn 0.75111 0.24854 0.75092
 N101 N 0.72143 0.27957 0.77987
 C102 C 0.77854 0.22167 0.81970
 N103 N 0.78071 0.21938 0.78196
 C104 C 0.80502 0.19705 0.76520
 C105 C 0.82780 0.17507 0.78656
 C106 C 0.80081 0.20018 0.84214
 C107 C 0.69702 0.23473 0.69959
 C108 C 0.67413 0.21358 0.67764
 C109 C 0.70094 0.15781 0.70258
 C110 C 0.72335 0.17999 0.72407
 N111 N 0.72133 0.21775 0.72184
 H112 H 0.75971 0.24024 0.83253
 H113 H 0.80656 0.19626 0.73515
 H114 H 0.84685 0.15719 0.77283
 H115 H 0.79868 0.20211 0.87217
 H116 H 0.69559 0.26478 0.69882
 H117 H 0.65506 0.22732 0.65977
 H118 H 0.70284 0.12778 0.70432
 H119 H 0.74218 0.16698 0.74257
 C120 C 0.67640 0.32300 0.82227
 C121 C 0.82588 0.32026 0.67670
 C122 C 0.67623 0.17478 0.67906
 C123 C 0.82559 0.17655 0.82542
 C124 C 0.30289 0.80193 0.73640
 H125 H 0.30441 0.80258 0.76645
 C126 C 0.32577 0.82387 0.71516
 H127 H 0.34492 0.84162 0.72883
 C128 C 0.27639 0.77768 0.68173
 H129 H 0.25752 0.75925 0.66876
 C130 C 0.29879 0.79916 0.65945
 H131 H 0.29682 0.79749 0.62943
 N132 N 0.27853 0.77978 0.71949
 C133 C 0.19491 0.76428 0.80186
 H134 H 0.19348 0.73424 0.80260
 C135 C 0.17206 0.78545 0.82385
 H136 H 0.15301 0.77172 0.84172
 C137 C 0.22121 0.81901 0.77738
 H138 H 0.24000 0.83203 0.75886
 C139 C 0.19884 0.84121 0.79890
 H140 H 0.20073 0.87123 0.79717
 Zn141 Zn 0.24890 0.75053 0.75037
 N142 N 0.21918 0.78126 0.77958
 C143 C 0.27673 0.72334 0.81889
 N144 N 0.27877 0.72138 0.78112
 C145 C 0.30317 0.69937 0.76408
 C146 C 0.32617 0.67741 0.78518
 C147 C 0.29924 0.70183 0.84104
 C148 C 0.19480 0.73655 0.69903
 C149 C 0.17203 0.71528 0.67706
 C150 C 0.19916 0.65964 0.70192
 C151 C 0.22145 0.68194 0.72343
 N152 N 0.21922 0.71968 0.72125
 H153 H 0.25782 0.74166 0.83196
 H154 H 0.30461 0.69881 0.73401
 H155 H 0.34533 0.65974 0.77140
 H156 H 0.29734 0.70336 0.87107
 H157 H 0.19321 0.76659 0.69831
 H158 H 0.15288 0.72891 0.65920
 H159 H 0.20124 0.62963 0.70362
 H160 H 0.24036 0.66901 0.74191
 C161 C 0.17415 0.82425 0.82243
 C162 C 0.32359 0.82254 0.67634
 C163 C 0.17435 0.67648 0.67843
 C164 C 0.32407 0.67857 0.82400
 Si165 Si -0.00125 0.00049 0.00047
 Si166 Si 0.00002 0.49960 0.49993
 Si167 Si 0.50025 -0.00012 0.50035
 Si168 Si 0.50075 0.50013 -0.00086
 C169 C 0.10882 -0.11147 -0.11260
 C170 C 0.08429 -0.08573 -0.13496
 C171 C 0.06288 -0.06427 -0.11329
 C172 C 0.06811 -0.07066 -0.07140
 C173 C 0.10773 -0.06415 -0.06456
 C174 C 0.12914 -0.08560 -0.08622
 C175 C 0.08408 -0.13405 -0.08733
 C176 C 0.06267 -0.11259 -0.06566
 C177 C 0.13194 -0.13452 -0.13588
 C178 C 0.15110 -0.15337 -0.15493
 C179 C 0.04516 -0.04753 -0.04804
 C180 C 0.02650 -0.02843 -0.02875
 H181 H 0.08377 -0.08447 -0.16514
 H182 H 0.04402 -0.04463 -0.12490
 H183 H 0.11807 -0.04441 -0.04447
 H184 H 0.15781 -0.08424 -0.08468
 H185 H 0.08342 -0.16423 -0.08652
 H186 H 0.04367 -0.12439 -0.04629
 C187 C 0.11035 0.38831 0.38649
 C188 C 0.08521 0.41348 0.36423
 C189 C 0.06379 0.43484 0.38598
 C190 C 0.06961 0.42893 0.42786
 C191 C 0.10923 0.43608 0.43410
 C192 C 0.13064 0.41473 0.41235
 C193 C 0.08621 0.36562 0.41232
 C194 C 0.06479 0.38698 0.43407
 C195 C 0.13347 0.36535 0.36313
 C196 C 0.15260 0.34652 0.34403
 C197 C 0.04664 0.45193 0.45130
 C198 C 0.02791 0.47091 0.47066
 H199 H 0.08431 0.41444 0.33405
 H200 H 0.04453 0.45409 0.37444
 H201 H 0.11955 0.45615 0.45385
 H202 H 0.15931 0.41651 0.41348
 H203 H 0.08596 0.33544 0.41342
 H204 H 0.04619 0.37510 0.45380
 C205 C 0.61012 -0.11178 0.38677
 C206 C 0.58475 -0.13444 0.41128
 C207 C 0.56339 -0.11307 0.43308
 C208 C 0.56949 -0.07113 0.42822
 C209 C 0.56486 -0.06385 0.38640
 C210 C 0.58623 -0.08522 0.36460
 C211 C 0.63048 -0.08674 0.41392
 C212 C 0.60912 -0.06538 0.43571
 C213 C 0.63319 -0.13473 0.36336
 C214 C 0.65232 -0.15351 0.34421
 C215 C 0.54660 -0.04808 0.45171
 C216 C 0.52796 -0.02903 0.47109
 H217 H 0.58366 -0.16462 0.41148
 H218 H 0.54399 -0.12493 0.45196
 H219 H 0.54642 -0.04370 0.37492
 H220 H 0.58609 -0.08338 0.33444
 H221 H 0.65915 -0.08587 0.41586
 H222 H 0.61949 -0.04620 0.45632
 C223 C 0.61102 0.38780 -0.11335
 C224 C 0.58603 0.36537 -0.08821
 C225 C 0.56459 0.38695 -0.06670
 C226 C 0.57025 0.42885 -0.07245
 C227 C 0.56529 0.43523 -0.11438
 C228 C 0.58673 0.41364 -0.13589
 C229 C 0.63129 0.41360 -0.08686
 C230 C 0.60986 0.43518 -0.06536
 C231 C 0.63417 0.36460 -0.13644
 C232 C 0.65334 0.34559 -0.15531
 C233 C 0.54726 0.45210 -0.04924
 C234 C 0.52856 0.47124 -0.03003
 H235 H 0.58523 0.33519 -0.08738
 H236 H 0.54542 0.37527 -0.04745
 H237 H 0.54658 0.45495 -0.12614
 H238 H 0.58639 0.41487 -0.16607
 H239 H 0.65996 0.41483 -0.08514
 H240 H 0.62017 0.45489 -0.04522
 C241 C -0.11134 0.11366 -0.11187
 C242 C -0.08761 0.08727 -0.13432
 C243 C -0.06622 0.06559 -0.11275
 C244 C -0.07067 0.07243 -0.07086
 C245 C -0.11028 0.06673 -0.06327
 C246 C -0.13166 0.08840 -0.08483
 C247 C -0.08581 0.13598 -0.08729
 C248 C -0.06442 0.11430 -0.06573
 C249 C -0.13442 0.13694 -0.13505
 C250 C -0.15355 0.15599 -0.15405
 C251 C -0.04774 0.04906 -0.04763
 C252 C -0.02905 0.02975 -0.02847
 H253 H -0.08760 0.08575 -0.16449
 H254 H -0.04789 0.04550 -0.12445
 H255 H -0.12063 0.04738 -0.04276
 H256 H -0.16033 0.08762 -0.08279
 H257 H -0.08462 0.16615 -0.08687
 H258 H -0.04491 0.12590 -0.04683
 C259 C -0.11001 0.61313 0.38791
 C260 C -0.08571 0.58743 0.36535
 C261 C -0.06437 0.56562 0.38684
 C262 C -0.06943 0.57167 0.42878
 C263 C -0.10907 0.56536 0.43569
 C264 C -0.13041 0.58716 0.41421
 C265 C -0.08505 0.63531 0.41324
 C266 C -0.06371 0.61351 0.43473
 C267 C -0.13305 0.63655 0.36482
 C268 C -0.15213 0.65571 0.34592
 C269 C -0.04654 0.54818 0.45194
 C270 C -0.02786 0.52883 0.47104
 H271 H -0.08528 0.58644 0.33516
 H272 H -0.04566 0.54596 0.37506
 H273 H -0.11947 0.54552 0.45570
 H274 H -0.15908 0.58599 0.41582
 H275 H -0.08420 0.66548 0.41421
 H276 H -0.04458 0.62500 0.45412
 C277 C 0.39031 0.11329 0.38812
 C278 C 0.41447 0.08738 0.36562
 C279 C 0.43587 0.06569 0.38716
 C280 C 0.43101 0.07204 0.42908
 C281 C 0.39139 0.06587 0.43624
 C282 C 0.36999 0.08755 0.41471
 C283 C 0.41543 0.13560 0.41317
 C284 C 0.43683 0.11391 0.43471
 C285 C 0.36720 0.13657 0.36498
 C286 C 0.34804 0.15561 0.34604
 C287 C 0.45394 0.04865 0.45229
 C288 C 0.47258 0.02928 0.47142
 H289 H 0.41475 0.08618 0.33544
 H290 H 0.45449 0.04591 0.37543
 H291 H 0.38104 0.04620 0.45644
 H292 H 0.34132 0.08645 0.41647
 H293 H 0.41634 0.16578 0.41391
 H294 H 0.45608 0.12550 0.45391
 C295 C 0.38989 0.61350 -0.11211
 C296 C 0.37040 0.59277 -0.08086
 C297 C 0.39198 0.57103 -0.05960
 C298 C 0.43095 0.57215 -0.07166
 C299 C 0.44101 0.61351 -0.07119
 C300 C 0.41942 0.63526 -0.09246
 C301 C 0.40907 0.58306 -0.13422
 C302 C 0.43065 0.56132 -0.11295
 C303 C 0.36658 0.63685 -0.13497
 C304 C 0.34727 0.65593 -0.15370
 C305 C 0.45408 0.54871 -0.04871
 C306 C 0.47287 0.52937 -0.02972
 H307 H 0.34214 0.59497 -0.07588
 H308 H 0.38221 0.55461 -0.03640
 H309 H 0.46314 0.62473 -0.05553
 H310 H 0.42305 0.66511 -0.09503
 H311 H 0.40597 0.57896 -0.16397
 H312 H 0.44606 0.53858 -0.12447
 C313 C -0.11120 -0.11296 0.11249
 C314 C -0.13154 -0.08760 0.08553
 C315 C -0.11018 -0.06583 0.06408
 C316 C -0.07057 -0.07154 0.07170
 C317 C -0.06426 -0.11339 0.06640
 C318 C -0.08563 -0.13516 0.08785
 C319 C -0.08751 -0.08665 0.13507
 C320 C -0.06615 -0.06487 0.11362
 C321 C -0.13427 -0.13636 0.13553
 C322 C -0.15339 -0.15551 0.15439
 C323 C -0.04766 -0.04808 0.04856
 C324 C -0.02901 -0.02873 0.02944
 H325 H -0.16021 -0.08682 0.08345
 H326 H -0.12055 -0.04640 0.04364
 H327 H -0.04473 -0.12489 0.04748
 H328 H -0.08440 -0.16533 0.08731
 H329 H -0.08751 -0.08525 0.16525
 H330 H -0.04784 -0.04482 0.12542
 C331 C -0.10928 0.38560 0.61209
 C332 C -0.08516 0.41153 0.63460
 C333 C -0.06394 0.43339 0.61306
 C334 C -0.06892 0.42716 0.57114
 C335 C -0.10859 0.43319 0.56413
 C336 C -0.12981 0.41134 0.58565
 C337 C -0.08414 0.36347 0.58688
 C338 C -0.06292 0.38533 0.56535
 C339 C -0.13220 0.36213 0.63523
 C340 C -0.15121 0.34298 0.65418
 C341 C -0.04617 0.45072 0.54794
 C342 C -0.02762 0.47017 0.52882
 H343 H -0.08477 0.41263 0.66478
 H344 H -0.04537 0.45321 0.62480
 H345 H -0.11910 0.45288 0.54402
 H346 H -0.15849 0.41232 0.58398
 H347 H -0.08310 0.33331 0.58603
 H348 H -0.04370 0.37389 0.54605
 C349 C 0.38929 -0.11280 0.61202
 C350 C 0.41319 -0.08674 0.63464
 C351 C 0.43478 -0.06516 0.61322
 C352 C 0.43034 -0.07178 0.57129
 C353 C 0.39078 -0.06567 0.56363
 C354 C 0.36921 -0.08723 0.58504
 C355 C 0.41469 -0.13525 0.58740
 C356 C 0.43627 -0.11368 0.56598
 C357 C 0.36600 -0.13597 0.63504
 C358 C 0.34673 -0.15493 0.65390
 C359 C 0.45348 -0.04852 0.54821
 C360 C 0.47230 -0.02929 0.52916
 H361 H 0.41317 -0.08535 0.66482
 H362 H 0.45325 -0.04530 0.62505
 H363 H 0.38061 -0.04612 0.54319
 H364 H 0.34055 -0.08617 0.58294
 H365 H 0.41564 -0.16543 0.58684
 H366 H 0.45572 -0.12537 0.54708
 C367 C 0.39046 0.38693 0.11103
 C368 C 0.37022 0.41361 0.08530
 C369 C 0.39167 0.43529 0.06387
 C370 C 0.43127 0.42817 0.07026
 C371 C 0.43626 0.38631 0.06370
 C372 C 0.41480 0.36463 0.08513
 C373 C 0.41542 0.41188 0.13366
 C374 C 0.43688 0.43357 0.11222
 C375 C 0.36729 0.36364 0.13407
 C376 C 0.34810 0.34460 0.15294
 C377 C 0.45428 0.45155 0.04715
 C378 C 0.47298 0.47087 0.02807
 H379 H 0.34155 0.41533 0.08402
 H380 H 0.38138 0.45558 0.04423
 H381 H 0.45500 0.37473 0.04395
 H382 H 0.41515 0.33446 0.08376
 H383 H 0.41617 0.41246 0.16385
 H384 H 0.45602 0.45272 0.12404
 C385 C 0.10955 0.11213 0.11308
 C386 C 0.08505 0.08649 0.13555
 C387 C 0.06349 0.06509 0.11399
 C388 C 0.06854 0.07144 0.07208
 C389 C 0.10812 0.06478 0.06506
 C390 C 0.12967 0.08617 0.08662
 C391 C 0.08474 0.13478 0.08790
 C392 C 0.06318 0.11339 0.06634
 C393 C 0.13282 0.13512 0.13624
 C394 C 0.15210 0.15395 0.15518
 C395 C 0.04543 0.04838 0.04882
 C396 C 0.02664 0.02934 0.02960
 H397 H 0.08467 0.08525 0.16574
 H398 H 0.04464 0.04553 0.12570
 H399 H 0.11832 0.04501 0.04494
 H400 H 0.15834 0.08471 0.08496
 H401 H 0.08415 0.16497 0.08708
 H402 H 0.04411 0.12524 0.04705
 C403 C 0.10945 0.61191 0.61331
 C404 C 0.08515 0.58588 0.63558
 C405 C 0.06390 0.56433 0.61384
 C406 C 0.06903 0.57092 0.57197
 C407 C 0.10870 0.56475 0.56509
 C408 C 0.12995 0.58630 0.58682
 C409 C 0.08449 0.63438 0.58813
 C410 C 0.06324 0.61282 0.56639
 C411 C 0.13240 0.63506 0.63666
 C412 C 0.15144 0.65400 0.65575
 C413 C 0.04625 0.54769 0.54854
 C414 C 0.02768 0.52854 0.52920
 H415 H 0.08467 0.58451 0.66576
 H416 H 0.04521 0.54449 0.62539
 H417 H 0.11918 0.54518 0.54492
 H418 H 0.15863 0.58518 0.58527
 H419 H 0.08359 0.66455 0.58744
 H420 H 0.04412 0.62453 0.54707
 C421 C 0.61077 0.11081 0.61394
 C422 C 0.63039 0.07967 0.59329
 C423 C 0.60891 0.05841 0.57152
 C424 C 0.56991 0.07038 0.57253
 C425 C 0.57012 0.11168 0.56164
 C426 C 0.59160 0.13294 0.58341
 C427 C 0.58125 0.09106 0.63566
 C428 C 0.55976 0.06980 0.61389
 C429 C 0.63396 0.13368 0.63732
 C430 C 0.65316 0.15243 0.65641
 C431 C 0.54688 0.04746 0.54905
 C432 C 0.52813 0.02854 0.52967
 H433 H 0.65866 0.07474 0.59557
 H434 H 0.61879 0.03527 0.55515
 H435 H 0.55474 0.12321 0.53884
 H436 H 0.59463 0.16270 0.57927
 H437 H 0.57754 0.09356 0.66551
 H438 H 0.53765 0.05408 0.62508
 C439 C 0.61062 0.61220 0.11230
 C440 C 0.58415 0.58864 0.13458
 C441 C 0.56281 0.56713 0.11288
 C442 C 0.57003 0.57130 0.07105
 C443 C 0.60960 0.56275 0.06645
 C444 C 0.63094 0.58424 0.08813
 C445 C 0.58789 0.63463 0.08485
 C446 C 0.56655 0.61313 0.06316
 C447 C 0.63366 0.63530 0.13560
 C448 C 0.65276 0.65420 0.15467
 C449 C 0.54715 0.54813 0.04767
 C450 C 0.52851 0.52902 0.02836
 H451 H 0.58233 0.58883 0.16472
 H452 H 0.54271 0.54890 0.12444
 H453 H 0.61995 0.54165 0.04780
 H454 H 0.65956 0.58156 0.08806
 H455 H 0.58850 0.66475 0.08265
 H456 H 0.54887 0.62482 0.04237
   
