data_POSCAR
  _audit_creation_date              2014-09-24
  _audit_creation_method            'ToBaCCo'
  _symmetry_space_group_name_H-M    'P1'
  _symmetry_Int_Tables_number       1
  _symmetry_cell_setting            triclinic
  loop_
  _symmetry_equiv_pos_as_xyz
 x,y,z
_cell_length_a 38.7990
_cell_length_b 45.2368
_cell_length_c 39.7168
_cell_angle_alpha 89.945700
_cell_angle_beta 89.986000
_cell_angle_gamma 90.063300
loop_
  _atom_site_label
  _atom_site_type_symbol
  _atom_site_fract_x
  _atom_site_fract_y
  _atom_site_fract_z
C1 C 1.20283 0.26174 0.30219
 H2 H 1.20104 0.23792 0.30393
 C3 C 1.18260 0.27951 0.32315
 H4 H 1.16508 0.26939 0.34102
 C5 C 1.22795 0.30417 0.27702
 H6 H 1.24596 0.31378 0.25943
 C7 C 1.20826 0.32269 0.29748
 H8 H 1.21094 0.34646 0.29525
 N9 N 1.22453 0.27428 0.27931
 C10 C 1.23806 0.20913 0.19935
 H11 H 1.26589 0.20903 0.19766
 C12 C 1.21860 0.19108 0.17811
 H13 H 1.23144 0.17693 0.16005
 C14 C 1.18726 0.22752 0.22512
 H15 H 1.17512 0.24191 0.24324
 C16 C 1.16682 0.20979 0.20433
 H17 H 1.13902 0.21035 0.20677
 Zn18 Zn 1.25110 0.24925 0.25113
 N19 N 1.22225 0.22644 0.22271
 C20 C 1.27416 0.19417 0.27673
 N21 N 1.27768 0.22404 0.27913
 C22 C 1.29941 0.23641 0.30206
 C23 C 1.31955 0.21852 0.32298
 C24 C 1.29373 0.17548 0.29713
 C25 C 1.26397 0.28965 0.19954
 C26 C 1.28332 0.30787 0.17836
 C27 C 1.33521 0.28920 0.20442
 C28 C 1.31487 0.27129 0.22515
 N29 N 1.27987 0.27226 0.22279
 H30 H 1.25612 0.18469 0.25910
 H31 H 1.30126 0.26022 0.30388
 H32 H 1.33703 0.22865 0.34088
 H33 H 1.29083 0.15173 0.29471
 H34 H 1.23613 0.28967 0.19789
 H35 H 1.27040 0.32208 0.16039
 H36 H 1.36302 0.28873 0.20682
 H37 H 1.32709 0.25684 0.24319
 C38 C 1.18268 0.19123 0.18083
 C39 C 1.18523 0.31027 0.32058
 C40 C 1.31924 0.30784 0.18104
 C41 C 1.31681 0.18773 0.32035
 C42 C 0.70206 -0.23767 0.30112
 H43 H 0.70045 -0.26150 0.30286
 C44 C 0.68177 -0.22000 0.32210
 H45 H 0.66436 -0.23020 0.34001
 C46 C 0.72685 -0.19512 0.27587
 H47 H 0.74477 -0.18544 0.25823
 C48 C 0.70709 -0.17670 0.29636
 H49 H 0.70961 -0.15292 0.29412
 N50 N 0.72364 -0.22502 0.27820
 C51 C 0.73743 -0.29023 0.19850
 H52 H 0.76527 -0.29036 0.19691
 C53 C 0.71802 -0.30826 0.17722
 H54 H 0.73088 -0.32246 0.15923
 C55 C 0.68657 -0.27171 0.22405
 H56 H 0.67440 -0.25726 0.24208
 C57 C 0.66617 -0.28942 0.20322
 H58 H 0.63836 -0.28881 0.20555
 Zn59 Zn 0.75028 -0.24999 0.25013
 N60 N 0.72156 -0.27286 0.22176
 C61 C 0.77356 -0.30491 0.27596
 N62 N 0.77685 -0.27501 0.27826
 C63 C 0.79838 -0.26243 0.30122
 C64 C 0.81853 -0.28015 0.32230
 C65 C 0.79318 -0.32338 0.29654
 C66 C 0.76319 -0.20970 0.19850
 C67 C 0.78260 -0.19161 0.17724
 C68 C 0.83444 -0.21036 0.20335
 C69 C 0.81403 -0.22813 0.22416
 N70 N 0.77905 -0.22705 0.22181
 H71 H 0.75567 -0.31455 0.25829
 H72 H 0.80005 -0.23860 0.30294
 H73 H 0.83589 -0.27000 0.34026
 H74 H 0.79059 -0.34716 0.29435
 H75 H 0.73536 -0.20961 0.19685
 H76 H 0.76974 -0.17742 0.15921
 H77 H 0.86224 -0.21091 0.20574
 H78 H 0.82620 -0.24257 0.24224
 C79 C 0.68209 -0.30802 0.17982
 C80 C 0.68421 -0.18923 0.31951
 C81 C 0.81852 -0.19177 0.17990
 C82 C 0.81600 -0.31091 0.31976
 C83 C 0.70228 0.26319 -0.20034
 H84 H 0.70058 0.23936 -0.19857
 C85 C 0.68218 0.28093 -0.17925
 H86 H 0.66482 0.27079 -0.16125
 C87 C 0.72714 0.30564 -0.22570
 H88 H 0.74502 0.31528 -0.24341
 C89 C 0.70757 0.32414 -0.20511
 H90 H 0.71020 0.34791 -0.20734
 N91 N 0.72382 0.27574 -0.22336
 C92 C 0.73729 0.21034 -0.30314
 H93 H 0.76511 0.21030 -0.30495
 C94 C 0.71780 0.19208 -0.32412
 H95 H 0.73060 0.17784 -0.34211
 C96 C 0.68655 0.22872 -0.27728
 H97 H 0.67443 0.24318 -0.25920
 C98 C 0.66607 0.21079 -0.29781
 H99 H 0.63828 0.21126 -0.29522
 Zn100 Zn 0.75039 0.25070 -0.25154
 N101 N 0.72153 0.22775 -0.27984
 C102 C 0.77361 0.19570 -0.22572
 N103 N 0.77701 0.22559 -0.22342
 C104 C 0.79861 0.23808 -0.20045
 C105 C 0.81869 0.22028 -0.17937
 C106 C 0.79315 0.17714 -0.20514
 C107 C 0.76336 0.29112 -0.30318
 C108 C 0.78276 0.30942 -0.32425
 C109 C 0.83460 0.29070 -0.29803
 C110 C 0.81417 0.27274 -0.27744
 N111 N 0.77919 0.27370 -0.27991
 H112 H 0.75567 0.18611 -0.24339
 H113 H 0.80038 0.26190 -0.19870
 H114 H 0.83608 0.23036 -0.16140
 H115 H 0.79044 0.15338 -0.20735
 H116 H 0.73553 0.29113 -0.30491
 H117 H 0.76974 0.32362 -0.34219
 H118 H 0.86241 0.29014 -0.29541
 H119 H 0.82632 0.25827 -0.25939
 C120 C 0.68189 0.19211 -0.32121
 C121 C 0.68475 0.31170 -0.18182
 C122 C 0.81873 0.30944 -0.32145
 C123 C 0.81602 0.18951 -0.18190
 C124 C 1.20170 -0.23764 -0.19893
 H125 H 1.20007 -0.26147 -0.19716
 C126 C 1.18161 -0.21995 -0.17781
 H127 H 1.16432 -0.23011 -0.15976
 C128 C 1.22639 -0.19514 -0.22438
 H129 H 1.24420 -0.18549 -0.24214
 C130 C 1.20682 -0.17668 -0.20376
 H131 H 1.20937 -0.15291 -0.20601
 N132 N 1.22313 -0.22503 -0.22200
 C133 C 1.23648 -0.29042 -0.30151
 H134 H 1.26431 -0.29059 -0.30320
 C135 C 1.21695 -0.30849 -0.32264
 H136 H 1.22973 -0.32276 -0.34062
 C137 C 1.18575 -0.27176 -0.27584
 H138 H 1.17368 -0.25723 -0.25782
 C139 C 1.16524 -0.28951 -0.29652
 H140 H 1.13744 -0.28886 -0.29408
 Zn141 Zn 1.24959 -0.25007 -0.25009
 N142 N 1.22073 -0.27296 -0.27826
 C143 C 1.27288 -0.30492 -0.22411
 N144 N 1.27617 -0.27501 -0.22195
 C145 C 1.29770 -0.26234 -0.19906
 C146 C 1.31786 -0.27996 -0.17790
 C147 C 1.29251 -0.32331 -0.20345
 C148 C 1.26248 -0.20989 -0.30184
 C149 C 1.28191 -0.19187 -0.32316
 C150 C 1.33373 -0.21076 -0.29715
 C151 C 1.31331 -0.22845 -0.27627
 N152 N 1.27833 -0.22727 -0.27854
 H153 H 1.25499 -0.31462 -0.24173
 H154 H 1.29935 -0.23850 -0.19746
 H155 H 1.33523 -0.26974 -0.16000
 H156 H 1.28994 -0.34709 -0.20553
 H157 H 1.23464 -0.20973 -0.30341
 H158 H 1.26906 -0.17766 -0.34117
 H159 H 1.36154 -0.21138 -0.29482
 H160 H 1.32547 -0.24291 -0.25821
 C161 C 1.18104 -0.30820 -0.31990
 C162 C 1.18411 -0.18919 -0.18043
 C163 C 1.31783 -0.19213 -0.32057
 C164 C 1.31533 -0.31073 -0.18029
 C165 C 0.26266 0.20933 0.69866
 H166 H 0.23482 0.20920 0.69712
 C167 C 0.28200 0.19133 0.67732
 H168 H 0.26906 0.17715 0.65933
 C169 C 0.31360 0.22780 0.72416
 H170 H 0.32584 0.24222 0.74221
 C171 C 0.33392 0.21012 0.70326
 H172 H 0.36174 0.21071 0.70555
 N173 N 0.27861 0.22667 0.72193
 C174 C 0.20196 0.23690 0.80158
 H175 H 0.20034 0.26073 0.80335
 C176 C 0.18180 0.21915 0.82266
 H177 H 0.16449 0.22934 0.84065
 C178 C 0.22668 0.19448 0.77619
 H179 H 0.24452 0.18489 0.75846
 C180 C 0.20705 0.17595 0.79676
 H181 H 0.20966 0.15218 0.79444
 Zn182 Zn 0.24994 0.24947 0.75040
 N183 N 0.22343 0.22437 0.77856
 C184 C 0.18609 0.27117 0.72463
 N185 N 0.22107 0.27236 0.72218
 C186 C 0.23684 0.28982 0.69887
 C187 C 0.21733 0.30790 0.67773
 C188 C 0.16560 0.28892 0.70394
 C189 C 0.29823 0.26194 0.80133
 C190 C 0.31838 0.27967 0.82240
 C191 C 0.29281 0.32289 0.79681
 C192 C 0.27319 0.30439 0.77624
 N193 N 0.27658 0.27450 0.77846
 H194 H 0.17399 0.25665 0.74270
 H195 H 0.26467 0.29000 0.69715
 H196 H 0.23013 0.32217 0.65970
 H197 H 0.13781 0.28827 0.70641
 H198 H 0.29997 0.23811 0.80300
 H199 H 0.33583 0.26954 0.84029
 H200 H 0.29013 0.34665 0.79468
 H201 H 0.25522 0.31402 0.75865
 C202 C 0.18425 0.18837 0.82006
 C203 C 0.31793 0.19154 0.67985
 C204 C 0.31573 0.31043 0.81995
 C205 C 0.18142 0.30762 0.68050
 C206 C 0.76224 0.70942 0.69828
 H207 H 0.73442 0.70933 0.69655
 C208 C 0.78168 0.69122 0.67722
 H209 H 0.76883 0.67697 0.65925
 C210 C 0.81305 0.72789 0.72400
 H211 H 0.82521 0.74237 0.74205
 C212 C 0.83347 0.71002 0.70339
 H213 H 0.86127 0.71055 0.70589
 N214 N 0.77806 0.72684 0.72154
 C215 C 0.70102 0.73713 0.80095
 H216 H 0.69929 0.76095 0.80269
 C217 C 0.68084 0.71933 0.82198
 H218 H 0.66343 0.72948 0.83990
 C219 C 0.72600 0.69476 0.77571
 H220 H 0.74395 0.68520 0.75807
 C221 C 0.70636 0.67618 0.79624
 H222 H 0.70909 0.65242 0.79395
 Zn223 Zn 0.74926 0.74976 0.74987
 N224 N 0.72264 0.72465 0.77801
 C225 C 0.68550 0.77164 0.72395
 N226 N 0.72048 0.77267 0.72149
 C227 C 0.73633 0.79007 0.69817
 C228 C 0.71692 0.80826 0.67705
 C229 C 0.66510 0.78950 0.70327
 C230 C 0.79749 0.76237 0.80091
 C231 C 0.81771 0.78018 0.82187
 C232 C 0.79227 0.82331 0.79601
 C233 C 0.77259 0.80476 0.77556
 N234 N 0.77589 0.77487 0.77795
 H235 H 0.67332 0.75718 0.74203
 H236 H 0.76416 0.79015 0.69644
 H237 H 0.72979 0.82249 0.65903
 H238 H 0.63730 0.78899 0.70577
 H239 H 0.79918 0.73855 0.80273
 H240 H 0.83512 0.77009 0.83982
 H241 H 0.78966 0.84707 0.79372
 H242 H 0.75466 0.81434 0.75789
 C243 C 0.68342 0.68854 0.81945
 C244 C 0.81760 0.69133 0.68002
 C245 C 0.81517 0.81093 0.81922
 C246 C 0.68100 0.80817 0.67984
 C247 C 0.76318 0.20985 0.19764
 H248 H 0.73535 0.20966 0.19596
 C249 C 0.78267 0.19185 0.17643
 H250 H 0.76987 0.17763 0.15839
 C251 C 0.81394 0.22844 0.22337
 H252 H 0.82605 0.24291 0.24145
 C253 C 0.83442 0.21077 0.20261
 H254 H 0.86222 0.21143 0.20504
 N255 N 0.77896 0.22723 0.22097
 C256 C 0.70202 0.23759 0.30025
 H257 H 0.70048 0.26142 0.30199
 C258 C 0.68176 0.21991 0.32130
 H259 H 0.66443 0.23008 0.33927
 C260 C 0.72664 0.19508 0.27496
 H261 H 0.74450 0.18543 0.25728
 C262 C 0.70691 0.17663 0.29552
 H263 H 0.70937 0.15286 0.29330
 Zn264 Zn 0.75016 0.25002 0.24926
 N265 N 0.72350 0.22498 0.27729
 C266 C 0.68648 0.27167 0.22321
 N267 N 0.72147 0.27292 0.22093
 C268 C 0.73733 0.29040 0.19772
 C269 C 0.71791 0.30847 0.17649
 C270 C 0.66608 0.28941 0.20243
 C271 C 0.79809 0.26227 0.30045
 C272 C 0.81825 0.27988 0.32163
 C273 C 0.79317 0.32324 0.29589
 C274 C 0.77354 0.30486 0.27520
 N275 N 0.77670 0.27496 0.27745
 H276 H 0.67431 0.25712 0.24120
 H277 H 0.76517 0.29061 0.19612
 H278 H 0.73077 0.32278 0.15854
 H279 H 0.63827 0.28873 0.20477
 H280 H 0.79965 0.23843 0.30212
 H281 H 0.83550 0.26965 0.33962
 H282 H 0.79070 0.34702 0.29374
 H283 H 0.75575 0.31458 0.25749
 C284 C 0.68414 0.18915 0.31873
 C285 C 0.81859 0.19215 0.17915
 C286 C 0.81585 0.31065 0.31915
 C287 C 0.68199 0.30815 0.17909
 C288 C 0.26379 0.71047 0.19911
 H289 H 0.23596 0.71048 0.19743
 C290 C 0.28309 0.69222 0.17799
 H291 H 0.27013 0.67804 0.16002
 C292 C 0.31472 0.72873 0.22479
 H293 H 0.32698 0.74312 0.24285
 C294 C 0.33502 0.71079 0.20411
 H295 H 0.36283 0.71121 0.20656
 N296 N 0.27973 0.72781 0.22238
 C297 C 0.20275 0.73805 0.30190
 H298 H 0.20097 0.76187 0.30365
 C299 C 0.18259 0.72020 0.32290
 H300 H 0.16512 0.73024 0.34081
 C301 C 0.22783 0.69573 0.27665
 H302 H 0.24580 0.68620 0.25901
 C303 C 0.20820 0.67713 0.29715
 H304 H 0.21090 0.65337 0.29490
 Zn305 Zn 0.25099 0.75076 0.25076
 N306 N 0.22442 0.72562 0.27896
 C307 C 0.18713 0.77258 0.22489
 N308 N 0.22212 0.77364 0.22239
 C309 C 0.23791 0.79105 0.19905
 C310 C 0.21845 0.80920 0.17792
 C311 C 0.16669 0.79040 0.20421
 C312 C 0.29934 0.76358 0.30173
 C313 C 0.31940 0.78147 0.32274
 C314 C 0.29353 0.82451 0.29695
 C315 C 0.27404 0.80583 0.27647
 N316 N 0.27760 0.77596 0.27880
 H317 H 0.17500 0.75812 0.24300
 H318 H 0.26574 0.79116 0.19729
 H319 H 0.23128 0.82342 0.15988
 H320 H 0.13889 0.78985 0.20673
 H321 H 0.30122 0.73977 0.30351
 H322 H 0.33687 0.77134 0.34064
 H323 H 0.29057 0.84826 0.29459
 H324 H 0.25600 0.81531 0.25884
 C325 C 0.18524 0.68944 0.32032
 C326 C 0.31901 0.69219 0.18072
 C327 C 0.31659 0.81227 0.32019
 C328 C 0.18253 0.80907 0.18074
 N329 N 1.06127 0.03138 0.03638
 N330 N 1.08406 0.05245 0.04219
 N331 N 1.03722 -0.03080 0.05974
 N332 N 1.04301 -0.05184 0.08207
 N333 N 1.06121 -0.03080 0.03643
 N334 N 1.08399 -0.05185 0.04229
 N335 N 1.03728 0.03135 0.05969
 N336 N 1.04307 0.05240 0.08196
 C337 C 1.07225 0.06553 0.07061
 C338 C 1.07217 -0.06494 0.07075
 N339 N 0.93907 -0.03080 0.03627
 N340 N 0.91642 -0.05204 0.04191
 N341 N 0.96308 0.03133 0.05955
 N342 N 0.95747 0.05257 0.08162
 N343 N 0.93915 0.03135 0.03619
 N344 N 0.91659 0.05261 0.04175
 N345 N 0.96302 -0.03079 0.05961
 N346 N 0.95734 -0.05201 0.08174
 Mn347 Mn 1.00014 0.00027 0.06000
 C348 C 0.92828 -0.06521 0.07028
 C349 C 0.92847 0.06579 0.07009
 N350 N 1.06123 -0.03076 -0.03612
 N351 N 1.08391 -0.05192 -0.04171
 N352 N 1.03743 0.03139 -0.05958
 N353 N 1.04336 0.05248 -0.08183
 N354 N 1.06132 0.03138 -0.03618
 N355 N 1.08414 0.05245 -0.04188
 N356 N 1.03733 -0.03076 -0.05951
 N357 N 1.04310 -0.05193 -0.08164
 Mn358 Mn 1.06164 0.00030 0.00012
 C359 C 1.07215 -0.06507 -0.07010
 C360 C 1.07249 0.06558 -0.07035
 N361 N 0.93915 0.03139 -0.03636
 N362 N 0.91631 0.05238 -0.04222
 N363 N 0.96303 -0.03079 -0.05965
 N364 N 0.95709 -0.05182 -0.08193
 N365 N 0.93908 -0.03078 -0.03629
 N366 N 0.91622 -0.05181 -0.04204
 N367 N 0.96312 0.03140 -0.05971
 N368 N 0.95722 0.05241 -0.08206
 Mn369 Mn 0.93873 0.00029 -0.00004
 Mn370 Mn 1.00023 0.00031 -0.05999
 Cl371 Cl 1.00019 0.00029 0.00001
 C372 C 0.92804 0.06546 -0.07071
 C373 C 0.92790 -0.06490 -0.07050
 N374 N 1.06084 0.53061 0.53719
 N375 N 1.08338 0.55191 0.54281
 N376 N 1.03683 0.46841 0.56042
 N377 N 1.04244 0.44718 0.58255
 N378 N 1.06085 0.46846 0.53714
 N379 N 1.08347 0.44726 0.54282
 N380 N 1.03683 0.53054 0.56047
 N381 N 1.04236 0.55179 0.58256
 C382 C 1.07140 0.56506 0.57111
 C383 C 1.07153 0.43404 0.57115
 N384 N 0.93872 0.46834 0.53690
 N385 N 0.91590 0.44725 0.54262
 N386 N 0.96263 0.53049 0.56035
 N387 N 0.95682 0.55158 0.58256
 N388 N 0.93874 0.53052 0.53695
 N389 N 0.91603 0.55164 0.54262
 N390 N 0.96261 0.46833 0.56029
 N391 N 0.95671 0.44724 0.58255
 Mn392 Mn 0.99973 0.49944 0.56074
 C393 C 0.92758 0.43413 0.57109
 C394 C 0.92776 0.56474 0.57107
 N395 N 1.06113 0.46857 0.46460
 N396 N 1.08396 0.44754 0.45893
 N397 N 1.03730 0.53077 0.44121
 N398 N 1.04332 0.55184 0.41894
 N399 N 1.06115 0.53074 0.46464
 N400 N 1.08403 0.55178 0.45895
 N401 N 1.03730 0.46858 0.44115
 N402 N 1.04327 0.44754 0.41889
 Mn403 Mn 1.06138 0.49960 0.50090
 C404 C 1.07237 0.43446 0.43043
 C405 C 1.07245 0.56492 0.43045
 N406 N 0.93900 0.53063 0.46439
 N407 N 0.91627 0.55173 0.45869
 N408 N 0.96299 0.46854 0.44102
 N409 N 0.95722 0.44744 0.41879
 N410 N 0.93900 0.46849 0.46434
 N411 N 0.91627 0.44736 0.45860
 N412 N 0.96299 0.53070 0.44108
 N413 N 0.95722 0.55185 0.41888
 Mn414 Mn 0.93848 0.49949 0.50064
 Mn415 Mn 1.00014 0.49965 0.44074
 Cl416 Cl 0.99993 0.49954 0.50074
 C417 C 0.92808 0.56493 0.43031
 C418 C 0.92809 0.43428 0.43020
 N419 N 0.56038 0.03111 0.53592
 N420 N 0.58316 0.05221 0.54162
 N421 N 0.53633 -0.03104 0.55940
 N422 N 0.54204 -0.05214 0.58167
 N423 N 0.56029 -0.03108 0.53607
 N424 N 0.58298 -0.05221 0.54184
 N425 N 0.53642 0.03112 0.55926
 N426 N 0.54224 0.05224 0.58146
 C427 C 0.57140 0.06535 0.57003
 C428 C 0.57114 -0.06530 0.57029
 N429 N 0.43818 -0.03106 0.53598
 N430 N 0.41560 -0.05235 0.54159
 N431 N 0.46221 0.03110 0.55918
 N432 N 0.45655 0.05228 0.58132
 N433 N 0.43824 0.03109 0.53587
 N434 N 0.41559 0.05228 0.54153
 N435 N 0.46213 -0.03102 0.55931
 N436 N 0.45652 -0.05227 0.58142
 Mn437 Mn 0.49926 0.00004 0.55965
 C438 C 0.42749 -0.06552 0.56995
 C439 C 0.42748 0.06544 0.56988
 N440 N 0.56028 -0.03113 0.46352
 N441 N 0.58303 -0.05222 0.45791
 N442 N 0.53645 0.03100 0.44000
 N443 N 0.54230 0.05212 0.41777
 N444 N 0.56035 0.03101 0.46338
 N445 N 0.58311 0.05213 0.45770
 N446 N 0.53638 -0.03116 0.44013
 N447 N 0.54224 -0.05229 0.41796
 Mn448 Mn 0.56070 -0.00002 0.49972
 C449 C 0.57133 -0.06538 0.42949
 C450 C 0.57141 0.06526 0.42926
 N451 N 0.43820 0.03103 0.46329
 N452 N 0.41542 0.05208 0.45751
 N453 N 0.46207 -0.03117 0.44005
 N454 N 0.45612 -0.05220 0.41776
 N455 N 0.43811 -0.03115 0.46340
 N456 N 0.41523 -0.05215 0.45762
 N457 N 0.46214 0.03102 0.43992
 N458 N 0.45627 0.05206 0.41760
 Mn459 Mn 0.43780 -0.00002 0.49964
 Mn460 Mn 0.49926 -0.00008 0.43965
 Cl461 Cl 0.49925 -0.00002 0.49965
 C462 C 0.42714 0.06517 0.42902
 C463 C 0.42691 -0.06526 0.42917
 N464 N 0.56122 0.53140 0.03632
 N465 N 0.58386 0.55264 0.04190
 N466 N 0.53740 0.46921 0.05976
 N467 N 0.54309 0.44795 0.08182
 N468 N 0.56129 0.46925 0.03634
 N469 N 0.58389 0.44801 0.04185
 N470 N 0.53733 0.53134 0.05973
 N471 N 0.54304 0.55252 0.08185
 C472 C 0.57206 0.56576 0.07030
 C473 C 0.57209 0.43478 0.07022
 N474 N 0.43917 0.46900 0.03685
 N475 N 0.41652 0.44781 0.04268
 N476 N 0.46313 0.53122 0.06006
 N477 N 0.45745 0.55231 0.08230
 N478 N 0.43908 0.53120 0.03682
 N479 N 0.41635 0.55229 0.04265
 N480 N 0.46322 0.46906 0.06009
 N481 N 0.45761 0.44791 0.08233
 Mn482 Mn 0.50028 0.50021 0.06026
 C483 C 0.42848 0.43470 0.07105
 C484 C 0.42827 0.56542 0.07102
 N485 N 0.56113 0.46926 -0.03621
 N486 N 0.58404 0.44834 -0.04210
 N487 N 0.53704 0.53140 -0.05952
 N488 N 0.54290 0.55244 -0.08188
 N489 N 0.56104 0.53143 -0.03623
 N490 N 0.58386 0.55248 -0.04210
 N491 N 0.53712 0.46921 -0.05949
 N492 N 0.54305 0.44825 -0.08185
 Mn493 Mn 0.56155 0.50034 0.00006
 C494 C 0.57231 0.43526 -0.07056
 C495 C 0.57209 0.56555 -0.07056
 N496 N 0.43889 0.53118 -0.03575
 N497 N 0.41613 0.55229 -0.04133
 N498 N 0.46281 0.46908 -0.05917
 N499 N 0.45695 0.44795 -0.08134
 N500 N 0.43895 0.46904 -0.03572
 N501 N 0.41622 0.44788 -0.04131
 N502 N 0.46274 0.53124 -0.05919
 N503 N 0.45686 0.55239 -0.08136
 Mn504 Mn 0.43863 0.50010 0.00055
 Mn505 Mn 0.49992 0.50023 -0.05972
 Cl506 Cl 0.50009 0.50022 0.00028
 C507 C 0.42780 0.56547 -0.06978
 C508 C 0.42789 0.43477 -0.06976
 C509 C 1.12619 0.13361 0.12416
 C510 C 1.13942 0.12278 0.09379
 C511 C 1.12151 0.10100 0.07594
 C512 C 1.16233 0.17164 0.16036
 C513 C 1.07675 0.10117 0.11854
 C514 C 1.09469 0.12294 0.13634
 C515 C 1.14566 0.15462 0.14361
 C516 C 1.09019 0.08976 0.08836
 H517 H 1.16383 0.13083 0.08419
 H518 H 1.13245 0.09264 0.05274
 H519 H 1.05266 0.09294 0.12868
 H520 H 1.08426 0.13111 0.15987
 C521 C 1.12461 0.63390 0.62391
 C522 C 1.09327 0.62305 0.63629
 C523 C 1.07554 0.60103 0.61871
 C524 C 1.16065 0.67216 0.65979
 C525 C 1.12016 0.60102 0.57595
 C526 C 1.13786 0.62305 0.59358
 C527 C 1.14398 0.65506 0.64318
 C528 C 1.08904 0.58957 0.58858
 H529 H 1.08285 0.63125 0.65980
 H530 H 1.05159 0.59264 0.62899
 H531 H 1.13112 0.59262 0.55279
 H532 H 1.16216 0.63124 0.58384
 C533 C 0.62537 0.13382 0.62298
 C534 C 0.63846 0.12290 0.59259
 C535 C 0.62056 0.10098 0.57496
 C536 C 0.66152 0.17226 0.65863
 C537 C 0.57606 0.10115 0.61782
 C538 C 0.59400 0.12307 0.63540
 C539 C 0.64483 0.15505 0.64215
 C540 C 0.58936 0.08968 0.58761
 H541 H 0.66277 0.13101 0.58279
 H542 H 0.63139 0.09258 0.55174
 H543 H 0.55207 0.09288 0.62813
 H544 H 0.58367 0.13130 0.65894
 C545 C 0.62569 0.63428 0.12329
 C546 C 0.63890 0.62341 0.09293
 C547 C 0.62107 0.60150 0.07524
 C548 C 0.66179 0.67238 0.15934
 C549 C 0.57643 0.60163 0.11797
 C550 C 0.59429 0.62354 0.13561
 C551 C 0.64514 0.65535 0.14263
 C552 C 0.58987 0.59016 0.08782
 H553 H 0.66325 0.63152 0.08323
 H554 H 0.63199 0.59309 0.05206
 H555 H 0.55242 0.59333 0.12822
 H556 H 0.58389 0.63175 0.15913
 C557 C 0.87480 -0.13388 0.12335
 C558 C 0.90623 -0.12315 0.13560
 C559 C 0.92403 -0.10119 0.11793
 C560 C 0.83881 -0.17211 0.15944
 C561 C 0.87928 -0.10097 0.07532
 C562 C 0.86151 -0.12294 0.09304
 C563 C 0.85542 -0.15502 0.14271
 C564 C 0.91051 -0.08965 0.08783
 H565 H 0.91669 -0.13141 0.15908
 H566 H 0.94805 -0.09290 0.12812
 H567 H 0.86831 -0.09251 0.05218
 H568 H 0.83715 -0.13104 0.08339
 C569 C 0.87343 0.36581 0.62430
 C570 C 0.90483 0.37651 0.63667
 C571 C 0.92282 0.39838 0.61900
 C572 C 0.83720 0.32749 0.66018
 C573 C 0.87833 0.39858 0.57616
 C574 C 0.86036 0.37671 0.59388
 C575 C 0.85391 0.34465 0.64358
 C576 C 0.90956 0.40984 0.58875
 H577 H 0.91514 0.36829 0.66023
 H578 H 0.94683 0.40661 0.62927
 H579 H 0.86752 0.40698 0.55291
 H580 H 0.83604 0.36864 0.58412
 C581 C 0.37415 -0.13431 0.62289
 C582 C 0.40554 -0.12354 0.63519
 C583 C 0.42330 -0.10153 0.61756
 C584 C 0.33814 -0.17252 0.65895
 C585 C 0.37862 -0.10139 0.57489
 C586 C 0.36088 -0.12339 0.59257
 C587 C 0.35477 -0.15545 0.64224
 C588 C 0.40979 -0.09001 0.58745
 H589 H 0.41598 -0.13178 0.65869
 H590 H 0.44729 -0.09321 0.62779
 H591 H 0.36765 -0.09293 0.55174
 H592 H 0.33655 -0.13153 0.58289
 C593 C 0.37522 0.36605 0.12451
 C594 C 0.40666 0.37686 0.13664
 C595 C 0.42437 0.39883 0.11888
 C596 C 0.33946 0.32763 0.16063
 C597 C 0.37950 0.39892 0.07640
 C598 C 0.36182 0.37694 0.09422
 C599 C 0.35597 0.34482 0.14392
 C600 C 0.41076 0.41030 0.08877
 H601 H 0.41722 0.36865 0.16010
 H602 H 0.44842 0.40715 0.12897
 H603 H 0.36844 0.40732 0.05327
 H604 H 0.33746 0.36879 0.08465
 C605 C 0.87341 0.13311 -0.12442
 C606 C 0.90486 0.12251 -0.13675
 C607 C 0.92304 0.10091 -0.11890
 C608 C 0.83664 0.17048 -0.16095
 C609 C 0.87866 0.10077 -0.07594
 C610 C 0.86050 0.12238 -0.09383
 C611 C 0.85359 0.15382 -0.14399
 C612 C 0.90991 0.08958 -0.08851
 H613 H 0.91504 0.13059 -0.16045
 H614 H 0.94706 0.09273 -0.12917
 H615 H 0.86794 0.09247 -0.05259
 H616 H 0.83614 0.13034 -0.08410
 C617 C 0.87363 0.63286 0.37707
 C618 C 0.90504 0.62228 0.36464
 C619 C 0.92320 0.60059 0.38236
 C620 C 0.83672 0.67016 0.34066
 C621 C 0.87888 0.60039 0.42540
 C622 C 0.86075 0.62208 0.40763
 C623 C 0.85376 0.65355 0.35758
 C624 C 0.91006 0.58918 0.41270
 H625 H 0.91518 0.63040 0.34095
 H626 H 0.94718 0.59239 0.37201
 H627 H 0.86818 0.59203 0.44873
 H628 H 0.83641 0.63004 0.41743
 C629 C 0.37254 0.13299 0.37560
 C630 C 0.35974 0.12228 0.40623
 C631 C 0.37789 0.10062 0.42403
 C632 C 0.33561 0.17036 0.33922
 C633 C 0.42209 0.10066 0.38088
 C634 C 0.40390 0.12233 0.36312
 C635 C 0.35266 0.15371 0.35611
 C636 C 0.40905 0.08935 0.41131
 H637 H 0.33544 0.13030 0.41607
 H638 H 0.36725 0.09234 0.44742
 H639 H 0.44603 0.09242 0.37050
 H640 H 0.41399 0.13038 0.33938
 C641 C 0.37313 0.63331 -0.12288
 C642 C 0.40453 0.62278 -0.13537
 C643 C 0.42277 0.60113 -0.11768
 C644 C 0.33608 0.67043 -0.15933
 C645 C 0.37854 0.60088 -0.07455
 C646 C 0.36033 0.62253 -0.09228
 C647 C 0.35316 0.65390 -0.14238
 C648 C 0.40972 0.58971 -0.08732
 H649 H 0.41460 0.63090 -0.15909
 H650 H 0.44674 0.59296 -0.12808
 H651 H 0.36791 0.59250 -0.05120
 H652 H 0.33599 0.63045 -0.08245
 C653 C 1.12653 -0.13305 -0.12312
 C654 C 1.09516 -0.12244 -0.13560
 C655 C 1.07701 -0.10075 -0.11794
 C656 C 1.16343 -0.17029 -0.15951
 C657 C 1.12127 -0.10061 -0.07485
 C658 C 1.13938 -0.12231 -0.09256
 C659 C 1.14641 -0.15371 -0.14258
 C660 C 1.09013 -0.08936 -0.08761
 H661 H 1.08505 -0.13054 -0.15929
 H662 H 1.05306 -0.09251 -0.12832
 H663 H 1.13195 -0.09226 -0.05153
 H664 H 1.16371 -0.13030 -0.08274
 C665 C 1.12727 0.36666 0.37740
 C666 C 1.09599 0.37733 0.36474
 C667 C 1.07769 0.39898 0.38236
 C668 C 1.16439 0.32927 0.34130
 C669 C 1.12163 0.39901 0.42574
 C670 C 1.13989 0.37735 0.40808
 C671 C 1.14726 0.34593 0.35806
 C672 C 1.09056 0.41028 0.41284
 H673 H 1.08603 0.36928 0.34096
 H674 H 1.05381 0.40723 0.37185
 H675 H 1.13214 0.40728 0.44917
 H676 H 1.16413 0.36933 0.41806
 C677 C 0.62612 -0.13318 0.37650
 C678 C 0.63879 -0.12247 0.40715
 C679 C 0.62055 -0.10084 0.42483
 C680 C 0.66332 -0.17036 0.34028
 C681 C 0.57651 -0.10093 0.38153
 C682 C 0.59480 -0.12257 0.36389
 C683 C 0.64614 -0.15380 0.35710
 C684 C 0.58944 -0.08960 0.41196
 H685 H 0.66307 -0.13046 0.41708
 H686 H 0.63109 -0.09253 0.44823
 H687 H 0.55260 -0.09270 0.37105
 H688 H 0.58482 -0.13063 0.34013
 C689 C 0.62717 0.36788 -0.12434
 C690 C 0.59567 0.37840 -0.13664
 C691 C 0.57741 0.39992 -0.11877
 C692 C 0.66407 0.33066 -0.16089
 C693 C 0.62181 0.40010 -0.07585
 C694 C 0.64004 0.37859 -0.09376
 C695 C 0.64706 0.34726 -0.14392
 C696 C 0.59051 0.41123 -0.08839
 H697 H 0.58551 0.37035 -0.16033
 H698 H 0.55335 0.40805 -0.12901
 H699 H 0.63250 0.40838 -0.05250
 H700 H 0.66444 0.37067 -0.08406
 C701 C 1.12742 0.13327 -0.12371
 C702 C 1.09601 0.12269 -0.13619
 C703 C 1.07769 0.10109 -0.11843
 C704 C 1.16458 0.17043 -0.16018
 C705 C 1.12186 0.10096 -0.07526
 C706 C 1.14014 0.12257 -0.09306
 C707 C 1.14744 0.15388 -0.14323
 C708 C 1.09067 0.08976 -0.08800
 H709 H 1.08598 0.13075 -0.15994
 H710 H 1.05371 0.09288 -0.12881
 H711 H 1.13244 0.09266 -0.05187
 H712 H 1.16448 0.13053 -0.08323
 C713 C 1.12742 0.63282 0.37729
 C714 C 1.09607 0.62218 0.36472
 C715 C 1.07777 0.60049 0.38239
 C716 C 1.16446 0.67035 0.34111
 C717 C 1.12184 0.60035 0.42563
 C718 C 1.14011 0.62205 0.40793
 C719 C 1.14738 0.65362 0.35791
 C720 C 1.09069 0.58912 0.41283
 H721 H 1.08606 0.63029 0.34099
 H722 H 1.05383 0.59227 0.37194
 H723 H 1.13239 0.59203 0.44903
 H724 H 1.16440 0.63005 0.41784
 C725 C 0.62615 0.13308 0.37601
 C726 C 0.59478 0.12245 0.36350
 C727 C 0.57651 0.10080 0.38122
 C728 C 0.66330 0.17026 0.33961
 C729 C 0.62064 0.10076 0.42443
 C730 C 0.63888 0.12240 0.40666
 C731 C 0.64615 0.15370 0.35652
 C732 C 0.58950 0.08949 0.41165
 H733 H 0.58477 0.13050 0.33973
 H734 H 0.55257 0.09255 0.37082
 H735 H 0.63123 0.09247 0.44783
 H736 H 0.66319 0.13041 0.41652
 C737 C 0.62680 0.63325 -0.12425
 C738 C 0.59537 0.62260 -0.13663
 C739 C 0.57714 0.60098 -0.11878
 C740 C 0.66379 0.67054 -0.16079
 C741 C 0.62143 0.60098 -0.07574
 C742 C 0.63962 0.62259 -0.09363
 C743 C 0.64671 0.65393 -0.14383
 C744 C 0.59021 0.58971 -0.08836
 H745 H 0.58526 0.63062 -0.16036
 H746 H 0.55315 0.59273 -0.12908
 H747 H 0.63209 0.59273 -0.05235
 H748 H 0.66397 0.63061 -0.08387
 C749 C 0.87302 -0.13265 -0.12378
 C750 C 0.90441 -0.12200 -0.13630
 C751 C 0.92269 -0.10036 -0.11859
 C752 C 0.83597 -0.17004 -0.16002
 C753 C 0.87853 -0.10031 -0.07541
 C754 C 0.86029 -0.12195 -0.09315
 C755 C 0.85307 -0.15337 -0.14320
 C756 C 0.90972 -0.08906 -0.08817
 H757 H 0.91445 -0.13005 -0.16004
 H758 H 0.94666 -0.09213 -0.12900
 H759 H 0.86794 -0.09204 -0.05202
 H760 H 0.83597 -0.12995 -0.08328
 C761 C 0.87358 0.36655 0.37674
 C762 C 0.90501 0.37718 0.36436
 C763 C 0.92321 0.39880 0.38216
 C764 C 0.83659 0.32947 0.34015
 C765 C 0.87886 0.39879 0.42518
 C766 C 0.86070 0.37718 0.40734
 C767 C 0.85366 0.34598 0.35715
 C768 C 0.91007 0.41007 0.41253
 H769 H 0.91514 0.36917 0.34064
 H770 H 0.94720 0.40705 0.37185
 H771 H 0.86816 0.40705 0.44853
 H772 H 0.83633 0.36917 0.41708
 C773 C 0.37216 -0.13299 0.37566
 C774 C 0.40365 -0.12241 0.36332
 C775 C 0.42187 -0.10078 0.38111
 C776 C 0.33531 -0.17037 0.33915
 C777 C 0.37744 -0.10059 0.42402
 C778 C 0.35926 -0.12222 0.40619
 C779 C 0.35230 -0.15371 0.35612
 C780 C 0.40873 -0.08941 0.41144
 H781 H 0.41384 -0.13051 0.33967
 H782 H 0.44592 -0.09261 0.37083
 H783 H 0.36672 -0.09226 0.44733
 H784 H 0.33485 -0.13017 0.41592
 C785 C 0.37336 0.36675 -0.12281
 C786 C 0.36054 0.37748 -0.09224
 C787 C 0.37868 0.39920 -0.07453
 C788 C 0.33644 0.32940 -0.15916
 C789 C 0.42291 0.39914 -0.11767
 C790 C 0.40472 0.37743 -0.13532
 C791 C 0.35347 0.34603 -0.14226
 C792 C 0.40983 0.41050 -0.08730
 H793 H 0.33622 0.36945 -0.08239
 H794 H 0.36803 0.40751 -0.05119
 H795 H 0.44685 0.40741 -0.12807
 H796 H 0.41482 0.36935 -0.15903
 C797 C 1.12609 -0.13305 0.12432
 C798 C 1.09466 -0.12236 0.13657
 C799 C 1.07673 -0.10057 0.11878
 C800 C 1.16219 -0.17123 0.16038
 C801 C 1.12138 -0.10041 0.07606
 C802 C 1.13927 -0.12220 0.09390
 C803 C 1.14553 -0.15414 0.14371
 C804 C 1.09012 -0.08916 0.08853
 H805 H 1.08426 -0.13054 0.16013
 H806 H 1.05269 -0.09234 0.12895
 H807 H 1.13227 -0.09205 0.05282
 H808 H 1.16362 -0.13026 0.08424
 C809 C 1.12498 0.36545 0.62418
 C810 C 1.13824 0.37639 0.59384
 C811 C 1.12047 0.39833 0.57615
 C812 C 1.16105 0.32726 0.66015
 C813 C 1.07578 0.39809 0.61883
 C814 C 1.09358 0.37615 0.63648
 C815 C 1.14438 0.34433 0.64350
 C816 C 1.08927 0.40963 0.58870
 H817 H 1.16258 0.36832 0.58416
 H818 H 1.13143 0.40680 0.55298
 H819 H 1.05178 0.40635 0.62906
 H820 H 1.08315 0.36789 0.65998
 C821 C 0.62475 -0.13373 0.62358
 C822 C 0.59338 -0.12296 0.63589
 C823 C 0.57556 -0.10106 0.61819
 C824 C 0.66072 -0.17207 0.65952
 C825 C 0.62016 -0.10096 0.57543
 C826 C 0.63795 -0.12287 0.59318
 C827 C 0.64411 -0.15491 0.64290
 C828 C 0.58897 -0.08962 0.58797
 H829 H 0.58297 -0.13116 0.65944
 H830 H 0.55157 -0.09277 0.62842
 H831 H 0.63107 -0.09258 0.55221
 H832 H 0.66226 -0.13099 0.58347
 C833 C 0.62559 0.36602 0.12286
 C834 C 0.59425 0.37671 0.13528
 C835 C 0.57643 0.39871 0.11776
 C836 C 0.66168 0.32779 0.15871
 C837 C 0.62098 0.39901 0.07494
 C838 C 0.63878 0.37701 0.09251
 C839 C 0.64502 0.34488 0.14209
 C840 C 0.58984 0.41030 0.08762
 H841 H 0.58388 0.36841 0.15880
 H842 H 0.55247 0.40697 0.12808
 H843 H 0.63188 0.40752 0.05177
 H844 H 0.66308 0.36894 0.08274
 C845 C 0.87506 0.13445 0.12285
 C846 C 0.90640 0.12371 0.13523
 C847 C 0.92420 0.10175 0.11767
 C848 C 0.83895 0.17258 0.15877
 C849 C 0.87962 0.10159 0.07488
 C850 C 0.86186 0.12355 0.09250
 C851 C 0.85563 0.15554 0.14213
 C852 C 0.91076 0.09024 0.08753
 H853 H 0.91678 0.13194 0.15875
 H854 H 0.94815 0.09344 0.12796
 H855 H 0.86871 0.09315 0.05171
 H856 H 0.83756 0.13166 0.08276
 C857 C 0.87398 0.63319 0.62404
 C858 C 0.90530 0.62242 0.63647
 C859 C 0.92318 0.60051 0.61887
 C860 C 0.83791 0.67155 0.65979
 C861 C 0.87872 0.60040 0.57599
 C862 C 0.86087 0.62231 0.59363
 C863 C 0.85455 0.65438 0.64325
 C864 C 0.90987 0.58906 0.58864
 H865 H 0.91563 0.63063 0.66002
 H866 H 0.94713 0.59222 0.62919
 H867 H 0.86789 0.59201 0.55276
 H868 H 0.83660 0.63043 0.58383
 C869 C 0.37405 0.13388 0.62309
 C870 C 0.40552 0.12322 0.63525
 C871 C 0.42330 0.10134 0.61754
 C872 C 0.33814 0.17196 0.65930
 C873 C 0.37845 0.10106 0.57505
 C874 C 0.36069 0.12295 0.59282
 C875 C 0.35470 0.15494 0.64252
 C876 C 0.40973 0.08981 0.58747
 H877 H 0.41604 0.13147 0.65870
 H878 H 0.44737 0.09311 0.62766
 H879 H 0.36741 0.09260 0.55194
 H880 H 0.33629 0.13099 0.58324
 C881 C 0.37489 0.63390 0.12439
 C882 C 0.40635 0.62317 0.13653
 C883 C 0.42408 0.60125 0.11880
 C884 C 0.33918 0.67235 0.16039
 C885 C 0.37919 0.60102 0.07636
 C886 C 0.36149 0.62295 0.09414
 C887 C 0.35566 0.65514 0.14374
 C888 C 0.41048 0.58974 0.08872
 H889 H 0.41692 0.63143 0.15995
 H890 H 0.44816 0.59301 0.12890
 H891 H 0.36813 0.59258 0.05325
 H892 H 0.33711 0.63103 0.08456
   
