data_POSCAR
  _audit_creation_date              2014-09-24
  _audit_creation_method            'ToBaCCo'
  _symmetry_space_group_name_H-M    'P1'
  _symmetry_Int_Tables_number       1
  _symmetry_cell_setting            triclinic
  loop_
  _symmetry_equiv_pos_as_xyz
 x,y,z
_cell_length_a 42.6828
_cell_length_b 42.6138
_cell_length_c 18.0118
_cell_angle_alpha 89.913400
_cell_angle_beta 90.086700
_cell_angle_gamma 119.996600
loop_
  _atom_site_label
  _atom_site_type_symbol
  _atom_site_fract_x
  _atom_site_fract_y
  _atom_site_fract_z
C1 C 0.48370 0.96744 0.54047
 C2 C 0.48363 0.96750 0.46225
 C3 C 0.50018 1.00050 0.42375
 C4 C 0.51673 1.03352 0.46219
 C5 C 0.51657 1.03349 0.54057
 C6 C 0.50011 1.00043 0.57903
 H7 H 0.50006 1.00037 0.63935
 H8 H 0.50015 1.00040 0.36347
 C9 C 0.03219 0.51609 0.53690
 C10 C 0.03216 0.51594 0.45878
 C11 C -0.00077 0.49950 0.42021
 C12 C -0.03372 0.48308 0.45873
 C13 C -0.03367 0.48303 0.53699
 C14 C -0.00070 0.49959 0.57545
 H15 H -0.00064 0.49964 0.63569
 H16 H -0.00068 0.49953 0.35993
 C17 C 0.48340 0.51641 0.54210
 C18 C 0.48353 0.51649 0.46386
 C19 C 0.49993 0.49991 0.42555
 C20 C 0.51632 0.48334 0.46417
 C21 C 0.51642 0.48345 0.54241
 C22 C 0.49991 0.49993 0.58080
 H23 H 0.49990 0.49994 0.64112
 H24 H 0.49994 0.49991 0.36530
 O25 O 0.38813 0.65860 -0.06341
 O26 O 0.38665 0.71842 -0.08668
 C27 C 0.36979 0.73524 -0.09957
 O28 O 0.34188 0.72986 -0.06393
 O29 O 0.28219 0.66857 -0.08719
 C30 C 0.26541 0.63486 -0.09993
 O31 O 0.27076 0.61229 -0.06403
 O32 O 0.33197 0.61377 -0.08663
 C33 C 0.36564 0.63067 -0.09922
 O34 O 0.38654 0.66853 0.08399
 O35 O 0.38801 0.72981 0.06075
 C36 C 0.36545 0.73512 0.09645
 O37 O 0.33180 0.71832 0.08349
 O38 O 0.27064 0.65853 0.06021
 C39 C 0.26527 0.63060 0.09609
 O40 O 0.28207 0.61371 0.08350
 O41 O 0.34180 0.61226 0.06091
 C42 C 0.36964 0.63482 0.09683
 Cr43 Cr 0.38529 0.69282 -0.00135
 Cr44 Cr 0.30765 0.69280 -0.00185
 Cr45 Cr 0.30767 0.61505 -0.00157
 O46 O 0.33354 0.66689 -0.00160
 O47 O 0.61160 0.34120 -0.06122
 O48 O 0.61303 0.28138 -0.08428
 C49 C 0.62988 0.26456 -0.09708
 O50 O 0.65777 0.26988 -0.06131
 O51 O 0.71748 0.33115 -0.08455
 C52 C 0.73424 0.36486 -0.09743
 O53 O 0.72895 0.38744 -0.06162
 O54 O 0.66776 0.38602 -0.08440
 C55 C 0.63409 0.36913 -0.09706
 O56 O 0.61324 0.33121 0.08622
 O57 O 0.61171 0.26991 0.06319
 C58 C 0.63426 0.26456 0.09899
 O59 O 0.66791 0.28135 0.08612
 O60 O 0.72909 0.34113 0.06285
 C61 C 0.73451 0.36906 0.09861
 O62 O 0.71773 0.38598 0.08589
 O63 O 0.65800 0.38748 0.06310
 C64 C 0.63016 0.36492 0.09899
 Cr65 Cr 0.61444 0.30695 0.00097
 Cr66 Cr 0.69204 0.30690 0.00078
 Cr67 Cr 0.69209 0.38468 0.00074
 O68 O 0.66619 0.33285 0.00083
 C69 C 0.38936 0.82672 -0.30763
 C70 C 0.40870 0.86656 -0.28063
 C71 C 0.43890 0.87578 -0.33743
 C72 C 0.41983 0.83645 -0.36531
 C73 C 0.41105 0.81849 -0.25048
 C74 C 0.44126 0.82766 -0.30728
 C75 C 0.43014 0.85786 -0.22285
 C76 C 0.46056 0.86750 -0.28028
 C77 C 0.45478 0.90841 -0.38368
 C78 C 0.46819 0.93587 -0.41992
 C79 C 0.39591 0.78755 -0.19950
 C80 C 0.38381 0.76310 -0.15511
 H81 H 0.35991 0.80958 -0.31833
 H82 H 0.39549 0.88291 -0.27016
 H83 H 0.41580 0.82807 -0.42449
 H84 H 0.45446 0.81130 -0.31768
 H85 H 0.43424 0.86637 -0.16375
 H86 H 0.49000 0.88463 -0.26952
 C87 C 0.17370 0.61405 -0.30906
 C88 C 0.16468 0.58344 -0.36613
 C89 C 0.12538 0.56371 -0.33844
 C90 C 0.13388 0.59404 -0.28226
 C91 C 0.18247 0.59302 -0.25123
 C92 C 0.14313 0.57327 -0.22379
 C93 C 0.17401 0.56269 -0.30740
 C94 C 0.13420 0.54273 -0.28060
 C95 C 0.09285 0.54702 -0.38485
 C96 C 0.06548 0.53302 -0.42122
 C97 C 0.21331 0.60876 -0.20011
 C98 C 0.23767 0.62106 -0.15561
 H99 H 0.19030 0.64356 -0.32022
 H100 H 0.17312 0.58739 -0.42526
 H101 H 0.11702 0.60674 -0.27241
 H102 H 0.13457 0.56925 -0.16473
 H103 H 0.19088 0.55000 -0.31719
 H104 H 0.11761 0.51323 -0.26937
 C105 C 0.43777 0.61114 -0.30597
 C106 C 0.45774 0.59130 -0.27875
 C107 C 0.43679 0.56138 -0.33626
 C108 C 0.41705 0.58094 -0.36436
 C109 C 0.40752 0.58935 -0.24964
 C110 C 0.38652 0.55943 -0.30714
 C111 C 0.42728 0.56977 -0.22179
 C112 C 0.40655 0.53964 -0.27993
 C113 C 0.45346 0.54543 -0.38234
 C114 C 0.46743 0.53197 -0.41844
 C115 C 0.39178 0.60454 -0.19884
 C116 C 0.37947 0.61667 -0.15459
 H117 H 0.45040 0.64070 -0.31614
 H118 H 0.48721 0.60423 -0.26756
 H119 H 0.41307 0.58533 -0.42358
 H120 H 0.35705 0.54651 -0.31827
 H121 H 0.43133 0.56532 -0.16264
 H122 H 0.39390 0.51007 -0.26970
 C123 C 0.61065 0.17350 -0.30515
 C124 C 0.59096 0.13357 -0.27862
 C125 C 0.56110 0.12473 -0.33621
 C126 C 0.58052 0.16417 -0.36363
 C127 C 0.58878 0.18170 -0.24859
 C128 C 0.55891 0.17291 -0.30618
 C129 C 0.56934 0.14222 -0.22142
 C130 C 0.53927 0.13296 -0.27965
 C131 C 0.54533 0.09227 -0.38286
 C132 C 0.53200 0.06495 -0.41942
 C133 C 0.60383 0.21248 -0.19731
 C134 C 0.61589 0.23681 -0.15274
 H135 H 0.64016 0.19054 -0.31510
 H136 H 0.60397 0.11704 -0.26779
 H137 H 0.58491 0.17276 -0.42270
 H138 H 0.54592 0.18945 -0.31695
 H139 H 0.56489 0.13350 -0.16242
 H140 H 0.50976 0.11593 -0.26965
 C141 C 0.82554 0.38533 -0.30660
 C142 C 0.83417 0.41560 -0.36445
 C143 C 0.87358 0.43567 -0.33722
 C144 C 0.86545 0.40568 -0.28026
 C145 C 0.81680 0.40654 -0.24933
 C146 C 0.85624 0.42663 -0.22235
 C147 C 0.82489 0.43653 -0.30629
 C148 C 0.86479 0.45683 -0.27995
 C149 C 0.90593 0.45226 -0.38403
 C150 C 0.93316 0.46617 -0.42073
 C151 C 0.78613 0.39088 -0.19790
 C152 C 0.76189 0.37863 -0.15322
 H153 H 0.80903 0.35576 -0.31699
 H154 H 0.82552 0.41129 -0.42349
 H155 H 0.88248 0.39319 -0.27004
 H156 H 0.86501 0.43100 -0.16338
 H157 H 0.80784 0.44901 -0.31644
 H158 H 0.88128 0.48640 -0.26948
 C159 C 0.57246 0.43009 -0.22050
 C160 C 0.59322 0.46021 -0.27870
 C161 C 0.56298 0.43848 -0.33512
 C162 C 0.54201 0.40856 -0.27755
 C163 C 0.59223 0.41050 -0.24803
 C164 C 0.56199 0.38872 -0.30444
 C165 C 0.61325 0.44042 -0.30559
 C166 C 0.58272 0.41891 -0.36290
 C167 C 0.54633 0.45442 -0.38148
 C168 C 0.53238 0.46789 -0.41783
 C169 C 0.60795 0.39530 -0.19699
 C170 C 0.62025 0.38316 -0.15259
 H171 H 0.56840 0.43454 -0.16142
 H172 H 0.60587 0.48978 -0.26860
 H173 H 0.51255 0.39564 -0.26651
 H174 H 0.54935 0.35915 -0.31449
 H175 H 0.64271 0.45333 -0.31657
 H176 H 0.58672 0.41452 -0.42205
 C177 C 0.82605 0.38850 0.30608
 C178 C 0.86584 0.40824 0.27914
 C179 C 0.87480 0.43820 0.33652
 C180 C 0.83552 0.41873 0.36435
 C181 C 0.81764 0.41030 0.24949
 C182 C 0.82655 0.44027 0.30687
 C183 C 0.85696 0.42979 0.22192
 C184 C 0.86635 0.45996 0.27994
 C185 C 0.90737 0.45411 0.38282
 C186 C 0.93477 0.46754 0.41909
 C187 C 0.78675 0.39515 0.19849
 C188 C 0.76234 0.38305 0.15411
 H189 H 0.80911 0.35894 0.31629
 H190 H 0.88234 0.39524 0.26822
 H191 H 0.82714 0.41439 0.42351
 H192 H 0.81004 0.45325 0.31773
 H193 H 0.86547 0.43419 0.16282
 H194 H 0.88328 0.48952 0.26967
 C195 C 0.57230 0.14227 0.22389
 C196 C 0.59317 0.13282 0.28169
 C197 C 0.56336 0.12480 0.33876
 C198 C 0.54228 0.13382 0.28160
 C199 C 0.59260 0.18175 0.25089
 C200 C 0.56279 0.17376 0.30796
 C201 C 0.61373 0.17277 0.30805
 C202 C 0.58364 0.16423 0.36601
 C203 C 0.54671 0.09234 0.38552
 C204 C 0.53273 0.06500 0.42215
 C205 C 0.60828 0.21251 0.19946
 C206 C 0.62053 0.23682 0.15478
 H207 H 0.56780 0.13354 0.16493
 H208 H 0.60547 0.11563 0.27138
 H209 H 0.51273 0.11746 0.27122
 H210 H 0.55049 0.19096 0.31821
 H211 H 0.64328 0.18915 0.31836
 H212 H 0.58807 0.17284 0.42505
 C213 C 0.55924 0.38545 0.30782
 C214 C 0.58081 0.41552 0.36594
 C215 C 0.56171 0.43586 0.33867
 C216 C 0.53991 0.40607 0.28144
 C217 C 0.58933 0.40667 0.25083
 C218 C 0.57021 0.42703 0.22381
 C219 C 0.61116 0.43646 0.30806
 C220 C 0.59179 0.45703 0.28168
 C221 C 0.54595 0.45249 0.38542
 C222 C 0.53264 0.46644 0.42203
 C223 C 0.60432 0.39098 0.19942
 C224 C 0.61630 0.37872 0.15476
 H225 H 0.54603 0.35583 0.31800
 H226 H 0.58497 0.41101 0.42498
 H227 H 0.51045 0.39376 0.27098
 H228 H 0.56599 0.43160 0.16484
 H229 H 0.64063 0.44876 0.31846
 H230 H 0.60501 0.48664 0.27142
 C231 C 0.17317 0.55908 0.30384
 C232 C 0.16456 0.58056 0.36190
 C233 C 0.12525 0.56155 0.33415
 C234 C 0.13334 0.53984 0.27698
 C235 C 0.18230 0.58938 0.24701
 C236 C 0.14294 0.57035 0.21952
 C237 C 0.17424 0.61113 0.30419
 C238 C 0.13442 0.59185 0.27733
 C239 C 0.09275 0.54570 0.38054
 C240 C 0.06542 0.53232 0.41691
 C241 C 0.21312 0.60450 0.19597
 C242 C 0.23748 0.61660 0.15158
 H243 H 0.18946 0.54579 0.31418
 H244 H 0.17302 0.58456 0.42105
 H245 H 0.11617 0.51036 0.26627
 H246 H 0.13436 0.56629 0.16044
 H247 H 0.19143 0.64062 0.31484
 H248 H 0.11814 0.60515 0.26692
 C249 C 0.43729 0.82605 0.30471
 C250 C 0.45723 0.86603 0.27845
 C251 C 0.43622 0.87461 0.33640
 C252 C 0.41651 0.83513 0.36355
 C253 C 0.40706 0.81778 0.24840
 C254 C 0.38600 0.82632 0.30634
 C255 C 0.42678 0.85730 0.22150
 C256 C 0.40598 0.86631 0.28008
 C257 C 0.45282 0.90700 0.38326
 C258 C 0.46675 0.93426 0.41997
 C259 C 0.39140 0.78708 0.19692
 C260 C 0.37918 0.76281 0.15223
 H261 H 0.44997 0.80912 0.31429
 H262 H 0.48669 0.88270 0.26748
 H263 H 0.41251 0.82643 0.42256
 H264 H 0.35653 0.80963 0.31724
 H265 H 0.43085 0.86612 0.16256
 H266 H 0.39330 0.88322 0.27044
 C267 C 0.42974 0.57282 0.22251
 C268 C 0.45996 0.59378 0.28035
 C269 C 0.43815 0.56393 0.33751
 C270 C 0.40814 0.54276 0.28032
 C271 C 0.41053 0.59309 0.24921
 C272 C 0.38867 0.56324 0.30637
 C273 C 0.44054 0.61431 0.30640
 C274 C 0.41895 0.58418 0.36446
 C275 C 0.45391 0.54732 0.38454
 C276 C 0.46722 0.53338 0.42140
 C277 C 0.39552 0.60876 0.19757
 C278 C 0.38353 0.62102 0.15275
 H279 H 0.43404 0.56831 0.16361
 H280 H 0.48945 0.60615 0.27014
 H281 H 0.39499 0.51316 0.27009
 H282 H 0.35919 0.55087 0.31652
 H283 H 0.45368 0.64391 0.31656
 H284 H 0.41472 0.58863 0.42343
   
