data_POSCAR
  _audit_creation_date              2014-09-24
  _audit_creation_method            'ToBaCCo'
  _symmetry_space_group_name_H-M    'P1'
  _symmetry_Int_Tables_number       1
  _symmetry_cell_setting            triclinic
  loop_
  _symmetry_equiv_pos_as_xyz
 x,y,z
_cell_length_a 22.0155
_cell_length_b 22.2448
_cell_length_c 22.1525
_cell_angle_alpha 90.755500
_cell_angle_beta 90.842500
_cell_angle_gamma 90.159000
loop_
  _atom_site_label
  _atom_site_type_symbol
  _atom_site_fract_x
  _atom_site_fract_y
  _atom_site_fract_z
C1 C 0.00209 0.44193 0.20628
 C2 C 0.05895 0.44655 0.24619
 C3 C 0.06123 0.49666 0.28200
 C4 C 0.00516 0.53811 0.27511
 C5 C -0.05098 0.44633 0.24952
 C6 C -0.05015 0.49647 0.28527
 C7 C 0.00042 0.50079 0.17064
 C8 C 0.00201 0.55129 0.20680
 H9 H 0.09613 0.41458 0.24371
 H10 H 0.00652 0.57873 0.30482
 H11 H -0.08883 0.41478 0.24848
 H12 H -0.00229 0.50239 0.12169
 C13 C 0.00823 0.43729 0.78780
 C14 C -0.04153 0.43963 0.74425
 C15 C -0.04026 0.49187 0.70748
 C16 C 0.01147 0.53172 0.72070
 C17 C 0.06321 0.44120 0.75285
 C18 C 0.06515 0.49325 0.71589
 C19 C 0.00514 0.49330 0.82286
 C20 C 0.00706 0.54561 0.78525
 H21 H -0.08098 0.41000 0.74548
 H22 H 0.01305 0.57186 0.69123
 H23 H 0.10160 0.41083 0.75793
 H24 H 0.00115 0.49559 0.87169
 C25 C 0.21517 -0.00005 0.43400
 C26 C 0.25627 0.05505 0.43970
 C27 C 0.29118 0.05665 0.49085
 C28 C 0.28245 0.00160 0.53195
 C29 C 0.25756 -0.05390 0.43906
 C30 C 0.29243 -0.05382 0.49027
 C31 C 0.17813 -0.00021 0.49233
 C32 C 0.21356 0.00063 0.54371
 H33 H 0.25412 0.09227 0.40840
 H34 H 0.31157 0.00234 0.57335
 H35 H 0.25582 -0.09189 0.40767
 H36 H 0.12882 -0.00142 0.49295
 C37 C 0.77346 -0.00368 0.42705
 C38 C 0.73011 -0.05235 0.42985
 C39 C 0.69497 -0.05138 0.48337
 C40 C 0.70876 -0.00094 0.52400
 C41 C 0.73649 0.05380 0.43381
 C42 C 0.70283 0.05549 0.48477
 C43 C 0.81204 -0.00718 0.48535
 C44 C 0.77753 -0.00559 0.53622
 H45 H 0.73128 -0.09133 0.39966
 H46 H 0.68050 0.00050 0.56520
 H47 H 0.74101 0.09207 0.40414
 H48 H 0.86131 -0.00974 0.48636
 C49 C 0.43472 0.21757 1.00419
 C50 C 0.43952 0.25447 1.05859
 C51 C 0.49318 0.29084 1.06159
 C52 C 0.53226 0.28365 1.00841
 C53 C 0.43857 0.25905 0.95431
 C54 C 0.49236 0.29531 0.95580
 C55 C 0.49062 0.18218 1.00240
 C56 C 0.54478 0.21886 1.00475
 H57 H 0.40843 0.25105 1.09617
 H58 H 0.57360 0.31255 1.01034
 H59 H 0.40782 0.25758 0.91535
 H60 H 0.49159 0.13342 0.99845
 C61 C 0.43594 0.78352 1.01030
 C62 C 0.43976 0.73838 0.95804
 C63 C 0.49096 0.70428 0.95955
 C64 C 0.53323 0.71789 1.01419
 C65 C 0.44089 0.74589 1.06717
 C66 C 0.49193 0.71162 1.06944
 C67 C 0.49158 0.81870 1.00845
 C68 C 0.54509 0.78218 1.01066
 H69 H 0.40883 0.73877 0.91929
 H70 H 0.57453 0.68923 1.01607
 H71 H 0.40928 0.74935 1.10431
 H72 H 0.49273 0.86726 1.00374
 B73 B 0.98965 1.05649 0.02499
 B74 B 0.98965 1.05578 -0.05087
 B75 B 1.05154 1.03281 -0.01212
 B76 B 1.02768 0.99551 0.04876
 B77 B 0.95139 0.99538 0.04740
 B78 B 0.92742 1.03284 -0.01395
 B79 B 0.98951 0.93328 -0.05167
 B80 B 0.98951 0.93381 0.02448
 B81 B 0.92762 0.95689 -0.01439
 B82 B 0.95120 0.99441 -0.07537
 B83 B 1.02790 0.99453 -0.07438
 B84 B 1.05117 0.95728 -0.01254
 B85 B 0.57030 0.50254 0.47356
 B86 B 0.57083 0.50301 0.54945
 B87 B 0.54648 0.56355 0.51202
 B88 B 0.50800 0.53976 0.45010
 B89 B 0.50825 0.46384 0.44905
 B90 B 0.54713 0.44134 0.51113
 B91 B 0.44711 0.50227 0.54906
 B92 B 0.44607 0.50180 0.47272
 B93 B 0.47034 0.44052 0.51074
 B94 B 0.50948 0.46481 0.57284
 B95 B 0.50924 0.54033 0.57295
 B96 B 0.47023 0.56345 0.51164
 C97 C 1.00010 1.38576 0.17079
 C98 C 0.99816 1.33690 0.14663
 C99 C 0.99575 1.27794 0.12231
 C100 C 0.99376 1.22702 0.10306
 C101 C 0.99170 1.16748 0.08032
 C102 C 0.99038 1.11751 0.05870
 C103 C 0.99967 0.61154 0.18256
 C104 C 0.99762 0.66150 0.16152
 C105 C 0.99522 0.71970 0.13583
 C106 C 0.99330 0.76887 0.11301
 C107 C 0.99135 0.82594 0.08498
 C108 C 0.99012 0.87385 0.05970
 C109 C 1.00602 1.38500 -0.17926
 C110 C 1.00329 1.33644 -0.15652
 C111 C 0.99952 1.27742 -0.13558
 C112 C 0.99626 1.22614 -0.11999
 C113 C 0.99284 1.16625 -0.10161
 C114 C 0.99068 1.11606 -0.08283
 C115 C 1.00333 0.60296 -0.19265
 C116 C 1.00013 0.65397 -0.17404
 C117 C 0.99665 0.71380 -0.15247
 C118 C 0.99405 0.76464 -0.13332
 C119 C 0.99160 0.82352 -0.10915
 C120 C 0.99014 0.87279 -0.08608
 C121 C 1.17999 0.99906 0.37724
 C122 C 1.15521 0.99841 0.32837
 C123 C 1.12947 0.99772 0.26966
 C124 C 1.10874 0.99718 0.21902
 C125 C 1.08431 0.99660 0.15981
 C126 C 1.06164 0.99613 0.11001
 C127 C 1.18824 0.99947 -0.39635
 C128 C 1.16662 0.99839 -0.34649
 C129 C 1.14052 0.99711 -0.28834
 C130 C 1.11743 0.99610 -0.23915
 C131 C 1.08911 0.99512 -0.18209
 C132 C 1.06353 0.99458 -0.13419
 C133 C 0.80727 0.99515 0.37124
 C134 C 0.83081 0.99473 0.32291
 C135 C 0.85459 0.99473 0.26481
 C136 C 0.87356 0.99497 0.21451
 C137 C 0.89613 0.99536 0.15597
 C138 C 0.91787 0.99558 0.10685
 C139 C 0.80294 0.99346 -0.40382
 C140 C 0.82314 0.99304 -0.35316
 C141 C 0.84645 0.99292 -0.29377
 C142 C 0.86698 0.99308 -0.24323
 C143 C 0.89254 0.99347 -0.18476
 C144 C 0.91650 0.99389 -0.13573
 C145 C 1.38089 1.18432 0.00175
 C146 C 1.33203 1.15946 -0.00060
 C147 C 1.27319 1.13376 -0.00349
 C148 C 1.22242 1.11314 -0.00591
 C149 C 1.16297 1.08891 -0.00854
 C150 C 1.11301 1.06649 -0.01045
 C151 C 0.60217 1.19497 0.00115
 C152 C 0.65244 1.17306 -0.00211
 C153 C 0.71102 1.14636 -0.00586
 C154 C 0.76052 1.12277 -0.00880
 C155 C 0.81809 1.09397 -0.01171
 C156 C 0.86652 1.06825 -0.01345
 C157 C 1.37985 0.81773 0.00748
 C158 C 1.33099 0.84104 0.00421
 C159 C 1.27212 0.86408 -0.00025
 C160 C 1.22109 0.88215 -0.00412
 C161 C 1.16160 0.90357 -0.00822
 C162 C 1.11164 0.92442 -0.01091
 C163 C 0.60196 0.80528 0.00525
 C164 C 0.65235 0.82547 0.00042
 C165 C 0.71118 0.84942 -0.00493
 C166 C 0.76114 0.87080 -0.00889
 C167 C 0.81895 0.89740 -0.01247
 C168 C 0.86750 0.92202 -0.01432
 C169 C 0.89647 0.51079 0.31993
 C170 C 0.84842 0.51605 0.34518
 C171 C 0.79012 0.51650 0.37160
 C172 C 0.73987 0.51391 0.39278
 C173 C 0.68104 0.50911 0.41750
 C174 C 0.63156 0.50514 0.44008
 C175 C 0.11638 0.50992 0.31612
 C176 C 0.16536 0.51458 0.34128
 C177 C 0.22438 0.51468 0.36797
 C178 C 0.27508 0.51206 0.38962
 C179 C 0.33439 0.50746 0.41510
 C180 C 0.38427 0.50382 0.43837
 C181 C 0.90698 0.50883 0.68001
 C182 C 0.85688 0.51700 0.65952
 C183 C 0.79618 0.51928 0.63904
 C184 C 0.74393 0.51694 0.62263
 C185 C 0.68326 0.51135 0.60257
 C186 C 0.63249 0.50641 0.58244
 C187 C 0.11790 0.50805 0.68850
 C188 C 0.16728 0.51495 0.66714
 C189 C 0.22672 0.51658 0.64473
 C190 C 0.27778 0.51427 0.62633
 C191 C 0.33705 0.50919 0.60399
 C192 C 0.38665 0.50489 0.58245
 C193 C 0.50777 0.68147 0.12425
 C194 C 0.51506 0.65946 0.17303
 C195 C 0.51774 0.63644 0.23176
 C196 C 0.51656 0.61762 0.28231
 C197 C 0.51289 0.59492 0.34101
 C198 C 0.50966 0.57318 0.39018
 C199 C 0.50876 0.67377 0.90525
 C200 C 0.51727 0.65252 0.85600
 C201 C 0.52076 0.63133 0.79615
 C202 C 0.51977 0.61443 0.74443
 C203 C 0.51581 0.59392 0.68428
 C204 C 0.51200 0.57350 0.63394
 C205 C 0.50832 0.31939 0.11519
 C206 C 0.51509 0.34169 0.16513
 C207 C 0.51718 0.36542 0.22521
 C208 C 0.51600 0.38489 0.27662
 C209 C 0.51278 0.40826 0.33668
 C210 C 0.50996 0.43017 0.38700
 C211 C 0.50866 0.32393 0.90387
 C212 C 0.51632 0.34605 0.85483
 C213 C 0.51913 0.36931 0.79538
 C214 C 0.51828 0.38822 0.74429
 C215 C 0.51511 0.41082 0.68453
 C216 C 0.51204 0.43204 0.63448
 C217 C 0.67012 0.89609 0.50155
 C218 C 0.65174 0.84657 0.51216
 C219 C 0.63327 0.78656 0.51821
 C220 C 0.61812 0.73474 0.51923
 C221 C 0.59900 0.67454 0.51714
 C222 C 0.57927 0.62425 0.51441
 C223 C 0.67617 0.11115 0.50358
 C224 C 0.65731 0.16084 0.51327
 C225 C 0.63793 0.22068 0.51830
 C226 C 0.62180 0.27215 0.51858
 C227 C 0.60147 0.33175 0.51593
 C228 C 0.58079 0.38146 0.51305
 C229 C 0.32422 0.89176 0.50655
 C230 C 0.34726 0.84309 0.51408
 C231 C 0.37145 0.78420 0.51759
 C232 C 0.39110 0.73348 0.51761
 C233 C 0.41455 0.67420 0.51558
 C234 C 0.43655 0.62452 0.51339
 C235 C 0.32320 0.11163 0.50689
 C236 C 0.34648 0.16058 0.51403
 C237 C 0.37097 0.21962 0.51701
 C238 C 0.39086 0.27036 0.51662
 C239 C 0.41454 0.32963 0.51425
 C240 C 0.43666 0.37934 0.51202
   
