data_POSCAR
  _audit_creation_date              2014-09-24
  _audit_creation_method            'ToBaCCo'
  _symmetry_space_group_name_H-M    'P1'
  _symmetry_Int_Tables_number       1
  _symmetry_cell_setting            triclinic
  loop_
  _symmetry_equiv_pos_as_xyz
 x,y,z
_cell_length_a 46.2242
_cell_length_b 46.8691
_cell_length_c 46.0809
_cell_angle_alpha 89.961000
_cell_angle_beta 90.033600
_cell_angle_gamma 89.939300
loop_
  _atom_site_label
  _atom_site_type_symbol
  _atom_site_fract_x
  _atom_site_fract_y
  _atom_site_fract_z
N1 N 0.14069 0.16495 0.22022
 N2 N 0.15786 0.14279 0.21760
 C3 C 0.15290 0.12462 0.23966
 C4 C 0.13163 0.13623 0.25743
 C5 C 0.12453 0.16200 0.24429
 H6 H 0.16444 0.10477 0.24273
 H7 H 0.10808 0.17706 0.25091
 Cu8 Cu 0.18529 0.13995 0.18571
 Cu9 Cu 0.13894 0.19426 0.19043
 Cu10 Cu 0.20439 0.20284 0.15520
 N11 N 0.21865 0.14336 0.16043
 N12 N 0.22707 0.16800 0.14976
 C13 C 0.25195 0.16417 0.13501
 C14 C 0.25930 0.13536 0.13604
 C15 C 0.23743 0.12295 0.15240
 H16 H 0.26329 0.18106 0.12381
 H17 H 0.23567 0.10089 0.15899
 N18 N 0.17304 0.23180 0.15400
 N19 N 0.14776 0.22767 0.16664
 C20 C 0.12948 0.24859 0.15888
 C21 C 0.14384 0.26701 0.14052
 C22 C 0.17153 0.25591 0.13798
 H23 H 0.10699 0.24976 0.16521
 H24 H 0.18848 0.26358 0.12383
 H25 H 0.16710 0.17980 0.15720
 H26 H 0.18246 0.19142 0.19289
 N27 N -0.14101 0.83227 0.22031
 N28 N -0.15395 0.85649 0.21406
 C29 C -0.14734 0.87588 0.23458
 C30 C -0.12968 0.86288 0.25495
 C31 C -0.12616 0.83521 0.24523
 H32 H -0.15538 0.89756 0.23508
 H33 H -0.11331 0.81864 0.25530
 Cu34 Cu -0.17970 0.85999 0.18078
 Cu35 Cu -0.14301 0.79943 0.19474
 Cu36 Cu -0.19785 0.79987 0.14427
 N37 N -0.21418 0.85775 0.15666
 N38 N -0.22221 0.83391 0.14403
 C39 C -0.24752 0.83827 0.13022
 C40 C -0.25576 0.86657 0.13405
 C41 C -0.23383 0.87821 0.15096
 H42 H -0.25848 0.82219 0.11753
 H43 H -0.23249 0.89971 0.15930
 N44 N -0.17005 0.76804 0.14789
 N45 N -0.14858 0.76840 0.16676
 C46 C -0.13134 0.74575 0.16205
 C47 C -0.14253 0.73021 0.13919
 C48 C -0.16722 0.74484 0.13083
 H49 H -0.11166 0.74126 0.17390
 H50 H -0.18108 0.73984 0.11262
 H51 H -0.15962 0.81848 0.15679
 H52 H -0.18641 0.80924 0.18615
 N53 N -0.13881 0.15803 -0.21789
 N54 N -0.15783 0.13737 -0.21530
 C55 C -0.15420 0.11870 -0.23717
 C56 C -0.13187 0.12837 -0.25457
 C57 C -0.12260 0.15343 -0.24170
 H58 H -0.16699 0.09963 -0.24030
 H59 H -0.10494 0.16691 -0.24869
 Cu60 Cu -0.18557 0.13676 -0.18358
 Cu61 Cu -0.13572 0.18797 -0.18875
 Cu62 Cu -0.20176 0.20142 -0.15606
 N63 N -0.21875 0.14254 -0.15848
 N64 N -0.22597 0.16799 -0.14902
 C65 C -0.25101 0.16609 -0.13422
 C66 C -0.25975 0.13768 -0.13386
 C67 C -0.23850 0.12344 -0.14953
 H68 H -0.26152 0.18404 -0.12393
 H69 H -0.23785 0.10105 -0.15505
 N70 N -0.16904 0.22868 -0.15523
 N71 N -0.14352 0.22282 -0.16661
 C72 C -0.12477 0.24360 -0.15960
 C73 C -0.13914 0.26369 -0.14303
 C74 C -0.16724 0.25365 -0.14083
 H75 H -0.10219 0.24385 -0.16573
 H76 H -0.18459 0.26297 -0.12825
 H77 H -0.16559 0.17636 -0.15589
 H78 H -0.17902 0.18769 -0.19242
 N79 N 0.13660 0.84364 -0.21197
 N80 N 0.15754 0.86256 -0.21282
 C81 C 0.15443 0.87883 -0.23669
 C82 C 0.13030 0.86944 -0.25176
 C83 C 0.11949 0.84708 -0.23536
 H84 H 0.16900 0.89580 -0.24294
 H85 H 0.10056 0.83431 -0.23997
 Cu86 Cu 0.18712 0.86374 -0.18280
 Cu87 Cu 0.13357 0.81618 -0.18030
 Cu88 Cu 0.20114 0.80029 -0.15187
 N89 N 0.22034 0.85827 -0.15764
 N90 N 0.22663 0.83314 -0.14665
 C91 C 0.25169 0.83500 -0.13185
 C92 C 0.26140 0.86308 -0.13304
 C93 C 0.24073 0.87714 -0.14970
 H94 H 0.26148 0.81730 -0.12042
 H95 H 0.24078 0.89924 -0.15637
 N96 N 0.16731 0.77459 -0.14828
 N97 N 0.14122 0.78169 -0.15748
 C98 C 0.12222 0.76149 -0.14940
 C99 C 0.13709 0.74042 -0.13461
 C100 C 0.16566 0.74931 -0.13440
 H101 H 0.09932 0.76194 -0.15420
 H102 H 0.18364 0.73872 -0.12390
 H103 H 0.16684 0.82744 -0.15079
 H104 H 0.17634 0.81291 -0.18728
 N105 N 0.15587 1.13847 0.78709
 N106 N 0.14243 1.16222 0.78005
 C107 C 0.12848 1.15853 0.75473
 C108 C 0.13299 1.13078 0.74568
 C109 C 0.15027 1.11851 0.76684
 H110 H 0.11577 1.17472 0.74386
 H111 H 0.15904 1.09710 0.76691
 Cu112 Cu 0.14359 1.19532 0.80516
 Cu113 Cu 0.18166 1.13673 0.82066
 Cu114 Cu 0.20542 1.20408 0.84137
 N115 N 0.14932 1.22775 0.83051
 N116 N 0.17424 1.23210 0.84352
 C117 C 0.17265 1.25635 0.85910
 C118 C 0.14497 1.26726 0.85620
 C119 C 0.13074 1.24855 0.83794
 H120 H 0.18980 1.26456 0.87271
 H121 H 0.10849 1.24991 0.83077
 N122 N 0.22704 1.16878 0.84962
 N123 N 0.21703 1.14308 0.84359
 C124 C 0.23571 1.12343 0.85377
 C125 C 0.25868 1.13749 0.86667
 C126 C 0.25245 1.16621 0.86359
 H127 H 0.23315 1.10063 0.85126
 H128 H 0.26510 1.18396 0.87156
 H129 H 0.17336 1.17470 0.84359
 H130 H 0.19264 1.17641 0.80807
 N131 N 0.82870 0.84531 0.76786
 N132 N 0.85139 0.82883 0.77198
 C133 C 0.87126 0.83447 0.75145
 C134 C 0.86035 0.85544 0.73339
 C135 C 0.83324 0.86175 0.74433
 H136 H 0.89217 0.82425 0.74976
 H137 H 0.81854 0.87802 0.73656
 Cu138 Cu 0.85230 0.80157 0.80368
 Cu139 Cu 0.79659 0.84677 0.79533
 Cu140 Cu 0.79950 0.79900 0.85304
 N141 N 0.85324 0.77378 0.83493
 N142 N 0.83174 0.77222 0.85352
 C143 C 0.83626 0.75010 0.87157
 C144 C 0.86212 0.73726 0.86405
 C145 C 0.87240 0.75288 0.84078
 H146 H 0.82182 0.74381 0.88888
 H147 H 0.89183 0.74862 0.82845
 N148 N 0.76877 0.82776 0.84857
 N149 N 0.76683 0.84506 0.82601
 C150 C 0.74419 0.86279 0.82999
 C151 C 0.73171 0.85660 0.85649
 C152 C 0.74778 0.83431 0.86764
 H153 H 0.73835 0.88016 0.81568
 H154 H 0.74482 0.82420 0.88852
 H155 H 0.81951 0.83212 0.83080
 H156 H 0.79998 0.80494 0.80865
 N157 N 0.16383 0.85224 1.21885
 N158 N 0.13883 0.84047 1.21241
 C159 C 0.11937 0.84732 1.23300
 C160 C 0.13304 0.86406 1.25359
 C161 C 0.16123 0.86671 1.24390
 H162 H 0.09715 0.84011 1.23333
 H163 H 0.17834 0.87895 1.25394
 Cu164 Cu 0.13446 0.81577 1.17888
 Cu165 Cu 0.19714 0.85030 1.19310
 Cu166 Cu 0.19043 0.80588 1.13377
 N167 N 0.13731 0.78215 1.15427
 N168 N 0.16020 0.77751 1.13802
 C169 C 0.15730 0.75231 1.12438
 C170 C 0.13104 0.74070 1.13235
 C171 C 0.11876 0.76022 1.15117
 H172 H 0.17269 0.74354 1.10912
 H173 H 0.09810 0.75843 1.16203
 N174 N 0.22429 0.83022 1.14002
 N175 N 0.22763 0.84600 1.16348
 C176 C 0.25262 0.86059 1.16123
 C177 C 0.26535 0.85386 1.13495
 C178 C 0.24680 0.83454 1.12207
 H179 H 0.26014 0.87630 1.17665
 H180 H 0.24926 0.82477 1.10096
 H181 H 0.17443 0.84180 1.15607
 H182 H 0.18670 0.81028 1.17776
 N183 N 0.83254 1.15426 1.23095
 N184 N 0.84908 1.17696 1.23302
 C185 C 0.86795 1.17326 1.25500
 C186 C 0.86315 1.14663 1.26703
 C187 C 0.84057 1.13516 1.25120
 H188 H 0.88435 1.18848 1.26133
 H189 H 0.83050 1.11459 1.25447
 Cu190 Cu 0.84518 1.20860 1.20608
 Cu191 Cu 0.80134 1.15150 1.20279
 Cu192 Cu 0.79890 1.20359 1.14965
 N193 N 0.84724 1.23433 1.17310
 N194 N 0.82843 1.23309 1.15173
 C195 C 0.83446 1.25373 1.13234
 C196 C 0.85863 1.26834 1.14186
 C197 C 0.86625 1.25541 1.16775
 H198 H 0.82278 1.25726 1.11231
 H199 H 0.88421 1.26100 1.18167
 N200 N 0.77105 1.17185 1.15158
 N201 N 0.77145 1.15252 1.17243
 C202 C 0.74938 1.13425 1.16839
 C203 C 0.73471 1.14218 1.14356
 C204 C 0.74904 1.16601 1.13336
 H205 H 0.74466 1.11609 1.18207
 H206 H 0.74357 1.17832 1.11427
 H207 H 0.82419 1.17480 1.17221
 H208 H 0.79598 1.19448 1.19342
 O209 O 0.46218 0.94765 0.95014
 O210 O 0.42961 0.97446 0.97602
 C211 C 0.43598 0.95479 0.95734
 O212 O 0.54373 0.95061 1.05261
 O213 O 0.57418 0.97947 1.02641
 C214 C 0.56930 0.95985 1.04561
 O215 O 0.46235 0.94617 1.05081
 O216 O 0.42959 0.97228 1.02428
 C217 C 0.43613 0.95265 1.04303
 O218 O 0.54334 0.95428 0.94672
 O219 O 0.57404 0.97958 0.97620
 C220 C 0.56900 0.96185 0.95523
 Zr221 Zr 0.50224 0.96545 0.96369
 O222 O 0.50760 0.92062 0.96222
 O223 O 0.49859 0.96678 0.91791
 Zr224 Zr 0.50240 0.96348 1.03710
 O225 O 0.50693 0.91855 1.03566
 O226 O 0.49962 0.96230 1.08295
 O227 O 0.47678 0.95795 1.00024
 O228 O 0.52759 0.96018 1.00027
 O229 O 0.53989 1.05348 0.95029
 O230 O 0.57240 1.02687 0.97657
 C231 C 0.56608 1.04607 0.95734
 O232 O 0.45813 1.05039 1.05248
 O233 O 0.42775 1.02136 1.02645
 C234 C 0.43254 1.04145 1.04513
 O235 O 0.53962 1.04954 1.05627
 O236 O 0.57222 1.02671 1.02672
 C237 C 0.56580 1.04383 1.04783
 O238 O 0.45836 1.05292 0.95300
 O239 O 0.42767 1.02334 0.97798
 C240 C 0.43265 1.04418 0.96013
 Zr241 Zr 0.49963 1.03761 0.96563
 O242 O 0.50110 1.08274 0.96597
 O243 O 0.49642 1.03781 0.91979
 Zr244 Zr 0.49950 1.03564 1.03902
 O245 O 0.50150 1.08075 1.04027
 O246 O 0.49583 1.03431 1.08479
 Zr247 Zr 0.45807 0.99897 1.00128
 Zr248 Zr 0.54382 1.00210 1.00143
 O249 O 0.52444 1.04274 1.00253
 O250 O 0.47362 1.04126 1.00242
 O251 O 0.52669 1.00259 0.95901
 O252 O 0.47589 0.99851 1.04332
 O253 O 0.47585 1.00080 0.95929
 O254 O 0.52669 1.00036 1.04379
 H255 H 0.54133 0.94394 0.99984
 H256 H 0.46278 0.99767 1.06030
 H257 H 0.53690 1.05992 1.00303
 H258 H 0.46264 1.00082 0.94234
 H259 H 0.51584 0.97373 1.09072
 H260 H 0.51190 1.02239 1.09217
 H261 H 0.48518 1.08814 1.02859
 H262 H 0.48578 1.08942 0.97931
 H263 H 0.51407 1.02863 0.91203
 H264 H 0.51396 0.97958 0.91062
 H265 H 0.49246 0.91213 0.97468
 H266 H 0.49054 0.91093 1.02425
 O267 O 0.05176 0.54065 -0.05360
 O268 O 0.02409 0.57084 -0.02600
 C269 C 0.04364 0.56600 -0.04558
 O270 O -0.05164 0.45864 -0.05331
 O271 O -0.02272 0.42731 -0.02831
 C272 C -0.04340 0.43299 -0.04648
 O273 O -0.05035 0.53887 -0.05465
 O274 O -0.02394 0.57009 -0.02683
 C275 C -0.04291 0.56442 -0.04674
 O276 O 0.05577 0.46049 -0.05236
 O277 O 0.02755 0.42829 -0.02781
 C278 C 0.04824 0.43459 -0.04568
 Zr279 Zr 0.03783 0.50001 -0.03895
 O280 O 0.03675 0.49771 -0.08483
 O281 O 0.08343 0.50387 -0.03990
 Zr282 Zr -0.03520 0.49871 -0.03981
 O283 O -0.03273 0.49638 -0.08564
 O284 O -0.08084 0.50109 -0.04228
 O285 O 0.00089 0.52501 -0.04452
 O286 O 0.00183 0.47458 -0.04518
 O287 O 0.05457 0.45824 0.04697
 O288 O 0.02712 0.42729 0.02002
 C289 C 0.04725 0.43267 0.03882
 O290 O -0.05182 0.53668 0.04964
 O291 O -0.02481 0.56905 0.02381
 C292 C -0.04434 0.56255 0.04291
 O293 O -0.05224 0.45669 0.04584
 O294 O -0.02254 0.42646 0.02037
 C295 C -0.04332 0.43142 0.03855
 O296 O 0.05035 0.53869 0.05139
 O297 O 0.02322 0.56980 0.02420
 C298 C 0.04217 0.56430 0.04418
 Zr299 Zr 0.03714 0.49852 0.03459
 O300 O 0.03564 0.49438 0.08032
 O301 O 0.08273 0.50245 0.03613
 Zr302 Zr -0.03603 0.49725 0.03365
 O303 O -0.03492 0.49342 0.07943
 O304 O -0.08177 0.49936 0.03445
 Zr305 Zr 0.00011 0.54098 -0.00177
 Zr306 Zr 0.00171 0.45633 -0.00347
 O307 O 0.00098 0.47300 0.03891
 O308 O -0.00002 0.52326 0.04030
 O309 O 0.04363 0.47405 -0.00263
 O310 O -0.04139 0.52256 -0.00267
 O311 O 0.04230 0.52402 -0.00161
 O312 O -0.04085 0.47255 -0.00362
 H313 H 0.00221 0.46170 -0.06222
 H314 H -0.05874 0.53499 -0.00267
 H315 H 0.00115 0.45962 0.05557
 H316 H 0.05913 0.53707 -0.00111
 H317 H -0.08865 0.48738 -0.02799
 H318 H -0.08910 0.48476 0.02084
 H319 H -0.02568 0.51085 0.08722
 H320 H 0.02460 0.51083 0.08795
 H321 H 0.09090 0.48777 0.02309
 H322 H 0.09132 0.48979 -0.02599
 H323 H 0.02671 0.51500 -0.09199
 H324 H -0.02374 0.51426 -0.09260
 O325 O 1.05515 -0.05338 0.53833
 O326 O 1.02822 -0.02762 0.57100
 C327 C 1.04792 -0.04622 0.56457
 O328 O 1.05157 0.05196 0.45937
 O329 O 1.02574 0.02444 0.42735
 C330 C 1.04408 0.04445 0.43331
 O331 O 1.05548 0.04724 0.54088
 O332 O 1.02832 0.02035 0.57225
 C333 C 1.04814 0.03913 0.56684
 O334 O 1.05212 -0.05273 0.45668
 O335 O 1.02492 -0.02499 0.42592
 C336 C 1.04389 -0.04479 0.43093
 Zr337 Zr 1.03898 -0.03794 0.49810
 O338 O 1.08464 -0.03733 0.49463
 O339 O 1.03918 -0.08308 0.49974
 Zr340 Zr 1.03917 0.03423 0.49989
 O341 O 1.08479 0.03299 0.49591
 O342 O 1.04043 0.07917 0.50427
 O343 O 1.04521 -0.00251 0.52482
 O344 O 1.04396 -0.00124 0.47371
 O345 O 0.95219 -0.05326 0.45799
 O346 O 0.97749 -0.02462 0.42667
 C347 C 0.95928 -0.04495 0.43203
 O348 O 0.95090 0.04744 0.54255
 O349 O 0.97834 0.01963 0.57304
 C350 C 0.95851 0.03860 0.56820
 O351 O 0.95311 0.05272 0.46084
 O352 O 0.97742 0.02484 0.42792
 C353 C 0.95976 0.04536 0.43449
 O354 O 0.94962 -0.05168 0.53977
 O355 O 0.97869 -0.02730 0.57159
 C356 C 0.95821 -0.04526 0.56581
 Zr357 Zr 0.96559 -0.03750 0.49906
 O358 O 0.91989 -0.03628 0.49601
 O359 O 0.96445 -0.08257 0.50152
 Zr360 Zr 0.96584 0.03441 0.50096
 O361 O 0.92014 0.03277 0.49800
 O362 O 0.96390 0.07929 0.50546
 Zr363 Zr 1.00321 -0.00278 0.54250
 Zr364 Zr 1.00180 -0.00069 0.45646
 O365 O 0.96010 -0.00087 0.47473
 O366 O 0.96060 -0.00218 0.52603
 O367 O 1.00191 -0.04274 0.47272
 O368 O 1.00289 0.03895 0.52562
 O369 O 1.00260 -0.04359 0.52350
 O370 O 1.00216 0.04054 0.47481
 H371 H 1.06065 -0.00092 0.46023
 H372 H 1.00304 0.05543 0.53908
 H373 H 0.94318 -0.00046 0.46153
 H374 H 1.00259 -0.06073 0.53610
 H375 H 1.02723 0.08729 0.48951
 H376 H 0.97853 0.08742 0.49221
 H377 H 0.91284 0.02370 0.51595
 H378 H 0.91261 -0.02554 0.51298
 H379 H 0.97776 -0.08996 0.48651
 H380 H 1.02696 -0.09001 0.48360
 H381 H 1.09224 -0.02701 0.51173
 H382 H 1.09245 0.02242 0.51285
 C383 C 1.09480 0.10043 0.33367
 C384 C 1.11047 0.08310 0.31408
 C385 C 1.12344 0.09526 0.28945
 C386 C 1.11950 0.12432 0.28276
 C387 C 1.10265 0.14107 0.30164
 C388 C 1.09079 0.12944 0.32687
 C389 C 1.08219 0.08684 0.36024
 C390 C 1.06964 0.10270 0.38301
 C391 C 1.05779 0.08891 0.40713
 C392 C 1.05766 0.05911 0.40870
 C393 C 1.07054 0.04311 0.38654
 C394 C 1.08354 0.05676 0.36280
 C395 C 1.11226 0.05358 0.31864
 C396 C 1.09839 0.04060 0.34203
 H397 H 1.12393 0.04019 0.30345
 H398 H 1.09979 0.01761 0.34421
 H399 H 1.13546 0.08156 0.27487
 H400 H 1.09900 0.16350 0.29746
 H401 H 1.04815 0.10150 0.42430
 H402 H 1.07100 0.02001 0.38818
 H403 H 1.07808 0.14336 0.34047
 H404 H 1.06911 0.12572 0.38274
 C405 C 0.90731 -0.10056 0.33212
 C406 C 0.90562 -0.08442 0.30617
 C407 C 0.89273 -0.09620 0.28130
 C408 C 0.88280 -0.12443 0.28142
 C409 C 0.88558 -0.14079 0.30672
 C410 C 0.89742 -0.12899 0.33187
 C411 C 0.92029 -0.08685 0.35847
 C412 C 0.92019 -0.09982 0.38610
 C413 C 0.93261 -0.08612 0.40997
 C414 C 0.94576 -0.05934 0.40687
 C415 C 0.94582 -0.04622 0.37946
 C416 C 0.93268 -0.05941 0.35553
 C417 C 0.91750 -0.05698 0.30496
 C418 C 0.93136 -0.04503 0.32891
 H419 H 0.91658 -0.04475 0.28500
 H420 H 0.94079 -0.02399 0.32667
 H421 H 0.89129 -0.08372 0.26152
 H422 H 0.87822 -0.16272 0.30715
 H423 H 0.93217 -0.09668 0.43088
 H424 H 0.95564 -0.02540 0.37681
 H425 H 0.89906 -0.14259 0.35069
 H426 H 0.91029 -0.12033 0.38980
 C427 C 0.90405 0.08731 0.67006
 C428 C 0.90205 0.11743 0.67134
 C429 C 0.89075 0.13074 0.69621
 C430 C 0.88012 0.11440 0.71936
 C431 C 0.88082 0.08458 0.71746
 C432 C 0.89283 0.07114 0.69326
 C433 C 0.91763 0.07398 0.64382
 C434 C 0.92386 0.04460 0.64201
 C435 C 0.93706 0.03328 0.61735
 C436 C 0.94385 0.05081 0.59369
 C437 C 0.93771 0.08006 0.59512
 C438 C 0.92539 0.09187 0.62029
 C439 C 0.91086 0.13401 0.64764
 C440 C 0.92168 0.12146 0.62242
 H441 H 0.90900 0.15705 0.64843
 H442 H 0.92787 0.13521 0.60455
 H443 H 0.88961 0.15382 0.69728
 H444 H 0.87255 0.07156 0.73502
 H445 H 0.94185 0.01064 0.61668
 H446 H 0.94358 0.09376 0.57709
 H447 H 0.89284 0.04813 0.69303
 H448 H 0.91931 0.03010 0.65961
 C449 C 1.09706 -0.09827 0.66714
 C450 C 1.11246 -0.08014 0.68626
 C451 C 1.12362 -0.09094 0.71242
 C452 C 1.11887 -0.11942 0.72044
 C453 C 1.10298 -0.13715 0.70185
 C454 C 1.09233 -0.12683 0.67548
 C455 C 1.08570 -0.08595 0.63931
 C456 C 1.07174 -0.10251 0.61789
 C457 C 1.06045 -0.08969 0.59291
 C458 C 1.06263 -0.06020 0.58894
 C459 C 1.07735 -0.04368 0.60944
 C460 C 1.08919 -0.05633 0.63436
 C461 C 1.11612 -0.05123 0.67948
 C462 C 1.10440 -0.03950 0.65428
 H463 H 1.12778 -0.03731 0.69416
 H464 H 1.10742 -0.01692 0.65025
 H465 H 1.13538 -0.07690 0.72691
 H466 H 1.09904 -0.15923 0.70752
 H467 H 1.04916 -0.10269 0.57711
 H468 H 1.07960 -0.02095 0.60586
 H469 H 1.08019 -0.14144 0.66215
 H470 H 1.06919 -0.12527 0.62006
 C471 C 0.33172 1.09328 1.09840
 C472 C 0.33119 1.12337 1.10051
 C473 C 0.30690 1.13729 1.11231
 C474 C 0.28345 1.12158 1.12355
 C475 C 0.28484 1.09159 1.12240
 C476 C 0.30840 1.07769 1.10987
 C477 C 0.35747 1.07927 1.08467
 C478 C 0.35851 1.04984 1.07847
 C479 C 0.38293 1.03778 1.06561
 C480 C 0.40711 1.05459 1.05905
 C481 C 0.40632 1.08394 1.06489
 C482 C 0.38141 1.09649 1.07695
 C483 C 0.35519 1.13933 1.09149
 C484 C 0.38000 1.12614 1.08058
 H485 H 0.35502 1.16238 1.09338
 H486 H 0.39816 1.13941 1.07436
 H487 H 0.30690 1.16035 1.11355
 H488 H 0.26745 1.07848 1.13061
 H489 H 0.38304 1.01511 1.06099
 H490 H 0.42471 1.09713 1.05916
 H491 H 0.30806 1.05468 1.10976
 H492 H 0.34054 1.03585 1.08290
 C493 C 0.33714 0.89865 0.90503
 C494 C 0.31497 0.91652 0.89415
 C495 C 0.29035 0.90461 0.88109
 C496 C 0.28647 0.87483 0.87976
 C497 C 0.30805 0.85722 0.89181
 C498 C 0.33310 0.86889 0.90399
 C499 C 0.36352 0.91232 0.91795
 C500 C 0.38823 0.89672 0.92651
 C501 C 0.41212 0.91057 0.93872
 C502 C 0.41164 0.94012 0.94315
 C503 C 0.38746 0.95588 0.93423
 C504 C 0.36379 0.94237 0.92110
 C505 C 0.31712 0.94621 0.89696
 C506 C 0.34071 0.95881 0.91069
 H507 H 0.30001 0.95992 0.88889
 H508 H 0.34112 0.98184 0.91275
 H509 H 0.27380 0.91886 0.87290
 H510 H 0.30608 0.83423 0.89142
 H511 H 0.43075 0.89811 0.94531
 H512 H 0.38738 0.97885 0.93697
 H513 H 0.34886 0.85428 0.91283
 H514 H 0.38962 0.87391 0.92369
 C515 C 0.67036 0.90878 1.09934
 C516 C 0.67186 0.87865 1.09959
 C517 C 0.69653 0.86482 1.11065
 C518 C 0.71947 0.88048 1.12294
 C519 C 0.71702 0.91040 1.12397
 C520 C 0.69303 0.92435 1.11215
 C521 C 0.64438 0.92275 1.08592
 C522 C 0.64251 0.95241 1.08116
 C523 C 0.61805 0.96433 1.06811
 C524 C 0.59463 0.94710 1.06007
 C525 C 0.59619 0.91758 1.06463
 C526 C 0.62117 0.90523 1.07673
 C527 C 0.64851 0.86249 1.08933
 C528 C 0.62345 0.87549 1.07878
 H529 H 0.64943 0.83938 1.08986
 H530 H 0.60585 0.86203 1.07147
 H531 H 0.69724 0.84173 1.11036
 H532 H 0.73395 0.92344 1.13324
 H533 H 0.61731 0.98717 1.06445
 H534 H 0.57841 0.90413 1.05770
 H535 H 0.69253 0.94732 1.11353
 H536 H 0.65993 0.96668 1.08677
 C537 C 0.66479 1.10188 0.90442
 C538 C 0.68783 1.08414 0.89534
 C539 C 0.71242 1.09609 0.88225
 C540 C 0.71535 1.12585 0.87916
 C541 C 0.69293 1.14341 0.88958
 C542 C 0.66793 1.13164 0.90174
 C543 C 0.63844 1.08813 0.91729
 C544 C 0.61298 1.10340 0.92393
 C545 C 0.58919 1.08958 0.93630
 C546 C 0.59044 1.06041 0.94280
 C547 C 0.61540 1.04489 0.93574
 C548 C 0.63904 1.05835 0.92245
 C549 C 0.68655 1.05462 0.90000
 C550 C 0.66298 1.04209 0.91387
 H551 H 0.70433 1.04103 0.89335
 H552 H 0.66328 1.01924 0.91749
 H553 H 0.72965 1.08196 0.87541
 H554 H 0.69417 1.16639 0.88783
 H555 H 0.56999 1.10186 0.94143
 H556 H 0.61617 1.02216 0.94013
 H557 H 0.65148 1.14622 0.90924
 H558 H 0.61094 1.12592 0.91948
 C559 C 0.10290 0.33544 0.09372
 C560 C 0.13063 0.33953 0.10611
 C561 C 0.14462 0.31677 0.12038
 C562 C 0.13054 0.29050 0.12386
 C563 C 0.10274 0.28687 0.11236
 C564 C 0.08915 0.30888 0.09730
 C565 C 0.08878 0.35995 0.07837
 C566 C 0.06278 0.35704 0.06277
 C567 C 0.04987 0.38059 0.04965
 C568 C 0.06221 0.40784 0.05196
 C569 C 0.08871 0.41084 0.06663
 C570 C 0.10233 0.38699 0.07931
 C571 C 0.14364 0.36652 0.10505
 C572 C 0.12951 0.38988 0.09253
 H573 H 0.16474 0.36983 0.11473
 H574 H 0.14017 0.41046 0.09292
 H575 H 0.16588 0.31982 0.12983
 H576 H 0.09146 0.26677 0.11493
 H577 H 0.02987 0.37740 0.03785
 H578 H 0.09892 0.43162 0.06786
 H579 H 0.06762 0.30484 0.08927
 H580 H 0.05218 0.33672 0.06014
 C581 C -0.10174 0.33734 -0.10145
 C582 C -0.08515 0.31231 -0.10581
 C583 C -0.09740 0.28863 -0.11981
 C584 C -0.12643 0.28897 -0.12868
 C585 C -0.14321 0.31332 -0.12334
 C586 C -0.13103 0.33732 -0.11010
 C587 C -0.08745 0.36252 -0.08733
 C588 C -0.10106 0.38929 -0.08443
 C589 C -0.08668 0.41211 -0.07130
 C590 C -0.05854 0.40876 -0.06037
 C591 C -0.04479 0.38221 -0.06320
 C592 C -0.05875 0.35936 -0.07705
 C593 C -0.05660 0.31082 -0.09574
 C594 C -0.04389 0.33364 -0.08118
 H595 H -0.04398 0.29156 -0.09881
 H596 H -0.02191 0.33125 -0.07343
 H597 H -0.08446 0.26961 -0.12316
 H598 H -0.16572 0.31397 -0.12983
 H599 H -0.09775 0.43241 -0.06946
 H600 H -0.02290 0.37952 -0.05524
 H601 H -0.14494 0.35548 -0.10659
 H602 H -0.12262 0.39317 -0.09250
 C603 C 0.10037 0.66460 -0.09689
 C604 C 0.08529 0.69087 -0.09569
 C605 C 0.09724 0.71537 -0.10846
 C606 C 0.12474 0.71451 -0.12125
 C607 C 0.14033 0.68887 -0.12111
 C608 C 0.12824 0.66410 -0.10934
 C609 C 0.08622 0.63864 -0.08421
 C610 C 0.09774 0.61096 -0.08722
 C611 C 0.08371 0.58746 -0.07500
 C612 C 0.05804 0.59093 -0.05913
 C613 C 0.04637 0.61845 -0.05611
 C614 C 0.05978 0.64208 -0.06913
 C615 C 0.05869 0.69266 -0.08124
 C616 C 0.04658 0.66895 -0.06762
 H617 H 0.04730 0.71285 -0.07998
 H618 H 0.02624 0.67158 -0.05623
 H619 H 0.08541 0.73536 -0.10783
 H620 H 0.16171 0.68784 -0.13067
 H621 H 0.09323 0.56651 -0.07774
 H622 H 0.02658 0.62151 -0.04391
 H623 H 0.14115 0.64493 -0.10990
 H624 H 0.11733 0.60696 -0.09927
 C625 C -0.10378 0.65698 0.09807
 C626 C -0.08630 0.67810 0.11125
 C627 C -0.09917 0.70158 0.12505
 C628 C -0.12932 0.70504 0.12509
 C629 C -0.14658 0.68466 0.11117
 C630 C -0.13406 0.66080 0.09798
 C631 C -0.08915 0.63187 0.08418
 C632 C -0.10448 0.60838 0.07285
 C633 C -0.08978 0.58566 0.05988
 C634 C -0.05959 0.58606 0.05749
 C635 C -0.04407 0.60896 0.06914
 C636 C -0.05853 0.63155 0.08293
 C637 C -0.05609 0.67600 0.11010
 C638 C -0.04251 0.65347 0.09584
 H639 H -0.04270 0.69228 0.12002
 H640 H -0.01909 0.65298 0.09530
 H641 H -0.08558 0.71761 0.13511
 H642 H -0.16989 0.68699 0.11079
 H643 H -0.10206 0.56793 0.05120
 H644 H -0.02070 0.60878 0.06814
 H645 H -0.14840 0.64583 0.08757
 H646 H -0.12774 0.60702 0.07401
 C647 C 1.10042 0.09306 0.66723
 C648 C 1.10133 0.07704 0.69329
 C649 C 1.11299 0.08913 0.71860
 C650 C 1.12225 0.11758 0.71875
 C651 C 1.12037 0.13375 0.69325
 C652 C 1.10987 0.12163 0.66770
 C653 C 1.08827 0.07927 0.64058
 C654 C 1.08923 0.09219 0.61296
 C655 C 1.07675 0.07884 0.58895
 C656 C 1.06272 0.05250 0.59193
 C657 C 1.06221 0.03921 0.61924
 C658 C 1.07550 0.05200 0.64330
 C659 C 1.08965 0.04949 0.69417
 C660 C 1.07633 0.03753 0.66991
 H661 H 1.09006 0.03729 0.71416
 H662 H 1.06685 0.01648 0.67191
 H663 H 1.11379 0.07679 0.73850
 H664 H 1.12731 0.15582 0.69301
 H665 H 1.07759 0.08948 0.56809
 H666 H 1.05160 0.01875 0.62180
 H667 H 1.10874 0.13514 0.64878
 H668 H 1.09966 0.11246 0.60941
 C669 C 0.90441 -0.10283 0.66304
 C670 C 0.87415 -0.10721 0.66174
 C671 C 0.85977 -0.12044 0.68498
 C672 C 0.87535 -0.13053 0.70901
 C673 C 0.90546 -0.12727 0.70967
 C674 C 0.91984 -0.11346 0.68711
 C675 C 0.91881 -0.08764 0.63839
 C676 C 0.94811 -0.07946 0.63914
 C677 C 0.96063 -0.06550 0.61559
 C678 C 0.94440 -0.05966 0.59058
 C679 C 0.91511 -0.06732 0.58968
 C680 C 0.90206 -0.08065 0.61364
 C681 C 0.85857 -0.09890 0.63704
 C682 C 0.87234 -0.08646 0.61325
 H683 H 0.83544 -0.10251 0.63587
 H684 H 0.85941 -0.08083 0.59447
 H685 H 0.83654 -0.12349 0.68407
 H686 H 0.91793 -0.13497 0.72798
 H687 H 0.98326 -0.05959 0.61678
 H688 H 0.90233 -0.06224 0.57061
 H689 H 0.94304 -0.11163 0.68882
 H690 H 0.96166 -0.08328 0.65780
 C691 C 1.09715 -0.09853 0.33095
 C692 C 1.07965 -0.10246 0.30605
 C693 C 1.09126 -0.11537 0.28111
 C694 C 1.12049 -0.12338 0.28016
 C695 C 1.13798 -0.11868 0.30453
 C696 C 1.12650 -0.10659 0.32967
 C697 C 1.08383 -0.08527 0.35734
 C698 C 1.09861 -0.08286 0.38399
 C699 C 1.08541 -0.07003 0.40786
 C700 C 1.05732 -0.05896 0.40573
 C701 C 1.04220 -0.06160 0.37946
 C702 C 1.05501 -0.07514 0.35550
 C703 C 1.05093 -0.09286 0.30595
 C704 C 1.03905 -0.07902 0.32996
 H705 H 1.03757 -0.09562 0.28683
 H706 H 1.01687 -0.07158 0.32863
 H707 H 1.07776 -0.11838 0.26211
 H708 H 1.16062 -0.12464 0.30428
 H709 H 1.09742 -0.06836 0.42798
 H710 H 1.02021 -0.05362 0.37785
 H711 H 1.14109 -0.10336 0.34764
 H712 H 1.12024 -0.09099 0.38697
 C713 C 0.90647 0.10682 0.33912
 C714 C 0.89708 0.09034 0.31517
 C715 C 0.88276 0.10349 0.29188
 C716 C 0.87865 0.13312 0.29144
 C717 C 0.88923 0.14963 0.31443
 C718 C 0.90279 0.13667 0.33814
 C719 C 0.92030 0.09171 0.36425
 C720 C 0.92736 0.10553 0.39048
 C721 C 0.93996 0.09038 0.41335
 C722 C 0.94626 0.06127 0.41044
 C723 C 0.93919 0.04727 0.38454
 C724 C 0.92567 0.06206 0.36177
 C725 C 0.90234 0.06092 0.31442
 C726 C 0.91685 0.04719 0.33697
 H727 H 0.89545 0.04835 0.29593
 H728 H 0.92064 0.02444 0.33523
 H729 H 0.87527 0.09070 0.27378
 H730 H 0.88643 0.17258 0.31439
 H731 H 0.94512 0.10153 0.43327
 H732 H 0.94342 0.02463 0.38245
 H733 H 0.91040 0.15038 0.35531
 H734 H 0.92291 0.12786 0.39394
 C735 C 0.10769 0.33992 -0.10090
 C736 C 0.09166 0.31441 -0.10428
 C737 C 0.10387 0.29104 -0.11877
 C738 C 0.13242 0.29212 -0.12884
 C739 C 0.14885 0.31679 -0.12424
 C740 C 0.13660 0.34057 -0.11068
 C741 C 0.09325 0.36486 -0.08660
 C742 C 0.10594 0.39216 -0.08505
 C743 C 0.09132 0.41480 -0.07183
 C744 C 0.06390 0.41070 -0.05951
 C745 C 0.05114 0.38360 -0.06092
 C746 C 0.06525 0.36095 -0.07485
 C747 C 0.06376 0.31214 -0.09272
 C748 C 0.05112 0.33470 -0.07772
 H749 H 0.05166 0.29247 -0.09492
 H750 H 0.02972 0.33173 -0.06870
 H751 H 0.09136 0.27167 -0.12158
 H752 H 0.17106 0.31785 -0.13164
 H753 H 0.10161 0.43554 -0.07111
 H754 H 0.02981 0.38026 -0.05181
 H755 H 0.15014 0.35908 -0.10780
 H756 H 0.12689 0.39657 -0.09432
 C757 C -0.09711 0.33638 0.09781
 C758 C -0.12770 0.33509 0.09759
 C759 C -0.14200 0.31248 0.11150
 C760 C -0.12629 0.29188 0.12699
 C761 C -0.09610 0.29394 0.12837
 C762 C -0.08160 0.31575 0.11378
 C763 C -0.08261 0.36020 0.08177
 C764 C -0.05243 0.36144 0.07769
 C765 C -0.03991 0.38437 0.06307
 C766 C -0.05706 0.40674 0.05257
 C767 C -0.08715 0.40553 0.05593
 C768 C -0.10008 0.38207 0.06976
 C769 C -0.14380 0.35675 0.08417
 C770 C -0.13029 0.38010 0.07118
 H771 H -0.16723 0.35596 0.08427
 H772 H -0.14370 0.39662 0.06166
 H773 H -0.16542 0.31133 0.11099
 H774 H -0.08361 0.27833 0.14038
 H775 H -0.01665 0.38501 0.06059
 H776 H -0.10047 0.42259 0.04726
 H777 H -0.05835 0.31633 0.11563
 H778 H -0.03818 0.34484 0.08537
 C779 C -0.10000 0.66199 -0.09832
 C780 C -0.08214 0.68420 -0.10892
 C781 C -0.09463 0.70849 -0.12167
 C782 C -0.12478 0.71160 -0.12283
 C783 C -0.14241 0.69016 -0.11123
 C784 C -0.13025 0.66555 -0.09930
 C785 C -0.08586 0.63601 -0.08576
 C786 C -0.10151 0.61148 -0.07759
 C787 C -0.08736 0.58799 -0.06549
 C788 C -0.05745 0.58862 -0.06086
 C789 C -0.04154 0.61255 -0.06953
 C790 C -0.05540 0.63595 -0.08251
 C791 C -0.05202 0.68232 -0.10614
 C792 C -0.03897 0.65897 -0.09267
 H793 H -0.03833 0.69942 -0.11400
 H794 H -0.01562 0.65871 -0.09060
 H795 H -0.08089 0.72534 -0.13002
 H796 H -0.16575 0.69219 -0.11181
 H797 H -0.09990 0.56950 -0.05915
 H798 H -0.01829 0.61263 -0.06674
 H799 H -0.14488 0.64979 -0.09064
 H800 H -0.12460 0.60990 -0.08059
 C801 C 0.09474 0.66312 0.09886
 C802 C 0.07855 0.68880 0.09847
 C803 C 0.09007 0.71373 0.11072
 C804 C 0.11832 0.71395 0.12166
 C805 C 0.13485 0.68892 0.12097
 C806 C 0.12311 0.66363 0.11010
 C807 C 0.08143 0.63687 0.08599
 C808 C 0.09413 0.60957 0.08818
 C809 C 0.08112 0.58591 0.07511
 C810 C 0.05544 0.58896 0.05918
 C811 C 0.04252 0.61603 0.05724
 C812 C 0.05478 0.63967 0.07118
 C813 C 0.05153 0.68976 0.08477
 C814 C 0.04030 0.66593 0.07067
 H815 H 0.03928 0.70948 0.08412
 H816 H 0.01973 0.66799 0.05955
 H817 H 0.07760 0.73334 0.11053
 H818 H 0.15686 0.68892 0.12906
 H819 H 0.09151 0.56527 0.07706
 H820 H 0.02272 0.61877 0.04497
 H821 H 0.13679 0.64497 0.10997
 H822 H 0.11391 0.60605 0.10011
 C823 C 0.33415 1.10052 0.90668
 C824 C 0.30767 1.08537 0.90625
 C825 C 0.28322 1.09737 0.89283
 C826 C 0.28448 1.12472 0.88051
 C827 C 0.31049 1.13999 0.88169
 C828 C 0.33504 1.12808 0.89448
 C829 C 0.35996 1.08666 0.92044
 C830 C 0.38773 1.09901 0.92003
 C831 C 0.41116 1.08519 0.93294
 C832 C 0.40755 1.05880 0.94684
 C833 C 0.37995 1.04632 0.94745
 C834 C 0.35634 1.05977 0.93396
 C835 C 0.30564 1.05857 0.91956
 C836 C 0.32934 1.04624 0.93350
 H837 H 0.28532 1.04705 0.91947
 H838 H 0.32657 1.02560 0.94375
 H839 H 0.26303 1.08563 0.89253
 H840 H 0.31203 1.16113 0.87233
 H841 H 0.43219 1.09532 0.93212
 H842 H 0.37690 1.02585 0.95795
 H843 H 0.35437 1.14093 0.89474
 H844 H 0.39197 1.11915 0.90955
 C845 C 0.34057 0.89385 1.09805
 C846 C 0.31690 0.88617 1.08020
 C847 C 0.29290 0.87218 1.09224
 C848 C 0.29143 0.86693 1.12217
 C849 C 0.31444 0.87535 1.13997
 C850 C 0.33885 0.88842 1.12811
 C851 C 0.36598 0.90833 1.08428
 C852 C 0.39173 0.91425 1.09950
 C853 C 0.41461 0.92825 1.08585
 C854 C 0.41223 0.93703 1.05688
 C855 C 0.38694 0.93084 1.04133
 C856 C 0.36412 0.91600 1.05461
 C857 C 0.31692 0.89329 1.05066
 C858 C 0.33975 0.90843 1.03828
 H859 H 0.29869 0.88764 1.03703
 H860 H 0.33848 0.91396 1.01547
 H861 H 0.27482 0.86635 1.07846
 H862 H 0.31362 0.87166 1.16317
 H863 H 0.43406 0.93272 1.09816
 H864 H 0.38529 0.93707 1.01871
 H865 H 0.35581 0.89461 1.14289
 H866 H 0.39477 0.90803 1.12183
 C867 C 0.66136 1.09987 1.10570
 C868 C 0.68335 1.11137 1.08781
 C869 C 0.70682 1.12586 1.10029
 C870 C 0.70951 1.12783 1.13051
 C871 C 0.68841 1.11538 1.14825
 C872 C 0.66446 1.10178 1.13607
 C873 C 0.63614 1.08549 1.09150
 C874 C 0.61155 1.07636 1.10703
 C875 C 0.58859 1.06306 1.09275
 C876 C 0.58985 1.05809 1.06283
 C877 C 0.61404 1.06730 1.04708
 C878 C 0.63678 1.08157 1.06104
 C879 C 0.68217 1.10770 1.05767
 C880 C 0.65972 1.09254 1.04463
 H881 H 0.69916 1.11620 1.04398
 H882 H 0.66004 1.08985 1.02127
 H883 H 0.72351 1.13484 1.08652
 H884 H 0.69026 1.11649 1.17166
 H885 H 0.56993 1.05629 1.10518
 H886 H 0.61473 1.06409 1.02377
 H887 H 0.64892 1.09252 1.15076
 H888 H 0.60943 1.07970 1.13009
 C889 C 0.66484 0.90360 0.90028
 C890 C 0.66298 0.89864 0.87003
 C891 C 0.68521 0.88384 0.85568
 C892 C 0.70857 0.87256 0.87136
 C893 C 0.70976 0.87647 0.90147
 C894 C 0.68833 0.89196 0.91578
 C895 C 0.64111 0.92007 0.91469
 C896 C 0.64251 0.92881 0.94390
 C897 C 0.61933 0.94309 0.95669
 C898 C 0.59410 0.94870 0.94081
 C899 C 0.59284 0.94103 0.91143
 C900 C 0.61638 0.92734 0.89812
 C901 C 0.63857 0.90772 0.85451
 C902 C 0.61546 0.92114 0.86840
 H903 H 0.63698 0.90371 0.83140
 H904 H 0.59671 0.92705 0.85560
 H905 H 0.68393 0.88031 0.83246
 H906 H 0.72760 0.86787 0.91399
 H907 H 0.62082 0.94907 0.97936
 H908 H 0.57362 0.94598 0.89888
 H909 H 0.69032 0.89415 0.93899
 H910 H 0.66131 0.92492 0.95721
   
