data_POSCAR
  _audit_creation_date              2014-09-24
  _audit_creation_method            'ToBaCCo'
  _symmetry_space_group_name_H-M    'P1'
  _symmetry_Int_Tables_number       1
  _symmetry_cell_setting            triclinic
  loop_
  _symmetry_equiv_pos_as_xyz
 x,y,z
_cell_length_a 13.4402
_cell_length_b 13.3316
_cell_length_c 30.4423
_cell_angle_alpha 89.604500
_cell_angle_beta 90.374100
_cell_angle_gamma 120.242400
loop_
  _atom_site_label
  _atom_site_type_symbol
  _atom_site_fract_x
  _atom_site_fract_y
  _atom_site_fract_z
C1 C -0.20081 0.07355 0.53424
 C2 C -0.31658 -0.02111 0.51503
 C3 C -0.30465 -0.08874 0.48423
 C4 C -0.17882 -0.05406 0.47523
 C5 C -0.14296 0.00734 0.55134
 C6 C -0.13364 -0.06137 0.52085
 C7 C -0.13121 0.14157 0.49429
 C8 C -0.11919 0.07584 0.46362
 H9 H -0.39943 -0.03511 0.52555
 H10 H -0.16746 -0.10665 0.44980
 H11 H -0.12173 0.00682 0.58568
 H12 H -0.09604 0.23424 0.49019
 C13 C 0.93232 -0.27290 0.20439
 C14 C 1.01609 -0.30368 0.18187
 C15 C 1.08598 -0.22245 0.15159
 C16 C 1.06335 -0.12085 0.14620
 C17 C 1.00482 -0.15782 0.22217
 C18 C 1.07844 -0.07415 0.19050
 C19 C 0.86588 -0.25779 0.16646
 C20 C 0.93368 -0.17917 0.13593
 H21 H 1.02283 -0.37902 0.19038
 H22 H 1.11728 -0.05617 0.12087
 H23 H 1.00788 -0.13944 0.25690
 H24 H 0.77305 -0.30897 0.16298
 C25 C 0.26852 1.20079 0.87062
 C26 C 0.29440 1.31778 0.85026
 C27 C 0.21401 1.30707 0.81991
 C28 C 0.11760 1.18130 0.81234
 C29 C 0.14638 1.14814 0.88870
 C30 C 0.06770 1.14017 0.85854
 C31 C 0.25900 1.12603 0.83138
 C32 C 0.18090 1.11581 0.80101
 H33 H 0.36709 1.40068 0.85972
 H34 H 0.05299 1.17080 0.78718
 H35 H 0.12704 1.12949 0.92327
 H36 H 0.31292 1.08783 0.82712
 O37 O 0.45677 -0.01857 -0.04006
 O38 O 0.62153 -0.15215 0.00469
 O39 O 0.41445 -0.18275 0.02152
 O40 O 0.62204 -0.04832 -0.06618
 O41 O 0.73321 0.09955 -0.02295
 O42 O 0.50025 -0.02265 0.06096
 O43 O 0.70349 -0.00689 0.05166
 O44 O 0.56879 0.13864 -0.00149
 Cu45 Cu 0.51659 -0.11548 -0.02315
 Cu46 Cu 0.63439 0.06595 0.02647
 C47 C 0.49081 0.08683 -0.02992
 C48 C 0.69245 -0.09941 0.03596
 C49 C 0.41833 -0.12688 0.05541
 C50 C 0.71500 0.04541 -0.05936
 O51 O -0.09439 0.64116 0.63866
 O52 O 0.01712 0.52635 0.72622
 O53 O 0.00084 0.71370 0.71509
 O54 O -0.14022 0.43267 0.66292
 O55 O 0.01708 0.47802 0.62535
 O56 O 0.15117 0.77603 0.67125
 O57 O 0.17651 0.59381 0.68755
 O58 O 0.05488 0.67632 0.59765
 Cu59 Cu -0.06762 0.57288 0.68936
 Cu60 Cu 0.11546 0.63522 0.64242
 C61 C -0.03730 0.67790 0.60293
 C62 C 0.11948 0.54492 0.72170
 C63 C 0.09613 0.79481 0.70114
 C64 C -0.08808 0.40640 0.63506
 O65 O 0.36398 0.25745 0.30878
 O66 O 0.47439 0.48617 0.39463
 O67 O 0.28216 0.28308 0.37987
 O68 O 0.56690 0.42105 0.33061
 O69 O 0.52862 0.53933 0.29258
 O70 O 0.23110 0.38255 0.33618
 O71 O 0.41548 0.58354 0.35366
 O72 O 0.33326 0.37313 0.26555
 Cu73 Cu 0.42815 0.35475 0.35834
 Cu74 Cu 0.37340 0.48121 0.30846
 C75 C 0.33019 0.27801 0.27227
 C76 C 0.45994 0.57285 0.38875
 C77 C 0.20627 0.30444 0.36541
 C78 C 0.59663 0.50210 0.30288
 N79 N -0.26325 0.22660 0.61643
 N80 N -0.29844 0.13719 0.58946
 C81 C -0.20385 0.15217 0.56852
 C82 C -0.10958 0.25276 0.58378
 N83 N -0.15034 0.29672 0.61340
 H84 H -0.02080 0.29159 0.57340
 N85 N 0.77255 0.50172 0.28408
 N86 N 0.86261 0.55753 0.25771
 C87 C 0.85215 0.64292 0.23818
 C88 C 0.75365 0.63839 0.25372
 N89 N 0.70626 0.54893 0.28196
 H90 H 0.71820 0.69259 0.24432
 N91 N 0.49007 0.26392 -0.04917
 N92 N 0.43509 0.29928 -0.07571
 C93 C 0.35153 0.20349 -0.09559
 C94 C 0.35642 0.10828 -0.08020
 N95 N 0.44417 0.14976 -0.05153
 H96 H 0.30344 0.01836 -0.08985
 N97 N -0.05217 0.72264 0.52665
 N98 N -0.07327 0.79460 0.50359
 C99 C -0.10519 0.84886 0.53261
 C100 C -0.10582 0.80585 0.57411
 N101 N -0.07294 0.72698 0.56885
 H102 H -0.12253 0.83313 0.60527
 N103 N 0.30271 0.21425 0.19632
 N104 N 0.23344 0.12075 0.17305
 C105 C 0.16580 0.03728 0.20204
 C106 C 0.19765 0.08204 0.24395
 N107 N 0.28355 0.19186 0.23883
 H108 H 0.15975 0.04133 0.27506
 N109 N 0.77687 0.07649 -0.13524
 N110 N 0.86825 0.09661 -0.15841
 C111 C 0.95199 0.11632 -0.12926
 C112 C 0.90987 0.11043 -0.08741
 N113 N 0.80085 0.08645 -0.09270
 H114 H 0.95159 0.11648 -0.05620
 N115 N 0.27237 -0.29543 0.09505
 N116 N 0.18202 -0.32497 0.12052
 C117 C 0.17909 -0.22700 0.12808
 C118 C 0.27187 -0.13590 0.10701
 N119 N 0.32780 -0.18236 0.08693
 H120 H 0.29351 -0.04611 0.10459
 N121 N 0.43094 0.70673 0.43302
 N122 N 0.49128 0.79851 0.45839
 C123 C 0.59728 0.81197 0.46243
 C124 C 0.59940 0.72407 0.43927
 N125 N 0.49391 0.66030 0.42164
 H126 H 0.67167 0.71126 0.43364
 N127 N 0.28334 0.57109 0.76483
 N128 N 0.31262 0.51014 0.79095
 C129 C 0.21667 0.40623 0.79709
 C130 C 0.12693 0.40615 0.77444
 N131 N 0.17225 0.51063 0.75492
 H132 H 0.03936 0.33540 0.77032
 N133 N 0.83479 -0.16044 0.02893
 N134 N 0.90756 -0.17378 0.05466
 C135 C 0.88329 -0.15941 0.09627
 C136 C 0.79298 -0.13863 0.09537
 N137 N 0.76462 -0.14067 0.05293
 H138 H 0.75309 -0.12148 0.12288
 N139 N 0.00486 0.25325 0.36998
 N140 N -0.08653 0.18803 0.39466
 C141 C -0.05685 0.12883 0.42288
 C142 C 0.05635 0.16174 0.41540
 N143 N 0.09182 0.23959 0.38236
 H144 H 0.11005 0.13826 0.43434
 N145 N 0.21875 1.00666 0.70048
 N146 N 0.23849 1.09608 0.72551
 C147 C 0.16672 1.05226 0.76029
 C148 C 0.10502 0.93347 0.75653
 N149 N 0.13954 0.90841 0.71890
 H150 H 0.04651 0.87087 0.78028
   
