data_POSCAR
  _audit_creation_date              2014-09-24
  _audit_creation_method            'ToBaCCo'
  _symmetry_space_group_name_H-M    'P1'
  _symmetry_Int_Tables_number       1
  _symmetry_cell_setting            triclinic
  loop_
  _symmetry_equiv_pos_as_xyz
 x,y,z
_cell_length_a 44.6330
_cell_length_b 44.6205
_cell_length_c 44.6047
_cell_angle_alpha 90.013200
_cell_angle_beta 89.965100
_cell_angle_gamma 90.004200
loop_
  _atom_site_label
  _atom_site_type_symbol
  _atom_site_fract_x
  _atom_site_fract_y
  _atom_site_fract_z
C1 C 0.20364 0.52309 1.03683
 H2 H 0.20295 0.54017 1.01964
 C3 C 0.18319 0.52390 1.06051
 H4 H 0.16674 0.54174 1.06160
 C5 C 0.22528 0.47842 1.05587
 H6 H 0.24128 0.46040 1.05363
 C7 C 0.20522 0.47837 1.07994
 H8 H 0.20604 0.46041 1.09627
 N9 N 0.22421 0.50066 1.03500
 C10 C 0.29527 0.53609 0.97801
 H11 H 0.29598 0.51885 0.96096
 C12 C 0.31570 0.55976 0.97713
 H13 H 0.33217 0.56085 0.95932
 C14 C 0.27358 0.55526 1.02264
 H15 H 0.25758 0.55309 1.04067
 C16 C 0.29364 0.57932 1.02261
 H17 H 0.29286 0.59574 1.04049
 Zn18 Zn 0.24945 0.50024 1.00090
 N19 N 0.27468 0.53432 1.00045
 C20 C 0.22535 0.52197 0.94588
 N21 N 0.22423 0.49979 0.96681
 C22 C 0.20366 0.47735 0.96501
 C23 C 0.18330 0.47646 0.94129
 C24 C 0.20536 0.52193 0.92178
 C25 C 0.29526 0.46437 1.02373
 C26 C 0.31569 0.44069 1.02455
 C27 C 0.29365 0.42121 0.97906
 C28 C 0.27360 0.44527 0.97908
 N29 N 0.27469 0.46617 1.00131
 H30 H 0.24133 0.54001 0.94809
 H31 H 0.20294 0.46031 0.98225
 H32 H 0.16685 0.45864 0.94016
 H33 H 0.20616 0.53979 0.90535
 H34 H 0.29597 0.48158 1.04080
 H35 H 0.33216 0.43957 1.04234
 H36 H 0.29288 0.40483 0.96115
 H37 H 0.25761 0.44747 0.96106
 C38 C 0.31493 0.58151 0.99969
 C39 C 0.18392 0.50128 1.08222
 C40 C 0.31493 0.41898 1.00195
 C41 C 0.18411 0.49900 0.91953
 C42 C 0.79575 0.52310 -0.03548
 H43 H 0.79650 0.54012 -0.01822
 C44 C 0.81615 0.52396 -0.05920
 H45 H 0.83265 0.54174 -0.06031
 C46 C 0.77400 0.47853 -0.05465
 H47 H 0.75799 0.46052 -0.05246
 C48 C 0.79403 0.47855 -0.07876
 H49 H 0.79321 0.46069 -0.09519
 N50 N 0.77515 0.50069 -0.03370
 C51 C 0.70424 0.53609 0.02351
 H52 H 0.70354 0.51884 0.04053
 C53 C 0.68383 0.55977 0.02443
 H54 H 0.66737 0.56086 0.04227
 C55 C 0.72587 0.55528 -0.02114
 H56 H 0.74184 0.55310 -0.03920
 C57 C 0.70583 0.57934 -0.02105
 H58 H 0.70659 0.59577 -0.03892
 Zn59 Zn 0.74996 0.50021 0.00044
 N60 N 0.72479 0.53433 0.00103
 C61 C 0.77422 0.52173 0.05548
 N62 N 0.77524 0.49960 0.03447
 C63 C 0.79577 0.47713 0.03614
 C64 C 0.81622 0.47615 0.05978
 C65 C 0.79430 0.52160 0.07951
 C66 C 0.70406 0.46450 -0.02249
 C67 C 0.68361 0.44085 -0.02340
 C68 C 0.70568 0.42113 0.02196
 C69 C 0.72576 0.44517 0.02204
 N70 N 0.72467 0.46618 -0.00008
 H71 H 0.75826 0.53980 0.05338
 H72 H 0.79642 0.46013 0.01885
 H73 H 0.83266 0.45831 0.06080
 H74 H 0.79359 0.53943 0.09598
 H75 H 0.70336 0.48179 -0.03947
 H76 H 0.66712 0.43982 -0.04119
 H77 H 0.70646 0.40466 0.03978
 H78 H 0.74178 0.44728 0.04005
 C79 C 0.68457 0.58153 0.00189
 C80 C 0.81533 0.50143 -0.08097
 C81 C 0.68438 0.41903 -0.00093
 C82 C 0.81553 0.49864 0.08160
 C83 C -0.02278 0.29622 0.46329
 H84 H -0.03985 0.29690 0.48051
 C85 C -0.02362 0.31666 0.43962
 H86 H -0.04148 0.33308 0.43855
 C87 C 0.02190 0.27461 0.44421
 H88 H 0.03994 0.25864 0.44643
 C89 C 0.02193 0.29467 0.42015
 H90 H 0.03988 0.29386 0.40379
 N91 N -0.00033 0.27567 0.46510
 C92 C -0.03567 0.20462 0.52213
 H93 H -0.01841 0.20393 0.53913
 C94 C -0.05934 0.18420 0.52306
 H95 H -0.06041 0.16774 0.54089
 C96 C -0.05489 0.22627 0.47753
 H97 H -0.05274 0.24226 0.45949
 C98 C -0.07895 0.20622 0.47762
 H99 H -0.09539 0.20698 0.45978
 Zn100 Zn 0.00012 0.25044 0.49918
 N101 N -0.03393 0.22519 0.49967
 C102 C -0.02164 0.27455 0.55420
 N103 N 0.00057 0.27566 0.53328
 C104 C 0.02301 0.29622 0.53511
 C105 C 0.02387 0.31660 0.55885
 C106 C -0.02163 0.29456 0.57831
 C107 C 0.03598 0.20465 0.47624
 C108 C 0.05966 0.18423 0.47534
 C109 C 0.07916 0.20624 0.52084
 C110 C 0.05510 0.22629 0.52089
 N111 N 0.03419 0.22521 0.49870
 H112 H -0.03968 0.25858 0.55197
 H113 H 0.04007 0.29694 0.51789
 H114 H 0.04168 0.33305 0.56000
 H115 H -0.03951 0.29376 0.59472
 H116 H 0.01876 0.20395 0.45919
 H117 H 0.06077 0.16777 0.45752
 H118 H 0.09556 0.20701 0.53872
 H119 H 0.05291 0.24227 0.53894
 C120 C -0.08112 0.18496 0.50056
 C121 C -0.00101 0.31594 0.41789
 C122 C 0.08138 0.18498 0.49790
 C123 C 0.00130 0.31580 0.58058
 C124 C 0.97708 0.70414 0.53579
 H125 H 0.96005 0.70340 0.51856
 C126 C 0.97621 0.68375 0.55951
 H127 H 0.95840 0.66729 0.56065
 C128 C 1.02170 0.72582 0.55488
 H129 H 1.03974 0.74180 0.55265
 C130 C 1.02167 0.70581 0.57898
 H131 H 1.03954 0.70661 0.59538
 N132 N 0.99952 0.72470 0.53396
 C133 C 0.96424 0.79560 0.47675
 H134 H 0.98151 0.79626 0.45973
 C135 C 0.94057 0.81602 0.47579
 H136 H 0.93951 0.83244 0.45793
 C137 C 0.94499 0.77404 0.52141
 H138 H 0.94714 0.75810 0.53948
 C139 C 0.92094 0.79410 0.52129
 H140 H 0.90449 0.79338 0.53915
 Zn141 Zn 1.00004 0.74986 0.49983
 N142 N 0.96596 0.77508 0.49925
 C143 C 0.97843 0.72557 0.44485
 N144 N 1.00060 0.72456 0.46579
 C145 C 1.02306 0.70401 0.46406
 C146 C 1.02398 0.68353 0.44042
 C147 C 0.97851 0.70546 0.42082
 C148 C 1.03576 0.79573 0.52276
 C149 C 1.05943 0.81616 0.52369
 C150 C 1.07913 0.79407 0.47829
 C151 C 1.05508 0.77401 0.47820
 N152 N 1.03408 0.77512 0.50033
 H153 H 0.96038 0.74153 0.44700
 H154 H 1.04008 0.70337 0.48131
 H155 H 1.04180 0.66709 0.43935
 H156 H 0.96065 0.70617 0.40440
 H157 H 1.01847 0.79644 0.53976
 H158 H 1.06046 0.83265 0.54149
 H159 H 1.09561 0.79328 0.46046
 H160 H 1.05297 0.75800 0.46018
 C161 C 0.91879 0.81531 0.49831
 C162 C 0.99876 0.68455 0.58123
 C163 C 1.08125 0.81537 0.50120
 C164 C 1.00145 0.68422 0.41866
 C165 C 0.46427 -0.02356 0.29534
 H166 H 0.48151 -0.04059 0.29603
 C167 C 0.44059 -0.02445 0.31578
 H168 H 0.43949 -0.04226 0.33225
 C169 C 0.44511 0.02105 0.27369
 H170 H 0.44729 0.03909 0.25770
 C171 C 0.42105 0.02101 0.29375
 H172 H 0.40464 0.03888 0.29300
 N173 N 0.46604 -0.00112 0.27476
 C174 C 0.52308 -0.03649 0.20369
 H175 H 0.54014 -0.01927 0.20301
 C176 C 0.52394 -0.06015 0.18322
 H177 H 0.54180 -0.06119 0.16677
 C178 C 0.47843 -0.05560 0.22532
 H179 H 0.46039 -0.05339 0.24132
 C180 C 0.47842 -0.07965 0.20524
 H181 H 0.46049 -0.09600 0.20606
 Zn182 Zn 0.50012 -0.00062 0.24951
 N183 N 0.50063 -0.03470 0.22426
 C184 C 0.55515 -0.02220 0.27369
 N185 N 0.53417 -0.00008 0.27477
 C186 C 0.53586 0.02238 0.29534
 C187 C 0.55953 0.02335 0.31576
 C188 C 0.57921 -0.02207 0.29374
 C189 C 0.47719 0.03526 0.20371
 C190 C 0.47630 0.05898 0.18333
 C191 C 0.52175 0.07850 0.20536
 C192 C 0.52180 0.05441 0.22538
 N193 N 0.49963 0.03347 0.22427
 H194 H 0.55303 -0.04025 0.25770
 H195 H 0.51858 0.03937 0.29603
 H196 H 0.56057 0.04118 0.33222
 H197 H 0.59567 -0.03989 0.29298
 H198 H 0.46016 0.01802 0.20300
 H199 H 0.45848 0.06010 0.16688
 H200 H 0.53960 0.09493 0.20615
 H201 H 0.53983 0.05221 0.24135
 C202 C 0.50135 -0.08187 0.18393
 C203 C 0.41885 -0.00191 0.31503
 C204 C 0.49882 0.08073 0.18412
 C205 C 0.58134 0.00087 0.31500
 C206 C 0.53593 -0.02312 0.70413
 H207 H 0.51869 -0.04016 0.70344
 C208 C 0.55962 -0.02403 0.68371
 H209 H 0.56072 -0.04186 0.66725
 C210 C 0.55507 0.02152 0.72576
 H211 H 0.55287 0.03958 0.74174
 C212 C 0.57914 0.02146 0.70570
 H213 H 0.59555 0.03933 0.70646
 N214 N 0.53414 -0.00066 0.72469
 C215 C 0.47703 -0.03594 0.79574
 H216 H 0.45998 -0.01871 0.79640
 C217 C 0.47613 -0.05959 0.81621
 H218 H 0.45830 -0.06067 0.83267
 C219 C 0.52169 -0.05510 0.77415
 H220 H 0.53974 -0.05293 0.75818
 C221 C 0.52163 -0.07913 0.79425
 H222 H 0.53951 -0.09553 0.79352
 Zn223 Zn 0.50003 -0.00013 0.74991
 N224 N 0.49950 -0.03418 0.77519
 C225 C 0.44503 -0.02176 0.72571
 N226 N 0.46601 0.00037 0.72463
 C227 C 0.46431 0.02281 0.70404
 C228 C 0.44065 0.02375 0.68362
 C229 C 0.42098 -0.02166 0.70565
 C230 C 0.52290 0.03581 0.79572
 C231 C 0.52373 0.05952 0.81613
 C232 C 0.47828 0.07897 0.79406
 C233 C 0.47829 0.05488 0.77402
 N234 N 0.50048 0.03398 0.77513
 H235 H 0.44715 -0.03979 0.74171
 H236 H 0.48158 0.03981 0.70335
 H237 H 0.43960 0.04157 0.66715
 H238 H 0.40452 -0.03949 0.70642
 H239 H 0.53995 0.01859 0.79644
 H240 H 0.54152 0.06066 0.83260
 H241 H 0.46039 0.09536 0.79327
 H242 H 0.46027 0.05266 0.75803
 C243 C 0.49869 -0.08132 0.81551
 C244 C 0.58135 -0.00148 0.68445
 C245 C 0.50117 0.08123 0.81534
 C246 C 0.41884 0.00127 0.68439
 Si247 Si 0.24997 0.00013 0.49980
 Si248 Si 0.75018 0.00016 0.49962
 Si249 Si 0.49966 0.25024 0.99999
 Si250 Si 0.49975 0.75020 0.00058
 Si251 Si 1.00050 0.49923 0.25004
 Si252 Si 0.00005 0.49992 0.75013
 C253 C 0.14713 0.12053 0.49859
 C254 C 0.16869 0.12152 0.47176
 C255 C 0.18954 0.09919 0.47200
 C256 C 0.18677 0.07808 0.49903
 C257 C 0.15435 0.06667 0.49816
 C258 C 0.13353 0.08895 0.49793
 C259 C 0.16740 0.12094 0.52639
 C260 C 0.18825 0.09861 0.52662
 C261 C 0.12438 0.14425 0.49834
 C262 C 0.10507 0.16313 0.49813
 C263 C 0.20880 0.05371 0.49929
 C264 C 0.22598 0.03290 0.49949
 H265 H 0.16768 0.13830 0.45417
 H266 H 0.20641 0.09683 0.45461
 H267 H 0.14826 0.04310 0.49776
 H268 H 0.10963 0.08448 0.49733
 H269 H 0.16556 0.13734 0.54428
 H270 H 0.20429 0.09587 0.54471
 C271 C 0.62010 0.64728 0.00130
 C272 C 0.58853 0.63366 0.00160
 C273 C 0.56624 0.65448 0.00141
 C274 C 0.57766 0.68692 0.00093
 C275 C 0.59838 0.68869 -0.02649
 C276 C 0.62071 0.66783 -0.02630
 C277 C 0.62089 0.66857 0.02834
 C278 C 0.59856 0.68942 0.02815
 C279 C 0.64382 0.62453 0.00151
 C280 C 0.66271 0.60522 0.00169
 C281 C 0.55329 0.70896 0.00075
 C282 C 0.53249 0.72616 0.00064
 H283 H 0.58406 0.60975 0.00193
 H284 H 0.54269 0.64838 0.00158
 H285 H 0.59577 0.70490 -0.04445
 H286 H 0.63723 0.66617 -0.04410
 H287 H 0.63752 0.66739 0.04604
 H288 H 0.59606 0.70612 0.04568
 C289 C 0.85306 -0.12021 0.49877
 C290 C 0.83289 -0.12038 0.52667
 C291 C 0.81204 -0.09804 0.52683
 C292 C 0.81343 -0.07775 0.49907
 C293 C 0.81056 -0.09909 0.47221
 C294 C 0.83140 -0.12143 0.47206
 C295 C 0.86666 -0.08865 0.49779
 C296 C 0.84586 -0.06635 0.49795
 C297 C 0.87579 -0.14394 0.49860
 C298 C 0.89510 -0.16283 0.49847
 C299 C 0.79141 -0.05338 0.49924
 C300 C 0.77421 -0.03257 0.49939
 H301 H 0.83478 -0.13663 0.54468
 H302 H 0.79607 -0.09515 0.54497
 H303 H 0.79362 -0.09687 0.45489
 H304 H 0.83234 -0.13836 0.45459
 H305 H 0.89057 -0.08419 0.49704
 H306 H 0.85195 -0.04280 0.49734
 C307 C 0.37935 0.35319 1.00110
 C308 C 0.37857 0.33186 1.02810
 C309 C 0.40088 0.31099 1.02782
 C310 C 0.42176 0.31351 1.00057
 C311 C 0.43320 0.34594 1.00108
 C312 C 0.41093 0.36678 1.00136
 C313 C 0.37870 0.33267 0.97346
 C314 C 0.40101 0.31180 0.97319
 C315 C 0.35565 0.37596 1.00140
 C316 C 0.33678 0.39528 1.00165
 C317 C 0.44611 0.29146 1.00030
 C318 C 0.46691 0.27425 1.00013
 H319 H 0.36195 0.33303 1.04584
 H320 H 0.40337 0.29427 1.04532
 H321 H 0.45676 0.35202 1.00122
 H322 H 0.41542 0.39069 1.00173
 H323 H 0.36216 0.33437 0.95570
 H324 H 0.40359 0.29560 0.95520
 C325 C 0.85308 0.12053 0.50019
 C326 C 0.86668 0.08895 0.49969
 C327 C 0.84585 0.06667 0.49960
 C328 C 0.81342 0.07810 0.50000
 C329 C 0.81109 0.09924 0.47295
 C330 C 0.83196 0.12157 0.47305
 C331 C 0.83238 0.12092 0.52769
 C332 C 0.81151 0.09859 0.52759
 C333 C 0.87585 0.14424 0.50030
 C334 C 0.89517 0.16312 0.50040
 C335 C 0.79138 0.05373 0.49989
 C336 C 0.77418 0.03293 0.49979
 H337 H 0.89059 0.08448 0.49944
 H338 H 0.85193 0.04311 0.49927
 H339 H 0.79450 0.09691 0.45532
 H340 H 0.83325 0.13837 0.45549
 H341 H 0.83394 0.13729 0.54562
 H342 H 0.79519 0.09584 0.54544
 C343 C 0.37938 0.64729 0.00023
 C344 C 0.37859 0.66849 -0.02687
 C345 C 0.40092 0.68935 -0.02674
 C346 C 0.42182 0.68694 0.00047
 C347 C 0.43324 0.65450 0.00008
 C348 C 0.41095 0.63368 -0.00004
 C349 C 0.37878 0.66793 0.02777
 C350 C 0.40111 0.68879 0.02790
 C351 C 0.35566 0.62453 0.00008
 C352 C 0.33678 0.60521 -0.00008
 C353 C 0.44619 0.70898 0.00058
 C354 C 0.46700 0.72618 0.00062
 H355 H 0.36195 0.66725 -0.04457
 H356 H 0.40340 0.70599 -0.04433
 H357 H 0.45679 0.64841 -0.00008
 H358 H 0.41542 0.60976 -0.00031
 H359 H 0.36226 0.66633 0.04557
 H360 H 0.40372 0.70507 0.04580
 C361 C 0.14702 -0.12019 0.50072
 C362 C 0.13342 -0.08861 0.50039
 C363 C 0.15424 -0.06633 0.50024
 C364 C 0.18667 -0.07775 0.50042
 C365 C 0.18889 -0.09883 0.47330
 C366 C 0.16802 -0.12116 0.47346
 C367 C 0.16786 -0.12064 0.52810
 C368 C 0.18872 -0.09831 0.52794
 C369 C 0.12427 -0.14390 0.50088
 C370 C 0.10495 -0.16278 0.50103
 C371 C 0.20872 -0.05339 0.50025
 C372 C 0.22592 -0.03259 0.50009
 H373 H 0.10951 -0.08414 0.50030
 H374 H 0.14816 -0.04276 0.50001
 H375 H 0.20540 -0.09645 0.45558
 H376 H 0.16666 -0.13791 0.45586
 H377 H 0.16638 -0.13706 0.54599
 H378 H 0.20512 -0.09560 0.54570
 C379 C 0.61994 0.35324 0.99954
 C380 C 0.62072 0.33208 0.97240
 C381 C 0.59841 0.31121 0.97253
 C382 C 0.57752 0.31356 0.99978
 C383 C 0.56609 0.34600 0.99949
 C384 C 0.58836 0.36683 0.99936
 C385 C 0.62058 0.33256 1.02704
 C386 C 0.59826 0.31168 1.02717
 C387 C 0.64364 0.37601 0.99939
 C388 C 0.66252 0.39533 0.99925
 C389 C 0.55317 0.29150 0.99991
 C390 C 0.53238 0.27429 0.99997
 H391 H 0.63735 0.33336 0.95467
 H392 H 0.59592 0.29459 0.95492
 H393 H 0.54253 0.35207 0.99938
 H394 H 0.58387 0.39075 0.99914
 H395 H 0.63711 0.33414 1.04481
 H396 H 0.59567 0.29538 1.04505
 C397 C 0.49929 0.14680 1.11994
 C398 C 0.47218 0.16796 1.12085
 C399 C 0.47230 0.18894 1.09862
 C400 C 0.49952 0.18668 1.07769
 C401 C 0.49921 0.15430 1.06609
 C402 C 0.49909 0.13336 1.08827
 C403 C 0.52678 0.16748 1.12066
 C404 C 0.52691 0.18846 1.09843
 C405 C 0.49915 0.12392 1.14354
 C406 C 0.49901 0.10452 1.16235
 C407 C 0.49963 0.20884 1.05343
 C408 C 0.49968 0.22612 1.03268
 H409 H 0.45447 0.16660 1.13750
 H410 H 0.45470 0.20556 1.09623
 H411 H 0.49910 0.14833 1.04249
 H412 H 0.49887 0.10946 1.08367
 H413 H 0.54456 0.16582 1.13718
 H414 H 0.54478 0.20478 1.09591
 C415 C -0.00058 0.62021 0.64712
 C416 C -0.00080 0.58861 0.63356
 C417 C -0.00061 0.56635 0.65441
 C418 C -0.00022 0.57783 0.68685
 C419 C -0.02745 0.59870 0.68928
 C420 C -0.02764 0.62100 0.66838
 C421 C 0.02697 0.62089 0.66773
 C422 C 0.02715 0.59859 0.68863
 C423 C -0.00080 0.64389 0.62433
 C424 C -0.00100 0.66274 0.60498
 C425 C -0.00004 0.55349 0.70892
 C426 C 0.00004 0.53269 0.72613
 H427 H -0.00107 0.58410 0.60963
 H428 H -0.00072 0.54278 0.64835
 H429 H -0.04500 0.59622 0.70596
 H430 H -0.04536 0.63763 0.66715
 H431 H 0.04472 0.63744 0.66607
 H432 H 0.04507 0.59603 0.70489
 C433 C 0.49925 0.85298 -0.11994
 C434 C 0.49906 0.86661 -0.08836
 C435 C 0.49921 0.84581 -0.06605
 C436 C 0.49953 0.81336 -0.07745
 C437 C 0.52690 0.81147 -0.09823
 C438 C 0.52675 0.83231 -0.12059
 C439 C 0.47215 0.83180 -0.12067
 C440 C 0.47229 0.81096 -0.09832
 C441 C 0.49908 0.87572 -0.14369
 C442 C 0.49891 0.89501 -0.16260
 C443 C 0.49967 0.79134 -0.05305
 C444 C 0.49974 0.77417 -0.03222
 H445 H 0.49883 0.89054 -0.08390
 H446 H 0.49910 0.85192 -0.04248
 H447 H 0.54478 0.79518 -0.09565
 H448 H 0.54451 0.83389 -0.13715
 H449 H 0.45443 0.83303 -0.13729
 H450 H 0.45471 0.79433 -0.09579
 C451 C 0.99976 0.37909 0.35323
 C452 C 0.99938 0.41071 0.36675
 C453 C 0.99960 0.43293 0.34586
 C454 C 1.00019 0.42141 0.31344
 C455 C 0.97303 0.40044 0.31094
 C456 C 0.97281 0.37818 0.33188
 C457 C 1.02741 0.37847 0.33273
 C458 C 1.02763 0.40074 0.31179
 C459 C 0.99951 0.35544 0.37606
 C460 C 0.99927 0.33662 0.39545
 C461 C 1.00039 0.44572 0.29133
 C462 C 1.00049 0.46649 0.27409
 H463 H 0.99897 0.41526 0.39066
 H464 H 0.99939 0.45651 0.35188
 H465 H 0.95555 0.40284 0.29420
 H466 H 0.95513 0.36150 0.33307
 H467 H 1.04521 0.36198 0.33448
 H468 H 1.04562 0.40333 0.29560
 C469 C 0.50059 0.85350 0.12071
 C470 C 0.50085 0.86700 0.08908
 C471 C 0.50062 0.84610 0.06684
 C472 C 0.50016 0.81370 0.07837
 C473 C 0.47278 0.81201 0.09915
 C474 C 0.47301 0.83294 0.12143
 C475 C 0.52761 0.83221 0.12152
 C476 C 0.52738 0.81127 0.09925
 C477 C 0.50086 0.87633 0.14437
 C478 C 0.50109 0.89570 0.16322
 C479 C 0.49994 0.79158 0.05406
 C480 C 0.49981 0.77431 0.03329
 H481 H 0.50118 0.89090 0.08453
 H482 H 0.50075 0.85211 0.04325
 H483 H 0.45483 0.79578 0.09662
 H484 H 0.45525 0.83466 0.13798
 H485 H 0.54533 0.83345 0.13814
 H486 H 0.54490 0.79457 0.09678
 C487 C 0.00069 0.37997 0.64668
 C488 C 0.00089 0.41162 0.63323
 C489 C 0.00071 0.43380 0.65418
 C490 C 0.00036 0.42221 0.68657
 C491 C 0.02760 0.40133 0.68886
 C492 C 0.02777 0.37911 0.66787
 C493 C -0.02684 0.37921 0.66734
 C494 C -0.02701 0.40144 0.68833
 C495 C 0.00089 0.35636 0.62379
 C496 C 0.00107 0.33756 0.60438
 C497 C 0.00019 0.44648 0.70874
 C498 C 0.00010 0.46722 0.72603
 H499 H 0.00114 0.41621 0.60933
 H500 H 0.00081 0.45739 0.64821
 H501 H 0.04516 0.40376 0.70551
 H502 H 0.04549 0.36249 0.66654
 H503 H -0.04459 0.36267 0.66565
 H504 H -0.04491 0.40394 0.70463
 C505 C 0.50042 0.14716 0.87969
 C506 C 0.50069 0.13364 0.91131
 C507 C 0.50047 0.15452 0.93355
 C508 C 0.50000 0.18693 0.92205
 C509 C 0.47261 0.18864 0.90132
 C510 C 0.47283 0.16771 0.87903
 C511 C 0.52744 0.16845 0.87884
 C512 C 0.52722 0.18937 0.90113
 C513 C 0.50066 0.12434 0.85601
 C514 C 0.50089 0.10498 0.83716
 C515 C 0.49980 0.20902 0.94639
 C516 C 0.49969 0.22624 0.96720
 H517 H 0.50102 0.10973 0.91584
 H518 H 0.50061 0.14849 0.95714
 H519 H 0.45467 0.20486 0.90389
 H520 H 0.45507 0.16601 0.86250
 H521 H 0.54514 0.16723 0.86218
 H522 H 0.54473 0.20608 0.90357
 C523 C 1.00095 0.61966 0.35295
 C524 C 1.02797 0.62052 0.33164
 C525 C 1.02784 0.59817 0.31078
 C526 C 1.00070 0.57718 0.31331
 C527 C 0.97323 0.59781 0.31155
 C528 C 0.97336 0.62016 0.33240
 C529 C 1.00134 0.58809 0.36658
 C530 C 1.00121 0.56579 0.34577
 C531 C 1.00111 0.64340 0.37569
 C532 C 1.00126 0.66232 0.39499
 C533 C 1.00058 0.55279 0.29128
 C534 C 1.00052 0.53197 0.27408
 H535 H 1.04562 0.63723 0.33280
 H536 H 1.04537 0.59573 0.29408
 H537 H 0.95530 0.59513 0.29533
 H538 H 0.95554 0.63663 0.33406
 H539 H 1.00168 0.58364 0.39051
 H540 H 1.00144 0.54223 0.35187
 C541 C 1.12071 0.50036 0.14686
 C542 C 1.12030 0.47186 0.16615
 C543 C 1.09801 0.47156 0.18707
 C544 C 1.07835 0.49979 0.18663
 C545 C 1.06691 0.50216 0.15428
 C546 C 1.08915 0.50246 0.13340
 C547 C 1.12256 0.52635 0.16936
 C548 C 1.10027 0.52605 0.19028
 C549 C 1.14438 0.50069 0.12404
 C550 C 1.16322 0.50097 0.10466
 C551 C 1.05401 0.49949 0.20873
 C552 C 1.03323 0.49932 0.22597
 H553 H 1.13613 0.45357 0.16363
 H554 H 1.09474 0.45301 0.20248
 H555 H 1.04337 0.50350 0.14828
 H556 H 1.08467 0.50406 0.10953
 H557 H 1.13987 0.54345 0.16891
 H558 H 1.09848 0.54288 0.20777
 C559 C 0.64719 -0.00086 0.62000
 C560 C 0.63363 -0.00104 0.58840
 C561 C 0.65448 -0.00084 0.56612
 C562 C 0.68689 -0.00047 0.57757
 C563 C 0.68929 -0.02774 0.59842
 C564 C 0.66840 -0.02795 0.62074
 C565 C 0.66781 0.02668 0.62070
 C566 C 0.68870 0.02688 0.59838
 C567 C 0.62440 -0.00109 0.64371
 C568 C 0.60507 -0.00127 0.66259
 C569 C 0.70896 -0.00025 0.55321
 C570 C 0.72616 -0.00008 0.53239
 H571 H 0.60973 -0.00131 0.58390
 H572 H 0.64843 -0.00093 0.54254
 H573 H 0.70594 -0.04530 0.59590
 H574 H 0.66716 -0.04568 0.63735
 H575 H 0.66618 0.04442 0.63728
 H576 H 0.70497 0.04480 0.59583
 C577 C -0.12029 0.50071 0.85313
 C578 C -0.12086 0.47304 0.83265
 C579 C -0.09855 0.47282 0.81175
 C580 C -0.07789 0.50028 0.81341
 C581 C -0.06645 0.50089 0.84584
 C582 C -0.08871 0.50112 0.86670
 C583 C -0.12117 0.52766 0.83175
 C584 C -0.09886 0.52744 0.81085
 C585 C -0.14399 0.50096 0.87593
 C586 C -0.16285 0.50117 0.89528
 C587 C -0.05354 0.50007 0.79134
 C588 C -0.03273 0.49996 0.77413
 H589 H -0.13734 0.45523 0.83439
 H590 H -0.09591 0.45483 0.79558
 H591 H -0.04289 0.50113 0.85190
 H592 H -0.08422 0.50154 0.89061
 H593 H -0.13785 0.54533 0.83290
 H594 H -0.09642 0.54491 0.79409
 C595 C 0.35302 -0.00120 0.37948
 C596 C 0.36657 -0.00126 0.41108
 C597 C 0.34572 -0.00101 0.43335
 C598 C 0.31330 -0.00072 0.42189
 C599 C 0.31094 -0.02806 0.40112
 C600 C 0.33184 -0.02831 0.37880
 C601 C 0.33237 0.02631 0.37869
 C602 C 0.31147 0.02657 0.40101
 C603 C 0.37581 -0.00147 0.35577
 C604 C 0.39514 -0.00168 0.33689
 C605 C 0.29123 -0.00044 0.44625
 C606 C 0.27401 -0.00021 0.46705
 H607 H 0.39047 -0.00148 0.41558
 H608 H 0.35176 -0.00101 0.45693
 H609 H 0.29431 -0.04563 0.40369
 H610 H 0.33311 -0.04610 0.36225
 H611 H 0.33399 0.04400 0.36206
 H612 H 0.29519 0.04447 0.40350
 C613 C 0.11997 0.49947 0.85348
 C614 C 0.12076 0.52692 0.83274
 C615 C 0.09853 0.52704 0.81177
 C616 C 0.07773 0.49970 0.81362
 C617 C 0.06615 0.49947 0.84602
 C618 C 0.08833 0.49935 0.86695
 C619 C 0.12079 0.47230 0.83236
 C620 C 0.09857 0.47242 0.81139
 C621 C 0.14357 0.49932 0.87635
 C622 C 0.16236 0.49918 0.89575
 C623 C 0.05347 0.49982 0.79148
 C624 C 0.03273 0.49989 0.77421
 H625 H 0.13732 0.54467 0.83436
 H626 H 0.09606 0.54489 0.79542
 H627 H 0.04257 0.49942 0.85201
 H628 H 0.08374 0.49919 0.89086
 H629 H 0.13738 0.45456 0.83373
 H630 H 0.09612 0.45479 0.79479
 C631 C 0.64718 0.00062 0.37936
 C632 C 0.66793 -0.02682 0.37868
 C633 C 0.68882 -0.02689 0.40098
 C634 C 0.68688 0.00049 0.42175
 C635 C 0.65446 0.00071 0.43324
 C636 C 0.63361 0.00078 0.41098
 C637 C 0.66826 0.02780 0.37856
 C638 C 0.68914 0.02774 0.40086
 C639 C 0.62439 0.00069 0.35568
 C640 C 0.60506 0.00076 0.33682
 C641 C 0.70894 0.00041 0.44609
 C642 C 0.72615 0.00033 0.46688
 H643 H 0.66639 -0.04459 0.36213
 H644 H 0.70517 -0.04471 0.40354
 H645 H 0.64840 0.00081 0.45682
 H646 H 0.60971 0.00093 0.41550
 H647 H 0.66693 0.04551 0.36193
 H648 H 0.70571 0.04538 0.40334
 C649 C 0.88005 0.49895 0.14729
 C650 C 0.88564 0.46816 0.16160
 C651 C 0.90798 0.46823 0.18242
 C652 C 0.92253 0.49909 0.18688
 C653 C 0.89651 0.52024 0.19459
 C654 C 0.87415 0.52017 0.17376
 C655 C 0.91056 0.50862 0.13471
 C656 C 0.93287 0.50869 0.15550
 C657 C 0.85631 0.49886 0.12456
 C658 C 0.83741 0.49877 0.10527
 C659 C 0.94692 0.49916 0.20889
 C660 C 0.96775 0.49920 0.22605
 H661 H 0.87312 0.44808 0.15591
 H662 H 0.91460 0.44823 0.19457
 H663 H 0.89570 0.53401 0.21465
 H664 H 0.85418 0.53388 0.17596
 H665 H 0.91432 0.51487 0.11149
 H666 H 0.95573 0.51501 0.15008
 C667 C 0.35299 0.00090 0.62004
 C668 C 0.36653 0.00102 0.58842
 C669 C 0.34568 0.00090 0.56617
 C670 C 0.31327 0.00067 0.57767
 C671 C 0.31099 0.02795 0.59853
 C672 C 0.33189 0.02807 0.62082
 C673 C 0.33225 -0.02655 0.62076
 C674 C 0.31135 -0.02667 0.59847
 C675 C 0.37578 0.00102 0.64371
 C676 C 0.39512 0.00113 0.66257
 C677 C 0.29120 0.00053 0.55334
 C678 C 0.27398 0.00039 0.53255
 H679 H 0.39044 0.00119 0.58389
 H680 H 0.35173 0.00096 0.54259
 H681 H 0.29441 0.04558 0.59604
 H682 H 0.33321 0.04581 0.63743
 H683 H 0.33381 -0.04430 0.63734
 H684 H 0.29501 -0.04452 0.59595
   
