data_POSCAR
  _audit_creation_date              2014-09-24
  _audit_creation_method            'ToBaCCo'
  _symmetry_space_group_name_H-M    'P1'
  _symmetry_Int_Tables_number       1
  _symmetry_cell_setting            triclinic
  loop_
  _symmetry_equiv_pos_as_xyz
 x,y,z
_cell_length_a 61.4545
_cell_length_b 61.5157
_cell_length_c 23.5394
_cell_angle_alpha 90.032800
_cell_angle_beta 90.003000
_cell_angle_gamma 119.986600
loop_
  _atom_site_label
  _atom_site_type_symbol
  _atom_site_fract_x
  _atom_site_fract_y
  _atom_site_fract_z
C1 C 0.20149 0.49734 0.44954
 C2 C 0.18901 0.49268 0.50192
 C3 C 0.20051 0.49360 0.55410
 C4 C 0.22495 0.49641 0.55331
 C5 C 0.23811 0.50079 0.50096
 C6 C 0.22642 0.50128 0.44889
 C7 C 0.23932 0.50362 0.39775
 C8 C 0.26332 0.50693 0.39739
 C9 C 0.27518 0.50656 0.44784
 C10 C 0.26265 0.50352 0.50039
 C11 C 0.23556 0.49237 0.60220
 C12 C 0.25935 0.49502 0.60153
 C13 C 0.27410 0.50207 0.55196
 C14 C 0.29892 0.50542 0.55079
 C15 C 0.31059 0.50852 0.49762
 C16 C 0.29910 0.50868 0.44680
 H17 H 0.23101 0.50190 0.35661
 H18 H 0.27226 0.50932 0.35652
 H19 H 0.22508 0.48550 0.64119
 H20 H 0.26502 0.48987 0.64013
 H21 H 0.17041 0.49055 0.50242
 H22 H 0.32922 0.51076 0.49497
 C23 C 0.49720 -0.20623 0.44788
 C24 C 0.49683 -0.19537 0.49967
 C25 C 0.49700 -0.20629 0.55148
 C26 C 0.49755 -0.22902 0.55194
 C27 C 0.49765 -0.24062 0.49979
 C28 C 0.49774 -0.22897 0.44756
 C29 C 0.50021 -0.23936 0.39673
 C30 C 0.50199 -0.26098 0.39664
 C31 C 0.50057 -0.27386 0.44730
 C32 C 0.49907 -0.26311 0.49989
 C33 C 0.49983 -0.23944 0.60290
 C34 C 0.50160 -0.26106 0.60318
 C35 C 0.50039 -0.27390 0.55258
 C36 C 0.50283 -0.29576 0.55257
 C37 C 0.50510 -0.30530 0.50006
 C38 C 0.50298 -0.29573 0.44749
 H39 H 0.50187 -0.23031 0.35631
 H40 H 0.50589 -0.26637 0.35608
 H41 H 0.50134 -0.23042 0.64331
 H42 H 0.50533 -0.26649 0.64387
 H43 H 0.49649 -0.17789 0.49966
 H44 H 0.50641 -0.32223 0.50008
 C45 C 1.20528 0.70047 0.55054
 C46 C 1.19663 0.68894 0.49727
 C47 C 1.20830 0.70046 0.44650
 C48 C 1.23017 0.72430 0.44769
 C49 C 1.23977 0.73667 0.50038
 C50 C 1.22686 0.72518 0.55190
 C51 C 1.23469 0.73980 0.60166
 C52 C 1.25595 0.76347 0.60254
 C53 C 1.27062 0.77408 0.55368
 C54 C 1.26171 0.76109 0.50116
 C55 C 1.24238 0.73622 0.39731
 C56 C 1.26321 0.76011 0.39790
 C57 C 1.27392 0.77282 0.44917
 C58 C 1.29509 0.79761 0.45007
 C59 C 1.30304 0.80992 0.50263
 C60 C 1.29240 0.79838 0.55471
 H61 H 1.22389 0.73414 0.64028
 H62 H 1.25967 0.77386 0.64170
 H63 H 1.23568 0.72742 0.35634
 H64 H 1.26982 0.76851 0.35686
 H65 H 1.18018 0.67038 0.49450
 H66 H 1.31963 0.82840 0.50332
 C67 C 0.70378 0.50063 0.44823
 C68 C 0.69337 0.50232 0.49950
 C69 C 0.70409 0.50254 0.55250
 C70 C 0.72756 0.50289 0.55296
 C71 C 0.73813 0.50060 0.50091
 C72 C 0.72612 0.49944 0.44849
 C73 C 0.73752 0.49865 0.39745
 C74 C 0.76018 0.49885 0.39744
 C75 C 0.77247 0.49985 0.44847
 C76 C 0.76150 0.50081 0.50091
 C77 C 0.74209 0.50798 0.60255
 C78 C 0.76481 0.50820 0.60254
 C79 C 0.77443 0.50332 0.55294
 C80 C 0.79776 0.50339 0.55247
 C81 C 0.80834 0.50332 0.49948
 C82 C 0.79618 0.50144 0.44820
 H83 H 0.72946 0.49859 0.35661
 H84 H 0.76825 0.49893 0.35660
 H85 H 0.73719 0.51358 0.64165
 H86 H 0.77532 0.51396 0.64164
 H87 H 0.67581 0.50245 0.49741
 H88 H 0.82618 0.50375 0.49742
 C89 C 0.50478 0.29795 0.44892
 C90 C 0.50564 0.30936 0.50085
 C91 C 0.50624 0.29854 0.55260
 C92 C 0.50672 0.27576 0.55267
 C93 C 0.50567 0.26373 0.50045
 C94 C 0.50483 0.27495 0.44831
 C95 C 0.50534 0.26355 0.39705
 C96 C 0.50617 0.24141 0.39673
 C97 C 0.50646 0.22964 0.44765
 C98 C 0.50638 0.24090 0.50025
 C99 C 0.50984 0.26555 0.60318
 C100 C 0.51080 0.24346 0.60301
 C101 C 0.50795 0.22997 0.55245
 C102 C 0.50867 0.20708 0.55162
 C103 C 0.50976 0.19711 0.49853
 C104 C 0.50818 0.20760 0.44724
 H105 H 0.50583 0.27194 0.35641
 H106 H 0.50730 0.23406 0.35581
 H107 H 0.51260 0.27506 0.64344
 H108 H 0.51515 0.23810 0.64310
 H109 H 0.50524 0.32680 0.50100
 H110 H 0.51033 0.17979 0.49642
 C111 C 0.69975 0.20811 0.55203
 C112 C 0.68719 0.19872 0.50048
 C113 C 0.69878 0.20875 0.44835
 C114 C 0.72329 0.22997 0.44759
 C115 C 0.73612 0.24027 0.49959
 C116 C 0.72445 0.22903 0.55189
 C117 C 0.73777 0.23906 0.60254
 C118 C 0.76202 0.25952 0.60214
 C119 C 0.77370 0.27208 0.55134
 C120 C 0.76074 0.26173 0.49922
 C121 C 0.73515 0.24139 0.39632
 C122 C 0.75935 0.26188 0.39576
 C123 C 0.77243 0.27246 0.44655
 C124 C 0.79720 0.29301 0.44594
 C125 C 0.80987 0.30268 0.49713
 C126 C 0.79839 0.29363 0.55032
 H127 H 0.72974 0.23110 0.64340
 H128 H 0.77150 0.26449 0.64253
 H129 H 0.72587 0.23472 0.35582
 H130 H 0.76772 0.26915 0.35473
 H131 H 0.66850 0.18233 0.50087
 H132 H 0.82862 0.31889 0.49484
 O133 O 1.03419 0.55446 0.10448
 O134 O 1.06208 0.54902 0.04995
 C135 C 1.05679 0.56002 0.09025
 O136 O 0.96400 0.44248 0.09810
 O137 O 0.93600 0.44917 0.04725
 C138 C 0.94136 0.43694 0.08434
 O139 O 1.03400 0.47966 0.10429
 O140 O 1.06203 0.51293 0.04998
 C141 C 1.05663 0.49665 0.09025
 O142 O 0.96402 0.52159 0.09857
 O143 O 0.93605 0.48686 0.04769
 C144 C 0.94138 0.50440 0.08494
 Zr145 Zr 0.99910 0.52700 0.07083
 O146 O 0.99658 0.52706 0.16052
 O147 O 1.00036 0.56187 0.06431
 Zr148 Zr 0.99907 0.47199 0.07019
 O149 O 0.99627 0.46911 0.15975
 O150 O 1.00211 0.43920 0.06619
 O151 O 1.02141 0.51062 0.08187
 O152 O 0.97734 0.48863 0.08119
 O153 O 0.96402 0.52209 -0.09853
 O154 O 0.93607 0.48709 -0.04850
 C155 C 0.94138 0.50483 -0.08508
 O156 O 1.03409 0.47938 -0.10502
 O157 O 1.06212 0.51284 -0.05104
 C158 C 1.05674 0.49625 -0.09071
 O159 O 0.96400 0.44263 -0.10009
 O160 O 0.93599 0.44929 -0.04911
 C161 C 0.94135 0.43712 -0.08642
 O162 O 1.03418 0.55494 -0.10457
 O163 O 1.06206 0.54914 -0.05092
 C164 C 1.05678 0.56038 -0.09061
 Zr165 Zr 0.99912 0.52720 -0.07166
 O166 O 0.99628 0.52630 -0.16136
 O167 O 1.00163 0.56278 -0.06947
 Zr168 Zr 0.99910 0.47226 -0.07243
 O169 O 0.99636 0.47085 -0.16217
 O170 O 1.00187 0.43931 -0.07166
 Zr171 Zr 1.03685 0.51842 -0.00068
 Zr172 Zr 0.96147 0.48078 -0.00070
 O173 O 0.97729 0.48886 -0.08265
 O174 O 1.02152 0.51092 -0.08335
 O175 O 0.97649 0.51998 -0.00031
 O176 O 1.02117 0.47919 -0.00106
 O177 O 1.02127 0.54208 -0.00029
 O178 O 0.97648 0.45655 -0.00118
 H179 H 0.96625 0.48307 0.11498
 H180 H 1.03265 0.47224 -0.00094
 H181 H 0.96608 0.48336 -0.11626
 H182 H 1.03275 0.56050 -0.00011
 H183 H 0.98667 0.42583 0.04803
 H184 H 0.98747 0.42645 -0.04966
 H185 H 1.01013 0.48690 -0.17699
 H186 H 1.00973 0.52359 -0.17658
 H187 H 0.98883 0.56165 -0.04223
 H188 H 1.00034 0.56744 0.10381
 H189 H 1.00911 0.52302 0.17591
 H190 H 1.00793 0.48592 0.17533
 O191 O 0.44396 0.47956 0.10473
 O192 O 0.44983 0.51291 0.04968
 C193 C 0.43865 0.49674 0.09007
 O194 O 0.55594 0.51982 0.09884
 O195 O 0.54855 0.48481 0.04847
 C196 C 0.56107 0.50242 0.08533
 O197 O 0.51972 0.55364 0.10424
 O198 O 0.48634 0.54840 0.05026
 C199 C 0.50288 0.55947 0.09007
 O200 O 0.47618 0.44138 0.10021
 O201 O 0.51057 0.44751 0.04877
 C202 C 0.49309 0.43557 0.08628
 Zr203 Zr 0.47111 0.47122 0.07212
 O204 O 0.47206 0.46951 0.16185
 O205 O 0.43508 0.43863 0.07085
 Zr206 Zr 0.52661 0.52575 0.07096
 O207 O 0.52909 0.52551 0.16061
 O208 O 0.55978 0.56130 0.06753
 O209 O 0.48798 0.50993 0.08280
 O210 O 0.50952 0.48741 0.08221
 O211 O 0.47604 0.44087 -0.09866
 O212 O 0.51066 0.44744 -0.04766
 C213 C 0.49310 0.43527 -0.08482
 O214 O 0.51889 0.55322 -0.10427
 O215 O 0.48563 0.54815 -0.04984
 C216 C 0.50207 0.55910 -0.08991
 O217 O 0.55567 0.51956 -0.09912
 O218 O 0.54855 0.48481 -0.04800
 C219 C 0.56095 0.50229 -0.08520
 O220 O 0.44358 0.47849 -0.10432
 O221 O 0.44964 0.51214 -0.05031
 C222 C 0.43832 0.49575 -0.09021
 Zr223 Zr 0.47084 0.47067 -0.07067
 O224 O 0.47092 0.46799 -0.16029
 O225 O 0.43488 0.43805 -0.06684
 Zr226 Zr 0.52617 0.52536 -0.07185
 O227 O 0.52756 0.52389 -0.16157
 O228 O 0.55932 0.56094 -0.07161
 Zr229 Zr 0.48031 0.51742 0.00003
 Zr230 Zr 0.51713 0.47909 0.00031
 O231 O 0.50919 0.48693 -0.08172
 O232 O 0.48753 0.50936 -0.08265
 O233 O 0.47779 0.45521 0.00091
 O234 O 0.51960 0.54071 -0.00049
 O235 O 0.45621 0.47827 0.00063
 O236 O 0.54175 0.51826 -0.00046
 H237 H 0.51504 0.48182 0.11596
 H238 H 0.52673 0.55915 -0.00065
 H239 H 0.51463 0.48120 -0.11538
 H240 H 0.43782 0.47160 0.00074
 H241 H 0.57287 0.55910 0.04834
 H242 H 0.57207 0.55941 -0.04909
 H243 H 0.51174 0.52219 -0.17654
 H244 H 0.47557 0.48470 -0.17573
 H245 H 0.43678 0.42474 -0.04793
 H246 H 0.43654 0.42547 0.04994
 H247 H 0.47498 0.48578 0.17681
 H248 H 0.51258 0.52169 0.17597
 O249 O 0.51998 -0.03476 0.10432
 O250 O 0.48655 -0.06279 0.05033
 C251 C 0.50299 -0.05739 0.09034
 O252 O 0.47770 0.03505 0.09892
 O253 O 0.51208 0.06286 0.04711
 C254 C 0.49474 0.05763 0.08474
 O255 O 0.44530 -0.03489 0.10573
 O256 O 0.45037 -0.06290 0.05088
 C257 C 0.43963 -0.05750 0.09156
 O258 O 0.55642 0.03541 0.09926
 O259 O 0.54958 0.06305 0.04732
 C260 C 0.56170 0.05795 0.08527
 Zr261 Zr 0.52716 0.00011 0.07093
 O262 O 0.52938 0.00292 0.16064
 O263 O 0.56026 -0.00243 0.06797
 Zr264 Zr 0.47192 -0.00008 0.07032
 O265 O 0.47070 0.00259 0.15966
 O266 O 0.43603 -0.00326 0.06441
 O267 O 0.48849 -0.02222 0.08216
 O268 O 0.51029 0.02168 0.08117
 O269 O 0.55648 0.03500 -0.10044
 O270 O 0.54961 0.06281 -0.04934
 C271 C 0.56181 0.05758 -0.08678
 O272 O 0.44414 -0.03584 -0.10358
 O273 O 0.44988 -0.06366 -0.04937
 C274 C 0.43852 -0.05844 -0.08901
 O275 O 0.47712 0.03452 -0.10015
 O276 O 0.51179 0.06260 -0.04926
 C277 C 0.49422 0.05717 -0.08649
 O278 O 0.51971 -0.03500 -0.10533
 O279 O 0.48640 -0.06293 -0.05092
 C280 C 0.50277 -0.05760 -0.09105
 Zr281 Zr 0.52714 -0.00009 -0.07171
 O282 O 0.52968 0.00242 -0.16134
 O283 O 0.56016 -0.00278 -0.06784
 Zr284 Zr 0.47192 -0.00045 -0.07216
 O285 O 0.47298 0.00200 -0.16195
 O286 O 0.43611 -0.00335 -0.07139
 Zr287 Zr 0.48082 -0.03777 -0.00036
 Zr288 Zr 0.51819 0.03743 -0.00088
 O289 O 0.51030 0.02144 -0.08270
 O290 O 0.48842 -0.02263 -0.08315
 O291 O 0.54265 0.02267 -0.00052
 O292 O 0.45699 -0.02236 -0.00061
 O293 O 0.52010 -0.02206 -0.00027
 O294 O 0.47890 0.02234 -0.00111
 H295 H 0.51573 0.03273 0.11502
 H296 H 0.43859 -0.03397 -0.00017
 H297 H 0.51577 0.03249 -0.11653
 H298 H 0.52706 -0.03353 -0.00026
 H299 H 0.43835 0.01281 0.04955
 H300 H 0.43753 0.01086 -0.04880
 H301 H 0.47463 -0.01215 -0.17678
 H302 H 0.51282 -0.00938 -0.17656
 H303 H 0.57338 0.01262 -0.04929
 H304 H 0.57345 0.01288 0.04910
 H305 H 0.51335 -0.01066 0.17611
 H306 H 0.47970 -0.00557 0.17557
 N307 N 1.14974 0.48722 0.35758
 C308 C 1.16178 0.50146 0.31185
 N309 N 1.18724 0.51446 0.31126
 N310 N 1.20019 0.51302 0.35518
 C311 C 1.18826 0.49841 0.40106
 N312 N 1.16269 0.48583 0.40126
 C313 C 1.14728 0.50271 0.26563
 C314 C 1.13318 0.50238 0.22966
 C315 C 1.11433 0.50040 0.19079
 N316 N 1.09036 0.48151 0.19738
 N317 N 1.07215 0.48012 0.16437
 C318 C 1.07725 0.49758 0.12352
 N319 N 1.10135 0.51645 0.11663
 N320 N 1.11961 0.51786 0.14985
 N321 N 0.51240 0.66214 0.35577
 C322 C 0.50043 0.66219 0.30764
 N323 N 0.48943 0.67655 0.30515
 N324 N 0.49050 0.69050 0.34970
 C325 C 0.50274 0.69078 0.39819
 N326 N 0.51343 0.67603 0.40005
 C327 C 0.49925 0.64658 0.26111
 C328 C 0.49940 0.63263 0.22538
 C329 C 0.50094 0.61528 0.18718
 N330 N 0.48307 0.60274 0.14714
 N331 N 0.48389 0.58527 0.11507
 C332 C 0.50253 0.57972 0.12228
 N333 N 0.52039 0.59241 0.16221
 N334 N 0.51960 0.60986 0.19409
 N335 N 0.32639 -0.18808 0.31166
 C336 C 0.33917 -0.16265 0.31279
 N337 N 0.33717 -0.15065 0.35887
 N338 N 0.32273 -0.16361 0.40239
 C339 C 0.30944 -0.18914 0.40169
 N340 N 0.31190 -0.20104 0.35543
 C341 C 0.35502 -0.14813 0.26673
 C342 C 0.36888 -0.13402 0.23094
 C343 C 0.38583 -0.11514 0.19229
 N344 N 0.39106 -0.09115 0.19930
 N345 N 0.40787 -0.07296 0.16633
 C346 C 0.42008 -0.07809 0.12511
 N347 N 0.41474 -0.10219 0.11783
 N348 N 0.39789 -0.12044 0.15100
 N349 N 0.81214 0.48272 0.31192
 C350 C 0.83618 0.50142 0.30415
 N351 N 0.84673 0.52024 0.34276
 N352 N 0.83370 0.52044 0.38772
 C353 C 0.80959 0.50188 0.39558
 N354 N 0.79906 0.48292 0.35697
 C355 C 0.85116 0.50073 0.25816
 C356 C 0.86530 0.50112 0.22210
 C357 C 0.88390 0.50275 0.18275
 N358 N 0.90773 0.52221 0.18669
 N359 N 0.92581 0.52302 0.15409
 C360 C 0.92071 0.50441 0.11627
 N361 N 0.89674 0.48500 0.11188
 N362 N 0.87862 0.48417 0.14468
 N363 N 0.51932 0.34844 0.34571
 C364 C 0.50135 0.33650 0.30567
 N365 N 0.48466 0.31167 0.31193
 N366 N 0.48602 0.29917 0.35679
 C367 C 0.50414 0.31108 0.39681
 N368 N 0.52067 0.33597 0.39052
 C369 C 0.49897 0.35059 0.25994
 C370 C 0.49706 0.36343 0.22383
 C371 C 0.49478 0.37984 0.18402
 N372 N 0.47565 0.38466 0.18930
 N373 N 0.47473 0.40185 0.15665
 C374 C 0.49293 0.41484 0.11756
 N375 N 0.51196 0.40979 0.11185
 N376 N 0.51290 0.39260 0.14464
 N377 N 0.64729 0.17383 0.34602
 C378 C 0.65859 0.16693 0.30614
 N379 N 0.68328 0.17432 0.31205
 N380 N 0.69627 0.18825 0.35640
 C381 C 0.68507 0.19537 0.39626
 N382 N 0.66028 0.18775 0.39036
 C383 C 0.64403 0.15016 0.26117
 C384 C 0.63123 0.13515 0.22534
 C385 C 0.61527 0.11615 0.18547
 N386 N 0.61119 0.09248 0.19105
 N387 N 0.59474 0.07415 0.15762
 C388 C 0.58180 0.07883 0.11733
 N389 N 0.58612 0.10264 0.11136
 N390 N 0.60258 0.12100 0.14492
 N391 N 0.49499 0.18043 -0.30519
 C392 C 0.50348 0.16394 -0.30841
 N393 N 0.51371 0.16194 -0.35762
 N394 N 0.51559 0.17611 -0.40209
 C395 C 0.50752 0.19306 -0.39933
 N396 N 0.49692 0.19463 -0.34985
 C397 C 0.50082 0.14784 -0.26162
 C398 C 0.49872 0.13327 -0.22485
 C399 C 0.49624 0.11468 -0.18451
 N400 N 0.47685 0.09085 -0.18921
 N401 N 0.47582 0.07274 -0.15640
 C402 C 0.49417 0.07780 -0.11776
 N403 N 0.51346 0.10177 -0.11263
 N404 N 0.51450 0.11991 -0.14558
 N405 N 0.65878 0.50758 -0.35715
 C406 C 0.66232 0.49956 -0.30637
 N407 N 0.67990 0.49248 -0.30191
 N408 N 0.69357 0.49356 -0.34703
 C409 C 0.69042 0.50198 -0.39817
 N410 N 0.67243 0.50865 -0.40201
 C411 C 0.64744 0.49884 -0.25861
 C412 C 0.63404 0.49920 -0.22161
 C413 C 0.61721 0.50083 -0.18176
 N414 N 0.60332 0.48185 -0.14505
 N415 N 0.58590 0.48259 -0.11255
 C416 C 0.58175 0.50229 -0.11599
 N417 N 0.59586 0.52129 -0.15242
 N418 N 0.61326 0.52057 -0.18469
 N419 N 0.81312 0.32110 -0.30716
 C420 C 0.83841 0.33592 -0.31029
 N421 N 0.85025 0.33653 -0.35921
 N422 N 0.83728 0.32266 -0.40351
 C423 C 0.81191 0.30736 -0.40082
 N424 N 0.80016 0.30722 -0.35167
 C425 C 0.85279 0.35116 -0.26316
 C426 C 0.86643 0.36462 -0.22611
 C427 C 0.88456 0.38136 -0.18563
 N428 N 0.90830 0.38536 -0.18758
 N429 N 0.92610 0.40257 -0.15437
 C430 C 0.92082 0.41640 -0.11790
 N431 N 0.89691 0.41218 -0.11544
 N432 N 0.87906 0.39496 -0.14888
 N433 N 0.48093 -0.18961 -0.30984
 C434 C 0.49805 -0.16476 -0.30662
 N435 N 0.51507 -0.15391 -0.34890
 N436 N 0.51502 -0.16739 -0.39314
 C437 C 0.49801 -0.19227 -0.39660
 N438 N 0.48089 -0.20316 -0.35419
 C439 C 0.49746 -0.14941 -0.26147
 C440 C 0.49798 -0.13484 -0.22650
 C441 C 0.49981 -0.11570 -0.18871
 N442 N 0.51840 -0.09168 -0.19642
 N443 N 0.51952 -0.07332 -0.16443
 C444 C 0.50207 -0.07830 -0.12357
 N445 N 0.48350 -0.10243 -0.11558
 N446 N 0.48235 -0.12085 -0.14774
 N447 N 0.34573 0.50118 -0.36293
 C448 C 0.34063 0.50608 -0.31018
 N449 N 0.32172 0.51116 -0.30303
 N450 N 0.30821 0.51106 -0.34755
 C451 C 0.31284 0.50561 -0.40071
 N452 N 0.33223 0.50106 -0.40712
 C453 C 0.35497 0.50517 -0.26315
 C454 C 0.36795 0.50352 -0.22700
 C455 C 0.38430 0.50062 -0.18819
 N456 N 0.39703 0.51797 -0.14734
 N457 N 0.41385 0.51613 -0.11495
 C458 C 0.41857 0.49697 -0.12263
 N459 N 0.40567 0.47959 -0.16334
 N460 N 0.38885 0.48140 -0.19557
 N461 N 1.18828 0.67741 -0.30349
 C462 C 1.16425 0.65863 -0.31066
 N463 N 1.15419 0.65370 -0.36336
 N464 N 1.16757 0.66725 -0.40748
 C465 C 1.19155 0.68651 -0.40102
 N466 N 1.20168 0.69097 -0.34792
 C467 C 1.14903 0.64419 -0.26370
 C468 C 1.13446 0.63114 -0.22756
 C469 C 1.11531 0.61470 -0.18869
 N470 N 1.12016 0.60213 -0.14789
 N471 N 1.10161 0.58523 -0.11545
 C472 C 1.07763 0.58027 -0.12301
 N473 N 1.07293 0.59302 -0.16365
 N474 N 1.09144 0.60992 -0.19593
 N475 N 0.84858 0.50958 -0.35716
 C476 C 0.83708 0.50151 -0.30632
 N477 N 0.81231 0.49396 -0.30185
 N478 N 0.79954 0.49467 -0.34702
 C479 C 0.81103 0.50316 -0.39820
 N480 N 0.83581 0.51027 -0.40206
 C481 C 0.85142 0.50117 -0.25854
 C482 C 0.86527 0.50178 -0.22151
 C483 C 0.88374 0.50354 -0.18155
 N484 N 0.87860 0.48463 -0.14462
 N485 N 0.89676 0.48538 -0.11211
 C486 C 0.92065 0.50501 -0.11574
 N487 N 0.92560 0.52396 -0.15237
 N488 N 0.90747 0.52323 -0.18467
 N489 N 0.48807 0.31182 -0.30745
 C490 C 0.50325 0.33705 -0.30353
 N491 N 0.51977 0.34943 -0.34593
 N492 N 0.52114 0.33702 -0.39087
 C493 C 0.50609 0.31175 -0.39492
 N494 N 0.48945 0.29938 -0.35244
 C495 C 0.50055 0.35094 -0.25777
 C496 C 0.49831 0.36361 -0.22172
 C497 C 0.49564 0.37983 -0.18204
 N498 N 0.51356 0.39268 -0.14233
 N499 N 0.51231 0.40976 -0.10969
 C500 C 0.49315 0.41459 -0.11589
 N501 N 0.47513 0.40149 -0.15531
 N502 N 0.47636 0.38442 -0.18782
 N503 N 0.64969 0.17514 -0.34175
 C504 C 0.66044 0.16620 -0.30534
 N505 N 0.68438 0.17154 -0.31485
 N506 N 0.69719 0.18548 -0.35932
 C507 C 0.68653 0.19464 -0.39566
 N508 N 0.66249 0.18906 -0.38620
 C509 C 0.64584 0.14944 -0.26045
 C510 C 0.63286 0.13448 -0.22483
 C511 C 0.61653 0.11555 -0.18532
 N512 N 0.60363 0.12055 -0.14558
 N513 N 0.58676 0.10225 -0.11259
 C514 C 0.58220 0.07835 -0.11840
 N515 N 0.59534 0.07351 -0.15788
 N516 N 0.61220 0.09178 -0.19074
 N517 N 1.14932 0.48429 -0.35302
 C518 C 1.16142 0.49506 -0.30407
 N519 N 1.18665 0.50477 -0.30117
 N520 N 1.19932 0.50376 -0.34624
 C521 C 1.18727 0.49293 -0.39577
 N522 N 1.16196 0.48333 -0.39782
 C523 C 1.14729 0.49678 -0.25748
 C524 C 1.13333 0.49724 -0.22212
 C525 C 1.11447 0.49643 -0.18481
 N526 N 1.11992 0.51477 -0.14594
 N527 N 1.10164 0.51462 -0.11495
 C528 C 1.07735 0.49622 -0.12221
 N529 N 1.07209 0.47792 -0.16101
 N530 N 1.09030 0.47804 -0.19176
 N531 N 0.48899 0.67642 -0.30519
 C532 C 0.49994 0.66200 -0.30759
 N533 N 0.51198 0.66197 -0.35561
 N534 N 0.51313 0.67592 -0.39984
 C535 C 0.50248 0.69072 -0.39808
 N536 N 0.49018 0.69043 -0.34969
 C537 C 0.49861 0.64629 -0.26111
 C538 C 0.49866 0.63227 -0.22544
 C539 C 0.50014 0.61486 -0.18728
 N540 N 0.51873 0.60935 -0.19422
 N541 N 0.51950 0.59191 -0.16230
 C542 C 0.50169 0.57931 -0.12226
 N543 N 0.48310 0.58494 -0.11501
 N544 N 0.48230 0.60241 -0.14714
 N545 N 0.31738 -0.18819 -0.30043
 C546 C 0.33306 -0.16301 -0.30305
 N547 N 0.33453 -0.15080 -0.35188
 N548 N 0.32092 -0.16329 -0.39682
 C549 C 0.30504 -0.18854 -0.39504
 N550 N 0.30370 -0.20070 -0.34564
 C551 C 0.34883 -0.14902 -0.25621
 C552 C 0.36317 -0.13514 -0.22064
 C553 C 0.38110 -0.11630 -0.18309
 N554 N 0.38658 -0.09222 -0.18956
 N555 N 0.40460 -0.07398 -0.15873
 C556 C 0.41787 -0.07913 -0.12033
 N557 N 0.41228 -0.10333 -0.11351
 N558 N 0.39423 -0.12163 -0.14459
 N559 N 0.51534 -0.15363 0.34892
 C560 C 0.49850 -0.16444 0.30624
 N561 N 0.48153 -0.18935 0.30890
 N562 N 0.48145 -0.20298 0.35310
 C563 C 0.49838 -0.19213 0.39593
 N564 N 0.51524 -0.16720 0.39299
 C565 C 0.49793 -0.14900 0.26123
 C566 C 0.49842 -0.13441 0.22634
 C567 C 0.50017 -0.11531 0.18848
 N568 N 0.48265 -0.12053 0.14761
 N569 N 0.48374 -0.10218 0.11532
 C570 C 0.50234 -0.07804 0.12304
 N571 N 0.51986 -0.07297 0.16382
 N572 N 0.51879 -0.09128 0.19595
 N573 N 0.31508 0.49131 0.30932
 C574 C 0.33962 0.50908 0.30363
 N575 N 0.35047 0.52730 0.34356
 N576 N 0.33724 0.52773 0.38792
 C577 C 0.31265 0.51000 0.39378
 N578 N 0.30183 0.49174 0.35369
 C579 C 0.35471 0.50705 0.25978
 C580 C 0.36809 0.50496 0.22543
 C581 C 0.38475 0.50202 0.18769
 N582 N 0.38979 0.48321 0.19657
 N583 N 0.40659 0.48128 0.16454
 C584 C 0.41898 0.49811 0.12254
 N585 N 0.41380 0.51687 0.11344
 N586 N 0.39698 0.51882 0.14558
 N587 N 1.17461 0.68433 0.30937
 C588 C 1.16788 0.65982 0.30368
 N589 N 1.17545 0.64906 0.34338
 N590 N 1.18924 0.66235 0.38753
 C591 C 1.19605 0.68691 0.39343
 N592 N 1.18843 0.69765 0.35355
 C593 C 1.15064 0.64463 0.26005
 C594 C 1.13514 0.63113 0.22587
 C595 C 1.11557 0.61428 0.18820
 N596 N 1.12038 0.60228 0.14592
 N597 N 1.10173 0.58534 0.11374
 C598 C 1.07766 0.57979 0.12296
 N599 N 1.07298 0.59195 0.16514
 N600 N 1.09161 0.60888 0.19721
 N601 N 0.52370 0.17323 0.34149
 C602 C 0.50495 0.16620 0.30304
 N603 N 0.48752 0.17329 0.31101
 N604 N 0.48888 0.18707 0.35604
 C605 C 0.50776 0.19428 0.39450
 N606 N 0.52506 0.18699 0.38648
 C607 C 0.50242 0.14956 0.25756
 C608 C 0.50027 0.13463 0.22167
 C609 C 0.49761 0.11571 0.18213
 N610 N 0.47830 0.09190 0.18791
 N611 N 0.47700 0.07358 0.15538
 C612 C 0.49498 0.07841 0.11594
 N613 N 0.51419 0.10235 0.10975
 N614 N 0.51551 0.12070 0.14241
 N615 N 0.66916 0.48134 0.31195
 C616 C 0.66355 0.49984 0.30390
 N617 N 0.67159 0.51869 0.34237
 N618 N 0.68486 0.51912 0.38747
 C619 C 0.69068 0.50078 0.39560
 N620 N 0.68249 0.48179 0.35714
 C621 C 0.64784 0.49889 0.25776
 C622 C 0.63406 0.49914 0.22162
 C623 C 0.61706 0.50070 0.18230
 N624 N 0.61310 0.52044 0.18548
 N625 N 0.59577 0.52123 0.15312
 C626 C 0.58176 0.50233 0.11633
 N627 N 0.58591 0.48264 0.11268
 N628 N 0.60327 0.48182 0.14525
 N629 N 0.84730 0.32378 0.33895
 C630 C 0.83706 0.33299 0.30185
 N631 N 0.81339 0.32852 0.31109
 N632 N 0.80037 0.31518 0.35605
 C633 C 0.81055 0.30580 0.39314
 N634 N 0.83431 0.31048 0.38387
 C635 C 0.85203 0.34891 0.25623
 C636 C 0.86599 0.36291 0.22035
 C637 C 0.88436 0.38023 0.18115
 N638 N 0.87884 0.39378 0.14435
 N639 N 0.89678 0.41138 0.11183
 C640 C 0.92082 0.41603 0.11529
 N641 N 0.92614 0.40227 0.15184
 N642 N 0.90825 0.38469 0.18414
   
