data_POSCAR
  _audit_creation_date              2014-09-24
  _audit_creation_method            'ToBaCCo'
  _symmetry_space_group_name_H-M    'P1'
  _symmetry_Int_Tables_number       1
  _symmetry_cell_setting            triclinic
  loop_
  _symmetry_equiv_pos_as_xyz
 x,y,z
_cell_length_a 41.1549
_cell_length_b 41.4767
_cell_length_c 37.6432
_cell_angle_alpha 90.045100
_cell_angle_beta 90.120400
_cell_angle_gamma 119.421200
loop_
  _atom_site_label
  _atom_site_type_symbol
  _atom_site_fract_x
  _atom_site_fract_y
  _atom_site_fract_z
C1 C 0.02877 0.50124 0.02670
 C2 C 0.02503 0.53243 0.03510
 C3 C -0.00287 0.53697 0.01818
 C4 C -0.02716 0.51086 -0.00670
 C5 C -0.02687 0.47667 -0.01082
 C6 C 0.00248 0.47329 0.00473
 H7 H 0.00446 0.44843 0.00123
 H8 H -0.00513 0.56143 0.02361
 C9 C 0.50855 0.50444 0.03969
 C10 C 0.47787 0.46814 0.03671
 C11 C 0.47855 0.44404 0.01111
 C12 C 0.50800 0.45573 -0.01329
 C13 C 0.53806 0.49281 -0.01171
 C14 C 0.53865 0.51579 0.01605
 H15 H 0.56256 0.54325 0.01867
 H16 H 0.45582 0.41572 0.01033
 C17 C 0.45170 0.96924 0.01275
 C18 C 0.48815 0.97370 0.01388
 C19 C 0.51572 1.00019 -0.00823
 C20 C 0.50760 1.02096 -0.03257
 C21 C 0.47015 1.01369 -0.03628
 C22 C 0.44317 0.98853 -0.01277
 H23 H 0.41486 0.98399 -0.01408
 H24 H 0.54420 1.00560 -0.00553
 C25 C 0.98156 0.50803 0.52469
 C26 C 0.97872 0.47259 0.52661
 C27 C 0.99688 0.46262 0.50106
 C28 C 1.01748 0.48655 0.47351
 C29 C 1.01990 0.52191 0.47066
 C30 C 1.00140 0.53170 0.49654
 H31 H 1.00217 0.55805 0.49566
 H32 H 0.99500 0.43563 0.50266
 C33 C 0.51422 0.48460 0.51264
 C34 C 0.54981 0.51675 0.51082
 C35 C 0.55345 0.54901 0.49493
 C36 C 0.52247 0.54961 0.48011
 C37 C 0.48730 0.51706 0.48032
 C38 C 0.48349 0.48511 0.49697
 H39 H 0.45641 0.46035 0.49739
 H40 H 0.58056 0.57377 0.49396
 C41 C 0.54674 0.02686 0.52227
 C42 C 0.50993 0.01632 0.53309
 C43 C 0.47965 -0.01099 0.51381
 C44 C 0.48489 -0.02674 0.48281
 C45 C 0.52198 -0.01680 0.47259
 C46 C 0.55216 0.00990 0.49241
 H47 H 0.58036 0.01713 0.48485
 H48 H 0.45152 -0.01924 0.52252
 O49 O 0.18669 0.42873 0.22102
 O50 O 0.25608 0.43281 0.28398
 O51 O 0.19546 0.43816 0.28979
 O52 O 0.25251 0.43369 0.21482
 O53 O 0.28106 0.49474 0.21194
 O54 O 0.22702 0.49916 0.28606
 O55 O 0.28689 0.49388 0.28107
 O56 O 0.21617 0.48974 0.21742
 Cu57 Cu 0.21969 0.42732 0.25272
 Cu58 Cu 0.25570 0.50034 0.24880
 C59 C 0.18948 0.45818 0.20829
 C60 C 0.28312 0.46364 0.29342
 C61 C 0.20226 0.47001 0.30070
 C62 C 0.27645 0.46408 0.20062
 O63 O 0.54579 0.81002 0.27004
 O64 O 0.55857 0.75425 0.20071
 O65 O 0.53917 0.80554 0.20085
 O66 O 0.56629 0.75965 0.26947
 O67 O 0.50705 0.71760 0.27638
 O68 O 0.48041 0.76161 0.20569
 O69 O 0.50005 0.71047 0.20793
 O70 O 0.48654 0.76719 0.27484
 Cu71 Cu 0.55836 0.78679 0.23460
 Cu72 Cu 0.48756 0.73495 0.24160
 C73 C 0.51394 0.79787 0.28436
 C74 C 0.53156 0.72251 0.19306
 C75 C 0.50521 0.79125 0.19142
 C76 C 0.54118 0.73102 0.28488
 O77 O 0.25601 0.82390 0.22450
 O78 O 0.18572 0.76796 0.29233
 O79 O 0.25373 0.82974 0.29081
 O80 O 0.18969 0.77133 0.22104
 O81 O 0.21220 0.73287 0.22561
 O82 O 0.27454 0.79018 0.29830
 O83 O 0.20899 0.73015 0.29462
 O84 O 0.28064 0.78731 0.23030
 Cu85 Cu 0.21791 0.80094 0.25798
 Cu86 Cu 0.24624 0.75623 0.26276
 C87 C 0.28073 0.81517 0.21643
 C88 C 0.18504 0.73902 0.30444
 C89 C 0.27567 0.82066 0.30578
 C90 C 0.19045 0.74259 0.21087
 O91 O 0.74458 0.54808 0.78420
 O92 O 0.82003 0.55135 0.72747
 O93 O 0.76354 0.56324 0.71732
 O94 O 0.80388 0.54216 0.79489
 O95 O 0.76866 0.48229 0.78440
 O96 O 0.73040 0.50364 0.70478
 O97 O 0.78549 0.49114 0.71830
 O98 O 0.70987 0.48886 0.77065
 Cu99 Cu 0.78641 0.55727 0.75695
 Cu100 Cu 0.74501 0.48557 0.74339
 C101 C 0.71422 0.51753 0.78673
 C102 C 0.81564 0.52122 0.71411
 C103 C 0.74019 0.53719 0.69783
 C104 C 0.79339 0.50874 0.80275
 O105 O 0.42912 0.18208 0.76842
 O106 O 0.41852 0.24326 0.70314
 O107 O 0.42140 0.18180 0.69983
 O108 O 0.42181 0.24112 0.77237
 O109 O 0.48311 0.27508 0.76868
 O110 O 0.48289 0.21433 0.69692
 O111 O 0.47984 0.27589 0.69898
 O112 O 0.49040 0.21659 0.76447
 Cu113 Cu 0.41655 0.20883 0.73633
 Cu114 Cu 0.49017 0.24917 0.73172
 C115 C 0.46183 0.18893 0.77712
 C116 C 0.44768 0.26988 0.68971
 C117 C 0.45203 0.18729 0.68669
 C118 C 0.45237 0.26795 0.78308
 O119 O 0.74266 0.20763 0.71754
 O120 O 0.81069 0.25764 0.78858
 O121 O 0.74732 0.19562 0.78484
 O122 O 0.80406 0.27062 0.72178
 O123 O 0.77257 0.29913 0.73615
 O124 O 0.71646 0.22481 0.79900
 O125 O 0.77958 0.28651 0.80296
 O126 O 0.71132 0.23636 0.73170
 Cu127 Cu 0.77937 0.23002 0.75184
 Cu128 Cu 0.74190 0.26459 0.76900
 C129 C 0.71556 0.21359 0.71234
 C130 C 0.80678 0.28058 0.80787
 C131 C 0.72207 0.19750 0.80259
 C132 C 0.79758 0.29742 0.71800
 C133 C 0.06060 0.49823 0.04096
 C134 C 0.05557 0.46854 0.06191
 C135 C 0.08514 0.47181 0.08615
 N136 N 0.07888 0.44340 0.10804
 N137 N 0.10450 0.44709 0.13184
 C138 C 0.13722 0.47940 0.13479
 N139 N 0.14354 0.50775 0.11282
 N140 N 0.11797 0.50403 0.08898
 C141 C 0.16539 0.48413 0.16147
 C142 C 0.16115 0.45482 0.18259
 H143 H 0.02827 0.44414 0.06352
 H144 H 0.19025 0.51093 0.16401
 H145 H 0.08772 0.52296 0.04041
 H146 H 0.13689 0.42773 0.17906
 C147 C 0.50970 0.52990 0.06807
 C148 C 0.52750 0.56829 0.06404
 C149 C 0.52424 0.59243 0.09074
 N150 N 0.54567 0.62974 0.08812
 N151 N 0.54219 0.65197 0.11153
 C152 C 0.51691 0.63766 0.13825
 N153 N 0.49539 0.60037 0.14077
 N154 N 0.49903 0.57816 0.11751
 C155 C 0.51198 0.66164 0.16385
 C156 C 0.53706 0.69941 0.16680
 H157 H 0.54296 0.58116 0.04012
 H158 H 0.48831 0.64887 0.18164
 H159 H 0.49416 0.51794 0.09220
 H160 H 0.56198 0.71198 0.15059
 C161 C 0.42158 0.94623 0.03790
 C162 C 0.42735 0.94627 0.07436
 C163 C 0.39633 0.92489 0.09872
 N164 N 0.40293 0.91375 0.13045
 N165 N 0.37491 0.89376 0.15251
 C166 C 0.33935 0.88464 0.14382
 N167 N 0.33282 0.89634 0.11236
 N168 N 0.36080 0.91594 0.09009
 C169 C 0.30831 0.86219 0.16784
 C170 C 0.31066 0.83774 0.19154
 H171 H 0.45524 0.96148 0.08531
 H172 H 0.28271 0.86344 0.16559
 H173 H 0.39327 0.93178 0.02776
 H174 H 0.33503 0.83414 0.19120
 C175 C 0.96408 0.52198 0.55042
 C176 C 0.96489 0.51788 0.58709
 C177 C 0.94360 0.52853 0.61113
 N178 N 0.93163 0.51104 0.64273
 N179 N 0.90992 0.51826 0.66363
 C180 C 0.89973 0.54361 0.65394
 N181 N 0.91250 0.56184 0.62274
 N182 N 0.93386 0.55427 0.60160
 C183 C 0.87317 0.54923 0.67559
 C184 C 0.84558 0.51967 0.69445
 H185 H 0.97859 0.50359 0.59818
 H186 H 0.87275 0.57509 0.67378
 H187 H 0.95150 0.53762 0.53992
 H188 H 0.84403 0.49287 0.69255
 C189 C 0.50898 0.45075 0.53126
 C190 C 0.47742 0.42808 0.55143
 C191 C 0.47595 0.39843 0.57415
 N192 N 0.44493 0.37667 0.59347
 N193 N 0.44413 0.35100 0.61536
 C194 C 0.47442 0.34629 0.61879
 N195 N 0.50530 0.36794 0.59939
 N196 N 0.50605 0.39345 0.57747
 C197 C 0.47522 0.31958 0.64394
 C198 C 0.44426 0.29423 0.66326
 H199 H 0.45430 0.43357 0.55251
 H200 H 0.50166 0.32021 0.64753
 H201 H 0.53167 0.44469 0.53135
 H202 H 0.41726 0.29210 0.65886
 C203 C 0.58024 0.05349 0.54255
 C204 C 0.58524 0.08729 0.55513
 C205 C 0.61422 0.10954 0.58142
 N206 N 0.61337 0.13813 0.59813
 N207 N 0.63796 0.15707 0.62364
 C208 C 0.66434 0.14811 0.63336
 N209 N 0.66543 0.11979 0.61638
 N210 N 0.64075 0.10075 0.59100
 C211 C 0.69121 0.16809 0.66201
 C212 C 0.68871 0.19420 0.68350
 H213 H 0.56544 0.09622 0.54780
 H214 H 0.71312 0.16131 0.66685
 H215 H 0.60165 0.04604 0.54750
 H216 H 0.66639 0.20051 0.67925
 C217 C 0.45803 0.03085 0.93854
 C218 C 0.47585 0.04611 0.90639
 C219 C 0.46496 0.06786 0.88337
 N220 N 0.48797 0.08806 0.85666
 N221 N 0.47973 0.10935 0.83641
 C222 C 0.44805 0.11114 0.84195
 N223 N 0.42466 0.09046 0.86833
 N224 N 0.43307 0.06935 0.88883
 C225 C 0.43960 0.13550 0.82003
 C226 C 0.46787 0.16455 0.80117
 H227 H 0.49877 0.04252 0.89736
 H228 H 0.41145 0.13125 0.81949
 H229 H 0.43169 0.03011 0.94326
 H230 H 0.49629 0.16984 0.80396
 C231 C 0.56773 0.50827 0.96362
 C232 C 0.56442 0.49739 0.92804
 C233 C 0.59641 0.51038 0.90383
 N234 N 0.59100 0.49532 0.87091
 N235 N 0.61967 0.50467 0.84913
 C236 C 0.65492 0.52959 0.85933
 N237 N 0.66033 0.54519 0.89208
 N238 N 0.63160 0.53567 0.91401
 C239 C 0.68688 0.53788 0.83608
 C240 C 0.68295 0.51422 0.80810
 H241 H 0.53735 0.47851 0.91697
 H242 H 0.71414 0.56072 0.84274
 H243 H 0.59364 0.53232 0.97163
 H244 H 0.65605 0.48995 0.80342
 C245 C 0.94279 0.44587 0.97288
 C246 C 0.94426 0.41628 0.95654
 C247 C 0.91358 0.39036 0.93319
 N248 N 0.91790 0.36587 0.91255
 N249 N 0.89148 0.34441 0.88937
 C250 C 0.85978 0.34670 0.88594
 N251 N 0.85531 0.37086 0.90684
 N252 N 0.88168 0.39228 0.92996
 C253 C 0.83105 0.32472 0.85931
 C254 C 0.83449 0.30050 0.83594
 H255 H 0.96962 0.41453 0.95676
 H256 H 0.80690 0.32856 0.85746
 H257 H 0.91684 0.44637 0.97046
 H258 H 0.85837 0.29624 0.83795
 C259 C 0.53102 0.96463 0.44372
 C260 C 0.51260 0.92624 0.44011
 C261 C 0.51943 0.90764 0.41018
 N262 N 0.49554 0.87127 0.40404
 N263 N 0.50062 0.85407 0.37651
 C264 C 0.52987 0.87258 0.35414
 N265 N 0.55399 0.90892 0.36045
 N266 N 0.54877 0.92620 0.38789
 C267 C 0.53573 0.85367 0.32379
 C268 C 0.50821 0.81865 0.31293
 H269 H 0.49090 0.90929 0.45880
 H270 H 0.56198 0.86761 0.30967
 H271 H 0.55427 0.98152 0.42646
 H272 H 0.48142 0.80558 0.32617
 C273 C 0.45509 0.51573 0.46127
 C274 C 0.43201 0.48605 0.43945
 C275 C 0.40602 0.48824 0.41401
 N276 N 0.38390 0.45844 0.39361
 N277 N 0.36145 0.46043 0.36927
 C278 C 0.36044 0.49236 0.36423
 N279 N 0.38261 0.52222 0.38460
 N280 N 0.40501 0.52020 0.40905
 C281 C 0.33577 0.49471 0.33725
 C282 C 0.30981 0.46332 0.31904
 H283 H 0.43503 0.46155 0.43888
 H284 H 0.33723 0.52114 0.33247
 H285 H 0.45199 0.54013 0.46087
 H286 H 0.30752 0.43674 0.32504
 C287 C 0.04015 0.54622 0.44254
 C288 C 0.04682 0.58260 0.43828
 C289 C 0.07255 0.60739 0.41097
 N290 N 0.07741 0.64201 0.40678
 N291 N 0.10187 0.66528 0.38327
 C292 C 0.12246 0.65474 0.36323
 N293 N 0.11755 0.62015 0.36738
 N294 N 0.09306 0.59691 0.39078
 C295 C 0.15057 0.68005 0.33799
 C296 C 0.15598 0.71517 0.32984
 H297 H 0.03475 0.59455 0.45562
 H298 H 0.16764 0.67030 0.32506
 H299 H 0.05231 0.53666 0.42264
 H300 H 0.13817 0.72478 0.34139
 C301 C 0.95041 0.52080 0.97255
 C302 C 0.93918 0.50780 0.93790
 C303 C 0.91183 0.51322 0.91764
 N304 N 0.89450 0.49065 0.88962
 N305 N 0.86951 0.49465 0.87050
 C306 C 0.86106 0.52155 0.87857
 N307 N 0.87855 0.54436 0.90651
 N308 N 0.90331 0.54007 0.92595
 C309 C 0.83548 0.52754 0.85584
 C310 C 0.81136 0.50034 0.83222
 H311 H 0.94976 0.49154 0.92498
 H312 H 0.83716 0.55443 0.85627
 H313 H 0.94462 0.54205 0.98230
 H314 H 0.80760 0.47263 0.83379
 C315 C 0.50858 0.42778 0.96260
 C316 C 0.47704 0.40269 0.94370
 C317 C 0.47894 0.37970 0.91491
 N318 N 0.44733 0.35561 0.89750
 N319 N 0.44867 0.33560 0.87045
 C320 C 0.48172 0.33907 0.85965
 N321 N 0.51336 0.36318 0.87705
 N322 N 0.51200 0.38315 0.90418
 C323 C 0.48355 0.31739 0.82952
 C324 C 0.45141 0.29061 0.81261
 H325 H 0.45055 0.40154 0.94849
 H326 H 0.51066 0.32222 0.82085
 H327 H 0.53514 0.42934 0.95715
 H328 H 0.42430 0.28516 0.82198
 C329 C 0.53918 0.05344 0.95061
 C330 C 0.56868 0.05175 0.93423
 C331 C 0.59657 0.08285 0.91301
 N332 N 0.62312 0.07936 0.89478
 N333 N 0.64745 0.10684 0.87430
 C334 C 0.64606 0.13880 0.87134
 N335 N 0.61968 0.14232 0.88973
 N336 N 0.59540 0.11489 0.91015
 C337 C 0.67161 0.16909 0.84803
 C338 C 0.69887 0.16748 0.82735
 H339 H 0.56991 0.02626 0.93496
 H340 H 0.66812 0.19330 0.84654
 H341 H 0.53749 0.07863 0.94871
 H342 H 0.70287 0.14359 0.82887
 C343 C 0.03556 0.47277 0.44837
 C344 C 0.07414 0.49077 0.44425
 C345 C 0.09294 0.47811 0.41916
 N346 N 0.13010 0.49942 0.41374
 N347 N 0.14755 0.48948 0.39010
 C348 C 0.12861 0.45774 0.37098
 N349 N 0.09146 0.43605 0.37677
 N350 N 0.07392 0.44609 0.40039
 C351 C 0.14771 0.44810 0.34320
 C352 C 0.18255 0.47482 0.33094
 H353 H 0.09113 0.51602 0.45906
 H354 H 0.13335 0.42115 0.33059
 H355 H 0.01844 0.44629 0.43555
 H356 H 0.19525 0.50236 0.34237
 C357 C 0.52681 0.58386 0.46365
 C358 C 0.55201 0.60196 0.43627
 C359 C 0.54689 0.62708 0.41209
 N360 N 0.57233 0.64582 0.38635
 N361 N 0.56624 0.66623 0.36269
 C362 C 0.53432 0.66834 0.36376
 N363 N 0.50900 0.64969 0.38951
 N364 N 0.51520 0.62954 0.41324
 C365 C 0.52561 0.68851 0.33668
 C366 C 0.55186 0.71313 0.31278
 H367 H 0.57330 0.59466 0.43019
 H368 H 0.49731 0.68387 0.33571
 H369 H 0.50605 0.59187 0.46964
 H370 H 0.58081 0.72000 0.31501
 C371 C 0.45263 0.94854 0.46375
 C372 C 0.45101 0.94530 0.42682
 C373 C 0.41721 0.91752 0.40855
 N374 N 0.40849 0.92477 0.37586
 N375 N 0.37833 0.89944 0.35874
 C376 C 0.35614 0.86571 0.37344
 N377 N 0.36518 0.85823 0.40592
 N378 N 0.39502 0.88381 0.42331
 C379 C 0.32373 0.83727 0.35391
 C380 C 0.30400 0.84711 0.33035
 H381 H 0.47405 0.96493 0.41077
 H382 H 0.31522 0.80837 0.35817
 H383 H 0.42635 0.93438 0.47791
 H384 H 0.31036 0.87573 0.32907
 C385 C 0.49969 0.95309 0.03836
 C386 C 0.47753 0.91546 0.04579
 C387 C 0.48877 0.89644 0.07207
 N388 N 0.46426 0.86131 0.08215
 N389 N 0.47374 0.84414 0.10659
 C390 C 0.50815 0.86147 0.12181
 N391 N 0.53271 0.89650 0.11158
 N392 N 0.52319 0.91370 0.08726
 C393 C 0.51915 0.84315 0.14907
 C394 C 0.49405 0.80894 0.16367
 H395 H 0.45060 0.89978 0.03299
 H396 H 0.54774 0.85752 0.15846
 H397 H 0.52756 0.96785 0.04949
 H398 H 0.46520 0.79495 0.15504
 C399 C 0.44459 0.45421 0.05984
 C400 C 0.42496 0.47345 0.06327
 C401 C 0.39321 0.46220 0.08751
 N402 N 0.37714 0.48382 0.09026
 N403 N 0.34976 0.47562 0.11334
 C404 C 0.33723 0.44544 0.13465
 N405 N 0.35293 0.42341 0.13158
 N406 N 0.38047 0.43167 0.10845
 C407 C 0.30877 0.43818 0.16205
 C408 C 0.29946 0.46539 0.17033
 H409 H 0.43414 0.49879 0.04834
 H410 H 0.29757 0.41304 0.17761
 H411 H 0.43402 0.42732 0.07217
 H412 H 0.31274 0.49123 0.15578
 C413 C 0.04904 0.55839 0.06333
 C414 C 0.05939 0.59579 0.06563
 C415 C 0.08578 0.61953 0.09333
 N416 N 0.09281 0.65483 0.09810
 N417 N 0.11673 0.67626 0.12310
 C418 C 0.13466 0.66323 0.14408
 N419 N 0.12782 0.62809 0.13911
 N420 N 0.10383 0.60666 0.11428
 C421 C 0.16097 0.68619 0.17202
 C422 C 0.16559 0.72060 0.18167
 H423 H 0.04904 0.60815 0.04662
 H424 H 0.17617 0.67505 0.18621
 H425 H 0.06014 0.54745 0.08312
 H426 H 0.14951 0.73128 0.16830
 C427 C 0.50267 0.03362 0.56423
 C428 C 0.47680 0.04606 0.56257
 C429 C 0.47726 0.07318 0.58797
 N430 N 0.44991 0.08241 0.58684
 N431 N 0.45114 0.10863 0.60818
 C432 C 0.48004 0.12687 0.63114
 N433 N 0.50748 0.11774 0.63219
 N434 N 0.50612 0.09136 0.61100
 C435 C 0.48194 0.15603 0.65467
 C436 C 0.45134 0.16121 0.65998
 H437 H 0.45790 0.03851 0.54016
 H438 H 0.50731 0.17233 0.66978
 H439 H 0.52127 0.04120 0.58688
 H440 H 0.42512 0.14320 0.64681
 C441 C 0.58306 0.51694 0.52607
 C442 C 0.60742 0.54459 0.54913
 C443 C 0.63384 0.53935 0.57148
 N444 N 0.65645 0.56621 0.59459
 N445 N 0.67819 0.56048 0.61703
 C446 C 0.67798 0.52761 0.61728
 N447 N 0.65563 0.50089 0.59398
 N448 N 0.63400 0.50666 0.57148
 C449 C 0.69941 0.51968 0.64377
 C450 C 0.72365 0.54642 0.66760
 H451 H 0.60457 0.56890 0.55348
 H452 H 0.69462 0.49161 0.64560
 H453 H 0.58645 0.49297 0.52193
 H454 H 0.72953 0.57479 0.66499
 C455 C 0.95804 0.44481 0.55444
 C456 C 0.92221 0.43554 0.56554
 C457 C 0.90285 0.40754 0.59324
 N458 N 0.87109 0.40369 0.60799
 N459 N 0.85359 0.37866 0.63333
 C460 C 0.86714 0.35647 0.64476
 N461 N 0.89876 0.36018 0.62986
 N462 N 0.91636 0.38533 0.60467
 C463 C 0.84787 0.32830 0.67232
 C464 C 0.81848 0.32675 0.69192
 H465 H 0.90834 0.44961 0.55429
 H466 H 0.85719 0.30842 0.67736
 H467 H 0.97061 0.42901 0.56452
 H468 H 0.81010 0.34748 0.68778
   
