data_POSCAR
  _audit_creation_date              2014-09-24
  _audit_creation_method            'ToBaCCo'
  _symmetry_space_group_name_H-M    'P1'
  _symmetry_Int_Tables_number       1
  _symmetry_cell_setting            triclinic
  loop_
  _symmetry_equiv_pos_as_xyz
 x,y,z
_cell_length_a 57.8114
_cell_length_b 41.1373
_cell_length_c 48.5435
_cell_angle_alpha 89.908300
_cell_angle_beta 89.978800
_cell_angle_gamma 90.020600
loop_
  _atom_site_label
  _atom_site_type_symbol
  _atom_site_fract_x
  _atom_site_fract_y
  _atom_site_fract_z
C1 C 0.25059 0.26556 0.24805
 C2 C 0.25023 0.23248 0.24882
 C3 C 0.23264 0.21368 0.23331
 C4 C 0.26710 0.21370 0.26557
 C5 C 0.26628 0.28449 0.26594
 C6 C 0.23493 0.28427 0.22980
 C7 C 0.20905 0.21850 0.23806
 C8 C 0.19253 0.20178 0.22261
 C9 C 0.19903 0.17942 0.20170
 C10 C 0.22315 0.17432 0.19791
 C11 C 0.23956 0.19107 0.21354
 C12 C 0.25920 0.19102 0.28501
 C13 C 0.27491 0.17378 0.30132
 C14 C 0.29887 0.17888 0.29849
 C15 C 0.30671 0.20113 0.27851
 C16 C 0.29099 0.21807 0.26204
 C17 C 0.28534 0.30056 0.25451
 C18 C 0.30093 0.31705 0.27146
 C19 C 0.29730 0.31876 0.30015
 C20 C 0.27760 0.30337 0.31129
 C21 C 0.26241 0.28608 0.29437
 C22 C 0.23537 0.27971 0.20116
 C23 C 0.21971 0.29620 0.18425
 C24 C 0.20332 0.31746 0.19574
 C25 C 0.20328 0.32252 0.22437
 C26 C 0.21907 0.30623 0.24123
 H27 H 0.20339 0.23526 0.25388
 H28 H 0.17473 0.20585 0.22835
 H29 H 0.22995 0.15893 0.18186
 H30 H 0.25778 0.18712 0.20957
 H31 H 0.24083 0.18696 0.28779
 H32 H 0.26827 0.15633 0.31605
 H33 H 0.29749 0.23474 0.24659
 H34 H 0.28855 0.29941 0.23255
 H35 H 0.31606 0.32781 0.26202
 H36 H 0.27375 0.30475 0.33306
 H37 H 0.24756 0.27402 0.30341
 H38 H 0.24765 0.26305 0.19198
 H39 H 0.22002 0.29173 0.16228
 H40 H 0.19102 0.33908 0.23370
 H41 H 0.21854 0.31013 0.26328
 H42 H 0.32499 0.20589 0.27588
 C43 C 0.74863 0.23352 0.24943
 C44 C 0.74895 0.26661 0.24949
 C45 C 0.76675 0.28516 0.23412
 C46 C 0.73149 0.28564 0.26494
 C47 C 0.73230 0.21501 0.26704
 C48 C 0.76463 0.21443 0.23188
 C49 C 0.79030 0.28129 0.24019
 C50 C 0.80703 0.29773 0.22475
 C51 C 0.80052 0.31824 0.20284
 C52 C 0.77682 0.32246 0.19723
 C53 C 0.76010 0.30628 0.21289
 C54 C 0.73851 0.30638 0.28622
 C55 C 0.72209 0.32313 0.30184
 C56 C 0.69833 0.31983 0.29617
 C57 C 0.69145 0.29966 0.27424
 C58 C 0.70788 0.28269 0.25882
 C59 C 0.71622 0.19389 0.25496
 C60 C 0.70013 0.17740 0.27131
 C61 C 0.70011 0.18139 0.30006
 C62 C 0.71665 0.20194 0.31216
 C63 C 0.73260 0.21863 0.29578
 C64 C 0.76513 0.21899 0.20323
 C65 C 0.78091 0.20184 0.18700
 C66 C 0.79641 0.17973 0.19913
 C67 C 0.79548 0.17468 0.22777
 C68 C 0.77964 0.19176 0.24397
 H69 H 0.79569 0.26539 0.25679
 H70 H 0.82506 0.29444 0.23005
 H71 H 0.77115 0.33764 0.18030
 H72 H 0.74198 0.30947 0.20792
 H73 H 0.75668 0.30888 0.29122
 H74 H 0.72801 0.33804 0.31878
 H75 H 0.70221 0.26711 0.24217
 H76 H 0.71585 0.19070 0.23282
 H77 H 0.68775 0.16140 0.26150
 H78 H 0.71693 0.20561 0.33425
 H79 H 0.74509 0.23459 0.30546
 H80 H 0.75344 0.23606 0.19349
 H81 H 0.78131 0.20638 0.16503
 H82 H 0.80697 0.15745 0.23762
 H83 H 0.77938 0.18777 0.26603
 H84 H 0.67337 0.29707 0.26890
 C85 C 0.75032 0.76715 0.75016
 C86 C 0.75058 0.73404 0.74916
 C87 C 0.73315 0.71589 0.73288
 C88 C 0.76796 0.71453 0.76453
 C89 C 0.76597 0.78555 0.76866
 C90 C 0.73438 0.78651 0.73269
 C91 C 0.70950 0.71890 0.73877
 C92 C 0.69311 0.70278 0.72264
 C93 C 0.70006 0.68343 0.70023
 C94 C 0.72386 0.68006 0.69477
 C95 C 0.74024 0.69593 0.71110
 C96 C 0.76065 0.68948 0.78213
 C97 C 0.77672 0.67197 0.79769
 C98 C 0.80048 0.67913 0.79594
 C99 C 0.80780 0.70360 0.77761
 C100 C 0.79172 0.72088 0.76188
 C101 C 0.78151 0.80808 0.75753
 C102 C 0.79720 0.82432 0.77450
 C103 C 0.79753 0.81886 0.80327
 C104 C 0.78113 0.79686 0.81430
 C105 C 0.76563 0.78040 0.79718
 C106 C 0.73460 0.78327 0.70391
 C107 C 0.71900 0.80078 0.68770
 C108 C 0.70297 0.82200 0.69997
 C109 C 0.70316 0.82572 0.72876
 C110 C 0.71881 0.80825 0.74495
 H111 H 0.70376 0.73386 0.75579
 H112 H 0.67499 0.70537 0.72785
 H113 H 0.72985 0.66576 0.67749
 H114 H 0.75844 0.69339 0.70629
 H115 H 0.74242 0.68391 0.78424
 H116 H 0.77052 0.65282 0.81111
 H117 H 0.79781 0.73958 0.74793
 H118 H 0.78178 0.81268 0.73556
 H119 H 0.80853 0.84191 0.76488
 H120 H 0.78083 0.79086 0.83599
 H121 H 0.75359 0.76319 0.80614
 H122 H 0.74674 0.76696 0.69405
 H123 H 0.71916 0.79725 0.66560
 H124 H 0.69125 0.84225 0.73875
 H125 H 0.71852 0.81124 0.76711
 H126 H 0.82591 0.70993 0.77586
 C127 C 0.24921 0.73316 0.75019
 C128 C 0.24988 0.76622 0.75189
 C129 C 0.26760 0.78578 0.73709
 C130 C 0.23252 0.78429 0.76839
 C131 C 0.23284 0.71385 0.76708
 C132 C 0.26483 0.71472 0.73166
 C133 C 0.29127 0.77878 0.73970
 C134 C 0.30761 0.79608 0.72434
 C135 C 0.30065 0.82116 0.70643
 C136 C 0.27700 0.82899 0.70479
 C137 C 0.26067 0.81149 0.71998
 C138 C 0.23966 0.80424 0.79007
 C139 C 0.22340 0.82038 0.80637
 C140 C 0.19938 0.81725 0.80126
 C141 C 0.19255 0.79765 0.77873
 C142 C 0.20889 0.78151 0.76258
 C143 C 0.21595 0.69481 0.75425
 C144 C 0.19984 0.67757 0.76997
 C145 C 0.20046 0.67842 0.79909
 C146 C 0.21808 0.69706 0.81171
 C147 C 0.23394 0.71463 0.79588
 C148 C 0.26557 0.72129 0.70329
 C149 C 0.28110 0.70468 0.68630
 C150 C 0.29608 0.68115 0.69741
 C151 C 0.29483 0.67404 0.72570
 C152 C 0.27924 0.69055 0.74263
 H153 H 0.29706 0.75952 0.75328
 H154 H 0.32564 0.78925 0.72599
 H155 H 0.27109 0.84862 0.69170
 H156 H 0.24252 0.81757 0.71791
 H157 H 0.25789 0.80659 0.79487
 H158 H 0.22994 0.83397 0.82372
 H159 H 0.20309 0.76683 0.74541
 H160 H 0.21505 0.69368 0.73198
 H161 H 0.18743 0.66274 0.75904
 H162 H 0.21912 0.69958 0.83384
 H163 H 0.24698 0.72918 0.80610
 H164 H 0.25433 0.73956 0.69439
 H165 H 0.28177 0.71076 0.66461
 H166 H 0.30590 0.65566 0.73473
 H167 H 0.27878 0.68497 0.76444
 H168 H 0.17465 0.79539 0.77267
 O169 O 1.02217 -0.04285 -0.00492
 O170 O 0.97669 -0.00514 0.03749
 O171 O 0.97715 -0.04335 -0.00523
 O172 O 1.02170 -0.00475 0.03793
 O173 O 1.02218 0.03760 0.01002
 O174 O 0.97654 -0.00007 -0.03211
 O175 O 0.97717 0.03805 0.01051
 O176 O 1.02159 -0.00051 -0.03284
 Cu177 Cu 0.99945 -0.02832 0.01907
 Cu178 Cu 0.99940 0.02305 -0.01386
 C179 C 1.02955 -0.02824 -0.02627
 C180 C 0.96921 0.02300 0.03133
 C181 C 0.96910 -0.02822 -0.02595
 C182 C 1.02962 0.02300 0.03133
 O183 O 0.47586 0.50521 0.46441
 O184 O 0.52194 0.54304 0.50587
 O185 O 0.52096 0.50508 0.46280
 O186 O 0.47689 0.54314 0.50696
 O187 O 0.47635 0.49937 0.53326
 O188 O 0.52269 0.46322 0.49120
 O189 O 0.52136 0.50102 0.53417
 O190 O 0.47784 0.46118 0.49041
 Cu191 Cu 0.49892 0.52843 0.48226
 Cu192 Cu 0.49961 0.47691 0.51502
 C193 C 0.46922 0.47655 0.47017
 C194 C 0.52928 0.52870 0.52737
 C195 C 0.52949 0.47774 0.46954
 C196 C 0.46884 0.52760 0.52746
 O197 O -0.02231 0.53651 -0.01012
 O198 O 0.02372 0.49883 0.03154
 O199 O 0.02251 0.53666 -0.01145
 O200 O -0.02128 0.49890 0.03334
 O201 O -0.02256 0.45624 0.00589
 O202 O 0.02247 0.49310 -0.03792
 O203 O 0.02245 0.45527 0.00515
 O204 O -0.02265 0.49363 -0.03735
 Cu205 Cu 0.00069 0.52203 0.01356
 Cu206 Cu -0.00014 0.47024 -0.01877
 C207 C -0.03021 0.52163 -0.03103
 C208 C 0.03089 0.47051 0.02555
 C209 C 0.03005 0.52132 -0.03228
 C210 C -0.02948 0.47117 0.02725
 O211 O 0.47690 1.04173 0.49380
 O212 O 0.52267 1.00552 0.53675
 O213 O 0.52177 1.04261 0.49322
 O214 O 0.47756 1.00485 0.53753
 O215 O 0.47792 0.96111 0.51130
 O216 O 0.52189 0.99908 0.46674
 O217 O 0.52280 0.96205 0.51020
 O218 O 0.47675 0.99795 0.46761
 Cu219 Cu 0.49970 1.02802 0.51800
 Cu220 Cu 0.49983 0.97571 0.48629
 C221 C 0.46901 1.02604 0.47332
 C222 C 0.53059 0.97758 0.53081
 C223 C 0.52937 1.02735 0.47237
 C224 C 0.47024 0.97645 0.53207
 C225 C 1.14925 0.13194 0.15195
 C226 C 1.14334 0.15960 0.16719
 C227 C 1.15969 0.17523 0.18370
 C228 C 1.18280 0.16374 0.18578
 C229 C 1.18832 0.13547 0.17036
 C230 C 1.17189 0.12004 0.15380
 C231 C 1.13186 0.11569 0.13405
 C232 C 1.13105 0.08162 0.13209
 C233 C 1.11473 0.06641 0.11522
 C234 C 1.09875 0.08489 0.09999
 C235 C 1.09956 0.11897 0.10199
 C236 C 1.11594 0.13417 0.11875
 C237 C 1.08126 0.06875 0.08220
 C238 C 1.07510 0.08226 0.05660
 C239 C 1.05839 0.06739 0.04008
 C240 C 1.04754 0.03853 0.04868
 C241 C 1.05382 0.02484 0.07414
 C242 C 1.07043 0.03982 0.09074
 H243 H 1.12595 0.16932 0.16639
 H244 H 1.15397 0.19733 0.19352
 H245 H 1.20500 0.12381 0.17157
 H246 H 1.17706 0.09875 0.14223
 H247 H 1.14289 0.06664 0.14383
 H248 H 1.11478 0.04014 0.11392
 H249 H 1.08733 0.13394 0.09083
 H250 H 1.11627 0.16047 0.11950
 H251 H 1.08337 0.10421 0.04919
 H252 H 1.05404 0.07845 0.02050
 H253 H 1.04569 0.00272 0.08142
 H254 H 1.07450 0.02902 0.11050
 C255 C 0.64944 0.63673 0.64807
 C256 C 0.67053 0.62129 0.65420
 C257 C 0.68683 0.63626 0.67126
 C258 C 0.68257 0.66721 0.68242
 C259 C 0.66152 0.68269 0.67622
 C260 C 0.64513 0.66758 0.65940
 C261 C 0.63203 0.62074 0.63000
 C262 C 0.61855 0.63918 0.61160
 C263 C 0.60202 0.62422 0.59487
 C264 C 0.59868 0.59038 0.59587
 C265 C 0.61231 0.57190 0.61408
 C266 C 0.62867 0.58690 0.63101
 C267 C 0.58096 0.57445 0.57817
 C268 C 0.56813 0.54781 0.58804
 C269 C 0.55151 0.53283 0.57146
 C270 C 0.54710 0.54437 0.54473
 C271 C 0.55980 0.57106 0.53484
 C272 C 0.57663 0.58581 0.55130
 H273 H 0.67461 0.59773 0.64557
 H274 H 0.70271 0.62341 0.67585
 H275 H 0.65776 0.70672 0.68409
 H276 H 0.62896 0.68002 0.65548
 H277 H 0.62088 0.66522 0.60994
 H278 H 0.59165 0.63931 0.58139
 H279 H 0.61048 0.54575 0.61514
 H280 H 0.63849 0.57194 0.64516
 H281 H 0.57065 0.53877 0.60878
 H282 H 0.54187 0.51246 0.57975
 H283 H 0.55691 0.58036 0.51424
 H284 H 0.58644 0.60588 0.54281
 C285 C -0.14819 0.36513 0.15159
 C286 C -0.14424 0.33392 0.16247
 C287 C -0.16080 0.31881 0.17910
 C288 C -0.18165 0.33465 0.18557
 C289 C -0.18548 0.36604 0.17500
 C290 C -0.16902 0.38101 0.15811
 C291 C -0.13077 0.38091 0.13333
 C292 C -0.12700 0.41467 0.13440
 C293 C -0.11082 0.42948 0.11705
 C294 C -0.09778 0.41089 0.09836
 C295 C -0.10144 0.37711 0.09742
 C296 C -0.11780 0.36236 0.11455
 C297 C -0.08041 0.42660 0.07999
 C298 C -0.07685 0.41518 0.05301
 C299 C -0.06029 0.42959 0.03592
 C300 C -0.04711 0.45605 0.04526
 C301 C -0.05080 0.46776 0.07207
 C302 C -0.06714 0.45308 0.08929
 H303 H -0.12826 0.32114 0.15827
 H304 H -0.15737 0.29446 0.18652
 H305 H -0.20117 0.37918 0.17984
 H306 H -0.17282 0.40487 0.14985
 H307 H -0.13642 0.42970 0.14884
 H308 H -0.10872 0.45559 0.11811
 H309 H -0.09150 0.36192 0.08360
 H310 H -0.12045 0.33639 0.11282
 H311 H -0.08704 0.39528 0.04493
 H312 H -0.05797 0.42020 0.01528
 H313 H -0.04077 0.48796 0.07993
 H314 H -0.06908 0.46218 0.11008
 C315 C 0.35093 0.86995 0.65515
 C316 C 0.32868 0.86293 0.64511
 C317 C 0.31240 0.84730 0.66177
 C318 C 0.31788 0.83850 0.68900
 C319 C 0.34004 0.84585 0.69917
 C320 C 0.35638 0.86131 0.68243
 C321 C 0.36841 0.88586 0.63712
 C322 C 0.38381 0.90912 0.64779
 C323 C 0.40030 0.92388 0.63082
 C324 C 0.40175 0.91586 0.60272
 C325 C 0.38629 0.89270 0.59204
 C326 C 0.36990 0.87781 0.60903
 C327 C 0.41933 0.93146 0.58462
 C328 C 0.43054 0.91345 0.56395
 C329 C 0.44695 0.92810 0.54683
 C330 C 0.45269 0.96106 0.55009
 C331 C 0.44159 0.97908 0.57080
 C332 C 0.42504 0.96448 0.58781
 H333 H 0.32377 0.86963 0.62434
 H334 H 0.29562 0.84163 0.65313
 H335 H 0.34475 0.83975 0.72013
 H336 H 0.37343 0.86603 0.69074
 H337 H 0.38298 0.91617 0.66925
 H338 H 0.41211 0.94132 0.63981
 H339 H 0.38671 0.88624 0.57044
 H340 H 0.35854 0.85969 0.60019
 H341 H 0.42686 0.88785 0.56123
 H342 H 0.45531 0.91348 0.53119
 H343 H 0.44554 1.00457 0.57375
 H344 H 0.41649 0.97920 0.60322
 C345 C -0.14987 0.62974 -0.15240
 C346 C -0.14434 0.63791 -0.17976
 C347 C -0.16048 0.65357 -0.19660
 C348 C -0.18252 0.66164 -0.18646
 C349 C -0.18808 0.65336 -0.15913
 C350 C -0.17200 0.63751 -0.14236
 C351 C -0.13259 0.61346 -0.13434
 C352 C -0.13095 0.62158 -0.10627
 C353 C -0.11468 0.60640 -0.08931
 C354 C -0.09950 0.58289 -0.10000
 C355 C -0.10113 0.57479 -0.12807
 C356 C -0.11751 0.58981 -0.14500
 C357 C -0.08197 0.56703 -0.08202
 C358 C -0.07645 0.53398 -0.08537
 C359 C -0.05971 0.51923 -0.06878
 C360 C -0.04822 0.53711 -0.04828
 C361 C -0.05388 0.57005 -0.04470
 C362 C -0.07049 0.58487 -0.06145
 H363 H -0.12737 0.63265 -0.18809
 H364 H -0.15571 0.65922 -0.21764
 H365 H -0.20477 0.65958 -0.15050
 H366 H -0.17698 0.63119 -0.12152
 H367 H -0.14207 0.63999 -0.09744
 H368 H -0.11412 0.61295 -0.06773
 H369 H -0.08953 0.55710 -0.13709
 H370 H -0.11848 0.58266 -0.16642
 H371 H -0.08523 0.51937 -0.10067
 H372 H -0.05584 0.49375 -0.07193
 H373 H -0.04522 0.58454 -0.02921
 H374 H -0.07402 0.61048 -0.05858
 C375 C 0.34793 1.12962 0.35108
 C376 C 0.35307 1.13549 0.32320
 C377 C 0.33708 1.15104 0.30609
 C378 C 0.31561 1.16139 0.31647
 C379 C 0.31041 1.15537 0.34432
 C380 C 0.32632 1.13956 0.36137
 C381 C 0.36515 1.11361 0.36942
 C382 C 0.36761 1.12346 0.39699
 C383 C 0.38401 1.10880 0.41411
 C384 C 0.39853 1.08410 0.40405
 C385 C 0.39601 1.07416 0.37650
 C386 C 0.37947 1.08863 0.35945
 C387 C 0.41638 1.06904 0.42210
 C388 C 0.42162 1.03574 0.42000
 C389 C 0.43869 1.02178 0.43662
 C390 C 0.45077 1.04071 0.45591
 C391 C 0.44541 1.07390 0.45823
 C392 C 0.42851 1.08793 0.44143
 H393 H 0.36964 1.12855 0.31464
 H394 H 0.34155 1.15484 0.28467
 H395 H 0.29417 1.16335 0.35312
 H396 H 0.32162 1.13504 0.38262
 H397 H 0.35711 1.14290 0.40529
 H398 H 0.38522 1.11675 0.43531
 H399 H 0.40707 1.05551 0.36794
 H400 H 0.37785 1.08010 0.33846
 H401 H 0.41236 1.02033 0.40570
 H402 H 0.44232 0.99608 0.43448
 H403 H 0.45453 1.08918 0.47277
 H404 H 0.42526 1.11375 0.44328
 C405 C 1.14943 -0.13602 -0.14734
 C406 C 1.17209 -0.12401 -0.14920
 C407 C 1.18843 -0.13914 -0.16609
 C408 C 1.18269 -0.16699 -0.18174
 C409 C 1.15976 -0.17878 -0.17968
 C410 C 1.14347 -0.16352 -0.16284
 C411 C 1.13208 -0.12000 -0.12925
 C412 C 1.11613 -0.13866 -0.11409
 C413 C 1.09971 -0.12364 -0.09726
 C414 C 1.09888 -0.08959 -0.09505
 C415 C 1.11489 -0.07093 -0.11010
 C416 C 1.13126 -0.08595 -0.12703
 C417 C 1.08130 -0.07363 -0.07724
 C418 C 1.07048 -0.04467 -0.08567
 C419 C 1.05381 -0.02983 -0.06905
 C420 C 1.04747 -0.04370 -0.04367
 C421 C 1.05830 -0.07260 -0.03519
 C422 C 1.07506 -0.08735 -0.05174
 H423 H 1.17732 -0.10294 -0.13740
 H424 H 1.20531 -0.12795 -0.16737
 H425 H 1.15428 -0.20063 -0.19014
 H426 H 1.12608 -0.17329 -0.16206
 H427 H 1.11647 -0.16495 -0.11504
 H428 H 1.08747 -0.13874 -0.08623
 H429 H 1.11492 -0.04468 -0.10862
 H430 H 1.14310 -0.07083 -0.13865
 H431 H 1.07460 -0.03373 -0.10537
 H432 H 1.04571 -0.00766 -0.07625
 H433 H 1.05390 -0.08380 -0.01567
 H434 H 1.08332 -0.10933 -0.04440
 C435 C 0.64781 0.36859 0.34706
 C436 C 0.64335 0.33746 0.33637
 C437 C 0.65967 0.32174 0.31986
 C438 C 0.68080 0.33687 0.31335
 C439 C 0.68515 0.36816 0.32376
 C440 C 0.66892 0.38375 0.34050
 C441 C 0.63062 0.38500 0.36516
 C442 C 0.62730 0.41883 0.36373
 C443 C 0.61126 0.43421 0.38088
 C444 C 0.59796 0.41613 0.39972
 C445 C 0.60121 0.38228 0.40105
 C446 C 0.61741 0.36696 0.38412
 C447 C 0.58070 0.43240 0.41783
 C448 C 0.57700 0.42142 0.44494
 C449 C 0.56042 0.43617 0.46172
 C450 C 0.54733 0.46252 0.45193
 C451 C 0.55121 0.47385 0.42500
 C452 C 0.56761 0.45886 0.40810
 H453 H 0.62715 0.32522 0.34062
 H454 H 0.65584 0.29748 0.31255
 H455 H 0.70108 0.38074 0.31888
 H456 H 0.67309 0.40753 0.34863
 H457 H 0.63693 0.43347 0.34916
 H458 H 0.60945 0.46035 0.37951
 H459 H 0.59106 0.36749 0.41500
 H460 H 0.61972 0.34095 0.38610
 H461 H 0.58707 0.40155 0.45333
 H462 H 0.55796 0.42705 0.48246
 H463 H 0.54127 0.49397 0.41681
 H464 H 0.56969 0.46763 0.38721
 C465 C 0.84716 -0.13423 -0.14526
 C466 C 0.82565 -0.14396 -0.13464
 C467 C 0.80937 -0.15941 -0.15142
 C468 C 0.81397 -0.16533 -0.17957
 C469 C 0.83563 -0.15524 -0.19005
 C470 C 0.85194 -0.14015 -0.17315
 C471 C 0.86463 -0.11813 -0.12735
 C472 C 0.87885 -0.09328 -0.13782
 C473 C 0.89559 -0.07862 -0.12122
 C474 C 0.89840 -0.08819 -0.09360
 C475 C 0.88401 -0.11280 -0.08303
 C476 C 0.86740 -0.12767 -0.09971
 C477 C 0.91637 -0.07272 -0.07600
 C478 C 0.92877 -0.09118 -0.05657
 C479 C 0.94577 -0.07669 -0.04019
 C480 C 0.95093 -0.04349 -0.04306
 C481 C 0.93859 -0.02501 -0.06247
 C482 C 0.92143 -0.03941 -0.07865
 H483 H 0.82116 -0.13911 -0.11339
 H484 H 0.79282 -0.16535 -0.14232
 H485 H 0.84069 -0.16026 -0.21107
 H486 H 0.86857 -0.13378 -0.18188
 H487 H 0.87699 -0.08497 -0.15888
 H488 H 0.90654 -0.06006 -0.13018
 H489 H 0.88546 -0.12048 -0.06176
 H490 H 0.85696 -0.14698 -0.09103
 H491 H 0.92564 -0.11699 -0.05430
 H492 H 0.95508 -0.09162 -0.02553
 H493 H 0.94204 0.00070 -0.06501
 H494 H 0.91196 -0.02431 -0.09302
 C495 C 0.34701 0.36786 0.35243
 C496 C 0.34339 0.37803 0.32507
 C497 C 0.32699 0.36268 0.30843
 C498 C 0.31415 0.33604 0.31832
 C499 C 0.31784 0.32577 0.34563
 C500 C 0.33376 0.34171 0.36253
 C501 C 0.36467 0.38414 0.37017
 C502 C 0.37644 0.36670 0.39082
 C503 C 0.39296 0.38188 0.40740
 C504 C 0.39878 0.41477 0.40335
 C505 C 0.38715 0.43215 0.38255
 C506 C 0.37014 0.41721 0.36650
 C507 C 0.41692 0.43075 0.42059
 C508 C 0.41589 0.46428 0.42642
 C509 C 0.43309 0.47926 0.44216
 C510 C 0.45132 0.46092 0.45316
 C511 C 0.45232 0.42748 0.44782
 C512 C 0.43554 0.41265 0.43138
 H513 H 0.35343 0.39762 0.31620
 H514 H 0.32442 0.37191 0.28778
 H515 H 0.30869 0.30505 0.35402
 H516 H 0.33556 0.33345 0.38359
 H517 H 0.37317 0.34109 0.39410
 H518 H 0.40105 0.36768 0.42350
 H519 H 0.39129 0.45731 0.37831
 H520 H 0.36125 0.43181 0.35128
 H521 H 0.40165 0.47904 0.41919
 H522 H 0.43187 0.50507 0.44628
 H523 H 0.46641 0.41294 0.45588
 H524 H 0.43745 0.38704 0.42688
 C525 C 0.15019 0.62856 -0.15251
 C526 C 0.17247 0.63406 -0.14214
 C527 C 0.18899 0.65045 -0.15795
 C528 C 0.18381 0.66141 -0.18487
 C529 C 0.16138 0.65519 -0.19521
 C530 C 0.14481 0.63926 -0.17916
 C531 C 0.13248 0.61217 -0.13537
 C532 C 0.11018 0.62541 -0.13303
 C533 C 0.09357 0.61042 -0.11639
 C534 C 0.09886 0.58166 -0.10209
 C535 C 0.12106 0.56816 -0.10472
 C536 C 0.13779 0.58343 -0.12105
 C537 C 0.08131 0.56606 -0.08420
 C538 C 0.07722 0.53245 -0.08574
 C539 C 0.06046 0.51788 -0.06900
 C540 C 0.04774 0.53659 -0.05012
 C541 C 0.05201 0.57016 -0.04845
 C542 C 0.06852 0.58478 -0.06545
 H543 H 0.17704 0.62602 -0.12159
 H544 H 0.20606 0.65336 -0.14919
 H545 H 0.15601 0.66387 -0.21525
 H546 H 0.12771 0.63526 -0.18762
 H547 H 0.10572 0.64767 -0.14372
 H548 H 0.07652 0.62116 -0.11483
 H549 H 0.12558 0.54612 -0.09375
 H550 H 0.15482 0.57266 -0.12268
 H551 H 0.08678 0.51756 -0.10017
 H552 H 0.05757 0.49195 -0.07070
 H553 H 0.04245 0.58523 -0.03414
 H554 H 0.07150 0.61069 -0.06372
 C555 C 0.64925 1.13352 0.35066
 C556 C 0.67265 1.13371 0.35845
 C557 C 0.68918 1.14923 0.34203
 C558 C 0.68267 1.16457 0.31735
 C559 C 0.65930 1.16410 0.30942
 C560 C 0.64274 1.14887 0.32598
 C561 C 0.63163 1.11766 0.36835
 C562 C 0.61051 1.13325 0.37384
 C563 C 0.59399 1.11851 0.39076
 C564 C 0.59815 1.08773 0.40232
 C565 C 0.61919 1.07202 0.39667
 C566 C 0.63582 1.08691 0.37997
 C567 C 0.58061 1.07217 0.42031
 C568 C 0.57504 1.03914 0.41715
 C569 C 0.55834 1.02458 0.43398
 C570 C 0.54704 1.04269 0.45450
 C571 C 0.55274 1.07568 0.45775
 C572 C 0.56927 1.09029 0.44076
 H573 H 0.67811 1.12229 0.37749
 H574 H 0.70711 1.14905 0.34851
 H575 H 0.65378 1.17599 0.29062
 H576 H 0.62485 1.14886 0.31938
 H577 H 0.60692 1.15707 0.36534
 H578 H 0.57783 1.13103 0.39459
 H579 H 0.62291 1.04839 0.40549
 H580 H 0.65189 1.07426 0.37590
 H581 H 0.58338 1.02468 0.40139
 H582 H 0.55435 0.99911 0.43097
 H583 H 0.54434 1.09030 0.47336
 H584 H 0.57340 1.11571 0.44382
 C585 C 0.15264 0.36403 0.14412
 C586 C 0.17603 0.36334 0.13623
 C587 C 0.19251 0.34819 0.15295
 C588 C 0.18596 0.33376 0.17802
 C589 C 0.16260 0.33467 0.18599
 C590 C 0.14610 0.34953 0.16915
 C591 C 0.13506 0.37967 0.12626
 C592 C 0.11378 0.36427 0.12129
 C593 C 0.09714 0.37901 0.10457
 C594 C 0.10136 0.40961 0.09268
 C595 C 0.12262 0.42506 0.09769
 C596 C 0.13936 0.41015 0.11420
 C597 C 0.08355 0.42536 0.07522
 C598 C 0.07827 0.45846 0.07856
 C599 C 0.06115 0.47314 0.06246
 C600 C 0.04912 0.45509 0.04250
 C601 C 0.05459 0.42206 0.03899
 C602 C 0.07154 0.40732 0.05527
 H603 H 0.18150 0.37413 0.11693
 H604 H 0.21042 0.34798 0.14642
 H605 H 0.15705 0.32346 0.20508
 H606 H 0.12822 0.34994 0.17583
 H607 H 0.11010 0.34064 0.13014
 H608 H 0.08083 0.36669 0.10123
 H609 H 0.12637 0.44853 0.08860
 H610 H 0.15556 0.42265 0.11786
 H611 H 0.08712 0.47284 0.09396
 H612 H 0.05736 0.49863 0.06563
 H613 H 0.04563 0.40749 0.02380
 H614 H 0.07543 0.38185 0.05209
 C615 C 0.65304 0.87250 0.64978
 C616 C 0.64651 0.85855 0.67507
 C617 C 0.66275 0.84242 0.69143
 C618 C 0.68588 0.83978 0.68285
 C619 C 0.69247 0.85384 0.65764
 C620 C 0.67624 0.87006 0.64131
 C621 C 0.63565 0.88906 0.63215
 C622 C 0.63597 0.88500 0.60340
 C623 C 0.61929 0.89995 0.58686
 C624 C 0.60187 0.91928 0.59866
 C625 C 0.60167 0.92358 0.62738
 C626 C 0.61837 0.90866 0.64392
 C627 C 0.58378 0.93446 0.58112
 C628 C 0.57584 0.96610 0.58655
 C629 C 0.55861 0.98016 0.57021
 C630 C 0.54897 0.96289 0.54804
 C631 C 0.55698 0.93130 0.54255
 C632 C 0.57416 0.91724 0.55891
 H633 H 0.62871 0.85950 0.68196
 H634 H 0.65709 0.83137 0.71054
 H635 H 0.71024 0.85259 0.65069
 H636 H 0.68190 0.88099 0.62215
 H637 H 0.64889 0.86979 0.59371
 H638 H 0.62010 0.89647 0.56477
 H639 H 0.58835 0.93805 0.63713
 H640 H 0.61780 0.91258 0.66596
 H641 H 0.58311 0.98015 0.60328
 H642 H 0.55288 1.00459 0.57492
 H643 H 0.54986 0.91728 0.52570
 H644 H 0.57964 0.89265 0.55443
 C645 C 0.84701 0.13032 0.14919
 C646 C 0.82404 0.13357 0.14006
 C647 C 0.80760 0.14948 0.15628
 C648 C 0.81373 0.16239 0.18205
 C649 C 0.83664 0.15898 0.19126
 C650 C 0.85309 0.14319 0.17500
 C651 C 0.86461 0.11389 0.13176
 C652 C 0.88139 0.09355 0.14369
 C653 C 0.89818 0.07854 0.12735
 C654 C 0.89856 0.08347 0.09869
 C655 C 0.88168 0.10363 0.08675
 C656 C 0.86492 0.11868 0.10309
 C657 C 0.91660 0.06786 0.08136
 C658 C 0.92680 0.08493 0.05938
 C659 C 0.94383 0.07035 0.04313
 C660 C 0.95111 0.03837 0.04853
 C661 C 0.94094 0.02129 0.07051
 C662 C 0.92386 0.03585 0.08672
 H663 H 0.81870 0.12348 0.12048
 H664 H 0.79000 0.15136 0.14882
 H665 H 0.84195 0.16914 0.21083
 H666 H 0.87071 0.14161 0.18243
 H667 H 0.88147 0.08904 0.16567
 H668 H 0.91108 0.06344 0.13724
 H669 H 0.88131 0.10762 0.06470
 H670 H 0.85240 0.13448 0.09329
 H671 H 0.92186 0.10978 0.05496
 H672 H 0.95138 0.08423 0.02642
 H673 H 0.94609 -0.00343 0.07514
 H674 H 0.91613 0.02188 0.10325
 C675 C 0.34628 0.63295 0.64608
 C676 C 0.35235 0.64422 0.67243
 C677 C 0.33603 0.65973 0.68906
 C678 C 0.31328 0.66446 0.67970
 C679 C 0.30719 0.65332 0.65334
 C680 C 0.32350 0.63766 0.63673
 C681 C 0.36374 0.61657 0.62840
 C682 C 0.36449 0.62258 0.59990
 C683 C 0.38121 0.60769 0.58339
 C684 C 0.39762 0.58649 0.59499
 C685 C 0.39676 0.58029 0.62345
 C686 C 0.38000 0.59511 0.63994
 C687 C 0.41574 0.57123 0.57754
 C688 C 0.42266 0.53890 0.58212
 C689 C 0.43991 0.52473 0.56591
 C690 C 0.45057 0.54253 0.54468
 C691 C 0.44360 0.57480 0.54003
 C692 C 0.42643 0.58900 0.55630
 H693 H 0.36985 0.64157 0.68004
 H694 H 0.34132 0.66855 0.70910
 H695 H 0.28972 0.65630 0.64573
 H696 H 0.31818 0.62885 0.61671
 H697 H 0.35238 0.63924 0.59038
 H698 H 0.38121 0.61266 0.56148
 H699 H 0.40928 0.56438 0.63310
 H700 H 0.37972 0.58962 0.66176
 H701 H 0.41455 0.52439 0.59805
 H702 H 0.44480 0.49977 0.56993
 H703 H 0.45154 0.58923 0.52391
 H704 H 0.42178 0.61410 0.55251
   
