data_POSCAR
  _audit_creation_date              2014-09-24
  _audit_creation_method            'ToBaCCo'
  _symmetry_space_group_name_H-M    'P1'
  _symmetry_Int_Tables_number       1
  _symmetry_cell_setting            triclinic
  loop_
  _symmetry_equiv_pos_as_xyz
 x,y,z
_cell_length_a 58.0735
_cell_length_b 55.9497
_cell_length_c 25.7840
_cell_angle_alpha 90.005900
_cell_angle_beta 89.998000
_cell_angle_gamma 90.001600
loop_
  _atom_site_label
  _atom_site_type_symbol
  _atom_site_fract_x
  _atom_site_fract_y
  _atom_site_fract_z
O1 O 0.27821 0.22657 0.23068
 O2 O 0.23724 0.27297 0.18895
 O3 O 0.27809 0.27306 0.23074
 O4 O 0.23731 0.22647 0.18896
 O5 O 0.22163 0.22645 0.26677
 O6 O 0.26240 0.27302 0.30863
 O7 O 0.22155 0.27294 0.26683
 O8 O 0.26252 0.22652 0.30856
 Cu9 Cu 0.25928 0.24977 0.20204
 Cu10 Cu 0.24045 0.24972 0.29549
 C11 C 0.27744 0.21866 0.27683
 C12 C 0.22233 0.28086 0.22068
 C13 C 0.27728 0.28098 0.27689
 C14 C 0.22238 0.21849 0.22061
 O15 O 0.77789 0.27281 0.26775
 O16 O 0.73708 0.22627 0.30947
 O17 O 0.77794 0.22633 0.26769
 O18 O 0.73703 0.27276 0.30951
 O19 O 0.72131 0.27272 0.23166
 O20 O 0.76223 0.22626 0.18983
 O21 O 0.72137 0.22622 0.23170
 O22 O 0.76218 0.27277 0.18988
 Cu23 Cu 0.75905 0.24954 0.29638
 Cu24 Cu 0.74020 0.24949 0.20297
 C25 C 0.77707 0.28072 0.22160
 C26 C 0.72213 0.21828 0.27787
 C27 C 0.77715 0.21839 0.22156
 C28 C 0.72212 0.28065 0.27780
 O29 O 0.76316 0.77298 0.80967
 O30 O 0.72217 0.72663 0.76789
 O31 O 0.76302 0.72649 0.80974
 O32 O 0.72231 0.77310 0.76787
 O33 O 0.73801 0.77303 0.68999
 O34 O 0.77872 0.72642 0.73195
 O35 O 0.73788 0.72655 0.69001
 O36 O 0.77888 0.77292 0.73181
 Cu37 Cu 0.74110 0.74981 0.79660
 Cu38 Cu 0.75995 0.74972 0.70317
 C39 C 0.77809 0.78085 0.77795
 C40 C 0.72294 0.71871 0.72174
 C41 C 0.77794 0.71847 0.77811
 C42 C 0.72313 0.78099 0.72171
 O43 O 0.27793 0.77360 0.76790
 O44 O 0.23692 0.72722 0.80955
 O45 O 0.27778 0.72712 0.76786
 O46 O 0.23704 0.77372 0.80965
 O47 O 0.22137 0.77376 0.73183
 O48 O 0.26211 0.72716 0.68996
 O49 O 0.22123 0.72726 0.73167
 O50 O 0.26224 0.77364 0.69001
 Cu51 Cu 0.25898 0.75041 0.79654
 Cu52 Cu 0.24017 0.75047 0.70309
 C53 C 0.27717 0.78150 0.72174
 C54 C 0.22201 0.71933 0.77780
 C55 C 0.27698 0.71921 0.72171
 C56 C 0.22213 0.78172 0.77800
 C57 C 1.01245 -0.07101 -0.04596
 C58 C 0.98883 -0.07104 -0.04599
 C59 C 0.98199 -0.04755 -0.03866
 N60 N 1.00059 -0.03318 -0.03433
 C61 C 1.01923 -0.04750 -0.03864
 C62 C 0.95896 -0.03949 -0.03936
 C63 C 0.95243 -0.01607 -0.02491
 C64 C 0.93112 -0.00592 -0.03510
 C65 C 0.93109 0.01627 -0.01220
 C66 C 0.95239 0.01907 0.01138
 N67 N 0.96527 -0.00075 0.00357
 C68 C 0.95886 0.03901 0.04176
 C69 C 0.98191 0.04392 0.05561
 C70 C 0.98872 0.06130 0.09073
 C71 C 1.01234 0.06135 0.09058
 C72 C 1.01916 0.04401 0.05541
 N73 N 1.00053 0.03342 0.03396
 C74 C 1.04219 0.03917 0.04134
 C75 C 1.04868 0.01925 0.01095
 C76 C 1.06995 0.01651 -0.01280
 C77 C 1.06997 -0.00570 -0.03559
 C78 C 1.04871 -0.01593 -0.02515
 N79 N 1.03585 -0.00063 0.00333
 C80 C 1.04225 -0.03939 -0.03941
 H81 H 1.02337 -0.08652 -0.05106
 H82 H 0.97795 -0.08657 -0.05111
 H83 H 1.02035 -0.00460 0.02154
 H84 H 0.91699 -0.01374 -0.05656
 H85 H 0.91694 0.02884 -0.01263
 H86 H 0.97782 0.07279 0.11392
 H87 H 1.02324 0.07291 0.11363
 H88 H 1.08409 -0.01349 -0.05716
 H89 H 0.98081 -0.00468 0.02166
 H90 H 1.08405 0.02915 -0.01341
 C91 C 0.51157 0.42897 0.45403
 C92 C 0.48795 0.42897 0.45398
 C93 C 0.48113 0.45247 0.46127
 N94 N 0.49975 0.46682 0.46561
 C95 C 0.51838 0.45247 0.46134
 C96 C 0.45810 0.46056 0.46053
 C97 C 0.45161 0.48401 0.47483
 C98 C 0.43036 0.49422 0.46436
 C99 C 0.43035 0.51643 0.48717
 C100 C 0.45160 0.51918 0.51098
 N101 N 0.46444 0.49931 0.50338
 C102 C 0.45806 0.53911 0.54142
 C103 C 0.48109 0.54397 0.55547
 C104 C 0.48790 0.56132 0.59065
 C105 C 0.51152 0.56132 0.59070
 C106 C 0.51835 0.54396 0.55558
 N107 N 0.49974 0.53342 0.53397
 C108 C 0.54141 0.53906 0.54174
 C109 C 0.54790 0.51913 0.51135
 C110 C 0.56921 0.51635 0.48780
 C111 C 0.56920 0.49416 0.46489
 C112 C 0.54790 0.48398 0.47508
 N113 N 0.53504 0.49930 0.50353
 C114 C 0.54141 0.46055 0.46067
 H115 H 0.52247 0.41345 0.44901
 H116 H 0.47705 0.41346 0.44888
 H117 H 0.51949 0.49536 0.52157
 H118 H 0.41625 0.48643 0.44276
 H119 H 0.41624 0.52906 0.48650
 H120 H 0.47699 0.57283 0.61378
 H121 H 0.52241 0.57284 0.61385
 H122 H 0.58335 0.48636 0.44342
 H123 H 0.47993 0.49535 0.52162
 H124 H 0.58336 0.52894 0.48739
 C125 C 0.01138 0.43876 0.09027
 C126 C -0.01224 0.43873 0.09025
 C127 C -0.01906 0.45611 0.05515
 N128 N -0.00044 0.46669 0.03367
 C129 C 0.01819 0.45616 0.05521
 C130 C -0.04211 0.46096 0.04118
 C131 C -0.04860 0.48089 0.01078
 C132 C -0.06990 0.48365 -0.01282
 C133 C -0.06992 0.50587 -0.03560
 C134 C -0.04864 0.51607 -0.02532
 N135 N -0.03576 0.50074 0.00307
 C136 C -0.04216 0.53952 -0.03961
 C137 C -0.01914 0.54764 -0.03883
 C138 C -0.01236 0.57115 -0.04608
 C139 C 0.01126 0.57119 -0.04603
 C140 C 0.01811 0.54769 -0.03876
 N141 N -0.00050 0.53332 -0.03450
 C142 C 0.04114 0.53964 -0.03949
 C143 C 0.04767 0.51621 -0.02511
 C144 C 0.06896 0.50604 -0.03544
 C145 C 0.06899 0.48385 -0.01258
 C146 C 0.04772 0.48104 0.01106
 N147 N 0.03484 0.50088 0.00338
 C148 C 0.04123 0.46106 0.04131
 H149 H 0.02228 0.42722 0.11335
 H150 H -0.02313 0.42719 0.11333
 H151 H 0.01931 0.50480 0.02152
 H152 H -0.08402 0.47103 -0.01334
 H153 H -0.08408 0.51368 -0.05701
 H154 H -0.02327 0.58666 -0.05116
 H155 H 0.02214 0.58672 -0.05104
 H156 H 0.08314 0.47125 -0.01311
 H157 H -0.02024 0.50470 0.02118
 H158 H 0.08306 0.51385 -0.05701
 C159 C 0.51218 0.93885 0.59065
 C160 C 0.48855 0.93890 0.59076
 C161 C 0.48174 0.95623 0.55554
 N162 N 0.50037 0.96672 0.53388
 C163 C 0.51900 0.95617 0.55543
 C164 C 0.45870 0.96112 0.54162
 C165 C 0.45224 0.98101 0.51108
 C166 C 0.43097 0.98375 0.48737
 C167 C 0.43098 1.00594 0.46446
 C168 C 0.45226 1.01614 0.47477
 N169 N 0.46510 1.00085 0.50332
 C170 C 0.45876 1.03957 0.46037
 C171 C 0.48180 1.04763 0.46105
 C172 C 0.48863 1.07113 0.45373
 C173 C 0.51225 1.07110 0.45366
 C174 C 0.51905 1.04760 0.46097
 N175 N 0.50041 1.03327 0.46534
 C176 C 0.54207 1.03949 0.46026
 C177 C 0.54854 1.01605 0.47464
 C178 C 0.56980 1.00582 0.46429
 C179 C 0.56980 0.98364 0.48723
 C180 C 0.54853 0.98091 0.51096
 N181 N 0.53569 1.00077 0.50320
 C182 C 0.54204 0.96102 0.54143
 H183 H 0.52307 0.92733 0.61377
 H184 H 0.47766 0.92744 0.61402
 H185 H 0.52018 1.00476 0.52136
 H186 H 0.41684 0.97114 0.48688
 H187 H 0.41685 1.01372 0.44293
 H188 H 0.47774 1.08665 0.44874
 H189 H 0.52316 1.08661 0.44853
 H190 H 0.58392 0.97102 0.48672
 H191 H 0.48061 1.00482 0.52151
 H192 H 0.58393 1.01359 0.44270
 C193 C 1.17373 0.17504 0.22236
 C194 C 1.17427 0.16654 0.17137
 C195 C 1.19097 0.17503 0.13693
 C196 C 1.20701 0.19209 0.15322
 C197 C 1.20657 0.20098 0.20442
 C198 C 1.18973 0.19210 0.23885
 C199 C 1.15746 0.14938 0.15414
 C200 C 1.14327 0.13516 0.13958
 C201 C 1.12652 0.11866 0.12250
 C202 C 1.11209 0.10470 0.10797
 C203 C 1.09471 0.08816 0.09075
 C204 C 1.07722 0.09589 0.05734
 C205 C 1.06016 0.07994 0.04105
 C206 C 1.06042 0.05611 0.05820
 C207 C 1.07806 0.04842 0.09149
 C208 C 1.09513 0.06438 0.10770
 H209 H 1.16085 0.16859 0.24935
 H210 H 1.19153 0.16857 0.09733
 H211 H 1.21964 0.19838 0.12547
 H212 H 1.18877 0.19839 0.27852
 H213 H 1.07674 0.11424 0.04400
 H214 H 1.04673 0.08612 0.01518
 H215 H 1.07851 0.03010 0.10502
 H216 H 1.10858 0.05822 0.13354
 C217 C 0.69053 0.67456 0.63725
 C218 C 0.67379 0.66614 0.67173
 C219 C 0.67327 0.67469 0.72272
 C220 C 0.68936 0.69167 0.73915
 C221 C 0.70619 0.70035 0.70469
 C222 C 0.70664 0.69155 0.65356
 C223 C 0.65694 0.64900 0.65457
 C224 C 0.64271 0.63480 0.64010
 C225 C 0.62592 0.61833 0.62307
 C226 C 0.61145 0.60440 0.60855
 C227 C 0.59403 0.58791 0.59131
 C228 C 0.59435 0.56415 0.60835
 C229 C 0.57724 0.54824 0.59214
 C230 C 0.55965 0.55596 0.55874
 C231 C 0.55948 0.57978 0.54155
 C232 C 0.57658 0.59568 0.55784
 H233 H 0.69107 0.66809 0.59766
 H234 H 0.66036 0.66832 0.74971
 H235 H 0.68852 0.69809 0.77873
 H236 H 0.71935 0.69787 0.62607
 H237 H 0.60776 0.55796 0.63428
 H238 H 0.57761 0.52993 0.60577
 H239 H 0.54608 0.58601 0.51566
 H240 H 0.57616 0.61404 0.54447
 C241 C -0.17357 0.32512 0.22255
 C242 C -0.17407 0.33354 0.17144
 C243 C -0.19074 0.32495 0.13698
 C244 C -0.20676 0.30790 0.15338
 C245 C -0.20630 0.29919 0.20457
 C246 C -0.18958 0.30807 0.23906
 C247 C -0.15731 0.35073 0.15415
 C248 C -0.14316 0.36499 0.13956
 C249 C -0.12645 0.38152 0.12248
 C250 C -0.11203 0.39551 0.10798
 C251 C -0.09464 0.41203 0.09079
 C252 C -0.07721 0.40431 0.05722
 C253 C -0.06015 0.42024 0.04086
 C254 C -0.06033 0.44405 0.05813
 C255 C -0.07790 0.45174 0.09164
 C256 C -0.09497 0.43579 0.10792
 H257 H -0.16073 0.33164 0.24955
 H258 H -0.19128 0.33133 0.09733
 H259 H -0.21942 0.30145 0.12589
 H260 H -0.18877 0.30177 0.27873
 H261 H -0.07678 0.38596 0.04380
 H262 H -0.04679 0.41405 0.01481
 H263 H -0.07828 0.47005 0.10526
 H264 H -0.10836 0.44195 0.13394
 C265 C 0.30957 0.82562 0.63719
 C266 C 0.32633 0.83405 0.67164
 C267 C 0.32686 0.82552 0.72264
 C268 C 0.31076 0.80854 0.73911
 C269 C 0.29392 0.79985 0.70468
 C270 C 0.29347 0.80864 0.65354
 C271 C 0.34315 0.85121 0.65445
 C272 C 0.35735 0.86544 0.63994
 C273 C 0.37412 0.88193 0.62291
 C274 C 0.38858 0.89588 0.60843
 C275 C 0.40602 0.91235 0.59124
 C276 C 0.40572 0.93613 0.60825
 C277 C 0.42285 0.95202 0.59201
 C278 C 0.44044 0.94425 0.55865
 C279 C 0.44059 0.92043 0.54149
 C280 C 0.42347 0.90455 0.55779
 H281 H 0.30903 0.83209 0.59760
 H282 H 0.33977 0.83189 0.74962
 H283 H 0.31160 0.80215 0.77870
 H284 H 0.28075 0.80232 0.62606
 H285 H 0.39230 0.94235 0.63412
 H286 H 0.42248 0.97034 0.60552
 H287 H 0.45397 0.91419 0.51554
 H288 H 0.42386 0.88620 0.54440
 C289 C -0.17350 0.67490 -0.22352
 C290 C -0.17405 0.66644 -0.17250
 C291 C -0.19076 0.67497 -0.13810
 C292 C -0.20677 0.69205 -0.15446
 C293 C -0.20630 0.70091 -0.20567
 C294 C -0.18947 0.69197 -0.24007
 C295 C -0.15724 0.64929 -0.15522
 C296 C -0.14303 0.63508 -0.14070
 C297 C -0.12627 0.61859 -0.12365
 C298 C -0.11186 0.60462 -0.10910
 C299 C -0.09452 0.58805 -0.09179
 C300 C -0.09487 0.57947 -0.04077
 C301 C -0.07786 0.56359 -0.02383
 C302 C -0.06036 0.55619 -0.05778
 C303 C -0.06016 0.56475 -0.10899
 C304 C -0.07716 0.58063 -0.12587
 H305 H -0.16063 0.66840 -0.25047
 H306 H -0.19134 0.66852 -0.09851
 H307 H -0.21940 0.69837 -0.12676
 H308 H -0.18849 0.69823 -0.27976
 H309 H -0.10821 0.58511 -0.01407
 H310 H -0.07823 0.55716 0.01579
 H311 H -0.04682 0.55914 -0.13570
 H312 H -0.07673 0.58716 -0.16541
 C313 C 0.30986 1.17454 0.36137
 C314 C 0.32667 1.16619 0.32697
 C315 C 0.32720 1.17473 0.27597
 C316 C 0.31107 1.19166 0.25948
 C317 C 0.29419 1.20030 0.29388
 C318 C 0.29372 1.19148 0.34499
 C319 C 0.34357 1.14912 0.34419
 C320 C 0.35782 1.13496 0.35872
 C321 C 0.37462 1.11851 0.37581
 C322 C 0.38905 1.10456 0.39042
 C323 C 0.40639 1.08802 0.40784
 C324 C 0.42377 1.08057 0.37383
 C325 C 0.44078 1.06472 0.39085
 C326 C 0.44058 1.05624 0.44211
 C327 C 0.42304 1.06365 0.47597
 C328 C 0.40603 1.07949 0.45890
 H329 H 0.30930 1.16805 0.40094
 H330 H 0.34015 1.16840 0.24903
 H331 H 0.31192 1.19808 0.21990
 H332 H 0.28096 1.19775 0.37243
 H333 H 0.42420 1.08704 0.33424
 H334 H 0.45412 1.05908 0.36418
 H335 H 0.42265 1.05725 0.51561
 H336 H 0.39266 1.08514 0.48552
 C337 C 1.17352 -0.17477 -0.22375
 C338 C 1.17406 -0.16629 -0.17274
 C339 C 1.19076 -0.17479 -0.13831
 C340 C 1.20678 -0.19186 -0.15461
 C341 C 1.20634 -0.20074 -0.20582
 C342 C 1.18951 -0.19184 -0.24025
 C343 C 1.15724 -0.14914 -0.15550
 C344 C 1.14304 -0.13492 -0.14093
 C345 C 1.12630 -0.11842 -0.12382
 C346 C 1.11191 -0.10444 -0.10920
 C347 C 1.09460 -0.08786 -0.09183
 C348 C 1.09494 -0.07934 -0.04075
 C349 C 1.07794 -0.06348 -0.02372
 C350 C 1.06044 -0.05604 -0.05765
 C351 C 1.06026 -0.06451 -0.10891
 C352 C 1.07725 -0.08038 -0.12588
 H353 H 1.16065 -0.16830 -0.25074
 H354 H 1.19132 -0.16833 -0.09871
 H355 H 1.21941 -0.19817 -0.12688
 H356 H 1.18855 -0.19812 -0.27992
 H357 H 1.10827 -0.08502 -0.01408
 H358 H 1.07831 -0.05709 0.01593
 H359 H 1.04692 -0.05886 -0.13560
 H360 H 1.07683 -0.08685 -0.16547
 C361 C 0.67256 0.32481 0.27683
 C362 C 0.67313 0.33340 0.32779
 C363 C 0.68990 0.32499 0.36222
 C364 C 0.70596 0.30794 0.34592
 C365 C 0.70543 0.29907 0.29485
 C366 C 0.68860 0.30777 0.26042
 C367 C 0.65632 0.35057 0.34495
 C368 C 0.64214 0.36483 0.35944
 C369 C 0.62543 0.38138 0.37649
 C370 C 0.61106 0.39540 0.39106
 C371 C 0.59376 0.41201 0.40838
 C372 C 0.59407 0.42054 0.45946
 C373 C 0.57708 0.43642 0.47643
 C374 C 0.55960 0.44388 0.44246
 C375 C 0.55945 0.43540 0.39119
 C376 C 0.57644 0.41952 0.37427
 H377 H 0.65965 0.33118 0.24983
 H378 H 0.69050 0.33152 0.40176
 H379 H 0.71868 0.30163 0.37340
 H380 H 0.68773 0.30133 0.22087
 H381 H 0.60738 0.41485 0.48618
 H382 H 0.57743 0.44282 0.51607
 H383 H 0.54615 0.44108 0.36444
 H384 H 0.57603 0.41304 0.33469
 C385 C 0.82767 -0.17503 -0.22293
 C386 C 0.82708 -0.16645 -0.17197
 C387 C 0.81030 -0.17486 -0.13757
 C388 C 0.79424 -0.19189 -0.15393
 C389 C 0.79478 -0.20074 -0.20501
 C390 C 0.81164 -0.19205 -0.23940
 C391 C 0.84389 -0.14929 -0.15478
 C392 C 0.85809 -0.13506 -0.14030
 C393 C 0.87484 -0.11856 -0.12329
 C394 C 0.88926 -0.10458 -0.10876
 C395 C 0.90660 -0.08803 -0.09148
 C396 C 0.90630 -0.07948 -0.04042
 C397 C 0.92332 -0.06362 -0.02350
 C398 C 0.94079 -0.05619 -0.05751
 C399 C 0.94095 -0.06471 -0.10875
 C400 C 0.92394 -0.08058 -0.12561
 H401 H 0.84061 -0.16865 -0.24987
 H402 H 0.80969 -0.16834 -0.09802
 H403 H 0.78150 -0.19820 -0.12650
 H404 H 0.81253 -0.19850 -0.27895
 H405 H 0.89299 -0.08514 -0.01368
 H406 H 0.92297 -0.05720 0.01613
 H407 H 0.95426 -0.05907 -0.13552
 H408 H 0.92433 -0.08709 -0.16517
 C409 C 0.32662 0.32539 0.27589
 C410 C 0.32612 0.33384 0.32696
 C411 C 0.30944 0.32528 0.36145
 C412 C 0.29343 0.30821 0.34509
 C413 C 0.29390 0.29946 0.29392
 C414 C 0.31062 0.30833 0.25942
 C415 C 0.34294 0.35098 0.34423
 C416 C 0.35716 0.36518 0.35883
 C417 C 0.37393 0.38163 0.37600
 C418 C 0.38836 0.39558 0.39065
 C419 C 0.40571 0.41210 0.40806
 C420 C 0.40538 0.42062 0.45914
 C421 C 0.42240 0.43646 0.47619
 C422 C 0.43991 0.44389 0.44229
 C423 C 0.44010 0.43539 0.39104
 C424 C 0.42309 0.41955 0.37404
 H425 H 0.33947 0.33189 0.24886
 H426 H 0.30890 0.33170 0.40107
 H427 H 0.28079 0.30176 0.37261
 H428 H 0.31145 0.30198 0.21978
 H429 H 0.39203 0.41497 0.48579
 H430 H 0.42202 0.44286 0.51584
 H431 H 0.45345 0.44103 0.36435
 H432 H 0.42351 0.41308 0.33445
 C433 C 0.18976 0.67508 -0.13769
 C434 C 0.17302 0.66663 -0.17212
 C435 C 0.17247 0.67514 -0.22313
 C436 C 0.18852 0.69216 -0.23961
 C437 C 0.20532 0.70091 -0.20517
 C438 C 0.20582 0.69211 -0.15405
 C439 C 0.15620 0.64948 -0.15492
 C440 C 0.14200 0.63525 -0.14045
 C441 C 0.12524 0.61874 -0.12345
 C442 C 0.11083 0.60475 -0.10893
 C443 C 0.09350 0.58818 -0.09165
 C444 C 0.07617 0.58071 -0.12578
 C445 C 0.05916 0.56484 -0.10890
 C446 C 0.05931 0.55634 -0.05765
 C447 C 0.07678 0.56379 -0.02365
 C448 C 0.09379 0.57965 -0.04058
 H449 H 0.19034 0.66861 -0.09811
 H450 H 0.15957 0.66872 -0.25010
 H451 H 0.18767 0.69855 -0.27921
 H452 H 0.21853 0.69846 -0.12660
 H453 H 0.07579 0.58720 -0.16537
 H454 H 0.04586 0.55919 -0.13568
 H455 H 0.07712 0.55739 0.01599
 H456 H 0.10710 0.58533 -0.01384
 C457 C 0.67350 1.17479 0.27639
 C458 C 0.67407 1.16632 0.32741
 C459 C 0.69078 1.17486 0.36178
 C460 C 0.70680 1.19193 0.34540
 C461 C 0.70633 1.20077 0.29415
 C462 C 0.68948 1.19185 0.25981
 C463 C 0.65729 1.14914 0.34469
 C464 C 0.64311 1.13490 0.35924
 C465 C 0.62638 1.11837 0.37626
 C466 C 0.61196 1.10438 0.39077
 C467 C 0.59460 1.08783 0.40803
 C468 C 0.59493 1.07922 0.45903
 C469 C 0.57786 1.06344 0.47601
 C470 C 0.56029 1.05614 0.44210
 C471 C 0.56013 1.06469 0.39089
 C472 C 0.57720 1.08049 0.37397
 H473 H 0.66063 1.16830 0.24944
 H474 H 0.69137 1.16842 0.40138
 H475 H 0.71943 1.19825 0.37309
 H476 H 0.68850 1.19811 0.22012
 H477 H 0.60832 1.08478 0.48569
 H478 H 0.57823 1.05699 0.51561
 H479 H 0.54676 1.05914 0.36418
 H480 H 0.57679 1.08701 0.33442
 C481 C 0.17275 0.32499 0.22159
 C482 C 0.17330 0.33353 0.17059
 C483 C 0.19006 0.32510 0.13616
 C484 C 0.20613 0.30808 0.15252
 C485 C 0.20564 0.29927 0.20364
 C486 C 0.18880 0.30798 0.23806
 C487 C 0.15646 0.35066 0.15340
 C488 C 0.14224 0.36487 0.13897
 C489 C 0.12545 0.38136 0.12207
 C490 C 0.11101 0.39535 0.10768
 C491 C 0.09365 0.41192 0.09058
 C492 C 0.09405 0.43566 0.10782
 C493 C 0.07703 0.45168 0.09161
 C494 C 0.05945 0.44409 0.05805
 C495 C 0.05920 0.42030 0.04067
 C496 C 0.07620 0.40428 0.05695
 H497 H 0.15983 0.33138 0.24854
 H498 H 0.19063 0.33157 0.09658
 H499 H 0.21885 0.30175 0.12505
 H500 H 0.18794 0.30157 0.27763
 H501 H 0.10745 0.44174 0.13391
 H502 H 0.07746 0.46996 0.10539
 H503 H 0.04579 0.41417 0.01467
 H504 H 0.07571 0.38595 0.04345
 C505 C 0.69078 0.82509 0.63700
 C506 C 0.67413 0.83367 0.67154
 C507 C 0.67369 0.82529 0.72266
 C508 C 0.68975 0.80829 0.73915
 C509 C 0.70647 0.79942 0.70462
 C510 C 0.70686 0.80809 0.65338
 C511 C 0.65728 0.85080 0.65434
 C512 C 0.64306 0.86500 0.63988
 C513 C 0.62629 0.88149 0.62288
 C514 C 0.61187 0.89546 0.60834
 C515 C 0.59452 0.91201 0.59102
 C516 C 0.59494 0.93579 0.60795
 C517 C 0.57789 0.95177 0.59169
 C518 C 0.56026 0.94408 0.55835
 C519 C 0.56001 0.92025 0.54121
 C520 C 0.57705 0.90429 0.55754
 H521 H 0.69125 0.83144 0.59732
 H522 H 0.66086 0.83179 0.74969
 H523 H 0.68897 0.80200 0.77882
 H524 H 0.71948 0.80163 0.62583
 H525 H 0.60839 0.94195 0.63383
 H526 H 0.57834 0.97008 0.60526
 H527 H 0.54658 0.91407 0.51534
 H528 H 0.57656 0.88594 0.54418
 C529 C 0.80959 0.17428 0.13708
 C530 C 0.82632 0.16587 0.17158
 C531 C 0.82679 0.17435 0.22262
 C532 C 0.81067 0.19129 0.23906
 C533 C 0.79386 0.20001 0.20456
 C534 C 0.79345 0.19123 0.15340
 C535 C 0.84324 0.14882 0.15440
 C536 C 0.85753 0.13468 0.13995
 C537 C 0.87438 0.11828 0.12301
 C538 C 0.88888 0.10438 0.10856
 C539 C 0.90631 0.08790 0.09139
 C540 C 0.90596 0.06413 0.10842
 C541 C 0.92304 0.04820 0.09215
 C542 C 0.94062 0.05591 0.05870
 C543 C 0.94081 0.07973 0.04150
 C544 C 0.92374 0.09565 0.05786
 H545 H 0.80909 0.16784 0.09745
 H546 H 0.83969 0.16798 0.24962
 H547 H 0.81147 0.19767 0.27867
 H548 H 0.78076 0.19756 0.12588
 H549 H 0.89255 0.05796 0.13438
 H550 H 0.92266 0.02989 0.10575
 H551 H 0.95419 0.08593 0.01553
 H552 H 0.92417 0.11400 0.04447
 C553 C 0.30928 0.67501 0.63715
 C554 C 0.32596 0.66648 0.67166
 C555 C 0.32642 0.67491 0.72275
 C556 C 0.31037 0.69192 0.73922
 C557 C 0.29363 0.70075 0.70470
 C558 C 0.29321 0.69202 0.65351
 C559 C 0.34280 0.64935 0.65442
 C560 C 0.35701 0.63514 0.63987
 C561 C 0.37378 0.61865 0.62280
 C562 C 0.38820 0.60468 0.60825
 C563 C 0.40556 0.58813 0.59096
 C564 C 0.40512 0.56434 0.60783
 C565 C 0.42216 0.54836 0.59154
 C566 C 0.43981 0.55605 0.55826
 C567 C 0.44008 0.57988 0.54115
 C568 C 0.42304 0.59585 0.55751
 H569 H 0.30878 0.66862 0.59750
 H570 H 0.33927 0.66843 0.74979
 H571 H 0.31117 0.69826 0.77886
 H572 H 0.28056 0.69844 0.62598
 H573 H 0.39166 0.55818 0.63368
 H574 H 0.42170 0.53003 0.60501
 H575 H 0.45350 0.58607 0.51526
 H576 H 0.42354 0.61421 0.54420
   
