data_POSCAR
  _audit_creation_date              2014-09-24
  _audit_creation_method            'ToBaCCo'
  _symmetry_space_group_name_H-M    'P1'
  _symmetry_Int_Tables_number       1
  _symmetry_cell_setting            triclinic
  loop_
  _symmetry_equiv_pos_as_xyz
 x,y,z
_cell_length_a 34.2246
_cell_length_b 33.2877
_cell_length_c 32.5816
_cell_angle_alpha 88.921800
_cell_angle_beta 89.972500
_cell_angle_gamma 91.223400
loop_
  _atom_site_label
  _atom_site_type_symbol
  _atom_site_fract_x
  _atom_site_fract_y
  _atom_site_fract_z
C1 C 0.21980 1.23581 0.16725
 C2 C 0.24798 1.20594 0.17023
 C3 C 0.24628 1.17791 0.20204
 C4 C 0.21630 1.17933 0.23133
 C5 C 0.18857 1.20885 0.22847
 C6 C 0.19034 1.23734 0.19618
 C7 C 0.21300 1.26539 0.13826
 N8 N 0.18012 1.28491 0.14874
 C9 C 0.16608 1.26793 0.18435
 C10 C 0.16195 1.20154 0.25954
 N11 N 0.17266 1.16823 0.28114
 C12 C 0.20609 1.15451 0.26400
 C13 C 0.27601 1.15146 0.19597
 N14 N 0.29568 1.16268 0.16128
 C15 C 0.27863 1.19608 0.14530
 H16 H 0.23026 1.27165 0.11091
 H17 H 0.13970 1.27604 0.20016
 H18 H 0.13603 1.21866 0.26537
 H19 H 0.22166 1.12799 0.27346
 H20 H 0.28238 1.12533 0.21491
 H21 H 0.28701 1.21181 0.11723
 C22 C 0.78983 0.75786 0.18092
 C23 C 0.76205 0.78824 0.17961
 C24 C 0.76432 0.81937 0.20708
 C25 C 0.79438 0.82052 0.23634
 C26 C 0.82159 0.79043 0.23778
 C27 C 0.81929 0.75889 0.20989
 C28 C 0.79658 0.72578 0.15601
 N29 N 0.82958 0.70729 0.16921
 C30 C 0.84341 0.72736 0.20228
 C31 C 0.84871 0.80049 0.26720
 N32 N 0.83874 0.83621 0.28365
 C33 C 0.80545 0.84847 0.26493
 C34 C 0.73525 0.84570 0.19692
 N35 N 0.71535 0.83133 0.16408
 C36 C 0.73165 0.79612 0.15325
 H37 H 0.77918 0.71774 0.12960
 H38 H 0.86997 0.72037 0.21876
 H39 H 0.87422 0.78326 0.27477
 H40 H 0.79088 0.87634 0.27091
 H41 H 0.72955 0.87385 0.21169
 H42 H 0.72314 0.77795 0.12746
 C43 C 0.79387 1.23491 -0.17849
 C44 C 0.76398 1.20550 -0.17951
 C45 C 0.76440 1.17623 -0.20900
 C46 C 0.79470 1.17603 -0.23799
 C47 C 0.82428 1.20495 -0.23692
 C48 C 0.82388 1.23463 -0.20688
 C49 C 0.80221 1.26510 -0.15144
 N50 N 0.83682 1.28323 -0.16256
 C51 C 0.85011 1.26471 -0.19652
 C52 C 0.85098 1.19563 -0.26670
 N53 N 0.83841 1.16181 -0.28586
 C54 C 0.80380 1.14969 -0.26840
 C55 C 0.73390 1.14978 -0.20038
 N56 N 0.71502 1.16223 -0.16641
 C57 C 0.73326 1.19644 -0.15346
 H58 H 0.78462 1.27203 -0.12504
 H59 H 0.87750 1.27188 -0.21195
 H60 H 0.87817 1.21175 -0.27328
 H61 H 0.78668 1.12320 -0.27597
 H62 H 0.72686 1.12251 -0.21668
 H63 H 0.72619 1.21275 -0.12616
 C64 C 0.20522 0.76207 -0.17862
 C65 C 0.23493 0.79178 -0.17890
 C66 C 0.23486 0.82223 -0.20835
 C67 C 0.20500 0.82357 -0.23777
 C68 C 0.17571 0.79435 -0.23747
 C69 C 0.17590 0.76329 -0.20777
 C70 C 0.19655 0.73040 -0.15215
 N71 N 0.16259 0.71226 -0.16462
 C72 C 0.14995 0.73227 -0.19867
 C73 C 0.14930 0.80487 -0.26744
 N74 N 0.16171 0.83982 -0.28588
 C75 C 0.19603 0.85135 -0.26791
 C76 C 0.26537 0.84823 -0.19962
 N77 N 0.28404 0.83428 -0.16552
 C78 C 0.26553 0.79982 -0.15268
 H79 H 0.21355 0.72223 -0.12543
 H80 H 0.12317 0.72539 -0.21504
 H81 H 0.12231 0.78887 -0.27447
 H82 H 0.21294 0.87842 -0.27486
 H83 H 0.27217 0.87599 -0.21612
 H84 H 0.27310 0.78252 -0.12547
 C85 C 0.56297 1.04755 -0.01304
 H86 H 0.56458 1.04606 0.02012
 C87 C 0.58957 1.07176 -0.03523
 H88 H 0.61185 1.08824 -0.01862
 C89 C 0.53316 1.02554 -0.07450
 H90 H 0.51164 1.00690 -0.08972
 C91 C 0.55925 1.04931 -0.09794
 H92 H 0.55732 1.04902 -0.13111
 N93 N 0.53523 1.02542 -0.03281
 C94 C 0.44160 1.00477 0.05630
 H95 H 0.43958 0.97228 0.05654
 C96 C 0.41493 1.02668 0.07877
 H97 H 0.39247 1.01082 0.09648
 C98 C 0.47260 1.06485 0.03178
 H99 H 0.49468 1.07968 0.01290
 C100 C 0.44662 1.08794 0.05388
 H101 H 0.45015 1.12028 0.05249
 Zn102 Zn 0.50168 0.99231 0.00006
 N103 N 0.46959 1.02404 0.03325
 C104 C 0.53263 0.95944 0.07430
 N105 N 0.53390 0.95905 0.03259
 C106 C 0.56045 0.93685 0.01249
 C107 C 0.58696 0.91348 0.03438
 C108 C 0.55865 0.93649 0.09745
 C109 C 0.44126 0.98119 -0.05609
 C110 C 0.41406 0.96020 -0.07985
 C111 C 0.44182 0.89802 -0.05554
 C112 C 0.46852 0.92024 -0.03222
 N113 N 0.46793 0.96109 -0.03315
 H114 H 0.51198 0.97809 0.08971
 H115 H 0.56144 0.93794 -0.02071
 H116 H 0.60847 0.89717 0.01745
 H117 H 0.55753 0.93738 0.13065
 H118 H 0.44081 1.01366 -0.05540
 H119 H 0.39255 0.97706 -0.09681
 H120 H 0.44250 0.86550 -0.05430
 H121 H 0.48924 0.90477 -0.01294
 C122 C 0.41669 1.06883 0.07714
 C123 C 0.58765 1.07314 -0.07836
 C124 C 0.41431 0.91794 -0.07999
 C125 C 0.58615 0.91296 0.07756
 C126 C -0.02038 0.56280 1.05854
 H127 H 0.01122 0.56486 1.05877
 C128 C -0.04208 0.59010 1.08056
 H129 H -0.02690 0.61312 1.09783
 C130 C -0.07833 0.53071 1.03491
 H131 H -0.09235 0.50781 1.01667
 C132 C -0.10124 0.55731 1.05667
 H133 H -0.13262 0.55349 1.05537
 N134 N -0.03867 0.53386 1.03629
 C135 C 0.04624 0.43930 1.02303
 H136 H 0.04792 0.43782 0.98993
 C137 C 0.06696 0.41222 1.04745
 H138 H 0.08416 0.38982 1.03259
 C139 C 0.01933 0.46879 1.08202
 H140 H 0.00006 0.49026 1.09536
 C141 C 0.03938 0.44215 1.10761
 H142 H 0.03567 0.44366 1.14056
 Zn143 Zn -0.00657 0.50019 1.00529
 N144 N 0.02321 0.46701 1.04055
 C145 C 0.06580 0.53239 0.97445
 N146 N 0.02618 0.53424 0.97252
 C147 C 0.00843 0.56240 0.94871
 C148 C 0.03066 0.59027 0.92568
 C149 C 0.08921 0.55960 0.95173
 C150 C -0.05964 0.43725 0.99186
 C151 C -0.08183 0.40961 0.96956
 C152 C -0.05719 0.44082 0.90693
 C153 C -0.03539 0.46786 0.93048
 N154 N -0.03728 0.46581 0.97217
 H155 H 0.07940 0.51016 0.99396
 H156 H -0.02314 0.56350 0.94812
 H157 H 0.01592 0.61271 0.90722
 H158 H 0.12056 0.55684 0.95351
 H159 H -0.05979 0.43566 1.02506
 H160 H -0.09842 0.38661 0.98621
 H161 H -0.05531 0.44276 0.87376
 H162 H -0.01667 0.49010 0.91539
 C163 C 0.06371 0.41355 1.09045
 C164 C -0.08306 0.58796 1.07953
 C165 C -0.08106 0.41142 0.92637
 C166 C 0.07161 0.58955 0.92735
 C167 C 1.05246 -0.00751 0.56159
 H168 H 1.05106 0.02483 0.56371
 C169 C 1.07536 -0.02918 0.58927
 H170 H 1.09087 -0.01299 0.61289
 C171 C 1.03165 -0.06750 0.52944
 H172 H 1.01404 -0.08240 0.50657
 C173 C 1.05420 -0.09037 0.55647
 H174 H 1.05398 -0.12277 0.55390
 N175 N 1.03155 -0.02678 0.53216
 C176 C 1.01472 0.06041 0.43261
 H177 H 0.98319 0.05965 0.43015
 C178 C 1.03712 0.08305 0.40437
 H179 H 1.02258 0.09986 0.38027
 C180 C 1.07194 0.03836 0.46629
 H181 H 1.08549 0.02046 0.49007
 C182 C 1.09545 0.06073 0.43886
 H183 H 1.12676 0.06042 0.44306
 Zn184 Zn 1.00035 0.00518 0.49706
 N185 N 1.03235 0.03849 0.46267
 C186 C 0.96839 0.07701 0.52816
 N187 N 0.96838 0.03619 0.53099
 C188 C 0.94700 0.01592 0.56014
 C189 C 0.92397 0.03665 0.58763
 C190 C 0.94569 0.09899 0.55505
 C191 C 0.98811 -0.04919 0.43385
 C192 C 0.96694 -0.07306 0.40657
 C193 C 0.90731 -0.05163 0.43835
 C194 C 0.92964 -0.02811 0.46499
 N195 N 0.96932 -0.02765 0.46257
 H196 H 0.98632 0.09262 0.50542
 H197 H 0.94832 -0.01650 0.56232
 H198 H 0.90823 0.01964 0.61116
 H199 H 0.94609 0.13149 0.55252
 H200 H 1.01966 -0.04747 0.43194
 H201 H 0.98276 -0.08901 0.38347
 H202 H 0.87573 -0.05165 0.44067
 H203 H 0.91516 -0.00999 0.48728
 C204 C 1.07806 0.08286 0.40675
 C205 C 1.07677 -0.07127 0.58660
 C206 C 0.92587 -0.07481 0.40891
 C207 C 0.92284 0.07886 0.58506
 C208 C 0.16442 0.31487 1.12534
 C209 C 0.13187 0.33401 1.13562
 C210 C 0.11516 0.36441 1.10766
 C211 C 0.08315 0.38426 1.11806
 H212 H 0.11685 0.32710 1.16417
 H213 H 0.12925 0.37035 1.07835
 H214 H 0.17878 0.32334 1.09665
 H215 H 0.07079 0.37919 1.14843
 C216 C -0.15180 0.67580 1.15224
 C217 C -0.16459 0.65726 1.11829
 C218 C -0.14342 0.62495 1.09763
 C219 C -0.10510 0.61830 1.10249
 H220 H -0.19202 0.66538 1.10442
 H221 H -0.16018 0.60821 1.07540
 H222 H -0.12531 0.66576 1.16694
 H223 H -0.08808 0.63741 1.12249
 C224 C -0.14317 0.31326 0.85685
 C225 C -0.15650 0.33074 0.89089
 C226 C -0.13458 0.36132 0.91456
 C227 C -0.10304 0.38218 0.90087
 H228 H -0.18423 0.32137 0.90406
 H229 H -0.14624 0.36724 0.94464
 H230 H -0.11494 0.32243 0.84455
 H231 H -0.09329 0.37895 0.86956
 C232 C 0.14252 0.68078 0.85342
 C233 C 0.15447 0.66206 0.88801
 C234 C 0.13235 0.62922 0.90958
 C235 C 0.09428 0.62058 0.90348
 H236 H 0.18205 0.67041 0.90186
 H237 H 0.14822 0.61356 0.93339
 H238 H 0.11568 0.67083 0.83893
 H239 H 0.07790 0.63843 0.88173
 C240 C 1.15150 0.15185 0.31303
 C241 C 1.16185 0.11816 0.33335
 C242 C 1.13881 0.09828 0.36675
 C243 C 1.10121 0.10564 0.37514
 H244 H 1.18884 0.10373 0.32597
 H245 H 1.15352 0.07449 0.38314
 H246 H 1.12520 0.16689 0.32195
 H247 H 1.08562 0.12723 0.35656
 C248 C 1.14109 -0.14047 0.68442
 C249 C 1.15319 -0.10530 0.66720
 C250 C 1.13034 -0.08174 0.63701
 C251 C 1.09979 -0.09621 0.61561
 H252 H 1.18037 -0.09127 0.67662
 H253 H 1.14044 -0.05108 0.63175
 H254 H 1.11327 -0.15354 0.67540
 H255 H 1.09178 -0.12776 0.61806
 C256 C 0.85834 -0.14195 0.31242
 C257 C 0.89182 -0.15399 0.32996
 C258 C 0.91503 -0.13003 0.35944
 C259 C 0.90150 -0.09880 0.38028
 H260 H 0.90461 -0.18198 0.32141
 H261 H 0.94446 -0.14004 0.36483
 H262 H 0.84660 -0.11323 0.32045
 H263 H 0.87108 -0.09101 0.37769
 C264 C 0.85899 0.14357 0.68409
 C265 C 0.84646 0.10968 0.66593
 C266 C 0.86912 0.08752 0.63533
 C267 C 0.89992 0.10273 0.61423
 H268 H 0.81900 0.09555 0.67485
 H269 H 0.85866 0.05729 0.62951
 H270 H 0.88706 0.15673 0.67550
 H271 H 0.90828 0.13405 0.61719
 C272 C 0.32763 1.14071 0.14463
 C273 C 0.34572 1.15183 0.10952
 C274 C 0.37754 1.12950 0.09006
 C275 C 0.38673 1.09141 0.09959
 H276 H 0.33744 1.17909 0.09362
 H277 H 0.39206 1.14499 0.06471
 H278 H 0.33687 1.11431 0.16150
 H279 H 0.37008 1.07484 0.12274
 C280 C 0.68373 1.13978 -0.14654
 C281 C 0.66510 1.15316 -0.11336
 C282 C 0.63535 1.12957 -0.08970
 C283 C 0.61586 1.09722 -0.10374
 H284 H 0.67313 1.18203 -0.10098
 H285 H 0.62890 1.14051 -0.05945
 H286 H 0.67636 1.11046 -0.15840
 H287 H 0.61954 1.08841 -0.13526
 C288 C 0.31577 0.85326 -0.14370
 C289 C 0.33522 0.88582 -0.15859
 C290 C 0.36584 0.90828 -0.13595
 C291 C 0.38517 0.89381 -0.10321
 H292 H 0.32741 0.89842 -0.18817
 H293 H 0.37311 0.93798 -0.14804
 H294 H 0.32302 0.84099 -0.11377
 H295 H 0.38054 0.86287 -0.09337
 C296 C 0.68424 0.85234 0.14385
 C297 C 0.66432 0.83696 0.11209
 C298 C 0.63419 0.85879 0.08860
 C299 C 0.61480 0.89038 0.10262
 H300 H 0.67148 0.80774 0.10077
 H301 H 0.62721 0.84701 0.05872
 H302 H 0.67787 0.88214 0.15432
 H303 H 0.61909 0.89974 0.13394
   
