data_POSCAR
  _audit_creation_date              2014-09-24
  _audit_creation_method            'ToBaCCo'
  _symmetry_space_group_name_H-M    'P1'
  _symmetry_Int_Tables_number       1
  _symmetry_cell_setting            triclinic
  loop_
  _symmetry_equiv_pos_as_xyz
 x,y,z
_cell_length_a 38.6101
_cell_length_b 38.5520
_cell_length_c 38.6760
_cell_angle_alpha 89.944000
_cell_angle_beta 89.998200
_cell_angle_gamma 90.009100
loop_
  _atom_site_label
  _atom_site_type_symbol
  _atom_site_fract_x
  _atom_site_fract_y
  _atom_site_fract_z
C1 C 0.25027 0.27590 0.22373
 C2 C 0.27600 0.27568 0.19812
 C3 C 0.30184 0.24997 0.19795
 C4 C 0.30168 0.22429 0.22381
 C5 C 0.27609 0.22414 0.24956
 C6 C 0.25028 0.25003 0.24956
 C7 C 0.22447 0.30150 0.22384
 C8 C 0.19861 0.30169 0.24946
 C9 C 0.19884 0.27583 0.27515
 C10 C 0.22448 0.25006 0.27538
 C11 C 0.22472 0.22432 0.30104
 C12 C 0.25039 0.19843 0.30125
 C13 C 0.27599 0.19856 0.27538
 H14 H 0.27566 0.29530 0.17803
 H15 H 0.32176 0.20464 0.22415
 H16 H 0.22424 0.32106 0.20369
 H17 H 0.17929 0.27605 0.29527
 H18 H 0.20462 0.22415 0.32060
 H19 H 0.29613 0.17897 0.27560
 C20 C 0.74974 -0.27566 0.22414
 C21 C 0.72400 -0.27548 0.19851
 C22 C 0.69766 -0.24995 0.19807
 C23 C 0.69803 -0.22446 0.22436
 C24 C 0.72366 -0.22434 0.25006
 C25 C 0.74966 -0.24997 0.24990
 C26 C 0.77555 -0.30130 0.22425
 C27 C 0.80182 -0.30181 0.24977
 C28 C 0.80129 -0.27560 0.27534
 C29 C 0.77558 -0.24989 0.27553
 C30 C 0.77530 -0.22421 0.30122
 C31 C 0.74952 -0.19846 0.30155
 C32 C 0.72381 -0.19872 0.27582
 H33 H 0.72395 -0.29636 0.17984
 H34 H 0.67930 -0.20358 0.22436
 H35 H 0.77571 -0.31990 0.20332
 H36 H 0.81996 -0.27567 0.29621
 H37 H 0.79496 -0.22448 0.32122
 H38 H 0.70410 -0.17870 0.27561
 C39 C 0.74996 0.27569 0.77585
 C40 C 0.72425 0.27546 0.80151
 C41 C 0.69795 0.24989 0.80197
 C42 C 0.69833 0.22440 0.77568
 C43 C 0.72394 0.22433 0.74996
 C44 C 0.74990 0.25000 0.75009
 C45 C 0.77574 0.30138 0.77572
 C46 C 0.80197 0.30195 0.75017
 C47 C 0.80147 0.27572 0.72460
 C48 C 0.77580 0.24997 0.72444
 C49 C 0.77553 0.22429 0.69875
 C50 C 0.74978 0.19850 0.69844
 C51 C 0.72410 0.19871 0.72421
 H52 H 0.72419 0.29635 0.82018
 H53 H 0.67964 0.20348 0.77571
 H54 H 0.77588 0.31998 0.79665
 H55 H 0.82012 0.27583 0.70372
 H56 H 0.79517 0.22459 0.67872
 H57 H 0.70441 0.17865 0.72443
 C58 C 0.24977 -0.27588 0.77641
 C59 C 0.27553 -0.27572 0.80202
 C60 C 0.30146 -0.25009 0.80219
 C61 C 0.30139 -0.22446 0.77630
 C62 C 0.27586 -0.22432 0.75051
 C63 C 0.25000 -0.25019 0.75050
 C64 C 0.22393 -0.30146 0.77633
 C65 C 0.19790 -0.30211 0.75057
 C66 C 0.19868 -0.27606 0.72477
 C67 C 0.22438 -0.25034 0.72459
 C68 C 0.22466 -0.22456 0.69894
 C69 C 0.25033 -0.19867 0.69874
 C70 C 0.27587 -0.19879 0.72466
 H71 H 0.27511 -0.29529 0.82216
 H72 H 0.32152 -0.20485 0.77597
 H73 H 0.22530 -0.32163 0.79575
 H74 H 0.17855 -0.27460 0.70536
 H75 H 0.20462 -0.22439 0.67932
 H76 H 0.29604 -0.17922 0.72445
 C77 C 0.74971 -0.27598 0.77613
 C78 C 0.72400 -0.27575 0.80177
 C79 C 0.69814 -0.25007 0.80197
 C80 C 0.69826 -0.22441 0.77611
 C81 C 0.72382 -0.22428 0.75035
 C82 C 0.74971 -0.25011 0.75040
 C83 C 0.77553 -0.30158 0.77607
 C84 C 0.80178 -0.30205 0.75052
 C85 C 0.80124 -0.27579 0.72492
 C86 C 0.77558 -0.25004 0.72474
 C87 C 0.77529 -0.22432 0.69904
 C88 C 0.74954 -0.19852 0.69872
 C89 C 0.72389 -0.19871 0.72453
 H90 H 0.72434 -0.29537 0.82187
 H91 H 0.67815 -0.20479 0.77577
 H92 H 0.77566 -0.32022 0.79700
 H93 H 0.81988 -0.27587 0.70403
 H94 H 0.79490 -0.22461 0.67899
 H95 H 0.70422 -0.17865 0.72478
 C96 C 0.25017 0.27571 0.77573
 C97 C 0.27594 0.27551 0.80129
 C98 C 0.30181 0.24983 0.80144
 C99 C 0.30165 0.22419 0.77559
 C100 C 0.27606 0.22406 0.74986
 C101 C 0.25017 0.24988 0.74993
 C102 C 0.22434 0.30128 0.77564
 C103 C 0.19845 0.30147 0.75005
 C104 C 0.19865 0.27562 0.72441
 C105 C 0.22428 0.24985 0.72419
 C106 C 0.22451 0.22414 0.69856
 C107 C 0.25026 0.19834 0.69828
 C108 C 0.27595 0.19852 0.72406
 H109 H 0.27561 0.29510 0.82136
 H110 H 0.32177 0.20457 0.77524
 H111 H 0.22413 0.32083 0.79576
 H112 H 0.17906 0.27583 0.70433
 H113 H 0.20487 0.22446 0.67854
 H114 H 0.29562 0.17846 0.72431
 C115 C 0.25012 -0.27576 0.22409
 C116 C 0.27592 -0.27565 0.19852
 C117 C 0.30215 -0.25001 0.19795
 C118 C 0.30163 -0.22434 0.22407
 C119 C 0.27602 -0.22424 0.24979
 C120 C 0.25023 -0.25008 0.24986
 C121 C 0.22421 -0.30131 0.22412
 C122 C 0.19809 -0.30195 0.24979
 C123 C 0.19883 -0.27593 0.27555
 C124 C 0.22454 -0.25023 0.27573
 C125 C 0.22476 -0.22446 0.30133
 C126 C 0.25044 -0.19860 0.30153
 C127 C 0.27601 -0.19873 0.27565
 H128 H 0.27436 -0.29493 0.17826
 H129 H 0.32190 -0.20502 0.22560
 H130 H 0.22561 -0.32150 0.20476
 H131 H 0.17864 -0.27445 0.29490
 H132 H 0.20468 -0.22429 0.32091
 H133 H 0.29618 -0.17916 0.27587
 C134 C 0.75014 0.27609 0.22397
 C135 C 0.72445 0.27582 0.19831
 C136 C 0.69862 0.25009 0.19810
 C137 C 0.69875 0.22444 0.22396
 C138 C 0.72429 0.22435 0.24974
 C139 C 0.75016 0.25022 0.24970
 C140 C 0.77592 0.30174 0.22405
 C141 C 0.80215 0.30225 0.24961
 C142 C 0.80163 0.27600 0.27522
 C143 C 0.77600 0.25020 0.27538
 C144 C 0.77572 0.22448 0.30109
 C145 C 0.75000 0.19865 0.30139
 C146 C 0.72437 0.19879 0.27556
 H147 H 0.72477 0.29543 0.17821
 H148 H 0.67867 0.20479 0.22430
 H149 H 0.77603 0.32037 0.20311
 H150 H 0.82026 0.27611 0.29612
 H151 H 0.79532 0.22480 0.32116
 H152 H 0.70473 0.17870 0.27530
 O153 O 0.27925 0.03363 0.46625
 O154 O 0.27928 -0.03392 0.53366
 O155 O 0.27930 -0.03392 0.46631
 O156 O 0.27922 0.03363 0.53359
 O157 O 0.22194 0.03358 0.53357
 O158 O 0.22202 -0.03397 0.46630
 O159 O 0.22200 -0.03397 0.53364
 O160 O 0.22197 0.03358 0.46623
 Cu161 Cu 0.28504 -0.00014 0.49996
 Cu162 Cu 0.21620 -0.00020 0.49993
 C163 C 0.25060 0.04501 0.45486
 C164 C 0.25064 -0.04535 0.54504
 C165 C 0.25067 -0.04534 0.45495
 C166 C 0.25057 0.04500 0.54494
 O167 O 0.72082 0.03382 0.53365
 O168 O 0.72075 -0.03371 0.46633
 O169 O 0.72072 -0.03374 0.53368
 O170 O 0.72086 0.03385 0.46631
 O171 O 0.77814 0.03377 0.46634
 O172 O 0.77800 -0.03382 0.53370
 O173 O 0.77803 -0.03379 0.46636
 O174 O 0.77810 0.03373 0.53368
 Cu175 Cu 0.71501 0.00006 0.49999
 Cu176 Cu 0.78385 -0.00004 0.50002
 C177 C 0.74948 0.04517 0.54503
 C178 C 0.74937 -0.04514 0.45498
 C179 C 0.74934 -0.04518 0.54507
 C180 C 0.74953 0.04522 0.45495
 O181 O 0.46661 0.27845 0.03326
 O182 O 0.53407 0.27842 -0.03408
 O183 O 0.46662 0.27841 -0.03408
 O184 O 0.53406 0.27847 0.03326
 O185 O 0.53407 0.22111 0.03336
 O186 O 0.46663 0.22104 -0.03399
 O187 O 0.53408 0.22106 -0.03399
 O188 O 0.46661 0.22109 0.03335
 Cu189 Cu 0.50034 0.28423 -0.00042
 Cu190 Cu 0.50035 0.21528 -0.00031
 C191 C 0.45522 0.24978 0.04467
 C192 C 0.54546 0.24974 -0.04540
 C193 C 0.45524 0.24972 -0.04540
 C194 C 0.54544 0.24980 0.04468
 O195 O 0.53370 0.72130 0.03422
 O196 O 0.46620 0.72124 -0.03309
 O197 O 0.53366 0.72129 -0.03313
 O198 O 0.46624 0.72125 0.03424
 O199 O 0.46621 0.77861 0.03418
 O200 O 0.53362 0.77866 -0.03319
 O201 O 0.46617 0.77861 -0.03316
 O202 O 0.53366 0.77867 0.03416
 Cu203 Cu 0.49996 0.71548 0.00057
 Cu204 Cu 0.49991 0.78443 0.00049
 C205 C 0.54507 0.75000 0.04555
 C206 C 0.45479 0.74991 -0.04449
 C207 C 0.54501 0.74998 -0.04453
 C208 C 0.45484 0.74992 0.04558
 O209 O 0.03364 0.46657 0.27796
 O210 O -0.03384 0.53410 0.27804
 O211 O -0.03381 0.46654 0.27801
 O212 O 0.03362 0.53412 0.27801
 O213 O 0.03360 0.53421 0.22083
 O214 O -0.03384 0.46663 0.22083
 O215 O -0.03386 0.53419 0.22085
 O216 O 0.03361 0.46666 0.22078
 Cu217 Cu -0.00010 0.50033 0.28378
 Cu218 Cu -0.00013 0.50044 0.21505
 C219 C 0.04502 0.45522 0.24936
 C220 C -0.04524 0.54554 0.24946
 C221 C -0.04520 0.45518 0.24942
 C222 C 0.04500 0.54556 0.24943
 O223 O 0.03349 0.53397 0.72198
 O224 O -0.03398 0.46641 0.72182
 O225 O -0.03398 0.53397 0.72196
 O226 O 0.03347 0.46642 0.72183
 O227 O 0.03346 0.46624 0.77901
 O228 O -0.03399 0.53379 0.77915
 O229 O -0.03399 0.46623 0.77901
 O230 O 0.03348 0.53380 0.77916
 Cu231 Cu -0.00025 0.50021 0.71613
 Cu232 Cu -0.00026 0.50000 0.78485
 C233 C 0.04488 0.54528 0.75060
 C234 C -0.04537 0.45491 0.75039
 C235 C -0.04537 0.54527 0.75058
 C236 C 0.04485 0.45493 0.75040
 C237 C 0.38053 0.24985 0.11926
 C238 C 0.36521 0.21866 0.12971
 C239 C 0.33963 0.21866 0.15529
 C240 C 0.32901 0.24993 0.17076
 C241 C 0.34457 0.28116 0.16006
 C242 C 0.37017 0.28109 0.13448
 C243 C 0.40688 0.24981 0.09293
 C244 C 0.42895 0.24978 0.07089
 H245 H 0.37297 0.19434 0.11802
 H246 H 0.32783 0.19427 0.16267
 H247 H 0.33727 0.30558 0.17179
 H248 H 0.38193 0.30537 0.12665
 C249 C 0.61976 0.75006 0.12015
 C250 C 0.61306 0.76481 0.15242
 C251 C 0.63859 0.76488 0.17805
 C252 C 0.67160 0.75006 0.17200
 C253 C 0.67774 0.73525 0.13906
 C254 C 0.65211 0.73532 0.11354
 C255 C 0.59341 0.75003 0.09381
 C256 C 0.57134 0.75001 0.07177
 H257 H 0.58794 0.77604 0.15792
 H258 H 0.63156 0.77538 0.20298
 H259 H 0.70274 0.72476 0.13210
 H260 H 0.65768 0.72407 0.08848
 C261 C 0.62009 0.24975 -0.12005
 C262 C 0.61340 0.23499 -0.15232
 C263 C 0.63891 0.23496 -0.17796
 C264 C 0.67190 0.24984 -0.17194
 C265 C 0.67804 0.26466 -0.13901
 C266 C 0.65243 0.26455 -0.11346
 C267 C 0.59377 0.24973 -0.09370
 C268 C 0.57171 0.24973 -0.07164
 H269 H 0.58829 0.22370 -0.15780
 H270 H 0.63188 0.22444 -0.20289
 H271 H 0.70303 0.27520 -0.13206
 H272 H 0.65800 0.27581 -0.08841
 C273 C 0.38010 0.74988 -0.11907
 C274 C 0.36963 0.71866 -0.13426
 C275 C 0.34405 0.71863 -0.15984
 C276 C 0.32861 0.74989 -0.17060
 C277 C 0.33932 0.78115 -0.15516
 C278 C 0.36488 0.78111 -0.12956
 C279 C 0.40644 0.74988 -0.09274
 C280 C 0.42852 0.74989 -0.07070
 H281 H 0.38131 0.69434 -0.12639
 H282 H 0.33667 0.69422 -0.17154
 H283 H 0.32761 0.80557 -0.16257
 H284 H 0.37273 0.80542 -0.11791
 C285 C 0.11977 0.38046 0.24934
 C286 C 0.15421 0.38926 0.24220
 C287 C 0.17986 0.36366 0.24222
 C288 C 0.17138 0.32889 0.24941
 C289 C 0.13668 0.32032 0.25656
 C290 C 0.11106 0.34596 0.25650
 C291 C 0.09339 0.40683 0.24933
 C292 C 0.07130 0.42893 0.24933
 H293 H 0.16125 0.41591 0.23672
 H294 H 0.20640 0.37114 0.23706
 H295 H 0.12928 0.29373 0.26175
 H296 H 0.08447 0.33885 0.26197
 C297 C 0.11971 0.61998 0.75065
 C298 C 0.12928 0.63614 0.71977
 C299 C 0.15491 0.66174 0.71966
 C300 C 0.17174 0.67182 0.75060
 C301 C 0.16159 0.65502 0.78157
 C302 C 0.13589 0.62948 0.78151
 C303 C 0.09329 0.59363 0.75066
 C304 C 0.07118 0.57156 0.75065
 H305 H 0.11710 0.62875 0.69564
 H306 H 0.16228 0.67239 0.69485
 H307 H 0.17226 0.66234 0.80635
 H308 H 0.12846 0.61731 0.80566
 C309 C -0.12005 0.62025 0.24957
 C310 C -0.15233 0.61361 0.23472
 C311 C -0.17803 0.63915 0.23471
 C312 C -0.17204 0.67211 0.24970
 C313 C -0.13910 0.67820 0.26462
 C314 C -0.11350 0.65256 0.26448
 C315 C -0.09364 0.59390 0.24952
 C316 C -0.07153 0.57183 0.24948
 H317 H -0.15779 0.58852 0.22334
 H318 H -0.20298 0.63215 0.22412
 H319 H -0.13217 0.70317 0.27526
 H320 H -0.08843 0.65809 0.27581
 C321 C -0.12005 0.38006 0.75026
 C322 C -0.11345 0.34776 0.73535
 C323 C -0.13900 0.32207 0.73525
 C324 C -0.17194 0.32808 0.75020
 C325 C -0.17798 0.36104 0.76519
 C326 C -0.15234 0.38663 0.76514
 C327 C -0.09370 0.40647 0.75029
 C328 C -0.07163 0.42860 0.75032
 H329 H -0.08838 0.34229 0.72400
 H330 H -0.13203 0.29711 0.72461
 H331 H -0.20293 0.36798 0.77580
 H332 H -0.15783 0.41171 0.77652
 C333 C 0.25054 0.11973 0.38011
 C334 C 0.25758 0.11089 0.34574
 C335 C 0.25755 0.13646 0.32008
 C336 C 0.25045 0.17125 0.32849
 C337 C 0.24340 0.17986 0.36314
 C338 C 0.24347 0.15424 0.38876
 C339 C 0.25057 0.09338 0.40650
 C340 C 0.25059 0.07129 0.42859
 H341 H 0.26299 0.08423 0.33875
 H342 H 0.26263 0.12896 0.29358
 H343 H 0.23828 0.20646 0.37049
 H344 H 0.23809 0.16138 0.41531
 C345 C 0.74961 0.11986 0.61966
 C346 C 0.78079 0.13010 0.63502
 C347 C 0.78088 0.15568 0.66062
 C348 C 0.74972 0.17134 0.67122
 C349 C 0.71851 0.16085 0.65562
 C350 C 0.71849 0.13528 0.63001
 C351 C 0.74955 0.09352 0.59331
 C352 C 0.74951 0.07144 0.57126
 H353 H 0.80502 0.11826 0.62727
 H354 H 0.80526 0.16288 0.67245
 H355 H 0.69418 0.17273 0.66291
 H356 H 0.69421 0.12761 0.61822
 C357 C 0.25060 -0.12003 0.61982
 C358 C 0.25759 -0.11117 0.65420
 C359 C 0.25753 -0.13672 0.67988
 C360 C 0.25045 -0.17151 0.67148
 C361 C 0.24346 -0.18015 0.63683
 C362 C 0.24355 -0.15456 0.61119
 C363 C 0.25064 -0.09369 0.59342
 C364 C 0.25065 -0.07162 0.57131
 H365 H 0.26299 -0.08450 0.66118
 H366 H 0.26257 -0.12920 0.70637
 H367 H 0.23835 -0.20676 0.62949
 H368 H 0.23820 -0.16171 0.58464
 C369 C 0.74939 -0.11981 0.38032
 C370 C 0.78055 -0.13002 0.36492
 C371 C 0.78063 -0.15559 0.33931
 C372 C 0.74947 -0.17130 0.32876
 C373 C 0.71827 -0.16084 0.34441
 C374 C 0.71826 -0.13527 0.37002
 C375 C 0.74936 -0.09348 0.40668
 C376 C 0.74935 -0.07141 0.42874
 H377 H 0.80479 -0.11815 0.37263
 H378 H 0.80500 -0.16277 0.32745
 H379 H 0.69394 -0.17275 0.33715
 H380 H 0.69400 -0.12763 0.38185
 C381 C 0.61958 0.74998 -0.11923
 C382 C 0.62993 0.71876 -0.13448
 C383 C 0.65548 0.71871 -0.16010
 C384 C 0.67100 0.74995 -0.17081
 C385 C 0.66040 0.78121 -0.15532
 C386 C 0.63486 0.78119 -0.12969
 C387 C 0.59328 0.74999 -0.09286
 C388 C 0.57124 0.74999 -0.07078
 H389 H 0.61820 0.69446 -0.12664
 H390 H 0.66277 0.69429 -0.17185
 H391 H 0.67217 0.80561 -0.16271
 H392 H 0.62710 0.80550 -0.11798
 C393 C 0.38056 0.24973 -0.11996
 C394 C 0.36526 0.21853 -0.13035
 C395 C 0.33966 0.21852 -0.15591
 C396 C 0.32901 0.24979 -0.17141
 C397 C 0.34455 0.28103 -0.16077
 C398 C 0.37016 0.28096 -0.13522
 C399 C 0.40691 0.24970 -0.09365
 C400 C 0.42898 0.24970 -0.07162
 H401 H 0.37305 0.19421 -0.11863
 H402 H 0.32787 0.19413 -0.16324
 H403 H 0.33722 0.30545 -0.17253
 H404 H 0.38191 0.30526 -0.12743
 C405 C 0.38014 0.74992 0.12014
 C406 C 0.36376 0.71902 0.12947
 C407 C 0.33812 0.71895 0.15499
 C408 C 0.32824 0.74997 0.17191
 C409 C 0.34526 0.78097 0.16200
 C410 C 0.37084 0.78085 0.13642
 C411 C 0.40651 0.74990 0.09384
 C412 C 0.42858 0.74990 0.07180
 H413 H 0.37100 0.69482 0.11720
 H414 H 0.32729 0.69411 0.16218
 H415 H 0.33810 0.80582 0.17276
 H416 H 0.38318 0.80503 0.12916
 C417 C 0.62005 0.24992 0.11932
 C418 C 0.63037 0.28116 0.13457
 C419 C 0.65592 0.28125 0.16017
 C420 C 0.67149 0.25004 0.17088
 C421 C 0.66093 0.21876 0.15538
 C422 C 0.63538 0.21874 0.12977
 C423 C 0.59374 0.24986 0.09297
 C424 C 0.57169 0.24983 0.07091
 H425 H 0.61860 0.30544 0.12673
 H426 H 0.66319 0.30568 0.17192
 H427 H 0.67274 0.19438 0.16276
 H428 H 0.62765 0.19442 0.11806
 C429 C -0.12013 0.62001 0.75064
 C430 C -0.11357 0.65235 0.73574
 C431 C -0.13915 0.67799 0.73564
 C432 C -0.17209 0.67188 0.75058
 C433 C -0.17808 0.63889 0.76556
 C434 C -0.15240 0.61334 0.76552
 C435 C -0.09374 0.59364 0.75064
 C436 C -0.07165 0.57156 0.75062
 H437 H -0.08851 0.65789 0.72439
 H438 H -0.13223 0.70299 0.72501
 H439 H -0.20302 0.63187 0.77617
 H440 H -0.15785 0.58823 0.77689
 C441 C -0.11987 0.38034 0.24948
 C442 C -0.11327 0.34802 0.26441
 C443 C -0.13882 0.32233 0.26452
 C444 C -0.17176 0.32838 0.24957
 C445 C -0.17780 0.36135 0.23457
 C446 C -0.15215 0.38694 0.23460
 C447 C -0.09352 0.40674 0.24944
 C448 C -0.07145 0.42886 0.24942
 H449 H -0.08820 0.34253 0.27576
 H450 H -0.13187 0.29735 0.27517
 H451 H -0.20275 0.36832 0.22396
 H452 H -0.15764 0.41204 0.22322
 C453 C 0.11959 0.38020 0.75024
 C454 C 0.15404 0.38901 0.75726
 C455 C 0.17970 0.36343 0.75722
 C456 C 0.17121 0.32866 0.75011
 C457 C 0.13650 0.32008 0.74307
 C458 C 0.11088 0.34570 0.74315
 C459 C 0.09321 0.40655 0.75029
 C460 C 0.07111 0.42864 0.75034
 H461 H 0.16108 0.41566 0.76269
 H462 H 0.20625 0.37091 0.76230
 H463 H 0.12910 0.29348 0.73794
 H464 H 0.08427 0.33858 0.73776
 C465 C 0.11984 0.62024 0.24954
 C466 C 0.12933 0.63635 0.28044
 C467 C 0.15499 0.66193 0.28061
 C468 C 0.17190 0.67202 0.24970
 C469 C 0.16183 0.65528 0.21871
 C470 C 0.13611 0.62976 0.21872
 C471 C 0.09342 0.59391 0.24947
 C472 C 0.07130 0.57184 0.24944
 H473 H 0.11708 0.62893 0.30454
 H474 H 0.16229 0.67253 0.30542
 H475 H 0.17258 0.66262 0.19396
 H476 H 0.12873 0.61763 0.19456
 C477 C 0.74936 -0.11988 0.61982
 C478 C 0.78054 -0.13013 0.63517
 C479 C 0.78063 -0.15571 0.66082
 C480 C 0.74947 -0.17136 0.67147
 C481 C 0.71825 -0.16086 0.65587
 C482 C 0.71823 -0.13529 0.63021
 C483 C 0.74931 -0.09354 0.59343
 C484 C 0.74930 -0.07146 0.57133
 H485 H 0.80477 -0.11829 0.62738
 H486 H 0.80501 -0.16292 0.67264
 H487 H 0.69392 -0.17273 0.66321
 H488 H 0.69395 -0.12761 0.61843
 C489 C 0.25067 -0.11999 0.38031
 C490 C 0.25768 -0.11112 0.34592
 C491 C 0.25763 -0.13666 0.32029
 C492 C 0.25054 -0.17146 0.32874
 C493 C 0.24352 -0.18010 0.36340
 C494 C 0.24360 -0.15452 0.38899
 C495 C 0.25069 -0.09367 0.40666
 C496 C 0.25069 -0.07161 0.42872
 H497 H 0.26308 -0.08445 0.33890
 H498 H 0.26269 -0.12913 0.29378
 H499 H 0.23841 -0.20672 0.37077
 H500 H 0.23823 -0.16168 0.41555
 C501 C 0.74975 0.11999 0.38028
 C502 C 0.78095 0.13028 0.36498
 C503 C 0.78107 0.15587 0.33935
 C504 C 0.74992 0.17150 0.32866
 C505 C 0.71868 0.16097 0.34421
 C506 C 0.71863 0.13539 0.36985
 C507 C 0.74966 0.09362 0.40664
 C508 C 0.74959 0.07152 0.42871
 H509 H 0.80518 0.11845 0.37279
 H510 H 0.80546 0.16311 0.32755
 H511 H 0.69435 0.17283 0.33685
 H512 H 0.69434 0.12768 0.38160
 C513 C 0.25043 0.11971 0.61952
 C514 C 0.28156 0.13515 0.62986
 C515 C 0.28153 0.16071 0.65547
 C516 C 0.25032 0.17119 0.67107
 C517 C 0.21916 0.15552 0.66047
 C518 C 0.21925 0.12994 0.63487
 C519 C 0.25049 0.09336 0.59319
 C520 C 0.25053 0.07128 0.57115
 H521 H 0.30583 0.12748 0.61807
 H522 H 0.30587 0.17260 0.66276
 H523 H 0.19479 0.16272 0.67231
 H524 H 0.19502 0.11809 0.62713
   
