data_POSCAR
  _audit_creation_date              2014-09-24
  _audit_creation_method            'ToBaCCo'
  _symmetry_space_group_name_H-M    'P1'
  _symmetry_Int_Tables_number       1
  _symmetry_cell_setting            triclinic
  loop_
  _symmetry_equiv_pos_as_xyz
 x,y,z
_cell_length_a 37.0324
_cell_length_b 35.8494
_cell_length_c 36.3293
_cell_angle_alpha 90.376900
_cell_angle_beta 89.716600
_cell_angle_gamma 89.971400
loop_
  _atom_site_label
  _atom_site_type_symbol
  _atom_site_fract_x
  _atom_site_fract_y
  _atom_site_fract_z
N1 N 0.19563 1.26912 0.16678
 N2 N 0.16882 1.26623 0.19038
 C3 C 0.14627 1.29529 0.18602
 C4 C 0.15968 1.31812 0.15833
 C5 C 0.19098 1.30006 0.14656
 H6 H 0.12166 1.29931 0.20165
 H7 H 0.20762 1.30700 0.12308
 Cu8 Cu 0.16463 1.22303 0.22222
 Cu9 Cu 0.23318 1.23111 0.16193
 Cu10 Cu 0.22162 1.15116 0.21396
 N11 N 0.16062 1.17982 0.25418
 N12 N 0.18319 1.15173 0.25076
 C13 C 0.17363 1.12471 0.27437
 C14 C 0.14272 1.13592 0.29324
 C15 C 0.13592 1.17160 0.28020
 H16 H 0.18881 1.09926 0.27812
 H17 H 0.11355 1.18949 0.28783
 N18 N 0.26331 1.15874 0.18097
 N19 N 0.26780 1.18917 0.16118
 C20 C 0.29800 1.18536 0.14063
 C21 C 0.31348 1.15119 0.14830
 C22 C 0.29057 1.13493 0.17368
 H23 H 0.30775 1.20554 0.12095
 H24 H 0.29307 1.10724 0.18501
 H25 H 0.19970 1.18848 0.17631
 H26 H 0.22811 1.20827 0.21396
 N27 N 0.80117 0.72793 0.16889
 N28 N 0.82373 0.72702 0.19668
 C29 C 0.84686 0.69841 0.19180
 C30 C 0.83805 0.68012 0.15939
 C31 C 0.80915 0.69990 0.14541
 H32 H 0.86936 0.69228 0.20965
 H33 H 0.79627 0.69549 0.11909
 Cu34 Cu 0.82319 0.76539 0.23465
 Cu35 Cu 0.76554 0.76747 0.16325
 Cu36 Cu 0.77251 0.84228 0.22337
 N37 N 0.83183 0.81049 0.26316
 N38 N 0.81204 0.84045 0.25843
 C39 C 0.82490 0.86818 0.27969
 C40 C 0.85500 0.85530 0.29839
 C41 C 0.85789 0.81808 0.28780
 H42 H 0.81258 0.89545 0.28198
 H43 H 0.87849 0.79845 0.29599
 N44 N 0.73469 0.83868 0.18563
 N45 N 0.73220 0.81035 0.16238
 C46 C 0.70572 0.81747 0.13810
 C47 C 0.69132 0.85215 0.14619
 C48 C 0.70984 0.86451 0.17683
 H49 H 0.69837 0.79957 0.11527
 H50 H 0.70620 0.89096 0.19084
 H51 H 0.79905 0.80623 0.18782
 H52 H 0.76272 0.78563 0.21737
 N53 N 0.81904 1.25663 -0.15620
 N54 N 0.84190 1.25924 -0.18387
 C55 C 0.86454 1.28794 -0.17748
 C56 C 0.85501 1.30442 -0.14433
 C57 C 0.82630 1.28358 -0.13136
 H58 H 0.88652 1.29620 -0.19535
 H59 H 0.81236 1.28724 -0.10536
 Cu60 Cu 0.84024 1.22454 -0.22523
 Cu61 Cu 0.78249 1.21770 -0.15375
 Cu62 Cu 0.77743 1.15690 -0.22812
 N63 N 0.83653 1.19059 -0.26705
 N64 N 0.81151 1.16469 -0.26828
 C65 C 0.81558 1.14452 -0.29937
 C66 C 0.84465 1.15862 -0.31918
 C67 C 0.85749 1.18764 -0.29731
 H68 H 0.80023 1.11964 -0.30556
 H69 H 0.88048 1.20528 -0.30298
 N70 N 0.74538 1.15345 -0.18487
 N71 N 0.74740 1.17648 -0.15644
 C72 C 0.72303 1.16603 -0.13086
 C73 C 0.70526 1.13467 -0.14358
 C74 C 0.71968 1.12780 -0.17811
 H75 H 0.71891 1.17965 -0.10453
 H76 H 0.71212 1.10549 -0.19669
 H77 H 0.80911 1.17916 -0.18667
 H78 H 0.77730 1.21169 -0.21003
 N79 N 0.18667 0.73490 -0.16797
 N80 N 0.15720 0.73997 -0.18738
 C81 C 0.13335 0.71285 -0.17934
 C82 C 0.14889 0.68928 -0.15401
 C83 C 0.18265 0.70419 -0.14719
 H84 H 0.10620 0.71095 -0.19001
 H85 H 0.20191 0.69459 -0.12706
 Cu86 Cu 0.15192 0.78293 -0.21924
 Cu87 Cu 0.22593 0.77119 -0.16745
 Cu88 Cu 0.21573 0.84897 -0.22302
 N89 N 0.14697 0.82580 -0.25133
 N90 N 0.17230 0.85136 -0.25297
 C91 C 0.16249 0.87770 -0.27716
 C92 C 0.12863 0.86880 -0.29095
 C93 C 0.12007 0.83514 -0.27430
 H94 H 0.17842 0.90213 -0.28343
 H95 H 0.09682 0.81779 -0.27980
 N96 N 0.25774 0.84143 -0.19085
 N97 N 0.26227 0.81134 -0.17059
 C98 C 0.29269 0.81532 -0.15071
 C99 C 0.30784 0.84949 -0.15888
 C100 C 0.28490 0.86543 -0.18409
 H101 H 0.30212 0.79590 -0.13023
 H102 H 0.28729 0.89307 -0.19560
 H103 H 0.19468 0.81683 -0.18077
 H104 H 0.21719 0.79151 -0.21961
 C105 C 0.55571 1.04514 -0.01358
 H106 H 0.55318 1.04730 0.01604
 C107 C 0.58352 1.06388 -0.03172
 H108 H 0.60235 1.08073 -0.01610
 C109 C 0.53533 1.01907 -0.06994
 H110 H 0.51728 1.00065 -0.08459
 C111 C 0.56286 1.03726 -0.08917
 H112 H 0.56554 1.03329 -0.11864
 N113 N 0.53228 1.02332 -0.03279
 C114 C 0.44447 1.01021 0.04651
 H115 H 0.44320 0.98008 0.04745
 C116 C 0.42119 1.03157 0.06838
 H117 H 0.40185 1.01789 0.08621
 C118 C 0.47069 1.06486 0.02148
 H119 H 0.48958 1.07768 0.00269
 C120 C 0.44777 1.08732 0.04282
 H121 H 0.44934 1.11739 0.04068
 Zn122 Zn 0.49881 0.99541 -0.00471
 N123 N 0.46891 1.02704 0.02405
 C124 C 0.52791 0.96942 0.06286
 N125 N 0.52697 0.96444 0.02570
 C126 C 0.54955 0.93999 0.00836
 C127 C 0.57480 0.91976 0.02845
 C128 C 0.55288 0.94982 0.08400
 C129 C 0.44895 0.98477 -0.06135
 C130 C 0.42510 0.96518 -0.08394
 C131 C 0.43986 0.90885 -0.05110
 C132 C 0.46404 0.92939 -0.02963
 N133 N 0.46828 0.96661 -0.03527
 H134 H 0.51051 0.98978 0.07596
 H135 H 0.54875 0.93725 -0.02129
 H136 H 0.59345 0.90125 0.01431
 H137 H 0.55445 0.95488 0.11338
 H138 H 0.45210 1.01458 -0.06456
 H139 H 0.41011 0.97998 -0.10480
 H140 H 0.43598 0.87945 -0.04570
 H141 H 0.47868 0.91575 -0.00785
 C142 C 0.42302 1.07057 0.06688
 C143 C 0.58753 1.05951 -0.06983
 C144 C 0.42048 0.92668 -0.07906
 C145 C 0.57693 0.92519 0.06655
 C146 C -0.02879 0.56803 1.02821
 H147 H -0.01243 0.57990 1.00663
 C148 C -0.05183 0.59129 1.04844
 H149 H -0.05319 0.62073 1.04206
 C150 C -0.04675 0.51588 1.06354
 H151 H -0.04391 0.48675 1.07023
 C152 C -0.07000 0.53821 1.08460
 H153 H -0.08535 0.52601 1.10693
 N154 N -0.02697 0.53087 1.03559
 C155 C 0.05538 0.44488 1.02021
 H156 H 0.05321 0.44056 0.99080
 C157 C 0.07819 0.42228 1.04088
 H158 H 0.09361 0.40037 1.02744
 C159 C 0.03758 0.47840 1.07382
 H160 H 0.02207 0.50059 1.08647
 C161 C 0.05983 0.45620 1.09558
 H162 H 0.06105 0.46103 1.12501
 Zn163 Zn 0.00422 0.49986 1.00651
 N164 N 0.03542 0.47205 1.03691
 C165 C 0.06807 0.53567 0.98187
 N166 N 0.03236 0.53043 0.97487
 C167 C 0.01591 0.54797 0.94637
 C168 C 0.03560 0.57136 0.92324
 C169 C 0.08865 0.55940 0.95976
 C170 C -0.04923 0.44452 0.99488
 C171 C -0.07026 0.41952 0.97463
 C172 C -0.03684 0.43643 0.92003
 C173 C -0.01643 0.46112 0.94133
 N174 N -0.02341 0.46541 0.97797
 H175 H 0.08046 0.52214 1.00511
 H176 H -0.01267 0.54393 0.94180
 H177 H 0.02214 0.58510 0.90066
 H178 H 0.11680 0.56416 0.96621
 H179 H -0.05358 0.44700 1.02412
 H180 H -0.09081 0.40319 0.98841
 H181 H -0.03122 0.43350 0.89087
 H182 H 0.00527 0.47644 0.92851
 C183 C 0.08034 0.42781 1.07900
 C184 C -0.07309 0.57626 1.07664
 C185 C -0.06452 0.41583 0.93665
 C186 C 0.07247 0.57719 0.92976
 C187 C 1.04175 -0.00302 0.55664
 H188 H 1.04191 0.02707 0.55451
 C189 C 1.05945 -0.02029 0.58573
 H190 H 1.07348 -0.00348 0.60600
 C191 C 1.02178 -0.06157 0.53378
 H192 H 1.00628 -0.07743 0.51403
 C193 C 1.03927 -0.08001 0.56240
 H194 H 1.03760 -0.11009 0.56434
 N195 N 1.02313 -0.02371 0.53162
 C196 C 1.00816 0.04901 0.43747
 H197 H 0.97897 0.04890 0.43636
 C198 C 1.02800 0.06704 0.41018
 H199 H 1.01410 0.08105 0.38804
 C200 C 1.06198 0.02929 0.46672
 H201 H 1.07503 0.01374 0.48829
 C202 C 1.08293 0.04694 0.43984
 H203 H 1.11210 0.04526 0.44091
 Zn204 Zn 0.99551 0.00282 0.49696
 N205 N 1.02530 0.03050 0.46488
 C206 C 0.96607 0.07248 0.52050
 N207 N 0.96454 0.03474 0.52411
 C208 C 0.94233 0.01851 0.54925
 C209 C 0.92011 0.04040 0.57175
 C210 C 0.94431 0.09544 0.54253
 C211 C 0.98746 -0.05284 0.44371
 C212 C 0.96961 -0.07366 0.41679
 C213 C 0.91304 -0.04750 0.43819
 C214 C 0.93195 -0.02717 0.46473
 N215 N 0.96855 -0.02984 0.46669
 H216 H 0.98462 0.08488 0.50109
 H217 H 0.94226 -0.01151 0.55207
 H218 H 0.90285 0.02722 0.59201
 H219 H 0.94590 0.12545 0.53972
 H220 H 1.01660 -0.05382 0.44541
 H221 H 0.98500 -0.09089 0.39778
 H222 H 0.88405 -0.04430 0.43594
 H223 H 0.91750 -0.00806 0.48257
 C224 C 1.06575 0.06554 0.41096
 C225 C 1.05763 -0.05913 0.58919
 C226 C 0.93212 -0.07031 0.41338
 C227 C 0.92091 0.07931 0.56835
 C228 C 0.08510 0.37797 1.12507
 C229 C 0.10443 0.35178 1.14504
 C230 C 0.14235 0.34932 1.14233
 C231 C 0.16092 0.37725 1.12168
 C232 C 0.14091 0.40315 1.10037
 C233 C 0.10274 0.40277 1.10164
 C234 C 0.15983 0.42965 1.07940
 N235 N 0.19632 0.43132 1.08112
 N236 N 0.21504 0.40864 1.10272
 C237 C 0.19865 0.38214 1.12336
 H238 H 0.05587 0.37788 1.12680
 H239 H 0.08893 0.33186 1.16079
 H240 H 0.14594 0.44960 1.06233
 H241 H 0.21523 0.36647 1.14205
 C242 C -0.08178 0.63006 1.11858
 C243 C -0.10309 0.65456 1.13912
 C244 C -0.14075 0.65069 1.14023
 C245 C -0.15705 0.62041 1.12120
 C246 C -0.13534 0.59580 1.09970
 C247 C -0.09736 0.60077 1.09854
 C248 C -0.15261 0.56737 1.07953
 N249 N -0.18886 0.56289 1.08225
 N250 N -0.20902 0.58495 1.10364
 C251 C -0.19439 0.61342 1.12327
 H252 H -0.05280 0.63417 1.11807
 H253 H -0.09005 0.67747 1.15339
 H254 H -0.13774 0.54874 1.06152
 H255 H -0.21207 0.62987 1.14064
 C256 C -0.06887 0.35961 0.89718
 C257 C -0.08828 0.33291 0.87757
 C258 C -0.12595 0.33513 0.87487
 C259 C -0.14426 0.36602 0.89095
 C260 C -0.12444 0.39324 0.91098
 C261 C -0.08650 0.38946 0.91464
 C262 C -0.14323 0.42400 0.92586
 N263 N -0.17938 0.42707 0.92102
 N264 N -0.19794 0.40169 0.90206
 C265 C -0.18165 0.37145 0.88671
 H266 H -0.03986 0.35650 0.89947
 H267 H -0.07379 0.30969 0.86522
 H268 H -0.12953 0.44595 0.94078
 H269 H -0.19804 0.35249 0.87075
 C270 C 0.07938 0.64028 0.90362
 C271 C 0.09768 0.66718 0.88343
 C272 C 0.13064 0.65895 0.86619
 C273 C 0.14490 0.62235 0.86843
 C274 C 0.12587 0.59462 0.88850
 C275 C 0.09312 0.60401 0.90685
 C276 C 0.13981 0.55810 0.88844
 N277 N 0.17104 0.55030 0.87032
 N278 N 0.18906 0.57640 0.85190
 C279 C 0.17701 0.61205 0.85019
 H280 H 0.05439 0.64803 0.91732
 H281 H 0.08633 0.69499 0.88187
 H282 H 0.12597 0.53550 0.90205
 H283 H 0.19238 0.63178 0.83413
 C284 C 1.08735 0.12067 0.37714
 C285 C 1.10502 0.13766 0.34784
 C286 C 1.12288 0.11651 0.32047
 C287 C 1.12033 0.07672 0.32202
 C288 C 1.10320 0.05958 0.35271
 C289 C 1.08681 0.08190 0.38040
 C290 C 1.10136 0.02037 0.35382
 N291 N 1.11430 -0.00024 0.32531
 N292 N 1.12832 0.01570 0.29554
 C293 C 1.13123 0.05326 0.29265
 H294 H 1.07417 0.13801 0.39773
 H295 H 1.10577 0.16784 0.34764
 H296 H 1.08914 0.00587 0.37669
 H297 H 1.14029 0.06409 0.26663
 C298 C 1.11144 -0.07461 0.62592
 C299 C 1.12854 -0.09115 0.65566
 C300 C 1.10897 -0.11158 0.68204
 C301 C 1.07047 -0.11217 0.67950
 C302 C 1.05321 -0.09581 0.64862
 C303 C 1.07411 -0.07753 0.62140
 C304 C 1.01523 -0.09663 0.64691
 N305 N 0.99583 -0.11170 0.67478
 N306 N 1.01176 -0.12536 0.70452
 C307 C 1.04817 -0.12560 0.70810
 H308 H 1.12766 -0.05997 0.60575
 H309 H 1.15770 -0.08940 0.65671
 H310 H 1.00064 -0.08467 0.62418
 H311 H 1.05892 -0.13461 0.73407
 C312 C 0.91053 -0.12706 0.38134
 C313 C 0.89271 -0.14522 0.35270
 C314 C 0.87687 -0.12510 0.32379
 C315 C 0.88268 -0.08572 0.32237
 C316 C 0.90008 -0.06727 0.35214
 C317 C 0.91336 -0.08822 0.38208
 C318 C 0.90512 -0.02839 0.35024
 N319 N 0.89484 -0.00955 0.31986
 N320 N 0.88044 -0.02700 0.29105
 C321 C 0.87454 -0.06432 0.29101
 H322 H 0.92145 -0.14344 0.40364
 H323 H 0.88968 -0.17519 0.35451
 H324 H 0.91789 -0.01285 0.37219
 H325 H 0.86522 -0.07685 0.26574
 C326 C 0.91712 0.12742 0.61713
 C327 C 0.89846 0.14742 0.64410
 C328 C 0.86088 0.14341 0.64871
 C329 C 0.84156 0.12207 0.62195
 C330 C 0.86084 0.10116 0.59487
 C331 C 0.89900 0.10301 0.59345
 C332 C 0.84115 0.08007 0.56907
 N333 N 0.80458 0.08093 0.56957
 N334 N 0.78643 0.10184 0.59375
 C335 C 0.80358 0.12273 0.61953
 H336 H 0.94628 0.12969 0.61590
 H337 H 0.91433 0.16390 0.66313
 H338 H 0.85441 0.06367 0.54790
 H339 H 0.78728 0.14080 0.63670
 C340 C 0.37268 1.11572 0.07125
 C341 C 0.34639 1.13533 0.09094
 C342 C 0.34467 1.13343 0.12944
 C343 C 0.37153 1.11311 0.14856
 C344 C 0.39817 1.09295 0.12844
 C345 C 0.39805 1.09361 0.08943
 C346 C 0.42463 1.07333 0.14815
 N347 N 0.42434 1.07407 0.18546
 N348 N 0.39960 1.09330 0.20435
 C349 C 0.37336 1.11296 0.18724
 H350 H 0.37243 1.11675 0.04145
 H351 H 0.32632 1.15091 0.07583
 H352 H 0.44586 1.05791 0.13431
 H353 H 0.35476 1.12888 0.20410
 C354 C 0.61904 1.11598 -0.09170
 C355 C 0.64761 1.13400 -0.10916
 C356 C 0.67642 1.11368 -0.12443
 C357 C 0.67691 1.07425 -0.12089
 C358 C 0.64760 1.05589 -0.10336
 C359 C 0.61836 1.07706 -0.08903
 C360 C 0.64910 1.01686 -0.09972
 N361 N 0.67812 0.99769 -0.11262
 N362 N 0.70585 1.01491 -0.12857
 C363 C 0.70638 1.05244 -0.13293
 H364 H 0.59707 1.13250 -0.08040
 H365 H 0.64696 1.16413 -0.11125
 H366 H 0.62775 1.00140 -0.08633
 H367 H 0.73020 1.06473 -0.14502
 C368 C 0.35807 0.92007 -0.10213
 C369 C 0.33101 0.90158 -0.12136
 C370 C 0.33813 0.86801 -0.13986
 C371 C 0.37366 0.85337 -0.13998
 C372 C 0.40156 0.87270 -0.12110
 C373 C 0.39339 0.90598 -0.10128
 C374 C 0.43694 0.85855 -0.12374
 N375 N 0.44351 0.82671 -0.14299
 N376 N 0.41723 0.80828 -0.16013
 C377 C 0.38260 0.82056 -0.15942
 H378 H 0.35121 0.94543 -0.08728
 H379 H 0.30399 0.91321 -0.12114
 H380 H 0.45957 0.87273 -0.11129
 H381 H 0.36256 0.80484 -0.17447
 C382 C 0.60316 0.87095 0.09858
 C383 C 0.63106 0.85332 0.11733
 C384 C 0.66324 0.87224 0.12531
 C385 C 0.66775 0.90952 0.11310
 C386 C 0.63914 0.92756 0.09445
 C387 C 0.60668 0.90801 0.08734
 C388 C 0.64426 0.96452 0.08269
 N389 N 0.67621 0.98187 0.08870
 N390 N 0.70341 0.96470 0.10540
 C391 C 0.70039 0.92915 0.11757
 H392 H 0.57860 0.85561 0.09283
 H393 H 0.62733 0.82473 0.12608
 H394 H 0.62331 0.97968 0.06852
 H395 H 0.72384 0.91654 0.12986
   
