data_POSCAR
  _audit_creation_date              2014-09-24
  _audit_creation_method            'ToBaCCo'
  _symmetry_space_group_name_H-M    'P1'
  _symmetry_Int_Tables_number       1
  _symmetry_cell_setting            triclinic
  loop_
  _symmetry_equiv_pos_as_xyz
 x,y,z
_cell_length_a 42.1129
_cell_length_b 42.1830
_cell_length_c 41.6236
_cell_angle_alpha 89.353400
_cell_angle_beta 89.989000
_cell_angle_gamma 90.709700
loop_
  _atom_site_label
  _atom_site_type_symbol
  _atom_site_fract_x
  _atom_site_fract_y
  _atom_site_fract_z
C1 C 0.17678 1.22642 0.21535
 C2 C 0.16376 1.25353 0.20091
 C3 C 0.17951 1.26979 0.17545
 C4 C 0.20951 1.25847 0.16580
 C5 C 0.22245 1.23104 0.17963
 C6 C 0.20601 1.21492 0.20444
 C7 C 0.16045 1.21021 0.24005
 C8 C 0.17296 1.18255 0.25446
 C9 C 0.20226 1.17127 0.24295
 C10 C 0.21853 1.18697 0.21790
 C11 C 0.24658 1.17444 0.20535
 C12 C 0.26300 1.19000 0.18010
 C13 C 0.25119 1.21897 0.16825
 H14 H 0.14032 1.26047 0.20853
 H15 H 0.22332 1.27097 0.14765
 H16 H 0.13850 1.22010 0.24876
 H17 H 0.21186 1.14932 0.25228
 H18 H 0.25484 1.15191 0.21457
 H19 H 0.26391 1.23187 0.14953
 C20 C 0.82183 0.77034 0.22936
 C21 C 0.83452 0.74353 0.21468
 C22 C 0.82320 0.73275 0.18461
 C23 C 0.79699 0.74870 0.17085
 C24 C 0.78351 0.77500 0.18576
 C25 C 0.79636 0.78620 0.21483
 C26 C 0.83487 0.78187 0.25806
 C27 C 0.82346 0.80981 0.27234
 C28 C 0.79754 0.82516 0.25749
 C29 C 0.78409 0.81363 0.22905
 C30 C 0.75914 0.82977 0.21404
 C31 C 0.74602 0.81850 0.18536
 C32 C 0.75806 0.79104 0.17139
 H33 H 0.85312 0.73108 0.22729
 H34 H 0.78789 0.74227 0.14751
 H35 H 0.85372 0.76854 0.26932
 H36 H 0.78873 0.84726 0.26669
 H37 H 0.74985 0.85115 0.22459
 H38 H 0.74811 0.78274 0.14893
 C39 C 0.81204 1.21922 -0.22848
 C40 C 0.82757 1.24442 -0.21301
 C41 C 0.81648 1.25573 -0.18337
 C42 C 0.78929 1.24144 -0.16948
 C43 C 0.77310 1.21674 -0.18504
 C44 C 0.78442 1.20574 -0.21475
 C45 C 0.82448 1.20661 -0.25685
 C46 C 0.80948 1.18074 -0.27250
 C47 C 0.78040 1.16930 -0.25940
 C48 C 0.76847 1.18086 -0.23042
 C49 C 0.74135 1.16699 -0.21630
 C50 C 0.73057 1.17691 -0.18610
 C51 C 0.74636 1.20217 -0.17084
 H52 H 0.84827 1.25528 -0.22423
 H53 H 0.78098 1.24907 -0.14622
 H54 H 0.84703 1.21608 -0.26508
 H55 H 0.76654 1.15127 -0.27142
 H56 H 0.72908 1.14782 -0.22844
 H57 H 0.73852 1.20978 -0.14738
 C58 C 0.18830 0.78193 -0.22532
 C59 C 0.17310 0.75410 -0.21425
 C60 C 0.18318 0.73830 -0.18589
 C61 C 0.21031 0.75065 -0.16996
 C62 C 0.22602 0.77816 -0.18111
 C63 C 0.21475 0.79410 -0.20862
 C64 C 0.17677 0.79830 -0.25237
 C65 C 0.19105 0.82698 -0.26269
 C66 C 0.21768 0.83874 -0.24605
 C67 C 0.22953 0.82258 -0.21907
 C68 C 0.25535 0.83499 -0.20181
 C69 C 0.26692 0.81923 -0.17429
 C70 C 0.25223 0.79057 -0.16439
 H71 H 0.15367 0.74477 -0.22840
 H72 H 0.21842 0.74035 -0.14757
 H73 H 0.15584 0.78937 -0.26463
 H74 H 0.22907 0.86064 -0.25399
 H75 H 0.26578 0.85747 -0.20934
 H76 H 0.26110 0.77790 -0.14353
 C77 C 0.55739 1.01216 -0.02014
 H78 H 0.56585 0.99142 -0.00749
 C79 C 0.57778 1.02863 -0.04097
 H80 H 0.60200 1.02071 -0.04351
 C81 C 0.51576 1.04770 -0.03192
 H82 H 0.49156 1.05504 -0.02838
 C83 C 0.53541 1.06492 -0.05304
 H84 H 0.52599 1.08526 -0.06577
 N85 N 0.52710 1.02205 -0.01570
 C86 C 0.48107 1.03479 0.06846
 H87 H 0.50115 1.02487 0.08089
 C88 C 0.46104 1.05530 0.08482
 H89 H 0.46677 1.06141 0.10933
 C90 C 0.44969 1.03931 0.02155
 H91 H 0.44510 1.03266 -0.00305
 C92 C 0.42857 1.05910 0.03722
 H93 H 0.40774 1.06696 0.02434
 Zn94 Zn 0.50126 0.99899 0.01397
 N95 N 0.47527 1.02738 0.03726
 C96 C 0.55064 0.99153 0.05899
 N97 N 0.52829 0.97566 0.04170
 C98 C 0.52702 0.94343 0.04170
 C99 C 0.54930 0.92589 0.05901
 C100 C 0.57290 0.97496 0.07720
 C101 C 0.48491 0.95823 -0.03698
 C102 C 0.46496 0.93839 -0.05481
 C103 C 0.42448 0.94420 -0.01425
 C104 C 0.44538 0.96341 0.00303
 N105 N 0.47469 0.97060 -0.00885
 H106 H 0.55174 1.01715 0.05793
 H107 H 0.50942 0.93124 0.02735
 H108 H 0.54862 0.90031 0.05738
 H109 H 0.59016 0.98826 0.09101
 H110 H 0.50851 0.96395 -0.04569
 H111 H 0.47370 0.92863 -0.07701
 H112 H 0.40080 0.94009 -0.00487
 H113 H 0.43794 0.97314 0.02571
 C114 C 0.43409 1.06761 0.06934
 C115 C 0.56693 1.05549 -0.05766
 C116 C 0.43402 0.93150 -0.04377
 C117 C 0.57294 0.94162 0.07688
 C118 C -0.01377 0.55303 1.03100
 H119 H 0.01125 0.55670 1.02611
 C120 C -0.02994 0.57447 1.05014
 H121 H -0.01709 0.59478 1.05938
 C122 C -0.06092 0.52296 1.02319
 H123 H -0.07311 0.50319 1.01230
 C124 C -0.07790 0.54347 1.04272
 H125 H -0.10280 0.53854 1.04715
 N126 N -0.02933 0.52783 1.01800
 C127 C 0.02852 0.48237 1.04763
 H128 H 0.01888 0.50340 1.05828
 C129 C 0.04793 0.46256 1.06599
 H130 H 0.05339 0.46894 1.09051
 C131 C 0.03340 0.44874 1.00275
 H132 H 0.02739 0.44340 0.97812
 C133 C 0.05261 0.42814 1.02029
 H134 H 0.06087 0.40679 1.00897
 Zn135 Zn -0.00538 0.50077 0.99130
 N136 N 0.02177 0.47522 1.01657
 C137 C 0.04931 0.51872 0.95511
 N138 N 0.01905 0.52652 0.96283
 C139 C 0.00581 0.55362 0.95142
 C140 C 0.02350 0.57468 0.93226
 C141 C 0.06769 0.53883 0.93550
 C142 C -0.05009 0.45132 0.98375
 C143 C -0.06838 0.42919 0.96696
 C144 C -0.04828 0.45169 0.91719
 C145 C -0.03096 0.47389 0.93490
 N146 N -0.03209 0.47325 0.96758
 H147 H 0.05935 0.49700 0.96429
 H148 H -0.01831 0.55929 0.95794
 H149 H 0.01279 0.59673 0.92472
 H150 H 0.09160 0.53193 0.92943
 H151 H -0.04980 0.45070 1.00973
 H152 H -0.08245 0.41169 0.98006
 H153 H -0.04682 0.45202 0.89121
 H154 H -0.01602 0.49111 0.92255
 C155 C 0.06016 0.43490 1.05240
 C156 C -0.06248 0.56980 1.05646
 C157 C -0.06722 0.42907 0.93332
 C158 C 0.05504 0.56757 0.92418
 C159 C 1.03031 -0.01275 0.56055
 H160 H 1.01398 0.00420 0.57017
 C161 C 1.05148 -0.02779 0.58126
 H162 H 1.05041 -0.02283 0.60670
 C163 C 1.05167 -0.03960 0.51597
 H164 H 1.05171 -0.04384 0.49039
 C165 C 1.07327 -0.05530 0.53590
 H166 H 1.08994 -0.07160 0.52547
 N167 N 1.03012 -0.01947 0.52867
 C168 C 1.01626 0.02100 0.43832
 H169 H 0.99905 0.00362 0.43041
 C170 C 1.03249 0.03943 0.41549
 H171 H 1.02750 0.03616 0.39021
 C172 C 1.04442 0.04600 0.48055
 H173 H 1.04881 0.04839 0.50602
 C174 C 1.06166 0.06455 0.45844
 H175 H 1.07927 0.08138 0.46695
 Zn176 Zn 0.99984 0.00010 0.50124
 N177 N 1.02213 0.02485 0.47019
 C178 C 0.96958 0.05742 0.51887
 N179 N 0.97249 0.02593 0.52539
 C180 C 0.95508 0.01151 0.54896
 C181 C 0.93501 0.02914 0.56826
 C182 C 0.94909 0.07587 0.53709
 C183 C 0.97984 -0.06208 0.48191
 C184 C 0.96151 -0.08332 0.46399
 C185 C 0.92995 -0.03942 0.44523
 C186 C 0.94893 -0.01905 0.46335
 N187 N 0.97388 -0.03046 0.48049
 H188 H 0.98298 0.06824 0.49941
 H189 H 0.95749 -0.01369 0.55328
 H190 H 0.92279 0.01718 0.58788
 H191 H 0.94682 0.10077 0.53110
 H192 H 0.99913 -0.07090 0.49639
 H193 H 0.96699 -0.10834 0.46477
 H194 H 0.91109 -0.02962 0.43065
 H195 H 0.94447 0.00616 0.46294
 C196 C 1.05548 0.06150 0.42550
 C197 C 1.07309 -0.04971 0.56910
 C198 C 0.93655 -0.07194 0.44488
 C199 C 0.93170 0.06188 0.56256
 C200 C 0.13293 0.34408 1.12515
 C201 C 0.12512 0.33785 1.15735
 C202 C 0.14134 0.31408 1.17426
 C203 C 0.16495 0.29574 1.15913
 C204 C 0.17265 0.30314 1.12668
 C205 C 0.15684 0.32714 1.10976
 C206 C 0.11523 0.36834 1.10697
 C207 C 0.12276 0.37423 1.07459
 C208 C 0.10529 0.39664 1.05714
 C209 C 0.07999 0.41277 1.07167
 C210 C 0.07307 0.40681 1.10436
 C211 C 0.09067 0.38468 1.12212
 C212 C 0.16395 0.33396 1.07739
 C213 C 0.14728 0.35718 1.06014
 C214 C 0.10086 0.35522 1.17194
 C215 C 0.08384 0.37814 1.15459
 H216 H 0.18241 0.32106 1.06520
 H217 H 0.15337 0.36153 1.03517
 H218 H 0.09464 0.35072 1.19685
 H219 H 0.06502 0.39065 1.16662
 H220 H 0.13569 0.31055 1.19941
 H221 H 0.18957 0.28921 1.11354
 H222 H 0.11129 0.40140 1.03222
 H223 H 0.05345 0.41866 1.11577
 C224 C -0.12977 0.66049 1.13307
 C225 C -0.16160 0.66700 1.12617
 C226 C -0.17741 0.69005 1.14396
 C227 C -0.16148 0.70760 1.16815
 C228 C -0.12930 0.70013 1.17462
 C229 C -0.11358 0.67661 1.15744
 C230 C -0.11287 0.63666 1.11405
 C231 C -0.08100 0.63015 1.12103
 C232 C -0.06493 0.60778 1.10266
 C233 C -0.08020 0.59247 1.07683
 C234 C -0.11230 0.59937 1.07027
 C235 C -0.12878 0.62121 1.08896
 C236 C -0.08167 0.66938 1.16379
 C237 C -0.06573 0.64640 1.14603
 C238 C -0.17695 0.65055 1.10129
 C239 C -0.16077 0.62821 1.08287
 H240 H -0.06887 0.68165 1.18261
 H241 H -0.04112 0.64160 1.15168
 H242 H -0.20158 0.65530 1.09570
 H243 H -0.17339 0.61637 1.06366
 H244 H -0.20234 0.69353 1.13906
 H245 H -0.11545 0.71350 1.19175
 H246 H -0.04053 0.60232 1.10856
 H247 H -0.12433 0.58831 1.05023
 C248 C -0.13403 0.33098 0.86532
 C249 C -0.16719 0.32846 0.86794
 C250 C -0.18328 0.30421 0.85158
 C251 C -0.16639 0.28198 0.83333
 C252 C -0.13301 0.28483 0.83133
 C253 C -0.11679 0.30946 0.84693
 C254 C -0.11700 0.35652 0.88235
 C255 C -0.08387 0.35935 0.87927
 C256 C -0.06780 0.38368 0.89548
 C257 C -0.08458 0.40449 0.91524
 C258 C -0.11772 0.40124 0.91832
 C259 C -0.13415 0.37747 0.90157
 C260 C -0.08363 0.31293 0.84460
 C261 C -0.06747 0.33758 0.86033
 C262 C -0.18358 0.35017 0.88699
 C263 C -0.16732 0.37413 0.90370
 H264 H -0.07006 0.29650 0.83043
 H265 H -0.04190 0.33945 0.85785
 H266 H -0.20918 0.34846 0.88924
 H267 H -0.18084 0.39019 0.91835
 H268 H -0.20894 0.30282 0.85295
 H269 H -0.11950 0.26766 0.81805
 H270 H -0.04221 0.38606 0.89339
 H271 H -0.13060 0.41737 0.93352
 C272 C 0.13031 0.66184 0.85603
 C273 C 0.11552 0.68223 0.83403
 C274 C 0.13318 0.70705 0.81978
 C275 C 0.16586 0.71173 0.82700
 C276 C 0.18031 0.68986 0.84847
 C277 C 0.16262 0.66539 0.86332
 C278 C 0.11141 0.63671 0.87230
 C279 C 0.12598 0.61704 0.89521
 C280 C 0.10759 0.59417 0.91170
 C281 C 0.07485 0.59056 0.90518
 C282 C 0.06093 0.60998 0.88134
 C283 C 0.07899 0.63333 0.86518
 C284 C 0.17658 0.64468 0.88577
 C285 C 0.15853 0.62105 0.90159
 C286 C 0.08305 0.67791 0.82728
 C287 C 0.06514 0.65377 0.84244
 H288 H 0.20157 0.64709 0.89159
 H289 H 0.17012 0.60594 0.91912
 H290 H 0.07130 0.69347 0.81027
 H291 H 0.04014 0.65142 0.83669
 H292 H 0.12053 0.72355 0.80457
 H293 H 0.20547 0.69117 0.85351
 H294 H 0.11865 0.57991 0.93027
 H295 H 0.03600 0.60714 0.87549
 C296 C 1.12325 0.13325 0.32859
 C297 C 1.15654 0.13294 0.32819
 C298 C 1.17291 0.14917 0.30355
 C299 C 1.15633 0.16626 0.27947
 C300 C 1.12272 0.16649 0.28083
 C301 C 1.10618 0.14983 0.30503
 C302 C 1.10592 0.11560 0.35402
 C303 C 1.07257 0.11506 0.35377
 C304 C 1.05621 0.09751 0.37744
 C305 C 1.07297 0.08098 0.40146
 C306 C 1.10638 0.08227 0.40179
 C307 C 1.12301 0.09929 0.37786
 C308 C 1.07281 0.14908 0.30583
 C309 C 1.05629 0.13188 0.32971
 C310 C 1.17284 0.11641 0.35250
 C311 C 1.15636 0.09998 0.37698
 H312 H 1.05933 0.16172 0.28770
 H313 H 1.03056 0.13171 0.32930
 H314 H 1.19856 0.11611 0.35256
 H315 H 1.16984 0.08748 0.39520
 H316 H 1.19862 0.14938 0.30406
 H317 H 1.10911 0.17823 0.26222
 H318 H 1.03046 0.09672 0.37729
 H319 H 1.11932 0.06931 0.42011
 C320 C 1.14680 -0.11953 0.66172
 C321 C 1.14971 -0.15248 0.65863
 C322 C 1.16496 -0.16983 0.68298
 C323 C 1.17698 -0.15446 0.71040
 C324 C 1.17423 -0.12129 0.71279
 C325 C 1.15915 -0.10374 0.68856
 C326 C 1.12969 -0.10134 0.63685
 C327 C 1.12605 -0.06853 0.64043
 C328 C 1.10857 -0.05157 0.61750
 C329 C 1.09440 -0.06721 0.59131
 C330 C 1.09900 -0.10003 0.58764
 C331 C 1.11653 -0.11723 0.61045
 C332 C 1.15554 -0.07079 0.69098
 C333 C 1.13930 -0.05347 0.66730
 C334 C 1.13678 -0.16747 0.63154
 C335 C 1.12045 -0.15015 0.60787
 H336 H 1.16503 -0.05832 0.71155
 H337 H 1.13671 -0.02815 0.67029
 H338 H 1.13894 -0.19286 0.62881
 H339 H 1.11046 -0.16270 0.58760
 H340 H 1.16727 -0.19527 0.68072
 H341 H 1.18288 -0.10926 0.73399
 H342 H 1.10556 -0.02626 0.62028
 H343 H 1.08791 -0.11236 0.56780
 C344 C 0.86964 -0.14654 0.35126
 C345 C 0.88675 -0.16686 0.33146
 C346 C 0.87117 -0.18208 0.30605
 C347 C 0.83849 -0.17698 0.29987
 C348 C 0.82166 -0.15714 0.32105
 C349 C 0.83711 -0.14175 0.34643
 C350 C 0.88632 -0.12915 0.37690
 C351 C 0.86938 -0.10799 0.39603
 C352 C 0.88569 -0.09019 0.41917
 C353 C 0.91874 -0.09333 0.42309
 C354 C 0.93518 -0.11538 0.40434
 C355 C 0.91911 -0.13320 0.38106
 C356 C 0.82074 -0.12110 0.36670
 C357 C 0.83662 -0.10446 0.39104
 C358 C 0.91944 -0.17080 0.33679
 C359 C 0.93534 -0.15427 0.36118
 H360 H 0.79556 -0.11731 0.36334
 H361 H 0.82323 -0.08832 0.40573
 H362 H 0.93295 -0.18645 0.32168
 H363 H 0.96064 -0.15764 0.36417
 H364 H 0.88534 -0.19614 0.29003
 H365 H 0.79635 -0.15382 0.31834
 H366 H 0.87282 -0.07351 0.43373
 H367 H 0.96067 -0.11764 0.40688
 C368 C 0.85641 0.13325 0.65159
 C369 C 0.83147 0.11796 0.66801
 C370 C 0.81570 0.13391 0.69254
 C371 C 0.82399 0.16559 0.70070
 C372 C 0.84835 0.18084 0.68238
 C373 C 0.86499 0.16462 0.65853
 C374 C 0.87450 0.11573 0.62731
 C375 C 0.90058 0.13046 0.61208
 C376 C 0.91889 0.11303 0.59050
 C377 C 0.91093 0.08119 0.58361
 C378 C 0.88373 0.06740 0.59817
 C379 C 0.86589 0.08430 0.62048
 C380 C 0.89057 0.17898 0.64194
 C381 C 0.90824 0.16210 0.61933
 C382 C 0.82333 0.08654 0.66026
 C383 C 0.84006 0.07009 0.63670
 H384 H 0.89746 0.20325 0.64698
 H385 H 0.92820 0.17385 0.60762
 H386 H 0.80399 0.07446 0.67269
 H387 H 0.83315 0.04583 0.63163
 H388 H 0.79832 0.12040 0.70619
 H389 H 0.85462 0.20544 0.68608
 H390 H 0.93988 0.12402 0.57998
 H391 H 0.87657 0.04335 0.59257
 C392 C 0.34060 1.14273 0.13439
 C393 C 0.33574 1.13848 0.16752
 C394 C 0.31140 1.15513 0.18268
 C395 C 0.29106 1.17498 0.16473
 C396 C 0.29660 1.17896 0.13144
 C397 C 0.32151 1.16327 0.11630
 C398 C 0.36560 1.12467 0.11815
 C399 C 0.37050 1.12905 0.08506
 C400 C 0.39380 1.11135 0.06958
 C401 C 0.41135 1.08833 0.08661
 C402 C 0.40614 1.08449 0.11998
 C403 C 0.38357 1.10284 0.13588
 C404 C 0.32727 1.16718 0.08323
 C405 C 0.35155 1.15058 0.06793
 C406 C 0.35486 1.11709 0.18467
 C407 C 0.37818 1.09938 0.16908
 H408 H 0.31278 1.18310 0.06902
 H409 H 0.35510 1.15418 0.04236
 H410 H 0.35137 1.11356 0.21026
 H411 H 0.39200 1.08272 0.18310
 H412 H 0.30812 1.15222 0.20835
 H413 H 0.28095 1.19341 0.11693
 H414 H 0.39795 1.11540 0.04418
 H415 H 0.41888 1.06666 0.13352
 C416 C 0.65706 1.12566 -0.13557
 C417 C 0.65782 1.15892 -0.13439
 C418 C 0.68142 1.17573 -0.15155
 C419 C 0.70428 1.15944 -0.16957
 C420 C 0.70285 1.12606 -0.17067
 C421 C 0.67932 1.10908 -0.15377
 C422 C 0.63295 1.10781 -0.11681
 C423 C 0.63265 1.07454 -0.11753
 C424 C 0.61039 1.05763 -0.09886
 C425 C 0.58873 1.07370 -0.07924
 C426 C 0.58898 1.10713 -0.07928
 C427 C 0.61113 1.12431 -0.09798
 C428 C 0.67797 1.07580 -0.15423
 C429 C 0.65499 1.05881 -0.13646
 C430 C 0.63527 1.17463 -0.11567
 C431 C 0.61234 1.15762 -0.09775
 H432 H 0.69500 1.06275 -0.16824
 H433 H 0.65496 1.03315 -0.13724
 H434 H 0.63555 1.20028 -0.11458
 H435 H 0.59561 1.17065 -0.08336
 H436 H 0.68210 1.20140 -0.15078
 H437 H 0.72063 1.11321 -0.18391
 H438 H 0.61008 1.03194 -0.09940
 H439 H 0.57267 1.11973 -0.06401
 C440 C 0.34145 0.86278 -0.11894
 C441 C 0.34200 0.86560 -0.15257
 C442 C 0.31819 0.85052 -0.17060
 C443 C 0.29340 0.83339 -0.15522
 C444 C 0.29342 0.83077 -0.12138
 C445 C 0.31749 0.84518 -0.10318
 C446 C 0.36604 0.87913 -0.09982
 C447 C 0.36543 0.87636 -0.06620
 C448 C 0.38840 0.89254 -0.04809
 C449 C 0.41141 0.91218 -0.06327
 C450 C 0.41177 0.91435 -0.09714
 C451 C 0.38929 0.89773 -0.11550
 C452 C 0.31780 0.84277 -0.06949
 C453 C 0.34147 0.85794 -0.05132
 C454 C 0.36608 0.88386 -0.16745
 C455 C 0.38921 0.89980 -0.14923
 H456 H 0.29951 0.82916 -0.05703
 H457 H 0.34074 0.85561 -0.02538
 H458 H 0.36679 0.88622 -0.19339
 H459 H 0.40708 0.91400 -0.16164
 H460 H 0.31891 0.85230 -0.19657
 H461 H 0.27430 0.81826 -0.10905
 H462 H 0.38814 0.88999 -0.02217
 H463 H 0.42889 0.92969 -0.10925
 C464 C 0.67214 0.87072 0.13968
 C465 C 0.70263 0.88433 0.14235
 C466 C 0.72667 0.86709 0.15757
 C467 C 0.72050 0.83628 0.16936
 C468 C 0.69002 0.82272 0.16616
 C469 C 0.66555 0.84005 0.15163
 C470 C 0.64665 0.88893 0.12406
 C471 C 0.61602 0.87564 0.12192
 C472 C 0.59183 0.89316 0.10714
 C473 C 0.59826 0.92351 0.09383
 C474 C 0.62934 0.93622 0.09605
 C475 C 0.65347 0.91924 0.11143
 C476 C 0.63463 0.82747 0.14891
 C477 C 0.61024 0.84503 0.13448
 C478 C 0.70846 0.91484 0.12966
 C479 C 0.68434 0.93192 0.11428
 H480 H 0.62921 0.80389 0.15811
 H481 H 0.58672 0.83447 0.13295
 H482 H 0.73190 0.92555 0.13150
 H483 H 0.68987 0.95532 0.10465
 H484 H 0.75027 0.87738 0.15999
 H485 H 0.68535 0.79900 0.17544
 H486 H 0.56805 0.88316 0.10616
 H487 H 0.63504 0.95911 0.08534
   
