data_POSCAR
  _audit_creation_date              2014-09-24
  _audit_creation_method            'ToBaCCo'
  _symmetry_space_group_name_H-M    'P1'
  _symmetry_Int_Tables_number       1
  _symmetry_cell_setting            triclinic
  loop_
  _symmetry_equiv_pos_as_xyz
 x,y,z
_cell_length_a 45.6631
_cell_length_b 33.2295
_cell_length_c 21.6312
_cell_angle_alpha 89.468500
_cell_angle_beta 90.557900
_cell_angle_gamma 89.770800
loop_
  _atom_site_label
  _atom_site_type_symbol
  _atom_site_fract_x
  _atom_site_fract_y
  _atom_site_fract_z
C1 C 0.67569 0.29467 0.52643
 C2 C 0.69671 0.29332 0.57442
 C3 C 0.72507 0.27954 0.56125
 C4 C 0.73169 0.26338 0.50292
 C5 C 0.71022 0.26546 0.45565
 C6 C 0.68280 0.28292 0.46623
 C7 C 0.76014 0.24222 0.49240
 C8 C 0.77246 0.24071 0.43285
 C9 C 0.79631 0.21528 0.42074
 C10 C 0.80992 0.19470 0.47045
 C11 C 0.79897 0.19727 0.53056
 C12 C 0.77395 0.22060 0.54106
 H13 H 0.65405 0.30640 0.53520
 H14 H 0.74160 0.27985 0.59748
 H15 H 0.71460 0.25356 0.41027
 H16 H 0.76268 0.25776 0.39502
 H17 H 0.82998 0.17812 0.46296
 H18 H 0.76485 0.22062 0.58707
 C19 C 0.18505 0.80857 0.52517
 C20 C 0.20249 0.80000 0.57769
 C21 C 0.23043 0.78287 0.56957
 C22 C 0.24121 0.77463 0.50988
 C23 C 0.22356 0.78552 0.45836
 C24 C 0.19531 0.80118 0.46544
 C25 C 0.27053 0.75473 0.50051
 C26 C 0.27633 0.73414 0.44510
 C27 C 0.30409 0.71850 0.43318
 C28 C 0.32586 0.71977 0.47900
 C29 C 0.32027 0.73691 0.53712
 C30 C 0.29288 0.75563 0.54629
 H31 H 0.16440 0.82397 0.53058
 H32 H 0.24311 0.77493 0.61035
 H33 H 0.23164 0.78235 0.41186
 H34 H 0.25951 0.73019 0.41022
 H35 H 0.34636 0.70507 0.46914
 H36 H 0.28927 0.77088 0.58949
 C37 C 0.32284 0.28921 -0.53085
 C38 C 0.30117 0.28667 -0.57679
 C39 C 0.27440 0.26858 -0.56310
 C40 C 0.26963 0.25046 -0.50483
 C41 C 0.29170 0.25367 -0.45892
 C42 C 0.31768 0.27479 -0.47072
 C43 C 0.24106 0.23030 -0.49180
 C44 C 0.22914 0.22992 -0.43183
 C45 C 0.20098 0.21458 -0.42101
 C46 C 0.18456 0.19982 -0.47124
 C47 C 0.19660 0.19802 -0.53036
 C48 C 0.22495 0.21236 -0.54012
 H49 H 0.34331 0.30380 -0.54183
 H50 H 0.25737 0.26886 -0.59826
 H51 H 0.28861 0.24075 -0.41338
 H52 H 0.24109 0.24297 -0.39357
 H53 H 0.16326 0.18651 -0.46401
 H54 H 0.23417 0.20986 -0.58586
 C55 C -0.16851 0.77272 -0.51323
 C56 C -0.18185 0.75770 -0.56727
 C57 C -0.20647 0.73262 -0.56129
 C58 C -0.21959 0.72605 -0.50311
 C59 C -0.20627 0.74311 -0.45040
 C60 C -0.18064 0.76569 -0.45490
 C61 C -0.24800 0.70385 -0.49699
 C62 C -0.25546 0.68529 -0.44030
 C63 C -0.28368 0.67059 -0.43054
 C64 C -0.30390 0.67040 -0.47948
 C65 C -0.29612 0.68466 -0.53838
 C66 C -0.26870 0.70300 -0.54604
 H67 H -0.14796 0.78862 -0.51600
 H68 H -0.21594 0.71956 -0.60249
 H69 H -0.21613 0.74016 -0.40535
 H70 H -0.23984 0.68341 -0.40245
 H71 H -0.32565 0.65879 -0.47128
 H72 H -0.26387 0.71672 -0.59028
 N73 N 0.04083 0.96877 -0.07973
 N74 N 0.06379 0.95933 -0.11357
 N75 N -0.02390 0.93765 -0.07496
 N76 N -0.04355 0.91217 -0.09713
 N77 N -0.01835 0.96597 -0.11598
 N78 N -0.03405 0.96086 -0.16654
 N79 N 0.03547 0.93986 -0.03946
 N80 N 0.05453 0.91021 -0.04523
 C81 C 0.07246 0.92311 -0.09051
 C82 C -0.04960 0.92738 -0.15439
 N83 N -0.04609 0.96525 0.09454
 N84 N -0.07016 0.95743 0.12522
 N85 N 0.01927 0.93986 0.08922
 N86 N 0.03818 0.91376 0.11352
 N87 N 0.01322 0.96824 0.12905
 N88 N 0.02744 0.96204 0.18155
 N89 N -0.04033 0.93643 0.05532
 N90 N -0.06012 0.90746 0.05976
 Mn91 Mn -0.00246 0.93794 0.00744
 C92 C -0.07883 0.92162 0.10294
 C93 C 0.04318 0.92839 0.17098
 N94 N -0.02168 1.05203 -0.11793
 N95 N -0.03903 1.05452 -0.16700
 N96 N 0.03031 1.08465 -0.04227
 N97 N 0.04824 1.11553 -0.04673
 N98 N 0.03773 1.05626 -0.08108
 N99 N 0.06109 1.06711 -0.11261
 N100 N -0.02878 1.07951 -0.07745
 N101 N -0.05099 1.10161 -0.09797
 Mn102 Mn 0.00988 1.01079 -0.09912
 C103 C -0.05709 1.08566 -0.15390
 C104 C 0.06768 1.10382 -0.08970
 N105 N 0.01072 1.05507 0.12651
 N106 N 0.02713 1.06207 0.17587
 N107 N -0.04541 1.07934 0.05094
 N108 N -0.06871 1.10314 0.04808
 N109 N -0.04908 1.05064 0.09209
 N110 N -0.07514 1.05326 0.11717
 N111 N 0.01379 1.08395 0.08531
 N112 N 0.03201 1.11164 0.10559
 Mn113 Mn -0.01774 1.00986 0.11110
 Mn114 Mn -0.00763 1.08226 0.00404
 Cl115 Cl -0.00440 1.01010 0.00585
 C116 C 0.04030 1.09743 0.16183
 C117 C -0.08710 1.08601 0.08946
 N118 N 0.49080 0.55088 -0.12759
 N119 N 0.47922 0.55898 -0.18241
 N120 N 0.54100 0.57472 -0.03880
 N121 N 0.56133 0.60297 -0.03962
 N122 N 0.54773 0.54585 -0.07729
 N123 N 0.57292 0.55331 -0.10422
 N124 N 0.48386 0.57897 -0.08791
 N125 N 0.46715 0.60682 -0.11462
 C126 C 0.46437 0.59370 -0.17352
 C127 C 0.58143 0.58862 -0.07953
 N128 N 0.50784 0.54624 0.12357
 N129 N 0.52204 0.54802 0.17676
 N130 N 0.46019 0.57954 0.03556
 N131 N 0.44265 0.61119 0.03863
 N132 N 0.45104 0.55076 0.07264
 N133 N 0.42704 0.56204 0.10129
 N134 N 0.51728 0.57405 0.08517
 N135 N 0.53826 0.59556 0.11140
 Mn136 Mn 0.50062 0.57726 -0.00144
 C137 C 0.54078 0.57889 0.16872
 C138 C 0.42171 0.59944 0.07869
 N139 N 0.54498 0.45969 -0.07870
 N140 N 0.56947 0.44887 -0.10600
 N141 N 0.47952 0.43574 -0.09031
 N142 N 0.46081 0.41121 -0.11760
 N143 N 0.48793 0.46408 -0.12885
 N144 N 0.47521 0.45969 -0.18334
 N145 N 0.53638 0.43146 -0.04013
 N146 N 0.55462 0.40053 -0.04094
 Mn147 Mn 0.51791 0.50513 -0.10356
 C148 C 0.57551 0.41225 -0.08108
 C149 C 0.45834 0.42673 -0.17559
 N150 N 0.44826 0.46387 0.07139
 N151 N 0.42383 0.45423 0.10009
 N152 N 0.51254 0.43202 0.08323
 N153 N 0.53080 0.40598 0.10992
 N154 N 0.50497 0.46010 0.12233
 N155 N 0.51771 0.45406 0.17646
 N156 N 0.45561 0.43545 0.03254
 N157 N 0.43639 0.40591 0.03405
 Mn158 Mn 0.47786 0.50528 0.09775
 Mn159 Mn 0.49604 0.43329 -0.00364
 Cl160 Cl 0.49806 0.50526 -0.00277
 C161 C 0.41636 0.41843 0.07526
 C162 C 0.53370 0.42035 0.16817
 C163 C 0.30575 0.30578 0.36234
 C164 C 0.33180 0.30028 0.33063
 C165 C 0.34012 0.32562 0.27777
 N166 N 0.36206 0.31353 0.24038
 N167 N 0.37211 0.33794 0.19635
 C168 C 0.36080 0.37553 0.18850
 N169 N 0.33874 0.38758 0.22573
 N170 N 0.32846 0.36297 0.26937
 C171 C 0.37457 0.40435 0.14590
 C172 C 0.39404 0.39160 0.10096
 H173 H 0.34732 0.27773 0.34696
 H174 H 0.37168 0.43621 0.15421
 H175 H 0.28862 0.32478 0.34280
 H176 H 0.39532 0.35997 0.08956
 C177 C -0.17144 0.76796 0.37342
 C178 C -0.15524 0.80296 0.36268
 C179 C -0.14494 0.81624 0.30176
 N180 N -0.14159 0.85618 0.29137
 N181 N -0.12973 0.86958 0.23931
 C182 C -0.12035 0.84362 0.19559
 N183 N -0.12371 0.80345 0.20581
 N184 N -0.13598 0.78996 0.25788
 C185 C -0.10399 0.85911 0.14180
 C186 C -0.10388 0.90037 0.12951
 H187 H -0.15240 0.82453 0.39939
 H188 H -0.08894 0.83934 0.11826
 H189 H -0.17873 0.75085 0.33375
 H190 H -0.11951 0.91925 0.15316
 C191 C 0.68357 0.68070 0.40800
 C192 C 0.66339 0.64929 0.40489
 C193 C 0.64268 0.64313 0.35345
 N194 N 0.62361 0.61211 0.35722
 N195 N 0.60447 0.60535 0.31187
 C196 C 0.60358 0.62930 0.26072
 N197 N 0.62273 0.66042 0.25671
 N198 N 0.64194 0.66728 0.30235
 C199 C 0.58233 0.62125 0.21050
 C200 C 0.56180 0.59057 0.21694
 H201 H 0.66285 0.62705 0.44171
 H202 H 0.58294 0.63913 0.16842
 H203 H 0.68570 0.70114 0.36903
 H204 H 0.56118 0.57328 0.25958
 C205 C 0.18006 1.17920 0.41871
 C206 C 0.15022 1.18651 0.41042
 C207 C 0.13234 1.16440 0.36558
 N208 N 0.10705 1.18091 0.34366
 N209 N 0.08987 1.16052 0.30509
 C210 C 0.09710 1.12259 0.28789
 N211 N 0.12224 1.10586 0.31036
 N212 N 0.13965 1.12649 0.34830
 C213 C 0.07784 1.09973 0.24647
 C214 C 0.05999 1.11933 0.20327
 H215 H 0.13962 1.20951 0.43754
 H216 H 0.07871 1.06715 0.24785
 H217 H 0.19158 1.16006 0.38668
 H218 H 0.06166 1.15163 0.19718
 C219 C 0.69016 0.30663 -0.36572
 C220 C 0.66166 0.30731 -0.34285
 C221 C 0.65365 0.32778 -0.28568
 N222 N 0.62922 0.31621 -0.25530
 N223 N 0.61929 0.33749 -0.20803
 C224 C 0.63322 0.37146 -0.18986
 N225 N 0.65779 0.38295 -0.22002
 N226 N 0.66796 0.36134 -0.26688
 C227 C 0.61964 0.39824 -0.14457
 C228 C 0.59757 0.38467 -0.10575
 H229 H 0.64431 0.29164 -0.36699
 H230 H 0.62467 0.43005 -0.14688
 H231 H 0.70794 0.31464 -0.33466
 H232 H 0.59422 0.35266 -0.09925
 C233 C 0.19311 0.81049 -0.36271
 C234 C 0.16356 0.81555 -0.34813
 C235 C 0.15352 0.83693 -0.29315
 N236 N 0.12744 0.82700 -0.26784
 N237 N 0.11582 0.84950 -0.22369
 C238 C 0.12954 0.88328 -0.20401
 N239 N 0.15566 0.89328 -0.22932
 N240 N 0.16754 0.87038 -0.27287
 C241 C 0.11482 0.91068 -0.16105
 C242 C 0.09376 0.89653 -0.12028
 H243 H 0.14677 0.80362 -0.37844
 H244 H 0.11928 0.94262 -0.16418
 H245 H 0.20926 0.81399 -0.32610
 H246 H 0.09144 0.86440 -0.11300
 C247 C 0.34022 0.73356 -0.41264
 C248 C 0.36825 0.71649 -0.41662
 C249 C 0.38503 0.70160 -0.36262
 N250 N 0.40916 0.67863 -0.37210
 N251 N 0.42362 0.66188 -0.32472
 C252 C 0.41458 0.66751 -0.26584
 N253 N 0.39072 0.69109 -0.25609
 N254 N 0.37608 0.70767 -0.30367
 C255 C 0.42993 0.64752 -0.21367
 C256 C 0.44867 0.61502 -0.22359
 H257 H 0.37804 0.71065 -0.46084
 H258 H 0.42553 0.65724 -0.16701
 H259 H 0.33282 0.74256 -0.36733
 H260 H 0.45154 0.60385 -0.27003
 C261 C -0.18595 1.17676 -0.41696
 C262 C -0.16975 1.14147 -0.42459
 C263 C -0.14996 1.12499 -0.37665
 N264 N -0.14533 1.14430 -0.32238
 N265 N -0.12577 1.13019 -0.28139
 C266 C -0.11010 1.09633 -0.29328
 N267 N -0.11493 1.07692 -0.34727
 N268 N -0.13445 1.09102 -0.38822
 C269 C -0.08752 1.08113 -0.25002
 C270 C -0.08075 1.10033 -0.19479
 H271 H -0.17056 1.12601 -0.46841
 H272 H -0.07542 1.05441 -0.26282
 H273 H -0.18732 1.19011 -0.37157
 H274 H -0.09293 1.12677 -0.18111
 C275 C 0.70783 0.65562 -0.36893
 C276 C 0.68222 0.66926 -0.34140
 C277 C 0.67060 0.65161 -0.28421
 N278 N 0.64856 0.67051 -0.25430
 N279 N 0.63570 0.65310 -0.20600
 C280 C 0.64431 0.61599 -0.18606
 N281 N 0.66653 0.59724 -0.21565
 N282 N 0.67957 0.61481 -0.26363
 C283 C 0.62734 0.59387 -0.13954
 C284 C 0.60589 0.61226 -0.10403
 H285 H 0.66973 0.69320 -0.36369
 H286 H 0.62939 0.56137 -0.13850
 H287 H 0.72228 0.63497 -0.34429
 H288 H 0.60504 0.64473 -0.10040
 C289 C 0.19062 1.21141 -0.36023
 C290 C 0.16096 1.20751 -0.34664
 C291 C 0.15067 1.18860 -0.28950
 N292 N 0.12358 1.19759 -0.26844
 N293 N 0.11192 1.17627 -0.22255
 C294 C 0.12669 1.14466 -0.19684
 N295 N 0.15384 1.13569 -0.21775
 N296 N 0.16571 1.15746 -0.26306
 C297 C 0.11205 1.11774 -0.15282
 C298 C 0.08891 1.13139 -0.11738
 H299 H 0.14448 1.21638 -0.38049
 H300 H 0.11803 1.08616 -0.15186
 H301 H 0.20623 1.21161 -0.32213
 H302 H 0.08487 1.16341 -0.11354
 C303 C 0.33823 0.28367 -0.41905
 C304 C 0.35536 0.31843 -0.41931
 C305 C 0.37355 0.33160 -0.36695
 N306 N 0.38879 0.36633 -0.37254
 N307 N 0.40494 0.37991 -0.32576
 C308 C 0.40647 0.35932 -0.27135
 N309 N 0.39126 0.32443 -0.26563
 N310 N 0.37506 0.31077 -0.31262
 C311 C 0.42418 0.37472 -0.21942
 C312 C 0.44018 0.41017 -0.22546
 H313 H 0.35440 0.33874 -0.45864
 H314 H 0.42472 0.35800 -0.17620
 H315 H 0.33769 0.26499 -0.37778
 H316 H 0.43980 0.42658 -0.26895
 C317 C -0.16670 0.78135 -0.39786
 C318 C -0.15063 0.81691 -0.39769
 C319 C -0.13484 0.83181 -0.34302
 N320 N -0.12090 0.86761 -0.34687
 N321 N -0.10546 0.88134 -0.29917
 C322 C -0.10323 0.85983 -0.24562
 N323 N -0.11731 0.82398 -0.24152
 N324 N -0.13286 0.81019 -0.28940
 C325 C -0.08510 0.87477 -0.19384
 C326 C -0.07004 0.91090 -0.20017
 H327 H -0.14951 0.83501 -0.43946
 H328 H -0.08287 0.85696 -0.15187
 H329 H -0.16999 0.76520 -0.35476
 H330 H -0.07245 0.92820 -0.24261
 C331 C 0.31002 0.69915 0.37341
 C332 C 0.33574 0.70712 0.34147
 C333 C 0.34457 0.68459 0.28655
 N334 N 0.36689 0.69837 0.25139
 N335 N 0.37709 0.67658 0.20487
 C336 C 0.36544 0.64002 0.19203
 N337 N 0.34297 0.62634 0.22695
 N338 N 0.33260 0.64831 0.27318
 C339 C 0.37918 0.61341 0.14666
 C340 C 0.40035 0.62718 0.10571
 H341 H 0.35039 0.73022 0.35835
 H342 H 0.37473 0.58146 0.14997
 H343 H 0.29365 0.67947 0.35356
 H344 H 0.40349 0.65919 0.09879
 C345 C -0.19419 1.21017 0.35963
 C346 C -0.18015 1.17489 0.34132
 C347 C -0.16873 1.16809 0.27930
 N348 N -0.16601 1.12973 0.25965
 N349 N -0.15212 1.12167 0.20753
 C350 C -0.14008 1.15158 0.17316
 N351 N -0.14316 1.19020 0.19230
 N352 N -0.15740 1.19837 0.24439
 C353 C -0.12034 1.14145 0.12197
 C354 C -0.11588 1.10125 0.10690
 H355 H -0.17905 1.14933 0.37268
 H356 H -0.10542 1.16423 0.10512
 H357 H -0.20050 1.23197 0.32431
 H358 H -0.13089 1.07886 0.12454
 C359 C 0.66221 0.28957 0.41356
 C360 C 0.64211 0.32132 0.41319
 C361 C 0.62310 0.33199 0.36038
 N362 N 0.60469 0.36378 0.36574
 N363 N 0.58768 0.37529 0.31858
 C364 C 0.58838 0.35554 0.26398
 N365 N 0.60674 0.32350 0.25850
 N366 N 0.62383 0.31189 0.30592
 C367 C 0.56991 0.36936 0.21154
 C368 C 0.55189 0.40298 0.21785
 H369 H 0.64100 0.34115 0.45247
 H370 H 0.57086 0.35371 0.16791
 H371 H 0.66472 0.27168 0.37231
 H372 H 0.55125 0.41841 0.26170
 C373 C 0.17768 0.81148 0.40937
 C374 C 0.14737 0.81700 0.41028
 C375 C 0.13048 0.83152 0.35636
 N376 N 0.10307 0.84610 0.36478
 N377 N 0.08763 0.86103 0.31736
 C378 C 0.09890 0.86164 0.25951
 N379 N 0.12615 0.84633 0.25072
 N380 N 0.14174 0.83170 0.29841
 C381 C 0.08216 0.87977 0.20782
 C382 C 0.06092 0.90879 0.21940
 H383 H 0.13535 0.81226 0.45250
 H384 H 0.08755 0.87202 0.16074
 H385 H 0.18897 0.81472 0.36579
 H386 H 0.05768 0.91889 0.26633
   
