data_POSCAR
  _audit_creation_date              2014-09-24
  _audit_creation_method            'ToBaCCo'
  _symmetry_space_group_name_H-M    'P1'
  _symmetry_Int_Tables_number       1
  _symmetry_cell_setting            triclinic
  loop_
  _symmetry_equiv_pos_as_xyz
 x,y,z
_cell_length_a 21.7404
_cell_length_b 21.7115
_cell_length_c 22.1097
_cell_angle_alpha 89.683500
_cell_angle_beta 91.870800
_cell_angle_gamma 89.386300
loop_
  _atom_site_label
  _atom_site_type_symbol
  _atom_site_fract_x
  _atom_site_fract_y
  _atom_site_fract_z
Si1 Si 0.00289 0.50296 0.25274
 Si2 Si 0.02371 0.50734 0.75151
 Si3 Si 0.24507 -0.00253 0.51467
 Si4 Si 0.76320 -0.00415 0.49564
 Si5 Si 0.47969 0.25778 0.99174
 Si6 Si 0.48338 0.74016 0.98986
 B7 B 0.98277 1.06704 0.04795
 B8 B 1.02498 1.00202 0.07157
 B9 B 0.94588 1.00106 0.06926
 B10 B 0.91911 1.04235 0.00578
 B11 B 0.98309 1.07127 -0.02943
 B12 B 1.04790 1.04585 0.01149
 B13 B 0.98657 0.94198 -0.03528
 B14 B 0.94554 1.00703 -0.05775
 B15 B 1.02470 1.00842 -0.05572
 B16 B 1.05032 0.96545 0.00624
 B17 B 0.98666 0.93793 0.04372
 B18 B 0.92091 0.96328 0.00306
 B19 B 0.58056 0.49510 0.45651
 B20 B 0.58037 0.49577 0.53414
 B21 B 0.55601 0.56017 0.49249
 B22 B 0.51574 0.53559 0.42885
 B23 B 0.51704 0.45538 0.42992
 B24 B 0.55512 0.43066 0.49576
 B25 B 0.45103 0.49712 0.52942
 B26 B 0.45180 0.49634 0.45070
 B27 B 0.47599 0.43146 0.49204
 B28 B 0.51519 0.45721 0.55682
 B29 B 0.51561 0.53630 0.55588
 B30 B 0.47587 0.56142 0.49185
 C31 C 0.97537 1.30697 0.17598
 C32 C 1.01512 1.31661 0.22564
 C33 C 1.01102 1.37246 0.25601
 C34 C 0.98204 1.42345 0.22695
 C35 C 0.94009 1.41302 0.17837
 C36 C 0.93376 1.35298 0.15528
 C37 C 0.97752 1.24762 0.14503
 C38 C 0.93001 1.23256 0.10463
 C39 C 0.92926 1.17334 0.08057
 C40 C 0.98099 1.13299 0.08518
 C41 C 1.03134 1.15340 0.12200
 C42 C 1.02652 1.20674 0.15714
 C43 C 0.88814 1.33748 0.11168
 C44 C 0.88424 1.27696 0.08934
 C45 C 1.06064 1.27213 0.24106
 C46 C 1.06834 1.21947 0.20516
 H47 H 0.85443 1.37161 0.09616
 H48 H 0.84688 1.26562 0.05790
 H49 H 1.09258 1.27980 0.27883
 H50 H 1.10566 1.18752 0.21639
 H51 H 1.03724 1.37813 0.29802
 H52 H 0.91316 1.45088 0.15889
 H53 H 0.88709 1.16011 0.05906
 H54 H 1.07291 1.12627 0.12721
 C55 C 0.99141 0.68448 0.14747
 C56 C 1.04787 0.65269 0.15211
 C57 C 1.04901 0.59173 0.17274
 C58 C 0.99496 0.56411 0.19257
 C59 C 0.93790 0.59372 0.18064
 C60 C 0.93615 0.65558 0.16140
 C61 C 0.99062 0.75010 0.13047
 C62 C 0.93548 0.78348 0.12940
 C63 C 0.93559 0.84500 0.10900
 C64 C 0.98830 0.87146 0.08309
 C65 C 1.04368 0.84138 0.10099
 C66 C 1.04569 0.77973 0.11964
 C67 C 0.88151 0.69093 0.16141
 C68 C 0.88155 0.75425 0.14724
 C69 C 1.10262 0.68416 0.14135
 C70 C 1.10160 0.74702 0.12641
 H71 H 0.83876 0.66991 0.17399
 H72 H 0.83873 0.78008 0.14864
 H73 H 1.14665 0.66046 0.14608
 H74 H 1.14480 0.76997 0.11936
 H75 H 1.09293 0.56816 0.17850
 H76 H 0.89584 0.57171 0.19377
 H77 H 0.89376 0.87171 0.11231
 H78 H 1.08618 0.86363 0.09819
 C79 C 1.00483 1.31946 -0.14792
 C80 C 0.96115 1.36618 -0.13846
 C81 C 0.96828 1.42392 -0.16639
 C82 C 1.01876 1.43465 -0.20320
 C83 C 1.06192 1.38701 -0.21198
 C84 C 1.05540 1.32957 -0.18430
 C85 C 0.99704 1.25835 -0.12007
 C86 C 1.03994 1.21185 -0.13019
 C87 C 1.03285 1.15460 -0.10249
 C88 C 0.98468 1.14068 -0.06354
 C89 C 0.94158 1.18946 -0.05580
 C90 C 0.94716 1.24756 -0.08355
 C91 C 1.09788 1.28158 -0.19334
 C92 C 1.09033 1.22363 -0.16660
 C93 C 0.91077 1.35355 -0.10224
 C94 C 0.90391 1.29528 -0.07527
 H95 H 1.13717 1.28883 -0.22135
 H96 H 1.12420 1.18779 -0.17441
 H97 H 0.87636 1.38891 -0.09475
 H98 H 0.86429 1.28751 -0.04794
 H99 H 0.93368 1.45942 -0.16103
 H100 H 1.09950 1.39315 -0.24210
 H101 H 1.06854 1.12325 -0.10755
 H102 H 0.90290 1.18454 -0.02888
 C103 C 1.01279 0.69657 -0.15169
 C104 C 0.96414 0.65479 -0.14762
 C105 C 0.97064 0.59561 -0.17151
 C106 C 1.02375 0.57934 -0.20242
 C107 C 1.07229 0.62179 -0.20579
 C108 C 1.06732 0.68030 -0.17982
 C109 C 1.00539 0.75946 -0.12836
 C110 C 1.05308 0.80177 -0.13265
 C111 C 1.04558 0.86100 -0.10816
 C112 C 0.99154 0.87846 -0.07743
 C113 C 0.94269 0.83679 -0.08310
 C114 C 0.94958 0.77702 -0.10446
 C115 C 1.11465 0.72379 -0.18349
 C116 C 1.10780 0.78343 -0.15991
 C117 C 0.90878 0.67409 -0.12249
 C118 C 0.90129 0.73457 -0.10205
 H119 H 1.15716 0.71174 -0.20500
 H120 H 1.14545 0.81545 -0.16328
 H121 H 0.87062 0.64263 -0.11968
 H122 H 0.85765 0.74799 -0.08348
 H123 H 0.93236 0.56426 -0.17039
 H124 H 1.11282 0.61120 -0.23077
 H125 H 1.08415 0.89148 -0.11043
 H126 H 0.89776 0.84975 -0.07422
 C127 C 1.14523 0.99468 0.32229
 C128 C 1.11967 1.03019 0.36850
 C129 C 1.14779 1.02945 0.42709
 C130 C 1.20127 0.99378 0.43929
 C131 C 1.22648 0.95919 0.39185
 C132 C 1.19833 0.95888 0.33362
 C133 C 1.11672 0.99619 0.26036
 C134 C 1.14191 0.96109 0.21410
 C135 C 1.11430 0.96310 0.15520
 C136 C 1.06173 1.00058 0.14052
 C137 C 1.03950 1.03605 0.18949
 C138 C 1.06553 1.03379 0.24836
 C139 C 1.22273 0.92432 0.28610
 C140 C 1.19494 0.92522 0.22759
 C141 C 1.06718 1.06656 0.35458
 C142 C 1.04079 1.06853 0.29562
 H143 H 1.26379 0.89637 0.29418
 H144 H 1.21541 0.89784 0.19253
 H145 H 1.04666 1.09423 0.38938
 H146 H 1.00066 1.09768 0.28692
 H147 H 1.12901 1.05737 0.46268
 H148 H 1.26890 0.93339 0.39968
 H149 H 1.13726 0.93820 0.12050
 H150 H 0.99989 1.06518 0.18346
 C151 C 1.14663 1.00300 -0.29846
 C152 C 1.20552 1.02751 -0.30414
 C153 C 1.23349 1.02527 -0.36058
 C154 C 1.20236 1.00093 -0.41202
 C155 C 1.14297 0.97675 -0.40573
 C156 C 1.11507 0.97725 -0.34869
 C157 C 1.11772 1.00390 -0.23850
 C158 C 1.05986 0.97816 -0.23211
 C159 C 1.03313 0.97849 -0.17496
 C160 C 1.06082 1.00720 -0.12293
 C161 C 1.11997 1.03271 -0.13236
 C162 C 1.14850 1.03054 -0.18879
 C163 C 1.05654 0.95212 -0.34034
 C164 C 1.02970 0.95216 -0.28314
 C165 C 1.23530 1.05365 -0.25312
 C166 C 1.20710 1.05568 -0.19673
 H167 H 1.03136 0.93195 -0.37826
 H168 H 0.98459 0.93210 -0.27895
 H169 H 1.28073 1.07306 -0.25688
 H170 H 1.23168 1.07667 -0.15885
 H171 H 1.27972 1.04267 -0.36447
 H172 H 1.11923 0.95681 -0.44463
 H173 H 0.99116 0.95343 -0.17178
 H174 H 1.14241 1.06022 -0.09812
 C175 C 0.87042 1.01414 0.32525
 C176 C 0.84002 1.06679 0.34591
 C177 C 0.81976 1.06720 0.40530
 C178 C 0.82310 1.01275 0.44001
 C179 C 0.86141 0.96431 0.42218
 C180 C 0.88491 0.96447 0.36426
 C181 C 0.88549 1.00991 0.26130
 C182 C 0.91786 0.95867 0.24158
 C183 C 0.93514 0.95663 0.18175
 C184 C 0.91566 1.00090 0.13751
 C185 C 0.88412 1.05301 0.16051
 C186 C 0.86943 1.05808 0.22158
 C187 C 0.91859 0.91406 0.34306
 C188 C 0.93588 0.91177 0.28274
 C189 C 0.82645 1.11561 0.30546
 C190 C 0.84061 1.11115 0.24407
 H191 H 0.93071 0.87579 0.37293
 H192 H 0.96199 0.87221 0.26775
 H193 H 0.80291 1.15657 0.32089
 H194 H 0.82862 1.14929 0.21397
 H195 H 0.79637 1.10757 0.42183
 H196 H 0.86857 0.92423 0.45066
 H197 H 0.97264 0.92600 0.17449
 H198 H 0.87294 1.09163 0.13240
 C199 C 0.83853 1.00446 -0.30738
 C200 C 0.80048 0.95557 -0.32509
 C201 C 0.77856 0.95287 -0.38484
 C202 C 0.79654 0.99710 -0.42705
 C203 C 0.83469 1.04578 -0.40913
 C204 C 0.85578 1.04987 -0.34886
 C205 C 0.86086 1.00796 -0.24426
 C206 C 0.89827 1.05667 -0.22609
 C207 C 0.92123 1.05809 -0.16644
 C208 C 0.90893 1.01098 -0.12394
 C209 C 0.87123 0.96274 -0.14497
 C210 C 0.84623 0.96128 -0.20372
 C211 C 0.89342 1.09835 -0.32906
 C212 C 0.91427 1.10178 -0.26850
 C213 C 0.78504 0.91041 -0.28272
 C214 C 0.80818 0.91285 -0.22300
 H215 H 0.90696 1.13373 -0.36055
 H216 H 0.94368 1.13960 -0.25492
 H217 H 0.75569 0.87247 -0.29605
 H218 H 0.79634 0.87656 -0.19173
 H219 H 0.74658 0.91707 -0.39773
 H220 H 0.84693 1.08073 -0.44168
 H221 H 0.95274 1.09357 -0.15645
 H222 H 0.86145 0.92484 -0.11715
 C223 C 1.28584 1.17418 0.01780
 C224 C 1.29068 1.23231 -0.00900
 C225 C 1.34931 1.25611 -0.01752
 C226 C 1.40276 1.22036 -0.00381
 C227 C 1.39705 1.16248 0.02383
 C228 C 1.33850 1.13975 0.03608
 C229 C 1.22439 1.14868 0.02668
 C230 C 1.21926 1.09220 0.05589
 C231 C 1.16148 1.06516 0.05766
 C232 C 1.10984 1.08899 0.02434
 C233 C 1.11411 1.15196 0.00802
 C234 C 1.17170 1.18081 0.00556
 C235 C 1.33132 1.08385 0.06712
 C236 C 1.27253 1.06105 0.07799
 C237 C 1.23682 1.26550 -0.02617
 C238 C 1.17820 1.24001 -0.01926
 H239 H 1.37133 1.05727 0.08257
 H240 H 1.26885 1.01702 0.10086
 H241 H 1.24006 1.31085 -0.04643
 H242 H 1.13793 1.26605 -0.03497
 H243 H 1.35340 1.30288 -0.03414
 H244 H 1.43782 1.13636 0.03775
 H245 H 1.16072 1.02030 0.07581
 H246 H 1.07368 1.17957 -0.00108
 C247 C 0.66438 1.14763 -0.00888
 C248 C 0.62591 1.14049 0.04052
 C249 C 0.56794 1.17004 0.03922
 C250 C 0.54785 1.20427 -0.01204
 C251 C 0.58483 1.20558 -0.06328
 C252 C 0.64399 1.17940 -0.06115
 C253 C 0.72748 1.12190 -0.00560
 C254 C 0.76668 1.13083 -0.05382
 C255 C 0.82706 1.10710 -0.04962
 C256 C 0.84963 1.07421 0.00228
 C257 C 0.80551 1.06024 0.04613
 C258 C 0.74656 1.08677 0.04467
 C259 C 0.68394 1.18614 -0.10948
 C260 C 0.74444 1.16270 -0.10567
 C261 C 0.64705 1.10522 0.09061
 C262 C 0.70587 1.07759 0.09201
 H263 H 0.66871 1.21078 -0.15010
 H264 H 0.77402 1.16958 -0.14358
 H265 H 0.61786 1.09869 0.12886
 H266 H 0.72025 1.05021 0.13119
 H267 H 0.53980 1.16861 0.07875
 H268 H 0.56929 1.22917 -0.10417
 H269 H 0.85559 1.11347 -0.08782
 H270 H 0.81394 1.02365 0.07823
 C271 C 1.29228 0.83685 -0.01400
 C272 C 1.34483 0.87341 -0.01951
 C273 C 1.40300 0.84558 -0.01581
 C274 C 1.40832 0.78146 -0.01121
 C275 C 1.35517 0.74523 -0.00694
 C276 C 1.29683 0.77280 -0.00784
 C277 C 1.23141 0.86644 -0.01375
 C278 C 1.17887 0.83113 -0.00617
 C279 C 1.12165 0.86124 -0.00203
 C280 C 1.11608 0.92660 -0.00238
 C281 C 1.16918 0.95763 -0.01964
 C282 C 1.22664 0.92966 -0.02253
 C283 C 1.24301 0.73793 -0.00313
 C284 C 1.18480 0.76668 -0.00263
 C285 C 1.33801 0.93698 -0.02940
 C286 C 1.27951 0.96440 -0.03274
 H287 H 1.24595 0.68822 0.00079
 H288 H 1.14439 0.73842 0.00159
 H289 H 1.37798 0.96555 -0.03516
 H290 H 1.27579 1.01348 -0.04143
 H291 H 1.44312 0.87408 -0.01604
 H292 H 1.35942 0.69555 -0.00291
 H293 H 1.08144 0.83286 -0.00034
 H294 H 1.16783 1.00461 -0.02953
 C295 C 0.67321 0.83935 -0.00864
 C296 C 0.62198 0.87048 -0.03484
 C297 C 0.56459 0.84104 -0.03714
 C298 C 0.55782 0.78295 -0.00952
 C299 C 0.61042 0.75201 0.01444
 C300 C 0.66826 0.77920 0.01362
 C301 C 0.73390 0.86896 -0.00721
 C302 C 0.78580 0.83571 0.01302
 C303 C 0.84340 0.86403 0.01342
 C304 C 0.85186 0.92664 -0.00267
 C305 C 0.79840 0.95450 -0.03095
 C306 C 0.73996 0.92772 -0.03143
 C307 C 0.72159 0.74657 0.03259
 C308 C 0.77960 0.77378 0.03032
 C309 C 0.62984 0.92966 -0.05937
 C310 C 0.68785 0.95785 -0.05763
 H311 H 0.71864 0.69922 0.04787
 H312 H 0.81980 0.74606 0.04226
 H313 H 0.59095 0.95434 -0.08007
 H314 H 0.69196 1.00347 -0.07711
 H315 H 0.52659 0.86261 -0.06193
 H316 H 0.60722 0.70584 0.03221
 H317 H 0.88206 0.83352 0.01832
 H318 H 0.80156 0.99535 -0.05750
 C319 C 0.83594 0.51610 0.37009
 C320 C 0.87766 0.46714 0.38077
 C321 C 0.93498 0.46859 0.35373
 C322 C 0.94989 0.51825 0.31611
 C323 C 0.91239 0.57148 0.31544
 C324 C 0.85333 0.56916 0.33886
 C325 C 0.77214 0.51036 0.38937
 C326 C 0.72896 0.55653 0.37429
 C327 C 0.66770 0.54926 0.39099
 C328 C 0.64912 0.49828 0.42633
 C329 C 0.69503 0.45365 0.44090
 C330 C 0.75534 0.45831 0.42183
 C331 C 0.80970 0.61644 0.32750
 C332 C 0.74826 0.60986 0.34423
 C333 C 0.85934 0.41575 0.41424
 C334 C 0.79934 0.41185 0.43527
 H335 H 0.82248 0.65766 0.30331
 H336 H 0.71561 0.64665 0.33337
 H337 H 0.89119 0.37784 0.42325
 H338 H 0.78681 0.37137 0.46079
 H339 H 0.96504 0.42868 0.35742
 H340 H 0.92631 0.61251 0.29198
 H341 H 0.63616 0.58655 0.38015
 H342 H 0.68594 0.41543 0.46894
 C343 C 0.20812 0.50350 0.32057
 C344 C 0.17543 0.55952 0.31862
 C345 C 0.11238 0.55890 0.30189
 C346 C 0.08594 0.50446 0.27865
 C347 C 0.12421 0.45269 0.27073
 C348 C 0.18167 0.44927 0.29945
 C349 C 0.27110 0.50110 0.34560
 C350 C 0.29771 0.44436 0.36085
 C351 C 0.35263 0.44324 0.39515
 C352 C 0.38893 0.49635 0.40501
 C353 C 0.36199 0.55169 0.38214
 C354 C 0.30173 0.55540 0.35805
 C355 C 0.21199 0.39260 0.30982
 C356 C 0.26722 0.38998 0.34419
 C357 C 0.20688 0.61390 0.33348
 C358 C 0.26998 0.61206 0.35033
 H359 H 0.19075 0.35003 0.29526
 H360 H 0.28670 0.34540 0.35663
 H361 H 0.18303 0.65795 0.33104
 H362 H 0.29314 0.65490 0.36045
 H363 H 0.08493 0.60074 0.30405
 H364 H 0.11092 0.41469 0.24262
 H365 H 0.36217 0.40109 0.41729
 H366 H 0.38213 0.59383 0.39143
 C367 C 0.83403 0.50435 0.64754
 C368 C 0.85689 0.56066 0.66887
 C369 C 0.91695 0.56283 0.69409
 C370 C 0.95299 0.50871 0.70047
 C371 C 0.93019 0.45307 0.67685
 C372 C 0.87052 0.45057 0.65048
 C373 C 0.77005 0.50134 0.62311
 C374 C 0.74684 0.44528 0.60246
 C375 C 0.68630 0.44304 0.57855
 C376 C 0.64841 0.49643 0.57167
 C377 C 0.67236 0.55095 0.59815
 C378 C 0.73281 0.55421 0.62229
 C379 C 0.84557 0.39498 0.62920
 C380 C 0.78481 0.39239 0.60561
 C381 C 0.81827 0.61306 0.66683
 C382 C 0.75713 0.60975 0.64443
 H383 H 0.87302 0.35304 0.63127
 H384 H 0.76743 0.34859 0.58965
 H385 H 0.83515 0.65679 0.68346
 H386 H 0.72887 0.65117 0.64387
 H387 H 0.93436 0.60617 0.71098
 H388 H 0.95759 0.41123 0.68176
 H389 H 0.66986 0.39887 0.56580
 H390 H 0.64421 0.59227 0.59863
 C391 C 0.21091 0.50307 0.65513
 C392 C 0.15581 0.50599 0.61984
 C393 C 0.09920 0.50690 0.64851
 C394 C 0.09789 0.50470 0.71175
 C395 C 0.15342 0.50110 0.74651
 C396 C 0.21023 0.50059 0.71839
 C397 C 0.27047 0.50251 0.62520
 C398 C 0.32560 0.49981 0.65971
 C399 C 0.38206 0.49907 0.63015
 C400 C 0.38493 0.50019 0.56599
 C401 C 0.32731 0.50259 0.53417
 C402 C 0.27106 0.50427 0.56240
 C403 C 0.26632 0.49790 0.75200
 C404 C 0.32307 0.49764 0.72315
 C405 C 0.15855 0.50803 0.55659
 C406 C 0.21526 0.50702 0.52830
 H407 H 0.26635 0.49605 0.80098
 H408 H 0.36522 0.49550 0.75068
 H409 H 0.11662 0.51028 0.52876
 H410 H 0.21543 0.50848 0.47928
 H411 H 0.05653 0.50953 0.62185
 H412 H 0.15215 0.49928 0.79547
 H413 H 0.42351 0.49765 0.65814
 H414 H 0.32369 0.50174 0.48682
 C415 C 0.49127 0.64742 0.18039
 C416 C 0.52199 0.61883 0.13289
 C417 C 0.51521 0.64311 0.07404
 C418 C 0.48177 0.69804 0.06375
 C419 C 0.45206 0.72651 0.11222
 C420 C 0.45555 0.70071 0.17032
 C421 C 0.49874 0.62261 0.24236
 C422 C 0.46875 0.65092 0.28986
 C423 C 0.47622 0.62636 0.34861
 C424 C 0.51288 0.57292 0.36184
 C425 C 0.54650 0.55090 0.31279
 C426 C 0.53855 0.57309 0.25358
 C427 C 0.42587 0.72827 0.21902
 C428 C 0.43196 0.70348 0.27776
 C429 C 0.56124 0.56846 0.14594
 C430 C 0.57053 0.54703 0.20554
 H431 H 0.39798 0.76947 0.21173
 H432 H 0.40829 0.72605 0.31405
 H433 H 0.58631 0.54661 0.11018
 H434 H 0.60303 0.50982 0.21403
 H435 H 0.53856 0.62126 0.03724
 H436 H 0.42753 0.76978 0.10548
 H437 H 0.45244 0.65065 0.38304
 H438 H 0.58270 0.51940 0.32020
 C439 C 0.49249 0.64499 0.80270
 C440 C 0.53896 0.63282 0.84701
 C441 C 0.53364 0.65755 0.90508
 C442 C 0.48273 0.69473 0.91850
 C443 C 0.43597 0.70531 0.87371
 C444 C 0.44040 0.68018 0.81591
 C445 C 0.49901 0.62137 0.74096
 C446 C 0.45281 0.63271 0.69679
 C447 C 0.45887 0.60797 0.63870
 C448 C 0.51122 0.57248 0.62242
 C449 C 0.55549 0.56228 0.66970
 C450 C 0.55071 0.58647 0.72765
 C451 C 0.39461 0.69091 0.77053
 C452 C 0.40049 0.66713 0.71203
 C453 C 0.59063 0.59769 0.83171
 C454 C 0.59640 0.57488 0.77297
 H455 H 0.35398 0.71794 0.78028
 H456 H 0.36405 0.67610 0.67841
 H457 H 0.62699 0.58806 0.86522
 H458 H 0.63714 0.54819 0.76285
 H459 H 0.57043 0.65028 0.93860
 H460 H 0.39724 0.73521 0.88210
 H461 H 0.41927 0.61257 0.60877
 H462 H 0.59299 0.53246 0.66464
 C463 C 0.50293 0.34509 0.18293
 C464 C 0.44592 0.32226 0.16286
 C465 C 0.43863 0.30197 0.10357
 C466 C 0.48832 0.30139 0.06436
 C467 C 0.54569 0.32439 0.08493
 C468 C 0.55319 0.34649 0.14466
 C469 C 0.51018 0.36649 0.24583
 C470 C 0.56653 0.38899 0.26710
 C471 C 0.57094 0.41288 0.32624
 C472 C 0.51941 0.41584 0.36475
 C473 C 0.46799 0.38286 0.34363
 C474 C 0.46115 0.36161 0.28448
 C475 C 0.61003 0.36786 0.16799
 C476 C 0.61666 0.38845 0.22825
 C477 C 0.39772 0.31751 0.20323
 C478 C 0.40573 0.33569 0.26344
 H479 H 0.64964 0.36870 0.13952
 H480 H 0.66105 0.40516 0.24419
 H481 H 0.35382 0.29866 0.18845
 H482 H 0.36798 0.33026 0.29344
 H483 H 0.39428 0.28430 0.08982
 H484 H 0.58465 0.32265 0.05564
 H485 H 0.61503 0.43047 0.34053
 H486 H 0.43400 0.36977 0.37321
 C487 C 0.49217 0.35289 0.80424
 C488 C 0.53782 0.36450 0.84904
 C489 C 0.52980 0.34274 0.90828
 C490 C 0.47952 0.30487 0.92072
 C491 C 0.43551 0.29242 0.87437
 C492 C 0.44009 0.31845 0.81703
 C493 C 0.50037 0.37443 0.74193
 C494 C 0.45407 0.36461 0.69796
 C495 C 0.46068 0.38875 0.63996
 C496 C 0.51276 0.42223 0.62352
 C497 C 0.56216 0.42252 0.66711
 C498 C 0.55497 0.40291 0.72695
 C499 C 0.39487 0.30828 0.77145
 C500 C 0.40114 0.33219 0.71307
 C501 C 0.59189 0.39439 0.83263
 C502 C 0.60094 0.41194 0.77225
 H503 H 0.35421 0.28198 0.78107
 H504 H 0.36486 0.32437 0.67928
 H505 H 0.62809 0.40281 0.86630
 H506 H 0.64376 0.43371 0.76115
 H507 H 0.56528 0.35015 0.94295
 H508 H 0.39946 0.25955 0.88084
 H509 H 0.42200 0.38603 0.61048
 H510 H 0.60659 0.43786 0.65624
 C511 C 0.68509 0.80000 0.46914
 C512 C 0.64948 0.85141 0.44992
 C513 C 0.67423 0.91030 0.45541
 C514 C 0.73380 0.91760 0.48005
 C515 C 0.76999 0.86550 0.49652
 C516 C 0.74573 0.80632 0.49119
 C517 C 0.65726 0.73876 0.46892
 C518 C 0.69112 0.68741 0.48984
 C519 C 0.66163 0.63014 0.49335
 C520 C 0.59706 0.62439 0.48252
 C521 C 0.56946 0.67545 0.45246
 C522 C 0.59685 0.73259 0.44801
 C523 C 0.77990 0.75351 0.50921
 C524 C 0.75322 0.69477 0.50772
 C525 C 0.58919 0.84292 0.42730
 C526 C 0.56342 0.78418 0.42578
 H527 H 0.82718 0.75775 0.52553
 H528 H 0.78068 0.65530 0.52270
 H529 H 0.56141 0.88200 0.41183
 H530 H 0.51622 0.77943 0.40927
 H531 H 0.64657 0.95024 0.44220
 H532 H 0.81547 0.87104 0.51700
 H533 H 0.69055 0.59031 0.50073
 H534 H 0.52386 0.67385 0.43710
 C535 C 0.64345 0.16986 0.49292
 C536 C 0.64870 0.13599 0.54709
 C537 C 0.67814 0.07838 0.54683
 C538 C 0.70009 0.05456 0.49253
 C539 C 0.68412 0.08395 0.43742
 C540 C 0.66056 0.14416 0.43777
 C541 C 0.62381 0.23472 0.49471
 C542 C 0.62752 0.27119 0.44294
 C543 C 0.61316 0.33394 0.44649
 C544 C 0.58772 0.36081 0.49838
 C545 C 0.58455 0.32128 0.54964
 C546 C 0.60444 0.25981 0.54886
 C547 C 0.65954 0.18117 0.38542
 C548 C 0.64485 0.24418 0.38832
 C549 C 0.62873 0.16248 0.60092
 C550 C 0.60556 0.22304 0.60149
 H551 H 0.67334 0.16211 0.34269
 H552 H 0.64675 0.27187 0.34750
 H553 H 0.63191 0.13661 0.64297
 H554 H 0.59056 0.24194 0.64389
 H555 H 0.68760 0.05444 0.58927
 H556 H 0.69785 0.06377 0.39518
 H557 H 0.62215 0.36093 0.40827
 H558 H 0.56802 0.33626 0.59134
 C559 C 0.34607 0.80579 0.52009
 C560 C 0.38050 0.85806 0.53607
 C561 C 0.35121 0.91654 0.53569
 C562 C 0.28784 0.92188 0.52089
 C563 C 0.25369 0.86830 0.50886
 C564 C 0.28267 0.81042 0.50704
 C565 C 0.37697 0.74492 0.51668
 C566 C 0.34315 0.69331 0.49919
 C567 C 0.37355 0.63636 0.49293
 C568 C 0.43812 0.62902 0.50144
 C569 C 0.46785 0.68075 0.52903
 C570 C 0.43929 0.73906 0.53263
 C571 C 0.24965 0.75713 0.49163
 C572 C 0.27937 0.69960 0.48776
 C573 C 0.44336 0.85032 0.55189
 C574 C 0.47192 0.79171 0.55132
 H575 H 0.20057 0.76004 0.48172
 H576 H 0.25225 0.65982 0.47514
 H577 H 0.47067 0.88981 0.56493
 H578 H 0.52041 0.78789 0.56388
 H579 H 0.37736 0.95731 0.54689
 H580 H 0.20467 0.87200 0.49861
 H581 H 0.34529 0.59870 0.48117
 H582 H 0.51378 0.67605 0.54861
 C583 C 0.34827 0.18597 0.50261
 C584 C 0.37671 0.13309 0.47935
 C585 C 0.34698 0.07564 0.48348
 C586 C 0.28935 0.07150 0.51062
 C587 C 0.26102 0.12556 0.53181
 C588 C 0.29043 0.18263 0.52861
 C589 C 0.37899 0.24638 0.49859
 C590 C 0.35015 0.29903 0.52065
 C591 C 0.37954 0.35613 0.51666
 C592 C 0.43895 0.36318 0.49268
 C593 C 0.46374 0.30876 0.46669
 C594 C 0.43552 0.25077 0.47090
 C595 C 0.26283 0.23663 0.55039
 C596 C 0.29216 0.29378 0.54650
 C597 C 0.43381 0.13929 0.45182
 C598 C 0.46240 0.19707 0.44725
 H599 H 0.21814 0.23472 0.57057
 H600 H 0.26923 0.33423 0.56390
 H601 H 0.45645 0.09924 0.43332
 H602 H 0.50613 0.19959 0.42530
 H603 H 0.36801 0.03476 0.46494
 H604 H 0.21571 0.12334 0.55068
 H605 H 0.35501 0.39455 0.53321
 H606 H 0.50299 0.31102 0.43924
   
