data_POSCAR
  _audit_creation_date              2014-09-24
  _audit_creation_method            'ToBaCCo'
  _symmetry_space_group_name_H-M    'P1'
  _symmetry_Int_Tables_number       1
  _symmetry_cell_setting            triclinic
  loop_
  _symmetry_equiv_pos_as_xyz
 x,y,z
_cell_length_a 43.1308
_cell_length_b 43.0472
_cell_length_c 42.4548
_cell_angle_alpha 89.379700
_cell_angle_beta 90.200400
_cell_angle_gamma 89.173500
loop_
  _atom_site_label
  _atom_site_type_symbol
  _atom_site_fract_x
  _atom_site_fract_y
  _atom_site_fract_z
N1 N 0.19262 0.20418 0.27591
 N2 N 0.21337 0.18159 0.27590
 C3 C 0.21299 0.16669 0.30385
 C4 C 0.19044 0.18043 0.32263
 C5 C 0.17831 0.20455 0.30403
 H6 H 0.22718 0.14645 0.30929
 H7 H 0.15889 0.21970 0.30941
 Cu8 Cu 0.23630 0.17082 0.23832
 Cu9 Cu 0.18238 0.22730 0.23747
 Cu10 Cu 0.23720 0.22259 0.17811
 N11 N 0.26769 0.16929 0.20598
 N12 N 0.26899 0.19020 0.18331
 C13 C 0.29272 0.18293 0.16410
 C14 C 0.30690 0.15566 0.17515
 C15 C 0.29029 0.14791 0.20198
 H16 H 0.29802 0.19569 0.14279
 H17 H 0.29399 0.12812 0.21745
 N18 N 0.20237 0.25294 0.17735
 N19 N 0.18109 0.25410 0.19960
 C20 C 0.15848 0.27422 0.19068
 C21 C 0.16574 0.28630 0.16132
 C22 C 0.19386 0.27244 0.15370
 H23 H 0.13778 0.27905 0.20415
 H24 H 0.20617 0.27493 0.13170
 H25 H 0.20269 0.20054 0.20208
 H26 H 0.22849 0.22563 0.22598
 N27 N -0.14519 0.81446 0.24198
 N28 N -0.16594 0.83706 0.24098
 C29 C -0.15742 0.85953 0.26082
 C30 C -0.12958 0.85067 0.27475
 C31 C -0.12238 0.82196 0.26211
 H32 H -0.17042 0.88083 0.26462
 H33 H -0.10257 0.80724 0.26778
 Cu34 Cu -0.20156 0.83555 0.21320
 Cu35 Cu -0.15003 0.77693 0.21757
 Cu36 Cu -0.22409 0.76589 0.18728
 N37 N -0.24228 0.82980 0.19525
 N38 N -0.25134 0.80260 0.18535
 C39 C -0.27984 0.80579 0.17252
 C40 C -0.28918 0.83684 0.17442
 C41 C -0.26457 0.85118 0.18930
 H42 H -0.29219 0.78702 0.16169
 H43 H -0.26234 0.87551 0.19465
 N44 N -0.19251 0.73221 0.19096
 N45 N -0.16431 0.73681 0.20192
 C46 C -0.14747 0.71047 0.19932
 C47 C -0.16571 0.68800 0.18572
 C48 C -0.19422 0.70271 0.18082
 H49 H -0.12327 0.70838 0.20572
 H50 H -0.21431 0.69315 0.16942
 H51 H -0.18386 0.78958 0.18410
 H52 H -0.19707 0.78040 0.22484
 N53 N -0.18793 0.20512 -0.28071
 N54 N -0.20582 0.18117 -0.27570
 C55 C -0.20386 0.16194 -0.30037
 C56 C -0.18330 0.17429 -0.32198
 C57 C -0.17377 0.20188 -0.30870
 H58 H -0.21525 0.13979 -0.30164
 H59 H -0.15617 0.21730 -0.31754
 Cu60 Cu -0.22594 0.17482 -0.23539
 Cu61 Cu -0.18096 0.23589 -0.24824
 Cu62 Cu -0.23865 0.23776 -0.19120
 N63 N -0.24958 0.17253 -0.19675
 N64 N -0.25584 0.19735 -0.18009
 C65 C -0.27490 0.18949 -0.15630
 C66 C -0.28046 0.15775 -0.15783
 C67 C -0.26376 0.14793 -0.18387
 H68 H -0.28371 0.20574 -0.13916
 H69 H -0.26300 0.12491 -0.19371
 N70 N -0.20905 0.27188 -0.19803
 N71 N -0.18672 0.27068 -0.21919
 C72 C -0.16826 0.29531 -0.21566
 C73 C -0.17924 0.31290 -0.19088
 C74 C -0.20529 0.29740 -0.18040
 H75 H -0.14763 0.29942 -0.22937
 H76 H -0.21912 0.30300 -0.15998
 H77 H -0.19973 0.21585 -0.20715
 H78 H -0.22634 0.23150 -0.23846
 N79 N 0.16588 0.79759 -0.24770
 N80 N 0.18886 0.81723 -0.24916
 C81 C 0.18183 0.83980 -0.27025
 C82 C 0.15291 0.83385 -0.28294
 C83 C 0.14357 0.80668 -0.26822
 H84 H 0.19660 0.85920 -0.27571
 H85 H 0.12172 0.79504 -0.27125
 Cu86 Cu 0.22535 0.81216 -0.22264
 Cu87 Cu 0.16637 0.76283 -0.21798
 Cu88 Cu 0.21784 0.77108 -0.15549
 N89 N 0.25422 0.81658 -0.18804
 N90 N 0.25036 0.80170 -0.16122
 C91 C 0.27174 0.81126 -0.14042
 C92 C 0.29019 0.83337 -0.15505
 C93 C 0.27829 0.83589 -0.18545
 H94 H 0.27352 0.80266 -0.11647
 H95 H 0.28543 0.85160 -0.20398
 N96 N 0.18354 0.74113 -0.15498
 N97 N 0.16424 0.73799 -0.17890
 C98 C 0.14303 0.71660 -0.17134
 C99 C 0.14934 0.70548 -0.14126
 C100 C 0.17529 0.72145 -0.13166
 H101 H 0.12424 0.70978 -0.18658
 H102 H 0.18680 0.71940 -0.10906
 H103 H 0.18677 0.79201 -0.18671
 H104 H 0.21237 0.76038 -0.20191
 N105 N 0.21395 1.18674 0.73643
 N106 N 0.19170 1.20791 0.73627
 C107 C 0.17405 1.20429 0.71034
 C108 C 0.18578 1.17930 0.69351
 C109 C 0.21116 1.16883 0.71088
 H110 H 0.15318 1.21761 0.70510
 H111 H 0.22602 1.14905 0.70594
 Cu112 Cu 0.18581 1.23501 0.77236
 Cu113 Cu 0.24272 1.18162 0.77152
 Cu114 Cu 0.24658 1.24540 0.82052
 N115 N 0.18252 1.26107 0.80949
 N116 N 0.20650 1.26538 0.82805
 C117 C 0.19802 1.28411 0.85179
 C118 C 0.16685 1.29168 0.84824
 C119 C 0.15784 1.27662 0.82102
 H120 H 0.21330 1.29090 0.87067
 H121 H 0.13503 1.27690 0.81039
 N122 N 0.27931 1.21308 0.81883
 N123 N 0.27729 1.18843 0.80081
 C124 C 0.30171 1.16947 0.80656
 C125 C 0.32006 1.18259 0.82959
 C126 C 0.30506 1.21034 0.83677
 H127 H 0.30518 1.14722 0.79549
 H128 H 0.31168 1.22686 0.85448
 H129 H 0.22225 1.20786 0.80746
 H130 H 0.24217 1.22835 0.77445
 N131 N 0.82894 0.82109 0.74474
 N132 N 0.84750 0.79688 0.74129
 C133 C 0.87131 0.80491 0.72256
 C134 C 0.86758 0.83587 0.71389
 C135 C 0.84037 0.84534 0.72846
 H136 H 0.89020 0.78952 0.71608
 H137 H 0.82951 0.86810 0.72717
 Cu138 Cu 0.83878 0.75759 0.76234
 Cu139 Cu 0.79156 0.81971 0.77055
 Cu140 Cu 0.77893 0.75108 0.81168
 N141 N 0.82984 0.71825 0.78328
 N142 N 0.80592 0.71573 0.80219
 C143 C 0.80650 0.68737 0.81584
 C144 C 0.83236 0.67121 0.80518
 C145 C 0.84653 0.69158 0.78439
 H146 H 0.79066 0.68000 0.83403
 H147 H 0.86824 0.68785 0.77227
 N148 N 0.75049 0.78727 0.81386
 N149 N 0.75529 0.81336 0.79812
 C150 C 0.73269 0.83398 0.80528
 C151 C 0.71260 0.82033 0.82660
 C152 C 0.72467 0.79062 0.83135
 H153 H 0.73151 0.85753 0.79628
 H154 H 0.71562 0.77284 0.84677
 H155 H 0.80918 0.78705 0.80110
 H156 H 0.78456 0.77235 0.76843
 N157 N 0.18884 0.83517 1.23763
 N158 N 0.16751 0.81377 1.23991
 C159 C 0.14783 0.82123 1.26330
 C160 C 0.15719 0.84895 1.27638
 C161 C 0.18336 0.85706 1.25943
 H162 H 0.12762 0.80799 1.26960
 H163 H 0.19729 0.87748 1.26253
 Cu164 Cu 0.16621 0.77902 1.21108
 Cu165 Cu 0.22156 0.83344 1.20595
 Cu166 Cu 0.21276 0.77887 1.14762
 N167 N 0.15839 0.75245 1.17524
 N168 N 0.17623 0.75298 1.15023
 C169 C 0.16542 0.73283 1.12897
 C170 C 0.13944 0.71873 1.14135
 C171 C 0.13569 0.73177 1.17083
 H172 H 0.17607 0.72829 1.10645
 H173 H 0.11765 0.72684 1.18771
 N174 N 0.24828 0.80702 1.14923
 N175 N 0.25192 0.82767 1.17164
 C176 C 0.27814 0.84346 1.16605
 C177 C 0.29161 0.83228 1.13871
 C178 C 0.27197 0.80916 1.12879
 H179 H 0.28636 0.86228 1.18034
 H180 H 0.27465 0.79497 1.10812
 H181 H 0.19184 0.81345 1.17416
 H182 H 0.21986 0.78677 1.19527
 N183 N 0.77535 1.17705 1.27754
 N184 N 0.79283 1.20133 1.28230
 C185 C 0.80980 1.19651 1.30860
 C186 C 0.80282 1.16754 1.32099
 C187 C 0.78075 1.15589 1.30060
 H188 H 0.82737 1.21205 1.31700
 H189 H 0.77031 1.13323 1.30166
 Cu190 Cu 0.79441 1.23509 1.25150
 Cu191 Cu 0.74989 1.17337 1.23967
 Cu192 Cu 0.74761 1.23653 1.18816
 N193 N 0.79584 1.26885 1.22076
 N194 N 0.77669 1.26974 1.19661
 C195 C 0.78328 1.29441 1.17824
 C196 C 0.80817 1.30967 1.19134
 C197 C 0.81554 1.29277 1.21835
 H198 H 0.77217 1.29966 1.15591
 H199 H 0.83447 1.29700 1.23442
 N200 N 0.72044 1.20033 1.18375
 N201 N 0.72097 1.17644 1.20354
 C202 C 0.70043 1.15532 1.19368
 C203 C 0.68670 1.16621 1.16611
 C204 C 0.69996 1.19479 1.16053
 H205 H 0.69655 1.13311 1.20500
 H206 H 0.69525 1.21021 1.14077
 H207 H 0.77421 1.20268 1.20954
 H208 H 0.74300 1.22042 1.23409
 O209 O 0.53981 0.96536 0.93069
 O210 O 0.48541 0.95344 1.03903
 O211 O 0.54296 0.94724 1.02710
 O212 O 0.44531 0.98719 0.95917
 O213 O 0.53295 0.97677 1.06401
 O214 O 0.48161 0.96370 0.93234
 O215 O 0.44575 0.97192 1.01456
 O216 O 0.55094 0.94183 0.97379
 C217 C 0.55183 0.94271 0.94474
 C218 C 0.45789 0.95071 1.03101
 C219 C 0.54650 0.95291 1.05534
 C220 C 0.45375 0.96639 0.94009
 O221 O 0.48013 1.02443 0.93150
 O222 O 0.52061 1.02950 1.04056
 O223 O 0.57232 1.00093 0.96779
 O224 O 0.46534 1.02990 1.02990
 O225 O 0.47849 1.00282 1.07112
 O226 O 0.53841 1.02475 0.93672
 O227 O 0.46764 1.04362 0.97595
 O228 O 0.56384 1.00835 1.02454
 Co229 Co 0.50963 0.99418 0.93835
 Co230 Co 0.50217 0.99179 1.03779
 Co231 Co 0.55369 0.97596 0.99798
 Co232 Co 0.46038 1.00651 0.99455
 O233 O 0.50789 0.99101 0.99017
 C234 C 0.46938 1.04652 0.94702
 C235 C 0.54948 1.03064 1.03765
 C236 C 0.56541 1.02205 0.94774
 C237 C 0.45992 1.02340 1.05851
 O238 O 0.02638 0.46045 0.04797
 O239 O 0.02670 0.51619 -0.03606
 O240 O -0.00250 0.42362 -0.02427
 O241 O -0.00781 0.55324 0.02772
 O242 O 0.02903 0.46057 -0.03081
 O243 O 0.02022 0.51943 0.05499
 O244 O -0.00894 0.55020 -0.03012
 O245 O -0.00308 0.42317 0.03260
 C246 C 0.02253 0.43221 0.04338
 C247 C 0.01883 0.54394 -0.03561
 C248 C 0.02436 0.43230 -0.03043
 C249 C 0.01443 0.54683 0.04627
 O250 O -0.03830 0.51208 0.06883
 O251 O -0.02718 0.45668 -0.06067
 O252 O -0.06268 0.44510 0.03106
 O253 O -0.06502 0.52517 -0.02844
 O254 O -0.03073 0.51247 -0.06324
 O255 O -0.03161 0.45472 0.06856
 O256 O -0.06540 0.53485 0.03105
 O257 O -0.06079 0.44881 -0.02503
 Co258 Co -0.00687 0.48640 0.05457
 Co259 Co -0.00206 0.48643 -0.04343
 Co260 Co -0.03106 0.43944 0.00354
 Co261 Co -0.03524 0.53558 0.00012
 O262 O -0.01870 0.48724 0.00402
 C263 C -0.06133 0.52836 0.05961
 C264 C -0.05418 0.44922 -0.05332
 C265 C -0.05768 0.44597 0.05967
 C266 C -0.05786 0.52159 -0.05658
 O267 O 1.07614 0.03207 0.47575
 O268 O 0.94824 0.02316 0.53353
 O269 O 0.97949 0.05533 0.45110
 O270 O 1.03714 0.06003 0.53817
 O271 O 0.94607 0.02576 0.47543
 O272 O 1.07524 0.02891 0.53243
 O273 O 0.98187 0.05789 0.54210
 O274 O 1.03760 0.06167 0.46078
 C275 C 1.06590 0.05810 0.46588
 C276 C 0.95431 0.05052 0.54070
 C277 C 0.95215 0.04891 0.45810
 C278 C 1.06543 0.05538 0.53960
 O279 O 1.05223 -0.02968 0.52965
 O280 O 0.96655 -0.03136 0.47120
 O281 O 1.04644 0.00544 0.43781
 O282 O 0.98618 -0.00037 0.56721
 O283 O 0.97468 -0.03339 0.53115
 O284 O 1.05638 -0.02843 0.47309
 O285 O 1.04182 0.00259 0.56598
 O286 O 0.98977 -0.00278 0.43531
 Co287 Co 1.06063 0.00186 0.50263
 Co288 Co 0.96415 -0.00248 0.50306
 Co289 Co 1.01347 0.02851 0.45166
 Co290 Co 1.01195 0.02869 0.54914
 O291 O 1.01221 0.01396 0.50139
 C292 C 1.04977 -0.02429 0.55815
 C293 C 0.97407 -0.02625 0.44312
 C294 C 1.05506 -0.02149 0.44478
 C295 C 0.97816 -0.02733 0.55956
 C296 C 1.14864 0.14177 0.40382
 C297 C 1.17385 0.12660 0.38946
 C298 C 1.18912 0.14032 0.36406
 C299 C 1.17910 0.16933 0.35172
 C300 C 1.15572 0.18568 0.36800
 C301 C 1.14088 0.17217 0.39384
 C302 C 1.12798 0.12428 0.42552
 C303 C 1.09569 0.12882 0.42348
 C304 C 1.07562 0.10850 0.43857
 C305 C 1.08726 0.08279 0.45575
 C306 C 1.11945 0.07949 0.45996
 C307 C 1.13964 0.10016 0.44512
 H308 H 1.20735 0.12691 0.35301
 H309 H 1.14802 0.20857 0.36036
 H310 H 1.05091 0.11186 0.43503
 H311 H 1.12906 0.06017 0.47354
 H312 H 1.12235 0.18507 0.40512
 H313 H 1.08567 0.14677 0.40841
 H314 H 1.18054 0.10315 0.39628
 H315 H 1.16437 0.09643 0.44792
 C316 C 0.92030 -0.10026 0.34575
 C317 C 0.88812 -0.09623 0.34241
 C318 C 0.87207 -0.11190 0.31906
 C319 C 0.88782 -0.13229 0.29888
 C320 C 0.92008 -0.13634 0.30217
 C321 C 0.93628 -0.12015 0.32526
 C322 C 0.93669 -0.08388 0.37105
 C323 C 0.96213 -0.06497 0.36432
 C324 C 0.97511 -0.04675 0.38795
 C325 C 0.96308 -0.04765 0.41869
 C326 C 0.93866 -0.06787 0.42557
 C327 C 0.92547 -0.08561 0.40195
 H328 H 0.84721 -0.10851 0.31724
 H329 H 0.93279 -0.15177 0.28674
 H330 H 0.99403 -0.03150 0.38205
 H331 H 0.92887 -0.06911 0.44900
 H332 H 0.96112 -0.12356 0.32754
 H333 H 0.97107 -0.06333 0.34056
 H334 H 0.87541 -0.08081 0.35787
 H335 H 0.90603 -0.10028 0.40765
 C336 C 0.86360 0.12709 0.60287
 C337 C 0.86430 0.15967 0.60472
 C338 C 0.84788 0.17523 0.62826
 C339 C 0.83030 0.15855 0.65032
 C340 C 0.82797 0.12620 0.64712
 C341 C 0.84450 0.11066 0.62375
 C342 C 0.88532 0.10993 0.58204
 C343 C 0.87668 0.08191 0.56793
 C344 C 0.89881 0.06317 0.55302
 C345 C 0.92996 0.07216 0.55190
 C346 C 0.93816 0.10112 0.56409
 C347 C 0.91612 0.11975 0.57907
 H348 H 0.84968 0.20023 0.62967
 H349 H 0.81479 0.11249 0.66368
 H350 H 0.89177 0.04112 0.54347
 H351 H 0.96196 0.10877 0.56345
 H352 H 0.84373 0.08554 0.62331
 H353 H 0.85301 0.07398 0.56935
 H354 H 0.87833 0.17305 0.58857
 H355 H 0.92370 0.14097 0.58996
 C356 C 1.10167 -0.10896 0.65082
 C357 C 1.12454 -0.09610 0.67013
 C358 C 1.14124 -0.11475 0.69145
 C359 C 1.13520 -0.14663 0.69422
 C360 C 1.11209 -0.15950 0.67512
 C361 C 1.09565 -0.14086 0.65339
 C362 C 1.08489 -0.08897 0.62763
 C363 C 1.08222 -0.09798 0.59605
 C364 C 1.06976 -0.07739 0.57347
 C365 C 1.05954 -0.04755 0.58219
 C366 C 1.06062 -0.03930 0.61410
 C367 C 1.07333 -0.05973 0.63655
 H368 H 1.15866 -0.10406 0.70602
 H369 H 1.10704 -0.18403 0.67664
 H370 H 1.06901 -0.08444 0.54908
 H371 H 1.05261 -0.01660 0.62161
 H372 H 1.07808 -0.15128 0.63877
 H373 H 1.09105 -0.12040 0.58861
 H374 H 1.12985 -0.07163 0.66836
 H375 H 1.07471 -0.05245 0.66085
 C376 C 0.37685 1.10203 1.13015
 C377 C 0.36991 1.13251 1.11986
 C378 C 0.34723 1.15036 1.13493
 C379 C 0.33114 1.13845 1.16111
 C380 C 0.33927 1.10842 1.17227
 C381 C 0.36158 1.09041 1.15683
 C382 C 0.39879 1.08201 1.11221
 C383 C 0.41817 1.05997 1.12759
 C384 C 0.43794 1.04059 1.11027
 C385 C 0.43894 1.04316 1.07731
 C386 C 0.41983 1.06531 1.06201
 C387 C 0.39983 1.08428 1.07919
 H388 H 0.34252 1.17352 1.12585
 H389 H 0.32772 1.09801 1.19222
 H390 H 0.45259 1.02384 1.12266
 H391 H 0.42014 1.06793 1.03663
 H392 H 0.36603 1.06693 1.16523
 H393 H 0.41827 1.05785 1.15301
 H394 H 0.38187 1.14259 1.09994
 H395 H 0.38481 1.10041 1.06643
 C396 C 0.36169 0.88694 0.88519
 C397 C 0.34378 0.86737 0.90419
 C398 C 0.32071 0.84913 0.89090
 C399 C 0.31450 0.85055 0.85826
 C400 C 0.33287 0.87011 0.83933
 C401 C 0.35631 0.88786 0.85263
 C402 C 0.38545 0.90696 0.89937
 C403 C 0.41556 0.90781 0.88696
 C404 C 0.43787 0.92698 0.90028
 C405 C 0.43028 0.94606 0.92587
 C406 C 0.40000 0.94541 0.93798
 C407 C 0.37791 0.92581 0.92507
 H408 H 0.30735 0.83461 0.90656
 H409 H 0.32948 0.87181 0.81413
 H410 H 0.46099 0.92701 0.89039
 H411 H 0.39339 0.95998 0.95754
 H412 H 0.36981 0.90288 0.83752
 H413 H 0.42189 0.89338 0.86719
 H414 H 0.34772 0.86616 0.92940
 H415 H 0.35473 0.92576 0.93480
 C416 C 0.63209 0.88123 1.13255
 C417 C 0.63624 0.84888 1.13059
 C418 C 0.66164 0.83403 1.14516
 C419 C 0.68371 0.85120 1.16197
 C420 C 0.67855 0.88348 1.16499
 C421 C 0.65320 0.89822 1.15044
 C422 C 0.60733 0.89763 1.11417
 C423 C 0.59152 0.92355 1.12658
 C424 C 0.57083 0.94101 1.10783
 C425 C 0.56558 0.93286 1.07637
 C426 C 0.58040 0.90628 1.06435
 C427 C 0.60105 0.88886 1.08303
 H428 H 0.66410 0.80918 1.14245
 H429 H 0.69435 0.89788 1.17792
 H430 H 0.55960 0.96136 1.11768
 H431 H 0.57681 0.89948 1.04013
 H432 H 0.65086 0.92322 1.15218
 H433 H 0.59557 0.93064 1.15061
 H434 H 0.62005 0.83506 1.11738
 H435 H 0.61313 0.86931 1.07261
 C436 C 0.65864 1.10280 0.89676
 C437 C 0.67996 1.08881 0.87633
 C438 C 0.70030 1.10689 0.85875
 C439 C 0.70020 1.13953 0.86144
 C440 C 0.67964 1.15334 0.88312
 C441 C 0.65880 1.13517 0.90025
 C442 C 0.63507 1.08359 0.91262
 C443 C 0.60353 1.09164 0.90993
 C444 C 0.58093 1.07177 0.92169
 C445 C 0.58946 1.04368 0.93678
 C446 C 0.62108 1.03625 0.94060
 C447 C 0.64369 1.05589 0.92834
 H448 H 0.71602 1.09493 0.84308
 H449 H 0.67864 1.17825 0.88613
 H450 H 0.55672 1.07823 0.91866
 H451 H 0.62832 1.01482 0.95223
 H452 H 0.64257 1.14642 0.91602
 H453 H 0.59634 1.11274 0.89766
 H454 H 0.68016 1.06388 0.87314
 H455 H 0.66792 1.04930 0.93076
 C456 C 0.10819 0.34577 0.10272
 C457 C 0.14045 0.34463 0.09827
 C458 C 0.15921 0.32515 0.11714
 C459 C 0.14609 0.30689 0.14115
 C460 C 0.11383 0.30815 0.14556
 C461 C 0.09509 0.32723 0.12646
 C462 C 0.08812 0.36707 0.08372
 C463 C 0.05975 0.35681 0.07156
 C464 C 0.03910 0.37772 0.05689
 C465 C 0.04623 0.40940 0.05447
 C466 C 0.07527 0.41936 0.06524
 C467 C 0.09608 0.39836 0.07960
 H468 H 0.18400 0.32473 0.11325
 H469 H 0.10292 0.29414 0.16358
 H470 H 0.01700 0.36929 0.04864
 H471 H 0.08150 0.44360 0.06353
 H472 H 0.07034 0.32796 0.13065
 H473 H 0.05327 0.33270 0.07407
 H474 H 0.15109 0.35869 0.08009
 H475 H 0.11775 0.40688 0.08885
 C476 C -0.13201 0.38503 -0.14113
 C477 C -0.11607 0.36629 -0.16281
 C478 C -0.13168 0.34377 -0.17990
 C479 C -0.16359 0.33923 -0.17555
 C480 C -0.17984 0.35882 -0.15493
 C481 C -0.16426 0.38158 -0.13802
 C482 C -0.11450 0.40574 -0.11982
 C483 C -0.12274 0.40784 -0.08790
 C484 C -0.10392 0.42344 -0.06667
 C485 C -0.07623 0.43711 -0.07676
 C486 C -0.06879 0.43663 -0.10892
 C487 C -0.08779 0.42116 -0.13027
 H488 H -0.11831 0.32898 -0.19536
 H489 H -0.20453 0.35626 -0.15145
 H490 H -0.11034 0.42348 -0.04203
 H491 H -0.04778 0.44730 -0.11741
 H492 H -0.17737 0.39603 -0.12199
 H493 H -0.14286 0.39598 -0.07887
 H494 H -0.09119 0.36787 -0.16547
 H495 H -0.08111 0.42055 -0.15481
 C496 C 0.09671 0.63844 -0.08889
 C497 C 0.08283 0.65608 -0.11327
 C498 C 0.09999 0.67773 -0.13026
 C499 C 0.13136 0.68247 -0.12305
 C500 C 0.14523 0.66503 -0.09846
 C501 C 0.12811 0.64300 -0.08169
 C502 C 0.07831 0.61494 -0.07174
 C503 C 0.08987 0.58454 -0.06716
 C504 C 0.07095 0.56152 -0.05433
 C505 C 0.04024 0.56861 -0.04569
 C506 C 0.02934 0.59943 -0.04873
 C507 C 0.04813 0.62230 -0.06173
 H508 H 0.08853 0.69096 -0.14884
 H509 H 0.16941 0.66806 -0.09249
 H510 H 0.08000 0.53800 -0.05211
 H511 H 0.00590 0.60570 -0.04199
 H512 H 0.13929 0.62970 -0.06295
 H513 H 0.11305 0.57828 -0.07477
 H514 H 0.05875 0.65276 -0.11953
 H515 H 0.03886 0.64569 -0.06457
 C516 C -0.13216 0.60261 0.14537
 C517 C -0.16343 0.61168 0.14173
 C518 C -0.17486 0.63857 0.15611
 C519 C -0.15528 0.65695 0.17453
 C520 C -0.12471 0.64643 0.18013
 C521 C -0.11326 0.61970 0.16563
 C522 C -0.11810 0.57831 0.12504
 C523 C -0.09372 0.55900 0.13612
 C524 C -0.07638 0.54089 0.11517
 C525 C -0.08313 0.54183 0.08277
 C526 C -0.10908 0.55914 0.07218
 C527 C -0.12631 0.57720 0.09303
 H528 H -0.19869 0.64547 0.15165
 H529 H -0.10897 0.65944 0.19461
 H530 H -0.05669 0.52757 0.12410
 H531 H -0.11509 0.56019 0.04739
 H532 H -0.08901 0.61358 0.16883
 H533 H -0.08718 0.55891 0.16077
 H534 H -0.17878 0.59865 0.12676
 H535 H -0.14471 0.59194 0.08356
 C536 C 1.14170 0.13420 0.61533
 C537 C 1.16393 0.11832 0.63397
 C538 C 1.17890 0.13326 0.65864
 C539 C 1.17186 0.16443 0.66554
 C540 C 1.15040 0.18067 0.64634
 C541 C 1.13559 0.16578 0.62143
 C542 C 1.12322 0.11706 0.59163
 C543 C 1.09129 0.12330 0.58815
 C544 C 1.07286 0.10435 0.56953
 C545 C 1.08585 0.07851 0.55420
 C546 C 1.11802 0.07333 0.55603
 C547 C 1.13654 0.09249 0.57444
 H548 H 1.19506 0.11988 0.67306
 H549 H 1.14480 0.20483 0.65071
 H550 H 1.04812 0.10896 0.56858
 H551 H 1.12870 0.05378 0.54417
 H552 H 1.11902 0.17889 0.60722
 H553 H 1.08010 0.14174 0.60122
 H554 H 1.16883 0.09387 0.63045
 H555 H 1.16117 0.08747 0.57599
 C556 C 0.92510 -0.10918 0.65259
 C557 C 0.92764 -0.14176 0.65278
 C558 C 0.90939 -0.15961 0.67304
 C559 C 0.88799 -0.14526 0.69337
 C560 C 0.88586 -0.11266 0.69351
 C561 C 0.90424 -0.09484 0.67343
 C562 C 0.94264 -0.09013 0.62955
 C563 C 0.95559 -0.06175 0.63847
 C564 C 0.96869 -0.04202 0.61593
 C565 C 0.96889 -0.05017 0.58397
 C566 C 0.95752 -0.07933 0.57532
 C567 C 0.94456 -0.09910 0.59788
 H568 H 0.91159 -0.18465 0.67221
 H569 H 0.86990 -0.10078 0.70905
 H570 H 0.97756 -0.01986 0.62339
 H571 H 0.95749 -0.08636 0.55091
 H572 H 0.90146 -0.06980 0.67357
 H573 H 0.95492 -0.05447 0.66280
 H574 H 0.94366 -0.15344 0.63712
 H575 H 0.93464 -0.12073 0.59025
 C576 C 1.11106 -0.09865 0.34905
 C577 C 1.10595 -0.13064 0.34611
 C578 C 1.12094 -0.14770 0.32258
 C579 C 1.14166 -0.13320 0.30174
 C580 C 1.14709 -0.10129 0.30507
 C581 C 1.13187 -0.08421 0.32833
 C582 C 1.09472 -0.08011 0.37340
 C583 C 1.08197 -0.05082 0.36560
 C584 C 1.06825 -0.03235 0.38867
 C585 C 1.06712 -0.04261 0.42019
 C586 C 1.07898 -0.07233 0.42790
 C587 C 1.09255 -0.09097 0.40467
 H588 H 1.11640 -0.17228 0.32084
 H589 H 1.16272 -0.08929 0.28938
 H590 H 1.05909 -0.00969 0.38188
 H591 H 1.07836 -0.08090 0.45196
 H592 H 1.13655 -0.05965 0.33027
 H593 H 1.08281 -0.04208 0.34161
 H594 H 1.08994 -0.14234 0.36167
 H595 H 1.10225 -0.11344 0.41135
 C596 C 0.85673 0.11957 0.39239
 C597 C 0.83723 0.10293 0.37227
 C598 C 0.81861 0.11853 0.34997
 C599 C 0.81915 0.15111 0.34727
 C600 C 0.83729 0.16777 0.36865
 C601 C 0.85585 0.15220 0.39093
 C602 C 0.88004 0.10302 0.41250
 C603 C 0.91059 0.11382 0.41379
 C604 C 0.93364 0.09678 0.42966
 C605 C 0.92675 0.06852 0.44476
 C606 C 0.89593 0.05832 0.44475
 C607 C 0.87281 0.07534 0.42861
 H608 H 0.80497 0.10491 0.33391
 H609 H 0.83776 0.19289 0.36776
 H610 H 0.95712 0.10537 0.42931
 H611 H 0.88991 0.03665 0.45621
 H612 H 0.87016 0.16568 0.40654
 H613 H 0.91704 0.13482 0.40132
 H614 H 0.83759 0.07777 0.37261
 H615 H 0.84940 0.06660 0.42825
 C616 C 0.10976 0.34821 -0.09117
 C617 C 0.09625 0.32819 -0.11307
 C618 C 0.11476 0.30984 -0.13262
 C619 C 0.14726 0.31095 -0.13068
 C620 C 0.16079 0.33069 -0.10848
 C621 C 0.14224 0.34920 -0.08901
 C622 C 0.08985 0.36890 -0.07179
 C623 C 0.09740 0.40030 -0.06794
 C624 C 0.07680 0.42068 -0.05299
 C625 C 0.04825 0.41006 -0.04158
 C626 C 0.04153 0.37832 -0.04377
 C627 C 0.06209 0.35797 -0.05878
 H628 H 0.10348 0.29476 -0.14920
 H629 H 0.18572 0.33226 -0.10639
 H630 H 0.08264 0.44501 -0.05160
 H631 H 0.01984 0.36940 -0.03493
 H632 H 0.15330 0.36427 -0.07224
 H633 H 0.11853 0.40944 -0.07784
 H634 H 0.07130 0.32723 -0.11562
 H635 H 0.05594 0.33378 -0.06085
 C636 C -0.13941 0.38010 0.14368
 C637 C -0.17152 0.37770 0.13853
 C638 C -0.18873 0.35549 0.15480
 C639 C -0.17434 0.33546 0.17687
 C640 C -0.14264 0.33901 0.18339
 C641 C -0.12533 0.36098 0.16686
 C642 C -0.12026 0.40032 0.12306
 C643 C -0.09400 0.41545 0.13485
 C644 C -0.07418 0.43142 0.11447
 C645 C -0.08028 0.43262 0.08196
 C646 C -0.10728 0.41877 0.07043
 C647 C -0.12693 0.40272 0.09068
 H648 H -0.21325 0.35369 0.14970
 H649 H -0.13082 0.32380 0.20012
 H650 H -0.05365 0.44209 0.12404
 H651 H -0.11265 0.41926 0.04549
 H652 H -0.10060 0.36187 0.17116
 H653 H -0.08847 0.41447 0.15973
 H654 H -0.18326 0.39253 0.12139
 H655 H -0.14660 0.39099 0.08064
 C656 C -0.12880 0.58989 -0.14906
 C657 C -0.11020 0.60895 -0.16807
 C658 C -0.12311 0.63439 -0.18436
 C659 C -0.15489 0.64153 -0.18186
 C660 C -0.17383 0.62135 -0.16451
 C661 C -0.16094 0.59576 -0.14835
 C662 C -0.11410 0.56676 -0.12718
 C663 C -0.12466 0.56418 -0.09599
 C664 C -0.10750 0.54739 -0.07349
 C665 C -0.07926 0.53296 -0.08160
 C666 C -0.06998 0.53330 -0.11330
 C667 C -0.08725 0.55004 -0.13588
 H668 H -0.10774 0.64940 -0.19740
 H669 H -0.19851 0.62579 -0.16263
 H670 H -0.11541 0.54742 -0.04931
 H671 H -0.04851 0.52207 -0.12034
 H672 H -0.17602 0.58117 -0.13445
 H673 H -0.14507 0.57690 -0.08833
 H674 H -0.08532 0.60543 -0.16886
 H675 H -0.07886 0.55101 -0.15987
 C676 C 0.08589 0.64662 0.09871
 C677 C 0.08552 0.65075 0.13149
 C678 C 0.10250 0.67446 0.14527
 C679 C 0.12051 0.69435 0.12660
 C680 C 0.12069 0.69035 0.09376
 C681 C 0.10339 0.66685 0.07994
 C682 C 0.06842 0.62094 0.08434
 C683 C 0.04996 0.62611 0.05738
 C684 C 0.03262 0.60199 0.04470
 C685 C 0.03377 0.57215 0.05851
 C686 C 0.05287 0.56688 0.08498
 C687 C 0.06985 0.59104 0.09784
 H688 H 0.10197 0.67679 0.17062
 H689 H 0.13409 0.70546 0.07868
 H690 H 0.01819 0.60672 0.02424
 H691 H 0.05424 0.54417 0.09618
 H692 H 0.10418 0.66407 0.05463
 H693 H 0.04839 0.64899 0.04658
 H694 H 0.07195 0.63567 0.14647
 H695 H 0.08422 0.58634 0.11837
 C696 C 0.39624 1.13673 0.87795
 C697 C 0.38528 1.12563 0.84902
 C698 C 0.36142 1.14119 0.83285
 C699 C 0.34763 1.16816 0.84526
 C700 C 0.35943 1.18005 0.87354
 C701 C 0.38346 1.16449 0.88971
 C702 C 0.41894 1.11783 0.89669
 C703 C 0.41534 1.11433 0.92945
 C704 C 0.43330 1.09254 0.94633
 C705 C 0.45500 1.07361 0.93072
 C706 C 0.46010 1.07855 0.89842
 C707 C 0.44239 1.10056 0.88162
 H708 H 0.35340 1.13150 0.81095
 H709 H 0.34956 1.20083 0.88379
 H710 H 0.42883 1.08921 0.97122
 H711 H 0.47696 1.06454 0.88587
 H712 H 0.39166 1.17389 0.91173
 H713 H 0.39735 1.12704 0.94179
 H714 H 0.39422 1.10411 0.83941
 H715 H 0.44630 1.10324 0.85657
 C716 C 0.37101 0.86919 1.09027
 C717 C 0.35030 0.84967 1.07465
 C718 C 0.32502 0.83705 1.09058
 C719 C 0.31972 0.84383 1.12247
 C720 C 0.34100 0.86259 1.13833
 C721 C 0.36640 0.87505 1.12243
 C722 C 0.39557 0.88566 1.07254
 C723 C 0.42523 0.88968 1.08563
 C724 C 0.44672 0.90897 1.07074
 C725 C 0.43872 0.92490 1.04275
 C726 C 0.40977 0.91941 1.02878
 C727 C 0.38850 0.89990 1.04341
 H728 H 0.30916 0.82278 1.07752
 H729 H 0.33787 0.86803 1.16295
 H730 H 0.46880 0.91294 1.08214
 H731 H 0.40295 0.93143 1.00729
 H732 H 0.38177 0.89028 1.13503
 H733 H 0.43141 0.87871 1.10790
 H734 H 0.35337 0.84459 1.04992
 H735 H 0.36579 0.89748 1.03283
 C736 C 0.62351 1.11660 1.10709
 C737 C 0.64337 1.13877 1.09395
 C738 C 0.66339 1.15546 1.11322
 C739 C 0.66434 1.14983 1.14590
 C740 C 0.64434 1.12777 1.15901
 C741 C 0.62393 1.11152 1.13983
 C742 C 0.60341 1.09766 1.08676
 C743 C 0.57213 1.09330 1.09449
 C744 C 0.55401 1.07285 1.07723
 C745 C 0.56702 1.05593 1.05230
 C746 C 0.59797 1.06120 1.04379
 C747 C 0.61593 1.08209 1.06072
 H748 H 0.67871 1.17215 1.10242
 H749 H 0.64443 1.12309 1.18412
 H750 H 0.53025 1.06914 1.08439
 H751 H 0.60853 1.04850 1.02462
 H752 H 0.60904 1.09432 1.15047
 H753 H 0.56193 1.10525 1.11433
 H754 H 0.64342 1.14309 1.06877
 H755 H 0.64003 1.08497 1.05439
 C756 C 0.63585 0.86468 0.87445
 C757 C 0.65042 0.87941 0.84888
 C758 C 0.67482 0.86479 0.83305
 C759 C 0.68545 0.83505 0.84240
 C760 C 0.67042 0.82003 0.86756
 C761 C 0.64595 0.83468 0.88341
 C762 C 0.61132 0.88136 0.89246
 C763 C 0.61065 0.87964 0.92556
 C764 C 0.59002 0.89830 0.94264
 C765 C 0.56973 0.91916 0.92697
 C766 C 0.56923 0.91962 0.89387
 C767 C 0.58972 0.90089 0.87682
 H768 H 0.68550 0.87711 0.81370
 H769 H 0.67779 0.79714 0.87552
 H770 H 0.59104 0.89749 0.96814
 H771 H 0.55369 0.93527 0.88110
 H772 H 0.63500 0.82255 0.90278
 H773 H 0.62712 0.86504 0.93837
 H774 H 0.64356 0.90270 0.84162
 H775 H 0.58915 0.90227 0.85134
   
