data_POSCAR
  _audit_creation_date              2014-09-24
  _audit_creation_method            'ToBaCCo'
  _symmetry_space_group_name_H-M    'P1'
  _symmetry_Int_Tables_number       1
  _symmetry_cell_setting            triclinic
  loop_
  _symmetry_equiv_pos_as_xyz
 x,y,z
_cell_length_a 19.6481
_cell_length_b 23.0183
_cell_length_c 21.1935
_cell_angle_alpha 90.194600
_cell_angle_beta 89.957800
_cell_angle_gamma 89.056100
loop_
  _atom_site_label
  _atom_site_type_symbol
  _atom_site_fract_x
  _atom_site_fract_y
  _atom_site_fract_z
B1 B -0.03123 -0.06260 0.03821
 B2 B 0.05341 -0.04956 0.05127
 B3 B 0.02561 -0.07494 -0.02002
 B4 B -0.05103 -0.04309 -0.03698
 B5 B -0.07118 0.00039 0.02279
 B6 B -0.00580 -0.00345 0.07752
 B7 B 0.04604 0.04044 -0.03137
 B8 B -0.03867 0.03008 -0.04247
 B9 B -0.01436 0.05326 0.03089
 B10 B 0.06464 0.02315 0.04459
 B11 B 0.08497 -0.02325 -0.01590
 B12 B 0.02022 -0.01840 -0.06825
 B13 B 0.53549 0.47770 0.56733
 B14 B 0.45363 0.46238 0.54712
 B15 B 0.47484 0.53289 0.56465
 B16 B 0.55429 0.54250 0.53390
 B17 B 0.58096 0.48019 0.50057
 B18 B 0.51883 0.43080 0.50799
 B19 B 0.46830 0.52290 0.43689
 B20 B 0.54973 0.53482 0.45466
 B21 B 0.52977 0.46615 0.44006
 B22 B 0.44937 0.45648 0.46689
 B23 B 0.42192 0.51831 0.50388
 B24 B 0.48486 0.56716 0.49597
 B25 B 0.54745 0.03831 0.53498
 B26 B 0.46249 0.02921 0.54487
 B27 B 0.48895 0.05253 0.47241
 B28 B 0.56707 0.02121 0.45906
 B29 B 0.58533 -0.02574 0.51914
 B30 B 0.51983 -0.02034 0.57071
 B31 B 0.46926 -0.06328 0.46285
 B32 B 0.55450 -0.05114 0.45109
 B33 B 0.52510 -0.07669 0.52171
 B34 B 0.44874 -0.04385 0.53814
 B35 B 0.43047 0.00036 0.47879
 B36 B 0.49642 -0.00413 0.42469
 B37 B -0.02914 0.51509 0.06829
 B38 B 0.05412 0.52294 0.04972
 B39 B 0.02660 0.45297 0.05741
 B40 B -0.05492 0.45322 0.03187
 B41 B -0.07725 0.51861 0.00172
 B42 B -0.00982 0.56269 0.01272
 B43 B 0.03189 0.47699 -0.06783
 B44 B -0.05113 0.46431 -0.04739
 B45 B -0.02491 0.53403 -0.05897
 B46 B 0.05639 0.53727 -0.02872
 B47 B 0.07855 0.47137 -0.00143
 B48 B 0.01034 0.42773 -0.01362
 B49 B 0.03799 0.44496 0.47949
 B50 B -0.03715 0.46641 0.44444
 B51 B -0.03716 0.44698 0.52598
 B52 B 0.03920 0.46889 0.55554
 B53 B 0.08092 0.50456 0.49812
 B54 B 0.03421 0.50304 0.43063
 B55 B -0.03617 0.56501 0.52180
 B56 B 0.04002 0.54214 0.55380
 B57 B 0.03579 0.56317 0.47619
 B58 B -0.03917 0.54091 0.44417
 B59 B -0.08174 0.50561 0.50110
 B60 B -0.03361 0.50753 0.56863
 B61 B 0.46946 -0.01536 -0.06935
 B62 B 0.55071 -0.03107 -0.04681
 B63 B 0.53035 0.03777 -0.06795
 B64 B 0.45255 0.05480 -0.04041
 B65 B 0.42397 -0.00025 -0.00232
 B66 B 0.48577 -0.05505 -0.00547
 B67 B 0.53781 0.03187 0.06200
 B68 B 0.45786 0.05306 0.04030
 B69 B 0.47032 -0.01910 0.06082
 B70 B 0.55220 -0.03538 0.03431
 B71 B 0.58222 0.02271 -0.00622
 B72 B 0.52357 0.07611 -0.00083
 B73 B 0.46483 0.56937 -0.02048
 B74 B 0.54147 0.54588 -0.05147
 B75 B 0.53620 0.56805 0.02569
 B76 B 0.46078 0.54671 0.05731
 B77 B 0.41924 0.51042 0.00028
 B78 B 0.46827 0.51132 -0.06667
 B79 B 0.53819 0.45005 0.02415
 B80 B 0.46257 0.47238 0.05826
 B81 B 0.46475 0.45155 -0.02351
 B82 B 0.54083 0.47280 -0.05228
 B83 B 0.58155 0.50899 0.00516
 B84 B 0.53381 0.50898 0.07220
 B85 B 0.03746 0.03478 0.44122
 B86 B -0.04380 0.05446 0.46315
 B87 B -0.02947 -0.01737 0.44156
 B88 B 0.05259 -0.03271 0.46792
 B89 B 0.08151 0.02544 0.50932
 B90 B 0.02173 0.07829 0.50462
 B91 B -0.03063 -0.01437 0.57188
 B92 B 0.05082 -0.02907 0.54907
 B93 B 0.02951 0.03949 0.57122
 B94 B -0.04875 0.05574 0.54405
 B95 B -0.07627 0.00049 0.50509
 B96 B -0.01363 -0.05358 0.50741
 B97 B 0.77835 0.32143 0.26084
 B98 B 0.69869 0.29964 0.27463
 B99 B 0.72112 0.31173 0.20005
 B100 B 0.80143 0.29161 0.19011
 B101 B 0.83049 0.26385 0.25796
 B102 B 0.76616 0.26682 0.31175
 B103 B 0.72574 0.19404 0.21844
 B104 B 0.80559 0.21873 0.19888
 B105 B 0.78695 0.20381 0.27540
 B106 B 0.70253 0.22571 0.28789
 B107 B 0.67386 0.25265 0.21837
 B108 B 0.73724 0.24802 0.16430
 B109 B 0.71646 0.81561 0.77516
 B110 B 0.69842 0.79134 0.69918
 B111 B 0.77464 0.82219 0.71840
 B112 B 0.79788 0.79634 0.79179
 B113 B 0.73375 0.75497 0.81877
 B114 B 0.67231 0.75345 0.76230
 B115 B 0.79113 0.70336 0.71309
 B116 B 0.80463 0.72138 0.78835
 B117 B 0.72618 0.69626 0.77076
 B118 B 0.70772 0.71931 0.69789
 B119 B 0.77116 0.76300 0.67172
 B120 B 0.83127 0.76616 0.72799
 B121 B 0.28955 0.18849 0.73179
 B122 B 0.20752 0.20809 0.71079
 B123 B 0.22242 0.19084 0.78747
 B124 B 0.30117 0.21558 0.80496
 B125 B 0.33005 0.25167 0.74060
 B126 B 0.27290 0.24410 0.68232
 B127 B 0.21658 0.30996 0.77854
 B128 B 0.29745 0.28853 0.79910
 B129 B 0.27919 0.30780 0.72191
 B130 B 0.20186 0.28180 0.70603
 B131 B 0.17225 0.24827 0.77014
 B132 B 0.22997 0.25343 0.82851
 B133 B 0.22040 0.80483 0.23485
 B134 B 0.30101 0.78709 0.21224
 B135 B 0.28461 0.80215 0.29003
 B136 B 0.21001 0.77634 0.30639
 B137 B 0.17675 0.74267 0.24226
 B138 B 0.23311 0.75008 0.18245
 B139 B 0.29375 0.68372 0.27404
 B140 B 0.21339 0.70462 0.30113
 B141 B 0.22714 0.68613 0.22234
 B142 B 0.30508 0.71350 0.20273
 B143 B 0.33685 0.74727 0.26813
 B144 B 0.28172 0.73776 0.32673
 B145 B 0.28998 0.70387 0.78782
 B146 B 0.30301 0.72096 0.71253
 B147 B 0.22455 0.69625 0.73046
 B148 B 0.20673 0.72017 0.80322
 B149 B 0.27032 0.76386 0.82889
 B150 B 0.33016 0.76634 0.77240
 B151 B 0.21555 0.81568 0.72550
 B152 B 0.19773 0.79210 0.80164
 B153 B 0.27393 0.82255 0.78211
 B154 B 0.29679 0.79589 0.70866
 B155 B 0.23229 0.75441 0.68205
 B156 B 0.17111 0.75377 0.73881
 B157 B 0.23713 0.19335 0.28729
 B158 B 0.31521 0.22333 0.30660
 B159 B 0.29975 0.20430 0.23111
 B160 B 0.21628 0.21897 0.21674
 B161 B 0.18173 0.24821 0.28206
 B162 B 0.24350 0.25062 0.33813
 B163 B 0.27945 0.32315 0.23873
 B164 B 0.20357 0.29142 0.22204
 B165 B 0.22213 0.31165 0.29829
 B166 B 0.30481 0.29703 0.31183
 B167 B 0.33833 0.26848 0.24594
 B168 B 0.27644 0.26419 0.19068
 B169 B 0.79310 0.68372 0.22693
 B170 B 0.71365 0.70689 0.19938
 B171 B 0.72552 0.68933 0.27805
 B172 B 0.80441 0.71450 0.29811
 B173 B 0.83844 0.74634 0.23260
 B174 B 0.78346 0.73758 0.17388
 B175 B 0.72315 0.80752 0.26487
 B176 B 0.80314 0.78808 0.28800
 B177 B 0.78761 0.80226 0.21007
 B178 B 0.71269 0.77828 0.19356
 B179 B 0.67781 0.74667 0.25746
 B180 B 0.73377 0.75341 0.31752
 B181 B 0.72096 0.18855 0.71632
 B182 B 0.70584 0.20719 0.79256
 B183 B 0.78793 0.18757 0.77172
 B184 B 0.79949 0.21305 0.69837
 B185 B 0.72813 0.25009 0.67419
 B186 B 0.67028 0.24613 0.73257
 B187 B 0.77689 0.30698 0.77936
 B188 B 0.79536 0.28585 0.70306
 B189 B 0.71471 0.30768 0.72294
 B190 B 0.69962 0.28106 0.79597
 B191 B 0.77092 0.24412 0.82042
 B192 B 0.82806 0.25064 0.76208
 C193 C 0.09699 0.35739 0.81192
 C194 C 0.05445 0.39534 0.84605
 C195 C 0.07680 0.44802 0.87243
 C196 C 0.14656 0.46172 0.85929
 C197 C 0.19123 0.41995 0.82915
 C198 C 0.16783 0.36561 0.80598
 C199 C 0.25935 0.43362 0.82406
 N200 N 0.28369 0.48464 0.84446
 N201 N 0.24249 0.52430 0.86969
 C202 C 0.17541 0.51500 0.87720
 H203 H 0.07321 0.31864 0.79428
 H204 H 0.00532 0.37856 0.85688
 H205 H 0.29297 0.40352 0.80499
 H206 H 0.14630 0.55124 0.89386
 C207 C 0.32524 0.57438 0.31384
 C208 C 0.36759 0.53981 0.35368
 C209 C 0.42765 0.56175 0.38145
 C210 C 0.44659 0.61912 0.36024
 C211 C 0.41644 0.64060 0.30474
 C212 C 0.34662 0.62916 0.29326
 C213 C 0.45531 0.67794 0.26741
 N214 N 0.50384 0.71017 0.29518
 N215 N 0.52001 0.70195 0.35535
 C216 C 0.49297 0.65795 0.38910
 H217 H 0.27491 0.55942 0.30179
 H218 H 0.35078 0.49751 0.36644
 H219 H 0.44237 0.68624 0.21872
 H220 H 0.50987 0.65517 0.43681
 C221 C 0.84325 0.92755 0.71606
 C222 C 0.89575 0.96001 0.68325
 C223 C 0.92879 0.93874 0.62713
 C224 C 0.90798 0.87864 0.61296
 C225 C 0.81698 0.88387 0.62148
 C226 C 0.80195 0.88489 0.68538
 C227 C 0.75887 0.86524 0.55780
 N228 N 0.79511 0.83618 0.49172
 N229 N 0.89741 0.82316 0.48787
 C230 C 0.94796 0.84162 0.54731
 H231 H 0.83071 0.94048 0.76350
 H232 H 0.91146 1.00107 0.70282
 H233 H 0.70664 0.87936 0.55923
 H234 H 0.92930 0.82469 0.50246
 C235 C 0.69524 0.12348 0.12641
 C236 C 0.65189 0.08926 0.09087
 C237 C 0.59113 0.06389 0.11458
 C238 C 0.58074 0.07211 0.18059
 C239 C 0.62757 0.10604 0.21853
 C240 C 0.68448 0.13568 0.19033
 C241 C 0.61501 0.10849 0.28373
 N242 N 0.55968 0.08280 0.30873
 N243 N 0.51533 0.05434 0.27333
 C244 C 0.52398 0.04825 0.21034
 H245 H 0.73582 0.14409 0.10079
 H246 H 0.66662 0.08705 0.04194
 H247 H 0.64938 0.12861 0.31587
 H248 H 0.48599 0.02524 0.18409
 C249 C 0.80318 0.12589 0.36705
 C250 C 0.84037 0.09639 0.41483
 C251 C 0.91101 0.10158 0.42107
 C252 C 0.94081 0.14624 0.38501
 C253 C 0.90848 0.16621 0.32889
 C254 C 0.83541 0.15955 0.32044
 C255 C 0.95204 0.19432 0.28595
 N256 N 1.01294 0.21484 0.30455
 N257 N 1.03485 0.20786 0.36320
 C258 C 1.00006 0.17515 0.40446
 H259 H 0.74851 0.12254 0.36743
 H260 H 0.81342 0.07077 0.44906
 H261 H 0.93912 0.20193 0.23843
 H262 H 1.01813 0.17437 0.45213
 C263 C 0.35943 0.39981 0.69544
 C264 C 0.40110 0.43175 0.65559
 C265 C 0.40517 0.42085 0.59075
 C266 C 0.36754 0.37254 0.56847
 C267 C 0.31354 0.35044 0.60567
 C268 C 0.31323 0.35786 0.67339
 C269 C 0.26335 0.32006 0.57243
 N270 N 0.27647 0.29782 0.51445
 N271 N 0.33548 0.30704 0.48602
 C272 C 0.38154 0.34356 0.51117
 H273 H 0.36773 0.40934 0.74345
 H274 H 0.43413 0.46343 0.67701
 H275 H 0.21380 0.31469 0.59142
 H276 H 0.42854 0.34835 0.48648
 C277 C 0.62528 0.89803 0.79899
 C278 C 0.58323 0.92536 0.84320
 C279 C 0.60084 0.92943 0.90780
 C280 C 0.66965 0.91362 0.92315
 C281 C 0.71342 0.89028 0.87511
 C282 C 0.68590 0.87098 0.81642
 C283 C 0.78384 0.89639 0.88398
 N284 N 0.80819 0.91771 0.93856
 N285 N 0.76787 0.93042 0.98688
 C286 C 0.69983 0.92644 0.98195
 H287 H 0.61379 0.90418 0.75018
 H288 H 0.54029 0.94880 0.82407
 H289 H 0.82043 0.88910 0.84742
 H290 H 0.67225 0.93526 1.02413
 C291 C 0.20330 0.62463 0.11550
 C292 C 0.16381 0.58819 0.07589
 C293 C 0.11118 0.55295 0.09958
 C294 C 0.10485 0.55279 0.16696
 C295 C 0.13757 0.59550 0.20474
 C296 C 0.18973 0.63196 0.18083
 C297 C 0.10770 0.60677 0.26278
 N298 N 0.06527 0.56939 0.29076
 N299 N 0.04342 0.52367 0.25950
 C300 C 0.05933 0.51658 0.19807
 H301 H 0.24174 0.65052 0.09328
 H302 H 0.17337 0.58943 0.02560
 H303 H 0.10147 0.65049 0.27482
 H304 H 0.02893 0.48903 0.17289
 C305 C 0.40636 0.85917 0.19010
 C306 C 0.43850 0.90651 0.15862
 C307 C 0.41751 0.93118 0.10069
 C308 C 0.35937 0.89867 0.06819
 C309 C 0.34059 0.82793 0.10450
 C310 C 0.34964 0.82729 0.16837
 C311 C 0.32992 0.75792 0.05928
 N312 N 0.33352 0.75327 -0.01993
 N313 N 0.34501 0.80623 -0.06550
 C314 C 0.35630 0.90186 -0.01801
 H315 H 0.42888 0.84588 0.23441
 H316 H 0.48333 0.92385 0.18093
 H317 H 0.32608 0.71755 0.08380
 H318 H 0.34149 0.91651 0.02804
 C319 C 0.57876 0.33676 0.32311
 C320 C 0.53986 0.37795 0.35878
 C321 C 0.57175 0.42491 0.38892
 C322 C 0.64082 0.43455 0.37096
 C323 C 0.66482 0.40773 0.31604
 C324 C 0.64577 0.34929 0.30462
 C325 C 0.70165 0.44359 0.27524
 N326 N 0.73749 0.48768 0.30050
 N327 N 0.73480 0.49756 0.36413
 C328 C 0.68428 0.47367 0.40123
 H329 H 0.55612 0.29640 0.30834
 H330 H 0.48628 0.37145 0.36643
 H331 H 0.70941 0.43381 0.22643
 H332 H 0.73233 0.49480 0.39701
 C333 C 0.84154 0.61349 0.82531
 C334 C 0.87698 0.57187 0.86165
 C335 C 0.93911 0.58340 0.89197
 C336 C 0.95849 0.64298 0.88926
 C337 C 0.91356 0.68769 0.86403
 C338 C 0.85461 0.67380 0.82885
 C339 C 0.93154 0.74531 0.87307
 N340 N 0.98937 0.75764 0.90308
 N341 N 1.03355 0.71696 0.92061
 C342 C 1.02161 0.66067 0.91204
 H343 H 0.80100 0.59724 0.79636
 H344 H 0.85249 0.53108 0.86738
 H345 H 0.90096 0.78149 0.85862
 H346 H 1.06341 0.63204 0.92108
 C347 C 0.17108 0.10698 0.67266
 C348 C 0.12774 0.06628 0.64729
 C349 C 0.06470 0.08267 0.62195
 C350 C 0.04798 0.14370 0.62327
 C351 C 0.09945 0.18522 0.63459
 C352 C 0.16078 0.16698 0.66572
 C353 C 0.08356 0.24334 0.61934
 N354 N 0.01875 0.25990 0.60651
 N355 N -0.03159 0.22224 0.60829
 C356 C -0.01940 0.16501 0.61757
 H357 H 0.20926 0.09061 0.70331
 H358 H 0.14474 0.02192 0.64906
 H359 H 0.12094 0.27585 0.61585
 H360 H -0.06264 0.13735 0.62324
 C361 C 0.11268 0.34076 0.35237
 C362 C 0.07201 0.36635 0.39586
 C363 C 0.09336 0.39738 0.44818
 C364 C 0.16601 0.40271 0.45158
 C365 C 0.20810 0.38704 0.39819
 C366 C 0.18086 0.35368 0.34729
 C367 C 0.27479 0.40697 0.39778
 N368 N 0.29911 0.43647 0.44802
 N369 N 0.26278 0.44497 0.50018
 C370 C 0.19817 0.42649 0.50461
 H371 H 0.08657 0.31358 0.31877
 H372 H 0.02411 0.36625 0.37858
 H373 H 0.30735 0.40143 0.35753
 H374 H 0.17215 0.43180 0.54917
 C375 C 0.31028 0.63503 0.88486
 C376 C 0.34733 0.61182 0.93606
 C377 C 0.41827 0.61974 0.94306
 C378 C 0.44788 0.65891 0.90061
 C379 C 0.41426 0.67419 0.84300
 C380 C 0.34163 0.66386 0.83443
 C381 C 0.45580 0.70127 0.79774
 N382 N 0.51756 0.72225 0.81319
 N383 N 0.54338 0.71553 0.87054
 C384 C 0.51051 0.68445 0.91465
 H385 H 0.25557 0.63095 0.88541
 H386 H 0.31965 0.58619 0.96988
 H387 H 0.44004 0.70792 0.75070
 H388 H 0.53472 0.67852 0.95953
 C389 C 0.70033 0.12691 0.61124
 C390 C 0.65792 0.09816 0.56736
 C391 C 0.59675 0.07231 0.58666
 C392 C 0.58479 0.07368 0.65373
 C393 C 0.61200 0.11952 0.68886
 C394 C 0.67802 0.14082 0.67335
 C395 C 0.56706 0.14302 0.73395
 N396 N 0.51518 0.11095 0.75637
 N397 N 0.50726 0.05653 0.73796
 C398 C 0.54357 0.03556 0.68889
 H399 H 0.74840 0.14231 0.59447
 H400 H 0.67438 0.09450 0.51871
 H401 H 0.56914 0.18669 0.75027
 H402 H 0.54257 -0.01055 0.68178
 C403 C 0.85662 0.89247 0.17986
 C404 C 0.90607 0.91622 0.14300
 C405 C 0.91907 0.89738 0.08038
 C406 C 0.87665 0.85364 0.05608
 C407 C 0.81936 0.83596 0.09152
 C408 C 0.81609 0.84833 0.15828
 C409 C 0.76776 0.80683 0.05801
 N410 N 0.78022 0.78520 -0.00033
 N411 N 0.83927 0.79382 -0.02900
 C412 C 0.88755 0.82768 -0.00293
 H413 H 0.85330 0.90849 0.22669
 H414 H 0.93590 0.94860 0.16679
 H415 H 0.71748 0.80131 0.07682
 H416 H 0.93240 0.83571 -0.02958
 C417 C 0.83565 0.08003 0.81540
 C418 C 0.87058 0.04717 0.86270
 C419 C 0.91753 0.07224 0.90526
 C420 C 0.93292 0.13181 0.89221
 C421 C 0.90573 0.16104 0.83852
 C422 C 0.84548 0.14036 0.80691
 C423 C 0.94557 0.20728 0.81532
 N424 N 0.99076 0.23445 0.85251
 N425 N 1.00546 0.21371 0.90898
 C426 C 0.97922 0.16296 0.92830
 H427 H 0.80416 0.05640 0.78292
 H428 H 0.86112 0.00118 0.86513
 H429 H 0.94607 0.21876 0.76599
 H430 H 0.99922 0.14514 0.96852
 C431 C 0.19291 0.63468 0.62768
 C432 C 0.15027 0.60181 0.58867
 C433 C 0.08992 0.57521 0.60909
 C434 C 0.07979 0.57770 0.67638
 C435 C 0.12579 0.60970 0.71737
 C436 C 0.18213 0.64186 0.69304
 C437 C 0.11401 0.60734 0.78234
 N438 N 0.06072 0.57803 0.80552
 N439 N 0.01770 0.55022 0.76860
 C440 C 0.02546 0.54892 0.70548
 H441 H 0.23439 0.65658 0.60470
 H442 H 0.16578 0.59865 0.54094
 H443 H 0.14848 0.62512 0.81597
 H444 H -0.01103 0.52430 0.68062
 C445 C 0.60485 0.85007 0.30480
 C446 C 0.57027 0.87753 0.35415
 C447 C 0.60208 0.91591 0.39651
 C448 C 0.67001 0.93193 0.37933
 C449 C 0.69989 0.90961 0.32265
 C450 C 0.67392 0.86076 0.29234
 C451 C 0.74883 0.94223 0.29286
 N452 N 0.78033 0.98478 0.32481
 N453 N 0.76295 0.99693 0.38407
 C454 C 0.70921 0.97211 0.41271
 H455 H 0.57717 0.81750 0.27905
 H456 H 0.51915 0.86408 0.36046
 H457 H 0.75580 0.93764 0.24289
 H458 H 0.69875 0.98480 0.46045
 C459 C 0.34907 0.42909 0.22118
 C460 C 0.39659 0.46058 0.18041
 C461 C 0.42560 0.43499 0.12399
 C462 C 0.40852 0.37413 0.11964
 C463 C 0.31924 0.37619 0.13363
 C464 C 0.30658 0.38313 0.19813
 C465 C 0.25950 0.35412 0.07410
 N466 N 0.29283 0.32372 0.00733
 N467 N 0.39559 0.31438 -0.00075
 C468 C 0.44724 0.33793 0.05401
 H469 H 0.34224 0.44393 0.26896
 H470 H 0.41208 0.50358 0.19438
 H471 H 0.21377 0.37884 0.07314
 H472 H 0.42741 0.31761 0.01149
 C473 C 0.69217 0.63711 0.10884
 C474 C 0.65083 0.60257 0.07354
 C475 C 0.58185 0.61716 0.06032
 C476 C 0.55583 0.66999 0.08577
 C477 C 0.59848 0.70588 0.12358
 C478 C 0.66618 0.68448 0.14120
 C479 C 0.56884 0.75918 0.14518
 N480 N 0.50350 0.77307 0.13287
 N481 N 0.46401 0.73793 0.10067
 C482 C 0.48749 0.68724 0.07712
 H483 H 0.74483 0.62466 0.11256
 H484 H 0.67565 0.56325 0.05679
 H485 H 0.59380 0.79196 0.17103
 H486 H 0.45156 0.66212 0.05179
 C487 C 0.08052 0.83631 0.83326
 C488 C 0.03830 0.86800 0.87359
 C489 C 0.05039 0.86888 0.93930
 C490 C 0.09336 0.82481 0.96290
 C491 C 0.13988 0.79496 0.92167
 C492 C 0.14092 0.81083 0.85518
 C493 C 0.17902 0.74939 0.94955
 N494 N 0.16937 0.73418 1.01061
 N495 N 0.12196 0.75965 1.04627
 C496 C 0.08278 0.80348 1.02353
 H497 H 0.06517 0.83154 0.78467
 H498 H -0.00344 0.89256 0.85283
 H499 H 0.21473 0.72284 0.92474
 H500 H 0.03866 0.81728 1.04965
 C501 C 0.36056 0.12478 0.34765
 C502 C 0.39619 0.08688 0.38608
 C503 C 0.45207 0.10332 0.42530
 C504 C 0.47332 0.16097 0.41550
 C505 C 0.42826 0.20292 0.38593
 C506 C 0.36974 0.18456 0.35028
 C507 C 0.44570 0.26105 0.39284
 N508 N 0.50492 0.27531 0.42151
 N509 N 0.55094 0.23577 0.43925
 C510 C 0.53830 0.17861 0.43388
 H511 H 0.32348 0.10564 0.31664
 H512 H 0.37924 0.04274 0.38141
 H513 H 0.41324 0.29570 0.37689
 H514 H 0.57674 0.14769 0.44939
 C515 C 0.90686 0.34289 0.67175
 C516 C 0.93963 0.38340 0.63202
 C517 C 0.91246 0.40459 0.57417
 C518 C 0.84635 0.38239 0.55663
 C519 C 0.83168 0.31194 0.59280
 C520 C 0.84703 0.31365 0.65518
 C521 C 0.83123 0.24066 0.54789
 N522 N 0.84068 0.23645 0.46824
 N523 N 0.84954 0.29104 0.42342
 C524 C 0.84709 0.38707 0.47470
 H525 H 0.92978 0.33392 0.71720
 H526 H 0.98798 0.39934 0.64844
 H527 H 0.83203 0.20067 0.57386
 H528 H 0.83370 0.42961 0.45516
 C529 C 0.82294 0.57260 0.18569
 C530 C 0.86679 0.53563 0.14903
 C531 C 0.93122 0.55376 0.12635
 C532 C 0.95225 0.60986 0.15070
 C533 C 0.91662 0.63460 0.20262
 C534 C 0.84508 0.62670 0.20848
 C535 C 0.95322 0.67113 0.24284
 N536 N 1.00598 0.70103 0.21938
 N537 N 1.02912 0.69011 0.16163
 C538 C 1.00478 0.64556 0.12672
 H539 H 0.77090 0.55976 0.19375
 H540 H 0.84755 0.49464 0.13394
 H541 H 0.93571 0.68077 0.28994
 H542 H 1.02834 0.64045 0.08183
 C543 C 0.59791 0.35505 0.68449
 C544 C 0.55750 0.39290 0.64877
 C545 C 0.58077 0.44603 0.62450
 C546 C 0.65031 0.45910 0.63887
 C547 C 0.69289 0.41740 0.67104
 C548 C 0.66801 0.36336 0.69362
 C549 C 0.76067 0.43052 0.67853
 N550 N 0.78711 0.48057 0.65804
 N551 N 0.74806 0.51996 0.63007
 C552 C 0.68123 0.51133 0.62016
 H553 H 0.57336 0.31632 0.70086
 H554 H 0.50930 0.37576 0.63571
 H555 H 0.79232 0.40016 0.69884
 H556 H 0.65422 0.54740 0.60093
 C557 C 0.19932 0.12620 0.38063
 C558 C 0.15247 0.09461 0.41580
 C559 C 0.09316 0.06757 0.39040
 C560 C 0.08647 0.07362 0.32388
 C561 C 0.13570 0.10588 0.28657
 C562 C 0.19280 0.13573 0.31574
 C563 C 0.12472 0.10662 0.22096
 N564 N 0.06964 0.08112 0.19511
 N565 N 0.02374 0.05408 0.22988
 C566 C 0.03036 0.04952 0.29313
 H567 H 0.23924 0.14731 0.40688
 H568 H 0.16349 0.09521 0.46561
 H569 H 0.15961 0.12542 0.18892
 H570 H -0.00897 0.02771 0.31884
 C571 C 0.34351 0.92746 0.78547
 C572 C 0.39596 0.95969 0.81882
 C573 C 0.42857 0.93819 0.87487
 C574 C 0.40729 0.87816 0.88839
 C575 C 0.31640 0.88397 0.87971
 C576 C 0.30167 0.88509 0.81569
 C577 C 0.25789 0.86567 0.94311
 N578 N 0.29359 0.83627 1.00904
 N579 N 0.39579 0.82270 1.01301
 C580 C 0.44669 0.84082 0.95378
 H581 H 0.33155 0.94028 0.73796
 H582 H 0.41187 1.00075 0.79977
 H583 H 0.20598 0.88067 0.94186
 H584 H 0.42773 0.82404 0.99849
 C585 C 0.12493 0.89864 0.70215
 C586 C 0.08321 0.92657 0.65839
 C587 C 0.10107 0.93126 0.59393
 C588 C 0.16987 0.91533 0.57846
 C589 C 0.21318 0.89077 0.62603
 C590 C 0.18525 0.87112 0.68436
 C591 C 0.28373 0.89606 0.61727
 N592 N 0.30857 0.91759 0.56311
 N593 N 0.26857 0.93178 0.51520
 C594 C 0.20043 0.92903 0.52013
 H595 H 0.11358 0.90489 0.75101
 H596 H 0.04044 0.95016 0.67790
 H597 H 0.32014 0.88817 0.65373
 H598 H 0.17315 0.93959 0.47835
 C599 C 0.69522 0.63478 0.38542
 C600 C 0.65201 0.60372 0.42602
 C601 C 0.59842 0.56938 0.40302
 C602 C 0.59150 0.56626 0.33514
 C603 C 0.62715 0.60647 0.29692
 C604 C 0.68299 0.63956 0.31996
 C605 C 0.59854 0.61797 0.23870
 N606 N 0.55567 0.58119 0.21018
 N607 N 0.53299 0.53552 0.24068
 C608 C 0.54684 0.52823 0.30247
 H609 H 0.73623 0.65843 0.40673
 H610 H 0.66201 0.60564 0.47622
 H611 H 0.59471 0.66176 0.22605
 H612 H 0.51755 0.49562 0.32372
 C613 C 0.31236 0.12299 0.14380
 C614 C 0.34671 0.09367 0.09448
 C615 C 0.41598 0.10090 0.08367
 C616 C 0.44725 0.14686 0.11753
 C617 C 0.41774 0.16749 0.17485
 C618 C 0.34641 0.15888 0.18729
 C619 C 0.46124 0.19880 0.21494
 N620 N 0.51983 0.22094 0.19274
 N621 N 0.53941 0.21218 0.13351
 C622 C 0.50462 0.17653 0.09491
 H623 H 0.25822 0.11813 0.14649
 H624 H 0.31854 0.06670 0.06233
 H625 H 0.44943 0.20750 0.26299
 H626 H 0.52068 0.17462 0.04661
 C627 C 0.85724 0.40051 0.80378
 C628 C 0.89648 0.43435 0.84396
 C629 C 0.89977 0.42370 0.90865
 C630 C 0.86298 0.37436 0.92995
 C631 C 0.80840 0.35358 0.89318
 C632 C 0.80986 0.35921 0.82572
 C633 C 0.75759 0.32414 0.92626
 N634 N 0.77169 0.29912 0.98248
 N635 N 0.83211 0.30561 1.00932
 C636 C 0.87827 0.34243 0.98491
 H637 H 0.86945 0.40808 0.75616
 H638 H 0.92967 0.46605 0.82293
 H639 H 0.70727 0.32140 0.90810
 H640 H 0.92602 0.34523 1.00833
 C641 C 0.67112 0.10608 0.83132
 C642 C 0.62830 0.06514 0.85660
 C643 C 0.56502 0.08115 0.88169
 C644 C 0.54743 0.14205 0.88034
 C645 C 0.59837 0.18396 0.86902
 C646 C 0.65994 0.16607 0.83803
 C647 C 0.58170 0.24211 0.88365
 N648 N 0.51658 0.25831 0.89584
 N649 N 0.46674 0.22015 0.89410
 C650 C 0.47973 0.16287 0.88551
 H651 H 0.70943 0.08978 0.80068
 H652 H 0.64581 0.02085 0.85496
 H653 H 0.61882 0.27485 0.88691
 H654 H 0.43686 0.13480 0.87964
 C655 C 0.34027 0.61224 0.67909
 C656 C 0.37717 0.56969 0.64507
 C657 C 0.43996 0.58099 0.61596
 C658 C 0.45924 0.64092 0.61860
 C659 C 0.41202 0.68590 0.63879
 C660 C 0.35273 0.67255 0.67338
 C661 C 0.42823 0.74331 0.62589
 N662 N 0.48755 0.75534 0.59817
 N663 N 0.53458 0.71486 0.58717
 C664 C 0.52385 0.65893 0.59963
 H665 H 0.29906 0.59671 0.70765
 H666 H 0.35324 0.52851 0.64000
 H667 H 0.39503 0.77929 0.63560
 H668 H 0.56724 0.63078 0.59591
 C669 C 0.09617 0.36051 0.19826
 C670 C 0.04766 0.38703 0.15944
 C671 C 0.06129 0.39449 0.09532
 C672 C 0.10265 0.34632 0.06816
 C673 C 0.13541 0.30452 0.10985
 C674 C 0.14328 0.31905 0.17525
 C675 C 0.16541 0.25361 0.08242
 N676 N 0.17023 0.24725 0.01940
 N677 N 0.14870 0.28856 -0.01913
 C678 C 0.11735 0.33736 0.00239
 H679 H 0.09639 0.37532 0.24571
 H680 H 0.00288 0.40597 0.18141
 H681 H 0.18044 0.21615 0.10817
 H682 H 0.10928 0.36763 -0.03422
 C683 C 0.90876 0.86000 0.31117
 C684 C 0.94020 0.90765 0.34313
 C685 C 0.91866 0.93216 0.40122
 C686 C 0.86077 0.89903 0.43330
 C687 C 0.84265 0.82824 0.39630
 C688 C 0.85215 0.82774 0.33242
 C689 C 0.83209 0.75810 0.44091
 N690 N 0.83548 0.75337 0.52010
 N691 N 0.84647 0.80635 0.56614
 C692 C 0.85719 0.90208 0.51948
 H693 H 0.93146 0.84703 0.26670
 H694 H 0.98477 0.92555 0.32099
 H695 H 0.82830 0.71772 0.41610
 H696 H 0.84256 0.91664 0.47351
 C697 C 0.81014 0.63292 0.61649
 C698 C 0.84682 0.60874 0.56530
 C699 C 0.91770 0.61633 0.55777
 C700 C 0.94762 0.65626 0.59959
 C701 C 0.91444 0.67235 0.65732
 C702 C 0.84195 0.66239 0.66644
 C703 C 0.95621 0.69987 0.70218
 N704 N 1.01766 0.72100 0.68602
 N705 N 1.04303 0.71365 0.62849
 C706 C 1.01008 0.68175 0.58492
 H707 H 0.75544 0.62879 0.61640
 H708 H 0.81895 0.58253 0.53199
 H709 H 0.94083 0.70657 0.74950
 H710 H 1.03418 0.67510 0.54006
 C711 C 0.61214 0.35470 0.15789
 C712 C 0.57127 0.37882 0.11377
 C713 C 0.59208 0.40259 0.05676
 C714 C 0.66476 0.40333 0.04906
 C715 C 0.70880 0.38478 0.09964
 C716 C 0.68189 0.35528 0.15258
 C717 C 0.77639 0.40215 0.09817
 N718 N 0.79899 0.43375 0.04905
 N719 N 0.76070 0.44496 -0.00116
 C720 C 0.69568 0.42738 -0.00430
 H721 H 0.58636 0.33583 0.19764
 H722 H 0.52405 0.38314 0.13258
 H723 H 0.81043 0.39450 0.13708
 H724 H 0.66861 0.43410 -0.04790
 C725 C 0.35538 0.89320 0.32056
 C726 C 0.40533 0.91665 0.35774
 C727 C 0.41875 0.89718 0.41989
 C728 C 0.37552 0.85374 0.44360
 C729 C 0.31748 0.83710 0.40828
 C730 C 0.31393 0.84923 0.34167
 C731 C 0.26536 0.80882 0.44167
 N732 N 0.27777 0.78653 0.49954
 N733 N 0.33732 0.79379 0.52779
 C734 C 0.38629 0.82701 0.50198
 H735 H 0.35175 0.90996 0.27407
 H736 H 0.43501 0.94953 0.33480
 H737 H 0.21493 0.80419 0.42282
 H738 H 0.43177 0.83374 0.52827
 C739 C 0.19914 0.13128 0.89401
 C740 C 0.15620 0.10231 0.93742
 C741 C 0.09581 0.07531 0.91743
 C742 C 0.08487 0.07660 0.85014
 C743 C 0.11249 0.12245 0.81531
 C744 C 0.17828 0.14406 0.83125
 C745 C 0.06791 0.14588 0.77011
 N746 N 0.01627 0.11375 0.74719
 N747 N 0.00819 0.05935 0.76519
 C748 C 0.04403 0.03844 0.81438
 H749 H 0.24654 0.14755 0.91151
 H750 H 0.17173 0.09934 0.98634
 H751 H 0.07010 0.18957 0.75410
 H752 H 0.04309 -0.00767 0.82099
 C753 C 0.10288 0.84598 0.19278
 C754 C 0.06838 0.87588 0.14539
 C755 C 0.10006 0.91661 0.10575
 C756 C 0.16711 0.93295 0.12515
 C757 C 0.19640 0.90830 0.18076
 C758 C 0.17110 0.85747 0.20721
 C759 C 0.24385 0.94018 0.21353
 N760 N 0.27478 0.98492 0.18513
 N761 N 0.25814 0.99990 0.12658
 C762 C 0.20575 0.97555 0.09529
 H763 H 0.07564 0.81155 0.21574
 H764 H 0.01771 0.86201 0.13808
 H765 H 0.25018 0.93291 0.26316
 H766 H 0.19574 0.99060 0.04836
 C767 C 0.86000 0.41798 0.27909
 C768 C 0.90478 0.45058 0.32076
 C769 C 0.92849 0.42731 0.37959
 C770 C 0.90866 0.36787 0.38566
 C771 C 0.81981 0.36865 0.36858
 C772 C 0.81405 0.37498 0.30265
 C773 C 0.75688 0.34364 0.42714
 N774 N 0.79023 0.31590 0.49485
 N775 N 0.89279 0.30959 0.50502
 C776 C 0.94519 0.33339 0.45236
 H777 H 0.85702 0.43009 0.23002
 H778 H 0.92288 0.49233 0.30554
 H779 H 0.70310 0.34122 0.41834
 H780 H 0.92422 0.31310 0.49417
 C781 C 0.33627 0.08058 0.68672
 C782 C 0.37116 0.04742 0.63929
 C783 C 0.41875 0.07196 0.59704
 C784 C 0.43466 0.13146 0.61031
 C785 C 0.40744 0.16094 0.66428
 C786 C 0.34689 0.14077 0.69601
 C787 C 0.44757 0.20690 0.68777
 N788 N 0.49319 0.23367 0.65083
 N789 N 0.50791 0.21295 0.59417
 C790 C 0.48140 0.16240 0.57426
 H791 H 0.30432 0.05717 0.71882
 H792 H 0.36114 0.00151 0.63651
 H793 H 0.44780 0.21855 0.73714
 H794 H 0.50130 0.14514 0.53324
 C795 C 0.69383 0.63786 0.87454
 C796 C 0.65078 0.60613 0.91378
 C797 C 0.59179 0.57765 0.89314
 C798 C 0.58379 0.57683 0.82559
 C799 C 0.63012 0.60804 0.78447
 C800 C 0.68449 0.64241 0.80885
 C801 C 0.62128 0.60215 0.71943
 N802 N 0.57013 0.57015 0.69612
 N803 N 0.52668 0.54296 0.73302
 C804 C 0.53179 0.54509 0.79633
 H805 H 0.73438 0.66105 0.89757
 H806 H 0.66495 0.60556 0.96176
 H807 H 0.65648 0.61960 0.68620
 H808 H 0.49550 0.52038 0.82121
 C809 C 0.40936 0.34691 0.82965
 C810 C 0.44330 0.38713 0.86945
 C811 C 0.41694 0.40842 0.92785
 C812 C 0.35177 0.38705 0.94568
 C813 C 0.33596 0.31649 0.91016
 C814 C 0.34980 0.31741 0.84705
 C815 C 0.33212 0.24647 0.95574
 N816 N 0.33961 0.24313 1.03534
 N817 N 0.34941 0.29789 1.07985
 C818 C 0.35208 0.39334 1.02776
 H819 H 0.43155 0.33786 0.78384
 H820 H 0.49150 0.40300 0.85260
 H821 H 0.33127 0.20612 0.93020
 H822 H 0.33562 0.43576 1.04612
 C823 C 0.85324 0.12011 0.15854
 C824 C 0.89056 0.08302 0.11957
 C825 C 0.94521 0.10146 0.07965
 C826 C 0.96258 0.15976 0.08882
 C827 C 0.91614 0.20061 0.11840
 C828 C 0.85966 0.18016 0.15531
 C829 C 0.93110 0.25969 0.11024
 N830 N 0.98611 0.27501 0.07705
 N831 N 1.03149 0.23612 0.05695
 C832 C 1.02506 0.17935 0.06835
 H833 H 0.81660 0.10065 0.18980
 H834 H 0.87585 0.03826 0.12364
 H835 H 0.90093 0.29526 0.12594
 H836 H 1.06544 0.14993 0.05335
 C837 C 0.58026 0.83488 0.66797
 C838 C 0.53731 0.86587 0.62775
 C839 C 0.54927 0.86678 0.56199
 C840 C 0.59303 0.82322 0.53818
 C841 C 0.63997 0.79388 0.57926
 C842 C 0.64098 0.80974 0.64585
 C843 C 0.67981 0.74879 0.55112
 N844 N 0.67141 0.73426 0.48965
 N845 N 0.62446 0.75975 0.45375
 C846 C 0.58406 0.80275 0.47680
 H847 H 0.56524 0.83042 0.71667
 H848 H 0.49535 0.89022 0.64866
 H849 H 0.71525 0.72213 0.57592
 H850 H 0.54099 0.81715 0.44959
 C851 C 0.19199 0.63373 0.39226
 C852 C 0.15073 0.59879 0.42784
 C853 C 0.08146 0.61257 0.44078
 C854 C 0.05501 0.66486 0.41450
 C855 C 0.09718 0.70086 0.37615
 C856 C 0.16589 0.68102 0.35964
 C857 C 0.06642 0.75331 0.35376
 N858 N 0.00119 0.76697 0.36680
 N859 N -0.03743 0.73205 0.39994
 C860 C -0.01339 0.68171 0.42339
 H861 H 0.24470 0.62156 0.38840
 H862 H 0.17542 0.55953 0.44462
 H863 H 0.09021 0.78561 0.32656
 H864 H -0.04894 0.65662 0.44902
   
