data_POSCAR
  _audit_creation_date              2014-09-24
  _audit_creation_method            'ToBaCCo'
  _symmetry_space_group_name_H-M    'P1'
  _symmetry_Int_Tables_number       1
  _symmetry_cell_setting            triclinic
  loop_
  _symmetry_equiv_pos_as_xyz
 x,y,z
_cell_length_a 36.1276
_cell_length_b 37.9082
_cell_length_c 36.6082
_cell_angle_alpha 90.571700
_cell_angle_beta 90.298200
_cell_angle_gamma 90.326400
loop_
  _atom_site_label
  _atom_site_type_symbol
  _atom_site_fract_x
  _atom_site_fract_y
  _atom_site_fract_z
C1 C 0.20192 0.20448 0.25500
 N2 N 0.18991 0.23674 0.24473
 C3 C 0.21098 0.25688 0.22239
 N4 N 0.24375 0.24443 0.20977
 C5 C 0.25581 0.21220 0.22024
 N6 N 0.23472 0.19217 0.24257
 C7 C -0.19497 0.81681 0.22321
 N8 N -0.21931 0.83478 0.20218
 C9 C -0.22740 0.82324 0.16787
 N10 N -0.21107 0.79376 0.15448
 C11 C -0.18668 0.77574 0.17539
 N12 N -0.17845 0.78734 0.20975
 C13 C -0.21162 0.19575 -0.23515
 N14 N -0.24790 0.18815 -0.22984
 C15 C -0.26720 0.20549 -0.20362
 N16 N -0.24997 0.23002 -0.18215
 C17 C -0.21364 0.23766 -0.18741
 N18 N -0.19440 0.22035 -0.21378
 C19 C 0.19354 0.78737 -0.23465
 N20 N 0.18309 0.75358 -0.22831
 C21 C 0.19831 0.73572 -0.20007
 N22 N 0.22344 0.75190 -0.17772
 C23 C 0.23383 0.78573 -0.18410
 N24 N 0.21872 0.80345 -0.21244
 C25 C 0.19974 1.22092 0.72657
 N26 N 0.23044 1.20490 0.73986
 C27 C 0.24951 1.21970 0.76823
 N28 N 0.23740 1.25018 0.78375
 C29 C 0.20673 1.26623 0.77040
 N30 N 0.18776 1.25138 0.74207
 C31 C 0.81841 0.80822 0.77412
 N32 N 0.78977 0.82612 0.78930
 C33 C 0.77672 0.81674 0.82258
 N34 N 0.79250 0.78962 0.84077
 C35 C 0.82116 0.77175 0.82570
 N36 N 0.83418 0.78114 0.79242
 C37 C 0.20885 0.78474 1.24228
 N38 N 0.19967 0.75100 1.23342
 C39 C 0.21280 0.73600 1.20235
 N40 N 0.23469 0.75501 1.17968
 C41 C 0.24388 0.78885 1.18848
 N42 N 0.23077 0.80376 1.21969
 C43 C 0.80317 1.19626 1.24867
 N44 N 0.76937 1.18291 1.23944
 C45 C 0.75011 1.19684 1.21112
 N46 N 0.76495 1.22370 1.19169
 C47 C 0.79871 1.23702 1.20082
 N48 N 0.81791 1.22314 1.22917
 O49 O 0.52134 0.96719 0.94062
 O50 O 0.45676 0.96269 1.03912
 O51 O 0.56604 1.00318 1.01593
 O52 O 0.41043 0.99641 0.95834
 O53 O 0.52717 0.96934 1.04584
 O54 O 0.45571 0.96231 0.94725
 O55 O 0.41113 0.99642 1.02433
 O56 O 0.56061 1.00821 0.94896
 C57 C 0.55410 0.97670 0.94124
 C58 C 0.42283 0.96708 1.03541
 C59 C 0.55935 0.97650 1.03544
 C60 C 0.42194 0.96620 0.95058
 O61 O 0.44679 1.02680 0.91632
 O62 O 0.51884 1.03479 1.06648
 O63 O 0.52873 1.07094 0.95591
 O64 O 0.43553 1.06433 1.02456
 O65 O 0.45037 1.02810 1.06633
 O66 O 0.51334 1.03382 0.91304
 O67 O 0.43829 1.06376 0.95932
 O68 O 0.54268 1.06844 1.02431
 Co69 Co 0.48440 0.99916 0.93432
 Co70 Co 0.48764 1.00014 1.04819
 Co71 Co 0.54328 1.03578 0.98635
 Co72 Co 0.42894 1.02898 0.99133
 O73 O 0.48632 1.01591 0.99045
 C74 C 0.43719 1.05702 0.92626
 C75 C 0.53716 1.06173 1.05722
 C76 C 0.52335 1.06449 0.92288
 C77 C 0.43917 1.05802 1.05745
 O78 O 0.02316 0.45637 0.08272
 O79 O 0.02680 0.51698 -0.06962
 O80 O 0.05919 0.44057 -0.02588
 O81 O 0.06659 0.53221 0.04051
 O82 O 0.01948 0.45191 -0.06731
 O83 O 0.02848 0.52001 0.08397
 O84 O 0.06298 0.54179 -0.02833
 O85 O 0.06076 0.44633 0.03938
 C86 C 0.05470 0.44713 0.07258
 C87 C 0.05567 0.53421 -0.06092
 C88 C 0.05129 0.44198 -0.05872
 C89 C 0.06033 0.52948 0.07373
 O90 O -0.04191 0.52460 0.05663
 O91 O -0.04822 0.45893 -0.03965
 O92 O -0.00891 0.41870 0.04267
 O93 O -0.00521 0.56427 -0.02113
 O94 O -0.04182 0.52600 -0.04885
 O95 O -0.04578 0.46129 0.05251
 O96 O 0.00028 0.56234 0.04588
 O97 O -0.01186 0.41663 -0.02316
 Co98 Co -0.00749 0.49041 0.06390
 Co99 Co -0.00934 0.48822 -0.05005
 Co100 Co 0.02336 0.43542 0.00834
 Co101 Co 0.02920 0.54426 0.00947
 O102 O 0.00864 0.48979 0.00759
 C103 C -0.03233 0.55590 0.05474
 C104 C -0.04296 0.42684 -0.03472
 C105 C -0.04046 0.42907 0.05138
 C106 C -0.03356 0.55721 -0.04034
 O107 O 1.06987 0.02292 0.46604
 O108 O 0.94817 0.03109 0.54437
 O109 O 0.96511 0.00941 0.42992
 O110 O 1.01318 0.03897 0.55078
 O111 O 0.94921 0.03996 0.47802
 O112 O 1.06782 0.02344 0.53460
 O113 O 0.97194 0.00534 0.59222
 O114 O 1.03237 0.00143 0.42310
 C115 C 1.05818 0.02240 0.43350
 C116 C 0.94629 0.02579 0.57867
 C117 C 0.95283 0.03759 0.44408
 C118 C 1.04675 0.04594 0.54849
 O119 O 1.06555 -0.04775 0.53206
 O120 O 0.92100 -0.02281 0.46639
 O121 O 1.02429 -0.06680 0.44274
 O122 O 0.98163 -0.05204 0.55758
 O123 O 0.93030 -0.03788 0.53229
 O124 O 1.07397 -0.04423 0.46520
 O125 O 1.03863 -0.02054 0.57580
 O126 O 0.96139 -0.06015 0.45454
 Co127 Co 1.06300 -0.01145 0.49995
 Co128 Co 0.94347 0.00068 0.50486
 Co129 Co 0.99573 -0.02758 0.44245
 Co130 Co 0.99681 -0.00704 0.55160
 O131 O 1.00259 -0.01270 0.49748
 C132 C 1.05990 -0.04444 0.56539
 C133 C 0.92872 -0.05217 0.45358
 C134 C 1.05831 -0.06734 0.44623
 C135 C 0.94845 -0.05879 0.55178
 C136 C 1.07804 0.07386 0.34717
 C137 C 1.10677 0.09611 0.35929
 C138 C 1.11928 0.09428 0.39538
 C139 C 1.10338 0.07029 0.41932
 C140 C 1.18026 0.18349 0.27585
 C141 C 1.06197 0.04972 0.37120
 C142 C 1.12453 0.12034 0.33495
 C143 C 1.14095 0.14065 0.31573
 C144 C 1.16165 0.16407 0.29411
 C145 C 1.07462 0.04762 0.40753
 H146 H 1.06822 0.07506 0.31920
 H147 H 1.14156 0.11130 0.40500
 H148 H 1.11378 0.06949 0.44710
 H149 H 1.03979 0.03273 0.36137
 C150 C 0.85006 -0.07811 0.39023
 C151 C 0.86131 -0.11194 0.37931
 C152 C 0.89161 -0.12763 0.39646
 C153 C 0.91198 -0.10889 0.42275
 C154 C 0.81416 -0.17047 0.25692
 C155 C 0.87036 -0.05932 0.41681
 C156 C 0.84518 -0.12884 0.34758
 C157 C 0.83392 -0.14266 0.31983
 C158 C 0.82271 -0.15813 0.28628
 C159 C 0.90232 -0.07411 0.43227
 H160 H 0.82678 -0.06561 0.37693
 H161 H 0.90069 -0.15368 0.38814
 H162 H 0.93647 -0.12094 0.43427
 H163 H 0.86250 -0.03249 0.42345
 C164 C 0.90481 0.06677 0.66368
 C165 C 0.88287 0.09336 0.64874
 C166 C 0.88086 0.09722 0.61080
 C167 C 0.90106 0.07483 0.58788
 C168 C 0.80906 0.17565 0.73864
 C169 C 0.92503 0.04438 0.64083
 C170 C 0.86262 0.11670 0.67247
 C171 C 0.84580 0.13590 0.69281
 C172 C 0.82609 0.15776 0.71723
 C173 C 0.92357 0.04836 0.60271
 H174 H 0.90648 0.06349 0.69301
 H175 H 0.86389 0.11766 0.59895
 H176 H 0.89941 0.07850 0.55862
 H177 H 0.94203 0.02417 0.65302
 C178 C 1.11928 -0.11701 0.60435
 C179 C 1.11198 -0.11361 0.64169
 C180 C 1.08767 -0.08757 0.65415
 C181 C 1.07071 -0.06494 0.62934
 C182 C 1.17702 -0.19397 0.73847
 C183 C 1.10235 -0.09443 0.57949
 C184 C 1.12976 -0.13650 0.66733
 C185 C 1.14471 -0.15527 0.68918
 C186 C 1.16218 -0.17655 0.71537
 C187 C 1.07794 -0.06812 0.59175
 H188 H 1.13810 -0.13707 0.59446
 H189 H 1.08188 -0.08473 0.68303
 H190 H 1.05198 -0.04500 0.63957
 H191 H 1.10840 -0.09755 0.55069
 C192 C 0.40124 1.09612 1.14548
 C193 C 0.38886 1.12907 1.13365
 C194 C 0.39639 1.14000 1.09808
 C195 C 0.41455 1.11745 1.07382
 C196 C 0.28676 1.19816 1.20527
 C197 C 0.41961 1.07351 1.12124
 C198 C 0.36434 1.14970 1.15598
 C199 C 0.34166 1.16617 1.17296
 C200 C 0.31293 1.18418 1.19105
 C201 C 0.42534 1.08356 1.08482
 H202 H 0.39527 1.08730 1.17289
 H203 H 0.38673 1.16533 1.08856
 H204 H 0.41881 1.12602 1.04601
 H205 H 0.42765 1.04759 1.13046
 C206 C 0.33337 0.91600 0.92984
 C207 C 0.34727 0.88447 0.91531
 C208 C 0.38545 0.87854 0.91527
 C209 C 0.40975 0.90461 0.92831
 C210 C 0.25774 0.80276 0.83880
 C211 C 0.35765 0.94214 0.94288
 C212 C 0.32279 0.85994 0.89701
 C213 C 0.30241 0.84055 0.87997
 C214 C 0.27849 0.81938 0.85836
 C215 C 0.39613 0.93706 0.94130
 H216 H 0.30386 0.92090 0.92987
 H217 H 0.39651 0.85430 0.90395
 H218 H 0.43925 0.89986 0.92692
 H219 H 0.34637 0.96676 0.95299
 C220 C 0.65587 0.94132 1.05275
 C221 C 0.64798 0.91233 1.07486
 C222 C 0.61125 0.90324 1.08219
 C223 C 0.58245 0.92359 1.06843
 C224 C 0.74842 0.84138 1.14687
 C225 C 0.62700 0.96176 1.03882
 C226 C 0.67717 0.89301 1.09220
 C227 C 0.70049 0.87671 1.10834
 C228 C 0.72667 0.85762 1.12867
 C229 C 0.58999 0.95345 1.04713
 H230 H 0.68428 0.94858 1.04698
 H231 H 0.60487 0.88089 1.09932
 H232 H 0.55430 0.91633 1.07521
 H233 H 0.63368 0.98450 1.02238
 C234 C 0.56322 1.14832 0.88536
 C235 C 0.57640 1.13642 0.85160
 C236 C 0.56618 1.10288 0.83852
 C237 C 0.54538 1.08025 0.86047
 C238 C 0.69760 1.19529 0.80382
 C239 C 0.54265 1.12574 0.90738
 C240 C 0.60602 1.15544 0.83445
 C241 C 0.63325 1.16977 0.82271
 C242 C 0.66724 1.18452 0.81159
 C243 C 0.53520 1.09088 0.89590
 H244 H 0.57117 1.17411 0.89588
 H245 H 0.57654 1.09326 0.81257
 H246 H 0.54005 1.05355 0.85095
 H247 H 0.53490 1.13471 0.93445
 C248 C 0.09558 0.40669 0.15756
 C249 C 0.12911 0.39374 0.14406
 C250 C 0.14008 0.40193 0.10853
 C251 C 0.11674 0.42129 0.08588
 C252 C 0.19654 0.28944 0.20888
 C253 C 0.07219 0.42617 0.13495
 C254 C 0.14970 0.36818 0.16449
 C255 C 0.16575 0.34486 0.17997
 C256 C 0.18306 0.31568 0.19630
 C257 C 0.08199 0.43255 0.09847
 H258 H 0.08670 0.40028 0.18494
 H259 H 0.16586 0.39186 0.09773
 H260 H 0.12511 0.42595 0.05797
 H261 H 0.04563 0.43457 0.14539
 C262 C -0.08818 0.34002 -0.06173
 C263 C -0.11940 0.35166 -0.08085
 C264 C -0.12744 0.38770 -0.08176
 C265 C -0.10354 0.41214 -0.06501
 C266 C -0.19495 0.26247 -0.16372
 C267 C -0.06421 0.36443 -0.04495
 C268 C -0.14142 0.32705 -0.10203
 C269 C -0.15900 0.30669 -0.12089
 C270 C -0.17873 0.28292 -0.14382
 C271 C -0.07110 0.40083 -0.04729
 H272 H -0.08167 0.31218 -0.06087
 H273 H -0.15150 0.39703 -0.09650
 H274 H -0.10969 0.43997 -0.06724
 H275 H -0.03956 0.35487 -0.03140
 C276 C 0.13826 0.57780 -0.10366
 C277 C 0.12343 0.58840 -0.13711
 C278 C 0.08818 0.57657 -0.14792
 C279 C 0.06689 0.55609 -0.12421
 C280 C 0.18488 0.70116 -0.19149
 C281 C 0.11699 0.55770 -0.07988
 C282 C 0.14170 0.61613 -0.15664
 C283 C 0.15632 0.64147 -0.17005
 C284 C 0.17233 0.67302 -0.18272
 C285 C 0.08057 0.54789 -0.08931
 H286 H 0.16537 0.58702 -0.09490
 H287 H 0.07629 0.58496 -0.17361
 H288 H 0.03885 0.54899 -0.13203
 H289 H 0.12829 0.55152 -0.05324
 C290 C -0.11144 0.60436 0.10023
 C291 C -0.09935 0.63940 0.09759
 C292 C -0.06665 0.64714 0.07893
 C293 C -0.04550 0.61996 0.06393
 C294 C -0.16867 0.74528 0.16037
 C295 C -0.09034 0.57706 0.08513
 C296 C -0.11952 0.66744 0.11509
 C297 C -0.13552 0.69146 0.12980
 C298 C -0.15355 0.72021 0.14667
 C299 C -0.05679 0.58459 0.06741
 H300 H -0.13676 0.59808 0.11458
 H301 H -0.05710 0.67417 0.07661
 H302 H -0.01991 0.62658 0.05026
 H303 H -0.09970 0.55007 0.08824
 C304 C 1.11745 0.11408 0.57789
 C305 C 1.09894 0.13126 0.60632
 C306 C 1.06170 0.12322 0.61314
 C307 C 1.04359 0.09685 0.59266
 C308 C 1.17906 0.20487 0.70011
 C309 C 1.09954 0.08767 0.55759
 C310 C 1.11955 0.15401 0.63077
 C311 C 1.13795 0.17134 0.65191
 C312 C 1.16016 0.18997 0.67747
 C313 C 1.06281 0.07806 0.56549
 H314 H 1.14627 0.11999 0.57245
 H315 H 1.04718 0.13624 0.63526
 H316 H 1.01535 0.08984 0.59942
 H317 H 1.11495 0.07376 0.53668
 C318 C 0.93262 -0.13018 0.62111
 C319 C 0.89392 -0.13081 0.62280
 C320 C 0.87322 -0.11187 0.59725
 C321 C 0.89113 -0.09062 0.57164
 C322 C 0.83245 -0.18151 0.74144
 C323 C 0.95057 -0.10894 0.59562
 C324 C 0.87588 -0.14718 0.65341
 C325 C 0.86151 -0.15921 0.68031
 C326 C 0.84548 -0.17176 0.71292
 C327 C 0.93000 -0.08786 0.57154
 H328 H 0.94896 -0.14461 0.64079
 H329 H 0.84326 -0.11202 0.59836
 H330 H 0.87452 -0.07460 0.55360
 H331 H 0.98051 -0.10733 0.59634
 C332 C 1.14027 -0.11349 0.40355
 C333 C 1.12256 -0.13665 0.37903
 C334 C 1.08392 -0.13952 0.37904
 C335 C 1.06295 -0.11825 0.40238
 C336 C 1.19364 -0.19979 0.27222
 C337 C 1.11936 -0.09221 0.42696
 C338 C 1.14360 -0.15513 0.35168
 C339 C 1.16040 -0.16971 0.32757
 C340 C 1.17895 -0.18607 0.29816
 C341 C 1.08043 -0.09372 0.42595
 H342 H 1.17016 -0.11097 0.40368
 H343 H 1.06992 -0.15728 0.36008
 H344 H 1.03305 -0.12003 0.40090
 H345 H 1.13365 -0.07356 0.44474
 C346 C 0.89770 0.11554 0.40999
 C347 C 0.90309 0.11253 0.37222
 C348 C 0.92749 0.08717 0.35849
 C349 C 0.94519 0.06394 0.38217
 C350 C 0.82338 0.18112 0.27570
 C351 C 0.91552 0.09236 0.43380
 C352 C 0.88167 0.13341 0.34720
 C353 C 0.86332 0.14951 0.32542
 C354 C 0.84169 0.16704 0.29899
 C355 C 0.93869 0.06570 0.42001
 H356 H 0.87882 0.13502 0.42093
 H357 H 0.93189 0.08457 0.32934
 H358 H 0.96299 0.04382 0.37071
 H359 H 0.90986 0.09430 0.46277
 C360 C 0.08831 0.40344 -0.14697
 C361 C 0.12284 0.39099 -0.13544
 C362 C 0.13520 0.39815 -0.09986
 C363 C 0.11253 0.41629 -0.07537
 C364 C 0.19256 0.29486 -0.21219
 C365 C 0.06557 0.42172 -0.12250
 C366 C 0.14371 0.36751 -0.15843
 C367 C 0.16032 0.34608 -0.17640
 C368 C 0.17846 0.31919 -0.19616
 C369 C 0.07706 0.42741 -0.08615
 H370 H 0.07837 0.39783 -0.17440
 H371 H 0.16177 0.38848 -0.09058
 H372 H 0.12224 0.42045 -0.04761
 H373 H 0.03843 0.43002 -0.13157
 C374 C -0.12316 0.39178 0.10142
 C375 C -0.11574 0.35558 0.09963
 C376 C -0.08570 0.34342 0.07918
 C377 C -0.06222 0.36737 0.06191
 C378 C -0.18569 0.26261 0.18010
 C379 C -0.09973 0.41582 0.08404
 C380 C -0.13698 0.33104 0.12092
 C381 C -0.15338 0.30999 0.13939
 C382 C -0.17127 0.28474 0.16138
 C383 C -0.06844 0.40387 0.06495
 H384 H -0.14630 0.40149 0.11722
 H385 H -0.07969 0.31548 0.07758
 H386 H -0.03847 0.35738 0.04722
 H387 H -0.10519 0.44378 0.08688
 C388 C -0.06816 0.64931 -0.06064
 C389 C -0.09676 0.64205 -0.08561
 C390 C -0.10604 0.60703 -0.09410
 C391 C -0.08625 0.57937 -0.07846
 C392 C -0.16261 0.74507 -0.15567
 C393 C -0.04828 0.62168 -0.04496
 C394 C -0.11542 0.67043 -0.10386
 C395 C -0.13062 0.69401 -0.11984
 C396 C -0.14802 0.72154 -0.13908
 C397 C -0.05672 0.58638 -0.05415
 H398 H -0.06073 0.67633 -0.05385
 H399 H -0.12810 0.60109 -0.11340
 H400 H -0.09348 0.55254 -0.08614
 H401 H -0.02580 0.62799 -0.02629
 C402 C 0.10083 0.57684 0.15574
 C403 C 0.13568 0.58635 0.14226
 C404 C 0.14786 0.57210 0.10909
 C405 C 0.12426 0.55071 0.08810
 C406 C 0.20037 0.70131 0.19186
 C407 C 0.07718 0.55525 0.13482
 C408 C 0.15606 0.61507 0.15887
 C409 C 0.17167 0.64098 0.17067
 C410 C 0.18808 0.67296 0.18262
 C411 C 0.08806 0.54345 0.09999
 H412 H 0.09101 0.58795 0.18127
 H413 H 0.17467 0.57942 0.09828
 H414 H 0.13346 0.54180 0.06147
 H415 H 0.04943 0.55017 0.14461
 C416 C 0.38905 1.13803 0.89027
 C417 C 0.37984 1.12724 0.85469
 C418 C 0.39228 1.09462 0.84144
 C419 C 0.41263 1.07232 0.86417
 C420 C 0.28016 1.20124 0.78418
 C421 C 0.40926 1.11579 0.91301
 C422 C 0.35484 1.14826 0.83326
 C423 C 0.33249 1.16546 0.81664
 C424 C 0.30485 1.18507 0.79856
 C425 C 0.42047 1.08231 0.90051
 H426 H 0.37949 1.16314 0.90088
 H427 H 0.38520 1.08592 0.81400
 H428 H 0.42091 1.04672 0.85378
 H429 H 0.41498 1.12430 0.94082
 C430 C 0.38666 0.88370 1.07912
 C431 C 0.34879 0.89080 1.08151
 C432 C 0.33464 0.92157 1.06596
 C433 C 0.35848 0.94578 1.04934
 C434 C 0.26605 0.80950 1.16406
 C435 C 0.41051 0.90784 1.06260
 C436 C 0.32520 0.86779 1.10234
 C437 C 0.30620 0.84894 1.12100
 C438 C 0.28448 0.82739 1.14391
 C439 C 0.39683 0.93958 1.04833
 H440 H 0.39796 0.86001 1.09106
 H441 H 0.30536 0.92736 1.06765
 H442 H 0.34709 0.96989 1.03847
 H443 H 0.43985 0.90216 1.06212
 C444 C 0.59308 1.13614 1.09942
 C445 C 0.60097 1.12266 1.13401
 C446 C 0.58407 1.09121 1.14512
 C447 C 0.56088 1.07241 1.12097
 C448 C 0.71562 1.18130 1.19945
 C449 C 0.57018 1.11735 1.07524
 C450 C 0.62979 1.13901 1.15575
 C451 C 0.65563 1.15251 1.17164
 C452 C 0.68744 1.16812 1.18772
 C453 C 0.55480 1.08471 1.08530
 H454 H 0.60608 1.16036 1.09045
 H455 H 0.59016 1.08040 1.17175
 H456 H 0.54959 1.04727 1.12943
 H457 H 0.56593 1.12761 1.04804
 C458 C 0.60390 0.89802 0.90023
 C459 C 0.64066 0.90996 0.90073
 C460 C 0.64922 0.94297 0.91616
 C461 C 0.62112 0.96430 0.93019
 C462 C 0.74700 0.83614 0.83912
 C463 C 0.57573 0.91930 0.91432
 C464 C 0.66944 0.88903 0.88428
 C465 C 0.69369 0.87203 0.87012
 C466 C 0.72233 0.85254 0.85334
 C467 C 0.58400 0.95292 0.92893
 H468 H 0.59694 0.87251 0.88839
 H469 H 0.67756 0.95247 0.91678
 H470 H 0.62838 0.98996 0.94147
 H471 H 0.54743 0.90980 0.91303
   
