data_POSCAR
  _audit_creation_date              2014-09-24
  _audit_creation_method            'ToBaCCo'
  _symmetry_space_group_name_H-M    'P1'
  _symmetry_Int_Tables_number       1
  _symmetry_cell_setting            triclinic
  loop_
  _symmetry_equiv_pos_as_xyz
 x,y,z
_cell_length_a 50.2871
_cell_length_b 49.7138
_cell_length_c 30.3454
_cell_angle_alpha 89.984600
_cell_angle_beta 89.972200
_cell_angle_gamma 119.705200
loop_
  _atom_site_label
  _atom_site_type_symbol
  _atom_site_fract_x
  _atom_site_fract_y
  _atom_site_fract_z
C1 C 0.49508 0.93428 0.54075
 C2 C 0.48592 0.91898 0.49997
 C3 C 0.49418 0.93506 0.46006
 C4 C 0.51199 0.96770 0.46004
 C5 C 0.52178 0.98388 0.50054
 C6 C 0.51430 0.96713 0.54087
 C7 C 0.52857 0.98343 0.57958
 C8 C 0.54645 1.01547 0.57966
 C9 C 0.55089 1.03294 0.54110
 C10 C 0.53983 1.01687 0.50063
 C11 C 0.52069 0.98452 0.42048
 C12 C 0.53872 1.01655 0.42054
 C13 C 0.54759 1.03351 0.46018
 C14 C 0.56599 1.06640 0.46044
 C15 C 0.57681 1.08163 0.50097
 C16 C 0.56849 1.06584 0.54146
 H17 H 0.52699 0.97155 0.61014
 H18 H 0.55758 1.02633 0.61028
 H19 H 0.51407 0.97306 0.38884
 H20 H 0.54622 1.02764 0.38883
 H21 H 0.47107 0.89406 0.49893
 H22 H 0.58930 1.10674 0.50116
 C23 C -0.06511 0.49789 0.46007
 C24 C -0.08093 0.49099 0.50007
 C25 C -0.06570 0.49763 0.54087
 C26 C -0.03304 0.51381 0.54108
 C27 C -0.01670 0.52083 0.50057
 C28 C -0.03279 0.51289 0.46000
 C29 C -0.01611 0.52109 0.42035
 C30 C 0.01570 0.53601 0.42041
 C31 C 0.03218 0.54355 0.46012
 C32 C 0.01589 0.53646 0.50057
 C33 C -0.01617 0.52531 0.58033
 C34 C 0.01564 0.54041 0.58036
 C35 C 0.03213 0.54548 0.54099
 C36 C 0.06452 0.56054 0.54082
 C37 C 0.08020 0.56725 0.50068
 C38 C 0.06459 0.55891 0.46049
 H39 H -0.02745 0.51645 0.38872
 H40 H 0.02722 0.54204 0.38885
 H41 H -0.02728 0.52358 0.61152
 H42 H 0.02718 0.54868 0.61162
 H43 H -0.10575 0.47825 0.49908
 H44 H 0.10501 0.57859 0.50074
 C45 C 0.43512 0.50069 0.54067
 C46 C 0.42787 0.50896 0.49996
 C47 C 0.43746 0.50268 0.45997
 C48 C 0.45438 0.48693 0.45980
 C49 C 0.46142 0.47758 0.50024
 C50 C 0.45109 0.48366 0.54064
 C51 C 0.45459 0.47007 0.57928
 C52 C 0.47090 0.45425 0.57922
 C53 C 0.48454 0.45114 0.54049
 C54 C 0.47810 0.46129 0.50016
 C55 C 0.46339 0.47925 0.42009
 C56 C 0.47958 0.46332 0.42001
 C57 C 0.48749 0.45442 0.45964
 C58 C 0.50353 0.43778 0.45967
 C59 C 0.51025 0.42847 0.49959
 C60 C 0.50202 0.43567 0.54038
 H61 H 0.44387 0.47058 0.60992
 H62 H 0.47177 0.44356 0.60981
 H63 H 0.45753 0.48496 0.38849
 H64 H 0.48536 0.45759 0.38835
 H65 H 0.41618 0.52235 0.49909
 H66 H 0.52389 0.41709 0.49858
 O67 O 0.37269 0.66145 -0.05177
 O68 O 0.38120 0.71681 -0.03707
 C69 C 0.36394 0.72385 -0.05898
 O70 O 0.33579 0.71280 -0.05025
 O71 O 0.28121 0.66616 -0.03592
 C72 C 0.27448 0.64213 -0.05873
 O73 O 0.28558 0.62464 -0.05090
 O74 O 0.33178 0.61565 -0.03750
 C75 C 0.35556 0.63295 -0.06010
 O76 O 0.37314 0.65144 0.03577
 O77 O 0.37892 0.70571 0.05045
 C78 C 0.36773 0.72299 0.05924
 O79 O 0.34579 0.72223 0.03732
 O80 O 0.29232 0.67386 0.05166
 C81 C 0.27531 0.64528 0.05970
 O82 O 0.27610 0.62423 0.03683
 O83 O 0.32408 0.61822 0.05023
 C84 C 0.35235 0.62949 0.05832
 Cr85 Cr 0.37486 0.68321 -0.00064
 Cr86 Cr 0.31442 0.69276 0.00068
 Cr87 Cr 0.30537 0.62233 -0.00033
 O88 O 0.33156 0.66611 -0.00010
 O89 O 0.62153 0.32628 -0.05195
 O90 O 0.62777 0.27811 -0.03685
 C91 C 0.64899 0.27728 -0.05864
 O92 O 0.67710 0.29458 -0.04982
 O93 O 0.72444 0.34899 -0.03594
 C94 C 0.72507 0.37073 -0.05893
 O95 O 0.70783 0.38202 -0.05116
 O96 O 0.65394 0.37605 -0.03800
 C97 C 0.63245 0.35478 -0.06048
 O98 O 0.61810 0.33463 0.03549
 O99 O 0.62709 0.28818 0.05062
 C100 C 0.64449 0.27731 0.05979
 O101 O 0.66864 0.28418 0.03788
 O102 O 0.71428 0.33969 0.05173
 C103 C 0.72503 0.36825 0.05960
 O104 O 0.71817 0.38535 0.03660
 O105 O 0.66314 0.37637 0.04979
 C106 C 0.63494 0.35886 0.05791
 Cr107 Cr 0.62525 0.30780 -0.00066
 Cr108 Cr 0.69511 0.31750 0.00092
 Cr109 Cr 0.68515 0.37831 -0.00068
 O110 O 0.66850 0.33453 -0.00014
 C111 C 0.46042 0.90772 -0.34732
 C112 C 0.45969 0.87930 -0.34417
 C113 C 0.47058 0.86909 -0.37905
 C114 C 0.48234 0.88725 -0.41686
 C115 C 0.48384 0.91631 -0.42028
 C116 C 0.47220 0.92599 -0.38510
 C117 C 0.44748 0.86034 -0.30545
 C118 C 0.43726 0.84410 -0.27334
 C119 C 0.42524 0.82471 -0.23613
 C120 C 0.41487 0.80784 -0.20467
 C121 C 0.40232 0.78736 -0.16747
 C122 C 0.42078 0.77920 -0.14285
 C123 C 0.40840 0.75872 -0.10734
 C124 C 0.37731 0.74609 -0.09601
 C125 C 0.35900 0.75460 -0.12088
 C126 C 0.37145 0.77508 -0.15634
 H127 H 0.45161 0.91563 -0.32074
 H128 H 0.47005 0.84706 -0.37701
 H129 H 0.49110 0.87890 -0.44291
 H130 H 0.47138 0.94732 -0.38725
 H131 H 0.44470 0.78852 -0.15125
 H132 H 0.42313 0.75264 -0.08898
 H133 H 0.33500 0.74532 -0.11314
 H134 H 0.35694 0.78120 -0.17525
 C135 C 0.12299 0.60746 -0.37174
 C136 C 0.11959 0.58423 -0.34235
 C137 C 0.09782 0.55330 -0.35083
 C138 C 0.07961 0.54560 -0.38862
 C139 C 0.08288 0.56882 -0.41815
 C140 C 0.10479 0.59979 -0.40955
 C141 C 0.13892 0.59203 -0.30409
 C142 C 0.15532 0.59846 -0.27230
 C143 C 0.17476 0.60587 -0.23538
 C144 C 0.19158 0.61209 -0.20411
 C145 C 0.21190 0.61938 -0.16710
 C146 C 0.22419 0.60031 -0.15692
 C147 C 0.24437 0.60757 -0.12151
 C148 C 0.25257 0.63409 -0.09572
 C149 C 0.23995 0.65305 -0.10612
 C150 C 0.21977 0.64572 -0.14158
 H151 H 0.13987 0.63144 -0.36561
 H152 H 0.09513 0.53513 -0.32845
 H153 H 0.06316 0.52155 -0.39511
 H154 H 0.10779 0.61794 -0.43218
 H155 H 0.21829 0.57988 -0.17651
 H156 H 0.25366 0.59249 -0.11451
 H157 H 0.24580 0.67365 -0.08704
 H158 H 0.21042 0.66067 -0.14922
 C159 C 0.39210 0.52178 -0.37883
 C160 C 0.41329 0.53452 -0.34450
 C161 C 0.44165 0.53586 -0.34795
 C162 C 0.44880 0.52444 -0.38554
 C163 C 0.42751 0.51110 -0.42027
 C164 C 0.39918 0.51038 -0.41647
 C165 C 0.40610 0.54676 -0.30618
 C166 C 0.39996 0.55716 -0.27437
 C167 C 0.39267 0.56952 -0.23743
 C168 C 0.38640 0.58026 -0.20612
 C169 C 0.37889 0.59330 -0.16904
 C170 C 0.39750 0.62461 -0.15852
 C171 C 0.39002 0.63748 -0.12297
 C172 C 0.36375 0.61917 -0.09739
 C173 C 0.34524 0.58766 -0.10817
 C174 C 0.35279 0.57485 -0.14376
 H175 H 0.37010 0.52072 -0.37656
 H176 H 0.45842 0.54611 -0.32184
 H177 H 0.47144 0.52702 -0.38801
 H178 H 0.38207 0.50026 -0.44217
 H179 H 0.41774 0.63911 -0.17792
 H180 H 0.40476 0.66181 -0.11567
 H181 H 0.32485 0.57291 -0.08926
 H182 H 0.33819 0.55059 -0.15167
 C183 C 0.61215 0.12898 -0.37677
 C184 C 0.59041 0.12119 -0.34333
 C185 C 0.56154 0.09489 -0.34772
 C186 C 0.55441 0.07640 -0.38537
 C187 C 0.57620 0.08368 -0.41926
 C188 C 0.60510 0.11057 -0.41451
 C189 C 0.59751 0.14057 -0.30495
 C190 C 0.60352 0.15700 -0.27302
 C191 C 0.61069 0.17650 -0.23591
 C192 C 0.61701 0.19340 -0.20448
 C193 C 0.62488 0.21392 -0.16727
 C194 C 0.60194 0.21530 -0.14294
 C195 C 0.60970 0.23572 -0.10736
 C196 C 0.64058 0.25507 -0.09567
 C197 C 0.66345 0.25334 -0.12026
 C198 C 0.65562 0.23291 -0.15578
 H199 H 0.63457 0.14937 -0.37377
 H200 H 0.54436 0.08890 -0.32231
 H201 H 0.53141 0.05697 -0.38860
 H202 H 0.62258 0.11704 -0.43956
 H203 H 0.57807 0.20072 -0.15161
 H204 H 0.59153 0.23648 -0.08922
 H205 H 0.68743 0.26789 -0.11225
 H206 H 0.67357 0.23206 -0.17443
 C207 C 0.87112 0.47690 -0.37787
 C208 C 0.87891 0.46240 -0.34489
 C209 C 0.90503 0.45949 -0.34968
 C210 C 0.92344 0.47124 -0.38716
 C211 C 0.91628 0.48653 -0.42036
 C212 C 0.88945 0.48863 -0.41540
 C213 C 0.85988 0.45028 -0.30638
 C214 C 0.84371 0.44023 -0.27433
 C215 C 0.82449 0.42857 -0.23707
 C216 C 0.80782 0.41870 -0.20549
 C217 C 0.78758 0.40703 -0.16813
 C218 C 0.76870 0.41941 -0.15778
 C219 C 0.74856 0.40779 -0.12206
 C220 C 0.74701 0.38355 -0.09613
 C221 C 0.76624 0.37138 -0.10668
 C222 C 0.78637 0.38306 -0.14246
 H223 H 0.85088 0.47918 -0.37457
 H224 H 0.91101 0.44787 -0.32464
 H225 H 0.94283 0.46755 -0.39072
 H226 H 0.88304 0.50017 -0.44001
 H227 H 0.76943 0.43795 -0.17747
 H228 H 0.73409 0.41768 -0.11496
 H229 H 0.76560 0.35270 -0.08750
 H230 H 0.80086 0.37328 -0.15023
 C231 C 0.52490 0.39375 -0.37923
 C232 C 0.53717 0.41534 -0.34505
 C233 C 0.53762 0.44361 -0.34856
 C234 C 0.52577 0.45026 -0.38606
 C235 C 0.51289 0.42854 -0.42064
 C236 C 0.51307 0.40032 -0.41678
 C237 C 0.54967 0.40857 -0.30671
 C238 C 0.56014 0.40260 -0.27489
 C239 C 0.57235 0.39523 -0.23795
 C240 C 0.58272 0.38860 -0.20665
 C241 C 0.59499 0.38026 -0.16959
 C242 C 0.61880 0.40321 -0.14459
 C243 C 0.63094 0.39500 -0.10896
 C244 C 0.61939 0.36364 -0.09786
 C245 C 0.59538 0.34076 -0.12319
 C246 C 0.58330 0.34904 -0.15877
 H247 H 0.52449 0.37180 -0.37689
 H248 H 0.54748 0.46070 -0.32254
 H249 H 0.52764 0.47286 -0.38859
 H250 H 0.50332 0.38287 -0.44234
 H251 H 0.62805 0.42746 -0.15273
 H252 H 0.64943 0.41319 -0.09024
 H253 H 0.58596 0.31641 -0.11566
 H254 H 0.56489 0.33108 -0.17794
 C255 C 0.87904 0.48898 0.36997
 C256 C 0.87961 0.46620 0.34348
 C257 C 0.89863 0.45413 0.35479
 C258 C 0.91692 0.46471 0.39250
 C259 C 0.91652 0.48763 0.41906
 C260 C 0.89734 0.49958 0.40768
 C261 C 0.86018 0.45466 0.30531
 C262 C 0.84371 0.44466 0.27357
 C263 C 0.82423 0.43254 0.23669
 C264 C 0.80741 0.42183 0.20544
 C265 C 0.78712 0.40861 0.16842
 C266 C 0.77510 0.37725 0.15827
 C267 C 0.75504 0.36416 0.12275
 C268 C 0.74670 0.38230 0.09682
 C269 C 0.75901 0.41386 0.10723
 C270 C 0.77908 0.42690 0.14280
 H271 H 0.86428 0.49835 0.36165
 H272 H 0.89911 0.43637 0.33469
 H273 H 0.93123 0.45489 0.40122
 H274 H 0.89653 0.51703 0.42809
 H275 H 0.78114 0.36287 0.17792
 H276 H 0.74600 0.33980 0.11576
 H277 H 0.75305 0.42848 0.08804
 H278 H 0.78822 0.45120 0.15042
 C279 C 0.55658 0.09909 0.35419
 C280 C 0.58642 0.12332 0.34716
 C281 C 0.60934 0.12885 0.37778
 C282 C 0.60258 0.11005 0.41505
 C283 C 0.57280 0.08495 0.42202
 C284 C 0.54974 0.08022 0.39143
 C285 C 0.59354 0.14270 0.30876
 C286 C 0.59971 0.15907 0.27671
 C287 C 0.60708 0.17841 0.23936
 C288 C 0.61342 0.19509 0.20764
 C289 C 0.62097 0.21522 0.17001
 C290 C 0.64743 0.22316 0.14548
 C291 C 0.65502 0.24317 0.10940
 C292 C 0.63620 0.25553 0.09739
 C293 C 0.60955 0.24724 0.12220
 C294 C 0.60203 0.22724 0.15822
 H295 H 0.53853 0.09494 0.33106
 H296 H 0.63250 0.14767 0.37280
 H297 H 0.62093 0.11465 0.43786
 H298 H 0.52621 0.06236 0.39683
 H299 H 0.66229 0.21402 0.15437
 H300 H 0.67571 0.24909 0.09112
 H301 H 0.59456 0.25633 0.11396
 H302 H 0.58151 0.22128 0.17702
 C303 C 0.51470 0.39241 0.36846
 C304 C 0.53722 0.41623 0.34278
 C305 C 0.54851 0.44716 0.35511
 C306 C 0.53737 0.45424 0.39299
 C307 C 0.51466 0.43043 0.41870
 C308 C 0.50353 0.39947 0.40633
 C309 C 0.54913 0.40891 0.30429
 C310 C 0.55929 0.40275 0.27229
 C311 C 0.57143 0.39552 0.23511
 C312 C 0.58204 0.38936 0.20363
 C313 C 0.59504 0.38204 0.16640
 C314 C 0.62591 0.40123 0.15569
 C315 C 0.63883 0.39385 0.12018
 C316 C 0.62101 0.36710 0.09484
 C317 C 0.58991 0.34805 0.10573
 C318 C 0.57705 0.35550 0.14129
 H319 H 0.50592 0.36840 0.35934
 H320 H 0.56605 0.46576 0.33562
 H321 H 0.54650 0.47823 0.40246
 H322 H 0.48624 0.38083 0.42606
 H323 H 0.64006 0.42181 0.17495
 H324 H 0.66283 0.40901 0.11280
 H325 H 0.57555 0.32728 0.08701
 H326 H 0.55313 0.34046 0.14935
 C327 C 0.12194 0.60447 0.37114
 C328 C 0.11995 0.58071 0.34412
 C329 C 0.09955 0.54975 0.35489
 C330 C 0.08126 0.54259 0.39260
 C331 C 0.08309 0.56636 0.41968
 C332 C 0.10367 0.59734 0.40883
 C333 C 0.13922 0.58816 0.30580
 C334 C 0.15563 0.59469 0.27398
 C335 C 0.17515 0.60268 0.23702
 C336 C 0.19208 0.60977 0.20571
 C337 C 0.21257 0.61858 0.16863
 C338 C 0.21404 0.59592 0.14309
 C339 C 0.23432 0.60455 0.10748
 C340 C 0.25343 0.63603 0.09696
 C341 C 0.25166 0.65861 0.12281
 C342 C 0.23137 0.64991 0.15837
 H343 H 0.13773 0.62848 0.36322
 H344 H 0.09794 0.53119 0.33434
 H345 H 0.06582 0.51856 0.40088
 H346 H 0.10555 0.61593 0.42958
 H347 H 0.19961 0.57159 0.15079
 H348 H 0.23511 0.58657 0.08836
 H349 H 0.26603 0.68303 0.11572
 H350 H 0.23044 0.66764 0.17797
 C351 C 0.49242 0.89553 0.35257
 C352 C 0.46105 0.88002 0.34301
 C353 C 0.44065 0.88290 0.37144
 C354 C 0.45154 0.90111 0.40935
 C355 C 0.48295 0.91673 0.41903
 C356 C 0.50334 0.91375 0.39052
 C357 C 0.44963 0.86064 0.30458
 C358 C 0.43980 0.84410 0.27272
 C359 C 0.42805 0.82441 0.23579
 C360 C 0.41787 0.80733 0.20454
 C361 C 0.40562 0.78661 0.16757
 C362 C 0.38139 0.78521 0.14308
 C363 C 0.36914 0.76466 0.10767
 C364 C 0.38098 0.74518 0.09630
 C365 C 0.40544 0.74688 0.12108
 C366 C 0.41764 0.76745 0.15644
 H367 H 0.50837 0.89333 0.33091
 H368 H 0.41633 0.87090 0.36446
 H369 H 0.43552 0.90299 0.43125
 H370 H 0.52760 0.92540 0.39785
 H371 H 0.37188 0.79991 0.15149
 H372 H 0.35031 0.76393 0.08938
 H373 H 0.41510 0.73223 0.11330
 H374 H 0.43636 0.76831 0.17523
 C375 C 0.44650 0.54845 0.35577
 C376 C 0.41590 0.53679 0.34336
 C377 C 0.39242 0.51378 0.36887
 C378 C 0.39949 0.50250 0.40667
 C379 C 0.43012 0.51398 0.41911
 C380 C 0.45359 0.53718 0.39359
 C381 C 0.40852 0.54872 0.30489
 C382 C 0.40210 0.55872 0.27290
 C383 C 0.39428 0.57043 0.23575
 C384 C 0.38734 0.58043 0.20428
 C385 C 0.37870 0.59234 0.16704
 C386 C 0.34775 0.58001 0.15641
 C387 C 0.33918 0.59191 0.12085
 C388 C 0.36150 0.61638 0.09537
 C389 C 0.39260 0.62850 0.10620
 C390 C 0.40110 0.61654 0.14181
 H391 H 0.46483 0.56636 0.33640
 H392 H 0.36868 0.50470 0.35968
 H393 H 0.38112 0.48481 0.42625
 H394 H 0.47731 0.54660 0.40312
 H395 H 0.33022 0.56130 0.17577
 H396 H 0.31505 0.58206 0.11352
 H397 H 0.41037 0.64735 0.08737
 H398 H 0.42513 0.62628 0.14981
   
