data_POSCAR
  _audit_creation_date              2014-09-24
  _audit_creation_method            'ToBaCCo'
  _symmetry_space_group_name_H-M    'P1'
  _symmetry_Int_Tables_number       1
  _symmetry_cell_setting            triclinic
  loop_
  _symmetry_equiv_pos_as_xyz
 x,y,z
_cell_length_a 44.4234
_cell_length_b 46.0132
_cell_length_c 46.0442
_cell_angle_alpha 89.942600
_cell_angle_beta 89.899500
_cell_angle_gamma 89.989700
loop_
  _atom_site_label
  _atom_site_type_symbol
  _atom_site_fract_x
  _atom_site_fract_y
  _atom_site_fract_z
C1 C 0.33963 0.37568 1.37086
 N2 N 0.35297 0.35162 1.38219
 C3 C 0.37585 0.33827 1.36778
 N4 N 0.38547 0.34928 1.34198
 C5 C 0.37263 0.37358 1.33074
 N6 N 0.34965 0.38663 1.34517
 C7 C 1.15923 0.62897 0.86920
 N8 N 1.14730 0.61668 0.84501
 C9 C 1.12255 0.62832 0.83223
 N10 N 1.10971 0.65255 0.84371
 C11 C 1.12144 0.66505 0.86792
 N12 N 1.14620 0.65315 0.88057
 C13 C 0.65505 -0.13016 0.12491
 N14 N 0.64322 -0.11784 0.14919
 C15 C 0.62003 -0.13076 0.16346
 N16 N 0.60850 -0.15614 0.15331
 C17 C 0.61984 -0.16842 0.12876
 N18 N 0.64319 -0.15538 0.11476
 C19 C -0.15567 1.12960 -0.36944
 N20 N -0.14158 1.15265 -0.38186
 C21 C -0.11732 1.16505 -0.36884
 N22 N -0.10695 1.15391 -0.34336
 C23 C -0.12083 1.13066 -0.33093
 N24 N -0.14534 1.11880 -0.34391
 C25 C 0.65420 0.63208 0.62196
 N26 N 0.64188 0.61918 0.64571
 C27 C 0.61952 0.63266 0.66072
 N28 N 0.60922 0.65897 0.65166
 C29 C 0.62109 0.67176 0.62762
 N30 N 0.64381 0.65836 0.61310
 C31 C 0.83950 0.36775 0.12714
 N32 N 0.85317 0.38180 0.14950
 C33 C 0.87712 0.36952 0.16316
 N34 N 0.88783 0.34346 0.15393
 C35 C 0.87454 0.32941 0.13143
 N36 N 0.85009 0.34144 0.11845
 C37 C 0.34225 0.12409 0.87522
 N38 N 0.35450 0.14929 0.88499
 C39 C 0.37707 0.16237 0.87001
 N40 N 0.38722 0.15028 0.84499
 C41 C 0.37529 0.12497 0.83514
 N42 N 0.35276 0.11190 0.85030
 C43 C 0.15992 0.87245 0.37752
 N44 N 0.14903 0.88344 0.35221
 C45 C 0.12746 0.86900 0.33722
 N46 N 0.11672 0.84343 0.34759
 C47 C 0.12679 0.83258 0.37325
 N48 N 0.14847 0.84714 0.38816
 Zn49 Zn 0.00899 1.03166 -0.01270
 Zn50 Zn -0.02477 0.97540 -0.02137
 Zn51 Zn 0.03429 0.97626 0.00984
 Zn52 Zn -0.01971 1.00255 0.03772
 O53 O -0.00038 0.99641 0.00327
 O54 O -0.00738 1.03602 -0.04782
 O55 O -0.00820 0.94116 -0.03233
 O56 O 0.06743 0.99512 -0.00206
 O57 O -0.03282 0.99505 -0.05435
 O58 O 0.04854 1.03682 -0.01763
 O59 O 0.03496 0.94230 -0.00839
 O60 O 0.00047 0.98852 0.06842
 O61 O -0.06065 0.96639 -0.00508
 O62 O 0.03989 0.96791 0.04734
 O63 O -0.05590 0.98610 0.03857
 O64 O -0.02660 1.04003 0.04508
 O65 O -0.00395 1.06204 0.00833
 C66 C -0.02428 1.01994 -0.06312
 C67 C 0.01674 0.92961 -0.02529
 C68 C 0.07081 1.02023 -0.01297
 C69 C 0.02479 0.97413 0.06988
 C70 C -0.07104 0.97193 0.02005
 C71 C -0.01911 1.06298 0.03167
 Zn72 Zn 0.53721 -0.01236 0.48995
 Zn73 Zn 0.47740 -0.01683 0.52012
 Zn74 Zn 0.50879 0.04038 0.51566
 Zn75 Zn 0.48295 0.01364 0.46245
 O76 O 0.50153 0.00614 0.49707
 O77 O 0.53934 -0.04666 0.50786
 O78 O 0.46731 0.00022 0.55399
 O79 O 0.54785 0.04608 0.52269
 O80 O 0.49513 -0.05063 0.52987
 O81 O 0.56945 0.00788 0.50211
 O82 O 0.49093 0.04239 0.55019
 O83 O 0.47769 0.05165 0.45580
 O84 O 0.44247 -0.02583 0.50272
 O85 O 0.49587 0.07151 0.49587
 O86 O 0.44627 -0.00237 0.46077
 O87 O 0.50312 -0.00031 0.43166
 O88 O 0.54299 -0.02038 0.45233
 C89 C 0.52100 -0.06066 0.52371
 C90 C 0.47435 0.02490 0.56423
 C91 C 0.57115 0.03155 0.51616
 C92 C 0.48343 0.07380 0.47120
 C93 C 0.43167 -0.01838 0.47830
 C94 C 0.52751 -0.01456 0.42995
 Zn95 Zn 0.96206 0.47976 0.49153
 Zn96 Zn 1.02180 0.47810 0.52162
 Zn97 Zn 1.01515 0.50771 0.46361
 Zn98 Zn 0.98801 0.53424 0.51606
 O99 O 0.99681 0.49987 0.49826
 O100 O 0.96170 0.44519 0.50899
 O101 O 1.05734 0.47039 0.50435
 O102 O 0.99486 0.49413 0.43292
 O103 O 1.00579 0.44336 0.53129
 O104 O 0.95609 0.47221 0.45379
 O105 O 1.05179 0.49204 0.46163
 O106 O 1.00187 0.56545 0.49694
 O107 O 1.03022 0.49591 0.55553
 O108 O 1.02071 0.54565 0.45713
 O109 O 1.00397 0.53665 0.55141
 O110 O 0.94847 0.53970 0.52070
 O111 O 0.92910 0.49862 0.50401
 C112 C 0.98065 0.43198 0.52478
 C113 C 1.06733 0.47722 0.47938
 C114 C 0.97088 0.47929 0.43128
 C115 C 1.01503 0.56775 0.47260
 C116 C 1.02123 0.52005 0.56574
 C117 C 0.92600 0.52354 0.51545
 Zn118 Zn 0.48295 0.49120 0.96040
 Zn119 Zn 0.47599 0.52065 1.01842
 Zn120 Zn 0.50889 0.46395 1.01309
 Zn121 Zn 0.53619 0.51801 0.98907
 O122 O 0.50093 0.49853 0.99529
 O123 O 0.44654 0.50746 0.95806
 O124 O 0.46616 0.50256 1.05189
 O125 O 0.49571 0.43310 0.99321
 O126 O 0.44109 0.52948 1.00058
 O127 O 0.47732 0.45331 0.95343
 O128 O 0.49150 0.46128 1.04785
 O129 O 0.56860 0.49866 1.00208
 O130 O 0.49271 0.55484 1.02888
 O131 O 0.54818 0.45811 1.01898
 O132 O 0.53697 0.55228 1.00684
 O133 O 0.54285 0.52589 0.95148
 O134 O 0.50384 0.50501 0.93012
 C135 C 0.43123 0.52284 0.97555
 C136 C 0.47417 0.47803 1.06195
 C137 C 0.48302 0.43103 0.96867
 C138 C 0.57102 0.47391 1.01403
 C139 C 0.51824 0.56568 1.02272
 C140 C 0.52809 0.51949 0.92881
 C141 C 1.26469 0.41086 0.40958
 N142 N 1.27918 0.38806 0.42203
 N143 N 1.30384 0.37694 0.40978
 C144 C 1.31492 0.38825 0.38466
 N145 N 1.30061 0.41130 0.37248
 N146 N 1.27595 0.42236 0.38468
 C147 C 1.23647 0.42209 0.42185
 N148 N 1.22083 0.44298 0.40755
 N149 N 1.19448 0.45232 0.41771
 C150 C 1.18279 0.44117 0.44258
 N151 N 1.19852 0.42043 0.45707
 N152 N 1.22488 0.41101 0.44685
 C153 C 1.15313 0.45085 0.45284
 N154 N 1.14154 0.44123 0.47843
 N155 N 1.11425 0.44972 0.48713
 C156 C 1.09759 0.46799 0.47045
 N157 N 1.10924 0.47759 0.44492
 N158 N 1.13650 0.46922 0.43631
 C159 C 0.23640 0.59520 0.90495
 N160 N 0.22262 0.61848 0.91727
 N161 N 0.19744 0.62933 0.90585
 C162 C 0.18509 0.61726 0.88171
 N163 N 0.19881 0.59385 0.86957
 N164 N 0.22400 0.58307 0.88093
 C165 C 0.26470 0.58371 0.91678
 N166 N 0.27965 0.56225 0.90261
 N167 N 0.30573 0.55223 0.91271
 C168 C 0.31782 0.56321 0.93743
 N169 N 0.30280 0.58458 0.95174
 N170 N 0.27673 0.59469 0.94157
 C171 C 0.34699 0.55248 0.94792
 N172 N 0.35862 0.56171 0.97358
 N173 N 0.38537 0.55215 0.98262
 C174 C 0.40147 0.53312 0.96624
 N175 N 0.38979 0.52392 0.94063
 N176 N 0.36305 0.53336 0.93168
 C177 C -0.26926 0.90452 0.08695
 N178 N -0.28262 0.88062 0.07548
 N179 N -0.30748 0.86965 0.08748
 C180 C -0.31995 0.88220 0.11136
 N181 N -0.30676 0.90633 0.12256
 N182 N -0.28188 0.91723 0.11062
 C183 C -0.24083 0.91568 0.07499
 N184 N -0.22588 0.93726 0.08891
 N185 N -0.19940 0.94659 0.07908
 C186 C -0.18687 0.93480 0.05490
 N187 N -0.20193 0.91338 0.04077
 N188 N -0.22841 0.90393 0.05070
 C189 C -0.15706 0.94459 0.04508
 N190 N -0.14493 0.93514 0.01966
 N191 N -0.11757 0.94388 0.01139
 C192 C -0.10135 0.96223 0.02838
 N193 N -0.11355 0.97161 0.05373
 N194 N -0.14087 0.96301 0.06189
 C195 C 0.76551 0.09681 0.59362
 N196 N 0.77105 0.09349 0.62241
 N197 N 0.79648 0.10342 0.63401
 C198 C 0.81710 0.11742 0.61733
 N199 N 0.81156 0.12081 0.58852
 N200 N 0.78630 0.11049 0.57683
 C201 C 0.73695 0.08675 0.58126
 N202 N 0.73460 0.08017 0.55260
 N203 N 0.70844 0.07127 0.54156
 C204 C 0.68364 0.06913 0.55872
 N205 N 0.68600 0.07588 0.58731
 N206 N 0.71222 0.08432 0.59841
 C207 C 0.65457 0.05995 0.54680
 N208 N 0.62864 0.06828 0.55998
 N209 N 0.60211 0.05965 0.54974
 C210 C 0.60052 0.04203 0.52619
 N211 N 0.62646 0.03356 0.51301
 N212 N 0.65304 0.04258 0.52301
 C213 C 0.41295 0.26303 0.39980
 N214 N 0.42098 0.27323 0.37323
 N215 N 0.40927 0.29786 0.36305
 C216 C 0.38880 0.31304 0.37890
 N217 N 0.38078 0.30280 0.40550
 N218 N 0.39276 0.27833 0.41582
 C219 C 0.42525 0.23550 0.41065
 N220 N 0.42375 0.22874 0.43932
 N221 N 0.43437 0.20345 0.44902
 C222 C 0.44654 0.18387 0.43034
 N223 N 0.44798 0.19060 0.40166
 N224 N 0.43769 0.21603 0.39202
 C225 C 0.45714 0.15555 0.44084
 N226 N 0.46042 0.13293 0.42218
 N227 N 0.46899 0.10691 0.43183
 C228 C 0.47495 0.10267 0.46042
 N229 N 0.47198 0.12536 0.47904
 N230 N 0.46306 0.15129 0.46944
 C231 C 0.91881 0.23981 0.59683
 N232 N 0.89539 0.22626 0.58367
 N233 N 0.88412 0.20175 0.59454
 C234 C 0.89574 0.18983 0.61908
 N235 N 0.91940 0.20325 0.63211
 N236 N 0.93075 0.22778 0.62117
 C237 C 0.92994 0.26767 0.58543
 N238 N 0.95403 0.28123 0.59750
 N239 N 0.96318 0.30702 0.58757
 C240 C 0.94846 0.32020 0.56532
 N241 N 0.92447 0.30656 0.55325
 N242 N 0.91542 0.28078 0.56307
 C243 C 0.95750 0.34907 0.55476
 N244 N 0.94010 0.36315 0.53508
 N245 N 0.94762 0.38951 0.52564
 C246 C 0.97291 0.40280 0.53541
 N247 N 0.99046 0.38871 0.55504
 N248 N 0.98284 0.36232 0.56462
 C249 C 0.08520 0.74039 -0.09925
 N250 N 0.07264 0.72732 -0.12271
 N251 N 0.08422 0.70274 -0.13325
 C252 C 0.10874 0.69032 -0.12070
 N253 N 0.12111 0.70334 -0.09712
 N254 N 0.10959 0.72791 -0.08663
 C255 C 0.07332 0.76799 -0.08798
 N256 N 0.08761 0.78165 -0.06586
 N257 N 0.07760 0.80702 -0.05592
 C258 C 0.05286 0.81971 -0.06764
 N259 N 0.03839 0.80601 -0.08969
 N260 N 0.04848 0.78060 -0.09972
 C261 C 0.04269 0.84809 -0.05675
 N262 N 0.01709 0.86085 -0.06671
 N263 N 0.00850 0.88680 -0.05671
 C264 C 0.02531 0.90089 -0.03651
 N265 N 0.05083 0.88807 -0.02664
 N266 N 0.05932 0.86219 -0.03652
 C267 C 0.58572 0.75478 1.09742
 N268 N 0.60926 0.76805 1.08408
 N269 N 0.62017 0.79299 1.09420
 C270 C 0.60805 0.80561 1.11816
 N271 N 0.58444 0.79234 1.13153
 N272 N 0.57345 0.76739 1.12133
 C273 C 0.57428 0.72700 1.08625
 N274 N 0.54951 0.71418 1.09794
 N275 N 0.53962 0.68877 1.08777
 C276 C 0.55425 0.67529 1.06563
 N277 N 0.57897 0.68816 1.05399
 N278 N 0.58875 0.71355 1.06406
 C279 C 0.54419 0.64699 1.05453
 N280 N 0.56124 0.63272 1.03468
 N281 N 0.55276 0.60690 1.02463
 C282 C 0.52683 0.59437 1.03392
 N283 N 0.50961 0.60865 1.05372
 N284 N 0.51819 0.63451 1.06391
 C285 C 0.40288 0.40701 1.25139
 N286 N 0.38086 0.42080 1.26653
 N287 N 0.37122 0.41018 1.29183
 C288 C 0.38327 0.38541 1.30292
 N289 N 0.40531 0.37167 1.28779
 N290 N 0.41491 0.38226 1.26249
 C291 C 0.41346 0.41840 1.22337
 N292 N 0.43450 0.40365 1.20790
 N293 N 0.44407 0.41368 1.18238
 C294 C 0.43300 0.43888 1.17137
 N295 N 0.41198 0.45371 1.18685
 N296 N 0.40236 0.44364 1.21239
 C297 C 0.44360 0.44952 1.14306
 N298 N 0.43375 0.47520 1.13198
 N299 N 0.44348 0.48449 1.10616
 C300 C 0.46334 0.46837 1.09052
 N301 N 0.47312 0.44274 1.10164
 N302 N 0.46347 0.43351 1.12741
 C303 C 0.58919 -0.09463 0.24127
 N304 N 0.58595 -0.12349 0.23599
 N305 N 0.59520 -0.13490 0.21093
 C306 C 0.60842 -0.11794 0.19042
 N307 N 0.61174 -0.08909 0.19574
 N308 N 0.60207 -0.07760 0.22062
 C309 C 0.57973 -0.08224 0.26919
 N310 N 0.57278 -0.05359 0.27152
 N311 N 0.56450 -0.04238 0.29699
 C312 C 0.56338 -0.05932 0.32114
 N313 N 0.57051 -0.08791 0.31883
 N314 N 0.57834 -0.09921 0.29328
 C315 C 0.55466 -0.04705 0.34933
 N316 N 0.56388 -0.05987 0.37434
 N317 N 0.55571 -0.04909 0.40000
 C318 C 0.53768 -0.02532 0.40160
 N319 N 0.52835 -0.01254 0.37659
 N320 N 0.53691 -0.02307 0.35090
 C321 C -0.09039 1.09628 -0.25212
 N322 N -0.11331 1.08347 -0.26676
 N323 N -0.12290 1.09444 -0.29187
 C324 C -0.10990 1.11858 -0.30333
 N325 N -0.08691 1.13136 -0.28875
 N326 N -0.07736 1.12043 -0.26357
 C327 C -0.08013 1.08436 -0.22423
 N328 N -0.05871 1.09827 -0.20852
 N329 N -0.04970 1.08765 -0.18305
 C330 C -0.06171 1.06269 -0.17237
 N331 N -0.08307 1.04871 -0.18812
 N332 N -0.09214 1.05938 -0.21356
 C333 C -0.05193 1.05126 -0.14411
 N334 N -0.06257 1.02551 -0.13391
 N335 N -0.05375 1.01538 -0.10814
 C336 C -0.03404 1.03069 -0.09164
 N337 N -0.02344 1.05642 -0.10187
 N338 N -0.03218 1.06649 -0.12763
 C339 C 1.08917 0.59202 0.75553
 N340 N 1.11251 0.57940 0.76975
 N341 N 1.12295 0.59083 0.79433
 C342 C 1.11040 0.61527 0.80561
 N343 N 1.08696 0.62780 0.79147
 N344 N 1.07656 0.61640 0.76687
 C345 C 1.07823 0.58002 0.72795
 N346 N 1.05623 0.59385 0.71291
 N347 N 1.04681 0.58352 0.68750
 C348 C 1.05898 0.55893 0.67619
 N349 N 1.08089 0.54498 0.69129
 N350 N 1.09037 0.55536 0.71671
 C351 C 1.04895 0.54819 0.64778
 N352 N 1.06007 0.52312 0.63644
 N353 N 1.05117 0.51390 0.61037
 C354 C 1.03091 0.52949 0.59472
 N355 N 1.01981 0.55449 0.60612
 N356 N 1.02862 0.56364 0.63215
 C357 C 0.72992 0.59600 0.58188
 N358 N 0.71289 0.57977 0.60028
 N359 N 0.68843 0.59104 0.61277
 C360 C 0.68003 0.61885 0.60708
 N361 N 0.69686 0.63490 0.58839
 N362 N 0.72142 0.62373 0.57613
 C363 C 0.75799 0.58449 0.56960
 N364 N 0.77868 0.60288 0.55805
 N365 N 0.80487 0.59287 0.54816
 C366 C 0.81123 0.56404 0.54917
 N367 N 0.79041 0.54555 0.56041
 N368 N 0.76430 0.55562 0.57059
 C369 C 0.84069 0.55340 0.53940
 N370 N 0.84537 0.52471 0.53416
 N371 N 0.87244 0.51518 0.52603
 C372 C 0.89584 0.53397 0.52318
 N373 N 0.89113 0.56262 0.52845
 N374 N 0.86402 0.57218 0.53626
 C375 C 0.76405 0.40177 1.08843
 N376 N 0.77416 0.37490 1.08124
 N377 N 0.79888 0.36411 1.09351
 C378 C 0.81424 0.37962 1.11372
 N379 N 0.80411 0.40655 1.12091
 N380 N 0.77954 0.41748 1.10839
 C381 C 0.73622 0.41308 1.07553
 N382 N 0.72938 0.44181 1.07691
 N383 N 0.70372 0.45178 1.06568
 C384 C 0.68388 0.43331 1.05297
 N385 N 0.69073 0.40460 1.05164
 N386 N 0.71651 0.39470 1.06255
 C387 C 0.65497 0.44391 1.04180
 N388 N 0.63184 0.42513 1.03754
 N389 N 0.60518 0.43470 1.02844
 C390 C 0.60078 0.46336 1.02290
 N391 N 0.62400 0.48213 1.02683
 N392 N 0.65059 0.47260 1.03628
 C393 C 0.26672 1.08937 -0.08314
 N394 N 0.28231 1.07326 -0.10277
 N395 N 0.30669 1.08410 -0.11579
 C396 C 0.31647 1.11131 -0.10943
 N397 N 0.30109 1.12723 -0.08953
 N398 N 0.27659 1.11652 -0.07673
 C399 C 0.23876 1.07838 -0.07018
 N400 N 0.21909 1.09704 -0.05746
 N401 N 0.19296 1.08751 -0.04693
 C402 C 0.18567 1.05892 -0.04844
 N403 N 0.20548 1.04016 -0.06085
 N404 N 0.23150 1.04975 -0.07167
 C405 C 0.15625 1.04881 -0.03802
 N406 N 0.15100 1.02012 -0.03327
 N407 N 0.12391 1.01103 -0.02470
 C408 C 0.10106 1.03026 -0.02090
 N409 N 0.10633 1.05892 -0.02567
 N410 N 0.13348 1.06804 -0.03391
 C411 C 0.23391 -0.08958 0.41501
 N412 N 0.22107 -0.11341 0.42727
 N413 N 0.19657 -0.12537 0.41559
 C414 C 0.18401 -0.11390 0.39124
 N415 N 0.19661 -0.08977 0.37934
 N416 N 0.22108 -0.07787 0.39097
 C417 C 0.26219 -0.07757 0.42631
 N418 N 0.27639 -0.05582 0.41183
 N419 N 0.30287 -0.04586 0.42094
 C420 C 0.31615 -0.05724 0.44491
 N421 N 0.30185 -0.07884 0.45958
 N422 N 0.27537 -0.08889 0.45040
 C423 C 0.34592 -0.04687 0.45409
 N424 N 0.35883 -0.05676 0.47893
 N425 N 0.38612 -0.04763 0.48677
 C426 C 0.40152 -0.02841 0.46997
 N427 N 0.38858 -0.01855 0.44516
 N428 N 0.36129 -0.02758 0.43739
 C429 C 0.58953 -0.24958 0.59834
 N430 N 0.57676 -0.26253 0.62184
 N431 N 0.58702 -0.28801 0.63148
 C432 C 0.61036 -0.30149 0.61790
 N433 N 0.62304 -0.28848 0.59440
 N434 N 0.61287 -0.26300 0.58485
 C435 C 0.57855 -0.22148 0.58754
 N436 N 0.59346 -0.20768 0.56579
 N437 N 0.58379 -0.18219 0.55581
 C438 C 0.55876 -0.16958 0.56708
 N439 N 0.54374 -0.18339 0.58880
 N440 N 0.55351 -0.20888 0.59889
 C441 C 0.54850 -0.14138 0.55592
 N442 N 0.52207 -0.12947 0.56487
 N443 N 0.51309 -0.10380 0.55454
 C444 C 0.53029 -0.08912 0.53501
 N445 N 0.55668 -0.10104 0.52614
 N446 N 0.56558 -0.12671 0.53634
 C447 C 1.09187 0.75578 0.40392
 N448 N 1.11131 0.77145 0.42040
 N449 N 1.12283 0.79631 0.41046
 C450 C 1.11507 0.80654 0.38380
 N451 N 1.09547 0.79090 0.36747
 N452 N 1.08424 0.76592 0.37726
 C453 C 1.07946 0.72816 0.41445
 N454 N 1.06724 0.70893 0.39549
 N455 N 1.05619 0.68369 0.40482
 C456 C 1.05660 0.67691 0.43351
 N457 N 1.06862 0.69622 0.45252
 N458 N 1.07999 0.72134 0.44314
 C459 C 1.04485 0.64886 0.44361
 N460 N 1.03786 0.64462 0.47202
 N461 N 1.02773 0.61893 0.48117
 C462 C 1.02452 0.59649 0.46229
 N463 N 1.03154 0.60074 0.43390
 N464 N 1.04133 0.62651 0.42469
 C465 C -0.09253 1.25108 0.10289
 N466 N -0.07686 1.26708 0.12246
 N467 N -0.08769 1.29236 0.13196
 C468 C -0.11431 1.30280 0.12187
 N469 N -0.12981 1.28684 0.10209
 N470 N -0.11925 1.26133 0.09298
 C471 C -0.08096 1.22306 0.09271
 N472 N -0.10028 1.20159 0.08497
 N473 N -0.08990 1.17603 0.07583
 C474 C -0.05985 1.17120 0.07360
 N475 N -0.04050 1.19275 0.08109
 N476 N -0.05088 1.21817 0.09073
 C477 C -0.04865 1.14309 0.06327
 N478 N -0.02245 1.14121 0.04815
 N479 N -0.01291 1.11567 0.03803
 C480 C -0.02898 1.09109 0.04316
 N481 N -0.05499 1.09297 0.05855
 N482 N -0.06478 1.11854 0.06822
 C483 C 0.41282 0.24101 0.89943
 N484 N 0.39648 0.22383 0.91751
 N485 N 0.38508 0.19876 0.90814
 C486 C 0.38988 0.18984 0.88042
 N487 N 0.40642 0.20692 0.86239
 N488 N 0.41755 0.23214 0.87168
 C489 C 0.42476 0.26893 0.90959
 N490 N 0.43415 0.28938 0.89033
 N491 N 0.44429 0.31501 0.89956
 C492 C 0.44570 0.32097 0.92840
 N493 N 0.43654 0.30043 0.94766
 N494 N 0.42611 0.27492 0.93842
 C495 C 0.45631 0.34937 0.93861
 N496 N 0.46395 0.35327 0.96687
 N497 N 0.47293 0.37921 0.97632
 C498 C 0.47431 0.40224 0.95792
 N499 N 0.46664 0.39835 0.92966
 N500 N 0.45795 0.37234 0.92014
 C501 C 0.58976 0.59680 0.73904
 N502 N 0.60167 0.57955 0.71805
 N503 N 0.61087 0.59090 0.69292
 C504 C 0.60803 0.61982 0.68771
 N505 N 0.59576 0.63699 0.70855
 N506 N 0.58696 0.62572 0.73383
 C507 C 0.58091 0.58465 0.76723
 N508 N 0.58008 0.60183 0.79116
 N509 N 0.57258 0.59083 0.81694
 C510 C 0.56527 0.56232 0.81965
 N511 N 0.56587 0.54515 0.79568
 N512 N 0.57380 0.55608 0.76996
 C513 C 0.55650 0.55046 0.84800
 N514 N 0.53880 0.52648 0.84984
 N515 N 0.52993 0.51643 0.87563
 C516 C 0.53887 0.52971 0.90048
 N517 N 0.55687 0.55347 0.89863
 N518 N 0.56538 0.56377 0.87285
 C519 C 0.40538 0.09098 0.75605
 N520 N 0.41701 0.11604 0.76674
 N521 N 0.40757 0.12662 0.79205
 C522 C 0.38610 0.11257 0.80765
 N523 N 0.37448 0.08742 0.79704
 N524 N 0.38397 0.07679 0.77168
 C525 C 0.41557 0.07999 0.72776
 N526 N 0.40484 0.05464 0.71675
 N527 N 0.41403 0.04520 0.69081
 C528 C 0.43419 0.06082 0.67500
 N529 N 0.44487 0.08610 0.68608
 N530 N 0.43576 0.09549 0.71196
 C531 C 0.44431 0.05102 0.64626
 N532 N 0.46316 0.06800 0.63042
 N533 N 0.47254 0.05956 0.60432
 C534 C 0.46350 0.03379 0.59301
 N535 N 0.44464 0.01671 0.60882
 N536 N 0.43517 0.02521 0.63499
 C537 C 0.09595 0.90165 0.25825
 N538 N 0.09420 0.87282 0.26428
 N539 N 0.10400 0.86249 0.28958
 C540 C 0.11631 0.88055 0.30958
 N541 N 0.11823 0.90937 0.30350
 N542 N 0.10803 0.91977 0.27835
 C543 C 0.08526 0.91288 0.23031
 N544 N 0.07686 0.94110 0.22741
 N545 N 0.06701 0.95114 0.20198
 C546 C 0.06565 0.93339 0.17848
 N547 N 0.07426 0.90524 0.18135
 N548 N 0.08368 0.89511 0.20686
 C549 C 0.05522 0.94435 0.15034
 N550 N 0.06365 0.93086 0.12543
 N551 N 0.05418 0.94061 0.09979
 C552 C 0.03558 0.96395 0.09817
 N553 N 0.02698 0.97737 0.12309
 N554 N 0.03682 0.96786 0.14873
 C555 C 0.90886 0.40573 0.24042
 N556 N 0.91322 0.37718 0.23440
 N557 N 0.90391 0.36596 0.20935
 C558 C 0.88954 0.38279 0.18951
 N559 N 0.88517 0.41138 0.19548
 N560 N 0.89490 0.42272 0.22041
 C561 C 0.91792 0.41750 0.26867
 N562 N 0.92379 0.44626 0.27209
 N563 N 0.93190 0.45668 0.29793
 C564 C 0.93392 0.43879 0.32133
 N565 N 0.92783 0.41010 0.31792
 N566 N 0.92018 0.39962 0.29202
 C567 C 0.94272 0.45002 0.34988
 N568 N 0.93447 0.43573 0.37443
 N569 N 0.94296 0.44542 0.40041
 C570 C 0.96037 0.46953 0.40273
 N571 N 0.96871 0.48380 0.37817
 N572 N 0.95984 0.47435 0.35220
   
