data_POSCAR
  _audit_creation_date              2014-09-24
  _audit_creation_method            'ToBaCCo'
  _symmetry_space_group_name_H-M    'P1'
  _symmetry_Int_Tables_number       1
  _symmetry_cell_setting            triclinic
  loop_
  _symmetry_equiv_pos_as_xyz
 x,y,z
_cell_length_a 36.9237
_cell_length_b 36.7095
_cell_length_c 36.8854
_cell_angle_alpha 91.373200
_cell_angle_beta 89.923000
_cell_angle_gamma 87.274600
loop_
  _atom_site_label
  _atom_site_type_symbol
  _atom_site_fract_x
  _atom_site_fract_y
  _atom_site_fract_z
N1 N 0.30263 0.20601 0.18047
 N2 N 0.29484 0.24028 0.17283
 C3 C 0.31797 0.25087 0.14741
 C4 C 0.34145 0.22171 0.13842
 C5 C 0.33105 0.19354 0.15995
 H6 H 0.31794 0.27793 0.13641
 H7 H 0.34376 0.16647 0.16136
 Cu8 Cu 0.25559 0.26858 0.19660
 Cu9 Cu 0.27653 0.18165 0.21827
 Cu10 Cu 0.19602 0.22491 0.24723
 N11 N 0.20765 0.28965 0.20763
 N12 N 0.18346 0.27182 0.22539
 C13 C 0.15283 0.29315 0.22893
 C14 C 0.15854 0.32608 0.21276
 C15 C 0.19357 0.32296 0.19975
 H16 H 0.12907 0.28615 0.24395
 H17 H 0.20792 0.34367 0.18605
 N18 N 0.21458 0.17790 0.26662
 N19 N 0.24586 0.16200 0.25629
 C20 C 0.25401 0.13399 0.27823
 C21 C 0.22654 0.13200 0.30343
 C22 C 0.20188 0.16020 0.29525
 H23 H 0.27911 0.11756 0.27739
 H24 H 0.17808 0.16899 0.31082
 H25 H 0.22912 0.21018 0.20362
 H26 H 0.25196 0.22658 0.24610
 N27 N 0.70006 -0.20272 0.17558
 N28 N 0.71118 -0.23391 0.16010
 C29 C 0.68775 -0.24265 0.13368
 C30 C 0.66059 -0.21528 0.13250
 C31 C 0.66951 -0.19026 0.15920
 H32 H 0.69002 -0.26734 0.11712
 H33 H 0.65400 -0.16561 0.16714
 Cu34 Cu 0.75382 -0.26128 0.17763
 Cu35 Cu 0.72375 -0.18245 0.21818
 Cu36 Cu 0.80186 -0.22887 0.24738
 N37 N 0.79658 -0.28808 0.19574
 N38 N 0.81429 -0.27599 0.22413
 C39 C 0.84125 -0.30037 0.23231
 C40 C 0.84050 -0.32927 0.20744
 C41 C 0.81197 -0.32043 0.18457
 H42 H 0.86007 -0.29697 0.25443
 H43 H 0.80274 -0.33682 0.16196
 N44 N 0.78122 -0.18447 0.27212
 N45 N 0.75171 -0.16654 0.26076
 C46 C 0.74406 -0.13805 0.28363
 C47 C 0.76980 -0.13816 0.31073
 C48 C 0.79301 -0.16799 0.30262
 H49 H 0.72099 -0.11898 0.28134
 H50 H 0.81638 -0.17739 0.31797
 H51 H 0.77388 -0.20436 0.20464
 H52 H 0.74704 -0.23100 0.23676
 N53 N 0.72925 0.22236 0.80323
 N54 N 0.73568 0.25509 0.81622
 C55 C 0.71179 0.26407 0.84294
 C56 C 0.68941 0.23536 0.84712
 C57 C 0.70120 0.20929 0.82145
 H58 H 0.71052 0.28970 0.85808
 H59 H 0.68944 0.18340 0.81552
 Cu60 Cu 0.77437 0.28328 0.79713
 Cu61 Cu 0.75551 0.20066 0.76157
 Cu62 Cu 0.82672 0.24868 0.72916
 N63 N 0.82127 0.30273 0.78642
 N64 N 0.84195 0.28855 0.76020
 C65 C 0.87196 0.30771 0.75762
 C66 C 0.86999 0.33558 0.78349
 C67 C 0.83740 0.33156 0.80149
 H68 H 0.89316 0.30246 0.73763
 H69 H 0.82582 0.34853 0.82331
 N70 N 0.81255 0.20218 0.70728
 N71 N 0.78532 0.18380 0.71937
 C72 C 0.78125 0.15438 0.69740
 C73 C 0.80739 0.15431 0.67041
 C74 C 0.82680 0.18479 0.67769
 H75 H 0.76043 0.13496 0.70045
 H76 H 0.84904 0.19412 0.66183
 H77 H 0.80289 0.22658 0.77336
 H78 H 0.77114 0.24812 0.73989
 N79 N 0.26956 -0.19351 0.80259
 N80 N 0.25967 -0.22326 0.81826
 C81 C 0.28413 -0.23256 0.84389
 C82 C 0.31067 -0.20718 0.84432
 C83 C 0.30047 -0.18269 0.81795
 H84 H 0.28259 -0.25580 0.86118
 H85 H 0.31484 -0.15909 0.81016
 Cu86 Cu 0.21552 -0.24675 0.80419
 Cu87 Cu 0.24238 -0.17207 0.76250
 Cu88 Cu 0.16224 -0.21180 0.73834
 N89 N 0.17013 -0.26825 0.79077
 N90 N 0.14912 -0.25423 0.76542
 C91 C 0.12002 -0.27471 0.76125
 C92 C 0.12297 -0.30314 0.78518
 C93 C 0.15514 -0.29811 0.80361
 H94 H 0.09861 -0.26979 0.74173
 H95 H 0.16710 -0.31505 0.82439
 N96 N 0.18024 -0.16886 0.71400
 N97 N 0.21120 -0.15433 0.72263
 C98 C 0.21750 -0.12761 0.69935
 C99 C 0.18907 -0.12515 0.67498
 C100 C 0.16586 -0.15145 0.68524
 H101 H 0.24128 -0.11154 0.69971
 H102 H 0.14106 -0.15832 0.67168
 H103 H 0.19267 -0.18917 0.77932
 H104 H 0.21774 -0.21882 0.74490
 N105 N 0.70977 -0.18985 0.81629
 N106 N 0.72364 -0.21679 0.83549
 C107 C 0.69859 -0.22666 0.85954
 C108 C 0.66750 -0.20460 0.85494
 C109 C 0.67565 -0.18157 0.82745
 H110 H 0.70233 -0.24885 0.87811
 H111 H 0.65757 -0.16106 0.81568
 Cu112 Cu 0.77184 -0.23824 0.82468
 Cu113 Cu 0.73543 -0.16939 0.77621
 Cu114 Cu 0.82092 -0.20720 0.75593
 N115 N 0.82011 -0.25904 0.81316
 N116 N 0.83856 -0.24739 0.78557
 C117 C 0.86854 -0.26916 0.78041
 C118 C 0.86904 -0.29583 0.80615
 C119 C 0.83804 -0.28846 0.82682
 H120 H 0.88777 -0.26678 0.75854
 H121 H 0.82800 -0.30469 0.84838
 N122 N 0.79834 -0.16631 0.72918
 N123 N 0.76552 -0.15231 0.73669
 C124 C 0.75620 -0.12741 0.71178
 C125 C 0.78448 -0.12548 0.68763
 C126 C 0.81088 -0.15042 0.69940
 H127 H 0.73016 -0.11275 0.71029
 H128 H 0.83634 -0.15791 0.68608
 H129 H 0.76659 -0.21622 0.76296
 H130 H 0.78709 -0.18259 0.79471
 N131 N 0.28396 0.20805 0.82181
 N132 N 0.26917 0.23652 0.83949
 C133 C 0.29025 0.24471 0.86806
 C134 C 0.31980 0.22017 0.86818
 C135 C 0.31486 0.19716 0.83847
 H136 H 0.28537 0.26766 0.88664
 H137 H 0.33288 0.17496 0.82882
 Cu138 Cu 0.22581 0.26210 0.82125
 Cu139 Cu 0.26395 0.18901 0.77679
 Cu140 Cu 0.18777 0.23527 0.74285
 N141 N 0.18245 0.28723 0.80246
 N142 N 0.16850 0.27730 0.77117
 C143 C 0.14094 0.30094 0.76288
 C144 C 0.13723 0.32685 0.79052
 C145 C 0.16400 0.31739 0.81527
 H146 H 0.12523 0.29990 0.73818
 H147 H 0.17060 0.33236 0.83979
 N148 N 0.21114 0.19194 0.71838
 N149 N 0.23980 0.17401 0.73163
 C150 C 0.24930 0.14588 0.70892
 C151 C 0.22566 0.14618 0.67999
 C152 C 0.20174 0.17575 0.68684
 H153 H 0.27204 0.12672 0.71277
 H154 H 0.17921 0.18487 0.67015
 H155 H 0.24071 0.23826 0.76045
 H156 H 0.21099 0.20792 0.78586
 N157 N 0.27677 -0.21581 0.19114
 N158 N 0.26692 -0.24466 0.17252
 C159 C 0.29037 -0.25138 0.14485
 C160 C 0.31626 -0.22530 0.14646
 C161 C 0.30680 -0.20327 0.17611
 H162 H 0.28914 -0.27394 0.12560
 H163 H 0.32109 -0.18010 0.18625
 Cu164 Cu 0.22539 -0.27128 0.18765
 Cu165 Cu 0.25084 -0.19715 0.23419
 Cu166 Cu 0.17638 -0.24409 0.26101
 N167 N 0.18352 -0.29741 0.20269
 N168 N 0.16440 -0.28646 0.23136
 C169 C 0.13774 -0.30956 0.23649
 C170 C 0.14039 -0.33655 0.20961
 C171 C 0.16969 -0.32798 0.18867
 H172 H 0.11848 -0.30721 0.25860
 H173 H 0.18041 -0.34336 0.16536
 N174 N 0.19291 -0.20056 0.28732
 N175 N 0.22111 -0.18258 0.27694
 C176 C 0.22590 -0.15470 0.30058
 C177 C 0.19947 -0.15526 0.32716
 C178 C 0.17911 -0.18464 0.31793
 H179 H 0.24742 -0.13588 0.29889
 H180 H 0.15615 -0.19388 0.33279
 H181 H 0.23112 -0.24644 0.24914
 H182 H 0.20115 -0.21693 0.22018
 N183 N 0.72866 0.18647 0.18505
 N184 N 0.74061 0.21191 0.16426
 C185 C 0.71697 0.21774 0.13695
 C186 C 0.68874 0.19460 0.14108
 C187 C 0.69708 0.17526 0.17180
 H188 H 0.71995 0.23760 0.11612
 H189 H 0.68116 0.15460 0.18367
 Cu190 Cu 0.78531 0.23568 0.17545
 Cu191 Cu 0.75482 0.16951 0.22757
 Cu192 Cu 0.82892 0.21755 0.25383
 N193 N 0.82160 0.26727 0.19508
 N194 N 0.83846 0.26007 0.22563
 C195 C 0.86072 0.28704 0.23372
 C196 C 0.85763 0.31254 0.20672
 C197 C 0.83270 0.29906 0.18258
 H198 H 0.87738 0.28814 0.25775
 H199 H 0.82273 0.31192 0.15823
 N200 N 0.81412 0.17394 0.27884
 N201 N 0.78502 0.15642 0.26959
 C202 C 0.78028 0.12979 0.29334
 C203 C 0.80784 0.13061 0.31864
 C204 C 0.82894 0.15866 0.30851
 H205 H 0.75834 0.11133 0.29243
 H206 H 0.85256 0.16803 0.32259
 H207 H 0.77522 0.22026 0.23812
 H208 H 0.80592 0.18562 0.21376
 C209 C 0.20561 -0.00788 0.49398
 C210 C 0.20409 0.02911 0.49240
 C211 C 0.20266 0.04794 0.45728
 C212 C 0.20470 0.05260 0.52562
 C213 C 0.20699 -0.02688 0.52899
 C214 C 0.20710 -0.03136 0.46074
 C215 C 0.23190 0.06829 0.44672
 C216 C 0.23108 0.08617 0.41370
 C217 C 0.20066 0.08449 0.39089
 C218 C 0.17109 0.06470 0.40189
 C219 C 0.17223 0.04619 0.43467
 C220 C 0.23419 0.05044 0.54952
 C221 C 0.23474 0.07313 0.58048
 C222 C 0.20565 0.09847 0.58811
 C223 C 0.17650 0.10081 0.56370
 C224 C 0.17607 0.07819 0.53273
 C225 C 0.17730 -0.02481 0.55288
 C226 C 0.17876 -0.04391 0.58532
 C227 C 0.21011 -0.06506 0.59439
 C228 C 0.23993 -0.06638 0.57070
 C229 C 0.23819 -0.04791 0.53805
 C230 C 0.18003 -0.05617 0.45431
 C231 C 0.18148 -0.07911 0.42352
 C232 C 0.21055 -0.07804 0.39879
 C233 C 0.23753 -0.05296 0.40539
 C234 C 0.23594 -0.02996 0.43613
 H235 H 0.25546 0.07012 0.46402
 H236 H 0.25387 0.10203 0.40647
 H237 H 0.14721 0.06338 0.38497
 H238 H 0.14929 0.03086 0.44263
 H239 H 0.25700 0.03149 0.54393
 H240 H 0.25834 0.07101 0.59770
 H241 H 0.15324 0.08047 0.51437
 H242 H 0.15300 -0.00868 0.54623
 H243 H 0.15562 -0.04175 0.60342
 H244 H 0.26441 -0.08232 0.57719
 H245 H 0.26134 -0.04973 0.51991
 H246 H 0.15756 -0.05755 0.47308
 H247 H 0.15959 -0.09722 0.41939
 H248 H 0.26018 -0.05143 0.38689
 H249 H 0.25740 -0.01134 0.44096
 H250 H 0.15391 0.12023 0.56861
 C251 C 0.79820 0.01241 0.49881
 C252 C 0.80129 -0.02463 0.49878
 C253 C 0.80523 -0.04485 0.53284
 C254 C 0.79943 -0.04685 0.46476
 C255 C 0.79559 0.03232 0.46448
 C256 C 0.79689 0.03494 0.53284
 C257 C 0.83521 -0.04051 0.55563
 C258 C 0.83784 -0.05910 0.58824
 C259 C 0.81023 -0.08166 0.59870
 C260 C 0.78073 -0.08663 0.57533
 C261 C 0.77840 -0.06853 0.54257
 C262 C 0.82814 -0.07155 0.45521
 C263 C 0.82626 -0.09332 0.42376
 C264 C 0.79557 -0.09103 0.40129
 C265 C 0.76652 -0.06650 0.41129
 C266 C 0.76851 -0.04465 0.44272
 C267 C 0.76362 0.05252 0.45630
 C268 C 0.76061 0.07105 0.42377
 C269 C 0.78989 0.07054 0.39948
 C270 C 0.82204 0.05037 0.40779
 C271 C 0.82479 0.03126 0.44005
 C272 C 0.77098 0.02966 0.55985
 C273 C 0.76951 0.05190 0.59118
 C274 C 0.79361 0.08012 0.59607
 C275 C 0.81927 0.08557 0.56858
 C276 C 0.82081 0.06320 0.53741
 H277 H 0.85638 -0.02264 0.54819
 H278 H 0.86101 -0.05531 0.60567
 H279 H 0.75960 -0.10475 0.58221
 H280 H 0.75529 -0.07243 0.52508
 H281 H 0.85207 -0.07388 0.47211
 H282 H 0.84888 -0.11215 0.41700
 H283 H 0.74565 -0.02644 0.45022
 H284 H 0.74086 0.05347 0.47491
 H285 H 0.73557 0.08627 0.41778
 H286 H 0.84477 0.04891 0.38916
 H287 H 0.84963 0.01572 0.44609
 H288 H 0.75156 0.00866 0.55646
 H289 H 0.74919 0.04725 0.61155
 H290 H 0.83792 0.10729 0.57028
 H291 H 0.84071 0.06803 0.51667
 H292 H 0.74184 -0.06447 0.39565
 C293 C 0.51630 0.19985 0.00718
 C294 C 0.51431 0.20029 -0.02959
 C295 C 0.54733 0.20138 -0.05239
 C296 C 0.47918 0.19999 -0.04901
 C297 C 0.48361 0.19815 0.03041
 C298 C 0.55142 0.20145 0.02639
 C299 C 0.55228 0.23158 -0.07409
 C300 C 0.58313 0.23301 -0.09588
 C301 C 0.60939 0.20394 -0.09666
 C302 C 0.60396 0.17337 -0.07549
 C303 C 0.57332 0.17221 -0.05326
 C304 C 0.45196 0.22736 -0.04253
 C305 C 0.41939 0.22722 -0.06186
 C306 C 0.41354 0.19963 -0.08821
 C307 C 0.44103 0.17241 -0.09452
 C308 C 0.47352 0.17266 -0.07525
 C309 C 0.46104 0.16846 0.02804
 C310 C 0.43104 0.16693 0.05115
 C311 C 0.42293 0.19523 0.07660
 C312 C 0.44592 0.22467 0.07914
 C313 C 0.47600 0.22600 0.05635
 C314 C 0.56257 0.17291 0.04894
 C315 C 0.59470 0.17457 0.06864
 C316 C 0.61598 0.20534 0.06674
 C317 C 0.60508 0.23355 0.04348
 C318 C 0.57296 0.23174 0.02360
 H319 H 0.53227 0.25414 -0.07398
 H320 H 0.58595 0.25649 -0.11267
 H321 H 0.62361 0.15049 -0.07599
 H322 H 0.56965 0.14848 -0.03700
 H323 H 0.45617 0.24913 -0.02287
 H324 H 0.39949 0.24913 -0.05629
 H325 H 0.49430 0.15142 -0.08079
 H326 H 0.46691 0.14636 0.00863
 H327 H 0.41399 0.14377 0.04901
 H328 H 0.44120 0.24636 0.09923
 H329 H 0.49341 0.24884 0.05891
 H330 H 0.54636 0.14922 0.05117
 H331 H 0.60270 0.15154 0.08500
 H332 H 0.62107 0.25739 0.04127
 H333 H 0.56455 0.25420 0.00654
 H334 H 0.43750 0.15094 -0.11469
 C335 C 0.48618 0.76146 0.00780
 C336 C 0.48670 0.76208 -0.02892
 C337 C 0.45296 0.76318 -0.05045
 C338 C 0.52122 0.76350 -0.04904
 C339 C 0.52012 0.76161 0.02901
 C340 C 0.45196 0.76110 0.02859
 C341 C 0.44397 0.73251 -0.07125
 C342 C 0.41225 0.73325 -0.09187
 C343 C 0.38960 0.76501 -0.09284
 C344 C 0.39870 0.79581 -0.07194
 C345 C 0.43012 0.79481 -0.05075
 C346 C 0.54682 0.73405 -0.04897
 C347 C 0.58025 0.73664 -0.06630
 C348 C 0.58855 0.76857 -0.08418
 C349 C 0.56265 0.79807 -0.08409
 C350 C 0.52920 0.79534 -0.06695
 C351 C 0.53928 0.79353 0.03302
 C352 C 0.57159 0.79323 0.05277
 C353 C 0.58529 0.76084 0.06845
 C354 C 0.56623 0.72889 0.06386
 C355 C 0.53362 0.72938 0.04472
 C356 C 0.44247 0.79025 0.05243
 C357 C 0.41092 0.78991 0.07325
 C358 C 0.38854 0.75985 0.07115
 C359 C 0.39792 0.73097 0.04668
 C360 C 0.42941 0.73152 0.02563
 H361 H 0.46138 0.70791 -0.07121
 H362 H 0.40563 0.70913 -0.10753
 H363 H 0.38131 0.82040 -0.07150
 H364 H 0.43678 0.81868 -0.03474
 H365 H 0.54099 0.70925 -0.03522
 H366 H 0.59970 0.71362 -0.06573
 H367 H 0.50987 0.81849 -0.06676
 H368 H 0.52921 0.81855 0.02079
 H369 H 0.58614 0.81809 0.05520
 H370 H 0.57640 0.70361 0.07553
 H371 H 0.51915 0.70451 0.04162
 H372 H 0.45947 0.81345 0.05475
 H373 H 0.40433 0.81341 0.09059
 H374 H 0.38114 0.70763 0.04427
 H375 H 0.43651 0.70865 0.00749
 H376 H 0.56816 0.82366 -0.09635
 C377 C 0.00974 0.49331 0.22124
 C378 C -0.02704 0.49411 0.22448
 C379 C -0.04766 0.46059 0.22702
 C380 C -0.04865 0.52914 0.22566
 C381 C 0.02931 0.52768 0.22160
 C382 C 0.03251 0.45867 0.21874
 C383 C -0.07586 0.45453 0.20251
 C384 C -0.09467 0.42248 0.20348
 C385 C -0.08551 0.39569 0.22905
 C386 C -0.05816 0.40254 0.25444
 C387 C -0.03950 0.43474 0.25357
 C388 C -0.05382 0.54946 0.19421
 C389 C -0.07493 0.58213 0.19545
 C390 C -0.09065 0.59510 0.22833
 C391 C -0.08475 0.57505 0.25984
 C392 C -0.06442 0.54197 0.25839
 C393 C 0.02855 0.55072 0.25248
 C394 C 0.04820 0.58228 0.25323
 C395 C 0.06939 0.59120 0.22336
 C396 C 0.06972 0.56818 0.19219
 C397 C 0.05007 0.53655 0.19152
 C398 C 0.06353 0.45469 0.24058
 C399 C 0.08529 0.42256 0.23900
 C400 C 0.07630 0.39353 0.21576
 C401 C 0.04537 0.39729 0.19391
 C402 C 0.02411 0.42992 0.19474
 H403 H -0.08295 0.47442 0.18217
 H404 H -0.11639 0.41920 0.18427
 H405 H -0.05091 0.38271 0.27480
 H406 H -0.01838 0.43931 0.27328
 H407 H -0.04173 0.53983 0.16876
 H408 H -0.07855 0.59747 0.17090
 H409 H -0.06059 0.52653 0.28287
 H410 H 0.01317 0.54392 0.27621
 H411 H 0.04734 0.59949 0.27753
 H412 H 0.08476 0.57443 0.16816
 H413 H 0.05091 0.51899 0.16748
 H414 H 0.07073 0.47636 0.25926
 H415 H 0.10880 0.42011 0.25645
 H416 H 0.03812 0.37526 0.17568
 H417 H 0.00104 0.43261 0.17676
 H418 H -0.09646 0.58470 0.28546
 C419 C 0.01778 0.51427 0.82265
 C420 C -0.01896 0.51518 0.82453
 C421 C -0.03977 0.48162 0.82213
 C422 C -0.04039 0.55016 0.82676
 C423 C 0.03796 0.54812 0.82029
 C424 C 0.03963 0.47938 0.82203
 C425 C -0.03630 0.45803 0.79172
 C426 C -0.05793 0.42792 0.78823
 C427 C -0.08350 0.42072 0.81528
 C428 C -0.08673 0.44445 0.84570
 C429 C -0.06520 0.47464 0.84904
 C430 C -0.05872 0.56292 0.79602
 C431 C -0.07939 0.59572 0.79781
 C432 C -0.08271 0.61579 0.83068
 C433 C -0.06497 0.60257 0.86165
 C434 C -0.04344 0.57016 0.85958
 C435 C 0.06328 0.55660 0.84705
 C436 C 0.08383 0.58739 0.84406
 C437 C 0.07967 0.61023 0.81415
 C438 C 0.05429 0.60145 0.78717
 C439 C 0.03369 0.57068 0.79028
 C440 C 0.03910 0.45590 0.85148
 C441 C 0.06057 0.42345 0.85087
 C442 C 0.08223 0.41368 0.82055
 C443 C 0.08275 0.43735 0.79115
 C444 C 0.06181 0.47004 0.79205
 H445 H -0.01756 0.46355 0.77015
 H446 H -0.05511 0.41132 0.76374
 H447 H -0.10634 0.43988 0.86678
 H448 H -0.06856 0.49276 0.87254
 H449 H -0.05683 0.54750 0.77062
 H450 H -0.09353 0.60494 0.77377
 H451 H -0.02964 0.56035 0.88360
 H452 H 0.06725 0.53923 0.87019
 H453 H 0.10334 0.59319 0.86508
 H454 H 0.05083 0.61740 0.76308
 H455 H 0.01505 0.56391 0.76879
 H456 H 0.02243 0.46297 0.87502
 H457 H 0.06011 0.40582 0.87399
 H458 H 0.09996 0.43107 0.76784
 H459 H 0.06274 0.48804 0.76925
 H460 H -0.06756 0.61747 0.88730
 C461 C 0.37225 0.22284 0.11313
 C462 C 0.39124 0.19301 0.10103
 H463 H 0.37892 0.24943 0.10371
 H464 H 0.38277 0.16626 0.10817
 C465 C 0.62944 0.78677 0.11099
 C466 C 0.61960 0.75930 0.08907
 H467 H 0.61182 0.81114 0.11374
 H468 H 0.63547 0.73373 0.08814
 C469 C 0.65809 0.23487 -0.12813
 C470 C 0.64168 0.20419 -0.12049
 H471 H 0.64885 0.26052 -0.11537
 H472 H 0.65288 0.17822 -0.13097
 C473 C 0.34310 0.79408 -0.13248
 C474 C 0.35630 0.76475 -0.11506
 H475 H 0.35729 0.81922 -0.13122
 H476 H 0.34371 0.73890 -0.11901
 C477 C 0.13503 0.35954 0.21315
 C478 C 0.09887 0.35921 0.21450
 H479 H 0.14799 0.38529 0.21112
 H480 H 0.08558 0.33353 0.21305
 C481 C 0.09877 0.66885 0.78820
 C482 C 0.10373 0.64142 0.81146
 H483 H 0.07535 0.66995 0.77066
 H484 H 0.12659 0.64143 0.82979
 C485 C -0.13716 0.63893 0.20514
 C486 C -0.11277 0.62967 0.23060
 H487 H -0.14097 0.62042 0.18226
 H488 H -0.11069 0.64622 0.25514
 C489 C -0.10472 0.36252 0.78788
 C490 C -0.10871 0.39037 0.81206
 H491 H -0.08127 0.36033 0.77027
 H492 H -0.13167 0.39149 0.83040
 C493 C 0.22759 0.10905 0.33572
 C494 C 0.19851 0.10483 0.35670
 H495 H 0.25329 0.09541 0.34243
 H496 H 0.17223 0.11605 0.34841
 C497 C 0.81314 0.12937 0.63878
 C498 C 0.78988 0.10385 0.62930
 H499 H 0.83698 0.13341 0.62272
 H500 H 0.76649 0.10039 0.64639
 C501 C 0.18485 -0.10175 0.64313
 C502 C 0.21295 -0.08565 0.62837
 H503 H 0.15855 -0.09994 0.63016
 H504 H 0.23975 -0.09021 0.63978
 C505 C 0.77040 -0.11231 0.34195
 C506 C 0.79467 -0.11572 0.36881
 H507 H 0.75004 -0.09018 0.34235
 H508 H 0.81531 -0.13764 0.36703
 C509 C 0.63194 0.79436 -0.12712
 C510 C 0.62462 0.77029 -0.10172
 H511 H 0.61111 0.81361 -0.13635
 H512 H 0.64546 0.75018 -0.09413
 C513 C 0.35099 0.22128 -0.10688
 C514 C 0.38028 0.19849 -0.11080
 H515 H 0.34952 0.24198 -0.08557
 H516 H 0.38039 0.17785 -0.13225
 C517 C 0.34850 0.77834 0.12352
 C518 C 0.35546 0.75746 0.09378
 H519 H 0.36709 0.79855 0.13237
 H520 H 0.33677 0.73676 0.08619
 C521 C 0.65593 0.19067 0.11899
 C522 C 0.64952 0.20890 0.08843
 H523 H 0.63631 0.17245 0.12908
 H524 H 0.66877 0.22821 0.07962
 C525 C -0.10631 0.67421 0.80717
 C526 C -0.10619 0.64941 0.83322
 H527 H -0.08667 0.67084 0.78530
 H528 H -0.12320 0.65367 0.85703
 C529 C -0.12444 0.34737 0.20397
 C530 C -0.10400 0.36074 0.23074
 H531 H -0.12845 0.36189 0.17906
 H532 H -0.09984 0.34508 0.25500
 C533 C 0.11251 0.35951 0.79076
 C534 C 0.10538 0.37970 0.82084
 H535 H 0.09959 0.36679 0.76542
 H536 H 0.11594 0.37066 0.84668
 C537 C 0.11867 0.63103 0.20463
 C538 C 0.09047 0.62457 0.22609
 H539 H 0.12724 0.61174 0.18337
 H540 H 0.08327 0.64383 0.24788
 C541 C 0.78339 -0.10492 0.65396
 C542 C 0.81278 -0.10038 0.63363
 H543 H 0.75732 -0.09310 0.64573
 H544 H 0.83934 -0.10952 0.64318
 C545 C 0.19415 -0.13129 0.35957
 C546 C 0.21403 -0.10218 0.36593
 H547 H 0.17366 -0.13871 0.37857
 H548 H 0.23475 -0.09600 0.34653
 C549 C 0.81310 0.10817 0.35087
 C550 C 0.78584 0.09081 0.36557
 H551 H 0.83930 0.10801 0.36406
 H552 H 0.75892 0.09387 0.35408
 C553 C 0.22709 0.12024 0.64879
 C554 C 0.20485 0.12370 0.62026
 H555 H 0.24711 0.09788 0.64995
 H556 H 0.18451 0.14594 0.62041
   
