data_POSCAR
  _audit_creation_date              2014-09-24
  _audit_creation_method            'ToBaCCo'
  _symmetry_space_group_name_H-M    'P1'
  _symmetry_Int_Tables_number       1
  _symmetry_cell_setting            triclinic
  loop_
  _symmetry_equiv_pos_as_xyz
 x,y,z
_cell_length_a 33.6188
_cell_length_b 33.4349
_cell_length_c 33.5941
_cell_angle_alpha 90.070000
_cell_angle_beta 89.799800
_cell_angle_gamma 90.625100
loop_
  _atom_site_label
  _atom_site_type_symbol
  _atom_site_fract_x
  _atom_site_fract_y
  _atom_site_fract_z
C1 C 0.27346 1.08785 0.03035
 C2 C 0.26267 1.10786 -0.00473
 C3 C 0.23885 1.08981 -0.03393
 C4 C 0.22489 1.05008 -0.02699
 C5 C 0.24010 1.02767 0.00532
 C6 C 0.26302 1.04684 0.03508
 C7 C 0.27663 1.02370 0.06718
 C8 C 0.26898 0.98265 0.06908
 C9 C 0.24960 0.96233 0.03775
 C10 C 0.23356 0.98553 0.00670
 C11 C 0.19509 1.03204 -0.05032
 C12 C 0.18822 0.99107 -0.04829
 C13 C 0.21202 0.96673 -0.02408
 C14 C 0.21600 0.92483 -0.03047
 C15 C 0.23046 0.90154 0.00141
 C16 C 0.24573 0.91982 0.03634
 H17 H 0.29463 1.03655 0.09057
 H18 H 0.27961 0.96727 0.09508
 H19 H 0.17682 1.04920 -0.07029
 H20 H 0.16486 0.97847 -0.06667
 H21 H 0.27281 1.13838 -0.00899
 H22 H 0.23201 0.86934 -0.00157
 C23 C 0.76767 0.57846 0.50642
 C24 C 0.77409 0.58408 0.46566
 C25 C 0.76494 0.55505 0.43732
 C26 C 0.75376 0.51622 0.45028
 C27 C 0.74617 0.50953 0.49140
 C28 C 0.75092 0.54148 0.51926
 C29 C 0.73760 0.53555 0.55837
 C30 C 0.72599 0.49794 0.57163
 C31 C 0.72482 0.46495 0.54568
 C32 C 0.73321 0.47100 0.50468
 C33 C 0.75012 0.48395 0.42378
 C34 C 0.74044 0.44574 0.43724
 C35 C 0.73043 0.43845 0.47727
 C36 C 0.71959 0.39957 0.49130
 C37 C 0.71382 0.39428 0.53263
 C38 C 0.71651 0.42605 0.55989
 H39 H 0.73467 0.55985 0.57908
 H40 H 0.71777 0.49538 0.60260
 H41 H 0.75628 0.48714 0.39245
 H42 H 0.74219 0.42219 0.41560
 H43 H 0.78618 0.61235 0.45518
 H44 H 0.70753 0.36459 0.54416
 C45 C 0.73831 1.03838 1.06909
 C46 C 0.73421 1.00335 1.09269
 C47 C 0.72621 0.96617 1.07449
 C48 C 0.71472 0.96566 1.03414
 C49 C 0.72507 0.99790 1.00942
 C50 C 0.73849 1.03414 1.02667
 C51 C 0.75402 1.06372 1.00098
 C52 C 0.75456 1.05825 0.95978
 C53 C 0.73912 1.02316 0.94205
 C54 C 0.72502 0.99231 0.96744
 C55 C 0.69558 0.93203 1.01745
 C56 C 0.69501 0.92654 0.97661
 C57 C 0.71365 0.95449 0.95145
 C58 C 0.72214 0.94535 0.91127
 C59 C 0.73506 0.97642 0.88635
 C60 C 0.74144 1.01583 0.90036
 H61 H 0.76883 1.09016 1.01228
 H62 H 0.77000 1.08079 0.94256
 H63 H 0.68306 0.90872 1.03622
 H64 H 0.68089 0.89971 0.96521
 H65 H 0.73976 1.00456 1.12439
 H66 H 0.74016 0.96970 0.85526
 C67 C 0.24514 0.51063 0.40773
 C68 C 0.23757 0.47014 0.39925
 C69 C 0.24091 0.44034 0.42890
 C70 C 0.24881 0.45268 0.46886
 C71 C 0.25807 0.49345 0.47702
 C72 C 0.25783 0.52192 0.44607
 C73 C 0.26964 0.56154 0.45434
 C74 C 0.27834 0.57367 0.49278
 C75 C 0.27411 0.54718 0.52492
 C76 C 0.26641 0.50621 0.51657
 C77 C 0.24655 0.42602 0.50131
 C78 C 0.25680 0.43808 0.53956
 C79 C 0.26715 0.47800 0.54767
 C80 C 0.27771 0.49042 0.58634
 C81 C 0.28159 0.53108 0.59501
 C82 C 0.27795 0.56013 0.56505
 H83 H 0.27258 0.58372 0.43109
 H84 H 0.28936 0.60386 0.49648
 H85 H 0.23548 0.39584 0.49842
 H86 H 0.25502 0.41607 0.56313
 H87 H 0.22891 0.46212 0.36927
 H88 H 0.28769 0.53970 0.62544
 C89 C 0.91416 0.25533 0.06878
 C90 C 0.88691 0.25629 0.03707
 C91 C 0.89868 0.25974 -0.00326
 C92 C 0.94001 0.26370 -0.01162
 C93 C 0.96851 0.25901 0.01928
 C94 C 0.95576 0.25693 0.05963
 C95 C 0.98519 0.25929 0.08936
 C96 C 1.02565 0.25894 0.08014
 C97 C 1.03916 0.25629 0.04068
 C98 C 1.01013 0.25886 0.00977
 C99 C 0.95386 0.27652 -0.04890
 C100 C 0.99390 0.27610 -0.05837
 C101 C 1.02241 0.26394 -0.03058
 C102 C 1.06318 0.26095 -0.04101
 C103 C 1.09075 0.25641 -0.01017
 C104 C 1.08053 0.25539 0.03057
 H105 H 0.97790 0.26345 0.12028
 H106 H 1.04586 0.26295 0.10456
 H107 H 0.93435 0.28962 -0.07053
 H108 H 1.00198 0.28785 -0.08718
 H109 H 0.85560 0.25303 0.04407
 H110 H 1.12153 0.25200 -0.01823
 C111 C 0.41259 0.75144 0.46966
 C112 C 0.40043 0.76139 0.50844
 C113 C 0.42760 0.76078 0.54040
 C114 C 0.46844 0.75408 0.53178
 C115 C 0.47978 0.73961 0.49378
 C116 C 0.45137 0.73715 0.46307
 C117 C 0.46295 0.72276 0.42554
 C118 C 0.50200 0.71242 0.41781
 C119 C 0.53141 0.71611 0.44723
 C120 C 0.52014 0.73011 0.48566
 C121 C 0.49861 0.76361 0.55920
 C122 C 0.53816 0.75556 0.55105
 C123 C 0.54953 0.73773 0.51499
 C124 C 0.58981 0.73033 0.50610
 C125 C 0.60016 0.71491 0.46895
 C126 C 0.57205 0.70870 0.43892
 H127 H 0.44192 0.71963 0.40141
 H128 H 0.50838 0.70274 0.38797
 H129 H 0.49264 0.77974 0.58636
 H130 H 0.55963 0.76462 0.57317
 H131 H 0.36996 0.77030 0.51333
 H132 H 0.63135 0.70969 0.46264
 C133 C 0.02255 0.75259 -0.09676
 C134 C -0.01707 0.75414 -0.10972
 C135 C -0.04900 0.76224 -0.08397
 C136 C -0.04055 0.76983 -0.04321
 C137 C -0.00101 0.76588 -0.02899
 C138 C 0.03092 0.75903 -0.05586
 C139 C 0.06951 0.75558 -0.04009
 C140 C 0.07632 0.75733 0.00039
 C141 C 0.04460 0.75835 0.02745
 C142 C 0.00611 0.76573 0.01273
 C143 C -0.07012 0.78164 -0.01596
 C144 C -0.06318 0.78078 0.02470
 C145 C -0.02590 0.76983 0.03955
 C146 C -0.02066 0.76103 0.08025
 C147 C 0.01742 0.75234 0.09455
 C148 C 0.05020 0.75077 0.06848
 H149 H 0.09533 0.74948 -0.05774
 H150 H 0.10691 0.75625 0.00994
 H151 H -0.09908 0.79139 -0.02533
 H152 H -0.08755 0.78791 0.04456
 H153 H -0.02303 0.74744 -0.14068
 H154 H 0.02090 0.74330 0.12531
 C155 C 0.51207 0.21521 0.43633
 C156 C 0.47247 0.21338 0.42392
 C157 C 0.44165 0.22831 0.44796
 C158 C 0.45099 0.24410 0.48631
 C159 C 0.49142 0.24925 0.49737
 C160 C 0.52191 0.23603 0.47152
 C161 C 0.56179 0.24363 0.48148
 C162 C 0.57171 0.26232 0.51687
 C163 C 0.54223 0.27364 0.54426
 C164 C 0.50155 0.26674 0.53476
 C165 C 0.42152 0.25496 0.51397
 C166 C 0.43146 0.26816 0.55211
 C167 C 0.47125 0.27498 0.56328
 C168 C 0.48224 0.28817 0.60219
 C169 C 0.52269 0.29631 0.60990
 C170 C 0.55261 0.28965 0.58168
 H171 H 0.58592 0.23549 0.46178
 H172 H 0.60302 0.26649 0.52281
 H173 H 0.39029 0.25233 0.50727
 H174 H 0.40714 0.27311 0.57216
 H175 H 0.46543 0.19878 0.39594
 H176 H 0.53146 0.30648 0.63930
 C177 C 1.09261 0.00944 0.23088
 C178 C 1.10370 -0.03133 0.22973
 C179 C 1.07664 -0.06288 0.23433
 C180 C 1.03578 -0.05429 0.23706
 C181 C 1.02303 -0.01414 0.24016
 C182 C 1.05141 0.01800 0.23775
 C183 C 1.03755 0.05680 0.24501
 C184 C 0.99742 0.06458 0.25046
 C185 C 0.96912 0.03354 0.25321
 C186 C 0.98192 -0.00642 0.24796
 C187 C 1.00735 -0.08518 0.23809
 C188 C 0.96836 -0.07792 0.24819
 C189 C 0.95417 -0.03885 0.25239
 C190 C 0.91406 -0.03102 0.26355
 C191 C 0.90260 0.00885 0.26836
 C192 C 0.92868 0.04105 0.26229
 H193 H 1.05706 0.08182 0.24922
 H194 H 0.98956 0.09552 0.25397
 H195 H 1.01474 -0.11588 0.23191
 H196 H 0.95070 -0.10410 0.25401
 H197 H 1.13465 -0.03928 0.22652
 H198 H 0.87212 0.01523 0.27669
 C199 C 0.42638 0.50266 0.78522
 C200 C 0.41227 0.54107 0.77759
 C201 C 0.43592 0.57017 0.75862
 C202 C 0.47503 0.56023 0.74600
 C203 C 0.48995 0.52163 0.75430
 C204 C 0.46583 0.49310 0.77466
 C205 C 0.48215 0.45604 0.78480
 C206 C 0.51953 0.44541 0.77146
 C207 C 0.54282 0.47200 0.74871
 C208 C 0.52905 0.51126 0.74201
 C209 C 0.49930 0.58713 0.72433
 C210 C 0.53802 0.57727 0.71322
 C211 C 0.55399 0.53979 0.72261
 C212 C 0.59347 0.52916 0.71177
 C213 C 0.60525 0.48910 0.71628
 C214 C 0.57991 0.46033 0.73337
 H215 H 0.46647 0.43474 0.80340
 H216 H 0.53028 0.41627 0.77997
 H217 H 0.48851 0.61585 0.71480
 H218 H 0.55469 0.59892 0.69589
 H219 H 0.38227 0.54844 0.78675
 H220 H 0.63446 0.47999 0.70623
 C221 C 1.02622 0.93422 0.74853
 C222 C 0.98714 0.91924 0.74960
 C223 C 0.95445 0.94548 0.75076
 C224 C 0.96191 0.98759 0.75255
 C225 C 1.00118 1.00248 0.74716
 C226 C 1.03279 0.97562 0.74313
 C227 C 1.07047 0.99054 0.73210
 C228 C 1.07790 1.03128 0.73000
 C229 C 1.04851 1.05906 0.74061
 C230 C 1.00915 1.04439 0.74623
 C231 C 0.93171 1.01544 0.76028
 C232 C 0.93916 1.05636 0.75794
 C233 C 0.97755 1.07139 0.74966
 C234 C 0.98483 1.11284 0.74495
 C235 C 1.02415 1.12739 0.74355
 C236 C 1.05670 1.10098 0.74339
 H237 H 1.09438 0.97059 0.72407
 H238 H 1.10660 1.04027 0.71848
 H239 H 0.90217 1.00645 0.76933
 H240 H 0.91461 1.07632 0.76355
 H241 H 0.98239 0.88722 0.75156
 H242 H 1.02903 1.15940 0.74173
 C243 C 0.51110 0.39859 0.28755
 C244 C 0.47171 0.39165 0.29984
 C245 C 0.44369 0.42246 0.30206
 C246 C 0.45705 0.46229 0.29641
 C247 C 0.49615 0.46981 0.28191
 C248 C 0.52311 0.43785 0.27689
 C249 C 0.55986 0.44569 0.25831
 C250 C 0.57059 0.48413 0.24648
 C251 C 0.54526 0.51673 0.25291
 C252 C 0.50712 0.50901 0.26943
 C253 C 0.43191 0.49485 0.30334
 C254 C 0.44201 0.53268 0.28963
 C255 C 0.47866 0.53973 0.27069
 C256 C 0.48639 0.57603 0.25092
 C257 C 0.52509 0.58475 0.23774
 C258 C 0.55573 0.55636 0.24110
 H259 H 0.58017 0.42211 0.25074
 H260 H 0.59785 0.48698 0.22968
 H261 H 0.40386 0.49142 0.31883
 H262 H 0.42068 0.55637 0.29366
 H263 H 0.46244 0.36106 0.30510
 H264 H 0.53074 0.61347 0.22395
 O265 O 0.28375 0.14861 0.17955
 O266 O 0.32192 0.13879 0.24232
 O267 O 0.16509 0.16123 0.22434
 O268 O 0.13270 0.20318 0.26389
 O269 O 0.21731 0.24764 0.13902
 O270 O 0.26443 0.30335 0.14679
 O271 O 0.23444 0.27658 0.35688
 O272 O 0.18863 0.21915 0.35236
 O273 O 0.34231 0.24452 0.32358
 O274 O 0.37265 0.21530 0.26268
 O275 O 0.28530 0.34686 0.27519
 O276 O 0.23346 0.35291 0.21809
 O277 O 0.22430 0.32920 0.31574
 O278 O 0.18886 0.34361 0.25839
 O279 O 0.33948 0.30769 0.28299
 O280 O 0.37221 0.26666 0.23144
 O281 O 0.28823 0.22556 0.35995
 O282 O 0.24135 0.17448 0.35410
 O283 O 0.28589 0.20521 0.14233
 O284 O 0.31324 0.26813 0.14488
 O285 O 0.16210 0.22841 0.17351
 O286 O 0.13435 0.26000 0.23241
 O287 O 0.22295 0.12693 0.22643
 O288 O 0.27040 0.11528 0.26933
 Zr289 Zr 0.26727 0.16911 0.23665
 O290 O 0.28843 0.20142 0.28595
 Zr291 Zr 0.18426 0.22188 0.23247
 O292 O 0.20316 0.25842 0.28095
 Zr293 Zr 0.26417 0.24959 0.17998
 O294 O 0.28705 0.28569 0.22583
 Zr295 Zr 0.24137 0.22666 0.31849
 O296 O 0.21938 0.18874 0.27249
 Zr297 Zr 0.32097 0.25084 0.26501
 O298 O 0.30299 0.21627 0.21553
 Zr299 Zr 0.23910 0.30610 0.25999
 O300 O 0.21575 0.27284 0.21162
 O301 O 0.23060 0.20000 0.19786
 O302 O 0.27546 0.27488 0.29908
 C303 C 0.29074 0.16759 0.14701
 C304 C 0.18508 0.12841 0.22397
 C305 C 0.17978 0.24032 0.14144
 C306 C 0.22826 0.31405 0.35040
 C307 C 0.32556 0.23369 0.35637
 C308 C 0.32213 0.34157 0.28392
 H309 H 0.30450 0.18327 0.30245
 H310 H 0.30270 0.30797 0.21416
 H311 H 0.22069 0.18319 0.17562
 H312 H 0.18004 0.26845 0.29611
 H313 H 0.17304 0.19759 0.33932
 H314 H 0.13359 0.21607 0.29037
 H315 H 0.36630 0.29119 0.21626
 H316 H 0.33726 0.25944 0.15932
 H317 H 0.22608 0.15378 0.33938
 H318 H 0.26887 0.12273 0.29776
 H319 H 0.26043 0.36003 0.20835
 H320 H 0.23864 0.31648 0.15182
 H321 H 0.34134 0.15244 0.22460
 H322 H 0.36796 0.19168 0.27984
 H323 H 0.14224 0.28442 0.21758
 H324 H 0.16571 0.32752 0.26744
 O325 O 0.74278 0.85327 0.19325
 O326 O 0.68560 0.84322 0.24281
 O327 O 0.84322 0.81910 0.25531
 O328 O 0.86059 0.76678 0.29564
 O329 O 0.81962 0.75352 0.14448
 O330 O 0.76840 0.71771 0.11734
 O331 O 0.75196 0.67637 0.33313
 O332 O 0.78813 0.73458 0.35502
 O333 O 0.64864 0.71587 0.28117
 O334 O 0.63553 0.77123 0.22920
 O335 O 0.71507 0.63453 0.22831
 O336 O 0.77762 0.63981 0.18083
 O337 O 0.76751 0.63624 0.28089
 O338 O 0.81438 0.63683 0.22845
 O339 O 0.66118 0.67414 0.22104
 O340 O 0.64281 0.73047 0.18403
 O341 O 0.69081 0.72092 0.33371
 O342 O 0.73069 0.77223 0.35609
 O343 O 0.75862 0.81084 0.14294
 O344 O 0.72104 0.75174 0.12062
 O345 O 0.86101 0.76673 0.19621
 O346 O 0.87360 0.72246 0.24793
 O347 O 0.78616 0.85443 0.26160
 O348 O 0.72674 0.85821 0.28663
 Zr349 Zr 0.74162 0.81485 0.24342
 O350 O 0.70873 0.77035 0.27388
 Zr351 Zr 0.82301 0.75960 0.24564
 O352 O 0.79299 0.71160 0.27398
 Zr353 Zr 0.76176 0.75392 0.16846
 O354 O 0.72780 0.70727 0.19386
 Zr355 Zr 0.74614 0.73417 0.30822
 O356 O 0.77833 0.78276 0.28297
 Zr357 Zr 0.68401 0.73138 0.23144
 O358 O 0.71409 0.77803 0.20077
 Zr359 Zr 0.76427 0.67442 0.23191
 O360 O 0.79915 0.71887 0.20359
 O361 O 0.78819 0.79374 0.20818
 O362 O 0.71884 0.69566 0.26795
 C363 C 0.75014 0.84570 0.15643
 C364 C 0.82402 0.85148 0.26264
 C365 C 0.85440 0.75868 0.15949
 C366 C 0.76097 0.64217 0.31795
 C367 C 0.65645 0.71411 0.31853
 C368 C 0.67745 0.63986 0.22398
 H369 H 0.68819 0.78294 0.29073
 H370 H 0.71614 0.69039 0.17261
 H371 H 0.80484 0.81468 0.19531
 H372 H 0.81193 0.69656 0.29054
 H373 H 0.80335 0.76000 0.35284
 H374 H 0.85533 0.74414 0.31392
 H375 H 0.65729 0.72124 0.16011
 H376 H 0.69852 0.76913 0.12800
 H377 H 0.74562 0.79757 0.35200
 H378 H 0.72009 0.84342 0.31127
 H379 H 0.75243 0.63399 0.16670
 H380 H 0.77883 0.69187 0.12678
 H381 H 0.67418 0.83917 0.21595
 H382 H 0.63120 0.78205 0.25628
 H383 H 0.86915 0.70076 0.22833
 H384 H 0.83343 0.64606 0.24896
 O385 O 0.76565 0.14101 0.78259
 O386 O 0.73927 0.13548 0.72306
 O387 O 0.86432 0.22016 0.76999
 O388 O 0.87565 0.28374 0.75603
 O389 O 0.77979 0.23641 0.87187
 O390 O 0.71831 0.25358 0.88083
 O391 O 0.76706 0.33466 0.67641
 O392 O 0.81287 0.28971 0.65501
 O393 O 0.66234 0.25305 0.68648
 O394 O 0.64981 0.19681 0.72319
 O395 O 0.68171 0.34569 0.77474
 O396 O 0.72535 0.35660 0.82601
 O397 O 0.73077 0.36258 0.72544
 O398 O 0.77897 0.36955 0.79057
 O399 O 0.64725 0.29739 0.74159
 O400 O 0.63551 0.23348 0.78224
 O401 O 0.71420 0.28361 0.65485
 O402 O 0.78021 0.23978 0.64270
 O403 O 0.74443 0.16908 0.84035
 O404 O 0.68299 0.21355 0.84945
 O405 O 0.83708 0.25667 0.84166
 O406 O 0.84859 0.31812 0.79853
 O407 O 0.82845 0.17083 0.73994
 O408 O 0.77931 0.16270 0.68574
 Zr409 Zr 0.76869 0.18802 0.74258
 O410 O 0.73127 0.22436 0.70873
 Zr411 Zr 0.82082 0.26407 0.78028
 O412 O 0.78922 0.30389 0.74308
 Zr413 Zr 0.73903 0.23099 0.82590
 O414 O 0.70471 0.27366 0.79551
 Zr415 Zr 0.76457 0.27492 0.69273
 O416 O 0.80301 0.23774 0.72543
 Zr417 Zr 0.68403 0.24620 0.74359
 O418 O 0.71693 0.20285 0.77481
 Zr419 Zr 0.73900 0.32275 0.77472
 O420 O 0.77139 0.28416 0.81270
 O421 O 0.78984 0.21237 0.79579
 O422 O 0.71617 0.29570 0.72430
 C423 C 0.75511 0.13876 0.81909
 C424 C 0.86146 0.18698 0.75084
 C425 C 0.81618 0.24775 0.87298
 C426 C 0.74465 0.36222 0.68950
 C427 C 0.67725 0.27244 0.65714
 C428 C 0.65130 0.33326 0.75529
 H429 H 0.72124 0.20942 0.68533
 H430 H 0.68255 0.28264 0.81269
 H431 H 0.80702 0.19433 0.81137
 H432 H 0.80675 0.32655 0.73528
 H433 H 0.83494 0.29777 0.67277
 H434 H 0.87229 0.28303 0.72679
 H435 H 0.61076 0.24007 0.76780
 H436 H 0.67409 0.18955 0.83451
 H437 H 0.75535 0.23036 0.62988
 H438 H 0.80234 0.17714 0.67393
 H439 H 0.73739 0.34233 0.84870
 H440 H 0.71589 0.28281 0.87717
 H441 H 0.71098 0.14264 0.72002
 H442 H 0.65447 0.17461 0.74203
 H443 H 0.83383 0.32769 0.82219
 H444 H 0.78495 0.38529 0.76631
 O445 O 0.22695 0.85956 0.80852
 O446 O 0.27450 0.88305 0.75807
 O447 O 0.13344 0.80891 0.73800
 O448 O 0.13548 0.76693 0.68285
 O449 O 0.17247 0.74670 0.83503
 O450 O 0.23213 0.70613 0.84936
 O451 O 0.25919 0.72184 0.63590
 O452 O 0.21058 0.77411 0.62564
 O453 O 0.35000 0.77565 0.69993
 O454 O 0.34746 0.82469 0.76142
 O455 O 0.30989 0.67036 0.74064
 O456 O 0.24786 0.64674 0.77562
 O457 O 0.26505 0.67034 0.67950
 O458 O 0.21413 0.64528 0.72674
 O459 O 0.35042 0.72370 0.75284
 O460 O 0.35258 0.77687 0.79897
 O461 O 0.30869 0.77770 0.64666
 O462 O 0.26076 0.82091 0.63308
 O463 O 0.22357 0.80745 0.85182
 O464 O 0.26843 0.75571 0.86368
 O465 O 0.13427 0.74320 0.77929
 O466 O 0.13561 0.70958 0.71893
 O467 O 0.17656 0.86039 0.74991
 O468 O 0.23349 0.88559 0.71312
 Zr469 Zr 0.23337 0.83527 0.75124
 O470 O 0.27801 0.81020 0.71530
 Zr471 Zr 0.17220 0.75947 0.73329
 O472 O 0.21475 0.72942 0.69873
 Zr473 Zr 0.23107 0.75789 0.81328
 O474 O 0.27723 0.73011 0.78120
 Zr475 Zr 0.25242 0.77225 0.67251
 O476 O 0.20736 0.80281 0.70408
 Zr477 Zr 0.31252 0.77270 0.75073
 O478 O 0.27016 0.80088 0.78790
 Zr479 Zr 0.25236 0.69526 0.73538
 O480 O 0.20580 0.72062 0.76938
 O481 O 0.19575 0.79431 0.77902
 O482 O 0.28934 0.73596 0.70636
 C483 C 0.22322 0.84504 0.84381
 C484 C 0.14127 0.84584 0.74606
 C485 C 0.13912 0.74077 0.81684
 C486 C 0.26474 0.68484 0.64416
 C487 C 0.34337 0.77679 0.66217
 C488 C 0.34428 0.68618 0.74773
 H489 H 0.29411 0.83152 0.70246
 H490 H 0.29315 0.71407 0.79987
 H491 H 0.17541 0.80662 0.79632
 H492 H 0.20092 0.71294 0.67851
 H493 H 0.19193 0.79604 0.63173
 H494 H 0.14704 0.75111 0.66084
 H495 H 0.34301 0.75786 0.81950
 H496 H 0.28997 0.77558 0.85895
 H497 H 0.24847 0.84424 0.64606
 H498 H 0.21439 0.87971 0.69146
 H499 H 0.26636 0.65216 0.79787
 H500 H 0.21479 0.68595 0.83629
 H501 H 0.29348 0.87478 0.77888
 H502 H 0.35147 0.83874 0.73579
 H503 H 0.14675 0.68637 0.73315
 H504 H 0.19817 0.65024 0.70260
 O505 O 0.26598 0.39168 0.72135
 O506 O 0.20177 0.39002 0.76388
 O507 O 0.35339 0.35211 0.79704
 O508 O 0.36229 0.29971 0.84005
 O509 O 0.33759 0.29293 0.68359
 O510 O 0.28673 0.24624 0.65918
 O511 O 0.24065 0.22253 0.86921
 O512 O 0.28078 0.27802 0.89203
 O513 O 0.14827 0.27205 0.80474
 O514 O 0.14834 0.32368 0.74608
 O515 O 0.21356 0.17929 0.75869
 O516 O 0.28083 0.17557 0.72258
 O517 O 0.25389 0.17906 0.81899
 O518 O 0.31134 0.17343 0.77463
 O519 O 0.16287 0.22272 0.75003
 O520 O 0.15378 0.27523 0.70698
 O521 O 0.18549 0.27241 0.86106
 O522 O 0.22744 0.32133 0.88517
 O523 O 0.28237 0.34620 0.67384
 O524 O 0.24383 0.29092 0.64952
 O525 O 0.37224 0.29578 0.74152
 O526 O 0.37487 0.25227 0.79607
 O527 O 0.29950 0.39261 0.79580
 O528 O 0.23799 0.40398 0.81103
 Zr529 Zr 0.25413 0.35660 0.77278
 O530 O 0.21406 0.31708 0.80131
 Zr531 Zr 0.32905 0.29419 0.78688
 O532 O 0.29159 0.25065 0.81340
 Zr533 Zr 0.27739 0.29100 0.70264
 O534 O 0.23587 0.24941 0.72615
 Zr535 Zr 0.24389 0.27927 0.84114
 O536 O 0.28297 0.32333 0.81766
 Zr537 Zr 0.19041 0.27860 0.75790
 O538 O 0.22841 0.32043 0.72850
 Zr539 Zr 0.26459 0.21494 0.76917
 O540 O 0.30699 0.25429 0.74329
 O541 O 0.30214 0.32965 0.74455
 O542 O 0.21774 0.24171 0.79922
 C543 C 0.27731 0.38215 0.68595
 C544 C 0.33658 0.38639 0.80104
 C545 C 0.37035 0.29384 0.70337
 C546 C 0.24458 0.18689 0.85514
 C547 C 0.15212 0.27023 0.84285
 C548 C 0.17670 0.18728 0.75277
 H549 H 0.19327 0.33262 0.81511
 H550 H 0.22474 0.23275 0.70446
 H551 H 0.32192 0.34873 0.73339
 H552 H 0.30669 0.23450 0.83267
 H553 H 0.29821 0.30204 0.89067
 H554 H 0.35228 0.27915 0.85884
 H555 H 0.17155 0.27007 0.68409
 H556 H 0.22100 0.30882 0.65412
 H557 H 0.24496 0.34498 0.88136
 H558 H 0.22888 0.39151 0.83618
 H559 H 0.25984 0.17640 0.70204
 H560 H 0.30559 0.22702 0.67084
 H561 H 0.19438 0.38708 0.73551
 H562 H 0.14144 0.33656 0.77168
 H563 H 0.36988 0.22993 0.77733
 H564 H 0.32558 0.17947 0.79968
 O565 O 0.78511 0.65924 0.64938
 O566 O 0.82952 0.65224 0.70946
 O567 O 0.67120 0.67762 0.70029
 O568 O 0.64072 0.72200 0.73929
 O569 O 0.72430 0.76210 0.61180
 O570 O 0.77305 0.81473 0.61721
 O571 O 0.73940 0.78752 0.82934
 O572 O 0.69991 0.72731 0.82394
 O573 O 0.85271 0.75838 0.79256
 O574 O 0.87949 0.72227 0.73078
 O575 O 0.79903 0.85871 0.74275
 O576 O 0.74304 0.86623 0.69085
 O577 O 0.73877 0.84213 0.78923
 O578 O 0.70201 0.85892 0.73484
 O579 O 0.85336 0.81904 0.74640
 O580 O 0.88229 0.77433 0.70030
 O581 O 0.79915 0.74293 0.83118
 O582 O 0.75620 0.68777 0.82624
 O583 O 0.78692 0.71622 0.61263
 O584 O 0.82192 0.77782 0.61706
 O585 O 0.67052 0.74151 0.64785
 O586 O 0.64404 0.77698 0.70697
 O587 O 0.72697 0.63970 0.69652
 O588 O 0.77096 0.62811 0.74340
 Zr589 Zr 0.77334 0.68048 0.70795
 O590 O 0.79729 0.71301 0.75649
 Zr591 Zr 0.69267 0.73727 0.70676
 O592 O 0.71397 0.77293 0.75434
 Zr593 Zr 0.77157 0.76182 0.65169
 O594 O 0.79655 0.79733 0.69637
 Zr595 Zr 0.75201 0.73952 0.79039
 O596 O 0.72752 0.70240 0.74519
 Zr597 Zr 0.83063 0.76160 0.73435
 O598 O 0.80999 0.72683 0.68581
 Zr599 Zr 0.75063 0.81940 0.73237
 O600 O 0.72489 0.78706 0.68461
 O601 O 0.73693 0.71370 0.67113
 O602 O 0.78709 0.78712 0.77036
 C603 C 0.78898 0.67821 0.61614
 C604 C 0.68902 0.64385 0.69602
 C605 C 0.68743 0.75278 0.61516
 C606 C 0.73581 0.82538 0.82344
 C607 C 0.83629 0.75094 0.82633
 C608 C 0.83664 0.85335 0.74674
 H609 H 0.81360 0.69530 0.77321
 H610 H 0.81239 0.81875 0.68341
 H611 H 0.72530 0.69724 0.64952
 H612 H 0.69143 0.78347 0.77001
 H613 H 0.68600 0.70487 0.81045
 H614 H 0.64418 0.73272 0.76651
 H615 H 0.87480 0.79370 0.67948
 H616 H 0.84419 0.76129 0.62663
 H617 H 0.74426 0.66557 0.81068
 H618 H 0.78716 0.63325 0.76743
 H619 H 0.76918 0.87165 0.67822
 H620 H 0.74877 0.82984 0.62390
 H621 H 0.82663 0.62558 0.69676
 H622 H 0.87657 0.70218 0.75222
 H623 H 0.65153 0.79979 0.68962
 H624 H 0.67785 0.84234 0.73909
 O625 O 0.26714 0.62426 0.28996
 O626 O 0.23153 0.60966 0.23403
 O627 O 0.36821 0.68942 0.25192
 O628 O 0.37974 0.74362 0.21180
 O629 O 0.30382 0.72768 0.35025
 O630 O 0.24941 0.76465 0.36194
 O631 O 0.25980 0.78873 0.13886
 O632 O 0.30680 0.74176 0.12626
 O633 O 0.15972 0.73013 0.18251
 O634 O 0.14507 0.68214 0.22736
 O635 O 0.19716 0.83026 0.23647
 O636 O 0.24225 0.84905 0.28347
 O637 O 0.25767 0.83569 0.18768
 O638 O 0.29605 0.84755 0.25406
 O639 O 0.15360 0.77810 0.24076
 O640 O 0.14723 0.71197 0.28136
 O641 O 0.20968 0.72961 0.13689
 O642 O 0.27516 0.68913 0.12923
 O643 O 0.24562 0.66783 0.33689
 O644 O 0.20487 0.72844 0.35139
 O645 O 0.35197 0.74961 0.30797
 O646 O 0.36847 0.78871 0.24777
 O647 O 0.32693 0.63814 0.23475
 O648 O 0.27035 0.62110 0.19038
 Zr649 Zr 0.26858 0.66085 0.23942
 O650 O 0.22928 0.69253 0.20256
 Zr651 Zr 0.32979 0.73838 0.24988
 O652 O 0.29592 0.77211 0.20940
 Zr653 Zr 0.25451 0.72586 0.31251
 O654 O 0.21869 0.76329 0.27754
 Zr655 Zr 0.26261 0.73504 0.17071
 O656 O 0.30259 0.70174 0.20604
 Zr657 Zr 0.18918 0.72671 0.23647
 O658 O 0.22320 0.68884 0.27291
 Zr659 Zr 0.25266 0.80292 0.24180
 O660 O 0.28811 0.77096 0.28286
 O661 O 0.29849 0.69497 0.28195
 O662 O 0.22048 0.76814 0.20172
 C663 C 0.25239 0.63211 0.32420
 C664 C 0.36177 0.65321 0.24101
 C665 C 0.33816 0.74294 0.34322
 C666 C 0.25975 0.82509 0.15079
 C667 C 0.17263 0.72954 0.14677
 C668 C 0.16184 0.81567 0.23896
 H669 H 0.21506 0.67359 0.18486
 H670 H 0.20023 0.77786 0.29523
 H671 H 0.31534 0.67870 0.29970
 H672 H 0.31398 0.79031 0.19456
 H673 H 0.33080 0.75239 0.13970
 H674 H 0.37316 0.72815 0.18750
 H675 H 0.14333 0.73609 0.29797
 H676 H 0.18673 0.70606 0.34435
 H677 H 0.25140 0.67150 0.12743
 H678 H 0.29201 0.63049 0.17256
 H679 H 0.23682 0.83575 0.30922
 H680 H 0.26180 0.79036 0.35376
 H681 H 0.20622 0.61624 0.24754
 H682 H 0.15923 0.65710 0.22137
 H683 H 0.35828 0.80845 0.26715
 H684 H 0.31385 0.84954 0.23061
 O685 O 0.70830 0.31395 0.34820
 O686 O 0.74925 0.34400 0.29688
 O687 O 0.61702 0.26030 0.26617
 O688 O 0.61469 0.21223 0.22046
 O689 O 0.66367 0.19357 0.36686
 O690 O 0.72561 0.15751 0.37534
 O691 O 0.74011 0.19034 0.16221
 O692 O 0.68988 0.24212 0.15830
 O693 O 0.83247 0.24533 0.22762
 O694 O 0.82948 0.29013 0.29021
 O695 O 0.80105 0.13676 0.25830
 O696 O 0.74367 0.10495 0.29581
 O697 O 0.74869 0.13500 0.20035
 O698 O 0.70714 0.10385 0.24873
 O699 O 0.83764 0.19091 0.27748
 O700 O 0.83546 0.24289 0.32754
 O701 O 0.78968 0.24734 0.17563
 O702 O 0.73826 0.28972 0.16732
 O703 O 0.71206 0.25677 0.38445
 O704 O 0.75962 0.20658 0.39042
 O705 O 0.62038 0.19922 0.31548
 O706 O 0.62563 0.15977 0.25332
 O707 O 0.65212 0.31441 0.28801
 O708 O 0.70655 0.34616 0.25338
 Zr709 Zr 0.71173 0.29367 0.28798
 O710 O 0.75711 0.27467 0.24824
 Zr711 Zr 0.65712 0.21326 0.26676
 O712 O 0.69998 0.19060 0.22741
 Zr713 Zr 0.71933 0.21097 0.34248
 O714 O 0.76569 0.18941 0.30643
 Zr715 Zr 0.73376 0.23783 0.20307
 O716 O 0.68756 0.26142 0.23932
 Zr717 Zr 0.79625 0.23716 0.27870
 O718 O 0.75328 0.25908 0.31932
 Zr719 Zr 0.74143 0.15625 0.25900
 O720 O 0.69495 0.17452 0.29767
 O721 O 0.67902 0.24753 0.31380
 O722 O 0.77446 0.20186 0.23228
 C723 C 0.71011 0.29498 0.38165
 C724 C 0.61957 0.29702 0.27681
 C725 C 0.62844 0.19193 0.35199
 C726 C 0.74544 0.15248 0.16649
 C727 C 0.82503 0.24787 0.19013
 C728 C 0.83414 0.15397 0.26784
 H729 H 0.77113 0.29799 0.23649
 H730 H 0.78347 0.17332 0.32327
 H731 H 0.65848 0.25824 0.33200
 H732 H 0.68579 0.17492 0.20683
 H733 H 0.66988 0.26151 0.16780
 H734 H 0.62966 0.21182 0.19511
 H735 H 0.83142 0.21907 0.34458
 H736 H 0.77929 0.22856 0.38701
 H737 H 0.72514 0.31128 0.18237
 H738 H 0.68887 0.33947 0.23077
 H739 H 0.76383 0.10994 0.31665
 H740 H 0.71100 0.13637 0.36057
 H741 H 0.77190 0.33462 0.31298
 H742 H 0.82937 0.30689 0.26596
 H743 H 0.63354 0.13964 0.27330
 H744 H 0.68421 0.11157 0.23217
 N745 N 0.32237 0.16288 0.08301
 N746 N 0.31764 0.14195 0.04999
 C747 C 0.29414 0.11023 0.05906
 C748 C 0.28482 0.11242 0.09913
 N749 N 0.30281 0.14576 0.11277
 H750 H 0.26186 0.09575 0.11486
 N751 N 0.78926 0.67586 0.54516
 N752 N 0.78136 0.65071 0.51603
 C753 C 0.77765 0.61382 0.53195
 C754 C 0.78501 0.61745 0.57267
 N755 N 0.79136 0.65675 0.57945
 H756 H 0.78559 0.59464 0.59539
 N757 N 0.76032 0.86949 0.09040
 N758 N 0.75375 0.90069 0.06777
 C759 C 0.73865 0.92972 0.09112
 C760 C 0.73737 0.91535 0.13000
 N761 N 0.75030 0.87713 0.12763
 H762 H 0.72552 0.92976 0.15629
 N763 N 0.32216 0.41045 0.63756
 N764 N 0.32372 0.43946 0.61095
 C765 C 0.29058 0.46114 0.61599
 C766 C 0.26831 0.44452 0.64657
 N767 N 0.28930 0.41297 0.65914
 H768 H 0.23856 0.45220 0.65610
 N769 N 0.77025 0.06890 0.81523
 N770 N 0.76709 0.03556 0.83592
 C771 C 0.75147 0.04509 0.87168
 C772 C 0.74452 0.08617 0.87181
 N773 N 0.75690 0.09960 0.83602
 H774 H 0.72957 0.10400 0.89410
 N775 N 0.20520 0.59869 0.36767
 N776 N 0.20063 0.56467 0.38728
 C777 C 0.23284 0.54213 0.37961
 C778 C 0.25782 0.56409 0.35470
 N779 N 0.23955 0.59922 0.34843
 H780 H 0.28775 0.55689 0.34533
 N781 N 0.20933 0.91127 0.86591
 N782 N 0.20671 0.93301 0.89837
 C783 C 0.21216 0.90909 0.93018
 C784 C 0.21891 0.87060 0.91513
 N785 N 0.21679 0.87373 0.87489
 H786 H 0.22632 0.84377 0.93135
 N787 N 0.72458 0.29974 0.45189
 N788 N 0.72815 0.32632 0.48084
 C789 C 0.71813 0.36231 0.46604
 C790 C 0.70718 0.35615 0.42623
 N791 N 0.71232 0.31680 0.41868
 H792 H 0.69590 0.37751 0.40505
 N793 N 0.17531 0.26332 0.07420
 N794 N 0.14987 0.26812 0.04497
 C795 C 0.11367 0.25508 0.05727
 C796 C 0.11858 0.24147 0.09660
 N797 N 0.15759 0.24731 0.10555
 H798 H 0.09732 0.22657 0.11586
 N799 N 0.67816 0.77245 0.54688
 N800 N 0.65319 0.76680 0.51711
 C801 C 0.62287 0.74432 0.53138
 C802 C 0.63011 0.73602 0.57100
 N803 N 0.66478 0.75450 0.57943
 H804 H 0.61284 0.71738 0.59112
 N805 N 0.07509 0.70907 0.82462
 N806 N 0.04247 0.71320 0.84616
 C807 C 0.05100 0.73971 0.87533
 C808 C 0.09016 0.75221 0.87028
 N809 N 0.10419 0.73162 0.83909
 H810 H 0.10548 0.77705 0.88445
 N811 N 0.59744 0.16008 0.40944
 N812 N 0.56547 0.16471 0.43204
 C813 C 0.54277 0.19267 0.41445
 C814 C 0.56194 0.20506 0.38022
 N815 N 0.59582 0.18403 0.37824
 H816 H 0.55451 0.23018 0.36144
 N817 N 0.88738 0.71893 0.11016
 N818 N 0.92141 0.71699 0.09062
 C819 C 0.94426 0.74783 0.10327
 C820 C 0.92289 0.76920 0.13131
 N821 N 0.88747 0.75012 0.13435
 H822 H 0.93102 0.79703 0.14580
 N823 N 0.44002 0.27746 0.69980
 N824 N 0.46949 0.27510 0.67385
 C825 C 0.45570 0.28718 0.63817
 C826 C 0.41597 0.29777 0.64370
 N827 N 0.40753 0.29075 0.68244
 H828 H 0.39558 0.31083 0.62272
 N829 N 0.80869 0.25990 0.94325
 N830 N 0.82944 0.26333 0.97640
 C831 C 0.86819 0.25857 0.96712
 C832 C 0.86991 0.25119 0.92586
 N833 N 0.83219 0.25292 0.91241
 H834 H 0.89505 0.24266 0.90770
 N835 N 0.38322 0.78889 0.37640
 N836 N 0.40055 0.79397 0.41135
 C837 C 0.38862 0.76348 0.43501
 C838 C 0.36360 0.73896 0.41289
 N839 N 0.36139 0.75579 0.37652
 H840 H 0.35114 0.71016 0.42122
 N841 N 0.18638 0.05719 0.22864
 N842 N 0.16281 0.02568 0.23128
 C843 C 0.12479 0.03778 0.22761
 C844 C 0.12671 0.07948 0.22123
 N845 N 0.16562 0.08995 0.22295
 H846 H 0.10363 0.10028 0.21381
 N847 N 0.67796 0.57801 0.66746
 N848 N 0.65309 0.54720 0.67056
 C849 C 0.62360 0.55805 0.69559
 C850 C 0.63164 0.59703 0.70796
 N851 N 0.66561 0.60831 0.68947
 H852 H 0.61627 0.61418 0.73051
 N853 N 0.89759 0.14662 0.70435
 N854 N 0.93162 0.12771 0.70079
 C855 C 0.95385 0.13739 0.73279
 C856 C 0.93165 0.16267 0.75683
 N857 N 0.89676 0.16743 0.73780
 H858 H 0.93824 0.17266 0.78678
 N859 N 0.39608 0.60153 0.20458
 N860 N 0.43029 0.58244 0.20469
 C861 C 0.45250 0.59815 0.23433
 C862 C 0.43031 0.62748 0.25294
 N863 N 0.39533 0.62839 0.23345
 H864 H 0.43747 0.64395 0.27978
 N865 N 0.11640 0.90065 0.78369
 N866 N 0.08562 0.92449 0.78606
 C867 C 0.05812 0.91049 0.76032
 C868 C 0.07301 0.87634 0.74213
 N869 N 0.10992 0.87205 0.75725
 H870 H 0.06055 0.85954 0.71751
 N871 N 0.54999 0.30332 0.26110
 N872 N 0.52067 0.32919 0.26345
 C873 C 0.53571 0.36272 0.28014
 C874 C 0.57558 0.35626 0.28856
 N875 N 0.58321 0.31892 0.27574
 H876 H 0.59667 0.37634 0.30275
 N877 N 0.83151 0.91383 0.29816
 N878 N 0.85470 0.94597 0.29832
 C879 C 0.88472 0.93951 0.27227
 C880 C 0.87828 0.90194 0.25547
 N881 N 0.84550 0.88690 0.27312
 H882 H 0.89263 0.88861 0.22988
 N883 N 0.34787 0.44958 0.83457
 N884 N 0.37076 0.48182 0.83055
 C885 C 0.39845 0.47300 0.80286
 C886 C 0.39156 0.43427 0.78989
 N887 N 0.36030 0.42055 0.81090
 H888 H 0.40543 0.41901 0.76510
 N889 N 0.08112 0.25651 0.85488
 N890 N 0.05648 0.25371 0.88577
 C891 C 0.07776 0.26158 0.91910
 C892 C 0.11660 0.26882 0.90709
 N893 N 0.11737 0.26562 0.86728
 H894 H 0.14203 0.27687 0.92519
 N895 N 0.59419 0.68073 0.33780
 N896 N 0.57111 0.67769 0.36981
 C897 C 0.58793 0.70069 0.39841
 C898 C 0.62232 0.71726 0.38308
 N899 N 0.62497 0.70446 0.34544
 H900 H 0.64294 0.73772 0.39747
 N901 N 0.84877 0.74592 0.89762
 N902 N 0.87902 0.74945 0.92259
 C903 C 0.91184 0.75847 0.90085
 C904 C 0.90040 0.75972 0.86132
 N905 N 0.86115 0.75197 0.86073
 H906 H 0.91844 0.76638 0.83536
 N907 N 0.33778 0.21556 0.42565
 N908 N 0.36787 0.21346 0.45097
 C909 C 0.40064 0.22673 0.43153
 C910 C 0.38965 0.23645 0.39317
 N911 N 0.35025 0.22942 0.39082
 H912 H 0.40855 0.24735 0.36928
 N913 N 0.14511 0.70588 0.08423
 N914 N 0.11191 0.70944 0.06355
 C915 C 0.08862 0.73560 0.08334
 C916 C 0.10815 0.74722 0.11734
 N917 N 0.14342 0.72865 0.11632
 H918 H 0.09826 0.76788 0.14008
 N919 N 0.65733 0.30759 0.59614
 N920 N 0.62409 0.31406 0.57591
 C921 C 0.59466 0.29351 0.59467
 C922 C 0.61087 0.27425 0.62662
 N923 N 0.64993 0.28334 0.62646
 H924 H 0.59558 0.25529 0.64801
 N925 N 0.89367 0.23418 0.17258
 N926 N 0.91777 0.23477 0.14131
 C927 C 0.89772 0.25052 0.11043
 C928 C 0.85942 0.25871 0.12425
 N929 N 0.85844 0.24852 0.16315
 H930 H 0.83466 0.27067 0.10775
 N931 N 0.41110 0.75893 0.64635
 N932 N 0.43369 0.75318 0.61463
 C933 C 0.41315 0.76528 0.58237
 C934 C 0.37635 0.77795 0.59572
 N935 N 0.37659 0.77395 0.63570
 H936 H 0.35129 0.78764 0.57821
 N937 N 0.22689 0.11755 0.86595
 N938 N 0.22447 0.09091 0.89490
 C939 C 0.23344 0.10984 0.92928
 C940 C 0.24157 0.14980 0.91991
 N941 N 0.23707 0.15304 0.88026
 H942 H 0.25093 0.17390 0.93937
 N943 N 0.77920 0.57338 0.33292
 N944 N 0.78053 0.54873 0.36379
 C945 C 0.76564 0.56876 0.39525
 C946 C 0.75556 0.60670 0.38259
 N947 N 0.76449 0.60836 0.34376
 H948 H 0.74367 0.63102 0.40014
 N949 N 0.73595 0.14256 0.09576
 N950 N 0.73321 0.11322 0.06949
 C951 C 0.74148 0.07870 0.08842
 C952 C 0.74869 0.08820 0.12808
 N953 N 0.74533 0.12833 0.13114
 H954 H 0.75448 0.06803 0.15249
 N955 N 0.25656 0.66471 0.57536
 N956 N 0.25930 0.63193 0.55353
 C957 C 0.27479 0.60305 0.57674
 C958 C 0.28076 0.61940 0.61409
 N959 N 0.26924 0.65767 0.61181
 H960 H 0.29083 0.60483 0.64090
 N961 N 0.73219 0.83938 0.89466
 N962 N 0.72863 0.87056 0.91875
 C963 C 0.72267 0.90321 0.89589
 C964 C 0.72334 0.89066 0.85657
 N965 N 0.72915 0.85085 0.85716
 H966 H 0.72112 0.90873 0.82998
 N967 N 0.24776 0.33325 0.41713
 N968 N 0.25308 0.36642 0.43806
 C969 C 0.23752 0.39702 0.41721
 C970 C 0.22291 0.38099 0.38202
 N971 N 0.22948 0.34124 0.38338
 H972 H 0.21070 0.39678 0.35685
 N973 N 0.29974 0.87471 0.11618
 N974 N 0.29801 0.89857 0.08481
 C975 C 0.26133 0.89430 0.06903
 C976 C 0.24068 0.86620 0.09169
 N977 N 0.26552 0.85549 0.12123
 H978 H 0.21041 0.85557 0.08784
 N979 N 0.70174 0.41610 0.66579
 N980 N 0.69194 0.43242 0.63115
 C981 C 0.71622 0.41663 0.60323
 C982 C 0.74126 0.39052 0.62194
 N983 N 0.73176 0.39120 0.66094
 H984 H 0.76340 0.37167 0.60814
 N985 N 0.15912 0.11738 0.75987
 N986 N 0.12747 0.09372 0.75823
 C987 C 0.09611 0.11612 0.74733
 C988 C 0.10992 0.15525 0.74340
 N989 N 0.14932 0.15437 0.75079
 H990 H 0.09337 0.18173 0.73581
 N991 N 0.66204 0.57057 0.23926
 N992 N 0.63010 0.54782 0.24500
 C993 C 0.59799 0.56898 0.23380
 C994 C 0.61173 0.60607 0.22138
 N995 N 0.65160 0.60570 0.22502
 H996 H 0.59452 0.63191 0.21317
 N997 N 0.09762 0.83615 0.26382
 N998 N 0.07468 0.86800 0.26395
 C999 C 0.09234 0.89594 0.24062
 C1000 C 0.12791 0.88029 0.22714
 N1001 N 0.12963 0.84293 0.24185
 H1002 H 0.15041 0.89450 0.20868
 N1003 N 0.58795 0.35391 0.72720
 N1004 N 0.56884 0.38748 0.71953
 C1005 C 0.59164 0.41783 0.73361
 C1006 C 0.62508 0.40190 0.75047
 N1007 N 0.62148 0.36196 0.74624
 H1008 H 0.64968 0.41775 0.76427
 N1009 N 0.90267 0.14188 0.28681
 N1010 N 0.92890 0.11261 0.28606
 C1011 C 0.91167 0.08164 0.26666
 C1012 C 0.87362 0.09274 0.25622
 N1013 N 0.86932 0.13042 0.26912
 H1014 H 0.85095 0.07488 0.24154
 N1015 N 0.41458 0.67476 0.75817
 N1016 N 0.44001 0.64497 0.76088
 C1017 C 0.41923 0.61087 0.75445
 C1018 C 0.37979 0.62084 0.74831
 N1019 N 0.37832 0.66096 0.75068
 H1020 H 0.35465 0.60096 0.74336
 N1021 N 0.85071 0.92349 0.73551
 N1022 N 0.88147 0.94844 0.73502
 C1023 C 0.91325 0.92846 0.74885
 C1024 C 0.90080 0.88969 0.75706
 N1025 N 0.86164 0.88811 0.74877
 H1026 H 0.91845 0.86476 0.76700
 N1027 N 0.33893 0.41253 0.28309
 N1028 N 0.37127 0.43505 0.28763
 C1029 C 0.40034 0.41157 0.30222
 C1030 C 0.38423 0.37364 0.30640
 N1031 N 0.34633 0.37543 0.29397
 H1032 H 0.39926 0.34636 0.31432
   
