data_POSCAR
  _audit_creation_date              2014-09-24
  _audit_creation_method            'ToBaCCo'
  _symmetry_space_group_name_H-M    'P1'
  _symmetry_Int_Tables_number       1
  _symmetry_cell_setting            triclinic
  loop_
  _symmetry_equiv_pos_as_xyz
 x,y,z
_cell_length_a 38.4249
_cell_length_b 38.5066
_cell_length_c 38.5392
_cell_angle_alpha 89.979200
_cell_angle_beta 90.037900
_cell_angle_gamma 89.973400
loop_
  _atom_site_label
  _atom_site_type_symbol
  _atom_site_fract_x
  _atom_site_fract_y
  _atom_site_fract_z
N1 N 0.35651 0.35901 1.35291
 N2 N 1.14115 0.64425 0.86127
 N3 N 0.64141 -0.14435 0.13882
 N4 N -0.14315 1.14085 -0.35317
 N5 N 0.64151 0.64431 0.63899
 N6 N 0.85672 0.35890 0.14696
 N7 N 0.35572 0.14164 0.85245
 N8 N 0.14149 0.85560 0.36148
 Zn9 Zn 0.00817 1.04390 -0.01624
 Zn10 Zn -0.02641 0.97441 -0.02290
 Zn11 Zn 0.04290 0.98091 0.01231
 Zn12 Zn -0.02058 1.00908 0.04655
 O13 O 0.00096 1.00202 0.00488
 O14 O -0.01322 1.04685 -0.05724
 O15 O -0.00517 0.93452 -0.03502
 O16 O 0.07899 1.00556 -0.00373
 O17 O -0.03862 0.99550 -0.06279
 O18 O 0.05313 1.05234 -0.02498
 O19 O 0.04581 0.93975 -0.00865
 O20 O 0.00405 0.99306 0.08266
 O21 O -0.06647 0.96205 -0.00217
 O22 O 0.05142 0.97255 0.05722
 O23 O -0.06184 0.98791 0.04897
 O24 O -0.02895 1.05398 0.05531
 O25 O -0.00748 1.07991 0.00873
 C26 C -0.03178 1.02564 -0.07432
 C27 C 0.02482 0.92279 -0.02756
 C28 C 0.08038 1.03468 -0.01906
 C29 C 0.03351 0.97826 0.08426
 C30 C -0.07855 0.96914 0.02766
 C31 C -0.02263 1.08125 0.03794
 Zn32 Zn 0.50841 0.04411 0.51614
 Zn33 Zn 0.54311 -0.01893 0.48783
 Zn34 Zn 0.47386 -0.02537 0.52312
 Zn35 Zn 0.47953 0.00911 0.45353
 O36 O 0.50117 0.00217 0.49521
 O37 O 0.55338 0.05262 0.52482
 O38 O 0.54607 -0.06003 0.50894
 O39 O 0.46167 -0.00412 0.56293
 O40 O 0.57923 0.00579 0.50375
 O41 O 0.48709 0.04718 0.55712
 O42 O 0.49516 -0.06521 0.53539
 O43 O 0.43830 -0.01213 0.45120
 O44 O 0.55154 -0.02741 0.44295
 O45 O 0.43377 -0.03783 0.50244
 O46 O 0.50412 -0.00697 0.41746
 O47 O 0.47108 0.05398 0.44462
 O48 O 0.49268 0.08003 0.49107
 C49 C 0.58062 0.03497 0.51895
 C50 C 0.52513 -0.07695 0.52793
 C51 C 0.46854 0.02607 0.57430
 C52 C 0.42164 -0.03086 0.47258
 C53 C 0.53359 -0.02176 0.41589
 C54 C 0.47743 0.08130 0.46189
 Zn55 Zn 1.00813 0.45589 0.48362
 Zn56 Zn 1.04297 0.51876 0.51217
 Zn57 Zn 0.97367 0.52548 0.47695
 Zn58 Zn 0.97942 0.49073 0.54639
 O59 O 1.00099 0.49777 0.50473
 O60 O 1.05308 0.44732 0.47490
 O61 O 1.04596 0.55992 0.49119
 O62 O 0.96143 0.50444 0.43705
 O63 O 1.07903 0.49400 0.49617
 O64 O 0.98675 0.45304 0.44261
 O65 O 0.99498 0.56533 0.46484
 O66 O 0.93819 0.51197 0.54880
 O67 O 1.05147 0.52710 0.55708
 O68 O 0.93360 0.53791 0.49767
 O69 O 1.00406 0.50669 0.58250
 O70 O 0.97101 0.44583 0.55516
 O71 O 0.99241 0.41990 0.50857
 C72 C 1.08036 0.46488 0.48085
 C73 C 1.02500 0.57696 0.47230
 C74 C 0.96824 0.47430 0.42552
 C75 C 0.92151 0.53081 0.52750
 C76 C 1.03353 0.52144 0.58411
 C77 C 0.97728 0.41857 0.53779
 Zn78 Zn 0.47939 0.49095 0.95365
 Zn79 Zn 0.54297 0.51886 0.98795
 Zn80 Zn 0.47370 0.52563 1.02310
 Zn81 Zn 0.50807 0.45600 1.01645
 O82 O 0.50098 0.49791 0.99534
 O83 O 0.50406 0.50686 0.91755
 O84 O 0.54603 0.56001 1.00893
 O85 O 0.43365 0.53812 1.00236
 O86 O 0.55148 0.52722 0.94304
 O87 O 0.43821 0.51229 0.95120
 O88 O 0.49506 0.56544 1.03521
 O89 O 0.48675 0.45317 1.05747
 O90 O 0.57900 0.49403 1.00396
 O91 O 0.46148 0.50459 1.06299
 O92 O 0.55302 0.44733 1.02515
 O93 O 0.49219 0.42007 0.99152
 O94 O 0.47083 0.44609 0.94491
 C95 C 0.53355 0.52157 0.91598
 C96 C 0.52508 0.57705 1.02780
 C97 C 0.42154 0.53109 0.97250
 C98 C 0.46827 0.47444 1.07454
 C99 C 0.58032 0.46487 1.01923
 C100 C 0.47700 0.41880 0.96231
 N101 N 1.28717 0.41705 0.38270
 C102 C 1.26667 0.39499 0.40095
 N103 N 1.27594 0.36113 0.40349
 N104 N 1.30484 0.34967 0.38824
 C105 C 1.32551 0.37163 0.36986
 N106 N 1.31609 0.40558 0.36745
 C107 C 1.23503 0.40707 0.41660
 C108 C 1.20815 0.41697 0.42931
 C109 C 1.17579 0.42859 0.44379
 N110 N 1.14641 0.40966 0.43920
 N111 N 1.11607 0.42097 0.45153
 C112 C 1.11410 0.45159 0.46890
 N113 N 1.14362 0.47042 0.47360
 N114 N 1.17397 0.45910 0.46126
 N115 N 0.22316 0.64108 0.90963
 C116 C 0.23183 0.60707 0.90688
 N117 N 0.21027 0.58526 0.88958
 N118 N 0.18096 0.59709 0.87537
 C119 C 0.17219 0.63120 0.87787
 N120 N 0.19384 0.65293 0.89542
 C121 C 0.26425 0.59455 0.92053
 C122 C 0.29177 0.58367 0.93094
 C123 C 0.32480 0.57021 0.94200
 N124 N 0.33773 0.57777 0.97388
 N125 N 0.36858 0.56531 0.98375
 C126 C 0.38749 0.54491 0.96203
 N127 N 0.37442 0.53742 0.93017
 N128 N 0.34362 0.54986 0.92032
 N129 N -0.27665 0.85905 0.09046
 C130 C -0.26808 0.89307 0.09325
 N131 N -0.28969 0.91482 0.11057
 N132 N -0.31894 0.90290 0.12476
 C133 C -0.32761 0.86878 0.12223
 N134 N -0.30592 0.84712 0.10466
 C135 C -0.23571 0.90568 0.07962
 C136 C -0.20824 0.91661 0.06920
 C137 C -0.17526 0.93010 0.05814
 N138 N -0.15644 0.95048 0.07980
 N139 N -0.12566 0.96291 0.06996
 C140 C -0.11261 0.95539 0.03811
 N141 N -0.13151 0.93496 0.01640
 N142 N -0.16235 0.92251 0.02627
 N143 N 0.77631 0.13864 0.59611
 C144 C 0.76706 0.10479 0.59871
 N145 N 0.78756 0.08276 0.61704
 N146 N 0.81648 0.09425 0.63232
 C147 C 0.82587 0.12820 0.62984
 N148 N 0.80520 0.15013 0.61138
 C149 C 0.73541 0.09270 0.58306
 C150 C 0.70852 0.08280 0.57036
 C151 C 0.67614 0.07119 0.55591
 N152 N 0.64679 0.09021 0.56039
 N153 N 0.61642 0.07892 0.54809
 C154 C 0.61440 0.04823 0.53086
 N155 N 0.64388 0.02931 0.52626
 N156 N 0.67425 0.04061 0.53858
 N157 N 0.38617 0.28989 0.41111
 C158 C 0.40354 0.26874 0.38898
 N159 N 0.40577 0.27762 0.35502
 N160 N 0.39099 0.30674 0.34352
 C161 C 0.37341 0.32801 0.36556
 N162 N 0.37140 0.31902 0.39961
 C163 C 0.41832 0.23674 0.40115
 C164 C 0.43013 0.20961 0.41141
 C165 C 0.44344 0.17703 0.42371
 N166 N 0.46057 0.17515 0.45442
 N167 N 0.47182 0.14467 0.46641
 C168 C 0.46628 0.11506 0.44808
 N169 N 0.44922 0.11706 0.41727
 N170 N 0.43798 0.14754 0.40529
 N171 N 0.90602 0.22224 0.64461
 C172 C 0.90381 0.23103 0.61063
 N173 N 0.88650 0.20981 0.58851
 N174 N 0.87176 0.18070 0.60005
 C175 C 0.87375 0.17180 0.63414
 N176 N 0.89128 0.19314 0.65616
 C177 C 0.91853 0.26302 0.59842
 C178 C 0.93027 0.29016 0.58814
 C179 C 0.94349 0.32276 0.57585
 N180 N 0.93811 0.35221 0.59435
 N181 N 0.94927 0.38271 0.58241
 C182 C 0.96618 0.38478 0.55154
 N183 N 0.97163 0.35520 0.53312
 N184 N 0.96046 0.32470 0.54507
 N185 N 0.11284 0.71342 -0.08005
 C186 C 0.09454 0.73431 -0.10172
 N187 N 0.09130 0.72525 -0.13555
 N188 N 0.10594 0.69619 -0.14733
 C189 C 0.12444 0.67518 -0.12575
 N190 N 0.12749 0.68437 -0.09183
 C191 C 0.08019 0.76638 -0.08931
 C192 C 0.06911 0.79365 -0.07863
 C193 C 0.05728 0.82645 -0.06548
 N194 N 0.07844 0.84565 -0.04494
 N195 N 0.06793 0.87630 -0.03288
 C196 C 0.03591 0.88885 -0.04096
 N197 N 0.01470 0.86956 -0.06155
 N198 N 0.02523 0.83884 -0.07364
 N199 N 0.59179 0.77455 1.13563
 C200 C 0.59503 0.76549 1.10181
 N201 N 0.61326 0.78639 1.08014
 N202 N 0.62785 0.81548 1.09192
 C203 C 0.62479 0.82467 1.12583
 N204 N 0.60637 0.80364 1.14741
 C205 C 0.58071 0.73340 1.08940
 C206 C 0.56962 0.70614 1.07874
 C207 C 0.55774 0.67334 1.06564
 N208 N 0.57888 0.65403 1.04518
 N209 N 0.56832 0.62339 1.03315
 C210 C 0.53626 0.61096 1.04118
 N211 N 0.51507 0.63036 1.06169
 N212 N 0.52566 0.66106 1.07374
 N213 N 0.35918 0.40890 1.27203
 C214 C 0.39313 0.40596 1.26296
 N215 N 0.41505 0.38795 1.28386
 N216 N 0.40339 0.37327 1.31291
 C217 C 0.36935 0.37598 1.32209
 N218 N 0.34751 0.39421 1.30110
 C219 C 0.40546 0.42018 1.23082
 C220 C 0.41619 0.43107 1.20351
 C221 C 0.42951 0.44262 1.17070
 N222 N 0.44955 0.42107 1.15141
 N223 N 0.46188 0.43135 1.12081
 C224 C 0.45458 0.46355 1.10840
 N225 N 0.43449 0.48515 1.12779
 N226 N 0.42214 0.47484 1.15845
 N227 N 0.58270 -0.11562 0.20790
 C228 C 0.60466 -0.09781 0.22890
 N229 N 0.63866 -0.09511 0.21999
 N230 N 0.65037 -0.10982 0.19098
 C231 C 0.62851 -0.12779 0.16983
 N232 N 0.59441 -0.13033 0.17887
 C233 C 0.59234 -0.08289 0.26071
 C234 C 0.58220 -0.07082 0.28773
 C235 C 0.57029 -0.05711 0.32023
 N236 N 0.58948 -0.06164 0.34942
 N237 N 0.57798 -0.04994 0.37985
 C238 C 0.54690 -0.03329 0.38211
 N239 N 0.52780 -0.02868 0.35280
 N240 N 0.53930 -0.04039 0.32236
 N241 N -0.08472 1.11210 -0.28383
 C242 C -0.10667 1.09415 -0.26296
 N243 N -0.14060 1.09118 -0.27215
 N244 N -0.15222 1.10579 -0.30129
 C245 C -0.13036 1.12397 -0.32225
 N246 N -0.09634 1.12671 -0.31296
 C247 C -0.09440 1.07997 -0.23075
 C248 C -0.08371 1.06911 -0.20341
 C249 C -0.07045 1.05755 -0.17055
 N250 N -0.07789 1.02536 -0.15830
 N251 N -0.06558 1.01503 -0.12761
 C252 C -0.04546 1.03658 -0.10820
 N253 N -0.03810 1.06876 -0.12059
 N254 N -0.05039 1.07906 -0.15122
 N255 N 1.08250 0.61538 0.79213
 C256 C 1.10450 0.59758 0.77117
 N257 N 1.13851 0.59494 0.78012
 N258 N 1.15018 0.60969 0.80914
 C259 C 1.12828 0.62766 0.83024
 N260 N 1.09418 0.63014 0.82116
 C261 C 1.09221 0.58261 0.73936
 C262 C 1.08210 0.57050 0.71234
 C263 C 1.07022 0.55676 0.67983
 N264 N 1.08942 0.56127 0.65067
 N265 N 1.07793 0.54956 0.62023
 C266 C 1.04686 0.53292 0.61792
 N267 N 1.02775 0.52832 0.64721
 N268 N 1.03925 0.54004 0.67766
 N269 N 0.72341 0.64100 0.59054
 C270 C 0.73202 0.60697 0.59328
 N271 N 0.71045 0.58519 0.61061
 N272 N 0.68120 0.59708 0.62486
 C273 C 0.67249 0.63121 0.62236
 N274 N 0.69414 0.65290 0.60479
 C275 C 0.76438 0.59438 0.57959
 C276 C 0.79184 0.58345 0.56914
 C277 C 0.82483 0.56994 0.55805
 N278 N 0.83773 0.57757 0.52618
 N279 N 0.86855 0.56510 0.51629
 C280 C 0.88746 0.54461 0.53797
 N281 N 0.87441 0.53705 0.56982
 N282 N 0.84364 0.54950 0.57968
 N283 N 0.78726 0.41687 1.11721
 C284 C 0.76675 0.39480 1.09897
 N285 N 0.77606 0.36096 1.09642
 N286 N 0.80500 0.34952 1.11165
 C287 C 0.82568 0.37149 1.13002
 N288 N 0.81622 0.40543 1.13244
 C289 C 0.73506 0.40685 1.08335
 C290 C 0.70815 0.41676 1.07066
 C291 C 0.67577 0.42842 1.05621
 N292 N 0.64638 0.40951 1.06080
 N293 N 0.61603 0.42087 1.04849
 C294 C 0.61406 0.45152 1.03115
 N295 N 0.64359 0.47033 1.02645
 N296 N 0.67394 0.45896 1.03877
 N297 N 0.29056 1.12115 -0.08139
 C298 C 0.26655 1.10342 -0.10009
 N299 N 0.27224 1.09784 -0.13434
 N300 N 0.30102 1.10974 -0.14948
 C301 C 0.32514 1.12767 -0.13092
 N302 N 0.31935 1.13304 -0.09653
 C303 C 0.23499 1.09158 -0.08411
 C304 C 0.20815 1.08189 -0.07117
 C305 C 0.17582 1.07049 -0.05647
 N306 N 0.17394 1.04001 -0.03894
 N307 N 0.14359 1.02886 -0.02645
 C308 C 0.11413 1.04783 -0.03109
 N309 N 0.11616 1.07842 -0.04852
 N310 N 0.14650 1.08956 -0.06099
 N311 N 0.21043 -0.08529 0.38980
 C312 C 0.23204 -0.10706 0.40714
 N313 N 0.22345 -0.14109 0.40992
 N314 N 0.19417 -0.15299 0.39569
 C315 C 0.17248 -0.13130 0.37810
 N316 N 0.18117 -0.09718 0.37558
 C317 C 0.26443 -0.09448 0.42078
 C318 C 0.29192 -0.08355 0.43118
 C319 C 0.32492 -0.07003 0.44221
 N320 N 0.33786 -0.07753 0.47411
 N321 N 0.36870 -0.06504 0.48395
 C322 C 0.38758 -0.04467 0.46217
 N323 N 0.37449 -0.03724 0.43029
 N324 N 0.34371 -0.04971 0.42048
 N325 N 0.61325 -0.28633 0.58040
 C326 C 0.59502 -0.26546 0.60211
 N327 N 0.59182 -0.27458 0.63592
 N328 N 0.60644 -0.30369 0.64767
 C329 C 0.62486 -0.32468 0.62605
 N330 N 0.62787 -0.31544 0.59214
 C331 C 0.58066 -0.23335 0.58973
 C332 C 0.56957 -0.20607 0.57909
 C333 C 0.55771 -0.17325 0.56596
 N334 N 0.57882 -0.15404 0.54538
 N335 N 0.56828 -0.12340 0.53330
 C336 C 0.53627 -0.11086 0.54139
 N337 N 0.51511 -0.13015 0.56202
 N338 N 0.52568 -0.16086 0.57413
 N339 N 1.09177 0.77455 0.36458
 C340 C 1.09502 0.76544 0.39839
 N341 N 1.11330 0.78629 0.42009
 N342 N 1.12792 0.81537 0.40834
 C343 C 1.12485 0.82461 0.37443
 N344 N 1.10639 0.80364 0.35283
 C345 C 1.08066 0.73336 0.41078
 C346 C 1.06955 0.70609 0.42142
 C347 C 1.05765 0.67328 0.43450
 N348 N 1.07878 0.65397 0.45501
 N349 N 1.06822 0.62332 0.46702
 C350 C 1.03616 0.61089 0.45893
 N351 N 1.01498 0.63030 0.43838
 N352 N 1.02558 0.66101 0.42634
 N353 N -0.09387 1.27761 0.14471
 C354 C -0.09615 1.26879 0.11075
 N355 N -0.11359 1.28997 0.08865
 N356 N -0.12838 1.31905 0.10019
 C357 C -0.12632 1.32798 0.13426
 N358 N -0.10866 1.30669 0.15626
 C359 C -0.08139 1.23682 0.09854
 C360 C -0.06962 1.20968 0.08827
 C361 C -0.05639 1.17708 0.07599
 N362 N -0.03940 1.17514 0.04522
 N363 N -0.02823 1.14463 0.03327
 C364 C -0.03371 1.11505 0.05169
 N365 N -0.05063 1.11712 0.08255
 N366 N -0.06178 1.14762 0.09449
 N367 N 0.42041 0.20866 0.87208
 C368 C 0.40115 0.23207 0.88999
 N369 N 0.36701 0.22545 0.89577
 N370 N 0.35252 0.19635 0.88394
 C371 C 0.37165 0.17279 0.86589
 N372 N 0.40593 0.17953 0.86025
 C373 C 0.41641 0.26381 0.90216
 C374 C 0.42858 0.29079 0.91235
 C375 C 0.44226 0.32325 0.92451
 N376 N 0.43713 0.35272 0.90593
 N377 N 0.44863 0.38312 0.91778
 C378 C 0.46564 0.38508 0.94862
 N379 N 0.47086 0.35549 0.96710
 N380 N 0.45934 0.32508 0.95525
 N381 N 0.58282 0.61544 0.70803
 C382 C 0.60478 0.59756 0.72900
 N383 N 0.63878 0.59487 0.72008
 N384 N 0.65048 0.60963 0.69109
 C385 C 0.62862 0.62767 0.66998
 N386 N 0.59452 0.63021 0.67902
 C387 C 0.59247 0.58259 0.76079
 C388 C 0.58232 0.57050 0.78780
 C389 C 0.57039 0.55679 0.82030
 N390 N 0.53938 0.54013 0.82243
 N391 N 0.52784 0.52844 0.85287
 C392 C 0.54693 0.53302 0.88219
 N393 N 0.57803 0.54960 0.87993
 N394 N 0.58956 0.56128 0.84950
 N395 N 0.39843 0.13115 0.76826
 C396 C 0.39280 0.09709 0.76147
 N397 N 0.37509 0.07761 0.78484
 N398 N 0.36334 0.09183 0.81412
 C399 C 0.36887 0.12602 0.82104
 N400 N 0.38668 0.14536 0.79749
 C401 C 0.40528 0.08217 0.72971
 C402 C 0.41615 0.07080 0.70266
 C403 C 0.42964 0.05882 0.67007
 N404 N 0.42213 0.02656 0.65807
 N405 N 0.43455 0.01592 0.62754
 C406 C 0.45484 0.03724 0.60806
 N407 N 0.46228 0.06948 0.62023
 N408 N 0.44989 0.08008 0.65068
 N409 N 0.13873 0.90492 0.28031
 C410 C 0.10472 0.90226 0.27138
 N411 N 0.08276 0.88445 0.29236
 N412 N 0.09447 0.86971 0.32140
 C413 C 0.12858 0.87220 0.33046
 N414 N 0.15044 0.89018 0.30933
 C415 C 0.09239 0.91721 0.23955
 C416 C 0.08225 0.92929 0.21252
 C417 C 0.07032 0.94300 0.18000
 N418 N 0.08947 0.93842 0.15082
 N419 N 0.07794 0.95010 0.12037
 C420 C 0.04687 0.96678 0.11807
 N421 N 0.02781 0.97145 0.14737
 N422 N 0.03934 0.95975 0.17784
 N423 N 0.85930 0.40867 0.22788
 C424 C 0.89326 0.40576 0.23701
 N425 N 0.91521 0.38782 0.21614
 N426 N 0.90358 0.37315 0.18706
 C427 C 0.86953 0.37583 0.17783
 N428 N 0.84766 0.39400 0.19879
 C429 C 0.90555 0.41998 0.26917
 C430 C 0.91626 0.43088 0.29649
 C431 C 0.92954 0.44244 0.32933
 N432 N 0.94959 0.42090 0.34867
 N433 N 0.96188 0.43119 0.37929
 C434 C 0.95455 0.46339 0.39165
 N435 N 0.93445 0.48497 0.37222
 N436 N 0.92213 0.47465 0.34154
   
