data_POSCAR
  _audit_creation_date              2014-09-24
  _audit_creation_method            'ToBaCCo'
  _symmetry_space_group_name_H-M    'P1'
  _symmetry_Int_Tables_number       1
  _symmetry_cell_setting            triclinic
  loop_
  _symmetry_equiv_pos_as_xyz
 x,y,z
_cell_length_a 28.9001
_cell_length_b 29.8911
_cell_length_c 30.1333
_cell_angle_alpha 89.913300
_cell_angle_beta 90.030500
_cell_angle_gamma 90.001300
loop_
  _atom_site_label
  _atom_site_type_symbol
  _atom_site_fract_x
  _atom_site_fract_y
  _atom_site_fract_z
O1 O 0.33039 0.39078 0.03896
 O2 O 0.38973 0.32539 -0.04773
 O3 O 0.33050 0.39000 -0.04784
 O4 O 0.39292 0.32687 0.03837
 O5 O 0.33615 0.27733 0.04101
 O6 O 0.27360 0.34098 -0.04462
 O7 O 0.33348 0.27547 -0.04502
 O8 O 0.27432 0.34047 0.04112
 Cu9 Cu 0.36654 0.36338 -0.00449
 Cu10 Cu 0.29876 0.30355 -0.00175
 C11 C 0.29212 0.37678 0.05442
 C12 C 0.37163 0.28906 -0.06101
 C13 C 0.29122 0.37633 -0.06103
 C14 C 0.37541 0.29120 0.05389
 O15 O 0.67023 0.61149 0.04553
 O16 O 0.60967 0.67379 -0.04326
 O17 O 0.66709 0.61280 -0.04530
 O18 O 0.60571 0.67801 0.03933
 O19 O 0.66650 0.72227 0.04674
 O20 O 0.72955 0.65362 -0.03406
 O21 O 0.66753 0.72199 -0.04270
 O22 O 0.72667 0.66128 0.04711
 Cu23 Cu 0.63361 0.63783 0.00095
 Cu24 Cu 0.70214 0.69582 0.00272
 C25 C 0.70878 0.62517 0.06097
 C26 C 0.62888 0.70889 -0.05820
 C27 C 0.70913 0.62168 -0.05379
 C28 C 0.62521 0.71177 0.05668
 O29 O 0.66974 0.38780 0.95547
 O30 O 0.60845 0.32638 1.04428
 O31 O 0.66670 0.38664 1.04630
 O32 O 0.60495 0.32159 0.96169
 O33 O 0.66544 0.27690 0.95465
 O34 O 0.72888 0.34539 1.03524
 O35 O 0.66598 0.27781 1.04417
 O36 O 0.72580 0.33761 0.95418
 Cu37 Cu 0.63295 0.36182 1.00003
 Cu38 Cu 0.70103 0.30334 0.99868
 C39 C 0.70818 0.37378 0.94014
 C40 C 0.62738 0.29125 1.05948
 C41 C 0.70868 0.37750 1.05487
 C42 C 0.62428 0.28765 0.94451
 O43 O 0.33068 0.60967 0.96012
 O44 O 0.39057 0.67468 1.04694
 O45 O 0.33103 0.61041 1.04689
 O46 O 0.39400 0.67298 0.96077
 O47 O 0.33785 0.72317 0.95831
 O48 O 0.27437 0.65967 1.04347
 O49 O 0.33456 0.72485 1.04430
 O50 O 0.27522 0.66059 0.95765
 Cu51 Cu 0.36719 0.63679 1.00359
 Cu52 Cu 0.29991 0.69711 1.00076
 C53 C 0.29260 0.62405 0.94448
 C54 C 0.37261 0.71103 1.06035
 C55 C 0.29181 0.62427 1.05999
 C56 C 0.37696 0.70893 0.94543
 O57 O 0.04251 0.33009 0.39488
 O58 O -0.04572 0.38998 0.32963
 O59 O -0.04718 0.32893 0.39029
 O60 O 0.04526 0.38974 0.33011
 O61 O 0.04474 0.33732 0.27866
 O62 O -0.04081 0.27366 0.34230
 O63 O -0.04498 0.33512 0.28071
 O64 O 0.04781 0.27850 0.34261
 Cu65 Cu -0.00112 0.36526 0.36623
 Cu66 Cu 0.00192 0.30098 0.30589
 C67 C 0.05966 0.29399 0.38010
 C68 C -0.06103 0.37226 0.29433
 C69 C -0.05891 0.29015 0.37701
 C70 C 0.06000 0.37418 0.29342
 O71 O 0.03990 0.66993 0.60485
 O72 O -0.04757 0.60916 0.67034
 O73 O -0.04998 0.66999 0.60939
 O74 O 0.04339 0.61022 0.66950
 O75 O 0.04296 0.66294 0.72066
 O76 O -0.04509 0.72466 0.65819
 O77 O -0.04663 0.66361 0.71973
 O78 O 0.04407 0.72195 0.65678
 Cu79 Cu -0.00337 0.63430 0.63349
 Cu80 Cu -0.00093 0.69853 0.69391
 C81 C 0.05642 0.70637 0.61948
 C82 C -0.06255 0.62648 0.70599
 C83 C -0.06298 0.70814 0.62337
 C84 C 0.05838 0.62610 0.70598
 O85 O 0.95972 0.66898 0.39201
 O86 O 1.04543 0.60565 0.32731
 O87 O 1.04980 0.66724 0.38707
 O88 O 0.95618 0.60559 0.33064
 O89 O 0.95382 0.65735 0.27819
 O90 O 1.04492 0.72022 0.33632
 O91 O 1.04330 0.65799 0.27535
 O92 O 0.95543 0.71961 0.33858
 Cu93 Cu 1.00261 0.63171 0.36471
 Cu94 Cu 0.99912 0.69402 0.30189
 C95 C 0.94339 0.70518 0.37642
 C96 C 1.05881 0.62123 0.29033
 C97 C 1.06314 0.70464 0.37153
 C98 C 0.94009 0.62042 0.29425
 O99 O 0.95859 0.33231 0.60760
 O100 O 1.04546 0.39447 0.67202
 O101 O 1.04918 0.33253 0.61246
 O102 O 0.95630 0.39452 0.66990
 O103 O 0.95318 0.34175 0.72131
 O104 O 1.04498 0.27978 0.66350
 O105 O 1.04272 0.34232 0.72415
 O106 O 0.95565 0.28040 0.65988
 Cu107 Cu 1.00225 0.36857 0.63502
 Cu108 Cu 0.99889 0.30581 0.69739
 C109 C 0.94281 0.29565 0.62258
 C110 C 1.05851 0.37899 0.70915
 C111 C 1.06292 0.29530 0.62817
 C112 C 0.93984 0.37908 0.70589
 O113 O 0.38905 0.04924 0.32710
 O114 O 0.33139 -0.04097 0.38975
 O115 O 0.39255 -0.03753 0.32546
 O116 O 0.32926 0.04639 0.39121
 O117 O 0.27302 0.04583 0.34162
 O118 O 0.33481 -0.04004 0.27735
 O119 O 0.27389 -0.04054 0.34130
 O120 O 0.33331 0.04671 0.27703
 Cu121 Cu 0.36625 0.00420 0.36340
 Cu122 Cu 0.29809 0.00289 0.30437
 C123 C 0.37123 0.06293 0.29100
 C124 C 0.29246 -0.05544 0.37646
 C125 C 0.37452 -0.05276 0.29016
 C126 C 0.29032 0.06052 0.37753
 O127 O 0.60902 0.04474 0.67339
 O128 O 0.66814 -0.04133 0.60694
 O129 O 0.60697 -0.04173 0.67204
 O130 O 0.66957 0.04641 0.61070
 O131 O 0.72531 0.04348 0.66073
 O132 O 0.66462 -0.04628 0.72013
 O133 O 0.72517 -0.04318 0.65584
 O134 O 0.66430 0.04018 0.72383
 Cu135 Cu 0.63284 0.00191 0.63556
 Cu136 Cu 0.70057 -0.00187 0.69499
 C137 C 0.62644 0.05687 0.71015
 C138 C 0.70700 -0.05632 0.61982
 C139 C 0.62491 -0.05835 0.70685
 C140 C 0.70797 0.06043 0.62581
 O141 O 0.38962 0.94977 0.67291
 O142 O 0.33126 1.04002 0.61089
 O143 O 0.39250 1.03651 0.67504
 O144 O 0.32882 0.95256 0.60954
 O145 O 0.27297 0.95299 0.65949
 O146 O 0.33506 1.03879 0.72345
 O147 O 0.27405 1.03936 0.65959
 O148 O 0.33423 0.95206 0.72327
 Cu149 Cu 0.36618 0.99480 0.63701
 Cu150 Cu 0.29844 0.99585 0.69643
 C151 C 0.37214 0.93601 0.70910
 C152 C 0.29243 1.05444 0.62441
 C153 C 0.37465 1.05165 0.71045
 C154 C 0.29000 0.93838 0.62346
 O155 O 0.67646 1.03561 0.39431
 O156 O 0.61127 0.95513 0.32683
 O157 O 0.67046 0.95306 0.38654
 O158 O 0.60934 1.04483 0.32967
 O159 O 0.66071 1.04501 0.27533
 O160 O 0.72790 0.96233 0.33917
 O161 O 0.66403 0.96171 0.27425
 O162 O 0.71901 1.05302 0.33613
 Cu163 Cu 0.63536 0.99886 0.36373
 Cu164 Cu 0.69973 1.00471 0.30223
 C165 C 0.70851 1.05858 0.37663
 C166 C 0.62734 0.94381 0.28925
 C167 C 0.71048 0.94266 0.37275
 C168 C 0.62335 1.05908 0.29222
 C169 C 0.81315 0.81527 0.52036
 C170 C 0.81650 0.81521 0.47510
 C171 C 0.84951 0.78599 0.45079
 C172 C 0.78850 0.84615 0.44725
 C173 C 0.78387 0.84865 0.54382
 C174 C 0.84176 0.78541 0.54910
 C175 C 0.89703 0.78613 0.46081
 C176 C 0.92743 0.75852 0.43740
 C177 C 0.91093 0.73158 0.40282
 C178 C 0.86387 0.73223 0.39188
 C179 C 0.83329 0.75909 0.41588
 C180 C 0.81064 0.87394 0.41621
 C181 C 0.78519 0.90458 0.39110
 C182 C 0.73712 0.90811 0.39677
 C183 C 0.71480 0.87934 0.42689
 C184 C 0.74020 0.84827 0.45152
 C185 C 0.74883 0.83420 0.57275
 C186 C 0.72279 0.86531 0.59677
 C187 C 0.73193 0.91115 0.59249
 C188 C 0.76692 0.92572 0.56372
 C189 C 0.79276 0.89467 0.53950
 C190 C 0.84703 0.73951 0.54020
 C191 C 0.87851 0.71372 0.56460
 C192 C 0.90354 0.73277 0.59999
 C193 C 0.89526 0.77784 0.61093
 C194 C 0.86530 0.80387 0.58548
 H195 H 0.91052 0.80759 0.48669
 H196 H 0.96395 0.75890 0.44555
 H197 H 0.85089 0.71199 0.36480
 H198 H 0.79691 0.75898 0.40722
 H199 H 0.84786 0.87261 0.41216
 H200 H 0.80327 0.92630 0.36813
 H201 H 0.72227 0.82633 0.47439
 H202 H 0.74190 0.79882 0.57686
 H203 H 0.69615 0.85366 0.61927
 H204 H 0.77461 0.96105 0.56051
 H205 H 0.82026 0.90640 0.51803
 H206 H 0.82791 0.72391 0.51348
 H207 H 0.88314 0.67891 0.55572
 H208 H 0.91345 0.79382 0.63807
 H209 H 0.86165 0.83899 0.59352
 H210 H 0.67769 0.88095 0.43156
 C211 C 0.18882 0.18736 0.52823
 C212 C 0.18641 0.18737 0.48289
 C213 C 0.15367 0.21636 0.45789
 C214 C 0.21406 0.15555 0.45558
 C215 C 0.21665 0.15303 0.55185
 C216 C 0.16004 0.21755 0.55657
 C217 C 0.10600 0.21576 0.46712
 C218 C 0.07560 0.24233 0.44248
 C219 C 0.09225 0.26864 0.40743
 C220 C 0.13951 0.26854 0.39735
 C221 C 0.17009 0.24271 0.42259
 C222 C 0.19161 0.12906 0.42371
 C223 C 0.21655 0.09871 0.39798
 C224 C 0.26448 0.09384 0.40387
 C225 C 0.28715 0.12065 0.43540
 C226 C 0.26225 0.15170 0.46059
 C227 C 0.25453 0.16579 0.57811
 C228 C 0.28021 0.13345 0.60101
 C229 C 0.26754 0.08826 0.59858
 C230 C 0.22942 0.07553 0.57277
 C231 C 0.20425 0.10768 0.54933
 C232 C 0.15431 0.26325 0.54675
 C233 C 0.12231 0.28914 0.57032
 C234 C 0.09721 0.27057 0.60596
 C235 C 0.10613 0.22591 0.61811
 C236 C 0.13657 0.19967 0.59339
 H237 H 0.09236 0.19461 0.49323
 H238 H 0.03896 0.24157 0.45003
 H239 H 0.15263 0.28834 0.36997
 H240 H 0.20660 0.24304 0.41447
 H241 H 0.15452 0.13149 0.41910
 H242 H 0.19814 0.07841 0.37402
 H243 H 0.28057 0.17262 0.48405
 H244 H 0.26423 0.20069 0.58064
 H245 H 0.30934 0.14369 0.62123
 H246 H 0.21913 0.04072 0.57094
 H247 H 0.17473 0.09740 0.52966
 H248 H 0.17342 0.27859 0.51985
 H249 H 0.11730 0.32369 0.56056
 H250 H 0.08795 0.21033 0.64551
 H251 H 0.14052 0.16478 0.60231
 H252 H 0.32417 0.11792 0.44028
 C253 C 0.18785 0.81255 0.47272
 C254 C 0.18503 0.81240 0.51803
 C255 C 0.15174 0.78362 0.54266
 C256 C 0.21298 0.84374 0.54562
 C257 C 0.21616 0.84667 0.44934
 C258 C 0.15931 0.78249 0.44408
 C259 C 0.10418 0.78441 0.53283
 C260 C 0.07330 0.75805 0.55717
 C261 C 0.08936 0.73170 0.59246
 C262 C 0.13651 0.73156 0.60308
 C263 C 0.16755 0.75720 0.57820
 C264 C 0.19076 0.87038 0.57749
 C265 C 0.21597 0.90056 0.60320
 C266 C 0.26393 0.90511 0.59727
 C267 C 0.28637 0.87806 0.56582
 C268 C 0.26122 0.84716 0.54069
 C269 C 0.25351 0.83352 0.42260
 C270 C 0.27944 0.86562 0.39966
 C271 C 0.26761 0.91098 0.40260
 C272 C 0.23009 0.92413 0.42896
 C273 C 0.20462 0.89219 0.45237
 C274 C 0.15379 0.73674 0.45365
 C275 C 0.12220 0.71080 0.42964
 C276 C 0.09723 0.72943 0.39392
 C277 C 0.10593 0.77421 0.38207
 C278 C 0.13604 0.80047 0.40717
 H279 H 0.09098 0.80558 0.50652
 H280 H 0.03676 0.75897 0.54915
 H281 H 0.14920 0.71170 0.63062
 H282 H 0.20395 0.75667 0.58677
 H283 H 0.15365 0.86825 0.58205
 H284 H 0.19774 0.92104 0.62710
 H285 H 0.27934 0.82610 0.51724
 H286 H 0.26253 0.79849 0.41964
 H287 H 0.30808 0.85507 0.37898
 H288 H 0.22040 0.95907 0.43113
 H289 H 0.17548 0.90279 0.47236
 H290 H 0.17275 0.72139 0.48066
 H291 H 0.11735 0.67617 0.43921
 H292 H 0.08782 0.78982 0.35463
 H293 H 0.13989 0.83544 0.39849
 H294 H 0.32341 0.88054 0.56096
 C295 C 0.81479 0.18368 0.47849
 C296 C 0.81447 0.18715 0.52392
 C297 C 0.84779 0.21638 0.54787
 C298 C 0.78504 0.15884 0.55300
 C299 C 0.78577 0.15058 0.45302
 C300 C 0.84641 0.21246 0.45142
 C301 C 0.89574 0.21036 0.54294
 C302 C 0.92671 0.23705 0.56670
 C303 C 0.91012 0.26966 0.59600
 C304 C 0.86239 0.27552 0.60140
 C305 C 0.83136 0.24891 0.57754
 C306 C 0.80656 0.13229 0.58547
 C307 C 0.78108 0.10137 0.60991
 C308 C 0.73351 0.09605 0.60225
 C309 C 0.71136 0.12414 0.57132
 C310 C 0.73685 0.15591 0.54737
 C311 C 0.76925 0.16217 0.41046
 C312 C 0.74532 0.13118 0.38445
 C313 C 0.73316 0.08935 0.40204
 C314 C 0.74827 0.07785 0.44479
 C315 C 0.77702 0.10683 0.46852
 C316 C 0.84894 0.25903 0.45770
 C317 C 0.88078 0.28475 0.43379
 C318 C 0.90868 0.26490 0.40098
 C319 C 0.90412 0.21869 0.39308
 C320 C 0.87417 0.19273 0.41864
 H321 H 0.90908 0.18474 0.52102
 H322 H 0.96358 0.23187 0.56275
 H323 H 0.84925 0.30030 0.62437
 H324 H 0.79452 0.25359 0.58217
 H325 H 0.84360 0.13413 0.59062
 H326 H 0.79906 0.08041 0.63366
 H327 H 0.71949 0.17667 0.52303
 H328 H 0.77569 0.19509 0.39677
 H329 H 0.73429 0.14078 0.35139
 H330 H 0.74098 0.04501 0.45840
 H331 H 0.79246 0.09448 0.49878
 H332 H 0.82678 0.27541 0.48164
 H333 H 0.88275 0.32032 0.44037
 H334 H 0.92502 0.20205 0.36824
 H335 H 0.87283 0.15698 0.41295
 H336 H 0.67456 0.12114 0.56528
 C337 C 0.52556 0.81587 0.81640
 C338 C 0.47824 0.81418 0.81788
 C339 C 0.44882 0.84255 0.78859
 C340 C 0.45315 0.78624 0.85099
 C341 C 0.55479 0.78709 0.84553
 C342 C 0.55055 0.84842 0.78759
 C343 C 0.41393 0.86902 0.80756
 C344 C 0.38803 0.89829 0.78138
 C345 C 0.39678 0.90202 0.73571
 C346 C 0.43055 0.87442 0.71635
 C347 C 0.45584 0.84438 0.74246
 C348 C 0.46223 0.79036 0.89666
 C349 C 0.43781 0.76448 0.92738
 C350 C 0.40326 0.73500 0.91296
 C351 C 0.39335 0.73142 0.86762
 C352 C 0.41820 0.75686 0.83680
 C353 C 0.54737 0.74072 0.84861
 C354 C 0.57191 0.71513 0.87953
 C355 C 0.60543 0.73515 0.90686
 C356 C 0.61486 0.78095 0.90182
 C357 C 0.58961 0.80670 0.87160
 C358 C 0.58608 0.83349 0.75942
 C359 C 0.61019 0.86380 0.73261
 C360 C 0.59872 0.90931 0.73335
 C361 C 0.56368 0.92448 0.76168
 C362 C 0.54025 0.89438 0.78915
 H363 H 0.40766 0.86804 0.84299
 H364 H 0.36224 0.91916 0.79720
 H365 H 0.43760 0.87627 0.68110
 H366 H 0.48171 0.82344 0.72690
 H367 H 0.48806 0.81374 0.90847
 H368 H 0.44537 0.76786 0.96244
 H369 H 0.41024 0.75364 0.80182
 H370 H 0.52164 0.72459 0.82797
 H371 H 0.56444 0.67973 0.88230
 H372 H 0.64053 0.79721 0.92243
 H373 H 0.59623 0.84231 0.86961
 H374 H 0.59504 0.79833 0.75816
 H375 H 0.63768 0.85181 0.71129
 H376 H 0.55517 0.95975 0.76318
 H377 H 0.51411 0.90694 0.81163
 H378 H 0.36648 0.70895 0.85616
 C379 C 0.52292 0.18520 0.18464
 C380 C 0.47566 0.18629 0.18254
 C381 C 0.44653 0.15742 0.21161
 C382 C 0.45056 0.21387 0.14913
 C383 C 0.55247 0.21388 0.15576
 C384 C 0.54754 0.15265 0.21354
 C385 C 0.41237 0.13019 0.19245
 C386 C 0.38691 0.10050 0.21857
 C387 C 0.39544 0.09712 0.26433
 C388 C 0.42848 0.12543 0.28382
 C389 C 0.45327 0.15586 0.25779
 C390 C 0.46072 0.21038 0.10362
 C391 C 0.43666 0.23631 0.07266
 C392 C 0.40130 0.26507 0.08663
 C393 C 0.39015 0.26782 0.13176
 C394 C 0.41472 0.24245 0.16285
 C395 C 0.54471 0.26013 0.15194
 C396 C 0.56956 0.28548 0.12106
 C397 C 0.60365 0.26534 0.09450
 C398 C 0.61339 0.21971 0.10034
 C399 C 0.58790 0.19420 0.13053
 C400 C 0.57954 0.16788 0.24519
 C401 C 0.60342 0.13738 0.27197
 C402 C 0.59566 0.09138 0.26719
 C403 C 0.56403 0.07602 0.23544
 C404 C 0.54021 0.10644 0.20863
 H405 H 0.40634 0.13095 0.15698
 H406 H 0.36165 0.07907 0.20267
 H407 H 0.43528 0.12388 0.31914
 H408 H 0.47849 0.17744 0.27351
 H409 H 0.48720 0.18755 0.09211
 H410 H 0.44514 0.23351 0.03775
 H411 H 0.40591 0.24515 0.19767
 H412 H 0.51848 0.27633 0.17191
 H413 H 0.56182 0.32077 0.11766
 H414 H 0.63951 0.20334 0.08036
 H415 H 0.59479 0.15867 0.13307
 H416 H 0.58595 0.20336 0.24907
 H417 H 0.62841 0.14954 0.29590
 H418 H 0.55842 0.04047 0.23091
 H419 H 0.51640 0.09401 0.18378
 H420 H 0.36262 0.28970 0.14286
 C421 C 0.47525 0.17752 0.81862
 C422 C 0.52255 0.17835 0.82049
 C423 C 0.55116 0.14948 0.79119
 C424 C 0.54834 0.20667 0.85288
 C425 C 0.44630 0.20751 0.84650
 C426 C 0.44980 0.14482 0.79040
 C427 C 0.58527 0.12187 0.80995
 C428 C 0.61060 0.09257 0.78338
 C429 C 0.60199 0.09010 0.73760
 C430 C 0.56889 0.11873 0.71857
 C431 C 0.54419 0.14867 0.74506
 C432 C 0.53722 0.20640 0.89834
 C433 C 0.56143 0.23361 0.92803
 C434 C 0.59837 0.25997 0.91306
 C435 C 0.61083 0.25908 0.86818
 C436 C 0.58576 0.23290 0.83823
 C437 C 0.45429 0.25386 0.84812
 C438 C 0.42970 0.28063 0.87791
 C439 C 0.39569 0.26171 0.90546
 C440 C 0.38590 0.21585 0.90189
 C441 C 0.41110 0.18900 0.87282
 C442 C 0.41509 0.15988 0.76130
 C443 C 0.39055 0.12950 0.73504
 C444 C 0.40057 0.08372 0.73743
 C445 C 0.43476 0.06841 0.76672
 C446 C 0.45881 0.09867 0.79347
 H447 H 0.59144 0.12217 0.84541
 H448 H 0.63594 0.07089 0.79888
 H449 H 0.56204 0.11789 0.68324
 H450 H 0.51890 0.17053 0.72973
 H451 H 0.50973 0.18525 0.91083
 H452 H 0.55195 0.23351 0.96281
 H453 H 0.59543 0.23319 0.80351
 H454 H 0.48047 0.26904 0.82727
 H455 H 0.43748 0.31603 0.87961
 H456 H 0.35984 0.20040 0.92269
 H457 H 0.40411 0.15341 0.87192
 H458 H 0.40720 0.19522 0.75882
 H459 H 0.36392 0.14164 0.71276
 H460 H 0.44236 0.03300 0.76925
 H461 H 0.48443 0.08612 0.81658
 H462 H 0.63953 0.27909 0.85630
 C463 C 0.47574 0.82173 0.18210
 C464 C 0.52306 0.82105 0.18033
 C465 C 0.55162 0.85030 0.20936
 C466 C 0.54897 0.79274 0.14804
 C467 C 0.44690 0.79189 0.15391
 C468 C 0.45015 0.85434 0.21031
 C469 C 0.58543 0.87795 0.19023
 C470 C 0.61083 0.90752 0.21643
 C471 C 0.60267 0.91024 0.26228
 C472 C 0.56981 0.88162 0.28170
 C473 C 0.54496 0.85143 0.25553
 C474 C 0.53804 0.79306 0.10252
 C475 C 0.56240 0.76590 0.07293
 C476 C 0.59931 0.73956 0.08803
 C477 C 0.61161 0.74044 0.13296
 C478 C 0.58638 0.76657 0.16283
 C479 C 0.45491 0.74555 0.15196
 C480 C 0.43050 0.71901 0.12178
 C481 C 0.39665 0.73813 0.09415
 C482 C 0.38685 0.78397 0.09803
 C483 C 0.41187 0.81059 0.12747
 C484 C 0.41541 0.83914 0.23928
 C485 C 0.39065 0.86944 0.26545
 C486 C 0.40047 0.91526 0.26309
 C487 C 0.43468 0.93069 0.23392
 C488 C 0.45893 0.90053 0.20725
 H489 H 0.59133 0.87745 0.15473
 H490 H 0.63593 0.92918 0.20057
 H491 H 0.56324 0.88267 0.31706
 H492 H 0.51985 0.82960 0.27114
 H493 H 0.51059 0.81420 0.08992
 H494 H 0.55302 0.76600 0.03810
 H495 H 0.59592 0.76628 0.19759
 H496 H 0.48097 0.73021 0.17285
 H497 H 0.43828 0.68362 0.11986
 H498 H 0.36090 0.79959 0.07720
 H499 H 0.40487 0.84617 0.12858
 H500 H 0.40766 0.80377 0.24173
 H501 H 0.36403 0.85718 0.28766
 H502 H 0.44215 0.96613 0.23142
 H503 H 0.48453 0.91319 0.18420
 H504 H 0.64027 0.72044 0.14497
 C505 C 0.81079 0.52512 0.81588
 C506 C 0.81198 0.47943 0.81403
 C507 C 0.78447 0.45178 0.84545
 C508 C 0.84483 0.45456 0.78498
 C509 C 0.83968 0.55401 0.78615
 C510 C 0.78339 0.54804 0.85081
 C511 C 0.80751 0.42546 0.87700
 C512 C 0.78246 0.39965 0.90723
 C513 C 0.73385 0.40019 0.90690
 C514 C 0.71068 0.42605 0.87496
 C515 C 0.73588 0.45089 0.84380
 C516 C 0.89230 0.46493 0.78467
 C517 C 0.92272 0.44131 0.75738
 C518 C 0.90665 0.40570 0.73146
 C519 C 0.85970 0.39412 0.73270
 C520 C 0.82892 0.41860 0.75908
 C521 C 0.84208 0.54621 0.74013
 C522 C 0.87364 0.56984 0.71370
 C523 C 0.90207 0.60293 0.73252
 C524 C 0.89740 0.61281 0.77770
 C525 C 0.86685 0.58861 0.80416
 C526 C 0.73632 0.55739 0.84429
 C527 C 0.71085 0.57926 0.87724
 C528 C 0.73327 0.59620 0.91510
 C529 C 0.78068 0.58761 0.92103
 C530 C 0.80478 0.56163 0.89035
 H531 H 0.84496 0.42527 0.87847
 H532 H 0.80114 0.37999 0.93158
 H533 H 0.67323 0.42637 0.87362
 H534 H 0.71749 0.46926 0.81839
 H535 H 0.90587 0.49126 0.80560
 H536 H 0.95903 0.45015 0.75727
 H537 H 0.79266 0.40944 0.75940
 H538 H 0.82063 0.52080 0.72490
 H539 H 0.87600 0.56209 0.67869
 H540 H 0.91869 0.63826 0.79311
 H541 H 0.86624 0.59642 0.83902
 H542 H 0.71931 0.54768 0.81378
 H543 H 0.67438 0.58560 0.87168
 H544 H 0.79863 0.59931 0.95040
 H545 H 0.84064 0.55332 0.89679
 H546 H 0.84697 0.36621 0.71332
 C547 C 0.18772 0.52115 0.18519
 C548 C 0.18807 0.47545 0.18435
 C549 C 0.21539 0.45055 0.15075
 C550 C 0.15739 0.44820 0.21377
 C551 C 0.15448 0.54578 0.21337
 C552 C 0.21636 0.54908 0.15460
 C553 C 0.20789 0.45763 0.10519
 C554 C 0.23385 0.43423 0.07379
 C555 C 0.26724 0.40319 0.08754
 C556 C 0.27431 0.39542 0.13290
 C557 C 0.24839 0.41891 0.16438
 C558 C 0.12959 0.41469 0.19499
 C559 C 0.09870 0.39036 0.22115
 C560 C 0.09444 0.39919 0.26677
 C561 C 0.12287 0.43204 0.28594
 C562 C 0.15461 0.45582 0.25981
 C563 C 0.17068 0.57504 0.24627
 C564 C 0.13938 0.59960 0.27180
 C565 C 0.09179 0.59568 0.26394
 C566 C 0.07559 0.56699 0.23070
 C567 C 0.10677 0.54205 0.20556
 C568 C 0.26351 0.54025 0.14736
 C569 C 0.28844 0.56475 0.11584
 C570 C 0.26738 0.60019 0.09243
 C571 C 0.22096 0.61068 0.10182
 C572 C 0.19570 0.58510 0.13202
 H573 H 0.18191 0.48123 0.09405
 H574 H 0.22757 0.43991 0.03878
 H575 H 0.29953 0.37096 0.14384
 H576 H 0.25420 0.41267 0.19935
 H577 H 0.13098 0.40799 0.15970
 H578 H 0.07726 0.36528 0.20536
 H579 H 0.17655 0.48057 0.27542
 H580 H 0.20746 0.57861 0.25220
 H581 H 0.15217 0.62183 0.29738
 H582 H 0.03890 0.56401 0.22419
 H583 H 0.09386 0.52025 0.17967
 H584 H 0.28091 0.51390 0.16553
 H585 H 0.32437 0.55615 0.11023
 H586 H 0.20345 0.63774 0.08475
 H587 H 0.15952 0.59303 0.13702
 H588 H 0.12075 0.43914 0.32111
 C589 C 0.81115 0.47332 0.18519
 C590 C 0.81219 0.51901 0.18709
 C591 C 0.78472 0.54663 0.15557
 C592 C 0.84503 0.54399 0.21606
 C593 C 0.84029 0.44442 0.21477
 C594 C 0.78359 0.45046 0.15032
 C595 C 0.80785 0.57270 0.12390
 C596 C 0.78291 0.59862 0.09367
 C597 C 0.73429 0.59846 0.09411
 C598 C 0.71103 0.57279 0.12611
 C599 C 0.73614 0.54783 0.15728
 C600 C 0.89259 0.53404 0.21597
 C601 C 0.92307 0.55802 0.24291
 C602 C 0.90691 0.59349 0.26896
 C603 C 0.85982 0.60456 0.26823
 C604 C 0.82901 0.57978 0.24212
 C605 C 0.84316 0.45232 0.26075
 C606 C 0.87492 0.42869 0.28698
 C607 C 0.90309 0.39547 0.26805
 C608 C 0.89788 0.38540 0.22296
 C609 C 0.86712 0.40961 0.19668
 C610 C 0.73646 0.44140 0.15686
 C611 C 0.71077 0.41979 0.12388
 C612 C 0.73300 0.40283 0.08596
 C613 C 0.78046 0.41113 0.08000
 C614 C 0.80480 0.43687 0.11073
 H615 H 0.84530 0.57266 0.12237
 H616 H 0.80166 0.61813 0.06926
 H617 H 0.67358 0.57275 0.12753
 H618 H 0.71769 0.52963 0.18276
 H619 H 0.90617 0.50780 0.19494
 H620 H 0.95947 0.54956 0.24268
 H621 H 0.79266 0.58860 0.24209
 H622 H 0.82193 0.47781 0.27609
 H623 H 0.87769 0.43660 0.32194
 H624 H 0.91894 0.35984 0.20748
 H625 H 0.86609 0.40163 0.16186
 H626 H 0.71958 0.45117 0.18741
 H627 H 0.67428 0.41366 0.12946
 H628 H 0.79826 0.39941 0.05058
 H629 H 0.84069 0.44502 0.10425
 H630 H 0.84701 0.63233 0.28774
 C631 C 0.18721 0.47991 0.81397
 C632 C 0.18751 0.52562 0.81483
 C633 C 0.21498 0.55058 0.84836
 C634 C 0.15668 0.55281 0.78542
 C635 C 0.15399 0.45519 0.78578
 C636 C 0.21586 0.45196 0.84456
 C637 C 0.20802 0.54324 0.89396
 C638 C 0.23430 0.56651 0.92526
 C639 C 0.26741 0.59777 0.91140
 C640 C 0.27386 0.60588 0.86601
 C641 C 0.24768 0.58246 0.83463
 C642 C 0.12890 0.58632 0.80421
 C643 C 0.09777 0.61047 0.77809
 C644 C 0.09324 0.60146 0.73253
 C645 C 0.12171 0.56867 0.71334
 C646 C 0.15369 0.54508 0.73941
 C647 C 0.17023 0.42615 0.75273
 C648 C 0.13900 0.40129 0.72738
 C649 C 0.09144 0.40458 0.73563
 C650 C 0.07521 0.43306 0.76902
 C651 C 0.10630 0.45838 0.79393
 C652 C 0.26304 0.46070 0.85183
 C653 C 0.28797 0.43606 0.88327
 C654 C 0.26687 0.40058 0.90657
 C655 C 0.22041 0.39023 0.89717
 C656 C 0.19517 0.41593 0.86707
 H657 H 0.18226 0.51948 0.90522
 H658 H 0.22845 0.56058 0.96029
 H659 H 0.29883 0.63052 0.85498
 H660 H 0.25309 0.58892 0.79964
 H661 H 0.13045 0.59312 0.83947
 H662 H 0.07631 0.63551 0.79390
 H663 H 0.17564 0.52037 0.72377
 H664 H 0.20700 0.42298 0.74655
 H665 H 0.15183 0.37929 0.70163
 H666 H 0.03854 0.43563 0.77578
 H667 H 0.09337 0.48000 0.81994
 H668 H 0.28046 0.48709 0.83373
 H669 H 0.32393 0.44457 0.88893
 H670 H 0.20285 0.36316 0.91417
 H671 H 0.15897 0.40807 0.86208
 H672 H 0.11939 0.56144 0.67820
   
