data_POSCAR
  _audit_creation_date              2014-09-24
  _audit_creation_method            'ToBaCCo'
  _symmetry_space_group_name_H-M    'P1'
  _symmetry_Int_Tables_number       1
  _symmetry_cell_setting            triclinic
  loop_
  _symmetry_equiv_pos_as_xyz
 x,y,z
_cell_length_a 53.5017
_cell_length_b 53.3801
_cell_length_c 53.4402
_cell_angle_alpha 90.077300
_cell_angle_beta 90.116300
_cell_angle_gamma 90.369900
loop_
  _atom_site_label
  _atom_site_type_symbol
  _atom_site_fract_x
  _atom_site_fract_y
  _atom_site_fract_z
C1 C 0.20802 1.22277 0.18244
 C2 C 0.22609 1.20384 0.18220
 C3 C 0.22690 1.18652 0.20138
 C4 C 0.20965 1.18788 0.22106
 C5 C 0.19197 1.20653 0.22131
 C6 C 0.19125 1.22423 0.20194
 C7 C 0.20202 1.24133 0.16570
 N8 N 0.18196 1.25431 0.17452
 C9 C 0.17544 1.24379 0.19686
 C10 C 0.17684 1.20236 0.24165
 N11 N 0.18470 1.18142 0.25399
 C12 C 0.20502 1.17267 0.24130
 C13 C 0.24557 1.16983 0.19577
 N14 N 0.25616 1.17657 0.17364
 C15 C 0.24427 1.19739 0.16523
 H16 H 0.21196 1.24500 0.14848
 H17 H 0.15966 1.24897 0.20831
 H18 H 0.16110 1.21392 0.24656
 H19 H 0.21534 1.15585 0.24547
 H20 H 0.25100 1.15397 0.20709
 H21 H 0.24804 1.20683 0.14772
 C22 C 0.79008 0.77309 0.19466
 C23 C 0.77264 0.79259 0.19408
 C24 C 0.77423 0.81183 0.21137
 C25 C 0.79312 0.81170 0.22960
 C26 C 0.81022 0.79251 0.23016
 C27 C 0.80866 0.77302 0.21256
 C28 C 0.79406 0.75288 0.17924
 N29 N 0.81478 0.74029 0.18717
 C30 C 0.82362 0.75273 0.20777
 C31 C 0.82709 0.79796 0.24887
 N32 N 0.82076 0.82013 0.25994
 C33 C 0.79980 0.82848 0.24799
 C34 C 0.75605 0.82893 0.20540
 N35 N 0.74342 0.82053 0.18492
 C36 C 0.75342 0.79825 0.17792
 H37 H 0.78250 0.74821 0.16329
 H38 H 0.84032 0.74833 0.21823
 H39 H 0.84276 0.78627 0.25376
 H40 H 0.79027 0.84591 0.25148
 H41 H 0.75252 0.84638 0.21507
 H42 H 0.74779 0.78744 0.16169
 C43 C 0.78859 1.23072 -0.19742
 C44 C 0.77002 1.21205 -0.19837
 C45 C 0.77077 1.19387 -0.21683
 C46 C 0.78996 1.19422 -0.23467
 C47 C 0.80827 1.21247 -0.23356
 C48 C 0.80753 1.23089 -0.21485
 C49 C 0.79362 1.24967 -0.18064
 N50 N 0.81532 1.26156 -0.18731
 C51 C 0.82374 1.24990 -0.20843
 C52 C 0.82552 1.20706 -0.25178
 N53 N 0.81817 1.18591 -0.26423
 C54 C 0.79622 1.17811 -0.25374
 C55 C 0.75189 1.17699 -0.21193
 N56 N 0.73966 1.18447 -0.19096
 C57 C 0.75057 1.20599 -0.18263
 H58 H 0.78233 1.25364 -0.16440
 H59 H 0.84068 1.25421 -0.21854
 H60 H 0.84213 1.21806 -0.25548
 H61 H 0.78600 1.16122 -0.25849
 H62 H 0.74779 1.16012 -0.22247
 H63 H 0.74557 1.21578 -0.16563
 C64 C 0.20362 0.77279 -0.18526
 C65 C 0.22416 0.78919 -0.18673
 C66 C 0.22459 0.80788 -0.20460
 C67 C 0.20452 0.81038 -0.22134
 C68 C 0.18420 0.79446 -0.21964
 C69 C 0.18372 0.77556 -0.20143
 C70 C 0.19759 0.75371 -0.16905
 N71 N 0.17429 0.74478 -0.17476
 C72 C 0.16582 0.75828 -0.19470
 C73 C 0.16707 0.80198 -0.23724
 N74 N 0.17647 0.82209 -0.24997
 C75 C 0.19953 0.82721 -0.24015
 C76 C 0.24576 0.82206 -0.20045
 N77 N 0.25823 0.81252 -0.18042
 C78 C 0.24513 0.79226 -0.17208
 H79 H 0.20912 0.74778 -0.15353
 H80 H 0.14805 0.75582 -0.20406
 H81 H 0.14926 0.79290 -0.24058
 H82 H 0.21166 0.84258 -0.24542
 H83 H 0.25089 0.83888 -0.21053
 H84 H 0.25005 0.78080 -0.15616
 C85 C 0.52399 1.04337 -0.02270
 H86 H 0.51111 1.05252 -0.01018
 C87 C 0.54075 1.05779 -0.03672
 H88 H 0.54053 1.07797 -0.03476
 C89 C 0.54105 1.00597 -0.03913
 H90 H 0.54122 0.98571 -0.03967
 C91 C 0.55792 1.01962 -0.05366
 H92 H 0.57065 1.00962 -0.06574
 N93 N 0.52434 1.01794 -0.02427
 C94 C 0.46504 1.03245 0.00274
 H95 H 0.46544 1.03321 -0.01748
 C96 C 0.44760 1.04659 0.01597
 H97 H 0.43454 1.05816 0.00576
 C98 C 0.48092 1.01553 0.04049
 H99 H 0.49358 1.00303 0.04997
 C100 C 0.46372 1.02926 0.05445
 H101 H 0.46372 1.02757 0.07464
 Zn102 Zn 0.50321 0.99762 -0.00433
 N103 N 0.48136 1.01745 0.01511
 C104 C 0.53999 0.99119 0.03204
 N105 N 0.52434 0.97843 0.01646
 C106 C 0.52506 0.95302 0.01478
 C107 C 0.54199 0.93944 0.02928
 C108 C 0.55702 0.97838 0.04702
 C109 C 0.48430 0.97688 -0.04992
 C110 C 0.46845 0.96167 -0.06424
 C111 C 0.44974 0.94636 -0.02606
 C112 C 0.46606 0.96173 -0.01248
 N113 N 0.48297 0.97650 -0.02450
 H114 H 0.53926 1.01143 0.03273
 H115 H 0.51292 0.94326 0.00179
 H116 H 0.54268 0.91928 0.02719
 H117 H 0.56898 0.98896 0.05958
 H118 H 0.49743 0.98915 -0.05920
 H119 H 0.47008 0.96201 -0.08442
 H120 H 0.43609 0.93518 -0.01607
 H121 H 0.46509 0.96213 0.00774
 C122 C 0.44672 1.04500 0.04218
 C123 C 0.55807 1.04593 -0.05249
 C124 C 0.45078 0.94618 -0.05234
 C125 C 0.55836 0.95212 0.04563
 C126 C -0.01594 0.53410 1.04314
 H127 H 0.00425 0.53503 1.04396
 C128 C -0.03019 0.54975 1.05834
 H129 H -0.02077 0.56283 1.07072
 C130 C -0.05259 0.51677 1.02493
 H131 H -0.06126 0.50429 1.01152
 C132 C -0.06758 0.53208 1.03980
 H133 H -0.08770 0.53078 1.03802
 N134 N -0.02726 0.51803 1.02688
 C135 C 0.03145 0.46409 1.01113
 H136 H 0.03295 0.46639 0.99108
 C137 C 0.04671 0.44695 1.02345
 H138 H 0.06029 0.43657 1.01269
 C139 C 0.01194 0.47517 1.04929
 H140 H -0.00202 0.48583 1.05918
 C141 C 0.02661 0.45797 1.06234
 H142 H 0.02364 0.45559 1.08222
 Zn143 Zn -0.00631 0.49932 1.00549
 N144 N 0.01465 0.47791 1.02415
 C145 C 0.03808 0.52451 0.99004
 N146 N 0.01288 0.52275 0.98698
 C147 C 0.00045 0.53866 0.97159
 C148 C 0.01349 0.55665 0.95778
 C149 C 0.05183 0.54246 0.97684
 C150 C -0.03993 0.46061 0.99503
 C151 C -0.05414 0.44407 0.98050
 C152 C -0.03803 0.46425 0.94339
 C153 C -0.02413 0.48042 0.95866
 N154 N -0.02553 0.47851 0.98400
 H155 H 0.04754 0.51236 1.00307
 H156 H -0.01966 0.53722 0.96990
 H157 H 0.00321 0.56858 0.94511
 H158 H 0.07179 0.54381 0.97996
 H159 H -0.04027 0.45915 1.01522
 H160 H -0.06525 0.42978 0.98967
 H161 H -0.03691 0.46626 0.92327
 H162 H -0.01204 0.49425 0.95017
 C163 C 0.04428 0.44349 1.04941
 C164 C -0.05639 0.54900 1.05666
 C165 C -0.05332 0.44577 0.95429
 C166 C 0.03958 0.55879 0.96030
 C167 C 1.05048 -0.01354 0.52394
 H168 H 1.06010 -0.00036 0.51196
 C169 C 1.06396 -0.02694 0.54186
 H170 H 1.08391 -0.02384 0.54343
 C171 C 1.01260 -0.03212 0.53765
 H172 H 0.99248 -0.03369 0.53613
 C173 C 1.02533 -0.04611 0.55556
 H174 H 1.01482 -0.05885 0.56731
 N175 N 1.02526 -0.01638 0.52218
 C176 C 1.02398 0.04884 0.47919
 H177 H 1.01061 0.05792 0.49122
 C178 C 1.03834 0.06330 0.46281
 H179 H 1.03628 0.08346 0.46295
 C180 C 1.04245 0.01163 0.46392
 H181 H 1.04360 -0.00860 0.46424
 C182 C 1.05715 0.02536 0.44721
 H183 H 1.06947 0.01550 0.43459
 Zn184 Zn 1.00582 0.00326 0.50020
 N185 N 1.02636 0.02349 0.47955
 C186 C 0.99681 0.03957 0.53649
 N187 N 0.98517 0.02326 0.52071
 C188 C 0.95992 0.02021 0.52104
 C189 C 0.94533 0.03408 0.53765
 C190 C 0.98295 0.05409 0.55308
 C191 C 0.97105 -0.00542 0.46219
 C192 C 0.95662 -0.01925 0.44525
 C193 C 0.97409 -0.05719 0.46234
 C194 C 0.98821 -0.04263 0.47896
 N195 N 0.98627 -0.01723 0.47874
 H196 H 1.01697 0.04128 0.53615
 H197 H 0.95109 0.00655 0.50891
 H198 H 0.92535 0.03082 0.53807
 H199 H 0.99268 0.06736 0.56499
 H200 H 0.97025 0.01482 0.46210
 H201 H 0.94486 -0.00945 0.43203
 H202 H 0.97566 -0.07739 0.46300
 H203 H 1.00088 -0.05166 0.49178
 C204 C 1.05511 0.05157 0.44642
 C205 C 1.05137 -0.04343 0.55811
 C206 C 0.95802 -0.04552 0.44518
 C207 C 0.95682 0.05131 0.55404
 C208 C 0.14424 0.31310 1.13817
 C209 C 0.14040 0.30852 1.16372
 C210 C 0.15294 0.28908 1.17581
 C211 C 0.17003 0.27379 1.16278
 C212 C 0.17417 0.27899 1.13720
 C213 C 0.16131 0.29819 1.12508
 C214 C 0.13016 0.33300 1.12511
 N215 N 0.12828 0.33302 1.09976
 N216 N 0.11514 0.35054 1.08798
 C217 C 0.10344 0.36888 1.10104
 N218 N 0.10545 0.36897 1.12638
 N219 N 0.11846 0.35135 1.13818
 C220 C 0.08852 0.38809 1.08790
 C221 C 0.08204 0.41056 1.09990
 C222 C 0.06790 0.42862 1.08740
 C223 C 0.05963 0.42448 1.06271
 C224 C 0.06601 0.40187 1.05084
 C225 C 0.08042 0.38400 1.06320
 H226 H 0.12740 0.31974 1.17436
 H227 H 0.14941 0.28656 1.19555
 H228 H 0.18666 0.26780 1.12602
 H229 H 0.16473 0.30130 1.10536
 H230 H 0.08815 0.41434 1.11887
 H231 H 0.06372 0.44595 1.09701
 H232 H 0.05954 0.39772 1.03208
 H233 H 0.08486 0.36676 1.05352
 C234 C -0.15142 0.67839 1.15174
 C235 C -0.17204 0.69028 1.14083
 C236 C -0.18351 0.71051 1.15270
 C237 C -0.17464 0.71967 1.17595
 C238 C -0.15421 0.70713 1.18702
 C239 C -0.14283 0.68688 1.17510
 C240 C -0.13856 0.65769 1.13852
 N241 N -0.11855 0.64616 1.14899
 N242 N -0.10649 0.62817 1.13673
 C243 C -0.11391 0.62095 1.11348
 N244 N -0.13402 0.63237 1.10309
 N245 N -0.14609 0.65034 1.11534
 C246 C -0.09990 0.60162 1.09941
 C247 C -0.10671 0.59539 1.07473
 C248 C -0.09284 0.57805 1.06104
 C249 C -0.07185 0.56647 1.07169
 C250 C -0.06530 0.57233 1.09652
 C251 C -0.07916 0.58970 1.11021
 H252 H -0.17923 0.68419 1.12285
 H253 H -0.19894 0.71907 1.14301
 H254 H -0.14676 0.71260 1.20500
 H255 H -0.12709 0.67802 1.18417
 H256 H -0.12254 0.60423 1.06578
 H257 H -0.09819 0.57422 1.04186
 H258 H -0.04944 0.56347 1.10538
 H259 H -0.07345 0.59393 1.12921
 C260 C -0.14811 0.31983 0.85228
 C261 C -0.17142 0.31071 0.86023
 C262 C -0.18370 0.29163 0.84701
 C263 C -0.17302 0.28092 0.82532
 C264 C -0.14973 0.29066 0.81727
 C265 C -0.13754 0.30970 0.83054
 C266 C -0.13466 0.33947 0.86676
 N267 N -0.11172 0.34765 0.85947
 N268 N -0.09935 0.36484 0.87276
 C269 C -0.10938 0.37463 0.89392
 N270 N -0.13238 0.36653 0.90116
 N271 N -0.14475 0.34932 0.88788
 C272 C -0.09532 0.39334 0.90902
 C273 C -0.10579 0.40360 0.93083
 C274 C -0.09226 0.42075 0.94538
 C275 C -0.06795 0.42805 0.93847
 C276 C -0.05758 0.41800 0.91654
 C277 C -0.07110 0.40086 0.90198
 H278 H -0.18021 0.31818 0.87686
 H279 H -0.20155 0.28552 0.85418
 H280 H -0.14037 0.28366 0.80087
 H281 H -0.11962 0.31635 0.82378
 H282 H -0.12443 0.39833 0.93676
 H283 H -0.10091 0.42843 0.96198
 H284 H -0.03877 0.42298 0.91088
 H285 H -0.06241 0.39331 0.88534
 C286 C 0.13482 0.68843 0.86412
 C287 C 0.16071 0.69130 0.86731
 C288 C 0.17383 0.70999 0.85447
 C289 C 0.16148 0.72621 0.83770
 C290 C 0.13547 0.72284 0.83432
 C291 C 0.12237 0.70440 0.84749
 C292 C 0.12080 0.66906 0.87821
 N293 N 0.09559 0.67053 0.88068
 N294 N 0.08296 0.65328 0.89355
 C295 C 0.09498 0.63374 0.90437
 N296 N 0.12019 0.63221 0.90182
 N297 N 0.13285 0.64956 0.88908
 C298 C 0.08090 0.61460 0.91869
 C299 C 0.09153 0.59118 0.92388
 C300 C 0.07811 0.57305 0.93722
 C301 C 0.05386 0.57804 0.94599
 C302 C 0.04336 0.60160 0.94093
 C303 C 0.05665 0.61958 0.92731
 H304 H 0.17088 0.67923 0.87998
 H305 H 0.19378 0.71116 0.85745
 H306 H 0.12478 0.73486 0.82216
 H307 H 0.10240 0.70263 0.84458
 H308 H 0.11011 0.58669 0.91733
 H309 H 0.08665 0.55499 0.94034
 H310 H 0.02497 0.60635 0.94780
 H311 H 0.04802 0.63754 0.92382
 C312 C 1.14937 0.14655 0.31552
 C313 C 1.17260 0.13809 0.30692
 C314 C 1.18451 0.14984 0.28681
 C315 C 1.17355 0.17051 0.27452
 C316 C 1.15046 0.17924 0.28382
 C317 C 1.13860 0.16741 0.30389
 C318 C 1.13614 0.13336 0.33607
 N319 N 1.11295 0.14061 0.34326
 N320 N 1.10070 0.12833 0.36116
 C321 C 1.11110 0.10825 0.37267
 N322 N 1.13436 0.10108 0.36560
 N323 N 1.14661 0.11335 0.34767
 C324 C 1.09711 0.09418 0.39210
 C325 C 1.10813 0.07390 0.40465
 C326 C 1.09462 0.06023 0.42244
 C327 C 1.06978 0.06650 0.42807
 C328 C 1.05885 0.08690 0.41567
 C329 C 1.07235 0.10059 0.39794
 H330 H 1.18157 0.12216 0.31558
 H331 H 1.20239 0.14248 0.28122
 H332 H 1.14085 0.19485 0.27547
 H333 H 1.12074 0.17453 0.31009
 H334 H 1.12719 0.06850 0.40070
 H335 H 1.10369 0.04483 0.43190
 H336 H 1.03963 0.09199 0.41927
 H337 H 1.06321 0.11601 0.38858
 C338 C 1.14042 -0.13825 0.69227
 C339 C 1.16619 -0.13532 0.69632
 C340 C 1.17816 -0.14834 0.71556
 C341 C 1.16476 -0.16504 0.73113
 C342 C 1.13888 -0.16805 0.72665
 C343 C 1.12692 -0.15471 0.70767
 C344 C 1.12757 -0.12411 0.67225
 N345 N 1.10236 -0.12140 0.67264
 N346 N 1.09071 -0.10860 0.65478
 C347 C 1.10375 -0.09808 0.63567
 N348 N 1.12897 -0.10086 0.63520
 N349 N 1.14065 -0.11354 0.65318
 C350 C 1.09065 -0.08388 0.61587
 C351 C 1.10216 -0.07911 0.59273
 C352 C 1.08946 -0.06608 0.57395
 C353 C 1.06506 -0.05727 0.57800
 C354 C 1.05378 -0.06176 0.60133
 C355 C 1.06633 -0.07505 0.61994
 H356 H 1.17713 -0.12277 0.68473
 H357 H 1.19808 -0.14560 0.71762
 H358 H 1.12740 -0.18009 0.73815
 H359 H 1.10701 -0.15740 0.70502
 H360 H 1.12085 -0.08581 0.58898
 H361 H 1.09862 -0.06329 0.55612
 H362 H 1.03529 -0.05474 0.60541
 H363 H 1.05704 -0.07815 0.63766
 C364 C 0.86005 -0.14234 0.31765
 C365 C 0.87000 -0.16383 0.30639
 C366 C 0.85692 -0.17643 0.28746
 C367 C 0.83341 -0.16787 0.27902
 C368 C 0.82347 -0.14638 0.29075
 C369 C 0.83657 -0.13389 0.30971
 C370 C 0.87421 -0.12863 0.33732
 N371 N 0.86437 -0.10812 0.34858
 N372 N 0.87724 -0.09553 0.36592
 C373 C 0.90053 -0.10289 0.37274
 N374 N 0.91035 -0.12344 0.36153
 N375 N 0.89747 -0.13605 0.34421
 C376 C 0.91505 -0.08857 0.39170
 C377 C 0.93963 -0.09547 0.39782
 C378 C 0.95349 -0.08163 0.41528
 C379 C 0.94310 -0.06057 0.42704
 C380 C 0.91845 -0.05380 0.42110
 C381 C 0.90460 -0.06762 0.40363
 H382 H 0.88807 -0.17091 0.31205
 H383 H 0.86585 -0.19255 0.27929
 H384 H 0.80540 -0.13904 0.28576
 H385 H 0.82824 -0.11746 0.31808
 H386 H 0.94832 -0.11144 0.38895
 H387 H 0.97254 -0.08714 0.41919
 H388 H 0.90978 -0.03789 0.43010
 H389 H 0.88569 -0.06182 0.39948
 C390 C 0.85798 0.14846 0.67912
 C391 C 0.83261 0.14312 0.68317
 C392 C 0.81934 0.15556 0.70191
 C393 C 0.83099 0.17407 0.71694
 C394 C 0.85638 0.17972 0.71223
 C395 C 0.86968 0.16694 0.69379
 C396 C 0.87238 0.13450 0.66011
 N397 N 0.89770 0.13352 0.66149
 N398 N 0.91074 0.12057 0.64474
 C399 C 0.89902 0.10820 0.62581
 N400 N 0.87370 0.10930 0.62431
 N401 N 0.86063 0.12210 0.64118
 C402 C 0.91360 0.09362 0.60741
 C403 C 0.90351 0.08753 0.58388
 C404 C 0.91753 0.07398 0.56649
 C405 C 0.94182 0.06587 0.57240
 C406 C 0.95169 0.07175 0.59613
 C407 C 0.93785 0.08563 0.61332
 H408 H 0.82305 0.12899 0.67210
 H409 H 0.79981 0.15083 0.70411
 H410 H 0.86656 0.19334 0.72327
 H411 H 0.88923 0.17153 0.69105
 H412 H 0.88492 0.09359 0.57874
 H413 H 0.90943 0.07017 0.54829
 H414 H 0.97004 0.06534 0.60166
 H415 H 0.94604 0.08977 0.63142
 C416 C 0.31474 1.13798 0.13571
 C417 C 0.29896 1.12521 0.15247
 C418 C 0.27985 1.13784 0.16491
 C419 C 0.27606 1.16358 0.16097
 C420 C 0.29194 1.17638 0.14432
 C421 C 0.31101 1.16373 0.13181
 C422 C 0.33480 1.12447 0.12225
 N423 N 0.34871 1.13618 0.10448
 N424 N 0.36654 1.12394 0.09222
 C425 C 0.37125 1.09947 0.09724
 N426 N 0.35738 1.08779 0.11506
 N427 N 0.33953 1.10002 0.12729
 C428 C 0.39089 1.08573 0.08341
 C429 C 0.39678 1.06091 0.08980
 C430 C 0.41502 1.04781 0.07657
 C431 C 0.42776 1.05917 0.05657
 C432 C 0.42197 1.08400 0.05021
 C433 C 0.40380 1.09716 0.06351
 H434 H 0.30120 1.10536 0.15585
 H435 H 0.26778 1.12730 0.17729
 H436 H 0.28981 1.19625 0.14112
 H437 H 0.32288 1.17419 0.11914
 H438 H 0.38722 1.05150 0.10499
 H439 H 0.41884 1.02859 0.08171
 H440 H 0.43167 1.09333 0.03505
 H441 H 0.39978 1.11625 0.05809
 C442 C 0.68301 1.14370 -0.15211
 C443 C 0.68286 1.17004 -0.15236
 C444 C 0.70134 1.18343 -0.16525
 C445 C 0.72013 1.17075 -0.17840
 C446 C 0.72001 1.14445 -0.17853
 C447 C 0.70175 1.13107 -0.16543
 C448 C 0.66413 1.12940 -0.13766
 N449 N 0.66767 1.10477 -0.13249
 N450 N 0.65098 1.09191 -0.11917
 C451 C 0.62996 1.10308 -0.11053
 N452 N 0.62632 1.12769 -0.11579
 N453 N 0.64310 1.14060 -0.12901
 C454 C 0.61154 1.08868 -0.09559
 C455 C 0.58732 1.09788 -0.09159
 C456 C 0.56995 1.08404 -0.07769
 C457 C 0.57648 1.06079 -0.06726
 C458 C 0.60082 1.05178 -0.07106
 C459 C 0.61807 1.06547 -0.08517
 H460 H 0.66870 1.18033 -0.14227
 H461 H 0.70092 1.20369 -0.16502
 H462 H 0.73444 1.13419 -0.18824
 H463 H 0.70238 1.11080 -0.16568
 H464 H 0.58166 1.11564 -0.09949
 H465 H 0.55128 1.09140 -0.07545
 H466 H 0.60673 1.03425 -0.06287
 H467 H 0.63665 1.05796 -0.08766
 C468 C 0.32152 0.84700 -0.14520
 C469 C 0.31648 0.85117 -0.17067
 C470 C 0.29614 0.83941 -0.18234
 C471 C 0.28019 0.82338 -0.16879
 C472 C 0.28558 0.81888 -0.14341
 C473 C 0.30604 0.83045 -0.13181
 C474 C 0.34226 0.86045 -0.13243
 N475 N 0.34961 0.85375 -0.10905
 N476 N 0.36757 0.86645 -0.09717
 C477 C 0.37887 0.88647 -0.10811
 N478 N 0.37161 0.89310 -0.13155
 N479 N 0.35372 0.88033 -0.14348
 C480 C 0.39808 0.90124 -0.09444
 C481 C 0.40580 0.92482 -0.10331
 C482 C 0.42303 0.93927 -0.08979
 C483 C 0.43312 0.93041 -0.06717
 C484 C 0.42576 0.90660 -0.05858
 C485 C 0.40838 0.89223 -0.07199
 H486 H 0.32818 0.86362 -0.18159
 H487 H 0.29292 0.84297 -0.20200
 H488 H 0.27363 0.80699 -0.13220
 H489 H 0.30931 0.82690 -0.11213
 H490 H 0.39813 0.93239 -0.12045
 H491 H 0.42795 0.95767 -0.09678
 H492 H 0.43349 0.89899 -0.04149
 H493 H 0.40299 0.87406 -0.06473
 C494 C 0.68628 0.85951 0.14542
 C495 C 0.70551 0.87273 0.15773
 C496 C 0.72402 0.85996 0.17094
 C497 C 0.72387 0.83367 0.17195
 C498 C 0.70463 0.82042 0.15973
 C499 C 0.68594 0.83321 0.14672
 C500 C 0.66696 0.87314 0.13102
 N501 N 0.64596 0.86126 0.12278
 N502 N 0.62877 0.87355 0.10964
 C503 C 0.63191 0.89820 0.10408
 N504 N 0.65291 0.91005 0.11232
 N505 N 0.67004 0.89780 0.12554
 C506 C 0.61301 0.91188 0.08920
 C507 C 0.61870 0.93553 0.07912
 C508 C 0.60103 0.94846 0.06495
 C509 C 0.57712 0.93820 0.06070
 C510 C 0.57141 0.91454 0.07083
 C511 C 0.58919 0.90149 0.08484
 H512 H 0.70633 0.89300 0.15715
 H513 H 0.73878 0.87065 0.17991
 H514 H 0.70395 0.80016 0.16041
 H515 H 0.67140 0.82245 0.13743
 H516 H 0.63694 0.94399 0.08192
 H517 H 0.60630 0.96638 0.05701
 H518 H 0.55308 0.90623 0.06823
 H519 H 0.58416 0.88336 0.09245
   
