data_POSCAR
  _audit_creation_date              2014-09-24
  _audit_creation_method            'ToBaCCo'
  _symmetry_space_group_name_H-M    'P1'
  _symmetry_Int_Tables_number       1
  _symmetry_cell_setting            triclinic
  loop_
  _symmetry_equiv_pos_as_xyz
 x,y,z
_cell_length_a 34.7584
_cell_length_b 35.3912
_cell_length_c 45.4432
_cell_angle_alpha 90.096400
_cell_angle_beta 89.473900
_cell_angle_gamma 79.326700
loop_
  _atom_site_label
  _atom_site_type_symbol
  _atom_site_fract_x
  _atom_site_fract_y
  _atom_site_fract_z
C1 C 1.20741 0.24331 0.20258
 C2 C 1.23706 0.26463 0.18836
 C3 C 1.25743 0.28240 0.20771
 C4 C 1.24599 0.27751 0.24024
 C5 C 1.23084 0.21626 0.22495
 C6 C 1.25080 0.23384 0.24475
 C7 C 1.18147 0.27440 0.22131
 C8 C 1.20114 0.29127 0.24201
 H9 H 1.24067 0.26669 0.16474
 H10 H 1.26301 0.29162 0.25601
 H11 H 1.23010 0.18580 0.22576
 H12 H 1.15016 0.28210 0.21886
 C13 C 0.73871 -0.29031 0.20716
 C14 C 0.75848 -0.26192 0.19027
 C15 C 0.77574 -0.23857 0.20754
 C16 C 0.77174 -0.24584 0.24077
 C17 C 0.77057 -0.31204 0.22730
 C18 C 0.78750 -0.28896 0.24513
 C19 C 0.71043 -0.26538 0.22861
 C20 C 0.72741 -0.24230 0.24648
 H21 H 0.75932 -0.26097 0.16645
 H22 H 0.78613 -0.22713 0.25496
 H23 H 0.77529 -0.34275 0.23072
 H24 H 0.67979 -0.26739 0.23025
 C25 C 0.72205 0.22523 -0.29648
 C26 C 0.74304 0.25290 -0.30960
 C27 C 0.76614 0.27010 -0.28935
 C28 C 0.76280 0.25652 -0.25897
 C29 C 0.75144 0.19780 -0.28123
 C30 C 0.77349 0.21431 -0.25977
 C31 C 0.69842 0.24712 -0.27331
 C32 C 0.72057 0.26395 -0.25205
 H33 H 0.74246 0.25878 -0.33299
 H34 H 0.77985 0.27022 -0.24323
 H35 H 0.75585 0.16725 -0.28580
 H36 H 0.66708 0.25642 -0.27466
 C37 C 1.23793 -0.26269 -0.29930
 C38 C 1.26283 -0.23525 -0.31192
 C39 C 1.28343 -0.21946 -0.29145
 C40 C 1.27707 -0.23251 -0.25955
 C41 C 1.26643 -0.29208 -0.28172
 C42 C 1.28631 -0.27689 -0.26033
 C43 C 1.21221 -0.23816 -0.27615
 C44 C 1.23233 -0.22335 -0.25475
 H45 H 1.26286 -0.22729 -0.33491
 H46 H 1.29361 -0.21929 -0.24291
 H47 H 1.26881 -0.32268 -0.28524
 H48 H 1.18055 -0.23311 -0.27658
 C49 C 0.24219 0.21585 0.79860
 C50 C 0.26984 0.23632 0.81183
 C51 C 0.28734 0.25961 0.79197
 C52 C 0.27400 0.25748 0.76158
 C53 C 0.21269 0.24643 0.78255
 C54 C 0.22900 0.26782 0.76277
 C55 C 0.26517 0.19253 0.77343
 C56 C 0.28140 0.21423 0.75370
 H57 H 0.27422 0.23637 0.83541
 H58 H 0.28753 0.27481 0.74554
 H59 H 0.18136 0.24770 0.78424
 H60 H 0.26593 0.16231 0.76969
 C61 C 0.70732 0.74278 0.79488
 C62 C 0.73593 0.76065 0.80990
 C63 C 0.75995 0.77888 0.79072
 C64 C 0.74990 0.77575 0.75935
 C65 C 0.68504 0.77404 0.77788
 C66 C 0.70762 0.79122 0.75692
 C67 C 0.72966 0.71673 0.77360
 C68 C 0.75321 0.73426 0.75351
 H69 H 0.73530 0.76476 0.83354
 H70 H 0.76818 0.78979 0.74465
 H71 H 0.65501 0.78677 0.78315
 H72 H 0.73063 0.68602 0.77476
 C73 C 0.73713 0.23364 0.28991
 C74 C 0.76375 0.25389 0.30819
 C75 C 0.78589 0.27443 0.29225
 C76 C 0.77941 0.27289 0.25880
 C77 C 0.71317 0.26538 0.27102
 C78 C 0.73499 0.28599 0.25456
 C79 C 0.76451 0.20943 0.26746
 C80 C 0.78621 0.22984 0.25074
 H81 H 0.76402 0.25297 0.33202
 H82 H 0.79781 0.28970 0.24614
 H83 H 0.68197 0.26753 0.26804
 H84 H 0.76356 0.17973 0.26267
 C85 C 0.22728 0.72048 0.29731
 C86 C 0.25262 0.74531 0.31259
 C87 C 0.27012 0.76729 0.29414
 C88 C 0.26053 0.76258 0.26146
 C89 C 0.19849 0.74852 0.27876
 C90 C 0.21560 0.77006 0.25963
 C91 C 0.25468 0.69717 0.27429
 C92 C 0.27178 0.71916 0.25542
 H93 H 0.25657 0.74516 0.33622
 H94 H 0.27466 0.78051 0.24624
 H95 H 0.16745 0.74787 0.27837
 H96 H 0.25801 0.66654 0.27108
 O97 O 1.06278 0.03296 0.02181
 O98 O 0.92428 -0.04505 0.01376
 O99 O 0.94145 0.06941 0.01253
 O100 O 1.04549 -0.08167 0.02636
 O101 O 0.92167 0.02002 0.02806
 O102 O 1.05843 -0.02820 0.04041
 O103 O 0.97677 -0.06875 0.03578
 O104 O 1.00500 0.05817 0.03426
 C105 C 1.04025 0.05298 0.03964
 C106 C 0.94063 -0.06121 0.03599
 C107 C 0.92433 0.05390 0.03201
 C108 C 1.05793 -0.06212 0.04589
 O109 O 1.07778 -0.05947 -0.01338
 O110 O 0.92153 0.04069 -0.02998
 O111 O 1.03683 0.05962 -0.02129
 O112 O 0.96342 -0.07908 -0.02278
 O113 O 0.93814 -0.02624 -0.04306
 O114 O 1.06572 0.00380 -0.03399
 O115 O 1.03007 -0.07807 -0.03326
 O116 O 0.97577 0.05633 -0.04137
 Co117 Co 1.05937 -0.01227 0.00309
 Co118 Co 0.93319 -0.00304 -0.00724
 Co119 Co 0.99042 0.05429 -0.00361
 Co120 Co 1.00336 -0.07030 0.00121
 O121 O 0.99652 -0.00784 -0.00167
 C122 C 1.06472 -0.07496 -0.03472
 C123 C 0.94173 0.05549 -0.04798
 C124 C 1.05898 0.03862 -0.03888
 C125 C 0.94685 -0.06169 -0.04455
 O126 O 1.06874 0.53728 0.52696
 O127 O 0.92727 0.46277 0.53229
 O128 O 0.94702 0.57624 0.52639
 O129 O 1.04894 0.42388 0.53721
 O130 O 0.92823 0.52795 0.54516
 O131 O 1.06572 0.47688 0.54833
 O132 O 0.98155 0.43844 0.55146
 O133 O 1.01309 0.56412 0.54306
 C134 C 1.04896 0.55826 0.54574
 C135 C 0.94554 0.44695 0.55384
 C136 C 0.93142 0.56200 0.54740
 C137 C 1.06414 0.44351 0.55513
 O138 O 1.07698 0.44362 0.49457
 O139 O 0.92089 0.54703 0.48710
 O140 O 1.03737 0.56286 0.48529
 O141 O 0.96112 0.42724 0.49436
 O142 O 0.93463 0.47984 0.47441
 O143 O 1.06424 0.50635 0.47254
 O144 O 1.02651 0.42578 0.47895
 O145 O 0.97362 0.56052 0.47024
 Co146 Co 1.06210 0.49164 0.51051
 Co147 Co 0.93461 0.50380 0.50981
 Co148 Co 0.99332 0.55937 0.50678
 Co149 Co 1.00410 0.43527 0.51504
 O150 O 0.99850 0.49751 0.51056
 C151 C 1.06082 0.42871 0.47449
 C152 C 0.93878 0.55971 0.46654
 C153 C 1.05690 0.54098 0.46683
 C154 C 0.94382 0.44439 0.47283
 O155 O 0.56483 0.04634 0.50951
 O156 O 0.42831 -0.03326 0.51372
 O157 O 0.44285 0.08115 0.50589
 O158 O 0.55097 -0.06885 0.51855
 O159 O 0.42666 0.03231 0.52528
 O160 O 0.56522 -0.01486 0.52985
 O161 O 0.48329 -0.05612 0.53275
 O162 O 0.50806 0.07161 0.52437
 C163 C 0.54364 0.06550 0.52855
 C164 C 0.44724 -0.04857 0.53526
 C165 C 0.42859 0.06659 0.52730
 C166 C 0.56570 -0.04868 0.53633
 O167 O 0.57814 -0.04708 0.47580
 O168 O 0.41967 0.05000 0.46632
 O169 O 0.53475 0.07156 0.46739
 O170 O 0.46347 -0.06887 0.47606
 O171 O 0.43589 -0.01729 0.45529
 O172 O 0.56302 0.01576 0.45431
 O173 O 0.52883 -0.06813 0.46064
 O174 O 0.47238 0.06537 0.45080
 Co175 Co 0.56108 0.00040 0.49217
 Co176 Co 0.43439 0.00765 0.49028
 Co177 Co 0.49034 0.06577 0.48765
 Co178 Co 0.50589 -0.05884 0.49648
 O179 O 0.49791 0.00369 0.49165
 C180 C 0.56300 -0.06437 0.45648
 C181 C 0.43770 0.06431 0.44654
 C182 C 0.55550 0.05052 0.44907
 C183 C 0.44536 -0.05271 0.45448
 O184 O 0.55551 0.51148 0.04036
 O185 O 0.42876 0.47698 0.03147
 O186 O 0.46582 0.56143 0.03500
 O187 O 0.52106 0.42785 0.03743
 O188 O 0.41605 0.54250 0.01725
 O189 O 0.57317 0.44631 0.02467
 O190 O 0.45927 0.42384 0.01523
 O191 O 0.53096 0.56529 0.02200
 C192 C 0.54802 0.54674 0.04286
 C193 C 0.43838 0.44195 0.03491
 C194 C 0.43111 0.55865 0.03758
 C195 C 0.55437 0.43218 0.04388
 O196 O 0.56989 0.47057 -0.03232
 O197 O 0.43218 0.52005 -0.04075
 O198 O 0.51328 0.55842 -0.03581
 O199 O 0.49108 0.42934 -0.03843
 O200 O 0.43234 0.45537 -0.02723
 O201 O 0.56731 0.53394 -0.01625
 O202 O 0.55480 0.41844 -0.01774
 O203 O 0.44504 0.57037 -0.02160
 Co204 Co 0.55987 0.49094 0.00378
 Co205 Co 0.43394 0.49835 -0.00441
 Co206 Co 0.48969 0.55705 -0.00028
 Co207 Co 0.50580 0.43160 -0.00069
 O208 O 0.49728 0.49446 -0.00044
 C209 C 0.57124 0.43601 -0.03643
 C210 C 0.43425 0.55426 -0.04352
 C211 C 0.54938 0.55198 -0.03706
 C212 C 0.45607 0.43612 -0.04499
 C213 C 1.20962 0.19810 0.15922
 C214 C 1.19273 0.17457 0.14055
 C215 C 1.15312 0.17263 0.14338
 C216 C 1.13032 0.19460 0.16517
 C217 C 1.14718 0.21813 0.18397
 C218 C 1.18704 0.22079 0.18095
 N219 N 1.13715 0.14757 0.12418
 N220 N 1.10119 0.14473 0.12472
 C221 C 1.08632 0.11940 0.10501
 C222 C 1.04584 0.12117 0.10316
 C223 C 1.03058 0.09866 0.08252
 C224 C 1.05578 0.07390 0.06357
 C225 C 1.09644 0.07100 0.06639
 C226 C 1.11158 0.09362 0.08682
 H227 H 1.24068 0.19801 0.15701
 H228 H 1.21070 0.15737 0.12404
 H229 H 1.09970 0.19303 0.16805
 H230 H 1.12894 0.23299 0.20129
 H231 H 1.02608 0.14076 0.11718
 H232 H 0.99915 0.10128 0.08094
 H233 H 1.11661 0.05201 0.05223
 H234 H 1.14301 0.09140 0.08803
 C235 C 1.22902 0.70914 0.64990
 C236 C 1.20923 0.68846 0.63084
 C237 C 1.17559 0.67548 0.64032
 C238 C 1.16216 0.68276 0.66931
 C239 C 1.18215 0.70289 0.68849
 C240 C 1.21521 0.71750 0.67887
 N241 N 1.15654 0.65360 0.62055
 N242 N 1.12304 0.64557 0.62624
 C243 C 1.10497 0.62261 0.60664
 C244 C 1.06502 0.62183 0.60989
 C245 C 1.04653 0.60053 0.59034
 C246 C 1.06813 0.57918 0.56760
 C247 C 1.10846 0.57913 0.56501
 C248 C 1.12666 0.60085 0.58421
 H249 H 1.25562 0.71760 0.64205
 H250 H 1.22035 0.68220 0.60868
 H251 H 1.13681 0.67206 0.67738
 H252 H 1.17201 0.70632 0.71109
 H253 H 1.04807 0.63834 0.62725
 H254 H 1.01543 0.60095 0.59284
 H255 H 1.12586 0.56292 0.54773
 H256 H 1.15767 0.60066 0.58149
 C257 C 0.72151 0.18959 0.65666
 C258 C 0.70333 0.16956 0.63620
 C259 C 0.66485 0.16467 0.64074
 C260 C 0.64472 0.17934 0.66636
 C261 C 0.66288 0.19914 0.68708
 C262 C 0.70139 0.20585 0.68222
 N263 N 0.64722 0.14419 0.61915
 N264 N 0.61130 0.14132 0.62026
 C265 C 0.59472 0.12061 0.59815
 C266 C 0.55408 0.12326 0.59722
 C267 C 0.53718 0.10493 0.57479
 C268 C 0.56093 0.08347 0.55315
 C269 C 0.60177 0.07989 0.55474
 C270 C 0.61852 0.09841 0.57695
 H271 H 0.75169 0.19213 0.65260
 H272 H 0.71934 0.15771 0.61672
 H273 H 0.61516 0.17494 0.67062
 H274 H 0.64660 0.20801 0.70703
 H275 H 0.53548 0.14017 0.61355
 H276 H 0.50564 0.10785 0.57419
 H277 H 0.62081 0.06329 0.53850
 H278 H 0.65006 0.09562 0.57737
 C279 C 0.73326 0.64611 0.18140
 C280 C 0.71223 0.62420 0.16442
 C281 C 0.67638 0.64097 0.15228
 C282 C 0.66228 0.68045 0.15635
 C283 C 0.68326 0.70242 0.17325
 C284 C 0.71831 0.68533 0.18701
 N285 N 0.65523 0.61755 0.13549
 N286 N 0.62213 0.63117 0.12440
 C287 C 0.60123 0.60832 0.10690
 C288 C 0.56837 0.62669 0.09160
 C289 C 0.54987 0.60614 0.07168
 C290 C 0.56379 0.56670 0.06708
 C291 C 0.59531 0.54773 0.08380
 C292 C 0.61414 0.56848 0.10347
 H293 H 0.76118 0.63198 0.18976
 H294 H 0.72387 0.59398 0.16074
 H295 H 0.63500 0.69431 0.14660
 H296 H 0.67167 0.73280 0.17608
 H297 H 0.55808 0.65732 0.09424
 H298 H 0.52543 0.62133 0.05919
 H299 H 0.60656 0.51733 0.08064
 H300 H 0.63933 0.55365 0.11532
 C301 C 0.83392 -0.20602 0.20393
 C302 C 0.85554 -0.18269 0.18833
 C303 C 0.83966 -0.16217 0.16353
 C304 C 0.80117 -0.16396 0.15526
 C305 C 0.77985 -0.18746 0.17056
 C306 C 0.79635 -0.20947 0.19455
 N307 N 0.86378 -0.14222 0.14573
 N308 N 0.84997 -0.12278 0.12340
 C309 C 0.87331 -0.10476 0.10360
 C310 C 0.85468 -0.08288 0.08043
 C311 C 0.87651 -0.06788 0.05890
 C312 C 0.91760 -0.07475 0.06007
 C313 C 0.93630 -0.09577 0.08388
 C314 C 0.91433 -0.11069 0.10549
 H315 H 0.84730 -0.22286 0.22227
 H316 H 0.88516 -0.18164 0.19497
 H317 H 0.78805 -0.14835 0.13629
 H318 H 0.75072 -0.18929 0.16313
 H319 H 0.82310 -0.07820 0.07868
 H320 H 0.86122 -0.05163 0.04098
 H321 H 0.96792 -0.10139 0.08544
 H322 H 0.92940 -0.12765 0.12315
 C323 C 0.82480 0.30007 0.71499
 C324 C 0.84993 0.32267 0.70238
 C325 C 0.83943 0.34345 0.67651
 C326 C 0.80298 0.34226 0.66393
 C327 C 0.77856 0.31916 0.67589
 C328 C 0.78940 0.29672 0.70113
 N329 N 0.86661 0.36342 0.66191
 N330 N 0.85475 0.38702 0.64134
 C331 C 0.87951 0.40546 0.62310
 C332 C 0.86148 0.43322 0.60331
 C333 C 0.88338 0.44782 0.58172
 C334 C 0.92399 0.43472 0.57933
 C335 C 0.94257 0.40824 0.60019
 C336 C 0.92042 0.39357 0.62196
 H337 H 0.83465 0.28325 0.73425
 H338 H 0.87796 0.32323 0.71239
 H339 H 0.79377 0.35822 0.64411
 H340 H 0.75082 0.31937 0.66522
 H341 H 0.82999 0.44248 0.60390
 H342 H 0.86822 0.46848 0.56623
 H343 H 0.97385 0.39771 0.59892
 H344 H 0.93491 0.37187 0.63694
 C345 C 0.34818 -0.19859 0.70307
 C346 C 0.37163 -0.17676 0.68766
 C347 C 0.35456 -0.14704 0.66881
 C348 C 0.31351 -0.13761 0.66729
 C349 C 0.29025 -0.15942 0.68246
 C350 C 0.30740 -0.19093 0.69961
 N351 N 0.37896 -0.12954 0.64932
 N352 N 0.36401 -0.10511 0.63009
 C353 C 0.38639 -0.08878 0.60846
 C354 C 0.36624 -0.06328 0.58791
 C355 C 0.38617 -0.04958 0.56457
 C356 C 0.42690 -0.06109 0.56134
 C357 C 0.44743 -0.08565 0.58261
 C358 C 0.42731 -0.09956 0.60595
 H359 H 0.36198 -0.22305 0.71591
 H360 H 0.40318 -0.18441 0.68912
 H361 H 0.29941 -0.11470 0.65314
 H362 H 0.25882 -0.15309 0.67947
 H363 H 0.33471 -0.05480 0.58956
 H364 H 0.36955 -0.03047 0.54875
 H365 H 0.47885 -0.09493 0.58076
 H366 H 0.44354 -0.11932 0.62153
 C367 C 0.28328 0.34387 0.20320
 C368 C 0.30567 0.36636 0.18737
 C369 C 0.33211 0.34970 0.16536
 C370 C 0.33750 0.30978 0.16061
 C371 C 0.31499 0.28755 0.17612
 C372 C 0.28687 0.30453 0.19690
 N373 N 0.35066 0.37378 0.14648
 N374 N 0.37425 0.35927 0.12607
 C375 C 0.39175 0.38143 0.10510
 C376 C 0.41847 0.36175 0.08461
 C377 C 0.43399 0.38154 0.06220
 C378 C 0.42291 0.42165 0.05967
 C379 C 0.39670 0.44164 0.08069
 C380 C 0.38118 0.42168 0.10325
 H381 H 0.26146 0.35761 0.21891
 H382 H 0.30114 0.39704 0.19134
 H383 H 0.35777 0.29598 0.14391
 H384 H 0.31822 0.25723 0.17089
 H385 H 0.42677 0.33075 0.08572
 H386 H 0.45428 0.36529 0.04655
 H387 H 0.38775 0.47258 0.07941
 H388 H 0.36042 0.43752 0.11877
 C389 C 0.78938 0.15428 -0.23146
 C390 C 0.80798 0.13332 -0.20800
 C391 C 0.83400 0.14859 -0.19047
 C392 C 0.84203 0.18512 -0.19701
 C393 C 0.82305 0.20655 -0.22032
 C394 C 0.79580 0.19179 -0.23781
 N395 N 0.85063 0.12690 -0.16563
 N396 N 0.87812 0.13637 -0.15069
 C397 C 0.89364 0.11509 -0.12533
 C398 C 0.92865 0.12200 -0.11354
 C399 C 0.94445 0.10212 -0.08866
 C400 C 0.92498 0.07544 -0.07473
 C401 C 0.88967 0.06861 -0.08647
 C402 C 0.87422 0.08809 -0.11176
 H403 H 0.76818 0.14140 -0.24318
 H404 H 0.80144 0.10523 -0.20308
 H405 H 0.86241 0.19742 -0.18381
 H406 H 0.83052 0.23433 -0.22463
 H407 H 0.94380 0.14277 -0.12374
 H408 H 0.97167 0.10809 -0.08005
 H409 H 0.87421 0.04812 -0.07621
 H410 H 0.84693 0.08245 -0.12045
 C411 C 0.84306 0.70932 0.28028
 C412 C 0.86351 0.69425 0.30537
 C413 C 0.85021 0.66600 0.32222
 C414 C 0.81612 0.65303 0.31376
 C415 C 0.79600 0.66775 0.28872
 C416 C 0.80947 0.69572 0.27155
 N417 N 0.87162 0.65059 0.34764
 N418 N 0.85861 0.62721 0.36466
 C419 C 0.87935 0.61059 0.38993
 C420 C 0.86091 0.58842 0.40904
 C421 C 0.88018 0.57177 0.43400
 C422 C 0.91846 0.57678 0.44001
 C423 C 0.93715 0.59864 0.42055
 C424 C 0.91768 0.61559 0.39577
 H425 H 0.85374 0.73109 0.26749
 H426 H 0.88968 0.70458 0.31171
 H427 H 0.80505 0.63141 0.32644
 H428 H 0.76952 0.65754 0.28299
 H429 H 0.83142 0.58422 0.40463
 H430 H 0.86521 0.55488 0.44852
 H431 H 0.96670 0.60295 0.42463
 H432 H 0.93259 0.63241 0.38118
 C433 C 0.25212 0.18646 0.28559
 C434 C 0.27057 0.16593 0.30933
 C435 C 0.30754 0.17132 0.31823
 C436 C 0.32560 0.19846 0.30349
 C437 C 0.30686 0.21948 0.27987
 C438 C 0.27024 0.21316 0.27044
 N439 N 0.32599 0.14871 0.34210
 N440 N 0.36143 0.14832 0.34902
 C441 C 0.37987 0.12581 0.37295
 C442 C 0.41963 0.12498 0.37783
 C443 C 0.43851 0.10417 0.40131
 C444 C 0.41777 0.08394 0.42060
 C445 C 0.37790 0.08429 0.41545
 C446 C 0.35906 0.10501 0.39175
 H447 H 0.22351 0.18161 0.27915
 H448 H 0.25622 0.14537 0.32064
 H449 H 0.35412 0.20332 0.31014
 H450 H 0.32132 0.23995 0.26856
 H451 H 0.43599 0.14077 0.36349
 H452 H 0.46926 0.10451 0.40464
 H453 H 0.36123 0.06895 0.42991
 H454 H 0.32825 0.10518 0.38837
 C455 C 0.29634 0.66388 -0.22876
 C456 C 0.31434 0.64185 -0.20561
 C457 C 0.34331 0.65438 -0.18922
 C458 C 0.35492 0.68919 -0.19672
 C459 C 0.33721 0.71120 -0.22032
 C460 C 0.30748 0.69890 -0.23657
 N461 N 0.35922 0.63157 -0.16465
 N462 N 0.38196 0.64262 -0.14605
 C463 C 0.39632 0.61926 -0.12128
 C464 C 0.41670 0.63484 -0.09935
 C465 C 0.42909 0.61361 -0.07413
 C466 C 0.42166 0.57613 -0.07057
 C467 C 0.40207 0.56010 -0.09295
 C468 C 0.38930 0.58155 -0.11803
 H469 H 0.27275 0.65375 -0.23981
 H470 H 0.30490 0.61528 -0.19987
 H471 H 0.37744 0.69939 -0.18434
 H472 H 0.34682 0.73775 -0.22576
 H473 H 0.42237 0.66377 -0.10156
 H474 H 0.44444 0.62660 -0.05738
 H475 H 0.39612 0.53124 -0.09087
 H476 H 0.37373 0.56876 -0.13474
 C477 C 1.17940 -0.21950 -0.21669
 C478 C 1.15986 -0.20361 -0.19146
 C479 C 1.17309 -0.17449 -0.17606
 C480 C 1.20670 -0.16137 -0.18610
 C481 C 1.22635 -0.17719 -0.21171
 C482 C 1.21253 -0.20614 -0.22747
 N483 N 1.15102 -0.15877 -0.15074
 N484 N 1.16151 -0.13453 -0.13327
 C485 C 1.13716 -0.11989 -0.10860
 C486 C 1.15130 -0.09730 -0.08741
 C487 C 1.12802 -0.08310 -0.06307
 C488 C 1.08997 -0.09093 -0.05980
 C489 C 1.07576 -0.11333 -0.08121
 C490 C 1.09915 -0.12783 -0.10529
 H491 H 1.16862 -0.24266 -0.22754
 H492 H 1.13421 -0.21414 -0.18378
 H493 H 1.21739 -0.13875 -0.17444
 H494 H 1.25177 -0.16633 -0.21942
 H495 H 1.18043 -0.09085 -0.08970
 H496 H 1.13959 -0.06563 -0.04701
 H497 H 1.04653 -0.11970 -0.07936
 H498 H 1.08735 -0.14504 -0.12140
 C499 C 1.14370 0.30525 0.27696
 C500 C 1.12569 0.32180 0.30258
 C501 C 1.14407 0.34536 0.32012
 C502 C 1.18054 0.35340 0.31118
 C503 C 1.19854 0.33720 0.28512
 C504 C 1.18055 0.31246 0.26781
 N505 N 1.12518 0.35942 0.34716
 N506 N 1.14094 0.37732 0.36662
 C507 C 1.12060 0.38989 0.39356
 C508 C 1.13953 0.40767 0.41521
 C509 C 1.12043 0.41968 0.44180
 C510 C 1.08189 0.41424 0.44710
 C511 C 1.06295 0.39639 0.42535
 C512 C 1.08211 0.38424 0.39888
 H513 H 1.12910 0.28553 0.26514
 H514 H 1.09770 0.31523 0.30933
 H515 H 1.19518 0.37182 0.32440
 H516 H 1.22661 0.34382 0.27877
 H517 H 1.16914 0.41220 0.41145
 H518 H 1.13565 0.43363 0.45806
 H519 H 1.03318 0.39202 0.42870
 H520 H 1.06673 0.37058 0.38256
 C521 C 0.67551 -0.23517 0.28582
 C522 C 0.65518 -0.21545 0.30943
 C523 C 0.66524 -0.18155 0.31988
 C524 C 0.69610 -0.16723 0.30631
 C525 C 0.71633 -0.18679 0.28230
 C526 C 0.70608 -0.22092 0.27168
 N527 N 0.64335 -0.16256 0.34421
 N528 N 0.65292 -0.13436 0.35789
 C529 C 0.62972 -0.11648 0.38212
 C530 C 0.64442 -0.09026 0.39992
 C531 C 0.62285 -0.07344 0.42426
 C532 C 0.58590 -0.08225 0.43089
 C533 C 0.57089 -0.10802 0.41266
 C534 C 0.59268 -0.12517 0.38860
 H535 H 0.66753 -0.26199 0.27906
 H536 H 0.63167 -0.22689 0.31989
 H537 H 0.70426 -0.14089 0.31405
 H538 H 0.73952 -0.17492 0.27184
 H539 H 0.67284 -0.08323 0.39513
 H540 H 0.63499 -0.05344 0.43782
 H541 H 0.54243 -0.11521 0.41716
 H542 H 0.58052 -0.14518 0.37507
 C543 C 0.66681 0.27458 -0.21599
 C544 C 0.64927 0.29163 -0.19038
 C545 C 0.66662 0.31770 -0.17464
 C546 C 0.70237 0.32635 -0.18458
 C547 C 0.72054 0.30872 -0.21005
 C548 C 0.70290 0.28263 -0.22638
 N549 N 0.64699 0.33494 -0.14880
 N550 N 0.65687 0.36345 -0.13578
 C551 C 0.63632 0.38025 -0.11011
 C552 C 0.64219 0.41630 -0.10059
 C553 C 0.62108 0.43435 -0.07655
 C554 C 0.59423 0.41618 -0.06125
 C555 C 0.58908 0.37954 -0.07033
 C556 C 0.60973 0.36180 -0.09475
 H557 H 0.65246 0.25381 -0.22681
 H558 H 0.62184 0.28456 -0.18278
 H559 H 0.71625 0.34663 -0.17269
 H560 H 0.74753 0.31695 -0.21724
 H561 H 0.66258 0.43078 -0.11222
 H562 H 0.62574 0.46257 -0.06994
 H563 H 0.56857 0.36497 -0.05893
 H564 H 0.60484 0.33379 -0.10164
 C565 C 1.19621 0.21577 -0.15820
 C566 C 1.17404 0.19776 -0.13890
 C567 C 1.17722 0.15790 -0.13957
 C568 C 1.20406 0.13586 -0.15895
 C569 C 1.22638 0.15381 -0.17829
 C570 C 1.22182 0.19425 -0.17888
 N571 N 1.15235 0.14070 -0.12070
 N572 N 1.15250 0.10474 -0.12070
 C573 C 1.12701 0.08847 -0.10167
 C574 C 1.13129 0.04847 -0.09975
 C575 C 1.10827 0.03195 -0.07995
 C576 C 1.08055 0.05543 -0.06193
 C577 C 1.07525 0.09554 -0.06480
 C578 C 1.09835 0.11195 -0.08443
 H579 H 1.19259 0.24683 -0.15758
 H580 H 1.15375 0.21497 -0.12375
 H581 H 1.20750 0.10483 -0.15938
 H582 H 1.24675 0.13553 -0.19255
 H583 H 1.15311 0.03012 -0.11309
 H584 H 1.11279 0.00094 -0.07827
 H585 H 1.05393 0.11432 -0.05134
 H586 H 1.09419 0.14298 -0.08578
 C587 C 1.17792 0.71974 0.33807
 C588 C 1.15578 0.70118 0.35701
 C589 C 1.16151 0.66111 0.35755
 C590 C 1.19047 0.63955 0.33950
 C591 C 1.21274 0.65804 0.32052
 C592 C 1.20612 0.69855 0.31900
 N593 N 1.13769 0.64318 0.37679
 N594 N 1.14061 0.60688 0.37835
 C595 C 1.11663 0.59006 0.39830
 C596 C 1.12423 0.55020 0.40247
 C597 C 1.10365 0.53364 0.42399
 C598 C 1.07516 0.55694 0.44151
 C599 C 1.06621 0.59664 0.43614
 C600 C 1.08679 0.61308 0.41479
 H601 H 1.17253 0.75089 0.33786
 H602 H 1.13380 0.71806 0.37112
 H603 H 1.19581 0.60843 0.33999
 H604 H 1.23482 0.64011 0.30735
 H605 H 1.14702 0.53216 0.38974
 H606 H 1.11098 0.50293 0.42760
 H607 H 1.04409 0.61523 0.44909
 H608 H 1.08001 0.64392 0.41172
 C609 C 0.67935 0.23327 0.32422
 C610 C 0.65520 0.21451 0.34137
 C611 C 0.66334 0.17452 0.34409
 C612 C 0.69658 0.15338 0.33002
 C613 C 0.72087 0.17209 0.31293
 C614 C 0.71191 0.21229 0.30898
 N615 N 0.63811 0.15630 0.36200
 N616 N 0.64287 0.11995 0.36474
 C617 C 0.61806 0.10239 0.38357
 C618 C 0.62630 0.06249 0.38752
 C619 C 0.60484 0.04506 0.40794
 C620 C 0.57484 0.06750 0.42471
 C621 C 0.56543 0.10728 0.41964
 C622 C 0.58685 0.12460 0.39929
 H623 H 0.67242 0.26432 0.32271
 H624 H 0.63007 0.23119 0.35262
 H625 H 0.70403 0.12248 0.33247
 H626 H 0.74681 0.15477 0.30337
 H627 H 0.65020 0.04505 0.37544
 H628 H 0.61264 0.01433 0.41135
 H629 H 0.54224 0.12525 0.43206
 H630 H 0.57967 0.15546 0.39646
 C631 C 0.64533 0.71902 -0.19386
 C632 C 0.62417 0.69703 -0.17688
 C633 C 0.64138 0.67649 -0.15275
 C634 C 0.68019 0.67820 -0.14555
 C635 C 0.70132 0.70057 -0.16221
 C636 C 0.68401 0.72244 -0.18629
 N637 N 0.61900 0.65393 -0.13601
 N638 N 0.63480 0.63034 -0.11664
 C639 C 0.61271 0.60857 -0.09894
 C640 C 0.63266 0.58231 -0.07891
 C641 C 0.61199 0.56278 -0.05956
 C642 C 0.57085 0.56945 -0.05986
 C643 C 0.55083 0.59475 -0.08077
 C644 C 0.57163 0.61423 -0.10022
 H645 H 0.63134 0.73247 -0.21333
 H646 H 0.59450 0.69526 -0.18297
 H647 H 0.69431 0.66208 -0.12713
 H648 H 0.73160 0.70006 -0.15653
 H649 H 0.66430 0.57767 -0.07784
 H650 H 0.62823 0.54324 -0.04381
 H651 H 0.51915 0.60032 -0.08153
 H652 H 0.55562 0.63440 -0.11564
 C653 C 0.79990 -0.16987 -0.21200
 C654 C 0.82471 -0.14835 -0.19791
 C655 C 0.83995 -0.15900 -0.17000
 C656 C 0.83088 -0.19203 -0.15673
 C657 C 0.80560 -0.21279 -0.17025
 C658 C 0.78871 -0.20164 -0.19776
 N659 N 0.86238 -0.13515 -0.15441
 N660 N 0.88127 -0.14778 -0.13144
 C661 C 0.90140 -0.12537 -0.11271
 C662 C 0.92468 -0.14436 -0.09033
 C663 C 0.94073 -0.12365 -0.06896
 C664 C 0.93342 -0.08325 -0.06933
 C665 C 0.91125 -0.06411 -0.09252
 C666 C 0.89535 -0.08503 -0.11411
 H667 H 0.78761 -0.15988 -0.23298
 H668 H 0.83137 -0.12292 -0.20849
 H669 H 0.84236 -0.20127 -0.13532
 H670 H 0.79967 -0.23802 -0.15895
 H671 H 0.92939 -0.17541 -0.08891
 H672 H 0.95779 -0.13932 -0.05156
 H673 H 0.90517 -0.03299 -0.09345
 H674 H 0.87717 -0.06972 -0.13108
 C675 C 0.81136 0.33579 0.29882
 C676 C 0.83143 0.35896 0.31575
 C677 C 0.85268 0.34390 0.34052
 C678 C 0.85489 0.30485 0.34744
 C679 C 0.83459 0.28193 0.33081
 C680 C 0.81189 0.29737 0.30677
 N681 N 0.86949 0.36892 0.35948
 N682 N 0.88982 0.35568 0.38161
 C683 C 0.90526 0.37914 0.40254
 C684 C 0.92882 0.36082 0.42501
 C685 C 0.94190 0.38215 0.44742
 C686 C 0.93144 0.42247 0.44793
 C687 C 0.90856 0.44104 0.42491
 C688 C 0.89551 0.41952 0.40234
 H689 H 0.79384 0.34840 0.28050
 H690 H 0.82941 0.38898 0.31012
 H691 H 0.87116 0.29231 0.36635
 H692 H 0.83579 0.25226 0.33721
 H693 H 0.93646 0.32974 0.42544
 H694 H 0.95972 0.36696 0.46466
 H695 H 0.90019 0.47208 0.42464
 H696 H 0.87717 0.43430 0.38523
 C697 C 0.29325 -0.16961 0.29659
 C698 C 0.31501 -0.14524 0.31065
 C699 C 0.34104 -0.15924 0.33323
 C700 C 0.34619 -0.19836 0.34076
 C701 C 0.32426 -0.22244 0.32703
 C702 C 0.29690 -0.20812 0.30534
 N703 N 0.35979 -0.13315 0.34970
 N704 N 0.38410 -0.14543 0.36988
 C705 C 0.40170 -0.12095 0.38863
 C706 C 0.42862 -0.13815 0.40953
 C707 C 0.44360 -0.11583 0.43034
 C708 C 0.43179 -0.07565 0.43071
 C709 C 0.40577 -0.05817 0.40902
 C710 C 0.39074 -0.08067 0.38813
 H711 H 0.27224 -0.15794 0.27998
 H712 H 0.31069 -0.11519 0.30459
 H713 H 0.36615 -0.21009 0.35799
 H714 H 0.32798 -0.25218 0.33389
 H715 H 0.43723 -0.16916 0.41017
 H716 H 0.46380 -0.13016 0.44657
 H717 H 0.39624 -0.02725 0.40870
 H718 H 0.36985 -0.06674 0.37221
 C719 C 0.31344 0.31986 -0.21040
 C720 C 0.33355 0.34584 -0.19650
 C721 C 0.35473 0.33534 -0.17075
 C722 C 0.35646 0.29824 -0.15948
 C723 C 0.33541 0.27298 -0.17255
 C724 C 0.31258 0.28366 -0.19773
 N725 N 0.37173 0.36303 -0.15472
 N726 N 0.39996 0.35185 -0.13725
 C727 C 0.41526 0.37689 -0.11757
 C728 C 0.45272 0.36456 -0.10625
 C729 C 0.46655 0.38492 -0.08358
 C730 C 0.44259 0.41752 -0.07116
 C731 C 0.40530 0.43059 -0.08307
 C732 C 0.39182 0.41058 -0.10635
 H733 H 0.29622 0.32947 -0.22958
 H734 H 0.33191 0.37443 -0.20545
 H735 H 0.37270 0.28930 -0.13968
 H736 H 0.33718 0.24486 -0.16273
 H737 H 0.47084 0.33838 -0.11446
 H738 H 0.49537 0.37408 -0.07486
 H739 H 0.38634 0.45573 -0.07399
 H740 H 0.36249 0.42023 -0.11451
 C741 C 1.16759 -0.22961 0.21908
 C742 C 1.14790 -0.21279 0.19445
 C743 C 1.15407 -0.17715 0.18439
 C744 C 1.18072 -0.15843 0.19915
 C745 C 1.20086 -0.17550 0.22375
 C746 C 1.19408 -0.21103 0.23411
 N747 N 1.13324 -0.16105 0.15898
 N748 N 1.13427 -0.12723 0.15006
 C749 C 1.11375 -0.11154 0.12438
 C750 C 1.11380 -0.07320 0.11725
 C751 C 1.09496 -0.05709 0.09204
 C752 C 1.07592 -0.07926 0.07326
 C753 C 1.07546 -0.11771 0.08059
 C754 C 1.09417 -0.13375 0.10603
 H755 H 1.16265 -0.25759 0.22602
 H756 H 1.12777 -0.22762 0.18310
 H757 H 1.18617 -0.13091 0.19158
 H758 H 1.22140 -0.16088 0.23482
 H759 H 1.12872 -0.05581 0.13121
 H760 H 1.09584 -0.02734 0.08704
 H761 H 1.06093 -0.13538 0.06658
 H762 H 1.09373 -0.16353 0.11114
 C763 C 1.17521 0.27399 0.72604
 C764 C 1.15416 0.29277 0.70268
 C765 C 1.16289 0.32710 0.69185
 C766 C 1.19321 0.34269 0.70470
 C767 C 1.21462 0.32368 0.72805
 C768 C 1.20560 0.28928 0.73905
 N769 N 1.14111 0.34471 0.66734
 N770 N 1.14503 0.37727 0.65723
 C771 C 1.12343 0.39370 0.63221
 C772 C 1.12662 0.43081 0.62341
 C773 C 1.10677 0.44725 0.59864
 C774 C 1.08362 0.42655 0.58203
 C775 C 1.08010 0.38941 0.59106
 C776 C 1.09976 0.37312 0.61600
 H777 H 1.16833 0.24690 0.73336
 H778 H 1.13116 0.28032 0.69276
 H779 H 1.20061 0.36916 0.69649
 H780 H 1.23806 0.33585 0.73755
 H781 H 1.14472 0.44695 0.63571
 H782 H 1.11003 0.47597 0.59224
 H783 H 1.06233 0.37291 0.57876
 H784 H 1.09683 0.34432 0.62237
 C785 C 0.64998 -0.18777 0.72604
 C786 C 0.63252 -0.16994 0.70101
 C787 C 0.65324 -0.14986 0.68223
 C788 C 0.69200 -0.14715 0.68899
 C789 C 0.71003 -0.16561 0.71400
 C790 C 0.68945 -0.18675 0.73294
 N791 N 0.63421 -0.13390 0.65607
 N792 N 0.64732 -0.10996 0.63972
 C793 C 0.62708 -0.09554 0.61353
 C794 C 0.63512 -0.06193 0.60074
 C795 C 0.61485 -0.04656 0.57578
 C796 C 0.58681 -0.06518 0.56275
 C797 C 0.57929 -0.09934 0.57524
 C798 C 0.59900 -0.11423 0.60061
 H799 H 0.63253 -0.20422 0.73875
 H800 H 0.60268 -0.17236 0.69592
 H801 H 0.70853 -0.13149 0.67469
 H802 H 0.73984 -0.16266 0.71833
 H803 H 0.65666 -0.04727 0.61042
 H804 H 0.62137 -0.02025 0.56652
 H805 H 0.55781 -0.11417 0.56566
 H806 H 0.59244 -0.14042 0.61002
 C807 C 0.73904 0.31421 0.20417
 C808 C 0.72118 0.33418 0.17992
 C809 C 0.68153 0.35113 0.18100
 C810 C 0.66028 0.34988 0.20729
 C811 C 0.67828 0.33057 0.23178
 C812 C 0.71760 0.31148 0.23025
 N813 N 0.66325 0.36774 0.15477
 N814 N 0.62621 0.37543 0.15195
 C815 C 0.60835 0.39109 0.12526
 C816 C 0.56827 0.39220 0.12118
 C817 C 0.55051 0.40546 0.09469
 C818 C 0.57265 0.41825 0.07201
 C819 C 0.61268 0.41794 0.07645
 C820 C 0.63044 0.40427 0.10275
 H821 H 0.76906 0.29947 0.20179
 H822 H 0.73784 0.33497 0.15974
 H823 H 0.62969 0.36331 0.20875
 H824 H 0.66109 0.32984 0.25168
 H825 H 0.55093 0.38214 0.13838
 H826 H 0.51954 0.40568 0.09193
 H827 H 0.63043 0.42786 0.05946
 H828 H 0.66142 0.40390 0.10544
 C829 C 0.84073 0.22513 0.21312
 C830 C 0.85944 0.20905 0.18727
 C831 C 0.84410 0.18133 0.17137
 C832 C 0.80917 0.17076 0.18111
 C833 C 0.79042 0.18692 0.20656
 C834 C 0.80634 0.21367 0.22328
 N835 N 0.86417 0.16380 0.14565
 N836 N 0.85445 0.13404 0.13431
 C837 C 0.87244 0.11503 0.10851
 C838 C 0.86348 0.07934 0.10101
 C839 C 0.88022 0.05956 0.07608
 C840 C 0.90581 0.07557 0.05786
 C841 C 0.91440 0.11175 0.06516
 C842 C 0.89806 0.13127 0.09047
 H843 H 0.85349 0.24589 0.22539
 H844 H 0.88623 0.21769 0.17992
 H845 H 0.79616 0.15004 0.16898
 H846 H 0.76307 0.17861 0.21287
 H847 H 0.84366 0.06665 0.11473
 H848 H 0.87308 0.03175 0.07105
 H849 H 0.93417 0.12466 0.05155
 H850 H 0.90521 0.15896 0.09583
 C851 C 0.76603 0.67745 0.72111
 C852 C 0.78660 0.65622 0.69830
 C853 C 0.81611 0.66995 0.68317
 C854 C 0.82509 0.70566 0.69114
 C855 C 0.80460 0.72714 0.71429
 C856 C 0.77465 0.71333 0.72994
 N857 N 0.83592 0.64677 0.65981
 N858 N 0.86147 0.65725 0.64304
 C859 C 0.87987 0.63256 0.61986
 C860 C 0.90446 0.64653 0.59970
 C861 C 0.92141 0.62353 0.57620
 C862 C 0.91421 0.58596 0.57262
 C863 C 0.89024 0.57166 0.59325
 C864 C 0.87309 0.59478 0.61658
 H865 H 0.74238 0.66569 0.73082
 H866 H 0.77910 0.62894 0.69208
 H867 H 0.84807 0.71677 0.67971
 H868 H 0.81352 0.75378 0.72015
 H869 H 0.91007 0.67548 0.60199
 H870 H 0.94007 0.63517 0.56079
 H871 H 0.88432 0.54279 0.59115
 H872 H 0.85437 0.58315 0.63193
 C873 C 0.27922 0.17055 0.71078
 C874 C 0.29429 0.15388 0.68438
 C875 C 0.32672 0.16500 0.67106
 C876 C 0.34376 0.19385 0.68423
 C877 C 0.32877 0.21052 0.71101
 C878 C 0.29681 0.19840 0.72481
 N879 N 0.34213 0.14522 0.64485
 N880 N 0.36881 0.15510 0.62889
 C881 C 0.38341 0.13287 0.60341
 C882 C 0.40688 0.14781 0.58293
 C883 C 0.42107 0.12658 0.55782
 C884 C 0.41250 0.08973 0.55315
 C885 C 0.38931 0.07464 0.57389
 C886 C 0.37467 0.09609 0.59867
 H887 H 0.25365 0.16155 0.72015
 H888 H 0.28076 0.13194 0.67427
 H889 H 0.36895 0.20284 0.67421
 H890 H 0.34272 0.23204 0.72127
 H891 H 0.41397 0.17601 0.58636
 H892 H 0.43920 0.13872 0.54230
 H893 H 0.38239 0.04627 0.57093
 H894 H 0.35685 0.08370 0.61426
 C895 C 0.32650 0.71612 0.21879
 C896 C 0.34653 0.70022 0.19351
 C897 C 0.33293 0.67153 0.17753
 C898 C 0.29886 0.65898 0.18696
 C899 C 0.27907 0.67458 0.21226
 C900 C 0.29291 0.70301 0.22857
 N901 N 0.35456 0.65498 0.15223
 N902 N 0.34242 0.63044 0.13591
 C903 C 0.36464 0.61310 0.11113
 C904 C 0.34839 0.58873 0.09254
 C905 C 0.36974 0.57103 0.06838
 C906 C 0.40786 0.57728 0.06273
 C907 C 0.42411 0.60160 0.08156
 C908 C 0.40268 0.61946 0.10545
 H909 H 0.33761 0.73806 0.23098
 H910 H 0.37278 0.71011 0.18642
 H911 H 0.28768 0.63696 0.17493
 H912 H 0.25265 0.66465 0.21889
 H913 H 0.31913 0.58348 0.09681
 H914 H 0.35664 0.55225 0.05432
 H915 H 0.45344 0.60697 0.07780
 H916 H 0.41597 0.63798 0.11958
   
