data_POSCAR
  _audit_creation_date              2014-09-24
  _audit_creation_method            'ToBaCCo'
  _symmetry_space_group_name_H-M    'P1'
  _symmetry_Int_Tables_number       1
  _symmetry_cell_setting            triclinic
  loop_
  _symmetry_equiv_pos_as_xyz
 x,y,z
_cell_length_a 19.6687
_cell_length_b 20.2425
_cell_length_c 35.7078
_cell_angle_alpha 86.677600
_cell_angle_beta 85.840400
_cell_angle_gamma 139.462900
loop_
  _atom_site_label
  _atom_site_type_symbol
  _atom_site_fract_x
  _atom_site_fract_y
  _atom_site_fract_z
B1 B 0.28210 0.26696 0.27895
 B2 B 0.21683 0.22568 0.28256
 B3 B 0.24910 0.29227 0.27832
 B4 B 0.30295 0.31348 0.27029
 B5 B 0.30227 0.24595 0.24370
 B6 B 0.25676 0.19522 0.24233
 B7 B 0.20875 0.22489 0.21776
 B8 B 0.28781 0.25979 0.22185
 B9 B 0.26136 0.21868 0.22870
 B10 B 0.19009 0.18284 0.23831
 B11 B 0.18320 0.25321 0.25313
 B12 B 0.22618 0.27634 0.26359
 B13 B 0.73711 0.77718 0.22558
 B14 B 0.72004 0.71871 0.22392
 B15 B 0.78234 0.73951 0.22492
 B16 B 0.80675 0.80130 0.22283
 B17 B 0.74018 0.80488 0.24835
 B18 B 0.69615 0.75989 0.25005
 B19 B 0.76124 0.71482 0.27651
 B20 B 0.78397 0.78029 0.27810
 B21 B 0.71822 0.76113 0.27305
 B22 B 0.69448 0.69353 0.27694
 B23 B 0.76107 0.70412 0.25489
 B24 B 0.80469 0.74216 0.25396
 B25 B 0.74256 0.22355 -0.22122
 B26 B 0.73266 0.29225 -0.24661
 B27 B 0.78506 0.26706 -0.22421
 B28 B 0.79543 0.22547 -0.23710
 B29 B 0.76374 0.20800 -0.26408
 B30 B 0.68579 0.23826 -0.25517
 B31 B 0.76611 0.27679 -0.28155
 B32 B 0.78079 0.21312 -0.26123
 B33 B 0.71971 0.22759 -0.27908
 B34 B 0.71645 0.27545 -0.26051
 B35 B 0.76356 0.31640 -0.25327
 B36 B 0.82154 0.26166 -0.24911
 B37 B 0.27525 0.76616 -0.28136
 B38 B 0.20682 0.77684 -0.25803
 B39 B 0.22457 0.72082 -0.27793
 B40 B 0.28271 0.71684 -0.26063
 B41 B 0.31696 0.76517 -0.25275
 B42 B 0.26299 0.81776 -0.25186
 B43 B 0.22481 0.73411 -0.21983
 B44 B 0.29355 0.73631 -0.24415
 B45 B 0.27603 0.78079 -0.22278
 B46 B 0.21256 0.77993 -0.24101
 B47 B 0.17719 0.73959 -0.24804
 B48 B 0.23724 0.68667 -0.25584
 B49 B 1.22350 1.25717 0.77787
 B50 B 1.28530 1.27901 0.77669
 B51 B 1.26148 1.22076 0.77688
 B52 B 1.19844 1.20207 0.78010
 B53 B 1.19236 1.25358 0.75033
 B54 B 1.24294 1.29721 0.75054
 B55 B 1.28348 1.25762 0.71817
 B56 B 1.22007 1.22315 0.72159
 B57 B 1.23985 1.28212 0.72391
 B58 B 1.30376 1.30625 0.72567
 B59 B 1.30380 1.24299 0.74831
 B60 B 1.26028 1.19788 0.75412
 B61 B 0.79150 0.74820 0.77107
 B62 B 0.72250 0.71504 0.78085
 B63 B 0.74455 0.79155 0.76733
 B64 B 0.80717 0.81275 0.76463
 B65 B 0.80566 0.74214 0.74764
 B66 B 0.75677 0.69541 0.74859
 B67 B 0.70408 0.75198 0.73740
 B68 B 0.78056 0.78154 0.72069
 B69 B 0.75139 0.70317 0.73279
 B70 B 0.69154 0.68394 0.73504
 B71 B 0.69553 0.75609 0.75385
 B72 B 0.74463 0.80238 0.75030
 B73 B 1.21387 0.72939 0.22219
 B74 B 1.25785 0.69757 0.24776
 B75 B 1.25907 0.78157 0.21954
 B76 B 1.22039 0.79260 0.23624
 B77 B 1.18634 0.74084 0.24519
 B78 B 1.24672 0.70602 0.23607
 B79 B 1.27939 0.76737 0.27729
 B80 B 1.23207 0.80000 0.25344
 B81 B 1.23957 0.72325 0.27918
 B82 B 1.28706 0.72877 0.26525
 B83 B 1.31144 0.75509 0.26014
 B84 B 1.25880 0.82270 0.24500
 B85 B 0.77761 1.25559 0.21982
 B86 B 0.69307 1.25895 0.24482
 B87 B 0.72646 1.21323 0.22262
 B88 B 0.79156 1.21632 0.23613
 B89 B 0.81673 1.26382 0.24617
 B90 B 0.76165 1.31134 0.25003
 B91 B 0.72402 1.23624 0.28132
 B92 B 0.79396 1.24143 0.25800
 B93 B 0.77215 1.27996 0.27711
 B94 B 0.70770 1.27409 0.26265
 B95 B 0.67644 1.23737 0.25242
 B96 B 0.73754 1.17752 0.24377
 O97 O 0.46858 1.06221 0.01768
 O98 O 0.53395 0.89301 0.02646
 O99 O 0.40277 0.93707 0.03154
 O100 O 0.62306 1.04337 0.01065
 O101 O 0.44781 0.87827 0.03717
 O102 O 0.54689 1.07379 0.01320
 O103 O 0.58143 0.93493 0.01402
 O104 O 0.43424 1.02463 0.03946
 C105 C 0.43351 1.06713 0.04988
 C106 C 0.56863 0.92565 0.05007
 C107 C 0.42940 0.91492 0.05152
 C108 C 0.57389 1.06528 0.03917
 O109 O 0.54022 1.08348 -0.01752
 O110 O 0.45048 0.89128 -0.04546
 O111 O 0.41409 1.00178 -0.03138
 O112 O 0.58110 0.94517 -0.02815
 O113 O 0.53187 0.88958 -0.03857
 O114 O 0.47034 1.05791 -0.01966
 O115 O 0.61984 1.01128 -0.02272
 O116 O 0.40097 0.93520 -0.03630
 Co117 Co 0.44239 0.82741 -0.00212
 Co118 Co 0.45329 0.68641 -0.00669
 Co119 Co 0.37078 0.76030 -0.00040
 Co120 Co 0.52934 0.75730 -0.00431
 O121 O 0.51447 0.91394 -0.00657
 C122 C 0.58405 1.07197 -0.04877
 C123 C 0.43055 0.92317 -0.05905
 C124 C 0.42842 1.06605 -0.04712
 C125 C 0.56635 0.92431 -0.06890
 O126 O 0.96788 0.56205 0.52045
 O127 O 1.03506 0.39340 0.52867
 O128 O 0.90352 0.43673 0.52787
 O129 O 1.11802 0.54552 0.52210
 O130 O 0.95705 0.37783 0.53943
 O131 O 1.05621 0.57353 0.51318
 O132 O 1.08551 0.43329 0.51734
 O133 O 0.93600 0.52945 0.53008
 C134 C 0.93522 0.57406 0.55167
 C135 C 1.07875 0.43143 0.55770
 C136 C 0.93014 0.41470 0.55060
 C137 C 1.06821 0.56851 0.54869
 O138 O 1.04257 0.57937 0.48144
 O139 O 0.95629 0.38910 0.45401
 O140 O 0.91415 0.50464 0.47278
 O141 O 1.08414 0.44371 0.47171
 O142 O 1.02715 0.39583 0.45913
 O143 O 0.96950 0.55978 0.47466
 O144 O 1.12509 0.51075 0.47856
 O145 O 0.89896 0.43049 0.47282
 Co146 Co 0.94328 0.32652 0.49840
 Co147 Co 0.95372 0.18625 0.49363
 Co148 Co 0.87103 0.25992 0.49898
 Co149 Co 1.02984 0.25685 0.49777
 O150 O 1.01557 0.41248 0.49242
 C151 C 1.08496 0.57045 0.45239
 C152 C 0.93359 0.42067 0.44377
 C153 C 0.92876 0.57175 0.45222
 C154 C 1.08099 0.43365 0.43049
 O155 O 1.03838 0.46272 0.05377
 O156 O 1.01293 0.53914 -0.08071
 O157 O 1.01762 0.41566 -0.03571
 O158 O 1.02119 0.58320 0.00249
 O159 O 1.05709 0.45239 -0.11735
 O160 O 1.02797 0.53727 0.04959
 O161 O 1.01971 0.58305 -0.03561
 O162 O 1.01930 0.41070 0.01219
 C163 C 1.05810 0.43767 0.05299
 C164 C 1.06860 0.57865 -0.06259
 C165 C 1.04182 0.41562 -0.05722
 C166 C 1.07601 0.58596 0.05160
 O167 O 0.93129 0.54063 0.04022
 O168 O 0.96701 0.46681 -0.09016
 O169 O 0.94202 0.39845 0.02052
 O170 O 0.95725 0.57730 -0.03549
 O171 O 0.94957 0.54894 -0.07574
 O172 O 0.93993 0.46336 0.04201
 O173 O 0.95151 0.57359 0.00546
 O174 O 0.94221 0.41929 -0.04051
 Co175 Co 0.83282 0.44167 -0.02013
 Co176 Co 0.87013 0.47446 -0.18156
 Co177 Co 0.81201 0.33137 -0.08096
 Co178 Co 0.82046 0.49465 -0.08341
 O179 O 0.94418 0.49905 -0.03087
 C180 C 0.92774 0.57439 0.04519
 C181 C 0.92051 0.40363 -0.05960
 C182 C 0.91346 0.42739 0.02782
 C183 C 0.92909 0.57137 -0.06581
 O184 O 0.54250 0.96159 0.55196
 O185 O 0.51261 1.03816 0.42074
 O186 O 0.52062 0.91574 0.46252
 O187 O 0.50673 1.07695 0.51225
 O188 O 0.54784 0.95189 0.40759
 O189 O 0.52739 1.03685 0.55701
 O190 O 0.51820 1.08204 0.45930
 O191 O 0.52059 0.90916 0.50812
 C192 C 0.55803 0.92972 0.54859
 C193 C 0.56801 1.07730 0.43680
 C194 C 0.55371 0.91835 0.42745
 C195 C 0.57147 1.08547 0.54650
 O196 O 0.43942 1.05455 0.56906
 O197 O 0.46542 0.96720 0.40774
 O198 O 0.44478 0.89625 0.51955
 O199 O 0.45617 1.07750 0.46152
 O200 O 0.44944 1.04094 0.41232
 O201 O 0.46218 0.94615 0.54160
 O202 O 0.45282 1.07213 0.50611
 O203 O 0.45278 0.91438 0.45795
 Co204 Co 0.33748 0.93838 0.48457
 Co205 Co 0.35373 0.97065 0.31301
 Co206 Co 0.31331 0.82852 0.41750
 Co207 Co 0.32322 1.00012 0.39996
 O208 O 0.44372 0.99943 0.46877
 C209 C 0.42878 1.07510 0.55806
 C210 C 0.42292 0.90178 0.44005
 C211 C 0.41867 0.92104 0.53072
 C212 C 0.42740 1.07416 0.43310
 O213 O 1.07158 1.02791 0.47358
 O214 O 0.89740 1.02909 0.53004
 O215 O 0.94799 1.04376 0.44876
 O216 O 1.00856 1.01552 0.61072
 O217 O 0.89376 1.02755 0.49237
 O218 O 1.06832 1.03334 0.54068
 O219 O 0.95360 1.02355 0.61850
 O220 O 1.02614 1.02245 0.44117
 C221 C 1.07409 1.06570 0.45777
 C222 C 0.94199 1.07624 0.55936
 C223 C 0.93031 1.06566 0.45201
 C224 C 1.06734 1.07696 0.55061
 O225 O 1.06635 0.95977 0.54279
 O226 O 0.87095 0.97189 0.50350
 O227 O 1.01566 0.93712 0.44103
 O228 O 0.97157 0.98574 0.60374
 O229 O 0.89916 0.94950 0.53416
 O230 O 1.07307 0.95721 0.47798
 O231 O 1.01609 0.98078 0.61293
 O232 O 0.95344 0.94719 0.43895
 Co233 Co 0.84588 0.82498 0.55421
 Co234 Co 0.69357 0.87556 0.58542
 Co235 Co 0.77557 0.85141 0.51505
 Co236 Co 0.79955 0.91871 0.70206
 O237 O 0.92530 0.98425 0.52672
 C238 C 1.06195 0.93023 0.56568
 C239 C 0.90530 0.92627 0.47593
 C240 C 1.05419 0.91901 0.44029
 C241 C 0.93429 0.93022 0.57069
 O242 O 0.55677 0.53602 -0.02463
 O243 O 0.39358 0.52513 0.04235
 O244 O 0.44735 0.54629 -0.05228
 O245 O 0.52044 0.51593 0.10138
 O246 O 0.39341 0.52735 -0.00801
 O247 O 0.56239 0.53408 0.03902
 O248 O 0.44045 0.55032 0.07171
 O249 O 0.53333 0.52269 -0.05894
 C250 C 0.56135 0.56261 -0.03585
 C251 C 0.42873 0.56565 0.06204
 C252 C 0.43031 0.56651 -0.04861
 C253 C 0.57339 0.57550 0.04997
 O254 O 0.56525 0.45646 0.04021
 O255 O 0.37022 0.47051 0.00078
 O256 O 0.52063 0.44636 -0.05978
 O257 O 0.44397 0.47584 0.08665
 O258 O 0.39315 0.45020 0.04657
 O259 O 0.56500 0.43784 -0.00973
 O260 O 0.52451 0.45498 0.10307
 O261 O 0.45713 0.45110 -0.06112
 Co262 Co 0.32692 0.33311 0.05700
 Co263 Co 0.19774 0.37073 0.09740
 Co264 Co 0.27695 0.35087 0.01515
 Co265 Co 0.27144 0.38034 0.13014
 O266 O 0.42937 0.48159 0.02068
 C267 C 0.56312 0.42684 0.06881
 C268 C 0.40220 0.42424 -0.02755
 C269 C 0.55536 0.41909 -0.05937
 C270 C 0.42042 0.43929 0.06948
 C271 C 0.31958 1.15070 0.14383
 C272 C 0.36204 1.15952 0.16286
 C273 C 0.38340 1.18057 0.19941
 C274 C 0.36112 1.19645 0.20607
 C275 C 0.30103 1.18495 0.21492
 C276 C 0.28212 1.14858 0.16079
 O277 O 0.31086 1.12897 0.11490
 C278 C 0.34995 1.11976 0.11048
 C279 C 0.38471 1.13677 0.13857
 C280 C 0.43122 1.13051 0.14037
 C281 C 0.44541 1.10326 0.11232
 C282 C 0.41706 1.08381 0.08134
 C283 C 0.36883 1.09010 0.08037
 H284 H 0.40831 1.19068 0.20221
 H285 H 0.37009 1.23797 0.20010
 H286 H 0.25582 1.15811 0.15472
 H287 H 0.45036 1.14752 0.15792
 H288 H 0.46485 1.10550 0.11438
 H289 H 0.34755 1.07510 0.06483
 C290 C 0.85255 0.65121 0.67824
 C291 C 0.83862 0.65856 0.63789
 C292 C 0.80708 0.68193 0.62635
 C293 C 0.78183 0.68321 0.64728
 C294 C 0.78883 0.66450 0.69460
 C295 C 0.83754 0.66570 0.70416
 O296 O 0.88343 0.62403 0.67894
 C297 C 0.88754 0.61608 0.64170
 C298 C 0.86039 0.63685 0.61659
 C299 C 0.86042 0.63177 0.57605
 C300 C 0.88891 0.60456 0.55789
 C301 C 0.91599 0.58467 0.58319
 C302 C 0.91689 0.58825 0.62452
 H303 H 0.79625 0.69032 0.60077
 H304 H 0.75830 0.71858 0.64415
 H305 H 0.84455 0.66750 0.72718
 H306 H 0.84098 0.64625 0.55591
 H307 H 0.88533 0.60399 0.52346
 H308 H 0.93703 0.57287 0.64357
 C309 C 0.62826 0.83645 0.17452
 C310 C 0.66851 0.85420 0.14611
 C311 C 0.71752 0.85109 0.14214
 C312 C 0.73641 0.83982 0.17222
 C313 C 0.70490 0.82027 0.21122
 C314 C 0.64451 0.81453 0.20577
 O315 O 0.59291 0.84233 0.16817
 C316 C 0.59998 0.86794 0.13904
 C317 C 0.64679 0.87634 0.12227
 C318 C 0.67070 0.89967 0.08368
 C319 C 0.63422 0.91983 0.06889
 C320 C 0.58670 0.90507 0.07552
 C321 C 0.56837 0.88639 0.12096
 H322 H 0.73796 0.86805 0.12744
 H323 H 0.76060 0.83126 0.16789
 H324 H 0.63247 0.78676 0.22004
 H325 H 0.69470 0.91238 0.09069
 H326 H 0.66352 0.93680 0.05735
 H327 H 0.54513 0.87448 0.12078
 C328 C 1.15155 0.32227 0.64390
 C329 C 1.15677 0.36354 0.66425
 C330 C 1.17961 0.37794 0.69967
 C331 C 1.19685 0.35328 0.70872
 C332 C 1.20654 0.31984 0.70526
 C333 C 1.17412 0.30713 0.65478
 O334 O 1.13064 0.31469 0.61139
 C335 C 1.12059 0.35197 0.60958
 C336 C 1.13476 0.38501 0.63968
 C337 C 1.12721 0.42906 0.64238
 C338 C 1.10120 0.44128 0.61313
 C339 C 1.08725 0.41286 0.58280
 C340 C 1.09303 0.36972 0.58066
 H341 H 1.18340 0.40710 0.70461
 H342 H 1.21438 0.36339 0.72537
 H343 H 1.16787 0.28401 0.64589
 H344 H 1.14184 0.44806 0.66246
 H345 H 1.09933 0.46124 0.61389
 H346 H 1.08256 0.34503 0.56107
 C347 C 0.68747 1.14189 -0.15166
 C348 C 0.64365 1.16020 -0.14474
 C349 C 0.61962 1.18923 -0.17592
 C350 C 0.64054 1.20231 -0.18653
 C351 C 0.68223 1.18187 -0.20413
 C352 C 0.71469 1.14942 -0.17479
 O353 O 0.67899 1.10353 -0.13699
 C354 C 0.67632 1.11749 -0.11016
 C355 C 0.62487 1.13998 -0.12739
 C356 C 0.58501 1.13369 -0.11923
 C357 C 0.56296 1.09801 -0.08307
 C358 C 0.59972 1.09323 -0.06560
 C359 C 0.62794 1.07446 -0.08341
 H360 H 0.59214 1.21151 -0.16634
 H361 H 0.62956 1.21127 -0.20243
 H362 H 0.74204 1.13845 -0.18486
 H363 H 0.56657 1.17629 -0.12121
 H364 H 0.53668 1.10630 -0.08462
 H365 H 0.63922 1.05010 -0.08943
 C366 C 1.18495 0.64374 0.34832
 C367 C 1.14511 0.64851 0.35135
 C368 C 1.11667 0.68660 0.32346
 C369 C 1.12496 0.69248 0.31124
 C370 C 1.16825 0.69259 0.29446
 C371 C 1.21463 0.65076 0.32648
 O372 O 1.17795 0.60510 0.36292
 C373 C 1.17504 0.61842 0.39144
 C374 C 1.12397 0.63725 0.37183
 C375 C 1.07512 0.63744 0.38136
 C376 C 1.05206 0.60000 0.40325
 C377 C 1.10074 0.58868 0.43297
 C378 C 1.12758 0.57492 0.41556
 H379 H 1.09685 0.71137 0.33233
 H380 H 1.11611 0.71788 0.29160
 H381 H 1.24286 0.63862 0.31581
 H382 H 1.05505 0.66714 0.37318
 H383 H 1.03627 0.61298 0.41291
 H384 H 1.13846 0.55146 0.41000
 C385 C 0.35689 0.82352 -0.15702
 C386 C 0.33185 0.86138 -0.14624
 C387 C 0.29042 0.87190 -0.16653
 C388 C 0.27704 0.85643 -0.18315
 C389 C 0.31662 0.81890 -0.19994
 C390 C 0.34253 0.79985 -0.17837
 O391 O 0.39465 0.82342 -0.13726
 C392 C 0.39436 0.85885 -0.12220
 C393 C 0.35624 0.88339 -0.13060
 C394 C 0.34848 0.92358 -0.11210
 C395 C 0.37806 0.94034 -0.09134
 C396 C 0.41748 0.91694 -0.07846
 C397 C 0.42521 0.87568 -0.10099
 H398 H 0.27614 0.89595 -0.15946
 H399 H 0.24291 0.85472 -0.19897
 H400 H 0.35274 0.78440 -0.18270
 H401 H 0.32087 0.93986 -0.12029
 H402 H 0.37336 0.96446 -0.08267
 H403 H 0.44893 0.86059 -0.09465
 C404 C 0.85950 0.32506 0.34045
 C405 C 0.83103 0.35934 0.35460
 C406 C 0.78661 0.36875 0.34180
 C407 C 0.76876 0.35328 0.32839
 C408 C 0.80890 0.31909 0.29934
 C409 C 0.84562 0.30430 0.32105
 O410 O 0.89862 0.32693 0.35750
 C411 C 0.89621 0.36088 0.37674
 C412 C 0.85676 0.38083 0.37224
 C413 C 0.84613 0.41982 0.39559
 C414 C 0.87684 0.43509 0.41453
 C415 C 0.91904 0.41624 0.42378
 C416 C 0.92944 0.37747 0.39755
 H417 H 0.76524 0.39471 0.34999
 H418 H 0.72909 0.35164 0.31553
 H419 H 0.85899 0.29470 0.31198
 H420 H 0.81484 0.43784 0.39049
 H421 H 0.86730 0.45099 0.42288
 H422 H 0.95583 0.36496 0.39966
 C423 C 1.16298 0.36415 0.17348
 C424 C 1.14486 0.33437 0.14551
 C425 C 1.15006 0.28410 0.14334
 C426 C 1.17995 0.26760 0.16632
 C427 C 1.17712 0.29129 0.19107
 C428 C 1.17998 0.35029 0.19940
 O429 O 1.15194 0.40287 0.17016
 C430 C 1.12885 0.39750 0.13785
 C431 C 1.11923 0.35796 0.12650
 C432 C 1.09772 0.34209 0.08358
 C433 C 1.08013 0.37420 0.06747
 C434 C 1.08173 0.41816 0.08316
 C435 C 1.10572 0.43240 0.12107
 H436 H 1.14210 0.26759 0.12252
 H437 H 1.18399 0.23958 0.16140
 H438 H 1.19807 0.36683 0.21744
 H439 H 1.09668 0.31277 0.07653
 H440 H 1.06650 0.35871 0.04113
 H441 H 1.11062 0.45955 0.12848
 C442 C 0.64669 0.82200 0.64628
 C443 C 0.65559 0.86304 0.66440
 C444 C 0.67746 0.88106 0.70086
 C445 C 0.67982 0.85546 0.72005
 C446 C 0.66187 0.79408 0.71876
 C447 C 0.64078 0.78142 0.66199
 O448 O 0.62746 0.81244 0.62544
 C449 C 0.61491 0.85414 0.61820
 C450 C 0.63467 0.88557 0.64035
 C451 C 0.62703 0.92942 0.64247
 C452 C 0.60089 0.94562 0.61503
 C453 C 0.58522 0.91658 0.58106
 C454 C 0.59184 0.87112 0.58063
 H455 H 0.68419 0.90707 0.70349
 H456 H 0.71100 0.86815 0.73490
 H457 H 0.66265 0.75581 0.65103
 H458 H 0.64180 0.94817 0.66266
 H459 H 0.60105 0.96407 0.61859
 H460 H 0.57742 0.85237 0.56004
 C461 C 1.13810 0.68248 -0.15977
 C462 C 1.16287 0.64110 -0.14631
 C463 C 1.18684 0.61993 -0.17242
 C464 C 1.19914 0.63743 -0.18666
 C465 C 1.17471 0.68192 -0.20401
 C466 C 1.14062 0.70792 -0.17958
 O467 O 1.10592 0.67774 -0.14400
 C468 C 1.10686 0.64340 -0.12395
 C469 C 1.14211 0.61813 -0.12735
 C470 C 1.15346 0.58619 -0.10591
 C471 C 1.14073 0.57463 -0.07501
 C472 C 1.08747 0.59207 -0.06783
 C473 C 1.08283 0.66490 -0.10356
 H474 H 1.20961 0.59305 -0.16850
 H475 H 1.21005 0.61983 -0.20805
 H476 H 1.13478 0.74020 -0.18817
 H477 H 1.17878 0.56166 -0.11682
 H478 H 1.13071 0.54534 -0.07164
 H479 H 1.05315 0.65291 -0.10014
 C480 C 0.63822 1.18168 0.34377
 C481 C 0.66226 1.14248 0.36064
 C482 C 0.68526 1.12013 0.32826
 C483 C 0.69697 1.13460 0.31638
 C484 C 0.68351 1.16359 0.30264
 C485 C 0.64138 1.20533 0.32286
 O486 O 0.60637 1.17785 0.35976
 C487 C 0.60748 1.14311 0.37820
 C488 C 0.64191 1.11731 0.37421
 C489 C 0.65303 1.08825 0.39073
 C490 C 0.64176 1.07597 0.43054
 C491 C 0.58623 1.09188 0.43297
 C492 C 0.58442 1.16790 0.40212
 H493 H 0.70861 1.09312 0.33287
 H494 H 0.71410 1.11374 0.29177
 H495 H 0.63335 1.23898 0.31371
 H496 H 0.67785 1.06218 0.38422
 H497 H 0.63389 1.04556 0.43618
 H498 H 0.55530 1.15446 0.40705
 C499 C 0.85575 0.67930 0.14563
 C500 C 0.84145 0.63711 0.16563
 C501 C 0.82196 0.61141 0.20653
 C502 C 0.80798 0.64707 0.21276
 C503 C 0.82012 0.70347 0.21454
 C504 C 0.86099 0.72307 0.16681
 O505 O 0.87107 0.68954 0.11455
 C506 C 0.87795 0.65495 0.10901
 C507 C 0.86391 0.61818 0.14343
 C508 C 0.87128 0.56909 0.14712
 C509 C 0.89214 0.56253 0.11788
 C510 C 0.91068 0.58871 0.07970
 C511 C 0.90807 0.63485 0.07564
 H512 H 0.80614 0.59277 0.19806
 H513 H 0.77678 0.63596 0.22487
 H514 H 0.84422 0.74515 0.15944
 H515 H 0.85144 0.54962 0.16077
 H516 H 0.88095 0.54695 0.11240
 H517 H 0.92449 0.65490 0.06317
 C518 C 0.36134 1.16007 0.67592
 C519 C 0.33589 1.14670 0.63830
 C520 C 0.30858 1.16242 0.62655
 C521 C 0.31664 1.21030 0.63453
 C522 C 0.35106 1.22714 0.68287
 C523 C 0.35442 1.18207 0.69985
 O524 O 0.40044 1.14542 0.67359
 C525 C 0.39636 1.12680 0.64002
 C526 C 0.35755 1.13085 0.61964
 C527 C 0.34444 1.11040 0.57966
 C528 C 0.37159 1.08919 0.56244
 C529 C 0.41420 1.08587 0.58441
 C530 C 0.42656 1.10387 0.62382
 H531 H 0.28406 1.15177 0.61064
 H532 H 0.28948 1.21713 0.64885
 H533 H 0.36248 1.19721 0.72048
 H534 H 0.31628 1.10800 0.56931
 H535 H 0.35965 1.07491 0.52914
 H536 H 0.45410 1.10349 0.63578
 C537 C 0.86272 0.31580 -0.16154
 C538 C 0.83479 0.35335 -0.15129
 C539 C 0.80064 0.35239 -0.17145
 C540 C 0.79365 0.34680 -0.18985
 C541 C 0.83038 0.31689 -0.20508
 C542 C 0.85746 0.29118 -0.17839
 O543 O 0.89608 0.31880 -0.14157
 C544 C 0.89468 0.35725 -0.12698
 C545 C 0.85057 0.38061 -0.13842
 C546 C 0.84344 0.41806 -0.11923
 C547 C 0.85641 0.43392 -0.10676
 C548 C 0.93487 0.41729 -0.09822
 C549 C 0.91800 0.35631 -0.11012
 H550 H 0.77473 0.39410 -0.16512
 H551 H 0.78095 0.34777 -0.19612
 H552 H 0.86139 0.26101 -0.18500
 H553 H 0.82219 0.43028 -0.12460
 H554 H 0.85799 0.43988 -0.08529
 H555 H 0.94328 0.35012 -0.09328
 C556 C 0.36483 0.81760 0.33573
 C557 C 0.33645 0.85182 0.34771
 C558 C 0.30877 0.85903 0.32727
 C559 C 0.29337 0.84795 0.30903
 C560 C 0.32568 0.80976 0.29523
 C561 C 0.36078 0.79078 0.32114
 O562 O 0.39830 0.82402 0.35174
 C563 C 0.39664 0.85937 0.37165
 C564 C 0.34978 0.87781 0.35980
 C565 C 0.33994 0.91899 0.38293
 C566 C 0.35104 0.92961 0.39065
 C567 C 0.43417 0.92207 0.39917
 C568 C 0.42773 0.86107 0.38487
 H569 H 0.27717 0.89560 0.34149
 H570 H 0.27193 0.84406 0.30767
 H571 H 0.36836 0.76416 0.31211
 H572 H 0.31923 0.92830 0.38668
 H573 H 0.35751 0.94095 0.44030
 H574 H 0.45193 0.85332 0.39051
 C575 C 1.13908 1.15503 0.34769
 C576 C 1.15944 1.13924 0.36328
 C577 C 1.18810 1.11271 0.32724
 C578 C 1.19549 1.11780 0.30507
 C579 C 1.19190 1.16635 0.30554
 C580 C 1.12709 1.16665 0.32301
 O581 O 1.10401 1.15461 0.36019
 C582 C 1.10794 1.14015 0.38655
 C583 C 1.14727 1.12550 0.38040
 C584 C 1.15573 1.07522 0.39481
 C585 C 1.15417 1.07454 0.41886
 C586 C 1.07957 1.08703 0.44112
 C587 C 1.07786 1.13845 0.40871
 H588 H 1.21609 1.09445 0.33007
 H589 H 1.22886 1.13083 0.28862
 H590 H 1.10728 1.20476 0.30737
 H591 H 1.18085 1.06109 0.37726
 H592 H 1.13197 1.04561 0.41691
 H593 H 1.05423 1.14046 0.41087
 C594 C 0.63352 0.67677 -0.15289
 C595 C 0.66423 0.64391 -0.13048
 C596 C 0.69911 0.63586 -0.15196
 C597 C 0.70667 0.64321 -0.17218
 C598 C 0.68889 0.67932 -0.19005
 C599 C 0.63969 0.68137 -0.17661
 O600 O 0.59819 0.67473 -0.14184
 C601 C 0.60069 0.63997 -0.11204
 C602 C 0.65070 0.62485 -0.10707
 C603 C 0.68714 0.57863 -0.08579
 C604 C 0.68032 0.55731 -0.04600
 C605 C 0.56950 0.59089 -0.03910
 C606 C 0.57482 0.63761 -0.08904
 H607 H 0.72402 0.60783 -0.14781
 H608 H 0.73330 0.66547 -0.17889
 H609 H 0.62233 0.70012 -0.19054
 H610 H 0.68393 0.57290 -0.10403
 H611 H 0.64406 0.55130 -0.05908
 H612 H 0.55178 0.63009 -0.09412
 C613 C 0.81984 1.14887 0.64571
 C614 C 0.86586 1.15872 0.66362
 C615 C 0.88643 1.18435 0.70042
 C616 C 0.86042 1.18683 0.71341
 C617 C 0.81391 1.18447 0.71605
 C618 C 0.80238 1.16534 0.65816
 O619 O 0.80939 1.12580 0.61615
 C620 C 0.84482 1.12042 0.60991
 C621 C 0.88537 1.13742 0.63723
 C622 C 0.93233 1.13442 0.63905
 C623 C 0.94643 1.11558 0.61216
 C624 C 0.91492 1.08648 0.58224
 C625 C 0.86628 1.08865 0.58007
 H626 H 0.91358 1.19408 0.68873
 H627 H 0.88031 1.21236 0.72913
 H628 H 0.77630 1.15811 0.65386
 H629 H 0.95336 1.15193 0.65417
 H630 H 0.96751 1.11926 0.61432
 H631 H 0.84581 1.07097 0.56653
 C632 C 0.32154 0.65068 0.14416
 C633 C 0.36467 0.65656 0.16166
 C634 C 0.38140 0.67946 0.19973
 C635 C 0.35590 0.68338 0.21815
 C636 C 0.31121 0.67650 0.21351
 C637 C 0.30647 0.66979 0.15477
 O638 O 0.31269 0.62963 0.11216
 C639 C 0.34861 0.62163 0.10812
 C640 C 0.38532 0.63526 0.13839
 C641 C 0.42945 0.63051 0.14232
 C642 C 0.44334 0.61132 0.11770
 C643 C 0.41497 0.58595 0.08297
 C644 C 0.36792 0.59298 0.08017
 H645 H 0.41288 0.68420 0.20186
 H646 H 0.36634 0.70251 0.23981
 H647 H 0.28329 0.66680 0.14761
 H648 H 0.45019 0.64432 0.16091
 H649 H 0.46216 0.60875 0.11982
 H650 H 0.34764 0.57824 0.06125
 C651 C 1.14745 0.82310 0.64243
 C652 C 1.15639 0.86150 0.66797
 C653 C 1.17941 0.87827 0.70095
 C654 C 1.18246 0.85739 0.72098
 C655 C 1.16943 0.80703 0.72337
 C656 C 1.15015 0.79636 0.65383
 O657 O 1.13020 0.81494 0.61056
 C658 C 1.11915 0.85169 0.60809
 C659 C 1.12417 0.88171 0.65209
 C660 C 1.12274 0.93006 0.65021
 C661 C 1.10142 0.93763 0.62889
 C662 C 1.07442 0.90664 0.59979
 C663 C 1.09062 0.86819 0.58257
 H664 H 1.18372 0.90821 0.70287
 H665 H 1.20668 0.87441 0.73952
 H666 H 1.16638 0.78297 0.64388
 H667 H 1.14245 0.94787 0.66538
 H668 H 1.10318 0.95833 0.62643
 H669 H 1.07759 0.85211 0.55894
 C670 C 0.65193 0.32192 0.14392
 C671 C 0.65645 0.36316 0.16237
 C672 C 0.67898 0.37906 0.19957
 C673 C 0.68272 0.35525 0.21643
 C674 C 0.67579 0.31434 0.21163
 C675 C 0.67299 0.30579 0.15544
 O676 O 0.63104 0.31424 0.11152
 C677 C 0.61905 0.35179 0.10953
 C678 C 0.62869 0.37864 0.15055
 C679 C 0.62224 0.42969 0.15263
 C680 C 0.60009 0.44083 0.13173
 C681 C 0.56840 0.40949 0.09923
 C682 C 0.59010 0.36855 0.08309
 H683 H 0.68190 0.41020 0.20453
 H684 H 0.69869 0.36716 0.24106
 H685 H 0.66907 0.28251 0.14603
 H686 H 0.64230 0.44812 0.16554
 H687 H 0.60241 0.46609 0.13074
 H688 H 0.57820 0.35134 0.05862
 C689 C 0.87630 0.83803 0.33808
 C690 C 0.83250 0.85939 0.35830
 C691 C 0.79999 0.86857 0.33955
 C692 C 0.80097 0.86000 0.31484
 C693 C 0.81113 0.81328 0.30580
 C694 C 0.85901 0.81909 0.31587
 O695 O 0.90094 0.83179 0.35681
 C696 C 0.89657 0.86086 0.37625
 C697 C 0.85582 0.88064 0.37025
 C698 C 0.84441 0.91990 0.39339
 C699 C 0.86251 0.93481 0.40819
 C700 C 0.90377 0.91446 0.42188
 C701 C 0.92890 0.87316 0.39563
 H702 H 0.77731 0.89183 0.34481
 H703 H 0.77880 0.85034 0.31054
 H704 H 0.86912 0.79442 0.31264
 H705 H 0.81414 0.93384 0.38400
 H706 H 0.85563 0.95116 0.42252
 H707 H 0.95496 0.86438 0.39905
 C708 C 0.36737 0.32227 -0.15591
 C709 C 0.33840 0.35949 -0.13689
 C710 C 0.29649 0.36178 -0.15786
 C711 C 0.28182 0.34465 -0.17050
 C712 C 0.31016 0.30971 -0.18801
 C713 C 0.35803 0.30877 -0.17886
 O714 O 0.40145 0.32356 -0.14094
 C715 C 0.39802 0.35966 -0.12082
 C716 C 0.36092 0.37847 -0.12533
 C717 C 0.34539 0.41969 -0.10499
 C718 C 0.36181 0.43561 -0.08974
 C719 C 0.40270 0.41501 -0.07354
 C720 C 0.43093 0.37150 -0.10139
 H721 H 0.27974 0.38481 -0.15315
 H722 H 0.26859 0.31592 -0.17670
 H723 H 0.36585 0.28954 -0.18683
 H724 H 0.31372 0.43441 -0.11577
 H725 H 0.35549 0.45131 -0.07737
 H726 H 0.45500 0.36459 -0.09893
 C727 C 1.13519 0.29880 -0.14310
 C728 C 1.16333 0.36207 -0.15309
 C729 C 1.19888 0.40296 -0.19160
 C730 C 1.18571 0.36243 -0.21638
 C731 C 1.18608 0.30162 -0.21871
 C732 C 1.14012 0.26512 -0.18523
 O733 O 1.09292 0.30600 -0.13746
 C734 C 1.08908 0.35176 -0.13093
 C735 C 1.14858 0.37849 -0.13156
 C736 C 1.17621 0.44154 -0.12760
 C737 C 1.13867 0.44270 -0.07981
 C738 C 1.07953 0.41731 -0.07703
 C739 C 1.04507 0.35409 -0.08414
 H740 H 1.23170 0.40959 -0.18440
 H741 H 1.23788 0.37590 -0.22573
 H742 H 1.14614 0.25236 -0.17783
 H743 H 1.19196 0.44842 -0.10583
 H744 H 1.16093 0.47462 -0.07458
 H745 H 1.03557 0.34829 -0.10935
 C746 C 0.65927 0.87019 0.32484
 C747 C 0.64488 0.83343 0.35632
 C748 C 0.64505 0.78682 0.36330
 C749 C 0.64049 0.75400 0.33035
 C750 C 0.67054 0.79176 0.28336
 C751 C 0.67789 0.85215 0.29360
 O752 O 0.65093 0.90389 0.32830
 C753 C 0.62947 0.89668 0.36135
 C754 C 0.62604 0.85405 0.37998
 C755 C 0.60410 0.83808 0.41688
 C756 C 0.58230 0.87197 0.43381
 C757 C 0.58475 0.91495 0.41609
 C758 C 0.60999 0.92803 0.37359
 H759 H 0.64278 0.76757 0.37975
 H760 H 0.67763 0.73482 0.33997
 H761 H 0.70640 0.86449 0.27636
 H762 H 0.59803 0.81186 0.42381
 H763 H 0.56808 0.85777 0.46222
 H764 H 0.61271 0.95631 0.36586
 C765 C 0.85490 0.67973 -0.14454
 C766 C 0.84150 0.63812 -0.16431
 C767 C 0.81812 0.61768 -0.19789
 C768 C 0.81397 0.64400 -0.21418
 C769 C 0.83141 0.70470 -0.21749
 C770 C 0.85917 0.72244 -0.16184
 O771 O 0.87168 0.68913 -0.11567
 C772 C 0.87986 0.65105 -0.10884
 C773 C 0.86041 0.61726 -0.14179
 C774 C 0.86658 0.57039 -0.14427
 C775 C 0.89361 0.56365 -0.13055
 C776 C 0.92809 0.60735 -0.10147
 C777 C 0.90875 0.63339 -0.08187
 H778 H 0.80871 0.59116 -0.19758
 H779 H 0.77920 0.63433 -0.22132
 H780 H 0.83870 0.74673 -0.15727
 H781 H 0.85024 0.55073 -0.16006
 H782 H 0.88941 0.54252 -0.12327
 H783 H 0.92399 0.65463 -0.06255
 C784 C 0.32650 1.15417 0.36173
 C785 C 0.36579 1.14978 0.34092
 C786 C 0.37424 1.17403 0.30061
 C787 C 0.35842 1.19016 0.28171
 C788 C 0.34659 1.23147 0.31579
 C789 C 0.31427 1.19112 0.35965
 O790 O 0.31797 1.13653 0.39284
 C791 C 0.35341 1.12350 0.39401
 C792 C 0.38437 1.13239 0.35916
 C793 C 0.42604 1.12177 0.35094
 C794 C 0.44108 1.10296 0.36982
 C795 C 0.42491 1.11114 0.41758
 C796 C 0.36963 1.10385 0.42461
 H797 H 0.40411 1.17339 0.28462
 H798 H 0.34336 1.20376 0.29867
 H799 H 0.28282 1.18506 0.36530
 H800 H 0.44546 1.13146 0.32837
 H801 H 0.46781 1.09405 0.36461
 H802 H 0.35130 1.08835 0.44858
 C803 C 1.16788 0.64510 0.15648
 C804 C 1.13848 0.66805 0.14723
 C805 C 1.12420 0.71065 0.16507
 C806 C 1.13502 0.71978 0.18255
 C807 C 1.18452 0.68385 0.20227
 C808 C 1.19093 0.65707 0.18051
 O809 O 1.16797 0.60689 0.13624
 C810 C 1.14119 0.60563 0.12094
 C811 C 1.11672 0.64336 0.12979
 C812 C 1.07630 0.65117 0.11165
 C813 C 1.06015 0.62901 0.09213
 C814 C 1.08258 0.58657 0.07723
 C815 C 1.12654 0.57478 0.09791
 H816 H 1.10316 0.72349 0.15755
 H817 H 1.14099 0.76080 0.19641
 H818 H 1.20454 0.63901 0.18887
 H819 H 1.05906 0.67923 0.11984
 H820 H 1.03637 0.63127 0.08262
 H821 H 1.13946 0.55017 0.09151
 C822 C 0.66627 1.14204 0.65723
 C823 C 0.64075 1.16962 0.64525
 C824 C 0.63172 1.21484 0.65952
 C825 C 0.64379 1.22167 0.67810
 C826 C 0.67897 1.18499 0.70090
 C827 C 0.68428 1.15230 0.68260
 O828 O 0.66310 1.10317 0.64181
 C829 C 0.63875 1.10376 0.62364
 C830 C 0.61919 1.14443 0.62802
 C831 C 0.58298 1.15540 0.60652
 C832 C 0.57127 1.13509 0.59166
 C833 C 0.58372 1.08526 0.57612
 C834 C 0.62151 1.07344 0.59974
 H835 H 0.61160 1.23132 0.65025
 H836 H 0.64564 1.25226 0.68991
 H837 H 0.69896 1.13050 0.69308
 H838 H 0.57060 1.18581 0.61269
 H839 H 0.55705 1.14609 0.57648
 H840 H 0.62917 1.05663 0.59508
 C841 C 0.85165 0.31072 0.14914
 C842 C 0.84211 0.35764 0.14660
 C843 C 0.82586 0.38507 0.18187
 C844 C 0.82478 0.37080 0.19406
 C845 C 0.83070 0.30906 0.20202
 C846 C 0.84589 0.28294 0.17192
 O847 O 0.87770 0.30907 0.11900
 C848 C 0.88823 0.34810 0.10898
 C849 C 0.86584 0.38105 0.13732
 C850 C 0.86807 0.43491 0.12147
 C851 C 0.88681 0.45545 0.09936
 C852 C 0.90091 0.41134 0.07438
 C853 C 0.90460 0.35666 0.08768
 H854 H 0.81006 0.39703 0.20587
 H855 H 0.79852 0.39572 0.27913
 H856 H 0.83682 0.25703 0.16587
 H857 H 0.85244 0.46346 0.08110
 H858 H 0.91624 0.46890 0.10170
 H859 H 0.92303 0.34055 0.07005
 C860 C 0.36594 0.81887 0.65835
 C861 C 0.33372 0.85654 0.64157
 C862 C 0.29875 0.86637 0.66549
 C863 C 0.28478 0.84965 0.67925
 C864 C 0.31774 0.82433 0.70043
 C865 C 0.35952 0.79696 0.67776
 O866 O 0.39862 0.82432 0.64453
 C867 C 0.39742 0.86079 0.61805
 C868 C 0.35864 0.88082 0.62235
 C869 C 0.34605 0.91632 0.60310
 C870 C 0.35410 0.91434 0.57861
 C871 C 0.40416 0.90271 0.56105
 C872 C 0.42793 0.86930 0.59689
 H873 H 0.28088 0.89836 0.65500
 H874 H 0.26753 0.84232 0.68879
 H875 H 0.37048 0.76348 0.69005
 H876 H 0.31725 0.93284 0.60649
 H877 H 0.36000 0.95053 0.55045
 H878 H 0.45459 0.86326 0.59781
 C879 C 0.32144 1.15700 -0.14276
 C880 C 0.36085 1.15578 -0.16475
 C881 C 0.37577 1.17140 -0.20233
 C882 C 0.35234 1.18521 -0.21285
 C883 C 0.29530 1.17939 -0.21089
 C884 C 0.28778 1.16511 -0.15706
 O885 O 0.31587 1.13959 -0.10899
 C886 C 0.35345 1.12456 -0.10739
 C887 C 0.38311 1.13324 -0.14140
 C888 C 0.42550 1.12057 -0.14747
 C889 C 0.43528 1.09513 -0.12048
 C890 C 0.41502 1.08642 -0.08237
 C891 C 0.37271 1.09716 -0.07728
 H892 H 0.40367 1.17141 -0.21255
 H893 H 0.36280 1.20763 -0.22993
 H894 H 0.25911 1.17879 -0.14817
 H895 H 0.44359 1.13075 -0.17103
 H896 H 0.45962 1.08630 -0.13013
 H897 H 0.35404 1.08775 -0.05393
 C898 C 0.85017 0.64735 0.31995
 C899 C 0.84052 0.66152 0.35965
 C900 C 0.81534 0.68664 0.37491
 C901 C 0.78774 0.68343 0.35299
 C902 C 0.79847 0.67786 0.30279
 C903 C 0.83415 0.66281 0.29356
 O904 O 0.87710 0.61742 0.32070
 C905 C 0.88426 0.61311 0.35804
 C906 C 0.86273 0.63932 0.38296
 C907 C 0.86693 0.63868 0.42349
 C908 C 0.89383 0.61102 0.44100
 C909 C 0.91473 0.58486 0.41724
 C910 C 0.91089 0.58494 0.37511
 H911 H 0.80761 0.70138 0.40006
 H912 H 0.76062 0.71888 0.36566
 H913 H 0.83622 0.65945 0.26912
 H914 H 0.85071 0.65847 0.44289
 H915 H 0.88996 0.62056 0.47266
 H916 H 0.92824 0.56444 0.35583
 C917 C 0.64436 1.16666 0.15654
 C918 C 0.67471 1.12368 0.15028
 C919 C 0.71198 1.12244 0.16286
 C920 C 0.72149 1.13248 0.18361
 C921 C 0.67638 1.19376 0.19847
 C922 C 0.65543 1.19160 0.17917
 O923 O 0.60652 1.16628 0.13781
 C924 C 0.59659 1.15392 0.10292
 C925 C 0.75974 1.19223 0.03886
 C926 C 0.66771 1.04444 0.08801
 C927 C 0.61020 1.05147 0.06252
 C928 C 0.58886 1.09316 0.06008
 C929 C 0.57085 1.12126 0.07841
 H930 H 0.72289 1.10592 0.15522
 H931 H 0.76372 1.14321 0.19516
 H932 H 0.63868 1.20720 0.19012
 H933 H 0.68281 1.05445 0.11707
 H934 H 0.62618 1.03366 0.08061
 H935 H 0.56190 1.13378 0.08932
 C936 C 1.14178 0.67056 0.65578
 C937 C 1.17016 0.65202 0.63963
 C938 C 1.21078 0.62895 0.66462
 C939 C 1.22773 0.64465 0.67979
 C940 C 1.18774 0.67438 0.69886
 C941 C 1.15307 0.69014 0.67928
 O942 O 1.10636 0.66781 0.63833
 C943 C 1.10516 0.64143 0.61775
 C944 C 1.15030 0.63673 0.61039
 C945 C 1.13910 0.58018 0.61212
 C946 C 1.11459 0.56703 0.57854
 C947 C 1.09408 0.59256 0.54661
 C948 C 1.07474 0.62172 0.58226
 H949 H 1.22415 0.60484 0.65741
 H950 H 1.25887 0.64667 0.69598
 H951 H 1.13840 0.71374 0.68976
 H952 H 1.17459 0.56906 0.62013
 H953 H 1.12506 0.53990 0.57695
 H954 H 1.04797 0.63852 0.59274
 C955 C 0.63042 0.83592 -0.17208
 C956 C 0.66807 0.85485 -0.14475
 C957 C 0.71752 0.85028 -0.14344
 C958 C 0.73594 0.83375 -0.16935
 C959 C 0.70478 0.82970 -0.20505
 C960 C 0.64505 0.81564 -0.20112
 O961 O 0.59326 0.84221 -0.16603
 C962 C 0.60079 0.86785 -0.13680
 C963 C 0.64600 0.87700 -0.12204
 C964 C 0.66675 0.90220 -0.08973
 C965 C 0.63396 0.92258 -0.07686
 C966 C 0.58358 0.91570 -0.08500
 C967 C 0.56300 0.89025 -0.12048
 H968 H 0.73679 0.86815 -0.13046
 H969 H 0.76260 0.82701 -0.17182
 H970 H 0.63215 0.78996 -0.21697
 H971 H 0.69220 0.91294 -0.08932
 H972 H 0.66271 0.93686 -0.05118
 H973 H 0.53806 0.87920 -0.12316
 C974 C 1.15842 0.36896 0.32157
 C975 C 1.14491 0.33561 0.35873
 C976 C 1.15327 0.29383 0.36572
 C977 C 1.19167 0.30052 0.34746
 C978 C 1.21490 0.32807 0.31093
 C979 C 1.18659 0.35312 0.29792
 O980 O 1.15053 0.40456 0.32774
 C981 C 1.12863 0.39748 0.36086
 C982 C 1.12499 0.35521 0.37948
 C983 C 1.10431 0.33770 0.41494
 C984 C 1.08598 0.36723 0.42823
 C985 C 1.08483 0.41434 0.41559
 C986 C 1.10513 0.43364 0.37803
 H987 H 1.13933 0.27163 0.38509
 H988 H 1.19916 0.28170 0.34581
 H989 H 1.20518 0.36496 0.27901
 H990 H 1.09861 0.31115 0.42258
 H991 H 1.07353 0.34658 0.45844
 H992 H 1.11013 0.46021 0.37026
 C993 C 0.31282 0.85558 0.14965
 C994 C 0.35717 0.83932 0.14435
 C995 C 0.38052 0.81567 0.17705
 C996 C 0.37042 0.81695 0.18828
 C997 C 0.31117 0.83685 0.19664
 C998 C 0.28702 0.85089 0.17236
 O999 O 0.31114 0.88422 0.12608
 C1000 C 0.35073 0.89223 0.11170
 C1001 C 0.38512 0.86253 0.12976
 C1002 C 0.43205 0.86173 0.11637
 C1003 C 0.45461 0.88670 0.09364
 C1004 C 0.42074 0.91314 0.07144
 C1005 C 0.37039 0.91574 0.08838
 H1006 H 0.41200 0.79534 0.17260
 H1007 H 0.38587 0.80824 0.20939
 H1008 H 0.25576 0.84776 0.17385
 H1009 H 0.44965 0.84303 0.13110
 H1010 H 0.47744 0.89227 0.09049
 H1011 H 0.34381 0.93409 0.07924
 C1012 C 0.86032 0.32411 0.65691
 C1013 C 0.82860 0.36044 0.64099
 C1014 C 0.78866 0.37291 0.66431
 C1015 C 0.77951 0.36613 0.68270
 C1016 C 0.82043 0.32927 0.69662
 C1017 C 0.85418 0.30453 0.67572
 O1018 O 0.89781 0.32544 0.63845
 C1019 C 0.89818 0.36006 0.61671
 C1020 C 0.85556 0.38298 0.62582
 C1021 C 0.84476 0.42054 0.60334
 C1022 C 0.87374 0.43469 0.58396
 C1023 C 0.92074 0.41271 0.56953
 C1024 C 0.93129 0.37789 0.59547
 H1025 H 0.76688 0.39098 0.65682
 H1026 H 0.73862 0.35696 0.69984
 H1027 H 0.86561 0.29263 0.68567
 H1028 H 0.81142 0.43680 0.61464
 H1029 H 0.86114 0.44860 0.57464
 H1030 H 0.95668 0.36497 0.59280
 C1031 C 1.13994 1.17208 0.66397
 C1032 C 1.15370 1.12791 0.65087
 C1033 C 1.18031 1.10109 0.68268
 C1034 C 1.19133 1.12423 0.69400
 C1035 C 1.18858 1.19430 0.69592
 C1036 C 1.15427 1.19071 0.68091
 O1037 O 1.10413 1.16916 0.63937
 C1038 C 1.09841 1.13768 0.62955
 C1039 C 1.14678 1.11432 0.63035
 C1040 C 1.15353 1.08528 0.61894
 C1041 C 1.15362 1.07641 0.59326
 C1042 C 1.09470 1.09246 0.56630
 C1043 C 1.08193 1.14293 0.58197
 H1044 H 1.21194 1.09676 0.67448
 H1045 H 1.22538 1.12553 0.71480
 H1046 H 1.13382 1.20446 0.68651
 H1047 H 1.17080 1.06836 0.62542
 H1048 H 1.13676 1.04608 0.58340
 H1049 H 1.05812 1.13850 0.58794
 C1050 C 0.62640 0.68461 0.15963
 C1051 C 0.67620 0.62994 0.13892
 C1052 C 0.70641 0.63578 0.15599
 C1053 C 0.70800 0.65919 0.17670
 C1054 C 0.69251 0.69334 0.18961
 C1055 C 0.64710 0.68851 0.18124
 O1056 O 0.59477 0.67647 0.14468
 C1057 C 0.59618 0.63648 0.12676
 C1058 C 0.64828 0.61581 0.12246
 C1059 C 0.66289 0.58744 0.10101
 C1060 C 0.65687 0.58138 0.07776
 C1061 C 0.59363 0.59060 0.06806
 C1062 C 0.57579 0.64204 0.09368
 H1063 H 0.72618 0.61355 0.14858
 H1064 H 0.72773 0.66496 0.18285
 H1065 H 0.63340 0.70287 0.18966
 H1066 H 0.68919 0.57371 0.10635
 H1067 H 0.64174 0.55401 0.06995
 H1068 H 0.55838 0.63126 0.10103
 C1069 C 1.16062 0.86615 0.32158
 C1070 C 1.14374 0.83624 0.36149
 C1071 C 1.14920 0.80154 0.37442
 C1072 C 1.16690 0.79300 0.37029
 C1073 C 1.17153 0.83371 0.29842
 C1074 C 1.17544 0.85837 0.29276
 O1075 O 1.14995 0.90555 0.32970
 C1076 C 1.12810 0.89809 0.36195
 C1077 C 1.12193 0.85848 0.38041
 C1078 C 1.10244 0.83991 0.41880
 C1079 C 1.08100 0.87281 0.43497
 C1080 C 1.08414 0.91513 0.41504
 C1081 C 1.10622 0.92935 0.37590
 H1082 H 1.13657 0.77789 0.38758
 H1083 H 1.20061 0.76998 0.36853
 H1084 H 1.20537 0.86510 0.27777
 H1085 H 1.09763 0.81231 0.42490
 H1086 H 1.06982 0.85385 0.46826
 H1087 H 1.11134 0.95514 0.36578
 C1088 C 0.64628 0.32595 -0.13936
 C1089 C 0.65490 0.36618 -0.15663
 C1090 C 0.67850 0.37941 -0.19855
 C1091 C 0.68231 0.35609 -0.22111
 C1092 C 0.67564 0.32938 -0.20993
 C1093 C 0.66142 0.30690 -0.13709
 O1094 O 0.62944 0.31677 -0.11026
 C1095 C 0.61750 0.35552 -0.10430
 C1096 C 0.63202 0.38812 -0.13854
 C1097 C 0.62666 0.42979 -0.14539
 C1098 C 0.59926 0.44359 -0.12161
 C1099 C 0.58521 0.41423 -0.08453
 C1100 C 0.59209 0.37078 -0.07728
 H1101 H 0.67714 0.41899 -0.20538
 H1102 H 0.70717 0.36898 -0.23816
 H1103 H 0.67739 0.27905 -0.13762
 H1104 H 0.64046 0.44970 -0.16478
 H1105 H 0.59648 0.47359 -0.12753
 H1106 H 0.57999 0.34942 -0.05757
 C1107 C 0.82418 1.14986 0.36046
 C1108 C 0.86635 1.15508 0.34565
 C1109 C 0.88099 1.18020 0.30201
 C1110 C 0.85844 1.18861 0.28405
 C1111 C 0.84238 1.19634 0.29786
 C1112 C 0.81466 1.17993 0.35699
 O1113 O 0.81474 1.12856 0.38997
 C1114 C 0.85184 1.11903 0.39298
 C1115 C 0.88676 1.13387 0.36224
 C1116 C 0.93122 1.12837 0.35579
 C1117 C 0.94656 1.10259 0.38256
 C1118 C 0.91512 1.08603 0.41951
 C1119 C 0.86929 1.09151 0.42257
 H1120 H 0.91947 1.17870 0.29606
 H1121 H 0.87246 1.21006 0.26753
 H1122 H 0.78216 1.17693 0.36347
 H1123 H 0.95226 1.14260 0.33746
 H1124 H 0.97036 1.10197 0.37817
 H1125 H 0.84932 1.07659 0.43933
 C1126 C 0.32414 0.65010 -0.13995
 C1127 C 0.36454 0.65670 -0.15814
 C1128 C 0.38036 0.68060 -0.19901
 C1129 C 0.35886 0.68989 -0.21558
 C1130 C 0.34297 0.69980 -0.20905
 C1131 C 0.31409 0.67871 -0.14383
 O1132 O 0.31477 0.62872 -0.11025
 C1133 C 0.35124 0.61974 -0.10682
 C1134 C 0.38650 0.63417 -0.13848
 C1135 C 0.43095 0.62854 -0.14409
 C1136 C 0.44472 0.60334 -0.11710
 C1137 C 0.41501 0.58632 -0.08039
 C1138 C 0.36891 0.59181 -0.07712
 H1139 H 0.41814 0.67988 -0.20137
 H1140 H 0.37091 0.71150 -0.23135
 H1141 H 0.28108 0.67718 -0.13588
 H1142 H 0.45098 0.64358 -0.16255
 H1143 H 0.46475 0.60354 -0.12120
 H1144 H 0.34910 0.57674 -0.06058
 C1145 C 0.87551 0.82800 0.66309
 C1146 C 0.82813 0.85095 0.63645
 C1147 C 0.79416 0.84914 0.65794
 C1148 C 0.77923 0.83678 0.68006
 C1149 C 0.81525 0.82144 0.69423
 C1150 C 0.86698 0.81780 0.68154
 O1151 O 0.90366 0.82764 0.64816
 C1152 C 0.89723 0.84534 0.62149
 C1153 C 0.84661 0.87350 0.62824
 C1154 C 0.81677 0.91210 0.59923
 C1155 C 0.83773 0.92143 0.58478
 C1156 C 0.91084 0.92236 0.57364
 C1157 C 0.91612 0.84407 0.59340
 H1158 H 0.77452 0.89656 0.65658
 H1159 H 0.77017 0.83735 0.68343
 H1160 H 0.88265 0.79336 0.69539
 H1161 H 0.81230 0.93839 0.61415
 H1162 H 0.85272 0.94778 0.57461
 H1163 H 0.94887 0.85340 0.60088
 C1164 C 0.35214 0.30756 0.14776
 C1165 C 0.34312 0.35518 0.14219
 C1166 C 0.32793 0.39192 0.20308
 C1167 C 0.32806 0.38884 0.21220
 C1168 C 0.32296 0.31898 0.20065
 C1169 C 0.32688 0.27858 0.16974
 O1170 O 0.38212 0.30218 0.11845
 C1171 C 0.37892 0.35183 0.11710
 C1172 C 0.36828 0.40368 0.14951
 C1173 C 0.38557 0.44019 0.14233
 C1174 C 0.35823 0.47101 0.15055
 C1175 C 0.38779 0.41660 0.08609
 C1176 C 0.40727 0.34358 0.08050
 H1177 H 0.31352 0.40546 0.20103
 H1178 H 0.27986 0.39842 0.24193
 H1179 H 0.32507 0.26314 0.17049
 H1180 H 0.35116 0.45653 0.15788
 H1181 H 0.38513 0.48355 0.11641
 H1182 H 0.42792 0.34897 0.05970
   
