data_POSCAR
  _audit_creation_date              2014-09-24
  _audit_creation_method            'ToBaCCo'
  _symmetry_space_group_name_H-M    'P1'
  _symmetry_Int_Tables_number       1
  _symmetry_cell_setting            triclinic
  loop_
  _symmetry_equiv_pos_as_xyz
 x,y,z
_cell_length_a 50.5836
_cell_length_b 50.4272
_cell_length_c 50.5837
_cell_angle_alpha 89.916700
_cell_angle_beta 89.996500
_cell_angle_gamma 90.068900
loop_
  _atom_site_label
  _atom_site_type_symbol
  _atom_site_fract_x
  _atom_site_fract_y
  _atom_site_fract_z
N1 N 0.59351 0.66715 0.61464
 N2 N 0.58311 0.65621 0.63587
 C3 C 0.56180 0.67037 0.64333
 C4 C 0.55885 0.69110 0.62577
 C5 C 0.57918 0.68858 0.60783
 H6 H 0.54940 0.66600 0.66020
 H7 H 0.58324 0.70135 0.59111
 Cu8 Cu 0.59871 0.62466 0.65156
 Cu9 Cu 0.62481 0.65288 0.59739
 Cu10 Cu 0.65269 0.59653 0.62542
 N11 N 0.61433 0.59309 0.66725
 N12 N 0.63555 0.58219 0.65687
 C13 C 0.64244 0.56085 0.67134
 C14 C 0.62456 0.55839 0.69176
 C15 C 0.60698 0.57905 0.68874
 H16 H 0.65918 0.54814 0.66731
 H17 H 0.59022 0.58352 0.70124
 N18 N 0.66710 0.61396 0.59358
 N19 N 0.65648 0.63539 0.58292
 C20 C 0.67077 0.64250 0.56157
 C21 C 0.69120 0.62470 0.55880
 C22 C 0.68843 0.60689 0.57927
 H23 H 0.66669 0.65934 0.54896
 H24 H 0.70103 0.59009 0.58340
 H25 H 0.61946 0.61412 0.60929
 H26 H 0.64078 0.63540 0.63060
 N27 N 0.90719 0.33219 0.11431
 N28 N 0.91762 0.34307 0.13552
 C29 C 0.93902 0.32897 0.14289
 C30 C 0.94189 0.30832 0.12531
 C31 C 0.92150 0.31080 0.10744
 H32 H 0.95150 0.33332 0.15971
 H33 H 0.91735 0.29806 0.09076
 Cu34 Cu 0.90197 0.37445 0.15135
 Cu35 Cu 0.87580 0.34640 0.09717
 Cu36 Cu 0.84791 0.40260 0.12508
 N37 N 0.88639 0.40606 0.16678
 N38 N 0.86516 0.41692 0.15638
 C39 C 0.85826 0.43825 0.17075
 C40 C 0.87616 0.44081 0.19111
 C41 C 0.89376 0.42018 0.18816
 H42 H 0.84147 0.45089 0.16673
 H43 H 0.91054 0.41580 0.20067
 N44 N 0.83343 0.38518 0.09341
 N45 N 0.84406 0.36378 0.08277
 C46 C 0.82977 0.35671 0.06143
 C47 C 0.80933 0.37449 0.05867
 C48 C 0.81210 0.39228 0.07911
 H49 H 0.83389 0.33992 0.04882
 H50 H 0.79952 0.40910 0.08320
 H51 H 0.88117 0.38506 0.10924
 H52 H 0.85979 0.36372 0.13054
 N53 N 0.40643 0.16744 -0.11441
 N54 N 0.41714 0.15619 -0.13527
 C55 C 0.43851 0.17030 -0.14273
 C56 C 0.44116 0.19131 -0.12554
 C57 C 0.42061 0.18903 -0.10783
 H58 H 0.45115 0.16572 -0.15934
 H59 H 0.41630 0.20206 -0.09142
 Cu60 Cu 0.40159 0.12448 -0.15043
 Cu61 Cu 0.37492 0.15338 -0.09726
 Cu62 Cu 0.34690 0.09703 -0.12519
 N63 N 0.38588 0.09325 -0.16644
 N64 N 0.36430 0.08267 -0.15641
 C65 C 0.35723 0.06155 -0.17103
 C66 C 0.37535 0.05890 -0.19119
 C67 C 0.39326 0.07924 -0.18786
 H68 H 0.34021 0.04909 -0.16729
 H69 H 0.41026 0.08349 -0.20011
 N70 N 0.33240 0.11459 -0.09356
 N71 N 0.34308 0.13602 -0.08295
 C72 C 0.32879 0.14313 -0.06164
 C73 C 0.30831 0.12535 -0.05887
 C74 C 0.31104 0.10753 -0.07928
 H75 H 0.33294 0.15993 -0.04905
 H76 H 0.29843 0.09069 -0.08334
 H77 H 0.37987 0.11448 -0.10864
 H78 H 0.35924 0.13577 -0.13062
 N79 N 0.09311 0.83225 0.38540
 N80 N 0.08272 0.84314 0.36417
 C81 C 0.06135 0.82896 0.35675
 C82 C 0.05844 0.80823 0.37432
 C83 C 0.07880 0.81078 0.39225
 H84 H 0.04887 0.83337 0.33995
 H85 H 0.08292 0.79802 0.40895
 Cu86 Cu 0.09811 0.87492 0.34861
 Cu87 Cu 0.12446 0.84671 0.40260
 Cu88 Cu 0.15234 0.90310 0.37477
 N89 N 0.11400 0.90639 0.33298
 N90 N 0.13517 0.91733 0.34341
 C91 C 0.14205 0.93875 0.32908
 C92 C 0.12417 0.94126 0.30870
 C93 C 0.10663 0.92054 0.31159
 H94 H 0.15878 0.95148 0.33313
 H95 H 0.08983 0.91618 0.29910
 N96 N 0.16676 0.88570 0.40649
 N97 N 0.15615 0.86422 0.41711
 C98 C 0.17049 0.85712 0.43842
 C99 C 0.19092 0.87498 0.44117
 C100 C 0.18811 0.89281 0.42075
 H101 H 0.16645 0.84024 0.45100
 H102 H 0.20070 0.90966 0.41662
 H103 H 0.11906 0.88565 0.39065
 H104 H 0.14037 0.86444 0.36923
 N105 N 0.09322 0.16798 0.11432
 N106 N 0.08232 0.15670 0.13507
 C107 C 0.06080 0.17067 0.14217
 C108 C 0.05802 0.19194 0.12495
 C109 C 0.07906 0.18949 0.10753
 H110 H 0.04825 0.16576 0.15874
 H111 H 0.08404 0.20251 0.09129
 Cu112 Cu 0.09753 0.12490 0.15080
 Cu113 Cu 0.12581 0.15470 0.09882
 Cu114 Cu 0.15230 0.09723 0.12497
 N115 N 0.11382 0.09380 0.16671
 N116 N 0.13511 0.08308 0.15640
 C117 C 0.14210 0.06182 0.17084
 C118 C 0.12423 0.05890 0.19143
 C119 C 0.10654 0.07965 0.18812
 H120 H 0.15899 0.04947 0.16655
 H121 H 0.08958 0.08413 0.20028
 N122 N 0.16665 0.11481 0.09321
 N123 N 0.15640 0.13657 0.08299
 C124 C 0.17062 0.14364 0.06160
 C125 C 0.19093 0.12551 0.05818
 C126 C 0.18767 0.10751 0.07865
 H127 H 0.16655 0.16086 0.04957
 H128 H 0.19977 0.09038 0.08282
 H129 H 0.11955 0.11555 0.10921
 H130 H 0.14073 0.13542 0.13208
 N131 N 0.40632 0.83258 0.61458
 N132 N 0.41641 0.84311 0.63608
 C133 C 0.43784 0.82904 0.64336
 C134 C 0.44137 0.80847 0.62549
 C135 C 0.42090 0.81147 0.60749
 H136 H 0.44996 0.83353 0.66036
 H137 H 0.41679 0.79931 0.59042
 Cu138 Cu 0.40040 0.87442 0.65177
 Cu139 Cu 0.37503 0.84693 0.59718
 Cu140 Cu 0.34709 0.90320 0.62510
 N141 N 0.38511 0.90613 0.66734
 N142 N 0.36424 0.91730 0.65661
 C143 C 0.35758 0.93885 0.67073
 C144 C 0.37522 0.94150 0.69155
 C145 C 0.39248 0.92030 0.68867
 H146 H 0.34108 0.95158 0.66604
 H147 H 0.40918 0.91553 0.70108
 N148 N 0.33273 0.88583 0.59326
 N149 N 0.34334 0.86446 0.58265
 C150 C 0.32904 0.85739 0.56135
 C151 C 0.30834 0.87514 0.55830
 C152 C 0.31140 0.89289 0.57898
 H153 H 0.33341 0.84050 0.54901
 H154 H 0.29900 0.90973 0.58341
 H155 H 0.38047 0.88565 0.60940
 H156 H 0.35858 0.86434 0.63014
 N157 N 0.90677 0.66738 0.38544
 N158 N 0.91718 0.65654 0.36427
 C159 C 0.93863 0.67067 0.35699
 C160 C 0.94184 0.69161 0.37451
 C161 C 0.92114 0.68875 0.39231
 H162 H 0.95096 0.66598 0.34021
 H163 H 0.91673 0.70122 0.40907
 Cu164 Cu 0.90150 0.62492 0.34866
 Cu165 Cu 0.87531 0.65304 0.40262
 Cu166 Cu 0.84741 0.59665 0.37481
 N167 N 0.88590 0.59328 0.33307
 N168 N 0.86472 0.58237 0.34348
 C169 C 0.85792 0.56095 0.32920
 C170 C 0.87579 0.55812 0.30859
 C171 C 0.89331 0.57909 0.31177
 H172 H 0.84114 0.54843 0.33359
 H173 H 0.91023 0.58370 0.29957
 N174 N 0.83288 0.61416 0.40648
 N175 N 0.84348 0.63558 0.41706
 C176 C 0.82917 0.64264 0.43836
 C177 C 0.80848 0.62483 0.44144
 C178 C 0.81156 0.60705 0.42079
 H179 H 0.83357 0.65952 0.45071
 H180 H 0.79922 0.59012 0.41644
 H181 H 0.88056 0.61422 0.39075
 H182 H 0.85923 0.63543 0.36940
 N183 N 0.59373 0.33270 -0.11436
 N184 N 0.58332 0.34361 -0.13553
 C185 C 0.56193 0.32949 -0.14285
 C186 C 0.55871 0.30856 -0.12529
 C187 C 0.57937 0.31132 -0.10750
 H188 H 0.54968 0.33414 -0.15971
 H189 H 0.58381 0.29874 -0.09078
 Cu190 Cu 0.59899 0.37515 -0.15121
 Cu191 Cu 0.62515 0.34685 -0.09717
 Cu192 Cu 0.65312 0.40319 -0.12519
 N193 N 0.61464 0.40672 -0.16693
 N194 N 0.63586 0.41757 -0.15658
 C195 C 0.64274 0.43892 -0.17101
 C196 C 0.62485 0.44177 -0.19163
 C197 C 0.60729 0.42085 -0.18832
 H198 H 0.65961 0.45134 -0.16674
 H199 H 0.59042 0.41618 -0.20055
 N200 N 0.66760 0.38566 -0.09342
 N201 N 0.65695 0.36426 -0.08279
 C202 C 0.67123 0.35712 -0.06149
 C203 C 0.69197 0.37485 -0.05846
 C204 C 0.68895 0.39267 -0.07914
 H205 H 0.66680 0.34022 -0.04914
 H206 H 0.70136 0.40955 -0.08354
 H207 H 0.61997 0.38553 -0.10906
 H208 H 0.64117 0.36429 -0.13040
 C209 C -0.00204 0.25239 0.12561
 C210 C 0.01790 0.25291 0.10648
 C211 C 0.03744 0.23334 0.10628
 C212 C -0.03907 0.28935 0.12553
 C213 C 0.01717 0.21262 0.14449
 C214 C -0.00235 0.23223 0.14463
 C215 C -0.02219 0.27250 0.12563
 C216 C 0.03733 0.21287 0.12527
 H217 H 0.01833 0.26845 0.09167
 H218 H 0.05251 0.23436 0.09117
 H219 H 0.01631 0.19732 0.15946
 H220 H -0.01770 0.23164 0.15957
 C221 C 0.50167 0.74818 0.62585
 C222 C 0.48241 0.74845 0.60602
 C223 C 0.46288 0.76804 0.60586
 C224 C 0.53867 0.71113 0.62596
 C225 C 0.48184 0.78729 0.64540
 C226 C 0.50136 0.76766 0.64551
 C227 C 0.52179 0.72799 0.62596
 C228 C 0.46229 0.78774 0.62558
 H229 H 0.48245 0.73349 0.59066
 H230 H 0.44830 0.76760 0.59024
 H231 H 0.48219 0.80201 0.66091
 H232 H 0.51621 0.76766 0.66094
 C233 C 1.00214 0.75218 0.37400
 C234 C 1.00205 0.73245 0.35459
 C235 C 0.98251 0.71277 0.35470
 C236 C 1.03932 0.78922 0.37410
 C237 C 0.96301 0.73254 0.39370
 C238 C 0.98257 0.75218 0.39353
 C239 C 1.02237 0.77234 0.37400
 C240 C 0.96269 0.71252 0.37429
 H241 H 1.01711 0.73227 0.33936
 H242 H 0.98307 0.69782 0.33942
 H243 H 0.94823 0.73318 0.40912
 H244 H 0.98241 0.76737 0.40866
 C245 C 0.49835 0.24833 -0.12571
 C246 C 0.49845 0.26809 -0.14513
 C247 C 0.51804 0.28767 -0.14505
 C248 C 0.46130 0.21134 -0.12578
 C249 C 0.53747 0.26776 -0.10601
 C250 C 0.51786 0.24822 -0.10614
 C251 C 0.47819 0.22820 -0.12581
 C252 C 0.53785 0.28777 -0.12547
 H253 H 0.48336 0.26837 -0.16033
 H254 H 0.51753 0.30263 -0.16036
 H255 H 0.55224 0.26705 -0.09059
 H256 H 0.51793 0.23304 -0.09095
 C257 C 0.12384 -0.00149 0.25167
 C258 C 0.14351 -0.00137 0.23226
 C259 C 0.14366 0.01824 0.21271
 C260 C 0.12391 -0.03862 0.28860
 C261 C 0.10439 0.03776 0.23197
 C262 C 0.10430 0.01811 0.25150
 C263 C 0.12380 -0.02169 0.27177
 C264 C 0.12409 0.03809 0.21228
 H265 H 0.15875 -0.01645 0.23221
 H266 H 0.15917 0.01768 0.19802
 H267 H 0.08899 0.05259 0.23241
 H268 H 0.08897 0.01821 0.26647
 C269 C 0.62431 0.50224 -0.25203
 C270 C 0.60485 0.48249 -0.25186
 C271 C 0.60499 0.46282 -0.23230
 C272 C 0.62432 0.53939 -0.28911
 C273 C 0.64414 0.48258 -0.21301
 C274 C 0.64394 0.50221 -0.23257
 C275 C 0.62423 0.52247 -0.27220
 C276 C 0.62465 0.46260 -0.21255
 H277 H 0.58955 0.48231 -0.26686
 H278 H 0.58964 0.44789 -0.23277
 H279 H 0.65962 0.48323 -0.19830
 H280 H 0.65913 0.51737 -0.23251
 C281 C 0.37560 1.00189 0.75167
 C282 C 0.39483 0.98198 0.75186
 C283 C 0.39479 0.96236 0.73234
 C284 C 0.37556 1.03892 0.78863
 C285 C 0.35618 0.98253 0.71238
 C286 C 0.35628 1.00210 0.73191
 C287 C 0.37563 1.02206 0.77176
 C288 C 0.37544 0.96236 0.71230
 H289 H 0.40986 0.98160 0.76712
 H290 H 0.40993 0.94728 0.73308
 H291 H 0.34093 0.98333 0.69744
 H292 H 0.34124 1.01738 0.73160
 C293 C 0.87628 0.49778 0.24835
 C294 C 0.85668 0.49773 0.26785
 C295 C 0.85651 0.51730 0.28740
 C296 C 0.87633 0.46084 0.21128
 C297 C 0.89561 0.53714 0.26798
 C298 C 0.89572 0.51752 0.24845
 C299 C 0.87635 0.47767 0.22818
 C300 C 0.87600 0.53730 0.28776
 H301 H 0.84148 0.48257 0.26796
 H302 H 0.84105 0.51664 0.30213
 H303 H 0.91092 0.55210 0.26743
 H304 H 0.91096 0.51777 0.23340
 C305 C 0.25127 0.12552 -0.00187
 C306 C 0.25077 0.10557 0.01734
 C307 C 0.23120 0.10555 0.03685
 C308 C 0.28824 0.12540 -0.03882
 C309 C 0.21253 0.14554 0.01799
 C310 C 0.23213 0.14551 -0.00149
 C311 C 0.27139 0.12546 -0.02198
 C312 C 0.21176 0.12553 0.03743
 H313 H 0.26552 0.09000 0.01725
 H314 H 0.23144 0.08981 0.05137
 H315 H 0.19806 0.16130 0.01769
 H316 H 0.23235 0.16108 -0.01627
 C317 C 0.74822 0.62479 0.50166
 C318 C 0.74832 0.60515 0.48217
 C319 C 0.76787 0.60513 0.46261
 C320 C 0.71127 0.62473 0.53870
 C321 C 0.78732 0.64448 0.48199
 C322 C 0.76775 0.64445 0.50152
 C323 C 0.72810 0.62476 0.52182
 C324 C 0.78767 0.62481 0.46224
 H325 H 0.73329 0.58983 0.48207
 H326 H 0.76733 0.58964 0.44787
 H327 H 0.80209 0.65998 0.48251
 H328 H 0.76786 0.65977 0.51651
 C329 C 0.75225 0.37458 0.00167
 C330 C 0.75220 0.39424 -0.01785
 C331 C 0.73265 0.39435 -0.03738
 C332 C 0.78925 0.37450 0.03861
 C333 C 0.71307 0.35505 -0.01791
 C334 C 0.73266 0.35500 0.00160
 C335 C 0.77239 0.37452 0.02178
 C336 C 0.71279 0.37475 -0.03769
 H337 H 0.76728 0.40952 -0.01798
 H338 H 0.73323 0.40985 -0.05215
 H339 H 0.69825 0.33961 -0.01734
 H340 H 0.73250 0.33967 0.01663
 C341 C 0.24810 0.87511 0.49811
 C342 C 0.26764 0.85552 0.49820
 C343 C 0.28721 0.85550 0.51773
 C344 C 0.21104 0.87501 0.46121
 C345 C 0.26774 0.89476 0.53718
 C346 C 0.24820 0.89472 0.51763
 C347 C 0.22793 0.87506 0.47803
 C348 C 0.28754 0.87513 0.53752
 H349 H 0.26777 0.84023 0.48317
 H350 H 0.30198 0.84004 0.51718
 H351 H 0.26718 0.91021 0.55196
 H352 H 0.23316 0.91001 0.51775
   
