data_POSCAR
  _audit_creation_date              2014-09-24
  _audit_creation_method            'ToBaCCo'
  _symmetry_space_group_name_H-M    'P1'
  _symmetry_Int_Tables_number       1
  _symmetry_cell_setting            triclinic
  loop_
  _symmetry_equiv_pos_as_xyz
 x,y,z
_cell_length_a 18.5401
_cell_length_b 18.5961
_cell_length_c 18.5996
_cell_angle_alpha 91.445100
_cell_angle_beta 91.460500
_cell_angle_gamma 88.449800
loop_
  _atom_site_label
  _atom_site_type_symbol
  _atom_site_fract_x
  _atom_site_fract_y
  _atom_site_fract_z
C1 C 0.04372 0.40045 0.14377
 H2 H 0.07803 0.44159 0.12456
 C3 C 0.04857 0.33020 0.11448
 H4 H 0.08580 0.31775 0.07166
 C5 C -0.04389 0.36451 0.22524
 H6 H -0.07750 0.37654 0.27072
 C7 C -0.04117 0.29433 0.19736
 H8 H -0.07460 0.25402 0.21989
 N9 N -0.00311 0.41657 0.19744
 C10 C -0.02135 0.65114 0.23329
 H11 H -0.02812 0.64594 0.29049
 C12 C -0.01881 0.71930 0.20455
 H13 H -0.02461 0.76660 0.23939
 C14 C -0.00306 0.59548 0.11873
 H15 H 0.00382 0.54709 0.08593
 C16 C -0.00049 0.66330 0.08754
 H17 H 0.00756 0.66711 0.03042
 Zn18 Zn -0.00702 0.50759 0.24720
 N19 N -0.01205 0.59100 0.19085
 C20 C 0.12923 0.56033 0.28318
 N21 N 0.07912 0.51353 0.30464
 C22 C 0.09514 0.46575 0.35736
 C23 C 0.16424 0.46354 0.38992
 C24 C 0.19842 0.55986 0.31411
 C25 C -0.15350 0.50108 0.25436
 C26 C -0.22184 0.49815 0.28334
 C27 C -0.16851 0.52543 0.40039
 C28 C -0.10033 0.52503 0.36958
 N29 N -0.09425 0.51172 0.29776
 H30 H 0.11718 0.59604 0.23943
 H31 H 0.05525 0.42778 0.37223
 H32 H 0.17725 0.42462 0.43097
 H33 H 0.23804 0.59637 0.29533
 H34 H -0.14704 0.49231 0.19713
 H35 H -0.26818 0.48687 0.24860
 H36 H -0.17377 0.53828 0.45699
 H37 H -0.05273 0.53569 0.40255
 C38 C -0.00714 0.72563 0.13134
 C39 C 0.00527 0.27680 0.14146
 C40 C -0.22932 0.50919 0.35719
 C41 C 0.21657 0.51039 0.36704
 C42 C 0.04718 0.60078 0.85344
 H43 H 0.08349 0.55928 0.87409
 C44 C 0.04911 0.67090 0.88276
 H45 H 0.08633 0.68332 0.92689
 C46 C -0.04286 0.63743 0.76817
 H47 H -0.07628 0.62551 0.72124
 C48 C -0.04319 0.70750 0.79620
 H49 H -0.07851 0.74826 0.77239
 N50 N 0.00076 0.58524 0.79771
 C51 C 0.00028 0.35221 0.76054
 H52 H 0.00023 0.35742 0.70275
 C53 C -0.00060 0.28428 0.78967
 H54 H -0.00129 0.23694 0.75446
 C55 C 0.00137 0.40811 0.87678
 H56 H 0.00153 0.45667 0.91001
 C57 C 0.00007 0.34049 0.90839
 H58 H -0.00071 0.33674 0.96630
 Zn59 Zn 0.00214 0.49500 0.74790
 N60 N 0.00199 0.41225 0.80389
 C61 C 0.14290 0.44830 0.72200
 N62 N 0.08798 0.49026 0.69443
 C63 C 0.09904 0.53529 0.63943
 C64 C 0.16782 0.53919 0.61029
 C65 C 0.21197 0.45064 0.69467
 C66 C -0.14327 0.49933 0.73928
 C67 C -0.21343 0.49797 0.71127
 C68 C -0.16485 0.46740 0.59461
 C69 C -0.09493 0.47215 0.62451
 N70 N -0.08586 0.48904 0.69562
 H71 H 0.13434 0.41522 0.76770
 H72 H 0.05523 0.56974 0.61992
 H73 H 0.17672 0.57556 0.56698
 H74 H 0.25529 0.41773 0.71788
 H75 H -0.13416 0.51044 0.79611
 H76 H -0.25838 0.50903 0.74645
 H77 H -0.17222 0.45169 0.53860
 H78 H -0.04840 0.46138 0.59161
 C79 C -0.00049 0.27824 0.86408
 C80 C 0.00310 0.72447 0.85389
 C81 C -0.22445 0.48283 0.63809
 C82 C 0.22490 0.49717 0.63917
 C83 C 0.14615 0.04925 0.39914
 H84 H 0.12543 0.08587 0.44024
 C85 C 0.11714 0.05090 0.32888
 H86 H 0.07316 0.08825 0.31590
 C87 C 0.23143 -0.04136 0.36370
 H88 H 0.27832 -0.07485 0.37610
 C89 C 0.20363 -0.04205 0.29355
 H90 H 0.22750 -0.07774 0.25323
 N91 N 0.20176 0.00272 0.41533
 C92 C 0.23890 0.00409 0.64808
 H93 H 0.29683 0.00477 0.64271
 C94 C 0.20995 0.00289 0.71605
 H95 H 0.24542 0.00276 0.76329
 C96 C 0.12215 0.00331 0.59245
 H97 H 0.08871 0.00279 0.54395
 C98 C 0.09070 0.00166 0.66014
 H99 H 0.03266 -0.00001 0.66408
 Zn100 Zn 0.25133 0.00463 0.50561
 N101 N 0.19520 0.00489 0.58817
 C102 C 0.27594 0.14526 0.55014
 N103 N 0.30488 0.08985 0.51004
 C104 C 0.36176 0.09984 0.46687
 C105 C 0.39172 0.16802 0.46330
 C106 C 0.30400 0.21377 0.54805
 C107 C 0.26014 -0.14003 0.50285
 C108 C 0.28846 -0.20986 0.50455
 C109 C 0.40545 -0.16124 0.53415
 C110 C 0.37531 -0.09161 0.52913
 N111 N 0.30389 -0.08276 0.51245
 H112 H 0.22881 0.13738 0.58163
 H113 H 0.38232 0.05560 0.43379
 H114 H 0.43666 0.17612 0.42855
 H115 H 0.27985 0.25750 0.57955
 H116 H 0.20307 -0.13105 0.49188
 H117 H 0.25358 -0.25495 0.49394
 H118 H 0.46168 -0.16876 0.54950
 H119 H 0.40826 -0.04516 0.53939
 C120 C 0.13538 0.00176 0.72224
 C121 C 0.14610 0.00438 0.27592
 C122 C 0.36188 -0.22057 0.51929
 C123 C 0.36166 0.22554 0.50364
 C124 C 0.85499 0.04334 0.59583
 H125 H 0.87328 0.07837 0.55488
 C126 C 0.88381 0.04884 0.66624
 H127 H 0.92547 0.08716 0.67914
 C128 C 0.77599 -0.04665 0.63123
 H129 H 0.73145 -0.08141 0.61906
 C130 C 0.80347 -0.04324 0.70153
 H131 H 0.78185 -0.07725 0.74180
 N132 N 0.80271 -0.00488 0.57939
 C133 C 0.76714 -0.02423 0.34488
 H134 H 0.70998 -0.03245 0.34990
 C135 C 0.79609 -0.02124 0.27680
 H136 H 0.76135 -0.02824 0.22949
 C137 C 0.88122 -0.00263 0.40086
 H138 H 0.91371 0.00540 0.44934
 C139 C 0.91268 0.00045 0.33320
 H140 H 0.96975 0.00998 0.32976
 Zn141 Zn 0.75266 -0.00900 0.48848
 N142 N 0.80919 -0.01347 0.40510
 C143 C 0.71384 0.12613 0.43457
 N144 N 0.69453 0.07671 0.48301
 C145 C 0.64432 0.09350 0.53334
 C146 C 0.61269 0.16285 0.53693
 C147 C 0.68370 0.19554 0.43631
 C148 C 0.74718 -0.15510 0.49414
 C149 C 0.71897 -0.22348 0.49817
 C150 C 0.60033 -0.17128 0.47414
 C151 C 0.63048 -0.10303 0.47340
 N152 N 0.70274 -0.09637 0.48467
 H153 H 0.75561 0.11349 0.39663
 H154 H 0.63121 0.05415 0.57249
 H155 H 0.57392 0.17651 0.57801
 H156 H 0.70097 0.23466 0.39856
 H157 H 0.80468 -0.14816 0.50141
 H158 H 0.75458 -0.26940 0.50865
 H159 H 0.54331 -0.17707 0.46302
 H160 H 0.59660 -0.05581 0.46376
 C161 C 0.86921 -0.00760 0.27068
 C162 C 0.85776 0.00479 0.71940
 C163 C 0.64472 -0.23152 0.48944
 C164 C 0.63382 0.21461 0.48870
 C165 C 0.59870 0.14546 0.95224
 H166 H 0.55752 0.12505 0.91549
 C167 C 0.66925 0.11655 0.95047
 H168 H 0.68234 0.07291 0.91297
 C169 C 0.63415 0.22993 1.04318
 H170 H 0.62169 0.27649 1.07685
 C171 C 0.70460 0.20230 1.04367
 H172 H 0.74504 0.22597 1.07938
 N173 N 0.58238 0.20064 0.99897
 C174 C 0.34863 0.23833 0.99870
 H175 H 0.35392 0.29613 0.99916
 C176 C 0.28048 0.20938 0.99966
 H177 H 0.23311 0.24488 1.00080
 C178 C 0.40465 0.12194 0.99671
 H179 H 0.45335 0.08861 0.99623
 C180 C 0.33683 0.09044 0.99802
 H181 H 0.33322 0.03246 0.99843
 Zn182 Zn 0.49189 0.25053 0.99705
 N183 N 0.40881 0.19483 0.99657
 C184 C 0.44540 0.27868 0.85707
 N185 N 0.48814 0.30454 0.91202
 C186 C 0.53475 0.35840 0.90162
 C187 C 0.53962 0.38807 0.83343
 C188 C 0.44865 0.30660 0.78854
 C189 C 0.49436 0.25889 1.14183
 C190 C 0.49391 0.28717 1.21164
 C191 C 0.46697 0.40449 1.16302
 C192 C 0.47069 0.37432 1.09341
 N193 N 0.48548 0.30272 1.08455
 H194 H 0.41098 0.23386 0.86515
 H195 H 0.56972 0.37650 0.94548
 H196 H 0.57727 0.43043 0.82501
 H197 H 0.41512 0.28477 0.74512
 H198 H 0.50404 0.20177 1.13284
 H199 H 0.50401 0.25215 1.25670
 H200 H 0.45317 0.46093 1.17056
 H201 H 0.46118 0.40745 1.04697
 C202 C 0.27436 0.13490 0.99916
 C203 C 0.72240 0.14529 0.99696
 C204 C 0.48123 0.36072 1.22233
 C205 C 0.49687 0.36089 0.77628
 C206 C 0.40060 0.85335 0.95673
 H207 H 0.44192 0.87115 0.92176
 C208 C 0.33034 0.88308 0.95129
 H209 H 0.31807 0.92491 0.91298
 C210 C 0.36423 0.77487 1.04666
 H211 H 0.37607 0.73033 1.08148
 C212 C 0.29399 0.80322 1.04335
 H213 H 0.25346 0.78205 1.07750
 N214 N 0.41652 0.80100 1.00496
 C215 C 0.65148 0.76646 1.02611
 H216 H 0.64681 0.70946 1.03458
 C217 C 0.71955 0.79564 1.02313
 H218 H 0.76730 0.76143 1.03040
 C219 C 0.59466 0.87985 1.00357
 H220 H 0.54587 0.91198 0.99511
 C221 C 0.66234 0.91146 1.00041
 H222 H 0.66565 0.96827 0.99033
 Zn223 Zn 0.50778 0.75118 1.00976
 N224 N 0.59085 0.80805 1.01485
 C225 C 0.56329 0.71346 0.87509
 N226 N 0.51457 0.69344 0.92405
 C227 C 0.46523 0.64246 0.90691
 C228 C 0.46305 0.61063 0.83771
 C229 C 0.56293 0.68316 0.80585
 C230 C 0.50110 0.74518 1.15588
 C231 C 0.49857 0.71687 1.22434
 C232 C 0.52609 0.59934 1.17219
 C233 C 0.52523 0.62947 1.10387
 N234 N 0.51164 0.70122 1.09716
 H235 H 0.60041 0.75581 0.88794
 H236 H 0.42583 0.62873 0.94588
 H237 H 0.42276 0.57118 0.82376
 H238 H 0.60091 0.70095 0.76712
 H239 H 0.49221 0.80235 1.14893
 H240 H 0.48739 0.75205 1.27027
 H241 H 0.53925 0.54282 1.17801
 H242 H 0.53589 0.59606 1.05668
 C243 C 0.72520 0.86841 1.00891
 C244 C 0.27669 0.85785 0.99544
 C245 C 0.50998 0.64311 1.23250
 C246 C 0.51165 0.63236 0.78645
 B247 B 1.00332 1.07554 0.04557
 B248 B 1.04932 1.00075 0.07129
 B249 B 0.95862 1.00327 0.07179
 B250 B 0.92827 1.04964 -0.00021
 B251 B 1.00054 1.07577 -0.04476
 B252 B 1.07532 1.04528 -0.00087
 B253 B 1.00029 0.92913 -0.04917
 B254 B 0.95415 1.00398 -0.07499
 B255 B 1.04476 1.00132 -0.07526
 B256 B 1.07527 0.95491 -0.00354
 B257 B 1.00294 0.92870 0.04125
 B258 B 0.92806 0.95920 -0.00277
 B259 B 0.57194 0.49635 0.45642
 B260 B 0.57566 0.49476 0.54681
 B261 B 0.54677 0.57003 0.50496
 B262 B 0.49806 0.54501 0.43134
 B263 B 0.49649 0.45467 0.42771
 B264 B 0.54449 0.42335 0.49916
 B265 B 0.42852 0.50097 0.54905
 B266 B 0.42483 0.50241 0.45872
 B267 B 0.45385 0.42729 0.50057
 B268 B 0.50247 0.45234 0.57426
 B269 B 0.50389 0.54271 0.57801
 B270 B 0.45611 0.57381 0.50655
 C271 C 1.00653 1.20851 0.11297
 C272 C 1.00559 1.14867 0.08645
 C273 C 0.99835 0.79623 0.10233
 C274 C 1.00190 0.85547 0.07806
 C275 C 0.99940 1.20783 -0.10620
 C276 C 0.99968 1.14867 -0.08160
 C277 C 1.00234 0.79663 -0.11664
 C278 C 1.00080 0.85637 -0.09019
 C279 C 1.11683 1.00320 0.20371
 C280 C 1.09044 1.00137 0.14396
 C281 C 1.10591 1.00100 -0.20733
 C282 C 1.08153 1.00081 -0.14811
 C283 C 0.89705 0.99800 0.20404
 C284 C 0.92162 1.00192 0.14494
 C285 C 0.88709 1.00688 -0.20816
 C286 C 0.91326 1.00621 -0.14816
 C287 C 1.20760 1.10671 -0.00043
 C288 C 1.14832 1.08209 -0.00037
 C289 C 0.79502 1.11642 -0.00224
 C290 C 0.85514 1.09041 -0.00067
 C291 C 1.20840 0.88687 -0.00637
 C292 C 1.14853 0.91382 -0.00577
 C293 C 0.79568 0.89772 0.00267
 C294 C 0.85486 0.92224 -0.00137
 C295 C 0.70096 0.50276 0.38831
 C296 C 0.64312 0.49784 0.41563
 C297 C 0.28933 0.50713 0.39591
 C298 C 0.35001 0.50520 0.42076
 C299 C 0.71011 0.48562 0.61060
 C300 C 0.64995 0.48968 0.58494
 C301 C 0.29674 0.50102 0.61236
 C302 C 0.35634 0.50222 0.58820
 C303 C 0.50404 0.61262 0.30238
 C304 C 0.49943 0.58566 0.36026
 C305 C 0.50841 0.60451 0.71353
 C306 C 0.50655 0.58034 0.65278
 C307 C 0.48579 0.39085 0.29399
 C308 C 0.49096 0.41651 0.35380
 C309 C 0.50163 0.38826 0.70506
 C310 C 0.50340 0.41289 0.64592
 C311 C 0.61438 0.69878 0.49718
 C312 C 0.58748 0.64102 0.50298
 C313 C 0.60621 0.28764 0.49331
 C314 C 0.58215 0.34849 0.49606
 C315 C 0.39212 0.70769 0.51605
 C316 C 0.41785 0.64778 0.51169
 C317 C 0.38943 0.29667 0.50018
 C318 C 0.41427 0.35574 0.49924
   
