data_POSCAR
  _audit_creation_date              2014-09-24
  _audit_creation_method            'ToBaCCo'
  _symmetry_space_group_name_H-M    'P1'
  _symmetry_Int_Tables_number       1
  _symmetry_cell_setting            triclinic
  loop_
  _symmetry_equiv_pos_as_xyz
 x,y,z
_cell_length_a 39.6684
_cell_length_b 40.3577
_cell_length_c 23.6477
_cell_angle_alpha 89.924600
_cell_angle_beta 90.073500
_cell_angle_gamma 119.522300
loop_
  _atom_site_label
  _atom_site_type_symbol
  _atom_site_fract_x
  _atom_site_fract_y
  _atom_site_fract_z
C1 C 0.44952 0.89837 0.49946
 C2 C 0.46448 0.91811 0.55003
 C3 C 0.48540 0.95801 0.55000
 C4 C 0.48988 0.97888 0.49978
 C5 C 0.47355 0.95822 0.44944
 C6 C 0.45448 0.91836 0.44913
 C7 C 0.51133 1.02171 0.49992
 C8 C 0.52780 1.04259 0.44975
 C9 C 0.54684 1.08249 0.44971
 C10 C 0.55161 1.10222 0.50024
 C11 C 0.53649 1.08223 0.55054
 C12 C 0.51564 1.04237 0.55022
 H13 H 0.43402 0.86746 0.49917
 H14 H 0.49816 0.97235 0.58936
 H15 H 0.47520 0.97262 0.41011
 H16 H 0.52626 1.02825 0.41043
 H17 H 0.56705 1.13313 0.50052
 H18 H 0.50281 1.02796 0.58950
 C19 C 0.10387 0.55516 0.49562
 C20 C 0.08426 0.54030 0.54647
 C21 C 0.04376 0.51784 0.54675
 C22 C 0.02204 0.51163 0.49648
 C23 C 0.04260 0.52808 0.44592
 C24 C 0.08312 0.54863 0.44533
 C25 C -0.02151 0.48824 0.49660
 C26 C -0.04225 0.47173 0.44616
 C27 C -0.08282 0.45121 0.44579
 C28 C -0.10335 0.44480 0.49628
 C29 C -0.08351 0.45974 0.54690
 C30 C -0.04305 0.48213 0.54695
 H31 H 0.13528 0.57175 0.49508
 H32 H 0.02971 0.50522 0.58638
 H33 H 0.02766 0.52536 0.40650
 H34 H -0.02735 0.47443 0.40673
 H35 H -0.13476 0.42826 0.49626
 H36 H -0.02895 0.49472 0.58654
 C37 C 0.45015 0.55452 0.50423
 C38 C 0.46425 0.54810 0.55478
 C39 C 0.48429 0.52762 0.55451
 C40 C 0.48855 0.51119 0.50409
 C41 C 0.47314 0.51732 0.45367
 C42 C 0.45508 0.53966 0.45362
 C43 C 0.50876 0.48790 0.50427
 C44 C 0.52426 0.48176 0.45403
 C45 C 0.54239 0.45947 0.45438
 C46 C 0.54724 0.44467 0.50516
 C47 C 0.53304 0.45109 0.55545
 C48 C 0.51298 0.47151 0.55486
 H49 H 0.43531 0.57104 0.50416
 H50 H 0.49649 0.52492 0.59399
 H51 H 0.47468 0.50479 0.41408
 H52 H 0.52278 0.49425 0.41432
 H53 H 0.56214 0.42821 0.50556
 H54 H 0.50081 0.47420 0.59428
 O55 O 0.39486 0.67294 -0.06016
 O56 O 0.39536 0.73718 -0.04643
 C57 C 0.37209 0.74184 -0.07797
 O58 O 0.33581 0.72483 -0.07054
 O59 O 0.26982 0.66255 -0.05669
 C60 C 0.26543 0.63317 -0.08264
 O61 O 0.28250 0.61496 -0.06885
 O62 O 0.34604 0.61368 -0.04663
 C63 C 0.37650 0.63786 -0.07223
 O64 O 0.39236 0.66237 0.05286
 O65 O 0.38905 0.72477 0.06649
 C66 C 0.36991 0.74187 0.07388
 O67 O 0.34200 0.73729 0.04233
 O68 O 0.27799 0.67318 0.05628
 C69 C 0.26109 0.63811 0.06849
 O70 O 0.26718 0.61384 0.04296
 O71 O 0.33190 0.61492 0.06518
 C72 C 0.36724 0.63305 0.07892
 Cr73 Cr 0.39076 0.69827 0.00302
 Cr74 Cr 0.30749 0.69841 -0.00698
 Cr75 Cr 0.30798 0.61648 -0.00184
 O76 O 0.33538 0.67099 -0.00194
 O77 O 0.60464 0.33776 -0.03968
 O78 O 0.60590 0.27496 -0.05899
 C79 C 0.62465 0.25856 -0.07374
 O80 O 0.65563 0.26397 -0.04977
 O81 O 0.71824 0.32839 -0.06916
 C82 C 0.73500 0.36373 -0.07924
 O83 O 0.73051 0.38733 -0.04935
 O84 O 0.66400 0.38502 -0.06077
 C85 C 0.62780 0.36631 -0.06919
 O86 O 0.61076 0.32808 0.07250
 O87 O 0.60915 0.26383 0.05322
 C88 C 0.63479 0.25856 0.07719
 O89 O 0.66999 0.27511 0.06243
 O90 O 0.73404 0.33810 0.04302
 C91 C 0.73932 0.36657 0.07251
 O92 O 0.72174 0.38515 0.06400
 O93 O 0.65737 0.38711 0.05255
 C94 C 0.62924 0.36343 0.08246
 Cr95 Cr 0.60977 0.30222 0.00659
 Cr96 Cr 0.69338 0.30245 -0.00320
 Cr97 Cr 0.69236 0.38405 0.00161
 O98 O 0.66513 0.32950 0.00167
 C99 C 0.43928 0.85809 -0.30631
 N100 N 0.42345 0.86723 -0.26239
 N101 N 0.41153 0.84535 -0.21634
 C102 C 0.41503 0.81364 -0.21286
 N103 N 0.43094 0.80454 -0.25671
 N104 N 0.44286 0.82642 -0.30276
 C105 C 0.44985 0.88032 -0.35723
 C106 C 0.45743 0.89837 -0.40056
 C107 C 0.40053 0.78907 -0.16449
 C108 C 0.38777 0.76783 -0.12457
 C109 C 0.14670 0.56891 -0.31088
 N110 N 0.17509 0.55985 -0.30317
 N111 N 0.19778 0.57212 -0.25761
 C112 C 0.19285 0.59390 -0.21845
 N113 N 0.16443 0.60291 -0.22611
 N114 N 0.14174 0.59064 -0.27168
 C115 C 0.12352 0.55730 -0.36127
 C116 C 0.10472 0.54866 -0.40427
 C117 C 0.21797 0.60787 -0.17015
 C118 C 0.23946 0.61957 -0.13000
 C119 C 0.43921 0.58231 -0.30030
 N120 N 0.41478 0.55577 -0.26302
 N121 N 0.40349 0.56625 -0.21655
 C122 C 0.41630 0.60361 -0.20597
 N123 N 0.44081 0.63015 -0.24318
 N124 N 0.45209 0.61966 -0.28965
 C125 C 0.44960 0.57082 -0.35178
 C126 C 0.45714 0.56057 -0.39550
 C127 C 0.40264 0.61488 -0.15754
 C128 C 0.39080 0.62493 -0.11792
 C129 C 0.56133 0.14274 -0.30265
 N130 N 0.58044 0.13587 -0.26070
 N131 N 0.59182 0.15760 -0.21452
 C132 C 0.58448 0.18689 -0.20894
 N133 N 0.56530 0.19371 -0.25084
 N134 N 0.55392 0.17198 -0.29702
 C135 C 0.55107 0.12071 -0.35371
 C136 C 0.54367 0.10283 -0.39712
 C137 C 0.59819 0.21135 -0.16042
 C138 C 0.61013 0.23255 -0.12040
 C139 C 0.85312 0.43043 -0.30764
 N140 N 0.82235 0.43617 -0.30224
 N141 N 0.79969 0.42354 -0.25670
 C142 C 0.80706 0.40470 -0.21527
 N143 N 0.83787 0.39901 -0.22063
 N144 N 0.86052 0.41164 -0.26617
 C145 C 0.87629 0.44224 -0.35799
 C146 C 0.89505 0.45099 -0.40097
 C147 C 0.78204 0.39026 -0.16699
 C148 C 0.76070 0.37806 -0.12677
 C149 C 0.55951 0.41694 -0.29678
 N150 N 0.55124 0.38040 -0.28898
 N151 N 0.56343 0.37057 -0.24269
 C152 C 0.58429 0.39697 -0.20285
 N153 N 0.59250 0.43350 -0.21059
 N154 N 0.58030 0.44333 -0.25687
 C155 C 0.54854 0.42806 -0.34817
 C156 C 0.54066 0.43808 -0.39188
 C157 C 0.59911 0.38671 -0.15457
 C158 C 0.61205 0.37772 -0.11499
 C159 C 0.85763 0.41743 0.30085
 N160 N 0.82889 0.38101 0.29355
 N161 N 0.80700 0.37112 0.24712
 C162 C 0.81316 0.39734 0.20662
 N163 N 0.84196 0.43374 0.21385
 N164 N 0.86386 0.44363 0.26028
 C165 C 0.87964 0.42866 0.35231
 C166 C 0.89753 0.43880 0.39604
 C167 C 0.78822 0.38704 0.15815
 C168 C 0.76640 0.37802 0.11843
 C169 C 0.58218 0.14240 0.30599
 N170 N 0.61860 0.17230 0.30105
 N171 N 0.62901 0.19412 0.25493
 C172 C 0.60331 0.18675 0.21238
 N173 N 0.56690 0.15681 0.21727
 N174 N 0.55649 0.13499 0.26339
 C175 C 0.57028 0.12024 0.35696
 C176 C 0.55966 0.10222 0.40030
 C177 C 0.61408 0.21128 0.16389
 C178 C 0.62333 0.23252 0.12388
 C179 C 0.57692 0.43009 0.30959
 N180 N 0.55078 0.41099 0.26818
 N181 N 0.56099 0.39833 0.22293
 C182 C 0.59761 0.40429 0.21781
 N183 N 0.62377 0.42344 0.25918
 N184 N 0.61356 0.43610 0.30443
 C185 C 0.56537 0.44194 0.35966
 C186 C 0.55522 0.45071 0.40244
 C187 C 0.60840 0.38985 0.16982
 C188 C 0.61770 0.37768 0.12981
 C189 C 0.14310 0.58320 0.29712
 N190 N 0.14091 0.55654 0.26013
 N191 N 0.16260 0.56689 0.21353
 C192 C 0.18713 0.60421 0.20252
 N193 N 0.18925 0.63087 0.23945
 N194 N 0.16757 0.62053 0.28606
 C195 C 0.12133 0.57187 0.34877
 C196 C 0.10364 0.56175 0.39262
 C197 C 0.21201 0.61534 0.15398
 C198 C 0.23387 0.62528 0.11427
 C199 C 0.41915 0.85775 0.30235
 N200 N 0.38351 0.82656 0.29818
 N201 N 0.37356 0.80479 0.25207
 C202 C 0.39896 0.81352 0.20877
 N203 N 0.43458 0.84476 0.21288
 N204 N 0.44452 0.86653 0.25899
 C205 C 0.43073 0.87983 0.35336
 C206 C 0.44112 0.89774 0.39676
 C207 C 0.38886 0.78903 0.16037
 C208 C 0.38033 0.76784 0.12045
 C209 C 0.42105 0.56874 0.30777
 N210 N 0.44801 0.59101 0.26910
 N211 N 0.43773 0.60329 0.22340
 C212 C 0.40018 0.59374 0.21505
 N213 N 0.37322 0.57142 0.25366
 N214 N 0.38350 0.55915 0.29937
 C215 C 0.43243 0.55709 0.35830
 C216 C 0.44242 0.54841 0.40141
 C217 C 0.38918 0.60772 0.16663
 C218 C 0.37950 0.61943 0.12637
   
