data_POSCAR
  _audit_creation_date              2014-09-24
  _audit_creation_method            'ToBaCCo'
  _symmetry_space_group_name_H-M    'P1'
  _symmetry_Int_Tables_number       1
  _symmetry_cell_setting            triclinic
  loop_
  _symmetry_equiv_pos_as_xyz
 x,y,z
_cell_length_a 53.3060
_cell_length_b 53.9131
_cell_length_c 53.9389
_cell_angle_alpha 92.554300
_cell_angle_beta 91.975400
_cell_angle_gamma 92.467100
loop_
  _atom_site_label
  _atom_site_type_symbol
  _atom_site_fract_x
  _atom_site_fract_y
  _atom_site_fract_z
N1 N 0.17003 0.22671 0.23512
 N2 N 0.17765 0.20776 0.24747
 C3 C 0.16244 0.20415 0.26652
 C4 C 0.14456 0.22181 0.26592
 C5 C 0.14978 0.23585 0.24589
 H6 H 0.16409 0.18974 0.27973
 H7 H 0.13954 0.25142 0.23958
 Cu8 Cu 0.20639 0.18934 0.23737
 Cu9 Cu 0.18666 0.23797 0.20597
 Cu10 Cu 0.23679 0.20459 0.18604
 N11 N 0.23382 0.17028 0.22508
 N12 N 0.24562 0.17632 0.20504
 C13 C 0.26357 0.16005 0.20067
 C14 C 0.26282 0.14304 0.21892
 C15 C 0.24386 0.14990 0.23414
 H16 H 0.27617 0.16053 0.18539
 H17 H 0.23785 0.14070 0.25047
 N18 N 0.22502 0.23376 0.16929
 N19 N 0.20588 0.24649 0.17689
 C20 C 0.20234 0.26523 0.16163
 C21 C 0.22010 0.26407 0.14376
 C22 C 0.23419 0.24405 0.14900
 H23 H 0.18796 0.27868 0.16332
 H24 H 0.24987 0.23751 0.13874
 H25 H 0.19950 0.20345 0.19550
 H26 H 0.22161 0.22487 0.21481
 N27 N 0.66860 0.72562 0.73132
 N28 N 0.67519 0.70555 0.74244
 C29 C 0.66010 0.70180 0.76156
 C30 C 0.64336 0.72053 0.76228
 C31 C 0.64912 0.73535 0.74297
 H32 H 0.66110 0.68662 0.77395
 H33 H 0.63979 0.75186 0.73773
 Cu34 Cu 0.70272 0.68629 0.73079
 Cu35 Cu 0.68552 0.73751 0.70252
 Cu36 Cu 0.73411 0.70282 0.68069
 N37 N 0.72965 0.66684 0.71811
 N38 N 0.74187 0.67339 0.69848
 C39 C 0.76002 0.65731 0.69418
 C40 C 0.75892 0.63987 0.71203
 C41 C 0.73961 0.64634 0.72697
 H42 H 0.77338 0.65856 0.67960
 H43 H 0.73375 0.63716 0.74336
 N44 N 0.72340 0.73318 0.66528
 N45 N 0.70493 0.74643 0.67365
 C46 C 0.70212 0.76597 0.65926
 C47 C 0.71963 0.76481 0.64117
 C48 C 0.73284 0.74395 0.64536
 H49 H 0.68836 0.77997 0.66166
 H50 H 0.74810 0.73715 0.63464
 H51 H 0.69681 0.70311 0.68994
 H52 H 0.71975 0.72242 0.71037
 N53 N 0.32283 0.75667 0.74542
 N54 N 0.31433 0.77483 0.75943
 C55 C 0.32925 0.77832 0.78011
 C56 C 0.34781 0.76132 0.77886
 C57 C 0.34331 0.74792 0.75671
 H58 H 0.32710 0.79242 0.79469
 H59 H 0.35431 0.73312 0.74926
 Cu60 Cu 0.28533 0.79298 0.74891
 Cu61 Cu 0.30697 0.74571 0.71361
 Cu62 Cu 0.25302 0.77473 0.69583
 N63 N 0.25903 0.81265 0.73489
 N64 N 0.24649 0.80549 0.71418
 C65 C 0.22909 0.82214 0.70916
 C66 C 0.23104 0.84064 0.72768
 C67 C 0.25012 0.83420 0.74372
 H68 H 0.21594 0.82075 0.69337
 H69 H 0.25681 0.84430 0.76061
 N70 N 0.26725 0.74781 0.67567
 N71 N 0.28808 0.73702 0.68224
 C72 C 0.29332 0.71993 0.66438
 C73 C 0.27496 0.72015 0.64579
 C74 C 0.25875 0.73797 0.65339
 H75 H 0.30934 0.70829 0.66474
 H76 H 0.24224 0.74362 0.64326
 H77 H 0.29036 0.77886 0.70609
 H78 H 0.27180 0.75549 0.72338
 N79 N 0.82301 0.25665 0.24681
 N80 N 0.81580 0.27611 0.25988
 C81 C 0.83061 0.27942 0.28067
 C82 C 0.84773 0.26095 0.28045
 C83 C 0.84255 0.24688 0.25879
 H84 H 0.82952 0.29445 0.29450
 H85 H 0.85273 0.23124 0.25189
 Cu86 Cu 0.78855 0.29574 0.24765
 Cu87 Cu 0.80771 0.24626 0.21448
 Cu88 Cu 0.75890 0.28079 0.19265
 N89 N 0.76083 0.31473 0.23542
 N90 N 0.74930 0.30873 0.21389
 C91 C 0.73116 0.32482 0.20971
 C92 C 0.73143 0.34169 0.22967
 C93 C 0.75038 0.33490 0.24568
 H94 H 0.71884 0.32441 0.19333
 H95 H 0.75618 0.34408 0.26331
 N96 N 0.77132 0.25186 0.17389
 N97 N 0.78989 0.23867 0.18221
 C98 C 0.79433 0.22059 0.16504
 C99 C 0.77775 0.22259 0.14516
 C100 C 0.76344 0.24250 0.15122
 H101 H 0.80873 0.20717 0.16668
 H102 H 0.74863 0.24975 0.13981
 H103 H 0.79598 0.28081 0.20528
 H104 H 0.77299 0.26028 0.22099
 N105 N 0.81349 0.73609 0.25875
 N106 N 0.80663 0.71446 0.24778
 C107 C 0.82272 0.70922 0.22972
 C108 C 0.84040 0.72863 0.22952
 C109 C 0.83411 0.74536 0.24807
 H110 H 0.82175 0.69258 0.21771
 H111 H 0.84387 0.76288 0.25344
 Cu112 Cu 0.77752 0.69516 0.25835
 Cu113 Cu 0.79551 0.75049 0.28627
 Cu114 Cu 0.74424 0.71612 0.30626
 N115 N 0.74914 0.67580 0.27039
 N116 N 0.73614 0.68414 0.28906
 C117 C 0.71806 0.66698 0.29392
 C118 C 0.71992 0.64697 0.27740
 C119 C 0.73976 0.65302 0.26275
 H120 H 0.70482 0.66875 0.30858
 H121 H 0.74698 0.64152 0.24792
 N122 N 0.75535 0.74889 0.32134
 N123 N 0.77495 0.76195 0.31380
 C124 C 0.77873 0.78258 0.32876
 C125 C 0.76057 0.78241 0.34630
 C126 C 0.74613 0.76087 0.34125
 H127 H 0.79413 0.79617 0.32768
 H128 H 0.73080 0.75396 0.35201
 H129 H 0.78215 0.71695 0.29896
 H130 H 0.76109 0.73292 0.27699
 N131 N 0.31519 0.23650 -0.24134
 N132 N 0.30892 0.21455 -0.25198
 C133 C 0.32472 0.20977 -0.27042
 C134 C 0.34158 0.22980 -0.27119
 C135 C 0.33517 0.24643 -0.25259
 H136 H 0.32420 0.19297 -0.28219
 H137 H 0.34447 0.26424 -0.24745
 Cu138 Cu 0.28109 0.19423 -0.24026
 Cu139 Cu 0.29743 0.25033 -0.21332
 Cu140 Cu 0.24717 0.21474 -0.19281
 N141 N 0.25270 0.17454 -0.22872
 N142 N 0.23947 0.18274 -0.21016
 C143 C 0.22139 0.16550 -0.20556
 C144 C 0.22347 0.14559 -0.22215
 C145 C 0.24344 0.15178 -0.23659
 H146 H 0.20797 0.16716 -0.19105
 H147 H 0.25078 0.14042 -0.25145
 N148 N 0.25788 0.24757 -0.17763
 N149 N 0.27711 0.26111 -0.18528
 C150 C 0.28049 0.28179 -0.17031
 C151 C 0.26245 0.28110 -0.15263
 C152 C 0.24850 0.25928 -0.15766
 H153 H 0.29537 0.29588 -0.17164
 H154 H 0.23323 0.25211 -0.14697
 H155 H 0.28502 0.21678 -0.20000
 H156 H 0.26346 0.23165 -0.22233
 N157 N 0.67445 0.26587 -0.25026
 N158 N 0.68318 0.28475 -0.26253
 C159 C 0.66704 0.28867 -0.28165
 C160 C 0.64740 0.27121 -0.28120
 C161 C 0.65254 0.25708 -0.26112
 H162 H 0.66909 0.30337 -0.29453
 H163 H 0.64095 0.24191 -0.25461
 Cu164 Cu 0.71427 0.30283 -0.25145
 Cu165 Cu 0.69148 0.25465 -0.22043
 Cu166 Cu 0.74676 0.28707 -0.20060
 N167 N 0.74531 0.32093 -0.24028
 N168 N 0.75790 0.31464 -0.22029
 C169 C 0.77778 0.33068 -0.21585
 C170 C 0.77759 0.34779 -0.23407
 C171 C 0.75678 0.34125 -0.24924
 H172 H 0.79091 0.33043 -0.20013
 H173 H 0.75010 0.35109 -0.26502
 N174 N 0.73251 0.25865 -0.18317
 N175 N 0.71149 0.24624 -0.19070
 C176 C 0.70682 0.22794 -0.17499
 C177 C 0.72578 0.22906 -0.15689
 C178 C 0.74173 0.24860 -0.16252
 H179 H 0.69093 0.21475 -0.17659
 H180 H 0.75881 0.25491 -0.15233
 H181 H 0.70879 0.28853 -0.20962
 H182 H 0.72713 0.26688 -0.22905
 N183 N 0.17620 0.76677 0.25160
 N184 N 0.18516 0.78511 0.23873
 C185 C 0.16842 0.78954 0.22031
 C186 C 0.14812 0.77300 0.22178
 C187 C 0.15354 0.75884 0.24178
 H188 H 0.17061 0.80391 0.20709
 H189 H 0.14175 0.74410 0.24880
 Cu190 Cu 0.21744 0.80210 0.24757
 Cu191 Cu 0.19423 0.75500 0.28048
 Cu192 Cu 0.25053 0.78600 0.29851
 N193 N 0.24846 0.82003 0.25915
 N194 N 0.26132 0.81371 0.27898
 C195 C 0.28119 0.82982 0.28327
 C196 C 0.28067 0.84697 0.26508
 C197 C 0.25969 0.84044 0.25017
 H198 H 0.29454 0.82953 0.29883
 H199 H 0.25268 0.85030 0.23452
 N200 N 0.23667 0.75748 0.31597
 N201 N 0.21514 0.74568 0.30914
 C202 C 0.21055 0.72743 0.32489
 C203 C 0.23012 0.72790 0.34229
 C204 C 0.24635 0.74706 0.33623
 H205 H 0.19415 0.71485 0.32394
 H206 H 0.26376 0.75306 0.34600
 H207 H 0.21280 0.78866 0.28967
 H208 H 0.23006 0.76595 0.27019
 N209 N 0.48330 0.42366 0.48877
 N210 N 0.46371 0.42983 0.50151
 C211 C 0.46078 0.41398 0.51993
 C212 C 0.47953 0.39717 0.51859
 C213 C 0.49348 0.40371 0.49864
 H214 H 0.44585 0.41423 0.53301
 H215 H 0.50945 0.39432 0.49153
 Cu216 Cu 0.44343 0.45734 0.49197
 Cu217 Cu 0.49344 0.44133 0.45966
 Cu218 Cu 0.45757 0.49047 0.44264
 N219 N 0.42339 0.48504 0.48247
 N220 N 0.42914 0.49791 0.46312
 C221 C 0.41225 0.51549 0.46015
 C222 C 0.39512 0.51351 0.47859
 C223 C 0.40257 0.49404 0.49245
 H224 H 0.41218 0.52850 0.44545
 H225 H 0.39331 0.48683 0.50831
 N226 N 0.48705 0.48010 0.42429
 N227 N 0.50074 0.46141 0.43081
 C228 C 0.51904 0.45855 0.41442
 C229 C 0.51670 0.47624 0.39693
 C230 C 0.49631 0.48958 0.40358
 H231 H 0.53280 0.44440 0.41487
 H232 H 0.48859 0.50475 0.39379
 H233 H 0.47881 0.47498 0.47013
 H234 H 0.45823 0.45321 0.44975
 N235 N -0.01675 -0.07906 0.98541
 N236 N -0.03634 -0.07288 0.99814
 C237 C -0.03897 -0.08840 1.01688
 C238 C -0.02006 -0.10504 1.01572
 C239 C -0.00628 -0.09872 0.99560
 H240 H -0.05360 -0.08782 1.03027
 H241 H 0.00999 -0.10783 0.98880
 Cu242 Cu -0.05667 -0.04536 0.98871
 Cu243 Cu -0.00654 -0.06136 0.95638
 Cu244 Cu -0.04206 -0.01193 0.93963
 N245 N -0.07630 -0.01730 0.97940
 N246 N -0.07041 -0.00435 0.96015
 C247 C -0.08674 0.01383 0.95769
 C248 C -0.10367 0.01214 0.97635
 C249 C -0.09664 -0.00773 0.98985
 H250 H -0.08636 0.02728 0.94340
 H251 H -0.10566 -0.01464 1.00598
 N252 N -0.01266 -0.02243 0.92116
 N253 N 0.00086 -0.04125 0.92759
 C254 C 0.01924 -0.04408 0.91128
 C255 C 0.01712 -0.02623 0.89392
 C256 C -0.00322 -0.01281 0.90059
 H257 H 0.03297 -0.05826 0.91173
 H258 H -0.01071 0.00257 0.89097
 H259 H -0.02105 -0.02772 0.96716
 H260 H -0.04164 -0.04926 0.94653
 N261 N 1.03668 0.59302 0.97787
 N262 N 1.05777 0.58917 0.99023
 C263 C 1.06089 0.60627 1.00926
 C264 C 1.04074 0.62151 1.00850
 C265 C 1.02573 0.61264 0.98850
 H266 H 1.07627 0.60726 1.02292
 H267 H 1.00789 0.61958 0.98250
 Cu268 Cu 1.07826 0.56146 0.98056
 Cu269 Cu 1.02424 0.57182 0.94955
 Cu270 Cu 1.06097 0.52324 0.93141
 N271 N 1.09885 0.53410 0.97012
 N272 N 1.09197 0.51953 0.95062
 C273 C 1.10839 0.50144 0.94803
 C274 C 1.12646 0.50485 0.96683
 C275 C 1.11994 0.52560 0.98068
 H276 H 1.10664 0.48618 0.93428
 H277 H 1.12919 0.53317 0.99768
 N278 N 1.02896 0.52994 0.91434
 N279 N 1.01487 0.54837 0.92135
 C280 C 0.99440 0.54825 0.90600
 C281 C 0.99577 0.52884 0.88872
 C282 C 1.01782 0.51761 0.89434
 H283 H 0.97978 0.56153 0.90698
 H284 H 1.02531 0.50191 0.88435
 H285 H 1.04167 0.54008 0.95965
 H286 H 1.05907 0.56100 0.93884
 N287 N 0.53564 0.09366 0.47537
 N288 N 0.55619 0.08891 0.48821
 C289 C 0.55947 0.10580 0.50742
 C290 C 0.53999 0.12183 0.50627
 C291 C 0.52522 0.11364 0.48587
 H292 H 0.57447 0.10610 0.52146
 H293 H 0.50782 0.12129 0.47953
 Cu294 Cu 0.57579 0.06043 0.47886
 Cu295 Cu 0.52301 0.07303 0.44673
 Cu296 Cu 0.55807 0.02303 0.42920
 N297 N 0.59556 0.03239 0.46850
 N298 N 0.58847 0.01809 0.44888
 C299 C 0.60449 -0.00035 0.44619
 C300 C 0.62252 0.00257 0.46505
 C301 C 0.61642 0.02339 0.47902
 H302 H 0.60265 -0.01531 0.43212
 H303 H 0.62594 0.03084 0.49594
 N304 N 0.52677 0.03096 0.41158
 N305 N 0.51335 0.05001 0.41828
 C306 C 0.49320 0.05062 0.40259
 C307 C 0.49411 0.03104 0.38542
 C308 C 0.51552 0.01895 0.39146
 H309 H 0.47907 0.06441 0.40334
 H310 H 0.52248 0.00282 0.38174
 H311 H 0.53882 0.04063 0.45711
 H312 H 0.55760 0.06095 0.43680
 N313 N -0.02905 0.09944 0.53506
 N314 N -0.04956 0.09242 0.52185
 C315 C -0.05277 0.10805 0.50336
 C316 C -0.03339 0.12581 0.50524
 C317 C -0.01856 0.11988 0.52541
 H318 H -0.06758 0.10615 0.48909
 H319 H -0.00106 0.12920 0.53202
 Cu320 Cu -0.06951 0.06285 0.52893
 Cu321 Cu -0.01680 0.08055 0.56272
 Cu322 Cu -0.04829 0.02411 0.57097
 N323 N -0.08434 0.02955 0.53104
 N324 N -0.07599 0.01451 0.54767
 C325 C -0.09002 -0.00688 0.54592
 C326 C -0.10794 -0.00506 0.52717
 C327 C -0.10400 0.01823 0.51808
 H328 H -0.08779 -0.02234 0.55779
 H329 H -0.11495 0.02648 0.50361
 N330 N -0.01985 0.03699 0.59264
 N331 N -0.00765 0.05843 0.58957
 C332 C 0.01142 0.06135 0.60673
 C333 C 0.01089 0.04082 0.62112
 C334 C -0.00899 0.02578 0.61177
 H335 H 0.02498 0.07690 0.60829
 H336 H -0.01468 0.00770 0.61810
 H337 H -0.03093 0.04739 0.54648
 H338 H -0.05023 0.06254 0.57064
 N339 N 0.47089 0.59763 0.03362
 N340 N 0.45058 0.59081 0.02004
 C341 C 0.44772 0.60673 0.00174
 C342 C 0.46714 0.62442 0.00409
 C343 C 0.48163 0.61818 0.02438
 H344 H 0.43321 0.60503 -0.01283
 H345 H 0.49909 0.62734 0.03130
 Cu346 Cu 0.43052 0.56086 0.02581
 Cu347 Cu 0.48253 0.57844 0.06121
 Cu348 Cu 0.44994 0.52280 0.06975
 N349 N 0.41424 0.52841 0.02966
 N350 N 0.42199 0.51357 0.04674
 C351 C 0.40704 0.49277 0.04573
 C352 C 0.38915 0.49476 0.02699
 C353 C 0.39405 0.51754 0.01716
 H354 H 0.40859 0.47764 0.05813
 H355 H 0.38338 0.52577 0.00248
 N356 N 0.47868 0.53511 0.09128
 N357 N 0.49126 0.55632 0.08813
 C358 C 0.51024 0.55907 0.10539
 C359 C 0.50930 0.53866 0.11994
 C360 C 0.48923 0.52386 0.11057
 H361 H 0.52397 0.57448 0.10699
 H362 H 0.48311 0.50599 0.11707
 H363 H 0.46835 0.54515 0.04502
 H364 H 0.44844 0.56115 0.06815
 N365 N 0.52641 -0.08390 0.02387
 N366 N 0.54478 -0.07622 0.01004
 C367 C 0.54445 -0.09059 -0.01106
 C368 C 0.52480 -0.10796 -0.01027
 C369 C 0.51374 -0.10337 0.01206
 H370 H 0.55768 -0.08888 -0.02571
 H371 H 0.49793 -0.11362 0.01930
 Cu372 Cu 0.56762 -0.04863 0.02129
 Cu373 Cu 0.52044 -0.06819 0.05611
 Cu374 Cu 0.56093 -0.01876 0.07667
 N375 N 0.59067 -0.02148 0.03321
 N376 N 0.58806 -0.00972 0.05481
 C377 C 0.60611 0.00859 0.05799
 C378 C 0.62067 0.00801 0.03730
 C379 C 0.61043 -0.01114 0.02196
 H380 H 0.60821 0.02156 0.07388
 H381 H 0.61670 -0.01675 0.00378
 N382 N 0.53234 -0.03092 0.09597
 N383 N 0.51727 -0.04999 0.08814
 C384 C 0.49900 -0.05312 0.10446
 C385 C 0.50274 -0.03527 0.12337
 C386 C 0.52388 -0.02136 0.11752
 H387 H 0.48336 -0.06657 0.10221
 H388 H 0.53181 -0.00493 0.12763
 H389 H 0.53607 -0.03338 0.04918
 H390 H 0.55725 -0.05545 0.06418
 N391 N 1.02359 0.41768 0.52483
 N392 N 1.04265 0.42511 0.51174
 C393 C 1.04299 0.41066 0.49073
 C394 C 1.02309 0.39350 0.49082
 C395 C 1.01116 0.39830 0.51264
 H396 H 1.05682 0.41221 0.47661
 H397 H 0.99491 0.38826 0.51927
 Cu398 Cu 1.06523 0.45265 0.52376
 Cu399 Cu 1.01649 0.43349 0.55675
 Cu400 Cu 1.05664 0.48268 0.57861
 N401 N 1.08796 0.47986 0.53628
 N402 N 1.08454 0.49165 0.55771
 C403 C 1.10224 0.51021 0.56134
 C404 C 1.11745 0.50982 0.54115
 C405 C 1.10794 0.49048 0.52559
 H406 H 1.10355 0.52336 0.57712
 H407 H 1.11470 0.48506 0.50755
 N408 N 1.02734 0.47064 0.59692
 N409 N 1.01227 0.45178 0.58856
 C410 C 0.99352 0.44869 0.60437
 C411 C 0.99700 0.46635 0.62349
 C412 C 1.01846 0.48008 0.61831
 H413 H 0.97789 0.43527 0.60174
 H414 H 1.02643 0.49624 0.62885
 H415 H 1.03269 0.46816 0.55029
 H416 H 1.05306 0.44598 0.56616
 C417 C 0.35793 0.02438 0.23752
 C418 C 0.34328 0.00059 0.24367
 C419 C 0.35780 -0.01868 0.24918
 C420 C 0.38616 -0.01240 0.24802
 C421 C 0.37628 0.02996 0.25977
 C422 C 0.39101 0.01084 0.26539
 C423 C 0.37499 0.01638 0.21644
 C424 C 0.38982 -0.00277 0.22190
 H425 H 0.32293 -0.00101 0.24273
 H426 H 0.39808 -0.02808 0.25250
 H427 H 0.37747 0.04771 0.27007
 H428 H 0.37776 0.02671 0.19999
 C429 C 0.14283 -0.03581 0.74576
 C430 C 0.15850 -0.01192 0.75289
 C431 C 0.14482 0.00818 0.75860
 C432 C 0.11617 0.00255 0.75623
 C433 C 0.12528 -0.03933 0.76730
 C434 C 0.11130 -0.01945 0.77291
 C435 C 0.12566 -0.02833 0.72410
 C436 C 0.11131 -0.00854 0.72950
 H437 H 0.17878 -0.01082 0.75206
 H438 H 0.10475 0.01862 0.76107
 H439 H 0.12448 -0.05615 0.77755
 H440 H 0.12622 -0.03649 0.70552
 C441 C 0.64037 0.46485 0.24748
 C442 C 0.65584 0.48897 0.25414
 C443 C 0.64199 0.50905 0.25948
 C444 C 0.61338 0.50316 0.25718
 C445 C 0.62288 0.46163 0.26910
 C446 C 0.60873 0.48148 0.27432
 C447 C 0.62311 0.47176 0.22566
 C448 C 0.60860 0.49151 0.23064
 H449 H 0.67612 0.49018 0.25337
 H450 H 0.60180 0.51922 0.26166
 H451 H 0.62231 0.44506 0.27975
 H452 H 0.62372 0.46324 0.20722
 C453 C 0.85738 0.52698 0.74390
 C454 C 0.84246 0.50319 0.74974
 C455 C 0.85676 0.48339 0.75390
 C456 C 0.88515 0.48925 0.75213
 C457 C 0.87617 0.53128 0.76612
 C458 C 0.89083 0.51172 0.77028
 C459 C 0.87359 0.51942 0.72215
 C460 C 0.88824 0.49984 0.72636
 H461 H 0.82212 0.50203 0.74979
 H462 H 0.89687 0.47317 0.75566
 H463 H 0.87749 0.54768 0.77836
 H464 H 0.87471 0.53001 0.70560
 C465 C 0.23928 0.35996 0.02655
 C466 C 0.24211 0.34525 0.00205
 C467 C 0.24681 0.35940 -0.01764
 C468 C 0.24863 0.38749 -0.01094
 C469 C 0.26337 0.37646 0.03003
 C470 C 0.26832 0.39099 0.01061
 C471 C 0.21887 0.37846 0.02096
 C472 C 0.22368 0.39282 0.00134
 H473 H 0.24037 0.32514 0.00056
 H474 H 0.25242 0.39908 -0.02699
 H475 H 0.27493 0.37722 0.04698
 H476 H 0.20342 0.38206 0.03286
 C477 C 0.75041 0.13829 -0.03586
 C478 C 0.75531 0.15472 -0.01223
 C479 C 0.76023 0.14219 0.00864
 C480 C 0.75948 0.11371 0.00388
 C481 C 0.77330 0.12201 -0.03748
 C482 C 0.77830 0.10936 -0.01673
 C483 C 0.72900 0.11993 -0.02959
 C484 C 0.73350 0.10700 -0.00883
 H485 H 0.75423 0.17474 -0.01217
 H486 H 0.76373 0.10324 0.02063
 H487 H 0.78357 0.11918 -0.05425
 H488 H 0.71180 0.11734 -0.04080
 C489 C 0.24718 0.63739 0.46478
 C490 C 0.25508 0.65369 0.48796
 C491 C 0.25975 0.64090 0.50869
 C492 C 0.25639 0.61255 0.50429
 C493 C 0.26814 0.61899 0.46190
 C494 C 0.27318 0.60607 0.48248
 C495 C 0.22466 0.62117 0.47280
 C496 C 0.22936 0.60833 0.49355
 H497 H 0.25508 0.67379 0.48820
 H498 H 0.26040 0.60203 0.52107
 H499 H 0.27835 0.61673 0.44499
 H500 H 0.20712 0.61838 0.46223
 C501 C 0.74056 0.86247 0.52573
 C502 C 0.74388 0.84736 0.50153
 C503 C 0.74883 0.86120 0.48168
 C504 C 0.74989 0.88937 0.48778
 C505 C 0.76440 0.87933 0.52916
 C506 C 0.76975 0.89316 0.50930
 C507 C 0.71999 0.88053 0.51961
 C508 C 0.72457 0.89447 0.49967
 H509 H 0.74197 0.82725 0.50026
 H510 H 0.75388 0.90043 0.47142
 H511 H 0.77551 0.88076 0.54639
 H512 H 0.70431 0.88387 0.53129
 C513 C 0.02565 0.24160 0.36220
 C514 C 0.00081 0.24161 0.34721
 C515 C -0.01960 0.24575 0.36101
 C516 C -0.01330 0.24957 0.38901
 C517 C 0.02733 0.26645 0.37718
 C518 C 0.00697 0.27098 0.39100
 C519 C 0.02128 0.22245 0.38196
 C520 C 0.00072 0.22616 0.39579
 H521 H -0.00027 0.23926 0.32715
 H522 H -0.03009 0.25288 0.40005
 H523 H 0.04401 0.27868 0.37791
 H524 H 0.03433 0.20827 0.38605
 C525 C -0.03548 0.74868 0.13875
 C526 C -0.01175 0.75308 0.15542
 C527 C 0.00969 0.75754 0.14303
 C528 C 0.00540 0.75750 0.11467
 C529 C -0.03635 0.77151 0.12287
 C530 C -0.01500 0.77650 0.11051
 C531 C -0.02921 0.72763 0.12015
 C532 C -0.00762 0.73187 0.10784
 H533 H -0.01206 0.75250 0.17545
 H534 H 0.02287 0.76126 0.10465
 H535 H -0.05297 0.78219 0.12073
 H536 H -0.04128 0.71121 0.11618
 C537 C 0.46485 0.24708 0.63867
 C538 C 0.48921 0.25137 0.65448
 C539 C 0.51005 0.25645 0.64136
 C540 C 0.50456 0.25704 0.61317
 C541 C 0.46307 0.27024 0.62348
 C542 C 0.48354 0.27552 0.60995
 C543 C 0.47100 0.22626 0.61965
 C544 C 0.49168 0.23143 0.60626
 H545 H 0.48985 0.24975 0.67443
 H546 H 0.52131 0.26123 0.60219
 H547 H 0.44661 0.28134 0.62336
 H548 H 0.46152 0.20813 0.61819
 C549 C 0.52658 0.74038 0.86105
 C550 C 0.50169 0.74051 0.84618
 C551 C 0.48135 0.74459 0.86008
 C552 C 0.48774 0.74820 0.88807
 C553 C 0.52833 0.76514 0.87619
 C554 C 0.50802 0.76959 0.89010
 C555 C 0.52227 0.72109 0.88070
 C556 C 0.50177 0.72472 0.89465
 H557 H 0.50053 0.73840 0.82609
 H558 H 0.47100 0.75149 0.89917
 H559 H 0.54496 0.77743 0.87686
 H560 H 0.53537 0.70693 0.88466
 C561 C 0.08715 0.23084 0.31281
 C562 C 0.07728 0.21071 0.32533
 C563 C 0.05750 0.21395 0.34132
 C564 C 0.12442 0.22483 0.28251
 C565 C 0.05722 0.25747 0.33193
 C566 C 0.07698 0.25417 0.31597
 C567 C 0.10744 0.22750 0.29636
 C568 C 0.04764 0.23760 0.34543
 H569 H 0.08470 0.19244 0.32256
 H570 H 0.04979 0.19774 0.34992
 H571 H 0.04933 0.27562 0.33361
 H572 H 0.08422 0.26978 0.30599
 C573 C 0.58742 0.72986 0.81083
 C574 C 0.57780 0.70969 0.82347
 C575 C 0.55830 0.71287 0.83980
 C576 C 0.62375 0.72376 0.77945
 C577 C 0.55787 0.75644 0.83062
 C578 C 0.57735 0.75320 0.81432
 C579 C 0.60722 0.72651 0.79381
 C580 C 0.54847 0.73649 0.84414
 H581 H 0.58516 0.69141 0.82047
 H582 H 0.55073 0.69662 0.84844
 H583 H 0.55000 0.77458 0.83251
 H584 H 0.58440 0.76884 0.80427
 C585 C 0.40945 0.75208 0.82373
 C586 C 0.41650 0.76728 0.84479
 C587 C 0.43958 0.76429 0.85730
 C588 C 0.36869 0.75885 0.79599
 C589 C 0.44820 0.73060 0.82800
 C590 C 0.42519 0.73352 0.81564
 C591 C 0.38688 0.75612 0.80932
 C592 C 0.45585 0.74623 0.84868
 H593 H 0.40448 0.78177 0.85116
 H594 H 0.44513 0.77673 0.87304
 H595 H 0.46020 0.71629 0.82117
 H596 H 0.41991 0.72163 0.79940
 C597 C -0.09160 0.25222 0.32441
 C598 C -0.08475 0.26758 0.34542
 C599 C -0.06164 0.26493 0.35800
 C600 C -0.13243 0.25855 0.29657
 C601 C -0.05255 0.23124 0.32888
 C602 C -0.07560 0.23383 0.31645
 C603 C -0.11421 0.25596 0.30992
 C604 C -0.04511 0.24705 0.34951
 H605 H -0.09696 0.28195 0.35168
 H606 H -0.05627 0.27749 0.37369
 H607 H -0.04038 0.21704 0.32216
 H608 H -0.08071 0.22182 0.30025
 C609 C -0.10022 0.73705 0.18443
 C610 C -0.08862 0.71657 0.17381
 C611 C -0.06790 0.72011 0.15892
 C612 C -0.13881 0.73105 0.21343
 C613 C -0.07017 0.76467 0.16551
 C614 C -0.09087 0.76107 0.18033
 C615 C -0.12127 0.73353 0.20010
 C616 C -0.05873 0.74428 0.15399
 H617 H -0.09539 0.69786 0.17729
 H618 H -0.05889 0.70381 0.15187
 H619 H -0.06296 0.78348 0.16328
 H620 H -0.09942 0.77706 0.18883
 C621 C 0.39979 0.23762 0.68439
 C622 C 0.40328 0.22038 0.66481
 C623 C 0.42401 0.22312 0.64978
 C624 C 0.36116 0.23230 0.71348
 C625 C 0.43763 0.26061 0.67379
 C626 C 0.41692 0.25782 0.68875
 C627 C 0.37867 0.23464 0.70009
 C628 C 0.44181 0.24311 0.65432
 H629 H 0.38994 0.20481 0.66111
 H630 H 0.42554 0.20964 0.63461
 H631 H 0.45056 0.27650 0.67748
 H632 H 0.41430 0.27141 0.70373
 C633 C 0.58323 0.26397 0.67775
 C634 C 0.57776 0.27816 0.65725
 C635 C 0.55410 0.27543 0.64498
 C636 C 0.62621 0.26937 0.70390
 C637 C 0.54159 0.24410 0.67350
 C638 C 0.56515 0.24679 0.68563
 C639 C 0.60694 0.26725 0.69143
 C640 C 0.53562 0.25865 0.65327
 H641 H 0.59162 0.29153 0.65098
 H642 H 0.55007 0.28690 0.62952
 H643 H 0.52806 0.23054 0.67999
 H644 H 0.56919 0.23560 0.70136
 C645 C 0.08209 0.76643 0.18087
 C646 C 0.07699 0.77996 0.15982
 C647 C 0.05347 0.77700 0.14732
 C648 C 0.12540 0.77138 0.20649
 C649 C 0.04025 0.74695 0.17686
 C650 C 0.06368 0.74987 0.18924
 C651 C 0.10592 0.76948 0.19434
 C652 C 0.03479 0.76058 0.15584
 H653 H 0.09108 0.79288 0.15317
 H654 H 0.04974 0.78790 0.13133
 H655 H 0.02648 0.73378 0.18361
 H656 H 0.06743 0.73921 0.20541
 C657 C 0.30810 0.08485 0.22690
 C658 C 0.31123 0.07474 0.25014
 C659 C 0.32717 0.05517 0.25316
 C660 C 0.27865 0.12247 0.22161
 C661 C 0.33665 0.05550 0.20956
 C662 C 0.32067 0.07511 0.20660
 C663 C 0.29203 0.10527 0.22394
 C664 C 0.34055 0.04554 0.23307
 H665 H 0.30139 0.08202 0.26594
 H666 H 0.32922 0.04756 0.27134
 H667 H 0.34546 0.04825 0.19324
 H668 H 0.31808 0.08266 0.18845
 C669 C 0.80757 0.58549 0.72517
 C670 C 0.82657 0.59036 0.74342
 C671 C 0.84300 0.57193 0.74952
 C672 C 0.77590 0.62044 0.71587
 C673 C 0.82162 0.54372 0.71870
 C674 C 0.80522 0.56222 0.71265
 C675 C 0.79029 0.60436 0.71974
 C676 C 0.84047 0.54807 0.73757
 H677 H 0.82864 0.60845 0.75306
 H678 H 0.85751 0.57688 0.76346
 H679 H 0.81945 0.52580 0.70878
 H680 H 0.79063 0.55832 0.69835
 C681 C 0.82063 0.41199 0.76332
 C682 C 0.84280 0.41376 0.75016
 C683 C 0.85523 0.43694 0.74788
 C684 C 0.79368 0.36977 0.76487
 C685 C 0.82367 0.45642 0.77248
 C686 C 0.81137 0.43331 0.77480
 C687 C 0.80647 0.38870 0.76414
 C688 C 0.84545 0.45855 0.75858
 H689 H 0.85011 0.39736 0.74116
 H690 H 0.87183 0.43807 0.73691
 H691 H 0.81594 0.47269 0.78128
 H692 H 0.79429 0.43216 0.78510
 C693 C 0.32246 -0.08996 0.26099
 C694 C 0.31253 -0.06833 0.27112
 C695 C 0.32457 -0.04524 0.26803
 C696 C 0.29584 -0.13223 0.26375
 C697 C 0.35716 -0.06528 0.24535
 C698 C 0.34500 -0.08847 0.24839
 C699 C 0.30855 -0.11330 0.26252
 C700 C 0.34673 -0.04341 0.25468
 H701 H 0.29515 -0.06926 0.28094
 H702 H 0.31632 -0.02874 0.27578
 H703 H 0.37407 -0.06439 0.23481
 H704 H 0.35281 -0.10509 0.24039
 C705 C 0.18836 -0.10033 0.73560
 C706 C 0.19259 -0.08377 0.75614
 C707 C 0.17784 -0.06312 0.75912
 C708 C 0.21651 -0.13932 0.73017
 C709 C 0.15424 -0.07566 0.72114
 C710 C 0.16906 -0.09632 0.71821
 C711 C 0.20364 -0.12157 0.73256
 C712 C 0.15874 -0.05839 0.74143
 H713 H 0.20725 -0.08687 0.76993
 H714 H 0.18134 -0.05075 0.77536
 H715 H 0.13910 -0.07380 0.70765
 H716 H 0.16532 -0.10928 0.70245
 C717 C 0.68669 0.40082 0.23828
 C718 C 0.69089 0.41779 0.25850
 C719 C 0.67582 0.43824 0.26123
 C720 C 0.71561 0.36243 0.23282
 C721 C 0.65200 0.42465 0.22366
 C722 C 0.66713 0.40420 0.22099
 C723 C 0.70239 0.37989 0.23534
 C724 C 0.65648 0.44236 0.24357
 H725 H 0.70579 0.41521 0.27218
 H726 H 0.67929 0.45095 0.27721
 H727 H 0.63668 0.42602 0.21028
 H728 H 0.66346 0.39094 0.20546
 C729 C 0.67913 0.58099 0.27320
 C730 C 0.65522 0.57894 0.26155
 C731 C 0.64267 0.55566 0.25791
 C732 C 0.70508 0.62403 0.27631
 C733 C 0.67760 0.53653 0.27824
 C734 C 0.69010 0.55979 0.28190
 C735 C 0.69299 0.60456 0.27512
 C736 C 0.65395 0.53409 0.26567
 H737 H 0.64653 0.59524 0.25474
 H738 H 0.62465 0.55457 0.24819
 H739 H 0.68663 0.52041 0.28501
 H740 H 0.70855 0.56115 0.29107
 C741 C 0.18242 0.07979 0.77297
 C742 C 0.15852 0.07800 0.76130
 C743 C 0.14582 0.05482 0.75745
 C744 C 0.20860 0.12268 0.77647
 C745 C 0.18058 0.03527 0.77761
 C746 C 0.19323 0.05843 0.78148
 C747 C 0.19643 0.10326 0.77509
 C748 C 0.15694 0.03310 0.76503
 H749 H 0.14996 0.09442 0.75463
 H750 H 0.12783 0.05394 0.74769
 H751 H 0.18948 0.01901 0.78422
 H752 H 0.21167 0.05960 0.79067
 C753 C 0.22885 0.31025 0.08677
 C754 C 0.25216 0.31302 0.07592
 C755 C 0.25521 0.32901 0.05650
 C756 C 0.22318 0.28030 0.12370
 C757 C 0.21148 0.33924 0.05850
 C758 C 0.20850 0.32321 0.07793
 C759 C 0.22576 0.29394 0.10684
 C760 C 0.23510 0.34285 0.04787
 H761 H 0.26796 0.30280 0.08244
 H762 H 0.27338 0.33062 0.04819
 H763 H 0.19506 0.34825 0.05178
 H764 H 0.19025 0.32082 0.08597
 C765 C 0.72953 0.81266 0.58575
 C766 C 0.75326 0.81643 0.57601
 C767 C 0.75657 0.83259 0.55678
 C768 C 0.72317 0.78170 0.62173
 C769 C 0.71230 0.84108 0.55681
 C770 C 0.70906 0.82489 0.57607
 C771 C 0.72609 0.79585 0.60535
 C772 C 0.73628 0.84562 0.54723
 H773 H 0.76917 0.80674 0.58316
 H774 H 0.77505 0.83483 0.54922
 H775 H 0.69580 0.84939 0.54929
 H776 H 0.69050 0.82170 0.58322
 C777 C 0.75769 0.82538 0.41012
 C778 C 0.76805 0.81541 0.43145
 C779 C 0.76571 0.82746 0.45462
 C780 C 0.75946 0.79880 0.36792
 C781 C 0.74326 0.86008 0.43523
 C782 C 0.74554 0.84789 0.41197
 C783 C 0.75862 0.81157 0.38676
 C784 C 0.75293 0.84969 0.45681
 H785 H 0.77754 0.79805 0.43024
 H786 H 0.77375 0.81925 0.47087
 H787 H 0.73318 0.87707 0.43643
 H788 H 0.73739 0.85573 0.39556
 C789 C 0.25408 0.32446 -0.08994
 C790 C 0.26902 0.34578 -0.08280
 C791 C 0.26620 0.35774 -0.05950
 C792 C 0.26026 0.29782 -0.13142
 C793 C 0.23323 0.32733 -0.05084
 C794 C 0.23599 0.31552 -0.07404
 C795 C 0.25781 0.31071 -0.11290
 C796 C 0.24862 0.34830 -0.04310
 H797 H 0.28313 0.35283 -0.09497
 H798 H 0.27834 0.37377 -0.05403
 H799 H 0.21913 0.31993 -0.03886
 H800 H 0.22428 0.29909 -0.07939
 C801 C 0.73622 0.18419 -0.09875
 C802 C 0.76052 0.17681 -0.09325
 C803 C 0.76511 0.16202 -0.07312
 C804 C 0.72874 0.21303 -0.13651
 C805 C 0.72106 0.16212 -0.06363
 C806 C 0.71653 0.17698 -0.08378
 C807 C 0.73181 0.19979 -0.11931
 C808 C 0.74531 0.15373 -0.05841
 H809 H 0.77603 0.18275 -0.10437
 H810 H 0.78433 0.15753 -0.06894
 H811 H 0.70559 0.15750 -0.05197
 H812 H 0.69772 0.18306 -0.08752
 C813 C 0.23780 0.68345 0.40118
 C814 C 0.21662 0.67231 0.41142
 C815 C 0.21927 0.65734 0.43180
 C816 C 0.23274 0.71214 0.36294
 C817 C 0.26439 0.66485 0.43189
 C818 C 0.26167 0.67977 0.41152
 C819 C 0.23501 0.69903 0.38034
 C820 C 0.24329 0.65299 0.44212
 H821 H 0.19800 0.67539 0.40381
 H822 H 0.20231 0.64984 0.43950
 H823 H 0.28306 0.66263 0.43979
 H824 H 0.27820 0.68856 0.40395
 C825 C 0.27052 0.67942 0.57997
 C826 C 0.25729 0.65638 0.57781
 C827 C 0.25441 0.64346 0.55474
 C828 C 0.27354 0.70550 0.62281
 C829 C 0.27843 0.67640 0.53596
 C830 C 0.28132 0.68925 0.55904
 C831 C 0.27227 0.69343 0.60339
 C832 C 0.26467 0.65350 0.53350
 H833 H 0.24877 0.64863 0.59387
 H834 H 0.24337 0.62609 0.55340
 H835 H 0.28681 0.68446 0.52000
 H836 H 0.29165 0.70704 0.56048
 C837 C 0.77274 0.18145 0.07962
 C838 C 0.76219 0.15719 0.07831
 C839 C 0.75878 0.14413 0.05536
 C840 C 0.77628 0.20770 0.12234
 C841 C 0.77703 0.17934 0.03500
 C842 C 0.78046 0.19235 0.05795
 C843 C 0.77484 0.19552 0.10299
 C844 C 0.76564 0.15521 0.03332
 H845 H 0.75619 0.14853 0.09499
 H846 H 0.75011 0.12570 0.05496
 H847 H 0.78326 0.18829 0.01859
 H848 H 0.78884 0.21105 0.05874
 C849 C 0.48456 0.33684 0.56146
 C850 C 0.46232 0.32279 0.56452
 C851 C 0.46216 0.30266 0.57992
 C852 C 0.48245 0.37601 0.53363
 C853 C 0.50673 0.31006 0.58905
 C854 C 0.50684 0.33032 0.57360
 C855 C 0.48402 0.35818 0.54628
 C856 C 0.48428 0.29624 0.59267
 H857 H 0.44499 0.32752 0.55513
 H858 H 0.44466 0.29207 0.58177
 H859 H 0.52401 0.30566 0.59862
 H860 H 0.52420 0.34106 0.57137
 C861 C -0.01196 0.83821 0.06270
 C862 C 0.00028 0.81649 0.05624
 C863 C 0.00014 0.79664 0.07218
 C864 C -0.01618 0.87482 0.03187
 C865 C -0.02395 0.82046 0.10127
 C866 C -0.02372 0.84025 0.08543
 C867 C -0.01371 0.85804 0.04572
 C868 C -0.01248 0.79821 0.09461
 H869 H 0.00945 0.81468 0.03868
 H870 H 0.00907 0.77982 0.06648
 H871 H -0.03337 0.82251 0.11867
 H872 H -0.03315 0.85699 0.09071
 C873 C 0.02115 0.67622 0.05796
 C874 C 0.00768 0.66923 0.07850
 C875 C -0.00142 0.68732 0.09477
 C876 C 0.03502 0.64116 0.02603
 C877 C 0.01673 0.71964 0.07029
 C878 C 0.02579 0.70146 0.05396
 C879 C 0.02921 0.65736 0.04059
 C880 C 0.00269 0.71279 0.09071
 H881 H 0.00401 0.64976 0.08184
 H882 H -0.01154 0.68128 0.11065
 H883 H 0.02028 0.73894 0.06654
 H884 H 0.03614 0.70710 0.03806
 C885 C 0.51956 0.17695 0.55479
 C886 C 0.53644 0.19285 0.56903
 C887 C 0.52743 0.21093 0.58552
 C888 C 0.53442 0.14154 0.52379
 C889 C 0.48467 0.19735 0.57334
 C890 C 0.49369 0.17938 0.55689
 C891 C 0.52836 0.15788 0.53810
 C892 C 0.50143 0.21320 0.58799
 H893 H 0.55651 0.19112 0.56758
 H894 H 0.54079 0.22264 0.59678
 H895 H 0.46456 0.19887 0.57454
 H896 H 0.48044 0.16726 0.54589
 C897 C -0.01851 0.17628 0.45303
 C898 C -0.00684 0.16754 0.43177
 C899 C -0.00111 0.18366 0.41303
 C900 C -0.02821 0.14448 0.48773
 C901 C -0.01921 0.21736 0.43646
 C902 C -0.02492 0.20116 0.45527
 C903 C -0.02391 0.15942 0.47228
 C904 C -0.00681 0.20892 0.41530
 H905 H -0.00209 0.14824 0.42968
 H906 H 0.00769 0.17619 0.39670
 H907 H -0.02412 0.23646 0.43885
 H908 H -0.03416 0.20809 0.47160
 C909 C 0.48285 0.67486 0.95207
 C910 C 0.47614 0.69966 0.95414
 C911 C 0.48176 0.71582 0.93528
 C912 C 0.47276 0.64310 0.98670
 C913 C 0.50042 0.68227 0.91213
 C914 C 0.49478 0.66619 0.93092
 C915 C 0.47731 0.65801 0.97129
 C916 C 0.49439 0.70747 0.91422
 H917 H 0.46669 0.70653 0.97035
 H918 H 0.47655 0.73484 0.93755
 H919 H 0.50937 0.67483 0.89588
 H920 H 0.49976 0.64694 0.92895
 C921 C 0.50969 0.83468 0.93899
 C922 C 0.49678 0.81294 0.94556
 C923 C 0.49518 0.79203 0.92919
 C924 C 0.51850 0.87211 0.97181
 C925 C 0.51858 0.81492 0.89929
 C926 C 0.52012 0.83579 0.91563
 C927 C 0.51395 0.85517 0.95680
 C928 C 0.50674 0.79253 0.90619
 H929 H 0.48863 0.81189 0.96363
 H930 H 0.48588 0.77529 0.93508
 H931 H 0.52710 0.81620 0.88143
 H932 H 0.53007 0.85257 0.91030
 C933 C 0.00870 0.33612 0.43989
 C934 C 0.01949 0.33712 0.41669
 C935 C 0.01794 0.31625 0.40034
 C936 C 0.01716 0.37359 0.47276
 C937 C -0.00615 0.29361 0.42991
 C938 C -0.00455 0.31451 0.44629
 C939 C 0.01282 0.35664 0.45771
 C940 C 0.00573 0.29397 0.40707
 H941 H 0.02969 0.35380 0.41149
 H942 H 0.02672 0.31746 0.38261
 H943 H -0.01576 0.27698 0.43568
 H944 H -0.01299 0.31356 0.46423
 C945 C 0.33345 0.55561 0.48385
 C946 C 0.32818 0.56970 0.50536
 C947 C 0.30810 0.58566 0.50518
 C948 C 0.37329 0.52800 0.48160
 C949 C 0.29826 0.57306 0.46214
 C950 C 0.31824 0.55713 0.46237
 C951 C 0.35506 0.54043 0.48319
 C952 C 0.29319 0.58780 0.48342
 H953 H 0.33989 0.56875 0.52208
 H954 H 0.30482 0.59693 0.52177
 H955 H 0.28686 0.57393 0.44522
 H956 H 0.32207 0.54629 0.44564
 C957 C 0.83893 0.05929 -0.01523
 C958 C 0.81661 0.05328 -0.00339
 C959 C 0.79701 0.06983 -0.00324
 C960 C 0.87571 0.02803 -0.01951
 C961 C 0.82222 0.09854 -0.02639
 C962 C 0.84173 0.08208 -0.02646
 C963 C 0.85873 0.04194 -0.01697
 C964 C 0.79950 0.09247 -0.01509
 H965 H 0.81418 0.03565 0.00530
 H966 H 0.77965 0.06456 0.00540
 H967 H 0.82486 0.11601 -0.03533
 H968 H 0.85890 0.08700 -0.03563
 C969 C 0.67781 0.05486 0.01705
 C970 C 0.67984 0.05822 -0.00837
 C971 C 0.69830 0.07466 -0.01681
 C972 C 0.64113 0.02480 0.03154
 C973 C 0.71328 0.08407 0.02557
 C974 C 0.69475 0.06761 0.03399
 C975 C 0.65805 0.03857 0.02549
 C976 C 0.71502 0.08819 0.00010
 H977 H 0.66701 0.04826 -0.02171
 H978 H 0.69943 0.07669 -0.03661
 H979 H 0.72571 0.09394 0.03913
 H980 H 0.69345 0.06508 0.05373
 C981 C 0.17322 0.55914 0.52271
 C982 C 0.16639 0.58139 0.51253
 C983 C 0.18470 0.59754 0.50339
 C984 C 0.13748 0.52728 0.53586
 C985 C 0.21696 0.56947 0.51499
 C986 C 0.19857 0.55329 0.52409
 C987 C 0.15399 0.54182 0.53038
 C988 C 0.21016 0.59162 0.50425
 H989 H 0.14685 0.58612 0.51133
 H990 H 0.17891 0.61466 0.49565
 H991 H 0.23636 0.56427 0.51569
 H992 H 0.20405 0.53602 0.53178
 C993 C 0.17621 0.45219 -0.01680
 C994 C 0.20224 0.45519 -0.01903
 C995 C 0.21777 0.43572 -0.01351
 C996 C 0.14520 0.48755 -0.02711
 C997 C 0.18116 0.41021 -0.00378
 C998 C 0.16573 0.42963 -0.00931
 C999 C 0.15991 0.47193 -0.02236
 C1000 C 0.20735 0.41310 -0.00567
 H1001 H 0.21053 0.47258 -0.02486
 H1002 H 0.23790 0.43860 -0.01480
 H1003 H 0.17259 0.39290 0.00189
 H1004 H 0.14559 0.42704 -0.00771
 C1005 C 0.67373 0.95076 0.47995
 C1006 C 0.69943 0.95438 0.47618
 C1007 C 0.71596 0.93579 0.48184
 C1008 C 0.64148 0.98530 0.47053
 C1009 C 0.68099 0.90975 0.49452
 C1010 C 0.66452 0.92828 0.48881
 C1011 C 0.65659 0.96992 0.47481
 C1012 C 0.70701 0.91344 0.49154
 H1013 H 0.70675 0.97166 0.46916
 H1014 H 0.73570 0.93930 0.47928
 H1015 H 0.67332 0.89254 0.50135
 H1016 H 0.64461 0.92515 0.49151
 C1017 C 0.83447 0.94379 0.51236
 C1018 C 0.81351 0.94858 0.49731
 C1019 C 0.79278 0.93170 0.49552
 C1020 C 0.87187 0.97717 0.52063
 C1021 C 0.81431 0.90490 0.52325
 C1022 C 0.83500 0.92172 0.52496
 C1023 C 0.85485 0.96203 0.51622
 C1024 C 0.79259 0.91000 0.50906
 H1025 H 0.81294 0.96561 0.48741
 H1026 H 0.77677 0.93617 0.48414
 H1027 H 0.81534 0.88799 0.53325
 H1028 H 0.85123 0.91773 0.53652
 C1029 C 0.32907 0.44604 0.01512
 C1030 C 0.32225 0.43383 -0.00774
 C1031 C 0.30218 0.41611 -0.00941
 C1032 C 0.36807 0.47783 0.02121
 C1033 C 0.29566 0.42316 0.03455
 C1034 C 0.31558 0.44082 0.03615
 C1035 C 0.35030 0.46342 0.01762
 C1036 C 0.28897 0.41032 0.01184
 H1037 H 0.33260 0.43778 -0.02415
 H1038 H 0.29745 0.40656 -0.02711
 H1039 H 0.28543 0.41968 0.05112
 H1040 H 0.32060 0.45028 0.05390
 C1041 C 0.55929 0.48147 0.33566
 C1042 C 0.56180 0.45979 0.32089
 C1043 C 0.57746 0.45995 0.30066
 C1044 C 0.53154 0.47901 0.37535
 C1045 C 0.58786 0.50373 0.30943
 C1046 C 0.57218 0.50351 0.32976
 C1047 C 0.54410 0.48061 0.35725
 C1048 C 0.59092 0.48184 0.29487
 H1049 H 0.55187 0.44264 0.32520
 H1050 H 0.57907 0.44290 0.28957
 H1051 H 0.59816 0.52079 0.30560
 H1052 H 0.57043 0.52040 0.34109
 C1053 C 0.06084 -0.02032 0.83345
 C1054 C 0.07409 0.00175 0.82822
 C1055 C 0.09016 0.00223 0.80820
 C1056 C 0.03231 -0.02324 0.87259
 C1057 C 0.07949 -0.04132 0.79841
 C1058 C 0.06343 -0.04175 0.81834
 C1059 C 0.04521 -0.02144 0.85473
 C1060 C 0.09326 -0.01941 0.79327
 H1061 H 0.07229 0.01845 0.83982
 H1062 H 0.10070 0.01930 0.80488
 H1063 H 0.08111 -0.05818 0.78701
 H1064 H 0.05323 -0.05891 0.82211
 C1065 C 0.05973 0.01922 0.67500
 C1066 C 0.06961 0.03500 0.69453
 C1067 C 0.08605 0.02598 0.71246
 C1068 C 0.02850 0.03470 0.64041
 C1069 C 0.08243 -0.01473 0.69154
 C1070 C 0.06602 -0.00570 0.67368
 C1071 C 0.04288 0.02824 0.65636
 C1072 C 0.09306 0.00108 0.71102
 H1073 H 0.06468 0.05428 0.69588
 H1074 H 0.09335 0.03874 0.72712
 H1075 H 0.08649 -0.03422 0.69011
 H1076 H 0.05819 -0.01820 0.65884
 C1077 C 0.55725 0.51784 0.17508
 C1078 C 0.56712 0.53412 0.19422
 C1079 C 0.58344 0.52557 0.21254
 C1080 C 0.52653 0.53264 0.13964
 C1081 C 0.57969 0.48432 0.19281
 C1082 C 0.56340 0.49289 0.17457
 C1083 C 0.54064 0.52643 0.15596
 C1084 C 0.59034 0.50063 0.21188
 H1085 H 0.56232 0.55345 0.19494
 H1086 H 0.59080 0.53870 0.22686
 H1087 H 0.58370 0.46480 0.19199
 H1088 H 0.55561 0.48000 0.16003
 C1089 C 0.44944 -0.02132 0.17390
 C1090 C 0.45325 -0.02182 0.19969
 C1091 C 0.43360 -0.01655 0.21541
 C1092 C 0.48534 -0.03004 0.14247
 C1093 C 0.40621 -0.01079 0.17951
 C1094 C 0.42580 -0.01606 0.16389
 C1095 C 0.46952 -0.02604 0.15740
 C1096 C 0.40997 -0.01065 0.20544
 H1097 H 0.47147 -0.02592 0.20764
 H1098 H 0.43717 -0.01627 0.23530
 H1099 H 0.38813 -0.00662 0.17130
 H1100 H 0.42259 -0.01579 0.14396
 C1101 C 0.94489 0.48028 0.67528
 C1102 C 0.94963 0.47884 0.70086
 C1103 C 0.93093 0.48453 0.71752
 C1104 C 0.97963 0.47133 0.64266
 C1105 C 0.90258 0.49261 0.68300
 C1106 C 0.92125 0.48691 0.66641
 C1107 C 0.96417 0.47534 0.65795
 C1108 C 0.90732 0.49178 0.70875
 H1109 H 0.96787 0.47372 0.70792
 H1110 H 0.93527 0.48406 0.73725
 H1111 H 0.88448 0.49782 0.67569
 H1112 H 0.91733 0.48793 0.64665
 C1113 C 0.94689 0.51641 0.82938
 C1114 C 0.93332 0.49390 0.82383
 C1115 C 0.91539 0.49205 0.80414
 C1116 C 0.97872 0.52305 0.86793
 C1117 C 0.92501 0.53509 0.79543
 C1118 C 0.94288 0.53687 0.81496
 C1119 C 0.96428 0.51927 0.85037
 C1120 C 0.91079 0.51281 0.79007
 H1121 H 0.93627 0.47796 0.83494
 H1122 H 0.90461 0.47472 0.80044
 H1123 H 0.92224 0.55123 0.78456
 H1124 H 0.95335 0.55433 0.81904
 C1125 C 0.44561 0.01816 0.32581
 C1126 C 0.43268 -0.00472 0.32039
 C1127 C 0.41520 -0.00733 0.30036
 C1128 C 0.47708 0.02548 0.36456
 C1129 C 0.42394 0.03569 0.29102
 C1130 C 0.44137 0.03824 0.31094
 C1131 C 0.46277 0.02157 0.34693
 C1132 C 0.41043 0.01298 0.28572
 H1133 H 0.43583 -0.02038 0.33184
 H1134 H 0.40493 -0.02497 0.29680
 H1135 H 0.42107 0.05152 0.27976
 H1136 H 0.45136 0.05598 0.31490
   
