data_POSCAR
  _audit_creation_date              2014-09-24
  _audit_creation_method            'ToBaCCo'
  _symmetry_space_group_name_H-M    'P1'
  _symmetry_Int_Tables_number       1
  _symmetry_cell_setting            triclinic
  loop_
  _symmetry_equiv_pos_as_xyz
 x,y,z
_cell_length_a 55.4956
_cell_length_b 56.0654
_cell_length_c 24.0974
_cell_angle_alpha 90.045200
_cell_angle_beta 89.927000
_cell_angle_gamma 119.099500
loop_
  _atom_site_label
  _atom_site_type_symbol
  _atom_site_fract_x
  _atom_site_fract_y
  _atom_site_fract_z
C1 C 0.15681 0.44070 0.50353
 C2 C 0.17211 0.44800 0.45375
 C3 C 0.19927 0.45217 0.45518
 C4 C 0.21082 0.44833 0.50422
 C5 C 0.19460 0.44058 0.55284
 C6 C 0.16797 0.43775 0.55387
 C7 C 0.24007 0.45344 0.50527
 C8 C 0.25521 0.46022 0.55539
 C9 C 0.28252 0.46517 0.55679
 C10 C 0.29547 0.46487 0.50714
 C11 C 0.28134 0.45901 0.45654
 C12 C 0.25345 0.45233 0.45612
 H13 H 0.13615 0.43782 0.50324
 H14 H 0.21200 0.46013 0.41867
 H15 H 0.20231 0.43587 0.58999
 H16 H 0.24629 0.46237 0.59368
 H17 H 0.31657 0.46864 0.50792
 H18 H 0.24258 0.44675 0.41701
 C19 C 0.52557 -0.29962 0.49630
 C20 C 0.52161 -0.28857 0.44691
 C21 C 0.52439 -0.26225 0.44893
 C22 C 0.53224 -0.24657 0.49804
 C23 C 0.53672 -0.25814 0.54625
 C24 C 0.53291 -0.28488 0.54650
 C25 C 0.53577 -0.21822 0.49891
 C26 C 0.53341 -0.20633 0.54894
 C27 C 0.53749 -0.17958 0.55009
 C28 C 0.54216 -0.16515 0.50024
 C29 C 0.54361 -0.17673 0.44969
 C30 C 0.54136 -0.20277 0.44959
 H31 H 0.52300 -0.31996 0.49562
 H32 H 0.51909 -0.25458 0.41253
 H33 H 0.54457 -0.24586 0.58321
 H34 H 0.52850 -0.21760 0.58744
 H35 H 0.54361 -0.14517 0.50067
 H36 H 0.54423 -0.21063 0.41064
 C37 C 1.29737 0.82193 0.50257
 C38 C 1.28392 0.81183 0.45143
 C39 C 1.26063 0.78551 0.45073
 C40 C 1.25193 0.76879 0.49853
 C41 C 1.26661 0.77943 0.54835
 C42 C 1.28883 0.80603 0.55083
 C43 C 1.22796 0.74027 0.49604
 C44 C 1.21263 0.72717 0.54419
 C45 C 1.19119 0.69977 0.54305
 C46 C 1.18392 0.68643 0.49127
 C47 C 1.19809 0.69926 0.44263
 C48 C 1.22049 0.72572 0.44552
 H49 H 1.31541 0.84188 0.50519
 H50 H 1.24860 0.77847 0.41317
 H51 H 1.26153 0.76705 0.58538
 H52 H 1.21806 0.73806 0.58302
 H53 H 1.16599 0.66642 0.48767
 H54 H 1.23212 0.73458 0.40799
 C55 C 0.84493 0.55660 0.50150
 C56 C 0.83086 0.55313 0.45142
 C57 C 0.80496 0.55182 0.45193
 C58 C 0.79376 0.55599 0.50142
 C59 C 0.80892 0.56023 0.55106
 C60 C 0.83392 0.55963 0.55162
 C61 C 0.76658 0.55600 0.50103
 C62 C 0.75083 0.55121 0.55011
 C63 C 0.72604 0.55254 0.55073
 C64 C 0.71601 0.55642 0.49979
 C65 C 0.73056 0.56012 0.45026
 C66 C 0.75614 0.56088 0.45145
 H67 H 0.86414 0.55597 0.50157
 H68 H 0.79392 0.54772 0.41318
 H69 H 0.80185 0.56438 0.58976
 H70 H 0.75826 0.54730 0.58836
 H71 H 0.69580 0.55481 0.49759
 H72 H 0.76768 0.56555 0.41318
 C73 C 0.48306 0.30388 0.49595
 C74 C 0.48377 0.29104 0.44668
 C75 C 0.47866 0.26405 0.44842
 C76 C 0.47101 0.24898 0.49830
 C77 C 0.46952 0.26218 0.54723
 C78 C 0.47668 0.29008 0.54727
 C79 C 0.46519 0.21982 0.49910
 C80 C 0.46872 0.20792 0.54794
 C81 C 0.46421 0.18085 0.54866
 C82 C 0.45714 0.16619 0.49828
 C83 C 0.45406 0.17768 0.44909
 C84 C 0.45713 0.20397 0.45023
 H85 H 0.48597 0.32438 0.49327
 H86 H 0.48112 0.25521 0.41042
 H87 H 0.46374 0.25094 0.58566
 H88 H 0.47670 0.22025 0.58477
 H89 H 0.45354 0.14545 0.49676
 H90 H 0.45318 0.21182 0.41240
 C91 C 0.69375 0.17355 0.50248
 C92 C 0.70801 0.18354 0.45244
 C93 C 0.73231 0.20882 0.45205
 C94 C 0.74173 0.22507 0.50040
 C95 C 0.72653 0.21468 0.54996
 C96 C 0.70299 0.18880 0.55148
 C97 C 0.76683 0.25289 0.49868
 C98 C 0.78227 0.26512 0.54720
 C99 C 0.80482 0.29195 0.54673
 C100 C 0.81303 0.30549 0.49526
 C101 C 0.79872 0.29348 0.44629
 C102 C 0.77529 0.26767 0.44852
 H103 H 0.67517 0.15388 0.50322
 H104 H 0.74379 0.21546 0.41368
 H105 H 0.73223 0.22675 0.58748
 H106 H 0.77609 0.25406 0.58578
 H107 H 0.83171 0.32496 0.49217
 H108 H 0.76364 0.25957 0.41075
 N109 N 0.97614 0.52880 0.05991
 N110 N 0.95911 0.53844 0.07070
 N111 N 1.03166 0.53334 0.09783
 N112 N 1.05162 0.54497 0.13464
 N113 N 1.03389 0.55091 0.05944
 N114 N 1.05548 0.57509 0.06918
 N115 N 0.97409 0.51124 0.09818
 N116 N 0.95565 0.50837 0.13588
 C117 C 0.94627 0.52514 0.11780
 C118 C 1.06640 0.57083 0.11588
 N119 N 1.02280 0.46133 0.06140
 N120 N 1.04039 0.45234 0.07188
 N121 N 0.96738 0.45717 0.09925
 N122 N 0.94746 0.44594 0.13632
 N123 N 0.96504 0.43922 0.06160
 N124 N 0.94339 0.41518 0.07212
 N125 N 1.02495 0.47926 0.09891
 N126 N 1.04400 0.48304 0.13577
 Mn127 Mn 0.99952 0.49525 0.09899
 C128 C 1.05359 0.46638 0.11805
 C129 C 0.93258 0.41991 0.11851
 N130 N 1.03362 0.55043 -0.06046
 N131 N 1.05366 0.57504 -0.07359
 N132 N 0.97386 0.51050 -0.09789
 N133 N 0.95642 0.50861 -0.13707
 N134 N 0.97607 0.52835 -0.06005
 N135 N 0.96021 0.53911 -0.07260
 N136 N 1.03142 0.53251 -0.09812
 N137 N 1.04989 0.54441 -0.13772
 Mn138 Mn 1.00496 0.53990 -0.00025
 C139 C 1.06386 0.57074 -0.12130
 C140 C 0.94779 0.52619 -0.12017
 N141 N 0.96500 0.43856 -0.05831
 N142 N 0.94471 0.41390 -0.07028
 N143 N 1.02473 0.47813 -0.09693
 N144 N 1.04232 0.47987 -0.13571
 N145 N 1.02255 0.46061 -0.05840
 N146 N 1.03860 0.44994 -0.07002
 N147 N 0.96716 0.45614 -0.09669
 N148 N 0.94841 0.44397 -0.13561
 Mn149 Mn 0.99381 0.44964 0.00162
 Mn150 Mn 0.99929 0.49431 -0.09784
 Cl151 Cl 0.99939 0.49478 0.00054
 C152 C 0.93435 0.41783 -0.11807
 C153 C 1.05107 0.46254 -0.11782
 N154 N 0.47824 0.44611 0.06199
 N155 N 0.47399 0.42120 0.07228
 N156 N 0.46214 0.48929 0.10045
 N157 N 0.44751 0.49284 0.13951
 N158 N 0.44590 0.47223 0.06250
 N159 N 0.41974 0.46365 0.07487
 N160 N 0.49449 0.46331 0.09978
 N161 N 0.50176 0.45065 0.13667
 C162 C 0.48909 0.42456 0.11862
 C163 C 0.42122 0.47708 0.12252
 N164 N 0.52732 0.55869 0.06145
 N165 N 0.53116 0.58352 0.07108
 N166 N 0.54381 0.51570 0.09967
 N167 N 0.55878 0.51296 0.13907
 N168 N 0.55976 0.53270 0.06130
 N169 N 0.58602 0.54198 0.07363
 N170 N 0.51134 0.54160 0.09968
 N171 N 0.50383 0.55424 0.13624
 Mn172 Mn 0.50295 0.50246 0.10035
 C173 C 0.51611 0.58021 0.11754
 C174 C 0.58497 0.52905 0.12163
 N175 N 0.44570 0.47233 -0.05753
 N176 N 0.41965 0.46526 -0.06760
 N177 N 0.49384 0.46293 -0.09611
 N178 N 0.49917 0.44971 -0.13531
 N179 N 0.47774 0.44590 -0.05793
 N180 N 0.47165 0.42060 -0.07026
 N181 N 0.46189 0.48934 -0.09565
 N182 N 0.44742 0.49438 -0.13251
 Mn183 Mn 0.46162 0.45886 0.00226
 C184 C 0.42125 0.47947 -0.11417
 C185 C 0.48559 0.42349 -0.11809
 N186 N 0.55954 0.53232 -0.05845
 N187 N 0.58565 0.54005 -0.06962
 N188 N 0.51131 0.54154 -0.09639
 N189 N 0.50626 0.55479 -0.13590
 N190 N 0.52741 0.55860 -0.05829
 N191 N 0.53377 0.58392 -0.07097
 N192 N 0.54332 0.51515 -0.09629
 N193 N 0.55786 0.51069 -0.13409
 Mn194 Mn 0.54374 0.54583 0.00151
 Mn195 Mn 0.50259 0.50223 -0.09655
 Cl196 Cl 0.50272 0.50234 0.00189
 C197 C 0.58410 0.52602 -0.11644
 C198 C 0.51995 0.58105 -0.11886
 N199 N 0.43717 -0.03243 0.05977
 N200 N 0.41165 -0.05108 0.07213
 N201 N 0.48044 0.02565 0.09800
 N202 N 0.48355 0.04345 0.13698
 N203 N 0.46321 0.02484 0.05971
 N204 N 0.45411 0.04208 0.07176
 N205 N 0.45442 -0.03165 0.09800
 N206 N 0.44111 -0.04975 0.13725
 C207 C 0.41462 -0.06197 0.12000
 C208 C 0.46738 0.05379 0.11954
 N209 N 0.55103 0.02894 0.06056
 N210 N 0.57653 0.04742 0.07348
 N211 N 0.50763 -0.02916 0.09853
 N212 N 0.50456 -0.04679 0.13785
 N213 N 0.52505 -0.02832 0.06056
 N214 N 0.53431 -0.04536 0.07316
 N215 N 0.53363 0.02813 0.09855
 N216 N 0.54681 0.04604 0.13817
 Mn217 Mn 0.49402 -0.00176 0.09869
 C218 C 0.57338 0.05820 0.12139
 C219 C 0.52093 -0.05701 0.12091
 N220 N 0.46366 0.02494 -0.06026
 N221 N 0.45646 0.04379 -0.07068
 N222 N 0.45504 -0.03170 -0.09785
 N223 N 0.44255 -0.05128 -0.13475
 N224 N 0.43752 -0.03258 -0.06016
 N225 N 0.41248 -0.05288 -0.07052
 N226 N 0.48107 0.02558 -0.09798
 N227 N 0.48626 0.04480 -0.13491
 Mn228 Mn 0.45011 -0.00382 -0.00029
 C229 C 0.47103 0.05610 -0.11706
 C230 C 0.41617 -0.06442 -0.11685
 N231 N 0.52520 -0.02844 -0.05937
 N232 N 0.53322 -0.04663 -0.07030
 N233 N 0.53389 0.02805 -0.09753
 N234 N 0.54659 0.04742 -0.13475
 N235 N 0.55124 0.02904 -0.05943
 N236 N 0.57637 0.04918 -0.06985
 N237 N 0.50791 -0.02922 -0.09743
 N238 N 0.50364 -0.04792 -0.13512
 Mn239 Mn 0.53841 0.00032 0.00055
 Mn240 Mn 0.49446 -0.00183 -0.09812
 Cl241 Cl 0.49425 -0.00177 0.00031
 C242 C 0.51923 -0.05880 -0.11724
 C243 C 0.57290 0.06055 -0.11662
 C244 C 1.15561 0.44831 0.30262
 C245 C 1.13486 0.45559 0.30556
 C246 C 1.12742 0.46156 0.35690
 C247 C 1.14003 0.45965 0.40537
 C248 C 1.16049 0.45153 0.40387
 C249 C 1.16847 0.44646 0.35122
 C250 C 1.12037 0.45655 0.25688
 C251 C 1.10671 0.45775 0.21926
 C252 C 1.08924 0.45980 0.17931
 C253 C 1.07335 0.46230 0.14904
 H254 H 1.16152 0.44360 0.26296
 H255 H 1.11167 0.46766 0.35958
 H256 H 1.13410 0.46544 0.44369
 H257 H 1.18359 0.43964 0.34733
 C258 C 0.52347 0.69550 0.29639
 C259 C 0.51104 0.66703 0.29802
 C260 C 0.49966 0.65324 0.34758
 C261 C 0.50194 0.66776 0.39606
 C262 C 0.51589 0.69662 0.39629
 C263 C 0.52562 0.71020 0.34491
 C264 C 0.51198 0.65168 0.25098
 C265 C 0.51303 0.63734 0.21485
 C266 C 0.51435 0.61894 0.17662
 C267 C 0.51534 0.60193 0.14759
 H268 H 0.53248 0.70641 0.25819
 H269 H 0.48966 0.63115 0.34918
 H270 H 0.49251 0.65609 0.43322
 H271 H 0.53682 0.73226 0.34247
 C272 C 0.32366 -0.12902 0.35604
 C273 C 0.32158 -0.14238 0.30592
 C274 C 0.30488 -0.17068 0.30259
 C275 C 0.29124 -0.18573 0.34988
 C276 C 0.29448 -0.17272 0.40188
 C277 C 0.31025 -0.14390 0.40339
 C278 C 0.33859 -0.12707 0.25981
 C279 C 0.35427 -0.11341 0.22366
 C280 C 0.37409 -0.09647 0.18433
 C281 C 0.39209 -0.08118 0.15343
 H282 H 0.33629 -0.10704 0.35897
 H283 H 0.30325 -0.18128 0.26397
 H284 H 0.27994 -0.20772 0.34597
 H285 H 0.31226 -0.13254 0.44099
 C286 C 0.88427 0.56634 0.34051
 C287 C 0.86901 0.54589 0.30184
 C288 C 0.84085 0.52832 0.31088
 C289 C 0.82812 0.53093 0.35900
 C290 C 0.84355 0.55101 0.39872
 C291 C 0.87166 0.56891 0.38855
 C292 C 0.88302 0.54184 0.25552
 C293 C 0.89600 0.53847 0.21917
 C294 C 0.91248 0.53434 0.17987
 C295 C 0.92749 0.53044 0.14952
 H296 H 0.90610 0.57996 0.33408
 H297 H 0.82890 0.51225 0.28145
 H298 H 0.80650 0.51675 0.36598
 H299 H 0.88395 0.58480 0.41806
 C300 C 0.51049 0.34814 0.34087
 C301 C 0.49230 0.33558 0.29669
 C302 C 0.47298 0.30777 0.29959
 C303 C 0.47114 0.29284 0.34743
 C304 C 0.48847 0.30567 0.39307
 C305 C 0.50863 0.33330 0.38873
 C306 C 0.49171 0.35204 0.25147
 C307 C 0.49099 0.36693 0.21627
 C308 C 0.49008 0.38568 0.17844
 C309 C 0.48946 0.40281 0.14926
 H310 H 0.52546 0.36968 0.33917
 H311 H 0.45865 0.29789 0.26582
 H312 H 0.45526 0.27165 0.34986
 H313 H 0.52242 0.34361 0.42302
 C314 C 0.68050 0.16681 0.30552
 C315 C 0.66778 0.13827 0.30581
 C316 C 0.67032 0.12472 0.35232
 C317 C 0.68456 0.13952 0.39919
 C318 C 0.69641 0.16812 0.40021
 C319 C 0.69483 0.18168 0.35237
 C320 C 0.64999 0.12268 0.26089
 C321 C 0.63391 0.10900 0.22535
 C322 C 0.61385 0.09220 0.18631
 C323 C 0.59582 0.07712 0.15530
 H324 H 0.67851 0.17750 0.26990
 H325 H 0.66050 0.10264 0.35305
 H326 H 0.68572 0.12857 0.43519
 H327 H 0.70349 0.20365 0.35217
 C328 C 0.47466 0.13424 -0.35509
 C329 C 0.46845 0.14149 -0.30380
 C330 C 0.46223 0.16281 -0.30061
 C331 C 0.46160 0.17640 -0.34894
 C332 C 0.46684 0.16862 -0.40161
 C333 C 0.47394 0.14758 -0.40332
 C334 C 0.46788 0.12616 -0.25545
 C335 C 0.46765 0.11180 -0.21802
 C336 C 0.46792 0.09349 -0.17818
 C337 C 0.46884 0.07684 -0.14796
 H338 H 0.47993 0.11802 -0.35795
 H339 H 0.45732 0.16856 -0.26100
 H340 H 0.45546 0.19191 -0.34486
 H341 H 0.47976 0.14165 -0.44160
 C342 C 0.69686 0.53181 -0.30533
 C343 C 0.68011 0.54400 -0.30208
 C344 C 0.67928 0.55956 -0.34639
 C345 C 0.69461 0.56258 -0.39426
 C346 C 0.71126 0.54997 -0.39929
 C347 C 0.71246 0.53488 -0.35327
 C348 C 0.66244 0.53968 -0.25507
 C349 C 0.64630 0.53639 -0.21845
 C350 C 0.62597 0.53279 -0.17906
 C351 C 0.60745 0.52976 -0.14861
 H352 H 0.69745 0.51947 -0.27134
 H353 H 0.66653 0.56928 -0.34417
 H354 H 0.69385 0.57557 -0.42659
 H355 H 0.72415 0.52410 -0.35479
 C356 C 0.83471 0.30423 -0.30923
 C357 C 0.84812 0.33273 -0.30686
 C358 C 0.84670 0.34753 -0.35204
 C359 C 0.83234 0.33410 -0.39974
 C360 C 0.81895 0.30529 -0.40376
 C361 C 0.82012 0.29057 -0.35702
 C362 C 0.86436 0.34739 -0.25949
 C363 C 0.87897 0.36137 -0.22241
 C364 C 0.89718 0.37953 -0.18233
 C365 C 0.91366 0.39637 -0.15117
 H366 H 0.83589 0.29256 -0.27454
 H367 H 0.85682 0.36963 -0.35049
 H368 H 0.83111 0.34658 -0.43264
 H369 H 0.81105 0.26860 -0.35773
 C370 C 0.55502 -0.12602 -0.33844
 C371 C 0.53370 -0.13987 -0.30023
 C372 C 0.51421 -0.16726 -0.30953
 C373 C 0.51574 -0.18056 -0.35755
 C374 C 0.53668 -0.16648 -0.39693
 C375 C 0.55653 -0.13921 -0.38640
 C376 C 0.53077 -0.12507 -0.25426
 C377 C 0.52841 -0.11142 -0.21821
 C378 C 0.52558 -0.09415 -0.17921
 C379 C 0.52291 -0.07845 -0.14900
 H380 H 0.57014 -0.10480 -0.33181
 H381 H 0.49746 -0.17810 -0.28046
 H382 H 0.50006 -0.20150 -0.36482
 H383 H 0.57308 -0.12798 -0.41566
 C384 C 0.30001 0.45509 -0.29607
 C385 C 0.32801 0.47454 -0.29345
 C386 C 0.34048 0.49235 -0.33805
 C387 C 0.32535 0.49009 -0.38592
 C388 C 0.29751 0.46991 -0.38987
 C389 C 0.28478 0.45285 -0.34395
 C390 C 0.34481 0.47482 -0.24772
 C391 C 0.36023 0.47520 -0.21212
 C392 C 0.37988 0.47601 -0.17391
 C393 C 0.39802 0.47722 -0.14461
 H394 H 0.29020 0.44107 -0.26196
 H395 H 0.36215 0.50744 -0.33654
 H396 H 0.33559 0.50369 -0.42039
 H397 H 0.26343 0.43698 -0.34608
 C398 C 1.15102 0.64288 -0.35696
 C399 C 1.14838 0.65692 -0.31162
 C400 C 1.16040 0.68536 -0.31348
 C401 C 1.17480 0.69969 -0.36091
 C402 C 1.17721 0.68574 -0.40780
 C403 C 1.16522 0.65699 -0.40433
 C404 C 1.13234 0.64158 -0.26457
 C405 C 1.11800 0.62724 -0.22754
 C406 C 1.10019 0.60887 -0.18718
 C407 C 1.08410 0.59203 -0.15548
 H408 H 1.14199 0.62085 -0.35581
 H409 H 1.15825 0.69643 -0.27868
 H410 H 1.18272 0.72152 -0.36123
 H411 H 1.16745 0.64514 -0.43737
 C412 C 0.84625 0.54176 -0.30339
 C413 C 0.87510 0.55575 -0.30094
 C414 C 0.89032 0.57306 -0.34449
 C415 C 0.87686 0.57547 -0.39137
 C416 C 0.84795 0.56052 -0.39536
 C417 C 0.83273 0.54421 -0.35023
 C418 C 0.88925 0.55040 -0.25671
 C419 C 0.90168 0.54532 -0.22190
 C420 C 0.91695 0.53887 -0.18375
 C421 C 0.93064 0.53313 -0.15345
 H422 H 0.83426 0.52816 -0.27009
 H423 H 0.91266 0.58394 -0.34312
 H424 H 0.88909 0.58841 -0.42522
 H425 H 0.81047 0.53223 -0.35240
 C426 C 0.46176 0.30527 -0.30841
 C427 C 0.47902 0.33354 -0.30611
 C428 C 0.49591 0.34711 -0.35122
 C429 C 0.49530 0.33275 -0.39889
 C430 C 0.47760 0.30423 -0.40297
 C431 C 0.46115 0.29067 -0.35617
 C432 C 0.47897 0.34934 -0.25901
 C433 C 0.47974 0.36429 -0.22224
 C434 C 0.48136 0.38352 -0.18247
 C435 C 0.48316 0.40119 -0.15142
 H436 H 0.44841 0.29457 -0.27374
 H437 H 0.50956 0.36898 -0.34973
 H438 H 0.50952 0.34420 -0.43180
 H439 H 0.44666 0.26905 -0.35689
 C440 C 0.68787 0.16448 -0.29923
 C441 C 0.65899 0.15030 -0.29932
 C442 C 0.64462 0.15044 -0.34688
 C443 C 0.65896 0.16387 -0.39477
 C444 C 0.68794 0.17734 -0.39580
 C445 C 0.70229 0.17807 -0.34718
 C446 C 0.64378 0.13373 -0.25273
 C447 C 0.62969 0.11855 -0.21643
 C448 C 0.61159 0.09943 -0.17745
 C449 C 0.59471 0.08213 -0.14758
 H450 H 0.69920 0.16438 -0.26275
 H451 H 0.62227 0.13952 -0.34744
 H452 H 0.64739 0.16329 -0.43139
 H453 H 0.72461 0.18813 -0.34702
 C454 C 1.11025 0.42161 -0.34647
 C455 C 1.12487 0.43460 -0.29855
 C456 C 1.15351 0.44565 -0.29744
 C457 C 1.16765 0.44507 -0.34513
 C458 C 1.15337 0.43391 -0.39539
 C459 C 1.12424 0.42111 -0.39424
 C460 C 1.11061 0.43913 -0.25329
 C461 C 1.09799 0.44378 -0.21811
 C462 C 1.08244 0.44995 -0.18008
 C463 C 1.06850 0.45560 -0.15024
 H464 H 1.08800 0.41267 -0.34760
 H465 H 1.16507 0.45590 -0.26055
 H466 H 1.18994 0.45553 -0.34333
 H467 H 1.11198 0.41070 -0.43021
 C468 C 0.54357 0.66835 -0.35828
 C469 C 0.53564 0.67424 -0.30738
 C470 C 0.52904 0.69530 -0.30376
 C471 C 0.52937 0.70973 -0.35147
 C472 C 0.53581 0.70294 -0.40399
 C473 C 0.54376 0.68251 -0.40594
 C474 C 0.53267 0.65721 -0.26036
 C475 C 0.52980 0.64143 -0.22371
 C476 C 0.52624 0.62148 -0.18402
 C477 C 0.52324 0.60345 -0.15282
 H478 H 0.54912 0.65234 -0.36143
 H479 H 0.52279 0.69998 -0.26446
 H480 H 0.52268 0.72484 -0.34732
 H481 H 0.55058 0.67750 -0.44410
 C482 C 0.34637 -0.15466 -0.34676
 C483 C 0.33157 -0.15527 -0.29924
 C484 C 0.30272 -0.17033 -0.29940
 C485 C 0.28873 -0.18401 -0.34761
 C486 C 0.30350 -0.18248 -0.39620
 C487 C 0.33247 -0.16816 -0.39490
 C488 C 0.34629 -0.13857 -0.25245
 C489 C 0.36005 -0.12321 -0.21611
 C490 C 0.37786 -0.10382 -0.17724
 C491 C 0.39455 -0.08627 -0.14754
 H492 H 0.36870 -0.14306 -0.34713
 H493 H 0.29105 -0.17082 -0.26292
 H494 H 0.26639 -0.19478 -0.34770
 H495 H 0.34434 -0.16696 -0.43153
 C496 C 0.56163 -0.11965 0.34608
 C497 C 0.54356 -0.13371 0.30256
 C498 C 0.52737 -0.16214 0.30505
 C499 C 0.52844 -0.17635 0.35184
 C500 C 0.54561 -0.16222 0.39689
 C501 C 0.56270 -0.13379 0.39291
 C502 C 0.53976 -0.11865 0.25826
 C503 C 0.53594 -0.10548 0.22326
 C504 C 0.53095 -0.08939 0.18484
 C505 C 0.52643 -0.07500 0.15433
 H506 H 0.57420 -0.09763 0.34467
 H507 H 0.51315 -0.17321 0.27180
 H508 H 0.51482 -0.19818 0.35398
 H509 H 0.57634 -0.12242 0.42668
 C510 C 0.29995 0.44173 0.31576
 C511 C 0.32665 0.46364 0.30851
 C512 C 0.33790 0.48431 0.34842
 C513 C 0.32288 0.48292 0.39589
 C514 C 0.29631 0.46076 0.40431
 C515 C 0.28476 0.44035 0.36337
 C516 C 0.34352 0.46455 0.26224
 C517 C 0.35927 0.46631 0.22593
 C518 C 0.37940 0.46935 0.18648
 C519 C 0.39786 0.47260 0.15561
 H520 H 0.29110 0.42553 0.28524
 H521 H 0.35854 0.50134 0.34331
 H522 H 0.33211 0.49914 0.42630
 H523 H 0.26440 0.42299 0.36896
 C524 C 1.17087 0.68449 0.29539
 C525 C 1.16150 0.65641 0.29182
 C526 C 1.16665 0.64300 0.33537
 C527 C 1.17993 0.65729 0.38338
 C528 C 1.18821 0.68521 0.38851
 C529 C 1.18429 0.69887 0.34340
 C530 C 1.14393 0.64060 0.24684
 C531 C 1.12781 0.62625 0.21200
 C532 C 1.10753 0.60820 0.17469
 C533 C 1.08922 0.59172 0.14600
 H534 H 1.16679 0.69503 0.26213
 H535 H 1.15939 0.62126 0.33316
 H536 H 1.18293 0.64634 0.41730
 H537 H 1.19023 0.72031 0.34648
 C538 C 0.46552 0.16151 0.30206
 C539 C 0.44836 0.13319 0.30043
 C540 C 0.43091 0.11985 0.34528
 C541 C 0.43153 0.13456 0.39264
 C542 C 0.44975 0.16281 0.39581
 C543 C 0.46615 0.17627 0.34938
 C544 C 0.45089 0.11740 0.25589
 C545 C 0.45385 0.10369 0.22084
 C546 C 0.45810 0.08702 0.18255
 C547 C 0.46218 0.07220 0.15235
 H548 H 0.47928 0.17201 0.26779
 H549 H 0.41761 0.09792 0.34456
 H550 H 0.41845 0.12371 0.42751
 H551 H 0.48058 0.19794 0.35085
 C552 C 0.70131 0.54266 0.30479
 C553 C 0.68626 0.55669 0.30223
 C554 C 0.68801 0.57401 0.34576
 C555 C 0.70370 0.57633 0.39278
 C556 C 0.71782 0.56129 0.39693
 C557 C 0.71711 0.54502 0.35180
 C558 C 0.66688 0.55137 0.25800
 C559 C 0.64945 0.54641 0.22327
 C560 C 0.62789 0.54030 0.18526
 C561 C 0.60866 0.53506 0.15501
 H562 H 0.69996 0.52906 0.27151
 H563 H 0.67640 0.58492 0.34428
 H564 H 0.70410 0.58920 0.42671
 H565 H 0.72754 0.53299 0.35413
 C566 C 0.82617 0.30785 0.29903
 C567 C 0.83697 0.33618 0.29617
 C568 C 0.83290 0.35005 0.34034
 C569 C 0.81918 0.33592 0.38820
 C570 C 0.80938 0.30767 0.39254
 C571 C 0.81231 0.29362 0.34689
 C572 C 0.85473 0.35160 0.25102
 C573 C 0.87096 0.36559 0.21595
 C574 C 0.89133 0.38323 0.17827
 C575 C 0.90971 0.39938 0.14918
 H576 H 0.82939 0.29694 0.26527
 H577 H 0.84125 0.37198 0.33867
 H578 H 0.81695 0.34718 0.42253
 H579 H 0.80518 0.27192 0.34935
   
