data_POSCAR
  _audit_creation_date              2014-09-24
  _audit_creation_method            'ToBaCCo'
  _symmetry_space_group_name_H-M    'P1'
  _symmetry_Int_Tables_number       1
  _symmetry_cell_setting            triclinic
  loop_
  _symmetry_equiv_pos_as_xyz
 x,y,z
_cell_length_a 34.8921
_cell_length_b 34.9038
_cell_length_c 34.6005
_cell_angle_alpha 90.263000
_cell_angle_beta 90.202700
_cell_angle_gamma 89.902000
loop_
  _atom_site_label
  _atom_site_type_symbol
  _atom_site_fract_x
  _atom_site_fract_y
  _atom_site_fract_z
N1 N 0.18672 0.18820 0.18296
 N2 N -0.18592 0.81179 0.19103
 N3 N -0.19010 0.18163 -0.18507
 N4 N 0.18394 0.81151 -0.18324
 N5 N 0.18769 1.18479 0.82108
 N6 N 0.81918 0.82033 0.81573
 N7 N 0.18412 0.80956 1.18553
 N8 N 0.81228 1.18560 1.18669
 O9 O 0.44595 0.92355 0.93593
 O10 O 0.40397 0.96133 0.97003
 C11 C 0.41157 0.93404 0.94571
 O12 O 0.55141 0.92898 1.07592
 O13 O 0.59432 0.96208 1.03876
 C14 C 0.58608 0.93796 1.06583
 O15 O 0.44340 0.92670 1.06975
 O16 O 0.40275 0.96372 1.03342
 C17 C 0.40927 0.93739 1.05893
 O18 O 0.55406 0.92502 0.93573
 O19 O 0.59571 0.96116 0.97215
 C20 C 0.58838 0.93558 0.94589
 Zr21 Zr 0.49981 0.94442 0.95552
 O22 O 0.50298 0.88387 0.95771
 O23 O 0.49695 0.94222 0.89442
 Zr24 Zr 0.49795 0.94809 1.05350
 O25 O 0.49973 0.88800 1.06031
 O26 O 0.49255 0.95400 1.11422
 O27 O 0.46484 0.93910 1.00391
 O28 O 0.53194 0.93873 1.00542
 O29 O 0.55553 1.05738 0.93100
 O30 O 0.59617 1.02391 0.97064
 C31 C 0.58960 1.04752 0.94261
 O32 O 0.44487 1.06687 1.06741
 O33 O 0.40351 1.02941 1.03220
 C34 C 0.41058 1.05659 1.05683
 O35 O 0.55255 1.06222 1.07356
 O36 O 0.59492 1.02674 1.03749
 C37 C 0.58704 1.05210 1.06384
 O38 O 0.44787 1.06247 0.93182
 O39 O 0.40470 1.02866 0.96820
 C40 C 0.41321 1.05387 0.94217
 Zr41 Zr 0.50103 1.04133 0.95256
 O42 O 0.50603 1.10177 0.95187
 O43 O 0.49801 1.04003 0.89146
 Zr44 Zr 0.49906 1.04476 1.05035
 O45 O 0.50401 1.10512 1.04718
 O46 O 0.49378 1.04809 1.11118
 Zr47 Zr 0.44272 0.99537 1.00153
 Zr48 Zr 0.55634 0.99386 1.00422
 O49 O 0.53342 1.04961 1.00202
 O50 O 0.46600 1.05103 1.00042
 O51 O 0.53463 0.99216 0.94729
 O52 O 0.46507 0.99701 1.05809
 O53 O 0.46732 0.99309 0.94618
 O54 O 0.53267 0.99619 1.06020
 H55 H 0.54899 0.91601 1.00624
 H56 H 0.44717 0.99776 1.08025
 H57 H 0.55119 1.07171 1.00172
 H58 H 0.45030 0.99260 0.92320
 H59 H 0.51712 0.96398 1.12446
 H60 H 0.51255 1.02995 1.12233
 H61 H 0.48156 1.11475 1.03261
 H62 H 0.48371 1.11242 0.96584
 H63 H 0.51824 1.02238 0.88226
 H64 H 0.51878 0.95716 0.88437
 H65 H 0.47971 0.87461 0.97098
 H66 H 0.49710 0.87679 1.03421
 O67 O -0.07669 0.44249 0.06147
 O68 O -0.03843 0.40181 0.02639
 C69 C -0.06562 0.40841 0.05099
 O70 O -0.07010 0.55413 -0.07336
 O71 O -0.03715 0.59500 -0.03320
 C72 C -0.06080 0.58822 -0.06138
 O73 O -0.07559 0.44648 -0.07146
 O74 O -0.03776 0.40355 -0.03868
 C75 C -0.06492 0.41187 -0.06292
 O76 O -0.07405 0.55027 0.06800
 O77 O -0.03788 0.59326 0.03388
 C78 C -0.06355 0.58493 0.05954
 Zr79 Zr -0.05504 0.49700 0.04532
 O80 O -0.11558 0.50113 0.04376
 O81 O -0.05605 0.49131 0.10619
 Zr82 Zr -0.05306 0.49968 -0.05231
 O83 O -0.11349 0.50481 -0.05428
 O84 O -0.05130 0.49627 -0.11338
 O85 O -0.06144 0.46418 -0.00476
 O86 O -0.06110 0.53163 -0.00259
 O87 O 0.06045 0.55012 0.07087
 O88 O 0.02584 0.59310 0.03496
 C89 C 0.05074 0.58483 0.06159
 O90 O 0.06754 0.44615 -0.06763
 O91 O 0.02872 0.40340 -0.03638
 C92 C 0.05689 0.41148 -0.05925
 O93 O 0.06264 0.55425 -0.06904
 O94 O 0.02610 0.59521 -0.03229
 C95 C 0.05172 0.58835 -0.05850
 O96 O 0.06368 0.44269 0.06412
 O97 O 0.02666 0.40178 0.02789
 C98 C 0.05335 0.40857 0.05316
 Zr99 Zr 0.04199 0.49702 0.04755
 O100 O 0.10249 0.50119 0.04981
 O101 O 0.03983 0.49117 0.10840
 Zr102 Zr 0.04391 0.49965 -0.05014
 O103 O 0.10434 0.50432 -0.05090
 O104 O 0.04314 0.49648 -0.11128
 Zr105 Zr -0.00537 0.44153 -0.00433
 Zr106 Zr -0.00566 0.55521 -0.00044
 O107 O 0.04987 0.53154 -0.00007
 O108 O 0.05054 0.46431 -0.00218
 O109 O -0.00672 0.53094 0.05520
 O110 O -0.00435 0.46652 -0.05949
 O111 O -0.00654 0.46367 0.05237
 O112 O -0.00449 0.53400 -0.05761
 H113 H -0.08355 0.54905 -0.00266
 H114 H -0.00379 0.44938 -0.08239
 H115 H 0.07238 0.54878 0.00089
 H116 H -0.00684 0.44579 0.07453
 H117 H -0.03525 0.51770 -0.12253
 H118 H 0.03074 0.52009 -0.12095
 H119 H 0.11447 0.48590 -0.03178
 H120 H 0.11305 0.48053 0.03332
 H121 H 0.02541 0.51335 0.11875
 H122 H -0.04058 0.51245 0.11720
 H123 H -0.12527 0.47941 0.02810
 H124 H -0.12413 0.48468 -0.03744
 O125 O 0.93582 0.07232 0.55306
 O126 O 0.97126 0.03738 0.59651
 C127 C 0.94496 0.06232 0.58804
 O128 O 0.93942 -0.06640 0.44641
 O129 O 0.97408 -0.02975 0.40424
 C130 C 0.94937 -0.05638 0.41173
 O131 O 0.93454 -0.06038 0.55543
 O132 O 0.97232 -0.02594 0.59737
 C133 C 0.94538 -0.05041 0.59007
 O134 O 0.94052 0.07405 0.44429
 O135 O 0.97476 0.03539 0.40321
 C136 C 0.95036 0.06268 0.40989
 Zr137 Zr 0.95780 0.05327 0.49926
 O138 O 0.89734 0.05392 0.49403
 O139 O 0.95851 0.11385 0.50290
 Zr140 Zr 0.95669 -0.04358 0.50077
 O141 O 0.89623 -0.04213 0.49541
 O142 O 0.95533 -0.10395 0.50606
 O143 O 0.94944 0.00557 0.53436
 O144 O 0.95071 0.00428 0.46640
 O145 O 1.07240 0.07366 0.44659
 O146 O 1.03929 0.03524 0.40411
 C147 C 1.06337 0.06250 0.41188
 O148 O 1.07390 -0.06284 0.55706
 O149 O 1.03780 -0.02602 0.59823
 C150 C 1.06365 -0.05189 0.59147
 O151 O 1.07150 -0.06813 0.44834
 O152 O 1.03826 -0.03112 0.40504
 C153 C 1.06224 -0.05831 0.41333
 O154 O 1.07472 0.07261 0.55502
 O155 O 1.03788 0.03815 0.59728
 C156 C 1.06431 0.06302 0.58964
 Zr157 Zr 1.05468 0.05221 0.50081
 O158 O 1.11521 0.04936 0.49752
 O159 O 1.05713 0.11271 0.50402
 Zr160 Zr 1.05381 -0.04473 0.50212
 O161 O 1.11438 -0.04412 0.49874
 O162 O 1.05441 -0.10514 0.50713
 Zr163 Zr 1.00523 0.00529 0.55804
 Zr164 Zr 1.00650 0.00322 0.44338
 O165 O 1.06171 0.00306 0.46797
 O166 O 1.06146 0.00430 0.53608
 O167 O 1.00669 0.05962 0.46548
 O168 O 1.00485 -0.05059 0.53491
 O169 O 1.00585 0.06033 0.53346
 O170 O 1.00554 -0.05230 0.46717
 H171 H 0.92837 0.00419 0.44865
 H172 H 1.00443 -0.07286 0.55255
 H173 H 1.08418 0.00251 0.45053
 H174 H 1.00557 0.08316 0.55058
 H175 H 0.97178 -0.11473 0.48548
 H176 H 1.03688 -0.11545 0.48714
 H177 H 1.12406 -0.02959 0.52136
 H178 H 1.12459 0.03703 0.52145
 H179 H 1.03832 0.12279 0.48519
 H180 H 0.97336 0.12345 0.48066
 H181 H 0.88694 0.03839 0.51538
 H182 H 0.88614 -0.02725 0.51756
 C183 C 1.13645 0.13825 0.28281
 C184 C 1.14555 0.11525 0.25028
 C185 C 1.16333 0.13163 0.21803
 C186 C 1.17086 0.17104 0.21701
 C187 C 1.16093 0.19399 0.24869
 C188 C 1.14420 0.17786 0.28138
 C189 C 1.11795 0.11954 0.31688
 C190 C 1.11077 0.13907 0.35187
 C191 C 1.09325 0.12039 0.38268
 C192 C 1.08196 0.08201 0.37923
 C193 C 1.08925 0.06218 0.34470
 C194 C 1.10781 0.08037 0.31390
 C195 C 1.13593 0.07631 0.24969
 C196 C 1.11687 0.05941 0.28055
 H197 H 1.14263 0.05876 0.22468
 H198 H 1.10954 0.02933 0.27846
 H199 H 1.17013 0.11405 0.19307
 H200 H 1.16624 0.22454 0.24802
 H201 H 1.08809 0.13617 0.40920
 H202 H 1.08132 0.03228 0.34216
 H203 H 1.13694 0.19698 0.30480
 H204 H 1.11886 0.16858 0.35622
 C205 C 0.87264 -0.12994 0.28210
 C206 C 0.86037 -0.16825 0.28702
 C207 C 0.84176 -0.18755 0.25658
 C208 C 0.83362 -0.16859 0.22192
 C209 C 0.84438 -0.13027 0.21761
 C210 C 0.86388 -0.11114 0.24717
 C211 C 0.89350 -0.11072 0.31475
 C212 C 0.91046 -0.07435 0.31120
 C213 C 0.92904 -0.05733 0.34257
 C214 C 0.93081 -0.07572 0.37848
 C215 C 0.91479 -0.11239 0.38213
 C216 C 0.89692 -0.13030 0.35035
 C217 C 0.86596 -0.18666 0.32250
 C218 C 0.88310 -0.16780 0.35374
 H219 H 0.85626 -0.21585 0.32644
 H220 H 0.88609 -0.18304 0.38081
 H221 H 0.83270 -0.21704 0.26000
 H222 H 0.83800 -0.11530 0.19100
 H223 H 0.94166 -0.02934 0.33878
 H224 H 0.91683 -0.12726 0.40951
 H225 H 0.87130 -0.08158 0.24231
 H226 H 0.91009 -0.05873 0.28439
 C227 C 0.86359 0.13358 0.71543
 C228 C 0.85780 0.11105 0.74883
 C229 C 0.83880 0.12665 0.78095
 C230 C 0.82669 0.16494 0.78088
 C231 C 0.83302 0.18746 0.74820
 C232 C 0.85101 0.17201 0.71570
 C233 C 0.88391 0.11581 0.68171
 C234 C 0.88868 0.13481 0.64620
 C235 C 0.90829 0.11724 0.61583
 C236 C 0.92402 0.08055 0.62020
 C237 C 0.91905 0.06113 0.65522
 C238 C 0.89861 0.07818 0.68567
 C239 C 0.87193 0.07350 0.75042
 C240 C 0.89241 0.05762 0.71974
 H241 H 0.86770 0.05634 0.77608
 H242 H 0.90329 0.02866 0.72261
 H243 H 0.83462 0.10953 0.80665
 H244 H 0.82408 0.21718 0.74802
 H245 H 0.91158 0.13265 0.58894
 H246 H 0.93042 0.03237 0.65849
 H247 H 0.85542 0.19083 0.69151
 H248 H 0.87724 0.16306 0.64112
 C249 C 1.13459 -0.12650 0.72338
 C250 C 1.15021 -0.16350 0.71717
 C251 C 1.16606 -0.18396 0.74822
 C252 C 1.16813 -0.16733 0.78500
 C253 C 1.15449 -0.13006 0.79082
 C254 C 1.13766 -0.10985 0.76046
 C255 C 1.11604 -0.10647 0.68998
 C256 C 1.09534 -0.07203 0.69420
 C257 C 1.07819 -0.05467 0.66228
 C258 C 1.08194 -0.07059 0.62516
 C259 C 1.10205 -0.10521 0.62077
 C260 C 1.11825 -0.12365 0.65293
 C261 C 1.15046 -0.17950 0.67998
 C262 C 1.13562 -0.15961 0.64839
 H263 H 1.16285 -0.20760 0.67511
 H264 H 1.13698 -0.17300 0.62010
 H265 H 1.17738 -0.21259 0.74386
 H266 H 1.15635 -0.11693 0.81918
 H267 H 1.06181 -0.02869 0.66680
 H268 H 1.10418 -0.11845 0.59244
 H269 H 1.12761 -0.08121 0.76651
 H270 H 1.09133 -0.05850 0.72198
 C271 C 0.27965 1.13353 1.12560
 C272 C 0.28559 1.15245 1.16141
 C273 C 0.25466 1.17000 1.18043
 C274 C 0.21826 1.17040 1.16338
 C275 C 0.21271 1.15335 1.12715
 C276 C 0.24295 1.13490 1.10846
 C277 C 0.31287 1.11340 1.10722
 C278 C 0.30881 1.08976 1.07441
 C279 C 0.34049 1.07124 1.05852
 C280 C 0.37726 1.07641 1.07426
 C281 C 0.38154 1.09950 1.10735
 C282 C 0.34955 1.11722 1.12440
 C283 C 0.32241 1.15426 1.17759
 C284 C 0.35385 1.13776 1.15903
 H285 H 0.32709 1.16916 1.20475
 H286 H 0.38184 1.14039 1.17246
 H287 H 0.25882 1.18395 1.20818
 H288 H 0.18467 1.15384 1.11366
 H289 H 0.33602 1.05267 1.03378
 H290 H 0.40960 1.10285 1.12048
 H291 H 0.23710 1.12230 1.08055
 H292 H 0.28133 1.08448 1.06107
 C293 C 0.28047 0.85869 0.87575
 C294 C 0.28211 0.85131 0.83551
 C295 C 0.25016 0.83581 0.81625
 C296 C 0.21700 0.82627 0.83677
 C297 C 0.21604 0.83192 0.87684
 C298 C 0.24728 0.84804 0.89616
 C299 C 0.31424 0.87740 0.89483
 C300 C 0.31372 0.88982 0.93361
 C301 C 0.34548 0.90802 0.94982
 C302 C 0.37876 0.91382 0.92815
 C303 C 0.37984 0.90137 0.88958
 C304 C 0.34753 0.88407 0.87253
 C305 C 0.31565 0.85919 0.81489
 C306 C 0.34791 0.87453 0.83316
 H307 H 0.31709 0.85311 0.78418
 H308 H 0.37324 0.87986 0.81598
 H309 H 0.25104 0.83078 0.78533
 H310 H 0.19065 0.82454 0.89307
 H311 H 0.34412 0.91743 0.97958
 H312 H 0.40530 0.90646 0.87248
 H313 H 0.24485 0.85180 0.92700
 H314 H 0.28888 0.88648 0.95172
 C315 C 0.71465 0.86366 1.14173
 C316 C 0.74672 0.85464 1.11837
 C317 C 0.77888 0.83655 1.13462
 C318 C 0.78028 0.82863 1.17423
 C319 C 0.74916 0.83861 1.19762
 C320 C 0.71654 0.85565 1.18161
 C321 C 0.68058 0.88232 1.12306
 C322 C 0.64594 0.88933 1.14278
 C323 C 0.61513 0.90708 1.12409
 C324 C 0.61833 0.91878 1.08556
 C325 C 0.65247 0.91151 1.06551
 C326 C 0.68319 0.89276 1.08366
 C327 C 0.74693 0.86459 1.07921
 C328 C 0.71614 0.88386 1.06241
 H329 H 0.77160 0.85798 1.06142
 H330 H 0.71796 0.89150 1.03214
 H331 H 0.80343 0.82962 1.11677
 H332 H 0.75015 0.83297 1.22835
 H333 H 0.58890 0.91215 1.13997
 H334 H 0.65479 0.91966 1.03539
 H335 H 0.69347 0.86286 1.20100
 H336 H 0.64190 0.88097 1.17245
 C337 C 0.71947 1.12233 0.87099
 C338 C 0.71394 1.13770 0.83358
 C339 C 0.74414 1.15662 0.81500
 C340 C 0.77920 1.16205 0.83397
 C341 C 0.78424 1.14831 0.87154
 C342 C 0.75485 1.12842 0.88986
 C343 C 0.68694 1.10132 0.88936
 C344 C 0.69084 1.08137 0.92442
 C345 C 0.65942 1.06319 0.94098
 C346 C 0.62315 1.06485 0.92339
 C347 C 0.61928 1.08345 0.88770
 C348 C 0.65099 1.10100 0.87027
 C349 C 0.67811 1.13493 0.81541
 C350 C 0.64707 1.11774 0.83374
 H351 H 0.67376 1.14702 0.78693
 H352 H 0.61970 1.11709 0.81885
 H353 H 0.74029 1.16800 0.78615
 H354 H 0.81124 1.15266 0.88644
 H355 H 0.66352 1.04822 0.96800
 H356 H 0.59165 1.08401 0.87328
 H357 H 0.76019 1.11859 0.91890
 H358 H 0.71794 1.07919 0.93937
 C359 C 0.12763 0.27901 0.12683
 C360 C 0.16453 0.28514 0.14288
 C361 C 0.18412 0.25484 0.16080
 C362 C 0.16669 0.21901 0.16448
 C363 C 0.12963 0.21330 0.15014
 C364 C 0.11030 0.24284 0.13127
 C365 C 0.10826 0.31164 0.10668
 C366 C 0.07360 0.30736 0.08616
 C367 C 0.05633 0.33873 0.06835
 C368 C 0.07276 0.37530 0.07095
 C369 C 0.10784 0.37969 0.09048
 C370 C 0.12600 0.34807 0.10765
 C371 C 0.18122 0.32158 0.14163
 C372 C 0.16200 0.35256 0.12513
 H373 H 0.20928 0.32639 0.15427
 H374 H 0.17582 0.38035 0.12552
 H375 H 0.21260 0.25913 0.17266
 H376 H 0.11593 0.18567 0.15319
 H377 H 0.02979 0.33430 0.05275
 H378 H 0.12135 0.40761 0.09183
 H379 H 0.08174 0.23691 0.12087
 H380 H 0.05959 0.27999 0.08309
 C381 C -0.14135 0.28217 -0.13428
 C382 C -0.11753 0.25262 -0.14891
 C383 C -0.13380 0.21995 -0.16597
 C384 C -0.17367 0.21557 -0.16792
 C385 C -0.19730 0.24431 -0.15256
 C386 C -0.18144 0.27732 -0.13608
 C387 C -0.12268 0.31683 -0.11670
 C388 C -0.14348 0.34918 -0.10394
 C389 C -0.12459 0.38044 -0.08715
 C390 C -0.08475 0.37982 -0.08212
 C391 C -0.06375 0.34825 -0.09539
 C392 C -0.08224 0.31721 -0.11325
 C393 C -0.07763 0.25549 -0.14590
 C394 C -0.06041 0.28688 -0.12804
 H395 H -0.05941 0.23284 -0.15706
 H396 H -0.02947 0.28765 -0.12622
 H397 H -0.11544 0.19740 -0.17709
 H398 H -0.22816 0.24129 -0.15369
 H399 H -0.14121 0.40482 -0.07732
 H400 H -0.03286 0.34823 -0.09244
 H401 H -0.20098 0.29843 -0.12460
 H402 H -0.17421 0.35101 -0.10685
 C403 C 0.12346 0.71803 -0.13337
 C404 C 0.16294 0.71459 -0.14216
 C405 C 0.18261 0.74550 -0.15863
 C406 C 0.16323 0.77944 -0.16781
 C407 C 0.12381 0.78223 -0.16077
 C408 C 0.10412 0.75202 -0.14360
 C409 C 0.10398 0.68512 -0.11392
 C410 C 0.06601 0.68714 -0.10024
 C411 C 0.04927 0.65578 -0.08200
 C412 C 0.06972 0.62149 -0.07745
 C413 C 0.10758 0.61919 -0.09072
 C414 C 0.12507 0.65092 -0.10811
 C415 C 0.18242 0.68027 -0.13480
 C416 C 0.16370 0.64887 -0.11883
 H417 H 0.21252 0.67749 -0.14190
 H418 H 0.17994 0.62280 -0.11409
 H419 H 0.21300 0.74324 -0.16468
 H420 H 0.10842 0.80826 -0.16777
 H421 H 0.02002 0.65819 -0.07184
 H422 H 0.12379 0.59298 -0.08658
 H423 H 0.07383 0.75581 -0.13874
 H424 H 0.04894 0.71279 -0.10283
 C425 C -0.13713 0.71266 0.13792
 C426 C -0.11461 0.74582 0.14438
 C427 C -0.13056 0.77790 0.16296
 C428 C -0.16918 0.77810 0.17389
 C429 C -0.19178 0.74579 0.16651
 C430 C -0.17599 0.71329 0.14901
 C431 C -0.11881 0.67879 0.11852
 C432 C -0.13758 0.64334 0.11372
 C433 C -0.11940 0.61281 0.09501
 C434 C -0.08231 0.61699 0.08016
 C435 C -0.06320 0.65197 0.08523
 C436 C -0.08080 0.68251 0.10489
 C437 C -0.07667 0.74715 0.13138
 C438 C -0.06036 0.71643 0.11145
 H439 H -0.05952 0.77263 0.13606
 H440 H -0.03112 0.71912 0.10142
 H441 H -0.11334 0.80330 0.16785
 H442 H -0.22177 0.74578 0.17449
 H443 H -0.13467 0.58601 0.09161
 H444 H -0.03429 0.65520 0.07447
 H445 H -0.19480 0.68932 0.14385
 H446 H -0.16612 0.63847 0.12449
 C447 C 1.13527 0.13712 0.72178
 C448 C 1.15071 0.11305 0.75072
 C449 C 1.16876 0.12905 0.78332
 C450 C 1.17037 0.16908 0.78878
 C451 C 1.15300 0.19268 0.76077
 C452 C 1.13611 0.17704 0.72766
 C453 C 1.11763 0.11891 0.68667
 C454 C 1.10563 0.14012 0.65419
 C455 C 1.08896 0.12177 0.62235
 C456 C 1.08330 0.08208 0.62248
 C457 C 1.09585 0.06060 0.65418
 C458 C 1.11371 0.07855 0.68582
 C459 C 1.14720 0.07318 0.74744
 C460 C 1.12832 0.05634 0.71611
 H461 H 1.15860 0.05471 0.76982
 H462 H 1.12572 0.02540 0.71526
 H463 H 1.18032 0.11024 0.80534
 H464 H 1.15350 0.22356 0.76394
 H465 H 1.07975 0.13871 0.59784
 H466 H 1.09258 0.02978 0.65369
 H467 H 1.12349 0.19668 0.70726
 H468 H 1.10924 0.17076 0.65263
 C469 C 0.87524 -0.12354 0.72245
 C470 C 0.83578 -0.13262 0.71984
 C471 C 0.81724 -0.15024 0.75107
 C472 C 0.83787 -0.16040 0.78432
 C473 C 0.87712 -0.15244 0.78642
 C474 C 0.89562 -0.13406 0.75604
 C475 C 0.89382 -0.10404 0.68888
 C476 C 0.93188 -0.09075 0.69009
 C477 C 0.94812 -0.07319 0.65800
 C478 C 0.92710 -0.06872 0.62369
 C479 C 0.88898 -0.08135 0.62222
 C480 C 0.87199 -0.09824 0.65480
 C481 C 0.81537 -0.12490 0.68578
 C482 C 0.83326 -0.10875 0.65373
 H483 H 0.78523 -0.13211 0.68362
 H484 H 0.81635 -0.10395 0.62785
 H485 H 0.78699 -0.15709 0.74925
 H486 H 0.89342 -0.16032 0.81187
 H487 H 0.97757 -0.06353 0.65992
 H488 H 0.87233 -0.07726 0.59603
 H489 H 0.92593 -0.12893 0.75925
 H490 H 0.94953 -0.09325 0.71559
 C491 C 1.13360 -0.13813 0.28444
 C492 C 1.13477 -0.11846 0.24874
 C493 C 1.15233 -0.13550 0.21652
 C494 C 1.16749 -0.17256 0.21889
 C495 C 1.16518 -0.19262 0.25368
 C496 C 1.14874 -0.17559 0.28626
 C497 C 1.11554 -0.11844 0.31844
 C498 C 1.11584 -0.13398 0.35598
 C499 C 1.09865 -0.11442 0.38670
 C500 C 1.08040 -0.07908 0.38077
 C501 C 1.08004 -0.06336 0.34349
 C502 C 1.09800 -0.08232 0.31262
 C503 C 1.11767 -0.08232 0.24516
 C504 C 1.09904 -0.06498 0.27622
 H505 H 1.11817 -0.06746 0.21773
 H506 H 1.08565 -0.03731 0.27178
 H507 H 1.15336 -0.12045 0.18921
 H508 H 1.17646 -0.22148 0.25558
 H509 H 1.09946 -0.12717 0.41517
 H510 H 1.06637 -0.03592 0.33856
 H511 H 1.14768 -0.19238 0.31232
 H512 H 1.12957 -0.16093 0.36234
 C513 C 0.87204 0.13121 0.27887
 C514 C 0.85594 0.16813 0.28415
 C515 C 0.83669 0.18613 0.25343
 C516 C 0.83168 0.16704 0.21813
 C517 C 0.84600 0.12987 0.21345
 C518 C 0.86618 0.11215 0.24332
 C519 C 0.89370 0.11361 0.31177
 C520 C 0.91461 0.07929 0.30794
 C521 C 0.93367 0.06354 0.33960
 C522 C 0.93193 0.08113 0.37610
 C523 C 0.91223 0.11607 0.37993
 C524 C 0.89385 0.13277 0.34791
 C525 C 0.85845 0.18639 0.32021
 C526 C 0.87621 0.16869 0.35165
 H527 H 0.84578 0.21446 0.32443
 H528 H 0.87669 0.18366 0.37916
 H529 H 0.82491 0.21468 0.25702
 H530 H 0.84200 0.11486 0.18628
 H531 H 0.94948 0.03719 0.33547
 H532 H 0.91155 0.13053 0.40772
 H533 H 0.87651 0.08344 0.23818
 H534 H 0.91699 0.06438 0.28068
 C535 C 0.13747 0.28174 -0.12662
 C536 C 0.11502 0.24925 -0.13595
 C537 C 0.13173 0.21765 -0.15456
 C538 C 0.17144 0.21629 -0.16135
 C539 C 0.19412 0.24744 -0.14920
 C540 C 0.17732 0.28004 -0.13277
 C541 C 0.11783 0.31599 -0.10939
 C542 C 0.13583 0.35189 -0.10500
 C543 C 0.11594 0.38306 -0.08919
 C544 C 0.07797 0.37894 -0.07670
 C545 C 0.05994 0.34327 -0.08095
 C546 C 0.07905 0.31233 -0.09828
 C547 C 0.07634 0.24793 -0.12541
 C548 C 0.05918 0.27823 -0.10562
 H549 H 0.05935 0.22265 -0.13159
 H550 H 0.02960 0.27530 -0.09683
 H551 H 0.11416 0.19314 -0.16218
 H552 H 0.22481 0.24706 -0.15375
 H553 H 0.13047 0.41033 -0.08628
 H554 H 0.03054 0.33981 -0.07171
 H555 H 0.19596 0.30334 -0.12448
 H556 H 0.16493 0.35657 -0.11433
 C557 C -0.13381 0.27774 0.12774
 C558 C -0.17150 0.28199 0.14218
 C559 C -0.18932 0.25127 0.16109
 C560 C -0.16941 0.21698 0.16739
 C561 C -0.13160 0.21335 0.15452
 C562 C -0.11399 0.24321 0.13474
 C563 C -0.11625 0.31061 0.10653
 C564 C -0.08081 0.30770 0.08745
 C565 C -0.06515 0.33928 0.06883
 C566 C -0.08402 0.37480 0.06906
 C567 C -0.11994 0.37777 0.08702
 C568 C -0.13649 0.34576 0.10502
 C569 C -0.19073 0.31706 0.13838
 C570 C -0.17327 0.34851 0.12096
 H571 H -0.21944 0.32049 0.14973
 H572 H -0.18905 0.37523 0.11945
 H573 H -0.21839 0.25413 0.17169
 H574 H -0.11588 0.18701 0.15932
 H575 H -0.03778 0.33593 0.05465
 H576 H -0.13523 0.40483 0.08658
 H577 H -0.08477 0.23885 0.12566
 H578 H -0.06485 0.28124 0.08624
 C579 C -0.12994 0.71999 -0.13621
 C580 C -0.13801 0.75218 -0.11250
 C581 C -0.15549 0.78478 -0.12840
 C582 C -0.16378 0.78644 -0.16799
 C583 C -0.15457 0.75523 -0.19174
 C584 C -0.13809 0.72224 -0.17610
 C585 C -0.11236 0.68528 -0.11784
 C586 C -0.10657 0.65054 -0.13796
 C587 C -0.09011 0.61901 -0.11949
 C588 C -0.07853 0.62146 -0.08074
 C589 C -0.08441 0.65579 -0.06034
 C590 C -0.10188 0.68732 -0.07831
 C591 C -0.12791 0.75195 -0.07329
 C592 C -0.10960 0.72048 -0.05673
 H593 H -0.13374 0.77671 -0.05523
 H594 H -0.10190 0.72192 -0.02638
 H595 H -0.16190 0.80936 -0.11026
 H596 H -0.16054 0.75639 -0.22244
 H597 H -0.08601 0.59272 -0.13574
 H598 H -0.07623 0.65764 -0.03011
 H599 H -0.13154 0.69909 -0.19576
 H600 H -0.11497 0.64696 -0.16778
 C601 C 0.12996 0.71191 0.13584
 C602 C 0.11324 0.74873 0.13209
 C603 C 0.13099 0.78070 0.14912
 C604 C 0.16596 0.77675 0.16859
 C605 C 0.18327 0.74075 0.17122
 C606 C 0.16543 0.70853 0.15528
 C607 C 0.10956 0.67835 0.11809
 C608 C 0.12199 0.64025 0.12291
 C609 C 0.10244 0.61003 0.10515
 C610 C 0.07016 0.61693 0.08186
 C611 C 0.05721 0.65478 0.07742
 C612 C 0.07617 0.68530 0.09584
 C613 C 0.07941 0.75351 0.11073
 C614 C 0.06170 0.72259 0.09236
 H615 H 0.06682 0.78174 0.10756
 H616 H 0.03604 0.72792 0.07549
 H617 H 0.11813 0.80890 0.14672
 H618 H 0.21050 0.73767 0.18600
 H619 H 0.11309 0.58117 0.10926
 H620 H 0.03228 0.66059 0.05964
 H621 H 0.18008 0.68145 0.15807
 H622 H 0.14658 0.63311 0.14043
 C623 C 0.28631 1.13223 0.86820
 C624 C 0.25797 1.14808 0.89268
 C625 C 0.22603 1.16689 0.87681
 C626 C 0.22042 1.16855 0.83647
 C627 C 0.24854 1.15211 0.81239
 C628 C 0.28102 1.13450 0.82792
 C629 C 0.32008 1.11258 0.88634
 C630 C 0.35156 1.09890 0.86480
 C631 C 0.38200 1.08019 0.88308
 C632 C 0.38145 1.07413 0.92304
 C633 C 0.35076 1.08823 0.94485
 C634 C 0.32052 1.10800 0.92698
 C635 C 0.26093 1.14393 0.93285
 C636 C 0.29115 1.12369 0.94958
 H637 H 0.23908 1.15579 0.95162
 H638 H 0.29174 1.12059 0.98074
 H639 H 0.20434 1.17841 0.89600
 H640 H 0.24563 1.15337 0.78125
 H641 H 0.40580 1.06986 0.86589
 H642 H 0.35102 1.08470 0.97590
 H643 H 0.30126 1.12225 0.80786
 H644 H 0.35340 1.10266 0.83395
 C645 C 0.27700 0.86397 1.12857
 C646 C 0.28358 0.84167 1.16205
 C647 C 0.25267 0.82418 1.18093
 C648 C 0.21549 0.82741 1.16605
 C649 C 0.20910 0.84801 1.13209
 C650 C 0.23941 0.86633 1.11357
 C651 C 0.31050 0.88353 1.11022
 C652 C 0.30642 0.90961 1.07956
 C653 C 0.33842 0.92718 1.06344
 C654 C 0.37553 0.91878 1.07684
 C655 C 0.37984 0.89335 1.10792
 C656 C 0.34765 0.87632 1.12510
 C657 C 0.32094 0.83652 1.17605
 C658 C 0.35235 0.85284 1.15752
 H659 H 0.32605 0.81914 1.20143
 H660 H 0.38073 0.84756 1.16920
 H661 H 0.25740 0.80756 1.20691
 H662 H 0.18042 0.85026 1.12025
 H663 H 0.33392 0.94757 1.04038
 H664 H 0.40820 0.88729 1.11926
 H665 H 0.23288 0.88178 1.08744
 H666 H 0.27873 0.91739 1.06805
 C667 C 0.71424 1.13025 1.13837
 C668 C 0.74638 1.13861 1.11499
 C669 C 0.77799 1.15803 1.13079
 C670 C 0.77880 1.16799 1.17006
 C671 C 0.74757 1.15877 1.19347
 C672 C 0.71548 1.14040 1.17787
 C673 C 0.68078 1.11005 1.12019
 C674 C 0.64611 1.10343 1.13987
 C675 C 0.61573 1.08459 1.12154
 C676 C 0.61938 1.07135 1.08343
 C677 C 0.65366 1.07789 1.06355
 C678 C 0.68396 1.09777 1.08127
 C679 C 0.74721 1.12668 1.07630
 C680 C 0.71695 1.10612 1.05999
 H681 H 0.77193 1.13280 1.05849
 H682 H 0.71920 1.09708 1.03006
 H683 H 0.80264 1.16429 1.11292
 H684 H 0.74812 1.16592 1.22396
 H685 H 0.58938 1.08008 1.13733
 H686 H 0.65631 1.06851 1.03380
 H687 H 0.69235 1.13382 1.19731
 H688 H 0.64164 1.11305 1.16918
 C689 C 0.71861 0.86596 0.86861
 C690 C 0.75093 0.88961 0.86229
 C691 C 0.78347 0.87471 0.84371
 C692 C 0.78493 0.83608 0.83263
 C693 C 0.75340 0.81244 0.83976
 C694 C 0.72050 0.82715 0.85727
 C695 C 0.68423 0.88311 0.88806
 C696 C 0.64953 0.86304 0.89279
 C697 C 0.61840 0.88022 0.91135
 C698 C 0.62124 0.91755 0.92612
 C699 C 0.65548 0.93795 0.92123
 C700 C 0.68662 0.92133 0.90174
 C701 C 0.75096 0.92763 0.87543
 C702 C 0.71976 0.94294 0.89530
 H703 H 0.77579 0.94565 0.87085
 H704 H 0.72143 0.97235 0.90539
 H705 H 0.80826 0.89274 0.83895
 H706 H 0.75434 0.78246 0.83162
 H707 H 0.59213 0.86405 0.91457
 H708 H 0.65758 0.96718 0.93182
 H709 H 0.69722 0.80752 0.86224
 H710 H 0.64566 0.83426 0.88203
   
