data_POSCAR
  _audit_creation_date              2014-09-24
  _audit_creation_method            'ToBaCCo'
  _symmetry_space_group_name_H-M    'P1'
  _symmetry_Int_Tables_number       1
  _symmetry_cell_setting            triclinic
  loop_
  _symmetry_equiv_pos_as_xyz
 x,y,z
_cell_length_a 43.1590
_cell_length_b 42.4444
_cell_length_c 44.3048
_cell_angle_alpha 87.907900
_cell_angle_beta 94.668700
_cell_angle_gamma 92.604400
loop_
  _atom_site_label
  _atom_site_type_symbol
  _atom_site_fract_x
  _atom_site_fract_y
  _atom_site_fract_z
N1 N 0.18317 1.23916 0.14813
 N2 N 0.16497 1.24635 0.16903
 C3 C 0.14546 1.26848 0.15767
 C4 C 0.15164 1.27526 0.12785
 C5 C 0.17568 1.25625 0.12260
 H6 H 0.12739 1.27778 0.16988
 H7 H 0.18649 1.25456 0.10156
 Cu8 Cu 0.16655 1.22417 0.20813
 Cu9 Cu 0.21424 1.20721 0.15529
 Cu10 Cu 0.21018 1.16062 0.22082
 N11 N 0.15993 1.19420 0.24133
 N12 N 0.17760 1.16988 0.24680
 C13 C 0.16749 1.15262 0.27044
 C14 C 0.14177 1.16673 0.27992
 C15 C 0.13767 1.19303 0.26096
 H16 H 0.17719 1.13068 0.27894
 H17 H 0.11937 1.20964 0.26095
 N18 N 0.24137 1.15531 0.19143
 N19 N 0.24341 1.17358 0.16683
 C20 C 0.26634 1.16369 0.15108
 C21 C 0.27907 1.13777 0.16637
 C22 C 0.26266 1.13302 0.19172
 H23 H 0.27234 1.17364 0.12941
 H24 H 0.26563 1.11424 0.20872
 H25 H 0.18630 1.18031 0.18299
 H26 H 0.21822 1.20538 0.20225
 N27 N 0.83756 0.75245 0.15280
 N28 N 0.86254 0.75784 0.17119
 C29 C 0.88454 0.73802 0.16518
 C30 C 0.87275 0.71923 0.14184
 C31 C 0.84280 0.72892 0.13447
 H32 H 0.90782 0.73792 0.17624
 H33 H 0.82664 0.72062 0.11626
 Cu34 Cu 0.86537 0.79171 0.19970
 Cu35 Cu 0.80175 0.77885 0.15192
 Cu36 Cu 0.80226 0.83356 0.20813
 N37 N 0.86334 0.81905 0.23359
 N38 N 0.83864 0.83511 0.23721
 C39 C 0.84460 0.85349 0.26137
 C40 C 0.87479 0.84870 0.27327
 C41 C 0.88584 0.82660 0.25523
 H42 H 0.82871 0.87008 0.26869
 H43 H 0.90898 0.81756 0.25714
 N44 N 0.76779 0.82846 0.17639
 N45 N 0.76782 0.80782 0.15481
 C46 C 0.74347 0.81270 0.13446
 C47 C 0.72735 0.83750 0.14364
 C48 C 0.74329 0.84692 0.17038
 H49 H 0.73883 0.80048 0.11347
 H50 H 0.73875 0.86714 0.18324
 H51 H 0.82332 0.81892 0.17107
 H52 H 0.80897 0.78738 0.19781
 N53 N 0.81098 1.22665 -0.18366
 N54 N 0.83121 1.22503 -0.20412
 C55 C 0.85437 1.24688 -0.19866
 C56 C 0.84814 1.26328 -0.17365
 C57 C 0.82030 1.24997 -0.16473
 H58 H 0.87476 1.24991 -0.21133
 H59 H 0.80861 1.25551 -0.14503
 Cu60 Cu 0.82662 1.19325 -0.23480
 Cu61 Cu 0.77593 1.19617 -0.18160
 Cu62 Cu 0.78617 1.12659 -0.21776
 N63 N 0.83090 1.15493 -0.25630
 N64 N 0.81597 1.12856 -0.24860
 C65 C 0.82463 1.10513 -0.26530
 C66 C 0.84609 1.11748 -0.28451
 C67 C 0.84952 1.14930 -0.27830
 H68 H 0.81616 1.08081 -0.26347
 H69 H 0.86504 1.16681 -0.28812
 N70 N 0.75674 1.12988 -0.18636
 N71 N 0.75182 1.15663 -0.17354
 C72 C 0.73047 1.15114 -0.15318
 C73 C 0.72169 1.11937 -0.15325
 C74 C 0.73876 1.10669 -0.17444
 H75 H 0.72294 1.16867 -0.13859
 H76 H 0.73835 1.08217 -0.18034
 H77 H 0.80605 1.16356 -0.19256
 H78 H 0.77464 1.17271 -0.22254
 N79 N 0.16889 0.76093 -0.15675
 N80 N 0.15072 0.76461 -0.18181
 C81 C 0.12700 0.74286 -0.18177
 C82 C 0.13071 0.72445 -0.15551
 C83 C 0.15758 0.73649 -0.14014
 H84 H 0.10767 0.74130 -0.19885
 H85 H 0.16705 0.72938 -0.11771
 Cu86 Cu 0.15798 0.79952 -0.21040
 Cu87 Cu 0.20318 0.79071 -0.14546
 Cu88 Cu 0.21609 0.85351 -0.19583
 N89 N 0.16566 0.83460 -0.23870
 N90 N 0.18805 0.85600 -0.23248
 C91 C 0.18618 0.87946 -0.25373
 C92 C 0.16133 0.87242 -0.27437
 C93 C 0.14891 0.84361 -0.26431
 H94 H 0.20094 0.90075 -0.25352
 H95 H 0.12820 0.83113 -0.27378
 N96 N 0.24194 0.84692 -0.15757
 N97 N 0.23668 0.82332 -0.13813
 C98 C 0.25621 0.82696 -0.11307
 C99 C 0.27473 0.85389 -0.11703
 C100 C 0.26516 0.86597 -0.14549
 H101 H 0.25633 0.81177 -0.09293
 H102 H 0.27336 0.88787 -0.15592
 H103 H 0.18489 0.82931 -0.16933
 H104 H 0.21169 0.80521 -0.18904
 C105 C 0.46999 0.99872 0.00482
 C106 C 0.48768 1.01775 0.02554
 C107 C 0.47279 1.03526 0.04588
 C108 C 0.44025 1.03330 0.04600
 C109 C 0.42275 1.01358 0.02554
 C110 C 0.43753 0.99622 0.00487
 C111 C 0.52182 1.01838 0.02626
 C112 C 0.53731 1.03629 0.00442
 C113 C 0.56951 1.03433 0.00303
 C114 C 0.58611 1.01437 0.02393
 C115 C 0.57075 0.99631 0.04584
 C116 C 0.53865 0.99886 0.04722
 H117 H 0.48163 0.98540 -0.01102
 H118 H 0.48652 1.05029 0.06161
 H119 H 0.52417 1.05116 -0.01189
 H120 H 0.52653 0.98471 0.06380
 H121 H 0.39759 1.01295 0.02470
 H122 H 0.61110 1.01339 0.02366
 C123 C -0.04033 0.45928 0.97072
 C124 C -0.01895 0.47667 0.98975
 C125 C 0.00283 0.46099 1.00937
 C126 C 0.00385 0.42803 1.00965
 C127 C -0.01721 0.41079 0.99001
 C128 C -0.03931 0.42632 0.97040
 C129 C -0.01827 0.51135 0.98817
 C130 C -0.03977 0.52788 1.00283
 C131 C -0.03798 0.56098 1.00250
 C132 C -0.01569 0.57737 0.98575
 C133 C 0.00552 0.56096 0.97051
 C134 C 0.00459 0.52793 0.97247
 H135 H -0.05716 0.47150 0.95560
 H136 H 0.01915 0.47453 1.02423
 H137 H -0.05705 0.51499 1.01542
 H138 H 0.02127 0.51505 0.96128
 H139 H -0.01726 0.38527 0.99082
 H140 H -0.01456 0.60292 0.98494
 C141 C 0.97687 -0.00172 0.46446
 C142 C 1.00016 0.01530 0.48174
 C143 C 1.02273 0.03374 0.46729
 C144 C 1.02161 0.03599 0.43559
 C145 C 0.99853 0.01846 0.41847
 C146 C 0.97648 -0.00094 0.43278
 C147 C 1.00161 0.01294 0.51500
 C148 C 1.02082 -0.00893 0.53076
 C149 C 1.02300 -0.01082 0.56248
 C150 C 1.00493 0.00864 0.57833
 C151 C 0.98496 0.03005 0.56269
 C152 C 0.98389 0.03252 0.53098
 H153 H 0.95985 -0.01646 0.47573
 H154 H 1.04086 0.04662 0.48073
 H155 H 1.03443 -0.02409 0.51831
 H156 H 0.96891 0.04925 0.51868
 H157 H 0.99807 0.01946 0.39398
 H158 H 1.00631 0.00697 0.60284
 C159 C 0.13623 0.29530 1.10653
 C160 C 0.11310 0.31501 1.11379
 C161 C 0.09510 0.33375 1.09055
 N162 N 0.07746 0.35710 1.09893
 N163 N 0.06014 0.37353 1.07823
 C164 C 0.05963 0.36704 1.04840
 N165 N 0.07717 0.34360 1.04003
 N166 N 0.09468 0.32733 1.06070
 C167 C 0.03950 0.38397 1.02549
 C168 C 0.02604 0.41206 1.03161
 H169 H 0.10797 0.31709 1.13712
 H170 H 0.03552 0.37426 1.00317
 H171 H 0.14269 0.29543 1.08339
 H172 H 0.03276 0.42333 1.05285
 C173 C -0.10946 0.69682 1.12640
 C174 C -0.12284 0.67699 1.10410
 C175 C -0.10356 0.65755 1.08687
 N176 N -0.11698 0.63500 1.06849
 N177 N -0.09960 0.61792 1.05227
 C178 C -0.06821 0.62298 1.05371
 N179 N -0.05487 0.64560 1.07197
 N180 N -0.07218 0.66249 1.08830
 C181 C -0.04851 0.60532 1.03541
 C182 C -0.05894 0.57813 1.02027
 H183 H -0.14781 0.67587 1.09893
 H184 H -0.02442 0.61351 1.03481
 H185 H -0.08467 0.69643 1.13259
 H186 H -0.08198 0.56795 1.02340
 C187 C -0.13078 0.28679 0.84189
 C188 C -0.13999 0.30528 0.86463
 C189 C -0.11761 0.32594 0.88230
 N190 N -0.12787 0.34789 0.90021
 N191 N -0.10774 0.36597 0.91707
 C192 C -0.07662 0.36254 0.91682
 N193 N -0.06639 0.34050 0.89903
 N194 N -0.08648 0.32262 0.88200
 C195 C -0.05407 0.38124 0.93622
 C196 C -0.06194 0.40844 0.95004
 H197 H -0.16412 0.30452 0.86977
 H198 H -0.03032 0.37374 0.93910
 H199 H -0.10712 0.28930 0.83536
 H200 H -0.08473 0.41780 0.94455
 C201 C 0.10802 0.70066 0.85537
 C202 C 0.11516 0.68032 0.88009
 C203 C 0.09120 0.65986 0.89359
 N204 N 0.09960 0.63666 0.91412
 N205 N 0.07806 0.61895 0.92754
 C206 C 0.04734 0.62401 0.92110
 N207 N 0.03896 0.64725 0.90063
 N208 N 0.06047 0.66478 0.88705
 C209 C 0.02333 0.60586 0.93682
 C210 C 0.02943 0.57797 0.95339
 H211 H 0.13885 0.67964 0.89017
 H212 H -0.00000 0.61451 0.93487
 H213 H 0.08486 0.69963 0.84390
 H214 H 0.05179 0.56753 0.95264
 C215 C 1.12216 0.15609 0.30202
 C216 C 1.12822 0.12995 0.32127
 C217 C 1.10512 0.11656 0.34132
 N218 N 1.11369 0.09541 0.36383
 N219 N 1.09263 0.08186 0.38110
 C220 C 1.06217 0.08881 0.37630
 N221 N 1.05360 0.10990 0.35377
 N222 N 1.07470 0.12364 0.33668
 C223 C 1.03829 0.07240 0.39358
 C224 C 1.04549 0.05544 0.42057
 H225 H 1.15024 0.11867 0.32158
 H226 H 1.01423 0.07363 0.38464
 H227 H 1.10116 0.16868 0.30398
 H228 H 1.06893 0.05705 0.43135
 C229 C 1.14990 -0.10764 0.70199
 C230 C 1.12464 -0.11608 0.68178
 C231 C 1.10959 -0.09278 0.66074
 N232 N 1.08877 -0.10245 0.63797
 N233 N 1.07361 -0.08146 0.61992
 C234 C 1.07854 -0.05004 0.62418
 N235 N 1.09932 -0.04039 0.64695
 N236 N 1.11465 -0.06135 0.66482
 C237 C 1.06046 -0.02663 0.60597
 C238 C 1.04346 -0.03381 0.57882
 H239 H 1.11501 -0.14008 0.68175
 H240 H 1.06058 -0.00291 0.61423
 H241 H 1.16082 -0.08425 0.69985
 H242 H 1.04602 -0.05634 0.56876
 C243 C 0.89239 -0.13576 0.29644
 C244 C 0.88089 -0.11273 0.31372
 C245 C 0.90189 -0.09383 0.33455
 N246 N 0.89026 -0.07489 0.35455
 N247 N 0.90929 -0.05691 0.37264
 C248 C 0.94061 -0.05707 0.37116
 N249 N 0.95217 -0.07589 0.35110
 N250 N 0.93320 -0.09398 0.33321
 C251 C 0.96215 -0.03658 0.38977
 C252 C 0.95363 -0.02115 0.41487
 H253 H 0.85640 -0.10786 0.31154
 H254 H 0.98609 -0.03447 0.38400
 H255 H 0.91663 -0.14150 0.30051
 H256 H 0.93074 -0.02587 0.42282
 C257 C 0.86143 0.10024 0.69551
 C258 C 0.88236 0.11386 0.67589
 C259 C 0.89984 0.09438 0.65695
 N260 N 0.91620 0.10804 0.63468
 N261 N 0.93264 0.09059 0.61790
 C262 C 0.93345 0.05886 0.62295
 N263 N 0.91722 0.04526 0.64530
 N264 N 0.90065 0.06265 0.66192
 C265 C 0.95227 0.03923 0.60557
 C266 C 0.96536 0.05011 0.57917
 H267 H 0.88611 0.13923 0.67420
 H268 H 0.95524 0.01504 0.61353
 H269 H 0.85673 0.07495 0.69546
 H270 H 0.95972 0.07314 0.56946
 C271 C 0.30247 1.11715 0.15641
 C272 C 0.32248 1.12702 0.13448
 C273 C 0.34310 1.10528 0.12165
 N274 N 0.36633 1.11684 0.10497
 N275 N 0.38414 1.09737 0.09188
 C276 C 0.37920 1.06561 0.09479
 N277 N 0.35593 1.05405 0.11142
 N278 N 0.33830 1.07351 0.12473
 C279 C 0.39709 1.04393 0.07861
 C280 C 0.42479 1.05347 0.06617
 H281 H 0.32292 1.15135 0.12622
 H282 H 0.38797 1.01988 0.07611
 H283 H 0.30385 1.09358 0.16654
 H284 H 0.43563 1.07633 0.07153
 C285 C 0.70087 1.10133 -0.13367
 C286 C 0.68155 1.11546 -0.11489
 C287 C 0.66260 1.09644 -0.09420
 N288 N 0.64073 1.11010 -0.07927
 N289 N 0.62396 1.09307 -0.06005
 C290 C 0.62858 1.06180 -0.05499
 N291 N 0.65050 1.04822 -0.06983
 N292 N 0.66713 1.06518 -0.08913
 C293 C 0.61132 1.04272 -0.03307
 C294 C 0.58549 1.05340 -0.02014
 H295 H 0.68019 1.14088 -0.11536
 H296 H 0.61899 1.01914 -0.02740
 H297 H 0.70081 1.07584 -0.13422
 H298 H 0.57591 1.07563 -0.02812
 C299 C 0.29699 0.86822 -0.09403
 C300 C 0.31787 0.89285 -0.10115
 C301 C 0.33771 0.90944 -0.07770
 N302 N 0.36126 0.92945 -0.08576
 N303 N 0.37876 0.94547 -0.06486
 C304 C 0.37317 0.94225 -0.03515
 N305 N 0.34952 0.92235 -0.02711
 N306 N 0.33217 0.90616 -0.04798
 C307 C 0.39153 0.96065 -0.01198
 C308 C 0.41953 0.97652 -0.01776
 H309 H 0.31973 0.90035 -0.12457
 H310 H 0.38309 0.96110 0.01035
 H311 H 0.29671 0.85923 -0.07085
 H312 H 0.42935 0.97330 -0.03912
 C313 C 0.70236 0.85349 0.12537
 C314 C 0.68630 0.87790 0.13624
 C315 C 0.66557 0.89725 0.11593
 N316 N 0.64697 0.91795 0.12751
 N317 N 0.62929 0.93665 0.10920
 C318 C 0.62980 0.93548 0.07863
 N319 N 0.64842 0.91484 0.06709
 N320 N 0.66590 0.89601 0.08538
 C321 C 0.61177 0.95692 0.05798
 C322 C 0.58791 0.97450 0.06716
 H323 H 0.68965 0.88364 0.15992
 H324 H 0.61704 0.95830 0.03446
 H325 H 0.69738 0.84657 0.10213
 H326 H 0.58031 0.97067 0.08977
   
