data_POSCAR
  _audit_creation_date              2014-09-24
  _audit_creation_method            'ToBaCCo'
  _symmetry_space_group_name_H-M    'P1'
  _symmetry_Int_Tables_number       1
  _symmetry_cell_setting            triclinic
  loop_
  _symmetry_equiv_pos_as_xyz
 x,y,z
_cell_length_a 38.9180
_cell_length_b 38.9265
_cell_length_c 38.9933
_cell_angle_alpha 83.758200
_cell_angle_beta 94.380300
_cell_angle_gamma 98.293400
loop_
  _atom_site_label
  _atom_site_type_symbol
  _atom_site_fract_x
  _atom_site_fract_y
  _atom_site_fract_z
C1 C 0.58053 0.53028 0.00442
 C2 C 0.57278 0.56475 0.00092
 C3 C 0.53853 0.57278 -0.00374
 C4 C 0.51082 0.54493 -0.00686
 C5 C 0.51760 0.50984 -0.00092
 C6 C 0.55236 0.50246 0.00549
 C7 C 0.55772 0.46758 0.01487
 C8 C 0.53032 0.44042 0.01399
 C9 C 0.49615 0.44695 0.00449
 C10 C 0.48944 0.48199 -0.00159
 C11 C 0.47688 0.55110 -0.01831
 C12 C 0.44953 0.52395 -0.01928
 C13 C 0.45471 0.48928 -0.00868
 C14 C 0.42647 0.46148 -0.00766
 C15 C 0.43425 0.42702 -0.00388
 C16 C 0.46841 0.41937 0.00174
 H17 H 0.58314 0.46082 0.02365
 H18 H 0.53620 0.41421 0.02140
 H19 H 0.47116 0.57700 -0.02752
 H20 H 0.42433 0.53046 -0.02926
 H21 H 0.59402 0.58596 0.00172
 H22 H 0.41337 0.40535 -0.00381
 C23 C -0.01077 0.57888 0.46150
 C24 C -0.01267 0.57039 0.42742
 C25 C -0.01335 0.53594 0.41932
 C26 C -0.01395 0.50874 0.44701
 C27 C -0.01099 0.51711 0.48185
 C28 C -0.00929 0.55227 0.48909
 C29 C -0.00602 0.55988 0.52373
 C30 C -0.00579 0.53350 0.55077
 C31 C -0.00754 0.49846 0.54437
 C32 C -0.01024 0.49015 0.50958
 C33 C -0.02008 0.47328 0.44102
 C34 C -0.01912 0.44698 0.46806
 C35 C -0.01296 0.45486 0.50247
 C36 C -0.01102 0.42825 0.53007
 C37 C -0.00874 0.43689 0.56412
 C38 C -0.00746 0.47134 0.57172
 H39 H -0.00364 0.58637 0.53044
 H40 H -0.00430 0.54102 0.57677
 H41 H -0.02659 0.46526 0.41538
 H42 H -0.02411 0.42029 0.46168
 H43 H -0.01208 0.59157 0.40688
 H44 H -0.00756 0.41642 0.58523
 C45 C 0.53413 0.00216 0.58011
 C46 C 0.56823 0.00053 0.57165
 C47 C 0.57701 -0.00126 0.53773
 C48 C 0.55017 -0.00211 0.51080
 C49 C 0.51546 0.00011 0.51849
 C50 C 0.50739 0.00251 0.55307
 C51 C 0.47323 0.00713 0.55919
 C52 C 0.44703 0.00629 0.53293
 C53 C 0.45411 0.00298 0.49880
 C54 C 0.48866 -0.00003 0.49141
 C55 C 0.55659 -0.00706 0.47673
 C56 C 0.53065 -0.00644 0.45028
 C57 C 0.49645 -0.00315 0.45696
 C58 C 0.46978 -0.00278 0.43014
 C59 C 0.43592 -0.00016 0.43806
 C60 C 0.42760 0.00251 0.47180
 H61 H 0.46618 0.01203 0.58427
 H62 H 0.42115 0.00857 0.53984
 H63 H 0.58166 -0.01201 0.46990
 H64 H 0.53787 -0.00887 0.42453
 H65 H 0.58867 0.00069 0.59220
 H66 H 0.41554 -0.00017 0.41745
 O67 O 0.47251 -0.00879 -0.04511
 O68 O 0.46808 -0.01526 0.04928
 O69 O 0.46749 0.03500 0.00008
 O70 O 0.47385 -0.05906 0.00452
 O71 O 0.53108 -0.04730 0.00946
 O72 O 0.52469 0.04635 0.00644
 O73 O 0.52537 -0.00491 0.05547
 O74 O 0.52965 0.00358 -0.03917
 Cu75 Cu 0.46475 -0.01320 0.00157
 Cu76 Cu 0.53342 0.00058 0.00871
 C77 C 0.50185 -0.00152 -0.05832
 C78 C 0.49589 -0.01112 0.06851
 C79 C 0.49503 0.05674 0.00277
 C80 C 0.50365 -0.06922 0.00737
 O81 O -0.03679 0.53194 0.99192
 O82 O 0.05721 0.52545 0.99661
 O83 O 0.00854 0.52698 0.94708
 O84 O 0.01199 0.53171 1.04093
 O85 O 0.00126 0.47433 1.04950
 O86 O -0.00418 0.46971 0.95515
 O87 O 0.04532 0.46808 1.00378
 O88 O -0.04830 0.47461 1.00059
 Cu89 Cu 0.01144 0.53475 0.99329
 Cu90 Cu -0.00257 0.46594 1.00314
 C91 C -0.05861 0.50436 0.99575
 C92 C 0.06730 0.49555 1.00059
 C93 C 0.00152 0.49759 0.93500
 C94 C 0.00702 0.50396 1.06129
 O95 O -0.00495 -0.03703 0.46554
 O96 O 0.00224 0.05731 0.47233
 O97 O 0.04592 0.01366 0.46664
 O98 O -0.04891 0.00649 0.47147
 O99 O -0.04276 -0.00414 0.52819
 O100 O 0.05218 0.00537 0.52354
 O101 O 0.00699 0.04758 0.52920
 O102 O 0.00159 -0.04662 0.52234
 Cu103 Cu -0.00203 0.01107 0.46328
 Cu104 Cu 0.00524 -0.00042 0.53153
 C105 C -0.00270 -0.05794 0.49274
 C106 C 0.00531 0.06853 0.50196
 C107 C 0.06525 0.01074 0.49425
 C108 C -0.06205 -0.00003 0.50071
 C109 C -0.31222 0.51911 1.00329
 C110 C -0.32288 0.54349 1.02279
 C111 C -0.35810 0.54647 1.02389
 C112 C -0.38391 0.52514 1.00548
 C113 C -0.37299 0.50072 0.98590
 C114 C -0.33770 0.49751 0.98511
 C115 C -0.27469 0.51683 1.00147
 N116 N -0.26402 0.48888 0.98945
 N117 N -0.23026 0.48702 0.98782
 C118 C -0.20575 0.51313 0.99790
 N119 N -0.21645 0.54111 1.00979
 N120 N -0.25017 0.54288 1.01160
 C121 C -0.16815 0.51106 0.99633
 C122 C -0.14338 0.54090 0.99905
 C123 C -0.10786 0.53887 0.99821
 C124 C -0.09628 0.50686 0.99509
 C125 C -0.12104 0.47705 0.99219
 C126 C -0.15658 0.47918 0.99257
 H127 H -0.30396 0.56032 1.03737
 H128 H -0.36510 0.56518 1.03984
 H129 H -0.39159 0.48499 0.96992
 H130 H -0.33032 0.47877 0.96944
 H131 H -0.15141 0.56591 1.00180
 H132 H -0.08944 0.56228 1.00059
 H133 H -0.11294 0.45202 0.98966
 H134 H -0.17495 0.45569 0.99048
 C135 C 0.31961 0.47443 0.99333
 C136 C 0.34549 0.49625 1.01075
 C137 C 0.38058 0.49226 1.01017
 C138 C 0.39097 0.46681 0.99149
 C139 C 0.36474 0.44501 0.97408
 C140 C 0.32966 0.44879 0.97498
 C141 C 0.28229 0.47789 0.99475
 N142 N 0.25716 0.45216 0.98508
 N143 N 0.22363 0.45499 0.98664
 C144 C 0.21375 0.48374 0.99779
 N145 N 0.23886 0.50955 1.00736
 N146 N 0.27243 0.50664 1.00597
 C147 C 0.17635 0.48681 0.99933
 C148 C 0.16552 0.51911 1.00289
 C149 C 0.13013 0.52199 1.00346
 C150 C 0.10485 0.49255 1.00093
 C151 C 0.11573 0.46018 0.99792
 C152 C 0.15103 0.45738 0.99693
 H153 H 0.33859 0.51589 1.02562
 H154 H 0.39946 0.50833 1.02555
 H155 H 0.37128 0.42540 0.95894
 H156 H 0.31040 0.43167 0.96107
 H157 H 0.18435 0.54230 1.00474
 H158 H 0.12258 0.54729 1.00586
 H159 H 0.09691 0.43701 0.99581
 H160 H 0.15846 0.43207 0.99434
 C161 C -0.00879 -0.31226 0.47362
 C162 C 0.01702 -0.32354 0.45594
 C163 C 0.01667 -0.35895 0.45273
 C164 C -0.00961 -0.38378 0.46685
 C165 C -0.03567 -0.37258 0.48417
 C166 C -0.03501 -0.33716 0.48793
 C167 C -0.00850 -0.27466 0.47658
 N168 N -0.02557 -0.26373 0.50161
 N169 N -0.02511 -0.22981 0.50421
 C170 C -0.00782 -0.20547 0.48172
 N171 N 0.00911 -0.21642 0.45662
 N172 N 0.00888 -0.25030 0.45418
 C173 C -0.00722 -0.16779 0.48448
 C174 C 0.00050 -0.14334 0.45592
 C175 C 0.00143 -0.10771 0.45849
 C176 C -0.00473 -0.09572 0.48986
 C177 C -0.01239 -0.12012 0.51847
 C178 C -0.01394 -0.15584 0.51571
 H179 H 0.03761 -0.30500 0.44473
 H180 H 0.03686 -0.36705 0.43903
 H181 H -0.05659 -0.39128 0.49461
 H182 H -0.05542 -0.32920 0.50140
 H183 H 0.00563 -0.15177 0.43146
 H184 H 0.00752 -0.08949 0.43605
 H185 H -0.01737 -0.11161 0.54293
 H186 H -0.01983 -0.17406 0.53820
 C187 C -0.00627 0.32040 0.51837
 C188 C 0.01687 0.34688 0.50162
 C189 C 0.01511 0.38193 0.50509
 C190 C -0.01034 0.39118 0.52466
 C191 C -0.03369 0.36478 0.54111
 C192 C -0.03161 0.32973 0.53809
 C193 C -0.00362 0.28324 0.51590
 N194 N -0.01809 0.25812 0.53948
 N195 N -0.01547 0.22467 0.53756
 C196 C 0.00156 0.21492 0.51187
 N197 N 0.01595 0.24002 0.48820
 N198 N 0.01353 0.27352 0.49026
 C199 C 0.00397 0.17767 0.50959
 C200 C 0.01147 0.16614 0.47842
 C201 C 0.01224 0.13069 0.47598
 C202 C 0.00610 0.10618 0.50481
 C203 C -0.00056 0.11783 0.53619
 C204 C -0.00187 0.15316 0.53849
 H205 H 0.03687 0.34050 0.48650
 H206 H 0.03387 0.40187 0.49283
 H207 H -0.05338 0.37133 0.55652
 H208 H -0.04989 0.30993 0.55119
 H209 H 0.01601 0.18440 0.45569
 H210 H 0.01752 0.12246 0.45148
 H211 H -0.00553 0.09953 0.55882
 H212 H -0.00750 0.16127 0.56292
 C213 C 0.52028 0.00359 -0.31295
 C214 C 0.54742 0.02560 -0.32911
 C215 C 0.55151 0.02537 -0.36429
 C216 C 0.52842 0.00330 -0.38456
 C217 C 0.50147 -0.01911 -0.36816
 C218 C 0.49726 -0.01871 -0.33288
 C219 C 0.51668 0.00357 -0.27538
 N220 N 0.48804 -0.01363 -0.26009
 N221 N 0.48518 -0.01373 -0.22623
 C222 C 0.51089 0.00326 -0.20625
 N223 N 0.53948 0.02044 -0.22158
 N224 N 0.54228 0.02065 -0.25541
 C225 C 0.50819 0.00271 -0.16849
 C226 C 0.53732 0.01476 -0.14727
 C227 C 0.53517 0.01356 -0.11156
 C228 C 0.50377 0.00060 -0.09626
 C229 C 0.47448 -0.01101 -0.11747
 C230 C 0.47672 -0.01012 -0.15319
 H231 H 0.56560 0.04318 -0.31461
 H232 H 0.57251 0.04313 -0.37584
 H233 H 0.48427 -0.03778 -0.38236
 H234 H 0.47639 -0.03642 -0.32109
 H235 H 0.56199 0.02475 -0.15816
 H236 H 0.55818 0.02277 -0.09594
 H237 H 0.44993 -0.02123 -0.10643
 H238 H 0.45376 -0.01947 -0.16880
 C239 C 0.48247 -0.00721 0.32220
 C240 C 0.47093 0.02182 0.33380
 C241 C 0.46786 0.02348 0.36897
 C242 C 0.47590 -0.00398 0.39323
 C243 C 0.48717 -0.03320 0.38174
 C244 C 0.49095 -0.03457 0.34651
 C245 C 0.48461 -0.00910 0.28480
 N246 N 0.50668 -0.02855 0.27300
 N247 N 0.50853 -0.02988 0.23918
 C248 C 0.48810 -0.01212 0.21588
 N249 N 0.46594 0.00714 0.22774
 N250 N 0.46433 0.00873 0.26148
 C251 C 0.48993 -0.01335 0.17834
 C252 C 0.46127 -0.00686 0.15565
 C253 C 0.46304 -0.00695 0.12005
 C254 C 0.49376 -0.01285 0.10632
 C255 C 0.52243 -0.01947 0.12896
 C256 C 0.52040 -0.02010 0.16471
 H257 H 0.46431 0.04333 0.31567
 H258 H 0.45879 0.04609 0.37730
 H259 H 0.49271 -0.05503 0.40000
 H260 H 0.49955 -0.05742 0.33821
 H261 H 0.43738 -0.00177 0.16544
 H262 H 0.44059 -0.00164 0.10320
 H263 H 0.54639 -0.02420 0.11904
 H264 H 0.54292 -0.02505 0.18162
 C265 C 0.52528 -0.32079 -0.00119
 C266 C 0.55202 -0.32974 -0.01927
 C267 C 0.55596 -0.36464 -0.02063
 C268 C 0.53322 -0.39179 -0.00398
 C269 C 0.50660 -0.38257 0.01440
 C270 C 0.50249 -0.34760 0.01547
 C271 C 0.52169 -0.28364 0.00065
 N272 N 0.49245 -0.27439 0.01193
 N273 N 0.48942 -0.24094 0.01358
 C274 C 0.51559 -0.21537 0.00422
 N275 N 0.54482 -0.22466 -0.00697
 N276 N 0.54778 -0.25806 -0.00878
 C277 C 0.51243 -0.17811 0.00596
 C278 C 0.54188 -0.15265 0.00315
 C279 C 0.53903 -0.11743 0.00417
 C280 C 0.50661 -0.10675 0.00767
 C281 C 0.47714 -0.13217 0.01067
 C282 C 0.48006 -0.16751 0.01002
 H283 H 0.56990 -0.30974 -0.03263
 H284 H 0.57643 -0.37029 -0.03559
 H285 H 0.48959 -0.40235 0.02906
 H286 H 0.48193 -0.34157 0.03007
 H287 H 0.56724 -0.15991 0.00017
 H288 H 0.56223 -0.09851 0.00172
 H289 H 0.45181 -0.12475 0.01345
 H290 H 0.45686 -0.18646 0.01220
 C291 C 0.48011 0.31062 0.00473
 C292 C 0.49887 0.33569 -0.01802
 C293 C 0.49545 0.37103 -0.01866
 C294 C 0.47384 0.38211 0.00396
 C295 C 0.45545 0.35715 0.02701
 C296 C 0.45845 0.32176 0.02731
 C297 C 0.48253 0.27301 0.00441
 N298 N 0.45787 0.24837 0.01856
 N299 N 0.45969 0.21454 0.01783
 C300 C 0.48636 0.20392 0.00308
 N301 N 0.51110 0.22855 -0.01094
 N302 N 0.50916 0.26239 -0.01041
 C303 C 0.48843 0.16628 0.00241
 C304 C 0.51992 0.15492 -0.00362
 C305 C 0.52204 0.11936 -0.00354
 C306 C 0.49259 0.09441 0.00203
 C307 C 0.46098 0.10577 0.00755
 C308 C 0.45898 0.14130 0.00800
 H309 H 0.51555 0.32793 -0.03594
 H310 H 0.50931 0.38974 -0.03716
 H311 H 0.43849 0.36507 0.04457
 H312 H 0.44377 0.30313 0.04524
 H313 H 0.54309 0.17349 -0.00792
 H314 H 0.54675 0.11140 -0.00796
 H315 H 0.43787 0.08715 0.01204
 H316 H 0.43429 0.14921 0.01255
 C317 C -0.31600 -0.00256 0.52361
 C318 C -0.33517 0.01974 0.50158
 C319 C -0.37039 0.02028 0.50609
 C320 C -0.38753 -0.00202 0.53228
 C321 C -0.36794 -0.02383 0.55463
 C322 C -0.33278 -0.02420 0.55026
 C323 C -0.27862 -0.00308 0.51931
 N324 N -0.25902 -0.02018 0.54395
 N325 N -0.22535 -0.02055 0.54042
 C326 C -0.20983 -0.00396 0.51201
 N327 N -0.22943 0.01305 0.48726
 N328 N -0.26313 0.01352 0.49086
 C329 C -0.17221 -0.00394 0.50857
 C330 C -0.15699 0.00830 0.47720
 C331 C -0.12129 0.00895 0.47439
 C332 C -0.10006 -0.00230 0.50299
 C333 C -0.11534 -0.01482 0.53422
 C334 C -0.15102 -0.01578 0.53694
 H335 H -0.32284 0.03721 0.48118
 H336 H -0.38401 0.03881 0.48956
 H337 H -0.38008 -0.04144 0.57508
 H338 H -0.31883 -0.04171 0.56772
 H339 H -0.17261 0.01746 0.45483
 H340 H -0.11023 0.01882 0.45000
 H341 H -0.09969 -0.02376 0.55669
 H342 H -0.16187 -0.02534 0.56149
 C343 C 0.31946 0.00746 0.48279
 C344 C 0.34480 0.03478 0.49254
 C345 C 0.38010 0.03321 0.48935
 C346 C 0.39059 0.00384 0.47738
 C347 C 0.36530 -0.02358 0.46807
 C348 C 0.33008 -0.02174 0.47058
 C349 C 0.28204 0.00952 0.48440
 N350 N 0.25821 -0.00855 0.46347
 N351 N 0.22443 -0.00687 0.46468
 C352 C 0.21306 0.01274 0.48707
 N353 N 0.23686 0.03076 0.50812
 N354 N 0.27073 0.02933 0.50669
 C355 C 0.17545 0.01389 0.48863
 C356 C 0.16195 0.02133 0.51897
 C357 C 0.12608 0.02048 0.52083
 C358 C 0.10321 0.01289 0.49215
 C359 C 0.11685 0.00636 0.46155
 C360 C 0.15257 0.00653 0.45992
 H361 H 0.33727 0.05773 0.50170
 H362 H 0.39921 0.05500 0.49588
 H363 H 0.37289 -0.04629 0.45845
 H364 H 0.31114 -0.04323 0.46301
 H365 H 0.17901 0.02697 0.54152
 H366 H 0.11623 0.02572 0.54470
 H367 H 0.09981 0.00032 0.43909
 H368 H 0.16228 0.00089 0.43613
 C369 C -0.00672 0.52285 1.31309
 C370 C -0.02825 0.54551 1.32307
 C371 C -0.03088 0.54924 1.35793
 C372 C -0.01204 0.53039 1.38403
 C373 C 0.00995 0.50803 1.37377
 C374 C 0.01221 0.50398 1.33882
 C375 C -0.00365 0.51961 1.27598
 N376 N 0.00910 0.49197 1.26560
 N377 N 0.01166 0.48925 1.23211
 C378 C 0.00183 0.51421 1.20770
 N379 N -0.01078 0.54186 1.21814
 N380 N -0.01355 0.54446 1.25154
 C381 C 0.00450 0.51147 1.17042
 C382 C 0.00341 0.54106 1.14649
 C383 C 0.00496 0.53863 1.11121
 C384 C 0.00719 0.50645 1.09892
 C385 C 0.00854 0.47684 1.12281
 C386 C 0.00748 0.47938 1.15826
 H387 H -0.04336 0.56029 1.30389
 H388 H -0.04841 0.56644 1.36443
 H389 H 0.02646 0.49454 1.39267
 H390 H 0.02952 0.48677 1.33191
 H391 H 0.00133 0.56621 1.15500
 H392 H 0.00376 0.56191 1.09347
 H393 H 0.01032 0.45170 1.11411
 H394 H 0.00830 0.45609 1.17606
 C395 C -0.00561 0.48393 0.68017
 C396 C 0.02202 0.50038 0.66041
 C397 C 0.02143 0.49675 0.62503
 C398 C -0.00715 0.47729 0.60869
 C399 C -0.03483 0.46113 0.62831
 C400 C -0.03407 0.46434 0.66367
 C401 C -0.00463 0.48643 0.71788
 N402 N -0.02601 0.46357 0.73818
 N403 N -0.02504 0.46543 0.77214
 C404 C -0.00277 0.49036 0.78725
 N405 N 0.01855 0.51332 0.76694
 N406 N 0.01773 0.51133 0.73297
 C407 C -0.00174 0.49230 0.82505
 C408 C 0.01392 0.52264 0.83962
 C409 C 0.01466 0.52447 0.87529
 C410 C 0.00020 0.49582 0.89720
 C411 C -0.01528 0.46542 0.88267
 C412 C -0.01647 0.46376 0.84696
 H413 H 0.04444 0.51540 0.67242
 H414 H 0.04336 0.50880 0.61044
 H415 H -0.05695 0.44572 0.61622
 H416 H -0.05580 0.45143 0.67809
 H417 H 0.02538 0.54511 0.82344
 H418 H 0.02689 0.54822 0.88575
 H419 H -0.02671 0.44295 0.89889
 H420 H -0.02862 0.43996 0.83657
   
