data_POSCAR
  _audit_creation_date              2014-09-24
  _audit_creation_method            'ToBaCCo'
  _symmetry_space_group_name_H-M    'P1'
  _symmetry_Int_Tables_number       1
  _symmetry_cell_setting            triclinic
  loop_
  _symmetry_equiv_pos_as_xyz
 x,y,z
_cell_length_a 37.2850
_cell_length_b 37.3483
_cell_length_c 37.2443
_cell_angle_alpha 90.043100
_cell_angle_beta 90.073700
_cell_angle_gamma 89.904900
loop_
  _atom_site_label
  _atom_site_type_symbol
  _atom_site_fract_x
  _atom_site_fract_y
  _atom_site_fract_z
N1 N 0.14617 0.16768 0.24731
 N2 N 0.17147 0.14317 0.24714
 C3 C 0.16712 0.12164 0.27582
 C4 C 0.13746 0.13337 0.29514
 C5 C 0.12492 0.16269 0.27602
 H6 H 0.18457 0.09944 0.28231
 H7 H 0.10265 0.17986 0.28297
 Cu8 Cu 0.20834 0.14288 0.21008
 Cu9 Cu 0.14345 0.20538 0.21140
 Cu10 Cu 0.20858 0.20534 0.14503
 N11 N 0.24413 0.14245 0.17197
 N12 N 0.24418 0.16712 0.14684
 C13 C 0.27111 0.16048 0.12376
 C14 C 0.28907 0.12984 0.13483
 C15 C 0.27105 0.11918 0.16566
 H16 H 0.27655 0.17632 0.10014
 H17 H 0.27686 0.09615 0.18220
 N18 N 0.17019 0.24165 0.14780
 N19 N 0.14523 0.24138 0.17286
 C20 C 0.12308 0.26942 0.16771
 C21 C 0.13459 0.28836 0.13798
 C22 C 0.16454 0.26991 0.12604
 H23 H 0.10039 0.27570 0.18458
 H24 H 0.18116 0.27665 0.10333
 H25 H 0.16878 0.17713 0.17088
 H26 H 0.19761 0.20648 0.19941
 N27 N -0.14226 0.83157 0.24292
 N28 N -0.16925 0.85417 0.24470
 C29 C -0.16615 0.87377 0.27495
 C30 C -0.13544 0.86300 0.29299
 C31 C -0.12098 0.83613 0.27176
 H32 H -0.18515 0.89387 0.28360
 H33 H -0.09698 0.82071 0.27693
 Cu34 Cu -0.20607 0.85467 0.20750
 Cu35 Cu -0.13689 0.79726 0.20372
 Cu36 Cu -0.20504 0.79512 0.14048
 N37 N -0.24292 0.85515 0.17031
 N38 N -0.24261 0.83133 0.14433
 C39 C -0.27002 0.83794 0.12174
 C40 C -0.28875 0.86762 0.13417
 C41 C -0.27072 0.87768 0.16525
 H42 H -0.27511 0.82294 0.09747
 H43 H -0.27687 0.90001 0.18263
 N44 N -0.16789 0.75760 0.14379
 N45 N -0.14150 0.75893 0.16741
 C46 C -0.12100 0.72944 0.16377
 C47 C -0.13511 0.70844 0.13653
 C48 C -0.16489 0.72718 0.12456
 H49 H -0.09796 0.72341 0.18032
 H50 H -0.18352 0.71884 0.10395
 H51 H -0.16591 0.82474 0.16538
 H52 H -0.19129 0.79301 0.19464
 N53 N -0.14789 0.17154 -0.24313
 N54 N -0.17245 0.14637 -0.24206
 C55 C -0.16716 0.12365 -0.26966
 C56 C -0.13763 0.13521 -0.28902
 C57 C -0.12616 0.16571 -0.27133
 H58 H -0.18360 0.10051 -0.27530
 H59 H -0.10337 0.18220 -0.27801
 Cu60 Cu -0.20899 0.14680 -0.20481
 Cu61 Cu -0.14492 0.20948 -0.20736
 Cu62 Cu -0.20285 0.20244 -0.13464
 N63 N -0.24554 0.14724 -0.16754
 N64 N -0.24280 0.16914 -0.14005
 C65 C -0.27060 0.16377 -0.11772
 C66 C -0.29226 0.13707 -0.13200
 C67 C -0.27543 0.12738 -0.16381
 H68 H -0.27442 0.17828 -0.09291
 H69 H -0.28394 0.10711 -0.18264
 N70 N -0.16751 0.24145 -0.13983
 N71 N -0.14608 0.24446 -0.16783
 C72 C -0.12666 0.27462 -0.16449
 C73 C -0.13636 0.29159 -0.13296
 C74 C -0.16239 0.26978 -0.11801
 H75 H -0.10749 0.28405 -0.18402
 H76 H -0.17710 0.27449 -0.09347
 H77 H -0.16489 0.17804 -0.16770
 H78 H -0.19796 0.20886 -0.18928
 N79 N 0.14603 0.82964 -0.24138
 N80 N 0.17054 0.85486 -0.24066
 C81 C 0.16356 0.87860 -0.26703
 C82 C 0.13308 0.86757 -0.28533
 C83 C 0.12278 0.83633 -0.26820
 H84 H 0.17907 0.90247 -0.27211
 H85 H 0.09977 0.81989 -0.27432
 Cu86 Cu 0.20885 0.85432 -0.20495
 Cu87 Cu 0.14476 0.79090 -0.20649
 Cu88 Cu 0.20690 0.79437 -0.13750
 N89 N 0.24516 0.85405 -0.16720
 N90 N 0.24474 0.83006 -0.14141
 C91 C 0.27212 0.83639 -0.11870
 C92 C 0.29069 0.86629 -0.13060
 C93 C 0.27271 0.87668 -0.16159
 H94 H 0.27718 0.82121 -0.09452
 H95 H 0.27889 0.89920 -0.17868
 N96 N 0.17141 0.75549 -0.14222
 N97 N 0.14770 0.75435 -0.16850
 C98 C 0.12741 0.72484 -0.16471
 C99 C 0.13891 0.70621 -0.13467
 C100 C 0.16701 0.72647 -0.12118
 H101 H 0.10607 0.71730 -0.18281
 H102 H 0.18342 0.72028 -0.09807
 H103 H 0.16742 0.82134 -0.16669
 H104 H 0.19865 0.79129 -0.19197
 N105 N 0.17017 1.14421 0.75754
 N106 N 0.14809 1.17157 0.75534
 C107 C 0.12968 1.16943 0.72430
 C108 C 0.14061 1.13886 0.70619
 C109 C 0.16638 1.12353 0.72821
 H110 H 0.10974 1.18861 0.71564
 H111 H 0.18117 1.09905 0.72358
 Cu112 Cu 0.14432 1.20601 0.79433
 Cu113 Cu 0.20126 1.13692 0.79888
 Cu114 Cu 0.21381 1.21297 0.85112
 N115 N 0.14501 1.24197 0.83205
 N116 N 0.17227 1.24457 0.85429
 C117 C 0.16626 1.27172 0.87730
 C118 C 0.13330 1.28690 0.86913
 C119 C 0.12062 1.26728 0.84022
 H120 H 0.18463 1.27975 0.89829
 H121 H 0.09538 1.27099 0.82641
 N122 N 0.24570 1.17084 0.85325
 N123 N 0.24066 1.14188 0.83362
 C124 C 0.26607 1.11760 0.84179
 C125 C 0.28807 1.13174 0.86821
 C126 C 0.27418 1.16555 0.87487
 H127 H 0.26792 1.09137 0.82969
 H128 H 0.28351 1.18467 0.89453
 H129 H 0.18048 1.17248 0.83756
 H130 H 0.20772 1.19070 0.79976
 N131 N 0.83025 0.85461 0.75955
 N132 N 0.85345 0.82814 0.75820
 C133 C 0.87469 0.83255 0.72937
 C134 C 0.86425 0.86346 0.71164
 C135 C 0.83590 0.87674 0.73163
 H136 H 0.89625 0.81465 0.72201
 H137 H 0.82062 0.90080 0.72656
 Cu138 Cu 0.85439 0.79079 0.79456
 Cu139 Cu 0.79524 0.85895 0.79790
 Cu140 Cu 0.79262 0.79059 0.86046
 N141 N 0.85589 0.75601 0.83336
 N142 N 0.83163 0.75604 0.85891
 C143 C 0.83903 0.72960 0.88227
 C144 C 0.86960 0.71194 0.87080
 C145 C 0.87959 0.72948 0.83963
 H146 H 0.82364 0.72404 0.90618
 H147 H 0.90241 0.72346 0.82281
 N148 N 0.75579 0.82822 0.85754
 N149 N 0.75662 0.85412 0.83352
 C150 C 0.72710 0.87457 0.83731
 C151 C 0.70684 0.86117 0.86539
 C152 C 0.72597 0.83174 0.87754
 H153 H 0.72056 0.89710 0.82036
 H154 H 0.71845 0.81374 0.89890
 H155 H 0.82302 0.82957 0.83677
 H156 H 0.79183 0.80455 0.80631
 N157 N 0.16886 0.85501 1.24393
 N158 N 0.14569 0.82857 1.24487
 C159 C 0.12480 0.83235 1.27408
 C160 C 0.13539 0.86289 1.29239
 C161 C 0.16350 0.87653 1.27240
 H162 H 0.10327 0.81441 1.28121
 H163 H 0.17877 0.90048 1.27780
 Cu164 Cu 0.14439 0.79259 1.20707
 Cu165 Cu 0.20310 0.86049 1.20505
 Cu166 Cu 0.20880 0.79060 1.14394
 N167 N 0.14518 0.75597 1.16994
 N168 N 0.17066 0.75519 1.14561
 C169 C 0.16439 0.72812 1.12263
 C170 C 0.13328 0.71090 1.13305
 C171 C 0.12184 0.72930 1.16327
 H172 H 0.18068 0.72214 1.09940
 H173 H 0.09807 0.72402 1.17894
 N174 N 0.24429 0.82943 1.14653
 N175 N 0.24184 0.85622 1.16951
 C176 C 0.26975 0.87844 1.16455
 C177 C 0.29069 0.86517 1.13692
 C178 C 0.27370 0.83407 1.12613
 H179 H 0.27439 0.90254 1.17991
 H180 H 0.28218 0.81604 1.10511
 H181 H 0.17768 0.83032 1.16512
 H182 H 0.20726 0.80608 1.19759
 N183 N 0.83084 1.14557 1.24560
 N184 N 0.85498 1.17115 1.24627
 C185 C 0.87855 1.16440 1.27289
 C186 C 0.86856 1.13288 1.28976
 C187 C 0.83817 1.12175 1.27164
 H188 H 0.90140 1.18102 1.27924
 H189 H 0.82301 1.09759 1.27642
 Cu190 Cu 0.85412 1.21033 1.21176
 Cu191 Cu 0.79263 1.14387 1.21023
 Cu192 Cu 0.79752 1.20513 1.14120
 N193 N 0.85473 1.24539 1.17301
 N194 N 0.83261 1.24318 1.14561
 C195 C 0.83987 1.26960 1.12223
 C196 C 0.86816 1.28954 1.13554
 C197 C 0.87690 1.27337 1.16791
 H198 H 0.82627 1.27332 1.09686
 H199 H 0.89822 1.28091 1.18606
 N200 N 0.75882 1.16970 1.14506
 N201 N 0.75681 1.14648 1.17161
 C202 C 0.72757 1.12593 1.16691
 C203 C 0.71019 1.13680 1.13593
 C204 C 0.73077 1.16471 1.12284
 H205 H 0.71957 1.10466 1.18478
 H206 H 0.72583 1.18022 1.09886
 H207 H 0.82485 1.16722 1.17248
 H208 H 0.79221 1.19759 1.19585
 N209 N 0.46263 0.93609 0.96359
 N210 N 0.43463 0.91476 0.96006
 N211 N 0.53796 0.96112 0.93817
 N212 N 0.56322 0.95452 0.91421
 N213 N 0.53800 0.93640 0.96323
 N214 N 0.56328 0.91246 0.95712
 N215 N 0.46249 0.96079 0.93850
 N216 N 0.43434 0.95698 0.91733
 C217 C 0.41731 0.92803 0.93095
 C218 C 0.57896 0.92418 0.92660
 N219 N 0.53685 1.06358 0.96308
 N220 N 0.56340 1.08640 0.95849
 N221 N 0.46172 1.03780 0.93838
 N222 N 0.43316 1.04075 0.91761
 N223 N 0.46151 1.06265 0.96333
 N224 N 0.43295 1.08328 0.96010
 N225 N 0.53730 1.03880 0.93803
 N226 N 0.56413 1.04431 0.91554
 Mn227 Mn 0.49996 0.99964 0.93780
 C228 C 0.58017 1.07414 0.92873
 C229 C 0.41560 1.06940 0.93137
 N230 N 0.53885 0.93690 1.04048
 N231 N 0.56710 0.91583 1.04406
 N232 N 0.46362 0.96127 1.06598
 N233 N 0.43672 0.95677 1.08846
 N234 N 0.46331 0.93647 1.04100
 N235 N 0.43614 0.91439 1.04578
 N236 N 0.53893 0.96192 1.06527
 N237 N 0.56714 0.95849 1.08643
 Mn238 Mn 0.50067 0.93604 1.00210
 C239 C 0.58438 0.92950 1.07299
 C240 C 0.41984 0.92744 1.07552
 N241 N 0.46179 1.06284 1.04065
 N242 N 0.43306 1.08326 1.04404
 N243 N 0.53798 1.03908 1.06512
 N244 N 0.56525 1.04425 1.08714
 N245 N 0.53723 1.06387 1.04017
 N246 N 0.56394 1.08657 1.04448
 N247 N 0.46243 1.03813 1.06570
 N248 N 0.43409 1.04101 1.08673
 Mn249 Mn 0.49932 1.06364 1.00180
 Mn250 Mn 0.50079 1.00010 1.06595
 Cl251 Cl 0.50024 0.99984 1.00187
 C252 C 0.41613 1.06945 1.07304
 C253 C 0.58118 1.07399 1.07388
 N254 N 0.03936 0.46202 0.06562
 N255 N 0.04358 0.43515 0.08821
 N256 N 0.06486 0.53670 0.04014
 N257 N 0.08565 0.56512 0.04296
 N258 N 0.03969 0.53734 0.06477
 N259 N 0.04261 0.56624 0.08494
 N260 N 0.06425 0.46134 0.04075
 N261 N 0.08614 0.43395 0.04576
 C262 C 0.07287 0.41788 0.07550
 C263 C 0.07157 0.58315 0.07119
 N264 N 0.04038 0.53622 -0.06213
 N265 N 0.04628 0.56213 -0.08547
 N266 N 0.06432 0.46067 -0.03666
 N267 N 0.08508 0.43219 -0.03987
 N268 N 0.03950 0.46083 -0.06172
 N269 N 0.04274 0.43248 -0.08267
 N270 N 0.06525 0.53605 -0.03716
 N271 N 0.08875 0.56186 -0.04282
 Mn272 Mn 0.06512 0.49866 0.00178
 C273 C 0.07646 0.57803 -0.07298
 C274 C 0.07145 0.41497 -0.06884
 N275 N -0.03753 0.53774 0.06492
 N276 N -0.04363 0.56337 0.08856
 N277 N -0.06253 0.46225 0.04031
 N278 N -0.08333 0.43389 0.04371
 N279 N -0.03770 0.46247 0.06534
 N280 N -0.04093 0.43430 0.08643
 N281 N -0.06244 0.53763 0.04001
 N282 N -0.08618 0.56321 0.04600
 Mn283 Mn 0.00099 0.49993 0.06557
 C284 C -0.07395 0.57921 0.07627
 C285 C -0.06965 0.41684 0.07277
 N286 N -0.03785 0.46181 -0.06203
 N287 N -0.04400 0.43587 -0.08534
 N288 N -0.06202 0.53729 -0.03726
 N289 N -0.08251 0.56594 -0.04029
 N290 N -0.03696 0.53723 -0.06203
 N291 N -0.03969 0.56596 -0.08250
 N292 N -0.06259 0.46211 -0.03699
 N293 N -0.08620 0.43644 -0.04253
 Mn294 Mn 0.00126 0.49903 -0.06244
 Mn295 Mn -0.06281 0.49980 0.00149
 Cl296 Cl 0.00115 0.49936 0.00158
 C297 C -0.07418 0.42016 -0.07268
 C298 C -0.06843 0.58344 -0.06876
 N299 N 0.93670 -0.03926 0.46396
 N300 N 0.91354 -0.04510 0.43776
 N301 N 0.96130 -0.06353 0.53972
 N302 N 0.95659 -0.08586 0.56667
 N303 N 0.93630 -0.03874 0.53957
 N304 N 0.91387 -0.04354 0.56658
 N305 N 0.96160 -0.06415 0.46431
 N306 N 0.95608 -0.08758 0.43834
 C307 C 0.92609 -0.07525 0.42188
 C308 C 0.92696 -0.07309 0.58321
 N309 N 1.06334 -0.03878 0.54048
 N310 N 1.08397 -0.04169 0.56916
 N311 N 1.03875 -0.06436 0.46503
 N312 N 1.04332 -0.08694 0.43819
 N313 N 1.06368 -0.03961 0.46481
 N314 N 1.08594 -0.04465 0.43771
 N315 N 1.03840 -0.06355 0.54056
 N316 N 1.04140 -0.08399 0.56931
 Mn317 Mn 1.00004 -0.06429 0.50240
 C318 C 1.07011 -0.07018 0.58679
 C319 C 1.07285 -0.07433 0.42140
 N320 N 0.93637 0.03832 0.53894
 N321 N 0.91392 0.04275 0.56590
 N322 N 0.96189 0.06267 0.46349
 N323 N 0.95904 0.08321 0.43481
 N324 N 0.93691 0.03792 0.46342
 N325 N 0.91632 0.04105 0.43473
 N326 N 0.96110 0.06332 0.53911
 N327 N 0.95596 0.08563 0.56618
 Mn328 Mn 0.93613 -0.00040 0.50146
 C329 C 0.92637 0.07240 0.58262
 C330 C 0.93034 0.06957 0.41726
 N331 N 1.06384 0.03748 0.46424
 N332 N 1.08708 0.04254 0.43804
 N333 N 1.03882 0.06324 0.53953
 N334 N 1.04560 0.08749 0.56447
 N335 N 1.06363 0.03824 0.53963
 N336 N 1.08784 0.04471 0.56464
 N337 N 1.03911 0.06255 0.46399
 N338 N 1.04484 0.08533 0.43752
 Mn339 Mn 1.06403 -0.00071 0.50227
 Mn340 Mn 1.00018 0.06341 0.50158
 Cl341 Cl 1.00009 -0.00046 0.50195
 C342 C 1.07479 0.07239 0.42148
 C343 C 1.07614 0.07536 0.58012
 C344 C 1.09324 0.13472 0.34378
 C345 C 1.12400 0.11993 0.32776
 C346 C 1.14116 0.09166 0.34642
 C347 C 1.12578 0.07680 0.37757
 C348 C 1.09287 0.08973 0.39091
 C349 C 1.07817 0.11999 0.37448
 C350 C 1.04081 0.12647 0.36171
 C351 C 1.05711 0.14263 0.32810
 H352 H 1.16582 0.07999 0.33661
 H353 H 1.13897 0.05428 0.39031
 H354 H 1.02650 0.14641 0.37864
 H355 H 1.02591 0.10122 0.35653
 H356 H 1.05196 0.17186 0.32576
 H357 H 1.05155 0.12685 0.30339
 C358 C 0.86239 -0.09414 0.34506
 C359 C 0.87803 -0.12378 0.32806
 C360 C 0.90684 -0.14074 0.34598
 C361 C 0.92181 -0.12569 0.37730
 C362 C 0.90831 -0.09339 0.39149
 C363 C 0.87714 -0.07938 0.37595
 C364 C 0.86851 -0.04209 0.36450
 C365 C 0.85249 -0.05814 0.33058
 H366 H 0.91891 -0.16477 0.33516
 H367 H 0.94496 -0.13848 0.38936
 H368 H 0.89285 -0.02566 0.35950
 H369 H 0.84813 -0.02953 0.38225
 H370 H 0.86761 -0.05117 0.30583
 H371 H 0.82296 -0.05439 0.32877
 C372 C 0.90548 0.13518 0.65907
 C373 C 0.87852 0.11846 0.67881
 C374 C 0.86746 0.08447 0.66588
 C375 C 0.88295 0.06934 0.63450
 C376 C 0.91004 0.08761 0.61522
 C377 C 0.92020 0.12064 0.62899
 C378 C 0.94279 0.15246 0.62140
 C379 C 0.92643 0.16897 0.65555
 H380 H 0.84690 0.06949 0.67971
 H381 H 0.87360 0.04352 0.62533
 H382 H 0.93459 0.16637 0.59632
 H383 H 0.97175 0.14637 0.62384
 H384 H 0.90899 0.19252 0.65010
 H385 H 0.94619 0.17242 0.67765
 C386 C 1.12883 -0.08324 0.66865
 C387 C 1.11450 -0.11404 0.68460
 C388 C 1.08139 -0.12659 0.67103
 C389 C 1.06607 -0.11144 0.63993
 C390 C 1.08341 -0.08333 0.62171
 C391 C 1.11363 -0.06827 0.63806
 C392 C 1.14929 -0.05895 0.62259
 C393 C 1.16601 -0.07544 0.65597
 H394 H 1.06801 -0.14916 0.68322
 H395 H 1.04164 -0.12294 0.62924
 H396 H 1.15328 -0.02951 0.62085
 H397 H 1.15532 -0.07405 0.59756
 H398 H 1.17976 -0.05544 0.67327
 H399 H 1.18172 -0.10014 0.65033
 C400 C 0.33436 1.12772 1.08716
 C401 C 0.31814 1.11280 1.11771
 C402 C 0.33203 1.07966 1.12996
 C403 C 0.36320 1.06473 1.11461
 C404 C 0.38134 1.08248 1.08667
 C405 C 0.36506 1.11290 1.07209
 C406 C 0.38080 1.14862 1.06386
 C407 C 0.34737 1.16499 1.08040
 H408 H 0.31987 1.06566 1.15222
 H409 H 0.37390 1.04013 1.12570
 H410 H 0.38291 1.15339 1.03450
 H411 H 0.40564 1.15410 1.07947
 H412 H 0.33048 1.17939 1.06046
 H413 H 0.35281 1.18000 1.10562
 C414 C 0.33686 0.86803 0.91632
 C415 C 0.31993 0.88327 0.88625
 C416 C 0.33314 0.91669 0.87425
 C417 C 0.36413 0.93193 0.88960
 C418 C 0.38293 0.91410 0.91713
 C419 C 0.36762 0.88301 0.93123
 C420 C 0.38438 0.84732 0.93777
 C421 C 0.35083 0.83083 0.92166
 H422 H 0.32041 0.93086 0.85237
 H423 H 0.37411 0.95694 0.87887
 H424 H 0.38763 0.84144 0.96681
 H425 H 0.40881 0.84286 0.92124
 H426 H 0.33478 0.81560 0.94159
 H427 H 0.35581 0.81661 0.89589
 C428 C 0.66646 0.87129 1.08599
 C429 C 0.68186 0.88477 1.11769
 C430 C 0.66706 0.91685 1.13159
 C431 C 0.63596 0.93209 1.11640
 C432 C 0.61881 0.91580 1.08692
 C433 C 0.63584 0.88644 1.07105
 C434 C 0.62091 0.85099 1.06039
 C435 C 0.65428 0.83426 1.07677
 H436 H 0.67842 0.92974 1.15497
 H437 H 0.62447 0.95564 1.12883
 H438 H 0.61949 0.84783 1.03074
 H439 H 0.59587 0.84421 1.07506
 H440 H 0.67186 0.82131 1.05645
 H441 H 0.64862 0.81776 1.10096
 C442 C 0.65636 1.09584 0.86579
 C443 C 0.67629 1.12256 0.88294
 C444 C 0.66267 1.13382 0.91681
 C445 C 0.63127 1.11830 0.93169
 C446 C 0.61234 1.09105 0.91330
 C447 C 0.62616 1.08116 0.88012
 C448 C 0.61978 1.05707 0.84906
 C449 C 0.65396 1.07330 0.83275
 H450 H 0.67608 1.15435 0.93223
 H451 H 0.62210 1.12748 0.95769
 H452 H 0.59490 1.06408 0.83416
 H453 H 0.62265 1.02853 0.85652
 H454 H 0.64878 1.08948 0.80824
 H455 H 0.67644 1.05382 0.83069
 C456 C 0.13245 0.33802 0.09231
 C457 C 0.11861 0.32139 0.12278
 C458 C 0.08816 0.33822 0.13832
 C459 C 0.07317 0.36976 0.12313
 C460 C 0.08817 0.38546 0.09200
 C461 C 0.11809 0.36828 0.07788
 C462 C 0.14417 0.36951 0.04778
 C463 C 0.16057 0.33530 0.06400
 H464 H 0.07569 0.32725 0.16206
 H465 H 0.04985 0.38166 0.13571
 H466 H 0.16209 0.39321 0.04934
 H467 H 0.13097 0.36501 0.02147
 H468 H 0.18803 0.33926 0.07493
 H469 H 0.15700 0.31126 0.04675
 C470 C -0.09406 0.34367 -0.13601
 C471 C -0.12319 0.32655 -0.11965
 C472 C -0.13979 0.34440 -0.09064
 C473 C -0.12467 0.37579 -0.07611
 C474 C -0.09267 0.39002 -0.09028
 C475 C -0.07925 0.37461 -0.12172
 C476 C -0.04201 0.36352 -0.13124
 C477 C -0.05812 0.32946 -0.14668
 H478 H -0.16354 0.33349 -0.07813
 H479 H -0.13709 0.38784 -0.05277
 H480 H -0.02479 0.35882 -0.10729
 H481 H -0.03030 0.38125 -0.15207
 H482 H -0.05048 0.30495 -0.13154
 H483 H -0.05511 0.32750 -0.17630
 C484 C 0.14029 0.65464 -0.09103
 C485 C 0.12518 0.67143 -0.12114
 C486 C 0.09672 0.65339 -0.13853
 C487 C 0.08158 0.62224 -0.12357
 C488 C 0.09458 0.60822 -0.09094
 C489 C 0.12546 0.62382 -0.07644
 C490 C 0.13356 0.63521 -0.03893
 C491 C 0.14959 0.66910 -0.05477
 H492 H 0.08485 0.66401 -0.16278
 H493 H 0.05866 0.61019 -0.13672
 H494 H 0.15390 0.61755 -0.02616
 H495 H 0.10901 0.64011 -0.02272
 H496 H 0.17906 0.67099 -0.05061
 H497 H 0.13422 0.69371 -0.04794
 C498 C -0.13788 0.65572 0.09453
 C499 C -0.12227 0.67292 0.12413
 C500 C -0.09395 0.65482 0.14172
 C501 C -0.07908 0.62333 0.12703
 C502 C -0.09225 0.60916 0.09451
 C503 C -0.12330 0.62464 0.08019
 C504 C -0.13197 0.63548 0.04264
 C505 C -0.14775 0.66967 0.05824
 H506 H -0.08200 0.66569 0.16582
 H507 H -0.05615 0.61124 0.14016
 H508 H -0.15251 0.61770 0.03044
 H509 H -0.10767 0.64004 0.02599
 H510 H -0.17728 0.67161 0.05451
 H511 H -0.13248 0.69412 0.05084
 C512 C 1.09828 0.14155 0.65370
 C513 C 1.12744 0.12543 0.67114
 C514 C 1.14349 0.09569 0.65404
 C515 C 1.12768 0.08020 0.62337
 C516 C 1.09553 0.09413 0.60907
 C517 C 1.08282 0.12633 0.62341
 C518 C 1.04593 0.13684 0.63459
 C519 C 1.06270 0.15333 0.66791
 H520 H 1.16717 0.08316 0.66519
 H521 H 1.13958 0.05622 0.61213
 H522 H 1.02859 0.11338 0.64049
 H523 H 1.03422 0.15708 0.61612
 H524 H 1.05521 0.13935 0.69317
 H525 H 1.06010 0.18297 0.66871
 C526 C 0.86680 -0.09012 0.66265
 C527 C 0.88030 -0.12101 0.67885
 C528 C 0.91064 -0.13658 0.66193
 C529 C 0.92587 -0.12109 0.63071
 C530 C 0.91121 -0.08962 0.61537
 C531 C 0.88138 -0.07540 0.63262
 C532 C 0.85544 -0.04515 0.63163
 C533 C 0.83879 -0.06172 0.66557
 H534 H 0.92292 -0.16053 0.67265
 H535 H 0.94912 -0.13375 0.61876
 H536 H 0.83761 -0.04625 0.60772
 H537 H 0.86869 -0.01903 0.63663
 H538 H 0.81131 -0.07239 0.66124
 H539 H 0.84228 -0.04488 0.68994
 C540 C 1.13243 -0.09071 0.34146
 C541 C 1.11948 -0.12194 0.32548
 C542 C 1.08975 -0.13809 0.34284
 C543 C 1.07449 -0.12277 0.37420
 C544 C 1.08855 -0.09091 0.38922
 C545 C 1.11783 -0.07616 0.37160
 C546 C 1.14295 -0.04528 0.37224
 C547 C 1.15957 -0.06160 0.33811
 H548 H 1.07798 -0.16237 0.33233
 H549 H 1.05170 -0.13584 0.38648
 H550 H 1.16111 -0.04597 0.39592
 H551 H 1.12902 -0.01937 0.36748
 H552 H 1.18741 -0.07154 0.34209
 H553 H 1.15526 -0.04496 0.31374
 C554 C 0.87075 0.08480 0.33667
 C555 C 0.88686 0.11410 0.31962
 C556 C 0.92098 0.12479 0.33204
 C557 C 0.93592 0.10940 0.36319
 C558 C 0.91718 0.08289 0.38242
 C559 C 0.88556 0.06959 0.36730
 C560 C 0.84971 0.06412 0.38417
 C561 C 0.83344 0.08063 0.35065
 H562 H 0.93547 0.14611 0.31885
 H563 H 0.96124 0.11949 0.37312
 H564 H 0.84584 0.08072 0.40867
 H565 H 0.84311 0.03533 0.38735
 H566 H 0.81998 0.10675 0.35569
 H567 H 0.81755 0.06121 0.33457
 C568 C 0.08497 0.33361 -0.12780
 C569 C 0.11512 0.31706 -0.11256
 C570 C 0.12746 0.33041 -0.07932
 C571 C 0.11255 0.36175 -0.06445
 C572 C 0.08485 0.38030 -0.08229
 C573 C 0.07025 0.36450 -0.11305
 C574 C 0.06338 0.38053 -0.14909
 C575 C 0.07927 0.34672 -0.16525
 H576 H 0.14961 0.31771 -0.06550
 H577 H 0.12391 0.37239 -0.03998
 H578 H 0.07983 0.40483 -0.15411
 H579 H 0.03431 0.38367 -0.15474
 H580 H 0.10487 0.35139 -0.17981
 H581 H 0.05921 0.33035 -0.18002
 C582 C -0.12745 0.33495 0.08609
 C583 C -0.11353 0.31980 0.11761
 C584 C -0.08109 0.33404 0.13095
 C585 C -0.06594 0.36496 0.11556
 C586 C -0.08291 0.38233 0.08654
 C587 C -0.11252 0.36542 0.07098
 C588 C -0.14825 0.38026 0.06074
 C589 C -0.16470 0.34695 0.07732
 H590 H -0.06808 0.32236 0.15413
 H591 H -0.04192 0.37613 0.12747
 H592 H -0.15179 0.38162 0.03113
 H593 H -0.15494 0.40530 0.07548
 H594 H -0.17780 0.32928 0.05719
 H595 H -0.18096 0.35263 0.10169
 C596 C -0.12828 0.66376 -0.08248
 C597 C -0.11210 0.68164 -0.11126
 C598 C -0.07788 0.66966 -0.12223
 C599 C -0.06280 0.63826 -0.10757
 C600 C -0.08162 0.61832 -0.08164
 C601 C -0.11339 0.63287 -0.06807
 C602 C -0.14916 0.61571 -0.06326
 C603 C -0.16554 0.64952 -0.07891
 H604 H -0.06334 0.68350 -0.14313
 H605 H -0.03724 0.62885 -0.11768
 H606 H -0.15588 0.61163 -0.03453
 H607 H -0.15280 0.59175 -0.08064
 H608 H -0.18161 0.66488 -0.05904
 H609 H -0.17882 0.64519 -0.10531
 C610 C 0.13193 0.66277 0.08606
 C611 C 0.11525 0.68082 0.11453
 C612 C 0.08060 0.66938 0.12451
 C613 C 0.06558 0.63824 0.10942
 C614 C 0.08484 0.61798 0.08398
 C615 C 0.11706 0.63209 0.07118
 C616 C 0.15276 0.61448 0.06708
 C617 C 0.16912 0.64807 0.08320
 H618 H 0.06563 0.68339 0.14503
 H619 H 0.03968 0.62920 0.11889
 H620 H 0.16006 0.61038 0.03848
 H621 H 0.15580 0.59045 0.08443
 H622 H 0.18572 0.66329 0.06373
 H623 H 0.18182 0.64352 0.10985
 C624 C 0.33576 1.12971 0.91605
 C625 C 0.31839 1.11375 0.88672
 C626 C 0.33047 1.07945 0.87607
 C627 C 0.36147 1.06420 0.89146
 C628 C 0.38090 1.08277 0.91801
 C629 C 0.36610 1.11448 0.93139
 C630 C 0.38325 1.14996 0.93773
 C631 C 0.35016 1.16674 0.92082
 H632 H 0.31730 1.06502 0.85464
 H633 H 0.37105 1.03872 0.88139
 H634 H 0.40803 1.15377 0.92160
 H635 H 0.38601 1.15606 0.96680
 H636 H 0.35574 1.18028 0.89484
 H637 H 0.33407 1.18267 0.94024
 C638 C 0.33981 0.86823 1.09084
 C639 C 0.32399 0.88079 1.12234
 C640 C 0.34171 0.90981 1.13937
 C641 C 0.37314 0.92505 1.12437
 C642 C 0.38773 0.91171 1.09194
 C643 C 0.36985 0.88296 1.07648
 C644 C 0.36897 0.85993 1.04392
 C645 C 0.33499 0.84306 1.06010
 H646 H 0.33148 0.92095 1.16413
 H647 H 0.38575 0.94732 1.13805
 H648 H 0.39223 0.84132 1.04261
 H649 H 0.36367 0.87569 1.01916
 H650 H 0.33868 0.81463 1.06813
 H651 H 0.31028 0.84889 1.04441
 C652 C 0.66062 1.09122 1.13388
 C653 C 0.67704 1.12180 1.12014
 C654 C 0.66005 1.13742 1.08982
 C655 C 0.62865 1.12210 1.07468
 C656 C 0.61333 1.09072 1.08941
 C657 C 0.63058 1.07657 1.11931
 C658 C 0.62996 1.04600 1.14483
 C659 C 0.66396 1.06247 1.16146
 H660 H 0.67082 1.16134 1.07758
 H661 H 0.61661 1.13472 1.05143
 H662 H 0.63489 1.02002 1.13117
 H663 H 0.60624 1.04682 1.16287
 H664 H 0.68836 1.04579 1.15751
 H665 H 0.65984 1.07274 1.18918
 C666 C 0.65408 0.90312 0.86193
 C667 C 0.67165 0.87429 0.87845
 C668 C 0.65419 0.85807 0.90789
 C669 C 0.62299 0.87338 0.92272
 C670 C 0.60843 0.90514 0.90836
 C671 C 0.62319 0.91798 0.87642
 C672 C 0.63368 0.95499 0.86605
 C673 C 0.66769 0.93893 0.85039
 H674 H 0.66547 0.83475 0.92088
 H675 H 0.61153 0.86141 0.94656
 H676 H 0.63862 0.97254 0.88968
 H677 H 0.61537 0.96612 0.84529
 H678 H 0.69239 0.94706 0.86503
 H679 H 0.66908 0.94143 0.82069
   
