data_POSCAR
  _audit_creation_date              2014-09-24
  _audit_creation_method            'ToBaCCo'
  _symmetry_space_group_name_H-M    'P1'
  _symmetry_Int_Tables_number       1
  _symmetry_cell_setting            triclinic
  loop_
  _symmetry_equiv_pos_as_xyz
 x,y,z
_cell_length_a 34.6848
_cell_length_b 37.2896
_cell_length_c 34.8827
_cell_angle_alpha 90.566000
_cell_angle_beta 89.616000
_cell_angle_gamma 90.456400
loop_
  _atom_site_label
  _atom_site_type_symbol
  _atom_site_fract_x
  _atom_site_fract_y
  _atom_site_fract_z
Si1 Si 1.25253 0.24810 0.25791
 Si2 Si 0.75348 -0.25333 0.25069
 Si3 Si 0.75273 0.24987 -0.24538
 Si4 Si 1.25176 -0.24971 -0.24875
 Si5 Si 0.24700 0.25088 0.74433
 Si6 Si 0.74665 0.75024 0.75169
 Si7 Si 0.74643 0.25275 0.24721
 Si8 Si 0.24524 0.75239 0.25124
 N9 N 1.06806 0.04153 0.04407
 N10 N 1.09438 0.06596 0.05304
 N11 N 1.04269 -0.03451 0.07056
 N12 N 1.04990 -0.05843 0.09713
 N13 N 1.07044 -0.03390 0.04479
 N14 N 1.09736 -0.05739 0.05329
 N15 N 1.04062 0.04074 0.07018
 N16 N 1.04764 0.06442 0.09762
 C17 C 1.08096 0.08034 0.08632
 C18 C 1.08393 -0.07278 0.08589
 N19 N 0.93337 -0.03839 0.04226
 N20 N 0.90721 -0.06325 0.05024
 N21 N 0.95754 0.03811 0.06869
 N22 N 0.94846 0.06224 0.09509
 N23 N 0.93148 0.03708 0.04155
 N24 N 0.90411 0.06068 0.04868
 N25 N 0.95975 -0.03701 0.06907
 N26 N 0.95225 -0.06071 0.09592
 Mn27 Mn 1.00014 0.00184 0.06989
 C28 C 0.91966 -0.07722 0.08367
 C29 C 0.91528 0.07642 0.08202
 N30 N 1.07223 -0.03514 -0.03804
 N31 N 1.09933 -0.05909 -0.04469
 N32 N 1.04409 0.03855 -0.06596
 N33 N 1.05242 0.06168 -0.09326
 N34 N 1.07006 0.04020 -0.03876
 N35 N 1.09658 0.06468 -0.04677
 N36 N 1.04590 -0.03668 -0.06489
 N37 N 1.05433 -0.06177 -0.09045
 Mn38 Mn 1.07059 0.00321 0.00300
 C39 C 1.08758 -0.07576 -0.07731
 C40 C 1.08496 0.07815 -0.08069
 N41 N 0.93339 0.03584 -0.04126
 N42 N 0.90656 0.05943 -0.04964
 N43 N 0.96272 -0.03914 -0.06674
 N44 N 0.95545 -0.06289 -0.09410
 N45 N 0.93531 -0.03965 -0.04058
 N46 N 0.90883 -0.06395 -0.04941
 N47 N 0.96086 0.03606 -0.06737
 N48 N 0.95336 0.05963 -0.09421
 Mn49 Mn 0.93299 -0.00129 0.00049
 Mn50 Mn 1.00342 -0.00032 -0.06655
 Cl51 Cl 1.00177 0.00088 0.00169
 C52 C 0.91960 0.07432 -0.08262
 C53 C 0.92202 -0.07857 -0.08266
 N54 N 1.06364 0.54388 0.54256
 N55 N 1.08942 0.56890 0.55097
 N56 N 1.04048 0.46748 0.57027
 N57 N 1.04778 0.44313 0.59636
 N58 N 1.06823 0.46868 0.54454
 N59 N 1.09529 0.44526 0.55254
 N60 N 1.03657 0.54264 0.56901
 N61 N 1.04341 0.56659 0.59626
 C62 C 1.07582 0.58339 0.58401
 C63 C 1.08197 0.42930 0.58481
 N64 N 0.93117 0.46119 0.54222
 N65 N 0.90563 0.43585 0.55036
 N66 N 0.95386 0.53829 0.56743
 N67 N 0.94473 0.56286 0.59329
 N68 N 0.92765 0.53645 0.54048
 N69 N 0.89988 0.55972 0.54743
 N70 N 0.95763 0.46318 0.56891
 N71 N 0.95087 0.43931 0.59581
 Mn72 Mn 0.99712 0.50286 0.56923
 C73 C 0.91858 0.42217 0.58372
 C74 C 0.91118 0.57629 0.58031
 N75 N 1.07039 0.46625 0.46202
 N76 N 1.09833 0.44306 0.45581
 N77 N 1.04045 0.53841 0.43262
 N78 N 1.04805 0.56155 0.40514
 N79 N 1.06580 0.54155 0.46024
 N80 N 1.09097 0.56730 0.45262
 N81 N 1.04405 0.46336 0.43530
 N82 N 1.05329 0.43808 0.41024
 Mn83 Mn 1.06739 0.50515 0.50234
 C84 C 1.08708 0.42542 0.42361
 C85 C 1.07915 0.57982 0.41842
 N86 N 0.93000 0.53399 0.45751
 N87 N 0.90354 0.55798 0.44935
 N88 N 0.96093 0.45914 0.43354
 N89 N 0.95407 0.43497 0.40650
 N90 N 0.93329 0.45879 0.45947
 N91 N 0.90701 0.43430 0.45072
 N92 N 0.95757 0.53421 0.43152
 N93 N 0.95075 0.55834 0.40514
 Mn94 Mn 0.93009 0.49762 0.49990
 Mn95 Mn 1.00075 0.49870 0.43290
 Cl96 Cl 0.99881 0.50106 0.50108
 C97 C 0.91709 0.57315 0.41670
 C98 C 0.92062 0.41929 0.41785
 N99 N 0.57062 0.03964 0.54032
 N100 N 0.59778 0.06347 0.54813
 N101 N 0.54497 -0.03509 0.56938
 N102 N 0.55202 -0.05890 0.59612
 N103 N 0.57227 -0.03538 0.54314
 N104 N 0.59891 -0.05909 0.55159
 N105 N 0.54342 0.04040 0.56670
 N106 N 0.55144 0.06499 0.59310
 C107 C 0.58525 0.07948 0.58081
 C108 C 0.58566 -0.07383 0.58453
 N109 N 0.43595 -0.03986 0.54192
 N110 N 0.40988 -0.06454 0.55064
 N111 N 0.45988 0.03760 0.56618
 N112 N 0.45018 0.06161 0.59250
 N113 N 0.43353 0.03553 0.53935
 N114 N 0.40546 0.05840 0.54654
 N115 N 0.46209 -0.03734 0.56890
 N116 N 0.45441 -0.06003 0.59672
 Mn117 Mn 0.50260 0.00148 0.56813
 C118 C 0.42207 -0.07714 0.58476
 C119 C 0.41643 0.07477 0.57959
 N120 N 0.57340 -0.03859 0.46044
 N121 N 0.60066 -0.06237 0.45393
 N122 N 0.54514 0.03512 0.43139
 N123 N 0.55219 0.05923 0.40473
 N124 N 0.57187 0.03639 0.45785
 N125 N 0.59804 0.06109 0.44970
 N126 N 0.54707 -0.04038 0.43361
 N127 N 0.55556 -0.06572 0.40830
 Mn128 Mn 0.57235 0.00048 0.50043
 C129 C 0.58893 -0.07940 0.42157
 C130 C 0.58514 0.07541 0.41671
 N131 N 0.43483 0.03238 0.45681
 N132 N 0.40783 0.05574 0.44841
 N133 N 0.46400 -0.04265 0.43235
 N134 N 0.45582 -0.06576 0.40465
 N135 N 0.43699 -0.04312 0.45894
 N136 N 0.40994 -0.06694 0.45008
 N137 N 0.46199 0.03231 0.43041
 N138 N 0.45401 0.05533 0.40316
 Mn139 Mn 0.43495 -0.00384 0.49927
 Mn140 Mn 0.50461 -0.00387 0.43161
 Cl141 Cl 0.50357 -0.00143 0.49987
 C142 C 0.42036 0.07006 0.41500
 C143 C 0.42241 -0.08121 0.41636
 N144 N 0.45283 0.56397 -0.03588
 N145 N 0.44583 0.58977 -0.06035
 N146 N 0.42427 0.53756 0.04319
 N147 N 0.39534 0.54669 0.06603
 N148 N 0.45188 0.56187 0.04480
 N149 N 0.44266 0.58773 0.06921
 N150 N 0.42532 0.53957 -0.03686
 N151 N 0.39847 0.54854 -0.06158
 C152 C 0.41208 0.57963 -0.07644
 C153 C 0.40761 0.57767 0.08270
 N154 N 0.45171 0.43560 0.03918
 N155 N 0.44470 0.41032 0.06447
 N156 N 0.42507 0.46184 -0.04027
 N157 N 0.39814 0.45405 -0.06573
 N158 N 0.45244 0.43771 -0.04145
 N159 N 0.44516 0.41322 -0.06800
 N160 N 0.42436 0.45975 0.04003
 N161 N 0.39769 0.45122 0.06567
 Mn162 Mn 0.42438 0.49965 0.00151
 C163 C 0.41111 0.42051 0.08102
 C164 C 0.41143 0.42392 -0.08323
 N165 N 0.53510 0.56238 0.04457
 N166 N 0.54434 0.58822 0.06899
 N167 N 0.56254 0.54017 -0.03701
 N168 N 0.59019 0.54980 -0.06120
 N169 N 0.53554 0.56465 -0.03554
 N170 N 0.54410 0.59146 -0.05846
 N171 N 0.56192 0.53771 0.04358
 N172 N 0.58990 0.54603 0.06764
 Mn173 Mn 0.49380 0.56340 0.00454
 C174 C 0.57824 0.57736 0.08369
 C175 C 0.57795 0.58170 -0.07474
 N176 N 0.53544 0.43753 -0.04103
 N177 N 0.54520 0.41124 -0.06464
 N178 N 0.56171 0.46031 0.04033
 N179 N 0.58881 0.45127 0.06482
 N180 N 0.53451 0.43564 0.03913
 N181 N 0.54240 0.40922 0.06252
 N182 N 0.56241 0.46247 -0.04029
 N183 N 0.59106 0.45377 -0.06367
 Mn184 Mn 0.49345 0.43642 -0.00106
 Mn185 Mn 0.56250 0.50018 0.00162
 Cl186 Cl 0.49356 0.49992 0.00166
 C187 C 0.57960 0.42198 -0.07912
 C188 C 0.57604 0.41949 0.07880
 C189 C 1.17180 0.17544 0.18291
 C190 C 1.20145 0.19581 0.16519
 C191 C 1.22526 0.21835 0.18748
 C192 C 1.22066 0.21985 0.22736
 C193 C 1.19265 0.19840 0.24503
 C194 C 1.16819 0.17670 0.22316
 C195 C 1.14652 0.15228 0.15818
 C196 C 1.11412 0.13371 0.17262
 C197 C 1.09238 0.11124 0.14884
 C198 C 1.10245 0.10651 0.11016
 C199 C 1.13377 0.12591 0.09505
 C200 C 1.15545 0.14918 0.11863
 C201 C 1.20777 0.19279 0.12557
 C202 C 1.18577 0.16943 0.10292
 H203 H 1.23065 0.20813 0.11199
 H204 H 1.19237 0.16744 0.07257
 H205 H 1.24785 0.23398 0.17385
 H206 H 1.18948 0.19863 0.27595
 H207 H 1.06806 0.09688 0.16108
 H208 H 1.14126 0.12291 0.06497
 H209 H 1.14721 0.16068 0.23838
 H210 H 1.10501 0.13618 0.20214
 C211 C 1.17377 0.67362 0.67725
 C212 C 1.17286 0.71106 0.67124
 C213 C 1.19608 0.73406 0.69356
 C214 C 1.22129 0.72009 0.72079
 C215 C 1.22385 0.68286 0.72474
 C216 C 1.20027 0.65990 0.70355
 C217 C 1.14744 0.65000 0.65439
 C218 C 1.14295 0.61312 0.66176
 C219 C 1.11887 0.59191 0.63907
 C220 C 1.09900 0.60690 0.60855
 C221 C 1.10216 0.64366 0.60141
 C222 C 1.12565 0.66552 0.62474
 C223 C 1.14946 0.72508 0.64251
 C224 C 1.12705 0.70268 0.61912
 H225 H 1.14905 0.75371 0.63751
 H226 H 1.11004 0.71470 0.59676
 H227 H 1.19495 0.76280 0.68939
 H228 H 1.24410 0.67100 0.74414
 H229 H 1.11618 0.56352 0.64497
 H230 H 1.08608 0.65517 0.57804
 H231 H 1.20376 0.63150 0.70775
 H232 H 1.15745 0.60019 0.68506
 C233 C 0.67948 0.17609 0.67260
 C234 C 0.66073 0.19700 0.70108
 C235 C 0.68236 0.21994 0.72505
 C236 C 0.72270 0.22097 0.72237
 C237 C 0.74119 0.19974 0.69467
 C238 C 0.72000 0.17770 0.66996
 C239 C 0.65542 0.15236 0.64722
 C240 C 0.67100 0.13295 0.61603
 C241 C 0.64778 0.11014 0.59409
 C242 C 0.60851 0.10580 0.60277
 C243 C 0.59232 0.12587 0.63297
 C244 C 0.61536 0.14954 0.65480
 C245 C 0.62068 0.19423 0.70605
 C246 C 0.59860 0.17049 0.68392
 H247 H 0.60629 0.21006 0.72800
 H248 H 0.56787 0.16874 0.68949
 H249 H 0.66758 0.23654 0.74589
 H250 H 0.77224 0.20039 0.69174
 H251 H 0.66090 0.09522 0.57069
 H252 H 0.56181 0.12315 0.63940
 H253 H 0.73599 0.16178 0.64947
 H254 H 0.70101 0.13500 0.60800
 C255 C 0.67679 0.66757 0.17808
 C256 C 0.67039 0.70501 0.17678
 C257 C 0.69417 0.72867 0.19762
 C258 C 0.72333 0.71554 0.22108
 C259 C 0.72928 0.67850 0.22277
 C260 C 0.70648 0.65477 0.20149
 C261 C 0.65133 0.64323 0.15481
 C262 C 0.65717 0.60591 0.15178
 C263 C 0.63307 0.58450 0.12909
 C264 C 0.60230 0.59964 0.10935
 C265 C 0.59594 0.63665 0.11242
 C266 C 0.62058 0.65858 0.13433
 C267 C 0.63991 0.71853 0.15531
 C268 C 0.61519 0.69577 0.13499
 H269 H 0.63480 0.74716 0.15456
 H270 H 0.59181 0.70754 0.11908
 H271 H 0.68947 0.75733 0.19618
 H272 H 0.75157 0.66753 0.24061
 H273 H 0.63861 0.55601 0.12685
 H274 H 0.57257 0.64863 0.09666
 H275 H 0.71229 0.62656 0.20424
 H276 H 0.68055 0.59278 0.16607
 C277 C 0.83190 -0.17703 0.17708
 C278 C 0.80014 -0.19485 0.15989
 C279 C 0.77699 -0.21832 0.18162
 C280 C 0.78427 -0.22334 0.22066
 C281 C 0.81531 -0.20526 0.23770
 C282 C 0.83894 -0.18252 0.21631
 C283 C 0.85610 -0.15244 0.15297
 C284 C 0.88955 -0.13522 0.16686
 C285 C 0.91037 -0.11155 0.14387
 C286 C 0.89845 -0.10423 0.10645
 C287 C 0.86586 -0.12204 0.09179
 C288 C 0.84487 -0.14633 0.11464
 C289 C 0.79130 -0.18862 0.12139
 C290 C 0.81284 -0.16451 0.09942
 H291 H 0.76690 -0.20211 0.10821
 H292 H 0.80439 -0.16015 0.06999
 H293 H 0.75313 -0.23216 0.16809
 H294 H 0.82180 -0.20907 0.26766
 H295 H 0.93563 -0.09844 0.15577
 H296 H 0.85675 -0.11692 0.06270
 H297 H 0.86223 -0.16927 0.23122
 H298 H 0.90020 -0.13958 0.19539
 C299 C 0.83281 0.32189 0.67831
 C300 C 0.79666 0.30979 0.66441
 C301 C 0.77312 0.28762 0.68712
 C302 C 0.78502 0.27737 0.72364
 C303 C 0.82050 0.28955 0.73762
 C304 C 0.84429 0.31139 0.71524
 C305 C 0.85668 0.34621 0.65352
 C306 C 0.89310 0.35952 0.66461
 C307 C 0.91338 0.38346 0.64139
 C308 C 0.89806 0.39468 0.60645
 C309 C 0.86245 0.38067 0.59443
 C310 C 0.84168 0.35663 0.61767
 C311 C 0.78390 0.32039 0.62827
 C312 C 0.80585 0.34342 0.60547
 H313 H 0.75625 0.31109 0.61761
 H314 H 0.79444 0.35121 0.57796
 H315 H 0.74523 0.27887 0.67660
 H316 H 0.82973 0.28247 0.76614
 H317 H 0.94099 0.39364 0.65117
 H318 H 0.85048 0.38904 0.56735
 H319 H 0.87119 0.32010 0.72766
 H320 H 0.90635 0.35213 0.69122
 C321 C 0.33122 -0.17337 0.67908
 C322 C 0.30509 -0.19685 0.66027
 C323 C 0.28180 -0.22031 0.68175
 C324 C 0.28283 -0.21949 0.72190
 C325 C 0.30780 -0.19547 0.74046
 C326 C 0.33187 -0.17280 0.71946
 C327 C 0.35632 -0.14945 0.65519
 C328 C 0.38574 -0.12777 0.67095
 C329 C 0.40757 -0.10506 0.64772
 C330 C 0.40043 -0.10312 0.60831
 C331 C 0.37205 -0.12538 0.59203
 C332 C 0.35047 -0.14898 0.61506
 C333 C 0.30182 -0.19623 0.62027
 C334 C 0.32344 -0.17227 0.59822
 H335 H 0.28160 -0.21400 0.60584
 H336 H 0.31925 -0.17227 0.56746
 H337 H 0.26286 -0.23893 0.66702
 H338 H 0.30916 -0.19447 0.77141
 H339 H 0.42961 -0.08837 0.66086
 H340 H 0.36694 -0.12450 0.56142
 H341 H 0.35032 -0.15475 0.73541
 H342 H 0.39251 -0.12801 0.70107
 C343 C 0.32775 0.32687 0.18465
 C344 C 0.28701 0.32884 0.18439
 C345 C 0.26489 0.30473 0.20621
 C346 C 0.28279 0.27906 0.22889
 C347 C 0.32303 0.27816 0.23056
 C348 C 0.34534 0.30159 0.20855
 C349 C 0.35032 0.35193 0.15959
 C350 C 0.39066 0.34988 0.15518
 C351 C 0.41022 0.37277 0.13024
 C352 C 0.39028 0.39859 0.10948
 C353 C 0.35025 0.40147 0.11417
 C354 C 0.33007 0.37788 0.13842
 C355 C 0.26867 0.35498 0.16263
 C356 C 0.28976 0.37930 0.14057
 H357 H 0.23749 0.35675 0.16276
 H358 H 0.27420 0.39903 0.12426
 H359 H 0.23367 0.30600 0.20570
 H360 H 0.33753 0.25961 0.24905
 H361 H 0.44114 0.37002 0.12692
 H362 H 0.33459 0.42102 0.09768
 H363 H 0.37622 0.29968 0.21103
 H364 H 0.40756 0.33026 0.16992
 C365 C 0.83124 0.17346 -0.17407
 C366 C 0.79903 0.19005 -0.15637
 C367 C 0.77582 0.21349 -0.17739
 C368 C 0.78356 0.21983 -0.21623
 C369 C 0.81505 0.20296 -0.23379
 C370 C 0.83870 0.18021 -0.21310
 C371 C 0.85547 0.14883 -0.15066
 C372 C 0.88924 0.13261 -0.16503
 C373 C 0.91022 0.10908 -0.14254
 C374 C 0.89812 0.10088 -0.10520
 C375 C 0.86507 0.11754 -0.09018
 C376 C 0.84395 0.14166 -0.11245
 C377 C 0.78984 0.18265 -0.11806
 C378 C 0.81151 0.15866 -0.09674
 H379 H 0.76512 0.19520 -0.10449
 H380 H 0.80281 0.15345 -0.06741
 H381 H 0.75154 0.22631 -0.16352
 H382 H 0.82181 0.20766 -0.26365
 H383 H 0.93577 0.09680 -0.15474
 H384 H 0.85576 0.11173 -0.06115
 H385 H 0.86238 0.16796 -0.22836
 H386 H 0.90002 0.13770 -0.19354
 C387 C 0.83230 0.67406 0.32491
 C388 C 0.79543 0.68437 0.33854
 C389 C 0.77230 0.70679 0.31644
 C390 C 0.78536 0.71906 0.28084
 C391 C 0.82156 0.70867 0.26711
 C392 C 0.84494 0.68659 0.28889
 C393 C 0.85573 0.64942 0.34896
 C394 C 0.89279 0.63777 0.33805
 C395 C 0.91278 0.61359 0.36056
 C396 C 0.89652 0.60047 0.39458
 C397 C 0.86018 0.61268 0.40641
 C398 C 0.83970 0.63697 0.38389
 C399 C 0.78158 0.67176 0.37376
 C400 C 0.80317 0.64845 0.39588
 H401 H 0.75337 0.67969 0.38419
 H402 H 0.79096 0.63909 0.42269
 H403 H 0.74386 0.71421 0.32668
 H404 H 0.83167 0.71726 0.23921
 H405 H 0.94095 0.60479 0.35097
 H406 H 0.84750 0.60282 0.43281
 H407 H 0.87245 0.67932 0.27670
 H408 H 0.90680 0.64670 0.31214
 C409 C 0.32907 0.16768 0.32525
 C410 C 0.30079 0.18802 0.34499
 C411 C 0.27787 0.21229 0.32491
 C412 C 0.28225 0.21605 0.28523
 C413 C 0.30844 0.19430 0.26538
 C414 C 0.33193 0.17063 0.28508
 C415 C 0.35399 0.14313 0.34789
 C416 C 0.38533 0.12448 0.33158
 C417 C 0.40726 0.10138 0.35370
 C418 C 0.39833 0.09607 0.39247
 C419 C 0.36782 0.11518 0.40929
 C420 C 0.34606 0.13906 0.38748
 C421 C 0.29513 0.18357 0.38446
 C422 C 0.31681 0.15914 0.40512
 H423 H 0.27323 0.19886 0.39955
 H424 H 0.31093 0.15628 0.43550
 H425 H 0.25630 0.22775 0.34019
 H426 H 0.31115 0.19600 0.23449
 H427 H 0.43090 0.08715 0.34018
 H428 H 0.36121 0.11168 0.43946
 H429 H 0.35174 0.15467 0.26831
 H430 H 0.39357 0.12751 0.30192
 C431 C 0.32776 0.67550 -0.17402
 C432 C 0.28732 0.67681 -0.16857
 C433 C 0.26522 0.70067 -0.18992
 C434 C 0.28253 0.72191 -0.21816
 C435 C 0.32235 0.72008 -0.22425
 C436 C 0.34484 0.69737 -0.20227
 C437 C 0.35044 0.65021 -0.15009
 C438 C 0.39106 0.64956 -0.15043
 C439 C 0.41090 0.62608 -0.12692
 C440 C 0.39080 0.60227 -0.10314
 C441 C 0.35043 0.60232 -0.10279
 C442 C 0.33016 0.62672 -0.12531
 C443 C 0.26906 0.65358 -0.14277
 C444 C 0.28995 0.62857 -0.12216
 H445 H 0.23804 0.65431 -0.13893
 H446 H 0.27445 0.61086 -0.10290
 H447 H 0.23424 0.70175 -0.18566
 H448 H 0.33621 0.73568 -0.24647
 H449 H 0.44214 0.62664 -0.12718
 H450 H 0.33484 0.58453 -0.08367
 H451 H 0.37531 0.69669 -0.20854
 H452 H 0.40806 0.66752 -0.16785
 C453 C 1.17918 -0.17677 -0.16573
 C454 C 1.16177 -0.19235 -0.19858
 C455 C 1.18317 -0.21495 -0.22296
 C456 C 1.22210 -0.22156 -0.21571
 C457 C 1.23924 -0.20640 -0.18312
 C458 C 1.21816 -0.18434 -0.15834
 C459 C 1.15557 -0.15218 -0.14090
 C460 C 1.16992 -0.13588 -0.10719
 C461 C 1.14740 -0.11180 -0.08609
 C462 C 1.11010 -0.10333 -0.09802
 C463 C 1.09503 -0.12029 -0.13077
 C464 C 1.11735 -0.14466 -0.15214
 C465 C 1.12338 -0.18473 -0.20737
 C466 C 1.10175 -0.16118 -0.18482
 H467 H 1.11003 -0.19668 -0.23249
 H468 H 1.07238 -0.15565 -0.19325
 H469 H 1.16946 -0.22677 -0.24780
 H470 H 1.26912 -0.21166 -0.17661
 H471 H 1.15956 -0.09924 -0.06074
 H472 H 1.06603 -0.11418 -0.13997
 H473 H 1.23309 -0.17322 -0.13391
 H474 H 1.19850 -0.14105 -0.09676
 C475 C 1.18088 0.32459 0.33750
 C476 C 1.16266 0.30543 0.30731
 C477 C 1.18405 0.28191 0.28404
 C478 C 1.22357 0.27754 0.28999
 C479 C 1.24194 0.29739 0.31886
 C480 C 1.22088 0.32042 0.34265
 C481 C 1.15697 0.34945 0.36167
 C482 C 1.17176 0.36827 0.39366
 C483 C 1.14870 0.39225 0.41429
 C484 C 1.11045 0.39813 0.40351
 C485 C 1.09502 0.37867 0.37256
 C486 C 1.11781 0.35423 0.35185
 C487 C 1.12347 0.31049 0.29990
 C488 C 1.10164 0.33470 0.32139
 H489 H 1.10958 0.29594 0.27667
 H490 H 1.07157 0.33813 0.31408
 H491 H 1.16998 0.26783 0.26067
 H492 H 1.27273 0.29503 0.32304
 H493 H 1.16113 0.40676 0.43832
 H494 H 1.06526 0.38269 0.36441
 H495 H 1.23657 0.33508 0.36438
 H496 H 1.20102 0.36496 0.40318
 C497 C 0.68168 -0.17937 0.33340
 C498 C 0.66264 -0.20063 0.30542
 C499 C 0.68388 -0.22378 0.28151
 C500 C 0.72417 -0.22470 0.28366
 C501 C 0.74299 -0.20354 0.31119
 C502 C 0.72214 -0.18124 0.33589
 C503 C 0.65802 -0.15495 0.35829
 C504 C 0.67385 -0.13458 0.38865
 C505 C 0.65099 -0.11088 0.40980
 C506 C 0.61193 -0.10668 0.40107
 C507 C 0.59548 -0.12776 0.37188
 C508 C 0.61808 -0.15218 0.35084
 C509 C 0.62268 -0.19795 0.30074
 C510 C 0.60099 -0.17376 0.32249
 H511 H 0.60809 -0.21412 0.27922
 H512 H 0.57033 -0.17202 0.31710
 H513 H 0.66882 -0.24054 0.26104
 H514 H 0.77399 -0.20435 0.31393
 H515 H 0.66423 -0.09513 0.43248
 H516 H 0.56509 -0.12510 0.36548
 H517 H 0.73834 -0.16530 0.35619
 H518 H 0.70377 -0.13645 0.39651
 C519 C 0.67808 0.33002 -0.17188
 C520 C 0.67076 0.29263 -0.17022
 C521 C 0.69399 0.26862 -0.19119
 C522 C 0.72348 0.28135 -0.21517
 C523 C 0.73035 0.31836 -0.21716
 C524 C 0.70816 0.34241 -0.19573
 C525 C 0.65301 0.35477 -0.14868
 C526 C 0.65963 0.39210 -0.14610
 C527 C 0.63559 0.41392 -0.12378
 C528 C 0.60411 0.39920 -0.10395
 C529 C 0.59716 0.36213 -0.10640
 C530 C 0.62168 0.33981 -0.12794
 C531 C 0.63983 0.27952 -0.14835
 C532 C 0.61549 0.30263 -0.12813
 H533 H 0.63401 0.25094 -0.14727
 H534 H 0.59168 0.29115 -0.11199
 H535 H 0.68849 0.24002 -0.18953
 H536 H 0.75284 0.32910 -0.23544
 H537 H 0.64165 0.44243 -0.12203
 H538 H 0.57326 0.35042 -0.09056
 H539 H 0.71466 0.37057 -0.19877
 H540 H 0.68351 0.40493 -0.16057
 C541 C 1.17568 0.17735 -0.17264
 C542 C 1.16799 0.17760 -0.21247
 C543 C 1.18992 0.19949 -0.23696
 C544 C 1.21860 0.22223 -0.22227
 C545 C 1.22600 0.22246 -0.18290
 C546 C 1.20487 0.20026 -0.15828
 C547 C 1.15227 0.15271 -0.14765
 C548 C 1.15924 0.14852 -0.10815
 C549 C 1.13714 0.12457 -0.08639
 C550 C 1.10727 0.10458 -0.10329
 C551 C 1.09980 0.10882 -0.14244
 C552 C 1.12236 0.13218 -0.16477
 C553 C 1.13827 0.15628 -0.22762
 C554 C 1.11565 0.13440 -0.20422
 H555 H 1.13221 0.15668 -0.25805
 H556 H 1.09288 0.11855 -0.21735
 H557 H 1.18434 0.19923 -0.26752
 H558 H 1.24838 0.23952 -0.17103
 H559 H 1.14351 0.12164 -0.05624
 H560 H 1.07707 0.09313 -0.15587
 H561 H 1.21174 0.20159 -0.12820
 H562 H 1.18196 0.16302 -0.09364
 C563 C 1.16933 0.67975 0.32813
 C564 C 1.18792 0.66554 0.29522
 C565 C 1.21199 0.68744 0.27283
 C566 C 1.21609 0.72423 0.28100
 C567 C 1.19581 0.73862 0.31251
 C568 C 1.17319 0.71670 0.33609
 C569 C 1.14553 0.65489 0.35235
 C570 C 1.13055 0.66478 0.38861
 C571 C 1.10903 0.64027 0.41026
 C572 C 1.10110 0.60593 0.39569
 C573 C 1.11590 0.59571 0.35988
 C574 C 1.13906 0.61945 0.33873
 C575 C 1.18164 0.62976 0.28418
 C576 C 1.15684 0.60752 0.30486
 H577 H 1.19544 0.61898 0.25863
 H578 H 1.15233 0.58025 0.29471
 H579 H 1.22675 0.67538 0.24870
 H580 H 1.19761 0.76702 0.31917
 H581 H 1.09824 0.64821 0.43828
 H582 H 1.11065 0.56868 0.34923
 H583 H 1.15833 0.72923 0.35991
 H584 H 1.13593 0.69095 0.40103
 C585 C 0.67007 0.17944 0.32632
 C586 C 0.71078 0.17857 0.32856
 C587 C 0.73333 0.20077 0.30489
 C588 C 0.71591 0.22459 0.27963
 C589 C 0.67566 0.22737 0.27969
 C590 C 0.65294 0.20488 0.30239
 C591 C 0.64703 0.15361 0.35001
 C592 C 0.60683 0.14915 0.34612
 C593 C 0.58680 0.12390 0.36802
 C594 C 0.60619 0.10296 0.39472
 C595 C 0.64613 0.10728 0.39902
 C596 C 0.66678 0.13173 0.37622
 C597 C 0.72865 0.15582 0.35464
 C598 C 0.70707 0.13345 0.37853
 H599 H 0.75980 0.15550 0.35681
 H600 H 0.72224 0.11652 0.39840
 H601 H 0.76443 0.19969 0.30646
 H602 H 0.66134 0.24696 0.26238
 H603 H 0.55600 0.12072 0.36406
 H604 H 0.66141 0.09057 0.41906
 H605 H 0.62210 0.20812 0.30113
 H606 H 0.59049 0.16424 0.32571
 C607 C 0.66981 0.67734 -0.16928
 C608 C 0.69929 0.66198 -0.19219
 C609 C 0.72211 0.68386 -0.21599
 C610 C 0.71676 0.72108 -0.21640
 C611 C 0.68889 0.73638 -0.19228
 C612 C 0.66550 0.71490 -0.16916
 C613 C 0.64503 0.65299 -0.14550
 C614 C 0.61263 0.66525 -0.12487
 C615 C 0.59073 0.64176 -0.10265
 C616 C 0.60064 0.60549 -0.10006
 C617 C 0.63234 0.59270 -0.12115
 C618 C 0.65415 0.61606 -0.14436
 C619 C 0.70616 0.62503 -0.19074
 C620 C 0.68456 0.60268 -0.16679
 H621 H 0.72899 0.61326 -0.20798
 H622 H 0.69140 0.57438 -0.16627
 H623 H 0.74426 0.67181 -0.23383
 H624 H 0.68492 0.76517 -0.19158
 H625 H 0.56621 0.65225 -0.08691
 H626 H 0.63977 0.56455 -0.11981
 H627 H 0.64458 0.72827 -0.15117
 H628 H 0.60346 0.69279 -0.12573
 C629 C 0.83021 -0.17582 -0.17653
 C630 C 0.79889 -0.19352 -0.15839
 C631 C 0.77442 -0.21617 -0.17975
 C632 C 0.77974 -0.22057 -0.21937
 C633 C 0.81048 -0.20279 -0.23737
 C634 C 0.83552 -0.18079 -0.21633
 C635 C 0.85573 -0.15194 -0.15261
 C636 C 0.88882 -0.13462 -0.16738
 C637 C 0.91080 -0.11161 -0.14427
 C638 C 0.90029 -0.10508 -0.10598
 C639 C 0.86810 -0.12300 -0.09062
 C640 C 0.84606 -0.14658 -0.11346
 C641 C 0.79172 -0.18804 -0.11921
 C642 C 0.81447 -0.16471 -0.09736
 H643 H 0.76767 -0.20150 -0.10533
 H644 H 0.80725 -0.16090 -0.06732
 H645 H 0.75102 -0.22990 -0.16535
 H646 H 0.81559 -0.20626 -0.26780
 H647 H 0.93569 -0.09829 -0.15673
 H648 H 0.86008 -0.11848 -0.06088
 H649 H 0.85854 -0.16770 -0.23186
 H650 H 0.89819 -0.13836 -0.19667
 C651 C 0.82941 0.32372 0.32182
 C652 C 0.79387 0.31130 0.33716
 C653 C 0.76923 0.28985 0.31469
 C654 C 0.77929 0.28082 0.27694
 C655 C 0.81401 0.29349 0.26145
 C656 C 0.83893 0.31460 0.28358
 C657 C 0.85478 0.34677 0.34671
 C658 C 0.89109 0.35976 0.33458
 C659 C 0.91283 0.38246 0.35820
 C660 C 0.89904 0.39276 0.39449
 C661 C 0.86359 0.37899 0.40744
 C662 C 0.84148 0.35610 0.38394
 C663 C 0.78288 0.32074 0.37459
 C664 C 0.80603 0.34287 0.39737
 H665 H 0.75568 0.31125 0.38631
 H666 H 0.79596 0.34982 0.42595
 H667 H 0.74200 0.28056 0.32651
 H668 H 0.82190 0.28709 0.23210
 H669 H 0.94025 0.39252 0.34765
 H670 H 0.85284 0.38656 0.43561
 H671 H 0.86523 0.32372 0.27007
 H672 H 0.90312 0.35301 0.30689
 C673 C 0.32782 -0.17497 0.32137
 C674 C 0.30470 -0.20089 0.34013
 C675 C 0.28068 -0.22396 0.31871
 C676 C 0.27701 -0.21999 0.27886
 C677 C 0.29962 -0.19385 0.26051
 C678 C 0.32477 -0.17177 0.28131
 C679 C 0.35378 -0.15147 0.34518
 C680 C 0.38095 -0.12764 0.32901
 C681 C 0.40377 -0.10565 0.35238
 C682 C 0.39969 -0.10635 0.39237
 C683 C 0.37345 -0.13057 0.40889
 C684 C 0.35122 -0.15371 0.38563
 C685 C 0.30495 -0.20304 0.38024
 C686 C 0.32695 -0.17937 0.40252
 H687 H 0.28702 -0.22269 0.39471
 H688 H 0.32534 -0.18154 0.43345
 H689 H 0.26502 -0.24484 0.33354
 H690 H 0.29830 -0.19044 0.22983
 H691 H 0.42408 -0.08736 0.33900
 H692 H 0.37079 -0.13175 0.43985
 H693 H 0.34103 -0.15196 0.26555
 H694 H 0.38521 -0.12575 0.29844
 C695 C 0.32497 0.33124 -0.18633
 C696 C 0.28428 0.33290 -0.18377
 C697 C 0.26144 0.30852 -0.20472
 C698 C 0.27850 0.28282 -0.22878
 C699 C 0.31862 0.28239 -0.23293
 C700 C 0.34169 0.30611 -0.21180
 C701 C 0.34838 0.35631 -0.16175
 C702 C 0.38885 0.35440 -0.15934
 C703 C 0.40919 0.37705 -0.13449
 C704 C 0.38988 0.40253 -0.11186
 C705 C 0.34972 0.40537 -0.11469
 C706 C 0.32880 0.38198 -0.13878
 C707 C 0.26666 0.35888 -0.16044
 C708 C 0.28845 0.38323 -0.13887
 H709 H 0.23550 0.36044 -0.15884
 H710 H 0.27342 0.40277 -0.12121
 H711 H 0.23027 0.30947 -0.20226
 H712 H 0.33244 0.26385 -0.25253
 H713 H 0.44019 0.37432 -0.13262
 H714 H 0.33455 0.42464 -0.09679
 H715 H 0.37245 0.30449 -0.21606
 H716 H 0.40527 0.33499 -0.17555
 C717 C 1.16897 -0.17389 0.17830
 C718 C 1.20735 -0.18138 0.16702
 C719 C 1.23020 -0.20409 0.18929
 C720 C 1.21554 -0.21954 0.22303
 C721 C 1.17716 -0.21270 0.23350
 C722 C 1.15424 -0.19020 0.21163
 C723 C 1.14580 -0.14882 0.15428
 C724 C 1.10774 -0.13890 0.16367
 C725 C 1.08775 -0.11471 0.14105
 C726 C 1.10497 -0.09979 0.10835
 C727 C 1.14264 -0.10990 0.09828
 C728 C 1.16318 -0.13406 0.12107
 C729 C 1.22274 -0.16612 0.13364
 C730 C 1.20113 -0.14307 0.11114
 H731 H 1.25207 -0.17196 0.12484
 H732 H 1.21449 -0.13185 0.08572
 H733 H 1.25939 -0.20986 0.18001
 H734 H 1.16426 -0.22446 0.25865
 H735 H 1.05871 -0.10744 0.14944
 H736 H 1.15627 -0.09845 0.07311
 H737 H 1.12508 -0.18599 0.22143
 H738 H 1.09293 -0.14914 0.18858
 C739 C 1.16816 0.32631 0.67299
 C740 C 1.20803 0.32341 0.66460
 C741 C 1.23120 0.30063 0.68623
 C742 C 1.21509 0.27976 0.71543
 C743 C 1.17569 0.28231 0.72363
 C744 C 1.15239 0.30524 0.70268
 C745 C 1.14469 0.35191 0.65006
 C746 C 1.10533 0.35835 0.65754
 C747 C 1.08503 0.38320 0.63604
 C748 C 1.10324 0.40198 0.60631
 C749 C 1.14222 0.39545 0.59821
 C750 C 1.16313 0.37101 0.62011
 C751 C 1.22454 0.34320 0.63470
 C752 C 1.20250 0.36622 0.61270
 H753 H 1.25500 0.34078 0.62814
 H754 H 1.21665 0.38091 0.58986
 H755 H 1.26186 0.29896 0.68023
 H756 H 1.16279 0.26710 0.74669
 H757 H 1.05494 0.38782 0.64281
 H758 H 1.15660 0.41012 0.57548
 H759 H 1.12224 0.30610 0.71027
 H760 H 1.08979 0.34492 0.68016
 C761 C 0.67010 -0.17590 0.67546
 C762 C 0.71070 -0.17597 0.67114
 C763 C 0.73323 -0.19812 0.69424
 C764 C 0.71590 -0.22089 0.72111
 C765 C 0.67561 -0.22245 0.72361
 C766 C 0.65294 -0.20005 0.70139
 C767 C 0.64719 -0.15051 0.65175
 C768 C 0.60720 -0.14566 0.65681
 C769 C 0.58733 -0.12096 0.63470
 C770 C 0.60664 -0.10086 0.60670
 C771 C 0.64637 -0.10559 0.60121
 C772 C 0.66687 -0.12963 0.62403
 C773 C 0.72850 -0.15426 0.64356
 C774 C 0.70699 -0.13206 0.62006
 H775 H 0.75955 -0.15461 0.63989
 H776 H 0.72212 -0.11593 0.59901
 H777 H 0.76426 -0.19791 0.69087
 H778 H 0.66123 -0.24111 0.74243
 H779 H 0.55669 -0.11755 0.63958
 H780 H 0.66161 -0.08964 0.58007
 H781 H 0.62208 -0.20242 0.70459
 H782 H 0.59089 -0.16008 0.67819
 C783 C 0.66756 0.32548 0.17248
 C784 C 0.69818 0.34101 0.19370
 C785 C 0.72158 0.31928 0.21646
 C786 C 0.71568 0.28208 0.21728
 C787 C 0.68650 0.26665 0.19491
 C788 C 0.66255 0.28796 0.17296
 C789 C 0.64248 0.34956 0.14951
 C790 C 0.60922 0.33710 0.13053
 C791 C 0.58741 0.36021 0.10847
 C792 C 0.59821 0.39629 0.10451
 C793 C 0.63057 0.40937 0.12429
 C794 C 0.65239 0.38639 0.14724
 C795 C 0.70565 0.37792 0.19145
 C796 C 0.68372 0.40000 0.16813
 H797 H 0.72929 0.38983 0.20741
 H798 H 0.69112 0.42825 0.16678
 H799 H 0.74462 0.33138 0.23305
 H800 H 0.68203 0.23786 0.19463
 H801 H 0.56231 0.34953 0.09384
 H802 H 0.63868 0.43741 0.12192
 H803 H 0.64071 0.27445 0.15622
 H804 H 0.59939 0.30966 0.13244
 C805 C 0.82169 0.17749 0.16865
 C806 C 0.82968 0.18127 0.20824
 C807 C 0.80682 0.20372 0.23147
 C808 C 0.77634 0.22299 0.21578
 C809 C 0.76955 0.22042 0.17632
 C810 C 0.79168 0.19783 0.15304
 C811 C 0.84586 0.15229 0.14507
 C812 C 0.83847 0.14460 0.10613
 C813 C 0.86130 0.12028 0.08567
 C814 C 0.89225 0.10327 0.10333
 C815 C 0.90012 0.11093 0.14196
 C816 C 0.87688 0.13479 0.16304
 C817 C 0.86062 0.16295 0.22433
 C818 C 0.88399 0.14055 0.20212
 H819 H 0.86699 0.16609 0.25456
 H820 H 0.90764 0.12705 0.21593
 H821 H 0.81329 0.20668 0.26166
 H822 H 0.74718 0.23582 0.16304
 H823 H 0.85459 0.11466 0.05591
 H824 H 0.92373 0.09754 0.15599
 H825 H 0.78502 0.19698 0.12290
 H826 H 0.81484 0.15656 0.09108
 C827 C 0.81842 0.67576 0.66989
 C828 C 0.83401 0.68778 0.70525
 C829 C 0.81248 0.71032 0.72954
 C830 C 0.77558 0.72123 0.71909
 C831 C 0.75992 0.70922 0.68439
 C832 C 0.78105 0.68684 0.65993
 C833 C 0.84217 0.65123 0.64507
 C834 C 0.82940 0.63766 0.60940
 C835 C 0.85214 0.61389 0.58804
 C836 C 0.88814 0.60315 0.60158
 C837 C 0.90154 0.61719 0.63653
 C838 C 0.87892 0.64095 0.65832
 C839 C 0.87081 0.67699 0.71636
 C840 C 0.89275 0.65404 0.69343
 H841 H 0.88275 0.68623 0.74338
 H842 H 0.92094 0.64624 0.70349
 H843 H 0.82432 0.71908 0.75678
 H844 H 0.73115 0.71701 0.67618
 H845 H 0.84124 0.60352 0.56106
 H846 H 0.92943 0.60916 0.64720
 H847 H 0.76748 0.67838 0.63361
 H848 H 0.80188 0.64476 0.59762
 C849 C 0.31957 0.17302 0.66652
 C850 C 0.32677 0.17608 0.70634
 C851 C 0.30401 0.19869 0.72943
 C852 C 0.27524 0.21969 0.71321
 C853 C 0.26785 0.21655 0.67394
 C854 C 0.28967 0.19352 0.65079
 C855 C 0.34434 0.14828 0.64293
 C856 C 0.33824 0.14170 0.60354
 C857 C 0.36188 0.11807 0.58300
 C858 C 0.39245 0.10079 0.60103
 C859 C 0.39900 0.10732 0.64011
 C860 C 0.37491 0.13039 0.66125
 C861 C 0.35701 0.15708 0.72280
 C862 C 0.38085 0.13507 0.70066
 H863 H 0.36266 0.15958 0.75323
 H864 H 0.40408 0.12120 0.71473
 H865 H 0.30931 0.20066 0.75998
 H866 H 0.24503 0.23172 0.66094
 H867 H 0.35620 0.11330 0.55288
 H868 H 0.42226 0.09366 0.65440
 H869 H 0.28288 0.19245 0.62068
 H870 H 0.31513 0.15412 0.58813
 C871 C 0.31461 0.67621 0.17291
 C872 C 0.33359 0.69656 0.20167
 C873 C 0.31254 0.72018 0.22527
 C874 C 0.27291 0.72509 0.21959
 C875 C 0.25484 0.70697 0.18911
 C876 C 0.27523 0.68255 0.16629
 C877 C 0.33755 0.64932 0.15028
 C878 C 0.32050 0.62425 0.12493
 C879 C 0.34325 0.60009 0.10407
 C880 C 0.38347 0.60076 0.10750
 C881 C 0.40066 0.62490 0.13342
 C882 C 0.37797 0.64846 0.15551
 C883 C 0.37349 0.69344 0.20647
 C884 C 0.39535 0.67061 0.18319
 H885 H 0.38819 0.70936 0.22814
 H886 H 0.42623 0.66970 0.18754
 H887 H 0.32723 0.73429 0.24827
 H888 H 0.22442 0.71074 0.18368
 H889 H 0.32940 0.58152 0.08435
 H890 H 0.43174 0.62502 0.13671
 H891 H 0.25976 0.66901 0.14357
 H892 H 0.28969 0.62273 0.12106
   
