data_POSCAR
  _audit_creation_date              2014-09-24
  _audit_creation_method            'ToBaCCo'
  _symmetry_space_group_name_H-M    'P1'
  _symmetry_Int_Tables_number       1
  _symmetry_cell_setting            triclinic
  loop_
  _symmetry_equiv_pos_as_xyz
 x,y,z
_cell_length_a 52.1515
_cell_length_b 52.7893
_cell_length_c 46.0079
_cell_angle_alpha 90.006700
_cell_angle_beta 89.966900
_cell_angle_gamma 90.177500
loop_
  _atom_site_label
  _atom_site_type_symbol
  _atom_site_fract_x
  _atom_site_fract_y
  _atom_site_fract_z
C1 C 1.27098 0.22423 0.26605
 C2 C 1.25147 0.23722 0.25149
 C3 C 1.23293 0.22372 0.23588
 C4 C 1.23426 0.19725 0.23389
 C5 C 1.25406 0.18435 0.24836
 C6 C 1.27246 0.19754 0.26517
 C7 C 1.25102 0.26511 0.25206
 C8 C 1.27033 0.27893 0.23787
 C9 C 1.27036 0.30570 0.23803
 C10 C 1.25073 0.31800 0.25382
 C11 C 1.23134 0.30431 0.26814
 C12 C 1.23149 0.27779 0.26689
 H13 H 1.28539 0.23530 0.27729
 H14 H 1.21799 0.23392 0.22447
 H15 H 1.28444 0.26842 0.22561
 H16 H 1.21657 0.26694 0.27763
 H17 H 1.25400 0.16386 0.24770
 H18 H 1.25104 0.33834 0.25651
 C19 C 0.76643 -0.27827 0.26667
 C20 C 0.74848 -0.26484 0.25013
 C21 C 0.72967 -0.27786 0.23438
 C22 C 0.72876 -0.30439 0.23482
 C23 C 0.74658 -0.31768 0.25184
 C24 C 0.76574 -0.30499 0.26800
 C25 C 0.74926 -0.23700 0.24953
 C26 C 0.76889 -0.22427 0.23463
 C27 C 0.76939 -0.19768 0.23375
 C28 C 0.75055 -0.18400 0.24889
 C29 C 0.73110 -0.19662 0.26433
 C30 C 0.73034 -0.22318 0.26411
 H31 H 0.78120 -0.26759 0.27779
 H32 H 0.71616 -0.26727 0.22129
 H33 H 0.78327 -0.23508 0.22303
 H34 H 0.71551 -0.23317 0.27605
 H35 H 0.74440 -0.33800 0.25350
 H36 H 0.75103 -0.16347 0.24864
 C37 C 0.76821 0.22345 -0.23037
 C38 C 0.74854 0.23576 -0.24556
 C39 C 0.72954 0.22150 -0.25959
 C40 C 0.73021 0.19496 -0.25901
 C41 C 0.74963 0.18277 -0.24323
 C42 C 0.76856 0.19687 -0.22860
 C43 C 0.74799 0.26358 -0.24775
 C44 C 0.76644 0.27625 -0.26451
 C45 C 0.76442 0.30248 -0.26987
 C46 C 0.74402 0.31578 -0.25676
 C47 C 0.72623 0.30349 -0.23858
 C48 C 0.72802 0.27719 -0.23478
 H49 H 0.78274 0.23456 -0.21933
 H50 H 0.71480 0.23115 -0.27193
 H51 H 0.78123 0.26514 -0.27499
 H52 H 0.71425 0.26727 -0.22126
 H53 H 0.75007 0.16226 -0.24240
 H54 H 0.74240 0.33605 -0.25969
 C55 C 1.27081 -0.27897 -0.23850
 C56 C 1.25137 -0.26508 -0.25215
 C57 C 1.23170 -0.27766 -0.26696
 C58 C 1.23155 -0.30414 -0.26872
 C59 C 1.25106 -0.31792 -0.25493
 C60 C 1.27082 -0.30573 -0.23917
 C61 C 1.25190 -0.23723 -0.25128
 C62 C 1.27131 -0.22409 -0.26596
 C63 C 1.27227 -0.19755 -0.26529
 C64 C 1.25395 -0.18424 -0.24896
 C65 C 1.23430 -0.19725 -0.23418
 C66 C 1.23322 -0.22381 -0.23578
 H67 H 1.28505 -0.26854 -0.22625
 H68 H 1.21670 -0.26676 -0.27734
 H69 H 1.28562 -0.23460 -0.27804
 H70 H 1.21835 -0.23411 -0.22427
 H71 H 1.25136 -0.33822 -0.25804
 H72 H 1.25449 -0.16373 -0.24848
 C73 C 0.22209 0.27057 0.73486
 C74 C 0.23588 0.25195 0.74963
 C75 C 0.22284 0.23307 0.76523
 C76 C 0.19573 0.23253 0.76637
 C77 C 0.18227 0.25128 0.75059
 C78 C 0.19527 0.27016 0.73486
 C79 C 0.26409 0.25210 0.74813
 C80 C 0.27797 0.27172 0.76136
 C81 C 0.30502 0.27267 0.75975
 C82 C 0.31750 0.25353 0.74357
 C83 C 0.30375 0.23381 0.73015
 C84 C 0.27698 0.23312 0.73279
 H85 H 0.23231 0.28489 0.72251
 H86 H 0.23414 0.21852 0.77567
 H87 H 0.26733 0.28542 0.77397
 H88 H 0.26607 0.21799 0.72270
 H89 H 0.16158 0.25233 0.75150
 H90 H 0.33795 0.25449 0.73986
 C91 C 0.72175 0.76946 0.73637
 C92 C 0.73444 0.75011 0.75128
 C93 C 0.72038 0.73111 0.76530
 C94 C 0.69336 0.73107 0.76491
 C95 C 0.68094 0.75059 0.74932
 C96 C 0.69473 0.76998 0.73485
 C97 C 0.76267 0.74925 0.75178
 C98 C 0.77679 0.76685 0.76809
 C99 C 0.80370 0.76532 0.76940
 C100 C 0.81626 0.74610 0.75369
 C101 C 0.80225 0.72868 0.73687
 C102 C 0.77542 0.73027 0.73629
 H103 H 0.73326 0.78423 0.72651
 H104 H 0.73095 0.71709 0.77752
 H105 H 0.76675 0.78162 0.77979
 H106 H 0.76436 0.71666 0.72383
 H107 H 0.66046 0.74940 0.74623
 H108 H 0.83696 0.74470 0.75447
 C109 C 0.72124 0.27056 0.23115
 C110 C 0.73525 0.25148 0.24505
 C111 C 0.72240 0.23256 0.26076
 C112 C 0.69554 0.23281 0.26308
 C113 C 0.68172 0.25204 0.24899
 C114 C 0.69434 0.27086 0.23270
 C115 C 0.76345 0.25178 0.24389
 C116 C 0.77702 0.27078 0.25861
 C117 C 0.80390 0.27076 0.25887
 C118 C 0.81713 0.25195 0.24340
 C119 C 0.80377 0.23304 0.22803
 C120 C 0.77681 0.23293 0.22872
 H121 H 0.73138 0.28482 0.21864
 H122 H 0.73339 0.21782 0.27134
 H123 H 0.76658 0.28501 0.27075
 H124 H 0.76615 0.21820 0.21757
 H125 H 0.66107 0.25272 0.25133
 H126 H 0.83790 0.25239 0.24291
 C127 C 0.22293 0.76597 0.23554
 C128 C 0.23573 0.74684 0.25073
 C129 C 0.22176 0.72806 0.26524
 C130 C 0.19476 0.72848 0.26568
 C131 C 0.18219 0.74783 0.25001
 C132 C 0.19589 0.76665 0.23447
 C133 C 0.26396 0.74669 0.25218
 C134 C 0.27703 0.76530 0.26816
 C135 C 0.30389 0.76476 0.27042
 C136 C 0.31748 0.74548 0.25607
 C137 C 0.30466 0.72699 0.23950
 C138 C 0.27776 0.72760 0.23799
 H139 H 0.23438 0.78059 0.22530
 H140 H 0.23230 0.71412 0.27764
 H141 H 0.26621 0.78010 0.27887
 H142 H 0.26748 0.71364 0.22522
 H143 H 0.16159 0.74685 0.24792
 H144 H 0.33812 0.74456 0.25833
 N145 N 1.04760 0.02570 0.03134
 N146 N 1.06597 0.04205 0.03740
 N147 N 1.02992 -0.02757 0.05188
 N148 N 1.03493 -0.04471 0.07193
 N149 N 1.04779 -0.02750 0.03175
 N150 N 1.06548 -0.04460 0.03768
 N151 N 1.03007 0.02569 0.05185
 N152 N 1.03618 0.04212 0.07245
 C153 C 1.05850 0.05245 0.06288
 C154 C 1.05706 -0.05538 0.06268
 N155 N 0.95702 -0.02807 0.03151
 N156 N 0.93891 -0.04474 0.03741
 N157 N 0.97459 0.02534 0.05179
 N158 N 0.96956 0.04269 0.07163
 N159 N 0.95678 0.02514 0.03163
 N160 N 0.93917 0.04238 0.03723
 N161 N 0.97453 -0.02792 0.05202
 N162 N 0.96867 -0.04458 0.07247
 Mn163 Mn 1.00227 -0.00111 0.05217
 C164 C 0.94651 -0.05517 0.06281
 C165 C 0.94751 0.05336 0.06213
 N166 N 1.04771 -0.02754 -0.03098
 N167 N 1.06609 -0.04378 -0.03702
 N168 N 1.02965 0.02554 -0.05144
 N169 N 1.03449 0.04283 -0.07141
 N170 N 1.04754 0.02565 -0.03136
 N171 N 1.06507 0.04303 -0.03723
 N172 N 1.03017 -0.02770 -0.05146
 N173 N 1.03627 -0.04415 -0.07200
 Mn174 Mn 1.04786 -0.00093 0.00018
 C175 C 1.05860 -0.05429 -0.06245
 C176 C 1.05654 0.05378 -0.06215
 N177 N 0.95673 0.02497 -0.03094
 N178 N 0.93860 0.04158 -0.03655
 N179 N 0.97473 -0.02814 -0.05134
 N180 N 0.96986 -0.04555 -0.07119
 N181 N 0.95696 -0.02826 -0.03112
 N182 N 0.93950 -0.04578 -0.03671
 N183 N 0.97421 0.02515 -0.05148
 N184 N 0.96831 0.04198 -0.07171
 Mn185 Mn 0.95668 -0.00156 0.00027
 Mn186 Mn 1.00219 -0.00129 -0.05172
 Cl187 Cl 1.00226 -0.00122 0.00023
 C188 C 0.94614 0.05230 -0.06185
 C189 C 0.94793 -0.05659 -0.06166
 N190 N 0.97135 0.47077 0.55247
 N191 N 0.95457 0.46509 0.57295
 N192 N 1.02472 0.45412 0.53076
 N193 N 1.04131 0.43601 0.53642
 N194 N 1.02510 0.47137 0.55131
 N195 N 1.04199 0.46535 0.57155
 N196 N 0.97081 0.45376 0.53165
 N197 N 0.95340 0.43621 0.53723
 C198 C 0.94330 0.44366 0.56294
 C199 C 1.05223 0.44339 0.56172
 N200 N 1.02383 0.47266 0.44832
 N201 N 1.04113 0.46798 0.42808
 N202 N 0.97026 0.45431 0.46907
 N203 N 0.95393 0.43603 0.46275
 N204 N 0.96997 0.47188 0.44887
 N205 N 0.95334 0.46595 0.42828
 N206 N 1.02406 0.45487 0.46827
 N207 N 1.04154 0.43766 0.46216
 Mn208 Mn 0.99744 0.45407 0.49994
 C209 C 1.05222 0.44620 0.43717
 C210 C 0.94322 0.44367 0.43746
 N211 N 1.02451 0.52607 0.55202
 N212 N 1.04220 0.53109 0.57169
 N213 N 0.97000 0.54299 0.53303
 N214 N 0.95309 0.56059 0.53968
 N215 N 0.97075 0.52551 0.55333
 N216 N 0.95447 0.53092 0.57443
 N217 N 1.02387 0.54394 0.53219
 N218 N 1.04115 0.56158 0.53784
 Mn219 Mn 0.99796 0.49844 0.55255
 C220 C 1.05261 0.55317 0.56241
 C221 C 0.94330 0.55268 0.56538
 N222 N 0.96939 0.52645 0.44985
 N223 N 0.95168 0.53131 0.43020
 N224 N 1.02303 0.54473 0.46964
 N225 N 1.03913 0.56325 0.46344
 N226 N 1.02329 0.52744 0.44910
 N227 N 1.03967 0.53382 0.42840
 N228 N 0.96927 0.54376 0.47034
 N229 N 0.95152 0.56094 0.46508
 Mn230 Mn 0.99665 0.49962 0.44875
 Mn231 Mn 0.99651 0.54406 0.50131
 Cl232 Cl 0.99714 0.49905 0.50063
 C233 C 0.94051 0.55276 0.44011
 C234 C 1.04967 0.55608 0.43787
 N235 N 0.54668 0.02844 0.52969
 N236 N 0.56532 0.04450 0.53587
 N237 N 0.52879 -0.02421 0.55193
 N238 N 0.53370 -0.04090 0.57252
 N239 N 0.54670 -0.02469 0.53187
 N240 N 0.56429 -0.04172 0.53832
 N241 N 0.52892 0.02901 0.54992
 N242 N 0.53504 0.04555 0.57034
 C243 C 0.55764 0.05536 0.56105
 C244 C 0.55581 -0.05187 0.56362
 N245 N 0.45583 -0.02505 0.53146
 N246 N 0.43799 -0.04190 0.53793
 N247 N 0.47361 0.02884 0.54967
 N248 N 0.46849 0.04643 0.56917
 N249 N 0.45574 0.02818 0.52959
 N250 N 0.43796 0.04533 0.53496
 N251 N 0.47343 -0.02427 0.55185
 N252 N 0.46789 -0.04045 0.57283
 Mn253 Mn 0.50118 0.00235 0.55109
 C254 C 0.44590 -0.05156 0.56365
 C255 C 0.44634 0.05677 0.55958
 N256 N 0.54683 -0.02653 0.46926
 N257 N 0.56524 -0.04289 0.46369
 N258 N 0.52895 0.02584 0.44679
 N259 N 0.53380 0.04267 0.42629
 N260 N 0.54670 0.02661 0.46700
 N261 N 0.56412 0.04399 0.46075
 N262 N 0.52918 -0.02735 0.44894
 N263 N 0.53518 -0.04435 0.42900
 Mn264 Mn 0.54693 0.00097 0.49944
 C265 C 0.55758 -0.05415 0.43873
 C266 C 0.55570 0.05402 0.43540
 N267 N 0.45596 0.02629 0.46687
 N268 N 0.43807 0.04293 0.46020
 N269 N 0.47382 -0.02762 0.44882
 N270 N 0.46879 -0.04533 0.42939
 N271 N 0.45585 -0.02698 0.46881
 N272 N 0.43812 -0.04429 0.46347
 N273 N 0.47358 0.02548 0.44649
 N274 N 0.46801 0.04141 0.42531
 Mn275 Mn 0.45560 0.00062 0.49918
 Mn276 Mn 0.50139 -0.00093 0.44750
 Cl277 Cl 0.50127 0.00076 0.49930
 C278 C 0.44598 0.05242 0.43436
 C279 C 0.44659 -0.05578 0.43895
 N280 N 0.52615 0.54480 0.02885
 N281 N 0.53174 0.56220 0.04853
 N282 N 0.54348 0.52765 -0.03240
 N283 N 0.56101 0.53314 -0.05223
 N284 N 0.52544 0.54495 -0.03219
 N285 N 0.53009 0.56250 -0.05185
 N286 N 0.54368 0.52700 0.02865
 N287 N 0.56154 0.53172 0.04816
 C288 C 0.55375 0.55359 0.06064
 C289 C 0.55218 0.55483 -0.06443
 N290 N 0.52548 0.45521 -0.03262
 N291 N 0.53065 0.43786 -0.05248
 N292 N 0.54351 0.47236 0.02839
 N293 N 0.56107 0.46698 0.04816
 N294 N 0.52535 0.45508 0.02843
 N295 N 0.52995 0.43763 0.04818
 N296 N 0.54314 0.47298 -0.03269
 N297 N 0.56068 0.46829 -0.05259
 Mn298 Mn 0.54371 0.49999 -0.00202
 C299 C 0.55255 0.44646 -0.06500
 C300 C 0.55215 0.44536 0.06055
 N301 N 0.47024 0.54506 -0.03176
 N302 N 0.46521 0.56226 -0.05183
 N303 N 0.45275 0.52751 0.02933
 N304 N 0.43537 0.53277 0.04938
 N305 N 0.47092 0.54478 0.02928
 N306 N 0.46650 0.56211 0.04924
 N307 N 0.45256 0.52731 -0.03176
 N308 N 0.43514 0.53183 -0.05181
 Mn309 Mn 0.49818 0.54513 -0.00145
 C310 C 0.44335 0.55358 -0.06435
 C311 C 0.44440 0.55432 0.06184
 N312 N 0.47010 0.45505 0.02880
 N313 N 0.46489 0.43769 0.04867
 N314 N 0.45222 0.47271 -0.03202
 N315 N 0.43487 0.46778 -0.05221
 N316 N 0.47026 0.45541 -0.03227
 N317 N 0.46579 0.43841 -0.05260
 N318 N 0.45260 0.47288 0.02906
 N319 N 0.43515 0.46822 0.04909
 Mn320 Mn 0.49779 0.45494 -0.00191
 Mn321 Mn 0.45226 0.50010 -0.00134
 Cl322 Cl 0.49799 0.50004 -0.00167
 C323 C 0.44314 0.44634 0.06137
 C324 C 0.44378 0.44641 -0.06506
 C325 C 1.17898 0.15614 0.18251
 C326 C 1.20534 0.15100 0.18007
 C327 C 1.22319 0.16418 0.19695
 C328 C 1.21514 0.18302 0.21643
 C329 C 1.18883 0.18827 0.21887
 C330 C 1.17090 0.17484 0.20223
 C331 C 1.16021 0.14210 0.16440
 N332 N 1.13476 0.14219 0.17089
 N333 N 1.11806 0.12927 0.15463
 C334 C 1.12611 0.11589 0.13111
 N335 N 1.15152 0.11594 0.12461
 N336 N 1.16820 0.12871 0.14092
 C337 C 1.10786 0.10109 0.11309
 C338 C 1.11557 0.09186 0.08582
 C339 C 1.09916 0.07674 0.06929
 C340 C 1.07468 0.07026 0.07968
 C341 C 1.06660 0.07994 0.10660
 C342 C 1.08302 0.09533 0.12312
 H343 H 1.21223 0.13666 0.16517
 H344 H 1.24338 0.15992 0.19447
 H345 H 1.18212 0.20260 0.23388
 H346 H 1.15075 0.17928 0.20459
 H347 H 1.13446 0.09610 0.07729
 H348 H 1.10592 0.06965 0.04857
 H349 H 1.04781 0.07527 0.11511
 H350 H 1.07649 0.10217 0.14404
 C351 C 1.17574 0.65478 0.68079
 C352 C 1.18617 0.67763 0.67033
 C353 C 1.20388 0.69128 0.68696
 C354 C 1.21153 0.68236 0.71437
 C355 C 1.20067 0.65985 0.72510
 C356 C 1.18300 0.64621 0.70851
 C357 C 1.15782 0.63967 0.66276
 N358 N 1.14896 0.61693 0.67230
 N359 N 1.13314 0.60310 0.65601
 C360 C 1.12552 0.61140 0.62947
 N361 N 1.13436 0.63416 0.61991
 N362 N 1.15021 0.64798 0.63620
 C363 C 1.10768 0.59606 0.61157
 C364 C 1.09861 0.60519 0.58478
 C365 C 1.08107 0.59103 0.56849
 C366 C 1.07228 0.56748 0.57865
 C367 C 1.08172 0.55810 0.60508
 C368 C 1.09921 0.57223 0.62139
 H369 H 1.18099 0.68480 0.64909
 H370 H 1.21213 0.70845 0.67802
 H371 H 1.20593 0.65273 0.74635
 H372 H 1.17521 0.62881 0.71736
 H373 H 1.10479 0.62342 0.57653
 H374 H 1.07412 0.59869 0.54814
 H375 H 1.07530 0.53996 0.61341
 H376 H 1.10588 0.56455 0.64184
 C377 C 0.67606 0.15359 0.68858
 C378 C 0.66766 0.17304 0.70714
 C379 C 0.68517 0.18627 0.72450
 C380 C 0.71135 0.18008 0.72394
 C381 C 0.71965 0.16026 0.70594
 C382 C 0.70223 0.14725 0.68833
 C383 C 0.65784 0.14027 0.66915
 N384 N 0.66660 0.12620 0.64654
 N385 N 0.65035 0.11430 0.62888
 C386 C 0.62463 0.11586 0.63309
 N387 N 0.61583 0.12990 0.65573
 N388 N 0.63210 0.14195 0.67333
 C389 C 0.60675 0.10200 0.61374
 C390 C 0.58108 0.09787 0.62190
 C391 C 0.56482 0.08323 0.60441
 C392 C 0.57387 0.07269 0.57833
 C393 C 0.59921 0.07762 0.56967
 C394 C 0.61551 0.09199 0.58724
 H395 H 0.64764 0.17838 0.70783
 H396 H 0.67828 0.20139 0.73834
 H397 H 0.73976 0.15529 0.70488
 H398 H 0.70932 0.13229 0.67441
 H399 H 0.57373 0.10534 0.64217
 H400 H 0.54534 0.07976 0.61157
 H401 H 0.60671 0.06978 0.54965
 H402 H 0.63509 0.09502 0.58018
 C403 C 0.67275 0.65347 0.18551
 C404 C 0.66580 0.67612 0.19949
 C405 C 0.68395 0.68999 0.21535
 C406 C 0.70942 0.68150 0.21746
 C407 C 0.71639 0.65909 0.20306
 C408 C 0.69829 0.64521 0.18740
 C409 C 0.65371 0.63833 0.16904
 N410 N 0.65992 0.61495 0.15906
 N411 N 0.64315 0.60130 0.14388
 C412 C 0.61941 0.61039 0.13798
 N413 N 0.61309 0.63377 0.14806
 N414 N 0.62988 0.64744 0.16334
 C415 C 0.60134 0.59535 0.12004
 C416 C 0.57796 0.60563 0.11044
 C417 C 0.56199 0.59182 0.09175
 C418 C 0.56912 0.56752 0.08238
 C419 C 0.59199 0.55694 0.09277
 C420 C 0.60791 0.57068 0.11135
 H421 H 0.64628 0.68299 0.19849
 H422 H 0.67794 0.70707 0.22642
 H423 H 0.73596 0.65231 0.20375
 H424 H 0.70442 0.62801 0.17666
 H425 H 0.57229 0.62455 0.11679
 H426 H 0.54441 0.60039 0.08409
 H427 H 0.59792 0.53819 0.08606
 H428 H 0.62563 0.56205 0.11848
 C429 C 0.82580 -0.15843 0.18217
 C430 C 0.79968 -0.15212 0.18030
 C431 C 0.78151 -0.16473 0.19729
 C432 C 0.78897 -0.18415 0.21628
 C433 C 0.81503 -0.19062 0.21813
 C434 C 0.83332 -0.17772 0.20140
 C435 C 0.84484 -0.14493 0.16391
 N436 N 0.87026 -0.14528 0.17044
 N437 N 0.88714 -0.13262 0.15413
 C438 C 0.87927 -0.11928 0.13051
 N439 N 0.85390 -0.11911 0.12395
 N440 N 0.83705 -0.13160 0.14031
 C441 C 0.89763 -0.10459 0.11252
 C442 C 0.89011 -0.09572 0.08505
 C443 C 0.90643 -0.08039 0.06865
 C444 C 0.93061 -0.07335 0.07939
 C445 C 0.93857 -0.08277 0.10648
 C446 C 0.92224 -0.09838 0.12286
 H447 H 0.79324 -0.13730 0.16579
 H448 H 0.76151 -0.15955 0.19525
 H449 H 0.82124 -0.20547 0.23273
 H450 H 0.85329 -0.18305 0.20327
 H451 H 0.87140 -0.10034 0.07628
 H452 H 0.89978 -0.07355 0.04780
 H453 H 0.95715 -0.07768 0.11523
 H454 H 0.92860 -0.10494 0.14395
 C455 C 0.81797 0.34155 0.67668
 C456 C 0.79220 0.34889 0.67728
 C457 C 0.77464 0.33617 0.69498
 C458 C 0.78224 0.31520 0.71196
 C459 C 0.80811 0.30748 0.71045
 C460 C 0.82581 0.32080 0.69344
 C461 C 0.83665 0.35593 0.65914
 N462 N 0.86088 0.35977 0.66899
 N463 N 0.87748 0.37361 0.65368
 C464 C 0.87056 0.38387 0.62779
 N465 N 0.84641 0.37979 0.61778
 N466 N 0.82971 0.36623 0.63328
 C467 C 0.88884 0.39944 0.61108
 C468 C 0.88891 0.39873 0.58056
 C469 C 0.90672 0.41308 0.56483
 C470 C 0.92414 0.42894 0.57936
 C471 C 0.92367 0.43009 0.60983
 C472 C 0.90641 0.41517 0.62558
 H473 H 0.78570 0.36483 0.66445
 H474 H 0.75488 0.34234 0.69439
 H475 H 0.81513 0.29193 0.72351
 H476 H 0.84566 0.31482 0.69329
 H477 H 0.87557 0.38667 0.56894
 H478 H 0.90677 0.41193 0.54132
 H479 H 0.93703 0.44210 0.62149
 H480 H 0.90658 0.41614 0.64909
 C481 C 0.32889 -0.15758 0.68424
 C482 C 0.32429 -0.15075 0.71333
 C483 C 0.30584 -0.16366 0.72978
 C484 C 0.29193 -0.18382 0.71757
 C485 C 0.29672 -0.19080 0.68862
 C486 C 0.31490 -0.17775 0.67209
 C487 C 0.34777 -0.14348 0.66639
 N488 N 0.34785 -0.14588 0.63700
 N489 N 0.36434 -0.13276 0.62078
 C490 C 0.38157 -0.11679 0.63327
 N491 N 0.38165 -0.11454 0.66269
 N492 N 0.36506 -0.12757 0.67892
 C493 C 0.39916 -0.10145 0.61511
 C494 C 0.42040 -0.08907 0.62752
 C495 C 0.43617 -0.07350 0.61056
 C496 C 0.43076 -0.06975 0.58099
 C497 C 0.40989 -0.08251 0.56843
 C498 C 0.39434 -0.09833 0.58526
 H499 H 0.33469 -0.13524 0.72329
 H500 H 0.30260 -0.15803 0.75212
 H501 H 0.28605 -0.20613 0.67861
 H502 H 0.31799 -0.18351 0.64978
 H503 H 0.42472 -0.09123 0.65041
 H504 H 0.45215 -0.06386 0.62079
 H505 H 0.40535 -0.07999 0.54564
 H506 H 0.37813 -0.10757 0.57502
 C507 C 0.32661 0.34848 0.19145
 C508 C 0.30254 0.35884 0.19791
 C509 C 0.28421 0.34486 0.21315
 C510 C 0.28929 0.31992 0.22270
 C511 C 0.31367 0.30968 0.21614
 C512 C 0.33198 0.32375 0.20076
 C513 C 0.34564 0.36341 0.17460
 N514 N 0.36801 0.35293 0.16545
 N515 N 0.38458 0.36629 0.14949
 C516 C 0.37948 0.39069 0.14209
 N517 N 0.35722 0.40116 0.15148
 N518 N 0.34069 0.38783 0.16737
 C519 C 0.39711 0.40538 0.12315
 C520 C 0.39096 0.43036 0.11525
 C521 C 0.40636 0.44378 0.09580
 C522 C 0.42834 0.43261 0.08379
 C523 C 0.43508 0.40798 0.09234
 C524 C 0.41958 0.39445 0.11182
 H525 H 0.29756 0.37774 0.19075
 H526 H 0.26565 0.35355 0.21610
 H527 H 0.31927 0.29111 0.22366
 H528 H 0.35045 0.31525 0.19634
 H529 H 0.37392 0.43947 0.12363
 H530 H 0.40076 0.46280 0.08974
 H531 H 0.45196 0.39894 0.08343
 H532 H 0.42493 0.37529 0.11753
 C533 C 0.82524 0.15798 -0.17736
 C534 C 0.79904 0.15206 -0.17467
 C535 C 0.78078 0.16466 -0.19141
 C536 C 0.78821 0.18370 -0.21098
 C537 C 0.81434 0.18991 -0.21353
 C538 C 0.83273 0.17700 -0.19705
 C539 C 0.84440 0.14423 -0.15962
 N540 N 0.86967 0.14414 -0.16691
 N541 N 0.88660 0.13112 -0.15116
 C542 C 0.87894 0.11783 -0.12737
 N543 N 0.85372 0.11811 -0.12004
 N544 N 0.83683 0.13096 -0.13584
 C545 C 0.89732 0.10269 -0.11001
 C546 C 0.89004 0.09354 -0.08254
 C547 C 0.90632 0.07785 -0.06670
 C548 C 0.93026 0.07073 -0.07798
 C549 C 0.93799 0.08039 -0.10507
 C550 C 0.92169 0.09634 -0.12091
 H551 H 0.79261 0.13747 -0.15979
 H552 H 0.76074 0.15969 -0.18884
 H553 H 0.82054 0.20446 -0.22859
 H554 H 0.85275 0.18204 -0.19955
 H555 H 0.87154 0.09823 -0.07333
 H556 H 0.89985 0.07084 -0.04582
 H557 H 0.95638 0.07525 -0.11424
 H558 H 0.92786 0.10310 -0.14201
 C559 C 0.81762 0.65282 0.32063
 C560 C 0.80674 0.64206 0.29562
 C561 C 0.78998 0.65595 0.27825
 C562 C 0.78349 0.68120 0.28525
 C563 C 0.79497 0.69203 0.31017
 C564 C 0.81167 0.67801 0.32761
 C565 C 0.83501 0.63773 0.33925
 N566 N 0.84488 0.64753 0.36417
 N567 N 0.86052 0.63386 0.38080
 C568 C 0.86692 0.60981 0.37322
 N569 N 0.85700 0.60003 0.34834
 N570 N 0.84137 0.61368 0.33174
 C571 C 0.88478 0.59473 0.39125
 C572 C 0.89271 0.57060 0.38201
 C573 C 0.91043 0.55678 0.39823
 C574 C 0.92055 0.56674 0.42409
 C575 C 0.91222 0.59055 0.43378
 C576 C 0.89453 0.60444 0.41749
 H577 H 0.81115 0.62280 0.28933
 H578 H 0.78292 0.64688 0.25874
 H579 H 0.79026 0.71098 0.31730
 H580 H 0.81969 0.68689 0.34679
 H581 H 0.88556 0.56249 0.36197
 H582 H 0.91647 0.53843 0.39029
 H583 H 0.91970 0.59865 0.45368
 H584 H 0.88875 0.62291 0.42532
 C585 C 0.32909 0.15784 0.31382
 C586 C 0.31954 0.14770 0.28778
 C587 C 0.30092 0.16063 0.27178
 C588 C 0.29164 0.18442 0.28106
 C589 C 0.30182 0.19464 0.30703
 C590 C 0.32004 0.18144 0.32323
 C591 C 0.34795 0.14368 0.33145
 N592 N 0.35076 0.14870 0.36024
 N593 N 0.36718 0.13551 0.37637
 C594 C 0.38165 0.11691 0.36434
 N595 N 0.37902 0.11204 0.33550
 N596 N 0.36244 0.12509 0.31940
 C597 C 0.39921 0.10166 0.38249
 C598 C 0.41942 0.08804 0.36976
 C599 C 0.43523 0.07270 0.38680
 C600 C 0.43081 0.07033 0.41679
 C601 C 0.41089 0.08422 0.42961
 C602 C 0.39538 0.09992 0.41267
 H603 H 0.32621 0.12954 0.27991
 H604 H 0.29458 0.15220 0.25158
 H605 H 0.29490 0.21233 0.31589
 H606 H 0.32700 0.18974 0.34327
 H607 H 0.42293 0.08913 0.34659
 H608 H 0.45045 0.06213 0.37638
 H609 H 0.40713 0.08277 0.45270
 H610 H 0.37993 0.11014 0.42310
 C611 C 0.32738 0.65118 -0.19405
 C612 C 0.30325 0.64078 -0.20041
 C613 C 0.28483 0.65486 -0.21517
 C614 C 0.28987 0.67994 -0.22436
 C615 C 0.31432 0.69022 -0.21795
 C616 C 0.33273 0.67604 -0.20303
 C617 C 0.34646 0.63619 -0.17757
 N618 N 0.36886 0.64671 -0.16838
 N619 N 0.38542 0.63332 -0.15260
 C620 C 0.38029 0.60885 -0.14542
 N621 N 0.35803 0.59832 -0.15488
 N622 N 0.34150 0.61168 -0.17059
 C623 C 0.39783 0.59418 -0.12652
 C624 C 0.39149 0.56924 -0.11850
 C625 C 0.40674 0.55591 -0.09892
 C626 C 0.42874 0.56714 -0.08694
 C627 C 0.43570 0.59171 -0.09565
 C628 C 0.42035 0.60515 -0.11524
 H629 H 0.29829 0.62178 -0.19348
 H630 H 0.26622 0.64614 -0.21803
 H631 H 0.31988 0.70891 -0.22523
 H632 H 0.35125 0.68457 -0.19868
 H633 H 0.37440 0.56011 -0.12685
 H634 H 0.40099 0.53693 -0.09274
 H635 H 0.45262 0.60078 -0.08676
 H636 H 0.42585 0.62428 -0.12105
 C637 C 1.17903 -0.15661 -0.18272
 C638 C 1.17098 -0.17559 -0.20215
 C639 C 1.18892 -0.18885 -0.21886
 C640 C 1.21518 -0.18313 -0.21677
 C641 C 1.22319 -0.16397 -0.19763
 C642 C 1.20534 -0.15097 -0.18067
 C643 C 1.16026 -0.14283 -0.16447
 N644 N 1.16830 -0.12927 -0.14111
 N645 N 1.15161 -0.11673 -0.12466
 C646 C 1.12617 -0.11711 -0.13089
 N647 N 1.11808 -0.13065 -0.15429
 N648 N 1.13478 -0.14334 -0.17069
 C649 C 1.10792 -0.10255 -0.11276
 C650 C 1.08302 -0.09707 -0.12265
 C651 C 1.06661 -0.08182 -0.10608
 C652 C 1.07475 -0.07201 -0.07923
 C653 C 1.09928 -0.07824 -0.06895
 C654 C 1.11569 -0.09321 -0.08555
 H655 H 1.15087 -0.18042 -0.20420
 H656 H 1.18225 -0.20343 -0.23362
 H657 H 1.24334 -0.15935 -0.19543
 H658 H 1.21218 -0.13640 -0.16600
 H659 H 1.07645 -0.10399 -0.14352
 H660 H 1.04777 -0.07734 -0.11449
 H661 H 1.10609 -0.07105 -0.04829
 H662 H 1.13463 -0.09726 -0.07713
 C663 C 1.17571 0.34566 0.31844
 C664 C 1.18625 0.32302 0.32918
 C665 C 1.20392 0.30931 0.31264
 C666 C 1.21143 0.31794 0.28502
 C667 C 1.20049 0.34027 0.27405
 C668 C 1.18285 0.35397 0.29055
 C669 C 1.15772 0.36076 0.33635
 N670 N 1.14836 0.38312 0.32642
 N671 N 1.13244 0.39687 0.34260
 C672 C 1.12522 0.38887 0.36945
 N673 N 1.13457 0.36650 0.37939
 N674 N 1.15050 0.35275 0.36321
 C675 C 1.10729 0.40406 0.38732
 C676 C 1.09905 0.39526 0.41463
 C677 C 1.08151 0.40919 0.43105
 C678 C 1.07184 0.43223 0.42054
 C679 C 1.08038 0.44131 0.39354
 C680 C 1.09791 0.42737 0.37708
 H681 H 1.18117 0.31605 0.35055
 H682 H 1.21222 0.29231 0.32179
 H683 H 1.20564 0.34718 0.25265
 H684 H 1.17499 0.37120 0.28149
 H685 H 1.10592 0.37744 0.42324
 H686 H 1.07527 0.40176 0.45183
 H687 H 1.07326 0.45903 0.38492
 H688 H 1.10390 0.43478 0.35621
 C689 C 0.67650 -0.15577 0.31631
 C690 C 0.66823 -0.17505 0.29740
 C691 C 0.68592 -0.18824 0.28031
 C692 C 0.71214 -0.18214 0.28152
 C693 C 0.72034 -0.16259 0.30001
 C694 C 0.70274 -0.14964 0.31734
 C695 C 0.65804 -0.14226 0.33517
 N696 N 0.66649 -0.12835 0.35807
 N697 N 0.65006 -0.11608 0.37508
 C698 C 0.62445 -0.11711 0.36989
 N699 N 0.61594 -0.13103 0.34698
 N700 N 0.63240 -0.14344 0.33002
 C701 C 0.60643 -0.10271 0.38844
 C702 C 0.58116 -0.09799 0.37932
 C703 C 0.56492 -0.08272 0.39601
 C704 C 0.57361 -0.07212 0.42223
 C705 C 0.59851 -0.07764 0.43186
 C706 C 0.61477 -0.09266 0.41510
 H707 H 0.64816 -0.18023 0.29613
 H708 H 0.67913 -0.20316 0.26608
 H709 H 0.74048 -0.15771 0.30155
 H710 H 0.70972 -0.13482 0.33157
 H711 H 0.57415 -0.10548 0.35889
 H712 H 0.54578 -0.07880 0.38813
 H713 H 0.60572 -0.06979 0.45202
 H714 H 0.63403 -0.09612 0.42291
 C715 C 0.66945 0.34718 -0.19245
 C716 C 0.66294 0.32351 -0.20445
 C717 C 0.68126 0.30929 -0.21956
 C718 C 0.70645 0.31842 -0.22288
 C719 C 0.71291 0.34200 -0.21071
 C720 C 0.69465 0.35622 -0.19582
 C721 C 0.65042 0.36237 -0.17609
 N722 N 0.65627 0.38628 -0.16746
 N723 N 0.63970 0.39986 -0.15201
 C724 C 0.61651 0.39015 -0.14445
 N725 N 0.61051 0.36626 -0.15323
 N726 N 0.62711 0.35266 -0.16878
 C727 C 0.59880 0.40506 -0.12596
 C728 C 0.57579 0.39451 -0.11541
 C729 C 0.56023 0.40820 -0.09620
 C730 C 0.56743 0.43263 -0.08721
 C731 C 0.58993 0.44346 -0.09851
 C732 C 0.60541 0.42987 -0.11764
 H733 H 0.64369 0.31601 -0.20229
 H734 H 0.67563 0.29129 -0.22890
 H735 H 0.73227 0.34934 -0.21227
 H736 H 0.70045 0.37424 -0.18664
 H737 H 0.57008 0.37549 -0.12144
 H738 H 0.54294 0.39943 -0.08785
 H739 H 0.59590 0.46232 -0.09211
 H740 H 0.62286 0.43870 -0.12546
 C741 C 1.15485 0.17843 -0.18224
 C742 C 1.18019 0.18510 -0.17530
 C743 C 1.19377 0.20250 -0.19237
 C744 C 1.18235 0.21401 -0.21691
 C745 C 1.15696 0.20679 -0.22389
 C746 C 1.14351 0.18933 -0.20688
 C747 C 1.14019 0.16037 -0.16385
 N748 N 1.11596 0.15339 -0.17120
 N749 N 1.10269 0.13728 -0.15471
 C750 C 1.11302 0.12748 -0.13009
 N751 N 1.13725 0.13447 -0.12269
 N752 N 1.15055 0.15057 -0.13920
 C753 C 1.09825 0.10928 -0.11199
 C754 C 1.10851 0.09966 -0.08597
 C755 C 1.09477 0.08197 -0.06944
 C756 C 1.07056 0.07347 -0.07864
 C757 C 1.06013 0.08334 -0.10436
 C758 C 1.07379 0.10106 -0.12083
 H759 H 1.18953 0.17712 -0.15641
 H760 H 1.21281 0.20769 -0.18519
 H761 H 1.14745 0.21386 -0.24311
 H762 H 1.12412 0.18440 -0.21313
 H763 H 1.12724 0.10564 -0.07844
 H764 H 1.10327 0.07468 -0.04968
 H765 H 1.04148 0.07718 -0.11197
 H766 H 1.06525 0.10807 -0.14069
 C767 C 1.15274 0.67433 0.31542
 C768 C 1.14291 0.69867 0.31058
 C769 C 1.15645 0.71623 0.29380
 C770 C 1.18058 0.71018 0.28173
 C771 C 1.19026 0.68556 0.28669
 C772 C 1.17640 0.66785 0.30303
 C773 C 1.13848 0.65609 0.33381
 N774 N 1.14273 0.63076 0.33179
 N775 N 1.12975 0.61449 0.34845
 C776 C 1.11219 0.62295 0.36799
 N777 N 1.10806 0.64827 0.37004
 N778 N 1.12086 0.66448 0.35326
 C779 C 1.09757 0.60514 0.38656
 C780 C 1.08599 0.61388 0.41223
 C781 C 1.07113 0.59763 0.42926
 C782 C 1.06717 0.57237 0.42081
 C783 C 1.07908 0.56341 0.39544
 C784 C 1.09434 0.57962 0.37856
 H785 H 1.12469 0.70424 0.31986
 H786 H 1.14836 0.73498 0.29167
 H787 H 1.20819 0.67946 0.27719
 H788 H 1.18442 0.64917 0.30631
 H789 H 1.08830 0.63337 0.41912
 H790 H 1.06221 0.60509 0.44871
 H791 H 1.07636 0.54398 0.38848
 H792 H 1.10302 0.57237 0.35887
 C793 C 0.65446 0.17800 0.31494
 C794 C 0.67784 0.18823 0.32475
 C795 C 0.69137 0.20572 0.30776
 C796 C 0.68183 0.21338 0.28059
 C797 C 0.65866 0.20287 0.27061
 C798 C 0.64515 0.18540 0.28756
 C799 C 0.63970 0.15994 0.33321
 N800 N 0.61684 0.15055 0.32395
 N801 N 0.60345 0.13449 0.34037
 C802 C 0.61231 0.12712 0.36680
 N803 N 0.63517 0.13651 0.37609
 N804 N 0.64856 0.15259 0.35965
 C805 C 0.59745 0.10902 0.38491
 C806 C 0.60684 0.10089 0.41200
 C807 C 0.59310 0.08330 0.42863
 C808 C 0.56968 0.07349 0.41854
 C809 C 0.56008 0.08186 0.39173
 C810 C 0.57380 0.09942 0.37510
 H811 H 0.68559 0.18297 0.34571
 H812 H 0.70902 0.21369 0.31619
 H813 H 0.65100 0.20813 0.24959
 H814 H 0.62730 0.17782 0.27921
 H815 H 0.62494 0.10792 0.42028
 H816 H 0.60095 0.07719 0.44925
 H817 H 0.54206 0.07464 0.38342
 H818 H 0.56592 0.10530 0.35441
 C819 C 0.65024 0.67414 -0.19044
 C820 C 0.67531 0.66922 -0.19989
 C821 C 0.68946 0.68776 -0.21463
 C822 C 0.67898 0.71194 -0.22040
 C823 C 0.65367 0.71658 -0.21079
 C824 C 0.63960 0.69800 -0.19616
 C825 C 0.63529 0.65478 -0.17427
 N826 N 0.61049 0.65919 -0.16693
 N827 N 0.59715 0.64228 -0.15167
 C828 C 0.60799 0.62017 -0.14303
 N829 N 0.63276 0.61562 -0.15053
 N830 N 0.64612 0.63256 -0.16586
 C831 C 0.59328 0.60207 -0.12477
 C832 C 0.60466 0.57985 -0.11392
 C833 C 0.59110 0.56391 -0.09496
 C834 C 0.56598 0.56997 -0.08649
 C835 C 0.55437 0.59168 -0.09809
 C836 C 0.56782 0.60751 -0.11700
 H837 H 0.68404 0.65093 -0.19608
 H838 H 0.70829 0.68250 -0.22232
 H839 H 0.64479 0.73493 -0.21325
 H840 H 0.62042 0.70260 -0.18890
 H841 H 0.62421 0.57504 -0.11954
 H842 H 0.60049 0.54726 -0.08635
 H843 H 0.53496 0.59676 -0.09210
 H844 H 0.55834 0.62433 -0.12505
 C845 C 0.84766 -0.18212 -0.17851
 C846 C 0.82427 -0.19200 -0.16823
 C847 C 0.80997 -0.20892 -0.18517
 C848 C 0.81870 -0.21638 -0.21278
 C849 C 0.84201 -0.20642 -0.22310
 C850 C 0.85631 -0.18951 -0.20619
 C851 C 0.86292 -0.16421 -0.16053
 N852 N 0.88578 -0.15511 -0.17021
 N853 N 0.89944 -0.13895 -0.15420
 C854 C 0.89087 -0.13118 -0.12779
 N855 N 0.86803 -0.14031 -0.11807
 N856 N 0.85437 -0.15649 -0.13408
 C857 C 0.90592 -0.11279 -0.11023
 C858 C 0.89665 -0.10400 -0.08334
 C859 C 0.91048 -0.08605 -0.06731
 C860 C 0.93388 -0.07650 -0.07781
 C861 C 0.94339 -0.08556 -0.10440
 C862 C 0.92957 -0.10349 -0.12043
 H863 H 0.81702 -0.18678 -0.14701
 H864 H 0.79226 -0.21650 -0.17642
 H865 H 0.84909 -0.21149 -0.24445
 H866 H 0.87416 -0.18221 -0.21489
 H867 H 0.87854 -0.11078 -0.07476
 H868 H 0.90269 -0.07942 -0.04686
 H869 H 0.96139 -0.07857 -0.11302
 H870 H 0.93737 -0.10986 -0.14097
 C871 C 0.84397 0.32536 0.31156
 C872 C 0.85070 0.29960 0.31233
 C873 C 0.83801 0.28202 0.29476
 C874 C 0.81812 0.28976 0.27628
 C875 C 0.81143 0.31550 0.27532
 C876 C 0.82437 0.33318 0.29264
 C877 C 0.85715 0.34374 0.33076
 N878 N 0.85574 0.36908 0.32577
 N879 N 0.86784 0.38547 0.34309
 C880 C 0.88165 0.37717 0.36623
 N881 N 0.88292 0.35186 0.37125
 N882 N 0.87097 0.33551 0.35387
 C883 C 0.89565 0.39509 0.38528
 C884 C 0.90509 0.38690 0.41227
 C885 C 0.91975 0.40306 0.42960
 C886 C 0.92555 0.42773 0.42023
 C887 C 0.91555 0.43627 0.39365
 C888 C 0.90061 0.42013 0.37638
 H889 H 0.86578 0.29296 0.32655
 H890 H 0.84336 0.26225 0.29612
 H891 H 0.79624 0.32194 0.26111
 H892 H 0.81873 0.35288 0.29158
 H893 H 0.90141 0.36783 0.41992
 H894 H 0.92712 0.39596 0.45002
 H895 H 0.91969 0.45523 0.38596
 H896 H 0.89358 0.42701 0.35570
 C897 C 0.34579 -0.18070 0.32191
 C898 C 0.35495 -0.18839 0.29455
 C899 C 0.34118 -0.20577 0.27776
 C900 C 0.31789 -0.21594 0.28787
 C901 C 0.30850 -0.20801 0.31502
 C902 C 0.32229 -0.19059 0.33186
 C903 C 0.36084 -0.16267 0.33994
 N904 N 0.35194 -0.15456 0.36610
 N905 N 0.36559 -0.13844 0.38222
 C906 C 0.38876 -0.12979 0.37291
 N907 N 0.39764 -0.13794 0.34678
 N908 N 0.38399 -0.15402 0.33067
 C909 C 0.40392 -0.11158 0.39057
 C910 C 0.42803 -0.10310 0.38081
 C911 C 0.44203 -0.08535 0.39683
 C912 C 0.43228 -0.07562 0.42299
 C913 C 0.40842 -0.08436 0.43309
 C914 C 0.39438 -0.10217 0.41706
 H915 H 0.37287 -0.18107 0.28607
 H916 H 0.34873 -0.21118 0.25673
 H917 H 0.29075 -0.21570 0.32355
 H918 H 0.31465 -0.18510 0.35281
 H919 H 0.43605 -0.10998 0.36060
 H920 H 0.46039 -0.07900 0.38852
 H921 H 0.40045 -0.07719 0.45321
 H922 H 0.37593 -0.10831 0.42528
 C923 C 0.34769 0.33012 -0.19605
 C924 C 0.35894 0.30679 -0.20299
 C925 C 0.34504 0.28809 -0.21757
 C926 C 0.31928 0.29205 -0.22593
 C927 C 0.30822 0.31578 -0.21911
 C928 C 0.32221 0.33445 -0.20440
 C929 C 0.36239 0.34942 -0.17954
 N930 N 0.35103 0.37091 -0.16967
 N931 N 0.36415 0.38762 -0.15377
 C932 C 0.38920 0.38355 -0.14715
 N933 N 0.40057 0.36221 -0.15730
 N934 N 0.38747 0.34552 -0.17313
 C935 C 0.40360 0.40118 -0.12804
 C936 C 0.42915 0.39583 -0.12056
 C937 C 0.44229 0.41103 -0.10074
 C938 C 0.43029 0.43203 -0.08797
 C939 C 0.40511 0.43807 -0.09617
 C940 C 0.39185 0.42274 -0.11601
 H941 H 0.37847 0.30265 -0.19662
 H942 H 0.35446 0.27010 -0.22087
 H943 H 0.28899 0.32057 -0.22586
 H944 H 0.31301 0.35234 -0.19965
 H945 H 0.43891 0.37951 -0.12949
 H946 H 0.46176 0.40601 -0.09499
 H947 H 0.39544 0.45420 -0.08667
 H948 H 0.37223 0.42747 -0.12139
 C949 C 1.15552 -0.17896 0.18331
 C950 C 1.14414 -0.18979 0.20803
 C951 C 1.15745 -0.20730 0.22499
 C952 C 1.18273 -0.21467 0.21787
 C953 C 1.19423 -0.20318 0.19331
 C954 C 1.18079 -0.18572 0.17629
 C955 C 1.14094 -0.16093 0.16489
 N956 N 1.15132 -0.15118 0.14019
 N957 N 1.13806 -0.13517 0.12362
 C958 C 1.11384 -0.12825 0.13103
 N959 N 1.10350 -0.13801 0.15572
 N960 N 1.11673 -0.15401 0.17226
 C961 C 1.09906 -0.11022 0.11284
 C962 C 1.07454 -0.10223 0.12161
 C963 C 1.06081 -0.08473 0.10505
 C964 C 1.07122 -0.07483 0.07928
 C965 C 1.09551 -0.08307 0.07015
 C966 C 1.10931 -0.10056 0.08679
 H967 H 1.12481 -0.18478 0.21437
 H968 H 1.14792 -0.21435 0.24426
 H969 H 1.21320 -0.20845 0.18606
 H970 H 1.19016 -0.17778 0.15735
 H971 H 1.06598 -0.10928 0.14149
 H972 H 1.04211 -0.07877 0.11261
 H973 H 1.10400 -0.07575 0.05037
 H974 H 1.12809 -0.10635 0.07931
 C975 C 1.15426 0.32473 0.68345
 C976 C 1.14779 0.29887 0.68231
 C977 C 1.16081 0.28128 0.69942
 C978 C 1.18080 0.28910 0.71779
 C979 C 1.18725 0.31494 0.71908
 C980 C 1.17398 0.33262 0.70223
 C981 C 1.14065 0.34318 0.66483
 N982 N 1.14186 0.36845 0.67032
 N983 N 1.12937 0.38490 0.65356
 C984 C 1.11534 0.37674 0.63048
 N985 N 1.11428 0.35149 0.62495
 N986 N 1.12662 0.33507 0.64178
 C987 C 1.10091 0.39473 0.61206
 C988 C 1.09120 0.38682 0.58506
 C989 C 1.07615 0.40302 0.56833
 C990 C 1.07025 0.42744 0.57833
 C991 C 1.08051 0.43572 0.60491
 C992 C 1.09582 0.41953 0.62159
 H993 H 1.13261 0.29219 0.66817
 H994 H 1.15563 0.26144 0.69785
 H995 H 1.20251 0.32143 0.73323
 H996 H 1.17944 0.35239 0.70357
 H997 H 1.09496 0.36793 0.57694
 H998 H 1.06859 0.39614 0.54787
 H999 H 1.07628 0.45449 0.61309
 H1000 H 1.10305 0.42620 0.64229
 C1001 C 0.65443 -0.17490 0.68473
 C1002 C 0.64293 -0.18629 0.70903
 C1003 C 0.65624 -0.20404 0.72567
 C1004 C 0.68164 -0.21105 0.71864
 C1005 C 0.69329 -0.19895 0.69457
 C1006 C 0.67984 -0.18128 0.67785
 C1007 C 0.63983 -0.15676 0.66652
 N1008 N 0.65015 -0.14696 0.64181
 N1009 N 0.63684 -0.13095 0.62532
 C1010 C 0.61264 -0.12403 0.63282
 N1011 N 0.60236 -0.13381 0.65754
 N1012 N 0.61565 -0.14983 0.67400
 C1013 C 0.59782 -0.10608 0.61460
 C1014 C 0.57347 -0.09773 0.62355
 C1015 C 0.55971 -0.08039 0.60678
 C1016 C 0.56993 -0.07104 0.58065
 C1017 C 0.59406 -0.07962 0.57141
 C1018 C 0.60788 -0.09692 0.58823
 H1019 H 0.62349 -0.18159 0.71525
 H1020 H 0.64660 -0.21159 0.74462
 H1021 H 0.71238 -0.20391 0.68743
 H1022 H 0.68932 -0.17289 0.65924
 H1023 H 0.56508 -0.10439 0.64369
 H1024 H 0.54113 -0.07413 0.61443
 H1025 H 0.60241 -0.07274 0.55135
 H1026 H 0.62652 -0.10300 0.58061
 C1027 C 0.65063 0.32746 0.18685
 C1028 C 0.64194 0.30228 0.18857
 C1029 C 0.65615 0.28403 0.20337
 C1030 C 0.67934 0.29051 0.21707
 C1031 C 0.68803 0.31573 0.21547
 C1032 C 0.67386 0.33400 0.20044
 C1033 C 0.63555 0.34655 0.17062
 N1034 N 0.64540 0.36981 0.16444
 N1035 N 0.63193 0.38653 0.14904
 C1036 C 0.60802 0.38071 0.13931
 N1037 N 0.59816 0.35754 0.14574
 N1038 N 0.61162 0.34084 0.16102
 C1039 C 0.59325 0.39863 0.12106
 C1040 C 0.56807 0.39256 0.11267
 C1041 C 0.55459 0.40822 0.09372
 C1042 C 0.56592 0.43035 0.08265
 C1043 C 0.59075 0.43702 0.09173
 C1044 C 0.60431 0.42128 0.11080
 H1045 H 0.62426 0.29650 0.17815
 H1046 H 0.64914 0.26471 0.20368
 H1047 H 0.70564 0.32142 0.22611
 H1048 H 0.68104 0.35325 0.19963
 H1049 H 0.55883 0.37541 0.12029
 H1050 H 0.53541 0.40267 0.08726
 H1051 H 0.59991 0.45402 0.08356
 H1052 H 0.62365 0.42656 0.11690
 C1053 C 0.84634 0.17828 0.17792
 C1054 C 0.82350 0.18869 0.16702
 C1055 C 0.80951 0.20617 0.18341
 C1056 C 0.81804 0.21366 0.21109
 C1057 C 0.84068 0.20300 0.22216
 C1058 C 0.85466 0.18554 0.20579
 C1059 C 0.86155 0.16017 0.16031
 N1060 N 0.88414 0.15093 0.17040
 N1061 N 0.89789 0.13478 0.15458
 C1062 C 0.88968 0.12716 0.12795
 N1063 N 0.86708 0.13639 0.11785
 N1064 N 0.85333 0.15256 0.13367
 C1065 C 0.90490 0.10892 0.11053
 C1066 C 0.89587 0.10013 0.08353
 C1067 C 0.90990 0.08237 0.06757
 C1068 C 0.93326 0.07304 0.07824
 C1069 C 0.94252 0.08210 0.10495
 C1070 C 0.92850 0.09982 0.12093
 H1071 H 0.81651 0.18355 0.14565
 H1072 H 0.79231 0.21427 0.17413
 H1073 H 0.84755 0.20808 0.24360
 H1074 H 0.87207 0.17781 0.21498
 H1075 H 0.87781 0.10675 0.07481
 H1076 H 0.90231 0.07573 0.04702
 H1077 H 0.96049 0.07528 0.11371
 H1078 H 0.93610 0.10622 0.14156
 C1079 C 0.84057 0.67152 0.68625
 C1080 C 0.84763 0.67583 0.71534
 C1081 C 0.83532 0.69450 0.73179
 C1082 C 0.81552 0.70898 0.71958
 C1083 C 0.80834 0.70454 0.69061
 C1084 C 0.82080 0.68611 0.67408
 C1085 C 0.85399 0.65226 0.66845
 N1086 N 0.85119 0.65191 0.63911
 N1087 N 0.86371 0.63508 0.62293
 C1088 C 0.87946 0.61777 0.63540
 N1089 N 0.88211 0.61796 0.66478
 N1090 N 0.86967 0.63489 0.68097
 C1091 C 0.89426 0.59984 0.61721
 C1092 C 0.90668 0.57890 0.62971
 C1093 C 0.92188 0.56292 0.61266
 C1094 C 0.92522 0.56781 0.58290
 C1095 C 0.91234 0.58834 0.57027
 C1096 C 0.89689 0.60409 0.58719
 H1097 H 0.86284 0.66498 0.72534
 H1098 H 0.84108 0.69742 0.75415
 H1099 H 0.79328 0.71561 0.68059
 H1100 H 0.81486 0.68328 0.65177
 H1101 H 0.90491 0.57501 0.65273
 H1102 H 0.93164 0.54722 0.62294
 H1103 H 0.91451 0.59248 0.54734
 H1104 H 0.88760 0.62004 0.57685
 C1105 C 0.34521 0.17942 0.67842
 C1106 C 0.32155 0.18901 0.66878
 C1107 C 0.30786 0.20631 0.68576
 C1108 C 0.31751 0.21442 0.71273
 C1109 C 0.34091 0.20449 0.72258
 C1110 C 0.35459 0.18723 0.70564
 C1111 C 0.36024 0.16169 0.66013
 N1112 N 0.38355 0.15336 0.66907
 N1113 N 0.39723 0.13761 0.65267
 C1114 C 0.38823 0.12949 0.62658
 N1115 N 0.36490 0.13781 0.61760
 N1116 N 0.35122 0.15359 0.63401
 C1117 C 0.40345 0.11167 0.60861
 C1118 C 0.39385 0.10227 0.58213
 C1119 C 0.40797 0.08478 0.56584
 C1120 C 0.43195 0.07636 0.57570
 C1121 C 0.44177 0.08610 0.60182
 C1122 C 0.42770 0.10353 0.61809
 H1123 H 0.31375 0.18342 0.64794
 H1124 H 0.29002 0.21383 0.67744
 H1125 H 0.34866 0.21009 0.74346
 H1126 H 0.37264 0.18013 0.71388
 H1127 H 0.37529 0.10817 0.57413
 H1128 H 0.39995 0.07759 0.54575
 H1129 H 0.46024 0.08000 0.60994
 H1130 H 0.43578 0.11043 0.63828
 C1131 C 0.34767 0.67086 0.19190
 C1132 C 0.35662 0.69592 0.19426
 C1133 C 0.34265 0.71400 0.20967
 C1134 C 0.31946 0.70747 0.22335
 C1135 C 0.31052 0.68237 0.22113
 C1136 C 0.32445 0.66427 0.20551
 C1137 C 0.36248 0.65198 0.17498
 N1138 N 0.35246 0.62887 0.16843
 N1139 N 0.36567 0.61235 0.15244
 C1140 C 0.38949 0.61824 0.14245
 N1141 N 0.39952 0.64125 0.14923
 N1142 N 0.38632 0.65775 0.16511
 C1143 C 0.40399 0.60054 0.12359
 C1144 C 0.42905 0.60672 0.11478
 C1145 C 0.44230 0.59124 0.09540
 C1146 C 0.43086 0.56917 0.08429
 C1147 C 0.40615 0.56242 0.09374
 C1148 C 0.39282 0.57797 0.11324
 H1149 H 0.37431 0.70175 0.18387
 H1150 H 0.34986 0.73324 0.21043
 H1151 H 0.29289 0.67664 0.23172
 H1152 H 0.31707 0.64511 0.20421
 H1153 H 0.43838 0.62381 0.12245
 H1154 H 0.46138 0.59687 0.08866
 H1155 H 0.39690 0.54547 0.08554
 H1156 H 0.37357 0.57262 0.11965
   
