data_POSCAR
  _audit_creation_date              2014-09-24
  _audit_creation_method            'ToBaCCo'
  _symmetry_space_group_name_H-M    'P1'
  _symmetry_Int_Tables_number       1
  _symmetry_cell_setting            triclinic
  loop_
  _symmetry_equiv_pos_as_xyz
 x,y,z
_cell_length_a 51.5139
_cell_length_b 51.1989
_cell_length_c 38.9256
_cell_angle_alpha 90.246700
_cell_angle_beta 89.380000
_cell_angle_gamma 95.440500
loop_
  _atom_site_label
  _atom_site_type_symbol
  _atom_site_fract_x
  _atom_site_fract_y
  _atom_site_fract_z
O1 O 0.02677 0.25333 -0.03567
 O2 O -0.02512 0.25447 0.02992
 O3 O 0.02522 0.25249 0.03127
 O4 O -0.02418 0.25265 -0.03699
 O5 O -0.02827 0.20932 -0.03654
 O6 O 0.02032 0.20915 0.03138
 O7 O -0.02977 0.21116 0.03027
 O8 O 0.02242 0.21002 -0.03532
 Cu9 Cu 0.00114 0.25759 -0.00300
 Cu10 Cu -0.00431 0.20560 -0.00262
 C11 C 0.03364 0.23155 -0.04643
 C12 C -0.03628 0.23303 0.04138
 C13 C 0.03106 0.23064 0.04293
 C14 C -0.03472 0.23083 -0.04816
 O15 O 0.51938 0.77538 0.47175
 O16 O 0.46760 0.78364 0.53585
 O17 O 0.51848 0.78525 0.53728
 O18 O 0.46872 0.77459 0.46999
 O19 O 0.46502 0.73210 0.48090
 O20 O 0.51566 0.74258 0.54680
 O21 O 0.46513 0.74120 0.54698
 O22 O 0.51554 0.73270 0.48141
 Cu23 Cu 0.49384 0.78401 0.50270
 Cu24 Cu 0.48994 0.73288 0.51507
 C25 C 0.52628 0.75261 0.46573
 C26 C 0.45766 0.76377 0.55243
 C27 C 0.52577 0.76568 0.55321
 C28 C 0.45838 0.75152 0.46405
 O29 O 0.96882 0.70658 -0.02910
 O30 O 1.02129 0.71737 0.03447
 O31 O 0.97054 0.70643 0.03782
 O32 O 1.01910 0.71867 -0.03213
 O33 O 1.01292 0.76076 -0.03093
 O34 O 0.96581 0.74883 0.03976
 O35 O 1.01615 0.75970 0.03551
 O36 O 0.96284 0.74867 -0.02673
 Cu37 Cu 0.99548 0.70800 0.00267
 Cu38 Cu 0.98885 0.75870 0.00460
 C39 C 0.95675 0.72575 -0.03860
 C40 C 1.02791 0.74043 0.04542
 C41 C 0.95988 0.72568 0.05064
 C42 C 1.02427 0.74189 -0.04341
 O43 O 0.47064 0.19528 0.47149
 O44 O 0.52414 0.20892 0.53326
 O45 O 0.47332 0.20550 0.53707
 O46 O 0.52165 0.19858 0.46775
 O47 O 0.52248 0.24095 0.45687
 O48 O 0.47410 0.24781 0.52581
 O49 O 0.52484 0.25128 0.52235
 O50 O 0.47174 0.23767 0.46068
 Cu51 Cu 0.49737 0.19780 0.50345
 Cu52 Cu 0.49842 0.24866 0.49030
 C53 C 0.46192 0.21426 0.45581
 C54 C 0.53359 0.23245 0.53825
 C55 C 0.46534 0.22781 0.54305
 C56 C 0.53039 0.21864 0.45064
 O57 O 0.70780 0.02127 -0.03393
 O58 O 0.69803 -0.03107 0.03166
 O59 O 0.69629 0.01983 0.03154
 O60 O 0.70705 -0.02987 -0.03426
 O61 O 0.74924 -0.02561 -0.02349
 O62 O 0.73844 0.02433 0.04254
 O63 O 0.74020 -0.02625 0.04225
 O64 O 0.74995 0.02528 -0.02281
 Cu65 Cu 0.69806 -0.00537 -0.00234
 Cu66 Cu 0.74866 -0.00008 0.01070
 C67 C 0.73071 0.03213 -0.03943
 C68 C 0.71762 -0.03763 0.04804
 C69 C 0.71546 0.03056 0.04824
 C70 C 0.72989 -0.03635 -0.03997
 O71 O 0.21782 0.47824 0.52177
 O72 O 0.22878 0.52625 0.45175
 O73 O 0.22755 0.47548 0.45601
 O74 O 0.22016 0.52949 0.51719
 O75 O 0.26260 0.53261 0.52639
 O76 O 0.26986 0.47850 0.46607
 O77 O 0.27117 0.52907 0.46115
 O78 O 0.26012 0.48143 0.53171
 Cu79 Cu 0.21928 0.50195 0.48584
 Cu80 Cu 0.27017 0.50562 0.49749
 C81 C 0.23708 0.47154 0.53853
 C82 C 0.25182 0.53593 0.44464
 C83 C 0.25004 0.46795 0.45051
 C84 C 0.24034 0.54063 0.53154
 O85 O 0.30760 1.03084 0.02009
 O86 O 0.30056 0.98023 -0.04739
 O87 O 0.30654 1.03133 -0.04689
 O88 O 0.30004 0.97960 0.01953
 O89 O 0.25733 0.98115 0.01989
 O90 O 0.26396 1.03345 -0.04450
 O91 O 0.25791 0.98217 -0.04685
 O92 O 0.26487 1.03192 0.02183
 Cu93 Cu 0.30798 1.00532 -0.01376
 Cu94 Cu 0.25674 1.00730 -0.01240
 C95 C 0.28746 1.04003 0.03250
 C96 C 0.27808 0.97256 -0.05858
 C97 C 0.28628 1.04150 -0.05658
 C98 C 0.27745 0.97153 0.03083
 O99 O 0.81536 0.48003 0.47305
 O100 O 0.81344 0.52963 0.54128
 O101 O 0.80796 0.47837 0.53937
 O102 O 0.81830 0.53139 0.47489
 O103 O 0.77565 0.53041 0.46883
 O104 O 0.76538 0.47838 0.53318
 O105 O 0.77081 0.52933 0.53543
 O106 O 0.77271 0.47913 0.46699
 Cu107 Cu 0.81803 0.50485 0.50770
 Cu108 Cu 0.76689 0.50427 0.50041
 C109 C 0.79446 0.47093 0.45861
 C110 C 0.79193 0.53803 0.54991
 C111 C 0.78476 0.46942 0.54718
 C112 C 0.79857 0.54006 0.46114
 C113 C 0.19530 0.20416 0.18014
 C114 C 0.21249 0.18558 0.18445
 C115 C 0.23253 0.19701 0.20464
 N116 N 0.22809 0.22188 0.21279
 C117 C 0.20523 0.22623 0.19815
 C118 C 0.25564 0.18545 0.21210
 C119 C 0.27570 0.19750 0.23290
 C120 C 0.30100 0.19038 0.23388
 C121 C 0.31405 0.20627 0.25793
 C122 C 0.29622 0.22227 0.27157
 N123 N 0.27290 0.21672 0.25620
 C124 C 0.30128 0.24046 0.29872
 C125 C 0.28411 0.25918 0.30820
 C126 C 0.28531 0.27320 0.33877
 C127 C 0.26622 0.29007 0.33743
 C128 C 0.25434 0.28620 0.30577
 N129 N 0.26526 0.26722 0.28800
 C130 C 0.23492 0.30114 0.29277
 C131 C 0.22121 0.29443 0.26233
 C132 C 0.20686 0.31124 0.24419
 C133 C 0.19565 0.29699 0.21729
 C134 C 0.20338 0.27184 0.21982
 N135 N 0.21884 0.27043 0.24748
 C136 C 0.19441 0.25057 0.19849
 H137 H 0.17776 0.20176 0.16495
 H138 H 0.21083 0.16618 0.17307
 H139 H 0.22490 0.25346 0.25804
 H140 H 0.30930 0.17539 0.21878
 H141 H 0.33432 0.20586 0.26471
 H142 H 0.29843 0.27127 0.35995
 H143 H 0.26176 0.30368 0.35750
 H144 H 0.18289 0.30426 0.19837
 H145 H 0.25537 0.22364 0.26372
 H146 H 0.20463 0.33164 0.24980
 C147 C 0.72471 0.71642 0.35634
 C148 C 0.70801 0.73575 0.35717
 C149 C 0.71233 0.74998 0.32708
 N150 N 0.73127 0.74010 0.30806
 C151 C 0.73894 0.71966 0.32599
 C152 C 0.69816 0.77098 0.31689
 C153 C 0.70581 0.78772 0.28907
 C154 C 0.69025 0.80522 0.27439
 C155 C 0.70531 0.81913 0.25010
 C156 C 0.72967 0.80965 0.25036
 N157 N 0.72981 0.79062 0.27439
 C158 C 0.75154 0.82008 0.23083
 C159 C 0.77507 0.80808 0.22833
 C160 C 0.79775 0.81916 0.21260
 C161 C 0.81520 0.80053 0.21322
 C162 C 0.80259 0.77863 0.22917
 N163 N 0.77802 0.78325 0.23810
 C164 C 0.81286 0.75415 0.23220
 C165 C 0.80002 0.73260 0.25012
 C166 C 0.80624 0.70690 0.24752
 C167 C 0.79035 0.69240 0.27041
 C168 C 0.77525 0.70972 0.28702
 N169 N 0.78122 0.73416 0.27440
 C170 C 0.75778 0.70314 0.31466
 H171 H 0.72638 0.70186 0.37606
 H172 H 0.69439 0.73896 0.37775
 H173 H 0.77515 0.75135 0.28469
 H174 H 0.67020 0.80800 0.28083
 H175 H 0.69903 0.83482 0.23464
 H176 H 0.80124 0.83846 0.20129
 H177 H 0.83471 0.80267 0.20235
 H178 H 0.79025 0.67151 0.27456
 H179 H 0.74611 0.78238 0.28327
 H180 H 0.82081 0.69924 0.23109
 C181 C 0.79484 0.22970 0.16377
 C182 C 0.77758 0.20784 0.16749
 C183 C 0.76416 0.21097 0.19805
 N184 N 0.77277 0.23390 0.21327
 C185 C 0.79164 0.24536 0.19239
 C186 C 0.74553 0.19199 0.21234
 C187 C 0.72872 0.19744 0.23988
 C188 C 0.71380 0.17866 0.25898
 C189 C 0.69930 0.19198 0.28188
 C190 C 0.70592 0.21855 0.27637
 N191 N 0.72369 0.22168 0.25051
 C192 C 0.69439 0.23899 0.29365
 C193 C 0.70516 0.26551 0.29344
 C194 C 0.69422 0.28604 0.30977
 C195 C 0.71169 0.30779 0.30618
 C196 C 0.73289 0.29992 0.28798
 N197 N 0.72891 0.27404 0.28045
 C198 C 0.75627 0.31604 0.28159
 C199 C 0.77734 0.30820 0.26159
 C200 C 0.80188 0.32189 0.25939
 C201 C 0.81628 0.30854 0.23641
 C202 C 0.80013 0.28715 0.22493
 N203 N 0.77638 0.28725 0.24017
 C204 C 0.80718 0.26894 0.19987
 H205 H 0.80823 0.23356 0.14239
 H206 H 0.77512 0.19155 0.14964
 H207 H 0.75975 0.27530 0.23364
 H208 H 0.71327 0.15755 0.25659
 H209 H 0.68538 0.18303 0.30036
 H210 H 0.67594 0.28546 0.32378
 H211 H 0.70932 0.32704 0.31670
 H212 H 0.83631 0.31410 0.22886
 H213 H 0.72989 0.23921 0.23830
 H214 H 0.80875 0.33976 0.27272
 C215 C 0.23433 0.79758 0.14970
 C216 C 0.21364 0.77863 0.14951
 C217 C 0.21936 0.75960 0.17275
 N218 N 0.24296 0.76625 0.18684
 C219 C 0.25206 0.78960 0.17311
 C220 C 0.20410 0.73548 0.17821
 C221 C 0.21071 0.71637 0.20188
 C222 C 0.19997 0.69048 0.20240
 C223 C 0.21025 0.67884 0.23028
 C224 C 0.22680 0.69799 0.24627
 N225 N 0.22689 0.72082 0.22886
 C226 C 0.23996 0.69453 0.27736
 C227 C 0.25944 0.71320 0.29018
 C228 C 0.26822 0.71426 0.32373
 C229 C 0.28815 0.73397 0.32498
 C230 C 0.29099 0.74421 0.29209
 N231 N 0.27335 0.73154 0.27089
 C232 C 0.31058 0.76381 0.28150
 C233 C 0.30940 0.77747 0.25017
 C234 C 0.32995 0.79320 0.23554
 C235 C 0.32044 0.80412 0.20658
 C236 C 0.29436 0.79471 0.20423
 N237 N 0.28777 0.77860 0.23101
 C238 C 0.27704 0.80268 0.17924
 H239 H 0.23628 0.81489 0.13370
 H240 H 0.19674 0.77859 0.13325
 H241 H 0.26898 0.77130 0.23809
 H242 H 0.18603 0.68093 0.18470
 H243 H 0.20575 0.65864 0.23809
 H244 H 0.26092 0.70220 0.34515
 H245 H 0.29919 0.74009 0.34759
 H246 H 0.33146 0.81772 0.18947
 H247 H 0.23509 0.73903 0.23721
 H248 H 0.34969 0.79665 0.24487
 C249 C 0.76249 0.21083 0.83851
 C250 C 0.78356 0.22933 0.83874
 C251 C 0.78592 0.23959 0.80584
 N252 N 0.76706 0.22794 0.78553
 C253 C 0.75272 0.21033 0.80545
 C254 C 0.80612 0.25830 0.79455
 C255 C 0.80529 0.27207 0.76326
 C256 C 0.82630 0.28714 0.74861
 C257 C 0.81723 0.29839 0.71964
 C258 C 0.79095 0.28977 0.71724
 N259 N 0.78380 0.27389 0.74408
 C260 C 0.77408 0.29806 0.69195
 C261 C 0.74907 0.28529 0.68527
 C262 C 0.73209 0.29314 0.66080
 C263 C 0.71120 0.27443 0.66025
 C264 C 0.71601 0.25573 0.68447
 N265 N 0.73929 0.26232 0.69942
 C266 C 0.70019 0.23199 0.69021
 C267 C 0.70535 0.21347 0.71552
 C268 C 0.69335 0.18806 0.71731
 C269 C 0.70225 0.17699 0.74651
 C270 C 0.71937 0.19595 0.76191
 N271 N 0.72103 0.21816 0.74297
 C272 C 0.73185 0.19277 0.79359
 H273 H 0.75521 0.19914 0.86026
 H274 H 0.79570 0.23466 0.86067
 H275 H 0.72996 0.23630 0.75044
 H276 H 0.84609 0.28996 0.75793
 H277 H 0.82868 0.31159 0.70247
 H278 H 0.73473 0.31015 0.64430
 H279 H 0.69476 0.27435 0.64318
 H280 H 0.69660 0.15726 0.75544
 H281 H 0.76484 0.26716 0.75106
 H282 H 0.67941 0.17848 0.69963
 C283 C 0.26359 0.70664 0.65944
 C284 C 0.28234 0.72746 0.65746
 C285 C 0.27262 0.74795 0.67529
 N286 N 0.24846 0.74049 0.68771
 C287 C 0.24284 0.71523 0.67795
 C288 C 0.28558 0.77334 0.67855
 C289 C 0.27760 0.79224 0.70192
 C290 C 0.28611 0.81874 0.70123
 C291 C 0.27529 0.82993 0.72953
 C292 C 0.26049 0.80991 0.74670
 N293 N 0.26204 0.78701 0.72971
 C294 C 0.24745 0.81277 0.77840
 C295 C 0.22892 0.79326 0.79182
 C296 C 0.21990 0.79211 0.82551
 C297 C 0.20113 0.77129 0.82730
 C298 C 0.19929 0.76042 0.79464
 N299 N 0.21633 0.77384 0.77300
 C300 C 0.18108 0.73947 0.78466
 C301 C 0.18354 0.72525 0.75385
 C302 C 0.16412 0.70788 0.73994
 C303 C 0.17478 0.69679 0.71149
 C304 C 0.20041 0.70772 0.70881
 N305 N 0.20560 0.72500 0.73476
 C306 C 0.21868 0.70036 0.68418
 H307 H 0.26522 0.68736 0.64861
 H308 H 0.30110 0.72743 0.64467
 H309 H 0.22390 0.73375 0.74138
 H310 H 0.29897 0.82894 0.68247
 H311 H 0.27820 0.85042 0.73676
 H312 H 0.22628 0.80482 0.84668
 H313 H 0.19019 0.76484 0.85010
 H314 H 0.16484 0.68219 0.69486
 H315 H 0.25543 0.76845 0.73869
 H316 H 0.14438 0.70345 0.74945
 C317 C 0.21935 0.24288 0.85233
 C318 C 0.23833 0.22589 0.85355
 C319 C 0.25315 0.22974 0.82372
 N320 N 0.24355 0.24828 0.80413
 C321 C 0.22291 0.25640 0.82162
 C322 C 0.27381 0.21482 0.81391
 C323 C 0.29059 0.22113 0.78542
 C324 C 0.30826 0.20503 0.77157
 C325 C 0.32160 0.21892 0.74572
 C326 C 0.31226 0.24344 0.74490
 N327 N 0.29349 0.24462 0.76931
 C328 C 0.32227 0.26432 0.72332
 C329 C 0.31099 0.28840 0.72107
 C330 C 0.32305 0.31120 0.70669
 C331 C 0.30516 0.32939 0.70773
 C332 C 0.28279 0.31718 0.72296
 N333 N 0.28636 0.29211 0.73094
 C334 C 0.25893 0.32846 0.72649
 C335 C 0.23722 0.31654 0.74499
 C336 C 0.21212 0.32413 0.74361
 C337 C 0.19732 0.30889 0.76695
 C338 C 0.21383 0.29261 0.78231
 N339 N 0.23812 0.29750 0.76883
 C340 C 0.20662 0.27513 0.80961
 H341 H 0.20470 0.24503 0.87199
 H342 H 0.24072 0.21218 0.87409
 H343 H 0.25496 0.29060 0.77822
 H344 H 0.31176 0.18546 0.77939
 H345 H 0.33689 0.21187 0.72991
 H346 H 0.34271 0.31444 0.69649
 H347 H 0.30820 0.34923 0.69803
 H348 H 0.17680 0.31002 0.77233
 H349 H 0.28522 0.26137 0.77721
 H350 H 0.20517 0.33926 0.72776
 C351 C 0.69293 0.70235 0.68681
 C352 C 0.71257 0.68619 0.68870
 C353 C 0.72597 0.69279 0.71869
 N354 N 0.71503 0.71234 0.73527
 C355 C 0.69486 0.71827 0.71576
 C356 C 0.74627 0.67917 0.73180
 C357 C 0.76033 0.68698 0.76166
 C358 C 0.77582 0.67122 0.77969
 C359 C 0.78683 0.68629 0.80606
 C360 C 0.77804 0.71098 0.80315
 N361 N 0.76196 0.71124 0.77591
 C362 C 0.78557 0.73267 0.82472
 C363 C 0.77232 0.75563 0.82622
 C364 C 0.78059 0.77790 0.84497
 C365 C 0.76162 0.79474 0.84215
 C366 C 0.74240 0.78243 0.82139
 N367 N 0.74893 0.75841 0.81191
 C368 C 0.71824 0.79226 0.81435
 C369 C 0.69925 0.77930 0.79266
 C370 C 0.67337 0.78464 0.79147
 C371 C 0.66172 0.76884 0.76628
 C372 C 0.68084 0.75451 0.75240
 N373 N 0.70370 0.76110 0.76852
 C374 C 0.67702 0.73653 0.72477
 H375 H 0.67863 0.70215 0.66661
 H376 H 0.71617 0.67095 0.67039
 H377 H 0.72183 0.75558 0.76110
 H378 H 0.77881 0.65094 0.77449
 H379 H 0.79981 0.67972 0.82520
 H380 H 0.79827 0.78157 0.85970
 H381 H 0.76187 0.81357 0.85485
 H382 H 0.64144 0.76808 0.75905
 H383 H 0.75470 0.72770 0.76552
 H384 H 0.66379 0.79845 0.80712
 C385 C 0.29047 0.05944 0.05774
 C386 C 0.26915 0.07008 0.07300
 C387 C 0.27162 0.09194 0.09808
 C388 C 0.25044 0.09544 0.12000
 C389 C 0.25135 0.11661 0.14281
 C390 C 0.27352 0.13487 0.14404
 C391 C 0.29464 0.13151 0.12195
 C392 C 0.29380 0.11020 0.09925
 C393 C 0.27433 0.15853 0.16607
 C394 C 0.25918 0.15994 0.19575
 H395 H 0.24961 0.06175 0.06683
 H396 H 0.23298 0.08188 0.11919
 H397 H 0.23428 0.11902 0.15848
 H398 H 0.31173 0.14558 0.12199
 H399 H 0.31018 0.10865 0.08199
 H400 H 0.28682 0.17576 0.15825
 H401 H 0.31006 0.06623 0.06558
 H402 H 0.24698 0.14296 0.20480
 C403 C 0.79203 0.55850 0.57655
 C404 C 0.76919 0.56679 0.59066
 C405 C 0.76928 0.58863 0.61576
 C406 C 0.74841 0.58924 0.63911
 C407 C 0.74744 0.61013 0.66222
 C408 C 0.76724 0.63105 0.66209
 C409 C 0.78796 0.63057 0.63849
 C410 C 0.78909 0.60954 0.61567
 C411 C 0.76572 0.65452 0.68408
 C412 C 0.75155 0.65429 0.71479
 H413 H 0.75062 0.55645 0.58385
 H414 H 0.73273 0.57356 0.63932
 H415 H 0.73072 0.61025 0.67927
 H416 H 0.80318 0.64668 0.63746
 H417 H 0.80504 0.61015 0.59730
 H418 H 0.77555 0.67299 0.67533
 H419 H 0.81078 0.56707 0.58548
 H420 H 0.74312 0.63605 0.72589
 C421 C 0.71426 0.94229 0.07231
 C422 C 0.73528 0.93463 0.09113
 C423 C 0.73377 0.91242 0.11557
 C424 C 0.75478 0.91047 0.13777
 C425 C 0.75513 0.88921 0.16005
 C426 C 0.73435 0.86932 0.16066
 C427 C 0.71335 0.87118 0.13839
 C428 C 0.71297 0.89251 0.11608
 C429 C 0.73456 0.84584 0.18275
 C430 C 0.75001 0.84488 0.21187
 H431 H 0.75418 0.94567 0.08799
 H432 H 0.77123 0.92532 0.13757
 H433 H 0.77210 0.88820 0.17588
 H434 H 0.69726 0.85593 0.13803
 H435 H 0.69673 0.89285 0.09880
 H436 H 0.72186 0.82851 0.17602
 H437 H 0.69487 0.93264 0.07630
 H438 H 0.76269 0.86178 0.21989
 C439 C 0.23239 0.45160 0.56557
 C440 C 0.25261 0.44319 0.58501
 C441 C 0.24910 0.42131 0.60995
 C442 C 0.26824 0.41923 0.63489
 C443 C 0.26648 0.39811 0.65771
 C444 C 0.24546 0.37849 0.65595
 C445 C 0.22638 0.38049 0.63090
 C446 C 0.22809 0.40168 0.60817
 C447 C 0.24384 0.35488 0.67803
 C448 C 0.25677 0.35381 0.70919
 H449 H 0.27201 0.45317 0.58193
 H450 H 0.28484 0.43385 0.63646
 H451 H 0.28208 0.39688 0.67580
 H452 H 0.21024 0.36542 0.62864
 H453 H 0.21337 0.40206 0.58865
 H454 H 0.23231 0.33738 0.66918
 H455 H 0.21254 0.44323 0.56975
 H456 H 0.26802 0.37095 0.71936
 C457 C 0.94412 0.23313 0.06639
 C458 C 0.93533 0.25630 0.07940
 C459 C 0.91429 0.25660 0.10564
 C460 C 0.89944 0.27820 0.10733
 C461 C 0.87885 0.27875 0.13100
 C462 C 0.87293 0.25775 0.15388
 C463 C 0.88842 0.23661 0.15292
 C464 C 0.90888 0.23601 0.12917
 C465 C 0.85011 0.25609 0.17765
 C466 C 0.83213 0.27482 0.18060
 H467 H 0.94311 0.27495 0.06866
 H468 H 0.90340 0.29445 0.08971
 H469 H 0.86751 0.29544 0.13066
 H470 H 0.88446 0.22024 0.17035
 H471 H 0.92045 0.21946 0.12952
 H472 H 0.84609 0.23809 0.19215
 H473 H 0.93520 0.21436 0.07532
 H474 H 0.83615 0.29409 0.16946
 C475 C 0.43717 0.76653 0.57832
 C476 C 0.42280 0.78825 0.57939
 C477 C 0.40055 0.78954 0.60333
 C478 C 0.37811 0.80033 0.59213
 C479 C 0.35609 0.79997 0.61349
 C480 C 0.35643 0.78930 0.64667
 C481 C 0.37938 0.77988 0.65855
 C482 C 0.40121 0.77974 0.63695
 C483 C 0.33298 0.78711 0.66891
 C484 C 0.30824 0.78039 0.65564
 H485 H 0.42614 0.80326 0.55986
 H486 H 0.37734 0.80828 0.56646
 H487 H 0.33880 0.80794 0.60403
 H488 H 0.38012 0.77185 0.68418
 H489 H 0.41854 0.77192 0.64650
 H490 H 0.33541 0.78754 0.69654
 H491 H 0.43203 0.75017 0.59540
 H492 H 0.30607 0.77643 0.62841
 C493 C 0.04973 0.74530 0.06943
 C494 C 0.06502 0.72550 0.07917
 C495 C 0.08861 0.73003 0.10075
 C496 C 0.10656 0.71105 0.10068
 C497 C 0.12937 0.71470 0.11998
 C498 C 0.13472 0.73754 0.13991
 C499 C 0.11640 0.75617 0.14073
 C500 C 0.09360 0.75251 0.12145
 C501 C 0.15876 0.74263 0.16049
 C502 C 0.18083 0.72900 0.15663
 H503 H 0.06039 0.70596 0.06877
 H504 H 0.10304 0.69336 0.08538
 H505 H 0.14246 0.69942 0.11930
 H506 H 0.11981 0.77375 0.15626
 H507 H 0.07994 0.76724 0.12324
 H508 H 0.15961 0.75862 0.17893
 H509 H 0.05456 0.76530 0.07783
 H510 H 0.18125 0.71290 0.13869
 C511 C 0.55505 0.23837 0.56250
 C512 C 0.56688 0.21873 0.57943
 C513 C 0.58931 0.22416 0.60274
 C514 C 0.60551 0.20419 0.60894
 C515 C 0.62716 0.20865 0.63025
 C516 C 0.63300 0.23329 0.64594
 C517 C 0.61631 0.25298 0.64066
 C518 C 0.59471 0.24853 0.61929
 C519 C 0.65589 0.23908 0.66837
 C520 C 0.67786 0.22514 0.66719
 H521 H 0.56037 0.19841 0.57390
 H522 H 0.60153 0.18509 0.59700
 H523 H 0.63896 0.19264 0.63462
 H524 H 0.62012 0.27197 0.65292
 H525 H 0.58219 0.26414 0.61625
 H526 H 0.65610 0.25587 0.68547
 H527 H 0.56225 0.25875 0.56582
 H528 H 0.67880 0.20852 0.65017
 C529 C 0.73570 0.05295 0.93482
 C530 C 0.71596 0.06387 0.91716
 C531 C 0.72162 0.08573 0.89254
 C532 C 0.70304 0.10365 0.88758
 C533 C 0.70847 0.12527 0.86588
 C534 C 0.73256 0.12911 0.84829
 C535 C 0.75079 0.11073 0.85255
 C536 C 0.74538 0.08920 0.87422
 C537 C 0.74002 0.15238 0.82657
 C538 C 0.72267 0.16963 0.81489
 H539 H 0.69579 0.05752 0.92334
 H540 H 0.68455 0.10132 0.90127
 H541 H 0.69401 0.13914 0.86380
 H542 H 0.76941 0.11310 0.83917
 H543 H 0.75984 0.07532 0.87642
 H544 H 0.76035 0.15609 0.81898
 H545 H 0.75580 0.06066 0.93090
 H546 H 0.70189 0.16516 0.81855
 C547 C 0.25645 0.55568 0.41742
 C548 C 0.23599 0.56603 0.40048
 C549 C 0.23998 0.58791 0.37565
 C550 C 0.21959 0.60372 0.37029
 C551 C 0.22297 0.62533 0.34832
 C552 C 0.24682 0.63135 0.33083
 C553 C 0.26697 0.61513 0.33554
 C554 C 0.26360 0.59356 0.35754
 C555 C 0.25204 0.65493 0.30902
 C556 C 0.23288 0.67018 0.29730
 H557 H 0.21613 0.55921 0.40767
 H558 H 0.20117 0.59973 0.38386
 H559 H 0.20709 0.63754 0.34599
 H560 H 0.28550 0.61926 0.32229
 H561 H 0.27951 0.58139 0.36010
 H562 H 0.27213 0.66078 0.30182
 H563 H 0.27642 0.56328 0.41233
 H564 H 0.21245 0.66355 0.30051
 C565 C 0.27576 0.95193 0.91499
 C566 C 0.25167 0.94139 0.90260
 C567 C 0.24856 0.91890 0.87843
 C568 C 0.22510 0.91414 0.86050
 C569 C 0.22101 0.89250 0.83853
 C570 C 0.24031 0.87519 0.83398
 C571 C 0.26375 0.87978 0.85217
 C572 C 0.26782 0.90137 0.87416
 C573 C 0.23476 0.85180 0.81186
 C574 C 0.25405 0.83717 0.79845
 H575 H 0.23425 0.95005 0.91090
 H576 H 0.20981 0.92712 0.86363
 H577 H 0.20264 0.88921 0.82517
 H578 H 0.27869 0.86635 0.85045
 H579 H 0.28575 0.90364 0.88850
 H580 H 0.21460 0.84580 0.80568
 H581 H 0.29361 0.94477 0.90561
 H582 H 0.27439 0.84444 0.80048
 C583 C 0.79593 0.45024 0.43248
 C584 C 0.77394 0.43816 0.41616
 C585 C 0.77485 0.41549 0.39241
 C586 C 0.75426 0.40965 0.36948
 C587 C 0.75390 0.38781 0.34767
 C588 C 0.77417 0.37123 0.34847
 C589 C 0.79463 0.37694 0.37162
 C590 C 0.79504 0.39880 0.39333
 C591 C 0.77393 0.34704 0.32732
 C592 C 0.75887 0.34232 0.29798
 H593 H 0.75525 0.44570 0.42080
 H594 H 0.73827 0.42192 0.36862
 H595 H 0.73732 0.38370 0.33106
 H596 H 0.81026 0.36426 0.37319
 H597 H 0.81082 0.40200 0.41139
 H598 H 0.78606 0.33203 0.33530
 H599 H 0.81502 0.44419 0.42651
 H600 H 0.74669 0.35677 0.28868
 C601 C 0.05510 0.23096 0.92834
 C602 C 0.06961 0.25388 0.91723
 C603 C 0.09297 0.25420 0.89454
 C604 C 0.11090 0.27663 0.89439
 C605 C 0.13364 0.27756 0.87432
 C606 C 0.13881 0.25609 0.85347
 C607 C 0.12063 0.23385 0.85313
 C608 C 0.09790 0.23290 0.87328
 C609 C 0.16337 0.25548 0.83330
 C610 C 0.18109 0.27740 0.82709
 H611 H 0.06468 0.27251 0.92751
 H612 H 0.10758 0.29334 0.91048
 H613 H 0.14728 0.29488 0.87605
 H614 H 0.12408 0.21704 0.83731
 H615 H 0.08429 0.21552 0.87188
 H616 H 0.16803 0.23671 0.82319
 H617 H 0.06034 0.21196 0.92005
 H618 H 0.17589 0.29685 0.83327
 C619 C 0.54717 0.74892 0.44071
 C620 C 0.56238 0.77007 0.42610
 C621 C 0.58527 0.76683 0.40377
 C622 C 0.60561 0.78702 0.40256
 C623 C 0.62805 0.78429 0.38290
 C624 C 0.63037 0.76136 0.36343
 C625 C 0.60972 0.74140 0.36410
 C626 C 0.58735 0.74408 0.38395
 C627 C 0.65415 0.75703 0.34321
 C628 C 0.67439 0.77649 0.33647
 H629 H 0.55874 0.78981 0.43364
 H630 H 0.60443 0.80474 0.41759
 H631 H 0.64356 0.80001 0.38384
 H632 H 0.61092 0.72358 0.34929
 H633 H 0.57173 0.72841 0.38347
 H634 H 0.65588 0.73754 0.33297
 H635 H 0.55168 0.72905 0.43557
 H636 H 0.67222 0.79672 0.34289
 C637 C 0.93652 0.72128 0.93793
 C638 C 0.92126 0.74105 0.92802
 C639 C 0.89864 0.73647 0.90493
 C640 C 0.87840 0.75283 0.90804
 C641 C 0.85666 0.74924 0.88686
 C642 C 0.85481 0.72930 0.86181
 C643 C 0.87539 0.71340 0.85795
 C644 C 0.89707 0.71679 0.87948
 C645 C 0.83220 0.72566 0.83860
 C646 C 0.80731 0.73109 0.84912
 H647 H 0.92478 0.76036 0.93955
 H648 H 0.87935 0.76838 0.92707
 H649 H 0.84162 0.76251 0.88968
 H650 H 0.87461 0.69825 0.83838
 H651 H 0.91271 0.70435 0.87567
 H652 H 0.83526 0.71882 0.81262
 H653 H 0.93204 0.70151 0.92832
 H654 H 0.80417 0.73706 0.87544
 C655 C 0.43983 0.20904 0.43227
 C656 C 0.42812 0.22960 0.41719
 C657 C 0.40436 0.22631 0.39591
 C658 C 0.39046 0.24824 0.39106
 C659 C 0.36802 0.24646 0.37115
 C660 C 0.35914 0.22269 0.35501
 C661 C 0.37284 0.20062 0.36011
 C662 C 0.39534 0.20238 0.38021
 C663 C 0.33544 0.22032 0.33353
 C664 C 0.32646 0.24181 0.31701
 H665 H 0.43593 0.24953 0.42294
 H666 H 0.39684 0.26684 0.40308
 H667 H 0.35752 0.26368 0.36908
 H668 H 0.36631 0.18205 0.34812
 H669 H 0.40571 0.18512 0.38284
 H670 H 0.32494 0.20112 0.33028
 H671 H 0.43195 0.18891 0.42854
 H672 H 0.33698 0.26101 0.31953
 C673 C 0.73418 0.94325 0.93436
 C674 C 0.71343 0.92912 0.91765
 C675 C 0.71664 0.90705 0.89371
 C676 C 0.69533 0.88834 0.88829
 C677 C 0.69771 0.86675 0.86677
 C678 C 0.72152 0.86353 0.85001
 C679 C 0.74250 0.88280 0.85428
 C680 C 0.74017 0.90432 0.87597
 C681 C 0.72529 0.84035 0.82830
 C682 C 0.71130 0.81592 0.83315
 H683 H 0.69372 0.93326 0.92415
 H684 H 0.67685 0.89024 0.90116
 H685 H 0.68083 0.85280 0.86321
 H686 H 0.76093 0.88095 0.84125
 H687 H 0.75676 0.91877 0.87850
 H688 H 0.74143 0.84173 0.81008
 H689 H 0.75397 0.93850 0.93003
 H690 H 0.69534 0.81356 0.85148
 C691 C 0.25363 0.44679 0.42589
 C692 C 0.23283 0.43329 0.40875
 C693 C 0.23637 0.41136 0.38488
 C694 C 0.21594 0.39153 0.38080
 C695 C 0.21910 0.36988 0.35970
 C696 C 0.24271 0.36794 0.34171
 C697 C 0.26286 0.38820 0.34509
 C698 C 0.25973 0.40975 0.36631
 C699 C 0.24769 0.34470 0.32077
 C700 C 0.22846 0.32505 0.31137
 H701 H 0.21313 0.43776 0.41475
 H702 H 0.19774 0.39241 0.39477
 H703 H 0.20321 0.35456 0.35846
 H704 H 0.28119 0.38726 0.33145
 H705 H 0.27561 0.42512 0.36795
 H706 H 0.26761 0.34267 0.31269
 H707 H 0.27323 0.44127 0.42208
 H708 H 0.20807 0.32775 0.31518
 C709 C 0.28874 0.06191 0.91964
 C710 C 0.26781 0.07629 0.91200
 C711 C 0.27041 0.09933 0.88922
 C712 C 0.25717 0.12114 0.89796
 C713 C 0.25884 0.14314 0.87672
 C714 C 0.27324 0.14338 0.84588
 C715 C 0.28598 0.12132 0.83663
 C716 C 0.28493 0.09955 0.85843
 C717 C 0.27410 0.16611 0.82268
 C718 C 0.27784 0.19168 0.83529
 H719 H 0.24947 0.07224 0.92576
 H720 H 0.24567 0.12122 0.92142
 H721 H 0.24836 0.15971 0.88399
 H722 H 0.29691 0.12108 0.81273
 H723 H 0.29488 0.08270 0.85086
 H724 H 0.27149 0.16264 0.79542
 H725 H 0.30775 0.06768 0.90842
 H726 H 0.28074 0.19474 0.86258
 C727 C 0.80230 0.56203 0.43673
 C728 C 0.78106 0.57140 0.42033
 C729 C 0.78249 0.59544 0.39910
 C730 C 0.76146 0.59922 0.37767
 C731 C 0.76089 0.62240 0.35904
 C732 C 0.78126 0.64259 0.36188
 C733 C 0.80265 0.63857 0.38261
 C734 C 0.80325 0.61530 0.40121
 C735 C 0.78086 0.66788 0.34359
 C736 C 0.75798 0.67726 0.33176
 H737 H 0.76204 0.56062 0.42349
 H738 H 0.74526 0.58419 0.37546
 H739 H 0.74449 0.62426 0.34243
 H740 H 0.81867 0.65375 0.38507
 H741 H 0.81960 0.61339 0.41790
 H742 H 0.79902 0.68025 0.34081
 H743 H 0.82186 0.57114 0.43240
 H744 H 0.73932 0.66674 0.33793
 C745 C 0.04279 0.74727 0.93068
 C746 C 0.05710 0.72809 0.91612
 C747 C 0.07851 0.73420 0.89088
 C748 C 0.08655 0.71398 0.87003
 C749 C 0.10714 0.71889 0.84653
 C750 C 0.12027 0.74418 0.84373
 C751 C 0.11214 0.76439 0.86442
 C752 C 0.09168 0.75948 0.88797
 C753 C 0.14239 0.75039 0.81973
 C754 C 0.15827 0.73182 0.80723
 H755 H 0.05237 0.70773 0.92324
 H756 H 0.07678 0.69433 0.87182
 H757 H 0.11240 0.70291 0.83044
 H758 H 0.12203 0.78401 0.86285
 H759 H 0.08678 0.77547 0.90428
 H760 H 0.14742 0.77081 0.81314
 H761 H 0.04616 0.76738 0.92207
 H762 H 0.15370 0.71121 0.81276
 C763 C 0.55029 0.21584 0.42377
 C764 C 0.55967 0.23687 0.40295
 C765 C 0.58129 0.23589 0.37767
 C766 C 0.58425 0.25502 0.35187
 C767 C 0.60529 0.25590 0.32883
 C768 C 0.62413 0.23795 0.33140
 C769 C 0.62092 0.21837 0.35676
 C770 C 0.59977 0.21740 0.37974
 C771 C 0.64700 0.24083 0.30785
 C772 C 0.67101 0.23178 0.31538
 H773 H 0.55061 0.25508 0.40510
 H774 H 0.57035 0.26953 0.34973
 H775 H 0.60723 0.27112 0.30946
 H776 H 0.63468 0.20380 0.35910
 H777 H 0.59847 0.20261 0.39958
 H778 H 0.64586 0.25293 0.28522
 H779 H 0.55762 0.19686 0.42061
 H780 H 0.67333 0.21989 0.33781
 C781 C 0.94506 0.22979 0.92545
 C782 C 0.93448 0.25204 0.91330
 C783 C 0.91228 0.25036 0.88923
 C784 C 0.89564 0.27053 0.88906
 C785 C 0.87359 0.26873 0.86819
 C786 C 0.86796 0.24676 0.84677
 C787 C 0.88499 0.22697 0.84627
 C788 C 0.90704 0.22882 0.86698
 C789 C 0.84408 0.24311 0.82585
 C790 C 0.82967 0.26350 0.81604
 H791 H 0.94125 0.27106 0.92387
 H792 H 0.89929 0.28737 0.90587
 H793 H 0.86067 0.28417 0.86975
 H794 H 0.88119 0.20995 0.82981
 H795 H 0.91988 0.21332 0.86535
 H796 H 0.83786 0.22347 0.81682
 H797 H 0.93721 0.21050 0.91708
 H798 H 0.83692 0.28367 0.82101
 C799 C 0.43844 0.74685 0.43739
 C800 C 0.42940 0.76726 0.41860
 C801 C 0.40898 0.76308 0.39209
 C802 C 0.39427 0.78385 0.38385
 C803 C 0.37441 0.78050 0.35956
 C804 C 0.36913 0.75629 0.34255
 C805 C 0.38421 0.73570 0.35033
 C806 C 0.40399 0.73903 0.37468
 C807 C 0.34745 0.75120 0.31793
 C808 C 0.33340 0.77057 0.30400
 H809 H 0.43662 0.78729 0.42475
 H810 H 0.39780 0.80261 0.39680
 H811 H 0.36302 0.79676 0.35492
 H812 H 0.38063 0.71687 0.33757
 H813 H 0.41542 0.72279 0.37946
 H814 H 0.34203 0.73100 0.31051
 H815 H 0.43030 0.72684 0.43331
 H816 H 0.33995 0.79109 0.30750
 C817 C 0.27391 0.95075 0.05683
 C818 C 0.29438 0.93745 0.06891
 C819 C 0.29018 0.91560 0.09379
 C820 C 0.30761 0.89614 0.09402
 C821 C 0.30342 0.87457 0.11603
 C822 C 0.28168 0.87217 0.13844
 C823 C 0.26495 0.89225 0.13922
 C824 C 0.26912 0.91374 0.11723
 C825 C 0.27549 0.84920 0.16114
 C826 C 0.28615 0.82532 0.15729
 H827 H 0.31373 0.94196 0.05804
 H828 H 0.32424 0.89737 0.07664
 H829 H 0.31729 0.86002 0.11528
 H830 H 0.24833 0.89115 0.15663
 H831 H 0.25586 0.92886 0.11885
 H832 H 0.26043 0.85045 0.18061
 H833 H 0.25417 0.94509 0.06552
 H834 H 0.30119 0.82267 0.13839
 C835 C 0.77963 0.44836 0.57253
 C836 C 0.79920 0.43484 0.58663
 C837 C 0.79324 0.41245 0.61032
 C838 C 0.81018 0.39259 0.61155
 C839 C 0.80430 0.37053 0.63232
 C840 C 0.78132 0.36803 0.65246
 C841 C 0.76502 0.38847 0.65232
 C842 C 0.77087 0.41045 0.63155
 C843 C 0.77357 0.34472 0.67397
 C844 C 0.78382 0.32061 0.67022
 H845 H 0.81917 0.43945 0.57803
 H846 H 0.82776 0.39391 0.59589
 H847 H 0.81787 0.35569 0.63249
 H848 H 0.74747 0.38729 0.66804
 H849 H 0.75787 0.42584 0.63236
 H850 H 0.75794 0.34604 0.69260
 H851 H 0.75940 0.44246 0.57877
 H852 H 0.79929 0.31790 0.65197
 C853 C 0.71066 0.05067 0.07407
 C854 C 0.73043 0.06227 0.09491
 C855 C 0.72683 0.08393 0.11940
 C856 C 0.74519 0.08918 0.14549
 C857 C 0.74361 0.11051 0.16770
 C858 C 0.72380 0.12737 0.16390
 C859 C 0.70493 0.12164 0.13856
 C860 C 0.70647 0.10027 0.11636
 C861 C 0.72289 0.15153 0.18484
 C862 C 0.74525 0.16489 0.19867
 H863 H 0.74949 0.05499 0.09346
 H864 H 0.76096 0.07684 0.14855
 H865 H 0.75803 0.11373 0.18765
 H866 H 0.68946 0.13430 0.13513
 H867 H 0.69221 0.09729 0.09621
 H868 H 0.70483 0.16081 0.18594
 H869 H 0.69098 0.05618 0.07667
 H870 H 0.76395 0.15737 0.19439
 C871 C 0.23857 0.56390 0.55318
 C872 C 0.21496 0.57363 0.56162
 C873 C 0.21432 0.59948 0.57827
 C874 C 0.19557 0.60323 0.60373
 C875 C 0.19555 0.62746 0.62052
 C876 C 0.21396 0.64840 0.61137
 C877 C 0.23181 0.64497 0.58472
 C878 C 0.23218 0.62067 0.56850
 C879 C 0.21557 0.67379 0.62954
 C880 C 0.21215 0.67552 0.66500
 H881 H 0.19673 0.56199 0.55647
 H882 H 0.18136 0.58724 0.61117
 H883 H 0.18114 0.62982 0.64046
 H884 H 0.24599 0.66094 0.57708
 H885 H 0.24636 0.61849 0.54820
 H886 H 0.22297 0.69119 0.61547
 H887 H 0.25665 0.57450 0.56142
 H888 H 0.20457 0.65836 0.67938
 C889 C 0.94001 0.72103 0.07790
 C890 C 0.92980 0.74198 0.09469
 C891 C 0.90773 0.73917 0.11941
 C892 C 0.90404 0.76024 0.14149
 C893 C 0.88239 0.75942 0.16345
 C894 C 0.86384 0.73742 0.16368
 C895 C 0.86746 0.71633 0.14157
 C896 C 0.88927 0.71708 0.11972
 C897 C 0.83979 0.73680 0.18486
 C898 C 0.83820 0.75119 0.21515
 H899 H 0.93845 0.76171 0.08944
 H900 H 0.91776 0.77765 0.14133
 H901 H 0.87984 0.77646 0.17920
 H902 H 0.85322 0.69935 0.14094
 H903 H 0.89105 0.70078 0.10237
 H904 H 0.82261 0.72483 0.17617
 H905 H 0.93328 0.70099 0.08443
 H906 H 0.85514 0.76291 0.22482
 C907 C 0.44544 0.23022 0.57001
 C908 C 0.43299 0.25312 0.57406
 C909 C 0.41133 0.25574 0.59876
 C910 C 0.39342 0.27397 0.59177
 C911 C 0.37250 0.27691 0.61412
 C912 C 0.36935 0.26212 0.64437
 C913 C 0.38742 0.24401 0.65169
 C914 C 0.40824 0.24086 0.62909
 C915 C 0.34661 0.26565 0.66689
 C916 C 0.34582 0.26050 0.70211
 H917 H 0.43804 0.26927 0.55658
 H918 H 0.39541 0.28574 0.56865
 H919 H 0.35881 0.29093 0.60785
 H920 H 0.38534 0.23190 0.67443
 H921 H 0.42196 0.22699 0.63565
 H922 H 0.33001 0.27367 0.65544
 H923 H 0.43947 0.21311 0.58539
 H924 H 0.36205 0.25243 0.71428
 C925 C 0.05048 0.22960 0.07009
 C926 C 0.06489 0.25187 0.08289
 C927 C 0.08545 0.25024 0.10886
 C928 C 0.10647 0.26974 0.10969
 C929 C 0.12687 0.26801 0.13272
 C930 C 0.12651 0.24671 0.15553
 C931 C 0.10488 0.22790 0.15579
 C932 C 0.08455 0.22959 0.13270
 C933 C 0.14809 0.24352 0.17947
 C934 C 0.17349 0.25470 0.17398
 H935 H 0.06238 0.27081 0.07175
 H936 H 0.10734 0.28610 0.09203
 H937 H 0.14270 0.28347 0.13264
 H938 H 0.10389 0.21161 0.17357
 H939 H 0.06815 0.21476 0.13378
 H940 H 0.14430 0.23059 0.20132
 H941 H 0.05421 0.21036 0.07912
 H942 H 0.17845 0.26720 0.15211
 C943 C 0.54644 0.76994 0.57900
 C944 C 0.55617 0.74894 0.59579
 C945 C 0.57837 0.75155 0.61985
 C946 C 0.59099 0.72913 0.62701
 C947 C 0.61216 0.73043 0.64921
 C948 C 0.62101 0.75423 0.66530
 C949 C 0.60843 0.77671 0.65816
 C950 C 0.58722 0.77542 0.63583
 C951 C 0.64376 0.75640 0.68848
 C952 C 0.65222 0.73490 0.70557
 H953 H 0.54800 0.72923 0.58950
 H954 H 0.58469 0.71053 0.61492
 H955 H 0.62180 0.71282 0.65294
 H956 H 0.61493 0.79531 0.67011
 H957 H 0.57775 0.79307 0.63160
 H958 H 0.65425 0.77554 0.69226
 H959 H 0.55480 0.78984 0.58338
 H960 H 0.64176 0.71570 0.70279
   
