data_POSCAR
  _audit_creation_date              2014-09-24
  _audit_creation_method            'ToBaCCo'
  _symmetry_space_group_name_H-M    'P1'
  _symmetry_Int_Tables_number       1
  _symmetry_cell_setting            triclinic
  loop_
  _symmetry_equiv_pos_as_xyz
 x,y,z
_cell_length_a 29.8690
_cell_length_b 30.4088
_cell_length_c 8.6029
_cell_angle_alpha 89.765400
_cell_angle_beta 89.936400
_cell_angle_gamma 89.999900
loop_
  _atom_site_label
  _atom_site_type_symbol
  _atom_site_fract_x
  _atom_site_fract_y
  _atom_site_fract_z
C1 C 0.33799 0.28920 0.38125
 C2 C 0.35935 0.24895 0.40754
 C3 C 0.33852 0.20835 0.38101
 C4 C 0.29348 0.20819 0.32729
 C5 C 0.27084 0.24868 0.30038
 C6 C 0.29318 0.28921 0.32754
 C7 C 0.27006 0.32864 0.29997
 C8 C 0.22627 0.32866 0.24667
 C9 C 0.20336 0.28926 0.21758
 C10 C 0.22577 0.24871 0.24494
 C11 C 0.27030 0.16882 0.29933
 C12 C 0.22641 0.16884 0.24681
 C13 C 0.20329 0.20823 0.21735
 C14 C 0.15847 0.20843 0.16138
 C15 C 0.13749 0.24906 0.13535
 C16 C 0.15873 0.28931 0.16205
 H17 H 0.28527 0.36027 0.31895
 H18 H 0.21090 0.36030 0.22874
 H19 H 0.28546 0.13713 0.31763
 H20 H 0.21120 0.13715 0.23012
 H21 H 0.39330 0.24946 0.44760
 H22 H 0.10353 0.24958 0.09503
 C23 C 0.65934 0.21021 0.33364
 C24 C 0.63819 0.25053 0.36003
 C25 C 0.65938 0.29090 0.33378
 C26 C 0.70400 0.29112 0.27757
 C27 C 0.72643 0.25070 0.24977
 C28 C 0.70396 0.21016 0.27729
 C29 C 0.72682 0.17077 0.24768
 C30 C 0.77075 0.17084 0.19506
 C31 C 0.79388 0.21031 0.16731
 C32 C 0.77149 0.25081 0.19435
 C33 C 0.72689 0.33059 0.24859
 C34 C 0.77083 0.33072 0.19620
 C35 C 0.79408 0.29137 0.16779
 C36 C 0.83914 0.29129 0.11391
 C37 C 0.86001 0.25073 0.08697
 C38 C 0.83872 0.21042 0.11358
 H39 H 0.71131 0.13914 0.26477
 H40 H 0.78606 0.13922 0.17687
 H41 H 0.71140 0.36216 0.26605
 H42 H 0.78596 0.36246 0.17867
 H43 H 0.60421 0.25049 0.40035
 H44 H 0.89395 0.25031 0.04634
 C45 C 0.66274 0.70946 0.61766
 C46 C 0.64161 0.74985 0.59146
 C47 C 0.66272 0.79014 0.61852
 C48 C 0.70760 0.79017 0.67187
 C49 C 0.73015 0.74962 0.69808
 C50 C 0.70764 0.70921 0.67089
 C51 C 0.73068 0.66973 0.69809
 C52 C 0.77459 0.66959 0.75069
 C53 C 0.79770 0.70893 0.78059
 C54 C 0.77521 0.74951 0.75325
 C55 C 0.73061 0.82955 0.69999
 C56 C 0.77454 0.82947 0.75220
 C57 C 0.79754 0.79000 0.78092
 C58 C 0.84212 0.78990 0.83684
 C59 C 0.86338 0.74959 0.86346
 C60 C 0.84248 0.70901 0.83692
 H61 H 0.71528 0.63817 0.67954
 H62 H 0.78980 0.63785 0.76750
 H63 H 0.71521 0.86120 0.68218
 H64 H 0.78992 0.86108 0.76983
 H65 H 0.60766 0.74994 0.55115
 H66 H 0.89728 0.75004 0.90430
 C67 C 0.33973 0.79030 0.66440
 C68 C 0.36082 0.74999 0.63732
 C69 C 0.33964 0.70964 0.66391
 C70 C 0.29500 0.70947 0.72009
 C71 C 0.27259 0.74992 0.74820
 C72 C 0.29513 0.79039 0.72089
 C73 C 0.27241 0.82979 0.75099
 C74 C 0.22860 0.82982 0.80456
 C75 C 0.20518 0.79044 0.83202
 C76 C 0.22753 0.74988 0.80414
 C77 C 0.27212 0.67004 0.74923
 C78 C 0.22828 0.66995 0.80257
 C79 C 0.20501 0.70931 0.83095
 C80 C 0.16002 0.70933 0.88515
 C81 C 0.13909 0.74985 0.91251
 C82 C 0.16021 0.79038 0.88637
 H83 H 0.28796 0.86139 0.73374
 H84 H 0.21372 0.86154 0.82391
 H85 H 0.28757 0.63844 0.73157
 H86 H 0.21326 0.63821 0.82123
 H87 H 0.39473 0.75001 0.59628
 H88 H 0.10521 0.74987 0.95352
 O89 O 1.04229 -0.04959 0.10554
 O90 O 0.95547 0.03532 0.14945
 O91 O 0.95645 -0.04908 0.08767
 O92 O 1.04192 0.03508 0.16654
 O93 O 1.04564 0.04912 -0.08541
 O94 O 0.96014 -0.03493 -0.16424
 O95 O 0.95971 0.04942 -0.10241
 O96 O 1.04649 -0.03552 -0.14635
 Cu97 Cu 0.99861 -0.00856 0.15205
 Cu98 Cu 1.00350 0.00855 -0.14951
 C99 C 1.05806 -0.05787 -0.02811
 C100 C 0.94374 0.05752 0.03111
 C101 C 0.94470 -0.05711 -0.05097
 C102 C 1.05729 0.05729 0.05321
 O103 O 0.54101 0.54949 0.40002
 O104 O 0.45430 0.46475 0.35229
 O105 O 0.45505 0.54921 0.41421
 O106 O 0.54078 0.46538 0.33594
 O107 O 0.54393 0.45081 0.58764
 O108 O 0.45821 0.53478 0.66599
 O109 O 0.45790 0.45029 0.60398
 O110 O 0.54470 0.53500 0.65171
 Cu111 Cu 0.49736 0.50875 0.35067
 Cu112 Cu 0.50154 0.49116 0.65227
 C113 C 0.55673 0.55734 0.53395
 C114 C 0.44232 0.44233 0.46992
 C115 C 0.44304 0.55710 0.55273
 C116 C 0.55607 0.44311 0.44907
 O117 O -0.04460 0.54932 0.08610
 O118 O 0.04082 0.46481 0.16486
 O119 O 0.04132 0.54956 0.10403
 O120 O -0.04565 0.46467 0.15020
 O121 O -0.04171 0.45100 -0.10157
 O122 O 0.04525 0.53580 -0.14769
 O123 O 0.04421 0.45108 -0.08694
 O124 O -0.04116 0.53552 -0.16565
 Cu125 Cu -0.00248 0.50857 0.15120
 Cu126 Cu 0.00207 0.49188 -0.15003
 C127 C -0.05638 0.55766 -0.05257
 C128 C 0.05606 0.44274 0.05155
 C129 C 0.05706 0.55792 -0.02986
 C130 C -0.05744 0.44257 0.03228
 O131 O 0.45547 0.95096 0.41290
 O132 O 0.54104 1.03526 0.33488
 O133 O 0.54152 0.95083 0.39943
 O134 O 0.45458 1.03541 0.34906
 O135 O 0.45790 1.04953 0.60062
 O136 O 0.54485 0.96491 0.65099
 O137 O 0.54389 1.04942 0.58647
 O138 O 0.45829 0.96510 0.66449
 Cu139 Cu 0.49781 0.99157 0.34937
 Cu140 Cu 0.50160 1.00875 0.65052
 C141 C 0.44324 0.94292 0.55134
 C142 C 0.55605 1.05749 0.44795
 C143 C 0.55704 0.94273 0.53368
 C144 C 0.44242 1.05764 0.46628
 C145 C 1.13441 0.09705 0.14873
 C146 C 1.14750 0.13137 0.02205
 C147 C 1.13321 0.16873 0.13231
 C148 C 1.12039 0.13497 0.25898
 C149 C 1.08502 0.16711 0.06615
 C150 C 1.09931 0.12959 -0.04347
 C151 C 1.08667 0.09601 0.08314
 C152 C 1.07227 0.13320 0.19255
 H153 H 1.15441 0.06777 0.18231
 H154 H 1.17847 0.13072 -0.04939
 H155 H 1.12903 0.13736 0.38415
 H156 H 1.06214 0.19382 0.02870
 H157 H 1.09060 0.12724 -0.16860
 H158 H 1.04110 0.13367 0.26280
 C159 C 0.57520 0.63328 0.66576
 C160 C 0.62434 0.63441 0.72215
 C161 C 0.63551 0.66777 0.59236
 C162 C 0.58631 0.66674 0.53616
 C163 C 0.64740 0.63002 0.48052
 C164 C 0.63596 0.59614 0.61038
 C165 C 0.58717 0.59570 0.55456
 C166 C 0.59815 0.62883 0.42468
 H167 H 0.54528 0.63440 0.74231
 H168 H 0.63517 0.63695 0.84519
 H169 H 0.56352 0.69403 0.50338
 H170 H 0.67723 0.62888 0.40354
 H171 H 0.65608 0.56661 0.64034
 H172 H 0.58729 0.62636 0.30161
 C173 C -0.07488 0.36574 0.16226
 C174 C -0.12388 0.36384 0.22038
 C175 C -0.13506 0.33099 0.08996
 C176 C -0.08594 0.33276 0.03202
 C177 C -0.14754 0.36915 -0.02048
 C178 C -0.13610 0.40255 0.11006
 C179 C -0.08746 0.40374 0.05261
 C180 C -0.09841 0.37110 -0.07784
 H181 H -0.04485 0.36457 0.23803
 H182 H -0.13436 0.36074 0.34377
 H183 H -0.06272 0.30618 -0.00362
 H184 H -0.17746 0.37043 -0.09683
 H185 H -0.15641 0.43169 0.14218
 H186 H -0.08787 0.37423 -0.20122
 C187 C 0.42747 0.86720 0.69249
 C188 C 0.37929 0.86585 0.75864
 C189 C 0.36635 0.83213 0.63315
 C190 C 0.41456 0.83337 0.56720
 C191 C 0.35243 0.86955 0.52177
 C192 C 0.36563 0.90380 0.64720
 C193 C 0.41346 0.90446 0.58174
 C194 C 0.40067 0.87093 0.45622
 H195 H 0.45858 0.86651 0.76288
 H196 H 0.37033 0.86351 0.88359
 H197 H 0.43687 0.80619 0.53034
 H198 H 0.32138 0.87028 0.45100
 H199 H 0.34578 0.93320 0.67984
 H200 H 0.40955 0.87313 0.33112
 C201 C -0.07162 0.63347 -0.19490
 C202 C -0.11997 0.63528 -0.25930
 C203 C -0.13226 0.66926 -0.13367
 C204 C -0.08383 0.66759 -0.06953
 C205 C -0.14627 0.63209 -0.02116
 C206 C -0.13371 0.59755 -0.14671
 C207 C -0.08574 0.59647 -0.08311
 C208 C -0.09785 0.63026 0.04241
 H209 H -0.04076 0.63378 -0.26687
 H210 H -0.12911 0.63750 -0.38409
 H211 H -0.06072 0.69423 -0.03364
 H212 H -0.17702 0.63165 0.05146
 H213 H -0.15397 0.56831 -0.17799
 H214 H -0.08867 0.62809 0.16720
 C215 C 0.42477 1.13406 0.33395
 C216 C 0.37581 1.13569 0.27551
 C217 C 0.36440 1.16872 0.40521
 C218 C 0.41347 1.16723 0.46337
 C219 C 0.35195 1.13071 0.51641
 C220 C 0.36364 1.09712 0.38667
 C221 C 0.41223 1.09624 0.44445
 C222 C 0.40102 1.12906 0.57403
 H223 H 0.45496 1.13520 0.25872
 H224 H 0.36549 1.13855 0.15193
 H225 H 0.43669 1.19392 0.49785
 H226 H 0.32185 1.12944 0.59209
 H227 H 0.34347 1.06780 0.35556
 H228 H 0.41155 1.12618 0.69732
 C229 C 1.07515 -0.13394 -0.16070
 C230 C 1.12429 -0.13594 -0.21703
 C231 C 1.13467 -0.16985 -0.08824
 C232 C 1.08537 -0.16797 -0.03213
 C233 C 1.14719 -0.13263 0.02508
 C234 C 1.13658 -0.09818 -0.10385
 C235 C 1.08777 -0.09687 -0.04828
 C236 C 1.09788 -0.13055 0.08060
 H237 H 1.04530 -0.13424 -0.23734
 H238 H 1.13507 -0.13827 -0.34027
 H239 H 1.06158 -0.19454 -0.00027
 H240 H 1.17689 -0.13224 0.10262
 H241 H 1.15735 -0.06901 -0.13284
 H242 H 1.08688 -0.12815 0.20359
 C243 C 0.59888 0.37103 0.54358
 C244 C 0.58480 0.33376 0.43273
 C245 C 0.63289 0.33266 0.36584
 C246 C 0.64702 0.36978 0.47716
 C247 C 0.61981 0.36672 0.24068
 C248 C 0.57174 0.36792 0.30779
 C249 C 0.58594 0.40487 0.41840
 C250 C 0.63367 0.40438 0.35203
 H251 H 0.59019 0.37298 0.66883
 H252 H 0.56246 0.30649 0.46929
 H253 H 0.67810 0.37031 0.54772
 H254 H 0.62839 0.36472 0.11524
 H255 H 0.54059 0.36746 0.23759
 H256 H 0.65355 0.43385 0.31948
 C257 C 0.90268 -0.12954 0.04445
 C258 C 0.85442 -0.13110 -0.02040
 C259 C 0.86855 -0.16819 -0.13198
 C260 C 0.91679 -0.16676 -0.06671
 C261 C 0.88117 -0.13408 -0.25767
 C262 C 0.86731 -0.09646 -0.14606
 C263 C 0.91515 -0.09564 -0.08127
 C264 C 0.92938 -0.13253 -0.19219
 H265 H 0.91160 -0.12751 0.16946
 H266 H 0.82349 -0.13069 0.05121
 H267 H 0.93937 -0.19387 -0.03050
 H268 H 0.87232 -0.13615 -0.38273
 H269 H 0.84723 -0.06711 -0.17839
 H270 H 0.96032 -0.13283 -0.26380
 C271 C 0.40132 0.37022 0.57748
 C272 C 0.35223 0.36858 0.52007
 C273 C 0.36482 0.33112 0.40786
 C274 C 0.41385 0.33259 0.46568
 C275 C 0.37596 0.36479 0.27905
 C276 C 0.36363 0.40278 0.39116
 C277 C 0.41226 0.40367 0.44860
 C278 C 0.42492 0.36637 0.33709
 H279 H 0.41187 0.37264 0.70084
 H280 H 0.32217 0.36926 0.59605
 H281 H 0.43688 0.30550 0.49851
 H282 H 0.36558 0.36236 0.15547
 H283 H 0.34322 0.43205 0.36060
 H284 H 0.45504 0.36570 0.26156
 C285 C 0.13575 0.59793 -0.10731
 C286 C 0.12357 0.63618 -0.21972
 C287 C 0.13431 0.66957 -0.09054
 C288 C 0.14676 0.63187 0.02190
 C289 C 0.08508 0.66776 -0.03369
 C290 C 0.07447 0.63425 -0.16260
 C291 C 0.08702 0.59673 -0.05083
 C292 C 0.09753 0.62990 0.07827
 H293 H 0.15632 0.56873 -0.13683
 H294 H 0.13428 0.63891 -0.34298
 H295 H 0.17666 0.63103 0.09832
 H296 H 0.06146 0.69429 -0.00096
 H297 H 0.04448 0.63499 -0.23865
 H298 H 0.08675 0.62717 0.20147
 C299 C 0.57173 1.13315 0.30597
 C300 C 0.58450 1.16713 0.43095
 C301 C 0.63276 1.16837 0.36543
 C302 C 0.61996 1.13450 0.24026
 C303 C 0.64665 1.13108 0.47747
 C304 C 0.59835 1.12969 0.54254
 C305 C 0.58571 1.09603 0.41732
 C306 C 0.63359 1.09667 0.35233
 H307 H 0.54076 1.13377 0.23477
 H308 H 0.56212 1.19435 0.46720
 H309 H 0.62890 1.13670 0.11518
 H310 H 0.67759 1.13042 0.54881
 H311 H 0.58930 1.12760 0.66751
 H312 H 0.65349 1.06723 0.32035
 C313 C 0.09802 0.37049 -0.04447
 C314 C 0.14629 0.36876 0.02019
 C315 C 0.13224 0.33132 0.13152
 C316 C 0.08398 0.33293 0.06646
 C317 C 0.11963 0.36506 0.25752
 C318 C 0.13343 0.40302 0.14616
 C319 C 0.08556 0.40403 0.08158
 C320 C 0.07139 0.36678 0.19227
 H321 H 0.08913 0.37282 -0.16956
 H322 H 0.17723 0.36943 -0.05143
 H323 H 0.06146 0.30588 0.02995
 H324 H 0.12863 0.36264 0.38239
 H325 H 0.15348 0.43229 0.17872
 H326 H 0.04043 0.36622 0.26367
 C327 C 0.59867 0.87152 0.42524
 C328 C 0.64777 0.87007 0.48251
 C329 C 0.63555 0.83196 0.59348
 C330 C 0.58650 0.83325 0.53586
 C331 C 0.62411 0.86489 0.72338
 C332 C 0.63606 0.90354 0.61246
 C333 C 0.58741 0.90425 0.55515
 C334 C 0.57511 0.86631 0.66556
 H335 H 0.58820 0.87435 0.30176
 H336 H 0.67771 0.87140 0.40605
 H337 H 0.56383 0.80611 0.50142
 H338 H 0.63464 0.86194 0.84670
 H339 H 0.65617 0.93288 0.64379
 H340 H 0.54509 0.86498 0.74170
 C341 C 0.92575 0.13370 0.16155
 C342 C 0.91490 0.16712 0.03163
 C343 C 0.86572 0.16855 0.08815
 C344 C 0.87662 0.13522 0.21823
 C345 C 0.85355 0.13078 -0.02319
 C346 C 0.90280 0.12918 -0.07933
 C347 C 0.91351 0.09609 0.05085
 C348 C 0.86472 0.09693 0.10699
 H349 H 0.95557 0.13466 0.23835
 H350 H 0.93788 0.19422 -0.00181
 H351 H 0.86584 0.13794 0.34138
 H352 H 0.82373 0.12978 -0.09998
 H353 H 0.91363 0.12649 -0.20243
 H354 H 0.84435 0.06759 0.13750
 C355 C 0.42748 0.63280 0.69246
 C356 C 0.41442 0.66667 0.56651
 C357 C 0.36627 0.66786 0.63297
 C358 C 0.37936 0.63411 0.75916
 C359 C 0.35228 0.63046 0.52264
 C360 C 0.40046 0.62913 0.45661
 C361 C 0.41337 0.59558 0.58285
 C362 C 0.36562 0.59619 0.64885
 H363 H 0.45865 0.63348 0.76252
 H364 H 0.43674 0.69392 0.52954
 H365 H 0.37063 0.63643 0.88429
 H366 H 0.32122 0.62971 0.45203
 H367 H 0.40925 0.62695 0.33146
 H368 H 0.34583 0.56676 0.68250
   
