data_POSCAR
  _audit_creation_date              2014-09-24
  _audit_creation_method            'ToBaCCo'
  _symmetry_space_group_name_H-M    'P1'
  _symmetry_Int_Tables_number       1
  _symmetry_cell_setting            triclinic
  loop_
  _symmetry_equiv_pos_as_xyz
 x,y,z
_cell_length_a 49.5728
_cell_length_b 48.9867
_cell_length_c 48.3727
_cell_angle_alpha 92.575700
_cell_angle_beta 93.194400
_cell_angle_gamma 93.561000
loop_
  _atom_site_label
  _atom_site_type_symbol
  _atom_site_fract_x
  _atom_site_fract_y
  _atom_site_fract_z
N1 N 0.19428 1.25147 0.17817
 N2 N 0.17592 1.25054 0.19670
 C3 C 0.15811 1.26958 0.19145
 C4 C 0.16562 1.28329 0.16824
 C5 C 0.18885 1.27113 0.16053
 H6 H 0.14074 1.27276 0.20342
 H7 H 0.20075 1.27570 0.14308
 Cu8 Cu 0.17638 1.22361 0.22504
 Cu9 Cu 0.22305 1.22618 0.17736
 Cu10 Cu 0.22421 1.17789 0.22764
 N11 N 0.17726 1.19650 0.25319
 N12 N 0.19594 1.17863 0.25404
 C13 C 0.19126 1.16164 0.27459
 C14 C 0.16822 1.16911 0.28743
 C15 C 0.16003 1.19148 0.27317
 H16 H 0.20356 1.14483 0.27933
 H17 H 0.14251 1.20295 0.27656
 N18 N 0.25102 1.18052 0.19909
 N19 N 0.25050 1.19887 0.17995
 C20 C 0.27054 1.19475 0.16288
 C21 C 0.28439 1.17269 0.17159
 C22 C 0.27145 1.16426 0.19469
 H23 H 0.27455 1.20674 0.14518
 H24 H 0.27603 1.14700 0.20687
 H25 H 0.20225 1.19448 0.19568
 H26 H 0.22438 1.21879 0.21912
 N27 N 0.80529 0.75191 0.15513
 N28 N 0.82369 0.75128 0.17568
 C29 C 0.83898 0.73001 0.17118
 C30 C 0.82989 0.71649 0.14635
 C31 C 0.80845 0.73106 0.13666
 H32 H 0.85592 0.72518 0.18472
 H33 H 0.79606 0.72682 0.11766
 Cu34 Cu 0.82723 0.77876 0.20597
 Cu35 Cu 0.77902 0.78001 0.15424
 Cu36 Cu 0.77927 0.82343 0.21301
 N37 N 0.82462 0.80020 0.24028
 N38 N 0.80577 0.81760 0.24314
 C39 C 0.80976 0.83092 0.26814
 C40 C 0.83261 0.82152 0.28175
 C41 C 0.84127 0.80179 0.26328
 H42 H 0.79754 0.84705 0.27521
 H43 H 0.85884 0.78996 0.26580
 N44 N 0.75421 0.82614 0.18030
 N45 N 0.75418 0.80984 0.15781
 C46 C 0.73579 0.81788 0.13877
 C47 C 0.72375 0.84043 0.14975
 C48 C 0.73594 0.84495 0.17615
 H49 H 0.73203 0.80851 0.11815
 H50 H 0.73210 0.86102 0.19117
 H51 H 0.80029 0.80980 0.17972
 H52 H 0.77910 0.78338 0.19693
 N53 N 0.79883 1.24612 -0.19054
 N54 N 0.82089 1.24057 -0.20292
 C55 C 0.83907 1.26213 -0.19905
 C56 C 0.82792 1.28240 -0.18322
 C57 C 0.80226 1.27141 -0.17825
 H58 H 0.85922 1.26257 -0.20653
 H59 H 0.78736 1.28078 -0.16611
 Cu60 Cu 0.82473 1.20531 -0.22177
 Cu61 Cu 0.76828 1.21923 -0.18972
 Cu62 Cu 0.76980 1.16122 -0.23288
 N63 N 0.82329 1.17529 -0.24950
 N64 N 0.80140 1.15902 -0.25494
 C65 C 0.80599 1.14073 -0.27551
 C66 C 0.83244 1.14553 -0.28315
 C67 C 0.84269 1.16773 -0.26605
 H68 H 0.79145 1.12453 -0.28345
 H69 H 0.86259 1.17810 -0.26586
 N70 N 0.74002 1.16735 -0.20839
 N71 N 0.73953 1.18947 -0.19190
 C72 C 0.71832 1.18660 -0.17586
 C73 C 0.70475 1.16134 -0.18239
 C74 C 0.71911 1.14977 -0.20323
 H75 H 0.71406 1.20119 -0.15952
 H76 H 0.71538 1.12955 -0.21309
 H77 H 0.78751 1.18351 -0.19849
 H78 H 0.77590 1.20334 -0.22879
 N79 N 0.19060 0.74947 -0.17279
 N80 N 0.17040 0.75053 -0.19139
 C81 C 0.14977 0.73322 -0.18485
 C82 C 0.15747 0.72072 -0.16073
 C83 C 0.18357 0.73155 -0.15381
 H84 H 0.13038 0.73056 -0.19636
 H85 H 0.19650 0.72700 -0.13611
 Cu86 Cu 0.17264 0.77530 -0.22162
 Cu87 Cu 0.22394 0.77248 -0.17334
 Cu88 Cu 0.22491 0.82290 -0.22098
 N89 N 0.17177 0.80640 -0.24518
 N90 N 0.19214 0.82490 -0.24475
 C91 C 0.18603 0.84435 -0.26238
 C92 C 0.16029 0.83782 -0.27472
 C93 C 0.15196 0.81341 -0.26317
 H94 H 0.19945 0.86196 -0.26570
 H95 H 0.13282 0.80172 -0.26708
 N96 N 0.25603 0.81736 -0.19511
 N97 N 0.25568 0.79791 -0.17713
 C98 C 0.27888 0.80041 -0.16114
 C99 C 0.29468 0.82265 -0.16926
 C100 C 0.27951 0.83278 -0.19101
 H101 H 0.28342 0.78759 -0.14412
 H102 H 0.28456 0.85088 -0.20210
 H103 H 0.20391 0.80401 -0.19067
 H104 H 0.22188 0.78145 -0.21485
 C105 C 0.48444 1.03149 0.02899
 C106 C 0.50670 1.01664 0.04457
 C107 C 0.52190 1.00154 0.02772
 C108 C 0.51372 1.00288 -0.00333
 C109 C 0.49996 1.04845 0.00840
 C110 C 0.51539 1.03372 -0.00850
 C111 C 0.46833 1.00888 0.01115
 C112 C 0.48344 0.99395 -0.00570
 H113 H 0.51055 1.01792 0.06678
 H114 H 0.52608 0.99054 -0.01694
 H115 H 0.49903 1.07043 0.00779
 H116 H 0.44665 1.00487 0.01204
 C117 C 0.01856 0.47910 1.02217
 C118 C 0.03488 0.50155 1.00789
 C119 C 0.01952 0.51732 0.99159
 C120 C -0.01105 0.50948 0.99133
 C121 C -0.00185 0.49506 1.03812
 C122 C -0.01727 0.51114 1.02218
 C123 C 0.00170 0.46321 0.99870
 C124 C -0.01375 0.47887 0.98260
 H125 H 0.05665 0.50497 1.01079
 H126 H -0.02354 0.52228 0.97803
 H127 H -0.00268 0.49510 1.06040
 H128 H 0.00198 0.44122 0.99517
 C129 C 1.02192 0.02120 0.48468
 C130 C 0.99964 0.03453 0.50057
 C131 C 0.98503 0.01679 0.51572
 C132 C 0.99371 -0.01272 0.51361
 C133 C 1.03870 0.00774 0.50734
 C134 C 1.02411 -0.01017 0.52238
 C135 C 1.00717 -0.00275 0.46752
 C136 C 0.99236 -0.02039 0.48246
 H137 H 0.99769 0.05636 0.50282
 H138 H 0.98144 -0.02704 0.52579
 H139 H 1.06036 0.01190 0.51085
 H140 H 1.00752 -0.00485 0.44515
 C141 C 0.12423 0.34477 1.12721
 C142 C 0.11433 0.33363 1.15118
 C143 C 0.12807 0.31364 1.16486
 C144 C 0.15216 0.30410 1.15491
 C145 C 0.16220 0.31567 1.13104
 C146 C 0.14843 0.33569 1.11742
 C147 C 0.10919 0.36541 1.11228
 N148 N 0.11883 0.37647 1.08924
 N149 N 0.10505 0.39463 1.07555
 C150 C 0.08102 0.40249 1.08430
 N151 N 0.07143 0.39150 1.10739
 N152 N 0.08522 0.37336 1.12109
 C153 C 0.06542 0.42235 1.06884
 C154 C 0.03994 0.42931 1.07720
 C155 C 0.02500 0.44766 1.06241
 C156 C 0.03540 0.46018 1.03924
 C157 C 0.06054 0.45242 1.03040
 C158 C 0.07548 0.43402 1.04517
 H159 H 0.09578 0.34021 1.15939
 H160 H 0.11943 0.30569 1.18312
 H161 H 0.18063 0.30933 1.12251
 H162 H 0.15670 0.34388 1.09904
 H163 H 0.03128 0.42026 1.09497
 H164 H 0.00502 0.45149 1.06896
 H165 H 0.06859 0.46021 1.01176
 H166 H 0.09480 0.42872 1.03780
 C167 C -0.13214 0.64910 1.10749
 C168 C -0.12829 0.65521 1.13615
 C169 C -0.14117 0.67658 1.14870
 C170 C -0.15828 0.69253 1.13297
 C171 C -0.16297 0.68591 1.10444
 C172 C -0.14999 0.66441 1.09180
 C173 C -0.11667 0.62758 1.09429
 N174 N -0.12094 0.61990 1.06695
 N175 N -0.10613 0.60120 1.05525
 C176 C -0.08637 0.58954 1.07040
 N177 N -0.08228 0.59716 1.09770
 N178 N -0.09709 0.61572 1.10937
 C179 C -0.06906 0.56941 1.05765
 C180 C -0.04568 0.56197 1.07246
 C181 C -0.02900 0.54323 1.06090
 C182 C -0.03534 0.53105 1.03427
 C183 C -0.05863 0.53856 1.01928
 C184 C -0.07532 0.55760 1.03084
 H185 H -0.11496 0.64370 1.14900
 H186 H -0.13749 0.68065 1.17080
 H187 H -0.17602 0.69779 1.09171
 H188 H -0.15347 0.66021 1.06968
 H189 H -0.03997 0.57091 1.09299
 H190 H -0.01080 0.53875 1.07278
 H191 H -0.06418 0.52953 0.99878
 H192 H -0.09320 0.56289 1.01888
 C193 C -0.13022 0.35663 0.85255
 C194 C -0.15624 0.34849 0.86050
 C195 C -0.17020 0.32486 0.84836
 C196 C -0.15848 0.30883 0.82795
 C197 C -0.13299 0.31773 0.81915
 C198 C -0.11903 0.34127 0.83132
 C199 C -0.11398 0.37969 0.86757
 N200 N -0.08729 0.38418 0.86317
 N201 N -0.07192 0.40311 0.87839
 C202 C -0.08256 0.41848 0.89862
 N203 N -0.10940 0.41445 0.90264
 N204 N -0.12478 0.39543 0.88745
 C205 C -0.06469 0.43710 0.91764
 C206 C -0.07549 0.45602 0.93608
 C207 C -0.05864 0.47099 0.95633
 C208 C -0.03089 0.46686 0.95871
 C209 C -0.01992 0.44896 0.93956
 C210 C -0.03659 0.43441 0.91908
 H211 H -0.16550 0.35986 0.87676
 H212 H -0.18981 0.31881 0.85566
 H213 H -0.12344 0.30632 0.80317
 H214 H -0.09915 0.34706 0.82445
 H215 H -0.09704 0.45865 0.93540
 H216 H -0.06746 0.48463 0.97103
 H217 H 0.00151 0.44565 0.94097
 H218 H -0.02755 0.42009 0.90523
 C219 C 0.11116 0.66275 0.88529
 C220 C 0.10277 0.66790 0.85786
 C221 C 0.11764 0.68684 0.84290
 C222 C 0.14126 0.70093 0.85501
 C223 C 0.14945 0.69588 0.88249
 C224 C 0.13461 0.67709 0.89741
 C225 C 0.09601 0.64233 0.90125
 N226 N 0.10437 0.63787 0.92777
 N227 N 0.09137 0.61916 0.94209
 C228 C 0.06938 0.60403 0.93056
 N229 N 0.06087 0.60855 0.90405
 N230 N 0.07390 0.62732 0.88969
 C231 C 0.05564 0.58258 0.94646
 C232 C 0.03294 0.56654 0.93485
 C233 C 0.02086 0.54562 0.94969
 C234 C 0.03135 0.54026 0.97633
 C235 C 0.05367 0.55663 0.98812
 C236 C 0.06565 0.57753 0.97340
 H237 H 0.08480 0.65721 0.84788
 H238 H 0.11080 0.69012 0.82175
 H239 H 0.16727 0.70656 0.89272
 H240 H 0.14168 0.67377 0.91850
 H241 H 0.02470 0.56988 0.91417
 H242 H 0.00381 0.53317 0.94002
 H243 H 0.06188 0.55335 1.00883
 H244 H 0.08297 0.58955 0.98311
 C245 C 1.12840 0.12915 0.35147
 C246 C 1.15225 0.11940 0.34150
 C247 C 1.16559 0.13274 0.32072
 C248 C 1.15539 0.15623 0.30919
 C249 C 1.13172 0.16621 0.31970
 C250 C 1.11846 0.15287 0.34051
 C251 C 1.11363 0.11433 0.37267
 N252 N 1.09077 0.12394 0.38264
 N253 N 1.07704 0.11019 0.40105
 C254 C 1.08558 0.08621 0.41026
 N255 N 1.10853 0.07668 0.40041
 N256 N 1.12226 0.09045 0.38203
 C257 C 1.06983 0.07041 0.43005
 C258 C 1.07766 0.04467 0.43790
 C259 C 1.06228 0.02931 0.45570
 C260 C 1.03889 0.03939 0.46661
 C261 C 1.03095 0.06511 0.45848
 C262 C 1.04633 0.08046 0.44059
 H263 H 1.16057 0.10124 0.34956
 H264 H 1.18373 0.12421 0.31367
 H265 H 1.12303 0.18424 0.31190
 H266 H 1.10017 0.16103 0.34776
 H267 H 1.09546 0.03610 0.42995
 H268 H 1.06852 0.00923 0.46070
 H269 H 1.01255 0.07334 0.46510
 H270 H 1.03950 0.10007 0.43470
 C271 C 1.11704 -0.11672 0.66663
 C272 C 1.14273 -0.10699 0.67791
 C273 C 1.15696 -0.12197 0.69709
 C274 C 1.14587 -0.14716 0.70575
 C275 C 1.12002 -0.15682 0.69440
 C276 C 1.10586 -0.14183 0.67507
 C277 C 1.10221 -0.10071 0.64612
 N278 N 1.07871 -0.11109 0.63275
 N279 N 1.06571 -0.09671 0.61406
 C280 C 1.07563 -0.07132 0.60801
 N281 N 1.09905 -0.06094 0.62148
 N282 N 1.11206 -0.07531 0.64010
 C283 C 1.06163 -0.05541 0.58682
 C284 C 1.07116 -0.02845 0.58224
 C285 C 1.05874 -0.01368 0.56163
 C286 C 1.03654 -0.02550 0.54501
 C287 C 1.02664 -0.05224 0.54988
 C288 C 1.03904 -0.06705 0.57058
 H289 H 1.15204 -0.08775 0.67186
 H290 H 1.17663 -0.11343 0.70504
 H291 H 1.11051 -0.17601 0.70019
 H292 H 1.08608 -0.14993 0.66680
 H293 H 1.08833 -0.01872 0.59450
 H294 H 1.06651 0.00709 0.55883
 H295 H 1.00976 -0.06203 0.53722
 H296 H 1.03120 -0.08777 0.57352
 C297 C 0.87428 -0.14533 0.35602
 C298 C 0.84903 -0.13611 0.34744
 C299 C 0.83486 -0.14754 0.32343
 C300 C 0.84554 -0.16860 0.30735
 C301 C 0.87017 -0.17875 0.31701
 C302 C 0.88436 -0.16718 0.34087
 C303 C 0.89100 -0.13104 0.37930
 N304 N 0.91774 -0.13532 0.38286
 N305 N 0.93352 -0.12074 0.40203
 C306 C 0.92321 -0.10135 0.41860
 N307 N 0.89633 -0.09744 0.41547
 N308 N 0.88056 -0.11195 0.39617
 C309 C 0.94139 -0.08313 0.43765
 C310 C 0.93102 -0.06690 0.45881
 C311 C 0.94799 -0.04746 0.47460
 C312 C 0.97540 -0.04360 0.46907
 C313 C 0.98599 -0.06052 0.44875
 C314 C 0.96922 -0.08027 0.43338
 H315 H 0.84060 -0.11938 0.35873
 H316 H 0.81583 -0.13926 0.31734
 H317 H 0.87920 -0.19515 0.30590
 H318 H 0.90361 -0.17503 0.34708
 H319 H 0.90969 -0.06874 0.46267
 H320 H 0.93944 -0.03449 0.49012
 H321 H 1.00715 -0.05796 0.44431
 H322 H 0.97788 -0.09241 0.41727
 C323 C 0.87384 0.10151 0.65663
 C324 C 0.84564 0.09763 0.65751
 C325 C 0.83195 0.11182 0.67760
 C326 C 0.84611 0.13090 0.69674
 C327 C 0.87440 0.13493 0.69535
 C328 C 0.88809 0.12013 0.67583
 C329 C 0.88854 0.08642 0.63577
 N330 N 0.91407 0.07912 0.64196
 N331 N 0.92777 0.06624 0.62298
 C332 C 0.91660 0.06043 0.59696
 N333 N 0.89105 0.06772 0.59073
 N334 N 0.87720 0.08031 0.60984
 C335 C 0.93250 0.04750 0.57565
 C336 C 0.92908 0.05416 0.54778
 C337 C 0.94594 0.04387 0.52810
 C338 C 0.96593 0.02617 0.53586
 C339 C 0.96863 0.01862 0.56345
 C340 C 0.95229 0.02948 0.58327
 H341 H 0.83423 0.08331 0.64290
 H342 H 0.81021 0.10814 0.67760
 H343 H 0.88634 0.14902 0.70969
 H344 H 0.90986 0.12357 0.67548
 H345 H 0.91407 0.06813 0.54143
 H346 H 0.94355 0.04988 0.50687
 H347 H 0.98407 0.00515 0.56990
 H348 H 0.95525 0.02396 0.60461
 C349 C 0.34885 1.13426 0.13159
 C350 C 0.34318 1.12846 0.15895
 C351 C 0.32245 1.14110 0.17203
 C352 C 0.30697 1.15990 0.15811
 C353 C 0.31294 1.16597 0.13090
 C354 C 0.33357 1.15329 0.11780
 C355 C 0.37012 1.12017 0.11722
 N356 N 0.37395 1.12417 0.09008
 N357 N 0.39252 1.11103 0.07688
 C358 C 0.40812 1.09334 0.09023
 N359 N 0.40441 1.08945 0.11744
 N360 N 0.38579 1.10257 0.13064
 C361 C 0.42825 1.07819 0.07521
 C362 C 0.44556 1.06108 0.08922
 C363 C 0.46401 1.04623 0.07484
 C364 C 0.46579 1.04830 0.04601
 C365 C 0.44813 1.06524 0.03210
 C366 C 0.42982 1.08014 0.04647
 H367 H 0.35458 1.11394 0.17021
 H368 H 0.31864 1.13610 0.19308
 H369 H 0.30138 1.18015 0.11939
 H370 H 0.33737 1.15829 0.09673
 H371 H 0.44468 1.05887 0.11133
 H372 H 0.47614 1.03276 0.08653
 H373 H 0.44830 1.06674 0.00983
 H374 H 0.41660 1.09286 0.03491
 C375 C 0.64156 1.12318 -0.13661
 C376 C 0.64847 1.15143 -0.13304
 C377 C 0.66839 1.16387 -0.14844
 C378 C 0.68205 1.14840 -0.16775
 C379 C 0.67453 1.12028 -0.17197
 C380 C 0.65451 1.10782 -0.15659
 C381 C 0.62171 1.10982 -0.11883
 N382 N 0.61352 1.08288 -0.12303
 N383 N 0.59641 1.07082 -0.10632
 C384 C 0.58688 1.08518 -0.08466
 N385 N 0.59498 1.11212 -0.08058
 N386 N 0.61200 1.12417 -0.09730
 C387 C 0.56845 1.07182 -0.06546
 C388 C 0.56218 1.08590 -0.04094
 C389 C 0.54511 1.07350 -0.02255
 C390 C 0.53358 1.04674 -0.02826
 C391 C 0.53991 1.03257 -0.05272
 C392 C 0.55718 1.04496 -0.07112
 H393 H 0.63873 1.16398 -0.11806
 H394 H 0.67319 1.18562 -0.14488
 H395 H 0.68450 1.10762 -0.18662
 H396 H 0.64964 1.08603 -0.15993
 H397 H 0.57072 1.10648 -0.03571
 H398 H 0.54140 1.08485 -0.00358
 H399 H 0.53132 1.01204 -0.05793
 H400 H 0.56157 1.03353 -0.08985
 C401 C 0.36617 0.86207 -0.12611
 C402 C 0.35789 0.86980 -0.15275
 C403 C 0.33520 0.85646 -0.16717
 C404 C 0.32030 0.83505 -0.15531
 C405 C 0.32939 0.82655 -0.12921
 C406 C 0.35198 0.83990 -0.11480
 C407 C 0.38811 0.87812 -0.10932
 N408 N 0.39246 0.87369 -0.08197
 N409 N 0.41039 0.88959 -0.06610
 C410 C 0.42488 0.91057 -0.07689
 N411 N 0.42099 0.91470 -0.10438
 N412 N 0.40294 0.89883 -0.12026
 C413 C 0.44258 0.92995 -0.05851
 C414 C 0.46097 0.94907 -0.06945
 C415 C 0.47542 0.96918 -0.05205
 C416 C 0.47132 0.97073 -0.02359
 C417 C 0.45379 0.95107 -0.01251
 C418 C 0.43973 0.93075 -0.02973
 H419 H 0.36842 0.88671 -0.16215
 H420 H 0.32910 0.86334 -0.18737
 H421 H 0.31864 0.81016 -0.11931
 H422 H 0.35788 0.83325 -0.09442
 H423 H 0.46368 0.94891 -0.09151
 H424 H 0.48875 0.98428 -0.06099
 H425 H 0.45052 0.95181 0.00946
 H426 H 0.42578 0.91637 -0.02057
 C427 C 0.66452 0.88903 0.10998
 C428 C 0.66962 0.86311 0.09847
 C429 C 0.68882 0.84730 0.11131
 C430 C 0.70330 0.85701 0.13599
 C431 C 0.69816 0.88293 0.14743
 C432 C 0.67907 0.89872 0.13460
 C433 C 0.64412 0.90594 0.09667
 N434 N 0.63985 0.93115 0.10775
 N435 N 0.62138 0.94634 0.09616
 C436 C 0.60634 0.93702 0.07295
 N437 N 0.61065 0.91182 0.06176
 N438 N 0.62916 0.89660 0.07337
 C439 C 0.58536 0.95386 0.06057
 C440 C 0.56908 0.94415 0.03700
 C441 C 0.54872 0.95982 0.02607
 C442 C 0.54419 0.98545 0.03853
 C443 C 0.56075 0.99535 0.06177
 C444 C 0.58108 0.97977 0.07265
 H445 H 0.65876 0.85499 0.07954
 H446 H 0.69209 0.82739 0.10197
 H447 H 0.70904 0.89133 0.16620
 H448 H 0.67574 0.91858 0.14408
 H449 H 0.57180 0.92430 0.02717
 H450 H 0.53608 0.95153 0.00832
 H451 H 0.55809 1.01525 0.07153
 H452 H 0.59332 0.98801 0.09070
   
