data_POSCAR
  _audit_creation_date              2014-09-24
  _audit_creation_method            'ToBaCCo'
  _symmetry_space_group_name_H-M    'P1'
  _symmetry_Int_Tables_number       1
  _symmetry_cell_setting            triclinic
  loop_
  _symmetry_equiv_pos_as_xyz
 x,y,z
_cell_length_a 33.5689
_cell_length_b 33.4641
_cell_length_c 33.3488
_cell_angle_alpha 90.099700
_cell_angle_beta 90.207200
_cell_angle_gamma 89.959600
loop_
  _atom_site_label
  _atom_site_type_symbol
  _atom_site_fract_x
  _atom_site_fract_y
  _atom_site_fract_z
C1 C 0.16334 0.19325 0.22242
 C2 C 0.16256 0.22171 0.19163
 C3 C 0.19021 0.21982 0.16103
 C4 C 0.21938 0.18983 0.16114
 C5 C 0.22035 0.16197 0.19167
 C6 C 0.19182 0.16342 0.22233
 C7 C 0.14124 0.18884 0.25676
 N8 N 0.15591 0.15741 0.27813
 C9 C 0.18646 0.14130 0.25665
 C10 C 0.25380 0.13886 0.18601
 N11 N 0.27385 0.15264 0.15336
 C12 C 0.25215 0.18316 0.13741
 C13 C 0.18383 0.25233 0.13664
 N14 N 0.15369 0.27443 0.15231
 C15 C 0.14011 0.25561 0.18561
 H16 H 0.11561 0.20671 0.26494
 H17 H 0.20459 0.11618 0.26601
 H18 H 0.26277 0.11379 0.20444
 H19 H 0.26085 0.20101 0.11184
 H20 H 0.20035 0.25980 0.10986
 H21 H 0.11634 0.26644 0.20462
 C22 C -0.15650 0.81954 0.20984
 C23 C -0.15874 0.78692 0.18345
 C24 C -0.18700 0.78663 0.15318
 C25 C -0.21363 0.81860 0.14916
 C26 C -0.21189 0.85042 0.17553
 C27 C -0.18330 0.85077 0.20633
 C28 C -0.13120 0.82864 0.24106
 N29 N -0.14177 0.86479 0.25654
 C30 C -0.17434 0.87798 0.23604
 C31 C -0.24125 0.87691 0.16436
 N32 N -0.26054 0.86223 0.13145
 C33 C -0.24411 0.82607 0.12262
 C34 C -0.18212 0.75178 0.13189
 N35 N -0.15233 0.73033 0.14919
 C36 C -0.13738 0.75191 0.18033
 H37 H -0.10732 0.80989 0.25222
 H38 H -0.18950 0.90606 0.24134
 H39 H -0.24897 0.90409 0.18020
 H40 H -0.25301 0.80684 0.09802
 H41 H -0.19890 0.74269 0.10563
 H42 H -0.11293 0.74264 0.19943
 C43 C -0.14759 0.17190 -0.20476
 C44 C -0.15020 0.20532 -0.17947
 C45 C -0.18098 0.20823 -0.15212
 C46 C -0.20918 0.17748 -0.14929
 C47 C -0.20642 0.14444 -0.17405
 C48 C -0.17585 0.14199 -0.20249
 C49 C -0.12196 0.16194 -0.23526
 N50 N -0.13390 0.12661 -0.25171
 C51 C -0.16732 0.11463 -0.23210
 C52 C -0.23725 0.11926 -0.16432
 N53 N -0.25851 0.13593 -0.13387
 C54 C -0.24199 0.17212 -0.12530
 C55 C -0.17663 0.24408 -0.13233
 N56 N -0.14425 0.26311 -0.14732
 C57 C -0.12749 0.23936 -0.17571
 H58 H -0.09772 0.18026 -0.24613
 H59 H -0.18417 0.08783 -0.23876
 H60 H -0.24431 0.09132 -0.17917
 H61 H -0.25233 0.19257 -0.10239
 H62 H -0.19577 0.25574 -0.10901
 H63 H -0.10085 0.24649 -0.19244
 C64 C 0.14478 0.82570 -0.20637
 C65 C 0.14212 0.79933 -0.17391
 C66 C 0.16836 0.80273 -0.14198
 C67 C 0.19745 0.83286 -0.14204
 C68 C 0.19968 0.85920 -0.17383
 C69 C 0.17345 0.85527 -0.20645
 C70 C 0.12455 0.82801 -0.24221
 N71 N 0.14093 0.85759 -0.26475
 C72 C 0.17031 0.87499 -0.24248
 C73 C 0.23139 0.88424 -0.16653
 N74 N 0.24838 0.87416 -0.13079
 C75 C 0.22809 0.84212 -0.11612
 C76 C 0.16006 0.77197 -0.11591
 N77 N 0.12920 0.75047 -0.13111
 C78 C 0.11838 0.76666 -0.16681
 H79 H 0.10081 0.80829 -0.25186
 H80 H 0.18778 0.90064 -0.25144
 H81 H 0.24255 0.90670 -0.18694
 H82 H 0.23487 0.82675 -0.08838
 H83 H 0.17567 0.76526 -0.08825
 H84 H 0.09557 0.75483 -0.18657
 C85 C 0.16801 1.14260 0.80055
 C86 C 0.20009 1.14587 0.82734
 C87 C 0.20117 1.17675 0.85496
 C88 C 0.16986 1.20451 0.85642
 C89 C 0.13831 1.20134 0.82991
 C90 C 0.13761 1.17041 0.80147
 C91 C 0.16036 1.11706 0.76912
 N92 N 0.12578 1.12842 0.75096
 C93 C 0.11210 1.16152 0.77037
 C94 C 0.11303 1.23282 0.83740
 N95 N 0.12790 1.25473 0.86852
 C96 C 0.16326 1.23789 0.87956
 C97 C 0.23675 1.17380 0.87541
 N98 N 0.25732 1.14219 0.86048
 C99 C 0.23482 1.12446 0.83160
 H100 H 0.17993 1.09350 0.75875
 H101 H 0.08547 1.17805 0.76245
 H102 H 0.08665 1.24014 0.82013
 H103 H 0.18255 1.24859 0.90334
 H104 H 0.24745 1.19373 0.89868
 H105 H 0.24355 1.09842 0.81443
 C106 C 0.81068 0.84025 0.77900
 C107 C 0.78129 0.84116 0.80876
 C108 C 0.78517 0.81749 0.84256
 C109 C 0.81852 0.79246 0.84695
 C110 C 0.84728 0.79155 0.81745
 C111 C 0.84343 0.81569 0.78335
 C112 C 0.81414 0.85904 0.74253
 N113 N 0.84787 0.84591 0.72404
 C114 C 0.86623 0.81983 0.74944
 C115 C 0.87434 0.76252 0.82780
 N116 N 0.86318 0.74569 0.86319
 C117 C 0.82869 0.76383 0.87483
 C118 C 0.75159 0.82338 0.86543
 N119 N 0.72711 0.84927 0.84584
 C120 C 0.74531 0.86067 0.81142
 H121 H 0.79408 0.88169 0.73106
 H122 H 0.89360 0.80387 0.74324
 H123 H 0.90012 0.75398 0.81034
 H124 H 0.81049 0.75484 0.90000
 H125 H 0.74523 0.80966 0.89408
 H126 H 0.73288 0.88114 0.78959
 C127 C 0.19306 0.83544 1.22282
 C128 C 0.22072 0.83746 1.19152
 C129 C 0.21729 0.81194 1.15898
 C130 C 0.18609 0.78419 1.15729
 C131 C 0.15878 0.78228 1.18821
 C132 C 0.16245 0.80799 1.22123
 C133 C 0.18936 0.85612 1.25825
 N134 N 0.15767 0.84136 1.27893
 C135 C 0.14081 0.81219 1.25586
 C136 C 0.13263 0.75188 1.17930
 N137 N 0.14343 0.73556 1.14369
 C138 C 0.17629 0.75475 1.13016
 C139 C 0.24903 0.81933 1.13415
 N140 N 0.27196 0.84810 1.15130
 C141 C 0.25463 0.85981 1.18608
 H142 H 0.20746 0.88139 1.26720
 H143 H 0.11513 0.79443 1.26394
 H144 H 0.10811 0.74172 1.19765
 H145 H 0.19211 0.74738 1.10289
 H146 H 0.25547 0.80444 1.10606
 H147 H 0.26646 0.88220 1.20633
 C148 C 0.82045 1.15021 1.20802
 C149 C 0.79371 1.14653 1.17582
 C150 C 0.79519 1.17338 1.14436
 C151 C 0.82377 1.20388 1.14440
 C152 C 0.85048 1.20718 1.17596
 C153 C 0.84851 1.18037 1.20817
 C154 C 0.82449 1.12974 1.24352
 N155 N 0.85370 1.14731 1.26588
 C156 C 0.86910 1.17781 1.24381
 C157 C 0.87397 1.24003 1.16859
 N158 N 0.86226 1.25637 1.13324
 C159 C 0.83133 1.23483 1.11840
 C160 C 0.76438 1.16418 1.11868
 N161 N 0.74472 1.13195 1.13340
 C162 C 0.76219 1.12124 1.16857
 H163 H 0.80622 1.10487 1.25305
 H164 H 0.89411 1.19635 1.25252
 H165 H 0.89740 1.25165 1.18771
 H166 H 0.81545 1.24145 1.09089
 H167 H 0.75607 1.18043 1.09187
 H168 H 0.75206 1.09736 1.18788
 N169 N 0.54030 1.07193 0.95461
 N170 N 0.57299 1.09370 0.95276
 N171 N 0.45658 1.04575 0.92687
 N172 N 0.42631 1.05147 0.90222
 N173 N 0.45647 1.07262 0.95559
 N174 N 0.42595 1.09718 0.95146
 N175 N 0.54050 1.04409 0.92676
 N176 N 0.57354 1.04603 0.90546
 C177 C 0.59338 1.07726 0.92200
 C178 C 0.40767 1.08382 0.91776
 N179 N 0.45429 0.93191 0.95363
 N180 N 0.42009 0.91244 0.95293
 N181 N 0.53863 0.95788 0.92471
 N182 N 0.56668 0.95074 0.89794
 N183 N 0.53828 0.92983 0.95211
 N184 N 0.56609 0.90293 0.94483
 N185 N 0.45470 0.95974 0.92586
 N186 N 0.42089 0.95963 0.90551
 Mn187 Mn 0.49769 1.00189 0.92552
 C188 C 0.39949 0.93003 0.92273
 C189 C 0.58340 0.91612 0.91075
 N190 N 0.45765 1.07156 1.04204
 N191 N 0.42911 1.09772 1.04942
 N192 N 0.54162 1.04267 1.06825
 N193 N 0.57423 1.04478 1.09038
 N194 N 0.54163 1.07060 1.04065
 N195 N 0.57445 1.09218 1.04297
 N196 N 0.45792 1.04337 1.06936
 N197 N 0.42957 1.04948 1.09596
 Mn198 Mn 0.49891 1.07218 0.99821
 C199 C 0.41202 1.08368 1.08335
 C200 C 0.59437 1.07575 1.07419
 N201 N 0.54033 0.92929 1.03829
 N202 N 0.57324 0.90767 1.03928
 N203 N 0.45717 0.95753 1.06805
 N204 N 0.42883 0.95098 1.09456
 N205 N 0.45655 0.93012 1.03989
 N206 N 0.42792 0.90401 1.04652
 N207 N 0.54102 0.95669 1.06656
 N208 N 0.57436 0.95438 1.08748
 Mn209 Mn 0.49734 0.92980 0.99595
 Mn210 Mn 0.49940 1.00004 1.06853
 Cl211 Cl 0.49833 1.00098 0.99704
 C212 C 0.59417 0.92373 1.07012
 C213 C 0.41101 0.91735 1.08079
 N214 N -0.04552 0.46064 -0.07529
 N215 N -0.05038 0.43093 -0.10091
 N216 N -0.07355 0.54373 -0.04476
 N217 N -0.09512 0.57673 -0.04564
 N218 N -0.04598 0.54466 -0.07260
 N219 N -0.04819 0.57825 -0.09313
 N220 N -0.07280 0.45944 -0.04723
 N221 N -0.09682 0.42870 -0.05284
 C222 C -0.08270 0.41147 -0.08668
 C223 C -0.07888 0.59806 -0.07591
 N224 N -0.04565 0.54106 0.06893
 N225 N -0.05204 0.56962 0.09549
 N226 N -0.07238 0.45726 0.03907
 N227 N -0.09458 0.42480 0.04125
 N228 N -0.04431 0.45674 0.06663
 N229 N -0.04638 0.42364 0.08801
 N230 N -0.07364 0.54107 0.04138
 N231 N -0.09995 0.56949 0.04850
 Mn232 Mn -0.07359 0.50034 -0.00294
 C233 C -0.08621 0.58689 0.08249
 C234 C -0.07798 0.40419 0.07190
 N235 N 0.03968 0.54519 -0.07277
 N236 N 0.04111 0.57895 -0.09314
 N237 N 0.06789 0.46010 -0.04711
 N238 N 0.08836 0.42646 -0.04878
 N239 N 0.04018 0.46071 -0.07503
 N240 N 0.04118 0.42746 -0.09639
 N241 N 0.06768 0.54443 -0.04520
 N242 N 0.08896 0.57758 -0.04619
 Mn243 Mn -0.00285 0.50282 -0.07447
 C244 C 0.07203 0.59879 -0.07624
 C245 C 0.07144 0.40643 -0.07972
 N246 N 0.04136 0.45818 0.06711
 N247 N 0.04887 0.42986 0.09357
 N248 N 0.06818 0.54247 0.04089
 N249 N 0.09149 0.57392 0.04508
 N250 N 0.04019 0.54242 0.06833
 N251 N 0.04344 0.57417 0.09169
 N252 N 0.06886 0.45874 0.03925
 N253 N 0.09596 0.43096 0.04612
 Mn254 Mn -0.00212 0.49963 0.06827
 Mn255 Mn 0.06863 0.50137 -0.00316
 Cl256 Cl -0.00250 0.50102 -0.00302
 C257 C 0.08312 0.41326 0.08019
 C258 C 0.07564 0.59339 0.07677
 N259 N 1.04138 0.07013 0.54454
 N260 N 1.04325 0.09038 0.57847
 N261 N 1.06947 0.04558 0.45938
 N262 N 1.09595 0.05334 0.43131
 N263 N 1.04181 0.07332 0.46017
 N264 N 1.04867 0.10061 0.43249
 N265 N 1.06907 0.04245 0.54362
 N266 N 1.09044 0.04314 0.57690
 C267 C 1.07389 0.07310 0.59846
 C268 C 1.08275 0.08791 0.41489
 N269 N 1.04232 -0.06867 0.45573
 N270 N 1.05124 -0.09634 0.42904
 N271 N 1.06920 -0.04323 0.54048
 N272 N 1.09435 -0.04937 0.57026
 N273 N 1.04157 -0.07096 0.53979
 N274 N 1.04728 -0.09681 0.56916
 N275 N 1.06974 -0.04071 0.45644
 N276 N 1.09796 -0.04864 0.43012
 Mn277 Mn 1.06978 0.00108 0.49988
 C278 C 1.08604 -0.08352 0.41328
 C279 C 1.08064 -0.08310 0.58767
 N280 N 0.95597 0.07325 0.45964
 N281 N 0.95064 0.09930 0.43042
 N282 N 0.92806 0.04197 0.54298
 N283 N 0.90736 0.04170 0.57659
 N284 N 0.95561 0.06982 0.54423
 N285 N 0.95421 0.08922 0.57872
 N286 N 0.92828 0.04562 0.45853
 N287 N 0.90328 0.05219 0.42864
 Mn288 Mn 0.99865 0.07216 0.50210
 C289 C 0.91735 0.08603 0.41159
 C290 C 0.92400 0.07136 0.59863
 N291 N 0.95562 -0.07127 0.53861
 N292 N 0.94912 -0.09817 0.56675
 N293 N 0.92878 -0.04031 0.45469
 N294 N 0.90704 -0.04164 0.42165
 N295 N 0.95642 -0.06812 0.45408
 N296 N 0.95417 -0.08905 0.42055
 N297 N 0.92775 -0.04378 0.53900
 N298 N 0.90148 -0.05121 0.56736
 Mn299 Mn 0.99890 -0.07022 0.49709
 Mn300 Mn 0.92774 0.00090 0.49877
 Cl301 Cl 0.99880 0.00096 0.49939
 C302 C 0.91507 -0.08538 0.58425
 C303 C 0.92329 -0.07213 0.40053
 C304 C 1.12104 0.08440 0.35211
 C305 C 1.13977 0.10109 0.31901
 C306 C 1.14108 0.14269 0.31343
 C307 C 1.12619 0.16783 0.34459
 C308 C 1.10668 0.15066 0.37833
 C309 C 1.10315 0.10845 0.38133
 C310 C 1.09352 0.17644 0.40903
 N311 N 1.09996 0.21629 0.40640
 N312 N 1.11941 0.23217 0.37564
 C313 C 1.13325 0.20936 0.34513
 H314 H 1.11950 0.05213 0.35424
 H315 H 1.15127 0.08100 0.29635
 H316 H 1.07943 0.16557 0.43584
 H317 H 1.15113 0.22393 0.32268
 C318 C 0.86750 -0.08428 0.35357
 C319 C 0.85134 -0.09908 0.31802
 C320 C 0.87568 -0.11647 0.28858
 C321 C 0.91778 -0.11426 0.29343
 C322 C 0.93427 -0.09841 0.32946
 C323 C 0.90864 -0.08528 0.36061
 C324 C 0.97592 -0.09405 0.33197
 N325 N 0.99923 -0.10487 0.30068
 N326 N 0.98383 -0.11932 0.26686
 C327 C 0.94404 -0.12400 0.26200
 H328 H 0.84743 -0.07322 0.37642
 H329 H 0.81923 -0.09941 0.31473
 H330 H 0.99030 -0.08073 0.35768
 H331 H 0.93348 -0.13355 0.23293
 C332 C 0.87049 0.08096 0.64834
 C333 C 0.85608 0.09373 0.68531
 C334 C 0.88191 0.10896 0.71488
 C335 C 0.92373 0.10650 0.70833
 C336 C 0.93841 0.09270 0.67082
 C337 C 0.91127 0.08195 0.63985
 C338 C 0.97984 0.08795 0.66650
 N339 N 1.00466 0.09673 0.69738
 N340 N 0.99098 0.10937 0.73256
 C341 C 0.95148 0.11410 0.73924
 H342 H 0.84931 0.07166 0.62558
 H343 H 0.82414 0.09440 0.68962
 H344 H 0.99279 0.07574 0.63965
 H345 H 0.94229 0.12206 0.76919
 C346 C 1.07292 -0.11708 0.65269
 C347 C 1.08752 -0.13192 0.68880
 C348 C 1.12850 -0.13132 0.69769
 C349 C 1.15547 -0.11896 0.66716
 C350 C 1.14043 -0.10356 0.63033
 C351 C 1.09864 -0.10148 0.62380
 C352 C 1.16795 -0.09289 0.60037
 N353 N 1.20752 -0.09778 0.60671
 N354 N 1.22153 -0.11339 0.64057
 C355 C 1.19696 -0.12471 0.67061
 H356 H 1.04096 -0.11642 0.64798
 H357 H 1.06619 -0.14171 0.71098
 H358 H 1.15870 -0.08216 0.57134
 H359 H 1.21026 -0.13969 0.69594
 C360 C 0.34777 1.11919 1.07962
 C361 C 0.31410 1.13651 1.09655
 C362 C 0.30912 1.13839 1.13836
 C363 C 0.34121 1.12552 1.16343
 C364 C 0.37542 1.10730 1.14602
 C365 C 0.37803 1.10325 1.10370
 C366 C 0.40698 1.09599 1.17160
 N367 N 0.40472 1.10309 1.21152
 N368 N 0.37350 1.12150 1.22760
 C369 C 0.34214 1.13351 1.20497
 H370 H 0.34960 1.11712 1.04724
 H371 H 0.29071 1.14663 1.07655
 H372 H 0.43411 1.08289 1.16046
 H373 H 0.31932 1.15078 1.21966
 C374 C 0.34778 0.87828 0.91515
 C375 C 0.31062 0.86443 0.90293
 C376 C 0.28251 0.89015 0.88527
 C377 C 0.29114 0.93187 0.88404
 C378 C 0.32910 0.94610 0.89699
 C379 C 0.35827 0.91854 0.91107
 C380 C 0.33553 0.98773 0.89748
 N381 N 0.30631 1.01308 0.88566
 N382 N 0.27069 0.99987 0.87424
 C383 C 0.26193 0.96036 0.87362
 H384 H 0.36909 0.85685 0.92677
 H385 H 0.30494 0.83266 0.90494
 H386 H 0.36267 1.00078 0.90860
 H387 H 0.23166 0.95201 0.86663
 C388 C 0.64062 0.86865 1.08456
 C389 C 0.67636 0.85335 1.09910
 C390 C 0.70697 0.87873 1.11272
 C391 C 0.70243 0.92075 1.10719
 C392 C 0.66572 0.93631 1.09252
 C393 C 0.63412 0.90984 1.08269
 C394 C 0.66274 0.97780 1.08605
 N395 N 0.69438 1.00183 1.09341
 N396 N 0.72908 0.98722 1.10598
 C397 C 0.73437 0.94761 1.11250
 H398 H 0.61716 0.84798 1.07622
 H399 H 0.67887 0.82125 1.10215
 H400 H 0.63623 0.99136 1.07381
 H401 H 0.76401 0.93759 1.12003
 C402 C 0.63923 1.13175 0.90425
 C403 C 0.67578 1.14648 0.89148
 C404 C 0.70773 1.12062 0.88311
 C405 C 0.70346 1.07924 0.89223
 C406 C 0.66606 1.06432 0.90534
 C407 C 0.63337 1.09077 0.90970
 C408 C 0.66342 1.02382 0.91632
 N409 N 0.69611 1.00012 0.91473
 N410 N 0.73132 1.01419 0.90329
 C411 C 0.73621 1.05286 0.89241
 H412 H 0.61488 1.15253 0.90880
 H413 H 0.67827 1.17821 0.88575
 H414 H 0.63613 1.01093 0.92742
 H415 H 0.76606 1.06278 0.88587
 C416 C 0.07948 0.34799 0.11385
 C417 C 0.09638 0.31410 0.13099
 C418 C 0.13768 0.31088 0.13594
 C419 C 0.16228 0.34355 0.12501
 C420 C 0.14511 0.37776 0.10653
 C421 C 0.10331 0.37939 0.10016
 C422 C 0.17033 0.40992 0.09689
 N423 N 0.20983 0.40778 0.10522
 N424 N 0.22577 0.37596 0.12300
 C425 C 0.20336 0.34400 0.13349
 H426 H 0.04747 0.34937 0.11045
 H427 H 0.07710 0.28977 0.13991
 H428 H 0.15914 0.43718 0.08381
 H429 H 0.21784 0.31988 0.14929
 C430 C -0.10790 0.34290 -0.07819
 C431 C -0.12262 0.30680 -0.09276
 C432 C -0.12945 0.30118 -0.13382
 C433 C -0.12230 0.33317 -0.16067
 C434 C -0.10676 0.36986 -0.14592
 C435 C -0.09916 0.37443 -0.10428
 C436 C -0.10103 0.40127 -0.17333
 N437 N -0.11013 0.39605 -0.21262
 N438 N -0.12503 0.36178 -0.22633
 C439 C -0.13171 0.33033 -0.20171
 H440 H -0.10253 0.34596 -0.04627
 H441 H -0.12833 0.28273 -0.07190
 H442 H -0.09025 0.43022 -0.16399
 H443 H -0.14510 0.30386 -0.21444
 C444 C 0.12583 0.64583 -0.09323
 C445 C 0.13990 0.68265 -0.10641
 C446 C 0.11358 0.71408 -0.11458
 C447 C 0.07235 0.70891 -0.10735
 C448 C 0.05792 0.67141 -0.09387
 C449 C 0.08498 0.63929 -0.08797
 C450 C 0.01702 0.66797 -0.08535
 N451 N -0.00755 0.69971 -0.09074
 N452 N 0.00601 0.73476 -0.10363
 C453 C 0.04511 0.74052 -0.11187
 H454 H 0.14696 0.62185 -0.08820
 H455 H 0.17153 0.68639 -0.11146
 H456 H 0.00438 0.64083 -0.07351
 H457 H 0.05454 0.76997 -0.12104
 C458 C -0.08025 0.65310 0.11421
 C459 C -0.09607 0.68812 0.13008
 C460 C -0.13722 0.69252 0.13522
 C461 C -0.16271 0.65993 0.12598
 C462 C -0.14664 0.62459 0.10875
 C463 C -0.10503 0.62173 0.10204
 C464 C -0.17272 0.59267 0.10051
 N465 N -0.21203 0.59607 0.10906
 N466 N -0.22695 0.62897 0.12574
 C467 C -0.20364 0.66081 0.13479
 H468 H -0.04838 0.65089 0.11031
 H469 H -0.07611 0.71245 0.13757
 H470 H -0.16232 0.56465 0.08834
 H471 H -0.21729 0.68594 0.14974
 C472 C 1.08416 0.12539 0.64927
 C473 C 1.09565 0.13912 0.68689
 C474 C 1.11043 0.11284 0.71620
 C475 C 1.10985 0.07099 0.70805
 C476 C 1.09768 0.05691 0.66959
 C477 C 1.08610 0.08476 0.63955
 C478 C 1.09539 0.01527 0.66349
 N479 N 1.10476 -0.01024 0.69358
 N480 N 1.11541 0.00291 0.72970
 C481 C 1.11769 0.04246 0.73812
 H482 H 1.07441 0.14701 0.62716
 H483 H 1.09521 0.17105 0.69217
 H484 H 1.08493 0.00240 0.63580
 H485 H 1.12402 0.05093 0.76871
 C486 C 0.92023 -0.11956 0.64938
 C487 C 0.90403 -0.13696 0.68347
 C488 C 0.86258 -0.14130 0.68792
 C489 C 0.83752 -0.13119 0.65477
 C490 C 0.85412 -0.11259 0.62031
 C491 C 0.89578 -0.10582 0.61832
 C492 C 0.82860 -0.10349 0.58796
 N493 N 0.78950 -0.11330 0.58962
 N494 N 0.77429 -0.13227 0.62104
 C495 C 0.79697 -0.14209 0.65325
 H496 H 0.95222 -0.11539 0.64798
 H497 H 0.92420 -0.14479 0.70761
 H498 H 0.83933 -0.08991 0.56075
 H499 H 0.78327 -0.15986 0.67635
 C500 C 1.08428 -0.12588 0.35321
 C501 C 1.10134 -0.14471 0.32042
 C502 C 1.14277 -0.14431 0.31444
 C503 C 1.16739 -0.12785 0.34534
 C504 C 1.14968 -0.10744 0.37834
 C505 C 1.10753 -0.10526 0.38122
 C506 C 1.17492 -0.09222 0.40857
 N507 N 1.21481 -0.09786 0.40635
 N508 N 1.23121 -0.11836 0.37647
 C509 C 1.20892 -0.13406 0.34640
 H510 H 1.05221 -0.12634 0.35599
 H511 H 1.08140 -0.15754 0.29834
 H512 H 1.16363 -0.07728 0.43481
 H513 H 1.22388 -0.15277 0.32480
 C514 C 0.88380 0.07878 0.34626
 C515 C 0.86756 0.09349 0.31086
 C516 C 0.86649 0.13470 0.30287
 C517 C 0.87913 0.16165 0.33363
 C518 C 0.89621 0.14647 0.36971
 C519 C 0.89940 0.10453 0.37543
 C520 C 0.90732 0.17394 0.39982
 N521 N 0.90109 0.21356 0.39446
 N522 N 0.88376 0.22763 0.36147
 C523 C 0.87202 0.20312 0.33131
 H524 H 0.88523 0.04668 0.35033
 H525 H 0.85777 0.07209 0.28852
 H526 H 0.91961 0.16458 0.42818
 H527 H 0.85567 0.21637 0.30682
 C528 C 0.12444 0.35756 -0.09314
 C529 C 0.13852 0.32032 -0.10492
 C530 C 0.11232 0.28951 -0.11630
 C531 C 0.07048 0.29610 -0.11205
 C532 C 0.05615 0.33449 -0.10042
 C533 C 0.08362 0.36569 -0.09199
 C534 C 0.01478 0.33952 -0.09527
 N535 N -0.01028 0.30829 -0.10086
 N536 N 0.00316 0.27212 -0.11035
 C537 C 0.04253 0.26482 -0.11544
 H538 H 0.14584 0.38072 -0.08587
 H539 H 0.17044 0.31644 -0.10724
 H540 H 0.00198 0.36738 -0.08552
 H541 H 0.05141 0.23422 -0.12028
 C542 C -0.13225 0.36124 0.09642
 C543 C -0.14690 0.32535 0.11146
 C544 C -0.12191 0.29214 0.11584
 C545 C -0.08186 0.29452 0.10311
 C546 C -0.06690 0.33098 0.08768
 C547 C -0.09219 0.36484 0.08545
 C548 C -0.02746 0.33176 0.07362
 N549 N -0.00471 0.29828 0.07541
 N550 N -0.01871 0.26416 0.09022
 C551 C -0.05651 0.26111 0.10408
 H552 H -0.15210 0.38669 0.09424
 H553 H -0.17776 0.32358 0.12064
 H554 H -0.01465 0.35835 0.06061
 H555 H -0.06656 0.23245 0.11496
 C556 C -0.09086 0.64642 -0.12993
 C557 C -0.10411 0.68270 -0.14506
 C558 C -0.11978 0.71247 -0.11978
 C559 C -0.11818 0.70616 -0.07749
 C560 C -0.10464 0.66882 -0.06203
 C561 C -0.09222 0.63825 -0.08888
 C562 C -0.10188 0.66435 -0.02009
 N563 N -0.11172 0.69507 0.00447
 N564 N -0.12337 0.73024 -0.00994
 C565 C -0.12637 0.73700 -0.04989
 H566 H -0.08056 0.62391 -0.15088
 H567 H -0.10436 0.68630 -0.17730
 H568 H -0.09074 0.63746 -0.00632
 H569 H -0.13348 0.76696 -0.05943
 C570 C 0.13177 0.63212 0.10419
 C571 C 0.14844 0.66667 0.12036
 C572 C 0.12545 0.70120 0.12535
 C573 C 0.08530 0.70147 0.11236
 C574 C 0.06829 0.66633 0.09579
 C575 C 0.09163 0.63118 0.09269
 C576 C 0.02891 0.66817 0.08142
 N577 N 0.00808 0.70283 0.08406
 N578 N 0.02399 0.73571 0.09994
 C579 C 0.06190 0.73624 0.11411
 H580 H 0.15016 0.60564 0.10131
 H581 H 0.17934 0.66638 0.12981
 H582 H 0.01465 0.64266 0.06756
 H583 H 0.07357 0.76401 0.12585
 C584 C 0.33928 1.10850 0.92816
 C585 C 0.30264 1.12243 0.91434
 C586 C 0.29620 1.12952 0.87347
 C587 C 0.32801 1.12406 0.84613
 C588 C 0.36519 1.10927 0.86008
 C589 C 0.37047 1.10087 0.90143
 C590 C 0.39631 1.10493 0.83221
 N591 N 0.39036 1.11473 0.79322
 N592 N 0.35561 1.12901 0.78027
 C593 C 0.32439 1.13430 0.80539
 H594 H 0.34295 1.10254 0.95989
 H595 H 0.27871 1.12695 0.93557
 H596 H 0.42558 1.09474 0.84100
 H597 H 0.29748 1.14730 0.79331
 C598 C 0.34507 0.92209 1.11255
 C599 C 0.31114 0.90537 1.12949
 C600 C 0.30823 0.86407 1.13525
 C601 C 0.34097 0.83923 1.12537
 C602 C 0.37543 0.85615 1.10770
 C603 C 0.37696 0.89791 1.10057
 C604 C 0.40780 0.83073 1.09928
 N605 N 0.40544 0.79121 1.10782
 N606 N 0.37317 0.77543 1.12461
 C607 C 0.34102 0.79809 1.13392
 H608 H 0.34600 0.95410 1.10776
 H609 H 0.28649 0.92467 1.13749
 H610 H 0.43531 0.84181 1.08689
 H611 H 0.31629 0.78378 1.14870
 C612 C 0.63925 1.09745 1.12845
 C613 C 0.67575 1.11094 1.14298
 C614 C 0.70846 1.11534 1.11740
 C615 C 0.70464 1.10418 1.07653
 C616 C 0.66722 1.09108 1.06152
 C617 C 0.63418 1.08852 1.08777
 C618 C 0.66472 1.07934 1.02104
 N619 N 0.69750 1.08077 0.99746
 N620 N 0.73265 1.09272 1.01165
 C621 C 0.73740 1.10420 1.05038
 H622 H 0.61442 1.09498 1.14897
 H623 H 0.67831 1.11897 1.17435
 H624 H 0.63738 1.06821 1.00803
 H625 H 0.76693 1.11227 1.06045
 C626 C 0.64714 0.92118 0.87450
 C627 C 0.68240 0.90526 0.85954
 C628 C 0.68925 0.86399 0.85978
 C629 C 0.65865 0.83810 0.87323
 C630 C 0.62291 0.85437 0.88925
 C631 C 0.61788 0.89652 0.89114
 C632 C 0.59277 0.82765 0.90106
 N633 N 0.59835 0.78769 0.89740
 N634 N 0.63172 0.77255 0.88221
 C635 C 0.66186 0.79634 0.86970
 H636 H 0.64319 0.95324 0.87412
 H637 H 0.70505 0.92542 0.84847
 H638 H 0.56431 0.83784 0.91196
 H639 H 0.68743 0.78225 0.85616
   
