data_POSCAR
  _audit_creation_date              2014-09-24
  _audit_creation_method            'ToBaCCo'
  _symmetry_space_group_name_H-M    'P1'
  _symmetry_Int_Tables_number       1
  _symmetry_cell_setting            triclinic
  loop_
  _symmetry_equiv_pos_as_xyz
 x,y,z
_cell_length_a 63.5812
_cell_length_b 37.0250
_cell_length_c 19.6048
_cell_angle_alpha 89.992600
_cell_angle_beta 90.000000
_cell_angle_gamma 89.994100
loop_
  _atom_site_label
  _atom_site_type_symbol
  _atom_site_fract_x
  _atom_site_fract_y
  _atom_site_fract_z
C1 C 0.73265 0.26100 0.53729
 C2 C 0.73259 0.26056 0.46533
 C3 C 0.74928 0.24449 0.42991
 C4 C 0.76609 0.22883 0.46543
 C5 C 0.76617 0.22926 0.53753
 C6 C 0.74945 0.24534 0.57292
 H7 H 0.74953 0.24570 0.62832
 H8 H 0.74916 0.24426 0.37454
 C9 C 0.23283 0.76124 0.53751
 C10 C 0.23272 0.76108 0.46564
 C11 C 0.24934 0.74496 0.43002
 C12 C 0.26610 0.72907 0.46541
 C13 C 0.26625 0.72928 0.53739
 C14 C 0.24957 0.74535 0.57299
 H15 H 0.24961 0.74559 0.62835
 H16 H 0.24926 0.74483 0.37468
 C17 C 0.26523 0.27044 -0.53645
 C18 C 0.26523 0.27033 -0.46461
 C19 C 0.24853 0.25440 -0.42905
 C20 C 0.23177 0.23848 -0.46449
 C21 C 0.23177 0.23859 -0.53663
 C22 C 0.24852 0.25459 -0.57204
 H23 H 0.24860 0.25468 -0.62741
 H24 H 0.24864 0.25436 -0.37368
 C25 C -0.23488 0.77062 -0.53658
 C26 C -0.23485 0.77084 -0.46475
 C27 C -0.25151 0.75497 -0.42896
 C28 C -0.26824 0.73883 -0.46419
 C29 C -0.26829 0.73862 -0.53633
 C30 C -0.25157 0.75455 -0.57196
 H31 H -0.25149 0.75441 -0.62732
 H32 H -0.25140 0.75513 -0.37360
 O33 O -0.02908 0.93786 0.12506
 O34 O -0.05218 0.97062 0.05945
 C35 C -0.04790 0.94737 0.10680
 O36 O 0.03003 1.06683 0.11892
 O37 O 0.05317 1.03210 0.05726
 C38 C 0.04886 1.05721 0.10106
 O39 O -0.02886 1.06367 0.12599
 O40 O -0.05190 1.03113 0.06008
 C41 C -0.04767 1.05424 0.10768
 O42 O 0.03007 0.93455 0.11890
 O43 O 0.05319 0.96943 0.05743
 C44 C 0.04890 0.94426 0.10118
 Zr45 Zr 0.00051 0.95499 0.08678
 O46 O 0.00286 0.95529 0.19451
 O47 O -0.00186 0.89796 0.08675
 Zr48 Zr 0.00050 1.04635 0.08681
 O49 O 0.00292 1.04605 0.19452
 O50 O -0.00189 1.10339 0.08637
 O51 O -0.01827 1.00065 0.10006
 O52 O 0.01877 1.00069 0.09929
 O53 O 0.03013 0.93474 -0.11799
 O54 O 0.05320 0.96945 -0.05606
 C55 C 0.04894 0.94441 -0.10003
 O56 O -0.02908 1.06337 -0.12428
 O57 O -0.05218 1.03059 -0.05871
 C58 C -0.04790 1.05384 -0.10607
 O59 O 0.03006 1.06680 -0.11801
 O60 O 0.05318 1.03208 -0.05620
 C61 C 0.04889 1.05714 -0.10017
 O62 O -0.02901 0.93802 -0.12437
 O63 O -0.05217 0.97061 -0.05870
 C64 C -0.04786 0.94745 -0.10617
 Zr65 Zr 0.00057 0.95508 -0.08576
 O66 O 0.00298 0.95525 -0.19347
 O67 O -0.00176 0.89804 -0.08560
 Zr68 Zr 0.00050 1.04642 -0.08571
 O69 O 0.00286 1.04634 -0.19343
 O70 O -0.00192 1.10345 -0.08527
 Zr71 Zr -0.03079 1.00063 0.00043
 Zr72 Zr 0.03179 1.00074 0.00060
 O73 O 0.01880 1.00078 -0.09814
 O74 O -0.01821 1.00071 -0.09913
 O75 O 0.01929 0.94798 0.00055
 O76 O -0.01778 1.05291 0.00053
 O77 O -0.01772 0.94840 0.00043
 O78 O 0.01925 1.05348 0.00057
 H79 H 0.02832 1.00069 0.13924
 H80 H -0.02731 1.07409 0.00052
 H81 H 0.02833 1.00078 -0.13812
 H82 H -0.02723 0.92721 0.00036
 H83 H 0.00983 1.11283 0.05839
 H84 H 0.00994 1.11293 -0.05803
 H85 H -0.00884 1.03150 -0.21127
 H86 H -0.00884 0.96982 -0.21137
 H87 H 0.01004 0.88858 -0.05799
 H88 H 0.00978 0.88852 0.05843
 H89 H -0.00912 0.96946 0.21236
 H90 H -0.00874 1.03109 0.21231
 O91 O 0.47149 0.43636 0.12343
 O92 O 0.44847 0.46900 0.05765
 C93 C 0.45269 0.44584 0.10518
 O94 O 0.53049 0.56497 0.11792
 O95 O 0.55371 0.53046 0.05598
 C96 C 0.54935 0.55537 0.10017
 O97 O 0.47131 0.56180 0.12370
 O98 O 0.44820 0.52939 0.05756
 C99 C 0.45249 0.55240 0.10529
 O100 O 0.53017 0.43257 0.11656
 O101 O 0.55336 0.46763 0.05595
 C102 C 0.54900 0.44230 0.09922
 Zr103 Zr 0.50087 0.45343 0.08383
 O104 O 0.50295 0.45140 0.19152
 O105 O 0.49977 0.39655 0.07542
 Zr106 Zr 0.50091 0.54479 0.08525
 O107 O 0.50324 0.54409 0.19300
 O108 O 0.49859 0.60184 0.08606
 O109 O 0.48214 0.49912 0.09781
 O110 O 0.51916 0.49904 0.09713
 O111 O 0.53025 0.43310 -0.12050
 O112 O 0.55341 0.46793 -0.05918
 C113 C 0.54909 0.44277 -0.10291
 O114 O 0.47145 0.56262 -0.12568
 O115 O 0.44824 0.52988 -0.06045
 C116 C 0.45259 0.55319 -0.10765
 O117 O 0.53060 0.56586 -0.11897
 O118 O 0.55374 0.53091 -0.05764
 C119 C 0.54943 0.55614 -0.10121
 O120 O 0.47134 0.43709 -0.12687
 O121 O 0.44822 0.46986 -0.06133
 C122 C 0.45251 0.44667 -0.10876
 Zr123 Zr 0.50090 0.45411 -0.08827
 O124 O 0.50330 0.45496 -0.19598
 O125 O 0.49884 0.39706 -0.08856
 Zr126 Zr 0.50101 0.54539 -0.08712
 O127 O 0.50343 0.54568 -0.19483
 O128 O 0.49868 0.60243 -0.08631
 Zr129 Zr 0.46960 0.49959 -0.00176
 Zr130 Zr 0.53231 0.49948 -0.00137
 O131 O 0.51927 0.49974 -0.10006
 O132 O 0.48221 0.49986 -0.10124
 O133 O 0.51971 0.44685 -0.00215
 O134 O 0.48270 0.55179 -0.00097
 O135 O 0.48251 0.44728 -0.00229
 O136 O 0.51973 0.55219 -0.00073
 H137 H 0.52860 0.49882 0.13734
 H138 H 0.47320 0.57300 -0.00079
 H139 H 0.52880 0.49983 -0.14004
 H140 H 0.47295 0.42615 -0.00250
 H141 H 0.51037 0.61140 0.05851
 H142 H 0.51035 0.61175 -0.05798
 H143 H 0.49174 0.53091 -0.21291
 H144 H 0.49132 0.46922 -0.21363
 H145 H 0.50863 0.38807 -0.05319
 H146 H 0.49977 0.38712 0.12273
 H147 H 0.49259 0.46881 0.20975
 H148 H 0.49113 0.53017 0.21071
 C149 C 0.28234 0.28668 0.42601
 C150 C 0.29693 0.30050 0.39665
 C151 C 0.31461 0.31721 0.36339
 C152 C 0.31653 0.31598 0.29234
 C153 C 0.33380 0.33210 0.26031
 C154 C 0.34939 0.34969 0.29902
 C155 C 0.34728 0.35081 0.37045
 C156 C 0.33000 0.33468 0.40234
 C157 C 0.36780 0.36669 0.26507
 C158 C 0.37559 0.40020 0.28773
 C159 C 0.39292 0.41614 0.25574
 C160 C 0.40271 0.39884 0.20080
 C161 C 0.39508 0.36553 0.17785
 C162 C 0.37775 0.34955 0.20973
 C163 C 0.42047 0.41537 0.16762
 C164 C 0.43526 0.42924 0.13942
 H165 H 0.30468 0.30262 0.26170
 H166 H 0.33483 0.33119 0.20521
 H167 H 0.35912 0.36372 0.40174
 H168 H 0.32868 0.33573 0.45740
 H169 H 0.36811 0.41431 0.32957
 H170 H 0.39863 0.44203 0.27369
 H171 H 0.40255 0.35189 0.13537
 H172 H 0.37231 0.32355 0.19164
 C173 C -0.21779 0.78662 0.42560
 C174 C -0.20320 0.80017 0.39591
 C175 C -0.18551 0.81649 0.36223
 C176 C -0.18862 0.83977 0.30695
 C177 C -0.17139 0.85611 0.27515
 C178 C -0.15082 0.84938 0.29841
 C179 C -0.14787 0.82589 0.35403
 C180 C -0.16512 0.80956 0.38566
 C181 C -0.13251 0.86681 0.26490
 C182 C -0.11567 0.88017 0.30405
 C183 C -0.09842 0.89653 0.27242
 C184 C -0.09778 0.89973 0.20134
 C185 C -0.11445 0.88657 0.16195
 C186 C -0.13171 0.87022 0.19346
 C187 C -0.08004 0.91654 0.16871
 C188 C -0.06529 0.93061 0.14081
 H189 H -0.20436 0.84548 0.28870
 H190 H -0.17419 0.87444 0.23307
 H191 H -0.13223 0.81982 0.37257
 H192 H -0.16254 0.79156 0.42844
 H193 H -0.11595 0.87839 0.35917
 H194 H -0.08562 0.90674 0.30339
 H195 H -0.11408 0.88887 0.10686
 H196 H -0.14430 0.85981 0.16189
 C197 C 0.71566 0.72303 0.42770
 C198 C 0.70131 0.70910 0.39729
 C199 C 0.68399 0.69226 0.36231
 C200 C 0.68716 0.67531 0.29936
 C201 C 0.67036 0.65851 0.26599
 C202 C 0.65014 0.65844 0.29525
 C203 C 0.64712 0.67568 0.35849
 C204 C 0.66394 0.69245 0.39174
 C205 C 0.63230 0.64031 0.26023
 C206 C 0.61753 0.62013 0.29775
 C207 C 0.60075 0.60306 0.26485
 C208 C 0.59847 0.60592 0.19406
 C209 C 0.61305 0.62592 0.15623
 C210 C 0.62987 0.64299 0.18903
 C211 C 0.58117 0.58826 0.16038
 C212 C 0.56665 0.57333 0.13262
 H213 H 0.70264 0.67488 0.27626
 H214 H 0.67325 0.64507 0.21785
 H215 H 0.63171 0.67654 0.38191
 H216 H 0.66130 0.70556 0.44041
 H217 H 0.61912 0.61714 0.35245
 H218 H 0.58959 0.58756 0.29462
 H219 H 0.61140 0.62838 0.10142
 H220 H 0.64081 0.65869 0.15882
 C221 C 0.21573 1.22318 0.42721
 C222 C 0.20138 1.20928 0.39677
 C223 C 0.18409 1.19235 0.36203
 C224 C 0.17911 1.20213 0.29500
 C225 C 0.16219 1.18571 0.26161
 C226 C 0.15002 1.15933 0.29498
 C227 C 0.15520 1.14966 0.36233
 C228 C 0.17212 1.16608 0.39557
 C229 C 0.13201 1.14189 0.25979
 C230 C 0.11317 1.13494 0.29513
 C231 C 0.09630 1.11817 0.26224
 C232 C 0.09801 1.10811 0.19367
 C233 C 0.11664 1.11498 0.15798
 C234 C 0.13354 1.13180 0.19076
 C235 C 0.08071 1.09039 0.16030
 C236 C 0.06618 1.07534 0.13292
 H237 H 0.18825 1.22250 0.26865
 H238 H 0.15844 1.19401 0.21005
 H239 H 0.14634 1.12906 0.38900
 H240 H 0.17590 1.15822 0.44738
 H241 H 0.11141 1.14279 0.34803
 H242 H 0.08193 1.11301 0.29031
 H243 H 0.11816 1.10715 0.10496
 H244 H 0.14792 1.13635 0.16246
 C245 C 0.71658 0.27666 -0.42707
 C246 C 0.70221 0.29075 -0.39699
 C247 C 0.68489 0.30786 -0.36252
 C248 C 0.67793 0.29481 -0.29943
 C249 C 0.66095 0.31132 -0.26643
 C250 C 0.65069 0.34110 -0.29620
 C251 C 0.65785 0.35402 -0.35962
 C252 C 0.67482 0.33749 -0.39248
 C253 C 0.63260 0.35861 -0.26138
 C254 C 0.61503 0.37031 -0.29903
 C255 C 0.59807 0.38700 -0.26636
 C256 C 0.59841 0.39223 -0.19569
 C257 C 0.61579 0.38064 -0.15771
 C258 C 0.63277 0.36391 -0.19028
 C259 C 0.58101 0.40978 -0.16237
 C260 C 0.56642 0.42469 -0.13496
 H261 H 0.68556 0.27181 -0.27590
 H262 H 0.65566 0.30045 -0.21812
 H263 H 0.65049 0.37718 -0.38343
 H264 H 0.68011 0.34786 -0.44125
 H265 H 0.61429 0.36620 -0.35366
 H266 H 0.58468 0.39581 -0.29625
 H267 H 0.61626 0.38468 -0.10300
 H268 H 0.64617 0.35564 -0.15998
 C269 C 0.21588 0.77769 -0.42466
 C270 C 0.20148 0.79164 -0.39459
 C271 C 0.18410 0.80848 -0.36010
 C272 C 0.16492 0.81296 -0.39404
 C273 C 0.14804 0.82969 -0.36109
 C274 C 0.15013 0.84216 -0.29362
 C275 C 0.16948 0.83743 -0.25987
 C276 C 0.18635 0.82071 -0.29297
 C277 C 0.13224 0.86015 -0.25877
 C278 C 0.12787 0.85297 -0.18971
 C279 C 0.11098 0.86990 -0.15706
 C280 C 0.09828 0.89421 -0.19295
 C281 C 0.10251 0.90159 -0.26158
 C282 C 0.11937 0.88468 -0.29434
 C283 C 0.08089 0.91165 -0.15951
 C284 C 0.06630 0.92647 -0.13205
 H285 H 0.16300 0.80349 -0.44596
 H286 H 0.13328 0.83248 -0.38811
 H287 H 0.17166 0.84715 -0.20827
 H288 H 0.20116 0.81749 -0.26634
 H289 H 0.13733 0.83390 -0.16120
 H290 H 0.10781 0.86395 -0.10394
 H291 H 0.09281 0.92047 -0.28975
 H292 H 0.12249 0.89115 -0.34724
 C293 C 0.28251 0.71412 -0.42708
 C294 C 0.29716 0.70053 -0.39759
 C295 C 0.31492 0.68413 -0.36420
 C296 C 0.33490 0.68643 -0.39381
 C297 C 0.35217 0.67013 -0.36216
 C298 C 0.34968 0.65128 -0.30034
 C299 C 0.32951 0.64912 -0.27101
 C300 C 0.31225 0.66544 -0.30279
 C301 C 0.36803 0.63395 -0.26665
 C302 C 0.37036 0.63534 -0.19530
 C303 C 0.38764 0.61906 -0.16365
 C304 C 0.40282 0.60115 -0.20277
 C305 C 0.40065 0.59959 -0.27374
 C306 C 0.38339 0.61588 -0.30552
 C307 C 0.42052 0.58426 -0.16991
 C308 C 0.43524 0.57009 -0.14183
 H309 H 0.33714 0.70082 -0.44140
 H310 H 0.36752 0.67264 -0.38564
 H311 H 0.32701 0.63437 -0.22401
 H312 H 0.29683 0.66332 -0.27964
 H313 H 0.35897 0.64942 -0.16402
 H314 H 0.38919 0.62049 -0.10868
 H315 H 0.41227 0.58568 -0.30449
 H316 H 0.38191 0.61390 -0.36041
 C317 C -0.21763 1.21425 -0.42644
 C318 C -0.20303 1.20074 -0.39668
 C319 C -0.18532 1.18437 -0.36322
 C320 C -0.18702 1.17228 -0.29584
 C321 C -0.16981 1.15599 -0.26384
 C322 C -0.15068 1.15155 -0.29899
 C323 C -0.14914 1.16383 -0.36672
 C324 C -0.16636 1.18015 -0.39855
 C325 C -0.13240 1.13420 -0.26517
 C326 C -0.11958 1.10975 -0.30114
 C327 C -0.10235 1.09347 -0.26926
 C328 C -0.09771 1.10141 -0.20114
 C329 C -0.11035 1.12567 -0.16492
 C330 C -0.12760 1.14197 -0.19667
 C331 C -0.08002 1.08460 -0.16824
 C332 C -0.06529 1.07054 -0.14019
 H333 H -0.20167 1.17528 -0.26817
 H334 H -0.17156 1.14640 -0.21197
 H335 H -0.13456 1.16123 -0.39480
 H336 H -0.16487 1.18953 -0.45068
 H337 H -0.12303 1.10287 -0.35363
 H338 H -0.09269 1.07463 -0.29767
 H339 H -0.10686 1.13205 -0.11219
 H340 H -0.13700 1.16102 -0.16793
 C341 C 0.71578 0.72332 -0.42787
 C342 C 0.70149 0.70932 -0.39735
 C343 C 0.68426 0.69223 -0.36258
 C344 C 0.68133 0.69750 -0.29255
 C345 C 0.66454 0.68076 -0.25902
 C346 C 0.65049 0.65849 -0.29522
 C347 C 0.65358 0.65344 -0.36565
 C348 C 0.67036 0.67020 -0.39903
 C349 C 0.63271 0.64052 -0.25975
 C350 C 0.62723 0.60469 -0.27580
 C351 C 0.61040 0.58784 -0.24286
 C352 C 0.59882 0.60651 -0.19348
 C353 C 0.60417 0.64211 -0.17694
 C354 C 0.62102 0.65903 -0.20982
 C355 C 0.58138 0.58912 -0.16026
 C356 C 0.56677 0.57424 -0.13301
 H357 H 0.69204 0.71444 -0.26386
 H358 H 0.66273 0.68481 -0.20464
 H359 H 0.64288 0.63688 -0.39510
 H360 H 0.67249 0.66600 -0.45330
 H361 H 0.63610 0.58957 -0.31330
 H362 H 0.60642 0.56023 -0.25590
 H363 H 0.59526 0.65684 -0.13892
 H364 H 0.62468 0.68677 -0.19700
 C365 C 0.21570 1.22301 -0.42837
 C366 C 0.20133 1.20914 -0.39793
 C367 C 0.18397 1.19238 -0.36303
 C368 C 0.18631 1.18018 -0.29589
 C369 C 0.16946 1.16354 -0.26243
 C370 C 0.15004 1.15887 -0.29578
 C371 C 0.14787 1.17131 -0.36326
 C372 C 0.16472 1.18794 -0.39659
 C373 C 0.13216 1.14100 -0.26051
 C374 C 0.11912 1.11663 -0.29581
 C375 C 0.10228 1.09985 -0.26271
 C376 C 0.09819 1.10721 -0.19396
 C377 C 0.11105 1.13140 -0.15835
 C378 C 0.12794 1.14818 -0.19133
 C379 C 0.08082 1.08985 -0.16014
 C380 C 0.06624 1.07507 -0.13241
 H381 H 0.20117 1.18337 -0.26952
 H382 H 0.17173 1.15382 -0.21086
 H383 H 0.13305 1.16858 -0.39000
 H384 H 0.16272 1.19736 -0.44852
 H385 H 0.12211 1.11017 -0.34879
 H386 H 0.09246 1.08107 -0.29071
 H387 H 0.10800 1.13737 -0.10516
 H388 H 0.13751 1.16713 -0.16299
 C389 C 0.28236 0.28635 -0.42699
 C390 C 0.29699 0.29992 -0.39753
 C391 C 0.31473 0.31625 -0.36412
 C392 C 0.33499 0.31101 -0.39019
 C393 C 0.35226 0.32731 -0.35867
 C394 C 0.34949 0.34908 -0.30054
 C395 C 0.32905 0.35411 -0.27464
 C396 C 0.31179 0.33781 -0.30632
 C397 C 0.36783 0.36644 -0.26707
 C398 C 0.36924 0.36790 -0.19550
 C399 C 0.38653 0.38418 -0.16402
 C400 C 0.40262 0.39921 -0.20357
 C401 C 0.40136 0.39796 -0.27478
 C402 C 0.38408 0.38169 -0.30639
 C403 C 0.42036 0.41597 -0.17092
 C404 C 0.43512 0.42999 -0.14295
 H405 H 0.33743 0.29433 -0.43490
 H406 H 0.36782 0.32254 -0.37929
 H407 H 0.32637 0.37108 -0.23051
 H408 H 0.29615 0.34218 -0.28596
 H409 H 0.35711 0.35602 -0.16386
 H410 H 0.38737 0.38495 -0.10884
 H411 H 0.41370 0.40965 -0.30585
 H412 H 0.38330 0.38145 -0.36156
 C413 C -0.21773 0.78716 -0.42739
 C414 C -0.20314 0.80101 -0.39811
 C415 C -0.18547 0.81770 -0.36488
 C416 C -0.18451 0.81939 -0.29366
 C417 C -0.16726 0.83556 -0.26161
 C418 C -0.15073 0.85028 -0.30048
 C419 C -0.15187 0.84845 -0.37209
 C420 C -0.16913 0.83227 -0.40400
 C421 C -0.13238 0.86743 -0.26650
 C422 C -0.12343 0.89923 -0.29309
 C423 C -0.10618 0.91536 -0.26101
 C424 C -0.09762 0.89994 -0.20204
 C425 C -0.10639 0.86832 -0.17521
 C426 C -0.12365 0.85215 -0.20718
 C427 C -0.07995 0.91668 -0.16876
 C428 C -0.06523 0.93071 -0.14048
 H429 H -0.19711 0.80829 -0.26292
 H430 H -0.16699 0.83696 -0.20646
 H431 H -0.13929 0.85908 -0.40342
 H432 H -0.16970 0.83105 -0.45919
 H433 H -0.12996 0.91192 -0.33813
 H434 H -0.09957 0.93992 -0.28207
 H435 H -0.09987 0.85613 -0.12962
 H436 H -0.12999 0.82744 -0.18598
 C437 C 0.28305 0.71270 0.42737
 C438 C 0.29752 0.69875 0.39772
 C439 C 0.31507 0.68187 0.36425
 C440 C 0.32909 0.66068 0.40203
 C441 C 0.34628 0.64443 0.37001
 C442 C 0.34968 0.64917 0.29965
 C443 C 0.33547 0.67050 0.26210
 C444 C 0.31827 0.68674 0.29427
 C445 C 0.36798 0.63200 0.26563
 C446 C 0.37958 0.65096 0.21611
 C447 C 0.39684 0.63480 0.18419
 C448 C 0.40271 0.59953 0.20130
 C449 C 0.39127 0.58041 0.25042
 C450 C 0.37401 0.59653 0.28244
 C451 C 0.42038 0.58288 0.16802
 C452 C 0.43511 0.56897 0.13968
 H453 H 0.32676 0.65682 0.45630
 H454 H 0.35709 0.62857 0.40045
 H455 H 0.33751 0.67428 0.20774
 H456 H 0.30748 0.70303 0.26456
 H457 H 0.37550 0.67845 0.20270
 H458 H 0.40561 0.64984 0.14627
 H459 H 0.39563 0.55302 0.26377
 H460 H 0.36522 0.58106 0.31964
 C461 C -0.21780 1.21339 0.42952
 C462 C -0.20331 1.19952 0.39972
 C463 C -0.18574 1.18275 0.36602
 C464 C -0.17997 1.19343 0.30017
 C465 C -0.16269 1.17741 0.26805
 C466 C -0.15092 1.15050 0.30149
 C467 C -0.15688 1.13994 0.36769
 C468 C -0.17418 1.15596 0.39965
 C469 C -0.13251 1.13354 0.26752
 C470 C -0.11408 1.12592 0.30461
 C471 C -0.09678 1.10991 0.27257
 C472 C -0.09766 1.10131 0.20312
 C473 C -0.11591 1.10876 0.16580
 C474 C -0.13322 1.12477 0.19771
 C475 C -0.07987 1.08478 0.17008
 C476 C -0.06509 1.07088 0.14191
 H477 H -0.18876 1.21426 0.27380
 H478 H -0.15834 1.18647 0.21746
 H479 H -0.14833 1.11899 0.39444
 H480 H -0.17854 1.14743 0.45060
 H481 H -0.11294 1.13275 0.35818
 H482 H -0.08271 1.10433 0.30192
 H483 H -0.11679 1.10209 0.11206
 H484 H -0.14727 1.12983 0.16799
 C485 C 0.71556 0.27657 0.42708
 C486 C 0.70116 0.29018 0.39657
 C487 C 0.68380 0.30669 0.36145
 C488 C 0.68487 0.31285 0.29113
 C489 C 0.66802 0.32920 0.25726
 C490 C 0.64988 0.33958 0.29341
 C491 C 0.64896 0.33321 0.36412
 C492 C 0.66582 0.31687 0.39785
 C493 C 0.63201 0.35714 0.25767
 C494 C 0.61114 0.34812 0.27442
 C495 C 0.59432 0.36501 0.24139
 C496 C 0.59813 0.39109 0.19126
 C497 C 0.61882 0.40014 0.17398
 C498 C 0.63567 0.38328 0.20692
 C499 C 0.58081 0.40893 0.15825
 C500 C 0.56628 0.42406 0.13105
 H501 H 0.69871 0.30500 0.26250
 H502 H 0.66909 0.33335 0.20270
 H503 H 0.63535 0.34135 0.39352
 H504 H 0.66487 0.31229 0.45236
 H505 H 0.60782 0.32777 0.31260
 H506 H 0.57836 0.35776 0.25505
 H507 H 0.62194 0.42041 0.13541
 H508 H 0.65154 0.39115 0.19355
 C509 C 0.21571 0.77755 0.42797
 C510 C 0.20133 0.79162 0.39792
 C511 C 0.18402 0.80869 0.36330
 C512 C 0.17904 0.79905 0.29621
 C513 C 0.16216 0.81561 0.26281
 C514 C 0.15002 0.84204 0.29618
 C515 C 0.15518 0.85154 0.36365
 C516 C 0.17207 0.83497 0.39692
 C517 C 0.13205 0.85963 0.26084
 C518 C 0.11322 0.86682 0.29608
 C519 C 0.09637 0.88361 0.26300
 C520 C 0.09808 0.89346 0.19430
 C521 C 0.11670 0.88634 0.15870
 C522 C 0.13358 0.86952 0.19168
 C523 C 0.08078 0.91116 0.16071
 C524 C 0.06624 0.92617 0.13319
 H525 H 0.18816 0.77867 0.26979
 H526 H 0.15842 0.80737 0.21123
 H527 H 0.14635 0.87213 0.39042
 H528 H 0.17584 0.84273 0.44879
 H529 H 0.11144 0.85911 0.34904
 H530 H 0.08201 0.88893 0.29102
 H531 H 0.11822 0.89395 0.10556
 H532 H 0.14794 0.86478 0.16338
   
