data_POSCAR
  _audit_creation_date              2014-09-24
  _audit_creation_method            'ToBaCCo'
  _symmetry_space_group_name_H-M    'P1'
  _symmetry_Int_Tables_number       1
  _symmetry_cell_setting            triclinic
  loop_
  _symmetry_equiv_pos_as_xyz
 x,y,z
_cell_length_a 57.8445
_cell_length_b 57.9109
_cell_length_c 39.5372
_cell_angle_alpha 89.934300
_cell_angle_beta 89.817100
_cell_angle_gamma 88.406700
loop_
  _atom_site_label
  _atom_site_type_symbol
  _atom_site_fract_x
  _atom_site_fract_y
  _atom_site_fract_z
O1 O 0.01793 0.28283 -0.02455
 O2 O -0.02508 0.28300 0.04474
 O3 O 0.02020 0.28339 0.04129
 O4 O -0.02723 0.28247 -0.02100
 O5 O -0.02594 0.24438 -0.01976
 O6 O 0.02178 0.24529 0.04113
 O7 O -0.02323 0.24496 0.04565
 O8 O 0.01879 0.24473 -0.02409
 Cu9 Cu -0.00368 0.28676 0.01011
 Cu10 Cu -0.00202 0.24106 0.01090
 C11 C 0.02574 0.26366 -0.03614
 C12 C -0.03172 0.26393 0.05687
 C13 C 0.02936 0.26442 0.05139
 C14 C -0.03480 0.26321 -0.03083
 O15 O 0.47817 0.78547 0.53160
 O16 O 0.52612 0.78329 0.47008
 O17 O 0.48082 0.78236 0.46622
 O18 O 0.52338 0.78480 0.53576
 O19 O 0.52370 0.74674 0.53887
 O20 O 0.48221 0.74431 0.46955
 O21 O 0.52734 0.74526 0.47328
 O22 O 0.47902 0.74741 0.53437
 Cu23 Cu 0.50208 0.78781 0.50054
 Cu24 Cu 0.50327 0.74214 0.50419
 C25 C 0.47016 0.76683 0.54318
 C26 C 0.53515 0.76395 0.46145
 C27 C 0.47386 0.76277 0.45665
 C28 C 0.53071 0.76604 0.54921
 O29 O 0.97864 0.72119 -0.03307
 O30 O 1.02822 0.71768 0.02526
 O31 O 0.98298 0.72072 0.03234
 O32 O 1.02370 0.71916 -0.04005
 O33 O 1.02426 0.75717 -0.03926
 O34 O 0.98461 0.75872 0.03313
 O35 O 1.02933 0.75571 0.02598
 O36 O 0.97940 0.75919 -0.03131
 Cu37 Cu 1.00331 0.71586 -0.00393
 Cu38 Cu 1.00461 0.76147 -0.00282
 C39 C 0.97014 0.74082 -0.04157
 C40 C 1.03745 0.73611 0.03524
 C41 C 0.97649 0.74015 0.04463
 C42 C 1.03111 0.73801 -0.05190
 O43 O 0.47619 0.22185 0.47496
 O44 O 0.52108 0.22083 0.54062
 O45 O 0.47563 0.22487 0.54047
 O46 O 0.52133 0.22023 0.47460
 O47 O 0.52201 0.25827 0.47253
 O48 O 0.47754 0.26281 0.53795
 O49 O 0.52267 0.25879 0.53825
 O50 O 0.47721 0.25987 0.47281
 Cu51 Cu 0.49849 0.21812 0.50805
 Cu52 Cu 0.50006 0.26370 0.50531
 C53 C 0.46884 0.24098 0.46281
 C54 C 0.52981 0.23954 0.55039
 C55 C 0.46844 0.24485 0.54981
 C56 C 0.52932 0.23868 0.46218
 O57 O 0.72011 -0.02850 0.04343
 O58 O 0.71754 0.01796 -0.01994
 O59 O 0.71622 -0.02717 -0.02213
 O60 O 0.72420 0.01647 0.04507
 O61 O 0.76196 0.01271 0.03807
 O62 O 0.75408 -0.02939 -0.02911
 O63 O 0.75537 0.01522 -0.02644
 O64 O 0.75787 -0.03203 0.03639
 Cu65 Cu 0.71572 -0.00503 0.01235
 Cu66 Cu 0.76107 -0.00875 0.00414
 C67 C 0.73932 -0.03842 0.05055
 C68 C 0.73596 0.02480 -0.03387
 C69 C 0.73401 -0.03558 -0.03720
 C70 C 0.74463 0.02224 0.05260
 O71 O 0.21822 0.52857 0.44948
 O72 O 0.21429 0.48327 0.51476
 O73 O 0.21369 0.52867 0.51497
 O74 O 0.21987 0.48344 0.44920
 O75 O 0.25774 0.48389 0.45517
 O76 O 0.25155 0.52787 0.52146
 O77 O 0.25221 0.48293 0.52040
 O78 O 0.25603 0.52889 0.45655
 Cu79 Cu 0.21270 0.50595 0.48155
 Cu80 Cu 0.25815 0.50581 0.48900
 C81 C 0.23780 0.53674 0.44227
 C82 C 0.23261 0.47518 0.52851
 C83 C 0.23170 0.53617 0.52918
 C84 C 0.23999 0.47599 0.44093
 O85 O 0.27621 1.02736 0.01697
 O86 O 0.27532 0.98346 -0.05044
 O87 O 0.27130 1.02874 -0.04847
 O88 O 0.27861 0.98213 0.01506
 O89 O 0.24067 0.98108 0.02039
 O90 O 0.23349 1.02675 -0.04300
 O91 O 0.23746 0.98163 -0.04517
 O92 O 0.23833 1.02579 0.02185
 Cu93 Cu 0.27916 1.00559 -0.01732
 Cu94 Cu 0.23372 1.00359 -0.01111
 C95 C 0.25740 1.03429 0.03084
 C96 C 0.25630 0.97476 -0.05899
 C97 C 0.25101 1.03605 -0.05609
 C98 C 0.26073 0.97369 0.02857
 O99 O 0.77570 0.46865 0.48097
 O100 O 0.77101 0.51688 0.54151
 O101 O 0.77195 0.47183 0.54637
 O102 O 0.77353 0.51378 0.47579
 O103 O 0.73553 0.51289 0.47230
 O104 O 0.73390 0.47191 0.54279
 O105 O 0.73300 0.51659 0.53755
 O106 O 0.73767 0.46811 0.47774
 Cu107 Cu 0.77689 0.49286 0.51148
 Cu108 Cu 0.73124 0.49235 0.50720
 C109 C 0.75747 0.45994 0.46931
 C110 C 0.75119 0.52506 0.54979
 C111 C 0.75253 0.46466 0.55653
 C112 C 0.75466 0.52057 0.46210
 C113 C 0.25025 0.21145 0.19261
 C114 C 0.22873 0.21876 0.18002
 C115 C 0.21917 0.24063 0.18734
 C116 C 0.23132 0.25571 0.20862
 C117 C 0.25314 0.24846 0.22196
 C118 C 0.26274 0.22633 0.21369
 C119 C 0.28447 0.21966 0.22680
 C120 C 0.29670 0.23450 0.24741
 C121 C 0.28750 0.25644 0.25609
 C122 C 0.26552 0.26351 0.24323
 C123 C 0.22259 0.27801 0.21620
 C124 C 0.23459 0.29263 0.23738
 C125 C 0.25594 0.28565 0.25143
 C126 C 0.26829 0.30046 0.27282
 C127 C 0.29011 0.29343 0.28467
 C128 C 0.29984 0.27172 0.27681
 H129 H 0.29225 0.20288 0.22115
 H130 H 0.31351 0.22862 0.25637
 H131 H 0.20645 0.28450 0.20567
 H132 H 0.22710 0.30964 0.24220
 H133 H 0.21936 0.20726 0.16368
 H134 H 0.29943 0.30483 0.30123
 C135 C 0.74421 0.69763 0.29629
 C136 C 0.72221 0.70582 0.30584
 C137 C 0.71426 0.72813 0.29753
 C138 C 0.72875 0.74287 0.27892
 C139 C 0.75092 0.73456 0.26824
 C140 C 0.75858 0.71179 0.27669
 C141 C 0.78013 0.70353 0.26464
 C142 C 0.79411 0.71744 0.24507
 C143 C 0.78731 0.74033 0.23735
 C144 C 0.76541 0.74894 0.24881
 C145 C 0.72155 0.76548 0.27019
 C146 C 0.73590 0.77973 0.25158
 C147 C 0.75778 0.77175 0.24036
 C148 C 0.77233 0.78593 0.22098
 C149 C 0.79389 0.77723 0.21021
 C150 C 0.80149 0.75468 0.21764
 H151 H 0.78622 0.68603 0.26972
 H152 H 0.81026 0.70994 0.23592
 H153 H 0.70472 0.77238 0.27760
 H154 H 0.72961 0.79708 0.24596
 H155 H 0.71128 0.69481 0.32086
 H156 H 0.80479 0.78810 0.19490
 C157 C 0.80045 0.22434 0.23156
 C158 C 0.79362 0.20265 0.22049
 C159 C 0.77179 0.19427 0.22820
 C160 C 0.75629 0.20776 0.24828
 C161 C 0.76303 0.22975 0.25997
 C162 C 0.78512 0.23815 0.25143
 C163 C 0.79127 0.26009 0.26298
 C164 C 0.77582 0.27379 0.28182
 C165 C 0.75382 0.26586 0.29045
 C166 C 0.74742 0.24359 0.27960
 C167 C 0.73400 0.20019 0.25610
 C168 C 0.71892 0.21354 0.27589
 C169 C 0.72530 0.23523 0.28797
 C170 C 0.70988 0.24905 0.30754
 C171 C 0.71616 0.27116 0.31731
 C172 C 0.73783 0.27974 0.30912
 H173 H 0.80807 0.26695 0.25740
 H174 H 0.78130 0.29071 0.28947
 H175 H 0.72784 0.18393 0.24686
 H176 H 0.70198 0.20685 0.28110
 H177 H 0.80531 0.19234 0.20473
 H178 H 0.70413 0.28172 0.33219
 C179 C 0.30048 0.74647 0.28480
 C180 C 0.29122 0.72695 0.29994
 C181 C 0.27031 0.71790 0.28925
 C182 C 0.25800 0.72878 0.26246
 C183 C 0.26722 0.74856 0.24662
 C184 C 0.28853 0.75744 0.25780
 C185 C 0.29701 0.77733 0.24221
 C186 C 0.28520 0.78796 0.21561
 C187 C 0.26403 0.77958 0.20423
 C188 C 0.25490 0.75974 0.21992
 C189 C 0.23651 0.72081 0.25165
 C190 C 0.22451 0.73172 0.22538
 C191 C 0.23336 0.75122 0.20922
 C192 C 0.22129 0.76243 0.18253
 C193 C 0.23083 0.78157 0.16670
 C194 C 0.25177 0.79049 0.17747
 H195 H 0.31286 0.78500 0.25043
 H196 H 0.29286 0.80289 0.20412
 H197 H 0.22863 0.70615 0.26356
 H198 H 0.20818 0.72467 0.21782
 H199 H 0.30063 0.71846 0.32037
 H200 H 0.22132 0.79026 0.14655
 C201 C 0.79264 0.22644 0.79748
 C202 C 0.78452 0.20454 0.80514
 C203 C 0.76234 0.19797 0.79590
 C204 C 0.74773 0.21364 0.77790
 C205 C 0.75597 0.23571 0.76903
 C206 C 0.77851 0.24213 0.77882
 C207 C 0.78644 0.26392 0.76934
 C208 C 0.77246 0.27928 0.75101
 C209 C 0.75008 0.27336 0.74112
 C210 C 0.74165 0.25144 0.75039
 C211 C 0.72527 0.20778 0.76821
 C212 C 0.71109 0.22336 0.75039
 C213 C 0.71898 0.24521 0.74099
 C214 C 0.70477 0.26118 0.72281
 C215 C 0.71333 0.28277 0.71419
 C216 C 0.73579 0.28890 0.72250
 H217 H 0.80364 0.26928 0.77579
 H218 H 0.77937 0.29594 0.74484
 H219 H 0.71846 0.19107 0.77435
 H220 H 0.69383 0.21809 0.74407
 H221 H 0.79539 0.19265 0.81969
 H222 H 0.70258 0.29473 0.69957
 C223 C 0.28804 0.74061 0.69822
 C224 C 0.28071 0.71857 0.68964
 C225 C 0.25829 0.71156 0.69674
 C226 C 0.24272 0.72677 0.71387
 C227 C 0.24996 0.74912 0.72321
 C228 C 0.27263 0.75616 0.71511
 C229 C 0.27936 0.77839 0.72454
 C230 C 0.26411 0.79348 0.74141
 C231 C 0.24168 0.78678 0.75010
 C232 C 0.23450 0.76440 0.74081
 C233 C 0.22025 0.72012 0.72232
 C234 C 0.20511 0.73509 0.73948
 C235 C 0.21194 0.75720 0.74927
 C236 C 0.19672 0.77241 0.76704
 C237 C 0.20387 0.79455 0.77533
 C238 C 0.22609 0.80190 0.76750
 H239 H 0.29655 0.78432 0.71906
 H240 H 0.27009 0.81050 0.74756
 H241 H 0.21418 0.70317 0.71594
 H242 H 0.18792 0.72915 0.74486
 H243 H 0.29251 0.70686 0.67627
 H244 H 0.19221 0.80597 0.78945
 C245 C 0.22873 0.21867 0.79097
 C246 C 0.20730 0.22821 0.80095
 C247 C 0.20014 0.25050 0.79134
 C248 C 0.21463 0.26380 0.77060
 C249 C 0.23639 0.25438 0.76002
 C250 C 0.24353 0.23179 0.77033
 C251 C 0.26541 0.22312 0.76020
 C252 C 0.27963 0.23594 0.73940
 C253 C 0.27298 0.25834 0.72893
 C254 C 0.25112 0.26766 0.73929
 C255 C 0.20787 0.28614 0.75995
 C256 C 0.22226 0.29911 0.73951
 C257 C 0.24388 0.29017 0.72875
 C258 C 0.25860 0.30317 0.70792
 C259 C 0.28006 0.29375 0.69800
 C260 C 0.28742 0.27157 0.70795
 H261 H 0.27189 0.20632 0.76820
 H262 H 0.29593 0.22800 0.73171
 H263 H 0.19131 0.29379 0.76721
 H264 H 0.21628 0.31628 0.73230
 H265 H 0.19607 0.21818 0.81697
 H266 H 0.29114 0.30377 0.68175
 C267 C 0.73652 0.70600 0.71024
 C268 C 0.71652 0.71624 0.69641
 C269 C 0.70780 0.73754 0.70795
 C270 C 0.71931 0.74911 0.73415
 C271 C 0.73990 0.73917 0.74798
 C272 C 0.74854 0.71750 0.73604
 C273 C 0.76863 0.70772 0.75070
 C274 C 0.78038 0.71927 0.77599
 C275 C 0.77257 0.74111 0.78751
 C276 C 0.75179 0.75088 0.77393
 C277 C 0.71082 0.77037 0.74674
 C278 C 0.72207 0.78151 0.77279
 C279 C 0.74271 0.77222 0.78649
 C280 C 0.75432 0.78353 0.81283
 C281 C 0.77500 0.77400 0.82543
 C282 C 0.78457 0.75323 0.81287
 H283 H 0.77540 0.69095 0.74285
 H284 H 0.79547 0.71068 0.78677
 H285 H 0.69526 0.77860 0.73675
 H286 H 0.71436 0.79753 0.78198
 H287 H 0.70748 0.70738 0.67646
 H288 H 0.78408 0.78328 0.84491
 C289 C 0.23676 0.05981 0.07061
 C290 C 0.23669 0.07786 0.09401
 C291 C 0.25731 0.08839 0.10317
 C292 C 0.27827 0.07982 0.08923
 C293 C 0.27838 0.06173 0.06573
 C294 C 0.25757 0.05166 0.05571
 C295 C 0.25584 0.10830 0.12686
 C296 C 0.27247 0.12382 0.13080
 C297 C 0.26891 0.14536 0.15079
 C298 C 0.28141 0.16494 0.14192
 C299 C 0.27642 0.18631 0.15717
 C300 C 0.25902 0.18835 0.18182
 C301 C 0.24751 0.16858 0.19229
 C302 C 0.25256 0.14721 0.17721
 H303 H 0.22036 0.05251 0.06390
 H304 H 0.22031 0.08392 0.10452
 H305 H 0.29466 0.08690 0.09630
 H306 H 0.29481 0.05582 0.05521
 H307 H 0.23936 0.11127 0.13935
 H308 H 0.28830 0.12213 0.11628
 H309 H 0.29426 0.16397 0.12194
 H310 H 0.28530 0.20147 0.14855
 H311 H 0.23401 0.16990 0.21129
 H312 H 0.24322 0.13238 0.18580
 C313 C 0.72735 0.55435 0.58194
 C314 C 0.72537 0.57333 0.60357
 C315 C 0.74512 0.58329 0.61722
 C316 C 0.76700 0.57337 0.60948
 C317 C 0.76899 0.55435 0.58777
 C318 C 0.74918 0.54475 0.57356
 C319 C 0.74189 0.60379 0.63936
 C320 C 0.75851 0.61883 0.64615
 C321 C 0.75395 0.64042 0.66550
 C322 C 0.76776 0.65957 0.65930
 C323 C 0.76270 0.68080 0.67487
 C324 C 0.74388 0.68308 0.69714
 C325 C 0.73070 0.66380 0.70462
 C326 C 0.73580 0.64257 0.68923
 H327 H 0.71174 0.54732 0.57157
 H328 H 0.70830 0.58048 0.60929
 H329 H 0.78262 0.58002 0.62025
 H330 H 0.78605 0.54720 0.58206
 H331 H 0.72448 0.60745 0.64831
 H332 H 0.77544 0.61651 0.63480
 H333 H 0.78198 0.65831 0.64144
 H334 H 0.77297 0.69561 0.66878
 H335 H 0.71618 0.66533 0.72192
 H336 H 0.72534 0.62803 0.69578
 C337 C 0.71923 0.93364 0.08829
 C338 C 0.71960 0.91456 0.10996
 C339 C 0.74061 0.90370 0.11924
 C340 C 0.76136 0.91233 0.10620
 C341 C 0.76099 0.93137 0.08437
 C342 C 0.73991 0.94216 0.07501
 C343 C 0.74012 0.88258 0.14049
 C344 C 0.75797 0.87532 0.15969
 C345 C 0.75876 0.85307 0.17844
 C346 C 0.77560 0.84981 0.20362
 C347 C 0.77901 0.82827 0.21903
 C348 C 0.76559 0.80955 0.20963
 C349 C 0.74821 0.81285 0.18532
 C350 C 0.74479 0.83440 0.16981
 H351 H 0.70267 0.94147 0.08147
 H352 H 0.70337 0.90814 0.11935
 H353 H 0.77788 0.90401 0.11185
 H354 H 0.77721 0.93739 0.07439
 H355 H 0.72430 0.87306 0.14055
 H356 H 0.77287 0.88612 0.16194
 H357 H 0.78671 0.86378 0.21060
 H358 H 0.79276 0.82593 0.23736
 H359 H 0.73810 0.79843 0.17712
 H360 H 0.73206 0.83589 0.14992
 C361 C 0.21001 0.44653 0.56194
 C362 C 0.20909 0.42783 0.58431
 C363 C 0.22934 0.41860 0.59914
 C364 C 0.25063 0.42848 0.59101
 C365 C 0.25155 0.44713 0.56868
 C366 C 0.23130 0.45627 0.55367
 C367 C 0.22791 0.39771 0.62080
 C368 C 0.24410 0.39175 0.64371
 C369 C 0.24498 0.36953 0.66261
 C370 C 0.26134 0.36685 0.68863
 C371 C 0.26498 0.34551 0.70449
 C372 C 0.25218 0.32643 0.69486
 C373 C 0.23528 0.32909 0.66972
 C374 C 0.23169 0.35042 0.65365
 H375 H 0.19409 0.45310 0.55070
 H376 H 0.19251 0.42040 0.58981
 H377 H 0.26676 0.42142 0.60084
 H378 H 0.26826 0.45408 0.56264
 H379 H 0.21298 0.38715 0.61750
 H380 H 0.25783 0.40357 0.64873
 H381 H 0.27192 0.38115 0.69596
 H382 H 0.27829 0.34366 0.72359
 H383 H 0.22557 0.31438 0.66157
 H384 H 0.21926 0.35139 0.63335
 C385 C 0.94046 0.28433 0.09393
 C386 C 0.92217 0.28377 0.11716
 C387 C 0.91427 0.26266 0.12950
 C388 C 0.92519 0.24204 0.11828
 C389 C 0.94340 0.24255 0.09508
 C390 C 0.95111 0.26367 0.08213
 C391 C 0.89344 0.26259 0.15154
 C392 C 0.88854 0.24492 0.17212
 C393 C 0.86622 0.24247 0.19026
 C394 C 0.86472 0.22515 0.21501
 C395 C 0.84346 0.22001 0.22967
 C396 C 0.82329 0.23220 0.22000
 C397 C 0.82472 0.25000 0.19608
 C398 C 0.84597 0.25512 0.18127
 H399 H 0.94583 0.30095 0.08465
 H400 H 0.91392 0.29989 0.12514
 H401 H 0.91919 0.22536 0.12621
 H402 H 0.95100 0.22624 0.08665
 H403 H 0.88186 0.27753 0.15027
 H404 H 0.90132 0.23111 0.17551
 H405 H 0.87993 0.21500 0.22223
 H406 H 0.84261 0.20601 0.24778
 H407 H 0.80920 0.25924 0.18782
 H408 H 0.84608 0.26817 0.16174
 C409 C 0.43884 0.78886 0.57449
 C410 C 0.41873 0.78946 0.59425
 C411 C 0.40937 0.76898 0.60656
 C412 C 0.42066 0.74778 0.59874
 C413 C 0.44074 0.74718 0.57895
 C414 C 0.44993 0.76768 0.56630
 C415 C 0.38699 0.77020 0.62509
 C416 C 0.37997 0.75350 0.64599
 C417 C 0.35660 0.75294 0.66164
 C418 C 0.35296 0.73721 0.68808
 C419 C 0.33080 0.73404 0.70108
 C420 C 0.31179 0.74663 0.68801
 C421 C 0.31533 0.76280 0.66223
 C422 C 0.33751 0.76596 0.64909
 H423 H 0.44540 0.80497 0.56502
 H424 H 0.41027 0.80599 0.59960
 H425 H 0.41366 0.73153 0.60671
 H426 H 0.44873 0.73056 0.57289
 H427 H 0.37618 0.78552 0.62132
 H428 H 0.39180 0.73929 0.65200
 H429 H 0.36724 0.72681 0.69805
 H430 H 0.32832 0.72124 0.72067
 H431 H 0.30075 0.77227 0.65133
 H432 H 0.33930 0.77778 0.62815
 C433 C 0.07096 0.71389 0.06053
 C434 C 0.09180 0.71317 0.07838
 C435 C 0.10015 0.73319 0.09347
 C436 C 0.08718 0.75400 0.09050
 C437 C 0.06649 0.75478 0.07235
 C438 C 0.05827 0.73480 0.05687
 C439 C 0.12327 0.73234 0.10949
 C440 C 0.12924 0.74676 0.13426
 C441 C 0.15310 0.74803 0.14748
 C442 C 0.15646 0.75671 0.18018
 C443 C 0.17876 0.76039 0.19219
 C444 C 0.19804 0.75566 0.17151
 C445 C 0.19483 0.74673 0.13899
 C446 C 0.17256 0.74284 0.12706
 H447 H 0.06516 0.69823 0.04869
 H448 H 0.10160 0.69699 0.08003
 H449 H 0.09340 0.76992 0.10096
 H450 H 0.05717 0.77117 0.06985
 H451 H 0.13563 0.71933 0.10058
 H452 H 0.11620 0.75817 0.14547
 H453 H 0.14176 0.76110 0.19620
 H454 H 0.18096 0.76765 0.21717
 H455 H 0.20956 0.74339 0.12254
 H456 H 0.17063 0.73681 0.10137
 C457 C 0.55800 0.21746 0.58707
 C458 C 0.57700 0.21660 0.60884
 C459 C 0.58717 0.23698 0.61982
 C460 C 0.57784 0.25835 0.60854
 C461 C 0.55888 0.25921 0.58665
 C462 C 0.54886 0.23877 0.57542
 C463 C 0.60839 0.23521 0.64082
 C464 C 0.61540 0.25228 0.66094
 C465 C 0.63775 0.25178 0.67940
 C466 C 0.64078 0.26782 0.70552
 C467 C 0.66230 0.26992 0.72100
 C468 C 0.68125 0.25599 0.71072
 C469 C 0.67821 0.23947 0.68532
 C470 C 0.65668 0.23735 0.66975
 H471 H 0.55077 0.20137 0.57881
 H472 H 0.58394 0.19992 0.61687
 H473 H 0.58559 0.27444 0.61551
 H474 H 0.55238 0.27589 0.57796
 H475 H 0.61826 0.21908 0.63981
 H476 H 0.60432 0.26749 0.66424
 H477 H 0.62662 0.27927 0.71329
 H478 H 0.66441 0.28302 0.74020
 H479 H 0.69280 0.22898 0.67646
 H480 H 0.65537 0.22523 0.64912
 C481 C 0.71362 0.05449 0.93526
 C482 C 0.71272 0.07361 0.91365
 C483 C 0.73294 0.08187 0.89882
 C484 C 0.75419 0.07053 0.90607
 C485 C 0.75513 0.05143 0.92772
 C486 C 0.73489 0.04325 0.94294
 C487 C 0.73144 0.10328 0.87814
 C488 C 0.74742 0.10882 0.85507
 C489 C 0.74800 0.13139 0.83717
 C490 C 0.76340 0.13356 0.80987
 C491 C 0.76699 0.15507 0.79504
 C492 C 0.75514 0.17485 0.80707
 C493 C 0.73906 0.17273 0.83341
 C494 C 0.73550 0.15121 0.84841
 H495 H 0.69760 0.04881 0.94639
 H496 H 0.69616 0.08214 0.90876
 H497 H 0.77029 0.07677 0.89608
 H498 H 0.77187 0.04341 0.93304
 H499 H 0.71652 0.11461 0.88222
 H500 H 0.76112 0.09637 0.84908
 H501 H 0.77335 0.11869 0.80079
 H502 H 0.77973 0.15647 0.77505
 H503 H 0.73016 0.18793 0.84349
 H504 H 0.72389 0.15059 0.86982
 C505 C 0.22080 0.56195 0.39642
 C506 C 0.22203 0.58105 0.37479
 C507 C 0.24158 0.59483 0.37487
 C508 C 0.26039 0.58855 0.39568
 C509 C 0.25933 0.56931 0.41684
 C510 C 0.23938 0.55602 0.41788
 C511 C 0.24218 0.61567 0.35326
 C512 C 0.25166 0.63513 0.36420
 C513 C 0.25346 0.65637 0.34364
 C514 C 0.25518 0.67755 0.36047
 C515 C 0.25940 0.69773 0.34245
 C516 C 0.26223 0.69710 0.30721
 C517 C 0.26011 0.67601 0.29013
 C518 C 0.25560 0.65579 0.30817
 H519 H 0.20527 0.55193 0.39651
 H520 H 0.20745 0.58544 0.35867
 H521 H 0.27595 0.59852 0.39559
 H522 H 0.27396 0.56515 0.43297
 H523 H 0.23364 0.61532 0.32894
 H524 H 0.25797 0.63582 0.38996
 H525 H 0.25376 0.67840 0.38778
 H526 H 0.26123 0.71377 0.35612
 H527 H 0.26280 0.67508 0.26304
 H528 H 0.25497 0.63965 0.29451
 C529 C 0.27708 0.94636 0.90294
 C530 C 0.27704 0.92747 0.88093
 C531 C 0.25617 0.91794 0.87063
 C532 C 0.23522 0.92780 0.88281
 C533 C 0.23526 0.94662 0.90495
 C534 C 0.25619 0.95598 0.91553
 C535 C 0.25693 0.89678 0.84944
 C536 C 0.23935 0.89053 0.82968
 C537 C 0.23873 0.86824 0.81118
 C538 C 0.22259 0.86602 0.78501
 C539 C 0.21942 0.84467 0.76950
 C540 C 0.23236 0.82508 0.77982
 C541 C 0.24894 0.82729 0.80534
 C542 C 0.25215 0.84866 0.82090
 H543 H 0.29352 0.95307 0.91072
 H544 H 0.29341 0.92010 0.87221
 H545 H 0.21878 0.92054 0.87637
 H546 H 0.21887 0.95350 0.91437
 H547 H 0.27268 0.88626 0.85003
 H548 H 0.22457 0.90223 0.82674
 H549 H 0.21189 0.88071 0.77720
 H550 H 0.20629 0.84323 0.75020
 H551 H 0.25865 0.81223 0.81425
 H552 H 0.26428 0.84938 0.84159
 C553 C 0.78079 0.42941 0.43841
 C554 C 0.78219 0.40948 0.41846
 C555 C 0.76209 0.39964 0.40575
 C556 C 0.74048 0.41015 0.41350
 C557 C 0.73908 0.43002 0.43345
 C558 C 0.75919 0.43977 0.44637
 C559 C 0.76410 0.37761 0.38674
 C560 C 0.74786 0.37069 0.36513
 C561 C 0.74792 0.34761 0.34885
 C562 C 0.73267 0.34420 0.32185
 C563 C 0.73013 0.32225 0.30804
 C564 C 0.74287 0.30329 0.32087
 C565 C 0.75853 0.30659 0.34729
 C566 C 0.76105 0.32856 0.36125
 H567 H 0.79660 0.43643 0.44812
 H568 H 0.79901 0.40160 0.41318
 H569 H 0.72452 0.40270 0.40527
 H570 H 0.72216 0.43745 0.43935
 H571 H 0.77955 0.36703 0.39070
 H572 H 0.73358 0.38240 0.35898
 H573 H 0.72220 0.35846 0.31200
 H574 H 0.71776 0.31990 0.28790
 H575 H 0.76814 0.29200 0.35789
 H576 H 0.77250 0.33019 0.38260
 C577 C 0.05104 0.24195 0.92279
 C578 C 0.06851 0.24112 0.89840
 C579 C 0.07893 0.26138 0.88736
 C580 C 0.07080 0.28275 0.90036
 C581 C 0.05321 0.28360 0.92479
 C582 C 0.04337 0.26316 0.93660
 C583 C 0.09829 0.25915 0.86276
 C584 C 0.11449 0.27505 0.85841
 C585 C 0.13562 0.27060 0.83774
 C586 C 0.15595 0.28197 0.84617
 C587 C 0.17684 0.27626 0.82990
 C588 C 0.17764 0.25927 0.80466
 C589 C 0.15718 0.24876 0.79488
 C590 C 0.13629 0.25453 0.81100
 H591 H 0.04374 0.22589 0.93112
 H592 H 0.07427 0.22444 0.88864
 H593 H 0.07787 0.29884 0.89179
 H594 H 0.04752 0.30023 0.93474
 H595 H 0.10037 0.24263 0.85019
 H596 H 0.11370 0.29077 0.87317
 H597 H 0.15589 0.29455 0.86643
 H598 H 0.19254 0.28440 0.83791
 H599 H 0.15754 0.23565 0.77536
 H600 H 0.12085 0.24606 0.80280
 C601 C 0.56544 0.78378 0.42739
 C602 C 0.58531 0.78309 0.40714
 C603 C 0.59535 0.76191 0.39682
 C604 C 0.58507 0.74132 0.40731
 C605 C 0.56525 0.74200 0.42767
 C606 C 0.55529 0.76322 0.43814
 C607 C 0.61727 0.76189 0.37718
 C608 C 0.62417 0.74438 0.35701
 C609 C 0.64693 0.74295 0.33953
 C610 C 0.64991 0.72699 0.31305
 C611 C 0.67161 0.72310 0.29823
 C612 C 0.69081 0.73513 0.30953
 C613 C 0.68790 0.75151 0.33540
 C614 C 0.66616 0.75543 0.35031
 H615 H 0.55829 0.80043 0.43514
 H616 H 0.59299 0.79919 0.39971
 H617 H 0.59267 0.72462 0.40086
 H618 H 0.55799 0.72585 0.43574
 H619 H 0.62771 0.77704 0.37912
 H620 H 0.61259 0.73032 0.35277
 H621 H 0.63551 0.71700 0.30443
 H622 H 0.67362 0.71013 0.27864
 H623 H 0.70266 0.76054 0.34499
 H624 H 0.66485 0.76739 0.37124
 C625 C 0.93874 0.76386 0.93295
 C626 C 0.91737 0.76521 0.91665
 C627 C 0.90699 0.74522 0.90480
 C628 C 0.91849 0.72374 0.90915
 C629 C 0.93968 0.72228 0.92612
 C630 C 0.94995 0.74231 0.93872
 C631 C 0.88345 0.74720 0.89056
 C632 C 0.87584 0.73359 0.86587
 C633 C 0.85215 0.73664 0.85244
 C634 C 0.84848 0.73669 0.81741
 C635 C 0.82640 0.74153 0.80439
 C636 C 0.80750 0.74549 0.82628
 C637 C 0.81109 0.74444 0.86137
 C638 C 0.83322 0.74016 0.87434
 H639 H 0.94598 0.77971 0.94216
 H640 H 0.90876 0.78194 0.91365
 H641 H 0.91068 0.70799 0.90074
 H642 H 0.94773 0.70537 0.92994
 H643 H 0.87224 0.76114 0.89985
 H644 H 0.88754 0.72121 0.85375
 H645 H 0.86288 0.73400 0.80014
 H646 H 0.82416 0.74277 0.77726
 H647 H 0.79681 0.74747 0.87875
 H648 H 0.83558 0.73980 0.90150
 C649 C 0.44031 0.22050 0.42677
 C650 C 0.42181 0.22077 0.40409
 C651 C 0.41276 0.24171 0.39121
 C652 C 0.42264 0.26249 0.40163
 C653 C 0.44114 0.26221 0.42433
 C654 C 0.45008 0.24123 0.43735
 C655 C 0.39216 0.24126 0.36892
 C656 C 0.38621 0.25847 0.34763
 C657 C 0.36460 0.25933 0.32740
 C658 C 0.36268 0.27553 0.30102
 C659 C 0.34192 0.27874 0.28348
 C660 C 0.32264 0.26573 0.29186
 C661 C 0.32453 0.24914 0.31761
 C662 C 0.34529 0.24594 0.33530
 H663 H 0.44672 0.20402 0.43639
 H664 H 0.41442 0.20454 0.39677
 H665 H 0.41574 0.27906 0.39324
 H666 H 0.44813 0.27850 0.43220
 H667 H 0.38190 0.22594 0.36992
 H668 H 0.39772 0.27275 0.34454
 H669 H 0.37714 0.28620 0.29454
 H670 H 0.34065 0.29188 0.26399
 H671 H 0.30963 0.23935 0.32493
 H672 H 0.34567 0.23375 0.35600
 C673 C 0.74993 0.94335 0.91274
 C674 C 0.74946 0.92520 0.88968
 C675 C 0.73112 0.90989 0.88985
 C676 C 0.71236 0.91405 0.91202
 C677 C 0.71267 0.93250 0.93487
 C678 C 0.73181 0.94687 0.93606
 C679 C 0.73294 0.88933 0.86777
 C680 C 0.72441 0.86888 0.87657
 C681 C 0.73063 0.84713 0.85861
 C682 C 0.73036 0.82631 0.87681
 C683 C 0.73784 0.80561 0.86174
 C684 C 0.74542 0.80534 0.82805
 C685 C 0.74520 0.82596 0.80943
 C686 C 0.73768 0.84669 0.82445
 H687 H 0.76477 0.95435 0.91281
 H688 H 0.76399 0.92250 0.87263
 H689 H 0.69764 0.90292 0.91208
 H690 H 0.69843 0.93496 0.95247
 H691 H 0.74436 0.89038 0.84612
 H692 H 0.71487 0.86746 0.90006
 H693 H 0.72495 0.82615 0.90306
 H694 H 0.73793 0.78981 0.87643
 H695 H 0.75098 0.82598 0.78334
 H696 H 0.73747 0.86223 0.80926
 C697 C 0.26532 0.45013 0.40523
 C698 C 0.26843 0.43233 0.38178
 C699 C 0.24937 0.42152 0.36751
 C700 C 0.22695 0.42951 0.37644
 C701 C 0.22382 0.44742 0.39996
 C702 C 0.24299 0.45775 0.41489
 C703 C 0.25395 0.40203 0.34384
 C704 C 0.23858 0.38586 0.33631
 C705 C 0.24489 0.36482 0.31649
 C706 C 0.23259 0.34460 0.32218
 C707 C 0.23954 0.32381 0.30674
 C708 C 0.25875 0.32298 0.28499
 C709 C 0.27037 0.34335 0.27791
 C710 C 0.26339 0.36415 0.29321
 H711 H 0.28049 0.45777 0.41605
 H712 H 0.28589 0.42669 0.37522
 H713 H 0.21178 0.42214 0.36533
 H714 H 0.20639 0.45305 0.40666
 H715 H 0.27152 0.39991 0.33468
 H716 H 0.22156 0.38669 0.34771
 H717 H 0.21817 0.34466 0.33973
 H718 H 0.23049 0.30819 0.31274
 H719 H 0.28521 0.34301 0.26110
 H720 H 0.27276 0.37952 0.28707
 C721 C 0.22533 0.06449 0.91667
 C722 C 0.22207 0.08493 0.89844
 C723 C 0.24093 0.09612 0.88429
 C724 C 0.26325 0.08624 0.88804
 C725 C 0.26664 0.06593 0.90688
 C726 C 0.24774 0.05502 0.92205
 C727 C 0.23690 0.11909 0.86883
 C728 C 0.24945 0.12726 0.84320
 C729 C 0.24491 0.15076 0.82978
 C730 C 0.24497 0.15467 0.79476
 C731 C 0.23970 0.17673 0.78190
 C732 C 0.23516 0.19532 0.80398
 C733 C 0.23559 0.19144 0.83900
 C734 C 0.24037 0.16938 0.85180
 H735 H 0.21027 0.05668 0.92770
 H736 H 0.20473 0.09229 0.89592
 H737 H 0.27818 0.09474 0.87784
 H738 H 0.28413 0.05919 0.91032
 H739 H 0.22245 0.12948 0.87846
 H740 H 0.26238 0.11628 0.83087
 H741 H 0.24845 0.14054 0.77740
 H742 H 0.23906 0.17930 0.75478
 H743 H 0.23209 0.20553 0.85644
 H744 H 0.24064 0.16689 0.87895
 C745 C 0.73372 0.54489 0.41923
 C746 C 0.73314 0.56245 0.39507
 C747 C 0.75338 0.57368 0.38578
 C748 C 0.77455 0.56613 0.40012
 C749 C 0.77513 0.54848 0.42439
 C750 C 0.75464 0.53796 0.43462
 C751 C 0.75121 0.59342 0.36192
 C752 C 0.76689 0.60995 0.35881
 C753 C 0.76244 0.63160 0.33943
 C754 C 0.77468 0.65132 0.34824
 C755 C 0.76936 0.67266 0.33321
 C756 C 0.75184 0.67460 0.30888
 C757 C 0.74029 0.65482 0.29883
 C758 C 0.74570 0.63343 0.31365
 H759 H 0.71762 0.53705 0.42629
 H760 H 0.71662 0.56771 0.38425
 H761 H 0.79068 0.57377 0.39290
 H762 H 0.79157 0.54334 0.43553
 H763 H 0.73482 0.59546 0.34902
 H764 H 0.78252 0.60895 0.37374
 H765 H 0.78777 0.65041 0.36776
 H766 H 0.77836 0.68783 0.34137
 H767 H 0.72680 0.65605 0.27992
 H768 H 0.73650 0.61855 0.30505
 C769 C 0.05659 0.71690 0.90844
 C770 C 0.07427 0.71695 0.88417
 C771 C 0.08295 0.73782 0.87215
 C772 C 0.07340 0.75873 0.88468
 C773 C 0.05584 0.75872 0.90894
 C774 C 0.04742 0.73782 0.92164
 C775 C 0.10329 0.73728 0.84918
 C776 C 0.10860 0.75503 0.82899
 C777 C 0.13079 0.75675 0.81034
 C778 C 0.13248 0.77364 0.78499
 C779 C 0.15375 0.77803 0.76977
 C780 C 0.17373 0.76554 0.77955
 C781 C 0.17208 0.74826 0.80425
 C782 C 0.15082 0.74386 0.81954
 H783 H 0.05062 0.70043 0.91749
 H784 H 0.08147 0.70061 0.87517
 H785 H 0.08006 0.77520 0.87698
 H786 H 0.04936 0.77522 0.91839
 H787 H 0.11426 0.72185 0.84948
 H788 H 0.09637 0.76940 0.82641
 H789 H 0.11743 0.78399 0.77766
 H790 H 0.15477 0.79164 0.75105
 H791 H 0.18744 0.73883 0.81266
 H792 H 0.15053 0.73120 0.83962
 C793 C 0.55346 0.25818 0.41902
 C794 C 0.57151 0.25811 0.39564
 C795 C 0.58426 0.23774 0.38859
 C796 C 0.57779 0.21704 0.40434
 C797 C 0.55953 0.21709 0.42774
 C798 C 0.54749 0.23778 0.43577
 C799 C 0.60440 0.23937 0.36553
 C800 C 0.62247 0.22434 0.36539
 C801 C 0.64437 0.22896 0.34720
 C802 C 0.66499 0.21854 0.35916
 C803 C 0.68630 0.22446 0.34538
 C804 C 0.68729 0.24081 0.31931
 C805 C 0.66676 0.25044 0.30612
 C806 C 0.64543 0.24437 0.31963
 H807 H 0.54437 0.27439 0.42429
 H808 H 0.57594 0.27426 0.38370
 H809 H 0.58674 0.20083 0.39882
 H810 H 0.55516 0.20106 0.44003
 H811 H 0.60536 0.25510 0.35090
 H812 H 0.62244 0.20955 0.38212
 H813 H 0.66469 0.20648 0.38010
 H814 H 0.70208 0.21689 0.35578
 H815 H 0.66731 0.26293 0.28573
 H816 H 0.62995 0.25205 0.30864
 C817 C 0.93466 0.28299 0.93355
 C818 C 0.91553 0.28210 0.91206
 C819 C 0.90714 0.26080 0.90139
 C820 C 0.91824 0.24033 0.91284
 C821 C 0.93731 0.24121 0.93429
 C822 C 0.94567 0.26253 0.94508
 C823 C 0.88592 0.26048 0.88041
 C824 C 0.88050 0.24251 0.86082
 C825 C 0.85822 0.24059 0.84263
 C826 C 0.85654 0.22369 0.81736
 C827 C 0.83539 0.21964 0.80179
 C828 C 0.81550 0.23250 0.81113
 C829 C 0.81709 0.24963 0.83599
 C830 C 0.83823 0.25367 0.85166
 H831 H 0.94061 0.29969 0.94152
 H832 H 0.90714 0.29811 0.90394
 H833 H 0.91187 0.22354 0.90628
 H834 H 0.94525 0.22512 0.94293
 H835 H 0.87466 0.27569 0.88113
 H836 H 0.89291 0.22833 0.85777
 H837 H 0.87156 0.21320 0.81015
 H838 H 0.83440 0.20615 0.78295
 H839 H 0.80178 0.25934 0.84405
 H840 H 0.83849 0.26634 0.87169
 C841 C 0.44310 0.74043 0.42883
 C842 C 0.42337 0.73929 0.40888
 C843 C 0.41532 0.75866 0.39077
 C844 C 0.42762 0.77923 0.39239
 C845 C 0.44722 0.78053 0.41298
 C846 C 0.45494 0.76119 0.43177
 C847 C 0.39294 0.75726 0.37325
 C848 C 0.38772 0.76849 0.34456
 C849 C 0.36505 0.76544 0.32838
 C850 C 0.36378 0.76087 0.29362
 C851 C 0.34266 0.75524 0.27899
 C852 C 0.32246 0.75486 0.29879
 C853 C 0.32362 0.76051 0.33322
 C854 C 0.34471 0.76573 0.34791
 H855 H 0.44849 0.72525 0.44310
 H856 H 0.41409 0.72330 0.40809
 H857 H 0.42151 0.79455 0.37907
 H858 H 0.45597 0.79677 0.41487
 H859 H 0.38055 0.74546 0.38371
 H860 H 0.40066 0.77842 0.33163
 H861 H 0.37930 0.76055 0.27819
 H862 H 0.34215 0.75057 0.25248
 H863 H 0.30824 0.76028 0.34891
 H864 H 0.34523 0.76957 0.37469
 C865 C 0.24435 0.95019 0.07525
 C866 C 0.24541 0.93128 0.09710
 C867 C 0.26484 0.91628 0.09727
 C868 C 0.28385 0.92127 0.07644
 C869 C 0.28292 0.94047 0.05486
 C870 C 0.26294 0.95479 0.05355
 C871 C 0.26427 0.89544 0.11886
 C872 C 0.27469 0.87532 0.11024
 C873 C 0.27056 0.85357 0.12878
 C874 C 0.27129 0.83265 0.11085
 C875 C 0.26560 0.81202 0.12684
 C876 C 0.25954 0.81195 0.16119
 C877 C 0.25953 0.83267 0.17950
 C878 C 0.26513 0.85331 0.16352
 H879 H 0.22881 0.96106 0.07503
 H880 H 0.23065 0.92791 0.11314
 H881 H 0.29934 0.91036 0.07667
 H882 H 0.29754 0.94370 0.03850
 H883 H 0.25263 0.89604 0.14036
 H884 H 0.28439 0.87413 0.08681
 H885 H 0.27552 0.83239 0.08414
 H886 H 0.26561 0.79616 0.11235
 H887 H 0.25482 0.83288 0.20604
 H888 H 0.26505 0.86900 0.17836
 C889 C 0.72978 0.44110 0.59702
 C890 C 0.72827 0.42364 0.62118
 C891 C 0.74822 0.41183 0.63272
 C892 C 0.76995 0.41865 0.62074
 C893 C 0.77148 0.43625 0.59657
 C894 C 0.75136 0.44735 0.58401
 C895 C 0.74531 0.39228 0.65645
 C896 C 0.76069 0.37464 0.65967
 C897 C 0.75563 0.35331 0.67883
 C898 C 0.76697 0.33255 0.66932
 C899 C 0.76108 0.31166 0.68437
 C900 C 0.74395 0.31124 0.70951
 C901 C 0.73325 0.33201 0.72011
 C902 C 0.73918 0.35292 0.70518
 H903 H 0.71394 0.44944 0.58813
 H904 H 0.71134 0.41891 0.63020
 H905 H 0.78578 0.41048 0.62982
 H906 H 0.78837 0.44084 0.58726
 H907 H 0.72868 0.39131 0.66890
 H908 H 0.77646 0.37457 0.64488
 H909 H 0.77980 0.33236 0.64929
 H910 H 0.76938 0.29573 0.67572
 H911 H 0.72003 0.33194 0.73958
 H912 H 0.73065 0.36861 0.71413
 C913 C 0.77084 0.04984 0.08034
 C914 C 0.77459 0.06893 0.10075
 C915 C 0.75638 0.07928 0.11915
 C916 C 0.73423 0.06991 0.11724
 C917 C 0.73036 0.05088 0.09632
 C918 C 0.74860 0.04086 0.07731
 C919 C 0.76081 0.10094 0.13733
 C920 C 0.74931 0.10796 0.16505
 C921 C 0.75442 0.13020 0.18131
 C922 C 0.75464 0.13195 0.21670
 C923 C 0.76040 0.15273 0.23223
 C924 C 0.76532 0.17218 0.21249
 C925 C 0.76464 0.17052 0.17715
 C926 C 0.75922 0.14976 0.16168
 H927 H 0.78528 0.04261 0.06599
 H928 H 0.79176 0.07593 0.10171
 H929 H 0.71973 0.07783 0.13065
 H930 H 0.71304 0.04439 0.09440
 H931 H 0.77483 0.11124 0.12793
 H932 H 0.73691 0.09685 0.17695
 H933 H 0.75091 0.11710 0.23227
 H934 H 0.76105 0.15368 0.25957
 H935 H 0.76831 0.18538 0.16154
 H936 H 0.75863 0.14906 0.13433
 C937 C 0.20867 0.56688 0.56049
 C938 C 0.20766 0.58623 0.58174
 C939 C 0.22772 0.59420 0.59730
 C940 C 0.24886 0.58224 0.59134
 C941 C 0.24988 0.56298 0.57016
 C942 C 0.22988 0.55524 0.55411
 C943 C 0.22646 0.61602 0.61705
 C944 C 0.24239 0.62160 0.64007
 C945 C 0.24377 0.64458 0.65655
 C946 C 0.25922 0.64693 0.68361
 C947 C 0.26327 0.66860 0.69753
 C948 C 0.25181 0.68838 0.68481
 C949 C 0.23594 0.68616 0.65835
 C950 C 0.23194 0.66448 0.64427
 H951 H 0.19298 0.56144 0.54836
 H952 H 0.19120 0.59524 0.58559
 H953 H 0.26490 0.58816 0.60177
 H954 H 0.26654 0.55453 0.56563
 H955 H 0.21200 0.62773 0.61201
 H956 H 0.25554 0.60883 0.64705
 H957 H 0.26873 0.63200 0.69342
 H958 H 0.27577 0.67004 0.71770
 H959 H 0.22729 0.70135 0.64782
 H960 H 0.22035 0.66371 0.62296
 C961 C 0.94863 0.76321 0.08008
 C962 C 0.92934 0.76480 0.10122
 C963 C 0.91957 0.74487 0.11450
 C964 C 0.92991 0.72318 0.10709
 C965 C 0.94913 0.72154 0.08543
 C966 C 0.95838 0.74155 0.07115
 C967 C 0.89728 0.74736 0.13261
 C968 C 0.89005 0.73287 0.15658
 C969 C 0.86700 0.73641 0.17226
 C970 C 0.86429 0.73481 0.20746
 C971 C 0.84285 0.74025 0.22251
 C972 C 0.82375 0.74666 0.20237
 C973 C 0.82631 0.74728 0.16710
 C974 C 0.84770 0.74224 0.15218
 H975 H 0.95526 0.77899 0.06953
 H976 H 0.92162 0.78168 0.10648
 H977 H 0.92249 0.70746 0.11651
 H978 H 0.95622 0.70461 0.07894
 H979 H 0.88643 0.76231 0.12627
 H980 H 0.90142 0.71915 0.16594
 H981 H 0.87896 0.73028 0.22333
 H982 H 0.84127 0.73997 0.24981
 H983 H 0.81178 0.75217 0.15116
 H984 H 0.84925 0.74314 0.12490
 C985 C 0.43814 0.26967 0.57762
 C986 C 0.41769 0.27244 0.59602
 C987 C 0.40737 0.25341 0.61108
 C988 C 0.41818 0.23143 0.60806
 C989 C 0.43857 0.22856 0.58907
 C990 C 0.44854 0.24764 0.57321
 C991 C 0.38437 0.25698 0.62677
 C992 C 0.37655 0.24465 0.65284
 C993 C 0.35332 0.24970 0.66711
 C994 C 0.35009 0.25058 0.70228
 C995 C 0.32857 0.25739 0.71585
 C996 C 0.30986 0.26269 0.69437
 C997 C 0.31291 0.26097 0.65926
 C998 C 0.33442 0.25453 0.64574
 H999 H 0.44527 0.28475 0.56570
 H1000 H 0.40963 0.28951 0.59792
 H1001 H 0.41035 0.21637 0.61896
 H1002 H 0.44616 0.21138 0.58601
 H1003 H 0.37373 0.27122 0.61717
 H1004 H 0.38775 0.23197 0.66522
 H1005 H 0.36444 0.24689 0.71915
 H1006 H 0.32659 0.25890 0.74301
 H1007 H 0.29868 0.26498 0.64231
 H1008 H 0.33635 0.25353 0.61852
 C1009 C 0.05622 0.28474 0.09062
 C1010 C 0.07625 0.28477 0.11044
 C1011 C 0.09016 0.26467 0.11363
 C1012 C 0.08307 0.24419 0.09825
 C1013 C 0.06294 0.24406 0.07892
 C1014 C 0.04952 0.26441 0.07433
 C1015 C 0.11215 0.26525 0.13258
 C1016 C 0.13110 0.25377 0.12143
 C1017 C 0.15358 0.25323 0.13913
 C1018 C 0.17371 0.24920 0.11994
 C1019 C 0.19512 0.24624 0.13571
 C1020 C 0.19680 0.24696 0.17107
 C1021 C 0.17675 0.25128 0.19044
 C1022 C 0.15528 0.25457 0.17458
 H1023 H 0.04613 0.30065 0.08773
 H1024 H 0.08129 0.30068 0.12239
 H1025 H 0.09314 0.22827 0.10104
 H1026 H 0.05822 0.22809 0.06687
 H1027 H 0.11304 0.27625 0.15464
 H1028 H 0.13040 0.24483 0.09739
 H1029 H 0.17281 0.24792 0.09264
 H1030 H 0.21035 0.24271 0.12035
 H1031 H 0.17764 0.25136 0.21779
 H1032 H 0.13998 0.25706 0.19012
 C1033 C 0.55103 0.74681 0.59754
 C1034 C 0.56876 0.74580 0.62134
 C1035 C 0.58409 0.76399 0.62429
 C1036 C 0.58046 0.78396 0.60446
 C1037 C 0.56245 0.78511 0.58089
 C1038 C 0.54797 0.76627 0.57662
 C1039 C 0.60410 0.76097 0.64722
 C1040 C 0.62478 0.76982 0.64048
 C1041 C 0.64595 0.76296 0.65935
 C1042 C 0.66728 0.76307 0.64234
 C1043 C 0.68744 0.75503 0.65833
 C1044 C 0.68663 0.74713 0.69180
 C1045 C 0.66551 0.74761 0.70931
 C1046 C 0.64531 0.75558 0.69330
 H1047 H 0.53995 0.73213 0.59507
 H1048 H 0.57107 0.73034 0.63656
 H1049 H 0.59163 0.79856 0.60684
 H1050 H 0.56038 0.80037 0.56521
 H1051 H 0.60247 0.74866 0.66765
 H1052 H 0.62690 0.78025 0.61798
 H1053 H 0.66824 0.76875 0.61627
 H1054 H 0.70365 0.75475 0.64454
 H1055 H 0.66469 0.74161 0.73524
 H1056 H 0.62929 0.75589 0.70752
   
