data_POSCAR
  _audit_creation_date              2014-09-24
  _audit_creation_method            'ToBaCCo'
  _symmetry_space_group_name_H-M    'P1'
  _symmetry_Int_Tables_number       1
  _symmetry_cell_setting            triclinic
  loop_
  _symmetry_equiv_pos_as_xyz
 x,y,z
_cell_length_a 20.5662
_cell_length_b 22.4307
_cell_length_c 10.0088
_cell_angle_alpha 89.219500
_cell_angle_beta 89.732500
_cell_angle_gamma 89.841000
loop_
  _atom_site_label
  _atom_site_type_symbol
  _atom_site_fract_x
  _atom_site_fract_y
  _atom_site_fract_z
C1 C 1.30595 0.20042 0.35081
 C2 C 1.24850 0.23216 0.34086
 C3 C 1.19287 0.20840 0.27488
 C4 C 1.19552 0.15341 0.21378
 C5 C 1.25837 0.12440 0.21369
 C6 C 1.31449 0.14866 0.28156
 C7 C 1.25172 0.29487 0.37567
 C8 C 1.30282 0.32819 0.31890
 C9 C 1.28911 0.37746 0.23568
 C10 C 1.22270 0.39035 0.21216
 C11 C 1.17388 0.36065 0.28983
 C12 C 1.19252 0.32148 0.39022
 H13 H 1.34557 0.21843 0.40881
 H14 H 1.14706 0.23222 0.27128
 H15 H 1.35184 0.31062 0.32272
 H16 H 1.15649 0.29908 0.45231
 H17 H 1.26220 0.08125 0.16722
 H18 H 1.20938 0.42472 0.14032
 C19 C 0.80761 -0.32669 0.41083
 C20 C 0.74748 -0.30066 0.40444
 C21 C 0.69546 -0.33651 0.36184
 C22 C 0.70822 -0.38260 0.27217
 C23 C 0.77340 -0.39112 0.23315
 C24 C 0.82433 -0.36348 0.30572
 C25 C 0.74953 -0.23918 0.35196
 C26 C 0.80627 -0.21529 0.28607
 C27 C 0.80409 -0.16130 0.21693
 C28 C 0.74120 -0.13263 0.21155
 C29 C 0.68445 -0.15625 0.27927
 C30 C 0.69124 -0.20811 0.35183
 H31 H 0.84487 -0.30382 0.46603
 H32 H 0.64572 -0.32231 0.37736
 H33 H 0.85286 -0.23771 0.28947
 H34 H 0.65044 -0.22482 0.40989
 H35 H 0.78423 -0.42111 0.15210
 H36 H 0.73760 -0.08961 0.16188
 C37 C 0.80846 0.20905 -0.26939
 C38 C 0.75278 0.23400 -0.33567
 C39 C 0.69513 0.20291 -0.34396
 C40 C 0.68806 0.14898 -0.28024
 C41 C 0.74435 0.12286 -0.21561
 C42 C 0.80651 0.15241 -0.21202
 C43 C 0.75140 0.29603 -0.38136
 C44 C 0.81151 0.32071 -0.39764
 C45 C 0.83019 0.36132 -0.30244
 C46 C 0.78074 0.39281 -0.23107
 C47 C 0.71469 0.38329 -0.26153
 C48 C 0.70037 0.33250 -0.33573
 H49 H 0.85409 0.23280 -0.26450
 H50 H 0.65484 0.22163 -0.40013
 H51 H 0.84744 0.29605 -0.45448
 H52 H 0.65078 0.31665 -0.33820
 H53 H 0.74083 0.07831 -0.17354
 H54 H 0.79308 0.42598 -0.15862
 C55 C 1.30297 -0.33045 -0.34799
 C56 C 1.25075 -0.29549 -0.39492
 C57 C 1.19107 -0.32179 -0.40326
 C58 C 1.17464 -0.36134 -0.30155
 C59 C 1.22507 -0.38971 -0.22689
 C60 C 1.29074 -0.37744 -0.25758
 C61 C 1.24826 -0.23449 -0.34578
 C62 C 1.30605 -0.20313 -0.35137
 C63 C 1.31505 -0.15389 -0.27457
 C64 C 1.25975 -0.13168 -0.20016
 C65 C 1.19674 -0.16024 -0.20127
 C66 C 1.19318 -0.21258 -0.27289
 H67 H 1.35226 -0.31476 -0.36210
 H68 H 1.15338 -0.29858 -0.45855
 H69 H 1.34517 -0.21848 -0.41534
 H70 H 1.14690 -0.23541 -0.27283
 H71 H 1.21341 -0.42281 -0.15075
 H72 H 1.26436 -0.08982 -0.14870
 C73 C 0.18334 0.30282 0.81415
 C74 C 0.21609 0.24977 0.85518
 C75 C 0.18474 0.19580 0.84545
 C76 C 0.12401 0.19255 0.78973
 C77 C 0.09090 0.24473 0.75068
 C78 C 0.12062 0.30044 0.76204
 C79 C 0.28641 0.24837 0.87944
 C80 C 0.31534 0.30333 0.89202
 C81 C 0.36253 0.31973 0.80081
 C82 C 0.39487 0.27131 0.72758
 C83 C 0.37721 0.20910 0.74855
 C84 C 0.32295 0.19981 0.82963
 H85 H 0.20748 0.34559 0.81281
 H86 H 0.20589 0.15614 0.89083
 H87 H 0.29106 0.33685 0.95135
 H88 H 0.30444 0.15495 0.83661
 H89 H 0.04148 0.24171 0.71392
 H90 H 0.43363 0.28147 0.65762
 C91 C 0.68077 0.80507 0.83430
 C92 C 0.71874 0.75618 0.88036
 C93 C 0.68920 0.70177 0.90362
 C94 C 0.64206 0.68465 0.81475
 C95 C 0.60727 0.73312 0.74344
 C96 C 0.62329 0.79580 0.76252
 C97 C 0.78738 0.75241 0.83801
 C98 C 0.82266 0.80454 0.82464
 C99 C 0.88356 0.80432 0.76590
 C100 C 0.91161 0.75113 0.72369
 C101 C 0.87688 0.69736 0.73486
 C102 C 0.81493 0.69824 0.79160
 H103 H 0.70095 0.84948 0.83416
 H104 H 0.71500 0.66817 0.96185
 H105 H 0.80445 0.84539 0.86788
 H106 H 0.78771 0.65704 0.79272
 H107 H 0.56749 0.72242 0.67763
 H108 H 0.96120 0.75171 0.68645
 C109 C 0.68697 0.30491 0.09107
 C110 C 0.71620 0.24989 0.10283
 C111 C 0.67952 0.20090 0.15371
 C112 C 0.62656 0.20970 0.23909
 C113 C 0.61036 0.27215 0.26210
 C114 C 0.64295 0.32088 0.18818
 C115 C 0.78619 0.25191 0.13313
 C116 C 0.81790 0.30472 0.17636
 C117 C 0.87829 0.30143 0.24032
 C118 C 0.90561 0.24484 0.26385
 C119 C 0.87405 0.19366 0.21925
 C120 C 0.81743 0.19801 0.14815
 H121 H 0.71044 0.33906 0.03045
 H122 H 0.69745 0.15589 0.14415
 H123 H 0.79460 0.34790 0.16915
 H124 H 0.79834 0.15864 0.10048
 H125 H 0.57247 0.28260 0.33349
 H126 H 0.95308 0.24041 0.30965
 C127 C 0.18127 0.80832 0.20320
 C128 C 0.21356 0.75600 0.16967
 C129 C 0.18459 0.70021 0.20443
 C130 C 0.12406 0.69796 0.26785
 C131 C 0.09078 0.75202 0.28902
 C132 C 0.11953 0.80667 0.25853
 C133 C 0.28081 0.76007 0.11626
 C134 C 0.32038 0.80805 0.15746
 C135 C 0.37702 0.79712 0.23096
 C136 C 0.39256 0.73450 0.25097
 C137 C 0.35806 0.68746 0.17910
 C138 C 0.31038 0.70578 0.09138
 H139 H 0.20046 0.85098 0.17077
 H140 H 0.20990 0.65849 0.18979
 H141 H 0.30257 0.85330 0.15183
 H142 H 0.28487 0.67281 0.03346
 H143 H 0.04106 0.75232 0.32591
 H144 H 0.43085 0.72305 0.32020
 O145 O 0.90353 -0.09253 -0.24061
 O146 O 0.96525 -0.15645 -0.11235
 C147 C 0.92254 -0.14533 -0.20167
 O148 O 1.11839 0.08949 -0.19813
 O149 O 1.03866 0.15078 -0.11604
 C150 C 1.09121 0.14178 -0.18037
 O151 O 1.14050 -0.07194 -0.20556
 O152 O 1.08463 -0.14430 -0.08577
 C153 C 1.13505 -0.12558 -0.16289
 O154 O 0.86760 0.06493 -0.22045
 O155 O 0.91746 0.13684 -0.09631
 C156 C 0.86907 0.11821 -0.17593
 Zr157 Zr 0.92907 -0.00577 -0.17393
 O158 O 0.95439 0.00318 -0.37702
 O159 O 0.83183 -0.01630 -0.23870
 Zr160 Zr 1.08762 0.00051 -0.14670
 O161 O 1.09181 -0.00204 -0.35579
 O162 O 1.18987 0.00892 -0.13370
 O163 O 1.01141 -0.05822 -0.18315
 O164 O 1.00654 0.05129 -0.18799
 O165 O 0.88432 0.08840 0.21801
 O166 O 0.95961 0.15082 0.11985
 C167 C 0.90942 0.14085 0.19166
 O168 O 1.10153 -0.09220 0.26002
 O169 O 1.03641 -0.15581 0.14445
 C170 C 1.08167 -0.14507 0.22779
 O171 O 1.13661 0.06547 0.22412
 O172 O 1.08311 0.13791 0.10320
 C173 C 1.13317 0.11922 0.18009
 O174 O 0.85881 -0.07206 0.21692
 O175 O 0.91836 -0.14489 0.11052
 C176 C 0.86616 -0.12621 0.18147
 Zr177 Zr 0.91517 0.00029 0.16541
 O178 O 0.91416 -0.00164 0.37533
 O179 O 0.81286 0.00972 0.16173
 Zr180 Zr 1.07416 -0.00535 0.19078
 O181 O 1.05049 0.00232 0.39446
 O182 O 1.17301 -0.01521 0.24738
 Zr183 Zr 1.00153 -0.09370 0.01223
 Zr184 Zr 1.00048 0.08746 0.00532
 O185 O 0.99599 0.05160 0.20098
 O186 O 0.99223 -0.05801 0.20580
 O187 O 0.90906 0.04795 -0.00734
 O188 O 1.09360 -0.05343 0.02600
 O189 O 0.90963 -0.05303 -0.00539
 O190 O 1.09231 0.04852 0.02122
 H191 H 1.00503 0.07852 -0.26686
 H192 H 1.13525 -0.07458 0.04189
 H193 H 0.99770 0.07925 0.27723
 H194 H 0.86872 -0.07460 -0.02216
 H195 H 1.20102 0.00817 -0.03754
 H196 H 1.17460 -0.01986 0.34634
 H197 H 1.06952 0.04065 0.42248
 H198 H 0.91961 -0.04389 0.40307
 H199 H 0.80021 0.01389 0.06675
 H200 H 0.80448 -0.02458 -0.15878
 H201 H 0.97301 -0.03566 -0.40339
 H202 H 1.13593 0.01197 -0.38088
 O203 O 1.10553 0.40688 0.74521
 O204 O 1.04822 0.34481 0.61007
 C205 C 1.08908 0.35408 0.70448
 O206 O 0.88280 0.58965 0.71137
 O207 O 0.95140 0.65121 0.59533
 C208 C 0.90474 0.64249 0.67799
 O209 O 0.90846 0.42341 0.76726
 O210 O 0.93617 0.35522 0.61478
 C211 C 0.89543 0.37631 0.70361
 O212 O 1.10162 0.56938 0.77095
 O213 O 1.06657 0.63643 0.61304
 C214 C 1.10794 0.61774 0.70446
 Zr215 Zr 1.07596 0.49315 0.67447
 O216 O 1.06694 0.48297 0.88288
 O217 O 1.17856 0.49010 0.68617
 Zr218 Zr 0.91332 0.50086 0.65408
 O219 O 0.88416 0.51236 0.85447
 O220 O 0.81271 0.49292 0.61473
 O221 O 0.99345 0.44401 0.68922
 O222 O 0.99488 0.54905 0.68839
 O223 O 1.11992 0.59214 0.28441
 O224 O 1.04795 0.65152 0.39440
 C225 C 1.09665 0.64454 0.31622
 O226 O 0.89354 0.40835 0.25253
 O227 O 0.95316 0.34537 0.38534
 C228 C 0.91057 0.35513 0.29385
 O229 O 0.89645 0.57255 0.22204
 O230 O 0.93166 0.63759 0.37892
 C231 C 0.88862 0.61911 0.29172
 O232 O 1.09400 0.42642 0.22473
 O233 O 1.06560 0.35648 0.37760
 C234 C 1.10565 0.37781 0.28673
 Zr235 Zr 1.08738 0.50283 0.33657
 O236 O 1.11434 0.51192 0.13369
 O237 O 1.19012 0.50214 0.35594
 Zr238 Zr 0.92554 0.49490 0.31504
 O239 O 0.94911 0.49055 0.11071
 O240 O 0.82435 0.48961 0.28336
 Zr241 Zr 1.00074 0.40903 0.49596
 Zr242 Zr 0.99976 0.58580 0.49539
 O243 O 1.00547 0.55184 0.30221
 O244 O 1.00792 0.44577 0.30154
 O245 O 1.09423 0.54991 0.50864
 O246 O 0.90667 0.44680 0.48581
 O247 O 1.09470 0.44627 0.50507
 O248 O 0.90613 0.54933 0.48193
 H249 H 0.99195 0.57500 0.76763
 H250 H 0.86810 0.42076 0.48029
 H251 H 1.00742 0.57992 0.22502
 H252 H 1.13214 0.41879 0.51233
 H253 H 0.79493 0.53387 0.60689
 H254 H 0.80331 0.50234 0.36720
 H255 H 0.91065 0.47290 0.06796
 H256 H 1.08096 0.53754 0.09100
 H257 H 1.20443 0.46732 0.40923
 H258 H 1.19566 0.51601 0.61362
 H259 H 1.02051 0.48934 0.90442
 H260 H 0.83614 0.51620 0.85662
 O261 O 0.60651 -0.09722 0.73909
 O262 O 0.54603 -0.16015 0.61308
 C263 C 0.58995 -0.15190 0.70313
 O264 O 0.38714 0.09870 0.71287
 O265 O 0.45592 0.16132 0.59967
 C266 C 0.40858 0.15324 0.68280
 O267 O 0.37240 -0.06610 0.74419
 O268 O 0.42342 -0.13791 0.61718
 C269 C 0.37629 -0.11901 0.69984
 O270 O 0.62430 0.06496 0.75279
 O271 O 0.58180 0.13506 0.60634
 C272 C 0.62571 0.11635 0.69666
 Zr273 Zr 0.57551 -0.00658 0.67710
 O274 O 0.55027 -0.01408 0.88093
 O275 O 0.67646 -0.01409 0.71356
 Zr276 Zr 0.41637 0.00662 0.65844
 O277 O 0.41331 0.01188 0.86802
 O278 O 0.31370 0.00866 0.64126
 O279 O 0.49237 -0.05554 0.69383
 O280 O 0.49873 0.05453 0.68979
 O281 O 0.61582 0.09854 0.27834
 O282 O 0.54763 0.16133 0.38960
 C283 C 0.59491 0.15330 0.30661
 O284 O 0.39618 -0.09379 0.25648
 O285 O 0.45374 -0.15837 0.38872
 C286 C 0.41168 -0.14867 0.29516
 O287 O 0.37664 0.06718 0.24207
 O288 O 0.41981 0.13574 0.38592
 C289 C 0.37455 0.11779 0.29849
 O290 O 0.62745 -0.06785 0.25421
 O291 O 0.57642 -0.13923 0.38592
 C292 C 0.62345 -0.12077 0.30207
 Zr293 Zr 0.58619 0.00618 0.33784
 O294 O 0.59362 0.01166 0.12863
 O295 O 0.68862 0.00635 0.36011
 Zr296 Zr 0.42692 -0.00433 0.31861
 O297 O 0.45379 -0.00123 0.11519
 O298 O 0.32626 -0.01246 0.28042
 Zr299 Zr 0.50046 -0.09125 0.49990
 Zr300 Zr 0.50144 0.09153 0.49602
 O301 O 0.50428 0.05545 0.30338
 O302 O 0.50933 -0.05470 0.30473
 O303 O 0.59369 0.05147 0.51031
 O304 O 0.40850 -0.04970 0.49082
 O305 O 0.59320 -0.05133 0.50689
 O306 O 0.40916 0.05261 0.48411
 H307 H 0.49977 0.08307 0.76433
 H308 H 0.36771 -0.07265 0.48180
 H309 H 0.50311 0.08375 0.22646
 H310 H 0.63392 -0.07468 0.51626
 H311 H 0.30180 0.04472 0.58858
 H312 H 0.30350 -0.00477 0.36596
 H313 H 0.45641 -0.04279 0.08351
 H314 H 0.63938 0.02215 0.10742
 H315 H 0.70099 0.04441 0.40188
 H316 H 0.69873 -0.00571 0.62743
 H317 H 0.54469 0.02678 0.91470
 H318 H 0.36804 0.02271 0.89242
 O319 O 0.59483 0.59611 0.24807
 O320 O 0.66824 0.54606 0.11767
 C321 C 0.65404 0.58401 0.20975
 O322 O 0.40001 0.39189 0.20405
 O323 O 0.32863 0.45461 0.09728
 C324 C 0.34101 0.40940 0.17533
 O325 O 0.57510 0.39694 0.26059
 O326 O 0.65020 0.42792 0.10752
 C327 C 0.62621 0.38707 0.19423
 O328 O 0.42467 0.61144 0.25595
 O329 O 0.35528 0.58159 0.09174
 C330 C 0.37560 0.62140 0.18322
 Zr331 Zr 0.50254 0.56701 0.17755
 O332 O 0.50640 0.53699 0.37792
 O333 O 0.51288 0.65840 0.22123
 Zr334 Zr 0.49535 0.42341 0.15407
 O335 O 0.48269 0.41059 0.36191
 O336 O 0.49924 0.33002 0.12430
 O337 O 0.55989 0.49340 0.19143
 O338 O 0.43820 0.49661 0.18667
 O339 O 0.40178 0.61006 -0.22273
 O340 O 0.33012 0.54700 -0.11719
 C341 C 0.34280 0.59186 -0.19594
 O342 O 0.60187 0.40743 -0.24761
 O343 O 0.67212 0.45892 -0.11511
 C344 C 0.66015 0.41956 -0.20546
 O345 O 0.43270 0.39086 -0.27004
 O346 O 0.35854 0.42184 -0.11395
 C347 C 0.38163 0.38138 -0.20196
 O348 O 0.57700 0.61162 -0.26126
 O349 O 0.64986 0.58039 -0.10488
 C350 C 0.62616 0.62200 -0.19063
 Zr351 Zr 0.49662 0.58020 -0.16410
 O352 O 0.49044 0.59064 -0.37353
 O353 O 0.49527 0.67359 -0.13350
 Zr354 Zr 0.50782 0.43644 -0.18612
 O355 O 0.51653 0.46504 -0.38695
 O356 O 0.51905 0.34474 -0.22768
 Zr357 Zr 0.60047 0.50281 -0.00183
 Zr358 Zr 0.40122 0.50124 -0.00798
 O359 O 0.44212 0.50604 -0.20004
 O360 O 0.56372 0.51121 -0.19760
 O361 O 0.44453 0.58473 0.00686
 O362 O 0.55650 0.41807 -0.01470
 O363 O 0.55390 0.58647 0.00945
 O364 O 0.44652 0.41810 -0.01984
 H365 H 0.40638 0.49679 0.26127
 H366 H 0.58070 0.38018 -0.02532
 H367 H 0.41192 0.50533 -0.27680
 H368 H 0.57647 0.62476 0.02400
 H369 H 0.45947 0.31803 0.07629
 H370 H 0.51119 0.32256 -0.14294
 H371 H 0.47310 0.46154 -0.42760
 H372 H 0.48129 0.63335 -0.39346
 H373 H 0.45461 0.68421 -0.08596
 H374 H 0.50552 0.68092 0.13681
 H375 H 0.46262 0.54222 0.41727
 H376 H 0.47684 0.36720 0.37894
   
