data_POSCAR
  _audit_creation_date              2014-09-24
  _audit_creation_method            'ToBaCCo'
  _symmetry_space_group_name_H-M    'P1'
  _symmetry_Int_Tables_number       1
  _symmetry_cell_setting            triclinic
  loop_
  _symmetry_equiv_pos_as_xyz
 x,y,z
_cell_length_a 26.7154
_cell_length_b 26.3585
_cell_length_c 33.8433
_cell_angle_alpha 89.790400
_cell_angle_beta 90.074400
_cell_angle_gamma 81.073200
loop_
  _atom_site_label
  _atom_site_type_symbol
  _atom_site_fract_x
  _atom_site_fract_y
  _atom_site_fract_z
C1 C 1.23135 0.21304 0.20003
 C2 C 1.27327 0.23641 0.17943
 C3 C 1.30063 0.26234 0.20373
 C4 C 1.28417 0.26248 0.24720
 C5 C 1.25851 0.17969 0.23346
 C6 C 1.28562 0.20564 0.25835
 C7 C 1.19997 0.25795 0.22197
 C8 C 1.22714 0.28363 0.24700
 H9 H 1.27910 0.23485 0.14774
 H10 H 1.30693 0.28390 0.26670
 H11 H 1.25348 0.14067 0.23973
 H12 H 1.15893 0.26386 0.22174
 C13 C 0.71503 -0.28350 0.20558
 C14 C 0.75135 -0.25158 0.18616
 C15 C 0.77831 -0.22708 0.21180
 C16 C 0.76716 -0.23710 0.25540
 C17 C 0.74770 -0.31971 0.23405
 C18 C 0.77416 -0.29593 0.26064
 C19 C 0.68213 -0.24509 0.23307
 C20 C 0.70969 -0.22114 0.25935
 H21 H 0.75244 -0.24542 0.15450
 H22 H 0.79004 -0.21784 0.27631
 H23 H 0.74616 -0.36053 0.23519
 H24 H 0.64127 -0.23877 0.23344
 C25 C 0.72543 0.22331 -0.29540
 C26 C 0.75985 0.24929 -0.31758
 C27 C 0.79266 0.27499 -0.29415
 C28 C 0.78420 0.26944 -0.25112
 C29 C 0.75734 0.18882 -0.26861
 C30 C 0.79036 0.21344 -0.24389
 C31 C 0.69837 0.26211 -0.26947
 C32 C 0.72974 0.28707 -0.24364
 H33 H 0.75820 0.25206 -0.34956
 H34 H 0.81050 0.28873 -0.23351
 H35 H 0.74864 0.15110 -0.26147
 H36 H 0.65757 0.26989 -0.26916
 C37 C 1.20864 -0.26926 -0.29484
 C38 C 1.23631 -0.23336 -0.31892
 C39 C 1.26622 -0.20701 -0.29704
 C40 C 1.26558 -0.21830 -0.25267
 C41 C 1.25030 -0.30338 -0.27135
 C42 C 1.28000 -0.27679 -0.24922
 C43 C 1.17980 -0.23536 -0.26320
 C44 C 1.20937 -0.20875 -0.24120
 H45 H 1.23458 -0.23124 -0.35089
 H46 H 1.28946 -0.19615 -0.23475
 H47 H 1.25299 -0.34468 -0.26941
 H48 H 1.14017 -0.23541 -0.25660
 C49 C 0.19677 0.21844 0.79186
 C50 C 0.22796 0.23808 0.82105
 C51 C 0.26397 0.26756 0.80580
 C52 C 0.26174 0.27259 0.76262
 C53 C 0.17267 0.26540 0.76787
 C54 C 0.20635 0.29292 0.75137
 C55 C 0.23457 0.18843 0.76249
 C56 C 0.26870 0.21696 0.74665
 H57 H 0.22205 0.23321 0.85244
 H58 H 0.28919 0.29604 0.75049
 H59 H 0.13433 0.26930 0.75665
 H60 H 0.23060 0.15051 0.75202
 C61 C 0.73357 0.70229 0.78849
 C62 C 0.75300 0.74043 0.81252
 C63 C 0.78057 0.77404 0.79108
 C64 C 0.78208 0.76354 0.74841
 C65 C 0.70267 0.73154 0.75805
 C66 C 0.72874 0.76616 0.73574
 C67 C 0.77716 0.67608 0.76684
 C68 C 0.80414 0.70933 0.74450
 H69 H 0.75205 0.73924 0.84454
 H70 H 0.80373 0.78906 0.73186
 H71 H 0.66319 0.72828 0.75361
 H72 H 0.78051 0.63599 0.75881
 C73 C 0.70553 0.23170 0.29780
 C74 C 0.73863 0.26316 0.32122
 C75 C 0.76719 0.29036 0.29880
 C76 C 0.76074 0.28316 0.25410
 C77 C 0.67462 0.27039 0.26965
 C78 C 0.70344 0.29725 0.24671
 C79 C 0.74220 0.19815 0.27001
 C80 C 0.77074 0.22492 0.24699
 H81 H 0.73935 0.26363 0.35324
 H82 H 0.78438 0.30488 0.23548
 H83 H 0.63401 0.27315 0.26596
 H84 H 0.73856 0.15903 0.26257
 C85 C 0.23254 0.72615 0.29732
 C86 C 0.26479 0.76217 0.31679
 C87 C 0.29089 0.78763 0.29104
 C88 C 0.28315 0.77435 0.24735
 C89 C 0.19934 0.75987 0.26756
 C90 C 0.22523 0.78451 0.24070
 C91 C 0.27068 0.69057 0.27193
 C92 C 0.29656 0.71540 0.24536
 H93 H 0.26902 0.76505 0.34852
 H94 H 0.30566 0.79460 0.22680
 H95 H 0.15851 0.76269 0.26774
 H96 H 0.27529 0.64924 0.27289
 O97 O 1.07538 0.00666 0.05278
 O98 O 0.90180 -0.02000 0.05627
 O99 O 0.96999 0.08587 0.05675
 O100 O 1.01163 -0.09795 0.05018
 O101 O 0.89678 0.07002 0.04035
 O102 O 1.08197 -0.07913 0.03067
 O103 O 0.92586 -0.08897 0.02627
 O104 O 1.05282 0.08136 0.03021
 C105 C 1.07467 0.05320 0.05659
 C106 C 0.90936 -0.06759 0.05717
 C107 C 0.92472 0.08769 0.06491
 C108 C 1.05724 -0.09828 0.05644
 O109 O 1.07074 -0.04339 -0.04582
 O110 O 0.89884 0.04579 -0.03931
 O111 O 1.01416 0.08067 -0.04417
 O112 O 0.95689 -0.08108 -0.04807
 O113 O 0.88866 -0.03848 -0.02413
 O114 O 1.08350 0.03713 -0.02475
 O115 O 1.04365 -0.10916 -0.02486
 O116 O 0.93036 0.10711 -0.01534
 Co117 Co 1.06937 -0.01816 0.00349
 Co118 Co 0.90506 0.01283 0.00815
 Co119 Co 0.99147 0.07966 0.00644
 Co120 Co 0.98513 -0.08547 0.00123
 O121 O 0.98773 -0.00283 0.00485
 C122 C 1.06529 -0.08814 -0.05122
 C123 C 0.90771 0.09002 -0.04314
 C124 C 1.05929 0.06397 -0.05091
 C125 C 0.91033 -0.06698 -0.05076
 O126 O 1.10723 0.53817 0.52409
 O127 O 0.93351 0.46164 0.55189
 O128 O 0.95067 0.60849 0.51980
 O129 O 1.06129 0.39028 0.52212
 O130 O 0.94356 0.54695 0.55483
 O131 O 1.09838 0.45278 0.54458
 O132 O 0.96953 0.39604 0.51916
 O133 O 1.03700 0.57532 0.54630
 C134 C 1.08289 0.56236 0.55110
 C135 C 0.94394 0.41437 0.54827
 C136 C 0.93716 0.59347 0.55175
 C137 C 1.08747 0.40869 0.54867
 O138 O 1.11502 0.41938 0.47443
 O139 O 0.91435 0.55919 0.47190
 O140 O 1.06911 0.58306 0.47073
 O141 O 0.96642 0.42374 0.44335
 O142 O 0.90607 0.46832 0.47608
 O143 O 1.09572 0.50918 0.44789
 O144 O 1.05300 0.42040 0.43907
 O145 O 0.98248 0.58640 0.44972
 Co146 Co 1.09429 0.48223 0.49710
 Co147 Co 0.93212 0.50890 0.51206
 Co148 Co 1.01069 0.57807 0.49721
 Co149 Co 1.01356 0.41526 0.48245
 O150 O 1.01168 0.49520 0.49715
 C151 C 1.09867 0.40857 0.44229
 C152 C 0.93667 0.58299 0.44576
 C153 C 1.09028 0.55622 0.44358
 C154 C 0.92076 0.44033 0.44724
 O155 O 0.59931 0.03512 0.53159
 O156 O 0.39418 -0.03871 0.51803
 O157 O 0.44618 0.10276 0.54063
 O158 O 0.54443 -0.10756 0.53126
 O159 O 0.40964 0.03746 0.55100
 O160 O 0.58191 -0.04703 0.55239
 O161 O 0.45780 -0.07964 0.54625
 O162 O 0.53209 0.07353 0.55757
 C163 C 0.57835 0.06057 0.55951
 C164 C 0.41183 -0.06495 0.54663
 C165 C 0.42077 0.07836 0.56305
 C166 C 0.57117 -0.09051 0.55709
 O167 O 0.59186 -0.07991 0.47736
 O168 O 0.40542 0.08596 0.48133
 O169 O 0.56049 0.08382 0.47964
 O170 O 0.43686 -0.07601 0.46450
 O171 O 0.41172 0.00260 0.44827
 O172 O 0.58739 0.00917 0.45599
 O173 O 0.52130 -0.08720 0.45241
 O174 O 0.47651 0.09772 0.46113
 Co175 Co 0.58049 -0.01852 0.50410
 Co176 Co 0.41427 0.01996 0.49992
 Co177 Co 0.50292 0.08148 0.50924
 Co178 Co 0.49069 -0.07943 0.49934
 O179 O 0.49719 0.00090 0.50312
 C180 C 0.56739 -0.09502 0.44971
 C181 C 0.43084 0.10325 0.45538
 C182 C 0.58228 0.05654 0.45245
 C183 C 0.41684 -0.04363 0.43949
 O184 O 0.58153 0.55330 0.02485
 O185 O 0.40461 0.45085 0.02654
 O186 O 0.42275 0.60434 0.01652
 O187 O 0.56225 0.39978 0.01940
 O188 O 0.40656 0.53717 0.04383
 O189 O 0.58385 0.46678 0.04281
 O190 O 0.47700 0.41506 0.04667
 O191 O 0.50751 0.58900 0.04273
 C192 C 0.55352 0.57971 0.04946
 C193 C 0.43113 0.42707 0.05311
 C194 C 0.40595 0.58393 0.04563
 C195 C 0.58019 0.42121 0.04747
 O196 O 0.59289 0.43818 -0.03644
 O197 O 0.39407 0.56276 -0.03581
 O198 O 0.54302 0.59664 -0.03020
 O199 O 0.44101 0.40523 -0.02754
 O200 O 0.41031 0.47647 -0.05242
 O201 O 0.57650 0.52602 -0.05422
 O202 O 0.52469 0.41006 -0.05326
 O203 O 0.46082 0.58843 -0.05694
 Co204 Co 0.57533 0.49650 -0.00572
 Co205 Co 0.41205 0.50631 -0.00441
 Co206 Co 0.48437 0.58517 -0.00685
 Co207 Co 0.50027 0.41668 -0.00368
 O208 O 0.49310 0.50103 -0.00514
 C209 C 0.56909 0.41515 -0.06098
 C210 C 0.41692 0.58118 -0.06317
 C211 C 0.56708 0.57305 -0.05751
 C212 C 0.41770 0.42946 -0.05532
 C213 C 1.17187 0.21975 0.14196
 C214 C 1.19915 0.18819 0.17087
 C215 C 1.19519 0.13541 0.17147
 C216 C 1.16416 0.11504 0.14417
 C217 C 1.13700 0.14752 0.11560
 C218 C 1.14110 0.19975 0.11473
 C219 C 1.10677 0.12714 0.08789
 C220 C 1.10360 0.07445 0.08794
 C221 C 1.12998 0.04247 0.11686
 C222 C 1.16004 0.06260 0.14477
 H223 H 1.21607 0.10950 0.19250
 H224 H 1.12064 0.22514 0.09290
 H225 H 1.08650 0.15224 0.06576
 H226 H 1.18042 0.03709 0.16656
 H227 H 1.17438 0.26035 0.14058
 H228 H 1.12780 0.00184 0.11765
 C229 C 1.12582 0.72455 0.67000
 C230 C 1.17581 0.70232 0.67958
 C231 C 1.19621 0.65521 0.66237
 C232 C 1.16666 0.62953 0.63775
 C233 C 1.11607 0.65154 0.62941
 C234 C 1.09595 0.69895 0.64573
 C235 C 1.08737 0.62718 0.60312
 C236 C 1.10940 0.58223 0.58396
 C237 C 1.15911 0.55967 0.59325
 C238 C 1.18749 0.58298 0.62027
 H239 H 1.23553 0.63897 0.66708
 H240 H 1.05759 0.71686 0.63889
 H241 H 1.04907 0.64489 0.59574
 H242 H 1.22615 0.56553 0.62650
 H243 H 1.10982 0.76220 0.68068
 H244 H 1.17648 0.52477 0.57876
 C245 C 0.64916 0.22874 0.66128
 C246 C 0.69252 0.19915 0.67860
 C247 C 0.70483 0.14720 0.66682
 C248 C 0.67266 0.12479 0.64168
 C249 C 0.62746 0.15432 0.62763
 C250 C 0.61640 0.20632 0.63723
 C251 C 0.59516 0.13202 0.60267
 C252 C 0.60874 0.08122 0.58995
 C253 C 0.65415 0.05225 0.60336
 C254 C 0.68549 0.07356 0.62960
 H255 H 0.73990 0.12414 0.67635
 H256 H 0.58289 0.23002 0.62543
 H257 H 0.56079 0.15495 0.59150
 H258 H 0.72025 0.05038 0.63971
 H259 H 0.64022 0.26968 0.66626
 H260 H 0.66553 0.01326 0.59326
 C261 C 0.72118 0.65326 0.14976
 C262 C 0.68969 0.68636 0.17518
 C263 C 0.63677 0.68908 0.17170
 C264 C 0.61604 0.66013 0.14290
 C265 C 0.64838 0.62792 0.11728
 C266 C 0.70086 0.62450 0.12116
 C267 C 0.62778 0.60027 0.08771
 C268 C 0.57509 0.60481 0.08300
 C269 C 0.54311 0.63590 0.10924
 C270 C 0.56341 0.66325 0.13897
 H271 H 0.61130 0.71335 0.19090
 H272 H 0.72625 0.59984 0.10190
 H273 H 0.65281 0.57629 0.06775
 H274 H 0.53793 0.68746 0.15844
 H275 H 0.76202 0.64985 0.15205
 H276 H 0.50229 0.63984 0.10637
 C277 C 0.79146 -0.13596 0.20166
 C278 C 0.80857 -0.18874 0.19698
 C279 C 0.84788 -0.20485 0.17049
 C280 C 0.86718 -0.16923 0.14638
 C281 C 0.84789 -0.11619 0.14915
 C282 C 0.81124 -0.09983 0.17807
 C283 C 0.86347 -0.08138 0.12146
 C284 C 0.89698 -0.09985 0.09079
 C285 C 0.91721 -0.15245 0.09003
 C286 C 0.90295 -0.18656 0.11759
 H287 H 0.86060 -0.24564 0.16649
 H288 H 0.79589 -0.05949 0.18093
 H289 H 0.84756 -0.04100 0.12245
 H290 H 0.91830 -0.22699 0.11524
 H291 H 0.76035 -0.12297 0.22147
 H292 H 0.94335 -0.16796 0.06717
 C293 C 0.84069 0.34825 0.70229
 C294 C 0.82813 0.30215 0.68710
 C295 C 0.84827 0.28536 0.64990
 C296 C 0.87594 0.31550 0.62688
 C297 C 0.88417 0.36394 0.64064
 C298 C 0.86769 0.37927 0.67896
 C299 C 0.90761 0.39620 0.61540
 C300 C 0.92376 0.37968 0.57705
 C301 C 0.91787 0.32997 0.56512
 C302 C 0.89394 0.29842 0.58959
 H303 H 0.84209 0.24850 0.63839
 H304 H 0.87437 0.41594 0.69046
 H305 H 0.91253 0.43418 0.62527
 H306 H 0.88838 0.26100 0.57887
 H307 H 0.82637 0.36247 0.73072
 H308 H 0.92998 0.31612 0.53604
 C309 C 0.35202 -0.18468 0.69123
 C310 C 0.29967 -0.17500 0.68423
 C311 C 0.28001 -0.13957 0.65517
 C312 C 0.31262 -0.11679 0.63106
 C313 C 0.36566 -0.12899 0.63651
 C314 C 0.38494 -0.16165 0.66755
 C315 C 0.39836 -0.11043 0.60964
 C316 C 0.37844 -0.08040 0.57732
 C317 C 0.32573 -0.06625 0.57350
 C318 C 0.29304 -0.08428 0.60019
 H319 H 0.23944 -0.13201 0.64997
 H320 H 0.42544 -0.17125 0.67228
 H321 H 0.43903 -0.12087 0.61303
 H322 H 0.25250 -0.07425 0.59588
 H323 H 0.36768 -0.21251 0.71319
 H324 H 0.30959 -0.04242 0.54911
 C325 C 0.38723 0.26996 0.17957
 C326 C 0.33731 0.29299 0.18732
 C327 C 0.31946 0.34193 0.17202
 C328 C 0.34995 0.36628 0.14671
 C329 C 0.39956 0.34198 0.13744
 C330 C 0.41844 0.29458 0.15518
 C331 C 0.42794 0.36384 0.10871
 C332 C 0.40644 0.40862 0.08833
 C333 C 0.35813 0.43356 0.09931
 C334 C 0.33033 0.41286 0.12843
 H335 H 0.28052 0.35918 0.17744
 H336 H 0.45631 0.27532 0.14850
 H337 H 0.46513 0.34426 0.10041
 H338 H 0.29254 0.43213 0.13537
 H339 H 0.40110 0.23180 0.19075
 H340 H 0.34111 0.46847 0.08441
 C341 C 0.82953 0.13196 -0.21395
 C342 C 0.81793 0.18614 -0.21231
 C343 C 0.83177 0.21069 -0.17769
 C344 C 0.85273 0.18149 -0.14484
 C345 C 0.86072 0.12729 -0.14668
 C346 C 0.85018 0.10310 -0.18166
 C347 C 0.87866 0.09791 -0.11343
 C348 C 0.88958 0.12178 -0.07811
 C349 C 0.88334 0.17573 -0.07679
 C350 C 0.86469 0.20533 -0.10973
 H351 H 0.82364 0.25201 -0.17491
 H352 H 0.85731 0.06160 -0.18394
 H353 H 0.88414 0.05632 -0.11504
 H354 H 0.85920 0.24682 -0.10760
 H355 H 0.82281 0.11114 -0.24044
 H356 H 0.89191 0.19504 -0.05000
 C357 C 0.77391 0.63910 0.31508
 C358 C 0.79735 0.67695 0.29615
 C359 C 0.84234 0.68941 0.31181
 C360 C 0.86440 0.66370 0.34539
 C361 C 0.84092 0.62537 0.36412
 C362 C 0.79548 0.61357 0.34872
 C363 C 0.86358 0.59929 0.39760
 C364 C 0.90983 0.61073 0.41196
 C365 C 0.93243 0.64921 0.39303
 C366 C 0.90992 0.67547 0.36029
 H367 H 0.86071 0.71839 0.29741
 H368 H 0.77666 0.58459 0.36261
 H369 H 0.84599 0.56962 0.41181
 H370 H 0.92841 0.70472 0.34641
 H371 H 0.73837 0.62965 0.30421
 H372 H 0.96791 0.65924 0.40359
 C373 C 0.27682 0.15402 0.31941
 C374 C 0.30530 0.18402 0.29669
 C375 C 0.35171 0.19452 0.31131
 C376 C 0.37023 0.17409 0.34779
 C377 C 0.34144 0.14365 0.37030
 C378 C 0.29468 0.13409 0.35591
 C379 C 0.36034 0.12243 0.40642
 C380 C 0.40830 0.13007 0.41981
 C381 C 0.43650 0.16062 0.39737
 C382 C 0.41746 0.18281 0.36184
 H383 H 0.37383 0.21762 0.29393
 H384 H 0.27205 0.11097 0.37276
 H385 H 0.33861 0.09849 0.42336
 H386 H 0.44009 0.20596 0.34503
 H387 H 0.24024 0.14655 0.30922
 H388 H 0.47361 0.16700 0.40715
 C389 C 0.35968 0.71783 -0.20942
 C390 C 0.31506 0.69845 -0.21874
 C391 C 0.30194 0.65722 -0.19682
 C392 C 0.33234 0.63616 -0.16553
 C393 C 0.37716 0.65591 -0.15615
 C394 C 0.39087 0.69634 -0.17861
 C395 C 0.40631 0.63622 -0.12357
 C396 C 0.39002 0.59836 -0.09970
 C397 C 0.34591 0.57843 -0.10971
 C398 C 0.31752 0.59685 -0.14261
 H399 H 0.26675 0.64300 -0.20278
 H400 H 0.42496 0.71212 -0.17174
 H401 H 0.44023 0.65184 -0.11581
 H402 H 0.28331 0.58128 -0.14951
 H403 H 0.37033 0.74984 -0.22563
 H404 H 0.33304 0.54888 -0.09178
 C405 C 1.20247 -0.13186 -0.19763
 C406 C 1.18967 -0.18029 -0.20592
 C407 C 1.15632 -0.20139 -0.18101
 C408 C 1.13407 -0.17361 -0.14896
 C409 C 1.14580 -0.12414 -0.14125
 C410 C 1.18047 -0.10375 -0.16545
 C411 C 1.12260 -0.09602 -0.10950
 C412 C 1.08837 -0.11702 -0.08523
 C413 C 1.07719 -0.16629 -0.09307
 C414 C 1.09985 -0.19440 -0.12478
 H415 H 1.14745 -0.23947 -0.18672
 H416 H 1.19004 -0.06596 -0.15978
 H417 H 1.13155 -0.05811 -0.10350
 H418 H 1.09055 -0.23229 -0.13045
 H419 H 1.22827 -0.11528 -0.21664
 H420 H 1.05082 -0.18304 -0.07470
 C421 C 1.15520 0.34928 0.26996
 C422 C 1.20169 0.31796 0.27798
 C423 C 1.22064 0.31504 0.31685
 C424 C 1.19210 0.34052 0.34768
 C425 C 1.14416 0.36963 0.33950
 C426 C 1.12665 0.37486 0.30044
 C427 C 1.11398 0.39197 0.37060
 C428 C 1.13133 0.38616 0.40978
 C429 C 1.17979 0.35893 0.41756
 C430 C 1.20984 0.33593 0.38676
 H431 H 1.25612 0.29068 0.32367
 H432 H 1.09028 0.39758 0.29360
 H433 H 1.07688 0.41367 0.36437
 H434 H 1.24660 0.31398 0.39356
 H435 H 1.14017 0.35277 0.24017
 H436 H 1.19391 0.35442 0.44759
 C437 C 0.71121 -0.15001 0.30805
 C438 C 0.68732 -0.18983 0.29301
 C439 C 0.64488 -0.20286 0.31271
 C440 C 0.62703 -0.17720 0.34727
 C441 C 0.65190 -0.13789 0.36268
 C442 C 0.69370 -0.12427 0.34258
 C443 C 0.63413 -0.11262 0.39762
 C444 C 0.59092 -0.12526 0.41637
 C445 C 0.56675 -0.16452 0.40087
 C446 C 0.58483 -0.19056 0.36682
 H447 H 0.62670 -0.23417 0.30200
 H448 H 0.71298 -0.09395 0.35366
 H449 H 0.65262 -0.08213 0.40939
 H450 H 0.56540 -0.22064 0.35550
 H451 H 0.74378 -0.13894 0.29328
 H452 H 0.53352 -0.17496 0.41515
 C453 C 0.73731 0.34591 -0.18693
 C454 C 0.70903 0.31582 -0.21003
 C455 C 0.65883 0.31323 -0.19766
 C456 C 0.63744 0.33958 -0.16453
 C457 C 0.66602 0.36931 -0.14172
 C458 C 0.71604 0.37232 -0.15330
 C459 C 0.64398 0.39470 -0.10772
 C460 C 0.59373 0.39025 -0.09680
 C461 C 0.56602 0.36081 -0.12050
 C462 C 0.58760 0.33570 -0.15378
 H463 H 0.63579 0.28871 -0.21209
 H464 H 0.73878 0.39509 -0.13634
 H465 H 0.66577 0.41746 -0.08985
 H466 H 0.56516 0.31302 -0.17115
 H467 H 0.77558 0.35026 -0.19484
 H468 H 0.52739 0.35669 -0.11315
 C469 C 1.10811 0.21118 -0.18164
 C470 C 1.15889 0.18839 -0.18849
 C471 C 1.17654 0.14080 -0.17040
 C472 C 1.14538 0.11814 -0.14444
 C473 C 1.09511 0.14224 -0.13739
 C474 C 1.07645 0.18781 -0.15716
 C475 C 1.06548 0.12242 -0.10865
 C476 C 1.08633 0.07996 -0.08571
 C477 C 1.13570 0.05508 -0.09398
 C478 C 1.16473 0.07359 -0.12340
 H479 H 1.21572 0.12338 -0.17428
 H480 H 1.03821 0.20711 -0.15183
 H481 H 1.02754 0.14197 -0.10243
 H482 H 1.20310 0.05443 -0.12837
 H483 H 1.09282 0.24870 -0.19296
 H484 H 1.15260 0.02212 -0.07676
 C485 C 1.17371 0.73056 0.35605
 C486 C 1.20079 0.70050 0.32646
 C487 C 1.19536 0.64816 0.32378
 C488 C 1.16717 0.62563 0.35190
 C489 C 1.14219 0.65601 0.38234
 C490 C 1.14494 0.70856 0.38378
 C491 C 1.11545 0.63324 0.41120
 C492 C 1.11427 0.58012 0.41067
 C493 C 1.13825 0.55026 0.37982
 C494 C 1.16421 0.57294 0.35046
 H495 H 1.21233 0.62436 0.30002
 H496 H 1.12535 0.73256 0.40664
 H497 H 1.09689 0.65673 0.43479
 H498 H 1.18297 0.54908 0.32718
 H499 H 1.17517 0.77131 0.35790
 H500 H 1.13757 0.50930 0.37873
 C501 C 0.63479 0.23302 0.34744
 C502 C 0.67347 0.20395 0.32517
 C503 C 0.68419 0.15050 0.33180
 C504 C 0.65693 0.12679 0.35984
 C505 C 0.61895 0.15670 0.38242
 C506 C 0.60773 0.20969 0.37567
 C507 C 0.59392 0.13332 0.41215
 C508 C 0.60615 0.08030 0.41939
 C509 C 0.64271 0.05061 0.39581
 C510 C 0.66808 0.07369 0.36641
 H511 H 0.71486 0.12697 0.31664
 H512 H 0.57872 0.23324 0.39274
 H513 H 0.56557 0.15651 0.43007
 H514 H 0.69694 0.05011 0.34922
 H515 H 0.62637 0.27428 0.34360
 H516 H 0.65274 0.00973 0.40082
 C517 C 0.72920 0.61876 -0.17611
 C518 C 0.70679 0.66913 -0.18740
 C519 C 0.65922 0.68887 -0.17074
 C520 C 0.63456 0.65917 -0.14481
 C521 C 0.65712 0.60854 -0.13525
 C522 C 0.70418 0.58871 -0.15126
 C523 C 0.63348 0.57938 -0.10831
 C524 C 0.58846 0.60099 -0.08955
 C525 C 0.56590 0.65118 -0.09947
 C526 C 0.58845 0.67984 -0.12721
 H527 H 0.64204 0.72810 -0.17701
 H528 H 0.72261 0.55041 -0.14344
 H529 H 0.65141 0.54088 -0.10045
 H530 H 0.57051 0.71861 -0.13409
 H531 H 0.76698 0.60224 -0.18506
 H532 H 0.53104 0.66846 -0.08539
 C533 C 0.85456 -0.18036 -0.20283
 C534 C 0.80767 -0.19153 -0.18894
 C535 C 0.78963 -0.17047 -0.15247
 C536 C 0.81853 -0.14180 -0.12937
 C537 C 0.86723 -0.13431 -0.14198
 C538 C 0.88439 -0.15283 -0.17926
 C539 C 0.89779 -0.10922 -0.11674
 C540 C 0.87899 -0.09019 -0.07983
 C541 C 0.82929 -0.09563 -0.06904
 C542 C 0.79963 -0.12153 -0.09328
 H543 H 0.75260 -0.17610 -0.14188
 H544 H 0.92133 -0.14700 -0.18984
 H545 H 0.93586 -0.10478 -0.12558
 H546 H 0.76210 -0.12647 -0.08341
 H547 H 0.87022 -0.19592 -0.23050
 H548 H 0.81379 -0.08149 -0.04089
 C549 C 0.85074 0.32149 0.30504
 C550 C 0.80020 0.32399 0.31702
 C551 C 0.78233 0.35525 0.34920
 C552 C 0.81531 0.38105 0.37089
 C553 C 0.86693 0.37583 0.36017
 C554 C 0.88398 0.34712 0.32655
 C555 C 0.90088 0.39757 0.38419
 C556 C 0.88391 0.42428 0.41890
 C557 C 0.83197 0.43166 0.42790
 C558 C 0.79798 0.41017 0.40414
 H559 H 0.74305 0.35799 0.35819
 H560 H 0.92336 0.34305 0.31770
 H561 H 0.94078 0.39204 0.37664
 H562 H 0.75840 0.41491 0.41252
 H563 H 0.86511 0.29763 0.28030
 H564 H 0.81786 0.45226 0.45425
 C565 C 0.37580 -0.20501 0.31751
 C566 C 0.32755 -0.18065 0.30600
 C567 C 0.31073 -0.12979 0.31777
 C568 C 0.34047 -0.10477 0.34339
 C569 C 0.38742 -0.13115 0.35718
 C570 C 0.40568 -0.18039 0.34279
 C571 C 0.41370 -0.10933 0.38701
 C572 C 0.39397 -0.06136 0.40321
 C573 C 0.34936 -0.03361 0.38718
 C574 C 0.32264 -0.05527 0.35764
 H575 H 0.27306 -0.11132 0.30945
 H576 H 0.44177 -0.20095 0.35282
 H577 H 0.44834 -0.13074 0.39896
 H578 H 0.28700 -0.03423 0.34715
 H579 H 0.38879 -0.24450 0.30916
 H580 H 0.33357 0.00350 0.39911
 C581 C 0.31345 0.26198 -0.13306
 C582 C 0.29814 0.28780 -0.16877
 C583 C 0.31549 0.33476 -0.17673
 C584 C 0.34377 0.35712 -0.14808
 C585 C 0.35760 0.33079 -0.11225
 C586 C 0.34326 0.28279 -0.10555
 C587 C 0.38394 0.35358 -0.08293
 C588 C 0.39485 0.40356 -0.08802
 C589 C 0.38138 0.42951 -0.12380
 C590 C 0.35665 0.40629 -0.15374
 H591 H 0.30382 0.35597 -0.20353
 H592 H 0.35390 0.26183 -0.07844
 H593 H 0.39381 0.33336 -0.05537
 H594 H 0.34637 0.42737 -0.18085
 H595 H 0.30317 0.22476 -0.12636
 H596 H 0.38978 0.46797 -0.12852
 C597 C 1.22190 -0.14926 0.18627
 C598 C 1.20000 -0.18754 0.20585
 C599 C 1.15410 -0.20021 0.19115
 C600 C 1.13020 -0.17485 0.15818
 C601 C 1.15296 -0.13712 0.13838
 C602 C 1.19879 -0.12452 0.15271
 C603 C 1.12938 -0.11272 0.10469
 C604 C 1.08256 -0.12452 0.09142
 C605 C 1.06002 -0.16151 0.11184
 C606 C 1.08383 -0.18683 0.14466
 H607 H 1.13700 -0.23054 0.20473
 H608 H 1.21659 -0.09530 0.13814
 H609 H 1.14712 -0.08426 0.08909
 H610 H 1.06582 -0.21563 0.15960
 H611 H 1.25669 -0.13795 0.19695
 H612 H 1.02431 -0.17155 0.10204
 C613 C 1.20356 0.36959 0.70700
 C614 C 1.19261 0.32007 0.71369
 C615 C 1.16636 0.29636 0.68463
 C616 C 1.14789 0.32309 0.65061
 C617 C 1.15738 0.37369 0.64471
 C618 C 1.18603 0.39634 0.67262
 C619 C 1.13751 0.40099 0.61124
 C620 C 1.10795 0.37861 0.58359
 C621 C 1.09903 0.32813 0.58967
 C622 C 1.11905 0.30046 0.62290
 H623 H 1.15926 0.25733 0.68901
 H624 H 1.19392 0.43507 0.66826
 H625 H 1.14483 0.43995 0.60700
 H626 H 1.11149 0.26160 0.62718
 H627 H 1.22430 0.38799 0.72883
 H628 H 1.07656 0.31013 0.56882
 C629 C 0.72471 -0.15817 0.69192
 C630 C 0.70548 -0.20255 0.70439
 C631 C 0.66216 -0.21496 0.68462
 C632 C 0.63924 -0.18440 0.65340
 C633 C 0.65902 -0.14008 0.64181
 C634 C 0.70163 -0.12731 0.66126
 C635 C 0.63610 -0.10940 0.61076
 C636 C 0.59404 -0.12282 0.59043
 C637 C 0.57489 -0.16733 0.60191
 C638 C 0.59710 -0.19769 0.63326
 H639 H 0.64700 -0.24950 0.69209
 H640 H 0.71711 -0.09319 0.65284
 H641 H 0.65166 -0.07551 0.60196
 H642 H 0.58143 -0.23169 0.64166
 H643 H 0.75638 -0.14540 0.70666
 H644 H 0.54252 -0.17843 0.58680
 C645 C 0.69872 0.37581 0.20450
 C646 C 0.68264 0.32868 0.21262
 C647 C 0.64895 0.30986 0.18663
 C648 C 0.63178 0.33754 0.15257
 C649 C 0.64756 0.38537 0.14472
 C650 C 0.68084 0.40431 0.17101
 C651 C 0.63032 0.41296 0.11047
 C652 C 0.59856 0.39264 0.08357
 C653 C 0.58362 0.34485 0.09156
 C654 C 0.59973 0.31772 0.12589
 H655 H 0.63742 0.27283 0.19225
 H656 H 0.69355 0.44075 0.16540
 H657 H 0.64215 0.44976 0.10449
 H658 H 0.58740 0.28107 0.13144
 H659 H 0.72498 0.39061 0.22417
 H660 H 0.55894 0.32860 0.07139
 C661 C 0.75962 0.18581 0.18157
 C662 C 0.79213 0.20249 0.20968
 C663 C 0.84449 0.19487 0.20292
 C664 C 0.86445 0.16890 0.16880
 C665 C 0.83142 0.15125 0.14103
 C666 C 0.77904 0.16050 0.14749
 C667 C 0.85126 0.12435 0.10739
 C668 C 0.90378 0.11493 0.10087
 C669 C 0.93629 0.13282 0.12855
 C670 C 0.91683 0.15950 0.16219
 H671 H 0.86954 0.20773 0.22467
 H672 H 0.75315 0.14754 0.12648
 H673 H 0.82577 0.11096 0.08624
 H674 H 0.94276 0.17264 0.18307
 H675 H 0.71904 0.19181 0.18638
 H676 H 0.97695 0.12616 0.12421
 C677 C 0.86826 0.63957 0.72220
 C678 C 0.84004 0.68875 0.71588
 C679 C 0.84464 0.71327 0.67913
 C680 C 0.87196 0.68638 0.64806
 C681 C 0.89672 0.63564 0.65451
 C682 C 0.89639 0.61348 0.69199
 C683 C 0.91951 0.60673 0.62301
 C684 C 0.91767 0.62729 0.58469
 C685 C 0.89549 0.67859 0.57852
 C686 C 0.87267 0.70798 0.61004
 H687 H 0.82333 0.75091 0.67316
 H688 H 0.91612 0.57499 0.69755
 H689 H 0.93733 0.56739 0.62813
 H690 H 0.85418 0.74690 0.60441
 H691 H 0.86776 0.62044 0.75056
 H692 H 0.89416 0.69525 0.54917
 C693 C 0.31270 0.23552 0.68354
 C694 C 0.30173 0.19973 0.71208
 C695 C 0.32061 0.14744 0.70623
 C696 C 0.34867 0.13112 0.67216
 C697 C 0.35906 0.16745 0.64362
 C698 C 0.34129 0.21963 0.64992
 C699 C 0.38540 0.15079 0.60871
 C700 C 0.39994 0.09805 0.60160
 C701 C 0.39017 0.06250 0.63063
 C702 C 0.36528 0.07881 0.66564
 H703 H 0.31297 0.11928 0.72791
 H704 H 0.34838 0.24813 0.62833
 H705 H 0.39226 0.17847 0.58637
 H706 H 0.35778 0.05035 0.68712
 H707 H 0.29791 0.27590 0.68627
 H708 H 0.40113 0.02164 0.62590
 C709 C 0.35325 0.63740 0.21998
 C710 C 0.32666 0.68713 0.21328
 C711 C 0.32409 0.70726 0.17472
 C712 C 0.34539 0.67721 0.14302
 C713 C 0.36959 0.62626 0.14985
 C714 C 0.37428 0.60716 0.18855
 C715 C 0.38831 0.59524 0.11783
 C716 C 0.38433 0.61513 0.07925
 C717 C 0.36165 0.66625 0.07290
 C718 C 0.34180 0.69687 0.10445
 H719 H 0.30336 0.74525 0.16895
 H720 H 0.39341 0.56854 0.19446
 H721 H 0.40666 0.55609 0.12291
 H722 H 0.32363 0.73587 0.09866
 H723 H 0.35674 0.62130 0.24951
 H724 H 0.35866 0.68234 0.04334
   
