data_POSCAR
  _audit_creation_date              2014-09-24
  _audit_creation_method            'ToBaCCo'
  _symmetry_space_group_name_H-M    'P1'
  _symmetry_Int_Tables_number       1
  _symmetry_cell_setting            triclinic
  loop_
  _symmetry_equiv_pos_as_xyz
 x,y,z
_cell_length_a 31.9069
_cell_length_b 31.9886
_cell_length_c 31.9058
_cell_angle_alpha 96.233100
_cell_angle_beta 79.479500
_cell_angle_gamma 96.156900
loop_
  _atom_site_label
  _atom_site_type_symbol
  _atom_site_fract_x
  _atom_site_fract_y
  _atom_site_fract_z
O1 O 0.53534 0.52337 0.04961
 O2 O 0.42146 0.51588 0.04041
 O3 O 0.47498 0.46173 0.04678
 O4 O 0.48169 0.57691 0.04095
 O5 O 0.49938 0.56713 -0.02951
 O6 O 0.49248 0.45246 -0.02371
 O7 O 0.43882 0.50647 -0.03010
 O8 O 0.55305 0.51379 -0.02084
 Cu9 Cu 0.47675 0.52037 0.05157
 Cu10 Cu 0.49781 0.50895 -0.03312
 C11 C 0.56343 0.51978 0.01605
 C12 C 0.41090 0.51034 0.00364
 C13 C 0.48251 0.43767 0.01242
 C14 C 0.49114 0.59134 0.00455
 O15 O -0.04554 0.53948 0.52392
 O16 O -0.04131 0.42407 0.51807
 O17 O -0.03910 0.48563 0.57767
 O18 O -0.04994 0.47734 0.46420
 O19 O 0.02045 0.48579 0.44549
 O20 O 0.03136 0.49392 0.55928
 O21 O 0.02909 0.43270 0.49938
 O22 O 0.02488 0.54764 0.50541
 Cu23 Cu -0.05109 0.48085 0.52269
 Cu24 Cu 0.03353 0.49091 0.50041
 C25 C -0.01097 0.56304 0.51576
 C26 C -0.00520 0.40902 0.50827
 C27 C -0.00208 0.49075 0.58763
 C28 C -0.01668 0.48024 0.43569
 O29 O 0.52111 0.03220 0.54281
 O30 O 0.53205 0.03863 0.42692
 O31 O 0.46818 0.03821 0.49044
 O32 O 0.58433 0.03023 0.47859
 O33 O 0.57325 -0.03930 0.46861
 O34 O 0.45756 -0.03135 0.48062
 O35 O 0.52115 -0.03090 0.41677
 O36 O 0.51037 -0.03735 0.53309
 Cu37 Cu 0.52743 0.04184 0.48577
 Cu38 Cu 0.51442 -0.04174 0.47386
 C39 C 0.51431 -0.00361 0.55753
 C40 C 0.52841 0.00508 0.40228
 C41 C 0.44333 0.00472 0.48712
 C42 C 0.59832 -0.00601 0.47160
 C43 C 0.49769 -0.07253 -0.09620
 C44 C 0.50355 -0.03086 -0.10696
 C45 C 0.50630 0.00263 -0.07502
 C46 C 0.50144 -0.00522 -0.03155
 C47 C 0.49410 -0.04758 -0.02139
 C48 C 0.49342 -0.08090 -0.05354
 C49 C 0.50434 0.03017 0.00306
 C50 C 0.51653 0.02307 0.04194
 C51 C 0.51727 0.05531 0.07518
 C52 C 0.50812 0.09575 0.06942
 C53 C 0.49735 0.10393 0.03078
 C54 C 0.49462 0.07125 -0.00195
 H55 H 0.49664 -0.09843 -0.12104
 H56 H 0.51271 0.03446 -0.08451
 H57 H 0.48883 -0.05524 0.01146
 H58 H 0.52553 -0.00742 0.04692
 H59 H 0.50921 0.12084 0.09508
 H60 H 0.48447 0.07812 -0.03082
 C61 C -0.10390 0.49986 1.10271
 C62 C -0.10969 0.50854 1.06227
 C63 C -0.07485 0.50987 1.02846
 C64 C -0.03403 0.50041 1.03398
 C65 C -0.02922 0.49066 1.07490
 C66 C -0.06359 0.49144 1.10917
 C67 C 0.00313 0.50064 0.99745
 C68 C 0.04581 0.50685 1.00497
 C69 C 0.08033 0.50591 0.97083
 C70 C 0.07293 0.50091 0.92874
 C71 C 0.03112 0.49577 0.92054
 C72 C -0.00353 0.49458 0.95451
 H73 H -0.13069 0.49965 1.12909
 H74 H -0.08007 0.51855 0.99812
 H75 H 0.00102 0.48218 1.08063
 H76 H 0.05276 0.51268 1.03711
 H77 H 0.09972 0.50100 0.90234
 H78 H -0.03542 0.48862 0.94691
 C79 C -0.06840 -0.09778 0.49095
 C80 C -0.02970 -0.10534 0.50205
 C81 C 0.00231 -0.07210 0.50552
 C82 C -0.00346 -0.03108 0.49617
 C83 C -0.04235 -0.02463 0.48362
 C84 C -0.07489 -0.05742 0.48217
 C85 C 0.03040 0.00491 0.49964
 C86 C 0.01941 0.04707 0.50700
 C87 C 0.05098 0.08089 0.50797
 C88 C 0.09382 0.07321 0.50403
 C89 C 0.10534 0.03179 0.49817
 C90 C 0.07404 -0.00216 0.49511
 H91 H -0.09354 -0.12328 0.48931
 H92 H 0.03121 -0.07851 0.51592
 H93 H -0.04787 0.00578 0.47487
 H94 H -0.01361 0.05417 0.51200
 H95 H 0.11822 0.09947 0.50528
 H96 H 0.08416 -0.03378 0.48864
 C97 C -0.31164 0.52373 1.02997
 N98 N -0.28181 0.50804 0.99791
 N99 N -0.24166 0.50700 1.00384
 C100 C -0.23010 0.52163 1.04200
 N101 N -0.25992 0.53739 1.07404
 N102 N -0.30006 0.53843 1.06810
 C103 C -0.35534 0.52311 1.02428
 C104 C -0.39229 0.52191 1.02012
 C105 C -0.18740 0.51848 1.04906
 C106 C -0.15182 0.51466 1.05509
 C107 C 0.28749 0.50977 0.99476
 N108 N 0.25796 0.47950 1.01135
 N109 N 0.21690 0.47993 1.00831
 C110 C 0.20412 0.51074 0.98874
 N111 N 0.23365 0.54103 0.97220
 N112 N 0.27470 0.54060 0.97524
 C113 C 0.33175 0.50926 0.99779
 C114 C 0.36898 0.50936 1.00039
 C115 C 0.16025 0.51016 0.98384
 C116 C 0.12364 0.50884 0.97863
 C117 C -0.01357 -0.31189 0.51922
 N118 N -0.04724 -0.29210 0.54184
 N119 N -0.04858 -0.25073 0.54077
 C120 C -0.01624 -0.22786 0.51717
 N121 N 0.01747 -0.24765 0.49463
 N122 N 0.01882 -0.28901 0.49571
 C123 C -0.01294 -0.35675 0.51881
 C124 C -0.01224 -0.39449 0.51769
 C125 C -0.01931 -0.18401 0.51345
 C126 C -0.02318 -0.14773 0.50903
 C127 C 0.00639 0.28376 0.51050
 N128 N 0.01594 0.27020 0.54619
 N129 N 0.02318 0.23004 0.54694
 C130 C 0.02109 0.20223 0.51198
 N131 N 0.01145 0.21577 0.47632
 N132 N 0.00422 0.25593 0.47557
 C133 C 0.00078 0.32747 0.50910
 C134 C -0.00268 0.36453 0.50833
 C135 C 0.03078 0.15945 0.51198
 C136 C 0.03966 0.12361 0.51091
 C137 C 0.51018 -0.00928 -0.31717
 N138 N 0.47324 -0.00599 -0.28872
 N139 N 0.47263 -0.00819 -0.24713
 C140 C 0.50896 -0.01358 -0.23270
 N141 N 0.54590 -0.01683 -0.26115
 N142 N 0.54652 -0.01463 -0.30273
 C143 C 0.51086 -0.00744 -0.36205
 C144 C 0.51205 -0.00582 -0.39984
 C145 C 0.50785 -0.01795 -0.18819
 C146 C 0.50634 -0.02295 -0.15101
 C147 C 0.53552 0.01758 0.27549
 N148 N 0.55468 0.05365 0.25915
 N149 N 0.55377 0.06015 0.21878
 C150 C 0.53372 0.03073 0.19352
 N151 N 0.51468 -0.00540 0.20982
 N152 N 0.51558 -0.01189 0.25019
 C153 C 0.53402 0.01195 0.31974
 C154 C 0.53185 0.00822 0.35728
 C155 C 0.52991 0.03905 0.15117
 C156 C 0.52510 0.04637 0.11618
 C157 C 0.48988 -0.28373 -0.00878
 N158 N 0.45436 -0.27011 -0.01867
 N159 N 0.45390 -0.23005 -0.02635
 C160 C 0.48897 -0.20243 -0.02441
 N161 N 0.52446 -0.21603 -0.01444
 N162 N 0.52493 -0.25609 -0.00677
 C163 C 0.49094 -0.32730 -0.00256
 C164 C 0.49143 -0.36426 0.00143
 C165 C 0.48916 -0.15970 -0.03418
 C166 C 0.49036 -0.12380 -0.04286
 C167 C 0.47867 0.31039 0.01609
 N168 N 0.49894 0.28682 -0.01801
 N169 N 0.50023 0.24549 -0.01665
 C170 C 0.48116 0.22646 0.01880
 N171 N 0.46080 0.25002 0.05286
 N172 N 0.45951 0.29135 0.05151
 C173 C 0.47905 0.35519 0.01527
 C174 C 0.48022 0.39287 0.01430
 C175 C 0.48524 0.18265 0.02153
 C176 C 0.48999 0.14637 0.02497
 C177 C -0.27513 -0.02005 0.46353
 N178 N -0.26007 -0.05765 0.44754
 N179 N -0.21974 -0.06439 0.44836
 C180 C -0.19327 -0.03369 0.46517
 N181 N -0.20829 0.00396 0.48105
 N182 N -0.24862 0.01069 0.48023
 C183 C -0.31929 -0.01393 0.46530
 C184 C -0.35675 -0.00972 0.46775
 C185 C -0.15096 -0.04198 0.46909
 C186 C -0.11595 -0.04906 0.47408
 C187 C 0.31578 0.01161 0.49182
 N188 N 0.28709 0.00619 0.52823
 N189 N 0.24550 0.00838 0.52883
 C190 C 0.23134 0.01590 0.49300
 N191 N 0.26004 0.02127 0.45658
 N192 N 0.30162 0.01908 0.45599
 C193 C 0.36061 0.00950 0.49110
 C194 C 0.39835 0.00756 0.48981
 C195 C 0.18680 0.01997 0.49411
 C196 C 0.14954 0.02457 0.49555
 C197 C -0.03206 0.47574 1.31119
 N198 N 0.00120 0.48658 1.28014
 N199 N -0.00488 0.48762 1.24005
 C200 C -0.04441 0.47783 1.22977
 N201 N -0.07766 0.46691 1.26079
 N202 N -0.07157 0.46587 1.30089
 C203 C -0.02595 0.47648 1.35475
 C204 C -0.02135 0.47784 1.39157
 C205 C -0.05133 0.48112 1.18708
 C206 C -0.05705 0.48510 1.15144
 C207 C 0.00833 0.49196 0.71307
 N208 N -0.01256 0.51908 0.74339
 N209 N -0.00939 0.51867 0.78442
 C210 C 0.01460 0.49100 0.79636
 N211 N 0.03545 0.46386 0.76604
 N212 N 0.03229 0.46427 0.72502
 C213 C 0.00493 0.49231 0.66891
 C214 C 0.00193 0.49206 0.63178
 C215 C 0.01926 0.49159 0.84028
 C216 C 0.02408 0.49290 0.87700
   
