data_POSCAR
  _audit_creation_date              2014-09-24
  _audit_creation_method            'ToBaCCo'
  _symmetry_space_group_name_H-M    'P1'
  _symmetry_Int_Tables_number       1
  _symmetry_cell_setting            triclinic
  loop_
  _symmetry_equiv_pos_as_xyz
 x,y,z
_cell_length_a 27.3885
_cell_length_b 27.4008
_cell_length_c 71.3610
_cell_angle_alpha 83.083300
_cell_angle_beta 93.485200
_cell_angle_gamma 120.066900
loop_
  _atom_site_label
  _atom_site_type_symbol
  _atom_site_fract_x
  _atom_site_fract_y
  _atom_site_fract_z
C1 C -0.00173 0.12036 0.52171
 H2 H 0.03929 0.12403 0.52083
 C3 C -0.00951 0.15308 0.53341
 H4 H 0.02559 0.18203 0.54160
 C5 C -0.09788 0.07721 0.51239
 H6 H -0.13208 0.04742 0.50419
 C7 C -0.10757 0.10920 0.52402
 H8 H -0.14935 0.10385 0.52486
 N9 N -0.04573 0.08276 0.51173
 C10 C -0.01069 -0.05335 0.50643
 H11 H -0.00778 -0.05161 0.49129
 C12 C -0.00954 -0.09746 0.51822
 H13 H -0.00522 -0.12953 0.51218
 C14 C -0.02323 -0.01578 0.53283
 H15 H -0.03035 0.01490 0.53850
 C16 C -0.02213 -0.05890 0.54506
 H17 H -0.02772 -0.06072 0.56009
 Zn18 Zn -0.02893 0.03935 0.49740
 N19 N -0.01783 -0.01386 0.51388
 C20 C 0.08283 0.08450 0.48308
 N21 N 0.03663 0.09084 0.48323
 C22 C 0.03509 0.13531 0.47303
 C23 C 0.08044 0.17466 0.46159
 C24 C 0.12925 0.12302 0.47174
 C25 C -0.13743 -0.04694 0.48822
 C26 C -0.17844 -0.08430 0.47642
 C27 C -0.11855 -0.02845 0.44963
 C28 C -0.07873 0.00751 0.46191
 N29 N -0.08842 -0.00257 0.48084
 H30 H 0.08343 0.04928 0.49149
 H31 H -0.00203 0.13949 0.47356
 H32 H 0.07827 0.20924 0.45321
 H33 H 0.16547 0.11721 0.47132
 H34 H -0.14351 -0.05475 0.50336
 H35 H -0.21641 -0.12064 0.48251
 H36 H -0.10934 -0.02080 0.43465
 H37 H -0.03912 0.04195 0.45630
 C38 C -0.01593 -0.10047 0.53770
 C39 C -0.06295 0.14711 0.53473
 C40 C -0.16842 -0.07540 0.45694
 C41 C 0.12771 0.16820 0.46080
 C42 C 1.16891 0.07095 0.14256
 H43 H 1.17296 0.11231 0.14255
 C44 C 1.20456 0.06408 0.13137
 H45 H 1.23613 0.10021 0.12266
 C46 C 1.12191 -0.02696 0.15365
 H47 H 1.08952 -0.06220 0.16233
 C48 C 1.15676 -0.03573 0.14258
 H49 H 1.15096 -0.07787 0.14264
 N50 N 1.12800 0.02564 0.15315
 C51 C 0.99097 0.06122 0.15661
 H52 H 0.98823 0.06135 0.17167
 C53 C 0.94976 0.06358 0.14457
 H54 H 0.91544 0.06603 0.15032
 C55 C 1.03663 0.05380 0.13079
 H56 H 1.06922 0.04796 0.12548
 C57 C 0.99654 0.05623 0.11830
 H58 H 0.99893 0.05290 0.10344
 Zn59 Zn 1.08067 0.04077 0.16667
 N60 N 1.03293 0.05577 0.14959
 C61 C 1.12202 0.14982 0.17972
 N62 N 1.12811 0.10332 0.18020
 C63 C 1.16904 0.09897 0.19077
 C64 C 1.20473 0.14151 0.20198
 C65 C 1.15691 0.19347 0.19081
 C66 C 0.99091 -0.06945 0.17676
 C67 C 0.94975 -0.11301 0.18882
 C68 C 0.99679 -0.05875 0.21507
 C69 C 1.03682 -0.01624 0.20257
 N70 N 1.03298 -0.02197 0.18377
 H71 H 1.08960 0.15264 0.17105
 H72 H 1.17308 0.06166 0.19077
 H73 H 1.23631 0.13697 0.21069
 H74 H 1.15111 0.22979 0.19077
 H75 H 0.98804 -0.07237 0.16171
 H76 H 0.91534 -0.14983 0.18308
 H77 H 0.99930 -0.05298 0.22993
 H78 H 1.06949 0.02223 0.20787
 C79 C 0.95224 0.06023 0.12527
 C80 C 1.19808 0.01021 0.13122
 C81 C 0.95238 -0.10711 0.20812
 C82 C 1.19826 0.18888 0.20216
 C83 C 0.03441 0.89898 0.86024
 H84 H -0.00270 0.85762 0.85969
 C85 C 0.07972 0.90504 0.87172
 H86 H 0.07754 0.86829 0.88010
 C87 C 0.08216 0.99761 0.85023
 H88 H 0.08278 1.03344 0.84182
 C89 C 0.12854 1.00557 0.86160
 H90 H 0.16475 1.04766 0.86205
 N91 N 0.03597 0.94500 0.85004
 C92 C -0.13809 0.90843 0.84492
 H93 H -0.14413 0.91016 0.82978
 C94 C -0.17915 0.90469 0.85670
 H95 H -0.21712 0.90301 0.85061
 C96 C -0.07948 0.91277 0.87128
 H97 H -0.03988 0.91801 0.87693
 C98 C -0.11936 0.90883 0.88352
 H99 H -0.11031 0.91042 0.89851
 Zn100 Zn -0.02954 0.93085 0.83582
 N101 N -0.08909 0.91316 0.85234
 C102 C -0.09843 0.82397 0.82078
 N103 N -0.04629 0.87064 0.82148
 C104 C -0.00226 0.87714 0.81152
 C105 C -0.01000 0.83666 0.79982
 C106 C -0.10808 0.78231 0.80914
 C107 C -0.01129 1.04184 0.82681
 C108 C -0.01008 1.08713 0.81502
 C109 C -0.02250 1.03604 0.78816
 C110 C -0.02366 0.99179 0.80040
 N111 N -0.01838 0.99522 0.81935
 H112 H -0.13266 0.81949 0.82896
 H113 H 0.03876 0.91455 0.81244
 H114 H 0.02514 0.84289 0.79165
 H115 H -0.14986 0.74581 0.80827
 H116 H -0.00846 1.04297 0.84195
 H117 H -0.00580 1.12350 0.82106
 H118 H -0.02798 1.03231 0.77313
 H119 H -0.03072 0.95401 0.79472
 C120 C -0.16919 0.90581 0.87616
 C121 C 0.12698 0.95884 0.87255
 C122 C -0.01635 1.08379 0.79553
 C123 C -0.06342 0.78912 0.79846
 C124 C 0.62160 -0.02748 -0.01587
 C125 C 0.65407 -0.01890 0.00056
 C126 C 0.63659 -0.01010 0.01720
 C127 C 0.58467 -0.01099 0.01770
 C128 C 0.55189 -0.01847 0.00099
 C129 C 0.57069 -0.02616 -0.01594
 C130 C 0.53817 -0.03225 -0.03243
 C131 C 0.48822 -0.03048 -0.03234
 C132 C 0.46846 -0.02367 -0.01566
 C133 C 0.50024 -0.01823 0.00121
 C134 C 0.56467 -0.00463 0.03441
 C135 C 0.51322 -0.00593 0.03474
 C136 C 0.48046 -0.01253 0.01829
 C137 C 0.42841 -0.01354 0.01839
 C138 C 0.39811 -0.01773 0.00163
 C139 C 0.41772 -0.02216 -0.01533
 H140 H 0.55136 -0.03795 -0.04561
 H141 H 0.46492 -0.03498 -0.04543
 H142 H 0.58847 0.00093 0.04743
 H143 H 0.49952 -0.00122 0.04799
 H144 H 0.69361 -0.01904 0.00040
 H145 H 0.35860 -0.01752 0.00180
 C146 C -0.07177 0.36595 0.64939
 C147 C -0.06949 0.33666 0.66653
 C148 C -0.06752 0.35725 0.68370
 C149 C -0.06922 0.40785 0.68392
 C150 C -0.07043 0.43859 0.66658
 C151 C -0.07114 0.41787 0.64921
 C152 C -0.07085 0.44975 0.63218
 C153 C -0.06934 0.50132 0.63221
 C154 C -0.06914 0.52235 0.64926
 C155 C -0.07043 0.49036 0.66660
 C156 C -0.06947 0.42865 0.70097
 C157 C -0.07098 0.47872 0.70100
 C158 C -0.07120 0.51034 0.68397
 C159 C -0.07181 0.56164 0.68379
 C160 C -0.06945 0.59325 0.66665
 C161 C -0.06743 0.57466 0.64948
 H162 H -0.07122 0.43530 0.61868
 H163 H -0.06869 0.52447 0.61872
 H164 H -0.06888 0.40613 0.71446
 H165 H -0.07140 0.49277 0.71450
 H166 H -0.06871 0.29744 0.66651
 H167 H -0.06867 0.63326 0.66667
 C168 C 0.42904 0.44283 0.31513
 C169 C 0.39882 0.41668 0.33189
 C170 C 0.41855 0.44071 0.34886
 C171 C 0.46934 0.49299 0.34919
 C172 C 0.50105 0.51938 0.33233
 C173 C 0.48113 0.49391 0.31524
 C174 C 0.51381 0.52012 0.29878
 C175 C 0.56531 0.57029 0.29911
 C176 C 0.58546 0.59662 0.31583
 C177 C 0.55275 0.57129 0.33255
 C178 C 0.48923 0.51956 0.36588
 C179 C 0.53923 0.57130 0.36598
 C180 C 0.57168 0.59778 0.34948
 C181 C 0.62264 0.65004 0.34942
 C182 C 0.65504 0.67394 0.33299
 C183 C 0.63745 0.64766 0.31634
 H184 H 0.50000 0.50173 0.28552
 H185 H 0.58904 0.58856 0.28609
 H186 H 0.46600 0.50073 0.37898
 H187 H 0.55252 0.59020 0.37916
 H188 H 0.35927 0.37693 0.33172
 H189 H 0.69464 0.71364 0.33316
 C190 C -0.11276 0.28315 0.58441
 C191 C -0.06043 0.29834 0.57254
 C192 C -0.07769 0.23526 0.57448
 C193 C -0.12996 0.21953 0.58607
 C194 C -0.07721 0.28992 0.60244
 C195 C -0.09445 0.22686 0.60434
 C196 C -0.02499 0.30558 0.59084
 C197 C -0.04224 0.24216 0.59254
 C198 C -0.07576 0.20410 0.55951
 C199 C -0.07151 0.17811 0.54784
 C200 C -0.07586 0.31900 0.61855
 C201 C -0.07411 0.34133 0.63232
 H202 H -0.14170 0.30043 0.58126
 H203 H -0.04649 0.32735 0.55927
 H204 H -0.17310 0.18382 0.58394
 H205 H -0.10836 0.19777 0.61759
 H206 H 0.01818 0.34126 0.59296
 H207 H -0.01324 0.22495 0.59575
 C208 C 0.79196 0.71196 0.26646
 C209 C 0.77999 0.72398 0.24537
 C210 C 0.82647 0.78616 0.24587
 C211 C 0.83908 0.77465 0.26669
 C212 C 0.74904 0.72809 0.27212
 C213 C 0.79558 0.79026 0.27256
 C214 C 0.73631 0.73954 0.25131
 C215 C 0.78351 0.80221 0.25157
 C216 C 0.87060 0.82097 0.23176
 C217 C 0.90765 0.85228 0.22068
 C218 C 0.70733 0.69763 0.28726
 C219 C 0.67460 0.67417 0.30022
 H220 H 0.79493 0.67447 0.27276
 H221 H 0.77413 0.69712 0.23403
 H222 H 0.88178 0.78939 0.27288
 H223 H 0.80157 0.81724 0.28389
 H224 H 0.69356 0.72477 0.24517
 H225 H 0.78049 0.83970 0.24529
 C226 C 0.28186 0.00174 -0.06142
 C227 C 0.29898 0.02614 -0.08221
 C228 C 0.24870 -0.02821 -0.08865
 C229 C 0.23107 -0.05258 -0.06808
 C230 C 0.31847 -0.02622 -0.06135
 C231 C 0.26817 -0.08054 -0.06781
 C232 C 0.33629 -0.00179 -0.08191
 C233 C 0.28527 -0.05622 -0.08862
 C234 C 0.20780 -0.03060 -0.10325
 C235 C 0.17206 -0.03430 -0.11463
 C236 C 0.35564 -0.02528 -0.04559
 C237 C 0.38465 -0.02423 -0.03209
 H238 H 0.28081 0.02554 -0.05006
 H239 H 0.31119 0.06997 -0.08829
 H240 H 0.18739 -0.07344 -0.06253
 H241 H 0.25591 -0.12438 -0.06173
 H242 H 0.38002 0.01904 -0.08740
 H243 H 0.28623 -0.08003 -0.09999
 C244 C -0.04118 0.74503 0.60614
 C245 C 0.00919 0.77498 0.59227
 C246 C -0.03217 0.76776 0.57589
 C247 C -0.08245 0.73837 0.58958
 C248 C -0.04729 0.68766 0.60310
 C249 C -0.08872 0.68035 0.58674
 C250 C 0.00304 0.71696 0.58944
 C251 C -0.03827 0.71043 0.57278
 C252 C -0.02460 0.81369 0.56141
 C253 C -0.01971 0.85247 0.55021
 C254 C -0.05547 0.64489 0.61891
 C255 C -0.06150 0.61174 0.63252
 H256 H -0.04253 0.75883 0.62001
 H257 H 0.04955 0.81434 0.59439
 H258 H -0.11754 0.74767 0.58949
 H259 H -0.12907 0.64096 0.58464
 H260 H 0.03808 0.70759 0.58956
 H261 H -0.03691 0.69679 0.55888
 C262 C 0.31978 0.37769 0.25305
 C263 C 0.34442 0.35951 0.23801
 C264 C 0.29342 0.29927 0.24090
 C265 C 0.26833 0.31688 0.25567
 C266 C 0.35124 0.36003 0.26847
 C267 C 0.30024 0.29979 0.27130
 C268 C 0.37642 0.34245 0.25372
 C269 C 0.32493 0.28172 0.25634
 C270 C 0.26016 0.26296 0.22622
 C271 C 0.23210 0.23054 0.21485
 C272 C 0.38160 0.39175 0.28444
 C273 C 0.40445 0.41593 0.29813
 H274 H 0.31809 0.41759 0.25188
 H275 H 0.36213 0.38366 0.22414
 H276 H 0.22356 0.30603 0.25632
 H277 H 0.28242 0.27551 0.28515
 H278 H 0.42119 0.35332 0.25310
 H279 H 0.32667 0.24185 0.25755
 C280 C 0.73499 -0.07064 -0.05716
 C281 C 0.70538 -0.11959 -0.06987
 C282 C 0.73579 -0.07728 -0.08708
 C283 C 0.76575 -0.02848 -0.07453
 C284 C 0.68599 -0.05850 -0.06068
 C285 C 0.71641 -0.01617 -0.07788
 C286 C 0.65585 -0.10737 -0.07319
 C287 C 0.68680 -0.06515 -0.09067
 C288 C 0.76659 -0.08603 -0.10118
 C289 C 0.79518 -0.09108 -0.11214
 C290 C 0.66067 -0.04745 -0.04538
 C291 C 0.64193 -0.03822 -0.03224
 H292 H 0.75463 -0.07271 -0.04323
 H293 H 0.70113 -0.16222 -0.06673
 H294 H 0.81127 0.00389 -0.07521
 H295 H 0.72068 0.02647 -0.08100
 H296 H 0.61031 -0.13966 -0.07246
 H297 H 0.66728 -0.06308 -0.10462
 C298 C 0.29995 0.00108 0.06215
 C299 C 0.26798 -0.04791 0.07778
 C300 C 0.29316 -0.00511 0.09254
 C301 C 0.32472 0.04391 0.07709
 C302 C 0.35087 -0.00822 0.06501
 C303 C 0.37613 0.03462 0.07975
 C304 C 0.31935 -0.05732 0.08043
 C305 C 0.34407 -0.01441 0.09547
 C306 C 0.25993 -0.00201 0.10720
 C307 C 0.23190 0.00239 0.11855
 C308 C 0.38116 -0.00969 0.04906
 C309 C 0.40394 -0.01110 0.03538
 H310 H 0.28215 0.00751 0.04829
 H311 H 0.22318 -0.08183 0.07712
 H312 H 0.32656 0.08558 0.07587
 H313 H 0.42094 0.06853 0.08038
 H314 H 0.31756 -0.09895 0.08162
 H315 H 0.36176 -0.02082 0.10935
 C316 C 0.70003 0.80717 0.39277
 C317 C 0.67788 0.79659 0.41318
 C318 C 0.73761 0.81409 0.42066
 C319 C 0.76007 0.82520 0.40047
 C320 C 0.68750 0.74554 0.39423
 C321 C 0.74720 0.76314 0.40175
 C322 C 0.66483 0.73422 0.41440
 C323 C 0.72510 0.75246 0.42214
 C324 C 0.76860 0.85369 0.43476
 C325 C 0.79737 0.88738 0.44570
 C326 C 0.66199 0.70912 0.37894
 C327 C 0.64311 0.68112 0.36580
 H328 H 0.68949 0.82930 0.38052
 H329 H 0.64973 0.81079 0.41804
 H330 H 0.79953 0.86303 0.39486
 H331 H 0.77546 0.74905 0.39690
 H332 H 0.62535 0.69631 0.41995
 H333 H 0.73569 0.73038 0.43439
 C334 C -0.02961 0.22097 0.72703
 C335 C 0.01350 0.24258 0.74332
 C336 C -0.03244 0.19937 0.75732
 C337 C -0.07543 0.17730 0.74122
 C338 C -0.04752 0.26434 0.73009
 C339 C -0.09350 0.22113 0.74409
 C340 C -0.00448 0.28658 0.74617
 C341 C -0.05037 0.24269 0.76045
 C342 C -0.02491 0.16101 0.77181
 C343 C -0.02007 0.12710 0.78302
 C344 C -0.05566 0.29894 0.71428
 C345 C -0.06165 0.32607 0.70067
 H346 H -0.02121 0.21231 0.71313
 H347 H 0.05758 0.25103 0.74315
 H348 H -0.10452 0.13196 0.73931
 H349 H -0.13758 0.21269 0.74423
 H350 H 0.02455 0.33197 0.74803
 H351 H -0.05875 0.25122 0.77438
 C352 C 0.74376 -0.02198 0.07805
 C353 C 0.80535 -0.00618 0.07440
 C354 C 0.82602 0.04081 0.08760
 C355 C 0.76504 0.02518 0.09148
 C356 C 0.74837 0.02124 0.06140
 C357 C 0.76891 0.06829 0.07457
 C358 C 0.80938 0.03686 0.05758
 C359 C 0.83063 0.08403 0.07095
 C360 C 0.87028 0.05023 0.10168
 C361 C 0.90743 0.05603 0.11273
 C362 C 0.70657 0.00991 0.04628
 C363 C 0.67380 0.00060 0.03332
 H364 H 0.70760 -0.06569 0.08080
 H365 H 0.82081 -0.03671 0.07447
 H366 H 0.74735 0.02057 0.10560
 H367 H 0.75336 0.09875 0.07446
 H368 H 0.82719 0.04149 0.04348
 H369 H 0.86680 0.12773 0.06819
 C370 C 0.26399 0.29037 0.39193
 C371 C 0.27904 0.25966 0.40895
 C372 C 0.24955 0.27730 0.42210
 C373 C 0.23399 0.30752 0.40526
 C374 C 0.31940 0.34531 0.39486
 C375 C 0.28993 0.36301 0.40799
 C376 C 0.33509 0.31516 0.41167
 C377 C 0.30492 0.33222 0.42509
 C378 C 0.20862 0.23868 0.43666
 C379 C 0.17284 0.20655 0.44801
 C380 C 0.35656 0.38164 0.37911
 C381 C 0.38555 0.40966 0.36562
 H382 H 0.24750 0.27357 0.37813
 H383 H 0.27415 0.21677 0.40951
 H384 H 0.19196 0.30394 0.40277
 H385 H 0.29482 0.40590 0.40742
 H386 H 0.37715 0.31880 0.41413
 H387 H 0.32129 0.34892 0.43891
 C388 C -0.12639 0.60965 0.74473
 C389 C -0.08311 0.62746 0.76118
 C390 C -0.07804 0.68631 0.75868
 C391 C -0.12124 0.66906 0.74251
 C392 C -0.07744 0.63215 0.73073
 C393 C -0.07237 0.69100 0.72829
 C394 C -0.03423 0.64941 0.74689
 C395 C -0.02919 0.70864 0.74464
 C396 C -0.07615 0.71938 0.77365
 C397 C -0.07194 0.74958 0.78533
 C398 C -0.07602 0.60445 0.71462
 C399 C -0.07422 0.58389 0.70085
 H400 H -0.16634 0.56856 0.74458
 H401 H -0.08759 0.60168 0.77489
 H402 H -0.15702 0.67744 0.74088
 H403 H -0.06787 0.71690 0.71460
 H404 H 0.00157 0.64105 0.74851
 H405 H 0.01081 0.74972 0.74475
   
