data_POSCAR
  _audit_creation_date              2014-09-24
  _audit_creation_method            'ToBaCCo'
  _symmetry_space_group_name_H-M    'P1'
  _symmetry_Int_Tables_number       1
  _symmetry_cell_setting            triclinic
  loop_
  _symmetry_equiv_pos_as_xyz
 x,y,z
_cell_length_a 28.0870
_cell_length_b 28.1399
_cell_length_c 28.0179
_cell_angle_alpha 89.990600
_cell_angle_beta 90.002700
_cell_angle_gamma 89.862000
loop_
  _atom_site_label
  _atom_site_type_symbol
  _atom_site_fract_x
  _atom_site_fract_y
  _atom_site_fract_z
C1 C 0.14963 0.18599 0.21826
 C2 C 0.14950 0.22023 0.18188
 C3 C 0.18438 0.21934 0.14691
 C4 C 0.21984 0.18418 0.14788
 C5 C 0.21999 0.15030 0.18381
 C6 C 0.18467 0.15121 0.21923
 C7 C 0.11947 0.17755 0.25610
 N8 N 0.13560 0.13870 0.27970
 C9 C 0.17526 0.12215 0.25766
 C10 C 0.25769 0.12007 0.17513
 N11 N 0.28005 0.13506 0.13503
 C12 C 0.25741 0.17406 0.11792
 C13 C 0.17484 0.25602 0.11575
 N14 N 0.13523 0.27883 0.13121
 C15 C 0.11931 0.25744 0.17144
 H16 H 0.08788 0.19768 0.26537
 H17 H 0.19530 0.09099 0.26839
 H18 H 0.26775 0.08924 0.19601
 H19 H 0.26720 0.19321 0.08586
 H20 H 0.19485 0.26521 0.08405
 H21 H 0.08791 0.26795 0.19127
 C22 C -0.14652 0.81733 0.22113
 C23 C -0.14749 0.78192 0.18593
 C24 C -0.18341 0.78175 0.15203
 C25 C -0.21881 0.81698 0.15290
 C26 C -0.21788 0.85201 0.18768
 C27 C -0.18150 0.85218 0.22201
 C28 C -0.11535 0.82679 0.25786
 N29 N -0.13081 0.86634 0.28070
 C30 C -0.17103 0.88232 0.25930
 C31 C -0.25577 0.88206 0.17908
 N32 N -0.27930 0.86583 0.14016
 C33 C -0.25720 0.82624 0.12372
 C34 C -0.17475 0.74415 0.12175
 N35 N -0.13467 0.72182 0.13670
 C36 C -0.11757 0.74442 0.17575
 H37 H -0.08368 0.80674 0.26703
 H38 H -0.19088 0.91366 0.26981
 H39 H -0.26511 0.91364 0.19914
 H40 H -0.26785 0.80615 0.09254
 H41 H -0.19561 0.73409 0.09088
 H42 H -0.08550 0.73461 0.19486
 C43 C -0.15275 0.18228 -0.22025
 C44 C -0.15387 0.21784 -0.18521
 C45 C -0.18866 0.21714 -0.15016
 C46 C -0.22279 0.18082 -0.14975
 C47 C -0.22171 0.14565 -0.18441
 C48 C -0.18646 0.14639 -0.21988
 C49 C -0.12234 0.17349 -0.25780
 N50 N -0.13702 0.13333 -0.27994
 C51 C -0.17602 0.11629 -0.25727
 C52 C -0.25833 0.11460 -0.17465
 N53 N -0.28125 0.13034 -0.13513
 C54 C -0.26003 0.17061 -0.11946
 C55 C -0.18023 0.25511 -0.12027
 N56 N -0.14139 0.27847 -0.13661
 C57 C -0.12487 0.25617 -0.17612
 H58 H -0.09160 0.19437 -0.26793
 H59 H -0.19496 0.08420 -0.26692
 H60 H -0.26733 0.08282 -0.19446
 H61 H -0.27063 0.19067 -0.08820
 H62 H -0.20029 0.26463 -0.08867
 H63 H -0.09368 0.26666 -0.19621
 C64 C 0.15142 0.81804 -0.22058
 C65 C 0.15031 0.78192 -0.18613
 C66 C 0.18455 0.78045 -0.15054
 C67 C 0.22034 0.81511 -0.14898
 C68 C 0.22143 0.85083 -0.18306
 C69 C 0.18676 0.85232 -0.21908
 C70 C 0.12208 0.82884 -0.25846
 N71 N 0.13896 0.86863 -0.27970
 C72 C 0.17834 0.88348 -0.25613
 C73 C 0.25921 0.88002 -0.17217
 N74 N 0.28075 0.86267 -0.13254
 C75 C 0.25749 0.82316 -0.11787
 C76 C 0.17398 0.74239 -0.12151
 N77 N 0.13439 0.72106 -0.13884
 C78 C 0.11948 0.74475 -0.17818
 H79 H 0.09058 0.80958 -0.26943
 H80 H 0.19890 0.91479 -0.26494
 H81 H 0.26989 0.91174 -0.19124
 H82 H 0.26657 0.80223 -0.08670
 H83 H 0.19318 0.73136 -0.08986
 H84 H 0.08823 0.73593 -0.19899
 C85 C 0.18581 1.15037 0.78161
 C86 C 0.22028 1.15034 0.81776
 C87 C 0.21961 1.18525 0.85262
 C88 C 0.18443 1.22065 0.85172
 C89 C 0.15030 1.22071 0.81597
 C90 C 0.15099 1.18535 0.78070
 C91 C 0.17712 1.12009 0.74402
 N92 N 0.13806 1.13611 0.72064
 C93 C 0.12162 1.17580 0.74254
 C94 C 0.12003 1.25829 0.82473
 N95 N 0.13526 1.28067 0.86470
 C96 C 0.17443 1.25817 0.88166
 C97 C 0.25642 1.17571 0.88367
 N98 N 0.27904 1.13606 0.86822
 C99 C 0.25745 1.12012 0.82813
 H100 H 0.19721 1.08850 0.73478
 H101 H 0.09034 1.19576 0.73190
 H102 H 0.08899 1.26824 0.80403
 H103 H 0.19373 1.26799 0.91363
 H104 H 0.26577 1.19570 0.91532
 H105 H 0.26776 1.08865 0.80839
 C106 C 0.81697 0.85269 0.77838
 C107 C 0.78152 0.85183 0.81353
 C108 C 0.78120 0.81598 0.84743
 C109 C 0.81635 0.78053 0.84653
 C110 C 0.85144 0.78136 0.81175
 C111 C 0.85175 0.81767 0.77748
 C112 C 0.82663 0.88387 0.74179
 N113 N 0.86624 0.86835 0.71903
 C114 C 0.88207 0.82809 0.74032
 C115 C 0.88150 0.74356 0.82036
 N116 N 0.86520 0.72017 0.85930
 C117 C 0.82558 0.74226 0.87575
 C118 C 0.74364 0.82482 0.87775
 N119 N 0.72151 0.86496 0.86281
 C120 C 0.74417 0.88191 0.82374
 H121 H 0.80671 0.91562 0.73270
 H122 H 0.91347 0.80823 0.72985
 H123 H 0.91315 0.73420 0.80033
 H124 H 0.80548 0.73170 0.90699
 H125 H 0.73349 0.80408 0.90866
 H126 H 0.73452 0.91399 0.80467
 C127 C 0.18287 0.84810 1.22107
 C128 C 0.21832 0.84716 1.18588
 C129 C 0.21762 0.81241 1.15087
 C130 C 0.18146 0.77819 1.15067
 C131 C 0.14639 0.77909 1.18546
 C132 C 0.14710 0.81426 1.22089
 C133 C 0.17399 0.87848 1.25855
 N134 N 0.13390 0.86363 1.28078
 C135 C 0.11697 0.82457 1.25829
 C136 C 0.11538 0.74251 1.17573
 N137 N 0.13105 0.71981 1.13611
 C138 C 0.17124 0.74113 1.12035
 C139 C 0.25533 0.82099 1.12071
 N140 N 0.27856 0.85992 1.13682
 C141 C 0.25644 0.87635 1.17648
 H142 H 0.19472 0.90934 1.26852
 H143 H 0.08492 0.80555 1.26802
 H144 H 0.08359 0.73338 1.19556
 H145 H 0.19116 0.73071 1.08894
 H146 H 0.26476 0.80100 1.08906
 H147 H 0.26690 0.90758 1.19643
 C148 C 0.81731 1.15058 1.22174
 C149 C 0.78126 1.14934 1.18719
 C150 C 0.77971 1.18360 1.15170
 C151 C 0.81419 1.21948 1.15033
 C152 C 0.84986 1.22071 1.18449
 C153 C 0.85145 1.18605 1.22041
 C154 C 0.82825 1.12121 1.25947
 N155 N 0.86798 1.13822 1.28076
 C156 C 0.88268 1.17770 1.25740
 C157 C 0.87899 1.25846 1.17361
 N158 N 0.86164 1.27983 1.13393
 C159 C 0.82219 1.25649 1.11923
 C160 C 0.74189 1.17289 1.12244
 N161 N 0.72076 1.13319 1.13953
 C162 C 0.74433 1.11831 1.17896
 H163 H 0.80916 1.08958 1.27027
 H164 H 0.91395 1.19833 1.26630
 H165 H 0.91073 1.26924 1.19265
 H166 H 0.80136 1.26543 1.08795
 H167 H 0.73089 1.19206 1.09077
 H168 H 0.73560 1.08698 1.19960
 O169 O 0.43331 0.91060 0.91955
 O170 O 0.38098 0.95621 0.96294
 C171 C 0.39067 0.92343 0.93197
 O172 O 0.56726 0.91485 1.09035
 O173 O 0.61933 0.95798 1.04437
 C174 C 0.60984 0.92737 1.07753
 O175 O 0.43330 0.91056 1.08592
 O176 O 0.38094 0.95618 1.04245
 C177 C 0.39067 0.92332 1.07332
 O178 O 0.56710 0.91471 0.91563
 O179 O 0.61926 0.95780 0.96156
 C180 C 0.60966 0.92720 0.92844
 Zr181 Zr 0.50017 0.93706 0.94267
 O182 O 0.50559 0.86200 0.94382
 O183 O 0.49507 0.93647 0.86730
 Zr184 Zr 0.50021 0.93722 1.06329
 O185 O 0.50572 0.86217 1.06290
 O186 O 0.49492 0.93725 1.13867
 O187 O 0.45769 0.92791 1.00297
 O188 O 0.54161 0.92853 1.00299
 O189 O 0.56675 1.08002 0.91556
 O190 O 0.61911 1.03686 0.96142
 C191 C 0.60940 1.06756 0.92835
 O192 O 0.43291 1.08419 1.08608
 O193 O 0.38084 1.03796 1.04332
 C194 C 0.39034 1.07114 1.07386
 O195 O 0.56666 1.08025 1.08989
 O196 O 0.61903 1.03704 1.04410
 C197 C 0.60928 1.06784 1.07702
 O198 O 0.43295 1.08419 0.91985
 O199 O 0.38075 1.03857 0.96318
 C200 C 0.39038 1.07148 0.93239
 Zr201 Zr 0.49989 1.05741 0.94244
 O202 O 0.50499 1.13246 0.94250
 O203 O 0.49460 1.05703 0.86706
 Zr204 Zr 0.49984 1.05748 1.06320
 O205 O 0.50482 1.13254 1.06289
 O206 O 0.49468 1.05718 1.13859
 Zr207 Zr 0.42925 0.99736 1.00282
 Zr208 Zr 0.57078 0.99735 1.00288
 O209 O 0.54115 1.06612 1.00281
 O210 O 0.45736 1.06677 1.00281
 O211 O 0.54243 0.99723 0.93319
 O212 O 0.45874 0.99733 1.07190
 O213 O 0.45877 0.99725 0.93378
 O214 O 0.54247 0.99739 1.07259
 H215 H 0.56331 0.90072 1.00304
 H216 H 0.43728 0.99727 1.09997
 H217 H 0.56260 1.09402 1.00274
 H218 H 0.43726 0.99729 0.90575
 H219 H 0.52122 0.95699 1.15112
 H220 H 0.52165 1.03819 1.15101
 H221 H 0.47799 1.14488 1.04363
 H222 H 0.47845 1.14488 0.96208
 H223 H 0.52153 1.03800 0.85463
 H224 H 0.52082 0.95690 0.85480
 H225 H 0.47803 0.84972 0.96196
 H226 H 0.47892 0.84979 1.04372
 O227 O -0.08973 0.43376 0.07990
 O228 O -0.04376 0.38146 0.03687
 C229 C -0.07669 0.39121 0.06771
 O230 O -0.08561 0.56729 -0.09099
 O231 O -0.04224 0.61922 -0.04511
 C232 C -0.07299 0.60975 -0.07817
 O233 O -0.09027 0.43359 -0.08661
 O234 O -0.04458 0.38127 -0.04324
 C235 C -0.07760 0.39099 -0.07400
 O236 O -0.08554 0.56721 0.08371
 O237 O -0.04239 0.61918 0.03769
 C238 C -0.07299 0.60969 0.07089
 Zr239 Zr -0.06317 0.50033 0.05667
 O240 O -0.13837 0.50582 0.05587
 O241 O -0.06338 0.49521 0.13206
 Zr242 Zr -0.06320 0.50035 -0.06412
 O243 O -0.13837 0.50596 -0.06403
 O244 O -0.06288 0.49506 -0.13949
 O245 O -0.07259 0.45797 -0.00370
 O246 O -0.07182 0.54162 -0.00372
 O247 O 0.07973 0.56647 0.08368
 O248 O 0.03664 0.61887 0.03779
 C249 C 0.06727 0.60905 0.07092
 O250 O 0.08405 0.43301 -0.08664
 O251 O 0.03802 0.38100 -0.04353
 C252 C 0.07114 0.39053 -0.07420
 O253 O 0.08065 0.56656 -0.09049
 O254 O 0.03775 0.61878 -0.04433
 C255 C 0.06856 0.60911 -0.07734
 O256 O 0.08389 0.43284 0.07935
 O257 O 0.03817 0.38090 0.03585
 C258 C 0.07110 0.39037 0.06676
 Zr259 Zr 0.05728 0.49978 0.05667
 O260 O 0.13248 0.50480 0.05628
 O261 O 0.05731 0.49444 0.13205
 Zr262 Zr 0.05729 0.49989 -0.06405
 O263 O 0.13251 0.50461 -0.06422
 O264 O 0.05649 0.49482 -0.13944
 Zr265 Zr -0.00310 0.42945 -0.00375
 Zr266 Zr -0.00286 0.57071 -0.00369
 O267 O 0.06600 0.54100 -0.00362
 O268 O 0.06650 0.45742 -0.00371
 O269 O -0.00288 0.54240 0.06601
 O270 O -0.00303 0.45886 -0.07281
 O271 O -0.00299 0.45887 0.06534
 O272 O -0.00286 0.54254 -0.07342
 H273 H -0.09966 0.56331 -0.00370
 H274 H -0.00311 0.43729 -0.10076
 H275 H 0.09406 0.56227 -0.00343
 H276 H -0.00288 0.43751 0.09345
 H277 H -0.04333 0.52151 -0.15190
 H278 H 0.03824 0.52230 -0.15177
 H279 H 0.14484 0.47841 -0.04415
 H280 H 0.14487 0.47781 0.03735
 H281 H 0.03776 0.52092 0.14456
 H282 H -0.04342 0.52132 0.14452
 H283 H -0.15075 0.47848 0.03752
 H284 H -0.15083 0.47973 -0.04417
 O285 O 1.09020 -0.07981 0.56747
 O286 O 1.04416 -0.03684 0.61983
 C287 C 1.07726 -0.06749 0.61018
 O288 O 1.08549 0.08991 0.43329
 O289 O 1.04244 0.04418 0.38092
 C290 C 1.07312 0.07710 0.39056
 O291 O 1.08919 0.08586 0.56755
 O292 O 1.04372 0.04236 0.61985
 C293 C 1.07640 0.07331 0.61023
 O294 O 1.08583 -0.08405 0.43327
 O295 O 1.04262 -0.03827 0.38083
 C296 C 1.07325 -0.07135 0.39056
 Zr297 Zr 1.06359 -0.05696 0.50033
 O298 O 1.13878 -0.05550 0.49499
 O299 O 1.06487 -0.13199 0.50554
 Zr300 Zr 1.06280 0.06311 0.50038
 O301 O 1.13801 0.06291 0.49532
 O302 O 1.06222 0.13816 0.50554
 O303 O 1.07239 0.00306 0.54301
 O304 O 1.07186 0.00309 0.45886
 O305 O 0.92031 -0.08411 0.43313
 O306 O 0.96345 -0.03840 0.38082
 C307 C 0.93272 -0.07127 0.39044
 O308 O 0.91511 0.08511 0.56726
 O309 O 0.96180 0.04290 0.61965
 C310 C 0.92820 0.07299 0.60998
 O311 O 0.91960 0.08937 0.43320
 O312 O 0.96315 0.04389 0.38082
 C313 C 0.93218 0.07665 0.39051
 O314 O 0.91642 -0.08041 0.56717
 O315 O 0.96171 -0.03706 0.61969
 C316 C 0.92906 -0.06796 0.60990
 Zr317 Zr 0.94300 -0.05750 0.50021
 O318 O 0.86780 -0.05748 0.49499
 O319 O 0.94375 -0.13257 0.50529
 Zr320 Zr 0.94234 0.06274 0.50028
 O321 O 0.86716 0.06251 0.49488
 O322 O 0.94241 0.13779 0.50565
 Zr323 Zr 1.00278 0.00269 0.57128
 Zr324 Zr 1.00294 0.00285 0.42937
 O325 O 0.93402 0.00263 0.45884
 O326 O 0.93327 0.00254 0.54283
 O327 O 1.00337 -0.06654 0.45778
 O328 O 1.00247 0.07150 0.54174
 O329 O 1.00330 -0.06601 0.54161
 O330 O 1.00255 0.07225 0.45777
 H331 H 1.09975 0.00311 0.43720
 H332 H 1.00228 0.09943 0.56327
 H333 H 0.90608 0.00258 0.43726
 H334 H 1.00345 -0.09396 0.56312
 H335 H 1.04277 0.15046 0.47882
 H336 H 0.96134 0.15024 0.47865
 H337 H 0.85479 0.04268 0.52124
 H338 H 0.85528 -0.03847 0.52192
 H339 H 0.96271 -0.14484 0.47819
 H340 H 1.04389 -0.14455 0.48019
 H341 H 1.15100 -0.03755 0.52274
 H342 H 1.15042 0.04388 0.52229
 C343 C 1.11473 0.11876 0.31714
 C344 C 1.09571 0.10021 0.35093
 C345 C 0.89061 -0.11322 0.31753
 C346 C 0.91000 -0.09438 0.35093
 C347 C 0.88439 0.11316 0.68302
 C348 C 0.90416 0.09485 0.64950
 C349 C 1.11906 -0.10970 0.68326
 C350 C 1.10044 -0.09023 0.64972
 C351 C 0.31720 1.11398 1.11478
 C352 C 0.35080 1.09464 1.09620
 C353 C 0.31776 0.88228 0.88925
 C354 C 0.35124 0.90058 0.90892
 C355 C 0.68326 0.88647 1.11996
 C356 C 0.64946 0.90517 1.10107
 C357 C 0.68204 1.10916 0.88564
 C358 C 0.64875 1.09003 0.90483
 C359 C 0.11347 0.31766 0.10863
 C360 C 0.09443 0.35096 0.08936
 C361 C -0.12011 0.31796 -0.11488
 C362 C -0.10120 0.35161 -0.09622
 C363 C 0.11149 0.68191 -0.11820
 C364 C 0.09180 0.64845 -0.10001
 C365 C -0.11337 0.68264 0.11430
 C366 C -0.09498 0.64914 0.09474
 C367 C 1.11795 0.11513 0.68342
 C368 C 1.09935 0.09600 0.64979
 C369 C 0.88691 -0.11020 0.68242
 C370 C 0.90590 -0.09076 0.64921
 C371 C 1.11360 -0.11501 0.31772
 C372 C 1.09517 -0.09530 0.35114
 C373 C 0.88979 0.11832 0.31766
 C374 C 0.90937 0.09973 0.35107
 C375 C 0.11415 0.31767 -0.11500
 C376 C 0.09475 0.35113 -0.09642
 C377 C -0.11766 0.31874 0.11078
 C378 C -0.09940 0.35201 0.09096
 C379 C -0.11408 0.68289 -0.12047
 C380 C -0.09528 0.64923 -0.10160
 C381 C 0.10867 0.68124 0.11403
 C382 C 0.08960 0.64816 0.09465
 C383 C 0.31781 1.11418 0.89073
 C384 C 0.35106 1.09498 0.90992
 C385 C 0.31781 0.88123 1.11476
 C386 C 0.35133 0.90003 1.09580
 C387 C 0.68184 1.11025 1.11858
 C388 C 0.64854 1.09069 1.10005
 C389 C 0.68247 0.88647 0.88522
 C390 C 0.64906 0.90506 0.90472
   
