data_POSCAR
  _audit_creation_date              2014-09-24
  _audit_creation_method            'ToBaCCo'
  _symmetry_space_group_name_H-M    'P1'
  _symmetry_Int_Tables_number       1
  _symmetry_cell_setting            triclinic
  loop_
  _symmetry_equiv_pos_as_xyz
 x,y,z
_cell_length_a 23.1871
_cell_length_b 23.7443
_cell_length_c 54.2808
_cell_angle_alpha 91.300100
_cell_angle_beta 89.077900
_cell_angle_gamma 119.915100
loop_
  _atom_site_label
  _atom_site_type_symbol
  _atom_site_fract_x
  _atom_site_fract_y
  _atom_site_fract_z
C1 C 0.01455 0.11424 0.51510
 H2 H 0.05809 0.12567 0.50416
 C3 C 0.01269 0.16413 0.52840
 H4 H 0.05465 0.21301 0.52718
 C5 C -0.09153 0.03728 0.53038
 H6 H -0.13197 -0.01234 0.53123
 C7 C -0.09542 0.08597 0.54412
 H8 H -0.13852 0.07246 0.55574
 N9 N -0.03635 0.05183 0.51663
 C10 C 0.03470 -0.08594 0.51894
 H11 H 0.06381 -0.07249 0.50213
 C12 C 0.03543 -0.13234 0.53420
 H13 H 0.06638 -0.15313 0.52922
 C14 C -0.04493 -0.07943 0.54486
 H15 H -0.07762 -0.06030 0.54871
 C16 C -0.04581 -0.12553 0.56053
 H17 H -0.07768 -0.13926 0.57666
 Zn18 Zn -0.02263 -0.01322 0.50064
 N19 N -0.00587 -0.06112 0.52431
 C20 C 0.11361 0.05847 0.48439
 N21 N 0.04837 0.03020 0.47794
 C22 C 0.02997 0.04318 0.45609
 C23 C 0.07746 0.08818 0.44019
 C24 C 0.16306 0.10386 0.46886
 C25 C -0.15387 -0.07387 0.47883
 C26 C -0.20552 -0.12281 0.46478
 C27 C -0.13839 -0.17364 0.45859
 C28 C -0.08845 -0.12378 0.47249
 N29 N -0.09688 -0.07545 0.48241
 H30 H 0.12694 0.04931 0.50225
 H31 H -0.02218 0.02138 0.45162
 H32 H 0.06131 0.09872 0.42317
 H33 H 0.21452 0.12823 0.47466
 H34 H -0.15921 -0.03441 0.48662
 H35 H -0.24945 -0.11878 0.46268
 H36 H -0.12857 -0.21081 0.45120
 H37 H -0.04228 -0.12349 0.47533
 C38 C -0.00681 -0.15416 0.55490
 C39 C -0.04216 0.15043 0.54352
 C40 C -0.19878 -0.17452 0.45418
 C41 C 0.14474 0.12097 0.44692
 C42 C 1.07682 0.02369 0.13384
 H43 H 1.07452 0.06774 0.13617
 C44 C 1.12490 0.02352 0.11822
 H45 H 1.15712 0.06696 0.10802
 C46 C 1.04111 -0.08403 0.14583
 H47 H 1.01042 -0.12485 0.15738
 C48 C 1.08891 -0.08633 0.13035
 H49 H 1.09355 -0.12945 0.13021
 N50 N 1.03554 -0.02961 0.14712
 C51 C 0.85007 -0.04730 0.15671
 H52 H 0.83546 -0.08352 0.17068
 C53 C 0.80069 -0.04677 0.14258
 H54 H 0.74914 -0.08239 0.14609
 C55 C 0.93385 0.04365 0.13568
 H56 H 0.98559 0.07909 0.13301
 C57 C 0.88581 0.04627 0.12122
 H58 H 0.90144 0.08332 0.10738
 Zn59 Zn 0.97958 -0.01669 0.16979
 N60 N 0.91557 -0.00398 0.15257
 C61 C 1.03834 0.11332 0.19095
 N62 N 1.03870 0.05633 0.18892
 C63 C 1.08541 0.04787 0.20035
 C64 C 1.13416 0.09746 0.21471
 C65 C 1.08678 0.16480 0.20517
 C66 C 0.89492 -0.14980 0.18297
 C67 C 0.84962 -0.19837 0.19859
 C68 C 0.88229 -0.11816 0.23144
 C69 C 0.92738 -0.07149 0.21539
 N70 N 0.93213 -0.08748 0.19150
 H71 H 1.00103 0.11906 0.18142
 H72 H 1.08460 0.00206 0.19825
 H73 H 1.17025 0.08880 0.22374
 H74 H 1.08633 0.21010 0.20610
 H75 H 0.89708 -0.16103 0.16369
 H76 H 0.81856 -0.24721 0.19137
 H77 H 0.87817 -0.10393 0.25020
 H78 H 0.95571 -0.02160 0.22173
 C79 C 0.81842 -0.00072 0.12407
 C80 C 1.13180 -0.03182 0.11627
 C81 C 0.84143 -0.18208 0.22291
 C82 C 1.13556 0.15707 0.21741
 C83 C 0.05563 1.01064 0.87487
 H84 H 0.00461 0.98994 0.88096
 C85 C 0.10185 1.00948 0.89057
 H86 H 0.08628 0.98995 0.90885
 C87 C 0.13680 1.05676 0.84320
 H88 H 0.14908 1.07229 0.82432
 C89 C 0.18515 1.05737 0.85854
 H90 H 0.23508 1.07457 0.85154
 N91 N 0.07327 1.03288 0.85151
 C92 C -0.13189 0.93404 0.84932
 H93 H -0.13696 0.89268 0.83875
 C94 C -0.18502 0.92824 0.86399
 H95 H -0.23013 0.88165 0.86413
 C96 C -0.06684 1.04493 0.86090
 H97 H -0.02042 1.09037 0.85961
 C98 C -0.11811 1.04175 0.87539
 H99 H -0.10924 1.08568 0.88509
 Zn100 Zn 0.00299 1.01288 0.82952
 N101 N -0.07421 0.99186 0.84826
 C102 C -0.01902 0.88664 0.81744
 N103 N -0.00261 0.94586 0.80846
 C104 C 0.02222 0.96303 0.78525
 C105 C 0.03290 0.92070 0.77026
 C106 C -0.00989 0.84224 0.80286
 C107 C 0.06555 1.14492 0.81133
 C108 C 0.06349 1.19291 0.79737
 C109 C -0.04305 1.11120 0.78128
 C110 C -0.03902 1.06530 0.79542
 N111 N 0.01432 1.08261 0.81011
 H112 H -0.03650 0.87497 0.83624
 H113 H 0.03722 1.01102 0.77869
 H114 H 0.05347 0.93581 0.75197
 H115 H -0.02181 0.79575 0.81035
 H116 H 0.10695 1.15766 0.82347
 H117 H 0.10402 1.24260 0.79866
 H118 H -0.08571 1.09540 0.76945
 H119 H -0.07908 1.01535 0.79495
 C120 C -0.17881 0.98289 0.87743
 C121 C 0.16698 1.03134 0.88223
 C122 C 0.00793 1.17633 0.78245
 C123 C 0.01823 0.86004 0.77922
 O124 O 0.60321 0.09929 -0.02318
 O125 O 0.48404 0.09785 0.02322
 O126 O 0.60025 0.10509 0.02455
 O127 O 0.49613 0.10834 -0.02453
 O128 O 0.43815 0.00110 -0.02557
 O129 O 0.54716 -0.00212 0.02298
 O130 O 0.43062 -0.00942 0.02208
 O131 O 0.54620 -0.00792 -0.02505
 Cu132 Cu 0.55131 0.11320 0.00019
 Cu133 Cu 0.48505 -0.01521 -0.00151
 C134 C 0.59479 0.04555 -0.03200
 C135 C 0.43661 0.04346 0.03045
 C136 C 0.59286 0.05160 0.03187
 C137 C 0.44918 0.05584 -0.03334
 O138 O -0.01868 0.55003 0.64183
 O139 O -0.01232 0.43906 0.68740
 O140 O -0.02846 0.53960 0.68954
 O141 O -0.02349 0.43707 0.63961
 O142 O 0.08633 0.49108 0.63978
 O143 O 0.08099 0.60084 0.68856
 O144 O 0.09721 0.49921 0.68752
 O145 O 0.09111 0.60357 0.64064
 Cu146 Cu -0.03145 0.48575 0.66454
 Cu147 Cu 0.09963 0.55433 0.66405
 C148 C 0.03596 0.59602 0.63350
 C149 C 0.04421 0.45086 0.69526
 C150 C 0.02455 0.58787 0.69749
 C151 C 0.03147 0.44486 0.63153
 O152 O 0.54110 0.53692 0.31276
 O153 O 0.42859 0.42256 0.35973
 O154 O 0.53533 0.53816 0.36057
 O155 O 0.42591 0.42916 0.31219
 O156 O 0.48085 0.37537 0.31147
 O157 O 0.59568 0.48989 0.35857
 O158 O 0.48922 0.37454 0.35931
 O159 O 0.59516 0.48229 0.31066
 Cu160 Cu 0.47708 0.48680 0.33647
 Cu161 Cu 0.54587 0.42541 0.33494
 C162 C 0.58726 0.52850 0.30364
 C163 C 0.43997 0.37878 0.36743
 C164 C 0.58491 0.53392 0.36749
 C165 C 0.43368 0.38314 0.30381
 C166 C 0.02396 0.30296 0.58116
 C167 C -0.03435 0.30015 0.59013
 N168 N -0.09441 0.24968 0.58336
 C169 C -0.09894 0.20125 0.56819
 C170 C -0.04053 0.20303 0.55942
 N171 N 0.01953 0.25457 0.56610
 N172 N 0.08407 0.35335 0.58805
 C173 C 0.08849 0.40089 0.60374
 C174 C 0.03004 0.39772 0.61307
 N175 N -0.03000 0.34730 0.60585
 H176 H -0.14766 0.16231 0.56296
 H177 H 0.13701 0.44004 0.60916
 C178 C 0.72814 0.66207 0.25371
 C179 C 0.69033 0.67987 0.26908
 N180 N 0.70196 0.74178 0.26893
 C181 C 0.75009 0.78695 0.25425
 C182 C 0.78844 0.76952 0.23890
 N183 N 0.77588 0.70702 0.23887
 N184 N 0.71761 0.60056 0.25433
 C185 C 0.67148 0.55618 0.26982
 C186 C 0.63371 0.57390 0.28534
 N187 N 0.64389 0.63545 0.28443
 H188 H 0.75785 0.83583 0.25440
 H189 H 0.66470 0.50768 0.27013
 C190 C 0.32177 0.06891 -0.08481
 C191 C 0.30081 0.01190 -0.07140
 N192 N 0.23753 -0.03793 -0.07384
 C193 C 0.19392 -0.03312 -0.08886
 C194 C 0.21440 0.02416 -0.10213
 N195 N 0.27834 0.07364 -0.09995
 N196 N 0.38454 0.11939 -0.08184
 C197 C 0.42709 0.11581 -0.06585
 C198 C 0.40609 0.05901 -0.05222
 N199 N 0.34338 0.00813 -0.05552
 H200 H 0.14374 -0.07372 -0.09047
 H201 H 0.47662 0.15715 -0.06364
 C202 C 0.04140 0.73770 0.58623
 C203 C -0.01769 0.69456 0.59851
 N204 N -0.07236 0.70077 0.59609
 C205 C -0.07053 0.74857 0.58218
 C206 C -0.01104 0.79269 0.57010
 N207 N 0.04330 0.78540 0.57232
 N208 N 0.09632 0.73203 0.58880
 C209 C 0.09518 0.68566 0.60334
 C210 C 0.03635 0.64276 0.61597
 N211 N -0.01898 0.64809 0.61308
 H212 H -0.11541 0.75134 0.58036
 H213 H 0.14008 0.68287 0.60522
 C214 C 0.29187 0.24970 0.25335
 C215 C 0.28495 0.30042 0.26385
 N216 N 0.23041 0.30504 0.25862
 C217 C 0.18209 0.26094 0.24341
 C218 C 0.18836 0.20935 0.23293
 N219 N 0.24369 0.20566 0.23827
 N220 N 0.34576 0.24425 0.25889
 C221 C 0.39300 0.28712 0.27470
 C222 C 0.38593 0.33772 0.28553
 N223 N 0.33195 0.34315 0.27967
 H224 H 0.13870 0.26544 0.24027
 H225 H 0.43514 0.28128 0.27895
 C226 C 0.73405 0.04152 -0.08204
 C227 C 0.67572 -0.01570 -0.07609
 N228 N 0.66502 -0.07312 -0.08602
 C229 C 0.71026 -0.07607 -0.10155
 C230 C 0.77009 -0.01854 -0.10735
 N231 N 0.77928 0.03856 -0.09724
 N232 N 0.74523 0.09918 -0.07226
 C233 C 0.70063 0.10216 -0.05652
 C234 C 0.64237 0.04470 -0.05009
 N235 N 0.63130 -0.01302 -0.06017
 H236 H 0.69943 -0.12317 -0.10856
 H237 H 0.71116 0.14877 -0.04884
 C238 C 0.28875 0.03353 0.07969
 C239 C 0.28507 -0.02305 0.06970
 N240 N 0.23209 -0.08183 0.07520
 C241 C 0.18237 -0.08669 0.09028
 C242 C 0.18554 -0.02998 0.10034
 N243 N 0.23914 0.02875 0.09465
 N244 N 0.34131 0.09241 0.07397
 C245 C 0.39036 0.09732 0.05852
 C246 C 0.38660 0.04069 0.04825
 N247 N 0.33385 -0.01823 0.05423
 H248 H 0.14034 -0.13428 0.09378
 H249 H 0.43139 0.14491 0.05414
 C250 C 0.72029 0.67897 0.41647
 C251 C 0.66125 0.67689 0.40994
 N252 N 0.64857 0.72359 0.41869
 C253 C 0.69248 0.77287 0.43357
 C254 C 0.75337 0.77650 0.44002
 N255 N 0.76437 0.72825 0.43110
 N256 N 0.73334 0.63240 0.40773
 C257 C 0.68995 0.58395 0.39246
 C258 C 0.63100 0.58230 0.38546
 N259 N 0.61811 0.62896 0.39455
 H260 H 0.67912 0.80836 0.43965
 H261 H 0.70199 0.54792 0.38554
 C262 C 0.05724 0.32207 0.74440
 C263 C -0.00480 0.31428 0.73800
 N264 N -0.06120 0.26376 0.74713
 C265 C -0.05856 0.21986 0.76200
 C266 C 0.00346 0.22603 0.76782
 N267 N 0.05998 0.27788 0.75906
 N268 N 0.11368 0.37281 0.73536
 C269 C 0.11092 0.41577 0.71998
 C270 C 0.04874 0.40735 0.71308
 N271 N -0.00771 0.35675 0.72243
 H272 H -0.10458 0.18066 0.76917
 H273 H 0.15684 0.45542 0.71290
 C274 C 0.73012 0.05463 0.08305
 C275 C 0.67514 -0.00446 0.07542
 N276 N 0.66723 -0.06106 0.08406
 C277 C 0.71180 -0.06133 0.09997
 C278 C 0.76741 -0.00218 0.10753
 N279 N 0.77504 0.05442 0.09872
 N280 N 0.73811 0.11127 0.07446
 C281 C 0.69386 0.11160 0.05844
 C282 C 0.63918 0.05245 0.05039
 N283 N 0.63118 -0.00432 0.05919
 H284 H 0.70464 -0.10741 0.10613
 H285 H 0.70199 0.15764 0.05179
 C286 C 0.30373 0.23358 0.41521
 C287 C 0.28685 0.27533 0.40338
 N288 N 0.22478 0.26668 0.40622
 C289 C 0.17845 0.21772 0.42014
 C290 C 0.19468 0.17505 0.43182
 N291 N 0.25753 0.18471 0.42924
 N292 N 0.36557 0.24170 0.41202
 C293 C 0.41106 0.28918 0.39729
 C294 C 0.39408 0.33069 0.38519
 N295 N 0.33225 0.32283 0.38872
 H296 H 0.12964 0.21273 0.42227
 H297 H 0.45971 0.29394 0.39484
 C298 C -0.00021 0.70994 0.74904
 C299 C 0.05667 0.73470 0.73389
 N300 N 0.10098 0.79937 0.73444
 C301 C 0.09052 0.84056 0.74916
 C302 C 0.03291 0.81612 0.76403
 N303 N -0.01063 0.75100 0.76379
 N304 N -0.04547 0.64559 0.74805
 C305 C -0.03712 0.60498 0.73227
 C306 C 0.01914 0.62969 0.71672
 N307 N 0.06519 0.69411 0.71811
 H308 H 0.12686 0.89189 0.74924
 H309 H -0.07466 0.55402 0.73157
   
