data_POSCAR
  _audit_creation_date              2014-09-24
  _audit_creation_method            'ToBaCCo'
  _symmetry_space_group_name_H-M    'P1'
  _symmetry_Int_Tables_number       1
  _symmetry_cell_setting            triclinic
  loop_
  _symmetry_equiv_pos_as_xyz
 x,y,z
_cell_length_a 31.4030
_cell_length_b 41.7017
_cell_length_c 28.2777
_cell_angle_alpha 89.918400
_cell_angle_beta 89.938600
_cell_angle_gamma 90.013000
loop_
  _atom_site_label
  _atom_site_type_symbol
  _atom_site_fract_x
  _atom_site_fract_y
  _atom_site_fract_z
O1 O 0.19577 0.21376 0.24443
 O2 O 0.25856 0.27449 0.30617
 O3 O 0.20054 0.27670 0.24117
 O4 O 0.26168 0.21288 0.30189
 O5 O 0.30564 0.21111 0.24103
 O6 O 0.24400 0.27269 0.17997
 O7 O 0.30404 0.27574 0.24664
 O8 O 0.24215 0.21236 0.18576
 Cu9 Cu 0.22430 0.24431 0.27913
 Cu10 Cu 0.27928 0.24372 0.20872
 C11 C 0.20788 0.20252 0.20497
 C12 C 0.29178 0.28573 0.28694
 C13 C 0.21200 0.28537 0.19986
 C14 C 0.29442 0.20120 0.28161
 O15 O 0.69572 0.27919 0.25147
 O16 O 0.75502 0.21456 0.19018
 O17 O 0.69278 0.21646 0.25181
 O18 O 0.75283 0.27668 0.18559
 O19 O 0.80163 0.27815 0.24160
 O20 O 0.74073 0.21689 0.30879
 O21 O 0.80264 0.21520 0.24755
 O22 O 0.74450 0.27920 0.30763
 Cu23 Cu 0.71918 0.24649 0.21424
 Cu24 Cu 0.77732 0.24733 0.28190
 C25 C 0.71056 0.29042 0.28992
 C26 C 0.78900 0.20384 0.20887
 C27 C 0.70610 0.20634 0.29142
 C28 C 0.78705 0.28819 0.20223
 O29 O 0.68313 0.71549 0.75158
 O30 O 0.74944 0.77399 0.81623
 O31 O 0.69211 0.77764 0.75036
 O32 O 0.73944 0.71177 0.81915
 O33 O 0.78989 0.70631 0.76540
 O34 O 0.74347 0.77321 0.69739
 O35 O 0.80069 0.76766 0.76351
 O36 O 0.73380 0.71084 0.69785
 Cu37 Cu 0.71093 0.74517 0.78970
 Cu38 Cu 0.77189 0.73896 0.72551
 C39 C 0.69727 0.70325 0.71353
 C40 C 0.78650 0.78059 0.80094
 C41 C 0.70994 0.78693 0.71244
 C42 C 0.77284 0.69783 0.80424
 O43 O 0.21835 0.77681 0.77682
 O44 O 0.27321 0.71315 0.71124
 O45 O 0.21930 0.71474 0.78232
 O46 O 0.27463 0.77574 0.70972
 O47 O 0.32714 0.77648 0.76164
 O48 O 0.27335 0.71475 0.83206
 O49 O 0.32702 0.71512 0.76138
 O50 O 0.27057 0.77784 0.82902
 Cu51 Cu 0.24108 0.74484 0.73989
 Cu52 Cu 0.30456 0.74606 0.80155
 C53 C 0.23503 0.78834 0.81389
 C54 C 0.30986 0.70387 0.72424
 C55 C 0.23710 0.70425 0.81965
 C56 C 0.31054 0.78631 0.72342
 C57 C 0.97462 -0.00228 -0.00947
 C58 C 1.01788 -0.00204 -0.01355
 C59 C 1.04404 0.02356 0.00849
 C60 C 1.04143 -0.02719 -0.03986
 C61 C 0.94751 -0.02891 -0.02769
 C62 C 0.95186 0.02496 0.01272
 C63 C 1.04261 0.02886 0.05743
 C64 C 1.06807 0.05249 0.07801
 C65 C 1.09589 0.07110 0.05018
 C66 C 1.09711 0.06570 0.00104
 C67 C 1.07165 0.04201 -0.01947
 C68 C 1.03248 -0.03351 -0.08752
 C69 C 1.05439 -0.05771 -0.11155
 C70 C 1.08565 -0.07616 -0.08829
 C71 C 1.09529 -0.06899 -0.04091
 C72 C 1.07352 -0.04470 -0.01704
 C73 C 0.95748 -0.06127 -0.01887
 C74 C 0.93181 -0.08577 -0.03696
 C75 C 0.89471 -0.07834 -0.06229
 C76 C 0.88388 -0.04610 -0.06974
 C77 C 0.91015 -0.02166 -0.05290
 C78 C 0.92955 0.02030 0.05511
 C79 C 0.90675 0.04552 0.07541
 C80 C 0.90486 0.07552 0.05288
 C81 C 0.92708 0.08011 0.01023
 C82 C 0.95068 0.05504 -0.00954
 H83 H 1.02209 0.01444 0.07975
 H84 H 1.06640 0.05589 0.11593
 H85 H 1.11713 0.08001 -0.02188
 H86 H 1.07314 0.03825 -0.05734
 H87 H 1.00853 -0.01969 -0.10606
 H88 H 1.04704 -0.06152 -0.14846
 H89 H 1.08113 -0.03996 0.01965
 H90 H 0.98509 -0.06764 0.00200
 H91 H 0.94052 -0.11053 -0.03056
 H92 H 0.85562 -0.03983 -0.08963
 H93 H 0.90145 0.00300 -0.06001
 H94 H 0.93000 -0.00286 0.07251
 H95 H 0.88987 0.04144 0.10830
 H96 H 0.92660 0.10315 -0.00747
 H97 H 0.96752 0.05888 -0.04251
 H98 H 1.11928 -0.08250 -0.02195
 C99 C 0.47291 0.51212 0.46114
 C100 C 0.51635 0.51228 0.46110
 C101 C 0.54203 0.53501 0.48959
 C102 C 0.54041 0.48786 0.43389
 C103 C 0.44985 0.48624 0.43599
 C104 C 0.44673 0.53576 0.48793
 C105 C 0.57317 0.55373 0.46719
 C106 C 0.59782 0.57526 0.49317
 C107 C 0.59227 0.57820 0.54237
 C108 C 0.56109 0.55929 0.56478
 C109 C 0.53645 0.53766 0.53870
 C110 C 0.53750 0.48643 0.38443
 C111 C 0.55671 0.46133 0.35960
 C112 C 0.57928 0.43724 0.38388
 C113 C 0.58348 0.43964 0.43331
 C114 C 0.56427 0.46471 0.45803
 C115 C 0.45055 0.45486 0.45381
 C116 C 0.43186 0.42993 0.42836
 C117 C 0.41274 0.43587 0.38432
 C118 C 0.41148 0.46747 0.36690
 C119 C 0.42962 0.49254 0.39282
 C120 C 0.41181 0.52499 0.51481
 C121 C 0.38789 0.54645 0.54180
 C122 C 0.39880 0.57903 0.54301
 C123 C 0.43296 0.59009 0.51549
 C124 C 0.45608 0.56877 0.48725
 H125 H 0.57792 0.55202 0.42933
 H126 H 0.62063 0.58998 0.47438
 H127 H 0.55611 0.56095 0.60260
 H128 H 0.51304 0.52302 0.55677
 H129 H 0.51972 0.50448 0.36522
 H130 H 0.55395 0.46102 0.32148
 H131 H 0.56682 0.46549 0.49621
 H132 H 0.46614 0.44970 0.48711
 H133 H 0.43311 0.40583 0.44264
 H134 H 0.39615 0.47285 0.33355
 H135 H 0.42894 0.51668 0.37868
 H136 H 0.40356 0.49979 0.51584
 H137 H 0.36168 0.53747 0.56294
 H138 H 0.44148 0.61526 0.51558
 H139 H 0.48163 0.57803 0.46545
 H140 H 0.60081 0.42165 0.45313
 C141 C 0.02344 0.50824 0.02457
 C142 C -0.01974 0.50538 0.02121
 C143 C -0.04299 0.48061 0.04881
 C144 C -0.04508 0.52529 -0.01185
 C145 C 0.04774 0.53426 0.00031
 C146 C 0.04818 0.48338 0.05005
 C147 C -0.06632 0.45685 0.02531
 C148 C -0.08500 0.43178 0.05075
 C149 C -0.08071 0.42998 0.10023
 C150 C -0.05864 0.45457 0.12383
 C151 C -0.04009 0.47968 0.09833
 C152 C -0.03582 0.52554 -0.06038
 C153 C -0.05786 0.54601 -0.09090
 C154 C -0.08950 0.56684 -0.07339
 C155 C -0.09992 0.56529 -0.02498
 C156 C -0.07809 0.54459 0.00540
 C157 C 0.03344 0.56626 0.00101
 C158 C 0.05445 0.58982 -0.02534
 C159 C 0.09126 0.58214 -0.05099
 C160 C 0.10722 0.55079 -0.04939
 C161 C 0.08544 0.52697 -0.02433
 C162 C 0.06836 0.49050 0.09295
 C163 C 0.08827 0.46615 0.11888
 C164 C 0.08885 0.43450 0.10172
 C165 C 0.06990 0.42782 0.05786
 C166 C 0.04951 0.45200 0.03240
 H167 H -0.06895 0.45720 -0.01288
 H168 H -0.10203 0.41338 0.03152
 H169 H -0.05591 0.45468 0.16195
 H170 H -0.02290 0.49821 0.11714
 H171 H -0.01109 0.51016 -0.07446
 H172 H -0.04991 0.54529 -0.12807
 H173 H -0.08593 0.54444 0.04272
 H174 H 0.00561 0.57294 0.02132
 H175 H 0.04220 0.61410 -0.02546
 H176 H 0.13580 0.54454 -0.06878
 H177 H 0.09754 0.50267 -0.02515
 H178 H 0.06762 0.51467 0.10689
 H179 H 0.10344 0.47212 0.15208
 H180 H 0.07002 0.40369 0.04374
 H181 H 0.03415 0.44621 -0.00079
 H182 H -0.12429 0.58068 -0.01021
 C183 C 0.52101 1.00386 0.51958
 C184 C 0.47810 1.00262 0.51249
 C185 C 0.45109 0.97592 0.53065
 C186 C 0.45562 1.02884 0.48753
 C187 C 0.54773 1.02888 0.49678
 C188 C 0.54331 0.97999 0.54963
 C189 C 0.46272 0.94368 0.52394
 C190 C 0.43824 0.91904 0.54356
 C191 C 0.40066 0.92610 0.56830
 C192 C 0.38774 0.95814 0.57287
 C193 C 0.41285 0.98283 0.55446
 C194 C 0.43717 1.02318 0.44321
 C195 C 0.41415 1.04735 0.42052
 C196 C 0.40800 1.07711 0.44263
 C197 C 0.42638 1.08272 0.48712
 C198 C 0.45043 1.05881 0.50922
 C199 C 0.54793 1.03247 0.44746
 C200 C 0.57312 1.05598 0.42610
 C201 C 0.59917 1.07614 0.45351
 C202 C 0.59926 1.07220 0.50297
 C203 C 0.57394 1.04866 0.52432
 C204 C 0.53158 0.97546 0.59703
 C205 C 0.55060 0.95129 0.62400
 C206 C 0.58161 0.93096 0.60396
 C207 C 0.59449 0.93664 0.55698
 C208 C 0.57569 0.96100 0.53021
 H209 H 0.49105 0.93756 0.50409
 H210 H 0.44857 0.89442 0.53938
 H211 H 0.35907 0.96415 0.59226
 H212 H 0.40287 1.00741 0.55979
 H213 H 0.44072 1.00005 0.42626
 H214 H 0.40020 1.04258 0.38623
 H215 H 0.46424 1.06337 0.54365
 H216 H 0.52874 1.01692 0.42547
 H217 H 0.57248 1.05817 0.38794
 H218 H 0.61811 1.08765 0.52541
 H219 H 0.57428 1.04616 0.56245
 H220 H 0.50726 0.99041 0.61290
 H221 H 0.54087 0.94880 0.66049
 H222 H 0.61846 0.92175 0.54039
 H223 H 0.58537 0.96431 0.49375
 H224 H 0.42235 1.10563 0.50455
 C225 C 1.17164 0.14227 0.11705
 C226 C 1.13311 0.13193 0.13703
 N227 N 1.11973 0.14467 0.17856
 C228 C 1.14316 0.16736 0.20113
 C229 C 1.18186 0.17789 0.18128
 N230 N 1.19512 0.16498 0.13953
 N231 N 1.18505 0.12927 0.07568
 C232 C 1.16160 0.10649 0.05318
 C233 C 1.12265 0.09614 0.07290
 N234 N 1.10970 0.10923 0.11465
 H235 H 1.13160 0.17707 0.23422
 H236 H 1.17385 0.09624 0.02083
 C237 C 0.66560 0.64450 0.62181
 C238 C 0.62429 0.63613 0.63609
 N239 N 0.60744 0.64971 0.67553
 C240 C 0.63007 0.67134 0.70132
 C241 C 0.67148 0.67989 0.68697
 N242 N 0.68814 0.66610 0.64743
 N243 N 0.68261 0.63085 0.58262
 C244 C 0.66005 0.60937 0.55665
 C245 C 0.61825 0.60114 0.57029
 N246 N 0.60163 0.61470 0.61013
 H247 H 0.61582 0.68179 0.73257
 H248 H 0.67499 0.59858 0.52611
 C249 C -0.13731 0.35172 0.17325
 C250 C -0.15353 0.36262 0.12992
 N251 N -0.18819 0.34824 0.11093
 C252 C -0.20773 0.32353 0.13345
 C253 C -0.19199 0.31254 0.17732
 N254 N -0.15680 0.32696 0.19597
 N255 N -0.10262 0.36632 0.19209
 C256 C -0.08361 0.39148 0.16973
 C257 C -0.10011 0.40273 0.12639
 N258 N -0.13463 0.38765 0.10764
 H259 H -0.23553 0.31283 0.11726
 H260 H -0.05558 0.40212 0.18538
 C261 C 0.33289 0.85343 0.64068
 C262 C 0.37747 0.85547 0.64347
 N263 N 0.39913 0.83489 0.67173
 C264 C 0.37824 0.81239 0.69763
 C265 C 0.33363 0.81009 0.69481
 N266 N 0.31198 0.83063 0.66605
 N267 N 0.31124 0.87483 0.61360
 C268 C 0.33214 0.89831 0.58944
 C269 C 0.37679 0.90027 0.59207
 N270 N 0.39832 0.87859 0.61892
 H271 H 0.39633 0.79633 0.72002
 H272 H 0.31416 0.91520 0.56831
 C273 C -0.15158 0.63657 -0.15880
 C274 C -0.16957 0.62610 -0.11614
 N275 N -0.20669 0.63918 -0.10092
 C276 C -0.22658 0.66247 -0.12636
 C277 C -0.20853 0.67325 -0.16922
 N278 N -0.17139 0.65976 -0.18432
 N279 N -0.11403 0.62396 -0.17348
 C280 C -0.09355 0.60128 -0.14744
 C281 C -0.11147 0.59049 -0.10447
 N282 N -0.14922 0.60345 -0.09012
 H283 H -0.25603 0.67249 -0.11303
 H284 H -0.06311 0.59266 -0.15984
 C285 C 0.33365 1.14749 0.37352
 C286 C 0.36637 1.13134 0.34951
 N287 N 0.37468 1.13867 0.30371
 C288 C 0.35178 1.16148 0.28065
 C289 C 0.31837 1.17746 0.30424
 N290 N 0.31015 1.16986 0.35029
 N291 N 0.32630 1.14083 0.41983
 C292 C 0.35017 1.11868 0.44321
 C293 C 0.38246 1.10207 0.41898
 N294 N 0.38963 1.10881 0.37254
 H295 H 0.35943 1.16677 0.24413
 H296 H 0.34352 1.11365 0.48004
 C297 C 1.15170 -0.15216 -0.15630
 C298 C 1.16940 -0.13645 -0.11722
 N299 N 1.20810 -0.14576 -0.10074
 C300 C 1.23000 -0.17007 -0.12175
 C301 C 1.21243 -0.18574 -0.16119
 N302 N 1.17355 -0.17628 -0.17735
 N303 N 1.11289 -0.14315 -0.17253
 C304 C 1.09091 -0.11891 -0.15166
 C305 C 1.10863 -0.10263 -0.11268
 N306 N 1.14756 -0.11216 -0.09640
 H307 H 1.26084 -0.17691 -0.10800
 H308 H 1.05964 -0.11304 -0.16501
 C309 C 0.63592 0.35757 0.31462
 C310 C 0.65134 0.36876 0.35810
 N311 N 0.68489 0.35394 0.37883
 C312 C 0.70400 0.32844 0.35790
 C313 C 0.68894 0.31716 0.31409
 N314 N 0.65502 0.33205 0.29352
 N315 N 0.60221 0.37250 0.29418
 C316 C 0.58334 0.39822 0.31514
 C317 C 0.59896 0.40971 0.35871
 N318 N 0.63259 0.39435 0.37897
 H319 H 0.73088 0.31726 0.37527
 H320 H 0.55600 0.40902 0.29827
 C321 C 0.81851 -0.15068 -0.12391
 C322 C 0.86301 -0.15108 -0.12890
 N323 N 0.88164 -0.17398 -0.15596
 C324 C 0.85777 -0.19641 -0.17856
 C325 C 0.81320 -0.19617 -0.17357
 N326 N 0.79467 -0.17332 -0.14601
 N327 N 0.79980 -0.12711 -0.09817
 C328 C 0.82355 -0.10374 -0.07748
 C329 C 0.86813 -0.10410 -0.08236
 N330 N 0.88677 -0.12799 -0.10779
 H331 H 0.87346 -0.21428 -0.20017
 H332 H 0.80786 -0.08510 -0.05736
 C333 C 0.35678 0.35844 0.30995
 C334 C 0.35459 0.36033 0.35947
 N335 N 0.33329 0.33751 0.38412
 C336 C 0.31363 0.31295 0.36150
 C337 C 0.31558 0.31090 0.31190
 N338 N 0.33744 0.33369 0.28722
 N339 N 0.37727 0.38185 0.28542
 C340 C 0.39548 0.40713 0.30816
 C341 C 0.39333 0.40905 0.35782
 N342 N 0.37306 0.38534 0.38212
 H343 H 0.29646 0.29524 0.38206
 H344 H 0.41192 0.42527 0.28772
 C345 C 0.15415 0.65128 -0.13514
 C346 C 0.17544 0.63587 -0.09785
 N347 N 0.21649 0.64361 -0.08835
 C348 C 0.23736 0.66606 -0.11445
 C349 C 0.21650 0.68116 -0.15262
 N350 N 0.17523 0.67320 -0.16194
 N351 N 0.11259 0.64434 -0.14354
 C352 C 0.09139 0.62259 -0.11641
 C353 C 0.11293 0.60664 -0.07975
 N354 N 0.15458 0.61364 -0.07144
 H355 H 0.27009 0.67167 -0.10577
 H356 H 0.05830 0.61736 -0.12384
 C357 C 0.67205 1.14776 0.38338
 C358 C 0.63404 1.13605 0.36398
 N359 N 0.62019 1.14749 0.32183
 C360 C 0.64270 1.17015 0.29801
 C361 C 0.68099 1.18198 0.31710
 N362 N 0.69473 1.17042 0.35957
 N363 N 0.68581 1.13606 0.42552
 C364 C 0.66321 1.11323 0.44920
 C365 C 0.62493 1.10141 0.42985
 N366 N 0.61159 1.11327 0.38746
 H367 H 0.63078 1.17874 0.26440
 H368 H 0.67561 1.10406 0.48220
 C369 C 0.14726 0.35815 0.17645
 C370 C 0.14927 0.35999 0.12693
 N371 N 0.17066 0.33723 0.10234
 C372 C 0.19050 0.31273 0.12503
 C373 C 0.18859 0.31068 0.17465
 N374 N 0.16674 0.33346 0.19923
 N375 N 0.12654 0.38142 0.20091
 C376 C 0.10782 0.40649 0.17809
 C377 C 0.10962 0.40829 0.12839
 N378 N 0.13025 0.38475 0.10419
 H379 H 0.20764 0.29503 0.10451
 H380 H 0.09108 0.42444 0.19848
 C381 C 0.63587 0.85226 0.67842
 C382 C 0.65631 0.86557 0.63894
 N383 N 0.69370 0.85286 0.62374
 C384 C 0.71164 0.82740 0.64636
 C385 C 0.69134 0.81408 0.68619
 N386 N 0.65381 0.82698 0.70116
 N387 N 0.59822 0.86465 0.69318
 C388 C 0.58005 0.88991 0.67042
 C389 C 0.60060 0.90376 0.63094
 N390 N 0.63831 0.89087 0.61626
 H391 H 0.74153 0.81784 0.63354
 H392 H 0.54948 0.89838 0.68267
 C393 C 0.83300 0.14974 0.11668
 C394 C 0.85922 0.12960 0.14381
 N395 N 0.86198 0.13406 0.19118
 C396 C 0.83974 0.15782 0.21279
 C397 C 0.81299 0.17785 0.18594
 N398 N 0.81018 0.17323 0.13834
 N399 N 0.83117 0.14566 0.06908
 C400 C 0.85435 0.12232 0.04741
 C401 C 0.88019 0.10182 0.07463
 N402 N 0.88177 0.10603 0.12232
 H403 H 0.84262 0.16084 0.25067
 H404 H 0.85199 0.11941 0.00948
 C405 C 0.33196 0.64210 0.63329
 C406 C 0.37648 0.63952 0.63576
 N407 N 0.39821 0.65702 0.66820
 C408 C 0.37746 0.67721 0.69811
 C409 C 0.33297 0.68046 0.69498
 N410 N 0.31132 0.66273 0.66249
 N411 N 0.31012 0.62399 0.60167
 C412 C 0.33082 0.60341 0.57231
 C413 C 0.37544 0.60122 0.57407
 N414 N 0.39723 0.61942 0.60585
 H415 H 0.39565 0.69114 0.72327
 H416 H 0.31273 0.58916 0.54744
   
