data_POSCAR
  _audit_creation_date              2014-09-24
  _audit_creation_method            'ToBaCCo'
  _symmetry_space_group_name_H-M    'P1'
  _symmetry_Int_Tables_number       1
  _symmetry_cell_setting            triclinic
  loop_
  _symmetry_equiv_pos_as_xyz
 x,y,z
_cell_length_a 25.1538
_cell_length_b 21.7122
_cell_length_c 26.4250
_cell_angle_alpha 89.776400
_cell_angle_beta 89.769100
_cell_angle_gamma 90.033300
loop_
  _atom_site_label
  _atom_site_type_symbol
  _atom_site_fract_x
  _atom_site_fract_y
  _atom_site_fract_z
C1 C 0.40782 0.27814 0.31359
 C2 C 0.40773 0.21505 0.31215
 C3 C 0.35701 0.19723 0.29775
 N4 N 0.32647 0.24742 0.28934
 C5 C 0.35740 0.29683 0.29946
 C6 C 0.33867 0.13574 0.29414
 C7 C 0.29250 0.12089 0.26590
 C8 C 0.26331 0.06714 0.27128
 C9 C 0.22480 0.06816 0.23485
 C10 C 0.22923 0.12409 0.20922
 N11 N 0.27132 0.15555 0.22824
 C12 C 0.19878 0.14204 0.16609
 C13 C 0.20178 0.20303 0.14649
 C14 C 0.18381 0.22368 0.09970
 C15 C 0.18707 0.28665 0.10000
 C16 C 0.20496 0.30319 0.14742
 N17 N 0.21455 0.25217 0.17543
 C18 C 0.20674 0.36393 0.16650
 C19 C 0.23422 0.37802 0.21151
 C20 C 0.22706 0.43065 0.24036
 C21 C 0.26478 0.42906 0.27794
 C22 C 0.29368 0.37539 0.27108
 N23 N 0.27445 0.34423 0.23091
 C24 C 0.33924 0.35825 0.29868
 H25 H 0.44148 0.30686 0.32306
 H26 H 0.44156 0.18583 0.31997
 H27 H 0.29192 0.30584 0.21413
 H28 H 0.26917 0.03022 0.29827
 H29 H 0.19829 0.03013 0.22764
 H30 H 0.16920 0.19799 0.06802
 H31 H 0.17646 0.31658 0.06884
 H32 H 0.27040 0.46363 0.30682
 H33 H 0.28825 0.19538 0.21312
 H34 H 0.19790 0.46664 0.23490
 C35 C 0.89429 0.29017 0.16475
 C36 C 0.89513 0.22711 0.16453
 C37 C 0.84963 0.20775 0.18936
 N38 N 0.82212 0.25710 0.20642
 C39 C 0.84940 0.30807 0.19193
 C40 C 0.83121 0.14624 0.19236
 C41 C 0.78791 0.12971 0.22355
 C42 C 0.75656 0.07775 0.21747
 C43 C 0.72272 0.07529 0.25842
 C44 C 0.73480 0.12553 0.28853
 N45 N 0.77402 0.15898 0.26658
 C46 C 0.71285 0.13758 0.33670
 C47 C 0.71581 0.19674 0.35828
 C48 C 0.70643 0.21084 0.40862
 C49 C 0.70809 0.27388 0.41209
 C50 C 0.71844 0.29595 0.36375
 N51 N 0.72350 0.24875 0.33104
 C52 C 0.71816 0.35841 0.34906
 C53 C 0.73927 0.37819 0.30196
 C54 C 0.72959 0.43485 0.27970
 C55 C 0.76117 0.43831 0.23734
 C56 C 0.78840 0.38268 0.23345
 N57 N 0.77496 0.34664 0.27357
 C58 C 0.82923 0.36905 0.19756
 H59 H 0.92371 0.31777 0.14568
 H60 H 0.92574 0.19929 0.14720
 H61 H 0.79365 0.30595 0.28441
 H62 H 0.75815 0.04482 0.18685
 H63 H 0.69295 0.04022 0.26525
 H64 H 0.69910 0.17918 0.43959
 H65 H 0.70210 0.30036 0.44624
 H66 H 0.76461 0.47887 0.21380
 H67 H 0.79474 0.19529 0.28307
 H68 H 0.70330 0.47082 0.29287
 C69 C 0.59837 0.78159 0.67491
 C70 C 0.59504 0.71879 0.67978
 C71 C 0.64136 0.69972 0.70329
 N72 N 0.67194 0.74899 0.71444
 C73 C 0.64582 0.79915 0.69716
 C74 C 0.65809 0.63799 0.70923
 C75 C 0.70253 0.62256 0.73913
 C76 C 0.73162 0.56857 0.73529
 C77 C 0.76943 0.57032 0.77276
 C78 C 0.76194 0.62504 0.79875
 N79 N 0.72154 0.65695 0.77758
 C80 C 0.78885 0.64277 0.84318
 C81 C 0.78923 0.70462 0.85926
 C82 C 0.80022 0.72434 0.90786
 C83 C 0.80068 0.78749 0.90615
 C84 C 0.79081 0.80423 0.85632
 N85 N 0.78290 0.75341 0.82789
 C86 C 0.79187 0.86496 0.83654
 C87 C 0.76677 0.87871 0.78986
 C88 C 0.77916 0.92801 0.75835
 C89 C 0.74388 0.92660 0.71890
 C90 C 0.71179 0.87536 0.72632
 N91 N 0.72598 0.84643 0.76973
 C92 C 0.66859 0.85852 0.69519
 H93 H 0.56915 0.81018 0.65646
 H94 H 0.56256 0.69061 0.66645
 H95 H 0.70589 0.81000 0.78713
 H96 H 0.72643 0.53188 0.70815
 H97 H 0.79894 0.53516 0.77993
 H98 H 0.80651 0.69624 0.94120
 H99 H 0.80696 0.81748 0.93817
 H100 H 0.74232 0.95989 0.68841
 H101 H 0.70415 0.69674 0.79214
 H102 H 0.81070 0.96142 0.76277
 C103 C 0.29683 0.77775 0.58973
 C104 C 0.29534 0.71450 0.58961
 C105 C 0.28568 0.69631 0.63913
 N106 N 0.28071 0.74599 0.66928
 C107 C 0.28808 0.79576 0.63932
 C108 C 0.28703 0.63542 0.65763
 C109 C 0.26536 0.62048 0.70553
 C110 C 0.27819 0.56904 0.73420
 C111 C 0.24537 0.56965 0.77599
 C112 C 0.21310 0.62119 0.77145
 N113 N 0.22639 0.65264 0.72898
 C114 C 0.17046 0.63697 0.80404
 C115 C 0.15330 0.69895 0.80722
 C116 C 0.10305 0.71840 0.82176
 C117 C 0.10416 0.78153 0.82164
 C118 C 0.15509 0.79870 0.80710
 N119 N 0.18479 0.74813 0.79726
 C120 C 0.17450 0.85983 0.80359
 C121 C 0.21824 0.87327 0.77152
 C122 C 0.25259 0.92294 0.77628
 C123 C 0.28580 0.92202 0.73477
 C124 C 0.27104 0.87160 0.70602
 N125 N 0.23058 0.84143 0.72921
 C126 C 0.29210 0.85622 0.65806
 H127 H 0.30385 0.80693 0.55710
 H128 H 0.30109 0.68537 0.55692
 H129 H 0.20862 0.80509 0.71419
 H130 H 0.30827 0.53481 0.72615
 H131 H 0.24548 0.53602 0.80632
 H132 H 0.06854 0.69026 0.82993
 H133 H 0.07062 0.81115 0.82959
 H134 H 0.31727 0.95469 0.72686
 H135 H 0.20600 0.69042 0.71416
 H136 H 0.25366 0.95641 0.80649
 O137 O 1.05142 -0.06493 -0.03943
 O138 O 0.95213 -0.02756 0.05853
 O139 O 0.94747 -0.06539 -0.03441
 O140 O 1.05303 -0.02555 0.05550
 O141 O 1.05441 0.06983 0.02589
 O142 O 0.94367 0.03176 -0.05930
 O143 O 0.95196 0.06949 0.03282
 O144 O 1.04764 0.03070 -0.06792
 Cu145 Cu 1.00174 -0.05590 0.01213
 Cu146 Cu 0.99968 0.05997 -0.02035
 C147 C 1.06569 -0.02374 -0.07091
 C148 C 0.93622 0.02764 0.06310
 C149 C 0.92644 -0.02314 -0.06093
 C150 C 1.07017 0.02936 0.05721
 O151 O 0.55840 0.42582 0.48103
 O152 O 0.43758 0.46538 0.55305
 O153 O 0.45715 0.42776 0.46189
 O154 O 0.53892 0.46498 0.57324
 O155 O 0.54647 0.56103 0.54619
 O156 O 0.46474 0.52396 0.43531
 O157 O 0.44566 0.56214 0.52791
 O158 O 0.56650 0.52265 0.45605
 Cu159 Cu 0.49749 0.43625 0.51995
 Cu160 Cu 0.50627 0.55208 0.48845
 C161 C 0.58304 0.46746 0.45651
 C162 C 0.42138 0.52071 0.55301
 C163 C 0.44711 0.46961 0.42965
 C164 C 0.55635 0.51949 0.57870
 O165 O -0.04913 0.44214 0.04551
 O166 O 0.04365 0.47420 -0.05896
 O167 O 0.05282 0.43981 0.03619
 O168 O -0.05965 0.47745 -0.04685
 O169 O -0.05265 0.57556 -0.02581
 O170 O 0.05811 0.53717 0.05966
 O171 O 0.04959 0.57128 -0.03492
 O172 O -0.04675 0.54023 0.06770
 Cu173 Cu -0.00306 0.44862 -0.00856
 Cu174 Cu 0.00291 0.56580 0.01937
 C175 C -0.06472 0.48594 0.07342
 C176 C 0.06205 0.52820 -0.06506
 C177 C 0.07422 0.48186 0.06239
 C178 C -0.07547 0.53284 -0.05020
 O179 O 0.45552 1.06026 0.45460
 O180 O 0.54809 1.02044 0.55781
 O181 O 0.55676 1.06130 0.46605
 O182 O 0.44343 1.02204 0.54800
 O183 O 0.44741 0.92558 0.52202
 O184 O 0.56142 0.96483 0.43982
 O185 O 0.55072 0.92441 0.53027
 O186 O 0.45916 0.96414 0.42770
 Cu187 Cu 0.50015 1.05051 0.50988
 Cu188 Cu 0.50428 0.93488 0.47742
 C189 C 0.44300 1.01916 0.42270
 C190 C 0.56637 0.96596 0.56025
 C191 C 0.57845 1.01993 0.43919
 C192 C 0.42611 0.96720 0.54897
 N193 N 1.08963 0.03829 0.14789
 N194 N 1.12398 0.07223 0.17809
 C195 C 1.15950 0.10102 0.14766
 C196 C 1.14768 0.08657 0.09746
 C197 C 1.10393 0.04775 0.09949
 H198 H 1.16871 0.10009 0.06349
 H199 H 1.05574 0.01523 0.16087
 H200 H 1.11849 0.07897 0.21688
 N201 N 0.59130 0.50105 0.66581
 N202 N 0.61741 0.53276 0.70040
 C203 C 0.63060 0.58823 0.68085
 C204 C 0.61266 0.59144 0.63141
 C205 C 0.58741 0.53574 0.62364
 H206 H 0.61617 0.62959 0.60513
 H207 H 0.57500 0.45735 0.67175
 H208 H 0.62456 0.51724 0.73720
 N209 N -0.15802 0.48474 0.10134
 N210 N -0.18801 0.44889 0.13474
 C211 C -0.15412 0.41607 0.16375
 C212 C -0.10227 0.43113 0.14976
 C213 C -0.10648 0.47330 0.11055
 H214 H -0.06562 0.41315 0.16509
 H215 H -0.17342 0.50873 0.07035
 H216 H -0.22909 0.44277 0.13203
 N217 N 0.34449 0.99303 0.59812
 N218 N 0.30873 0.96380 0.62604
 C219 C 0.32174 0.90358 0.62834
 C220 C 0.36769 0.89420 0.60012
 C221 C 0.38060 0.95195 0.58161
 H222 H 0.38944 0.85171 0.59474
 H223 H 0.34363 1.04017 0.59010
 H224 H 0.27582 0.98492 0.64280
 N225 N -0.16061 0.50769 -0.09313
 N226 N -0.19702 0.53685 -0.12002
 C227 C -0.18135 0.59572 -0.12711
 C228 C -0.13301 0.60437 -0.10298
 C229 C -0.12142 0.54756 -0.08200
 H230 H -0.10932 0.64594 -0.10128
 H231 H -0.16337 0.46171 -0.08164
 H232 H -0.23238 0.51676 -0.13236
 N233 N 0.39880 0.99670 0.34084
 N234 N 0.37043 1.02967 0.30450
 C235 C 0.36562 1.08834 0.32075
 C236 C 0.39073 1.09364 0.36747
 C237 C 0.41065 1.03568 0.37857
 H238 H 0.39344 1.13415 0.39107
 H239 H 0.40983 0.95050 0.33780
 H240 H 0.35881 1.01189 0.26958
 N241 N 1.11847 0.00029 -0.14834
 N242 N 1.14862 -0.03250 -0.18349
 C243 C 1.15004 -0.09208 -0.16849
 C244 C 1.12162 -0.09781 -0.12325
 C245 C 1.10233 -0.03956 -0.11235
 H246 H 1.11529 -0.13907 -0.10092
 H247 H 1.10856 0.04685 -0.15142
 H248 H 1.16251 -0.01400 -0.21759
 N249 N 0.67146 0.49078 0.41819
 N250 N 0.70771 0.46175 0.39090
 C251 C 0.69077 0.40378 0.38226
 C252 C 0.64198 0.39538 0.40595
 C253 C 0.63123 0.45157 0.42807
 H254 H 0.61677 0.35497 0.40534
 H255 H 0.67444 0.53656 0.42983
 H256 H 0.74317 0.48166 0.37822
 N257 N 0.84736 0.00410 -0.11248
 N258 N 0.80911 -0.02748 -0.14029
 C259 C 0.82060 -0.08825 -0.13804
 C260 C 0.86583 -0.09626 -0.10841
 C261 C 0.88115 -0.03787 -0.09349
 H262 H 0.88667 -0.13875 -0.10036
 H263 H 0.84815 0.05168 -0.10690
 H264 H 0.77599 -0.00673 -0.15685
 N265 N 0.40711 0.49277 0.34541
 N266 N 0.37903 0.46338 0.31087
 C267 C 0.36853 0.40594 0.32779
 C268 C 0.39084 0.39867 0.37535
 C269 C 0.41514 0.45458 0.38493
 H270 H 0.39014 0.35813 0.39931
 H271 H 0.42133 0.53773 0.34136
 H272 H 0.36848 0.48207 0.27584
 N273 N 0.11085 0.50007 -0.14381
 N274 N 0.14096 0.53076 -0.18050
 C275 C 0.14490 0.59051 -0.16678
 C276 C 0.11808 0.59846 -0.12099
 C277 C 0.09725 0.54138 -0.10828
 H278 H 0.11399 0.64040 -0.09933
 H279 H 0.09946 0.45386 -0.14548
 H280 H 0.15324 0.51095 -0.21453
 N281 N 0.66147 0.99687 0.39106
 N282 N 0.69760 1.02810 0.36506
 C283 C 0.68337 1.08802 0.36386
 C284 C 0.63634 1.09510 0.39062
 C285 C 0.62399 1.03645 0.40725
 H286 H 0.61380 1.13692 0.39663
 H287 H 0.66318 0.94959 0.39830
 H288 H 0.73165 1.00858 0.34906
 N289 N 0.15913 0.50365 0.10736
 N290 N 0.19459 0.47219 0.13372
 C291 C 0.17700 0.41387 0.13989
 C292 C 0.12804 0.40834 0.11637
 C293 C 0.11858 0.46585 0.09580
 H294 H 0.10296 0.36795 0.11386
 H295 H 0.16375 0.54945 0.09592
 H296 H 0.23089 0.49011 0.14585
 N297 N 0.65981 0.94371 0.57921
 N298 N 0.68654 0.91337 0.61415
 C299 C 0.65358 0.90026 0.65301
 C300 C 0.60351 0.92386 0.64237
 C301 C 0.60934 0.95090 0.59510
 H302 H 0.56713 0.91772 0.66380
 H303 H 0.67498 0.95531 0.54356
 H304 H 0.72579 0.89851 0.60988
 N305 N 0.89449 0.00820 0.14696
 N306 N 0.86813 0.04002 0.18136
 C307 C 0.85755 0.09659 0.16265
 C308 C 0.87758 0.10042 0.11371
 C309 C 0.90137 0.04381 0.10566
 H310 H 0.87682 0.13949 0.08817
 H311 H 0.90964 -0.03603 0.15281
 H312 H 0.85949 0.02388 0.21776
 N313 N 0.33653 0.49734 0.59834
 N314 N 0.30077 0.52763 0.62530
 C315 C 0.31546 0.58730 0.62803
 C316 C 0.36244 0.59523 0.60110
 C317 C 0.37429 0.53725 0.58293
 H318 H 0.38579 0.63683 0.59681
 H319 H 0.33484 0.45024 0.59062
 H320 H 0.26696 0.50752 0.64143
   
