data_POSCAR
  _audit_creation_date              2014-09-24
  _audit_creation_method            'ToBaCCo'
  _symmetry_space_group_name_H-M    'P1'
  _symmetry_Int_Tables_number       1
  _symmetry_cell_setting            triclinic
  loop_
  _symmetry_equiv_pos_as_xyz
 x,y,z
_cell_length_a 36.4519
_cell_length_b 36.1000
_cell_length_c 34.7422
_cell_angle_alpha 90.765300
_cell_angle_beta 90.235400
_cell_angle_gamma 119.363600
loop_
  _atom_site_label
  _atom_site_type_symbol
  _atom_site_fract_x
  _atom_site_fract_y
  _atom_site_fract_z
C1 C 0.52522 0.06567 0.04714
 H2 H 0.55355 0.06309 0.04826
 C3 C 0.52275 0.09712 0.06877
 H4 H 0.54917 0.11831 0.08698
 C5 C 0.45659 0.04120 0.02159
 H6 H 0.43132 0.01993 0.00247
 C7 C 0.45271 0.07222 0.04295
 H8 H 0.42430 0.07453 0.04016
 N9 N 0.49253 0.03861 0.02408
 C10 C 0.51841 -0.06630 0.00820
 H11 H 0.52282 -0.06567 -0.02261
 C12 C 0.52078 -0.09726 0.03009
 H13 H 0.52707 -0.12045 0.01595
 C14 C 0.50270 -0.03812 0.06378
 H15 H 0.49474 -0.01563 0.07668
 C16 C 0.50426 -0.06883 0.08665
 H17 H 0.49824 -0.06921 0.11718
 Zn18 Zn 0.50241 0.00072 -0.00640
 N19 N 0.50966 -0.03745 0.02529
 C20 C 0.58733 0.03235 -0.03131
 N21 N 0.55149 0.03500 -0.03476
 C22 C 0.55006 0.06499 -0.05697
 C23 C 0.58546 0.09373 -0.07704
 C24 C 0.62361 0.06059 -0.05093
 C25 C 0.41890 -0.05935 -0.02412
 C26 C 0.38484 -0.08733 -0.04731
 C27 C 0.42883 -0.05923 -0.10296
 C28 C 0.46189 -0.03181 -0.07860
 N29 N 0.45648 -0.03244 -0.03997
 H30 H 0.58820 0.00908 -0.01268
 H31 H 0.52132 0.06674 -0.05874
 H32 H 0.58343 0.11708 -0.09481
 H33 H 0.65212 0.05863 -0.04728
 H34 H 0.41573 -0.05992 0.00685
 H35 H 0.35671 -0.10940 -0.03251
 H36 H 0.43490 -0.05580 -0.13345
 H37 H 0.49215 -0.01052 -0.09073
 C38 C 0.51314 -0.09904 0.06976
 C39 C 0.48635 0.10102 0.06654
 C40 C 0.38911 -0.08864 -0.08783
 C41 C 0.62303 0.09205 -0.07391
 C42 C -0.06986 0.46607 0.61993
 H43 H -0.06806 0.43714 0.62219
 C44 C -0.10153 0.46643 0.59757
 H45 H -0.12364 0.43774 0.58216
 C46 C -0.04319 0.53848 0.63764
 H47 H -0.02102 0.56618 0.65405
 C48 C -0.07439 0.54028 0.61551
 H49 H -0.07583 0.56953 0.61505
 N50 N -0.04146 0.50174 0.63932
 C51 C 0.06370 0.47897 0.66060
 H52 H 0.06557 0.48159 0.69169
 C53 C 0.09293 0.47226 0.64028
 H54 H 0.11687 0.46903 0.65604
 C55 C 0.03035 0.48056 0.60244
 H56 H 0.00661 0.48492 0.58775
 C57 C 0.05897 0.47388 0.58096
 H58 H 0.05685 0.47315 0.54984
 Zn59 Zn -0.00233 0.49619 0.67123
 N60 N 0.03320 0.48295 0.64153
 C61 C -0.03206 0.41569 0.70679
 N62 N -0.03426 0.45223 0.70590
 C63 C -0.06173 0.45773 0.72835
 C64 C -0.08798 0.42606 0.75344
 C65 C -0.05805 0.38297 0.73132
 C66 C 0.05824 0.58230 0.67744
 C67 C 0.08695 0.62030 0.69587
 C68 C 0.06326 0.58604 0.75708
 C69 C 0.03494 0.54874 0.73748
 N70 N 0.03288 0.54756 0.69835
 H71 H -0.01072 0.41154 0.68806
 H72 H -0.06343 0.48674 0.72643
 H73 H -0.11005 0.43085 0.77067
 H74 H -0.05598 0.35406 0.73174
 H75 H 0.05645 0.58028 0.64633
 H76 H 0.10667 0.64765 0.67867
 H77 H 0.06517 0.58595 0.78818
 H78 H 0.01552 0.52049 0.75360
 C79 C 0.09104 0.47001 0.59987
 C80 C -0.10430 0.50380 0.59536
 C81 C 0.08997 0.62243 0.73626
 C82 C -0.08646 0.38800 0.75506
 C83 C 0.54279 0.48012 0.38605
 H84 H 0.51301 0.45086 0.38655
 C85 C 0.57712 0.48373 0.40702
 H86 H 0.57332 0.45725 0.42414
 C87 C 0.58374 0.54998 0.36274
 H88 H 0.58649 0.57531 0.34469
 C89 C 0.61894 0.55501 0.38341
 H90 H 0.64848 0.58436 0.38114
 N91 N 0.54656 0.51300 0.36459
 C92 C 0.41724 0.48769 0.35059
 H93 H 0.41444 0.48643 0.31952
 C94 C 0.38397 0.48394 0.37310
 H95 H 0.35566 0.47999 0.35908
 C96 C 0.45858 0.49670 0.40640
 H97 H 0.48799 0.50254 0.41928
 C98 C 0.42613 0.49312 0.42999
 H99 H 0.43069 0.49534 0.46093
 Zn100 Zn 0.49865 0.50278 0.33502
 N101 N 0.45361 0.49392 0.36746
 C102 C 0.44673 0.41808 0.30541
 N103 N 0.48479 0.45412 0.30407
 C104 C 0.51634 0.45613 0.28194
 C105 C 0.51042 0.42096 0.26005
 C106 C 0.43936 0.38206 0.28376
 C107 C 0.52131 0.58772 0.32125
 C108 C 0.52791 0.62265 0.29947
 C109 C 0.51019 0.57836 0.24209
 C110 C 0.50441 0.54441 0.26491
 N111 N 0.51010 0.54966 0.30374
 H112 H 0.42236 0.41686 0.32382
 H113 H 0.54641 0.48508 0.28175
 H114 H 0.53597 0.42329 0.24257
 H115 H 0.40922 0.35332 0.28564
 H116 H 0.52469 0.59075 0.35227
 H117 H 0.53636 0.65261 0.31389
 H118 H 0.50541 0.57363 0.21124
 H119 H 0.49451 0.51370 0.25160
 C120 C 0.38831 0.48701 0.41339
 C121 C 0.61592 0.52147 0.40571
 C122 C 0.52199 0.61806 0.25938
 C123 C 0.47167 0.38315 0.26105
 C124 C 0.11202 0.43962 0.54408
 C125 C 0.14271 0.43650 0.52247
 C126 C 0.18531 0.45937 0.53352
 C127 C 0.19645 0.48432 0.56754
 C128 C 0.16579 0.48740 0.58915
 C129 C 0.12327 0.46537 0.57752
 C130 C 0.21698 0.45593 0.50928
 C131 C 0.25746 0.48655 0.50805
 C132 C 0.28984 0.48453 0.48371
 C133 C 0.33237 0.51279 0.49231
 C134 C 0.36421 0.51323 0.46980
 C135 C 0.35431 0.48551 0.43788
 C136 C 0.31176 0.45724 0.42910
 C137 C 0.27983 0.45675 0.45167
 H138 H 0.07944 0.42171 0.53471
 H139 H 0.13320 0.41660 0.49670
 H140 H 0.22868 0.50125 0.57788
 H141 H 0.17554 0.50766 0.61466
 H142 H 0.20589 0.42767 0.49137
 H143 H 0.26790 0.51493 0.52572
 H144 H 0.34105 0.53482 0.51653
 H145 H 0.39663 0.53596 0.47693
 H146 H 0.30313 0.43539 0.40477
 H147 H 0.24757 0.43517 0.44328
 C148 C 0.47936 0.84399 0.11863
 C149 C 0.47766 0.81050 0.13966
 C150 C 0.50939 0.79940 0.13616
 C151 C 0.54270 0.82210 0.11071
 C152 C 0.54410 0.85528 0.08926
 C153 C 0.51247 0.86658 0.09309
 C154 C 0.50560 0.76280 0.15801
 C155 C 0.53885 0.75942 0.16990
 C156 C 0.53423 0.72278 0.19225
 C157 C 0.56511 0.72895 0.21974
 C158 C 0.56117 0.69499 0.24167
 C159 C 0.52668 0.65404 0.23588
 C160 C 0.49631 0.64767 0.20769
 C161 C 0.49997 0.68168 0.18613
 H162 H 0.45424 0.85162 0.12169
 H163 H 0.45147 0.79319 0.15877
 H164 H 0.56710 0.81365 0.10660
 H165 H 0.56992 0.87219 0.06971
 H166 H 0.47427 0.73894 0.16631
 H167 H 0.57039 0.78529 0.16522
 H168 H 0.59200 0.76024 0.22465
 H169 H 0.58525 0.70063 0.26293
 H170 H 0.46936 0.61645 0.20273
 H171 H 0.47622 0.67562 0.16441
 C172 C 0.36453 0.87149 0.85153
 C173 C 0.33213 0.84043 0.82874
 C174 C 0.29070 0.81919 0.84181
 C175 C 0.28218 0.82980 0.87843
 C176 C 0.31451 0.86078 0.90147
 C177 C 0.35687 0.88232 0.88894
 C178 C 0.25814 0.78460 0.81730
 C179 C 0.21660 0.76990 0.82057
 C180 C 0.18440 0.73353 0.79735
 C181 C 0.14346 0.71040 0.81173
 C182 C 0.11261 0.67479 0.79169
 C183 C 0.12195 0.66166 0.75656
 C184 C 0.16256 0.68564 0.74151
 C185 C 0.19338 0.72128 0.76151
 H186 H 0.39580 0.88452 0.83997
 H187 H 0.33972 0.83244 0.80080
 H188 H 0.25076 0.81375 0.89002
 H189 H 0.30514 0.86824 0.92863
 H190 H 0.26942 0.77058 0.79600
 H191 H 0.20522 0.78375 0.84195
 H192 H 0.13549 0.71945 0.83898
 H193 H 0.08141 0.65749 0.80372
 H194 H 0.17087 0.67634 0.71460
 H195 H 0.22400 0.73902 0.74860
 C196 C 0.82023 0.46931 0.57378
 C197 C 0.78774 0.46915 0.55226
 C198 C 0.79521 0.50393 0.52950
 C199 C 0.83623 0.53900 0.52853
 C200 C 0.86879 0.53916 0.55017
 C201 C 0.86117 0.50423 0.57289
 C202 C 0.75972 0.50129 0.50628
 C203 C 0.75879 0.53498 0.49147
 C204 C 0.72246 0.53106 0.46874
 C205 C 0.71528 0.56584 0.46740
 C206 C 0.68089 0.56297 0.44677
 C207 C 0.65310 0.52524 0.42687
 C208 C 0.66096 0.49084 0.42736
 C209 C 0.69532 0.49374 0.44785
 H210 H 0.81319 0.44216 0.59142
 H211 H 0.75655 0.44168 0.55347
 H212 H 0.84369 0.56592 0.51052
 H213 H 0.90016 0.56623 0.54843
 H214 H 0.73237 0.47009 0.50280
 H215 H 0.78420 0.56672 0.49777
 H216 H 0.73595 0.59510 0.48287
 H217 H 0.67558 0.58997 0.44701
 H218 H 0.64078 0.46177 0.41143
 H219 H 0.70075 0.46686 0.44673
 C220 C 0.51962 0.17673 0.08929
 C221 C 0.51891 0.20930 0.11072
 C222 C 0.48298 0.20196 0.13129
 C223 C 0.44732 0.16108 0.12958
 C224 C 0.44801 0.12841 0.10792
 C225 C 0.48437 0.13582 0.08796
 C226 C 0.48536 0.23736 0.15537
 C227 C 0.45220 0.23831 0.17098
 C228 C 0.45702 0.27459 0.19527
 C229 C 0.42403 0.28410 0.19684
 C230 C 0.42837 0.31902 0.21856
 C231 C 0.46579 0.34494 0.23927
 C232 C 0.49814 0.33445 0.23879
 C233 C 0.49377 0.29960 0.21726
 H234 H 0.54788 0.18359 0.07372
 H235 H 0.54682 0.24038 0.11146
 H236 H 0.41927 0.15369 0.14561
 H237 H 0.42055 0.09704 0.10770
 H238 H 0.51636 0.26470 0.15945
 H239 H 0.42058 0.21320 0.16450
 H240 H 0.39519 0.26500 0.18058
 H241 H 0.40290 0.32634 0.21844
 H242 H 0.52683 0.35309 0.25538
 H243 H 0.51912 0.29217 0.21828
 C244 C -0.31150 0.11158 0.88811
 C245 C -0.27599 0.14146 0.86853
 C246 C -0.26645 0.18411 0.86701
 C247 C -0.29353 0.19618 0.88516
 C248 C -0.32893 0.16639 0.90467
 C249 C -0.33851 0.12370 0.90620
 C250 C -0.22967 0.21455 0.84450
 C251 C -0.21019 0.25675 0.85090
 C252 C -0.17598 0.28855 0.82678
 C253 C -0.15347 0.33069 0.84061
 C254 C -0.12362 0.36273 0.81776
 C255 C -0.11555 0.35338 0.78043
 C256 C -0.13717 0.31108 0.76682
 C257 C -0.16725 0.27899 0.78962
 H258 H -0.31833 0.07882 0.88837
 H259 H -0.25599 0.13119 0.85438
 H260 H -0.28825 0.22833 0.88364
 H261 H -0.34888 0.17684 0.91859
 H262 H -0.21826 0.20135 0.82255
 H263 H -0.21954 0.26910 0.87524
 H264 H -0.15955 0.33906 0.86902
 H265 H -0.10710 0.39497 0.82915
 H266 H -0.13203 0.30308 0.73793
 H267 H -0.18445 0.24729 0.77729
   
