data_POSCAR
  _audit_creation_date              2014-09-24
  _audit_creation_method            'ToBaCCo'
  _symmetry_space_group_name_H-M    'P1'
  _symmetry_Int_Tables_number       1
  _symmetry_cell_setting            triclinic
  loop_
  _symmetry_equiv_pos_as_xyz
 x,y,z
_cell_length_a 39.3789
_cell_length_b 40.4495
_cell_length_c 40.1339
_cell_angle_alpha 90.583800
_cell_angle_beta 90.635300
_cell_angle_gamma 89.563200
loop_
  _atom_site_label
  _atom_site_type_symbol
  _atom_site_fract_x
  _atom_site_fract_y
  _atom_site_fract_z
N1 N 0.17017 0.18028 0.17692
 N2 N -0.18208 0.80989 0.19181
 N3 N -0.17940 0.17047 -0.17562
 N4 N 0.17614 0.81745 -0.17615
 N5 N 0.20237 1.20073 0.80382
 N6 N 0.81873 0.82094 0.81536
 N7 N 0.16363 0.82744 1.16693
 N8 N 0.82379 1.18419 1.18382
 O9 O 0.45149 1.05488 1.06856
 O10 O 0.41433 1.02471 1.03611
 C11 C 0.42103 1.04639 1.05930
 O12 O 0.54601 1.05891 0.94986
 O13 O 0.58348 1.02822 0.98124
 C14 C 0.57656 1.05069 0.95945
 O15 O 0.45040 1.06073 0.95210
 O16 O 0.41403 1.02701 0.98007
 C17 C 0.42014 1.05086 0.95962
 O18 O 0.54736 1.05290 1.07171
 O19 O 0.58420 1.02364 1.03848
 C20 C 0.57779 1.04387 1.06285
 Zr21 Zr 0.49937 1.03791 1.05182
 O22 O 0.50160 1.09015 1.05453
 O23 O 0.49625 1.03540 1.10435
 Zr24 Zr 0.49849 1.04242 0.96788
 O25 O 0.49857 1.09405 0.97640
 O26 O 0.49811 1.04936 0.91569
 O27 O 0.46837 1.04617 1.01010
 O28 O 0.52843 1.04639 1.01033
 O29 O 0.54906 0.93783 1.06415
 O30 O 0.58499 0.96955 1.03349
 C31 C 0.57919 0.94672 1.05503
 O32 O 0.45262 0.93897 0.94721
 O33 O 0.41475 0.96968 0.97794
 C34 C 0.42198 0.94675 0.95623
 O35 O 0.54807 0.94479 0.94271
 O36 O 0.58462 0.97442 0.97620
 C37 C 0.57835 0.95430 0.95164
 O38 O 0.45343 0.93512 1.06192
 O39 O 0.41547 0.96717 1.03258
 C40 C 0.42272 0.94377 1.05339
 Zr41 Zr 0.50074 0.95425 1.04661
 O42 O 0.50501 0.90213 1.04274
 O43 O 0.49792 0.95140 1.09915
 Zr44 Zr 0.50000 0.95870 0.96236
 O45 O 0.50509 0.90679 0.95741
 O46 O 0.49547 0.96259 0.90994
 Zr47 Zr 0.44918 0.99770 1.00688
 Zr48 Zr 0.54976 0.99867 1.00730
 O49 O 0.52984 0.95065 1.00410
 O50 O 0.47033 0.94970 1.00403
 O51 O 0.53027 0.99596 1.05585
 O52 O 0.46967 1.00043 0.95884
 O53 O 0.47065 0.99552 1.05511
 O54 O 0.52922 1.00122 0.95868
 H55 H 0.54365 1.06576 1.01183
 H56 H 0.45377 1.00072 0.93954
 H57 H 0.54560 0.93150 1.00258
 H58 H 0.45550 0.99445 1.07461
 H59 H 0.48824 1.02933 0.90532
 H60 H 0.51407 0.97698 0.90246
 H61 H 0.48998 0.89683 0.97399
 H62 H 0.48474 0.89401 1.03049
 H63 H 0.51676 0.96466 1.10862
 H64 H 0.51518 1.02116 1.11218
 H65 H 0.48374 1.09888 1.03940
 H66 H 0.49891 1.10429 0.95409
 O67 O 0.05218 0.54931 -0.06341
 O68 O 0.01949 0.58270 -0.02988
 C69 C 0.04236 0.57819 -0.05242
 O70 O -0.06612 0.45193 -0.06592
 O71 O -0.03100 0.41581 -0.03808
 C72 C -0.05577 0.42225 -0.05863
 O73 O -0.06453 0.54506 -0.06703
 O74 O -0.03703 0.58126 -0.03174
 C75 C -0.05731 0.57477 -0.05665
 O76 O 0.05928 0.45587 -0.06476
 O77 O 0.02849 0.41782 -0.03595
 C78 C 0.05220 0.42568 -0.05648
 Zr79 Zr 0.03763 0.50139 -0.04766
 O80 O 0.03652 0.50021 -0.10041
 O81 O 0.09105 0.50680 -0.04754
 Zr82 Zr -0.04780 0.49847 -0.04929
 O83 O -0.04344 0.49789 -0.10173
 O84 O -0.10141 0.50073 -0.05268
 O85 O -0.00637 0.52975 -0.05326
 O86 O -0.00379 0.47116 -0.05583
 O87 O 0.05918 0.45231 0.04953
 O88 O 0.02713 0.41597 0.01847
 C89 C 0.05097 0.42266 0.03994
 O90 O -0.06750 0.54011 0.05540
 O91 O -0.03793 0.57873 0.02622
 C92 C -0.05996 0.57044 0.04838
 O93 O -0.06539 0.44732 0.04862
 O94 O -0.03170 0.41370 0.01633
 C95 C -0.05538 0.41839 0.03807
 O96 O 0.05230 0.54462 0.05695
 O97 O 0.01884 0.58078 0.02741
 C98 C 0.04206 0.57429 0.04961
 Zr99 Zr 0.03691 0.49837 0.03690
 O100 O 0.03411 0.49265 0.08920
 O101 O 0.09024 0.50346 0.04070
 Zr102 Zr -0.04884 0.49518 0.03499
 O103 O -0.04942 0.48992 0.08739
 O104 O -0.10260 0.49667 0.03326
 Zr105 Zr -0.00781 0.54741 -0.00371
 Zr106 Zr -0.00329 0.44945 -0.00847
 O107 O -0.00464 0.46786 0.04069
 O108 O -0.00736 0.52604 0.04396
 O109 O 0.04533 0.47093 -0.00658
 O110 O -0.05592 0.52528 -0.00598
 O111 O 0.04220 0.52854 -0.00390
 O112 O -0.05368 0.46733 -0.00866
 H113 H -0.00301 0.45647 -0.07573
 H114 H -0.07643 0.53963 -0.00600
 H115 H -0.00402 0.45201 0.05935
 H116 H 0.06169 0.54387 -0.00283
 H117 H -0.11021 0.48546 -0.03582
 H118 H -0.11035 0.47717 0.02027
 H119 H -0.03532 0.50780 0.09709
 H120 H 0.02349 0.51291 0.09854
 H121 H 0.10021 0.49005 0.02250
 H122 H 0.10079 0.48881 -0.03384
 H123 H 0.02030 0.51752 -0.10779
 H124 H -0.06697 0.49741 -0.11072
 O125 O 1.06525 -0.06018 0.45555
 O126 O 1.03118 -0.03129 0.41923
 C127 C 1.05429 -0.05337 0.42566
 O128 O 0.94991 -0.05554 0.55469
 O129 O 0.98351 -0.02277 0.58804
 C130 C 0.96041 -0.04512 0.58377
 O131 O 0.94924 -0.06470 0.46108
 O132 O 0.97521 -0.03305 0.42177
 C133 C 0.95563 -0.05703 0.43043
 O134 O 1.07407 -0.05092 0.54886
 O135 O 1.04139 -0.02064 0.58526
 C136 C 1.06566 -0.04144 0.57867
 Zr137 Zr 1.05154 -0.03892 0.50229
 O138 O 1.05470 -0.09074 0.50875
 O139 O 1.10478 -0.03672 0.49597
 Zr140 Zr 0.96574 -0.04206 0.50622
 O141 O 0.96761 -0.09390 0.51276
 O142 O 0.91201 -0.04343 0.50432
 O143 O 1.00733 -0.04865 0.47502
 O144 O 1.01050 -0.04488 0.53330
 O145 O 1.06776 0.06399 0.54419
 O146 O 1.03802 0.03488 0.58292
 C147 C 1.05972 0.05718 0.57473
 O148 O 0.94209 0.05638 0.45526
 O149 O 0.97290 0.02442 0.41878
 C150 C 0.94998 0.04668 0.42538
 O151 O 0.94494 0.05953 0.54870
 O152 O 0.97996 0.03201 0.58536
 C153 C 0.95557 0.05265 0.57859
 O154 O 1.06049 0.06100 0.45012
 O155 O 1.02946 0.02558 0.41709
 C156 C 1.05077 0.04952 0.42119
 Zr157 Zr 1.04762 0.04445 0.49853
 O158 O 1.04587 0.09677 0.49943
 O159 O 1.10102 0.04495 0.49290
 Zr160 Zr 0.96167 0.04130 0.50205
 O161 O 0.95896 0.09359 0.50289
 O162 O 0.90799 0.03862 0.50101
 Zr163 Zr 1.00382 -0.00164 0.45295
 Zr164 Zr 1.00911 0.00407 0.55157
 O165 O 1.00579 0.05060 0.52870
 O166 O 1.00275 0.04768 0.47039
 O167 O 1.05767 0.00472 0.52992
 O168 O 0.95590 -0.00232 0.47550
 O169 O 1.05406 0.00126 0.47123
 O170 O 0.95858 0.00115 0.53406
 H171 H 1.01223 -0.06341 0.54920
 H172 H 0.93533 -0.00399 0.46115
 H173 H 1.00550 0.07094 0.54266
 H174 H 1.07304 0.00085 0.45523
 H175 H 0.90351 -0.03009 0.52330
 H176 H 0.90095 0.02679 0.52122
 H177 H 0.97195 0.10158 0.48366
 H178 H 1.02986 0.10379 0.48166
 H179 H 1.11128 0.03484 0.51301
 H180 H 1.11399 -0.02201 0.51366
 H181 H 1.04005 -0.10113 0.49150
 H182 H 0.98258 -0.10319 0.49534
 C183 C 1.14098 0.17907 0.26544
 C184 C 1.13407 0.14511 0.27013
 C185 C 1.13930 0.12323 0.24274
 C186 C 1.15206 0.13488 0.21263
 C187 C 1.15863 0.16845 0.20851
 C188 C 1.15282 0.19046 0.23496
 C189 C 1.13143 0.08987 0.24532
 C190 C 1.11716 0.07775 0.27410
 C191 C 1.11091 0.09853 0.30186
 C192 C 1.12136 0.13225 0.30061
 C193 C 1.11924 0.15169 0.32998
 C194 C 1.10651 0.13884 0.35932
 C195 C 1.09405 0.10667 0.36021
 C196 C 1.09519 0.08644 0.33115
 C197 C 1.07964 0.05514 0.33224
 C198 C 1.06502 0.04396 0.36134
 C199 C 1.06560 0.06313 0.39059
 C200 C 1.08011 0.09465 0.38988
 H201 H 1.13654 0.19755 0.28446
 H202 H 1.15600 0.11797 0.19187
 H203 H 1.15755 0.21660 0.23195
 H204 H 1.13582 0.07300 0.22462
 H205 H 1.11224 0.05158 0.27421
 H206 H 1.12821 0.17678 0.33136
 H207 H 1.10580 0.15450 0.38139
 H208 H 1.07740 0.03905 0.31077
 H209 H 1.05334 0.01988 0.36090
 H210 H 1.07994 0.11007 0.41214
 C211 C 0.85395 -0.11873 0.23992
 C212 C 0.86770 -0.13426 0.26857
 C213 C 0.86326 -0.16888 0.27160
 C214 C 0.84738 -0.18715 0.24602
 C215 C 0.83436 -0.17131 0.21783
 C216 C 0.83744 -0.13705 0.21511
 C217 C 0.87446 -0.18505 0.30022
 C218 C 0.88924 -0.16753 0.32644
 C219 C 0.89439 -0.13309 0.32460
 C220 C 0.88503 -0.11652 0.29451
 C221 C 0.89393 -0.08299 0.29107
 C222 C 0.91034 -0.06586 0.31657
 C223 C 0.91766 -0.08110 0.34681
 C224 C 0.90924 -0.11474 0.35160
 C225 C 0.91544 -0.12836 0.38348
 C226 C 0.93014 -0.10952 0.40906
 C227 C 0.93951 -0.07673 0.40363
 C228 C 0.93323 -0.06270 0.37243
 H229 H 0.85473 -0.09239 0.23631
 H230 H 0.84447 -0.21367 0.24818
 H231 H 0.82726 -0.12449 0.19344
 H232 H 0.87129 -0.21152 0.30261
 H233 H 0.89733 -0.18194 0.34756
 H234 H 0.88944 -0.06944 0.26846
 H235 H 0.91694 -0.04022 0.31273
 H236 H 0.90848 -0.15323 0.38974
 H237 H 0.93454 -0.12080 0.43310
 H238 H 0.93985 -0.03709 0.36826
 C239 C 0.85804 0.10196 0.77312
 C240 C 0.86948 0.11897 0.74471
 C241 C 0.86271 0.15342 0.74290
 C242 C 0.84692 0.17013 0.76932
 C243 C 0.83639 0.15296 0.79730
 C244 C 0.84161 0.11881 0.79890
 C245 C 0.87163 0.17105 0.71474
 C246 C 0.88638 0.15513 0.68773
 C247 C 0.89376 0.12093 0.68827
 C248 C 0.88684 0.10294 0.71789
 C249 C 0.89821 0.06982 0.71999
 C250 C 0.91493 0.05449 0.69369
 C251 C 0.91986 0.07109 0.66388
 C252 C 0.90858 0.10428 0.66041
 C253 C 0.91194 0.11922 0.62890
 C254 C 0.92682 0.10218 0.60243
 C255 C 0.93925 0.07000 0.60655
 C256 C 0.93578 0.05455 0.63734
 H257 H 0.86071 0.07559 0.77584
 H258 H 0.84229 0.19656 0.76808
 H259 H 0.83330 0.10528 0.82044
 H260 H 0.86677 0.19742 0.71338
 H261 H 0.89279 0.17064 0.66709
 H262 H 0.89554 0.05533 0.74217
 H263 H 0.92359 0.02915 0.69653
 H264 H 0.90248 0.14369 0.62358
 H265 H 0.92898 0.11443 0.57867
 H266 H 0.94476 0.02932 0.64038
 C267 C 1.10829 -0.14756 0.76839
 C268 C 1.12741 -0.13300 0.74277
 C269 C 1.16319 -0.13730 0.74370
 C270 C 1.17899 -0.15363 0.77042
 C271 C 1.15966 -0.16701 0.79590
 C272 C 1.12429 -0.16435 0.79443
 C273 C 1.18301 -0.12527 0.71803
 C274 C 1.16810 -0.10955 0.69092
 C275 C 1.13266 -0.10426 0.68899
 C276 C 1.11222 -0.11477 0.71612
 C277 C 1.07746 -0.10599 0.71616
 C278 C 1.06286 -0.08850 0.69009
 C279 C 1.08198 -0.07992 0.66254
 C280 C 1.11701 -0.08818 0.66116
 C281 C 1.13461 -0.08066 0.63159
 C282 C 1.11805 -0.06531 0.60488
 C283 C 1.08377 -0.05641 0.60706
 C284 C 1.06600 -0.06354 0.63603
 H285 H 1.08094 -0.14697 0.76874
 H286 H 1.20641 -0.15625 0.77143
 H287 H 1.10903 -0.17483 0.81391
 H288 H 1.21039 -0.12835 0.71871
 H289 H 1.18525 -0.10083 0.67227
 H290 H 1.06095 -0.11143 0.73658
 H291 H 1.03610 -0.08209 0.69130
 H292 H 1.16086 -0.08729 0.62786
 H293 H 1.13209 -0.06033 0.58244
 H294 H 1.03923 -0.05745 0.63742
 C295 C 0.22019 1.13869 1.10936
 C296 C 0.25061 1.12967 1.12624
 C297 C 0.25389 1.13878 1.16036
 C298 C 0.22720 1.15495 1.17690
 C299 C 0.19731 1.16339 1.15981
 C300 C 0.19413 1.15537 1.12594
 C301 C 0.28385 1.13190 1.17781
 C302 C 0.31116 1.11691 1.16200
 C303 C 0.30931 1.10745 1.12806
 C304 C 0.27802 1.11253 1.11033
 C305 C 0.27499 1.09981 1.07753
 C306 C 0.30188 1.08356 1.06218
 C307 C 0.33315 1.08012 1.07845
 C308 C 0.33755 1.09253 1.11140
 C309 C 0.37031 1.09007 1.12606
 C310 C 0.39713 1.07526 1.10898
 C311 C 0.39232 1.06216 1.07687
 C312 C 0.36019 1.06457 1.06176
 H313 H 0.21599 1.13390 1.08320
 H314 H 0.22981 1.16162 1.20303
 H315 H 0.17118 1.16184 1.11231
 H316 H 0.28638 1.13856 1.20395
 H317 H 0.33319 1.11224 1.17744
 H318 H 0.25174 1.10125 1.06322
 H319 H 0.29828 1.07399 1.03707
 H320 H 0.37637 1.10007 1.15036
 H321 H 0.42178 1.07386 1.12115
 H322 H 0.35639 1.05499 1.03666
 C323 C 0.22180 0.88548 0.86909
 C324 C 0.25323 0.87029 0.87744
 C325 C 0.25847 0.83698 0.86711
 C326 C 0.23266 0.81953 0.85036
 C327 C 0.20192 0.83507 0.84228
 C328 C 0.19673 0.86810 0.85163
 C329 C 0.28957 0.82140 0.87309
 C330 C 0.31624 0.83849 0.88795
 C331 C 0.31248 0.87177 0.89834
 C332 C 0.27991 0.88727 0.89478
 C333 C 0.27501 0.91900 0.90902
 C334 C 0.30142 0.93564 0.92493
 C335 C 0.33394 0.92185 0.92637
 C336 C 0.34011 0.88994 0.91261
 C337 C 0.37393 0.87792 0.91291
 C338 C 0.40021 0.89655 0.92682
 C339 C 0.39379 0.92762 0.94122
 C340 C 0.36048 0.94000 0.94119
 H341 H 0.21617 0.91102 0.87474
 H342 H 0.23675 0.79405 0.84263
 H343 H 0.17304 0.88046 0.84538
 H344 H 0.29360 0.79586 0.86560
 H345 H 0.33937 0.82459 0.89176
 H346 H 0.25068 0.93137 0.90903
 H347 H 0.29645 0.95990 0.93563
 H348 H 0.38117 0.85463 0.90171
 H349 H 0.42573 0.88637 0.92648
 H350 H 0.35527 0.96410 0.95208
 C351 C 0.72851 0.84147 1.18710
 C352 C 0.72485 0.84921 1.15289
 C353 C 0.75287 0.84263 1.13181
 C354 C 0.78270 0.82818 1.14451
 C355 C 0.78596 0.82131 1.17843
 C356 C 0.75877 0.82803 1.19959
 C357 C 0.75137 0.85120 1.09831
 C358 C 0.72325 0.86764 1.08541
 C359 C 0.69502 0.87548 1.10545
 C360 C 0.69494 0.86430 1.13913
 C361 C 0.66492 0.86834 1.15772
 C362 C 0.63638 0.88391 1.14428
 C363 C 0.63700 0.89709 1.11232
 C364 C 0.66661 0.89369 1.09272
 C365 C 0.66695 0.90949 1.06146
 C366 C 0.63869 0.92689 1.04982
 C367 C 0.60901 0.92897 1.06863
 C368 C 0.60826 0.91396 1.09989
 H369 H 0.70901 0.84670 1.20507
 H370 H 0.80412 0.82364 1.12831
 H371 H 0.76123 0.82317 1.22600
 H372 H 0.77251 0.84578 1.08201
 H373 H 0.72406 0.87320 1.05923
 H374 H 0.66238 0.85890 1.18257
 H375 H 0.61379 0.88620 1.15935
 H376 H 0.68896 0.90967 1.04577
 H377 H 0.64002 0.93847 1.02564
 H378 H 0.58555 0.91602 1.11484
 C379 C 0.73154 1.13870 0.82642
 C380 C 0.72575 1.13605 0.86105
 C381 C 0.75236 1.14559 0.88319
 C382 C 0.78295 1.15780 0.87096
 C383 C 0.78832 1.15979 0.83669
 C384 C 0.76243 1.15021 0.81457
 C385 C 0.74859 1.14245 0.91746
 C386 C 0.71961 1.12849 0.93038
 C387 C 0.69282 1.11764 0.90942
 C388 C 0.69502 1.12332 0.87442
 C389 C 0.66639 1.11626 0.85411
 C390 C 0.63717 1.10274 0.86731
 C391 C 0.63570 1.09466 0.90095
 C392 C 0.66375 1.10154 0.92239
 C393 C 0.66205 1.09095 0.95578
 C394 C 0.63360 1.07470 0.96734
 C395 C 0.60569 1.06874 0.94632
 C396 C 0.60661 1.07911 0.91321
 H397 H 0.71317 1.13115 0.80782
 H398 H 0.80320 1.16477 0.88811
 H399 H 0.76623 1.15157 0.78793
 H400 H 0.76858 1.15029 0.93451
 H401 H 0.71866 1.12721 0.95715
 H402 H 0.66551 1.12157 0.82786
 H403 H 0.61577 1.09784 0.85081
 H404 H 0.68271 1.09376 0.97337
 H405 H 0.63343 1.06674 0.99305
 H406 H 0.58523 1.07398 0.89674
 C407 C 0.10040 0.23226 0.14061
 C408 C 0.11847 0.25914 0.12726
 C409 C 0.15414 0.25998 0.13256
 C410 C 0.17093 0.23388 0.14874
 C411 C 0.15266 0.20728 0.16108
 C412 C 0.11734 0.20688 0.15738
 C413 C 0.17287 0.28683 0.12174
 C414 C 0.15692 0.31344 0.10643
 C415 C 0.12152 0.31376 0.10040
 C416 C 0.10231 0.28541 0.10942
 C417 C 0.06779 0.28393 0.09965
 C418 C 0.05222 0.30976 0.08274
 C419 C 0.07002 0.33849 0.07583
 C420 C 0.10477 0.34123 0.08509
 C421 C 0.12101 0.37176 0.07940
 C422 C 0.10350 0.39808 0.06476
 C423 C 0.06957 0.39470 0.05482
 C424 C 0.05304 0.36475 0.06013
 H425 H 0.07315 0.23045 0.13916
 H426 H 0.19828 0.23429 0.15217
 H427 H 0.10291 0.18650 0.16709
 H428 H 0.20016 0.28749 0.12554
 H429 H 0.17327 0.33307 0.09863
 H430 H 0.05228 0.26258 0.10388
 H431 H 0.02571 0.30745 0.07553
 H432 H 0.14687 0.37649 0.08695
 H433 H 0.11664 0.42118 0.06109
 H434 H 0.02650 0.36227 0.05305
 C435 C -0.11038 0.22101 -0.13625
 C436 C -0.12687 0.25176 -0.13051
 C437 C -0.16133 0.25492 -0.14079
 C438 C -0.17864 0.22789 -0.15486
 C439 C -0.16188 0.19776 -0.16013
 C440 C -0.12768 0.19459 -0.15096
 C441 C -0.17826 0.28510 -0.13733
 C442 C -0.16155 0.31265 -0.12467
 C443 C -0.12728 0.31087 -0.11406
 C444 C -0.11017 0.27956 -0.11559
 C445 C -0.07720 0.27695 -0.10160
 C446 C -0.06106 0.30415 -0.08752
 C447 C -0.07666 0.33518 -0.08752
 C448 C -0.10973 0.33920 -0.10131
 C449 C -0.12362 0.37158 -0.10217
 C450 C -0.10583 0.39842 -0.08887
 C451 C -0.07373 0.39401 -0.07417
 C452 C -0.05925 0.36227 -0.07374
 H453 H -0.08394 0.21676 -0.13049
 H454 H -0.20502 0.23039 -0.16253
 H455 H -0.11434 0.17143 -0.15514
 H456 H -0.20465 0.28760 -0.14493
 H457 H -0.17659 0.33492 -0.12268
 H458 H -0.06343 0.25388 -0.10029
 H459 H -0.03588 0.30089 -0.07679
 H460 H -0.14791 0.37716 -0.11345
 H461 H -0.11755 0.42272 -0.08975
 H462 H -0.03419 0.35861 -0.06283
 C463 C 0.14664 0.72970 -0.17594
 C464 C 0.13708 0.72552 -0.14233
 C465 C 0.14128 0.75281 -0.12018
 C466 C 0.15535 0.78243 -0.13121
 C467 C 0.16423 0.78613 -0.16454
 C468 C 0.15973 0.75968 -0.18680
 C469 C 0.13091 0.75069 -0.08724
 C470 C 0.11516 0.72249 -0.07590
 C471 C 0.10977 0.69486 -0.09702
 C472 C 0.12261 0.69567 -0.13018
 C473 C 0.12089 0.66654 -0.14983
 C474 C 0.10612 0.63793 -0.13790
 C475 C 0.09146 0.63749 -0.10644
 C476 C 0.09245 0.66619 -0.08584
 C477 C 0.07532 0.66532 -0.05512
 C478 C 0.05899 0.63687 -0.04491
 C479 C 0.05914 0.60815 -0.06473
 C480 C 0.07551 0.60857 -0.09553
 H481 H 0.14329 0.71071 -0.19467
 H482 H 0.15828 0.80321 -0.11416
 H483 H 0.16628 0.76238 -0.21276
 H484 H 0.13445 0.77133 -0.07013
 H485 H 0.10825 0.72281 -0.05001
 H486 H 0.13160 0.66479 -0.17437
 H487 H 0.10566 0.61606 -0.15373
 H488 H 0.07325 0.68647 -0.03871
 H489 H 0.04644 0.63734 -0.02101
 H490 H 0.07532 0.58660 -0.11124
 C491 C -0.11379 0.76303 0.14717
 C492 C -0.12975 0.73249 0.13991
 C493 C -0.16294 0.72764 0.15228
 C494 C -0.17998 0.75323 0.16922
 C495 C -0.16403 0.78344 0.17540
 C496 C -0.13072 0.78797 0.16475
 C497 C -0.17899 0.69734 0.14765
 C498 C -0.16264 0.67134 0.13149
 C499 C -0.12981 0.67500 0.11828
 C500 C -0.11379 0.70654 0.12120
 C501 C -0.08286 0.71139 0.10453
 C502 C -0.06762 0.68608 0.08636
 C503 C -0.08189 0.65467 0.08495
 C504 C -0.11280 0.64841 0.10146
 C505 C -0.12510 0.61562 0.10083
 C506 C -0.10784 0.59051 0.08380
 C507 C -0.07794 0.59715 0.06660
 C508 C -0.06521 0.62939 0.06721
 H509 H -0.08805 0.76821 0.14017
 H510 H -0.20563 0.74969 0.17799
 H511 H -0.11800 0.81121 0.16955
 H512 H -0.20441 0.69355 0.15693
 H513 H -0.17697 0.64888 0.12875
 H514 H -0.07029 0.73494 0.10410
 H515 H -0.04416 0.69108 0.07355
 H516 H -0.14752 0.60832 0.11394
 H517 H -0.11815 0.56576 0.08398
 H518 H -0.04194 0.63478 0.05426
 C519 C 1.19946 0.15389 0.72383
 C520 C 1.16420 0.15281 0.71671
 C521 C 1.14200 0.16776 0.74010
 C522 C 1.15484 0.18426 0.76846
 C523 C 1.18996 0.18536 0.77530
 C524 C 1.21194 0.16953 0.75264
 C525 C 1.10695 0.16587 0.73537
 C526 C 1.09325 0.14851 0.70849
 C527 C 1.11420 0.13299 0.68457
 C528 C 1.15018 0.13672 0.68772
 C529 C 1.17078 0.12473 0.66157
 C530 C 1.15681 0.10876 0.63380
 C531 C 1.12197 0.10294 0.63148
 C532 C 1.10026 0.11433 0.65725
 C533 C 1.06555 0.10577 0.65508
 C534 C 1.05298 0.08728 0.62826
 C535 C 1.07423 0.07714 0.60231
 C536 C 1.10872 0.08529 0.60382
 H537 H 1.21804 0.14212 0.70806
 H538 H 1.13723 0.19510 0.78611
 H539 H 1.23915 0.16981 0.75689
 H540 H 1.08983 0.17754 0.75298
 H541 H 1.06594 0.14854 0.70662
 H542 H 1.19788 0.12817 0.66141
 H543 H 1.17360 0.10029 0.61421
 H544 H 1.04760 0.11198 0.67426
 H545 H 1.02627 0.08099 0.62772
 H546 H 1.12538 0.07689 0.58409
 C547 C 0.82671 -0.15128 0.72712
 C548 C 0.85975 -0.13762 0.72686
 C549 C 0.87866 -0.13770 0.75719
 C550 C 0.86543 -0.15229 0.78587
 C551 C 0.83280 -0.16566 0.78548
 C552 C 0.81347 -0.16476 0.75609
 C553 C 0.91049 -0.12290 0.75886
 C554 C 0.92377 -0.10716 0.73135
 C555 C 0.90606 -0.10644 0.70056
 C556 C 0.87434 -0.12333 0.69785
 C557 C 0.85865 -0.12596 0.66613
 C558 C 0.87303 -0.11200 0.63815
 C559 C 0.90297 -0.09391 0.64074
 C560 C 0.91946 -0.09011 0.67213
 C561 C 0.94836 -0.06956 0.67382
 C562 C 0.96096 -0.05462 0.64535
 C563 C 0.94572 -0.05998 0.61403
 C564 C 0.91646 -0.07949 0.61203
 H565 H 0.81007 -0.15106 0.70563
 H566 H 0.88004 -0.15240 0.80893
 H567 H 0.78800 -0.17470 0.75563
 H568 H 0.92516 -0.12308 0.78188
 H569 H 0.94863 -0.09661 0.73472
 H570 H 0.83563 -0.13966 0.66186
 H571 H 0.86031 -0.11510 0.61424
 H572 H 0.96134 -0.06383 0.69692
 H573 H 0.98294 -0.03887 0.64799
 H574 H 0.90387 -0.08320 0.58814
 C575 C 1.12544 -0.10621 0.22042
 C576 C 1.12316 -0.12187 0.25175
 C577 C 1.13675 -0.15431 0.25461
 C578 C 1.14971 -0.17097 0.22653
 C579 C 1.15089 -0.15526 0.19570
 C580 C 1.13929 -0.12270 0.19297
 C581 C 1.13739 -0.16991 0.28545
 C582 C 1.12521 -0.15391 0.31377
 C583 C 1.11060 -0.12197 0.31212
 C584 C 1.10826 -0.10632 0.28031
 C585 C 1.09019 -0.07616 0.27788
 C586 C 1.07548 -0.06141 0.30559
 C587 C 1.07910 -0.07544 0.33702
 C588 C 1.09737 -0.10548 0.34102
 C589 C 1.10189 -0.11744 0.37388
 C590 C 1.08822 -0.10051 0.40128
 C591 C 1.06918 -0.07145 0.39689
 C592 C 1.06455 -0.05935 0.36454
 H593 H 1.11743 -0.08101 0.21647
 H594 H 1.15936 -0.19605 0.22859
 H595 H 1.14050 -0.11023 0.16927
 H596 H 1.14778 -0.19468 0.28782
 H597 H 1.12653 -0.16776 0.33654
 H598 H 1.08589 -0.06382 0.25453
 H599 H 1.06143 -0.03847 0.30242
 H600 H 1.11657 -0.13935 0.37934
 H601 H 1.09240 -0.11038 0.42599
 H602 H 1.04985 -0.03698 0.36067
 C603 C 0.89479 0.14456 0.23246
 C604 C 0.87806 0.13333 0.26127
 C605 C 0.84290 0.14063 0.26416
 C606 C 0.82527 0.15708 0.23855
 C607 C 0.84218 0.16754 0.21012
 C608 C 0.87708 0.16152 0.20748
 C609 C 0.82545 0.13157 0.29262
 C610 C 0.84220 0.11610 0.31883
 C611 C 0.87716 0.10827 0.31731
 C612 C 0.89502 0.11564 0.28745
 C613 C 0.92898 0.10455 0.28456
 C614 C 0.94525 0.08767 0.31026
 C615 C 0.92881 0.08203 0.34025
 C616 C 0.89473 0.09279 0.34447
 C617 C 0.87989 0.08829 0.37605
 C618 C 0.89796 0.07333 0.40196
 C619 C 0.93120 0.06189 0.39733
 C620 C 0.94646 0.06609 0.36630
 H621 H 0.92165 0.14121 0.22874
 H622 H 0.79832 0.16222 0.24083
 H623 H 0.89058 0.16965 0.18571
 H624 H 0.79852 0.13684 0.29484
 H625 H 0.82668 0.10974 0.33971
 H626 H 0.94350 0.10780 0.26226
 H627 H 0.97124 0.07941 0.30677
 H628 H 0.85471 0.09693 0.38197
 H629 H 0.88574 0.07060 0.42582
 H630 H 0.97248 0.05788 0.36275
 C631 C 0.15782 0.28190 -0.19283
 C632 C 0.15368 0.28696 -0.15814
 C633 C 0.16608 0.26198 -0.13658
 C634 C 0.18294 0.23395 -0.14932
 C635 C 0.18683 0.22902 -0.18385
 C636 C 0.17380 0.25344 -0.20533
 C637 C 0.16126 0.26477 -0.10232
 C638 C 0.14334 0.29129 -0.08889
 C639 C 0.13019 0.31674 -0.10922
 C640 C 0.13703 0.31546 -0.14415
 C641 C 0.12746 0.34291 -0.16373
 C642 C 0.11092 0.37021 -0.14986
 C643 C 0.10206 0.37081 -0.11629
 C644 C 0.11093 0.34373 -0.09564
 C645 C 0.09937 0.34440 -0.06238
 C646 C 0.08044 0.37103 -0.05015
 C647 C 0.07274 0.39818 -0.07028
 C648 C 0.08388 0.39812 -0.10331
 H649 H 0.14823 0.29909 -0.21105
 H650 H 0.19180 0.21507 -0.13225
 H651 H 0.17653 0.25079 -0.23205
 H652 H 0.17103 0.24594 -0.08566
 H653 H 0.14104 0.29161 -0.06216
 H654 H 0.13327 0.34443 -0.18984
 H655 H 0.10441 0.39084 -0.16580
 H656 H 0.10355 0.32426 -0.04542
 H657 H 0.07191 0.37045 -0.02458
 H658 H 0.07743 0.41882 -0.11919
 C659 C -0.14120 0.26966 0.17729
 C660 C -0.13657 0.27289 0.14250
 C661 C -0.14442 0.24523 0.12185
 C662 C -0.15798 0.21642 0.13554
 C663 C -0.16270 0.21396 0.16990
 C664 C -0.15385 0.24054 0.19065
 C665 C -0.13851 0.24636 0.08771
 C666 C -0.12419 0.27407 0.07351
 C667 C -0.11608 0.30233 0.09287
 C668 C -0.12388 0.30230 0.12761
 C669 C -0.11942 0.33184 0.14615
 C670 C -0.10684 0.36016 0.13155
 C671 C -0.09721 0.35999 0.09823
 C672 C -0.10102 0.33091 0.07851
 C673 C -0.08888 0.33148 0.04543
 C674 C -0.07418 0.35985 0.03253
 C675 C -0.07156 0.38876 0.05183
 C676 C -0.08334 0.38873 0.08462
 H677 H -0.13453 0.28884 0.19494
 H678 H -0.16431 0.19551 0.11960
 H679 H -0.15708 0.23877 0.21733
 H680 H -0.14464 0.22538 0.07179
 H681 H -0.12070 0.27293 0.04694
 H682 H -0.12637 0.33418 0.17195
 H683 H -0.10415 0.38234 0.14672
 H684 H -0.08943 0.31014 0.02915
 H685 H -0.06495 0.35920 0.00720
 H686 H -0.08072 0.41083 0.09993
 C687 C -0.14237 0.77284 -0.11452
 C688 C -0.13247 0.74294 -0.13049
 C689 C -0.13896 0.73987 -0.16525
 C690 C -0.15367 0.76613 -0.18313
 C691 C -0.16358 0.79524 -0.16676
 C692 C -0.15789 0.79836 -0.13242
 C693 C -0.13131 0.71040 -0.18192
 C694 C -0.11844 0.68336 -0.16474
 C695 C -0.11178 0.68499 -0.13011
 C696 C -0.11725 0.71577 -0.11306
 C697 C -0.10689 0.71847 -0.07933
 C698 C -0.09258 0.69179 -0.06256
 C699 C -0.08894 0.66109 -0.07829
 C700 C -0.09915 0.65702 -0.11209
 C701 C -0.09689 0.62490 -0.12625
 C702 C -0.08398 0.59840 -0.10795
 C703 C -0.07255 0.60287 -0.07505
 C704 C -0.07521 0.63435 -0.06033
 H705 H -0.13955 0.77690 -0.08807
 H706 H -0.15869 0.76355 -0.20964
 H707 H -0.16570 0.82069 -0.11940
 H708 H -0.13589 0.70799 -0.20852
 H709 H -0.11309 0.66164 -0.17958
 H710 H -0.10864 0.74128 -0.06535
 H711 H -0.08469 0.69515 -0.03678
 H712 H -0.10554 0.61922 -0.15120
 H713 H -0.08247 0.57430 -0.11990
 H714 H -0.06696 0.63799 -0.03468
 C715 C 0.09307 0.77464 0.13362
 C716 C 0.11004 0.74447 0.12623
 C717 C 0.14513 0.74214 0.13438
 C718 C 0.16264 0.76964 0.14733
 C719 C 0.14549 0.79935 0.15382
 C720 C 0.11058 0.80148 0.14739
 C721 C 0.16259 0.71239 0.12964
 C722 C 0.14593 0.68457 0.11745
 C723 C 0.11119 0.68571 0.10837
 C724 C 0.09338 0.71654 0.11141
 C725 C 0.05990 0.71869 0.09859
 C726 C 0.04418 0.69158 0.08373
 C727 C 0.06057 0.66094 0.08217
 C728 C 0.09395 0.65728 0.09533
 C729 C 0.10853 0.62519 0.09512
 C730 C 0.09125 0.59835 0.08110
 C731 C 0.05901 0.60247 0.06657
 C732 C 0.04377 0.63390 0.06736
 H733 H 0.06616 0.77805 0.12975
 H734 H 0.18959 0.76791 0.15292
 H735 H 0.09694 0.82427 0.15260
 H736 H 0.18942 0.71048 0.13573
 H737 H 0.16140 0.66271 0.11425
 H738 H 0.04554 0.74146 0.09850
 H739 H 0.01875 0.69461 0.07357
 H740 H 0.13302 0.61986 0.10612
 H741 H 0.10359 0.57432 0.08106
 H742 H 0.01870 0.63735 0.05653
 C743 C 0.28209 1.19352 0.85318
 C744 C 0.28467 1.15901 0.85829
 C745 C 0.25843 1.13886 0.84498
 C746 C 0.23195 1.15269 0.82578
 C747 C 0.22957 1.18704 0.82094
 C748 C 0.25489 1.20718 0.83526
 C749 C 0.25838 1.10503 0.85136
 C750 C 0.28339 1.09075 0.87134
 C751 C 0.31034 1.10963 0.88481
 C752 C 0.31192 1.14396 0.87675
 C753 C 0.34107 1.16183 0.88664
 C754 C 0.36755 1.14684 0.90417
 C755 C 0.36556 1.11385 0.91368
 C756 C 0.33642 1.09506 0.90514
 C757 C 0.33448 1.06253 0.91765
 C758 C 0.36119 1.04882 0.93622
 C759 C 0.39085 1.06677 0.94262
 C760 C 0.39271 1.09945 0.93157
 H761 H 0.30011 1.21077 0.86362
 H762 H 0.21207 1.13681 0.81596
 H763 H 0.25390 1.23373 0.83209
 H764 H 0.23844 1.08944 0.84121
 H765 H 0.28159 1.06444 0.87482
 H766 H 0.34479 1.18729 0.88004
 H767 H 0.38974 1.16137 0.91061
 H768 H 0.31243 1.04723 0.91402
 H769 H 0.35891 1.02370 0.94491
 H770 H 0.41528 1.11379 0.93709
 C771 C 0.21867 0.85836 1.09851
 C772 C 0.24908 0.86659 1.11579
 C773 C 0.25082 0.85992 1.15042
 C774 C 0.22253 0.84746 1.16708
 C775 C 0.19256 0.84007 1.14963
 C776 C 0.19104 0.84514 1.11523
 C777 C 0.28078 0.86568 1.16828
 C778 C 0.30937 0.87756 1.15256
 C779 C 0.30887 0.88517 1.11829
 C780 C 0.27782 0.88086 1.09991
 C781 C 0.27626 0.89186 1.06663
 C782 C 0.30407 0.90634 1.05171
 C783 C 0.33488 0.90948 1.06887
 C784 C 0.33809 0.89799 1.10204
 C785 C 0.37057 0.89962 1.11747
 C786 C 0.39805 0.91360 1.10121
 C787 C 0.39415 0.92670 1.06925
 C788 C 0.36253 0.92424 1.05306
 H789 H 0.21563 0.86122 1.07198
 H790 H 0.22387 0.84294 1.19365
 H791 H 0.16810 0.83926 1.10133
 H792 H 0.28224 0.86069 1.19476
 H793 H 0.33128 0.88166 1.16833
 H794 H 0.25339 0.89072 1.05170
 H795 H 0.30146 0.91500 1.02632
 H796 H 0.37574 0.88988 1.14190
 H797 H 0.42233 0.91486 1.11411
 H798 H 0.35948 0.93369 1.02799
 C799 C 0.73385 1.17925 1.15219
 C800 C 0.72957 1.14482 1.14695
 C801 C 0.75785 1.12387 1.15363
 C802 C 0.78847 1.13693 1.16602
 C803 C 0.79211 1.17098 1.17128
 C804 C 0.76465 1.19198 1.16403
 C805 C 0.75559 1.08996 1.14777
 C806 C 0.72618 1.07627 1.13445
 C807 C 0.69741 1.09599 1.12691
 C808 C 0.69857 1.13057 1.13471
 C809 C 0.66863 1.14958 1.13036
 C810 C 0.63896 1.13563 1.11765
 C811 C 0.63807 1.10244 1.10794
 C812 C 0.66741 1.08221 1.11207
 C813 C 0.66580 1.04919 1.10020
 C814 C 0.63646 1.03700 1.08495
 C815 C 0.60748 1.05694 1.08132
 C816 C 0.60820 1.08953 1.09337
 H817 H 0.71417 1.19709 1.14677
 H818 H 0.80986 1.12063 1.17107
 H819 H 0.76700 1.21841 1.16780
 H820 H 0.77699 1.07378 1.15318
 H821 H 0.72660 1.04983 1.13102
 H822 H 0.66708 1.17536 1.13719
 H823 H 0.61663 1.15122 1.11479
 H824 H 0.68712 1.03238 1.10117
 H825 H 0.63654 1.01173 1.07568
 H826 H 0.58601 1.10525 1.09008
 C827 C 0.73070 0.82421 0.84961
 C828 C 0.72582 0.85848 0.85570
 C829 C 0.75280 0.88002 0.84785
 C830 C 0.78271 0.86764 0.83342
 C831 C 0.78707 0.83370 0.82791
 C832 C 0.76099 0.81214 0.83620
 C833 C 0.75010 0.91372 0.85499
 C834 C 0.72176 0.92649 0.87104
 C835 C 0.69439 0.90608 0.87977
 C836 C 0.69561 0.87193 0.87023
 C837 C 0.66647 0.85251 0.87518
 C838 C 0.63766 0.86559 0.89023
 C839 C 0.63705 0.89817 0.90193
 C840 C 0.66561 0.91877 0.89737
 C841 C 0.66456 0.95095 0.91153
 C842 C 0.63624 0.96212 0.92904
 C843 C 0.60777 0.94199 0.93259
 C844 C 0.60817 0.91012 0.91867
 H845 H 0.71213 0.80597 0.85600
 H846 H 0.80326 0.88422 0.82755
 H847 H 0.76421 0.78576 0.83233
 H848 H 0.77046 0.93035 0.84871
 H849 H 0.72169 0.95279 0.87556
 H850 H 0.66483 0.82715 0.86688
 H851 H 0.61585 0.84977 0.89335
 H852 H 0.68561 0.96775 0.91048
 H853 H 0.63657 0.98682 0.93977
 H854 H 0.58641 0.89423 0.92186
   
