data_POSCAR
  _audit_creation_date              2014-09-24
  _audit_creation_method            'ToBaCCo'
  _symmetry_space_group_name_H-M    'P1'
  _symmetry_Int_Tables_number       1
  _symmetry_cell_setting            triclinic
  loop_
  _symmetry_equiv_pos_as_xyz
 x,y,z
_cell_length_a 10.6278
_cell_length_b 37.2607
_cell_length_c 11.4071
_cell_angle_alpha 87.755200
_cell_angle_beta 84.797400
_cell_angle_gamma 90.741100
loop_
  _atom_site_label
  _atom_site_type_symbol
  _atom_site_fract_x
  _atom_site_fract_y
  _atom_site_fract_z
N1 N 0.16834 0.03832 0.16675
 N2 N 0.23091 0.06916 0.16139
 N3 N 0.05054 -0.03568 0.25666
 N4 N 0.02814 -0.06635 0.31760
 N5 N 0.15772 -0.03716 0.19000
 N6 N 0.21072 -0.06864 0.20539
 N7 N 0.06105 0.04045 0.23278
 N8 N 0.04920 0.07300 0.27441
 C9 C 0.15689 0.09038 0.23012
 C10 C 0.12975 -0.08648 0.28624
 N11 N -0.27053 -0.03782 0.11800
 N12 N -0.32644 -0.06954 0.11595
 N13 N -0.20245 0.04029 0.18864
 N14 N -0.21119 0.07270 0.23093
 N15 N -0.27073 0.03749 0.09896
 N16 N -0.33326 0.06973 0.08118
 N17 N -0.21221 -0.03530 0.21424
 N18 N -0.22910 -0.06519 0.28023
 Mn19 Mn -0.07613 0.00259 0.22462
 C20 C -0.30206 -0.08608 0.21884
 C21 C -0.29153 0.09061 0.16473
 N22 N 0.22888 -0.04059 -0.05940
 N23 N 0.28635 -0.07338 -0.04094
 N24 N 0.17536 0.03473 -0.17379
 N25 N 0.19628 0.06482 -0.23807
 N26 N 0.23996 0.03489 -0.08095
 N27 N 0.30757 0.06494 -0.08118
 N28 N 0.17064 -0.04115 -0.15607
 N29 N 0.18783 -0.07225 -0.20709
 Mn30 Mn 0.19942 -0.00126 0.05488
 C31 C 0.25877 -0.09183 -0.13547
 C32 C 0.28060 0.08321 -0.18041
 N33 N -0.19836 0.03431 -0.15042
 N34 N -0.25283 0.06576 -0.15669
 N35 N -0.09308 -0.04189 -0.19790
 N36 N -0.07989 -0.07347 -0.24658
 N37 N -0.20115 -0.04079 -0.13275
 N38 N -0.26724 -0.07311 -0.13862
 N39 N -0.08921 0.03498 -0.21503
 N40 N -0.06739 0.06748 -0.26449
 Mn41 Mn -0.23571 -0.00186 -0.01717
 Mn42 Mn 0.04106 -0.00328 -0.18760
 Cl43 Cl -0.01775 -0.00097 0.01859
 C44 C -0.17210 0.08600 -0.22971
 C45 C -0.18755 -0.09239 -0.21015
 N46 N 0.75526 0.53813 0.56332
 N47 N 0.82057 0.56878 0.55179
 N48 N 0.67327 0.46175 0.66818
 N49 N 0.67745 0.43028 0.72555
 N50 N 0.75099 0.46230 0.57168
 N51 N 0.80870 0.43137 0.56128
 N52 N 0.67719 0.53761 0.65956
 N53 N 0.68719 0.56776 0.71501
 C54 C 0.77780 0.58687 0.64795
 C55 C 0.76426 0.41185 0.65877
 N56 N 0.30402 0.46256 0.65439
 N57 N 0.24185 0.43151 0.66681
 N58 N 0.40651 0.53834 0.70844
 N59 N 0.41820 0.57015 0.75455
 N60 N 0.31085 0.53839 0.64301
 N61 N 0.25645 0.56996 0.64289
 N62 N 0.40182 0.46181 0.71718
 N63 N 0.40865 0.43010 0.77231
 Mn64 Mn 0.53968 0.49982 0.68992
 C65 C 0.30704 0.41162 0.74172
 C66 C 0.32251 0.58932 0.71421
 N67 N 0.72050 0.46203 0.32309
 N68 N 0.78314 0.43182 0.31130
 N69 N 0.63038 0.53741 0.24844
 N70 N 0.62450 0.56869 0.19077
 N71 N 0.72531 0.53765 0.31470
 N72 N 0.78457 0.56903 0.30459
 N73 N 0.62289 0.46179 0.26022
 N74 N 0.61662 0.43147 0.20485
 Mn75 Mn 0.73939 0.50007 0.44272
 C76 C 0.71819 0.41316 0.23619
 C77 C 0.72273 0.58779 0.22503
 N78 N 0.28159 0.53877 0.39424
 N79 N 0.22531 0.57019 0.40015
 N80 N 0.35194 0.46220 0.31047
 N81 N 0.33735 0.43154 0.25814
 N82 N 0.27373 0.46331 0.40616
 N83 N 0.20413 0.43375 0.42091
 N84 N 0.35988 0.53808 0.29831
 N85 N 0.35937 0.56901 0.23811
 Mn86 Mn 0.29137 0.50080 0.52511
 Mn87 Mn 0.49106 0.49977 0.27796
 Cl88 Cl 0.51550 0.50010 0.48391
 C89 C 0.27374 0.58863 0.30131
 C90 C 0.24343 0.41427 0.32764
 C91 C 0.23773 0.18539 0.12228
 C92 C 0.19653 0.20546 0.22079
 C93 C 0.15147 0.18612 0.32623
 C94 C 0.13799 0.14859 0.32916
 C95 C 0.17585 0.12947 0.22990
 C96 C 0.22856 0.14798 0.12760
 C97 C 0.11820 0.20429 0.42808
 C98 C 0.12705 0.24137 0.42825
 C99 C 0.16683 0.26207 0.32503
 C100 C 0.19964 0.24387 0.21884
 C101 C 0.23114 0.26468 0.11396
 C102 C 0.24051 0.30187 0.11444
 C103 C 0.21792 0.31985 0.21879
 C104 C 0.17497 0.30038 0.32457
 C105 C 0.13999 0.32026 0.42515
 C106 C 0.15610 0.35736 0.42251
 C107 C 0.20974 0.37598 0.32099
 C108 C 0.23772 0.35726 0.21817
 H109 H 0.27906 0.19770 0.04064
 H110 H 0.09899 0.13417 0.40901
 H111 H 0.25961 0.13351 0.05011
 H112 H 0.08279 0.18954 0.50799
 H113 H 0.09879 0.25308 0.51055
 H114 H 0.24872 0.25294 0.02949
 H115 H 0.26691 0.31676 0.03232
 H116 H 0.09935 0.30821 0.50730
 H117 H 0.13023 0.37139 0.50215
 H118 H 0.27617 0.37172 0.13824
 C119 C 0.66251 0.82134 0.36608
 C120 C 0.70154 0.79922 0.27128
 C121 C 0.73806 0.81640 0.16005
 C122 C 0.73005 0.85359 0.14386
 C123 C 0.69050 0.87483 0.23774
 C124 C 0.65888 0.85872 0.34932
 C125 C 0.78544 0.79663 0.06555
 C126 C 0.78892 0.75961 0.07534
 C127 C 0.74475 0.74082 0.18096
 C128 C 0.70585 0.76088 0.28230
 C129 C 0.67244 0.74191 0.39053
 C130 C 0.67611 0.70468 0.39923
 C131 C 0.70874 0.68488 0.30004
 C132 C 0.74047 0.70255 0.18883
 C133 C 0.76293 0.68108 0.08926
 C134 C 0.75684 0.64371 0.10074
 C135 C 0.73219 0.62683 0.21161
 C136 C 0.70851 0.64733 0.31106
 H137 H 0.63494 0.81077 0.45403
 H138 H 0.75936 0.86629 0.05832
 H139 H 0.63118 0.87506 0.42351
 H140 H 0.82124 0.81000 -0.01694
 H141 H 0.82947 0.74648 -0.00130
 H142 H 0.64435 0.75505 0.47093
 H143 H 0.65092 0.69120 0.48425
 H144 H 0.78176 0.69224 0.00090
 H145 H 0.77224 0.62795 0.02301
 H146 H 0.68566 0.63391 0.39667
 C147 C 0.84303 0.17979 0.87776
 C148 C 0.80242 0.20075 0.78243
 C149 C 0.76834 0.18236 0.68270
 C150 C 0.77939 0.14495 0.67759
 C151 C 0.82405 0.12522 0.77075
 C152 C 0.85381 0.14262 0.87130
 C153 C 0.72222 0.20130 0.58884
 C154 C 0.71933 0.23844 0.58616
 C155 C 0.76333 0.25822 0.67772
 C156 C 0.79844 0.23917 0.78061
 C157 C 0.82894 0.25922 0.87721
 C158 C 0.82655 0.29659 0.87278
 C159 C 0.79791 0.31552 0.77095
 C160 C 0.76957 0.29652 0.67086
 C161 C 0.74960 0.31667 0.56701
 C162 C 0.75116 0.35394 0.56465
 C163 C 0.77216 0.37253 0.66512
 C164 C 0.79571 0.35335 0.76855
 H165 H 0.86978 0.19121 0.95733
 H166 H 0.75258 0.13112 0.60147
 H167 H 0.88569 0.12729 0.94542
 H168 H 0.68871 0.18723 0.51604
 H169 H 0.67954 0.25092 0.51151
 H170 H 0.85429 0.24683 0.95839
 H171 H 0.84936 0.31084 0.94927
 H172 H 0.73391 0.30448 0.48556
 H173 H 0.73200 0.36844 0.48426
 H174 H 0.81343 0.36782 0.84622
 C175 C 0.33439 0.81546 0.94246
 C176 C 0.30882 0.79752 0.84042
 C177 C 0.28714 0.81874 0.73893
 C178 C 0.26858 0.85594 0.74666
 C179 C 0.28535 0.87317 0.85190
 C180 C 0.32652 0.85265 0.94676
 C181 C 0.28514 0.80267 0.63075
 C182 C 0.29528 0.76563 0.62287
 C183 C 0.30240 0.74300 0.72446
 C184 C 0.30783 0.75933 0.83521
 C185 C 0.30752 0.73707 0.93816
 C186 C 0.30892 0.70000 0.93302
 C187 C 0.30979 0.68355 0.82561
 C188 C 0.30399 0.70465 0.71971
 C189 C 0.29957 0.68629 0.61387
 C190 C 0.30297 0.64889 0.61385
 C191 C 0.31361 0.62858 0.71814
 C192 C 0.31721 0.64594 0.82378
 H193 H 0.36556 0.80147 1.01857
 H194 H 0.24354 0.87144 0.66991
 H195 H 0.34632 0.86493 1.02776
 H196 H 0.27503 0.81888 0.55125
 H197 H 0.29344 0.75553 0.53594
 H198 H 0.30282 0.74766 1.02486
 H199 H 0.30934 0.68394 1.01402
 H200 H 0.29355 0.69989 0.52967
 H201 H 0.30047 0.63574 0.53115
 H202 H 0.32439 0.63012 0.90472
 C203 C 0.44205 0.17444 0.81778
 C204 C 0.34336 0.19791 0.79143
 C205 C 0.22904 0.18197 0.76266
 C206 C 0.21344 0.14452 0.76374
 C207 C 0.30868 0.12192 0.79768
 C208 C 0.42376 0.13707 0.82282
 C209 C 0.12882 0.20336 0.73590
 C210 C 0.13662 0.24039 0.73955
 C211 C 0.24724 0.25793 0.76799
 C212 C 0.35274 0.23637 0.79403
 C213 C 0.46260 0.25400 0.82413
 C214 C 0.47116 0.29123 0.82480
 C215 C 0.37090 0.31261 0.79653
 C216 C 0.25618 0.29633 0.77020
 C217 C 0.15552 0.31933 0.74669
 C218 C 0.17093 0.35662 0.74316
 C219 C 0.28643 0.37246 0.76356
 C220 C 0.38517 0.35029 0.79366
 H221 H 0.53345 0.18401 0.83717
 H222 H 0.12373 0.13293 0.74469
 H223 H 0.49940 0.11991 0.84732
 H224 H 0.04312 0.19116 0.71101
 H225 H 0.05419 0.25455 0.71735
 H226 H 0.54366 0.23964 0.84910
 H227 H 0.55695 0.30353 0.84923
 H228 H 0.06414 0.30957 0.72833
 H229 H 0.09252 0.37318 0.72160
 H230 H 0.47510 0.36227 0.81017
 C231 C 0.66248 0.81814 0.80250
 C232 C 0.75927 0.79702 0.74872
 C233 C 0.86898 0.81520 0.69580
 C234 C 0.88438 0.85259 0.70467
 C235 C 0.79188 0.87271 0.76784
 C236 C 0.67903 0.85506 0.81290
 C237 C 0.96447 0.79588 0.63672
 C238 C 0.95639 0.75873 0.63177
 C239 C 0.85108 0.73912 0.68620
 C240 C 0.75134 0.75862 0.74671
 C241 C 0.64913 0.73900 0.80684
 C242 C 0.64063 0.70195 0.80258
 C243 C 0.73294 0.68276 0.73866
 C244 C 0.84136 0.70073 0.68180
 C245 C 0.93443 0.67933 0.62248
 C246 C 0.91504 0.64234 0.61225
 C247 C 0.80515 0.62526 0.66513
 C248 C 0.71645 0.64554 0.73115
 H249 H 0.57366 0.80687 0.83961
 H250 H 0.97124 0.86559 0.66623
 H251 H 0.60330 0.86955 0.85920
 H252 H 1.04644 0.80984 0.59337
 H253 H 1.03534 0.74610 0.58528
 H254 H 0.57509 0.75142 0.86082
 H255 H 0.56146 0.68799 0.85122
 H256 H 1.02262 0.69033 0.58201
 H257 H 0.98633 0.62705 0.56306
 H258 H 0.63126 0.63254 0.77328
 C259 C 0.02511 0.81703 0.35053
 C260 C 0.13673 0.79799 0.31835
 C261 C 0.24900 0.81845 0.28701
 C262 C 0.24734 0.85614 0.28300
 C263 C 0.13499 0.87437 0.31028
 C264 C 0.02486 0.85454 0.34724
 C265 C 0.36215 0.80133 0.25686
 C266 C 0.36689 0.76423 0.25423
 C267 C 0.25768 0.74248 0.28147
 C268 C 0.14080 0.75959 0.31502
 C269 C 0.03195 0.73775 0.34296
 C270 C 0.03721 0.70058 0.34174
 C271 C 0.15040 0.68348 0.31166
 C272 C 0.26171 0.70413 0.27743
 C273 C 0.37244 0.68537 0.24075
 C274 C 0.37299 0.64796 0.24278
 C275 C 0.26485 0.62787 0.28401
 C276 C 0.15319 0.64572 0.31704
 H277 H -0.06387 0.80388 0.37819
 H278 H 0.33332 0.87136 0.25527
 H279 H -0.06326 0.86804 0.36921
 H280 H 0.44766 0.81694 0.23182
 H281 H 0.45803 0.75344 0.22873
 H282 H -0.05906 0.74852 0.36885
 H283 H -0.04814 0.68494 0.36663
 H284 H 0.45996 0.69864 0.20853
 H285 H 0.46009 0.63464 0.21570
 H286 H 0.06872 0.63017 0.34739
 C287 C 0.58790 0.18073 0.10140
 C288 C 0.66380 0.20238 0.16704
 C289 C 0.74924 0.18471 0.23720
 C290 C 0.75648 0.14718 0.24258
 C291 C 0.68652 0.12611 0.17150
 C292 C 0.60070 0.14337 0.10222
 C293 C 0.82931 0.20452 0.30064
 C294 C 0.83202 0.24167 0.29184
 C295 C 0.75098 0.26066 0.22160
 C296 C 0.66016 0.24082 0.16397
 C297 C 0.56796 0.26012 0.10745
 C298 C 0.56563 0.29746 0.10629
 C299 C 0.65654 0.31708 0.15834
 C300 C 0.75364 0.29898 0.21235
 C301 C 0.84969 0.32005 0.25513
 C302 C 0.84201 0.35733 0.25595
 C303 C 0.73876 0.37483 0.21347
 C304 C 0.64906 0.35470 0.15987
 H305 H 0.52125 0.19198 0.04528
 H306 H 0.82349 0.13469 0.29723
 H307 H 0.54324 0.12804 0.04788
 H308 H 0.89010 0.19097 0.35839
 H309 H 0.89400 0.25495 0.34643
 H310 H 0.49315 0.24695 0.06727
 H311 H 0.49234 0.31129 0.06373
 H312 H 0.93107 0.30838 0.28966
 H313 H 0.91460 0.37235 0.29467
 H314 H 0.57029 0.36809 0.12380
   
