data_POSCAR
  _audit_creation_date              2014-09-24
  _audit_creation_method            'ToBaCCo'
  _symmetry_space_group_name_H-M    'P1'
  _symmetry_Int_Tables_number       1
  _symmetry_cell_setting            triclinic
  loop_
  _symmetry_equiv_pos_as_xyz
 x,y,z
_cell_length_a 26.9781
_cell_length_b 29.8684
_cell_length_c 25.9683
_cell_angle_alpha 89.725600
_cell_angle_beta 90.434300
_cell_angle_gamma 89.996000
loop_
  _atom_site_label
  _atom_site_type_symbol
  _atom_site_fract_x
  _atom_site_fract_y
  _atom_site_fract_z
C1 C 1.24205 0.25599 0.24980
 C2 C 0.74575 -0.24942 0.24562
 C3 C 0.74789 0.24943 -0.26166
 C4 C 1.25342 -0.25139 -0.23833
 C5 C 0.25221 0.25050 0.74852
 C6 C 0.74582 0.75127 0.75302
 C7 C 0.75636 0.24778 0.25666
 C8 C 0.25315 0.74063 0.23886
 O9 O 1.09107 -0.05688 0.09211
 O10 O 1.04398 -0.10835 0.04823
 C11 C 1.07825 -0.09768 0.08140
 O12 O 0.91326 0.06561 0.09150
 O13 O 0.95515 0.11497 0.03938
 C14 C 0.92386 0.10567 0.07559
 O15 O 0.91896 -0.05890 0.09997
 O16 O 0.96007 -0.10952 0.04956
 C17 C 0.92983 -0.09948 0.08636
 O18 O 1.09098 0.06789 0.08427
 O19 O 1.04310 0.11600 0.03585
 C20 C 1.07790 0.10763 0.06912
 Zr21 Zr 1.06386 0.00444 0.06208
 O22 O 1.06632 0.01016 0.14331
 O23 O 1.14223 0.00123 0.05917
 Zr24 Zr 0.93903 0.00294 0.06599
 O25 O 0.93488 0.00544 0.14723
 O26 O 0.86092 0.00080 0.05998
 O27 O 1.00247 -0.03602 0.07596
 O28 O 1.00127 0.04308 0.07194
 O29 O 1.08651 0.06324 -0.09334
 O30 O 1.03824 0.11406 -0.05051
 C31 C 1.07278 0.10381 -0.08285
 O32 O 0.91286 -0.06316 -0.09160
 O33 O 0.95740 -0.11183 -0.04050
 C34 C 0.92530 -0.10310 -0.07677
 O35 O 0.90507 0.06105 -0.09027
 O36 O 0.95190 0.11286 -0.04672
 C37 C 0.91710 0.10191 -0.07901
 O38 O 1.08236 -0.06227 -0.09407
 O39 O 1.04158 -0.11128 -0.04073
 C40 C 1.07206 -0.10230 -0.07769
 Zr41 Zr 1.05881 0.00105 -0.06751
 O42 O 1.05382 0.00448 -0.14890
 O43 O 1.13690 -0.00339 -0.07261
 Zr44 Zr 0.93429 -0.00022 -0.06305
 O45 O 0.92779 0.00258 -0.14423
 O46 O 0.85628 -0.00588 -0.05709
 Zr47 Zr 1.00006 -0.06509 0.00214
 Zr48 Zr 0.99807 0.06941 -0.00339
 O49 O 0.99567 0.03926 -0.07647
 O50 O 0.99684 -0.03994 -0.07390
 O51 O 1.07060 0.04291 -0.00461
 O52 O 0.92806 -0.03813 0.00328
 O53 O 1.07109 -0.03605 -0.00144
 O54 O 0.92634 0.04155 0.00030
 H55 H 1.00242 0.06393 0.10147
 H56 H 0.89942 -0.05887 0.00472
 H57 H 0.99438 0.05853 -0.10762
 H58 H 1.10085 -0.05549 -0.00157
 H59 H 0.84847 0.00057 0.09577
 H60 H 0.84445 0.02000 -0.03694
 H61 H 0.95447 -0.01631 -0.15834
 H62 H 1.03825 -0.02356 -0.16111
 H63 H 1.15098 0.01866 -0.04830
 H64 H 1.15386 0.02701 0.03849
 H65 H 1.04690 -0.01499 0.15778
 H66 H 0.96791 0.01452 0.16004
 O67 O 1.08842 0.44631 0.59692
 O68 O 1.04027 0.39586 0.55263
 C69 C 1.07396 0.40593 0.58649
 O70 O 0.91116 0.57277 0.59186
 O71 O 0.95879 0.62202 0.54537
 C72 C 0.92389 0.61279 0.57800
 O73 O 0.92009 0.44968 0.60572
 O74 O 0.95845 0.39678 0.55591
 C75 C 0.93053 0.40867 0.59416
 O76 O 1.09690 0.56999 0.58609
 O77 O 1.04672 0.62054 0.54386
 C78 C 1.08341 0.61039 0.57447
 Zr79 Zr 1.06438 0.50832 0.56671
 O80 O 1.06179 0.51274 0.64784
 O81 O 1.14253 0.50228 0.56826
 Zr82 Zr 0.94025 0.51035 0.57096
 O83 O 0.94189 0.51751 0.65200
 O84 O 0.86194 0.50722 0.56995
 O85 O 1.00211 0.46954 0.58021
 O86 O 1.00337 0.54898 0.57737
 O87 O 1.08699 0.56696 0.40902
 O88 O 1.04548 0.61894 0.45728
 C89 C 1.07750 0.60770 0.42252
 O90 O 0.90673 0.44523 0.41712
 O91 O 0.95460 0.39544 0.46345
 C92 C 0.92017 0.40497 0.42994
 O93 O 0.90407 0.56954 0.41946
 O94 O 0.95665 0.62008 0.45804
 C95 C 0.91908 0.60997 0.42868
 O96 O 1.08306 0.44385 0.41058
 O97 O 1.03949 0.39449 0.46106
 C98 C 1.07169 0.40379 0.42540
 Zr99 Zr 1.05860 0.50599 0.43719
 O100 O 1.04778 0.50552 0.35650
 O101 O 1.13659 0.50141 0.43037
 Zr102 Zr 0.93464 0.50755 0.44213
 O103 O 0.93417 0.51045 0.36063
 O104 O 0.85631 0.50484 0.44318
 Zr105 Zr 0.99844 0.44047 0.50646
 Zr106 Zr 1.00093 0.57564 0.50237
 O107 O 0.99690 0.54619 0.42900
 O108 O 0.99567 0.46611 0.43076
 O109 O 1.07227 0.54692 0.50034
 O110 O 0.92756 0.46959 0.50845
 O111 O 1.07013 0.46801 0.50295
 O112 O 0.92859 0.54918 0.50563
 H113 H 1.00456 0.56990 0.60687
 H114 H 0.89823 0.44973 0.51085
 H115 H 0.99586 0.56597 0.39826
 H116 H 1.09947 0.44806 0.50308
 H117 H 0.85139 0.50782 0.60642
 H118 H 0.84552 0.52159 0.47390
 H119 H 0.95329 0.48444 0.34812
 H120 H 1.08131 0.50531 0.34118
 H121 H 1.15135 0.52407 0.45348
 H122 H 1.15540 0.52064 0.53957
 H123 H 1.09670 0.51248 0.65998
 H124 H 0.96987 0.49916 0.66505
 O125 O 0.39564 -0.06338 0.40859
 O126 O 0.44307 -0.11542 0.45183
 C127 C 0.40689 -0.10423 0.42075
 O128 O 0.58042 0.05665 0.40170
 O129 O 0.53742 0.10776 0.44972
 C130 C 0.57041 0.09731 0.41563
 O131 O 0.57135 -0.06764 0.39654
 O132 O 0.52963 -0.11731 0.44828
 C133 C 0.55984 -0.10794 0.41097
 O134 O 0.39730 0.06008 0.41112
 O135 O 0.44772 0.10957 0.45400
 C136 C 0.41106 0.10027 0.42319
 Zr137 Zr 0.42712 -0.00240 0.43238
 O138 O 0.43083 0.00136 0.35097
 O139 O 0.34889 -0.00133 0.42725
 Zr140 Zr 0.55065 -0.00499 0.42678
 O141 O 0.54500 0.00068 0.34562
 O142 O 0.62856 -0.01169 0.42185
 O143 O 0.48719 -0.04439 0.41963
 O144 O 0.48937 0.03608 0.42014
 O145 O 0.40642 0.06057 0.58602
 O146 O 0.45429 0.10980 0.53979
 C147 C 0.42030 0.10072 0.57331
 O148 O 0.57822 -0.06736 0.58785
 O149 O 0.53402 -0.11727 0.53860
 C150 C 0.56596 -0.10770 0.57473
 O151 O 0.58613 0.05696 0.58247
 O152 O 0.54046 0.10766 0.53534
 C153 C 0.57471 0.09750 0.56864
 O154 O 0.41036 -0.06490 0.59312
 O155 O 0.44913 -0.11594 0.54121
 C156 C 0.42038 -0.10555 0.57914
 Zr157 Zr 0.43304 -0.00265 0.56220
 O158 O 0.43751 0.00307 0.64339
 O159 O 0.35480 -0.00620 0.56673
 Zr160 Zr 0.55741 -0.00505 0.55631
 O161 O 0.56699 -0.00099 0.63703
 O162 O 0.63512 -0.01158 0.54773
 Zr163 Zr 0.49021 -0.07151 0.49481
 Zr164 Zr 0.49364 0.06365 0.49443
 O165 O 0.49652 0.03519 0.56874
 O166 O 0.49470 -0.04402 0.56959
 O167 O 0.42104 0.03748 0.49761
 O168 O 0.56226 -0.04447 0.49144
 O169 O 0.41977 -0.04123 0.49811
 O170 O 0.56495 0.03486 0.49103
 H171 H 0.48840 0.05687 0.39030
 H172 H 0.59086 -0.06526 0.49049
 H173 H 0.49808 0.05500 0.59920
 H174 H 0.38977 -0.06021 0.50053
 H175 H 0.64343 0.00997 0.44615
 H176 H 0.64803 0.01736 0.53485
 H177 H 0.53821 -0.01609 0.65272
 H178 H 0.45536 -0.02351 0.65681
 H179 H 0.34110 0.01775 0.54433
 H180 H 0.33626 -0.00782 0.46208
 H181 H 0.43748 -0.02908 0.33781
 H182 H 0.52448 -0.02456 0.33317
 O183 O 0.57697 0.57318 0.09238
 O184 O 0.63365 0.53269 0.04602
 C185 C 0.62188 0.56277 0.07993
 O186 O 0.44024 0.41064 0.08606
 O187 O 0.38349 0.45266 0.04069
 C188 C 0.39517 0.42084 0.07298
 O189 O 0.57662 0.41455 0.09202
 O190 O 0.63381 0.45460 0.04551
 C191 C 0.62167 0.42435 0.07948
 O192 O 0.44030 0.57781 0.08492
 O193 O 0.38402 0.53276 0.04321
 C194 C 0.39549 0.56563 0.07383
 Zr195 Zr 0.50866 0.54955 0.06400
 O196 O 0.51082 0.54582 0.14558
 O197 O 0.51015 0.62039 0.06312
 Zr198 Zr 0.50867 0.43800 0.06366
 O199 O 0.50386 0.44093 0.14496
 O200 O 0.51349 0.36729 0.06693
 O201 O 0.55372 0.49372 0.07429
 O202 O 0.46453 0.49360 0.07297
 O203 O 0.43959 0.57919 -0.08622
 O204 O 0.38340 0.53410 -0.04466
 C205 C 0.39472 0.56729 -0.07497
 O206 O 0.57724 0.41631 -0.09433
 O207 O 0.63387 0.45490 -0.04518
 C208 C 0.62215 0.42587 -0.08058
 O209 O 0.44204 0.40882 -0.08612
 O210 O 0.38445 0.45228 -0.04501
 C211 C 0.39688 0.41955 -0.07533
 O212 O 0.57618 0.57492 -0.09239
 O213 O 0.63321 0.53389 -0.04559
 C214 C 0.62118 0.56447 -0.07946
 Zr215 Zr 0.50828 0.55040 -0.06530
 O216 O 0.50554 0.54466 -0.14633
 O217 O 0.51108 0.62107 -0.06943
 Zr218 Zr 0.50914 0.43929 -0.06624
 O219 O 0.50275 0.44645 -0.14726
 O220 O 0.51376 0.36920 -0.07586
 Zr221 Zr 0.58429 0.49412 -0.00021
 Zr222 Zr 0.43344 0.49363 -0.00156
 O223 O 0.46422 0.49467 -0.07572
 O224 O 0.55405 0.49514 -0.07542
 O225 O 0.46415 0.55851 -0.00086
 O226 O 0.55199 0.42998 -0.00093
 O227 O 0.55194 0.55827 -0.00028
 O228 O 0.46514 0.42910 -0.00167
 H229 H 0.44171 0.49311 0.10266
 H230 H 0.57336 0.40301 -0.00102
 H231 H 0.44098 0.49477 -0.10548
 H232 H 0.57308 0.58539 0.00003
 H233 H 0.48934 0.35517 0.04175
 H234 H 0.51178 0.35577 -0.04112
 H235 H 0.53361 0.46057 -0.15983
 H236 H 0.50395 0.57569 -0.15988
 H237 H 0.50056 0.63220 -0.03539
 H238 H 0.51050 0.63017 0.09957
 H239 H 0.47668 0.54172 0.15840
 H240 H 0.53181 0.45946 0.15755
 C241 C 1.16174 0.20710 0.14354
 C242 C 1.13467 0.17508 0.17132
 N243 N 1.13866 0.17310 0.22309
 C244 C 1.16957 0.20091 0.24872
 C245 C 1.19953 0.23175 0.22137
 N246 N 1.19410 0.23431 0.16901
 N247 N 1.15729 0.20847 0.09130
 C248 C 1.12790 0.17853 0.06583
 C249 C 1.10325 0.14502 0.09388
 N250 N 1.10699 0.14454 0.14594
 H251 H 1.17354 0.19646 0.28990
 H252 H 1.12576 0.17945 0.02419
 C253 C 1.15875 0.70252 0.66765
 C254 C 1.18349 0.66550 0.64738
 N255 N 1.23095 0.65692 0.66197
 C256 C 1.25454 0.68327 0.69697
 C257 C 1.22891 0.71901 0.72023
 N258 N 1.18166 0.72781 0.70380
 N259 N 1.11164 0.71178 0.65209
 C260 C 1.08756 0.68470 0.61815
 C261 C 1.11121 0.64592 0.60041
 N262 N 1.15892 0.63762 0.61510
 H263 H 1.29260 0.67589 0.70737
 H264 H 1.04947 0.69185 0.60770
 C265 C 0.66183 0.19753 0.63894
 C266 C 0.63790 0.16481 0.66868
 N267 N 0.64494 0.16397 0.72040
 C268 C 0.67671 0.19303 0.74350
 C269 C 0.70503 0.22287 0.71329
 N270 N 0.69493 0.22554 0.66180
 N271 N 0.65388 0.19890 0.58724
 C272 C 0.62392 0.16833 0.56384
 C273 C 0.60223 0.13406 0.59322
 N274 N 0.60941 0.13342 0.64515
 H275 H 0.68224 0.19106 0.78477
 H276 H 0.61902 0.16946 0.52252
 C277 C 0.71248 0.64599 0.16972
 C278 C 0.68187 0.66360 0.13092
 N279 N 0.67592 0.70849 0.12676
 C280 C 0.69771 0.73677 0.16089
 C281 C 0.72556 0.71953 0.20278
 N282 N 0.73335 0.67420 0.20472
 N283 N 0.71810 0.60079 0.17373
 C284 C 0.69314 0.57247 0.14156
 C285 C 0.66024 0.59022 0.10461
 N286 N 0.65596 0.63547 0.10007
 H287 H 0.69232 0.77218 0.15551
 H288 H 0.69637 0.53662 0.14702
 C289 C 0.84088 -0.19808 0.15646
 C290 C 0.85323 -0.15858 0.18260
 N291 N 0.83371 -0.15061 0.22957
 C292 C 0.80122 -0.17977 0.25107
 C293 C 0.78548 -0.21793 0.22340
 N294 N 0.80701 -0.22654 0.17705
 N295 N 0.86196 -0.20666 0.11022
 C296 C 0.89373 -0.17686 0.08832
 C297 C 0.90359 -0.13593 0.11295
 N298 N 0.88339 -0.12813 0.15992
 H299 H 0.78649 -0.17261 0.28880
 H300 H 0.90926 -0.18413 0.05105
 C301 C 0.84585 0.32753 0.69089
 C302 C 0.85453 0.31355 0.64029
 N303 N 0.83062 0.27669 0.62234
 C304 C 0.79709 0.25440 0.65203
 C305 C 0.78463 0.27124 0.70116
 N306 N 0.81139 0.30642 0.71949
 N307 N 0.87064 0.36302 0.71031
 C308 C 0.90230 0.38663 0.68056
 C309 C 0.90835 0.37518 0.62847
 N310 N 0.88510 0.33810 0.60957
 H311 H 0.78123 0.22383 0.63733
 H312 H 0.92043 0.41579 0.69665
 C313 C 0.34252 -0.20372 0.66331
 C314 C 0.35296 -0.16157 0.68416
 N315 N 0.33497 -0.15051 0.73084
 C316 C 0.30588 -0.17929 0.75743
 C317 C 0.29281 -0.22124 0.73602
 N318 N 0.31247 -0.23232 0.68938
 N319 N 0.36064 -0.21439 0.61620
 C320 C 0.38795 -0.18434 0.58870
 C321 C 0.39648 -0.14137 0.60885
 N322 N 0.37905 -0.13143 0.65640
 H323 H 0.29094 -0.16831 0.79377
 H324 H 0.40116 -0.19329 0.55087
 C325 C 0.29029 0.34047 0.15197
 C326 C 0.34082 0.33012 0.15108
 N327 N 0.35835 0.29495 0.17845
 C328 C 0.32800 0.26976 0.20798
 C329 C 0.27680 0.28023 0.21120
 N330 N 0.25934 0.31536 0.18192
 N331 N 0.27367 0.37666 0.12462
 C332 C 0.30561 0.40305 0.09716
 C333 C 0.35662 0.39303 0.09766
 N334 N 0.37232 0.35643 0.12443
 H335 H 0.34494 0.24281 0.22956
 H336 H 0.29160 0.43193 0.07636
 C337 C 0.83194 0.19915 -0.15861
 C338 C 0.83949 0.15611 -0.17846
 N339 N 0.81936 0.14475 -0.22431
 C340 C 0.79087 0.17413 -0.25102
 C341 C 0.77982 0.21661 -0.23010
 N342 N 0.80208 0.22844 -0.18467
 N343 N 0.85489 0.21080 -0.11379
 C344 C 0.88417 0.18096 -0.08767
 C345 C 0.88957 0.13717 -0.10657
 N346 N 0.86728 0.12624 -0.15181
 H347 H 0.77649 0.16410 -0.28822
 H348 H 0.90219 0.19103 -0.05227
 C349 C 0.84225 0.70448 0.33819
 C350 C 0.81753 0.66777 0.35970
 N351 N 0.76925 0.66037 0.34759
 C352 C 0.74478 0.68743 0.31370
 C353 C 0.77022 0.72273 0.28898
 N354 N 0.81837 0.73054 0.30308
 N355 N 0.89043 0.71224 0.35091
 C356 C 0.91545 0.68408 0.38326
 C357 C 0.89154 0.64575 0.40234
 N358 N 0.84289 0.63888 0.39044
 H359 H 0.70641 0.68034 0.30444
 H360 H 0.95424 0.69018 0.39160
 C361 C 0.32380 0.19998 0.35061
 C362 C 0.33100 0.15772 0.32862
 N363 N 0.30989 0.14783 0.28274
 C364 C 0.28121 0.17813 0.25768
 C365 C 0.27167 0.22037 0.28007
 N366 N 0.29421 0.23038 0.32600
 N367 N 0.34712 0.20989 0.39584
 C368 C 0.37687 0.17921 0.42006
 C369 C 0.38282 0.13651 0.39836
 N370 N 0.35964 0.12718 0.35310
 H371 H 0.26660 0.16948 0.22012
 H372 H 0.39460 0.18762 0.45628
 C373 C 0.29500 0.64788 -0.15920
 C374 C 0.33129 0.66686 -0.12728
 N375 N 0.33803 0.71176 -0.12749
 C376 C 0.31161 0.73862 -0.15985
 C377 C 0.27817 0.71973 -0.19581
 N378 N 0.26961 0.67458 -0.19285
 N379 N 0.28802 0.60275 -0.15822
 C380 C 0.31687 0.57575 -0.12783
 C381 C 0.35537 0.59469 -0.09844
 N382 N 0.36111 0.63994 -0.09858
 H383 H 0.31815 0.77411 -0.15814
 H384 H 0.31186 0.53980 -0.12908
 C385 C 1.16260 -0.20027 -0.14485
 C386 C 1.14455 -0.16381 -0.17367
 N387 N 1.15922 -0.15789 -0.22291
 C388 C 1.19217 -0.18622 -0.24452
 C389 C 1.21300 -0.22156 -0.21509
 N390 N 1.19673 -0.22806 -0.16593
 N391 N 1.14689 -0.20628 -0.09568
 C392 C 1.11484 -0.17682 -0.07378
 C393 C 1.09895 -0.13907 -0.10195
 N394 N 1.11399 -0.13384 -0.15139
 H395 H 1.20327 -0.18053 -0.28398
 H396 H 1.10396 -0.18157 -0.03409
 C397 C 1.15288 0.30591 0.34532
 C398 C 1.16975 0.34991 0.34937
 N399 N 1.21197 0.36239 0.32519
 C400 C 1.23737 0.33312 0.29535
 C401 C 1.21882 0.28937 0.28778
 N402 N 1.17764 0.27698 0.31476
 N403 N 1.11081 0.29335 0.37014
 C404 C 1.08425 0.32338 0.39815
 C405 C 1.10007 0.36811 0.40032
 N406 N 1.14288 0.37989 0.37624
 H407 H 1.27113 0.34444 0.27734
 H408 H 1.05060 0.31279 0.41705
 C409 C 0.64702 -0.20477 0.33583
 C410 C 0.63421 -0.16431 0.31177
 N411 N 0.65413 -0.15360 0.26570
 C412 C 0.68722 -0.18105 0.24275
 C413 C 0.70267 -0.22112 0.26748
 N414 N 0.68117 -0.23194 0.31351
 N415 N 0.62701 -0.21498 0.38239
 C416 C 0.59578 -0.18594 0.40641
 C417 C 0.58511 -0.14428 0.38334
 N418 N 0.60435 -0.13498 0.33622
 H419 H 0.70352 -0.17005 0.20698
 H420 H 0.58156 -0.19428 0.44411
 C421 C 0.71088 0.33136 -0.15609
 C422 C 0.67781 0.35902 -0.18339
 N423 N 0.66899 0.35152 -0.23395
 C424 C 0.69122 0.31718 -0.25866
 C425 C 0.72309 0.28768 -0.23155
 N426 N 0.73258 0.29607 -0.18057
 N427 N 0.71947 0.33968 -0.10524
 C428 C 0.69538 0.37351 -0.08038
 C429 C 0.66025 0.39959 -0.10734
 N430 N 0.65289 0.39159 -0.15835
 H431 H 0.68384 0.31266 -0.29932
 H432 H 0.70097 0.37793 -0.03939
 C433 C 1.14983 0.20073 -0.16968
 C434 C 1.17253 0.16093 -0.15289
 N435 N 1.21977 0.15190 -0.16612
 C436 C 1.24543 0.18047 -0.19638
 C437 C 1.22245 0.21954 -0.21612
 N438 N 1.17515 0.22917 -0.20117
 N439 N 1.10259 0.20969 -0.15480
 C440 C 1.07699 0.18021 -0.12471
 C441 C 1.09937 0.13954 -0.10991
 N442 N 1.14673 0.13131 -0.12425
 H443 H 1.28322 0.17213 -0.20607
 H444 H 1.03915 0.18762 -0.11411
 C445 C 1.17410 0.69450 0.34458
 C446 C 1.14354 0.66471 0.31766
 N447 N 1.14766 0.66117 0.26599
 C448 C 1.18170 0.68547 0.23978
 C449 C 1.21542 0.71392 0.26646
 N450 N 1.20936 0.71788 0.31867
 N451 N 1.16860 0.69887 0.39636
 C452 C 1.13460 0.67387 0.42242
 C453 C 1.10587 0.64230 0.39560
 N454 N 1.11104 0.63876 0.34374
 H455 H 1.18271 0.68211 0.19833
 H456 H 1.13203 0.67675 0.46386
 C457 C 0.66194 0.19535 0.34638
 C458 C 0.65854 0.15175 0.32702
 N459 N 0.68547 0.13993 0.28558
 C460 C 0.71656 0.16947 0.26285
 C461 C 0.72256 0.21308 0.28330
 N462 N 0.69386 0.22499 0.32427
 N463 N 0.63304 0.20724 0.38681
 C464 C 0.60159 0.17717 0.40910
 C465 C 0.59969 0.13292 0.39073
 N466 N 0.62814 0.12172 0.34979
 H467 H 0.73575 0.15897 0.22857
 H468 H 0.57914 0.18745 0.44130
 C469 C 0.71195 0.64801 -0.16843
 C470 C 0.67755 0.66560 -0.13395
 N471 N 0.66832 0.71014 -0.13381
 C472 C 0.69074 0.73804 -0.16780
 C473 C 0.72290 0.72062 -0.20540
 N474 N 0.73369 0.67578 -0.20334
 N475 N 0.72084 0.60310 -0.16825
 C476 C 0.69562 0.57497 -0.13611
 C477 C 0.65912 0.59255 -0.10365
 N478 N 0.65158 0.63758 -0.10322
 H479 H 0.68262 0.77326 -0.16564
 H480 H 0.70163 0.53920 -0.13830
 C481 C 0.83696 -0.19998 -0.15059
 C482 C 0.85305 -0.16153 -0.17670
 N483 N 0.83690 -0.15321 -0.22529
 C484 C 0.80424 -0.18109 -0.24876
 C485 C 0.78513 -0.21839 -0.22179
 N486 N 0.80312 -0.22730 -0.17344
 N487 N 0.85431 -0.20849 -0.10221
 C488 C 0.88600 -0.17954 -0.07834
 C489 C 0.89971 -0.13972 -0.10348
 N490 N 0.88319 -0.13214 -0.15235
 H491 H 0.79219 -0.17366 -0.28772
 H492 H 0.89825 -0.18642 -0.03940
 C493 C 0.84851 0.30390 0.34532
 C494 C 0.82230 0.34167 0.36150
 N495 N 0.77404 0.34670 0.34742
 C496 C 0.75118 0.31617 0.31659
 C497 C 0.77835 0.27966 0.29707
 N498 N 0.82628 0.27445 0.31318
 N499 N 0.89640 0.29810 0.36034
 C500 C 0.91970 0.32905 0.39011
 C501 C 0.89437 0.36816 0.40406
 N502 N 0.84600 0.37336 0.38971
 H503 H 0.71277 0.32126 0.30575
 H504 H 0.95818 0.32415 0.40075
 C505 C 0.30548 -0.18775 0.34301
 C506 C 0.35613 -0.19838 0.34266
 N507 N 0.37192 -0.23213 0.31212
 C508 C 0.33997 -0.25444 0.28041
 C509 C 0.28923 -0.24134 0.27698
 N510 N 0.27378 -0.20913 0.31057
 N511 N 0.28916 -0.15411 0.37326
 C512 C 0.32138 -0.12956 0.40189
 C513 C 0.37261 -0.13829 0.39972
 N514 N 0.38889 -0.17318 0.37059
 H515 H 0.35481 -0.28135 0.25752
 H516 H 0.30737 -0.10194 0.42441
 C517 C 0.29754 0.33956 -0.16030
 C518 C 0.34522 0.32470 -0.14778
 N519 N 0.36184 0.28520 -0.16651
 C520 C 0.33338 0.26024 -0.19880
 C521 C 0.28648 0.27625 -0.21465
 N522 N 0.26934 0.31499 -0.19311
 N523 N 0.28099 0.37911 -0.14101
 C524 C 0.31074 0.40506 -0.11063
 C525 C 0.35943 0.39099 -0.10003
 N526 N 0.37492 0.35078 -0.11849
 H527 H 0.34749 0.22840 -0.21166
 H528 H 0.29734 0.43699 -0.09697
 C529 C 1.15794 -0.20019 0.15895
 C530 C 1.17550 -0.15620 0.15806
 N531 N 1.21908 -0.14638 0.18172
 C532 C 1.24549 -0.17834 0.20741
 C533 C 1.22698 -0.22285 0.21123
 N534 N 1.18390 -0.23202 0.18507
 N535 N 1.11499 -0.21040 0.13399
 C536 C 1.08860 -0.17833 0.10835
 C537 C 1.10567 -0.13382 0.10813
 N538 N 1.14899 -0.12403 0.13302
 H539 H 1.28082 -0.16883 0.22392
 H540 H 1.05445 -0.18742 0.08890
 C541 C 1.14790 0.30773 0.67519
 C542 C 1.17287 0.34506 0.65502
 N543 N 1.22181 0.35052 0.66431
 C544 C 1.24709 0.32074 0.69376
 C545 C 1.22209 0.28440 0.71703
 N546 N 1.17295 0.27824 0.70595
 N547 N 1.09910 0.30175 0.66348
 C548 C 1.07422 0.33182 0.63314
 C549 C 1.09912 0.36997 0.61476
 N550 N 1.14787 0.37538 0.62616
 H551 H 1.28654 0.32551 0.69932
 H552 H 1.03522 0.32682 0.62493
 C553 C 0.65110 -0.20389 0.65625
 C554 C 0.63905 -0.16250 0.67786
 N555 N 0.65829 -0.15095 0.72416
 C556 C 0.69004 -0.17850 0.74973
 C557 C 0.70472 -0.21962 0.72762
 N558 N 0.68385 -0.23127 0.68129
 N559 N 0.63150 -0.21500 0.60953
 C560 C 0.60129 -0.18605 0.58311
 C561 C 0.59124 -0.14363 0.60389
 N562 N 0.61017 -0.13341 0.65110
 H563 H 0.70539 -0.16723 0.78600
 H564 H 0.58721 -0.19521 0.54548
 C565 C 0.71867 0.34095 0.16474
 C566 C 0.67113 0.32737 0.14990
 N567 N 0.65280 0.28784 0.16656
 C568 C 0.67930 0.26124 0.19884
 C569 C 0.72658 0.27507 0.21647
 N570 N 0.74543 0.31453 0.19765
 N571 N 0.73610 0.38127 0.14779
 C572 C 0.70742 0.40884 0.11761
 C573 C 0.65888 0.39563 0.10482
 N574 N 0.64273 0.35488 0.12095
 H575 H 0.66262 0.23012 0.21084
 H576 H 0.72145 0.44119 0.10573
 C577 C 0.83948 0.20208 0.15277
 C578 C 0.86525 0.16859 0.17993
 N579 N 0.85944 0.16438 0.23143
 C580 C 0.82774 0.19134 0.25704
 C581 C 0.79891 0.22320 0.22970
 N582 N 0.80648 0.22817 0.17803
 N583 N 0.84570 0.20609 0.10106
 C584 C 0.87561 0.17729 0.07521
 C585 C 0.89897 0.14221 0.10212
 N586 N 0.89354 0.13908 0.15396
 H587 H 0.82273 0.18618 0.29795
 H588 H 0.87881 0.18017 0.03390
 C589 C 0.84451 0.70657 0.66415
 C590 C 0.82080 0.66945 0.64247
 N591 N 0.77266 0.66100 0.65359
 C592 C 0.74732 0.68749 0.68666
 C593 C 0.77172 0.72327 0.71152
 N594 N 0.81975 0.73209 0.69844
 N595 N 0.89259 0.71530 0.65237
 C596 C 0.91850 0.68760 0.62092
 C597 C 0.89561 0.64882 0.60189
 N598 N 0.84705 0.64109 0.61274
 H599 H 0.70899 0.67978 0.69495
 H600 H 0.95719 0.69432 0.61344
 C601 C 0.34931 0.19999 0.66091
 C602 C 0.32266 0.16417 0.63955
 N603 N 0.27382 0.15955 0.64970
 C604 C 0.25064 0.18813 0.68195
 C605 C 0.27795 0.22181 0.70758
 N606 N 0.32650 0.22790 0.69462
 N607 N 0.39810 0.20493 0.64933
 C608 C 0.42158 0.17497 0.61842
 C609 C 0.39539 0.13769 0.59962
 N610 N 0.34639 0.13360 0.61035
 H611 H 0.21154 0.18345 0.68933
 H612 H 0.46072 0.17895 0.61074
 C613 C 0.30007 0.64233 0.16485
 C614 C 0.33285 0.66290 0.13066
 N615 N 0.33782 0.70805 0.13091
 C616 C 0.31154 0.73381 0.16398
 C617 C 0.27908 0.71360 0.20001
 N618 N 0.27511 0.66784 0.19920
 N619 N 0.29473 0.59704 0.16405
 C620 C 0.32173 0.57132 0.13129
 C621 C 0.35665 0.59178 0.09902
 N622 N 0.36110 0.63722 0.09951
 H623 H 0.31730 0.76963 0.16339
 H624 H 0.31828 0.53522 0.13277
   
