data_POSCAR
  _audit_creation_date              2014-09-24
  _audit_creation_method            'ToBaCCo'
  _symmetry_space_group_name_H-M    'P1'
  _symmetry_Int_Tables_number       1
  _symmetry_cell_setting            triclinic
  loop_
  _symmetry_equiv_pos_as_xyz
 x,y,z
_cell_length_a 14.1382
_cell_length_b 15.1898
_cell_length_c 14.2582
_cell_angle_alpha 91.882200
_cell_angle_beta 88.996000
_cell_angle_gamma 87.674900
loop_
  _atom_site_label
  _atom_site_type_symbol
  _atom_site_fract_x
  _atom_site_fract_y
  _atom_site_fract_z
C1 C 0.41527 1.02129 -0.53533
 C2 C 0.43783 1.02172 -0.43947
 C3 C 0.51852 0.97599 -0.41057
 C4 C 0.58552 0.93797 -0.47477
 C5 C 0.56315 0.93599 -0.57139
 C6 C 0.47962 0.97902 -0.59973
 H7 H 0.46109 0.97179 -0.67270
 H8 H 0.53404 0.98140 -0.33672
 C9 C -0.58324 1.45083 0.01665
 C10 C -0.49310 1.40782 -0.00113
 C11 C -0.41559 1.45957 -0.02196
 C12 C -0.41803 1.55258 -0.01674
 C13 C -0.50909 1.59567 -0.00044
 C14 C -0.58686 1.54366 0.02022
 H15 H -0.65275 1.57788 0.04137
 H16 H -0.35153 1.42430 -0.04651
 C17 C 0.03446 0.58382 0.53434
 C18 C 0.03381 0.56240 0.43643
 C19 C -0.00086 0.48154 0.40466
 C20 C -0.03646 0.41850 0.46514
 C21 C -0.03711 0.44027 0.56294
 C22 C -0.00219 0.52109 0.59483
 H23 H -0.00042 0.53221 0.66999
 H24 H -0.00333 0.47042 0.32949
 O25 O -0.20813 0.95991 -0.17106
 O26 O 0.24687 1.06968 -0.08708
 O27 O -0.01193 1.14312 -0.22238
 O28 O 0.07234 0.91517 -0.25265
 O29 O 0.08057 0.79513 -0.15732
 O30 O -0.06437 1.23296 -0.09666
 O31 O 0.15036 1.06100 -0.21566
 O32 O -0.08024 0.99885 -0.26090
 Zr33 Zr 0.02193 1.02051 -0.16157
 O34 O 0.11818 0.95166 -0.08219
 O35 O -0.09651 1.07139 -0.08850
 C36 C -0.16472 0.97215 -0.25091
 C37 C 0.22899 1.07714 -0.17535
 C38 C -0.04659 1.21708 -0.18540
 C39 C 0.08568 0.83165 -0.23834
 H40 H 0.09529 1.15580 -0.08881
 O41 O 0.06544 1.10586 -0.05911
 H42 H -0.06700 0.87384 -0.15543
 O43 O -0.04575 0.91603 -0.10690
 O44 O 0.20360 1.04926 0.16563
 O45 O -0.24715 0.92412 0.08142
 O46 O 0.05626 1.24703 0.04352
 O47 O 0.19371 0.81132 -0.01921
 O48 O -0.06143 0.75664 -0.03791
 O49 O -0.19600 1.19251 0.01380
 O50 O -0.07147 1.08529 0.25118
 O51 O 0.00452 0.85765 0.21896
 O52 O -0.07653 1.20595 0.15683
 O53 O 0.05653 0.76763 0.09340
 O54 O 0.19779 1.16573 0.05084
 O55 O -0.27127 1.06519 -0.02786
 O56 O -0.20250 0.83779 -0.05034
 O57 O 0.26879 0.93905 0.02121
 O58 O 0.07681 1.00942 0.25627
 O59 O -0.14936 0.93084 0.20900
 Zr60 Zr 0.15700 1.03660 0.02515
 Zr61 Zr -0.16043 0.96684 -0.02957
 Zr62 Zr -0.05013 1.15180 0.01996
 Zr63 Zr 0.04730 0.85057 -0.02220
 Zr64 Zr -0.02464 0.98099 0.15785
 O65 O -0.06945 0.89653 0.05500
 O66 O 0.04305 1.08627 0.10486
 C67 C 0.16050 1.03801 0.24551
 C68 C -0.22648 0.91055 0.16823
 C69 C 0.14854 1.23918 0.05119
 C70 C 0.26883 0.85517 0.00019
 C71 C -0.15367 0.76454 -0.04563
 C72 C -0.27102 1.14912 -0.00732
 C73 C -0.08107 1.16914 0.23768
 C74 C 0.03718 0.78306 0.18191
 H75 H -0.17554 1.07080 0.11817
 O76 O -0.12041 1.04987 0.07862
 H77 H 0.13915 0.90239 0.12583
 O78 O 0.09364 0.93239 0.08439
 N79 N 0.17104 1.04738 0.41813
 N80 N 0.24455 1.04330 0.48162
 C81 C 0.32632 1.04978 0.43231
 C82 C 0.30576 1.06295 0.33859
 C83 C 0.20975 1.05634 0.33226
 H84 H 0.35467 1.06586 0.27965
 H85 H 0.10102 1.03306 0.43402
 H86 H 0.23630 1.02026 0.54929
 N87 N -0.26608 0.80921 0.29031
 N88 N -0.32065 0.82233 0.37218
 C89 C -0.38083 0.89145 0.35875
 C90 C -0.36941 0.92034 0.26802
 C91 C -0.29431 0.87066 0.22935
 H92 H -0.39765 0.98179 0.24132
 H93 H -0.20265 0.77141 0.28608
 H94 H -0.31056 0.78780 0.43357
 N95 N -0.17499 0.96689 -0.42416
 N96 N -0.24483 0.95099 -0.48947
 C97 C -0.32192 0.92541 -0.44181
 C98 C -0.29980 0.91890 -0.34721
 C99 C -0.21093 0.95039 -0.33879
 H100 H -0.34597 0.90310 -0.28933
 H101 H -0.11090 0.99575 -0.43926
 H102 H -0.24247 0.97415 -0.55757
 N103 N 0.29012 1.17036 -0.29703
 N104 N 0.34110 1.15234 -0.37423
 C105 C 0.38460 1.07276 -0.36553
 C106 C 0.36424 1.04098 -0.27852
 C107 C 0.30283 1.10351 -0.23788
 H108 H 0.37896 0.97478 -0.25505
 H109 H 0.24002 1.22269 -0.28934
 H110 H 0.34074 1.19109 -0.43340
 N111 N 0.16870 1.39750 0.02362
 N112 N 0.23909 1.45012 0.00924
 C113 C 0.32293 1.40781 0.02717
 C114 C 0.30319 1.32285 0.05362
 C115 C 0.20433 1.31930 0.05019
 H116 H 0.35295 1.26985 0.06982
 H117 H 0.09795 1.41357 0.00941
 H118 H 0.22864 1.51282 -0.01754
 N119 N 0.43282 0.82228 0.05940
 N120 N 0.49466 0.75403 0.05715
 C121 C 0.46594 0.69200 -0.00478
 C122 C 0.38129 0.72363 -0.04300
 C123 C 0.36143 0.80493 0.00083
 H124 H 0.33374 0.68681 -0.08655
 H125 H 0.43525 0.87605 0.10677
 H126 H 0.55011 0.74668 0.10409
 N127 N -0.17074 0.60478 -0.02715
 N128 N -0.24437 0.54800 -0.01551
 C129 C -0.32852 0.59297 -0.02638
 C130 C -0.30829 0.68035 -0.04424
 C131 C -0.20917 0.68445 -0.04396
 H132 H -0.35777 0.73477 -0.05563
 H133 H -0.09928 0.58832 -0.01702
 H134 H -0.23263 0.48425 0.00804
 N135 N -0.43694 1.18164 -0.06268
 N136 N -0.49939 1.24945 -0.05789
 C137 C -0.46882 1.31144 0.00306
 C138 C -0.38294 1.27991 0.03863
 C139 C -0.36368 1.19928 -0.00654
 H140 H -0.33435 1.31662 0.08109
 H141 H -0.44066 1.12790 -0.10990
 H142 H -0.55661 1.25669 -0.10275
 N143 N -0.13643 1.20921 0.40194
 N144 N -0.12351 1.27910 0.46619
 C145 C -0.06918 1.33846 0.42417
 C146 C -0.04998 1.30775 0.33194
 C147 C -0.09269 1.22818 0.32115
 H148 H -0.00516 1.33565 0.27936
 H149 H -0.17329 1.15270 0.41572
 H150 H -0.15828 1.28471 0.53117
 N151 N -0.13268 1.35555 -0.22651
 N152 N -0.13303 1.41213 -0.29474
 C153 C -0.07024 1.38313 -0.36217
 C154 C -0.02741 1.30411 -0.33523
 C155 C -0.06932 1.28925 -0.24856
 H156 H 0.03036 1.26649 -0.37022
 H157 H -0.17366 1.36365 -0.16491
 H158 H -0.17260 1.47178 -0.29299
 N159 N 0.13855 0.79171 -0.40350
 N160 N 0.12288 0.72258 -0.46793
 C161 C 0.06970 0.66299 -0.42476
 C162 C 0.05432 0.69275 -0.33161
 C163 C 0.09784 0.77205 -0.32142
 H164 H 0.01076 0.66493 -0.27797
 H165 H 0.17386 0.84883 -0.41841
 H166 H 0.15440 0.71813 -0.53448
 N167 N 0.12426 0.64537 0.22326
 N168 N 0.12733 0.59023 0.29278
 C169 C 0.06554 0.61950 0.36098
 C170 C 0.02057 0.69730 0.33323
 C171 C 0.06003 0.71098 0.24515
 H172 H -0.03680 0.73489 0.36888
 H173 H 0.16442 0.63696 0.16117
 H174 H 0.16791 0.53115 0.29139
   
