data_POSCAR
  _audit_creation_date              2014-09-24
  _audit_creation_method            'ToBaCCo'
  _symmetry_space_group_name_H-M    'P1'
  _symmetry_Int_Tables_number       1
  _symmetry_cell_setting            triclinic
  loop_
  _symmetry_equiv_pos_as_xyz
 x,y,z
_cell_length_a 34.2807
_cell_length_b 33.6788
_cell_length_c 33.1512
_cell_angle_alpha 88.886000
_cell_angle_beta 89.726900
_cell_angle_gamma 90.634900
loop_
  _atom_site_label
  _atom_site_type_symbol
  _atom_site_fract_x
  _atom_site_fract_y
  _atom_site_fract_z
N1 N 0.20168 0.18079 0.28420
 N2 N 0.22983 0.15545 0.27789
 C3 C 0.22325 0.12241 0.30067
 C4 C 0.18894 0.12724 0.32219
 C5 C 0.17619 0.16490 0.31111
 H6 H 0.24150 0.09640 0.30077
 H7 H 0.15025 0.17977 0.32126
 Cu8 Cu 0.27111 0.16747 0.23875
 Cu9 Cu 0.20012 0.23240 0.25671
 Cu10 Cu 0.25214 0.23673 0.16690
 N11 N 0.30049 0.17061 0.18847
 N12 N 0.29134 0.19613 0.15962
 C13 C 0.31305 0.18906 0.12665
 C14 C 0.33724 0.15739 0.13544
 C15 C 0.32877 0.14671 0.17505
 H16 H 0.31096 0.20551 0.09844
 H17 H 0.34074 0.12199 0.19206
 N18 N 0.21177 0.27546 0.18068
 N19 N 0.19284 0.27447 0.21546
 C20 C 0.16725 0.30448 0.21593
 C21 C 0.17011 0.32529 0.17971
 C22 C 0.19869 0.30615 0.15805
 H23 H 0.14702 0.31002 0.24026
 H24 H 0.20881 0.31360 0.12790
 H25 H 0.21807 0.20322 0.20676
 H26 H 0.25481 0.23793 0.22847
 N27 N -0.16892 0.83665 0.23492
 N28 N -0.19687 0.86231 0.22768
 C29 C -0.18999 0.89553 0.24852
 C30 C -0.15642 0.89035 0.27075
 C31 C -0.14377 0.85250 0.26163
 H32 H -0.20810 0.92163 0.24756
 H33 H -0.11749 0.83828 0.27223
 Cu34 Cu -0.24030 0.85024 0.19203
 Cu35 Cu -0.16668 0.78620 0.20565
 Cu36 Cu -0.21378 0.79688 0.11375
 N37 N -0.27565 0.84236 0.14686
 N38 N -0.26411 0.82225 0.11550
 C39 C -0.29137 0.82414 0.08658
 C40 C -0.32210 0.84608 0.10068
 C41 C -0.31130 0.85724 0.13930
 H42 H -0.28862 0.81111 0.05713
 H43 H -0.32699 0.87634 0.15943
 N44 N -0.17444 0.75629 0.12453
 N45 N -0.15804 0.74983 0.15999
 C46 C -0.13632 0.71660 0.15786
 C47 C -0.13967 0.70194 0.11907
 C48 C -0.16372 0.72795 0.09905
 H49 H -0.11953 0.70417 0.18249
 H50 H -0.17391 0.72549 0.06835
 H51 H -0.18240 0.82200 0.16053
 H52 H -0.22005 0.78361 0.17405
 N53 N -0.16061 0.17547 -0.24502
 N54 N -0.18412 0.14658 -0.23263
 C55 C -0.17480 0.11296 -0.25153
 C56 C -0.14453 0.12140 -0.27797
 C57 C -0.13624 0.16144 -0.27334
 H58 H -0.18934 0.08455 -0.24700
 H59 H -0.11355 0.17872 -0.28848
 Cu60 Cu -0.22601 0.15628 -0.19469
 Cu61 Cu -0.16313 0.22836 -0.22147
 Cu62 Cu -0.21787 0.23246 -0.13260
 N63 N -0.26885 0.17017 -0.15940
 N64 N -0.26494 0.19878 -0.13325
 C65 C -0.29617 0.19814 -0.10834
 C66 C -0.32123 0.16791 -0.12004
 C67 C -0.30302 0.15105 -0.15287
 H68 H -0.29981 0.21741 -0.08289
 H69 H -0.31240 0.12506 -0.16898
 N70 N -0.17797 0.27294 -0.14817
 N71 N -0.15816 0.27194 -0.18243
 C72 C -0.13256 0.30259 -0.18373
 C73 C -0.13632 0.32393 -0.14875
 C74 C -0.16553 0.30434 -0.12688
 H75 H -0.11141 0.30799 -0.20758
 H76 H -0.17618 0.31161 -0.09722
 H77 H -0.17723 0.20170 -0.16763
 H78 H -0.21799 0.22832 -0.19300
 N79 N 0.12543 0.82686 -0.25459
 N80 N 0.15730 0.84369 -0.26941
 C81 C 0.14878 0.86256 -0.30444
 C82 C 0.10928 0.85714 -0.31175
 C83 C 0.09549 0.83442 -0.27951
 H84 H 0.16952 0.87966 -0.32248
 H85 H 0.06564 0.82490 -0.27408
 Cu86 Cu 0.20579 0.84138 -0.23950
 Cu87 Cu 0.12474 0.79913 -0.20254
 Cu88 Cu 0.21557 0.77323 -0.16510
 N89 N 0.24717 0.84539 -0.19991
 N90 N 0.25245 0.81791 -0.17177
 C91 C 0.28262 0.82892 -0.14830
 C92 C 0.29609 0.86580 -0.16215
 C93 C 0.27302 0.87513 -0.19493
 H94 H 0.29209 0.81262 -0.12174
 H95 H 0.27415 0.90217 -0.21310
 N96 N 0.16684 0.74558 -0.14831
 N97 N 0.13231 0.75780 -0.16061
 C98 C 0.10439 0.73620 -0.14166
 C99 C 0.12196 0.70872 -0.11664
 C100 C 0.16171 0.71525 -0.12148
 H101 H 0.07338 0.73977 -0.14610
 H102 H 0.18497 0.70022 -0.10565
 H103 H 0.17703 0.81632 -0.17641
 H104 H 0.17832 0.77763 -0.21580
 N105 N 0.18805 1.14751 0.71634
 N106 N 0.15948 1.17319 0.71464
 C107 C 0.13504 1.16353 0.68471
 C108 C 0.14886 1.12961 0.66701
 C109 C 0.18250 1.12025 0.68775
 H110 H 0.10743 1.17775 0.67900
 H111 H 0.20006 1.09405 0.68414
 Cu112 Cu 0.15208 1.21135 0.75660
 Cu113 Cu 0.22670 1.14812 0.75928
 Cu114 Cu 0.22269 1.22843 0.82321
 N115 N 0.14107 1.23680 0.80717
 N116 N 0.16918 1.24549 0.83245
 C117 C 0.15410 1.26557 0.86345
 C118 C 0.11428 1.26887 0.85741
 C119 C 0.10698 1.25013 0.82158
 H120 H 0.17077 1.27639 0.88867
 H121 H 0.07917 1.24742 0.80652
 N122 N 0.26764 1.19254 0.82077
 N123 N 0.26897 1.16149 0.79710
 C124 C 0.30127 1.14057 0.80571
 C125 C 0.32092 1.15922 0.83658
 C126 C 0.29884 1.19205 0.84524
 H127 H 0.30854 1.11254 0.79239
 H128 H 0.30369 1.21251 0.86951
 H129 H 0.19671 1.17888 0.80315
 H130 H 0.22329 1.20823 0.76328
 N131 N 0.83142 0.81496 0.73688
 N132 N 0.85943 0.79019 0.74635
 C133 C 0.88890 0.79505 0.71954
 C134 C 0.87837 0.82397 0.69155
 C135 C 0.84162 0.83584 0.70347
 H136 H 0.91628 0.77943 0.72071
 H137 H 0.82438 0.85942 0.69031
 Cu138 Cu 0.85411 0.75485 0.79333
 Cu139 Cu 0.78523 0.82086 0.77030
 Cu140 Cu 0.78888 0.77593 0.86527
 N141 N 0.84404 0.71820 0.83843
 N142 N 0.81880 0.72676 0.86690
 C143 C 0.82039 0.69872 0.89637
 C144 C 0.84782 0.67096 0.88566
 C145 C 0.86222 0.68424 0.84861
 H146 H 0.80396 0.69933 0.92429
 H147 H 0.88560 0.67140 0.83139
 N148 N 0.75156 0.81833 0.85118
 N149 N 0.75069 0.83543 0.81501
 C150 C 0.72543 0.86569 0.81543
 C151 C 0.70895 0.86728 0.85333
 C152 C 0.72594 0.83672 0.87535
 H153 H 0.72034 0.88597 0.79035
 H154 H 0.72155 0.82987 0.90706
 H155 H 0.81797 0.81014 0.82082
 H156 H 0.78530 0.76830 0.80585
 N157 N 0.18246 0.86531 1.26304
 N158 N 0.15621 0.83707 1.26918
 C159 C 0.12892 0.84961 1.29506
 C160 C 0.13843 0.88802 1.30539
 C161 C 0.17252 0.89710 1.28464
 H162 H 0.10259 0.83322 1.30299
 H163 H 0.18791 0.92532 1.28391
 Cu164 Cu 0.15529 0.79030 1.23678
 Cu165 Cu 0.22557 0.85961 1.22501
 Cu166 Cu 0.22538 0.77290 1.16964
 N167 N 0.14610 0.75610 1.19167
 N168 N 0.17411 0.74806 1.16602
 C169 C 0.16023 0.72304 1.13827
 C170 C 0.12120 0.71588 1.14676
 C171 C 0.11313 0.73734 1.18070
 H172 H 0.17700 0.71190 1.11327
 H173 H 0.08550 0.73891 1.19646
 N174 N 0.26665 0.81368 1.16494
 N175 N 0.26654 0.84697 1.18535
 C176 C 0.29580 0.87064 1.17162
 C177 C 0.31483 0.85138 1.14085
 C178 C 0.29567 0.81542 1.13750
 H179 H 0.30103 0.90070 1.18124
 H180 H 0.30074 0.79335 1.11484
 H181 H 0.19635 0.82255 1.18618
 H182 H 0.22618 0.79899 1.22669
 N183 N 0.77527 1.17246 1.28336
 N184 N 0.80605 1.19575 1.28682
 C185 C 0.82077 1.19137 1.32412
 C186 C 0.79816 1.16341 1.34513
 C187 C 0.76915 1.15271 1.31854
 H188 H 0.84823 1.20429 1.33340
 H189 H 0.74827 1.12865 1.32278
 Cu190 Cu 0.82936 1.22259 1.24001
 Cu191 Cu 0.75267 1.16154 1.23064
 Cu192 Cu 0.82550 1.16629 1.15815
 N193 N 0.85945 1.23630 1.19199
 N194 N 0.85891 1.21321 1.16047
 C195 C 0.88291 1.22850 1.13185
 C196 C 0.89866 1.26343 1.14588
 C197 C 0.88332 1.26752 1.18432
 H198 H 0.88746 1.21586 1.10247
 H199 H 0.88894 1.29124 1.20510
 N200 N 0.77755 1.13412 1.15267
 N201 N 0.74854 1.13478 1.17897
 C202 C 0.71818 1.11392 1.16465
 C203 C 0.72878 1.09937 1.12748
 C204 C 0.76658 1.11245 1.12092
 H205 H 0.69063 1.10971 1.18027
 H206 H 0.78406 1.10817 1.09414
 H207 H 0.80993 1.15657 1.21778
 H208 H 0.78553 1.19729 1.18889
 O209 O 0.53269 0.94076 0.94223
 O210 O 0.45504 0.99945 1.06845
 O211 O 0.55045 0.95311 1.01477
 O212 O 0.41461 0.96791 0.94838
 O213 O 0.52326 0.97800 1.06654
 O214 O 0.46603 0.93503 0.93651
 O215 O 0.41871 0.96909 1.02418
 O216 O 0.57976 0.97922 0.94934
 C217 C 0.56803 0.94682 0.93714
 C218 C 0.42896 0.97418 1.05994
 C219 C 0.54270 0.95088 1.05135
 C220 C 0.43012 0.93685 0.93712
 O221 O 0.46022 1.00929 0.90132
 O222 O 0.54444 1.05030 1.03505
 O223 O 0.55361 1.04813 0.96167
 O224 O 0.42144 1.04648 1.01979
 O225 O 0.47794 1.06986 1.03439
 O226 O 0.53151 1.01809 0.90865
 O227 O 0.42557 1.04341 0.94417
 O228 O 0.59306 1.01459 1.01638
 Co229 Co 0.49743 0.97794 0.92698
 Co230 Co 0.49945 1.02216 1.04550
 Co231 Co 0.54971 1.00101 0.98912
 Co232 Co 0.42692 1.00606 0.98437
 O233 O 0.49077 1.00050 0.98502
 C234 C 0.43666 1.03709 0.90881
 C235 C 0.57940 1.04023 1.04119
 C236 C 0.54928 1.04737 0.92417
 C237 C 0.44219 1.07408 1.03273
 O238 O 0.05588 0.45322 0.08960
 O239 O 0.06470 0.51540 -0.04139
 O240 O 0.02523 0.39039 -0.01344
 O241 O 0.02919 0.57415 0.04960
 O242 O 0.05438 0.44303 -0.04040
 O243 O 0.05902 0.52895 0.08762
 O244 O 0.03129 0.56680 -0.02351
 O245 O 0.06589 0.43377 0.02908
 C246 C 0.07656 0.43533 0.06472
 C247 C 0.06225 0.55216 -0.03744
 C248 C 0.04798 0.40575 -0.04188
 C249 C 0.05626 0.56390 0.07377
 O250 O -0.01430 0.53163 0.10163
 O251 O -0.02265 0.45434 -0.05536
 O252 O 0.00088 0.40927 0.06233
 O253 O -0.04541 0.53850 -0.01973
 O254 O -0.00688 0.52598 -0.06680
 O255 O -0.02144 0.45784 0.09692
 O256 O -0.04660 0.55050 0.04979
 O257 O -0.03707 0.42849 0.00225
 Co258 Co 0.01897 0.49233 0.08696
 Co259 Co 0.02084 0.48517 -0.04414
 Co260 Co 0.01396 0.43432 0.01478
 Co261 Co -0.00646 0.55237 0.01395
 O262 O 0.01039 0.49326 0.02111
 C263 C -0.04171 0.55081 0.08671
 C264 C -0.04599 0.43451 -0.03343
 C265 C -0.02059 0.42161 0.09002
 C266 C -0.03869 0.53930 -0.05610
 O267 O 1.07306 0.02679 0.45287
 O268 O 0.90314 0.04594 0.52862
 O269 O 0.95435 0.07134 0.43958
 O270 O 1.01504 0.03570 0.56420
 O271 O 0.90013 0.04246 0.45262
 O272 O 1.03365 0.06134 0.50631
 O273 O 0.94352 0.02338 0.57558
 O274 O 1.02132 0.05861 0.43523
 C275 C 1.05701 0.05215 0.42840
 C276 C 0.91616 0.04630 0.56416
 C277 C 0.91856 0.07315 0.44241
 C278 C 1.03100 0.06373 0.54385
 O279 O 1.06523 -0.00380 0.52506
 O280 O 0.90687 -0.03559 0.45860
 O281 O 1.00639 -0.01733 0.41259
 O282 O 0.95464 -0.05332 0.55514
 O283 O 0.90055 -0.03020 0.53334
 O284 O 1.03481 -0.03824 0.46621
 O285 O 1.02095 -0.04308 0.54334
 O286 O 0.93664 -0.00267 0.41050
 Co287 Co 1.03193 0.01164 0.48479
 Co288 Co 0.90933 0.00580 0.49282
 Co289 Co 0.97904 0.02549 0.43019
 Co290 Co 0.98304 -0.00773 0.55416
 O291 O 0.97334 0.00713 0.49270
 C292 C 1.05574 -0.03318 0.54585
 C293 C 0.91720 -0.03271 0.42258
 C294 C 1.02647 -0.04307 0.43035
 C295 C 0.91873 -0.05561 0.55306
 C296 C 1.17112 0.09908 0.34824
 C297 C 1.13613 0.10483 0.36519
 C298 C 1.11679 0.07472 0.39165
 C299 C 1.07934 0.07937 0.40164
 H300 H 1.12048 0.13197 0.35882
 H301 H 1.13273 0.04908 0.40253
 H302 H 1.18592 0.07127 0.35393
 H303 H 1.06368 0.10459 0.38928
 C304 C 0.86208 -0.07928 0.29620
 C305 C 0.88299 -0.08830 0.32900
 C306 C 0.89842 -0.05666 0.35511
 C307 C 0.90400 -0.06356 0.39452
 H308 H 0.88672 -0.11913 0.33803
 H309 H 0.90313 -0.02704 0.34249
 H310 H 0.85588 -0.04841 0.28926
 H311 H 0.89646 -0.09252 0.40731
 C312 C 0.87465 0.09265 0.69581
 C313 C 0.88691 0.10234 0.65860
 C314 C 0.90340 0.07207 0.63209
 C315 C 0.90026 0.07564 0.59203
 H316 H 0.88270 0.13224 0.64681
 H317 H 0.91680 0.04598 0.64548
 H318 H 0.87579 0.06196 0.70618
 H319 H 0.88454 0.10056 0.57912
 C320 C 1.08512 -0.12647 0.65542
 C321 C 1.09877 -0.10110 0.62709
 C322 C 1.07196 -0.08330 0.59741
 C323 C 1.08366 -0.05436 0.57181
 H324 H 1.12921 -0.09215 0.62676
 H325 H 1.04157 -0.09265 0.59792
 H326 H 1.05441 -0.13457 0.65560
 H327 H 1.11381 -0.04434 0.57167
 C328 C 0.36282 1.13764 1.11000
 C329 C 0.36470 1.14441 1.07001
 C330 C 0.38689 1.11786 1.04396
 C331 C 0.42398 1.10845 1.05148
 H332 H 0.34537 1.16536 1.05544
 H333 H 0.37150 1.10423 1.01924
 H334 H 0.37986 1.11376 1.12312
 H335 H 0.44010 1.12403 1.07447
 C336 C 0.32376 0.89132 0.85449
 C337 C 0.34742 0.88144 0.88500
 C338 C 0.37241 0.91234 0.90266
 C339 C 0.40597 0.90428 0.92132
 H340 H 0.34837 0.85130 0.89695
 H341 H 0.36360 0.94304 0.89886
 H342 H 0.32582 0.92118 0.84168
 H343 H 0.41679 0.87418 0.92262
 C344 C 0.64560 0.85721 1.07779
 C345 C 0.61604 0.87833 1.09216
 C346 C 0.58800 0.89664 1.06410
 C347 C 0.55980 0.92005 1.07757
 H348 H 0.61441 0.88526 1.12391
 H349 H 0.59394 0.89544 1.03197
 H350 H 0.64559 0.84948 1.04616
 H351 H 0.55423 0.92156 1.10972
 C352 C 0.64523 1.15441 0.90056
 C353 C 0.62196 1.12557 0.88652
 C354 C 0.59248 1.10546 0.91249
 C355 C 0.56948 1.07681 0.89781
 H356 H 0.62644 1.11431 0.85648
 H357 H 0.59270 1.11101 0.94460
 H358 H 0.63890 1.16687 0.92975
 H359 H 0.56937 1.07161 0.86564
 C360 C 0.14519 0.35858 0.16691
 C361 C 0.14559 0.37389 0.12937
 C362 C 0.11641 0.40339 0.11693
 C363 C 0.11080 0.41268 0.07799
 H364 H 0.16563 0.36282 0.10699
 H365 H 0.09700 0.41504 0.13965
 H366 H 0.12428 0.36932 0.18865
 H367 H 0.12918 0.39972 0.05513
 C368 C -0.11084 0.35742 -0.13677
 C369 C -0.11335 0.37486 -0.10090
 C370 C -0.08331 0.40381 -0.08810
 C371 C -0.08109 0.41494 -0.04962
 H372 H -0.13594 0.36572 -0.07963
 H373 H -0.06045 0.41276 -0.10922
 H374 H -0.08776 0.36651 -0.15754
 H375 H -0.10283 0.40405 -0.02815
 C376 C 0.10075 0.68073 -0.08977
 C377 C 0.11446 0.64548 -0.07775
 C378 C 0.08826 0.61815 -0.05501
 C379 C 0.09333 0.57880 -0.05358
 H380 H 0.14314 0.63594 -0.08715
 H381 H 0.06204 0.63047 -0.04203
 H382 H 0.07094 0.68833 -0.08232
 H383 H 0.11887 0.56598 -0.06736
 C384 C -0.12273 0.66686 0.10014
 C385 C -0.10383 0.63789 0.11963
 C386 C -0.08706 0.60550 0.09592
 C387 C -0.06502 0.57703 0.11236
 H388 H -0.09984 0.63868 0.15201
 H389 H -0.09062 0.60671 0.06342
 H390 H -0.12654 0.66485 0.06777
 H391 H -0.06041 0.57607 0.14468
 C392 C 1.12793 0.10341 0.63945
 C393 C 1.09756 0.11541 0.61744
 C394 C 1.07438 0.08601 0.59567
 C395 C 1.05124 0.09571 0.56483
 H396 H 1.08925 0.14636 0.61630
 H397 H 1.07722 0.05497 0.60457
 H398 H 1.13697 0.07268 0.63849
 H399 H 1.05040 0.12589 0.55298
 C400 C 0.90314 -0.15811 0.65940
 C401 C 0.88811 -0.13485 0.63042
 C402 C 0.91299 -0.11110 0.60256
 C403 C 0.89658 -0.08639 0.57569
 H404 H 0.85679 -0.13132 0.62860
 H405 H 0.94439 -0.11133 0.60626
 H406 H 0.93434 -0.16279 0.66062
 H407 H 0.86508 -0.08621 0.57280
 C408 C 1.11451 -0.08419 0.32803
 C409 C 1.08560 -0.09639 0.35257
 C410 C 1.06165 -0.06713 0.37304
 C411 C 1.04381 -0.07550 0.40806
 H412 H 1.08027 -0.12776 0.35844
 H413 H 1.06117 -0.03700 0.36079
 H414 H 1.12101 -0.05272 0.32446
 H415 H 1.04720 -0.10430 0.42271
 C416 C 0.80924 0.13958 0.38095
 C417 C 0.84419 0.14345 0.39811
 C418 C 0.86050 0.11084 0.42260
 C419 C 0.89897 0.10931 0.42830
 H420 H 0.86327 0.16802 0.38946
 H421 H 0.84201 0.08575 0.43133
 H422 H 0.79071 0.11442 0.38932
 H423 H 0.91732 0.13407 0.41828
 C424 C 0.08550 0.28927 -0.11760
 C425 C 0.09577 0.32041 -0.09572
 C426 C 0.06687 0.34304 -0.07306
 C427 C 0.07396 0.38118 -0.06581
 H428 H 0.12577 0.33100 -0.09640
 H429 H 0.03981 0.32895 -0.06313
 H430 H 0.05507 0.28049 -0.11961
 H431 H 0.10011 0.39534 -0.07812
 C432 C -0.07544 0.29063 0.12287
 C433 C -0.06939 0.32816 0.13354
 C434 C -0.04535 0.35508 0.10818
 C435 C -0.04380 0.39392 0.11532
 H436 H -0.08333 0.33958 0.16025
 H437 H -0.02941 0.34311 0.08292
 H438 H -0.06261 0.27997 0.09521
 H439 H -0.06034 0.40585 0.14018
 C440 C -0.13783 0.63810 -0.08847
 C441 C -0.11151 0.61204 -0.10122
 C442 C -0.09298 0.58384 -0.07284
 C443 C -0.06369 0.56087 -0.08490
 H444 H -0.10163 0.61306 -0.13231
 H445 H -0.10105 0.58436 -0.04118
 H446 H -0.14788 0.63655 -0.05742
 H447 H -0.05519 0.56114 -0.11645
 C448 C 0.09356 0.69062 0.12519
 C449 C 0.10554 0.65950 0.10453
 C450 C 0.07714 0.63176 0.08760
 C451 C 0.08526 0.59324 0.08633
 H452 H 0.13629 0.65235 0.10327
 H453 H 0.04840 0.64227 0.07939
 H454 H 0.06262 0.69569 0.12923
 H455 H 0.11294 0.58260 0.09771
 C456 C 0.35314 1.14394 0.86145
 C457 C 0.37353 1.11169 0.85223
 C458 C 0.39887 1.09313 0.88281
 C459 C 0.41945 1.06048 0.87546
 H460 H 0.36926 1.09724 0.82366
 H461 H 0.39815 1.10472 0.91311
 H462 H 0.35844 1.15840 0.88988
 H463 H 0.42124 1.04921 0.84512
 C464 C 0.34370 0.86790 1.11203
 C465 C 0.36292 0.90186 1.11832
 C466 C 0.38672 0.92043 1.08605
 C467 C 0.40869 0.95255 1.09286
 H468 H 0.35984 0.91696 1.14670
 H469 H 0.38516 0.90850 1.05593
 H470 H 0.34803 0.85238 1.08403
 H471 H 0.41138 0.96364 1.12322
 C472 C 0.70482 1.07677 1.09921
 C473 C 0.66599 1.07660 1.10144
 C474 C 0.64236 1.05532 1.07195
 C475 C 0.60408 1.06142 1.06970
 H476 H 0.65130 1.09340 1.12445
 H477 H 0.65640 1.03494 1.05169
 H478 H 0.71935 1.06166 1.07489
 H479 H 0.59033 1.08249 1.08942
 C480 C 0.68274 0.89845 0.86748
 C481 C 0.65589 0.89171 0.89614
 C482 C 0.62993 0.92375 0.90892
 C483 C 0.59437 0.91556 0.92359
 H484 H 0.65202 0.86212 0.90913
 H485 H 0.63957 0.95438 0.90512
 H486 H 0.68432 0.92727 0.85239
 H487 H 0.58385 0.88509 0.92491
   
