data_POSCAR
  _audit_creation_date              2014-09-24
  _audit_creation_method            'ToBaCCo'
  _symmetry_space_group_name_H-M    'P1'
  _symmetry_Int_Tables_number       1
  _symmetry_cell_setting            triclinic
  loop_
  _symmetry_equiv_pos_as_xyz
 x,y,z
_cell_length_a 33.1168
_cell_length_b 33.1182
_cell_length_c 47.7926
_cell_angle_alpha 90.044400
_cell_angle_beta 90.044400
_cell_angle_gamma 120.172200
loop_
  _atom_site_label
  _atom_site_type_symbol
  _atom_site_fract_x
  _atom_site_fract_y
  _atom_site_fract_z
C1 C 0.02403 0.51287 1.27591
 C2 C -0.02532 0.48801 1.27597
 C3 C -0.04966 0.47534 1.25047
 C4 C -0.02557 0.48705 1.22495
 C5 C 0.02369 0.51184 1.22491
 C6 C 0.04805 0.52454 1.25035
 H7 H 0.08598 0.54362 1.25021
 H8 H -0.08760 0.45624 1.25050
 C9 C 0.48675 0.51277 1.27585
 C10 C 0.51101 0.48789 1.27590
 C11 C 0.52354 0.47617 1.25046
 C12 C 0.51222 0.48890 1.22497
 C13 C 0.48800 0.51373 1.22489
 C14 C 0.47544 0.52549 1.25031
 H15 H 0.45676 0.54463 1.25016
 H16 H 0.54221 0.45704 1.25050
 C17 C 0.48781 0.97504 1.27630
 C18 C 0.51236 1.02439 1.27638
 C19 C 0.52380 1.04864 1.25091
 C20 C 0.51112 1.02444 1.22544
 C21 C 0.48665 0.97528 1.22535
 C22 C 0.47516 0.95093 1.25075
 H23 H 0.45629 0.91301 1.25056
 H24 H 0.54268 1.08656 1.25087
 C25 C 0.97630 0.48723 0.72493
 C26 C 1.02547 0.51170 0.72494
 C27 C 1.04979 0.52444 0.75039
 C28 C 1.02559 0.51304 0.77587
 C29 C 0.97633 0.48853 0.77585
 C30 C 0.95208 0.47582 0.75037
 H31 H 0.91419 0.45696 0.75034
 H32 H 1.08770 0.54331 0.75030
 C33 C 0.51314 0.48847 0.72447
 C34 C 0.48832 0.51272 0.72447
 C35 C 0.47554 0.52410 0.74993
 C36 C 0.48721 0.51159 0.77539
 C37 C 0.51204 0.48735 0.77540
 C38 C 0.52482 0.47597 0.74994
 H39 H 0.54393 0.45728 0.74994
 H40 H 0.45642 0.54278 0.74993
 C41 C 0.48744 -0.02651 0.77545
 C42 C 0.51224 0.02275 0.77545
 C43 C 0.52397 0.04690 0.74998
 C44 C 0.51135 0.02267 0.72448
 C45 C 0.48654 -0.02659 0.72444
 C46 C 0.47479 -0.05080 0.74994
 H47 H 0.45568 -0.08874 0.74993
 H48 H 0.54305 0.08480 0.74999
 O49 O 0.40070 0.66946 0.96752
 O50 O 0.40306 0.74822 0.97624
 C51 C 0.37372 0.75372 0.96194
 O52 O 0.33044 0.73235 0.96741
 O53 O 0.25168 0.65577 0.97647
 C54 C 0.24592 0.62075 0.96224
 O55 O 0.26724 0.59889 0.96769
 O56 O 0.34378 0.59690 0.97655
 C57 C 0.37871 0.62611 0.96222
 O58 O 0.40317 0.65641 1.02321
 O59 O 0.40113 0.73295 1.03194
 C60 C 0.37922 0.75425 1.03733
 O61 O 0.34424 0.74846 1.02305
 O62 O 0.26765 0.66969 1.03211
 C63 C 0.24626 0.62642 1.03760
 O64 O 0.25182 0.59708 1.02336
 O65 O 0.33059 0.59950 1.03221
 C66 C 0.37393 0.62152 1.03756
 Cr67 Cr 0.39953 0.70052 0.99973
 Cr68 Cr 0.29974 0.70033 0.99976
 Cr69 Cr 0.29960 0.60058 0.99995
 O70 O 0.33296 0.66714 0.99981
 O71 O 0.59685 0.34435 0.97691
 O72 O 0.59893 0.26782 0.96806
 C73 C 0.62088 0.24656 0.96267
 O74 O 0.65580 0.25233 0.97703
 O75 O 0.73250 0.33118 0.96845
 C76 C 0.75389 0.37449 0.96308
 O77 O 0.74818 0.40372 0.97734
 O78 O 0.66952 0.40144 0.96830
 C79 C 0.62624 0.37942 0.96275
 O80 O 0.59868 0.33082 1.03260
 O81 O 0.59642 0.25213 1.02374
 C82 C 0.62560 0.24645 1.03808
 O83 O 0.66892 0.26783 1.03276
 O84 O 0.74782 0.34449 1.02419
 C85 C 0.75352 0.37944 1.03849
 O86 O 0.73229 0.40138 1.03300
 O87 O 0.65581 0.40346 1.02395
 C88 C 0.62069 0.37412 1.03810
 Cr89 Cr 0.60022 0.30003 1.00033
 Cr90 Cr 0.70001 0.30020 1.00060
 Cr91 Cr 0.70020 0.40000 1.00064
 O92 O 0.66681 0.33341 1.00053
 O93 O 0.65635 0.40317 0.52322
 O94 O 0.73290 0.40113 0.53197
 C95 C 0.75422 0.37925 0.53735
 O96 O 0.74842 0.34426 0.52307
 O97 O 0.66965 0.26766 0.53214
 C98 C 0.62637 0.24624 0.53761
 O99 O 0.59703 0.25182 0.52337
 O100 O 0.59944 0.33058 0.53224
 C101 C 0.62145 0.37393 0.53756
 O102 O 0.66942 0.40070 0.46755
 O103 O 0.74819 0.40307 0.47627
 C104 C 0.75372 0.37375 0.46198
 O105 O 0.73233 0.33046 0.46744
 O106 O 0.65573 0.25169 0.47650
 C107 C 0.62069 0.24589 0.46228
 O108 O 0.59884 0.26724 0.46771
 O109 O 0.59685 0.34378 0.47659
 C110 C 0.62605 0.37873 0.46226
 Cr111 Cr 0.70047 0.39953 0.49976
 Cr112 Cr 0.70029 0.29976 0.49979
 Cr113 Cr 0.60053 0.29960 0.49997
 O114 O 0.66710 0.33296 0.49984
 O115 O 0.33080 0.59870 0.53165
 O116 O 0.25212 0.59645 0.52280
 C117 C 0.24647 0.62564 0.53715
 O118 O 0.26783 0.66896 0.53181
 O119 O 0.34449 0.74784 0.52325
 C120 C 0.37943 0.75351 0.53755
 O121 O 0.40138 0.73230 0.53204
 O122 O 0.40345 0.65583 0.52301
 C123 C 0.37409 0.62072 0.53716
 O124 O 0.34431 0.59686 0.47595
 O125 O 0.26779 0.59896 0.46711
 C126 C 0.24654 0.62091 0.46172
 O127 O 0.25232 0.65584 0.47607
 O128 O 0.33119 0.73253 0.46751
 C129 C 0.37450 0.75390 0.46212
 O130 O 0.40372 0.74819 0.47638
 O131 O 0.40144 0.66953 0.46735
 C132 C 0.37940 0.62625 0.46180
 Cr133 Cr 0.30001 0.60024 0.49938
 Cr134 Cr 0.30020 0.70005 0.49966
 Cr135 Cr 0.40000 0.70021 0.49969
 O136 O 0.33340 0.66683 0.49958
 C137 C 0.38549 0.54621 0.40712
 C138 C 0.42399 0.57789 0.39127
 C139 C 0.44845 0.62511 0.39880
 C140 C 0.43430 0.64074 0.42192
 C141 C 0.47405 0.52504 0.30019
 C142 C 0.37124 0.56174 0.43029
 C143 C 0.43775 0.56236 0.36683
 C144 C 0.44927 0.55002 0.34607
 C145 C 0.46269 0.53627 0.32146
 C146 C 0.39535 0.60928 0.43788
 H147 H 0.36622 0.50958 0.40143
 H148 H 0.47824 0.64996 0.38663
 H149 H 0.45365 0.67756 0.42712
 H150 H 0.34108 0.53660 0.44206
 C151 C 0.45480 0.84011 0.40754
 C152 C 0.42323 0.84699 0.39167
 C153 C 0.37605 0.82433 0.39918
 C154 C 0.36032 0.79454 0.42230
 C155 C 0.47569 0.94985 0.30059
 C156 C 0.43916 0.81032 0.43072
 C157 C 0.43879 0.87624 0.36721
 C158 C 0.45106 0.90006 0.34644
 C159 C 0.46463 0.92720 0.32183
 C160 C 0.39164 0.78695 0.43828
 H161 H 0.49140 0.85741 0.40186
 H162 H 0.35130 0.82934 0.38700
 H163 H 0.32353 0.77713 0.42748
 H164 H 0.46418 0.80520 0.44250
 C165 C 0.16016 0.61485 0.40716
 C166 C 0.15321 0.57645 0.39115
 C167 C 0.17599 0.55208 0.39854
 C168 C 0.20590 0.56620 0.42166
 C169 C 0.04936 0.52585 0.30022
 C170 C 0.19008 0.62907 0.43034
 C171 C 0.12370 0.56264 0.36674
 C172 C 0.09964 0.55101 0.34601
 C173 C 0.07220 0.53740 0.32144
 C174 C 0.21351 0.60504 0.43778
 H175 H 0.14279 0.63405 0.40160
 H176 H 0.17095 0.52237 0.38626
 H177 H 0.22335 0.54691 0.42674
 H178 H 0.19519 0.65914 0.44223
 C179 C 0.62412 0.44780 0.39953
 C180 C 0.57680 0.42340 0.39225
 C181 C 0.54529 0.38491 0.40817
 C182 C 0.56112 0.37060 0.43117
 C183 C 0.52372 0.47417 0.30162
 C184 C 0.64005 0.43359 0.42247
 C185 C 0.56101 0.43725 0.36798
 C186 C 0.54857 0.44892 0.34734
 C187 C 0.53484 0.46258 0.32283
 C188 C 0.60877 0.39465 0.43851
 H189 H 0.64883 0.47758 0.38730
 H190 H 0.50858 0.36570 0.40266
 H191 H 0.53613 0.34046 0.44301
 H192 H 0.67694 0.45290 0.42748
 C193 C 0.55132 0.17516 0.39935
 C194 C 0.57571 0.15245 0.39188
 C195 C 0.61421 0.15940 0.40776
 C196 C 0.62857 0.18933 0.43091
 C197 C 0.52528 0.04947 0.30074
 C198 C 0.56559 0.20509 0.42245
 C199 C 0.56188 0.12311 0.36744
 C200 C 0.55029 0.09924 0.34666
 C201 C 0.53676 0.07208 0.32203
 C202 C 0.60457 0.21275 0.43844
 H203 H 0.52153 0.17009 0.38716
 H204 H 0.63340 0.14206 0.40210
 H205 H 0.65875 0.19449 0.44270
 H206 H 0.54632 0.22254 0.42761
 C207 C 0.82372 0.37515 0.39881
 C208 C 0.84666 0.42240 0.39141
 C209 C 0.84003 0.45401 0.40741
 C210 C 0.81024 0.43838 0.43059
 C211 C 0.94965 0.47564 0.30033
 C212 C 0.79394 0.35943 0.42194
 C213 C 0.87597 0.43803 0.36697
 C214 C 0.89985 0.45046 0.34621
 C215 C 0.92704 0.46432 0.32160
 C216 C 0.78663 0.39081 0.43805
 H217 H 0.82852 0.35036 0.38654
 H218 H 0.85753 0.49065 0.40182
 H219 H 0.80537 0.46346 0.44247
 H220 H 0.77633 0.32260 0.42704
 C221 C 0.61441 0.45437 1.09254
 C222 C 0.57587 0.42274 1.10839
 C223 C 0.55144 0.37549 1.10092
 C224 C 0.56566 0.35977 1.07788
 C225 C 0.52565 0.47591 1.19925
 C226 C 0.62873 0.43875 1.06944
 C227 C 0.56205 0.43837 1.13276
 C228 C 0.55048 0.45078 1.15346
 C229 C 0.53702 0.46462 1.17802
 C230 C 0.60465 0.39117 1.06192
 H231 H 0.63366 0.49102 1.09818
 H232 H 0.52161 0.35069 1.11309
 H233 H 0.54633 0.32294 1.07273
 H234 H 0.65892 0.46384 1.05768
 C235 C 0.83952 0.38550 1.09332
 C236 C 0.84636 0.42389 1.10929
 C237 C 0.82366 0.44828 1.10179
 C238 C 0.79393 0.43418 1.07858
 C239 C 0.94937 0.47420 1.20058
 C240 C 0.80978 0.37129 1.07006
 C241 C 0.87565 0.43765 1.13380
 C242 C 0.89952 0.44922 1.15461
 C243 C 0.92673 0.46273 1.17927
 C244 C 0.78641 0.39534 1.06250
 H245 H 0.85684 0.36628 1.09898
 H246 H 0.82862 0.47799 1.11403
 H247 H 0.77651 0.45348 1.07341
 H248 H 0.80475 0.34122 1.05821
 C249 C 0.54507 0.16027 1.09259
 C250 C 0.57657 0.15343 1.10856
 C251 C 0.62379 0.17611 1.10113
 C252 C 0.63962 0.20589 1.07801
 C253 C 0.52384 0.05081 1.19972
 C254 C 0.56080 0.19005 1.06942
 C255 C 0.56091 0.12421 1.13302
 C256 C 0.54857 0.10043 1.15380
 C257 C 0.53493 0.07335 1.17844
 C258 C 0.60836 0.21344 1.06194
 H259 H 0.50844 0.14295 1.09821
 H260 H 0.64849 0.17114 1.11338
 H261 H 0.67644 0.22332 1.07290
 H262 H 0.53582 0.19513 1.05756
 C263 C 0.37561 0.55284 1.10057
 C264 C 0.42288 0.57738 1.10797
 C265 C 0.45444 0.61582 1.09203
 C266 C 0.43872 0.62993 1.06889
 C267 C 0.47543 0.52731 1.19910
 C268 C 0.35980 0.56686 1.07748
 C269 C 0.43853 0.56375 1.13239
 C270 C 0.45084 0.55224 1.15316
 C271 C 0.46442 0.53876 1.17780
 C272 C 0.39112 0.60574 1.06143
 H273 H 0.35086 0.52310 1.11280
 H274 H 0.49111 0.63513 1.09763
 H275 H 0.46375 0.66004 1.05704
 H276 H 0.32294 0.54745 1.07238
 C277 C 0.15990 0.54629 1.09219
 C278 C 0.15323 0.57793 1.10813
 C279 C 0.17616 0.62515 1.10069
 C280 C 0.20597 0.64083 1.07756
 C281 C 0.05013 0.52487 1.19916
 C282 C 0.18970 0.56186 1.06902
 C283 C 0.12389 0.56235 1.13257
 C284 C 0.09999 0.54997 1.15331
 C285 C 0.07277 0.53616 1.17791
 C286 C 0.21331 0.60941 1.06151
 H287 H 0.14239 0.50965 1.09782
 H288 H 0.17134 0.64997 1.11292
 H289 H 0.22358 0.67764 1.07243
 H290 H 0.19460 0.53676 1.05719
 C291 C 0.38513 0.84021 1.09205
 C292 C 0.42357 0.84714 1.10799
 C293 C 0.44815 0.82465 1.10046
 C294 C 0.43412 0.79495 1.07726
 C295 C 0.47316 0.94907 1.19954
 C296 C 0.37100 0.81051 1.06880
 C297 C 0.43713 0.87619 1.13255
 C298 C 0.44851 0.89981 1.15343
 C299 C 0.46183 0.92669 1.17818
 C300 C 0.39518 0.78728 1.06123
 H301 H 0.36580 0.85739 1.09775
 H302 H 0.47790 0.82970 1.11270
 H303 H 0.45351 0.77764 1.07207
 H304 H 0.34085 0.80533 1.05697
 C305 C 0.55265 0.37568 0.60049
 C306 C 0.57711 0.42298 0.60784
 C307 C 0.61555 0.45453 0.59189
 C308 C 0.62974 0.43877 0.56880
 C309 C 0.52677 0.47582 0.69874
 C310 C 0.56674 0.35983 0.57746
 C311 C 0.56339 0.43869 0.63219
 C312 C 0.55182 0.45107 0.65290
 C313 C 0.53828 0.46474 0.67748
 C314 C 0.60562 0.39114 0.56140
 H315 H 0.52291 0.35095 0.61274
 H316 H 0.63481 0.49121 0.59745
 H317 H 0.65984 0.46379 0.55695
 H318 H 0.54739 0.32296 0.57240
 C319 C 0.54615 0.15960 0.59206
 C320 C 0.57777 0.15291 0.60800
 C321 C 0.62503 0.17595 0.60061
 C322 C 0.64074 0.20587 0.57754
 C323 C 0.52444 0.04925 0.69879
 C324 C 0.56176 0.18953 0.56894
 C325 C 0.56214 0.12342 0.63236
 C326 C 0.54969 0.09939 0.65306
 C327 C 0.53580 0.07201 0.67759
 C328 C 0.60934 0.21322 0.56149
 H329 H 0.50949 0.14202 0.59764
 H330 H 0.64983 0.17110 0.61284
 H331 H 0.67758 0.22354 0.57245
 H332 H 0.53667 0.19443 0.55710
 C333 C 0.84048 0.38536 0.59192
 C334 C 0.84742 0.42380 0.60786
 C335 C 0.82482 0.44829 0.60039
 C336 C 0.79500 0.43419 0.57725
 C337 C 0.94995 0.47369 0.69918
 C338 C 0.81066 0.37116 0.56872
 C339 C 0.87663 0.43745 0.63236
 C340 C 0.90039 0.44891 0.65318
 C341 C 0.92743 0.46230 0.67787
 C342 C 0.78733 0.39526 0.56121
 H343 H 0.85774 0.36609 0.59757
 H344 H 0.82988 0.47804 0.61264
 H345 H 0.77761 0.45352 0.57210
 H346 H 0.80548 0.34101 0.55689
 C347 C 0.37535 0.55159 0.60008
 C348 C 0.42257 0.57609 0.60760
 C349 C 0.45423 0.61461 0.59176
 C350 C 0.43866 0.62886 0.56861
 C351 C 0.47542 0.52611 0.69871
 C352 C 0.35968 0.56574 0.57698
 C353 C 0.43813 0.56234 0.63204
 C354 C 0.45047 0.55084 0.65281
 C355 C 0.46421 0.53744 0.67743
 C356 C 0.39111 0.60473 0.56103
 H357 H 0.35052 0.52177 0.61224
 H358 H 0.49086 0.63390 0.59745
 H359 H 0.46377 0.65905 0.55685
 H360 H 0.32287 0.54637 0.57179
 C361 C 0.44815 0.82342 0.60094
 C362 C 0.42369 0.84602 0.60851
 C363 C 0.38531 0.83922 0.59254
 C364 C 0.37118 0.80961 0.56923
 C365 C 0.47373 0.94845 0.70003
 C366 C 0.43412 0.79381 0.57768
 C367 C 0.43737 0.87515 0.63309
 C368 C 0.44887 0.89888 0.65396
 C369 C 0.46232 0.92593 0.67868
 C370 C 0.39529 0.78633 0.56160
 H371 H 0.47785 0.82834 0.61319
 H372 H 0.36605 0.85646 0.59825
 H373 H 0.34111 0.80459 0.55738
 H374 H 0.45346 0.77646 0.57247
 C375 C 0.17635 0.62394 0.60029
 C376 C 0.15377 0.57676 0.60778
 C377 C 0.16057 0.54523 0.59181
 C378 C 0.19023 0.56091 0.56858
 C379 C 0.05172 0.52434 0.69917
 C380 C 0.20601 0.63972 0.57711
 C381 C 0.12470 0.56116 0.63231
 C382 C 0.10106 0.54890 0.65315
 C383 C 0.07414 0.53535 0.67785
 C384 C 0.21353 0.60844 0.56105
 H385 H 0.17141 0.64867 0.61254
 H386 H 0.14333 0.50862 0.59748
 H387 H 0.19529 0.53592 0.55673
 H388 H 0.22337 0.67652 0.57196
 C389 C 0.38466 0.54547 0.90795
 C390 C 0.42314 0.57700 0.89202
 C391 C 0.44762 0.62429 0.89937
 C392 C 0.43350 0.64016 0.92239
 C393 C 0.47356 0.52422 0.80113
 C394 C 0.37045 0.56124 0.93102
 C395 C 0.43688 0.56128 0.86767
 C396 C 0.44846 0.54892 0.84697
 C397 C 0.46203 0.53527 0.82239
 C398 C 0.39458 0.60886 0.93842
 H399 H 0.36539 0.50878 0.90239
 H400 H 0.47739 0.64901 0.88714
 H401 H 0.45287 0.67703 0.92745
 H402 H 0.34031 0.53624 0.94286
 C403 C 0.15976 0.61448 0.90754
 C404 C 0.15286 0.57600 0.89165
 C405 C 0.17545 0.55153 0.89920
 C406 C 0.20523 0.56571 0.92237
 C407 C 0.05052 0.52589 0.80025
 C408 C 0.18954 0.62875 0.93076
 C409 C 0.12370 0.56228 0.86713
 C410 C 0.09998 0.55077 0.84629
 C411 C 0.07300 0.53732 0.82158
 C412 C 0.21286 0.60468 0.93835
 H413 H 0.14250 0.63373 0.90182
 H414 H 0.17042 0.52175 0.88700
 H415 H 0.22261 0.54639 0.92757
 H416 H 0.19468 0.65892 0.94255
 C417 C 0.37501 0.82344 0.89865
 C418 C 0.42222 0.84626 0.89118
 C419 C 0.45387 0.83968 0.90718
 C420 C 0.43829 0.81005 0.93043
 C421 C 0.47514 0.94860 0.79983
 C422 C 0.35934 0.79380 0.92185
 C423 C 0.43779 0.87539 0.86666
 C424 C 0.45014 0.89911 0.84584
 C425 C 0.46390 0.92613 0.82115
 C426 C 0.39075 0.78654 0.93796
 H427 H 0.35020 0.82820 0.88637
 H428 H 0.49049 0.85711 0.90154
 H429 H 0.46339 0.80520 0.94231
 H430 H 0.32253 0.77627 0.92699
 C431 C 0.54617 0.38552 0.90810
 C432 C 0.57786 0.42400 0.89223
 C433 C 0.62509 0.44845 0.89975
 C434 C 0.64073 0.43431 0.92287
 C435 C 0.52496 0.47397 0.80115
 C436 C 0.56172 0.37128 0.93127
 C437 C 0.56231 0.43775 0.86780
 C438 C 0.54996 0.44926 0.84704
 C439 C 0.53619 0.46265 0.82243
 C440 C 0.60927 0.39537 0.93884
 H441 H 0.50954 0.36627 0.90242
 H442 H 0.64994 0.47823 0.88757
 H443 H 0.67755 0.45364 0.92805
 H444 H 0.53658 0.34114 0.94304
 C445 C 0.82433 0.37607 0.90014
 C446 C 0.84702 0.42326 0.89264
 C447 C 0.84015 0.45482 0.90853
 C448 C 0.81034 0.43917 0.93170
 C449 C 0.94982 0.47578 0.80155
 C450 C 0.79453 0.36033 0.92325
 C451 C 0.87627 0.43884 0.86819
 C452 C 0.90009 0.45112 0.84742
 C453 C 0.92722 0.46471 0.82280
 C454 C 0.78695 0.39165 0.93924
 H455 H 0.82933 0.35133 0.88794
 H456 H 0.85747 0.49143 0.90286
 H457 H 0.80524 0.46419 0.94349
 H458 H 0.77709 0.32353 0.92841
 C459 C 0.55205 0.17600 0.89949
 C460 C 0.57641 0.15320 0.89212
 C461 C 0.61479 0.16014 0.90814
 C462 C 0.62901 0.19006 0.93131
 C463 C 0.52589 0.04940 0.80118
 C464 C 0.56617 0.20592 0.92261
 C465 C 0.56260 0.12369 0.86771
 C466 C 0.55099 0.09963 0.84698
 C467 C 0.53741 0.07221 0.82240
 C468 C 0.60499 0.21352 0.93874
 H469 H 0.52235 0.17097 0.88720
 H470 H 0.63397 0.14275 0.90258
 H471 H 0.65906 0.19516 0.94321
 H472 H 0.54689 0.22339 0.92767
   
