data_POSCAR
  _audit_creation_date              2014-09-24
  _audit_creation_method            'ToBaCCo'
  _symmetry_space_group_name_H-M    'P1'
  _symmetry_Int_Tables_number       1
  _symmetry_cell_setting            triclinic
  loop_
  _symmetry_equiv_pos_as_xyz
 x,y,z
_cell_length_a 38.1008
_cell_length_b 39.5676
_cell_length_c 21.3404
_cell_angle_alpha 89.837300
_cell_angle_beta 90.125900
_cell_angle_gamma 119.009000
loop_
  _atom_site_label
  _atom_site_type_symbol
  _atom_site_fract_x
  _atom_site_fract_y
  _atom_site_fract_z
O1 O 0.44916 0.96226 0.55695
 O2 O 0.49079 1.03768 0.43538
 O3 O 0.45389 0.96235 0.43531
 O4 O 0.48744 1.03745 0.55729
 O5 O 0.54536 1.03772 0.56379
 O6 O 0.51189 0.96280 0.44203
 O7 O 0.54865 1.03795 0.44189
 O8 O 0.50700 0.96240 0.56364
 Cu9 Cu 0.46453 0.99992 0.49560
 Cu10 Cu 0.53403 1.00026 0.50347
 C11 C 0.47084 0.94937 0.58109
 C12 C 0.52691 1.05082 0.41766
 C13 C 0.47723 0.94969 0.41785
 C14 C 0.52213 1.05043 0.58144
 O15 O -0.04292 0.50339 0.56453
 O16 O 0.03556 0.54797 0.44381
 O17 O -0.04204 0.50565 0.44272
 O18 O 0.03462 0.54695 0.56536
 O19 O 0.04165 0.49486 0.56439
 O20 O -0.03574 0.45312 0.44032
 O21 O 0.04230 0.49567 0.44211
 O22 O -0.03610 0.45120 0.56253
 Cu23 Cu -0.00439 0.53117 0.50425
 Cu24 Cu 0.00370 0.46846 0.50217
 C25 C -0.05300 0.46956 0.58435
 C26 C 0.05241 0.52947 0.42236
 C27 C -0.05211 0.47248 0.42037
 C28 C 0.05142 0.52821 0.58611
 O29 O 0.51462 0.54939 0.55960
 O30 O 0.54813 0.50416 0.44012
 O31 O 0.51473 0.54775 0.43780
 O32 O 0.54945 0.50684 0.56184
 O33 O 0.49038 0.45426 0.56435
 O34 O 0.45482 0.49609 0.44046
 O35 O 0.48842 0.45224 0.44218
 O36 O 0.45534 0.49696 0.56258
 Cu37 Cu 0.53766 0.53224 0.49972
 Cu38 Cu 0.46626 0.46964 0.50265
 C39 C 0.47924 0.53091 0.58154
 C40 C 0.52386 0.47044 0.42050
 C41 C 0.47893 0.52910 0.41780
 C42 C 0.52624 0.47359 0.58435
 O43 O 0.39441 0.67613 -0.07559
 O44 O 0.39467 0.74108 -0.05354
 C45 C 0.36830 0.74568 -0.08336
 O46 O 0.33128 0.72710 -0.07006
 O47 O 0.26509 0.66341 -0.04628
 C48 C 0.25990 0.63444 -0.07884
 O49 O 0.27996 0.61701 -0.06999
 O50 O 0.34738 0.61580 -0.05410
 C51 C 0.37690 0.64017 -0.08656
 O52 O 0.39933 0.66495 0.04825
 O53 O 0.39602 0.72794 0.07060
 C54 C 0.37723 0.74605 0.08357
 O55 O 0.34606 0.74086 0.05372
 O56 O 0.28192 0.67522 0.07703
 C57 C 0.26367 0.63924 0.08813
 O58 O 0.26887 0.61512 0.05544
 O59 O 0.33806 0.61731 0.07108
 C60 C 0.37560 0.63563 0.08058
 Cr61 Cr 0.39397 0.70147 -0.00249
 Cr62 Cr 0.30720 0.70062 0.00349
 Cr63 Cr 0.30958 0.61837 0.00060
 O64 O 0.33694 0.67348 0.00054
 O65 O 0.60133 0.33518 -0.05128
 O66 O 0.60440 0.27165 -0.07125
 C67 C 0.62318 0.25335 -0.08295
 O68 O 0.65382 0.25820 -0.05169
 O69 O 0.71897 0.32351 -0.07218
 C70 C 0.73761 0.35948 -0.08300
 O71 O 0.73211 0.38354 -0.05080
 O72 O 0.66370 0.38132 -0.07224
 C73 C 0.62638 0.36394 -0.08359
 O74 O 0.60379 0.32346 0.07349
 O75 O 0.60309 0.25813 0.05323
 C76 C 0.62884 0.25329 0.08454
 O77 O 0.66606 0.27160 0.07275
 O78 O 0.73311 0.33510 0.05256
 C79 C 0.73703 0.36384 0.08472
 O80 O 0.71729 0.38127 0.07322
 O81 O 0.65112 0.38350 0.05179
 C82 C 0.62142 0.35942 0.08418
 Cr83 Cr 0.60525 0.29811 0.00104
 Cr84 Cr 0.69190 0.29810 0.00036
 Cr85 Cr 0.69004 0.38040 0.00049
 O86 O 0.66237 0.32549 0.00062
 C87 C 0.42177 0.86095 -0.27859
 C88 C 0.39841 0.87667 -0.30270
 C89 C 0.41441 0.90541 -0.34852
 C90 C 0.45372 0.91891 -0.37021
 C91 C 0.47627 0.90286 -0.34439
 N92 N 0.45999 0.87478 -0.29988
 C93 C 0.40661 0.83054 -0.22951
 N94 N 0.43356 0.82534 -0.19453
 C95 C 0.42217 0.79835 -0.14828
 C96 C 0.38131 0.77450 -0.13474
 C97 C 0.35298 0.77890 -0.17095
 C98 C 0.36541 0.80663 -0.21838
 H99 H 0.39605 0.91724 -0.36662
 H100 H 0.50678 0.91251 -0.35951
 H101 H 0.44509 0.79585 -0.12188
 H102 H 0.32112 0.76083 -0.16280
 H103 H 0.36842 0.86766 -0.28588
 H104 H 0.34278 0.80867 -0.24623
 C105 C 0.13882 0.57696 -0.27201
 C106 C 0.12118 0.59806 -0.29693
 C107 C 0.09222 0.58182 -0.34376
 C108 C 0.08078 0.54463 -0.36683
 C109 C 0.09972 0.52476 -0.34142
 N110 N 0.12777 0.54118 -0.29545
 C111 C 0.16961 0.59268 -0.22183
 N112 N 0.19418 0.57702 -0.21318
 C113 C 0.22308 0.58977 -0.16816
 C114 C 0.22860 0.62013 -0.12821
 C115 C 0.20335 0.63643 -0.13588
 C116 C 0.17380 0.62273 -0.18216
 H117 H 0.07902 0.59868 -0.36206
 H118 H 0.09225 0.49615 -0.35771
 H119 H 0.24173 0.57620 -0.16381
 H120 H 0.20614 0.65958 -0.10573
 H121 H 0.12990 0.62708 -0.28161
 H122 H 0.15419 0.63525 -0.18559
 C123 C 0.43899 0.58270 -0.28050
 C124 C 0.47833 0.60341 -0.30388
 C125 C 0.49146 0.58656 -0.34891
 C126 C 0.46571 0.54906 -0.37057
 C127 C 0.42680 0.52917 -0.34553
 N128 N 0.41468 0.54620 -0.30173
 C129 C 0.42341 0.59880 -0.23212
 N130 N 0.39166 0.57401 -0.19639
 C131 C 0.37594 0.58642 -0.15050
 C132 C 0.39236 0.62608 -0.13819
 C133 C 0.42456 0.65218 -0.17538
 C134 C 0.44003 0.63874 -0.22235
 H135 H 0.52184 0.60284 -0.36648
 H136 H 0.40597 0.50012 -0.36063
 H137 H 0.35094 0.56524 -0.12334
 H138 H 0.43794 0.68306 -0.16815
 H139 H 0.49920 0.63197 -0.28701
 H140 H 0.46435 0.65961 -0.25088
 C141 C 0.56192 0.13812 -0.27760
 C142 C 0.52276 0.12253 -0.30173
 C143 C 0.50984 0.09401 -0.34774
 C144 C 0.53556 0.08060 -0.36958
 C145 C 0.57422 0.09644 -0.34359
 N146 N 0.58620 0.12432 -0.29892
 C147 C 0.57732 0.16852 -0.22872
 N148 N 0.60885 0.17324 -0.19242
 C149 C 0.62436 0.20025 -0.14626
 C150 C 0.60790 0.22458 -0.13430
 C151 C 0.57592 0.22069 -0.17205
 C152 C 0.56073 0.19298 -0.21926
 H153 H 0.47961 0.08232 -0.36590
 H154 H 0.59499 0.08680 -0.35877
 H155 H 0.64920 0.20238 -0.11864
 H156 H 0.56258 0.23914 -0.16526
 H157 H 0.50186 0.13153 -0.28480
 H158 H 0.53668 0.19136 -0.24828
 C159 C 0.85728 0.41838 -0.27783
 C160 C 0.87615 0.39809 -0.30117
 C161 C 0.90578 0.41500 -0.34691
 C162 C 0.91714 0.45232 -0.36954
 C163 C 0.89781 0.47181 -0.34431
 N164 N 0.86896 0.45464 -0.29978
 C165 C 0.82582 0.40199 -0.22884
 N166 N 0.81872 0.42648 -0.19302
 C167 C 0.79067 0.41371 -0.14676
 C168 C 0.76763 0.37399 -0.13420
 C169 C 0.77395 0.34820 -0.17135
 C170 C 0.80276 0.36199 -0.21868
 H171 H 0.91991 0.39880 -0.36417
 H172 H 0.90552 0.50067 -0.35977
 H173 H 0.78665 0.43466 -0.11966
 H174 H 0.75657 0.31729 -0.16399
 H175 H 0.86889 0.36976 -0.28373
 H176 H 0.80629 0.34133 -0.24727
 C177 C 0.57041 0.42759 -0.27777
 C178 C 0.59500 0.46500 -0.30109
 C179 C 0.58024 0.48013 -0.34652
 C180 C 0.54072 0.45842 -0.36886
 C181 C 0.51669 0.42139 -0.34310
 N182 N 0.53193 0.40716 -0.29889
 C183 C 0.58530 0.41031 -0.22999
 N184 N 0.55880 0.38258 -0.19048
 C185 C 0.57087 0.36662 -0.14432
 C186 C 0.61186 0.37880 -0.13564
 C187 C 0.63943 0.40647 -0.17712
 C188 C 0.62634 0.42202 -0.22434
 H189 H 0.59998 0.50900 -0.36391
 H190 H 0.48595 0.40360 -0.35826
 H191 H 0.54855 0.34509 -0.11376
 H192 H 0.67127 0.41623 -0.17313
 H193 H 0.62522 0.48290 -0.28397
 H194 H 0.64832 0.44277 -0.25619
 C195 C 0.85652 0.42652 0.27947
 C196 C 0.87055 0.46433 0.30155
 C197 C 0.90033 0.47912 0.34724
 C198 C 0.91672 0.45668 0.37093
 C199 C 0.90263 0.41933 0.34665
 N200 N 0.87331 0.40539 0.30212
 C201 C 0.82444 0.40961 0.23145
 N202 N 0.82245 0.38134 0.19286
 C203 C 0.79445 0.36563 0.14655
 C204 C 0.76644 0.37859 0.13680
 C205 C 0.76733 0.40687 0.17733
 C206 C 0.79594 0.42219 0.22468
 H207 H 0.91060 0.50827 0.36385
 H208 H 0.91467 0.40115 0.36326
 H209 H 0.79461 0.34360 0.11678
 H210 H 0.74590 0.41728 0.17249
 H211 H 0.85925 0.48273 0.28325
 H212 H 0.79534 0.44343 0.25577
 C213 C 0.57436 0.13773 0.27940
 C214 C 0.59832 0.12297 0.30455
 C215 C 0.58264 0.09426 0.35042
 C216 C 0.54291 0.07967 0.37126
 C217 C 0.51974 0.09480 0.34405
 N218 N 0.53580 0.12291 0.29957
 C219 C 0.58946 0.16831 0.23060
 N220 N 0.56261 0.17242 0.19347
 C221 C 0.57423 0.19951 0.14725
 C222 C 0.61517 0.22451 0.13606
 C223 C 0.64327 0.22127 0.17469
 C224 C 0.63063 0.19351 0.22198
 H225 H 0.60171 0.08339 0.36917
 H226 H 0.48890 0.08446 0.35807
 H227 H 0.55149 0.20112 0.11892
 H228 H 0.67516 0.24028 0.16854
 H229 H 0.62864 0.13278 0.28853
 H230 H 0.65307 0.19240 0.25168
 C231 C 0.56193 0.41823 0.27999
 C232 C 0.52260 0.39810 0.30355
 C233 C 0.51029 0.41508 0.34951
 C234 C 0.53683 0.45217 0.37197
 C235 C 0.57572 0.47151 0.34678
 N236 N 0.58705 0.45435 0.30202
 C237 C 0.57659 0.40185 0.23067
 N238 N 0.60842 0.42633 0.19480
 C239 C 0.62340 0.41358 0.14828
 C240 C 0.60614 0.37389 0.13551
 C241 C 0.57375 0.34810 0.17267
 C242 C 0.55903 0.36187 0.22025
 H243 H 0.47988 0.39924 0.36711
 H244 H 0.59712 0.50025 0.36245
 H245 H 0.64861 0.43452 0.12119
 H246 H 0.55976 0.31721 0.16513
 H247 H 0.50112 0.36991 0.28609
 H248 H 0.53461 0.34121 0.24884
 C249 C 0.14439 0.58103 0.28339
 C250 C 0.12578 0.60166 0.30650
 C251 C 0.09584 0.58486 0.35185
 C252 C 0.08408 0.54749 0.37412
 C253 C 0.10305 0.52765 0.34931
 N254 N 0.13218 0.54463 0.30516
 C255 C 0.17607 0.59721 0.23476
 N256 N 0.18269 0.57255 0.19859
 C257 C 0.21076 0.58515 0.15235
 C258 C 0.23424 0.62486 0.14015
 C259 C 0.22852 0.65081 0.17787
 C260 C 0.19971 0.63719 0.22518
 H261 H 0.08177 0.60110 0.36920
 H262 H 0.09478 0.49869 0.36487
 H263 H 0.21430 0.56408 0.12479
 H264 H 0.24624 0.68172 0.17079
 H265 H 0.13348 0.63012 0.28917
 H266 H 0.19655 0.65794 0.25410
 C267 C 0.43837 0.86160 0.27769
 C268 C 0.47761 0.87778 0.30164
 C269 C 0.49019 0.90643 0.34737
 C270 C 0.46407 0.91940 0.36912
 C271 C 0.42532 0.90295 0.34338
 N272 N 0.41368 0.87495 0.29897
 C273 C 0.42329 0.83117 0.22886
 N274 N 0.39103 0.82557 0.19370
 C275 C 0.37559 0.79851 0.14768
 C276 C 0.39286 0.77499 0.13462
 C277 C 0.42569 0.77980 0.17104
 C278 C 0.44082 0.80759 0.21820
 H279 H 0.52050 0.91859 0.36538
 H280 H 0.40424 0.91220 0.35854
 H281 H 0.35008 0.79567 0.12110
 H282 H 0.43967 0.76199 0.16328
 H283 H 0.49883 0.86917 0.28480
 H284 H 0.46555 0.80993 0.24625
 C285 C 0.44031 0.57924 0.27370
 C286 C 0.48128 0.59600 0.28903
 C287 C 0.49365 0.57961 0.33608
 C288 C 0.46563 0.54626 0.36767
 C289 C 0.42511 0.52995 0.35042
 N290 N 0.41369 0.54665 0.30470
 C291 C 0.42498 0.59527 0.22424
 N292 N 0.38629 0.57363 0.20462
 C293 C 0.36980 0.58590 0.15947
 C294 C 0.39275 0.62203 0.13064
 C295 C 0.43252 0.64504 0.15048
 C296 C 0.44864 0.63200 0.19733
 H297 H 0.52531 0.59294 0.34732
 H298 H 0.40250 0.50417 0.37346
 H299 H 0.33894 0.56722 0.14580
 H300 H 0.45117 0.67334 0.13018
 H301 H 0.50399 0.62111 0.26498
 H302 H 0.47908 0.65102 0.21214
   
