data_POSCAR
  _audit_creation_date              2014-09-24
  _audit_creation_method            'ToBaCCo'
  _symmetry_space_group_name_H-M    'P1'
  _symmetry_Int_Tables_number       1
  _symmetry_cell_setting            triclinic
  loop_
  _symmetry_equiv_pos_as_xyz
 x,y,z
_cell_length_a 42.0871
_cell_length_b 41.9657
_cell_length_c 42.0633
_cell_angle_alpha 89.981500
_cell_angle_beta 90.016900
_cell_angle_gamma 89.913700
loop_
  _atom_site_label
  _atom_site_type_symbol
  _atom_site_fract_x
  _atom_site_fract_y
  _atom_site_fract_z
C1 C 0.27410 0.24999 0.22599
 C2 C 0.25030 0.27350 0.22606
 C3 C 0.22652 0.27370 0.24950
 C4 C 0.22675 0.24997 0.27307
 C5 C 0.25034 0.22626 0.27341
 C6 C 0.27391 0.22647 0.24977
 H7 H 0.25028 0.29171 0.20781
 H8 H 0.20900 0.25047 0.29170
 H9 H 0.29168 0.20778 0.24937
 C10 C 0.72564 -0.24984 0.22574
 C11 C 0.72620 -0.22626 0.24962
 C12 C 0.74977 -0.22603 0.27316
 C13 C 0.77331 -0.24969 0.27302
 C14 C 0.77377 -0.27381 0.24966
 C15 C 0.74972 -0.27336 0.22619
 H16 H 0.70734 -0.20881 0.25127
 H17 H 0.79071 -0.24952 0.29192
 H18 H 0.75132 -0.28986 0.20657
 C19 C 0.72635 0.25079 0.77347
 C20 C 0.75005 0.27434 0.77335
 C21 C 0.77418 0.27473 0.74997
 C22 C 0.77371 0.25059 0.72654
 C23 C 0.75015 0.22691 0.72632
 C24 C 0.72660 0.22723 0.74987
 H25 H 0.74986 0.29177 0.79226
 H26 H 0.79058 0.25090 0.70716
 H27 H 0.70885 0.20856 0.75033
 C28 C 0.27356 -0.25045 0.77415
 C29 C 0.27335 -0.22691 0.75051
 C30 C 0.24982 -0.22660 0.72693
 C31 C 0.22620 -0.25022 0.72717
 C32 C 0.22570 -0.27434 0.75064
 C33 C 0.24981 -0.27394 0.77405
 H34 H 0.29207 -0.20922 0.74997
 H35 H 0.20879 -0.24999 0.70828
 H36 H 0.24943 -0.29080 0.79349
 C37 C 0.72618 -0.24990 0.77430
 C38 C 0.72612 -0.22654 0.75048
 C39 C 0.74942 -0.22644 0.72669
 C40 C 0.77305 -0.25011 0.72689
 C41 C 0.77385 -0.27403 0.75055
 C42 C 0.74999 -0.27340 0.77420
 H43 H 0.70736 -0.20884 0.75000
 H44 H 0.79177 -0.24853 0.70935
 H45 H 0.74907 -0.29165 0.79231
 C46 C 0.27392 0.24985 0.77384
 C47 C 0.25009 0.27333 0.77376
 C48 C 0.22631 0.27350 0.75032
 C49 C 0.22656 0.24979 0.72675
 C50 C 0.25018 0.22611 0.72642
 C51 C 0.27375 0.22634 0.75007
 H52 H 0.25006 0.29153 0.79201
 H53 H 0.20880 0.25027 0.70812
 H54 H 0.29156 0.20767 0.75047
 C55 C 0.27451 -0.25041 0.22569
 C56 C 0.27394 -0.22684 0.24969
 C57 C 0.25041 -0.22664 0.27336
 C58 C 0.22699 -0.25033 0.27319
 C59 C 0.22683 -0.27405 0.24975
 C60 C 0.25054 -0.27397 0.22625
 H61 H 0.29276 -0.20939 0.25132
 H62 H 0.20830 -0.24983 0.29089
 H63 H 0.24945 -0.29200 0.20795
 C64 C 0.72651 0.25013 0.22596
 C65 C 0.75023 0.27363 0.22610
 C66 C 0.77395 0.27384 0.24960
 C67 C 0.77373 0.25013 0.27318
 C68 C 0.75021 0.22641 0.27345
 C69 C 0.72671 0.22661 0.24974
 H70 H 0.75072 0.29134 0.20736
 H71 H 0.79144 0.25062 0.29187
 H72 H 0.70849 0.20841 0.24979
 O73 O 0.27679 0.03067 0.46901
 O74 O 0.27690 -0.03139 0.53098
 O75 O 0.27686 -0.03140 0.46905
 O76 O 0.27682 0.03067 0.53093
 O77 O 0.22427 0.03068 0.53094
 O78 O 0.22431 -0.03139 0.46907
 O79 O 0.22436 -0.03137 0.53099
 O80 O 0.22424 0.03068 0.46902
 Cu81 Cu 0.28215 -0.00037 0.49999
 Cu82 Cu 0.21900 -0.00035 0.50000
 C83 C 0.25050 0.04115 0.45855
 C84 C 0.25065 -0.04185 0.54146
 C85 C 0.25059 -0.04187 0.45861
 C86 C 0.25053 0.04116 0.54138
 O87 O 0.72311 0.03124 0.53107
 O88 O 0.72287 -0.03082 0.46914
 O89 O 0.72286 -0.03083 0.53107
 O90 O 0.72314 0.03124 0.46915
 O91 O 0.77569 0.03095 0.46919
 O92 O 0.77541 -0.03112 0.53110
 O93 O 0.77542 -0.03111 0.46917
 O94 O 0.77565 0.03094 0.53110
 Cu95 Cu 0.71769 0.00023 0.50010
 Cu96 Cu 0.78084 -0.00012 0.50014
 C97 C 0.74942 0.04157 0.54153
 C98 C 0.74910 -0.04143 0.45869
 C99 C 0.74909 -0.04145 0.54154
 C100 C 0.74946 0.04157 0.45872
 O101 O 0.46931 0.27603 0.03079
 O102 O 0.53114 0.27614 -0.03119
 O103 O 0.46926 0.27604 -0.03113
 O104 O 0.53120 0.27613 0.03073
 O105 O 0.53136 0.22343 0.03074
 O106 O 0.46942 0.22334 -0.03112
 O107 O 0.53131 0.22344 -0.03118
 O108 O 0.46947 0.22334 0.03080
 Cu109 Cu 0.50021 0.28140 -0.00020
 Cu110 Cu 0.50041 0.21807 -0.00019
 C111 C 0.45895 0.24967 0.04125
 C112 C 0.54166 0.24981 -0.04164
 C113 C 0.45888 0.24967 -0.04157
 C114 C 0.54174 0.24979 0.04117
 O115 O 0.53104 0.72350 0.03127
 O116 O 0.46908 0.72335 -0.03062
 O117 O 0.53097 0.72352 -0.03066
 O118 O 0.46915 0.72337 0.03130
 O119 O 0.46895 0.77607 0.03128
 O120 O 0.53076 0.77622 -0.03067
 O121 O 0.46887 0.77605 -0.03064
 O122 O 0.53083 0.77620 0.03126
 Cu123 Cu 0.50008 0.71812 0.00032
 Cu124 Cu 0.49983 0.78145 0.00031
 C125 C 0.54139 0.74988 0.04171
 C126 C 0.45852 0.74968 -0.04107
 C127 C 0.54129 0.74990 -0.04113
 C128 C 0.45862 0.74969 0.04175
 O129 O 0.03088 0.46934 0.27560
 O130 O -0.03111 0.53142 0.27562
 O131 O -0.03100 0.46935 0.27559
 O132 O 0.03078 0.53140 0.27566
 O133 O 0.03079 0.53146 0.22308
 O134 O -0.03100 0.46940 0.22302
 O135 O -0.03111 0.53147 0.22304
 O136 O 0.03088 0.46939 0.22302
 Cu137 Cu -0.00011 0.50038 0.28092
 Cu138 Cu -0.00011 0.50044 0.21773
 C139 C 0.04135 0.45889 0.24930
 C140 C -0.04158 0.54191 0.24933
 C141 C -0.04143 0.45890 0.24930
 C142 C 0.04122 0.54189 0.24938
 O143 O 0.03089 0.53131 0.72432
 O144 O -0.03103 0.46934 0.72404
 O145 O -0.03101 0.53141 0.72419
 O146 O 0.03086 0.46924 0.72415
 O147 O 0.03077 0.46909 0.77672
 O148 O -0.03109 0.53125 0.77677
 O149 O -0.03111 0.46919 0.77661
 O150 O 0.03080 0.53115 0.77690
 Cu151 Cu -0.00006 0.50034 0.71887
 Cu152 Cu -0.00016 0.50016 0.78206
 C153 C 0.04130 0.54168 0.75066
 C154 C -0.04152 0.45881 0.75028
 C155 C -0.04149 0.54182 0.75049
 C156 C 0.04126 0.45868 0.75043
 C157 C 0.31480 0.25626 0.14568
 C158 C 0.34641 0.24973 0.15377
 C159 C 0.35440 0.24327 0.18542
 C160 C 0.33091 0.24333 0.20891
 C161 C 0.29906 0.24989 0.20103
 C162 C 0.29127 0.25636 0.16913
 C163 C 0.37062 0.24968 0.12960
 C164 C 0.39089 0.24965 0.10935
 C165 C 0.41461 0.24963 0.08563
 C166 C 0.43486 0.24964 0.06537
 H167 H 0.30834 0.26121 0.12124
 H168 H 0.37881 0.23826 0.19195
 H169 H 0.33770 0.23865 0.23330
 H170 H 0.26692 0.26107 0.16226
 C171 C 0.66250 0.77850 0.16922
 C172 C 0.65395 0.75007 0.15429
 C173 C 0.66899 0.72167 0.16291
 C174 C 0.69254 0.72162 0.18634
 C175 C 0.70165 0.75014 0.20183
 C176 C 0.68600 0.77862 0.19272
 C177 C 0.62974 0.75003 0.13010
 C178 C 0.60947 0.75000 0.10984
 C179 C 0.58576 0.74995 0.08609
 C180 C 0.56550 0.74993 0.06583
 H181 H 0.65117 0.80071 0.16253
 H182 H 0.66233 0.69943 0.15167
 H183 H 0.70252 0.69881 0.19299
 H184 H 0.69258 0.80146 0.20260
 C185 C 0.64606 0.24438 -0.18594
 C186 C 0.65415 0.25026 -0.15421
 C187 C 0.68582 0.25629 -0.14606
 C188 C 0.70933 0.25647 -0.16954
 C189 C 0.70144 0.25062 -0.20152
 C190 C 0.66953 0.24453 -0.20946
 C191 C 0.62996 0.25012 -0.13002
 C192 C 0.60971 0.25002 -0.10976
 C193 C 0.58600 0.24993 -0.08603
 C194 C 0.56575 0.24986 -0.06577
 H195 H 0.62161 0.23976 -0.19252
 H196 H 0.69236 0.26077 -0.12156
 H197 H 0.73373 0.26077 -0.16263
 H198 H 0.66270 0.24028 -0.23391
 C199 C 0.33190 0.77823 -0.16322
 C200 C 0.34587 0.74954 -0.15356
 C201 C 0.33624 0.72085 -0.16749
 C202 C 0.31273 0.72082 -0.19098
 C203 C 0.29854 0.74955 -0.20087
 C204 C 0.30840 0.77827 -0.18672
 C205 C 0.37008 0.74953 -0.12938
 C206 C 0.39036 0.74954 -0.10913
 C207 C 0.41411 0.74957 -0.08542
 C208 C 0.43439 0.74961 -0.06517
 H209 H 0.33911 0.80057 -0.15254
 H210 H 0.34696 0.69850 -0.16025
 H211 H 0.30593 0.69839 -0.20169
 H212 H 0.29764 0.80071 -0.19354
 C213 C 0.18570 0.35419 0.24284
 C214 C 0.15411 0.34613 0.24938
 C215 C 0.14617 0.31444 0.25597
 C216 C 0.16970 0.29088 0.25603
 C217 C 0.20152 0.29873 0.24946
 C218 C 0.20926 0.33067 0.24286
 C219 C 0.12987 0.37037 0.24932
 C220 C 0.10956 0.39066 0.24930
 C221 C 0.08579 0.41442 0.24928
 C222 C 0.06549 0.43472 0.24929
 H223 H 0.19213 0.37866 0.23780
 H224 H 0.12178 0.30792 0.26098
 H225 H 0.16294 0.26646 0.26080
 H226 H 0.23360 0.33753 0.23814
 C227 C 0.14795 0.68390 0.73721
 C228 C 0.15397 0.65420 0.75092
 C229 C 0.18359 0.64805 0.76459
 C230 C 0.20717 0.67148 0.76458
 C231 C 0.20167 0.70178 0.75077
 C232 C 0.17143 0.70743 0.73707
 C233 C 0.12975 0.63001 0.75093
 C234 C 0.10947 0.60975 0.75090
 C235 C 0.08572 0.58604 0.75084
 C236 C 0.06543 0.56579 0.75076
 H237 H 0.12495 0.68902 0.72679
 H238 H 0.18861 0.62499 0.77505
 H239 H 0.23006 0.66503 0.77433
 H240 H 0.16505 0.73038 0.72730
 C241 C -0.14837 0.68436 0.26295
 C242 C -0.15444 0.65459 0.24945
 C243 C -0.18414 0.64842 0.23602
 C244 C -0.20774 0.67190 0.23602
 C245 C -0.20217 0.70227 0.24957
 C246 C -0.17187 0.70793 0.26308
 C247 C -0.13018 0.63036 0.24940
 C248 C -0.10986 0.61009 0.24936
 C249 C -0.08606 0.58634 0.24934
 C250 C -0.06575 0.56606 0.24933
 H251 H -0.12531 0.68949 0.27319
 H252 H -0.18920 0.62531 0.22573
 H253 H -0.23070 0.66546 0.22645
 H254 H -0.16547 0.73093 0.27268
 C255 C -0.14816 0.31653 0.73630
 C256 C -0.15416 0.34626 0.74995
 C257 C -0.18378 0.35245 0.76357
 C258 C -0.20736 0.32903 0.76364
 C259 C -0.20187 0.29869 0.74994
 C260 C -0.17165 0.29302 0.73623
 C261 C -0.12992 0.37043 0.74998
 C262 C -0.10964 0.39068 0.75003
 C263 C -0.08590 0.41441 0.75010
 C264 C -0.06563 0.43468 0.75017
 H265 H -0.12517 0.31139 0.72591
 H266 H -0.18878 0.37554 0.77398
 H267 H -0.23024 0.33555 0.77334
 H268 H -0.16532 0.27003 0.72650
 C269 C 0.22178 0.16357 0.33187
 C270 C 0.25039 0.15391 0.34586
 C271 C 0.27898 0.16786 0.33620
 C272 C 0.27900 0.19137 0.31265
 C273 C 0.25036 0.20127 0.29844
 C274 C 0.22173 0.18710 0.30833
 C275 C 0.25039 0.12969 0.37011
 C276 C 0.25040 0.10940 0.39040
 C277 C 0.25042 0.08562 0.41415
 C278 C 0.25045 0.06532 0.43442
 H279 H 0.19951 0.15287 0.33911
 H280 H 0.30126 0.16061 0.34693
 H281 H 0.30137 0.20211 0.30584
 H282 H 0.19936 0.19391 0.29756
 C283 C 0.72135 0.16869 0.66355
 C284 C 0.74990 0.15449 0.65399
 C285 C 0.77853 0.16395 0.66801
 C286 C 0.77864 0.18751 0.69151
 C287 C 0.75006 0.20191 0.70131
 C288 C 0.72140 0.19223 0.68706
 C289 C 0.74980 0.13022 0.62981
 C290 C 0.74971 0.10990 0.60956
 C291 C 0.74959 0.08608 0.58587
 C292 C 0.74951 0.06575 0.56563
 H293 H 0.69906 0.16161 0.65279
 H294 H 0.80075 0.15306 0.66084
 H295 H 0.80102 0.19417 0.70231
 H296 H 0.69907 0.20316 0.69380
 C297 C 0.25651 -0.14624 0.68603
 C298 C 0.25050 -0.15442 0.65434
 C299 C 0.24435 -0.18618 0.64632
 C300 C 0.24414 -0.20968 0.66989
 C301 C 0.25009 -0.20169 0.70183
 C302 C 0.25633 -0.16970 0.70963
 C303 C 0.25061 -0.13023 0.63006
 C304 C 0.25066 -0.10997 0.60973
 C305 C 0.25069 -0.08625 0.58593
 C306 C 0.25069 -0.06598 0.56562
 H307 H 0.26123 -0.12171 0.69251
 H308 H 0.23977 -0.19279 0.62185
 H309 H 0.23972 -0.23416 0.66308
 H310 H 0.26067 -0.16279 0.73405
 C311 C 0.75506 -0.18576 0.35384
 C312 C 0.74907 -0.15395 0.34582
 C313 C 0.74322 -0.14569 0.31411
 C314 C 0.74340 -0.16912 0.29050
 C315 C 0.74948 -0.20116 0.29830
 C316 C 0.75526 -0.20924 0.33026
 C317 C 0.74899 -0.12978 0.37010
 C318 C 0.74896 -0.10954 0.39043
 C319 C 0.74898 -0.08583 0.41423
 C320 C 0.74902 -0.06556 0.43454
 H321 H 0.75951 -0.19244 0.37833
 H322 H 0.73862 -0.12112 0.30763
 H323 H 0.73918 -0.16215 0.26606
 H324 H 0.75956 -0.23375 0.33707
 C325 C 0.66301 0.72148 -0.16800
 C326 C 0.65373 0.75011 -0.15368
 C327 C 0.66804 0.77873 -0.16291
 C328 C 0.69158 0.77874 -0.18635
 C329 C 0.70113 0.75008 -0.20085
 C330 C 0.68656 0.72143 -0.19144
 C331 C 0.62954 0.75010 -0.12951
 C332 C 0.60929 0.75007 -0.10925
 C333 C 0.58559 0.75002 -0.08553
 C334 C 0.56536 0.74996 -0.06526
 H335 H 0.65201 0.69920 -0.16111
 H336 H 0.66108 0.80102 -0.15192
 H337 H 0.70261 0.80111 -0.19287
 H338 H 0.69308 0.69906 -0.20249
 C339 C 0.31464 0.25612 -0.14587
 C340 C 0.34625 0.24968 -0.15397
 C341 C 0.35424 0.24327 -0.18562
 C342 C 0.33074 0.24330 -0.20911
 C343 C 0.29888 0.24978 -0.20122
 C344 C 0.29109 0.25618 -0.16932
 C345 C 0.37046 0.24964 -0.12981
 C346 C 0.39074 0.24962 -0.10958
 C347 C 0.41449 0.24962 -0.08589
 C348 C 0.43476 0.24963 -0.06565
 H349 H 0.30817 0.26101 -0.12142
 H350 H 0.37866 0.23833 -0.19216
 H351 H 0.33752 0.23867 -0.23350
 H352 H 0.26673 0.26083 -0.16244
 C353 C 0.33754 0.77797 0.16926
 C354 C 0.34617 0.74956 0.15429
 C355 C 0.33123 0.72114 0.16285
 C356 C 0.30769 0.72105 0.18628
 C357 C 0.29851 0.74955 0.20183
 C358 C 0.31405 0.77804 0.19274
 C359 C 0.37037 0.74956 0.13012
 C360 C 0.39062 0.74957 0.10987
 C361 C 0.41432 0.74960 0.08614
 C362 C 0.43455 0.74963 0.06588
 H363 H 0.34879 0.80019 0.16260
 H364 H 0.33796 0.69892 0.15158
 H365 H 0.29783 0.69822 0.19287
 H366 H 0.30739 0.80087 0.20264
 C367 C 0.66391 0.27871 0.16753
 C368 C 0.65438 0.25001 0.15357
 C369 C 0.66842 0.22134 0.16321
 C370 C 0.69189 0.22134 0.18673
 C371 C 0.70163 0.25008 0.20093
 C372 C 0.68739 0.27878 0.19104
 C373 C 0.63018 0.24997 0.12939
 C374 C 0.60991 0.24992 0.10915
 C375 C 0.58616 0.24986 0.08547
 C376 C 0.56587 0.24982 0.06525
 H377 H 0.65314 0.30104 0.16030
 H378 H 0.66128 0.19900 0.15249
 H379 H 0.70270 0.19893 0.19353
 H380 H 0.69411 0.30122 0.20180
 C381 C -0.16305 0.66939 0.72218
 C382 C -0.15422 0.65454 0.75055
 C383 C -0.16905 0.66325 0.77894
 C384 C -0.19268 0.68669 0.77904
 C385 C -0.20206 0.70210 0.75058
 C386 C -0.18662 0.69288 0.72211
 C387 C -0.12995 0.63035 0.75053
 C388 C -0.10964 0.61007 0.75052
 C389 C -0.08588 0.58631 0.75051
 C390 C -0.06561 0.56600 0.75050
 H391 H -0.15188 0.66262 0.69997
 H392 H -0.16218 0.65207 0.80113
 H393 H -0.20244 0.69339 0.80185
 H394 H -0.19343 0.70268 0.69932
 C395 C -0.18537 0.35422 0.24264
 C396 C -0.15380 0.34617 0.24941
 C397 C -0.14581 0.31452 0.25624
 C398 C -0.16929 0.29098 0.25632
 C399 C -0.20110 0.29882 0.24954
 C400 C -0.20888 0.33072 0.24269
 C401 C -0.12963 0.37038 0.24935
 C402 C -0.10939 0.39067 0.24932
 C403 C -0.08571 0.41443 0.24929
 C404 C -0.06549 0.43474 0.24928
 H405 H -0.19182 0.37866 0.23741
 H406 H -0.12143 0.30801 0.26143
 H407 H -0.16250 0.26658 0.26128
 H408 H -0.23321 0.33756 0.23778
 C409 C 0.18547 0.35395 0.75688
 C410 C 0.15389 0.34586 0.75036
 C411 C 0.14595 0.31417 0.74382
 C412 C 0.16948 0.29062 0.74379
 C413 C 0.20131 0.29850 0.75033
 C414 C 0.20904 0.33045 0.75688
 C415 C 0.12965 0.37008 0.75037
 C416 C 0.10936 0.39038 0.75038
 C417 C 0.08562 0.41416 0.75040
 C418 C 0.06536 0.43448 0.75041
 H419 H 0.19189 0.37844 0.76188
 H420 H 0.12155 0.30764 0.73883
 H421 H 0.16274 0.26619 0.73905
 H422 H 0.23338 0.33732 0.76158
 C423 C 0.16325 0.66866 0.22108
 C424 C 0.15401 0.65421 0.24960
 C425 C 0.16849 0.66322 0.27816
 C426 C 0.19215 0.68657 0.27822
 C427 C 0.20165 0.70119 0.24967
 C428 C 0.18691 0.69200 0.22108
 C429 C 0.12971 0.63013 0.24954
 C430 C 0.10938 0.60993 0.24950
 C431 C 0.08560 0.58626 0.24945
 C432 C 0.06532 0.56601 0.24941
 H433 H 0.15211 0.66194 0.19885
 H434 H 0.16157 0.65213 0.30036
 H435 H 0.20331 0.69291 0.30054
 H436 H 0.19339 0.70316 0.19880
 C437 C 0.75558 -0.18582 0.64628
 C438 C 0.74899 -0.15412 0.65425
 C439 C 0.74249 -0.14602 0.68586
 C440 C 0.74260 -0.16951 0.70944
 C441 C 0.74923 -0.20145 0.70167
 C442 C 0.75572 -0.20935 0.66981
 C443 C 0.74893 -0.12991 0.63002
 C444 C 0.74892 -0.10963 0.60972
 C445 C 0.74895 -0.08588 0.58596
 C446 C 0.74899 -0.06560 0.56567
 H447 H 0.76056 -0.19236 0.62186
 H448 H 0.73745 -0.12154 0.69231
 H449 H 0.73791 -0.16264 0.73380
 H450 H 0.76052 -0.23378 0.66304
 C451 C 0.25707 -0.14631 0.31429
 C452 C 0.25053 -0.15445 0.34588
 C453 C 0.24394 -0.18614 0.35381
 C454 C 0.24389 -0.20964 0.33026
 C455 C 0.25045 -0.20171 0.29842
 C456 C 0.25705 -0.16977 0.29070
 C457 C 0.25056 -0.13028 0.37014
 C458 C 0.25058 -0.11002 0.39045
 C459 C 0.25060 -0.08629 0.41421
 C460 C 0.25061 -0.06602 0.43449
 H461 H 0.26212 -0.12183 0.30788
 H462 H 0.23892 -0.19271 0.37821
 H463 H 0.23911 -0.23407 0.33700
 H464 H 0.26181 -0.16287 0.26635
 C465 C 0.72144 0.16846 0.33646
 C466 C 0.74999 0.15430 0.34607
 C467 C 0.77862 0.16371 0.33203
 C468 C 0.77872 0.18719 0.30844
 C469 C 0.75013 0.20154 0.29857
 C470 C 0.72148 0.19193 0.31286
 C471 C 0.74990 0.13010 0.37032
 C472 C 0.74981 0.10981 0.39060
 C473 C 0.74968 0.08605 0.41435
 C474 C 0.74957 0.06575 0.43461
 H475 H 0.69915 0.16142 0.34725
 H476 H 0.80085 0.15284 0.33924
 H477 H 0.80110 0.19381 0.29762
 H478 H 0.69915 0.20283 0.30608
 C479 C 0.27891 0.16787 0.66361
 C480 C 0.25034 0.15384 0.65399
 C481 C 0.22172 0.16340 0.66800
 C482 C 0.22163 0.18691 0.69155
 C483 C 0.25024 0.20115 0.70140
 C484 C 0.27889 0.19136 0.68717
 C485 C 0.25039 0.12965 0.62976
 C486 C 0.25043 0.10937 0.60947
 C487 C 0.25048 0.08562 0.58574
 C488 C 0.25051 0.06532 0.56548
 H489 H 0.30119 0.16071 0.65286
 H490 H 0.19947 0.15263 0.66079
 H491 H 0.19926 0.19364 0.70234
 H492 H 0.30123 0.20217 0.69396
   
