data_POSCAR
  _audit_creation_date              2014-09-24
  _audit_creation_method            'ToBaCCo'
  _symmetry_space_group_name_H-M    'P1'
  _symmetry_Int_Tables_number       1
  _symmetry_cell_setting            triclinic
  loop_
  _symmetry_equiv_pos_as_xyz
 x,y,z
_cell_length_a 31.1074
_cell_length_b 30.5054
_cell_length_c 31.1224
_cell_angle_alpha 88.905000
_cell_angle_beta 91.205500
_cell_angle_gamma 93.341700
loop_
  _atom_site_label
  _atom_site_type_symbol
  _atom_site_fract_x
  _atom_site_fract_y
  _atom_site_fract_z
C1 C 0.27396 0.42991 0.98827
 C2 C 0.25652 0.42296 1.03365
 C3 C 0.23252 0.45580 1.04683
 C4 C 0.22826 0.49300 1.01329
 C5 C 0.23400 0.43695 0.95959
 C6 C 0.21011 0.47009 0.97272
 C7 C 0.29867 0.47484 0.98911
 C8 C 0.27475 0.50797 1.00207
 H9 H 0.26191 0.39391 1.05314
 H10 H 0.20898 0.52008 1.02402
 H11 H 0.22581 0.41784 0.93134
 H12 H 0.33172 0.47988 0.97904
 C13 C 0.72568 0.57045 0.00928
 C14 C 0.76610 0.56383 0.03741
 C15 C 0.78950 0.53018 0.02468
 C16 C 0.77053 0.50641 -0.01506
 C17 C 0.74227 0.57614 -0.03656
 C18 C 0.76587 0.54279 -0.04937
 C19 C 0.70073 0.52561 0.00990
 C20 C 0.72422 0.49200 -0.00270
 H21 H 0.77477 0.58340 0.06525
 H22 H 0.78946 0.47893 -0.02550
 H23 H 0.73664 0.60473 -0.05663
 H24 H 0.66789 0.52100 0.02070
 C25 C 0.03464 0.24176 0.48855
 C26 C 0.02677 0.27771 0.45852
 C27 C -0.01505 0.29411 0.46106
 C28 C -0.04143 0.27181 0.49369
 C29 C 0.02550 0.25983 0.53300
 C30 C -0.01455 0.27546 0.53570
 C31 C -0.00243 0.20697 0.47998
 C32 C -0.04233 0.22297 0.48257
 H33 H 0.04980 0.28984 0.43494
 H34 H -0.07394 0.28468 0.49634
 H35 H 0.04851 0.26016 0.55961
 H36 H 0.00261 0.17342 0.47151
 C37 C 0.96668 0.76139 0.50184
 C38 C 0.97852 0.74038 0.45968
 C39 C 1.01847 0.72451 0.46031
 C40 C 1.04315 0.73113 0.50315
 C41 C 0.97308 0.72564 0.53639
 C42 C 1.01321 0.70998 0.53718
 C43 C 1.00326 0.79655 0.51033
 C44 C 1.04315 0.78045 0.51129
 H45 H 0.95699 0.73831 0.43189
 H46 H 1.07578 0.71814 0.50359
 H47 H 0.94847 0.71503 0.55902
 H48 H 0.99827 0.83058 0.51665
 C49 C 0.49456 0.03362 0.23517
 C50 C 0.45359 0.03144 0.26224
 C51 C 0.44546 -0.00813 0.28229
 C52 C 0.47901 -0.04163 0.27375
 C53 C 0.53045 0.02108 0.26698
 C54 C 0.52230 -0.01845 0.28725
 C55 C 0.48916 -0.00332 0.20601
 C56 C 0.48042 -0.04471 0.22727
 H57 H 0.43280 0.05851 0.26470
 H58 H 0.47241 -0.07355 0.29082
 H59 H 0.55954 0.04160 0.27252
 H60 H 0.49144 -0.00027 0.17151
 C61 C 0.50632 -0.03666 0.76554
 C62 C 0.47020 -0.02374 0.73436
 C63 C 0.47797 0.01599 0.71452
 C64 C 0.52143 0.03900 0.72721
 C65 C 0.54704 -0.03411 0.73833
 C66 C 0.55501 0.00559 0.71851
 C67 C 0.51254 0.00225 0.79644
 C68 C 0.52065 0.04170 0.77617
 H69 H 0.44048 -0.04356 0.72986
 H70 H 0.52775 0.07124 0.71063
 H71 H 0.56831 -0.06084 0.73628
 H72 H 0.51186 -0.00095 0.83104
 C73 C 0.30909 0.04587 0.44444
 H74 H 0.31574 0.07552 0.46254
 C75 C 0.33497 0.03687 0.40984
 H76 H 0.36141 0.05986 0.40160
 C77 C 0.26838 -0.02152 0.43540
 H78 H 0.24329 -0.04488 0.44606
 C79 C 0.29358 -0.03193 0.40092
 H80 H 0.28714 -0.06300 0.38510
 N81 N 0.27666 0.01670 0.45663
 C82 C 0.18626 0.08465 0.53413
 H83 H 0.18431 0.06301 0.56206
 C84 C 0.15916 0.11960 0.53011
 H85 H 0.13676 0.12508 0.55531
 C86 C 0.21740 0.10328 0.46689
 H87 H 0.23933 0.09631 0.44183
 C88 C 0.19153 0.13893 0.46193
 H89 H 0.19410 0.15928 0.43312
 Zn90 Zn 0.24714 0.02673 0.50796
 N91 N 0.21447 0.07707 0.50264
 C92 C 0.29517 0.07090 0.57482
 N93 N 0.28988 0.03346 0.55178
 C94 C 0.31737 0.00059 0.55695
 C95 C 0.35115 0.00407 0.58707
 C96 C 0.32919 0.07613 0.60474
 C97 C 0.17357 -0.02817 0.49317
 C98 C 0.14626 -0.06593 0.49712
 C99 C 0.19051 -0.08977 0.55685
 C100 C 0.21655 -0.05124 0.55223
 N101 N 0.20857 -0.02211 0.51981
 H102 H 0.27358 0.09705 0.56944
 H103 H 0.31323 -0.02823 0.53723
 H104 H 0.37289 -0.02226 0.59045
 H105 H 0.33342 0.10620 0.62265
 H106 H 0.16785 -0.00434 0.46781
 H107 H 0.11962 -0.07109 0.47452
 H108 H 0.19810 -0.11348 0.58179
 H109 H 0.24377 -0.04544 0.57383
 C110 C 0.16161 0.14715 0.49350
 C111 C 0.32774 -0.00291 0.38809
 C112 C 0.15534 -0.09777 0.52863
 C113 C 0.35748 0.04232 0.61122
 C114 C 0.73426 0.02348 0.56856
 H115 H 0.75709 0.04828 0.55634
 C116 C 0.70920 0.03338 0.60329
 H117 H 0.71276 0.06590 0.61671
 C118 C 0.70210 -0.04863 0.56663
 H119 H 0.69994 -0.08085 0.55284
 C120 C 0.67631 -0.04014 0.60146
 H121 H 0.65382 -0.06580 0.61304
 N122 N 0.72857 -0.01616 0.54926
 C123 C 0.83381 0.02491 0.47816
 H124 H 0.84864 -0.00615 0.48128
 C125 C 0.85982 0.06356 0.47269
 H126 H 0.89435 0.06153 0.47158
 C127 C 0.77102 0.06525 0.47593
 H128 H 0.73639 0.06582 0.47810
 C129 C 0.79565 0.10446 0.47020
 H130 H 0.77953 0.13493 0.46769
 Zn131 Zn 0.75446 -0.02445 0.49498
 N132 N 0.79029 0.02653 0.48087
 C133 C 0.70764 -0.00544 0.41717
 N134 N 0.70974 -0.03277 0.45220
 C135 C 0.67956 -0.06636 0.45798
 C136 C 0.64481 -0.07228 0.42928
 C137 C 0.67314 -0.01000 0.38772
 C138 C 0.81898 -0.07706 0.52915
 C139 C 0.84538 -0.11263 0.53072
 C140 C 0.80507 -0.14366 0.47028
 C141 C 0.78021 -0.10706 0.46915
 N142 N 0.78759 -0.07459 0.49823
 H143 H 0.73257 0.02004 0.41184
 H144 H 0.68247 -0.08902 0.48468
 H145 H 0.62095 -0.09891 0.43498
 H146 H 0.67206 0.01231 0.36036
 H147 H 0.82404 -0.05088 0.55200
 H148 H 0.87070 -0.11393 0.55502
 H149 H 0.79920 -0.16898 0.44661
 H150 H 0.75555 -0.10434 0.44447
 C151 C 0.84074 0.10418 0.46961
 C152 C 0.67843 0.00203 0.61904
 C153 C 0.83853 -0.14634 0.50086
 C154 C 0.64077 -0.04343 0.39404
 C155 C 0.51278 0.23169 1.09462
 H156 H 0.51048 0.26671 1.09655
 C157 C 0.51168 0.20604 1.13237
 H158 H 0.50746 0.22159 1.16285
 C159 C 0.52299 0.16903 1.05326
 H160 H 0.52892 0.15459 1.02279
 C161 C 0.52195 0.14221 1.09007
 H162 H 0.52663 0.10759 1.08692
 N163 N 0.51700 0.21277 1.05579
 C164 C 0.43948 0.27013 0.95978
 H165 H 0.45045 0.24927 0.93516
 C166 C 0.40216 0.29254 0.95205
 H167 H 0.38468 0.28798 0.92188
 C168 C 0.44978 0.30328 1.02762
 H169 H 0.46903 0.30865 1.05643
 C170 C 0.41269 0.32647 1.02114
 H171 H 0.40353 0.34826 1.04590
 Zn172 Zn 0.51583 0.24788 1.00422
 N173 N 0.46260 0.27574 0.99711
 C174 C 0.49416 0.17708 0.94926
 N175 N 0.52270 0.21197 0.95585
 C176 C 0.55463 0.22239 0.92757
 C177 C 0.55889 0.19709 0.89118
 C178 C 0.49770 0.15051 0.91366
 C179 C 0.55416 0.33407 0.99700
 C180 C 0.58820 0.36595 0.99595
 C181 C 0.63723 0.30958 1.01415
 C182 C 0.60217 0.27881 1.01528
 N183 N 0.56168 0.29143 1.00637
 H184 H 0.46842 0.17008 0.97166
 H185 H 0.57643 0.25074 0.93276
 H186 H 0.58428 0.20591 0.86880
 H187 H 0.47446 0.12318 0.90880
 H188 H 0.52191 0.34334 0.98916
 H189 H 0.58152 0.39944 0.98742
 H190 H 0.66935 0.29896 1.02072
 H191 H 0.60726 0.24462 1.02235
 C192 C 0.38854 0.32156 0.98269
 C193 C 0.51538 0.16049 1.13027
 C194 C 0.63046 0.35378 1.00425
 C195 C 0.53036 0.16053 0.88405
 C196 C 0.47489 0.83036 -0.05170
 H197 H 0.46861 0.84518 -0.02149
 C198 C 0.47619 0.85666 -0.08890
 H199 H 0.47136 0.89130 -0.08630
 C200 C 0.48589 0.76720 -0.09203
 H201 H 0.48853 0.73220 -0.09343
 C202 C 0.48729 0.79228 -0.13010
 H203 H 0.49202 0.77631 -0.16026
 N204 N 0.48125 0.78666 -0.05352
 C205 C 0.44454 0.66613 0.00708
 H206 H 0.47674 0.65681 0.01507
 C207 C 0.41047 0.63430 0.00804
 H208 H 0.41705 0.60079 0.01660
 C209 C 0.39667 0.72144 -0.01145
 H210 H 0.39166 0.75561 -0.01870
 C211 C 0.36156 0.69071 -0.01039
 H212 H 0.32949 0.70135 -0.01716
 Zn213 Zn 0.48318 0.75222 -0.00156
 N214 N 0.43715 0.70875 -0.00261
 C215 C 0.44696 0.77699 0.07650
 N216 N 0.47727 0.78855 0.04682
 C217 C 0.50480 0.82449 0.05223
 C218 C 0.50183 0.85091 0.08808
 C219 C 0.44355 0.80194 0.11329
 C220 C 0.54736 0.69497 -0.02538
 C221 C 0.58469 0.67198 -0.01996
 C222 C 0.59955 0.70975 0.04658
 C223 C 0.56190 0.73193 0.03995
 N224 N 0.53650 0.72429 0.00440
 H225 H 0.42598 0.74786 0.07222
 H226 H 0.52937 0.83240 0.02879
 H227 H 0.52423 0.87910 0.09210
 H228 H 0.41969 0.79206 0.13694
 H229 H 0.52629 0.68792 -0.05260
 H230 H 0.59215 0.64870 -0.04405
 H231 H 0.61891 0.71599 0.07536
 H232 H 0.55261 0.75440 0.06394
 C233 C 0.36827 0.64648 -0.00061
 C234 C 0.48345 0.83782 -0.12871
 C235 C 0.61121 0.67896 0.01667
 C236 C 0.47106 0.83946 0.11925
 C237 C 1.08188 0.46075 0.22360
 H238 H 1.06882 0.43822 0.24777
 C239 C 1.11725 0.44932 0.20032
 H240 H 1.13137 0.41833 0.20739
 C241 C 1.07793 0.52702 0.18313
 H242 H 1.06189 0.55698 0.17631
 C243 C 1.11312 0.51674 0.15884
 H244 H 1.12431 0.53939 0.13380
 N245 N 1.06302 0.49909 0.21474
 C246 C 0.95716 0.44816 0.28463
 H247 H 0.93379 0.45489 0.25953
 C248 C 0.94622 0.41800 0.31756
 H249 H 0.91468 0.40101 0.31735
 C250 C 1.02619 0.46299 0.31666
 H251 H 1.05696 0.48144 0.31649
 C252 C 1.01698 0.43244 0.34953
 H253 H 1.04084 0.42734 0.37467
 Zn254 Zn 1.01196 0.51275 0.24242
 N255 N 0.99679 0.46957 0.28459
 C256 C 0.96390 0.47689 0.17566
 N257 N 0.96863 0.51399 0.19916
 C258 C 0.94527 0.54940 0.18977
 C259 C 0.91537 0.54801 0.15545
 C260 C 0.93481 0.47423 0.14109
 C261 C 1.05992 0.58589 0.27718
 C262 C 1.06729 0.61926 0.30702
 C263 C 0.99180 0.61266 0.32424
 C264 C 0.98593 0.57925 0.29429
 N265 N 1.01988 0.56607 0.27206
 H266 H 0.98327 0.44944 0.18362
 H267 H 0.95022 0.57890 0.20837
 H268 H 0.89745 0.57662 0.14801
 H269 H 0.93172 0.44440 0.12272
 H270 H 1.08672 0.57407 0.26015
 H271 H 1.09967 0.63347 0.31199
 H272 H 0.96461 0.62100 0.34287
 H273 H 0.95472 0.56203 0.29051
 C274 C 0.97659 0.40953 0.35013
 C275 C 1.13295 0.47712 0.16704
 C276 C 1.03322 0.63226 0.33184
 C277 C 0.91010 0.51002 0.13049
 C278 C -0.07961 0.47003 0.81477
 H279 H -0.06270 0.44077 0.82238
 C280 C -0.11507 0.48002 0.83891
 H281 H -0.12562 0.45781 0.86457
 C282 C -0.08535 0.53510 0.77281
 H283 H -0.07292 0.55743 0.74818
 C284 C -0.12103 0.54614 0.79581
 H285 H -0.13593 0.57656 0.78802
 N286 N -0.06536 0.49760 0.78257
 C287 C 0.01556 0.42173 0.70186
 H288 H 0.04572 0.44110 0.70465
 C289 C 0.01126 0.38763 0.67246
 H290 H 0.03854 0.38101 0.65317
 C291 C -0.05742 0.40975 0.72145
 H292 H -0.08452 0.41952 0.73942
 C293 C -0.06318 0.37551 0.69235
 H294 H -0.09467 0.35877 0.68877
 Zn295 Zn -0.01331 0.48580 0.75541
 N296 N -0.01871 0.43259 0.72505
 C297 C 0.05481 0.45078 0.80719
 N298 N 0.02964 0.48515 0.79922
 C299 C 0.03256 0.52128 0.82421
 C300 C 0.06177 0.52408 0.85869
 C301 C 0.08483 0.45234 0.84140
 C302 C -0.02720 0.53605 0.68091
 C303 C -0.01844 0.56831 0.64940
 C304 C 0.04954 0.58666 0.68558
 C305 C 0.03912 0.55460 0.71687
 N306 N 0.00104 0.53041 0.71425
 H307 H 0.05136 0.42202 0.78740
 H308 H 0.01181 0.54791 0.81737
 H309 H 0.06348 0.55319 0.87815
 H310 H 0.10426 0.42456 0.84754
 H311 H -0.05675 0.51558 0.67905
 H312 H -0.04132 0.57243 0.62317
 H313 H 0.07990 0.60576 0.68801
 H314 H 0.06168 0.54880 0.74295
 C315 C -0.02893 0.36477 0.66652
 C316 C -0.13591 0.51890 0.82984
 C317 C 0.02034 0.59411 0.65163
 C318 C 0.08846 0.48942 0.86773
 N319 N 0.14266 0.21695 0.46145
 N320 N 0.10999 0.24280 0.45924
 C321 C 0.07902 0.22461 0.48481
 C322 C 0.09418 0.18671 0.50321
 N323 N 0.13392 0.18302 0.48758
 H324 H 0.07701 0.16311 0.52392
 N325 N 0.67738 0.66242 0.05606
 N326 N 0.70827 0.63430 0.05560
 C327 C 0.69914 0.60747 0.02231
 C328 C 0.66176 0.62011 0.00235
 N329 N 0.64909 0.65460 0.02429
 H330 H 0.64552 0.60505 -0.02515
 N331 N 0.85353 -0.22249 0.48760
 N332 N 0.88673 -0.24777 0.48758
 C333 C 0.92167 -0.22277 0.50049
 C334 C 0.90858 -0.18132 0.50898
 N335 N 0.86596 -0.18255 0.50049
 H336 H 0.92805 -0.15255 0.51870
 N337 N 0.32400 0.33925 0.94109
 N338 N 0.29312 0.36741 0.94100
 C339 C 0.30106 0.39341 0.97513
 C340 C 0.33767 0.38023 0.99615
 N341 N 0.35108 0.34624 0.97404
 H342 H 0.35289 0.39456 1.02455
 N343 N 0.84922 0.18384 0.46253
 N344 N 0.87923 0.21615 0.46614
 C345 C 0.91686 0.19748 0.47386
 C346 C 0.90898 0.15242 0.47474
 N347 N 0.86619 0.14520 0.46765
 H348 H 0.93182 0.12777 0.48196
 N349 N 0.29197 0.62452 0.00748
 N350 N 0.26617 0.58839 0.00880
 C351 C 0.29110 0.55429 0.00345
 C352 C 0.33307 0.57069 -0.00115
 N353 N 0.33232 0.61464 0.00162
 H354 H 0.36123 0.55244 -0.00638
 N355 N 0.14763 -0.17654 0.54300
 N356 N 0.11888 -0.20991 0.53813
 C357 C 0.08279 -0.19307 0.52182
 C358 C 0.09024 -0.14828 0.51675
 N359 N 0.13114 -0.13929 0.53027
 H360 H 0.06833 -0.12477 0.50398
 N361 N 0.70667 0.37536 0.99511
 N362 N 0.73251 0.41138 0.99260
 C363 C 0.70775 0.44570 0.99742
 C364 C 0.66583 0.42954 1.00295
 N365 N 0.66645 0.38550 1.00124
 H366 H 0.63780 0.44804 1.00798
 N367 N 0.51516 0.14839 1.20827
 N368 N 0.50986 0.11572 1.23670
 C369 C 0.50341 0.07835 1.21436
 C370 C 0.50496 0.08940 1.17110
 N371 N 0.51246 0.13331 1.16862
 H372 H 0.49986 0.06792 1.14406
 N373 N 0.07032 0.63979 0.60814
 N374 N 0.06962 0.67039 0.57741
 C375 C 0.02788 0.67745 0.56895
 C376 C 0.00292 0.65006 0.59537
 N377 N 0.03062 0.62704 0.61928
 H378 H -0.03183 0.64743 0.59731
 N379 N 0.48566 0.84884 -0.20681
 N380 N 0.49168 0.88112 -0.23556
 C381 C 0.49747 0.91877 -0.21357
 C382 C 0.49467 0.90835 -0.17028
 N383 N 0.48720 0.86447 -0.16735
 H384 H 0.49875 0.93029 -0.14349
 N385 N 0.92800 0.37024 0.40042
 N386 N 0.92938 0.33949 0.43105
 C387 C 0.97032 0.32704 0.43346
 C388 C 0.99402 0.35138 0.40348
 N389 N 0.96654 0.37789 0.38366
 H390 H 1.02779 0.34991 0.39632
 N391 N 0.45847 0.84673 0.19568
 N392 N 0.46124 0.87706 0.22563
 C393 C 0.47383 0.91536 0.20601
 C394 C 0.47885 0.90745 0.16286
 N395 N 0.46906 0.86423 0.15785
 H396 H 0.48886 0.93052 0.13767
 N397 N -0.07549 0.32140 0.61744
 N398 N -0.07307 0.29787 0.58236
 C399 C -0.03091 0.29523 0.57446
 C400 C -0.00746 0.31794 0.60589
 N401 N -0.03651 0.33407 0.63211
 H402 H 0.02713 0.32377 0.60796
 N403 N 0.55071 0.15041 0.80982
 N404 N 0.54833 0.11973 0.78020
 C405 C 0.52943 0.08337 0.79859
 C406 C 0.52011 0.09273 0.84043
 N407 N 0.53381 0.13494 0.84615
 H408 H 0.50486 0.07105 0.86424
 N409 N 1.08039 0.67004 0.38473
 N410 N 1.07781 0.69411 0.41949
 C411 C 1.03590 0.70160 0.42389
 C412 C 1.01285 0.68141 0.39069
 N413 N 1.04172 0.66185 0.36697
 H414 H 0.97832 0.67988 0.38546
 N415 N 1.19194 0.43094 0.15134
 N416 N 1.21884 0.42416 0.12006
 C417 C 1.21138 0.45411 0.08879
 C418 C 1.17907 0.47959 0.10195
 N419 N 1.16771 0.46406 0.14120
 H420 H 1.16388 0.50523 0.08381
 N421 N 0.64128 0.05604 0.65861
 N422 N 0.60826 0.05844 0.68441
 C423 C 0.59321 0.01691 0.69261
 C424 C 0.61816 -0.01116 0.67106
 N425 N 0.64782 0.01461 0.65000
 H426 H 0.61399 -0.04656 0.66980
 N427 N -0.19565 0.56439 0.84476
 N428 N -0.22216 0.57188 0.87617
 C429 C -0.21377 0.54318 0.90829
 C430 C -0.18127 0.51770 0.89549
 N431 N -0.17075 0.53200 0.85560
 H432 H -0.16533 0.49300 0.91427
 N433 N 0.36100 -0.05731 0.34546
 N434 N 0.39227 -0.06009 0.31763
 C435 C 0.40818 -0.01881 0.30965
 C436 C 0.38573 0.00952 0.33358
 N437 N 0.35659 -0.01588 0.35569
 H438 H 0.39105 0.04479 0.33559
 N439 N 0.11639 0.52161 0.93451
 N440 N 0.14811 0.51741 0.96302
 C441 C 0.17100 0.48410 0.95007
 C442 C 0.15215 0.46785 0.91255
 N443 N 0.11811 0.49222 0.90390
 H444 H 0.16279 0.44173 0.89309
 N445 N 0.57643 -0.08326 0.36549
 N446 N 0.54440 -0.07775 0.33760
 C447 C 0.55165 -0.03776 0.31918
 C448 C 0.58934 -0.01889 0.33662
 N449 N 0.60386 -0.04837 0.36545
 H450 H 0.60383 0.01355 0.33000
 N451 N 0.88213 0.47751 0.06389
 N452 N 0.85069 0.48195 0.03512
 C453 C 0.82846 0.51601 0.04743
 C454 C 0.84742 0.53246 0.08481
 N455 N 0.88083 0.50744 0.09405
 H456 H 0.83715 0.55902 0.10394
 N457 N 0.41393 0.08570 0.64961
 N458 N 0.44674 0.07986 0.67657
 C459 C 0.44677 0.03641 0.68533
 C460 C 0.41301 0.01572 0.66282
 N461 N 0.39336 0.04758 0.64086
 H462 H 0.40375 -0.01903 0.66236
   
