data_POSCAR
  _audit_creation_date              2014-09-24
  _audit_creation_method            'ToBaCCo'
  _symmetry_space_group_name_H-M    'P1'
  _symmetry_Int_Tables_number       1
  _symmetry_cell_setting            triclinic
  loop_
  _symmetry_equiv_pos_as_xyz
 x,y,z
_cell_length_a 31.1890
_cell_length_b 37.2933
_cell_length_c 15.2085
_cell_angle_alpha 90.149100
_cell_angle_beta 90.183000
_cell_angle_gamma 90.199000
loop_
  _atom_site_label
  _atom_site_type_symbol
  _atom_site_fract_x
  _atom_site_fract_y
  _atom_site_fract_z
C1 C 0.64700 0.31521 0.54394
 C2 C 0.64748 0.31515 0.45380
 C3 C 0.68649 0.30070 0.42885
 N4 N 0.70978 0.29179 0.50061
 C5 C 0.68575 0.30083 0.57107
 C6 C 0.70152 0.29826 0.34144
 C7 C 0.73561 0.27555 0.31742
 C8 C 0.75765 0.27705 0.23856
 C9 C 0.78622 0.24896 0.23886
 C10 C 0.78040 0.23080 0.31765
 N11 N 0.74963 0.24740 0.36509
 C12 C 0.80074 0.19848 0.34295
 C13 C 0.79655 0.18616 0.43057
 C14 C 0.79362 0.15061 0.45630
 C15 C 0.79301 0.15065 0.54647
 C16 C 0.79564 0.18623 0.57270
 N17 N 0.79674 0.20801 0.50176
 C18 C 0.79918 0.19857 0.66065
 C19 C 0.77852 0.23082 0.68570
 C20 C 0.78364 0.24889 0.76513
 C21 C 0.75505 0.27699 0.76462
 C22 C 0.73367 0.27559 0.68468
 N23 N 0.74812 0.24747 0.63716
 C24 C 0.69987 0.29843 0.65930
 H25 H 0.62101 0.32471 0.58470
 H26 H 0.62197 0.32464 0.41156
 H27 H 0.73486 0.23792 0.57864
 H28 H 0.75351 0.29632 0.18614
 H29 H 0.80841 0.24280 0.18652
 H30 H 0.79183 0.12717 0.41433
 H31 H 0.79074 0.12724 0.58813
 H32 H 0.75051 0.29622 0.81717
 H33 H 0.73580 0.23782 0.42272
 H34 H 0.80541 0.24268 0.81839
 C35 C 0.35405 0.68891 0.45894
 C36 C 0.35418 0.68913 0.54889
 C37 C 0.31292 0.69785 0.57516
 N38 N 0.28783 0.70379 0.50395
 C39 C 0.31296 0.69807 0.43292
 C40 C 0.29863 0.69902 0.66371
 C41 C 0.26339 0.72057 0.68953
 C42 C 0.24403 0.71976 0.77165
 C43 C 0.21245 0.74531 0.77101
 C44 C 0.21262 0.76070 0.68811
 N45 N 0.24403 0.74574 0.63915
 C46 C 0.18509 0.78874 0.66152
 C47 C 0.17678 0.79775 0.57246
 C48 C 0.14627 0.82240 0.54552
 C49 C 0.14608 0.82203 0.45582
 C50 C 0.17650 0.79718 0.42971
 N51 N 0.19462 0.78185 0.50138
 C52 C 0.18471 0.78763 0.34087
 C53 C 0.21215 0.75931 0.31571
 C54 C 0.21326 0.74392 0.23254
 C55 C 0.24505 0.71844 0.23391
 C56 C 0.26284 0.71922 0.31753
 N57 N 0.24275 0.74426 0.36674
 C58 C 0.29872 0.69903 0.34464
 H59 H 0.38129 0.68313 0.41739
 H60 H 0.38171 0.68379 0.59026
 H61 H 0.25268 0.75324 0.42815
 H62 H 0.25147 0.70251 0.82665
 H63 H 0.19144 0.75144 0.82545
 H64 H 0.12481 0.83815 0.58564
 H65 H 0.12446 0.83744 0.41518
 H66 H 0.25438 0.70167 0.17907
 H67 H 0.25439 0.75458 0.57810
 H68 H 0.19337 0.75035 0.17637
 C69 C 0.23110 0.14983 -0.54648
 C70 C 0.23129 0.14892 -0.45638
 C71 C 0.22073 0.18311 -0.42803
 N72 N 0.21487 0.20511 -0.49769
 C73 C 0.22031 0.18452 -0.57019
 C74 C 0.21480 0.19342 -0.33912
 C75 C 0.22807 0.22799 -0.30974
 C76 C 0.22281 0.24186 -0.22545
 C77 C 0.24283 0.27472 -0.22354
 C78 C 0.25881 0.28078 -0.30711
 N79 N 0.25004 0.25208 -0.35883
 C80 C 0.28048 0.31234 -0.33334
 C81 C 0.28244 0.32396 -0.42200
 C82 C 0.28992 0.35914 -0.44686
 C83 C 0.29096 0.35945 -0.53657
 C84 C 0.28497 0.32431 -0.56436
 N85 N 0.27780 0.30292 -0.49407
 C86 C 0.28463 0.31302 -0.65385
 C87 C 0.25910 0.28352 -0.68117
 C88 C 0.23924 0.28024 -0.76252
 C89 C 0.21798 0.24790 -0.76287
 C90 C 0.22613 0.23170 -0.68230
 N91 N 0.25091 0.25387 -0.63282
 C92 C 0.21334 0.19656 -0.65737
 H93 H 0.23818 0.12757 -0.58982
 H94 H 0.23860 0.12584 -0.41608
 H95 H 0.26524 0.24736 -0.57317
 H96 H 0.20640 0.23010 -0.17007
 H97 H 0.24399 0.29242 -0.16720
 H98 H 0.29316 0.38243 -0.40474
 H99 H 0.29456 0.38316 -0.57678
 H100 H 0.19876 0.23793 -0.81696
 H101 H 0.26168 0.24776 -0.42179
 H102 H 0.23867 0.29956 -0.81544
 C103 C -0.33547 0.66409 -0.56405
 C104 C -0.33261 0.66063 -0.47514
 C105 C -0.30567 0.68777 -0.44458
 N106 N -0.28942 0.70581 -0.51449
 C107 C -0.30775 0.69144 -0.58752
 C108 C -0.29293 0.69337 -0.35497
 C109 C -0.26094 0.71907 -0.33249
 C110 C -0.23635 0.71937 -0.25595
 C111 C -0.21408 0.75131 -0.25435
 C112 C -0.22585 0.76989 -0.32927
 N113 N -0.25400 0.74998 -0.37676
 C114 C -0.21409 0.80560 -0.34891
 C115 C -0.22181 0.82002 -0.43312
 C116 C -0.22687 0.85604 -0.45240
 C117 C -0.22872 0.85850 -0.54238
 C118 C -0.22421 0.82391 -0.57473
 N119 N -0.22083 0.80036 -0.50778
 C120 C -0.22019 0.81415 -0.66432
 C121 C -0.23580 0.78039 -0.69386
 C122 C -0.22881 0.76539 -0.77641
 C123 C -0.25130 0.73369 -0.77925
 C124 C -0.27073 0.72971 -0.69811
 N125 N -0.26139 0.75825 -0.64656
 C126 C -0.29764 0.70078 -0.67548
 H127 H -0.35492 0.64714 -0.60597
 H128 H -0.34735 0.63885 -0.43961
 H129 H -0.27504 0.76387 -0.58573
 H130 H -0.23454 0.69909 -0.20548
 H131 H -0.19244 0.76005 -0.20277
 H132 H -0.22882 0.87817 -0.40643
 H133 H -0.23260 0.88292 -0.57983
 H134 H -0.25268 0.71535 -0.83449
 H135 H -0.27189 0.75922 -0.42995
 H136 H -0.20948 0.77570 -0.82958
 N137 N 0.05421 1.03463 0.15302
 N138 N 0.08148 1.04161 0.21723
 N139 N -0.03465 1.06508 0.09673
 N140 N -0.05973 1.09212 0.11945
 N141 N -0.03527 1.04013 0.15763
 N142 N -0.06057 1.04946 0.22288
 N143 N 0.05538 1.06007 0.09339
 N144 N 0.08372 1.08497 0.11585
 C145 C 0.10025 1.07262 0.19253
 C146 C -0.07616 1.08154 0.19778
 N147 N -0.03834 1.03918 -0.15515
 N148 N -0.06442 1.04843 -0.21939
 N149 N 0.05364 1.05943 -0.09702
 N150 N 0.08240 1.08373 -0.12037
 N151 N 0.05118 1.03384 -0.15645
 N152 N 0.07790 1.04019 -0.22165
 N153 N -0.03641 1.06451 -0.09490
 N154 N -0.06138 1.09168 -0.11705
 Mn155 Mn 0.00940 1.06265 -0.00048
 C156 C -0.07915 1.08083 -0.19422
 C157 C 0.09773 1.07094 -0.19762
 N158 N -0.04271 0.96349 0.15842
 N159 N -0.06996 0.95816 0.22314
 N160 N 0.04280 0.93197 0.09401
 N161 N 0.07101 0.90625 0.10763
 N162 N 0.04711 0.95748 0.15299
 N163 N 0.07847 0.94990 0.20830
 N164 N -0.04697 0.93853 0.09789
 N165 N -0.07735 0.91549 0.12015
 Mn166 Mn 0.00596 0.99889 0.15599
 C167 C -0.09179 0.92856 0.19787
 C168 C 0.09317 0.91796 0.17887
 N169 N 0.04424 0.95668 -0.15402
 N170 N 0.07550 0.94943 -0.20949
 N171 N -0.04861 0.93761 -0.09289
 N172 N -0.07682 0.91269 -0.11592
 N173 N -0.04569 0.96222 -0.15431
 N174 N -0.07180 0.95467 -0.22022
 N175 N 0.04111 0.93150 -0.09422
 N176 N 0.07006 0.90635 -0.10740
 Mn177 Mn 0.00293 0.99795 -0.15548
 Mn178 Mn -0.00315 0.93458 0.00124
 Cl179 Cl 0.00368 0.99861 0.00027
 C180 C 0.09132 0.91803 -0.17938
 C181 C -0.09162 0.92419 -0.19477
 N182 N 0.54871 0.46342 -0.15170
 N183 N 0.57768 0.45719 -0.21283
 N184 N 0.45900 0.43632 -0.08857
 N185 N 0.43199 0.41012 -0.10857
 N186 N 0.45880 0.46094 -0.15019
 N187 N 0.43203 0.45199 -0.21386
 N188 N 0.54925 0.43802 -0.09198
 N189 N 0.57866 0.41382 -0.11105
 C190 C 0.59642 0.42642 -0.18614
 C191 C 0.41487 0.42072 -0.18620
 N192 N 0.46181 0.46149 0.16268
 N193 N 0.43565 0.45327 0.22747
 N194 N 0.55119 0.43817 0.09766
 N195 N 0.58097 0.41403 0.11462
 N196 N 0.55166 0.46357 0.15758
 N197 N 0.58175 0.45749 0.21673
 N198 N 0.46094 0.43649 0.10165
 N199 N 0.43384 0.41064 0.12339
 Mn200 Mn 0.50501 0.43686 0.00467
 C201 C 0.41786 0.42192 0.20147
 C202 C 0.60006 0.42676 0.18859
 N203 N 0.45593 0.53801 -0.14948
 N204 N 0.42748 0.54456 -0.21154
 N205 N 0.54540 0.56592 -0.09092
 N206 N 0.56999 0.59330 -0.11302
 N207 N 0.54571 0.54117 -0.15256
 N208 N 0.56997 0.55152 -0.21889
 N209 N 0.45530 0.56328 -0.08910
 N210 N 0.42641 0.58786 -0.10911
 Mn211 Mn 0.50239 0.50086 -0.15158
 C212 C 0.40891 0.57538 -0.18504
 C213 C 0.58574 0.58361 -0.19221
 N214 N 0.54963 0.54060 0.15701
 N215 N 0.58354 0.54533 0.20788
 N216 N 0.45738 0.56340 0.10138
 N217 N 0.42740 0.58712 0.12031
 N218 N 0.45930 0.53857 0.16228
 N219 N 0.43051 0.54454 0.22392
 N220 N 0.54755 0.56576 0.09702
 N221 N 0.57997 0.58835 0.10537
 Mn222 Mn 0.50565 0.50111 0.16068
 Mn223 Mn 0.50125 0.56492 0.00477
 Cl224 Cl 0.50350 0.50090 0.00453
 C225 C 0.60213 0.57519 0.17482
 C226 C 0.41064 0.57470 0.19651
 C227 C 0.30785 0.33244 0.28112
 C228 C 0.34277 0.35227 0.29971
 C229 C 0.36641 0.37292 0.23311
 C230 C 0.39043 0.40064 0.25972
 H231 H 0.35547 0.35325 0.36597
 H232 H 0.36403 0.36592 0.16406
 H233 H 0.30005 0.32897 0.21224
 H234 H 0.39017 0.40838 0.32852
 C235 C -0.19941 0.83711 0.27462
 C236 C -0.17056 0.86225 0.29738
 C237 C -0.14588 0.88227 0.23120
 C238 C -0.12205 0.91026 0.25627
 H239 H -0.16193 0.86657 0.36554
 H240 H -0.14587 0.87340 0.16325
 H241 H -0.20413 0.83267 0.20494
 H242 H -0.12351 0.91955 0.32382
 C243 C 0.68251 0.68026 0.25090
 C244 C 0.68414 0.64454 0.24590
 C245 C 0.65322 0.62495 0.19060
 C246 C 0.64003 0.59229 0.21441
 H247 H 0.70343 0.62979 0.29288
 H248 H 0.63712 0.63896 0.13763
 H249 H 0.66371 0.69512 0.20333
 H250 H 0.65485 0.57911 0.27017
 C251 C 0.19400 1.17368 0.27866
 C252 C 0.16956 1.14512 0.29834
 C253 C 0.14715 1.12400 0.23011
 C254 C 0.12864 1.09294 0.25175
 H255 H 0.16320 1.13809 0.36602
 H256 H 0.14443 1.13433 0.16378
 H257 H 0.19654 1.18038 0.20975
 H258 H 0.13274 1.08254 0.31775
 C259 C 0.67797 0.31983 -0.27148
 C260 C 0.66912 0.35461 -0.28237
 C261 C 0.64210 0.37439 -0.21966
 C262 C 0.62862 0.40744 -0.23893
 H263 H 0.67976 0.36810 -0.34156
 H264 H 0.63081 0.36104 -0.16083
 H265 H 0.66901 0.30657 -0.21088
 H266 H 0.63941 0.42026 -0.29885
 C267 C 0.16109 0.80817 -0.26899
 C268 C 0.16384 0.84380 -0.26148
 C269 C 0.13385 0.86392 -0.20602
 C270 C 0.12573 0.89831 -0.22354
 H271 H 0.18539 0.85849 -0.30429
 H272 H 0.11555 0.84984 -0.15632
 H273 H 0.13960 0.79320 -0.22682
 H274 H 0.14259 0.91168 -0.27644
 C275 C 0.32028 0.67885 -0.27089
 C276 C 0.33772 0.64671 -0.28715
 C277 C 0.36293 0.62715 -0.22086
 C278 C 0.37817 0.59471 -0.24050
 H279 H 0.33351 0.63432 -0.35120
 H280 H 0.37093 0.63990 -0.15878
 H281 H 0.32060 0.68840 -0.20354
 H282 H 0.36980 0.58241 -0.30295
 C283 C -0.17767 1.17872 -0.27525
 C284 C -0.14772 1.15430 -0.29540
 C285 C -0.12482 1.13326 -0.22829
 C286 C -0.10535 1.10304 -0.25282
 H287 H -0.13873 1.14968 -0.36312
 H288 H -0.12405 1.14209 -0.16036
 H289 H -0.18292 1.18413 -0.20617
 H290 H -0.10847 1.09388 -0.32030
 C291 C 0.68902 0.67256 -0.28603
 C292 C 0.64783 0.66228 -0.28468
 C293 C 0.63133 0.63619 -0.22116
 C294 C 0.60863 0.60818 -0.25074
 H295 H 0.62540 0.67188 -0.33364
 H296 H 0.63750 0.63986 -0.15155
 H297 H 0.70808 0.66609 -0.22875
 H298 H 0.60551 0.60369 -0.32096
 C299 C 0.19581 1.16936 -0.27783
 C300 C 0.17055 1.14154 -0.30028
 C301 C 0.14737 1.12043 -0.23356
 C302 C 0.12652 1.09055 -0.25700
 H303 H 0.16373 1.13554 -0.36854
 H304 H 0.14592 1.13002 -0.16629
 H305 H 0.19883 1.17472 -0.20825
 H306 H 0.12921 1.08066 -0.32386
 C307 C 0.30124 0.33510 -0.26410
 C308 C 0.34030 0.34903 -0.27721
 C309 C 0.36199 0.37255 -0.21335
 C310 C 0.38816 0.39810 -0.24327
 H311 H 0.35656 0.34405 -0.33897
 H312 H 0.35673 0.36911 -0.14348
 H313 H 0.28548 0.33967 -0.20182
 H314 H 0.39044 0.40269 -0.31351
 C315 C -0.19277 0.82793 -0.27952
 C316 C -0.16243 0.85215 -0.29874
 C317 C -0.14031 0.87368 -0.23094
 C318 C -0.11900 0.90322 -0.25473
 H319 H -0.15298 0.85612 -0.36653
 H320 H -0.14078 0.86517 -0.16286
 H321 H -0.20085 0.82334 -0.21122
 H322 H -0.12043 0.91202 -0.32259
 C323 C 0.32322 0.67881 0.27701
 C324 C 0.33473 0.64471 0.28997
 C325 C 0.36299 0.62561 0.22840
 C326 C 0.37797 0.59317 0.24906
 H327 H 0.32484 0.63121 0.34972
 H328 H 0.37352 0.63889 0.16889
 H329 H 0.33154 0.69210 0.21608
 H330 H 0.36784 0.58044 0.30956
 C331 C -0.17591 1.17858 0.27929
 C332 C -0.14616 1.15404 0.29976
 C333 C -0.12282 1.13333 0.23258
 C334 C -0.10234 1.10357 0.25685
 H335 H -0.13757 1.14919 0.36768
 H336 H -0.12263 1.14202 0.16463
 H337 H -0.18075 1.18416 0.21016
 H338 H -0.10475 1.09455 0.32441
 C339 C 0.68036 0.31970 0.27161
 C340 C 0.67256 0.35465 0.28230
 C341 C 0.64563 0.37461 0.21992
 C342 C 0.63291 0.40781 0.23964
 H343 H 0.68368 0.36806 0.34155
 H344 H 0.63348 0.36123 0.16153
 H345 H 0.67090 0.30636 0.21114
 H346 H 0.64453 0.42065 0.29919
 C347 C 0.16115 0.80702 0.27042
 C348 C 0.16389 0.84269 0.26334
 C349 C 0.13421 0.86298 0.20718
 C350 C 0.12710 0.89769 0.22357
 H351 H 0.18531 0.85735 0.30694
 H352 H 0.11543 0.84892 0.15778
 H353 H 0.14001 0.79199 0.22716
 H354 H 0.14453 0.91107 0.27605
   
