data_POSCAR
  _audit_creation_date              2014-09-24
  _audit_creation_method            'ToBaCCo'
  _symmetry_space_group_name_H-M    'P1'
  _symmetry_Int_Tables_number       1
  _symmetry_cell_setting            triclinic
  loop_
  _symmetry_equiv_pos_as_xyz
 x,y,z
_cell_length_a 21.2386
_cell_length_b 10.5137
_cell_length_c 7.8774
_cell_angle_alpha 89.451400
_cell_angle_beta 89.976800
_cell_angle_gamma 89.904700
loop_
  _atom_site_label
  _atom_site_type_symbol
  _atom_site_fract_x
  _atom_site_fract_y
  _atom_site_fract_z
C1 C 0.69495 0.28557 0.59668
 C2 C 0.69441 0.28285 0.41375
 C3 C 0.74977 0.24591 0.32889
 C4 C 0.80729 0.21961 0.41176
 C5 C 0.80808 0.22611 0.59687
 C6 C 0.75174 0.25765 0.68049
 H7 H 0.75210 0.26021 0.81846
 H8 H 0.74844 0.24236 0.19121
 C9 C 0.19620 0.79091 0.59213
 C10 C 0.19688 0.78743 0.40949
 C11 C 0.25230 0.74860 0.32865
 C12 C 0.30668 0.71060 0.41723
 C13 C 0.30568 0.71014 0.60054
 C14 C 0.24969 0.74853 0.68130
 H15 H 0.24819 0.74949 0.81910
 H16 H 0.25303 0.74757 0.19082
 C17 C 0.30495 0.27975 -0.59176
 C18 C 0.30507 0.28365 -0.40901
 C19 C 0.25025 0.24799 -0.32125
 C20 C 0.19369 0.21430 -0.40246
 C21 C 0.19359 0.20974 -0.58671
 C22 C 0.24981 0.24030 -0.67341
 H23 H 0.25033 0.23731 -0.81122
 H24 H 0.25128 0.25048 -0.18342
 C25 C -0.19485 0.77671 -0.59493
 C26 C -0.19498 0.78553 -0.41182
 C27 C -0.25075 0.75453 -0.32553
 C28 C -0.30715 0.72045 -0.40755
 C29 C -0.30653 0.70936 -0.59184
 C30 C -0.24966 0.73592 -0.67701
 H31 H -0.24834 0.72933 -0.81454
 H32 H -0.25060 0.76021 -0.18787
 O33 O 0.08694 0.80693 -0.33929
 O34 O 0.15749 0.90902 -0.16735
 C35 C 0.14361 0.83990 -0.30008
 O36 O -0.08484 1.22249 -0.32454
 O37 O -0.15664 1.11531 -0.16061
 C38 C -0.14220 1.18806 -0.29147
 O39 O 0.08620 1.20780 -0.32943
 O40 O 0.15784 1.11135 -0.15451
 C41 C 0.14369 1.17694 -0.29161
 O42 O -0.08497 0.79689 -0.33242
 O43 O -0.15679 0.90624 -0.17179
 C44 C -0.14224 0.83218 -0.29950
 Zr45 Zr 0.00200 0.85409 -0.21675
 O46 O 0.02026 0.86953 -0.46751
 O47 O 0.00729 0.65342 -0.23709
 Zr48 Zr 0.00086 1.18203 -0.18778
 O49 O 0.01921 1.32709 -0.37370
 O50 O -0.00437 1.36500 -0.07952
 O51 O 0.05527 1.01928 -0.23262
 O52 O -0.05122 1.01796 -0.24028
 O53 O -0.08593 0.78112 0.32246
 O54 O -0.15711 0.89338 0.15912
 C55 C -0.14296 0.81740 0.28752
 O56 O 0.08647 1.20073 0.34436
 O57 O 0.15755 1.10010 0.17474
 C58 C 0.14340 1.16740 0.30826
 O59 O -0.08509 1.20976 0.34370
 O60 O -0.15585 1.11134 0.16792
 C61 C -0.14226 1.17947 0.30338
 O62 O 0.08797 0.78898 0.31955
 O63 O 0.15939 0.90369 0.16547
 C64 C 0.14484 0.82911 0.29229
 Zr65 Zr -0.00040 0.82447 0.19143
 O66 O -0.01446 0.68120 0.38304
 O67 O -0.00175 0.64109 0.08420
 Zr68 Zr -0.00020 1.15269 0.22432
 O69 O -0.00793 1.12973 0.47979
 O70 O -0.00358 1.35332 0.24597
 Zr71 Zr 0.09599 1.00436 0.00608
 Zr72 Zr -0.09559 1.00446 -0.00102
 O73 O -0.05324 0.98930 0.23699
 O74 O 0.05362 0.98662 0.24700
 O75 O -0.05881 0.81698 -0.01777
 O76 O 0.05836 1.18903 0.02145
 O77 O 0.05939 0.81886 -0.01243
 O78 O -0.05891 1.19065 0.01940
 H79 H -0.07558 1.01430 -0.34630
 H80 H 0.08915 1.25969 0.02656
 H81 H -0.08009 0.99297 0.33828
 H82 H 0.09123 0.75004 -0.01909
 H83 H -0.04692 1.39935 -0.10480
 H84 H 0.03957 1.38676 0.23037
 H85 H 0.02805 1.07719 0.50767
 H86 H 0.02173 0.62171 0.38956
 H87 H 0.03863 0.59867 0.11278
 H88 H -0.03515 0.61788 -0.21602
 H89 H -0.01911 0.89814 -0.51342
 H90 H -0.01617 1.38839 -0.38259
 O91 O 0.41423 0.28595 0.32261
 O92 O 0.34247 0.39573 0.16199
 C93 C 0.35707 0.32267 0.29147
 O94 O 0.58656 0.70162 0.33615
 O95 O 0.65758 0.59675 0.16933
 C96 C 0.64334 0.66626 0.30181
 O97 O 0.41573 0.69542 0.34345
 O98 O 0.34408 0.59476 0.17458
 C99 C 0.35881 0.66300 0.30694
 O100 O 0.58450 0.30492 0.33921
 O101 O 0.65787 0.39523 0.16325
 C102 C 0.64236 0.33013 0.29949
 Zr103 Zr 0.50114 0.32196 0.18995
 O104 O 0.51521 0.17553 0.37710
 O105 O 0.50796 0.13937 0.08138
 Zr106 Zr 0.50046 0.64978 0.21798
 O107 O 0.49537 0.62943 0.47161
 O108 O 0.50481 0.85027 0.23888
 O109 O 0.44486 0.48454 0.24190
 O110 O 0.55248 0.48568 0.22037
 O111 O 0.58690 0.29328 -0.33747
 O112 O 0.65823 0.39277 -0.16453
 C113 C 0.64432 0.32379 -0.29723
 O114 O 0.41356 0.69542 -0.33190
 O115 O 0.34143 0.60759 -0.15212
 C116 C 0.35568 0.67031 -0.29047
 O117 O 0.58534 0.71563 -0.33335
 O118 O 0.65754 0.61369 -0.16261
 C119 C 0.64303 0.68438 -0.29588
 O120 O 0.41378 0.28602 -0.32697
 O121 O 0.34391 0.40564 -0.17364
 C122 C 0.35775 0.32925 -0.29890
 Zr123 Zr 0.50007 0.34856 -0.22097
 O124 O 0.49517 0.37440 -0.47774
 O125 O 0.49581 0.14814 -0.24539
 Zr126 Zr 0.50084 0.67691 -0.19291
 O127 O 0.50261 0.82740 -0.37827
 O128 O 0.50237 0.85947 -0.08236
 Zr129 Zr 0.40480 0.50027 0.00056
 Zr130 Zr 0.59737 0.49915 -0.00396
 O131 O 0.55360 0.51177 -0.23907
 O132 O 0.44620 0.51509 -0.24013
 O133 O 0.56048 0.31030 -0.01994
 O134 O 0.44225 0.68574 0.01465
 O135 O 0.44218 0.31523 -0.01533
 O136 O 0.56058 0.68701 0.01415
 H137 H 0.53123 0.49190 0.10937
 H138 H 0.41100 0.75581 0.02056
 H139 H 0.58214 0.50546 -0.33557
 H140 H 0.41089 0.24549 -0.01885
 H141 H 0.46137 0.88384 0.23008
 H142 H 0.54463 0.89634 -0.10430
 H143 H 0.46697 0.88718 -0.36100
 H144 H 0.45788 0.42792 -0.49394
 H145 H 0.53811 0.11274 -0.22110
 H146 H 0.46752 0.09478 0.10135
 H147 H 0.47933 0.11535 0.38101
 H148 H 0.52908 0.56978 0.48534
   
