data_POSCAR
  _audit_creation_date              2014-09-24
  _audit_creation_method            'ToBaCCo'
  _symmetry_space_group_name_H-M    'P1'
  _symmetry_Int_Tables_number       1
  _symmetry_cell_setting            triclinic
  loop_
  _symmetry_equiv_pos_as_xyz
 x,y,z
_cell_length_a 35.3675
_cell_length_b 35.3884
_cell_length_c 35.3006
_cell_angle_alpha 89.841600
_cell_angle_beta 89.824800
_cell_angle_gamma 90.058400
loop_
  _atom_site_label
  _atom_site_type_symbol
  _atom_site_fract_x
  _atom_site_fract_y
  _atom_site_fract_z
C1 C 0.16804 0.16621 0.21546
 C2 C 0.20051 0.15017 0.19926
 C3 C 0.21682 0.16647 0.16683
 C4 C 0.20059 0.19880 0.15062
 C5 C 0.16815 0.21483 0.16680
 C6 C 0.15189 0.19853 0.19918
 H7 H 0.21314 0.12523 0.21195
 H8 H 0.21321 0.21161 0.12563
 H9 H 0.12687 0.21113 0.21173
 C10 C -0.16756 0.83224 0.21778
 C11 C -0.19985 0.84844 0.20151
 C12 C -0.21602 0.83229 0.16918
 C13 C -0.19989 0.79994 0.15307
 C14 C -0.16763 0.78370 0.16926
 C15 C -0.15146 0.79985 0.20160
 H16 H -0.21250 0.87341 0.21402
 H17 H -0.21250 0.78735 0.12813
 H18 H -0.12656 0.78712 0.21418
 C19 C -0.16763 0.16752 -0.21724
 C20 C -0.15149 0.19987 -0.20107
 C21 C -0.16772 0.21601 -0.16867
 C22 C -0.20009 0.19979 -0.15240
 C23 C -0.21630 0.16745 -0.16850
 C24 C -0.20004 0.15132 -0.20092
 H25 H -0.12651 0.21259 -0.21369
 H26 H -0.21268 0.21245 -0.12740
 H27 H -0.21265 0.12636 -0.21350
 C28 C 0.16901 0.83381 -0.21525
 C29 C 0.20138 0.84995 -0.19918
 C30 C 0.21761 0.83373 -0.16679
 C31 C 0.20135 0.80135 -0.15051
 C32 C 0.16898 0.78522 -0.16660
 C33 C 0.15283 0.80148 -0.19894
 H34 H 0.21395 0.87491 -0.21199
 H35 H 0.21390 0.78859 -0.12556
 H36 H 0.12787 0.78889 -0.21149
 C37 C 0.16743 1.16740 0.78386
 C38 C 0.19977 1.15127 0.80000
 C39 C 0.21597 1.16744 0.83230
 C40 C 0.19978 1.19972 0.84849
 C41 C 0.16743 1.21586 0.83236
 C42 C 0.15126 1.19968 0.80007
 H43 H 0.21241 1.12639 0.78735
 H44 H 0.21242 1.21235 0.87339
 H45 H 0.12632 1.21228 0.78747
 C46 C 0.83395 0.83195 0.78431
 C47 C 0.85005 0.79954 0.80054
 C48 C 0.83380 0.78331 0.83302
 C49 C 0.80147 0.79954 0.84927
 C50 C 0.78539 0.83190 0.83306
 C51 C 0.80163 0.84810 0.80062
 H52 H 0.87499 0.78690 0.78782
 H53 H 0.78869 0.78697 0.87430
 H54 H 0.78898 0.87307 0.78805
 C55 C 0.16575 0.83311 1.21613
 C56 C 0.19816 0.84929 1.19983
 C57 C 0.21443 0.83311 1.16749
 C58 C 0.19829 0.80077 1.15141
 C59 C 0.16591 0.78458 1.16766
 C60 C 0.14963 0.80074 1.20000
 H61 H 0.21085 0.87422 1.21234
 H62 H 0.21101 0.78813 1.12649
 H63 H 0.12466 0.78802 1.21263
 C64 C 0.83321 1.16730 1.21641
 C65 C 0.84940 1.19974 1.20017
 C66 C 0.83328 1.21601 1.16776
 C67 C 0.80097 1.19979 1.15160
 C68 C 0.78479 1.16740 1.16780
 C69 C 0.80091 1.15115 1.20017
 H70 H 0.87432 1.21238 1.21282
 H71 H 0.78830 1.21239 1.12662
 H72 H 0.78819 1.12615 1.21274
 N73 N 0.54056 1.06711 0.95904
 N74 N 0.56984 1.08990 0.95471
 N75 N 0.46101 1.04095 0.93273
 N76 N 0.43177 1.04510 0.90995
 N77 N 0.46096 1.06717 0.95895
 N78 N 0.43169 1.08988 0.95473
 N79 N 0.54062 1.04087 0.93282
 N80 N 0.56992 1.04510 0.90996
 C81 C 0.58788 1.07587 0.92391
 C82 C 0.41377 1.07582 0.92397
 N83 N 0.46066 0.93337 0.95932
 N84 N 0.43135 0.91066 0.95516
 N85 N 0.54044 0.95951 0.93307
 N86 N 0.56982 0.95527 0.91034
 N87 N 0.54025 0.93330 0.95945
 N88 N 0.56948 0.91051 0.95538
 N89 N 0.46082 0.95960 0.93295
 N90 N 0.43163 0.95543 0.91013
 Mn91 Mn 0.50073 1.00023 0.93241
 C92 C 0.41352 0.92471 0.92428
 C93 C 0.58765 0.92450 0.92456
 N94 N 0.46055 1.06718 1.04051
 N95 N 0.43127 1.08993 1.04463
 N96 N 0.54000 1.04088 1.06696
 N97 N 0.56919 1.04502 1.08978
 N98 N 0.54017 1.06711 1.04060
 N99 N 0.56949 1.08980 1.04476
 N100 N 0.46040 1.04094 1.06686
 N101 N 0.43104 1.04512 1.08962
 Mn102 Mn 0.50056 1.06762 0.99977
 C103 C 0.41314 1.07587 1.07547
 C104 C 0.58730 1.07573 1.07564
 N105 N 0.53994 0.93331 1.04098
 N106 N 0.56913 0.91052 1.04532
 N107 N 0.46027 0.95961 1.06707
 N108 N 0.43084 0.95549 1.08979
 N109 N 0.46034 0.93339 1.04085
 N110 N 0.43097 0.91071 1.04501
 N111 N 0.53986 0.95955 1.06719
 N112 N 0.56900 0.95532 1.09008
 Mn113 Mn 0.50030 0.93287 1.00015
 Mn114 Mn 0.50013 1.00024 1.06750
 Cl115 Cl 0.50043 1.00024 0.99996
 C116 C 0.58699 0.92455 1.07614
 C117 C 0.41285 0.92479 1.07573
 N118 N -0.04088 0.46042 -0.06698
 N119 N -0.04502 0.43132 -0.08990
 N120 N -0.06719 0.53982 -0.04040
 N121 N -0.08994 0.56908 -0.04455
 N122 N -0.04087 0.53997 -0.06670
 N123 N -0.04499 0.56933 -0.08944
 N124 N -0.06719 0.46023 -0.04067
 N125 N -0.08995 0.43098 -0.04498
 C126 C -0.07582 0.41322 -0.07588
 C127 C -0.07578 0.58722 -0.07534
 N128 N -0.04118 0.53914 0.06746
 N129 N -0.04538 0.56826 0.09036
 N130 N -0.06736 0.45971 0.04092
 N131 N -0.09011 0.43038 0.04512
 N132 N -0.04114 0.45961 0.06717
 N133 N -0.04534 0.43025 0.08992
 N134 N -0.06737 0.53930 0.04119
 N135 N -0.09011 0.56854 0.04552
 Mn136 Mn -0.06777 0.49976 0.00026
 C137 C -0.07609 0.58633 0.07639
 C138 C -0.07606 0.41228 0.07588
 N139 N 0.04053 0.54012 -0.06674
 N140 N 0.04486 0.56952 -0.08944
 N141 N 0.06670 0.46043 -0.04073
 N142 N 0.08942 0.43118 -0.04496
 N143 N 0.04052 0.46053 -0.06702
 N144 N 0.04473 0.43135 -0.08984
 N145 N 0.06668 0.53994 -0.04044
 N146 N 0.08951 0.56920 -0.04453
 Mn147 Mn -0.00017 0.50026 -0.06734
 C148 C 0.07561 0.58738 -0.07527
 C149 C 0.07543 0.41333 -0.07579
 N150 N 0.04024 0.45967 0.06708
 N151 N 0.04446 0.43027 0.08977
 N152 N 0.06648 0.53944 0.04105
 N153 N 0.08912 0.56879 0.04523
 N154 N 0.04019 0.53924 0.06737
 N155 N 0.04423 0.56845 0.09017
 N156 N 0.06652 0.45991 0.04075
 N157 N 0.08934 0.43071 0.04480
 Mn158 Mn -0.00048 0.49941 0.06775
 Mn159 Mn 0.06706 0.49993 0.00016
 Cl160 Cl -0.00035 0.49984 0.00020
 C161 C 0.07528 0.41248 0.07556
 C162 C 0.07495 0.58660 0.07606
 N163 N 1.06670 -0.04049 0.53942
 N164 N 1.08957 -0.04453 0.56861
 N165 N 1.04028 -0.06695 0.45997
 N166 N 1.04437 -0.08972 0.43071
 N167 N 1.06651 -0.04068 0.45970
 N168 N 1.08917 -0.04488 0.43024
 N169 N 1.04048 -0.06676 0.53974
 N170 N 1.04481 -0.08942 0.56918
 C171 C 1.07563 -0.07524 0.58690
 C172 C 1.07506 -0.07566 0.41244
 N173 N 0.93265 -0.04087 0.46035
 N174 N 0.90983 -0.04518 0.43116
 N175 N 0.95910 -0.06689 0.54009
 N176 N 0.95501 -0.08966 0.56948
 N177 N 0.93282 -0.04073 0.54015
 N178 N 0.91012 -0.04500 0.56961
 N179 N 0.95891 -0.06706 0.46036
 N180 N 0.95466 -0.08990 0.43118
 Mn181 Mn 0.99969 -0.06739 0.50004
 C182 C 0.92385 -0.07596 0.41324
 C183 C 0.92428 -0.07572 0.58763
 N184 N 1.06652 0.04061 0.45931
 N185 N 1.08932 0.04476 0.42994
 N186 N 1.04043 0.06700 0.53904
 N187 N 1.04463 0.08974 0.56830
 N188 N 1.06667 0.04080 0.53902
 N189 N 1.08944 0.04500 0.56826
 N190 N 1.04030 0.06684 0.45927
 N191 N 1.04458 0.08956 0.42983
 Mn192 Mn 1.06707 0.00006 0.49936
 C193 C 1.07535 0.07547 0.41181
 C194 C 1.07540 0.07572 0.58624
 N195 N 0.93278 0.04066 0.53974
 N196 N 0.91001 0.04495 0.56911
 N197 N 0.95890 0.06676 0.45974
 N198 N 0.95469 0.08949 0.43036
 N199 N 0.93264 0.04052 0.45995
 N200 N 0.90984 0.04470 0.43070
 N201 N 0.95903 0.06692 0.53949
 N202 N 0.95481 0.08978 0.56868
 Mn203 Mn 0.93223 -0.00010 0.50005
 Mn204 Mn 0.99966 0.06736 0.49938
 Cl205 Cl 0.99965 -0.00002 0.49971
 C206 C 0.92405 0.07578 0.58689
 C207 C 0.92391 0.07545 0.41252
 C208 C 1.12250 0.12153 0.30954
 C209 C 1.09061 0.13824 0.32605
 C210 C 1.07513 0.12320 0.35934
 C211 C 1.15248 0.15078 0.24730
 C212 C 1.12335 0.07455 0.35963
 C213 C 1.13877 0.08963 0.32635
 C214 C 1.13875 0.13735 0.27560
 C215 C 1.09144 0.09127 0.37650
 H216 H 1.07779 0.16295 0.31325
 H217 H 1.05050 0.13660 0.37167
 H218 H 1.13644 0.04988 0.37218
 H219 H 1.16345 0.07647 0.31381
 C220 C 0.87730 -0.12275 0.31153
 C221 C 0.90923 -0.13917 0.32813
 C222 C 0.92448 -0.12389 0.36123
 C223 C 0.84785 -0.15234 0.24952
 C224 C 0.87593 -0.07557 0.36121
 C225 C 0.86073 -0.09090 0.32810
 C226 C 0.86135 -0.13879 0.27773
 C227 C 0.90789 -0.09200 0.37815
 H228 H 0.92229 -0.16383 0.31554
 H229 H 0.94917 -0.13706 0.37361
 H230 H 0.86263 -0.05094 0.37357
 H231 H 0.83601 -0.07797 0.31549
 C232 C 0.87744 0.12257 0.68882
 C233 C 0.86093 0.09062 0.67241
 C234 C 0.87616 0.07529 0.63924
 C235 C 0.84786 0.15213 0.75096
 C236 C 0.92462 0.12380 0.63883
 C237 C 0.90935 0.13908 0.67200
 C238 C 0.86143 0.13861 0.72270
 C239 C 0.90809 0.09181 0.62207
 H240 H 0.83624 0.07761 0.68519
 H241 H 0.86290 0.05059 0.62700
 H242 H 0.94928 0.13705 0.62627
 H243 H 0.92235 0.16381 0.68447
 C244 C 1.12278 -0.12093 0.68900
 C245 C 1.09088 -0.13773 0.67274
 C246 C 1.07541 -0.12282 0.63950
 C247 C 1.15266 -0.14995 0.75117
 C248 C 1.12367 -0.07410 0.63875
 C249 C 1.13909 -0.08906 0.67198
 C250 C 1.13899 -0.13662 0.72290
 C251 C 1.09175 -0.09092 0.62214
 H252 H 1.07804 -0.16242 0.68569
 H253 H 1.05077 -0.13628 0.62737
 H254 H 1.13677 -0.04945 0.62604
 H255 H 1.16377 -0.07584 0.68433
 C256 C 0.31097 1.12204 1.12191
 C257 C 0.32755 1.09017 1.13851
 C258 C 0.36081 1.07506 1.12333
 C259 C 0.24869 1.15122 1.15141
 C260 C 0.36096 1.12362 1.07475
 C261 C 0.32770 1.13869 1.08997
 C262 C 0.27701 1.13786 1.13788
 C263 C 0.37789 1.09172 1.09137
 H264 H 0.31484 1.07706 1.16323
 H265 H 0.37317 1.05041 1.13666
 H266 H 0.37345 1.13696 1.05006
 H267 H 0.31510 1.16336 1.07690
 C268 C 0.31156 0.87843 0.87787
 C269 C 0.32833 0.91026 0.86119
 C270 C 0.36151 0.92541 0.87634
 C271 C 0.24941 0.84909 0.84852
 C272 C 0.36123 0.87700 0.92507
 C273 C 0.32804 0.86189 0.90987
 C274 C 0.27768 0.86255 0.86197
 C275 C 0.37834 0.90885 0.90837
 H276 H 0.31580 0.92329 0.83642
 H277 H 0.37403 0.95002 0.86295
 H278 H 0.37351 0.86372 0.94981
 H279 H 0.31529 0.83725 0.92301
 C280 C 0.68860 0.87806 1.12309
 C281 C 0.67195 0.90995 1.13952
 C282 C 0.63888 0.92518 1.12418
 C283 C 0.75052 0.84861 1.15281
 C284 C 0.63905 0.87669 1.07578
 C285 C 0.67212 0.86151 1.09117
 C286 C 0.72236 0.86211 1.13920
 C287 C 0.62206 0.90861 1.09222
 H288 H 0.68447 0.92298 1.16423
 H289 H 0.62645 0.94983 1.13736
 H290 H 0.62676 0.86342 1.05110
 H291 H 0.68478 0.83682 1.07823
 C292 C 0.68981 1.12248 0.87688
 C293 C 0.67322 1.09056 0.86048
 C294 C 0.64005 1.07530 0.87585
 C295 C 0.75191 1.15201 0.84706
 C296 C 0.64000 1.12378 0.92423
 C297 C 0.67317 1.13901 0.90882
 C298 C 0.72367 1.13848 0.86072
 C299 C 0.62307 1.09184 0.90781
 H300 H 0.68586 1.07754 0.83576
 H301 H 0.62768 1.05062 0.86267
 H302 H 0.62759 1.13705 0.94891
 H303 H 0.68578 1.16372 0.92174
 C304 C 0.12212 0.31047 0.12141
 C305 C 0.13855 0.32738 0.08948
 C306 C 0.12324 0.36058 0.07446
 C307 C 0.15184 0.24837 0.15054
 C308 C 0.07483 0.36001 0.12324
 C309 C 0.09019 0.32680 0.13821
 C310 C 0.13823 0.27660 0.13716
 C311 C 0.09129 0.37727 0.09128
 H312 H 0.16327 0.31497 0.07625
 H313 H 0.13644 0.37322 0.04977
 H314 H 0.05016 0.37220 0.13671
 H315 H 0.07725 0.31393 0.16294
 C316 C -0.12212 0.31153 -0.12279
 C317 C -0.09019 0.32829 -0.13931
 C318 C -0.07503 0.36139 -0.12399
 C319 C -0.15145 0.24953 -0.15240
 C320 C -0.12365 0.36103 -0.07543
 C321 C -0.13877 0.32793 -0.09079
 C322 C -0.13799 0.27773 -0.13885
 C323 C -0.09169 0.37813 -0.09196
 H324 H -0.07708 0.31583 -0.16407
 H325 H -0.05034 0.37390 -0.13725
 H326 H -0.13701 0.37326 -0.05069
 H327 H -0.16348 0.31520 -0.07777
 C328 C 0.12272 0.68948 -0.12116
 C329 C 0.13897 0.67260 -0.08923
 C330 C 0.12356 0.63937 -0.07421
 C331 C 0.15261 0.75165 -0.15031
 C332 C 0.07542 0.63986 -0.12296
 C333 C 0.09088 0.67309 -0.13795
 C334 C 0.13893 0.72338 -0.13691
 C335 C 0.09171 0.62263 -0.09101
 H336 H 0.16361 0.68506 -0.07602
 H337 H 0.13662 0.62677 -0.04952
 H338 H 0.05083 0.62762 -0.13642
 H339 H 0.07808 0.68594 -0.16267
 C340 C -0.12224 0.68808 0.12332
 C341 C -0.13885 0.67166 0.09140
 C342 C -0.12379 0.63853 0.07603
 C343 C -0.15143 0.75015 0.15297
 C344 C -0.07531 0.63819 0.12443
 C345 C -0.09041 0.67132 0.13976
 C346 C -0.13805 0.72192 0.13940
 C347 C -0.09193 0.62143 0.09247
 H348 H -0.16350 0.68441 0.07845
 H349 H -0.13711 0.62628 0.05135
 H350 H -0.05069 0.62569 0.13762
 H351 H -0.07733 0.68380 0.16446
 C352 C 1.12176 0.12190 0.68821
 C353 C 1.13829 0.09008 0.67157
 C354 C 1.12315 0.07495 0.63836
 C355 C 1.15117 0.15118 0.75033
 C356 C 1.07474 0.12342 0.63841
 C357 C 1.08993 0.13850 0.67162
 C358 C 1.13769 0.13775 0.72208
 C359 C 1.09129 0.09156 0.62142
 H360 H 1.16294 0.07702 0.68419
 H361 H 1.13641 0.05034 0.62593
 H362 H 1.05012 0.13672 0.62602
 H363 H 1.07692 0.16314 0.68429
 C364 C 0.87843 -0.12271 0.69006
 C365 C 0.86163 -0.09089 0.67354
 C366 C 0.87660 -0.07547 0.64019
 C367 C 0.84932 -0.15257 0.75242
 C368 C 0.92535 -0.12360 0.63987
 C369 C 0.91034 -0.13897 0.67320
 C370 C 0.86269 -0.13889 0.72406
 C371 C 0.90854 -0.09177 0.62299
 H372 H 0.83692 -0.07809 0.68636
 H373 H 0.86315 -0.05089 0.62785
 H374 H 0.95003 -0.13667 0.62729
 H375 H 0.92355 -0.16359 0.68576
 C376 C 1.12104 -0.12207 0.31017
 C377 C 1.08923 -0.13864 0.32709
 C378 C 1.07416 -0.12347 0.36039
 C379 C 1.15033 -0.15153 0.24793
 C380 C 1.12264 -0.07496 0.35986
 C381 C 1.13766 -0.09018 0.32656
 C382 C 1.13687 -0.13803 0.27623
 C383 C 1.09081 -0.09155 0.37714
 H384 H 1.07616 -0.16334 0.31462
 H385 H 1.04957 -0.13676 0.37305
 H386 H 1.13596 -0.05031 0.37210
 H387 H 1.16229 -0.07714 0.31368
 C388 C 0.87770 0.12211 0.31042
 C389 C 0.86100 0.09027 0.32715
 C390 C 0.87608 0.07496 0.36039
 C391 C 0.84851 0.15180 0.24822
 C392 C 0.92475 0.12326 0.36020
 C393 C 0.90963 0.13852 0.32697
 C394 C 0.86188 0.13818 0.27651
 C395 C 0.90804 0.09140 0.37728
 H396 H 0.83628 0.07735 0.31456
 H397 H 0.86270 0.05035 0.37289
 H398 H 0.94944 0.13644 0.37255
 H399 H 0.92278 0.16316 0.31426
 C400 C 0.12177 0.31145 -0.12209
 C401 C 0.13823 0.32799 -0.09016
 C402 C 0.12309 0.36116 -0.07500
 C403 C 0.15118 0.24938 -0.15140
 C404 C 0.07482 0.36130 -0.12363
 C405 C 0.09001 0.32812 -0.13875
 C406 C 0.13769 0.27760 -0.13796
 C407 C 0.09131 0.37818 -0.09167
 H408 H 0.16282 0.31530 -0.07705
 H409 H 0.13630 0.37350 -0.05031
 H410 H 0.05027 0.37376 -0.13699
 H411 H 0.07706 0.31554 -0.16347
 C412 C -0.12218 0.31010 0.12259
 C413 C -0.13885 0.32674 0.09074
 C414 C -0.12379 0.36001 0.07541
 C415 C -0.15138 0.24785 0.15229
 C416 C -0.07521 0.36002 0.12372
 C417 C -0.09030 0.32676 0.13900
 C418 C -0.13799 0.27616 0.13868
 C419 C -0.09189 0.37702 0.09184
 H420 H -0.16353 0.31406 0.07782
 H421 H -0.13715 0.37244 0.05079
 H422 H -0.05056 0.37245 0.13690
 H423 H -0.07718 0.31411 0.16365
 C424 C -0.12181 0.68930 -0.12191
 C425 C -0.08987 0.67273 -0.13841
 C426 C -0.07480 0.63950 -0.12318
 C427 C -0.15094 0.75149 -0.15152
 C428 C -0.12355 0.63937 -0.07474
 C429 C -0.13857 0.67260 -0.09002
 C430 C -0.13759 0.72321 -0.13794
 C431 C -0.09158 0.62245 -0.09126
 H432 H -0.07667 0.68542 -0.16310
 H433 H -0.05010 0.62714 -0.13644
 H434 H -0.13698 0.62690 -0.05009
 H435 H -0.16331 0.68521 -0.07702
 C436 C 0.12069 0.68875 0.12226
 C437 C 0.08889 0.67193 0.13894
 C438 C 0.07391 0.63866 0.12386
 C439 C 0.14977 0.75098 0.15151
 C440 C 0.12246 0.63900 0.07521
 C441 C 0.13740 0.67227 0.09034
 C442 C 0.13642 0.72269 0.13811
 C443 C 0.09063 0.62183 0.09191
 H444 H 0.07575 0.68446 0.16366
 H445 H 0.04931 0.62609 0.13723
 H446 H 0.13585 0.62671 0.05053
 H447 H 0.16203 0.68507 0.07722
 C448 C 0.31173 1.12197 0.87774
 C449 C 0.32839 1.09017 0.86115
 C450 C 0.36162 1.07505 0.87624
 C451 C 0.24955 1.15124 0.84848
 C452 C 0.36157 1.12347 0.92472
 C453 C 0.32834 1.13854 0.90958
 C454 C 0.27783 1.13781 0.86189
 C455 C 0.37857 1.09164 0.90811
 H456 H 0.31576 1.07713 0.83650
 H457 H 0.37406 1.05047 0.86294
 H458 H 0.37396 1.13675 0.94934
 H459 H 0.31567 1.16315 0.92264
 C460 C 0.31042 0.87865 1.12188
 C461 C 0.32702 0.91046 1.13847
 C462 C 0.36037 0.92558 1.12340
 C463 C 0.24808 0.84933 1.15121
 C464 C 0.36055 0.87717 1.07493
 C465 C 0.32720 0.86209 1.09005
 C466 C 0.27642 0.86278 1.13775
 C467 C 0.37750 0.90899 1.09155
 H468 H 0.31425 0.92349 1.16312
 H469 H 0.37277 0.95017 1.13671
 H470 H 0.37309 0.86388 1.05032
 H471 H 0.31457 0.83746 1.07699
 C472 C 0.68922 1.12187 1.12208
 C473 C 0.67245 1.09003 1.13873
 C474 C 0.63927 1.07492 1.12355
 C475 C 0.75128 1.15116 1.15153
 C476 C 0.63959 1.12340 1.07488
 C477 C 0.67277 1.13847 1.09010
 C478 C 0.72306 1.13772 1.13803
 C479 C 0.62247 1.09154 1.09155
 H480 H 0.68496 1.07697 1.16348
 H481 H 0.62674 1.05030 1.13690
 H482 H 0.62731 1.13672 1.05016
 H483 H 0.68553 1.16312 1.07700
 C484 C 0.68971 0.87781 0.87858
 C485 C 0.67330 0.90967 0.86178
 C486 C 0.64007 0.92498 0.87680
 C487 C 0.75184 0.84819 0.84935
 C488 C 0.63964 0.87664 0.92561
 C489 C 0.67286 0.86138 0.91055
 C490 C 0.72359 0.86175 0.86277
 C491 C 0.62288 0.90853 0.90880
 H492 H 0.68612 0.92260 0.83702
 H493 H 0.62782 0.94961 0.86334
 H494 H 0.62705 0.86345 0.95034
 H495 H 0.68534 0.83671 0.92376
   
