data_POSCAR
  _audit_creation_date              2014-09-24
  _audit_creation_method            'ToBaCCo'
  _symmetry_space_group_name_H-M    'P1'
  _symmetry_Int_Tables_number       1
  _symmetry_cell_setting            triclinic
  loop_
  _symmetry_equiv_pos_as_xyz
 x,y,z
_cell_length_a 9.8555
_cell_length_b 9.8300
_cell_length_c 26.7054
_cell_angle_alpha 94.304800
_cell_angle_beta 89.276500
_cell_angle_gamma 124.776700
loop_
  _atom_site_label
  _atom_site_type_symbol
  _atom_site_fract_x
  _atom_site_fract_y
  _atom_site_fract_z
Si1 Si -0.01407 -0.05031 0.50888
 Si2 Si 0.90186 -0.10031 0.15381
 Si3 Si -0.00155 1.03827 0.83108
 O4 O 0.28191 -0.11294 -0.05426
 O5 O 0.56022 -0.08331 0.04119
 O6 O 0.27769 -0.11786 0.04209
 O7 O 0.56565 -0.07864 -0.05622
 O8 O 0.69564 0.19409 -0.04728
 O9 O 0.41310 0.15571 0.04924
 O10 O 0.69605 0.18969 0.05015
 O11 O 0.41256 0.16004 -0.04761
 Cu12 Cu 0.40882 -0.12556 -0.00771
 Cu13 Cu 0.56810 0.20247 0.00191
 C14 C 0.29674 0.01669 -0.06664
 C15 C 0.67540 0.05643 0.06212
 C16 C 0.29619 0.01400 0.06164
 C17 C 0.68032 0.06565 -0.06805
 O18 O 0.24493 0.78387 0.71791
 O19 O 0.23813 0.48492 0.62400
 O20 O 0.27487 0.76901 0.62104
 O21 O 0.27697 0.53613 0.72202
 O22 O 0.00414 0.37786 0.71951
 O23 O 0.00206 0.61655 0.62025
 O24 O -0.03490 0.33126 0.62193
 O25 O -0.02810 0.62364 0.71702
 Cu26 Cu 0.28538 0.65815 0.67160
 Cu27 Cu -0.04061 0.47221 0.66951
 C28 C 0.10817 0.75484 0.73293
 C29 C 0.09967 0.35718 0.60686
 C30 C 0.13859 0.73440 0.60387
 C31 C 0.14202 0.41605 0.73752
 O32 O 0.25444 0.36999 0.37450
 O33 O 0.54717 0.59944 0.27640
 O34 O 0.24229 0.34002 0.27637
 O35 O 0.51722 0.67729 0.37062
 O36 O 0.63714 0.55124 0.38664
 O37 O 0.37136 0.22009 0.28821
 O38 O 0.67891 0.48526 0.29237
 O39 O 0.37908 0.24566 0.38649
 Cu40 Cu 0.37937 0.50821 0.32338
 Cu41 Cu 0.52903 0.36506 0.33953
 C42 C 0.26666 0.26722 0.39698
 C43 C 0.66366 0.58096 0.26769
 C44 C 0.25982 0.22335 0.26575
 C45 C 0.62181 0.67122 0.39544
 C46 C -0.03875 0.09919 0.54976
 C47 C 0.09895 0.23844 0.56990
 H48 H -0.16065 0.06500 0.55972
 H49 H 0.21832 0.26502 0.55987
 C50 C 0.74492 0.73266 0.19279
 C51 C 0.78388 0.67455 0.22936
 H52 H 0.62113 0.70306 0.18955
 H53 H 0.90692 0.70234 0.23259
 C54 C 0.17925 0.11458 -0.12397
 C55 C 0.17030 -0.00710 -0.10160
 H56 H 0.08784 0.10378 -0.14326
 H57 H 0.06194 -0.13400 -0.10821
 C58 C 0.00319 0.82780 0.55567
 C59 C 0.13873 0.83398 0.56530
 H60 H -0.10795 0.74934 0.57598
 H61 H 0.25142 0.91712 0.54626
 C62 C 0.03300 0.08279 0.20094
 C63 C 0.15197 0.08955 0.22712
 H64 H 0.00706 0.17565 0.20763
 H65 H 0.17213 -0.00747 0.21977
 C66 C 0.80872 -0.02897 -0.12904
 C67 C 0.80239 0.09135 -0.10514
 H68 H 0.72024 -0.15835 -0.12267
 H69 H 0.89763 0.21935 -0.11163
 C70 C 0.04749 -0.12962 0.11311
 C71 C 0.17983 0.00905 0.09738
 H72 H -0.03757 -0.12369 0.13425
 H73 H 0.19994 0.12782 0.10875
 C74 C 0.79720 0.77873 0.47137
 C75 C 0.72977 0.80605 0.43398
 H76 H 0.76369 0.65408 0.47523
 H77 H 0.76126 0.92978 0.43002
 C78 C 0.00632 0.18729 0.79188
 C79 C 0.14592 0.31680 0.77553
 H80 H -0.11220 0.15595 0.77833
 H81 H 0.26408 0.34502 0.78820
 C82 C 0.76438 -0.07997 0.11110
 C83 C 0.78688 0.06153 0.09993
 H84 H 0.66407 -0.19768 0.09309
 H85 H 0.88901 0.17955 0.11716
 C86 C 0.15868 0.07202 0.46282
 C87 C 0.14788 0.17349 0.43521
 H88 H 0.07341 0.00890 0.48968
 H89 H 0.04867 0.18981 0.44092
 C90 C -0.03037 0.85248 0.78545
 C91 C 0.10924 0.87821 0.76776
 H92 H -0.04259 0.93380 0.80571
 H93 H 0.22705 0.99493 0.77747
   
