data_POSCAR
  _audit_creation_date              2014-09-24
  _audit_creation_method            'ToBaCCo'
  _symmetry_space_group_name_H-M    'P1'
  _symmetry_Int_Tables_number       1
  _symmetry_cell_setting            triclinic
  loop_
  _symmetry_equiv_pos_as_xyz
 x,y,z
_cell_length_a 34.3174
_cell_length_b 29.9167
_cell_length_c 34.6558
_cell_angle_alpha 89.592400
_cell_angle_beta 90.061500
_cell_angle_gamma 89.292900
loop_
  _atom_site_label
  _atom_site_type_symbol
  _atom_site_fract_x
  _atom_site_fract_y
  _atom_site_fract_z
O1 O 0.39295 0.34044 -0.03528
 O2 O 0.33328 0.39692 0.03824
 O3 O 0.39557 0.34552 0.04026
 O4 O 0.33356 0.39175 -0.03603
 O5 O 0.29276 0.33576 -0.02932
 O6 O 0.35931 0.28511 0.04280
 O7 O 0.29733 0.33650 0.04495
 O8 O 0.35395 0.28228 -0.03211
 Cu9 Cu 0.36792 0.37447 0.00181
 Cu10 Cu 0.32219 0.30372 0.00702
 C11 C 0.38276 0.30223 -0.04704
 C12 C 0.30504 0.37649 0.05373
 C13 C 0.38851 0.30715 0.05415
 C14 C 0.30222 0.37246 -0.04529
 O15 O 0.67575 0.61252 0.04102
 O16 O 0.60641 0.64259 -0.03670
 O17 O 0.67152 0.59542 -0.03095
 O18 O 0.60979 0.65633 0.03747
 O19 O 0.64355 0.71755 0.02730
 O20 O 0.69960 0.65828 -0.04854
 O21 O 0.63722 0.70614 -0.04661
 O22 O 0.71038 0.67198 0.02600
 Cu23 Cu 0.63739 0.62070 0.00391
 Cu24 Cu 0.67627 0.69470 -0.01118
 C25 C 0.70560 0.63650 0.04565
 C26 C 0.60988 0.67963 -0.05457
 C27 C 0.69549 0.61628 -0.05210
 C28 C 0.61617 0.69713 0.04446
 O29 O 0.65543 0.40286 0.95551
 O30 O 0.60467 0.35922 1.04149
 O31 O 0.66401 0.41211 1.03032
 O32 O 0.59752 0.35060 0.96695
 O33 O 0.63737 0.29207 0.96847
 O34 O 0.70425 0.35415 1.03173
 O35 O 0.64397 0.30023 1.04208
 O36 O 0.69539 0.34450 0.95729
 Cu37 Cu 0.62654 0.38714 0.99875
 Cu38 Cu 0.67452 0.31710 1.00049
 C39 C 0.68368 0.38059 0.94134
 C40 C 0.61489 0.32155 1.05558
 C41 C 0.69579 0.39401 1.04157
 C42 C 0.60623 0.31106 0.95657
 O43 O 0.39826 0.65588 1.03213
 O44 O 0.33768 0.59372 0.96395
 O45 O 0.39573 0.64732 0.95698
 O46 O 0.34070 0.60029 1.03812
 O47 O 0.29732 0.65500 1.03255
 O48 O 0.35492 0.70493 0.95473
 O49 O 0.29702 0.65148 0.95869
 O50 O 0.35526 0.71152 1.03005
 Cu51 Cu 0.37255 0.61877 0.99828
 Cu52 Cu 0.32223 0.68688 0.99402
 C53 C 0.38656 0.69412 1.04301
 C54 C 0.30733 0.61209 0.94967
 C55 C 0.38431 0.68383 0.94162
 C56 C 0.30869 0.61853 1.04813
 O57 O 0.03705 0.35964 0.39138
 O58 O -0.04508 0.40294 0.33312
 O59 O -0.03801 0.35004 0.39194
 O60 O 0.03048 0.41163 0.33062
 O61 O 0.03900 0.35169 0.29455
 O62 O -0.03362 0.29236 0.35279
 O63 O -0.03803 0.34635 0.29312
 O64 O 0.04033 0.29932 0.35506
 Cu65 Cu -0.00428 0.38709 0.36542
 Cu66 Cu 0.00242 0.31689 0.31953
 C67 C 0.05169 0.32141 0.38408
 C68 C -0.05572 0.38201 0.30326
 C69 C -0.04736 0.31045 0.38300
 C70 C 0.04700 0.39179 0.30272
 O71 O -0.03305 0.58860 0.66766
 O72 O 0.03706 0.64577 0.60452
 O73 O 0.04299 0.59166 0.66304
 O74 O -0.03926 0.63964 0.60829
 O75 O -0.04006 0.69840 0.64642
 O76 O 0.04196 0.65036 0.70128
 O77 O 0.03484 0.70497 0.64227
 O78 O -0.03374 0.64663 0.70673
 Cu79 Cu 0.00227 0.61056 0.63196
 Cu80 Cu 0.00083 0.68090 0.67814
 C81 C -0.04593 0.60820 0.69755
 C82 C 0.04765 0.68519 0.61250
 C83 C 0.05645 0.61283 0.69157
 C84 C -0.05419 0.67684 0.61832
 O85 O 1.04411 0.60293 0.33690
 O86 O 0.96377 0.64121 0.39862
 O87 O 0.96924 0.59303 0.33561
 O88 O 1.03912 0.65290 0.39648
 O89 O 1.03280 0.71273 0.35930
 O90 O 0.95849 0.65508 0.30209
 O91 O 0.95887 0.70373 0.36455
 O92 O 1.03472 0.66131 0.29849
 Cu93 Cu 1.00448 0.61643 0.37062
 Cu94 Cu 0.99536 0.68910 0.32716
 C95 C 1.05297 0.62532 0.30706
 C96 C 0.94865 0.67964 0.39302
 C97 C 0.95185 0.61408 0.30857
 C98 C 1.04821 0.69294 0.38817
 O99 O 0.96545 0.34555 0.60280
 O100 O 1.03019 0.40345 0.67076
 O101 O 1.04148 0.35520 0.60855
 O102 O 0.95579 0.39446 0.66300
 O103 O 0.96345 0.33723 0.70313
 O104 O 1.03987 0.29104 0.64013
 O105 O 1.03913 0.33984 0.70253
 O106 O 0.96502 0.28721 0.64238
 Cu107 Cu 0.99827 0.38078 0.63236
 Cu108 Cu 1.00241 0.30772 0.67581
 C109 C 0.95322 0.30703 0.61203
 C110 C 1.04600 0.38110 0.69799
 C111 C 1.05433 0.31560 0.61389
 C112 C 0.94582 0.37303 0.69304
 O113 O 0.40701 0.04155 0.34947
 O114 O 0.34776 -0.03695 0.40553
 O115 O 0.40142 -0.04555 0.35189
 O116 O 0.35298 0.04947 0.40132
 O117 O 0.30669 0.04945 0.35703
 O118 O 0.35699 -0.04078 0.30592
 O119 O 0.30363 -0.03761 0.35903
 O120 O 0.36097 0.04596 0.30487
 Cu121 Cu 0.38189 0.00168 0.38160
 Cu122 Cu 0.32753 0.00441 0.32719
 C123 C 0.39383 0.05768 0.31807
 C124 C 0.31582 -0.05077 0.39187
 C125 C 0.38757 -0.05880 0.31995
 C126 C 0.32134 0.06540 0.38754
 O127 O 0.59832 0.04585 0.65074
 O128 O 0.64841 -0.04108 0.59334
 O129 O 0.59737 -0.04286 0.64947
 O130 O 0.65073 0.04474 0.59622
 O131 O 0.69796 0.03882 0.63934
 O132 O 0.64326 -0.04417 0.69416
 O133 O 0.69357 -0.04714 0.63872
 O134 O 0.64577 0.04252 0.69374
 Cu135 Cu 0.61854 0.00207 0.61836
 Cu136 Cu 0.67467 -0.00269 0.67097
 C137 C 0.61390 0.05954 0.68168
 C138 C 0.67967 -0.05863 0.60635
 C139 C 0.61146 -0.05860 0.68080
 C140 C 0.68431 0.05541 0.60827
 O141 O 0.40685 0.95646 0.64342
 O142 O 0.35546 1.04572 0.58977
 O143 O 0.41050 1.04193 0.64358
 O144 O 0.35162 0.95773 0.59290
 O145 O 0.30792 0.96172 0.63946
 O146 O 0.36396 1.04894 0.68727
 O147 O 0.30986 1.04900 0.63468
 O148 O 0.36400 0.96286 0.69077
 Cu149 Cu 0.38529 1.00054 0.61241
 Cu150 Cu 0.33178 1.00603 0.66744
 C151 C 0.39469 0.94532 0.67660
 C152 C 0.32390 1.06221 0.60277
 C153 C 0.39734 1.05900 0.67450
 C154 C 0.32008 0.94459 0.60824
 O155 O 0.59821 0.95708 0.34821
 O156 O 0.66593 1.02513 0.40457
 O157 O 0.60795 1.04339 0.35316
 O158 O 0.65013 0.94291 0.39963
 O159 O 0.69834 0.94583 0.35756
 O160 O 0.64576 1.03264 0.30251
 O161 O 0.70097 1.03511 0.35204
 O162 O 0.64440 0.94768 0.30446
 Cu163 Cu 0.62588 0.99392 0.38104
 Cu164 Cu 0.67751 0.98965 0.32491
 C165 C 0.61072 0.93919 0.31740
 C166 C 0.69473 1.04266 0.38747
 C167 C 0.61778 1.05318 0.31880
 C168 C 0.68249 0.92820 0.38707
 C169 C 0.82618 0.75225 0.48807
 C170 C 0.82286 0.75444 0.52857
 C171 C 0.79402 0.78204 0.54480
 C172 C 0.76886 0.80845 0.52180
 C173 C 0.77104 0.80427 0.48106
 C174 C 0.79959 0.77594 0.46497
 H175 H 0.80234 0.77369 0.43387
 H176 H 0.79282 0.78495 0.57595
 C177 C 0.17418 0.24391 0.47924
 C178 C 0.17693 0.24280 0.52000
 C179 C 0.20718 0.21790 0.53753
 C180 C 0.23325 0.19208 0.51553
 C181 C 0.23095 0.19389 0.47468
 C182 C 0.20172 0.22050 0.45727
 H183 H 0.19932 0.22171 0.42607
 H184 H 0.20918 0.21644 0.56868
 C185 C 0.16293 0.77762 0.52143
 C186 C 0.16209 0.78133 0.48079
 C187 C 0.18978 0.80797 0.46209
 C188 C 0.21856 0.83096 0.48281
 C189 C 0.21959 0.82647 0.52380
 C190 C 0.19161 0.79980 0.54227
 H191 H 0.19179 0.79662 0.57346
 H192 H 0.18837 0.81144 0.43097
 C193 C 0.83949 0.21883 0.51672
 C194 C 0.84301 0.21540 0.47614
 C195 C 0.81754 0.18747 0.45604
 C196 C 0.78926 0.16172 0.47506
 C197 C 0.78449 0.16748 0.51552
 C198 C 0.80914 0.19646 0.53534
 H199 H 0.80631 0.19906 0.56642
 H200 H 0.82113 0.18425 0.42515
 C201 C 0.48244 0.81830 0.76862
 C202 C 0.52344 0.81512 0.77142
 C203 C 0.54019 0.78688 0.79968
 C204 C 0.51709 0.76191 0.82526
 C205 C 0.47591 0.76478 0.82165
 C206 C 0.45934 0.79272 0.79319
 H207 H 0.42789 0.79549 0.79066
 H208 H 0.57166 0.78500 0.80227
 C209 C 0.48643 0.18319 0.23143
 C210 C 0.52772 0.18356 0.23078
 C211 C 0.54689 0.21167 0.20452
 C212 C 0.52595 0.23698 0.17725
 C213 C 0.48481 0.23504 0.17687
 C214 C 0.46552 0.20956 0.20487
 H215 H 0.43399 0.20758 0.20409
 H216 H 0.57847 0.21186 0.20383
 C217 C 0.52452 0.17670 0.77985
 C218 C 0.48328 0.17349 0.77744
 C219 C 0.46025 0.19673 0.80438
 C220 C 0.47689 0.22125 0.83422
 C221 C 0.51775 0.22306 0.83768
 C222 C 0.54101 0.20122 0.81024
 H223 H 0.57244 0.20321 0.81277
 H224 H 0.42876 0.19427 0.80323
 C225 C 0.51717 0.82798 0.21914
 C226 C 0.47600 0.82363 0.22070
 C227 C 0.45732 0.79897 0.19199
 C228 C 0.47764 0.77993 0.16106
 C229 C 0.51872 0.78375 0.15960
 C230 C 0.53783 0.80751 0.18874
 H231 H 0.56922 0.81074 0.18730
 H232 H 0.42587 0.79611 0.19293
 C233 C 0.77981 0.46865 0.83048
 C234 C 0.78524 0.51525 0.83726
 C235 C 0.81456 0.53749 0.81620
 C236 C 0.83807 0.51525 0.78900
 C237 C 0.83340 0.46875 0.78409
 C238 C 0.80435 0.44647 0.80438
 H239 H 0.80108 0.41084 0.79995
 H240 H 0.81929 0.57274 0.82083
 C241 C 0.20882 0.48044 0.15830
 C242 C 0.21139 0.52771 0.15708
 C243 C 0.18837 0.55318 0.18236
 C244 C 0.16277 0.53297 0.20840
 C245 C 0.15966 0.48571 0.20917
 C246 C 0.18338 0.46017 0.18454
 H247 H 0.18097 0.42406 0.18463
 H248 H 0.19056 0.58931 0.18203
 C249 C 0.79785 0.53499 0.15188
 C250 C 0.79370 0.48788 0.14866
 C251 C 0.81318 0.46021 0.17579
 C252 C 0.83729 0.47776 0.20471
 C253 C 0.84240 0.52468 0.20666
 C254 C 0.82182 0.55237 0.18076
 H255 H 0.82629 0.58814 0.18148
 H256 H 0.80934 0.42434 0.17471
 C257 C 0.20880 0.51534 0.84526
 C258 C 0.20512 0.46823 0.84737
 C259 C 0.17799 0.44723 0.82355
 C260 C 0.15528 0.47168 0.79674
 C261 C 0.16129 0.51840 0.79290
 C262 C 0.18755 0.53949 0.81762
 H263 H 0.19138 0.57535 0.81546
 H264 H 0.17444 0.41138 0.82604
 C265 C 0.25130 0.42972 0.06804
 C266 C 0.27994 0.40013 0.08099
 C267 C 0.28343 0.39461 0.12138
 C268 C 0.25938 0.41986 0.14679
 C269 C 0.23160 0.45118 0.13223
 C270 C 0.22813 0.45370 0.09219
 C271 C 0.20772 0.47717 0.05968
 C272 C 0.23417 0.44986 0.03247
 H273 H 0.30508 0.37170 0.13322
 H274 H 0.26335 0.41599 0.17764
 H275 H 0.21363 0.51353 0.05863
 H276 H 0.17646 0.46815 0.05785
 H277 H 0.25561 0.47037 0.01640
 H278 H 0.21825 0.42503 0.01493
 C279 C 0.73550 0.62925 0.11156
 C280 C 0.73627 0.62077 0.07200
 C281 C 0.76527 0.59122 0.05841
 C282 C 0.78708 0.56447 0.08436
 C283 C 0.78031 0.56752 0.12435
 C284 C 0.75782 0.60401 0.13713
 C285 C 0.72813 0.60835 0.16840
 C286 C 0.70318 0.63529 0.13983
 H287 H 0.76893 0.58646 0.02786
 H288 H 0.80702 0.53940 0.07317
 H289 H 0.73897 0.62877 0.19275
 H290 H 0.71533 0.57596 0.17723
 H291 H 0.69919 0.67083 0.14826
 H292 H 0.67611 0.61804 0.13101
 C293 C 0.73961 0.37874 0.89525
 C294 C 0.70348 0.39669 0.90618
 C295 C 0.68787 0.43171 0.88307
 C296 C 0.71118 0.45279 0.85482
 C297 C 0.75084 0.44048 0.85094
 C298 C 0.76270 0.40017 0.86838
 C299 C 0.79946 0.38763 0.88903
 C300 C 0.77410 0.36422 0.91877
 H301 H 0.65892 0.44492 0.88865
 H302 H 0.69963 0.48165 0.83940
 H303 H 0.81504 0.41703 0.90059
 H304 H 0.81781 0.36412 0.87201
 H305 H 0.77480 0.38010 0.94768
 H306 H 0.77809 0.32730 0.91896
 C307 C 0.25672 0.55619 0.93664
 C308 C 0.28358 0.58695 0.92280
 C309 C 0.28834 0.59149 0.88268
 C310 C 0.26390 0.56830 0.85724
 C311 C 0.23449 0.54023 0.87167
 C312 C 0.23253 0.53362 0.91167
 C313 C 0.19859 0.53695 0.93834
 C314 C 0.22502 0.56215 0.96569
 H315 H 0.31016 0.61372 0.87112
 H316 H 0.26762 0.57264 0.82643
 H317 H 0.18994 0.50368 0.94971
 H318 H 0.17439 0.55784 0.92631
 H319 H 0.23134 0.54370 0.99292
 H320 H 0.21631 0.59778 0.96945
 C321 C 0.10655 0.32891 0.43115
 C322 C 0.08113 0.30181 0.41043
 C323 C 0.08327 0.25528 0.41709
 C324 C 0.11246 0.23666 0.44114
 C325 C 0.14030 0.26412 0.45875
 C326 C 0.13589 0.31039 0.45413
 C327 C 0.16477 0.34436 0.44158
 C328 C 0.13271 0.36478 0.41654
 H329 H 0.06304 0.23322 0.40294
 H330 H 0.11441 0.20069 0.44460
 H331 H 0.18917 0.32953 0.42467
 H332 H 0.17372 0.36648 0.46555
 H333 H 0.13858 0.36209 0.38507
 H334 H 0.12312 0.39849 0.42627
 C335 C 0.10856 0.68589 0.57347
 C336 C 0.07516 0.70806 0.58684
 C337 C 0.06875 0.75267 0.57481
 C338 C 0.09691 0.77509 0.55253
 C339 C 0.13232 0.75365 0.54293
 C340 C 0.13681 0.70847 0.55265
 C341 C 0.16939 0.68481 0.57305
 C342 C 0.13852 0.65980 0.59573
 H343 H 0.04249 0.77040 0.58337
 H344 H 0.09179 0.80961 0.54417
 H345 H 0.18697 0.70759 0.59114
 H346 H 0.18655 0.66289 0.55349
 H347 H 0.13837 0.66780 0.62703
 H348 H 0.13776 0.62355 0.58900
 C349 C 0.89310 0.66910 0.43858
 C350 C 0.91997 0.69717 0.42064
 C351 C 0.91955 0.74273 0.43072
 C352 C 0.89026 0.76004 0.45495
 C353 C 0.86059 0.73226 0.46904
 C354 C 0.86355 0.68650 0.46154
 C355 C 0.83409 0.65509 0.44613
 C356 C 0.86639 0.63583 0.42099
 H357 H 0.94101 0.76519 0.41880
 H358 H 0.88941 0.79556 0.46081
 H359 H 0.81068 0.67245 0.42937
 H360 H 0.82377 0.63121 0.46849
 H361 H 0.86165 0.64180 0.38964
 H362 H 0.87467 0.60092 0.42895
 C363 C 0.88539 0.28638 0.59657
 C364 C 0.92497 0.28458 0.58763
 C365 C 0.93723 0.25490 0.55866
 C366 C 0.90955 0.23261 0.53597
 C367 C 0.86920 0.24053 0.54135
 C368 C 0.85822 0.26501 0.57398
 C369 C 0.82859 0.30136 0.57916
 C370 C 0.85872 0.32521 0.60363
 H371 H 0.96800 0.24963 0.55315
 H372 H 0.91974 0.21020 0.51366
 H373 H 0.80309 0.28985 0.59611
 H374 H 0.82119 0.31918 0.55187
 H375 H 0.85024 0.32777 0.63448
 H376 H 0.86936 0.35668 0.59026
 C377 C 0.44658 0.07538 0.27187
 C378 C 0.41742 0.09010 0.29691
 C379 C 0.41458 0.13620 0.30456
 C380 C 0.43775 0.16685 0.28396
 C381 C 0.46455 0.15164 0.25605
 C382 C 0.46955 0.10547 0.25182
 C383 C 0.46924 0.07817 0.21604
 C384 C 0.44352 0.04556 0.23771
 H385 H 0.39368 0.14852 0.32546
 H386 H 0.43401 0.20232 0.28901
 H387 H 0.49859 0.06416 0.20928
 H388 H 0.45418 0.09540 0.19160
 H389 H 0.45777 0.01270 0.24299
 H390 H 0.41335 0.04410 0.22607
 C391 C 0.60580 0.10268 0.74256
 C392 C 0.59509 0.09550 0.70417
 C393 C 0.56577 0.12366 0.68835
 C394 C 0.54453 0.15333 0.71216
 C395 C 0.55141 0.15408 0.75236
 C396 C 0.58441 0.13103 0.76603
 C397 C 0.58924 0.10120 0.80041
 C398 C 0.61269 0.06998 0.77468
 H399 H 0.55790 0.12116 0.65818
 H400 H 0.52092 0.17296 0.69969
 H401 H 0.56121 0.08682 0.81033
 H402 H 0.60703 0.11686 0.82335
 H403 H 0.59822 0.03754 0.76962
 H404 H 0.64396 0.06750 0.78288
 C405 C 0.44158 0.92683 0.72900
 C406 C 0.41750 0.91268 0.69905
 C407 C 0.41976 0.86754 0.68802
 C408 C 0.44168 0.83653 0.71016
 C409 C 0.46279 0.85071 0.74265
 C410 C 0.46388 0.89648 0.75027
 C411 C 0.45641 0.92050 0.78715
 C412 C 0.43179 0.95364 0.76393
 H413 H 0.40324 0.85598 0.66346
 H414 H 0.44134 0.80147 0.70263
 H415 H 0.48336 0.93538 0.79904
 H416 H 0.43924 0.90039 0.80805
 H417 H 0.44449 0.98759 0.76283
 H418 H 0.40026 0.95272 0.77125
 C419 C 0.54860 0.92270 0.28419
 C420 C 0.58560 0.90876 0.29627
 C421 C 0.59801 0.86509 0.28714
 C422 C 0.57489 0.83784 0.26352
 C423 C 0.53950 0.85430 0.24772
 C424 C 0.52680 0.89659 0.25971
 C425 C 0.51205 0.93576 0.23717
 C426 C 0.53596 0.96476 0.26399
 H427 H 0.62598 0.85260 0.29728
 H428 H 0.58546 0.80468 0.25633
 H429 H 0.48015 0.94033 0.24080
 H430 H 0.52259 0.93590 0.20684
 H431 H 0.51777 0.98653 0.28281
 H432 H 0.56042 0.98194 0.24926
 C433 C 0.40963 0.23504 0.91949
 C434 C 0.40392 0.28136 0.92087
 C435 C 0.41761 0.30723 0.88966
 C436 C 0.44008 0.28732 0.86033
 C437 C 0.45051 0.24178 0.86273
 C438 C 0.43270 0.21571 0.89113
 C439 C 0.45024 0.18263 0.91869
 C440 C 0.42499 0.20379 0.94981
 H441 H 0.41166 0.34286 0.88840
 H442 H 0.45058 0.30768 0.83672
 H443 H 0.48195 0.18770 0.92322
 H444 H 0.44185 0.14781 0.91184
 H445 H 0.44205 0.22114 0.97241
 H446 H 0.40210 0.18111 0.96092
 C447 C 0.54784 0.71567 0.92343
 C448 C 0.58213 0.69220 0.91493
 C449 C 0.59131 0.68532 0.87583
 C450 C 0.56883 0.70604 0.84646
 C451 C 0.53699 0.73440 0.85567
 C452 C 0.52594 0.73636 0.89460
 C453 C 0.51615 0.77529 0.91961
 C454 C 0.54039 0.75271 0.95116
 H455 H 0.61724 0.66643 0.86808
 H456 H 0.57767 0.70192 0.81670
 H457 H 0.48465 0.77679 0.92684
 H458 H 0.52873 0.80706 0.90877
 H459 H 0.52274 0.74166 0.97628
 H460 H 0.56724 0.77125 0.95856
 C461 C 0.39945 0.71366 0.11087
 C462 C 0.40876 0.71816 0.07196
 C463 C 0.43792 0.74864 0.06161
 C464 C 0.46019 0.76960 0.09041
 C465 C 0.45411 0.75950 0.12988
 C466 C 0.42151 0.73376 0.13904
 C467 C 0.41690 0.69537 0.16631
 C468 C 0.39291 0.67301 0.13507
 H469 H 0.44421 0.75518 0.03148
 H470 H 0.48269 0.79264 0.08178
 H471 H 0.39942 0.70474 0.19206
 H472 H 0.44483 0.67774 0.17278
 H473 H 0.36174 0.66923 0.14301
 H474 H 0.40716 0.64260 0.12299
 C475 C 0.58201 0.25596 0.08514
 C476 C 0.59149 0.30127 0.08653
 C477 C 0.57492 0.32702 0.11640
 C478 C 0.55376 0.30622 0.14637
 C479 C 0.54756 0.25973 0.14607
 C480 C 0.56029 0.23580 0.11391
 C481 C 0.58316 0.19317 0.11135
 C482 C 0.60705 0.21537 0.07976
 H483 H 0.57994 0.36264 0.11760
 H484 H 0.54325 0.32611 0.17023
 H485 H 0.56517 0.16519 0.10066
 H486 H 0.60027 0.18562 0.13791
 H487 H 0.60283 0.20013 0.05092
 H488 H 0.63790 0.22082 0.08817
 C489 C 0.27692 0.08267 0.55112
 C490 C 0.30285 0.09597 0.57971
 C491 C 0.30959 0.14200 0.58403
 C492 C 0.28761 0.17371 0.56253
 C493 C 0.25917 0.15970 0.53593
 C494 C 0.25568 0.11377 0.52956
 C495 C 0.22000 0.08582 0.53019
 C496 C 0.24297 0.05222 0.55446
 H497 H 0.33067 0.15338 0.60495
 H498 H 0.29199 0.20900 0.56739
 H499 H 0.21261 0.07304 0.50109
 H500 H 0.19542 0.10190 0.54598
 H501 H 0.24825 0.01997 0.53976
 H502 H 0.23208 0.04927 0.58457
 C503 C 0.73801 0.10614 0.39064
 C504 C 0.72045 0.06917 0.40792
 C505 C 0.73167 0.05793 0.44592
 C506 C 0.75715 0.08550 0.46656
 C507 C 0.76770 0.12786 0.45178
 C508 C 0.75980 0.13546 0.41249
 C509 C 0.74334 0.17565 0.39238
 C510 C 0.71946 0.14371 0.36830
 H511 H 0.72157 0.02736 0.45934
 H512 H 0.76710 0.07400 0.49450
 H513 H 0.76569 0.19363 0.37528
 H514 H 0.72537 0.19698 0.41177
 H515 H 0.72810 0.14332 0.33740
 H516 H 0.68755 0.14670 0.37349
 C517 C 0.70673 0.86482 0.59827
 C518 C 0.70086 0.90790 0.58364
 C519 C 0.72054 0.91990 0.54954
 C520 C 0.74272 0.88785 0.52915
 C521 C 0.74444 0.84279 0.54174
 C522 C 0.72752 0.83302 0.57757
 C523 C 0.70024 0.79665 0.58847
 C524 C 0.67739 0.83147 0.61117
 H525 H 0.71894 0.95399 0.53885
 H526 H 0.75823 0.89834 0.50355
 H527 H 0.71450 0.77084 0.60710
 H528 H 0.68402 0.78349 0.56327
 H529 H 0.67845 0.82567 0.64288
 H530 H 0.64782 0.83850 0.59924
 C531 C 0.27984 0.93027 0.45162
 C532 C 0.29274 0.91803 0.41501
 C533 C 0.28539 0.87424 0.40263
 C534 C 0.26262 0.84522 0.42540
 C535 C 0.24604 0.85974 0.46063
 C536 C 0.25641 0.90234 0.47332
 C537 C 0.23208 0.94022 0.48781
 C538 C 0.25761 0.97093 0.46379
 H539 H 0.29667 0.86277 0.37521
 H540 H 0.25702 0.81192 0.41486
 H541 H 0.23582 0.94504 0.51929
 H542 H 0.20140 0.93893 0.47757
 H543 H 0.27586 0.99356 0.48128
 H544 H 0.24177 0.98729 0.43944
 C545 C 0.10652 0.38224 0.73732
 C546 C 0.07195 0.40312 0.72533
 C547 C 0.06158 0.44414 0.74240
 C548 C 0.08742 0.46534 0.76781
 C549 C 0.12511 0.44733 0.77454
 C550 C 0.13268 0.40414 0.76084
 C551 C 0.16710 0.38610 0.73954
 C552 C 0.13846 0.36203 0.71368
 H553 H 0.03397 0.46019 0.73552
 H554 H 0.07860 0.49682 0.78047
 H555 H 0.18504 0.36299 0.75769
 H556 H 0.18361 0.41267 0.72430
 H557 H 0.13993 0.32506 0.71693
 H558 H 0.13837 0.37450 0.68337
 C559 C 0.11387 0.58074 0.29651
 C560 C 0.08437 0.60848 0.28206
 C561 C 0.08482 0.61644 0.24176
 C562 C 0.11194 0.59361 0.21774
 C563 C 0.13908 0.56238 0.23354
 C564 C 0.14009 0.55919 0.27365
 C565 C 0.15677 0.53270 0.30652
 C566 C 0.12678 0.55691 0.33220
 H567 H 0.06296 0.63805 0.22858
 H568 H 0.11010 0.59827 0.18677
 H569 H 0.18741 0.54179 0.31282
 H570 H 0.15134 0.49635 0.30455
 H571 H 0.14006 0.57981 0.35349
 H572 H 0.10400 0.53439 0.34379
 C573 C 0.90471 0.38647 0.24220
 C574 C 0.91091 0.39947 0.28042
 C575 C 0.88460 0.43120 0.29604
 C576 C 0.85747 0.45392 0.27214
 C577 C 0.85691 0.44616 0.23203
 C578 C 0.87841 0.40936 0.21856
 C579 C 0.90411 0.40501 0.18407
 C580 C 0.93297 0.38003 0.20994
 H581 H 0.88668 0.44064 0.32607
 H582 H 0.83960 0.48033 0.28436
 H583 H 0.91500 0.43774 0.17351
 H584 H 0.89104 0.38354 0.16156
 H585 H 0.96055 0.39832 0.21450
 H586 H 0.93663 0.34423 0.20222
 C587 C 0.91604 0.59811 0.75899
 C588 C 0.92305 0.58697 0.72044
 C589 C 0.89669 0.55765 0.70283
 C590 C 0.86779 0.53622 0.72472
 C591 C 0.86567 0.54177 0.76507
 C592 C 0.88815 0.57607 0.78073
 C593 C 0.91212 0.57804 0.81659
 C594 C 0.94306 0.60147 0.79257
 H595 H 0.89862 0.55090 0.67222
 H596 H 0.84757 0.51491 0.71001
 H597 H 0.92147 0.54465 0.82752
 H598 H 0.89857 0.60013 0.83860
 H599 H 0.97010 0.58111 0.78879
 H600 H 0.94770 0.63670 0.80127
 C601 C 0.72364 0.54653 0.92516
 C602 C 0.71682 0.59243 0.92033
 C603 C 0.73060 0.61262 0.88614
 C604 C 0.75131 0.58729 0.85852
 C605 C 0.76130 0.54181 0.86546
 C606 C 0.74681 0.52282 0.89949
 C607 C 0.76715 0.49734 0.93081
 C608 C 0.74157 0.52266 0.95894
 H609 H 0.72461 0.64765 0.88024
 H610 H 0.75992 0.60376 0.83204
 H611 H 0.79856 0.50564 0.93305
 H612 H 0.76063 0.46126 0.93079
 H613 H 0.75849 0.54510 0.97758
 H614 H 0.72036 0.50108 0.97429
 C615 C 0.29236 0.42832 0.90508
 C616 C 0.27797 0.39317 0.92748
 C617 C 0.23808 0.38282 0.92375
 C618 C 0.21407 0.40691 0.89761
 C619 C 0.22979 0.44060 0.87374
 C620 C 0.26920 0.45030 0.87831
 C621 C 0.30094 0.45268 0.84912
 C622 C 0.32667 0.42859 0.87847
 H623 H 0.22520 0.35705 0.94157
 H624 H 0.18336 0.39929 0.89614
 H625 H 0.31014 0.48756 0.84333
 H626 H 0.29478 0.43247 0.82306
 H627 H 0.35060 0.44967 0.88958
 H628 H 0.33578 0.39444 0.86939
 C629 C 0.29784 0.55825 0.09424
 C630 C 0.28499 0.59717 0.07517
 C631 C 0.24616 0.61144 0.08162
 C632 C 0.22227 0.58868 0.10799
 C633 C 0.23667 0.55153 0.12911
 C634 C 0.27451 0.53652 0.12087
 C635 C 0.30783 0.52707 0.14746
 C636 C 0.33351 0.55078 0.11832
 H637 H 0.23404 0.64007 0.06630
 H638 H 0.19256 0.60033 0.11197
 H639 H 0.31461 0.49077 0.15001
 H640 H 0.30507 0.54503 0.17532
 H641 H 0.35486 0.52803 0.10410
 H642 H 0.34586 0.58244 0.12929
 C643 C 0.71115 0.46084 0.07849
 C644 C 0.72164 0.41856 0.06451
 C645 C 0.75938 0.40252 0.07405
 C646 C 0.78340 0.42621 0.09978
 C647 C 0.77028 0.46622 0.11742
 C648 C 0.73448 0.48372 0.10432
 C649 C 0.70000 0.50120 0.12590
 C650 C 0.67454 0.47594 0.09785
 H651 H 0.77004 0.37106 0.06265
 H652 H 0.81175 0.41218 0.10696
 H653 H 0.69632 0.53783 0.12239
 H654 H 0.69860 0.48833 0.15604
 H655 H 0.65663 0.49829 0.07895
 H656 H 0.65850 0.44794 0.11156
 C657 C 0.89957 0.73752 0.60558
 C658 C 0.91303 0.69383 0.59900
 C659 C 0.89117 0.66730 0.57345
 C660 C 0.85986 0.68604 0.55234
 C661 C 0.85112 0.73203 0.55480
 C662 C 0.86963 0.75618 0.58375
 C663 C 0.88843 0.80078 0.58188
 C664 C 0.92142 0.78047 0.60578
 H665 H 0.89856 0.63238 0.56920
 H666 H 0.84355 0.66499 0.53311
 H667 H 0.87134 0.82668 0.59756
 H668 H 0.89730 0.81018 0.55207
 H669 H 0.92342 0.79483 0.63520
 H670 H 0.94952 0.77818 0.58991
 C671 C 0.90985 0.30627 0.43897
 C672 C 0.92791 0.28620 0.40715
 C673 C 0.92158 0.24011 0.40158
 C674 C 0.89516 0.21672 0.42497
 C675 C 0.87378 0.23890 0.45402
 C676 C 0.88327 0.28337 0.46150
 C677 C 0.85769 0.32357 0.46619
 C678 C 0.88665 0.34875 0.44131
 H679 H 0.93632 0.22217 0.37869
 H680 H 0.89059 0.18159 0.41947
 H681 H 0.85717 0.33548 0.49644
 H682 H 0.82867 0.31974 0.45239
 H683 H 0.90238 0.37508 0.45732
 H684 H 0.87453 0.35949 0.41289
 C685 C 0.09142 0.25240 0.58824
 C686 C 0.08377 0.29846 0.59005
 C687 C 0.10586 0.32630 0.56550
 C688 C 0.13710 0.30857 0.54378
 C689 C 0.14581 0.26239 0.54447
 C690 C 0.12107 0.23480 0.56577
 C691 C 0.12930 0.19827 0.59446
 C692 C 0.09652 0.21769 0.61894
 H693 H 0.10060 0.36207 0.56465
 H694 H 0.15512 0.33115 0.52737
 H695 H 0.15818 0.20096 0.60868
 H696 H 0.12264 0.16471 0.58278
 H697 H 0.10674 0.23183 0.64670
 H698 H 0.07091 0.19542 0.62111
 C699 C 0.09577 0.69249 0.44029
 C700 C 0.07477 0.71548 0.41153
 C701 C 0.08074 0.76201 0.40790
 C702 C 0.10859 0.78360 0.43086
 C703 C 0.13158 0.75920 0.45756
 C704 C 0.12377 0.71369 0.46233
 C705 C 0.15119 0.67464 0.46015
 C706 C 0.12049 0.65131 0.43640
 H707 H 0.06432 0.78174 0.38704
 H708 H 0.11276 0.81920 0.42717
 H709 H 0.15621 0.65823 0.48856
 H710 H 0.17809 0.68228 0.44362
 H711 H 0.10757 0.62214 0.45149
 H712 H 0.12964 0.64504 0.40612
 C713 C 0.60120 0.89594 0.74041
 C714 C 0.59151 0.90541 0.70195
 C715 C 0.56386 0.87786 0.68411
 C716 C 0.54335 0.84590 0.70596
 C717 C 0.54940 0.84184 0.74618
 C718 C 0.58064 0.86503 0.76196
 C719 C 0.58248 0.89257 0.79758
 C720 C 0.60481 0.92671 0.77394
 H721 H 0.55716 0.88198 0.65374
 H722 H 0.52150 0.82607 0.69178
 H723 H 0.60044 0.87622 0.82049
 H724 H 0.55331 0.90477 0.80706
 H725 H 0.63555 0.93035 0.78343
 H726 H 0.58840 0.95858 0.76953
 C727 C 0.39520 0.89653 0.26016
 C728 C 0.40678 0.90491 0.29807
 C729 C 0.43710 0.87777 0.31347
 C730 C 0.45822 0.84801 0.28939
 C731 C 0.45040 0.84663 0.24933
 C732 C 0.41645 0.86849 0.23656
 C733 C 0.40890 0.89662 0.20157
 C734 C 0.38558 0.92773 0.22756
 H735 H 0.44574 0.88109 0.34335
 H736 H 0.48239 0.82895 0.30144
 H737 H 0.39058 0.87919 0.18006
 H738 H 0.43578 0.91190 0.18977
 H739 H 0.35391 0.92839 0.22082
 H740 H 0.39900 0.96106 0.23101
 C741 C 0.56582 0.11241 0.31401
 C742 C 0.59533 0.08690 0.29667
 C743 C 0.60012 0.09106 0.25639
 C744 C 0.57829 0.12273 0.23516
 C745 C 0.55125 0.15112 0.25368
 C746 C 0.54448 0.14392 0.29304
 C747 C 0.54401 0.17633 0.32547
 C748 C 0.56748 0.14192 0.34852
 H749 H 0.62100 0.07020 0.24125
 H750 H 0.58274 0.12527 0.20429
 H751 H 0.51413 0.18190 0.33698
 H752 H 0.56045 0.20723 0.31877
 H753 H 0.55114 0.12783 0.37337
 H754 H 0.59761 0.15278 0.35524
 C755 C 0.40663 0.13065 0.70838
 C756 C 0.42136 0.08897 0.69744
 C757 C 0.45510 0.07264 0.71622
 C758 C 0.47509 0.09943 0.74287
 C759 C 0.46276 0.14390 0.74979
 C760 C 0.42724 0.15767 0.73332
 C761 C 0.41747 0.19907 0.71101
 C762 C 0.39493 0.16956 0.68354
 H763 H 0.46560 0.03899 0.71075
 H764 H 0.50041 0.08555 0.75749
 H765 H 0.44354 0.21453 0.69764
 H766 H 0.39847 0.22229 0.72764
 H767 H 0.40783 0.16792 0.65414
 H768 H 0.36296 0.17593 0.68424
 C769 C 0.56041 0.69799 0.09060
 C770 C 0.59054 0.72079 0.07207
 C771 C 0.59382 0.76694 0.07938
 C772 C 0.57002 0.78782 0.10737
 C773 C 0.54229 0.76306 0.12838
 C774 C 0.53699 0.71850 0.11795
 C775 C 0.53559 0.67742 0.14250
 C776 C 0.56142 0.65490 0.11260
 H777 H 0.61551 0.78656 0.06450
 H778 H 0.57392 0.82298 0.11326
 H779 H 0.50591 0.66314 0.14367
 H780 H 0.55008 0.68172 0.17092
 H781 H 0.54654 0.62772 0.09686
 H782 H 0.59104 0.64619 0.12360
 C783 C 0.43912 0.31579 0.10498
 C784 C 0.41496 0.28807 0.08342
 C785 C 0.41738 0.24165 0.09018
 C786 C 0.44079 0.22443 0.12023
 C787 C 0.46192 0.25331 0.14418
 C788 C 0.46196 0.29883 0.13488
 C789 C 0.45323 0.33806 0.15997
 C790 C 0.42847 0.35674 0.12715
 H791 H 0.40041 0.21885 0.07303
 H792 H 0.44149 0.18870 0.12553
 H793 H 0.47936 0.35848 0.16575
 H794 H 0.43601 0.32894 0.18597
 H795 H 0.44069 0.38745 0.11387
 H796 H 0.39686 0.35874 0.13412
 C797 C 0.55297 0.31106 0.90736
 C798 C 0.57999 0.28732 0.93011
 C799 C 0.58222 0.24055 0.92558
 C800 C 0.56079 0.21941 0.89634
 C801 C 0.53676 0.24457 0.87106
 C802 C 0.53197 0.29025 0.87837
 C803 C 0.53653 0.32913 0.85151
 C804 C 0.55917 0.35191 0.88329
 H805 H 0.60180 0.22060 0.94338
 H806 H 0.56423 0.18370 0.89240
 H807 H 0.50849 0.34645 0.84497
 H808 H 0.55459 0.32085 0.82585
 H809 H 0.54377 0.38163 0.89524
 H810 H 0.59036 0.35712 0.87603
 C811 C 0.39542 0.74399 0.89295
 C812 C 0.40463 0.70151 0.90757
 C813 C 0.43248 0.67572 0.88729
 C814 C 0.45413 0.69498 0.85704
 C815 C 0.44895 0.74060 0.84749
 C816 C 0.41692 0.76295 0.86361
 C817 C 0.41318 0.80875 0.88006
 C818 C 0.38998 0.78780 0.91279
 H819 H 0.43879 0.64151 0.89583
 H820 H 0.47660 0.67520 0.84308
 H821 H 0.39531 0.83131 0.86132
 H822 H 0.44152 0.82270 0.88929
 H823 H 0.35894 0.79883 0.91317
 H824 H 0.40515 0.78888 0.94114
 C825 C 0.74104 0.88002 0.39859
 C826 C 0.70232 0.89086 0.40716
 C827 C 0.68380 0.86592 0.43649
 C828 C 0.70538 0.83543 0.45954
 C829 C 0.74588 0.83016 0.45401
 C830 C 0.76221 0.85047 0.42144
 C831 C 0.79859 0.87696 0.41772
 C832 C 0.77532 0.90961 0.39272
 H833 H 0.65331 0.87169 0.44302
 H834 H 0.69099 0.81824 0.48304
 H835 H 0.82163 0.85862 0.40152
 H836 H 0.80816 0.89139 0.44560
 H837 H 0.78507 0.91022 0.36215
 H838 H 0.77128 0.94302 0.40613
 C839 C 0.25913 0.90040 0.60219
 C840 C 0.29718 0.90891 0.59004
 C841 C 0.31257 0.88150 0.56057
 C842 C 0.28833 0.85149 0.54064
 C843 C 0.24803 0.84986 0.54884
 C844 C 0.23528 0.87176 0.58215
 C845 C 0.19975 0.89965 0.58946
 C846 C 0.22603 0.93146 0.61122
 H847 H 0.34265 0.88471 0.55170
 H848 H 0.30040 0.83235 0.51701
 H849 H 0.17865 0.88224 0.60848
 H850 H 0.18702 0.91432 0.56266
 H851 H 0.21973 0.93264 0.64265
 H852 H 0.22889 0.96456 0.59684
 C853 C 0.26326 0.11532 0.39569
 C854 C 0.30114 0.10297 0.40665
 C855 C 0.31893 0.12826 0.43588
 C856 C 0.29714 0.16049 0.45658
 C857 C 0.25690 0.16685 0.44923
 C858 C 0.24177 0.14616 0.41650
 C859 C 0.20470 0.12152 0.41087
 C860 C 0.22830 0.08749 0.38799
 H861 H 0.34901 0.12190 0.44386
 H862 H 0.31124 0.17843 0.47961
 H863 H 0.18347 0.14077 0.39285
 H864 H 0.19281 0.10792 0.43830
 H865 H 0.22056 0.08711 0.35684
 H866 H 0.23010 0.05410 0.40212
 C867 C 0.69435 0.10899 0.55313
 C868 C 0.70902 0.08512 0.58503
 C869 C 0.74949 0.08621 0.59181
 C870 C 0.77365 0.11321 0.56919
 C871 C 0.75802 0.14008 0.53930
 C872 C 0.71827 0.13624 0.53103
 C873 C 0.68766 0.17160 0.52666
 C874 C 0.66138 0.14197 0.55090
 H875 H 0.76260 0.06637 0.61475
 H876 H 0.80463 0.11331 0.57521
 H877 H 0.67775 0.17526 0.49623
 H878 H 0.69556 0.20329 0.54112
 H879 H 0.63623 0.12880 0.53445
 H880 H 0.65394 0.15647 0.57946
 C881 C 0.88705 0.60641 0.27653
 C882 C 0.92450 0.59037 0.28370
 C883 C 0.93547 0.55073 0.26440
 C884 C 0.90928 0.52941 0.23883
 C885 C 0.87067 0.54602 0.23332
 C886 C 0.86147 0.58526 0.25309
 C887 C 0.82954 0.61826 0.26086
 C888 C 0.85864 0.64204 0.28741
 H889 H 0.96449 0.53700 0.26833
 H890 H 0.91940 0.50020 0.22341
 H891 H 0.80481 0.60297 0.27663
 H892 H 0.82137 0.63836 0.23494
 H893 H 0.85063 0.64034 0.31843
 H894 H 0.86740 0.67551 0.27663
 C895 C 0.91914 0.39573 0.75660
 C896 C 0.91402 0.39044 0.71692
 C897 C 0.87847 0.40492 0.70045
 C898 C 0.85102 0.42868 0.72279
 C899 C 0.86019 0.44097 0.76088
 C900 C 0.89292 0.42093 0.77804
 C901 C 0.92454 0.44103 0.80152
 C902 C 0.95327 0.41315 0.77826
 H903 H 0.87267 0.39950 0.67013
 H904 H 0.82403 0.44009 0.70960
 H905 H 0.92301 0.43087 0.83239
 H906 H 0.92747 0.47741 0.79608
 H907 H 0.96816 0.38661 0.79560
 H908 H 0.97273 0.43356 0.75981
 C909 C 0.09766 0.60979 0.75072
 C910 C 0.08904 0.59362 0.71399
 C911 C 0.11161 0.55737 0.70016
 C912 C 0.13776 0.53441 0.72489
 C913 C 0.14081 0.54674 0.76397
 C914 C 0.12291 0.58686 0.77511
 C915 C 0.09901 0.59723 0.80993
 C916 C 0.07112 0.62230 0.78315
 H917 H 0.10737 0.54509 0.67116
 H918 H 0.15308 0.50507 0.71439
 H919 H 0.11451 0.61947 0.83023
 H920 H 0.08614 0.56692 0.82331
 H921 H 0.07042 0.65896 0.78817
 H922 H 0.04207 0.60647 0.78087
 C923 C 0.06617 0.45580 0.26146
 C924 C 0.07607 0.41573 0.27999
 C925 C 0.11492 0.40043 0.27806
 C926 C 0.14239 0.42357 0.25560
 C927 C 0.13137 0.46223 0.23443
 C928 C 0.09306 0.47816 0.23876
 C929 C 0.06349 0.48911 0.20844
 C930 C 0.03414 0.46443 0.23310
 H931 H 0.12386 0.37038 0.29346
 H932 H 0.17205 0.41091 0.25438
 H933 H 0.06982 0.47243 0.18053
 H934 H 0.05710 0.52552 0.20631
 H935 H 0.02357 0.43328 0.21953
 H936 H 0.01101 0.48653 0.24499
   
