data_POSCAR
  _audit_creation_date              2014-09-24
  _audit_creation_method            'ToBaCCo'
  _symmetry_space_group_name_H-M    'P1'
  _symmetry_Int_Tables_number       1
  _symmetry_cell_setting            triclinic
  loop_
  _symmetry_equiv_pos_as_xyz
 x,y,z
_cell_length_a 31.9510
_cell_length_b 31.8371
_cell_length_c 31.7540
_cell_angle_alpha 91.430000
_cell_angle_beta 90.299600
_cell_angle_gamma 91.222700
loop_
  _atom_site_label
  _atom_site_type_symbol
  _atom_site_fract_x
  _atom_site_fract_y
  _atom_site_fract_z
N1 N 0.29565 0.26338 0.20174
 N2 N 0.27315 0.29580 0.19194
 C3 C 0.28734 0.31146 0.15552
 C4 C 0.32047 0.28744 0.14197
 C5 C 0.32504 0.25735 0.17229
 H6 H 0.27398 0.33774 0.13962
 H7 H 0.34723 0.23222 0.17275
 Cu8 Cu 0.22629 0.31270 0.22680
 Cu9 Cu 0.28416 0.23023 0.25085
 Cu10 Cu 0.18216 0.23740 0.28604
 N11 N 0.16978 0.31719 0.24797
 N12 N 0.15156 0.28615 0.26799
 C13 C 0.11100 0.29503 0.27402
 C14 C 0.10383 0.33400 0.25767
 C15 C 0.14174 0.34730 0.24138
 H16 H 0.08837 0.27470 0.28908
 H17 H 0.14780 0.37552 0.22394
 N18 N 0.21937 0.19137 0.30124
 N19 N 0.25835 0.18908 0.28798
 C20 C 0.27550 0.15406 0.30261
 C21 C 0.24616 0.13365 0.32676
 C22 C 0.21087 0.15807 0.32535
 H23 H 0.30691 0.14393 0.29584
 H24 H 0.18105 0.15162 0.34004
 H25 H 0.22247 0.23725 0.23558
 H26 H 0.24003 0.26532 0.28507
 N27 N 0.68969 -0.22717 0.17897
 N28 N 0.70789 -0.26288 0.16984
 C29 C 0.69442 -0.27748 0.13194
 C30 C 0.66589 -0.24971 0.11649
 C31 C 0.66348 -0.21802 0.14723
 H32 H 0.70468 -0.30620 0.11667
 H33 H 0.64464 -0.19024 0.14650
 Cu34 Cu 0.74829 -0.28667 0.20749
 Cu35 Cu 0.70258 -0.19512 0.23098
 Cu36 Cu 0.78129 -0.23392 0.29422
 N37 N 0.80076 -0.29953 0.23450
 N38 N 0.81465 -0.27781 0.26761
 C39 C 0.85234 -0.29227 0.27881
 C40 C 0.86235 -0.32495 0.25132
 C41 C 0.82879 -0.32869 0.22355
 H42 H 0.87091 -0.28016 0.30518
 H43 H 0.82516 -0.35022 0.19684
 N44 N 0.75020 -0.18278 0.30920
 N45 N 0.72047 -0.16786 0.28505
 C46 C 0.70624 -0.13224 0.30314
 C47 C 0.72790 -0.12439 0.34037
 C48 C 0.75563 -0.15705 0.34324
 H49 H 0.68233 -0.11286 0.28996
 H50 H 0.77876 -0.16126 0.36765
 H51 H 0.76333 -0.21624 0.23544
 H52 H 0.72238 -0.24371 0.26671
 N53 N 0.69353 0.24324 0.83649
 N54 N 0.71454 0.27695 0.84987
 C55 C 0.69636 0.29229 0.88502
 C56 C 0.66199 0.26712 0.89381
 C57 C 0.66103 0.23622 0.86238
 H58 H 0.70774 0.31914 0.90356
 H59 H 0.63955 0.20958 0.85965
 Cu60 Cu 0.76464 0.29638 0.82121
 Cu61 Cu 0.71240 0.20880 0.78915
 Cu62 Cu 0.80272 0.24173 0.73807
 N63 N 0.81534 0.31445 0.79287
 N64 N 0.83006 0.29355 0.76010
 C65 C 0.86582 0.31265 0.74754
 C66 C 0.87389 0.34720 0.77424
 C67 C 0.84120 0.34728 0.80242
 H68 H 0.88485 0.30151 0.72171
 H69 H 0.83711 0.36934 0.82844
 N70 N 0.77028 0.19014 0.72096
 N71 N 0.73608 0.17787 0.74080
 C72 C 0.72209 0.14110 0.72364
 C73 C 0.74840 0.12954 0.69138
 C74 C 0.77872 0.16134 0.69034
 H75 H 0.69503 0.12342 0.73419
 H76 H 0.80543 0.16283 0.66963
 H77 H 0.77572 0.22508 0.79420
 H78 H 0.74360 0.25639 0.75770
 N79 N 0.33308 -0.24674 0.77973
 N80 N 0.31151 -0.27744 0.79681
 C81 C 0.32994 -0.28727 0.83343
 C82 C 0.36493 -0.26114 0.83931
 C83 C 0.36593 -0.23600 0.80461
 H84 H 0.31805 -0.31073 0.85458
 H85 H 0.38831 -0.21095 0.79843
 Cu86 Cu 0.26063 -0.30040 0.77011
 Cu87 Cu 0.31642 -0.22197 0.72733
 Cu88 Cu 0.21326 -0.24184 0.69760
 N89 N 0.20307 -0.31202 0.75230
 N90 N 0.18476 -0.28881 0.72423
 C91 C 0.14533 -0.30325 0.71778
 C92 C 0.13839 -0.33727 0.74317
 C93 C 0.17579 -0.34205 0.76482
 H94 H 0.12326 -0.29012 0.69604
 H95 H 0.18282 -0.36541 0.78780
 N96 N 0.24786 -0.19605 0.67426
 N97 N 0.28720 -0.18881 0.68562
 C98 C 0.30162 -0.15403 0.66682
 C99 C 0.27007 -0.13890 0.64207
 C100 C 0.23638 -0.16628 0.64733
 H101 H 0.33235 -0.13984 0.67195
 H102 H 0.20533 -0.16356 0.63415
 H103 H 0.25533 -0.22886 0.74630
 H104 H 0.27161 -0.26522 0.70270
 N105 N 0.71338 -0.24418 0.80965
 N106 N 0.73592 -0.27409 0.82556
 C107 C 0.71859 -0.28649 0.86185
 C108 C 0.68303 -0.26350 0.86897
 C109 C 0.68049 -0.23694 0.83509
 H110 H 0.73120 -0.31012 0.88196
 H111 H 0.65749 -0.21312 0.83001
 Cu112 Cu 0.78594 -0.29417 0.79753
 Cu113 Cu 0.73063 -0.21561 0.75835
 Cu114 Cu 0.83751 -0.22253 0.74159
 N115 N 0.84034 -0.30608 0.77329
 N116 N 0.86033 -0.27777 0.75113
 C117 C 0.89761 -0.29282 0.73933
 C118 C 0.90127 -0.33275 0.75488
 C119 C 0.86422 -0.34028 0.77639
 H120 H 0.92070 -0.27563 0.72140
 H121 H 0.85546 -0.36799 0.79355
 N122 N 0.80331 -0.17778 0.71835
 N123 N 0.76219 -0.17672 0.72204
 C124 C 0.74792 -0.14405 0.70025
 C125 C 0.78193 -0.12353 0.68245
 C126 C 0.81640 -0.14558 0.69476
 H127 H 0.71551 -0.13506 0.69870
 H128 H 0.84864 -0.13898 0.68653
 H129 H 0.78056 -0.25137 0.73476
 H130 H 0.78793 -0.21898 0.78407
 N131 N 0.31787 0.22380 0.81023
 N132 N 0.29772 0.25731 0.82301
 C133 C 0.31435 0.27142 0.85997
 C134 C 0.34661 0.24515 0.87063
 C135 C 0.34791 0.21542 0.83837
 H136 H 0.30354 0.29846 0.87773
 H137 H 0.36912 0.18947 0.83566
 Cu138 Cu 0.25183 0.27934 0.79002
 Cu139 Cu 0.30450 0.19376 0.75784
 Cu140 Cu 0.20848 0.21623 0.71417
 N141 N 0.19801 0.29149 0.76431
 N142 N 0.18136 0.26634 0.73504
 C143 C 0.14445 0.28147 0.72277
 C144 C 0.13731 0.31794 0.74555
 C145 C 0.17194 0.32358 0.77180
 H146 H 0.12409 0.26700 0.69901
 H147 H 0.17772 0.34881 0.79464
 N148 N 0.24083 0.16713 0.69692
 N149 N 0.27767 0.15867 0.71319
 C150 C 0.29177 0.12314 0.69480
 C151 C 0.26254 0.10894 0.66531
 C152 C 0.23062 0.13752 0.66752
 H153 H 0.32113 0.10866 0.70222
 H154 H 0.20197 0.13675 0.64929
 H155 H 0.26829 0.23713 0.72649
 H156 H 0.24280 0.20588 0.76864
 N157 N 0.29545 -0.23756 0.15798
 N158 N 0.27310 -0.27141 0.14745
 C159 C 0.29150 -0.29117 0.11465
 C160 C 0.32719 -0.26858 0.10422
 C161 C 0.32877 -0.23470 0.13240
 H162 H 0.27950 -0.31945 0.09887
 H163 H 0.35183 -0.20936 0.13376
 Cu164 Cu 0.22132 -0.28585 0.17643
 Cu165 Cu 0.27928 -0.19882 0.20307
 Cu166 Cu 0.18603 -0.22131 0.25311
 N167 N 0.16770 -0.29614 0.20387
 N168 N 0.15431 -0.27040 0.23361
 C169 C 0.11682 -0.28408 0.24717
 C170 C 0.10598 -0.32036 0.22496
 C171 C 0.13893 -0.32732 0.19756
 H172 H 0.09867 -0.26890 0.27160
 H173 H 0.14172 -0.35294 0.17483
 N174 N 0.22202 -0.17294 0.26884
 N175 N 0.25738 -0.16368 0.24959
 C176 C 0.27416 -0.12826 0.26748
 C177 C 0.24822 -0.11515 0.29967
 C178 C 0.21545 -0.14410 0.29952
 H179 H 0.30322 -0.11326 0.25814
 H180 H 0.18849 -0.14390 0.31990
 H181 H 0.24517 -0.24202 0.23632
 H182 H 0.21628 -0.21172 0.19608
 N183 N 0.68711 0.22716 0.19548
 N184 N 0.70935 0.26054 0.18518
 C185 C 0.69359 0.27622 0.14965
 C186 C 0.65957 0.25165 0.13708
 C187 C 0.65616 0.22066 0.16686
 H188 H 0.70602 0.30333 0.13369
 H189 H 0.63368 0.19480 0.16714
 Cu190 Cu 0.75699 0.28023 0.21874
 Cu191 Cu 0.70191 0.19336 0.24376
 Cu192 Cu 0.79310 0.22356 0.29772
 N193 N 0.80414 0.30002 0.25308
 N194 N 0.81830 0.27773 0.28416
 C195 C 0.85283 0.29693 0.30062
 C196 C 0.86067 0.33315 0.27864
 C197 C 0.82905 0.33419 0.24874
 H198 H 0.87187 0.28461 0.32552
 H199 H 0.82541 0.35703 0.22448
 N200 N 0.75786 0.17504 0.31349
 N201 N 0.72312 0.16352 0.29319
 C202 C 0.70707 0.12870 0.31087
 C203 C 0.73272 0.11807 0.34393
 C204 C 0.76458 0.14817 0.34476
 H205 H 0.67912 0.11180 0.30019
 H206 H 0.79115 0.14995 0.36595
 H207 H 0.73396 0.23992 0.27855
 H208 H 0.76424 0.20757 0.24007
 C209 C 0.23288 0.04025 0.39926
 C210 C 0.23413 0.00376 0.37385
 C211 C 0.23605 -0.03604 0.39142
 C212 C 0.23769 -0.03962 0.43573
 C213 C 0.23722 -0.00287 0.46185
 C214 C 0.23471 0.03719 0.44356
 C215 C 0.23519 0.07324 0.47002
 C216 C 0.23762 0.07003 0.51353
 C217 C 0.23934 0.03061 0.53245
 C218 C 0.23933 -0.00619 0.50636
 C219 C 0.24065 -0.07898 0.45459
 C220 C 0.24238 -0.08224 0.49815
 C221 C 0.24156 -0.04627 0.52466
 C222 C 0.24405 -0.04929 0.56894
 C223 C 0.24475 -0.01264 0.59425
 C224 C 0.24207 0.02711 0.57669
 H225 H 0.23444 0.10446 0.45738
 H226 H 0.23877 0.09901 0.53205
 H227 H 0.24234 -0.10778 0.43594
 H228 H 0.24512 -0.11334 0.51074
 H229 H 0.23134 0.00627 0.33996
 H230 H 0.24543 -0.01521 0.62823
 C231 C 0.76134 0.04127 0.60760
 C232 C 0.75941 0.00347 0.62937
 C233 C 0.75358 -0.03534 0.60821
 C234 C 0.75034 -0.03688 0.56373
 C235 C 0.75276 0.00092 0.54105
 C236 C 0.75787 0.04013 0.56307
 C237 C 0.75822 0.07724 0.54000
 C238 C 0.75475 0.07595 0.49630
 C239 C 0.75131 0.03746 0.47367
 C240 C 0.74996 -0.00046 0.49624
 C241 C 0.74551 -0.07532 0.54128
 C242 C 0.74338 -0.07672 0.49744
 C243 C 0.74596 -0.03974 0.47416
 C244 C 0.74410 -0.04094 0.42948
 C245 C 0.74512 -0.00302 0.40789
 C246 C 0.74843 0.03599 0.42914
 H247 H 0.76060 0.10786 0.55545
 H248 H 0.75450 0.10568 0.48060
 H249 H 0.74359 -0.10484 0.55741
 H250 H 0.73917 -0.10724 0.48210
 H251 H 0.76240 0.00420 0.66342
 H252 H 0.74559 -0.00383 0.37376
 C253 C 0.39951 0.27016 0.05283
 C254 C 0.37838 0.27631 0.01479
 C255 C 0.39932 0.27510 -0.02374
 C256 C 0.44329 0.26980 -0.02441
 C257 C 0.46515 0.26349 0.01385
 C258 C 0.44322 0.26372 0.05255
 C259 C 0.46577 0.25851 0.09019
 C260 C 0.50861 0.25195 0.08978
 C261 C 0.53087 0.25064 0.05177
 C262 C 0.50907 0.25702 0.01345
 C263 C 0.46614 0.27162 -0.06208
 C264 C 0.50911 0.26532 -0.06251
 C265 C 0.53114 0.25741 -0.02519
 C266 C 0.57486 0.25124 -0.02531
 C267 C 0.59581 0.24484 0.01278
 C268 C 0.57458 0.24448 0.05123
 H269 H 0.45078 0.26010 0.12062
 H270 H 0.52410 0.24863 0.11984
 H271 H 0.45118 0.27860 -0.09164
 H272 H 0.52492 0.26736 -0.09245
 H273 H 0.34466 0.27960 0.01489
 H274 H 0.62910 0.23887 0.01235
 C275 C 0.41776 0.72456 -0.05368
 C276 C 0.39551 0.72759 -0.01603
 C277 C 0.41540 0.73813 0.02233
 C278 C 0.45940 0.74481 0.02319
 C279 C 0.48262 0.74145 -0.01475
 C280 C 0.46181 0.73103 -0.05331
 C281 C 0.48572 0.72632 -0.09012
 C282 C 0.52884 0.73365 -0.08956
 C283 C 0.55006 0.74507 -0.05195
 C284 C 0.52682 0.74820 -0.01403
 C285 C 0.48097 0.75369 0.06119
 C286 C 0.52417 0.75986 0.06193
 C287 C 0.54771 0.75754 0.02470
 C288 C 0.59175 0.76294 0.02546
 C289 C 0.61421 0.76024 -0.01223
 C290 C 0.59406 0.75195 -0.05103
 H291 H 0.47148 0.71635 -0.11977
 H292 H 0.54545 0.72927 -0.11888
 H293 H 0.46489 0.75514 0.09105
 H294 H 0.53891 0.76602 0.09227
 H295 H 0.36171 0.72384 -0.01715
 H296 H 0.64779 0.76591 -0.01136
 C297 C -0.05611 0.59404 0.22816
 C298 C -0.01820 0.61524 0.22082
 C299 C 0.01980 0.59405 0.21968
 C300 C 0.02001 0.55030 0.22665
 C301 C -0.01812 0.52844 0.23477
 C302 C -0.05637 0.55031 0.23492
 C303 C -0.09380 0.52811 0.24299
 C304 C -0.09381 0.48529 0.25036
 C305 C -0.05633 0.46286 0.25030
 C306 C -0.01800 0.48471 0.24316
 C307 C 0.05743 0.52794 0.22654
 C308 C 0.05758 0.48526 0.23466
 C309 C 0.02040 0.46299 0.24423
 C310 C 0.02043 0.41968 0.25431
 C311 C -0.01808 0.39886 0.26119
 C312 C -0.05629 0.41935 0.25802
 H313 H -0.12355 0.54370 0.24421
 H314 H -0.12359 0.47025 0.25719
 H315 H 0.08729 0.54316 0.22050
 H316 H 0.08750 0.47029 0.23278
 H317 H -0.01850 0.64858 0.21466
 H318 H -0.01880 0.36594 0.26847
 C319 C 0.05575 0.58047 0.76799
 C320 C 0.01768 0.60148 0.76827
 C321 C -0.02097 0.57979 0.76502
 C322 C -0.02153 0.53526 0.76167
 C323 C 0.01666 0.51331 0.76338
 C324 C 0.05538 0.53598 0.76664
 C325 C 0.09278 0.51352 0.76716
 C326 C 0.09229 0.46987 0.76575
 C327 C 0.05442 0.44666 0.76308
 C328 C 0.01621 0.46854 0.76103
 C329 C -0.05912 0.51207 0.75534
 C330 C -0.05943 0.46836 0.75199
 C331 C -0.02232 0.44582 0.75582
 C332 C -0.02230 0.40124 0.75317
 C333 C 0.01562 0.38037 0.75560
 C334 C 0.05392 0.40220 0.76084
 H335 H 0.12307 0.52927 0.76832
 H336 H 0.12223 0.45466 0.76578
 H337 H -0.08874 0.52744 0.75184
 H338 H -0.08920 0.45255 0.74588
 H339 H 0.01833 0.63539 0.77220
 H340 H 0.01503 0.34628 0.75468
 C341 C 0.34420 0.29223 0.10263
 C342 C 0.37497 0.26623 0.09200
 H343 H 0.33640 0.31779 0.08231
 H344 H 0.38305 0.24118 0.11269
 C345 C 0.64481 0.74563 0.07794
 C346 C 0.61504 0.77153 0.06531
 H347 H 0.65221 0.71870 0.05796
 H348 H 0.60537 0.79752 0.08535
 C349 C 0.63558 0.27067 -0.06853
 C350 C 0.59929 0.24939 -0.06481
 H351 H 0.64640 0.29148 -0.04303
 H352 H 0.58706 0.23042 -0.09103
 C353 C 0.39369 0.74281 -0.12439
 C354 C 0.39267 0.71633 -0.09243
 H355 H 0.41560 0.76928 -0.12341
 H356 H 0.36937 0.69115 -0.09208
 C357 C 0.06332 0.35457 0.25438
 C358 C 0.06034 0.39639 0.25875
 H359 H 0.03628 0.33447 0.24797
 H360 H 0.08873 0.41388 0.26684
 C361 C 0.10114 0.63900 0.74470
 C362 C 0.09544 0.60582 0.76942
 H363 H 0.07593 0.64773 0.72389
 H364 H 0.12042 0.59616 0.78989
 C365 C -0.10104 0.65179 0.25199
 C366 C -0.09521 0.61805 0.22675
 H367 H -0.07683 0.66110 0.27461
 H368 H -0.11977 0.60642 0.20567
 C369 C -0.09203 0.37558 0.77537
 C370 C -0.06052 0.37430 0.74779
 H371 H -0.09084 0.39910 0.80067
 H372 H -0.05991 0.34972 0.72363
 C373 C 0.25172 0.09340 0.34752
 C374 C 0.22699 0.08093 0.37879
 H375 H 0.27764 0.07413 0.33770
 H376 H 0.20279 0.10130 0.39065
 C377 C 0.74433 0.09009 0.66616
 C378 C 0.76742 0.08142 0.63213
 H379 H 0.72038 0.06764 0.67557
 H380 H 0.79002 0.10445 0.62123
 C381 C 0.27152 -0.09926 0.61933
 C382 C 0.24339 -0.09033 0.58979
 H383 H 0.29666 -0.07689 0.62690
 H384 H 0.21974 -0.11354 0.58016
 C385 C 0.72369 -0.08687 0.36817
 C386 C 0.74500 -0.08114 0.40444
 H387 H 0.70273 -0.06283 0.35786
 H388 H 0.76466 -0.10586 0.41550
 C389 C 0.65643 0.73434 -0.09324
 C390 C 0.61932 0.75292 -0.09025
 H391 H 0.66775 0.71638 -0.06714
 H392 H 0.60689 0.76897 -0.11708
 C393 C 0.37411 0.24649 -0.09200
 C394 C 0.37322 0.27699 -0.06232
 H395 H 0.39571 0.22097 -0.08864
 H396 H 0.35015 0.30132 -0.06395
 C397 C 0.35524 0.72191 0.06868
 C398 C 0.38916 0.74564 0.06020
 H399 H 0.34734 0.69478 0.04872
 H400 H 0.39759 0.77196 0.08093
 C401 C 0.63461 0.25775 0.09873
 C402 C 0.59877 0.23676 0.09020
 H403 H 0.64577 0.28132 0.07718
 H404 H 0.58627 0.21467 0.11251
 C405 C -0.06363 0.64207 0.75040
 C406 C -0.06022 0.60420 0.76766
 H407 H -0.03781 0.65452 0.73219
 H408 H -0.08623 0.59097 0.78492
 C409 C -0.10209 0.36106 0.28312
 C410 C -0.09584 0.39400 0.25830
 H411 H -0.07885 0.35346 0.30650
 H412 H -0.11981 0.40204 0.23593
 C413 C 0.09981 0.34357 0.74143
 C414 C 0.09279 0.37780 0.76538
 H415 H 0.07714 0.33368 0.71749
 H416 H 0.11587 0.38831 0.78859
 C417 C 0.06720 0.65497 0.23109
 C418 C 0.05878 0.61838 0.21102
 H419 H 0.04524 0.66700 0.25408
 H420 H 0.08119 0.60540 0.18912
 C421 C 0.78294 -0.08516 0.65747
 C422 C 0.75076 -0.07372 0.63359
 H423 H 0.81186 -0.06674 0.65717
 H424 H 0.72286 -0.09357 0.63092
 C425 C 0.25406 -0.07795 0.32770
 C426 C 0.23204 -0.07353 0.36320
 H427 H 0.27728 -0.05429 0.31945
 H428 H 0.21056 -0.09829 0.37249
 C429 C 0.72772 0.08091 0.37040
 C430 C 0.75227 0.07449 0.40387
 H431 H 0.70305 0.05827 0.36210
 H432 H 0.77585 0.09783 0.41314
 C433 C 0.26540 0.07133 0.63766
 C434 C 0.23910 0.06432 0.60523
 H435 H 0.29042 0.04968 0.64331
 H436 H 0.21537 0.08692 0.59834
   
