data_POSCAR
  _audit_creation_date              2014-09-24
  _audit_creation_method            'ToBaCCo'
  _symmetry_space_group_name_H-M    'P1'
  _symmetry_Int_Tables_number       1
  _symmetry_cell_setting            triclinic
  loop_
  _symmetry_equiv_pos_as_xyz
 x,y,z
_cell_length_a 32.3284
_cell_length_b 32.3283
_cell_length_c 32.3289
_cell_angle_alpha 96.967900
_cell_angle_beta 83.032500
_cell_angle_gamma 96.990700
loop_
  _atom_site_label
  _atom_site_type_symbol
  _atom_site_fract_x
  _atom_site_fract_y
  _atom_site_fract_z
O1 O 0.54986 0.51017 0.03826
 O2 O 0.43652 0.50259 0.02991
 O3 O 0.48892 0.44980 0.03878
 O4 O 0.49746 0.56295 0.02940
 O5 O 0.50955 0.55017 -0.03931
 O6 O 0.50100 0.43703 -0.02993
 O7 O 0.44859 0.48982 -0.03873
 O8 O 0.56194 0.49739 -0.03045
 Cu9 Cu 0.49199 0.50764 0.04097
 Cu10 Cu 0.50647 0.49233 -0.04149
 C11 C 0.57531 0.50487 0.00537
 C12 C 0.42304 0.49515 -0.00589
 C13 C 0.49372 0.42404 0.00606
 C14 C 0.50475 0.57593 -0.00659
 O15 O -0.03834 0.55128 0.51017
 O16 O -0.03004 0.43794 0.50262
 O17 O -0.02951 0.49887 0.56296
 O18 O -0.03887 0.49035 0.44982
 O19 O 0.02985 0.50247 0.43706
 O20 O 0.03921 0.51100 0.55020
 O21 O 0.03867 0.45006 0.48985
 O22 O 0.03032 0.56339 0.49741
 Cu23 Cu -0.04107 0.49341 0.50766
 Cu24 Cu 0.04139 0.50794 0.49236
 C25 C -0.00549 0.57686 0.50486
 C26 C 0.00578 0.42460 0.49516
 C27 C 0.00649 0.50616 0.57595
 C28 C -0.00615 0.49517 0.42406
 O29 O 0.50282 0.02999 0.56327
 O30 O 0.51039 0.03833 0.44993
 O31 O 0.45004 0.03885 0.51086
 O32 O 0.56318 0.02947 0.50235
 O33 O 0.55036 -0.03925 0.49026
 O34 O 0.43723 -0.02986 0.49878
 O35 O 0.49757 -0.03039 0.43785
 O36 O 0.49002 -0.03866 0.55120
 Cu37 Cu 0.50788 0.04104 0.50780
 Cu38 Cu 0.49252 -0.04142 0.49333
 C39 C 0.49535 -0.00580 0.57676
 C40 C 0.50505 0.00544 0.42449
 C41 C 0.42426 0.00613 0.50606
 C42 C 0.57614 -0.00653 0.49507
 C43 C 0.49798 -0.04050 -0.09158
 C44 C 0.50025 -0.08146 -0.08307
 C45 C 0.50226 -0.09060 -0.04228
 C46 C 0.50203 -0.05814 -0.00879
 C47 C 0.49972 -0.01641 -0.01702
 C48 C 0.49768 -0.00751 -0.05860
 C49 C 0.49539 0.03407 -0.06604
 C50 C 0.49512 0.06631 -0.03329
 C51 C 0.49712 0.05818 0.00815
 C52 C 0.49945 0.01646 0.01638
 C53 C 0.50404 -0.06626 0.03265
 C54 C 0.50379 -0.03402 0.06540
 C55 C 0.50152 0.00756 0.05795
 C56 C 0.50125 0.04055 0.09093
 C57 C 0.49893 0.08150 0.08243
 C58 C 0.49687 0.09064 0.04164
 H59 H 0.49379 0.04205 -0.09734
 H60 H 0.49331 0.09774 -0.04077
 H61 H 0.50584 -0.09770 0.04013
 H62 H 0.50541 -0.04200 0.09669
 H63 H 0.50044 -0.10660 -0.10858
 H64 H 0.49875 0.10665 0.10794
 C65 C 0.04219 0.50291 0.90931
 C66 C 0.08298 0.50085 0.91843
 C67 C 0.09148 0.49854 0.95938
 C68 C 0.05851 0.49827 0.99238
 C69 C 0.01694 0.50034 0.98349
 C70 C 0.00870 0.50267 0.94177
 C71 C -0.03274 0.50467 0.93365
 C72 C -0.06548 0.50441 0.96589
 C73 C -0.05803 0.50213 1.00747
 C74 C -0.01646 0.50008 1.01636
 C75 C 0.06596 0.49600 1.03396
 C76 C 0.03322 0.49576 1.06621
 C77 C -0.00822 0.49778 1.05809
 C78 C -0.04170 0.49757 1.09055
 C79 C -0.08250 0.49959 1.08142
 C80 C -0.09101 0.50185 1.04046
 H81 H -0.04022 0.50648 0.90221
 H82 H -0.09678 0.50602 0.95791
 H83 H 0.09725 0.49438 1.04194
 H84 H 0.04070 0.49397 1.09764
 H85 H 0.10849 0.50103 0.89328
 H86 H -0.10801 0.49941 1.10657
 C87 C -0.04034 -0.09154 0.50202
 C88 C -0.08129 -0.08304 0.49975
 C89 C -0.09042 -0.04224 0.49774
 C90 C -0.05795 -0.00875 0.49796
 C91 C -0.01623 -0.01698 0.50027
 C92 C -0.00734 -0.05855 0.50231
 C93 C 0.03424 -0.06600 0.50458
 C94 C 0.06649 -0.03324 0.50485
 C95 C 0.05838 0.00820 0.50285
 C96 C 0.01665 0.01642 0.50053
 C97 C -0.06607 0.03269 0.49595
 C98 C -0.03382 0.06544 0.49620
 C99 C 0.00777 0.05800 0.49847
 C100 C 0.04077 0.09098 0.49873
 C101 C 0.08172 0.08248 0.50103
 C102 C 0.09084 0.04169 0.50308
 H103 H 0.04222 -0.09729 0.50619
 H104 H 0.09793 -0.04071 0.50665
 H105 H -0.09750 0.04016 0.49416
 H106 H -0.04179 0.09673 0.49459
 H107 H -0.10645 -0.10856 0.49957
 H108 H 0.10688 0.10800 0.50121
 C109 C -0.32122 0.51519 1.05181
 C110 C -0.29309 0.50804 1.01590
 C111 C -0.30785 0.50069 0.97643
 C112 C -0.35061 0.50012 0.97290
 C113 C -0.37921 0.50687 1.00888
 C114 C -0.36398 0.51464 1.04838
 C115 C -0.24928 0.50740 1.01975
 C116 C -0.21276 0.50651 1.02350
 C117 C -0.17021 0.50512 1.02858
 C118 C -0.13407 0.50373 1.03357
 H119 H -0.31014 0.52087 1.08253
 H120 H -0.28635 0.49506 0.94842
 H121 H -0.36131 0.49403 0.94205
 H122 H -0.38512 0.51994 1.07668
 C123 C 0.30830 0.49921 1.02326
 C124 C 0.29355 0.49207 0.98381
 C125 C 0.32167 0.48509 0.94789
 C126 C 0.36443 0.48563 0.95126
 C127 C 0.37986 0.49328 0.99079
 C128 C 0.35106 0.49978 1.02680
 C129 C 0.24974 0.49276 0.98000
 C130 C 0.21322 0.49370 0.97627
 C131 C 0.17068 0.49515 0.97122
 C132 C 0.13454 0.49660 0.96626
 H133 H 0.28679 0.50468 1.05129
 H134 H 0.31057 0.47954 0.91718
 H135 H 0.38537 0.48042 0.92278
 H136 H 0.36150 0.50572 1.05778
 C137 C -0.05175 -0.32180 0.51504
 C138 C -0.01583 -0.29365 0.50809
 C139 C 0.02363 -0.30837 0.50091
 C140 C 0.02718 -0.35114 0.50028
 C141 C -0.00883 -0.37996 0.50676
 C142 C -0.04836 -0.36457 0.51443
 C143 C -0.01966 -0.24983 0.50749
 C144 C -0.02340 -0.21330 0.50663
 C145 C -0.02847 -0.17075 0.50527
 C146 C -0.03345 -0.13460 0.50389
 H147 H -0.08246 -0.31073 0.52061
 H148 H 0.05165 -0.28683 0.49547
 H149 H 0.05817 -0.36154 0.49432
 H150 H -0.07684 -0.38554 0.51962
 C151 C 0.05222 0.32115 0.48500
 C152 C 0.01630 0.29302 0.49217
 C153 C -0.02317 0.30776 0.49947
 C154 C -0.02669 0.35052 0.49996
 C155 C 0.00930 0.37912 0.49320
 C156 C 0.04879 0.36390 0.48549
 C157 C 0.02014 0.24922 0.49290
 C158 C 0.02388 0.21271 0.49387
 C159 C 0.02893 0.17017 0.49533
 C160 C 0.03390 0.13403 0.49680
 H161 H 0.08294 0.31009 0.47936
 H162 H -0.05118 0.28626 0.50511
 H163 H -0.05755 0.36120 0.50602
 H164 H 0.07710 0.38505 0.48018
 C165 C 0.48509 -0.05201 -0.32185
 C166 C 0.49204 -0.01607 -0.29373
 C167 C 0.49925 0.02337 -0.30849
 C168 C 0.49992 0.02690 -0.35126
 C169 C 0.49343 -0.00912 -0.38006
 C170 C 0.48573 -0.04865 -0.36463
 C171 C 0.49260 -0.01987 -0.24990
 C172 C 0.49344 -0.02359 -0.21336
 C173 C 0.49477 -0.02864 -0.17080
 C174 C 0.49613 -0.03361 -0.13464
 H175 H 0.47949 -0.08271 -0.31074
 H176 H 0.50470 0.05140 -0.28697
 H177 H 0.50590 0.05788 -0.36170
 H178 H 0.48053 -0.07714 -0.38557
 C179 C 0.51520 0.05189 0.32104
 C180 C 0.50796 0.01598 0.29292
 C181 C 0.50063 -0.02349 0.30767
 C182 C 0.50017 -0.02703 0.35043
 C183 C 0.50699 0.00895 0.37901
 C184 C 0.51474 0.04845 0.36378
 C185 C 0.50719 0.01984 0.24913
 C186 C 0.50619 0.02360 0.21263
 C187 C 0.50470 0.02868 0.17010
 C188 C 0.50321 0.03367 0.13397
 H189 H 0.52086 0.08261 0.30996
 H190 H 0.49494 -0.05150 0.28619
 H191 H 0.49408 -0.05789 0.36112
 H192 H 0.52010 0.07676 0.38492
 C193 C 0.50166 -0.30703 0.02142
 C194 C 0.50866 -0.29268 -0.01824
 C195 C 0.51529 -0.32113 -0.05399
 C196 C 0.51453 -0.36384 -0.05020
 C197 C 0.50707 -0.37866 -0.01051
 C198 C 0.50088 -0.34974 0.02530
 C199 C 0.50812 -0.24895 -0.02239
 C200 C 0.50724 -0.21247 -0.02626
 C201 C 0.50580 -0.16994 -0.03127
 C202 C 0.50431 -0.13376 -0.03599
 H203 H 0.49644 -0.28527 0.04930
 H204 H 0.52069 -0.31035 -0.08484
 H205 H 0.51940 -0.38525 -0.07837
 H206 H 0.49505 -0.36012 0.05630
 C207 C 0.49694 0.30702 -0.02197
 C208 C 0.48999 0.29267 0.01768
 C209 C 0.48333 0.32110 0.05344
 C210 C 0.48402 0.36380 0.04966
 C211 C 0.49143 0.37863 0.00997
 C212 C 0.49764 0.34972 -0.02585
 C213 C 0.49064 0.24894 0.02183
 C214 C 0.49161 0.21247 0.02568
 C215 C 0.49316 0.16996 0.03066
 C216 C 0.49474 0.13379 0.03536
 H217 H 0.50219 0.28527 -0.04985
 H218 H 0.47797 0.31032 0.08429
 H219 H 0.47913 0.38521 0.07784
 H220 H 0.50345 0.36011 -0.05684
 C221 C -0.30681 0.02146 0.49822
 C222 C -0.29249 -0.01820 0.49124
 C223 C -0.32096 -0.05395 0.48459
 C224 C -0.36366 -0.05015 0.48533
 C225 C -0.37846 -0.01045 0.49277
 C226 C -0.34951 0.02535 0.49897
 C227 C -0.24876 -0.02236 0.49181
 C228 C -0.21228 -0.02623 0.49271
 C229 C -0.16976 -0.03124 0.49417
 C230 C -0.13359 -0.03596 0.49568
 H231 H -0.28504 0.04934 0.50345
 H232 H -0.31020 -0.08481 0.47920
 H233 H -0.38509 -0.07833 0.48045
 H234 H -0.35988 0.05635 0.50479
 C235 C 0.32135 0.05352 0.51647
 C236 C 0.29289 0.01775 0.50983
 C237 C 0.30723 -0.02190 0.50288
 C238 C 0.34993 -0.02578 0.50216
 C239 C 0.37886 0.01004 0.50835
 C240 C 0.36405 0.04973 0.51577
 C241 C 0.24917 0.02190 0.50921
 C242 C 0.21269 0.02574 0.50826
 C243 C 0.17017 0.03072 0.50675
 C244 C 0.13400 0.03542 0.50519
 H245 H 0.31058 0.08437 0.52184
 H246 H 0.28546 -0.04979 0.49765
 H247 H 0.36030 -0.05677 0.49636
 H248 H 0.38547 0.07792 0.52064
 C249 C -0.05351 0.48460 1.32110
 C250 C -0.01774 0.49123 1.29267
 C251 C 0.02191 0.49825 1.30703
 C252 C 0.02578 0.49904 1.34974
 C253 C -0.01005 0.49284 1.37866
 C254 C -0.04973 0.48537 1.36381
 C255 C -0.02188 0.49176 1.24893
 C256 C -0.02572 0.49263 1.21244
 C257 C -0.03071 0.49405 1.16990
 C258 C -0.03541 0.49553 1.13372
 H259 H -0.08436 0.47918 1.31031
 H260 H 0.04980 0.50348 1.28528
 H261 H 0.05677 0.50488 1.36013
 H262 H -0.07792 0.48050 1.38522
 C263 C 0.05389 0.51656 0.67887
 C264 C 0.01814 0.50984 0.70731
 C265 C -0.02151 0.50286 0.69296
 C266 C -0.02541 0.50218 0.65027
 C267 C 0.01040 0.50844 0.62135
 C268 C 0.05010 0.51589 0.63618
 C269 C 0.02231 0.50917 0.75102
 C270 C 0.02617 0.50819 0.78749
 C271 C 0.03119 0.50663 0.82999
 C272 C 0.03590 0.50504 0.86615
 H273 H 0.08475 0.52194 0.68965
 H274 H -0.04939 0.49757 0.71471
 H275 H -0.05640 0.49635 0.63989
 H276 H 0.07827 0.52081 0.61477
   
