data_POSCAR
  _audit_creation_date              2014-09-24
  _audit_creation_method            'ToBaCCo'
  _symmetry_space_group_name_H-M    'P1'
  _symmetry_Int_Tables_number       1
  _symmetry_cell_setting            triclinic
  loop_
  _symmetry_equiv_pos_as_xyz
 x,y,z
_cell_length_a 46.7704
_cell_length_b 46.7876
_cell_length_c 46.7853
_cell_angle_alpha 89.992900
_cell_angle_beta 90.000200
_cell_angle_gamma 90.006600
loop_
  _atom_site_label
  _atom_site_type_symbol
  _atom_site_fract_x
  _atom_site_fract_y
  _atom_site_fract_z
C1 C 0.27434 0.23798 0.23760
 C2 C 0.26210 0.22573 0.26207
 C3 C 0.23790 0.23782 0.27416
 C4 C 0.22566 0.26229 0.26194
 C5 C 0.23776 0.27440 0.23776
 C6 C 0.26224 0.26217 0.22552
 C7 C 0.29779 0.23083 0.22131
 N8 N 0.30003 0.25009 0.19982
 C9 C 0.27853 0.26934 0.20207
 C10 C 0.22148 0.29785 0.23060
 N11 N 0.19998 0.30008 0.24985
 C12 C 0.20221 0.27858 0.26910
 C13 C 0.23073 0.22151 0.29760
 N14 N 0.24999 0.20002 0.29983
 C15 C 0.26926 0.20227 0.27834
 H16 H 0.31215 0.21300 0.22476
 H17 H 0.27506 0.28717 0.18772
 H18 H 0.22495 0.31221 0.21278
 H19 H 0.18785 0.27510 0.28692
 H20 H 0.21290 0.22497 0.31196
 H21 H 0.28708 0.18792 0.27486
 C22 C 0.72521 -0.23831 0.23709
 C23 C 0.73748 -0.22605 0.26153
 C24 C 0.76172 -0.23809 0.27358
 C25 C 0.77399 -0.26253 0.26132
 C26 C 0.76187 -0.27466 0.23715
 C27 C 0.73734 -0.26248 0.22496
 C28 C 0.70170 -0.23119 0.22085
 N29 N 0.69948 -0.25046 0.19936
 C30 C 0.72102 -0.26968 0.20154
 C31 C 0.77819 -0.29808 0.22995
 N32 N 0.79973 -0.30025 0.24919
 C33 C 0.79750 -0.27876 0.26846
 C34 C 0.76889 -0.22180 0.29702
 N35 N 0.74959 -0.20035 0.29930
 C36 C 0.73029 -0.20263 0.27784
 H37 H 0.68732 -0.21339 0.22437
 H38 H 0.72452 -0.28751 0.18719
 H39 H 0.77470 -0.31243 0.21213
 H40 H 0.81187 -0.27524 0.28627
 H41 H 0.78675 -0.22524 0.31134
 H42 H 0.71243 -0.18831 0.27442
 C43 C 0.72605 0.23874 0.76241
 C44 C 0.73835 0.22649 0.73798
 C45 C 0.76257 0.23858 0.72593
 C46 C 0.77478 0.26306 0.73816
 C47 C 0.76262 0.27518 0.76231
 C48 C 0.73812 0.26295 0.77451
 C49 C 0.70255 0.23157 0.77864
 N50 N 0.70028 0.25086 0.80011
 C51 C 0.72178 0.27013 0.79792
 C52 C 0.77888 0.29865 0.76950
 N53 N 0.80042 0.30086 0.75027
 C54 C 0.79825 0.27935 0.73102
 C55 C 0.76979 0.22226 0.70251
 N56 N 0.75054 0.20076 0.70026
 C57 C 0.73123 0.20302 0.72171
 H58 H 0.68822 0.21372 0.77514
 H59 H 0.72524 0.28798 0.81226
 H60 H 0.77534 0.31301 0.78731
 H61 H 0.81264 0.27585 0.71322
 H62 H 0.78765 0.22572 0.68819
 H63 H 0.71340 0.18867 0.72515
 C64 C 0.27440 -0.23891 0.76326
 C65 C 0.26216 -0.22667 0.73879
 C66 C 0.23791 -0.23869 0.72675
 C67 C 0.22560 -0.26310 0.73903
 C68 C 0.23769 -0.27522 0.76323
 C69 C 0.26223 -0.26305 0.77541
 C70 C 0.29791 -0.23180 0.77950
 N71 N 0.30009 -0.25105 0.80101
 C72 C 0.27853 -0.27025 0.79885
 C73 C 0.22132 -0.29861 0.77045
 N74 N 0.19979 -0.30077 0.75121
 C75 C 0.20206 -0.27931 0.73191
 C76 C 0.23077 -0.22241 0.70329
 N77 N 0.25010 -0.20099 0.70099
 C78 C 0.26938 -0.20327 0.72246
 H79 H 0.31231 -0.21402 0.77596
 H80 H 0.27499 -0.28805 0.81323
 H81 H 0.22478 -0.31294 0.78830
 H82 H 0.18770 -0.27578 0.71409
 H83 H 0.21290 -0.22584 0.68897
 H84 H 0.28727 -0.18897 0.72588
 C85 C 0.72529 -0.23849 0.76314
 C86 C 0.73755 -0.22623 0.73869
 C87 C 0.76179 -0.23827 0.72664
 C88 C 0.77406 -0.26271 0.73890
 C89 C 0.76194 -0.27484 0.76307
 C90 C 0.73742 -0.26266 0.77526
 C91 C 0.70178 -0.23137 0.77938
 N92 N 0.69956 -0.25065 0.80087
 C93 C 0.72110 -0.26987 0.79869
 C94 C 0.77827 -0.29826 0.77026
 N95 N 0.79980 -0.30043 0.75103
 C96 C 0.79757 -0.27894 0.73176
 C97 C 0.76895 -0.22197 0.70320
 N98 N 0.74965 -0.20052 0.70092
 C99 C 0.73036 -0.20280 0.72238
 H100 H 0.68740 -0.21356 0.77586
 H101 H 0.72460 -0.28770 0.81304
 H102 H 0.77477 -0.31262 0.78809
 H103 H 0.81193 -0.27542 0.71394
 H104 H 0.78681 -0.22540 0.68887
 H105 H 0.71250 -0.18848 0.72582
 C106 C 0.27475 0.23811 0.76252
 C107 C 0.26244 0.22583 0.73810
 C108 C 0.23820 0.23788 0.72607
 C109 C 0.22597 0.26235 0.73831
 C110 C 0.23813 0.27449 0.76244
 C111 C 0.26266 0.26230 0.77462
 C112 C 0.29827 0.23098 0.77874
 N113 N 0.30053 0.25027 0.80019
 C114 C 0.27901 0.26952 0.79802
 C115 C 0.22184 0.29793 0.76962
 N116 N 0.20027 0.30011 0.75043
 C117 C 0.20248 0.27860 0.73120
 C118 C 0.23098 0.22155 0.70267
 N119 N 0.25025 0.20008 0.70040
 C120 C 0.26958 0.20237 0.72183
 H121 H 0.31262 0.21315 0.77523
 H122 H 0.27554 0.28736 0.81235
 H123 H 0.22534 0.31231 0.78741
 H124 H 0.18807 0.27509 0.71342
 H125 H 0.21310 0.22498 0.68836
 H126 H 0.28743 0.18803 0.72526
 C127 C 0.27447 -0.23874 0.23696
 C128 C 0.26224 -0.22650 0.26143
 C129 C 0.23798 -0.23852 0.27347
 C130 C 0.22566 -0.26292 0.26118
 C131 C 0.23775 -0.27503 0.23699
 C132 C 0.26230 -0.26287 0.22481
 C133 C 0.29799 -0.23163 0.22073
 N134 N 0.30017 -0.25087 0.19921
 C135 C 0.27860 -0.27007 0.20137
 C136 C 0.22138 -0.29842 0.22977
 N137 N 0.19985 -0.30058 0.24901
 C138 C 0.20212 -0.27912 0.26831
 C139 C 0.23084 -0.22224 0.29693
 N140 N 0.25018 -0.20082 0.29923
 C141 C 0.26946 -0.20310 0.27776
 H142 H 0.31240 -0.21385 0.22426
 H143 H 0.27506 -0.28787 0.18700
 H144 H 0.22484 -0.31275 0.21192
 H145 H 0.18776 -0.27560 0.28612
 H146 H 0.21298 -0.22567 0.31125
 H147 H 0.28735 -0.18881 0.27435
 C148 C 0.72647 0.23861 0.23771
 C149 C 0.73870 0.22639 0.26219
 C150 C 0.76286 0.23852 0.27432
 C151 C 0.77507 0.26302 0.26210
 C152 C 0.76298 0.27510 0.23790
 C153 C 0.73854 0.26282 0.22563
 C154 C 0.70304 0.23140 0.22139
 N155 N 0.70080 0.25066 0.19990
 C156 C 0.72226 0.26995 0.20216
 C157 C 0.77923 0.29858 0.23074
 N158 N 0.80070 0.30084 0.25003
 C159 C 0.79850 0.27935 0.26930
 C160 C 0.77003 0.22223 0.29777
 N161 N 0.75080 0.20070 0.29997
 C162 C 0.73156 0.20292 0.27846
 H163 H 0.68871 0.21355 0.22484
 H164 H 0.72572 0.28778 0.18781
 H165 H 0.77572 0.31292 0.21290
 H166 H 0.81284 0.27588 0.28715
 H167 H 0.78783 0.22572 0.31215
 H168 H 0.71376 0.18854 0.27496
 O169 O 0.27377 0.02714 0.47233
 O170 O 0.27383 -0.02853 0.52801
 O171 O 0.27383 -0.02852 0.47233
 O172 O 0.27378 0.02714 0.52799
 O173 O 0.22650 0.02709 0.52800
 O174 O 0.22655 -0.02857 0.47233
 O175 O 0.22654 -0.02858 0.52801
 O176 O 0.22649 0.02709 0.47234
 Cu177 Cu 0.27858 -0.00069 0.50017
 Cu178 Cu 0.22175 -0.00075 0.50017
 C179 C 0.25012 0.03651 0.46294
 C180 C 0.25020 -0.03795 0.53741
 C181 C 0.25020 -0.03793 0.46293
 C182 C 0.25013 0.03651 0.53738
 O183 O 0.72664 0.02776 0.52800
 O184 O 0.72637 -0.02789 0.47233
 O185 O 0.72638 -0.02790 0.52801
 O186 O 0.72664 0.02777 0.47234
 O187 O 0.77393 0.02756 0.47234
 O188 O 0.77366 -0.02812 0.52801
 O189 O 0.77366 -0.02811 0.47233
 O190 O 0.77392 0.02755 0.52800
 Cu191 Cu 0.72174 -0.00005 0.50017
 Cu192 Cu 0.77856 -0.00031 0.50017
 C193 C 0.75032 0.03706 0.53738
 C194 C 0.74997 -0.03738 0.46292
 C195 C 0.74998 -0.03740 0.53741
 C196 C 0.75033 0.03707 0.46296
 O197 O 0.47257 0.27410 0.02700
 O198 O 0.52825 0.27430 -0.02867
 O199 O 0.47256 0.27419 -0.02866
 O200 O 0.52825 0.27421 0.02700
 O201 O 0.52833 0.22694 0.02693
 O202 O 0.47264 0.22692 -0.02873
 O203 O 0.52834 0.22703 -0.02874
 O204 O 0.47266 0.22683 0.02693
 Cu205 Cu 0.50040 0.27897 -0.00083
 Cu206 Cu 0.50050 0.22216 -0.00091
 C207 C 0.46322 0.25043 0.03637
 C208 C 0.53770 0.25070 -0.03809
 C209 C 0.46320 0.25056 -0.03808
 C210 C 0.53769 0.25057 0.03636
 O211 O 0.52777 0.72554 0.02793
 O212 O 0.47208 0.72542 -0.02774
 O213 O 0.52777 0.72551 -0.02774
 O214 O 0.47208 0.72545 0.02792
 O215 O 0.47202 0.77272 0.02789
 O216 O 0.52770 0.77278 -0.02778
 O217 O 0.47201 0.77269 -0.02777
 O218 O 0.52771 0.77281 0.02789
 Cu219 Cu 0.49994 0.72071 0.00009
 Cu220 Cu 0.49986 0.77752 0.00006
 C221 C 0.53714 0.74919 0.03731
 C222 C 0.46264 0.74903 -0.03714
 C223 C 0.53714 0.74915 -0.03716
 C224 C 0.46265 0.74908 0.03730
 O225 O 0.02747 0.47305 0.27312
 O226 O -0.02822 0.52870 0.27298
 O227 O -0.02820 0.47303 0.27319
 O228 O 0.02749 0.52870 0.27291
 O229 O 0.02743 0.52853 0.22564
 O230 O -0.02825 0.47286 0.22592
 O231 O -0.02827 0.52853 0.22571
 O232 O 0.02742 0.47288 0.22585
 Cu233 Cu -0.00036 0.50090 0.27782
 Cu234 Cu -0.00043 0.50069 0.22101
 C235 C 0.03684 0.46357 0.24951
 C236 C -0.03765 0.53800 0.24932
 C237 C -0.03761 0.46354 0.24960
 C238 C 0.03687 0.53800 0.24923
 O239 O 0.02749 0.52844 0.72737
 O240 O -0.02821 0.47278 0.72713
 O241 O -0.02821 0.52845 0.72732
 O242 O 0.02747 0.47279 0.72718
 O243 O 0.02742 0.47262 0.77445
 O244 O -0.02826 0.52829 0.77459
 O245 O -0.02825 0.47262 0.77440
 O246 O 0.02744 0.52828 0.77464
 Cu247 Cu -0.00036 0.50064 0.72248
 Cu248 Cu -0.00042 0.50044 0.77929
 C249 C 0.03688 0.53774 0.75105
 C250 C -0.03762 0.46330 0.75072
 C251 C -0.03764 0.53776 0.75097
 C252 C 0.03684 0.46331 0.75079
 C253 C 0.36898 0.24854 0.09251
 C254 C 0.36614 0.22595 0.11656
 C255 C 0.36153 0.25017 0.13825
 C256 C 0.36403 0.27276 0.11455
 C257 C 0.40124 0.25025 0.09845
 C258 C 0.39663 0.27447 0.12014
 C259 C 0.39874 0.22766 0.12215
 C260 C 0.39379 0.25188 0.14419
 C261 C 0.33941 0.25013 0.16041
 C262 C 0.32120 0.25010 0.17864
 C263 C 0.42336 0.25030 0.07628
 C264 C 0.44156 0.25036 0.05805
 H265 H 0.35902 0.24717 0.07102
 H266 H 0.35335 0.20600 0.11534
 H267 H 0.34951 0.29130 0.11167
 H268 H 0.40942 0.29442 0.12136
 H269 H 0.41326 0.20912 0.12503
 H270 H 0.40374 0.25325 0.16568
 C271 C 0.63132 0.75291 0.09345
 C272 C 0.63314 0.77442 0.11856
 C273 C 0.63898 0.74943 0.13905
 C274 C 0.63751 0.72792 0.11428
 C275 C 0.59920 0.74935 0.09932
 C276 C 0.60504 0.72436 0.11981
 C277 C 0.60067 0.77086 0.12409
 C278 C 0.60686 0.74587 0.14492
 C279 C 0.66115 0.74946 0.16117
 C280 C 0.67940 0.74949 0.17936
 C281 C 0.57704 0.74928 0.07719
 C282 C 0.55882 0.74923 0.05898
 H283 H 0.64113 0.75580 0.07204
 H284 H 0.64494 0.79500 0.11830
 H285 H 0.65290 0.71026 0.11050
 H286 H 0.59324 0.70377 0.12008
 H287 H 0.58528 0.78851 0.12787
 H288 H 0.59705 0.74297 0.16633
 C289 C 0.60331 0.27416 -0.12286
 C290 C 0.63593 0.27445 -0.11711
 C291 C 0.63973 0.25087 -0.13964
 C292 C 0.60745 0.25058 -0.14574
 C293 C 0.59986 0.25084 -0.10000
 C294 C 0.60366 0.22726 -0.12253
 C295 C 0.63213 0.25113 -0.09390
 C296 C 0.63628 0.22755 -0.11678
 C297 C 0.66193 0.25087 -0.16172
 C298 C 0.68020 0.25086 -0.17989
 C299 C 0.57766 0.25081 -0.07791
 C300 C 0.55941 0.25077 -0.05974
 H301 H 0.58951 0.29333 -0.12512
 H302 H 0.64945 0.29384 -0.11512
 H303 H 0.59755 0.25036 -0.16730
 H304 H 0.59014 0.20786 -0.12452
 H305 H 0.64204 0.25135 -0.07234
 H306 H 0.65008 0.20838 -0.11452
 C307 C 0.37842 0.77289 -0.10324
 C308 C 0.38399 0.77180 -0.13587
 C309 C 0.36062 0.74890 -0.13871
 C310 C 0.35470 0.74998 -0.10643
 C311 C 0.40048 0.74893 -0.09905
 C312 C 0.37711 0.72602 -0.10190
 C313 C 0.40640 0.74784 -0.13134
 C314 C 0.38269 0.72494 -0.13452
 C315 C 0.33843 0.74890 -0.16080
 C316 C 0.32017 0.74892 -0.17898
 C317 C 0.42268 0.74895 -0.07697
 C318 C 0.44093 0.74899 -0.05879
 H319 H 0.37691 0.79260 -0.09014
 H320 H 0.38658 0.79062 -0.15008
 H321 H 0.33319 0.75087 -0.09643
 H322 H 0.37453 0.70720 -0.08768
 H323 H 0.42791 0.74696 -0.14133
 H324 H 0.38420 0.70522 -0.14763
 C325 C 0.11158 0.38805 0.27680
 C326 C 0.10860 0.35813 0.26293
 C327 C 0.13849 0.36165 0.24979
 C328 C 0.14182 0.39123 0.26365
 C329 C 0.09880 0.40147 0.24969
 C330 C 0.12869 0.40500 0.23654
 C331 C 0.09547 0.37189 0.23582
 C332 C 0.12570 0.37507 0.22268
 C333 C 0.16060 0.33949 0.24983
 C334 C 0.17880 0.32126 0.24985
 C335 C 0.07669 0.42365 0.24962
 C336 C 0.05850 0.44188 0.24957
 H337 H 0.10553 0.39364 0.29905
 H338 H 0.10058 0.33861 0.27379
 H339 H 0.16113 0.39894 0.27510
 H340 H 0.13671 0.42452 0.22569
 H341 H 0.07616 0.36419 0.22438
 H342 H 0.13176 0.36949 0.20043
 C343 C 0.10182 0.62328 0.72870
 C344 C 0.10689 0.64523 0.75297
 C345 C 0.13912 0.63910 0.75128
 C346 C 0.13439 0.61749 0.72701
 C347 C 0.09915 0.59954 0.75124
 C348 C 0.13138 0.59341 0.74954
 C349 C 0.10388 0.62114 0.77551
 C350 C 0.13645 0.61536 0.77381
 C351 C 0.16137 0.66113 0.75128
 C352 C 0.17966 0.67927 0.75126
 C353 C 0.07690 0.57750 0.75119
 C354 C 0.05862 0.55936 0.75113
 H355 H 0.08733 0.62629 0.71015
 H356 H 0.09706 0.66678 0.75439
 H357 H 0.14719 0.61624 0.70706
 H358 H 0.14121 0.57186 0.74813
 H359 H 0.09108 0.62240 0.79545
 H360 H 0.15094 0.61235 0.79236
 C361 C -0.10418 0.62184 0.22516
 C362 C -0.13679 0.61609 0.22634
 C363 C -0.13971 0.63952 0.24916
 C364 C -0.10745 0.64560 0.24798
 C365 C -0.09983 0.59988 0.24919
 C366 C -0.10275 0.62331 0.27202
 C367 C -0.13209 0.59380 0.25037
 C368 C -0.13536 0.61757 0.27319
 C369 C -0.16192 0.66159 0.24915
 C370 C -0.18018 0.67976 0.24916
 C371 C -0.07762 0.57781 0.24923
 C372 C -0.05936 0.55964 0.24926
 H373 H -0.09112 0.62335 0.20541
 H374 H -0.15103 0.61337 0.20755
 H375 H -0.09757 0.66715 0.24700
 H376 H -0.08851 0.62604 0.29080
 H377 H -0.14198 0.57225 0.25135
 H378 H -0.14842 0.61606 0.29294
 C379 C -0.12743 0.40274 0.73316
 C380 C -0.12287 0.37132 0.72372
 C381 C -0.13925 0.36134 0.75038
 C382 C -0.14415 0.39240 0.75981
 C383 C -0.09957 0.40117 0.75049
 C384 C -0.11595 0.39118 0.77714
 C385 C -0.09467 0.37011 0.74105
 C386 C -0.11139 0.35977 0.76771
 C387 C -0.16135 0.33916 0.75033
 C388 C -0.17955 0.32092 0.75030
 C389 C -0.07746 0.42336 0.75056
 C390 C -0.05928 0.44160 0.75063
 H391 H -0.13377 0.42065 0.71895
 H392 H -0.12596 0.36291 0.70176
 H393 H -0.16474 0.40132 0.76753
 H394 H -0.11286 0.39960 0.79911
 H395 H -0.07407 0.36119 0.73334
 H396 H -0.10504 0.34186 0.78192
 C397 C 0.22579 0.12025 0.39641
 C398 C 0.24834 0.14433 0.39354
 C399 C 0.25002 0.13842 0.36129
 C400 C 0.22746 0.11467 0.36381
 C401 C 0.25006 0.09860 0.40098
 C402 C 0.25173 0.09268 0.36872
 C403 C 0.27261 0.12234 0.39846
 C404 C 0.27429 0.11677 0.36586
 C405 C 0.24999 0.16059 0.33918
 C406 C 0.24999 0.17882 0.32099
 C407 C 0.25007 0.07642 0.42309
 C408 C 0.25009 0.05819 0.44128
 H409 H 0.20584 0.12143 0.40922
 H410 H 0.24695 0.16582 0.40351
 H411 H 0.20889 0.11177 0.34932
 H412 H 0.25313 0.07119 0.35876
 H413 H 0.29118 0.12525 0.41295
 H414 H 0.29423 0.11558 0.35305
 C415 C 0.74635 0.13127 0.59337
 C416 C 0.72530 0.13280 0.61889
 C417 C 0.75059 0.13911 0.63887
 C418 C 0.77165 0.13791 0.61369
 C419 C 0.75054 0.09923 0.59925
 C420 C 0.77583 0.10553 0.61923
 C421 C 0.72949 0.10043 0.62443
 C422 C 0.75478 0.10707 0.64475
 C423 C 0.75060 0.16130 0.66095
 C424 C 0.75058 0.17955 0.67912
 C425 C 0.75048 0.07703 0.57718
 C426 C 0.75042 0.05877 0.55901
 H427 H 0.74288 0.14097 0.57199
 H428 H 0.70452 0.14427 0.61900
 H429 H 0.78898 0.15358 0.60953
 H430 H 0.79661 0.09407 0.61912
 H431 H 0.71215 0.08476 0.62860
 H432 H 0.75825 0.09737 0.66613
 C433 C 0.25100 -0.13217 0.59359
 C434 C 0.27404 -0.13556 0.61714
 C435 C 0.25019 -0.13956 0.63936
 C436 C 0.22715 -0.13651 0.61616
 C437 C 0.25022 -0.09988 0.59953
 C438 C 0.22637 -0.10388 0.62175
 C439 C 0.27326 -0.10293 0.62273
 C440 C 0.24941 -0.10727 0.64530
 C441 C 0.25017 -0.16165 0.66155
 C442 C 0.25013 -0.17984 0.67979
 C443 C 0.25022 -0.07779 0.57734
 C444 C 0.25021 -0.05960 0.55910
 H445 H 0.25165 -0.14216 0.57208
 H446 H 0.29365 -0.14883 0.61548
 H447 H 0.20818 -0.15057 0.61371
 H448 H 0.20676 -0.09061 0.62341
 H449 H 0.29223 -0.08887 0.62518
 H450 H 0.24877 -0.09728 0.66681
 C451 C 0.76615 -0.12764 0.40276
 C452 C 0.73926 -0.14354 0.39175
 C453 C 0.74963 -0.13893 0.36093
 C454 C 0.77652 -0.12338 0.37159
 C455 C 0.74972 -0.09928 0.40078
 C456 C 0.76009 -0.09467 0.36996
 C457 C 0.72283 -0.11483 0.39011
 C458 C 0.73320 -0.11057 0.35894
 C459 C 0.74959 -0.16102 0.33874
 C460 C 0.74958 -0.17920 0.32050
 C461 C 0.74979 -0.07720 0.42297
 C462 C 0.74987 -0.05902 0.44122
 H463 H 0.77971 -0.13442 0.42102
 H464 H 0.73070 -0.16388 0.40046
 H465 H 0.79860 -0.12713 0.36373
 H466 H 0.76865 -0.07433 0.36124
 H467 H 0.70075 -0.11108 0.39797
 H468 H 0.71964 -0.10379 0.34068
 C469 C 0.60265 0.77255 -0.12200
 C470 C 0.63527 0.77284 -0.11629
 C471 C 0.63905 0.74926 -0.13884
 C472 C 0.60676 0.74897 -0.14489
 C473 C 0.59923 0.74922 -0.09914
 C474 C 0.60300 0.72565 -0.12168
 C475 C 0.63151 0.74951 -0.09308
 C476 C 0.63563 0.72594 -0.11597
 C477 C 0.66123 0.74928 -0.16094
 C478 C 0.67948 0.74931 -0.17913
 C479 C 0.57705 0.74919 -0.07702
 C480 C 0.55882 0.74917 -0.05883
 H481 H 0.58883 0.79171 -0.12424
 H482 H 0.64879 0.79224 -0.11432
 H483 H 0.59683 0.74875 -0.16644
 H484 H 0.58949 0.70625 -0.12365
 H485 H 0.64145 0.74974 -0.07154
 H486 H 0.64944 0.70678 -0.11374
 C487 C 0.37893 0.27443 -0.10415
 C488 C 0.38448 0.27333 -0.13678
 C489 C 0.36112 0.25041 -0.13959
 C490 C 0.35522 0.25151 -0.10730
 C491 C 0.40101 0.25049 -0.09997
 C492 C 0.37765 0.22757 -0.10277
 C493 C 0.40691 0.24939 -0.13225
 C494 C 0.38321 0.22647 -0.13540
 C495 C 0.33890 0.25035 -0.16165
 C496 C 0.32063 0.25030 -0.17982
 C497 C 0.42322 0.25053 -0.07789
 C498 C 0.44148 0.25055 -0.05972
 H499 H 0.37741 0.29416 -0.09106
 H500 H 0.38703 0.29214 -0.15101
 H501 H 0.33372 0.25239 -0.09729
 H502 H 0.37510 0.20876 -0.08854
 H503 H 0.42841 0.24851 -0.14227
 H504 H 0.38471 0.20674 -0.14850
 C505 C 0.36827 0.74737 0.09321
 C506 C 0.36533 0.72480 0.11727
 C507 C 0.36068 0.74905 0.13892
 C508 C 0.36328 0.77161 0.11520
 C509 C 0.40052 0.74904 0.09924
 C510 C 0.39587 0.77329 0.12089
 C511 C 0.39792 0.72648 0.12296
 C512 C 0.39293 0.75073 0.14495
 C513 C 0.33850 0.74906 0.16102
 C514 C 0.32024 0.74908 0.17921
 C515 C 0.42271 0.74904 0.07714
 C516 C 0.44095 0.74906 0.05895
 H517 H 0.35838 0.74598 0.07169
 H518 H 0.35252 0.70487 0.11604
 H519 H 0.34879 0.79017 0.11225
 H520 H 0.40868 0.79323 0.12213
 H521 H 0.41241 0.70793 0.12591
 H522 H 0.40282 0.75212 0.16648
 C523 C 0.63180 0.25413 0.09266
 C524 C 0.63358 0.27561 0.11780
 C525 C 0.63935 0.25060 0.13827
 C526 C 0.63792 0.22911 0.11348
 C527 C 0.59966 0.25059 0.09845
 C528 C 0.60543 0.22558 0.11893
 C529 C 0.60109 0.27208 0.12324
 C530 C 0.60721 0.24706 0.14407
 C531 C 0.66146 0.25060 0.16045
 C532 C 0.67965 0.25062 0.17869
 C533 C 0.57755 0.25058 0.07628
 C534 C 0.55935 0.25058 0.05804
 H535 H 0.64166 0.25703 0.07128
 H536 H 0.64540 0.29619 0.11758
 H537 H 0.65330 0.21145 0.10972
 H538 H 0.59361 0.20500 0.11915
 H539 H 0.58571 0.28974 0.12701
 H540 H 0.59735 0.24416 0.16545
 C541 C -0.10415 0.62163 0.72704
 C542 C -0.13676 0.61590 0.72824
 C543 C -0.13966 0.63931 0.75107
 C544 C -0.10740 0.64539 0.74988
 C545 C -0.09979 0.59967 0.75106
 C546 C -0.10269 0.62308 0.77390
 C547 C -0.13206 0.59359 0.75226
 C548 C -0.13530 0.61735 0.77509
 C549 C -0.16186 0.66140 0.75106
 C550 C -0.18012 0.67957 0.75104
 C551 C -0.07760 0.57758 0.75105
 C552 C -0.05934 0.55940 0.75102
 H553 H -0.09110 0.62315 0.70728
 H554 H -0.15101 0.61319 0.70946
 H555 H -0.09750 0.66694 0.74890
 H556 H -0.08844 0.62579 0.79268
 H557 H -0.14195 0.57205 0.75323
 H558 H -0.14836 0.61584 0.79485
 C559 C -0.12737 0.40279 0.23262
 C560 C -0.12278 0.37136 0.22326
 C561 C -0.13907 0.36142 0.24999
 C562 C -0.14400 0.39250 0.25935
 C563 C -0.09946 0.40133 0.24987
 C564 C -0.11575 0.39139 0.27660
 C565 C -0.09453 0.37024 0.24051
 C566 C -0.11116 0.35995 0.26725
 C567 C -0.16114 0.33920 0.25004
 C568 C -0.17930 0.32093 0.25004
 C569 C -0.07740 0.42355 0.24979
 C570 C -0.05924 0.44182 0.24971
 H571 H -0.13380 0.42065 0.21837
 H572 H -0.12592 0.36287 0.20133
 H573 H -0.16459 0.40141 0.26709
 H574 H -0.11261 0.39987 0.29854
 H575 H -0.07394 0.36133 0.23277
 H576 H -0.10474 0.34209 0.28149
 C577 C 0.11178 0.38785 0.77770
 C578 C 0.10883 0.35795 0.76377
 C579 C 0.13868 0.36158 0.75056
 C580 C 0.14198 0.39113 0.76449
 C581 C 0.09889 0.40131 0.75066
 C582 C 0.12875 0.40494 0.73745
 C583 C 0.09559 0.37176 0.73673
 C584 C 0.12579 0.37504 0.72352
 C585 C 0.16084 0.33946 0.75050
 C586 C 0.17907 0.32127 0.75046
 C587 C 0.07674 0.42343 0.75070
 C588 C 0.05852 0.44164 0.75074
 H589 H 0.10577 0.39336 0.79998
 H590 H 0.10088 0.33839 0.77459
 H591 H 0.16130 0.39885 0.77591
 H592 H 0.13670 0.42450 0.72663
 H593 H 0.07627 0.36403 0.72531
 H594 H 0.13180 0.36953 0.70124
 C595 C 0.10181 0.62349 0.22643
 C596 C 0.10693 0.64546 0.25067
 C597 C 0.13915 0.63932 0.24895
 C598 C 0.13438 0.61768 0.22471
 C599 C 0.09917 0.59978 0.24900
 C600 C 0.13139 0.59363 0.24728
 C601 C 0.10393 0.62141 0.27324
 C602 C 0.13650 0.61561 0.27152
 C603 C 0.16141 0.66134 0.24894
 C604 C 0.17972 0.67947 0.24896
 C605 C 0.07691 0.57775 0.24906
 C606 C 0.05861 0.55961 0.24913
 H607 H 0.08730 0.62648 0.20790
 H608 H 0.09712 0.66702 0.25207
 H609 H 0.14716 0.61640 0.20475
 H610 H 0.14120 0.57208 0.24588
 H611 H 0.09116 0.62270 0.29320
 H612 H 0.15101 0.61261 0.29005
 C613 C 0.75052 -0.13164 0.59356
 C614 C 0.77354 -0.13505 0.61712
 C615 C 0.74968 -0.13905 0.63933
 C616 C 0.72665 -0.13597 0.61612
 C617 C 0.74975 -0.09935 0.59952
 C618 C 0.72589 -0.10335 0.62172
 C619 C 0.77278 -0.10242 0.62273
 C620 C 0.74892 -0.10676 0.64528
 C621 C 0.74965 -0.16116 0.66150
 C622 C 0.74964 -0.17936 0.67973
 C623 C 0.74982 -0.07724 0.57734
 C624 C 0.74988 -0.05905 0.55910
 H625 H 0.75117 -0.14162 0.57205
 H626 H 0.79314 -0.14833 0.61548
 H627 H 0.70767 -0.15002 0.61364
 H628 H 0.70629 -0.09006 0.62337
 H629 H 0.79176 -0.08838 0.62521
 H630 H 0.74826 -0.09678 0.66680
 C631 C 0.26671 -0.12816 0.40275
 C632 C 0.23985 -0.14408 0.39170
 C633 C 0.25025 -0.13944 0.36090
 C634 C 0.27711 -0.12386 0.37161
 C635 C 0.25025 -0.09982 0.40077
 C636 C 0.26065 -0.09518 0.36996
 C637 C 0.22339 -0.11540 0.39006
 C638 C 0.23379 -0.11110 0.35891
 C639 C 0.25024 -0.16152 0.33870
 C640 C 0.25022 -0.17969 0.32045
 C641 C 0.25023 -0.07774 0.42297
 C642 C 0.25022 -0.05957 0.44122
 H643 H 0.28025 -0.13493 0.42103
 H644 H 0.23130 -0.16444 0.40039
 H645 H 0.29920 -0.12759 0.36377
 H646 H 0.26920 -0.07482 0.36127
 H647 H 0.20130 -0.11167 0.39789
 H648 H 0.22025 -0.10433 0.34063
 C649 C 0.72638 0.12093 0.39646
 C650 C 0.74900 0.14497 0.39366
 C651 C 0.75073 0.13908 0.36141
 C652 C 0.72812 0.11538 0.36386
 C653 C 0.75060 0.09922 0.40106
 C654 C 0.75233 0.09333 0.36880
 C655 C 0.77321 0.12292 0.39861
 C656 C 0.77494 0.11737 0.36600
 C657 C 0.75078 0.16126 0.33931
 C658 C 0.75080 0.17951 0.32113
 C659 C 0.75051 0.07702 0.42314
 C660 C 0.75043 0.05877 0.44131
 H661 H 0.70641 0.12214 0.40922
 H662 H 0.74763 0.16645 0.40364
 H663 H 0.70958 0.11253 0.34932
 H664 H 0.75370 0.07185 0.35882
 H665 H 0.79175 0.12577 0.41314
 H666 H 0.79491 0.11615 0.35324
 C667 C 0.24593 0.13066 0.59347
 C668 C 0.22486 0.13216 0.61899
 C669 C 0.25015 0.13844 0.63899
 C670 C 0.27121 0.13729 0.61381
 C671 C 0.25012 0.09862 0.59932
 C672 C 0.27541 0.10490 0.61931
 C673 C 0.22906 0.09977 0.62449
 C674 C 0.25435 0.10640 0.64483
 C675 C 0.25017 0.16062 0.66108
 C676 C 0.25020 0.17887 0.67926
 C677 C 0.25011 0.07644 0.57722
 C678 C 0.25012 0.05820 0.55903
 H679 H 0.24246 0.14038 0.57211
 H680 H 0.20408 0.14361 0.61910
 H681 H 0.28854 0.15296 0.60967
 H682 H 0.29619 0.09345 0.61920
 H683 H 0.21173 0.08410 0.62863
 H684 H 0.25781 0.09668 0.66619
   
