data_POSCAR
  _audit_creation_date              2014-09-24
  _audit_creation_method            'ToBaCCo'
  _symmetry_space_group_name_H-M    'P1'
  _symmetry_Int_Tables_number       1
  _symmetry_cell_setting            triclinic
  loop_
  _symmetry_equiv_pos_as_xyz
 x,y,z
_cell_length_a 55.9195
_cell_length_b 55.8860
_cell_length_c 17.0316
_cell_angle_alpha 90.003500
_cell_angle_beta 90.002300
_cell_angle_gamma 90.000800
loop_
  _atom_site_label
  _atom_site_type_symbol
  _atom_site_fract_x
  _atom_site_fract_y
  _atom_site_fract_z
O1 O 0.27750 0.22631 0.21002
 O2 O 0.23328 0.27315 0.16497
 O3 O 0.27780 0.27290 0.21005
 O4 O 0.23303 0.22659 0.16491
 O5 O 0.22140 0.22664 0.28851
 O6 O 0.26615 0.27295 0.33376
 O7 O 0.22163 0.27318 0.28868
 O8 O 0.26587 0.22636 0.33375
 Cu9 Cu 0.25658 0.24974 0.17508
 Cu10 Cu 0.24261 0.24980 0.32356
 C11 C 0.27926 0.21830 0.27960
 C12 C 0.21984 0.28115 0.21907
 C13 C 0.27966 0.28085 0.27968
 C14 C 0.21948 0.21865 0.21890
 O15 O 0.77797 0.27275 0.28939
 O16 O 0.73319 0.22643 0.33447
 O17 O 0.77770 0.22620 0.28935
 O18 O 0.73347 0.27302 0.33444
 O19 O 0.72183 0.27308 0.21071
 O20 O 0.76603 0.22623 0.16565
 O21 O 0.72153 0.22650 0.21090
 O22 O 0.76632 0.27279 0.16568
 Cu23 Cu 0.75674 0.24959 0.32431
 Cu24 Cu 0.74276 0.24965 0.17585
 C25 C 0.77983 0.28070 0.21976
 C26 C 0.71963 0.21849 0.28049
 C27 C 0.77947 0.21822 0.21975
 C28 C 0.72007 0.28108 0.28029
 O29 O 0.72241 0.72649 0.78985
 O30 O 0.76666 0.77330 0.83488
 O31 O 0.72217 0.77306 0.78973
 O32 O 0.76692 0.72673 0.83483
 O33 O 0.77857 0.72678 0.71125
 O34 O 0.73381 0.77311 0.66601
 O35 O 0.77830 0.77335 0.71115
 O36 O 0.73406 0.72652 0.66614
 Cu37 Cu 0.74338 0.74989 0.82471
 Cu38 Cu 0.75735 0.74994 0.67624
 C39 C 0.72064 0.71850 0.72026
 C40 C 0.78008 0.78133 0.78075
 C41 C 0.72031 0.78102 0.72011
 C42 C 0.78048 0.71879 0.78087
 O43 O 0.27768 0.77387 0.78956
 O44 O 0.23342 0.72709 0.83460
 O45 O 0.27791 0.72731 0.78958
 O46 O 0.23319 0.77367 0.83462
 O47 O 0.22147 0.77354 0.71111
 O48 O 0.26627 0.72728 0.66585
 O49 O 0.22180 0.72701 0.71087
 O50 O 0.26599 0.77387 0.66589
 Cu51 Cu 0.25671 0.75050 0.82450
 Cu52 Cu 0.24273 0.75044 0.67605
 C53 C 0.27944 0.78188 0.71999
 C54 C 0.22002 0.71903 0.78047
 C55 C 0.27976 0.71935 0.71996
 C56 C 0.21958 0.78156 0.78071
 O57 O 0.97722 -0.01632 -0.08404
 O58 O 1.02388 0.02806 -0.03888
 O59 O 1.02376 -0.01647 -0.08428
 O60 O 0.97732 0.02818 -0.03916
 O61 O 0.97730 0.01652 0.08456
 O62 O 1.02372 -0.02812 0.03945
 O63 O 1.02387 0.01642 0.08484
 O64 O 0.97721 -0.02797 0.03969
 Cu65 Cu 1.00057 0.00704 -0.07402
 Cu66 Cu 1.00054 -0.00695 0.07457
 C67 C 0.96922 -0.02976 -0.02990
 C68 C 1.03184 0.02988 0.03073
 C69 C 1.03165 -0.02999 -0.03019
 C70 C 0.96933 0.02998 0.03043
 O71 O 0.52315 0.47203 0.53941
 O72 O 0.47646 0.51639 0.58467
 O73 O 0.47660 0.47185 0.53960
 O74 O 0.52305 0.51649 0.58478
 O75 O 0.52302 0.52819 0.46112
 O76 O 0.47657 0.48354 0.41591
 O77 O 0.47643 0.52808 0.46099
 O78 O 0.52314 0.48372 0.41573
 Cu79 Cu 0.49981 0.49303 0.57454
 Cu80 Cu 0.49978 0.50706 0.42603
 C81 C 0.53116 0.47027 0.46983
 C82 C 0.46844 0.52985 0.53059
 C83 C 0.46864 0.47003 0.46997
 C84 C 0.53102 0.52996 0.53070
 O85 O -0.02357 0.52842 0.03923
 O86 O 0.02282 0.48372 0.08429
 O87 O 0.02298 0.52822 0.03915
 O88 O -0.02373 0.48385 0.08415
 O89 O -0.02375 0.47222 -0.03960
 O90 O 0.02297 0.51658 -0.08459
 O91 O 0.02278 0.47209 -0.03947
 O92 O -0.02359 0.51678 -0.08450
 Cu93 Cu -0.00038 0.50722 0.07414
 Cu94 Cu -0.00041 0.49326 -0.07446
 C95 C -0.03151 0.53028 -0.03041
 C96 C 0.03076 0.47025 0.03013
 C97 C 0.03099 0.52999 -0.03042
 C98 C -0.03172 0.47041 0.03001
 O99 O 0.47688 1.02822 0.53903
 O100 O 0.52360 0.98391 0.58436
 O101 O 0.52344 1.02842 0.53886
 O102 O 0.47704 0.98377 0.58420
 O103 O 0.47707 0.97205 0.46054
 O104 O 0.52347 1.01672 0.41519
 O105 O 0.52362 0.97221 0.46069
 O106 O 0.47690 1.01651 0.41535
 Cu107 Cu 0.50025 1.00725 0.57404
 Cu108 Cu 0.50029 0.99320 0.42553
 C109 C 0.46886 1.02994 0.46946
 C110 C 0.53159 0.97044 0.53030
 C111 C 0.53139 1.03024 0.46923
 C112 C 0.46908 0.97028 0.53014
 C113 C 1.18286 0.17445 0.10757
 C114 C 1.16788 0.16573 0.16675
 C115 C 1.17004 0.17455 0.24327
 C116 C 1.18710 0.19204 0.26070
 C117 C 1.20234 0.20102 0.20160
 C118 C 1.19996 0.19194 0.12470
 C119 C 1.15028 0.14775 0.14893
 C120 C 1.13552 0.13270 0.13398
 C121 C 1.11822 0.11513 0.11647
 C122 C 1.10339 0.10015 0.10151
 C123 C 1.08561 0.08235 0.08363
 C124 C 1.07694 0.06733 0.14287
 C125 C 1.05949 0.05018 0.12571
 C126 C 1.05049 0.04786 0.04892
 C127 C 1.05940 0.06300 -0.01028
 C128 C 1.07684 0.08012 0.00704
 H129 H 1.18132 0.16774 0.04809
 H130 H 1.15850 0.16791 0.28951
 H131 H 1.18829 0.19850 0.32054
 H132 H 1.21127 0.19832 0.07751
 H133 H 1.08361 0.06891 0.20237
 H134 H 1.05303 0.03881 0.17260
 H135 H 1.05285 0.06168 -0.06997
 H136 H 1.08344 0.09167 -0.03926
 C137 C 0.68352 0.67315 0.60802
 C138 C 0.66852 0.66438 0.66715
 C139 C 0.67064 0.67320 0.74374
 C140 C 0.68764 0.69076 0.76116
 C141 C 0.70277 0.69975 0.70205
 C142 C 0.70054 0.69071 0.62527
 C143 C 0.65084 0.64649 0.64915
 C144 C 0.63596 0.63157 0.63406
 C145 C 0.61845 0.61419 0.61641
 C146 C 0.60342 0.59942 0.60135
 C147 C 0.58539 0.58187 0.58344
 C148 C 0.57669 0.56681 0.64253
 C149 C 0.55900 0.54990 0.62545
 C150 C 0.54978 0.54784 0.54885
 C151 C 0.55869 0.56303 0.48979
 C152 C 0.57638 0.57992 0.50704
 H153 H 0.68202 0.66645 0.54852
 H154 H 0.65910 0.66655 0.78996
 H155 H 0.68889 0.69733 0.82084
 H156 H 0.71190 0.69723 0.57845
 H157 H 0.58354 0.56816 0.70186
 H158 H 0.55256 0.53847 0.67222
 H159 H 0.55199 0.56190 0.43025
 H160 H 0.58299 0.59149 0.46085
 C161 C -0.18290 0.32593 0.10754
 C162 C -0.16776 0.33453 0.16655
 C163 C -0.16973 0.32554 0.24296
 C164 C -0.18679 0.30803 0.26039
 C165 C -0.20211 0.29927 0.20147
 C166 C -0.19997 0.30842 0.12480
 C167 C -0.15017 0.35254 0.14869
 C168 C -0.13543 0.36760 0.13374
 C169 C -0.11812 0.38519 0.11620
 C170 C -0.10329 0.40016 0.10115
 C171 C -0.08551 0.41796 0.08314
 C172 C -0.07681 0.43299 0.14231
 C173 C -0.05936 0.45012 0.12505
 C174 C -0.05037 0.45243 0.04822
 C175 C -0.05931 0.43728 -0.01091
 C176 C -0.07676 0.42017 0.00651
 H177 H -0.18151 0.33275 0.04816
 H178 H -0.15808 0.33206 0.28906
 H179 H -0.18795 0.30136 0.31995
 H180 H -0.21147 0.30206 0.07812
 H181 H -0.08346 0.43144 0.20183
 H182 H -0.05287 0.46151 0.17189
 H183 H -0.05278 0.43859 -0.07062
 H184 H -0.08337 0.40861 -0.03974
 C185 C 0.32955 0.82704 0.74353
 C186 C 0.33172 0.83582 0.66692
 C187 C 0.31670 0.82710 0.60776
 C188 C 0.29962 0.80961 0.62500
 C189 C 0.29735 0.80059 0.70180
 C190 C 0.31248 0.80955 0.76094
 C191 C 0.34945 0.85367 0.64896
 C192 C 0.36435 0.86856 0.63395
 C193 C 0.38187 0.88593 0.61633
 C194 C 0.39688 0.90070 0.60125
 C195 C 0.41489 0.91826 0.58326
 C196 C 0.42382 0.92024 0.50679
 C197 C 0.44145 0.93717 0.48939
 C198 C 0.45037 0.95237 0.54840
 C199 C 0.44123 0.95027 0.62508
 C200 C 0.42360 0.93333 0.64231
 H201 H 0.34109 0.83367 0.78977
 H202 H 0.31824 0.83378 0.54826
 H203 H 0.28825 0.80311 0.57817
 H204 H 0.31119 0.80300 0.82064
 H205 H 0.41718 0.90866 0.46062
 H206 H 0.44809 0.93832 0.42979
 H207 H 0.44770 0.96171 0.67182
 H208 H 0.41681 0.93195 0.70170
 C209 C -0.16997 0.67475 -0.24320
 C210 C -0.16784 0.66592 -0.16668
 C211 C -0.18289 0.67460 -0.10762
 C212 C -0.20001 0.69207 -0.12485
 C213 C -0.20236 0.70116 -0.20175
 C214 C -0.18707 0.69221 -0.26074
 C215 C -0.15018 0.64800 -0.14877
 C216 C -0.13535 0.63301 -0.13388
 C217 C -0.11794 0.61550 -0.11651
 C218 C -0.10305 0.60058 -0.10162
 C219 C -0.08520 0.58284 -0.08370
 C220 C -0.07640 0.58068 -0.00711
 C221 C -0.05896 0.56355 0.01035
 C222 C -0.05008 0.54834 -0.04871
 C223 C -0.05908 0.55063 -0.12554
 C224 C -0.07652 0.56777 -0.14283
 H225 H -0.15839 0.66815 -0.28937
 H226 H -0.18138 0.66789 -0.04814
 H227 H -0.21137 0.69841 -0.07773
 H228 H -0.18823 0.69867 -0.32057
 H229 H -0.08299 0.59225 0.03910
 H230 H -0.05242 0.56226 0.07004
 H231 H -0.05263 0.53922 -0.17234
 H232 H -0.08321 0.56930 -0.20233
 C233 C 0.31624 1.17283 0.39173
 C234 C 0.33124 1.16406 0.33259
 C235 C 0.32916 1.17290 0.25604
 C236 C 0.31220 1.19050 0.23862
 C237 C 0.29709 1.19950 0.29774
 C238 C 0.29926 1.19042 0.37448
 C239 C 0.34889 1.14614 0.35057
 C240 C 0.36376 1.13123 0.36566
 C241 C 0.38127 1.11387 0.38341
 C242 C 0.39630 1.09914 0.39857
 C243 C 0.41436 1.08163 0.41656
 C244 C 0.42318 1.06666 0.35743
 C245 C 0.44089 1.04980 0.37461
 C246 C 0.45002 1.04771 0.45130
 C247 C 0.44098 1.06281 0.51041
 C248 C 0.42326 1.07965 0.49307
 H249 H 0.31771 1.16611 0.45122
 H250 H 0.34071 1.16624 0.20988
 H251 H 0.31098 1.19708 0.17896
 H252 H 0.28789 1.19695 0.42125
 H253 H 0.41641 1.06804 0.29800
 H254 H 0.44745 1.03844 0.32782
 H255 H 0.44760 1.06164 0.57004
 H256 H 0.41656 1.09117 0.53928
 C257 C 1.16966 -0.17483 -0.24302
 C258 C 1.16770 -0.16583 -0.16668
 C259 C 1.18299 -0.17423 -0.10787
 C260 C 1.20018 -0.19161 -0.12514
 C261 C 1.20238 -0.20088 -0.20187
 C262 C 1.18685 -0.19219 -0.26063
 C263 C 1.14998 -0.14797 -0.14868
 C264 C 1.13513 -0.13303 -0.13362
 C265 C 1.11774 -0.11553 -0.11606
 C266 C 1.10287 -0.10060 -0.10108
 C267 C 1.08510 -0.08279 -0.08321
 C268 C 1.07628 -0.08058 -0.00667
 C269 C 1.05893 -0.06337 0.01068
 C270 C 1.05015 -0.04811 -0.04843
 C271 C 1.05917 -0.05046 -0.12521
 C272 C 1.07652 -0.06769 -0.14239
 H273 H 1.15788 -0.16845 -0.28899
 H274 H 1.18162 -0.16736 -0.04855
 H275 H 1.21173 -0.19774 -0.07821
 H276 H 1.18788 -0.19880 -0.32031
 H277 H 1.08279 -0.09219 0.03958
 H278 H 1.05236 -0.06205 0.07033
 H279 H 1.05279 -0.03901 -0.17204
 H280 H 1.08323 -0.06925 -0.20185
 C281 C 0.67025 0.32656 0.25659
 C282 C 0.66816 0.33541 0.33315
 C283 C 0.68311 0.32659 0.39235
 C284 C 0.70005 0.30896 0.37516
 C285 C 0.70226 0.29989 0.29841
 C286 C 0.68718 0.30893 0.23924
 C287 C 0.65056 0.35339 0.35111
 C288 C 0.63576 0.36838 0.36626
 C289 C 0.61835 0.38584 0.38402
 C290 C 0.60340 0.40068 0.39915
 C291 C 0.58545 0.41831 0.41708
 C292 C 0.57658 0.42039 0.49360
 C293 C 0.55894 0.43733 0.51087
 C294 C 0.54994 0.45242 0.45168
 C295 C 0.55904 0.45024 0.37497
 C296 C 0.57667 0.43328 0.35787
 H297 H 0.65875 0.33325 0.21035
 H298 H 0.68163 0.33330 0.45184
 H299 H 0.71139 0.30240 0.42198
 H300 H 0.68843 0.30236 0.17956
 H301 H 0.58325 0.40888 0.53985
 H302 H 0.55234 0.43856 0.57050
 H303 H 0.55251 0.46159 0.32812
 H304 H 0.58341 0.43181 0.29841
 C305 C 0.81721 -0.17333 -0.10703
 C306 C 0.83218 -0.16456 -0.16621
 C307 C 0.83007 -0.17337 -0.24279
 C308 C 0.81307 -0.19094 -0.26019
 C309 C 0.79796 -0.19993 -0.20106
 C310 C 0.80020 -0.19090 -0.12426
 C311 C 0.84983 -0.14662 -0.14830
 C312 C 0.86467 -0.13167 -0.13331
 C313 C 0.88212 -0.11424 -0.11571
 C314 C 0.89709 -0.09942 -0.10066
 C315 C 0.91504 -0.08181 -0.08275
 C316 C 0.92382 -0.06684 -0.14197
 C317 C 0.94143 -0.04986 -0.12483
 C318 C 0.95048 -0.04764 -0.04807
 C319 C 0.94148 -0.06274 0.01111
 C320 C 0.92388 -0.07970 -0.00620
 H321 H 0.81872 -0.16664 -0.04753
 H322 H 0.84159 -0.16671 -0.28901
 H323 H 0.81181 -0.19750 -0.31987
 H324 H 0.78885 -0.19743 -0.07743
 H325 H 0.91711 -0.06833 -0.20144
 H326 H 0.94796 -0.03852 -0.17170
 H327 H 0.94806 -0.06148 0.07076
 H328 H 0.91721 -0.09121 0.04007
 C329 C 0.31708 0.32594 0.39199
 C330 C 0.33221 0.33454 0.33295
 C331 C 0.33014 0.32564 0.25646
 C332 C 0.31302 0.30819 0.23899
 C333 C 0.29773 0.29941 0.29797
 C334 C 0.29995 0.30849 0.37470
 C335 C 0.34988 0.35245 0.35088
 C336 C 0.36472 0.36743 0.36585
 C337 C 0.38212 0.38492 0.38342
 C338 C 0.39703 0.39982 0.39848
 C339 C 0.41488 0.41755 0.41652
 C340 C 0.42355 0.43265 0.35748
 C341 C 0.44101 0.44976 0.37485
 C342 C 0.45004 0.45200 0.45164
 C343 C 0.44116 0.43676 0.51063
 C344 C 0.42370 0.41966 0.49310
 H345 H 0.31853 0.33271 0.45142
 H346 H 0.34178 0.33216 0.21033
 H347 H 0.31179 0.30158 0.17936
 H348 H 0.28847 0.30212 0.42141
 H349 H 0.41684 0.43116 0.29799
 H350 H 0.44745 0.46120 0.32812
 H351 H 0.44772 0.43801 0.57031
 H352 H 0.41711 0.40806 0.53925
 C353 C 0.18301 0.67359 -0.10740
 C354 C 0.16803 0.66481 -0.16655
 C355 C 0.17011 0.67365 -0.24311
 C356 C 0.18706 0.69126 -0.26049
 C357 C 0.20217 0.70026 -0.20136
 C358 C 0.19998 0.69120 -0.12460
 C359 C 0.15042 0.64685 -0.14858
 C360 C 0.13561 0.63188 -0.13349
 C361 C 0.11818 0.61443 -0.11582
 C362 C 0.10322 0.59960 -0.10078
 C363 C 0.08527 0.58197 -0.08294
 C364 C 0.07653 0.56699 -0.14219
 C365 C 0.05889 0.55003 -0.12517
 C366 C 0.04976 0.54785 -0.04849
 C367 C 0.05873 0.56295 0.01072
 C368 C 0.07637 0.57990 -0.00646
 H369 H 0.18155 0.66687 -0.04793
 H370 H 0.15860 0.66697 -0.28934
 H371 H 0.18829 0.69785 -0.32014
 H372 H 0.21133 0.69774 -0.07777
 H373 H 0.08330 0.56846 -0.20158
 H374 H 0.05239 0.53868 -0.17208
 H375 H 0.05210 0.56172 0.07032
 H376 H 0.08301 0.59141 0.03985
 C377 C 0.68301 1.17427 0.39183
 C378 C 0.66794 1.16563 0.33276
 C379 C 0.67006 1.17449 0.25628
 C380 C 0.68716 1.19194 0.23880
 C381 C 0.70247 1.20086 0.29782
 C382 C 0.70014 1.19173 0.37467
 C383 C 0.65026 1.14772 0.35065
 C384 C 0.63542 1.13275 0.36562
 C385 C 0.61800 1.11527 0.38313
 C386 C 0.60308 1.10038 0.39813
 C387 C 0.58521 1.08267 0.41608
 C388 C 0.57653 1.06761 0.35695
 C389 C 0.55903 1.05052 0.37418
 C390 C 0.54999 1.04827 0.45095
 C391 C 0.55888 1.06347 0.51003
 C392 C 0.57637 1.08055 0.49263
 H393 H 0.68152 1.16752 0.45126
 H394 H 0.65846 1.16792 0.21010
 H395 H 0.68831 1.19844 0.17899
 H396 H 0.71152 1.19804 0.42179
 H397 H 0.58325 1.06910 0.29749
 H398 H 0.55258 1.03910 0.32739
 H399 H 0.55230 1.06221 0.56968
 H400 H 0.58297 1.09212 0.53884
 C401 C 0.18251 0.32632 0.10677
 C402 C 0.16752 0.33507 0.16597
 C403 C 0.16969 0.32629 0.24257
 C404 C 0.18676 0.30879 0.25997
 C405 C 0.20189 0.29983 0.20084
 C406 C 0.19959 0.30882 0.12401
 C407 C 0.14985 0.35298 0.14806
 C408 C 0.13501 0.36793 0.13304
 C409 C 0.11757 0.38539 0.11545
 C410 C 0.10263 0.40024 0.10048
 C411 C 0.08471 0.41792 0.08272
 C412 C 0.07608 0.43298 0.14193
 C413 C 0.05854 0.45004 0.12489
 C414 C 0.04940 0.45225 0.04824
 C415 C 0.05824 0.43705 -0.01092
 C416 C 0.07577 0.42000 0.00629
 H417 H 0.18096 0.33298 0.04725
 H418 H 0.15817 0.33293 0.28882
 H419 H 0.18805 0.30224 0.31966
 H420 H 0.21095 0.30230 0.07715
 H421 H 0.08287 0.43151 0.20131
 H422 H 0.05213 0.46146 0.17175
 H423 H 0.05158 0.43829 -0.07049
 H424 H 0.08232 0.40843 -0.03998
 C425 C 0.68298 0.82625 0.60805
 C426 C 0.66785 0.83483 0.66712
 C427 C 0.66987 0.82585 0.74353
 C428 C 0.68695 0.80836 0.76089
 C429 C 0.70225 0.79960 0.70189
 C430 C 0.70008 0.80876 0.62524
 C431 C 0.65023 0.85280 0.64929
 C432 C 0.63547 0.86784 0.63427
 C433 C 0.61814 0.88540 0.61659
 C434 C 0.60330 0.90034 0.60146
 C435 C 0.58549 0.91811 0.58341
 C436 C 0.57678 0.93315 0.64255
 C437 C 0.55929 0.95024 0.62531
 C438 C 0.55027 0.95250 0.54853
 C439 C 0.55921 0.93734 0.48940
 C440 C 0.57670 0.92027 0.50680
 H441 H 0.68155 0.83306 0.54868
 H442 H 0.65823 0.83236 0.78968
 H443 H 0.68815 0.80169 0.82046
 H444 H 0.71157 0.80241 0.57852
 H445 H 0.58346 0.93162 0.70206
 H446 H 0.55280 0.96162 0.67215
 H447 H 0.55265 0.93862 0.42973
 H448 H 0.58332 0.90871 0.46056
 C449 C 0.81674 0.17301 0.10745
 C450 C 0.83179 0.16432 0.16658
 C451 C 0.82965 0.17313 0.24315
 C452 C 0.81257 0.19061 0.26059
 C453 C 0.79740 0.19953 0.20150
 C454 C 0.79965 0.19050 0.12471
 C455 C 0.84953 0.14649 0.14861
 C456 C 0.86446 0.13162 0.13363
 C457 C 0.88201 0.11428 0.11613
 C458 C 0.89705 0.09953 0.10115
 C459 C 0.91509 0.08198 0.08327
 C460 C 0.92379 0.06692 0.14237
 C461 C 0.94143 0.04998 0.12524
 C462 C 0.95060 0.04788 0.04860
 C463 C 0.94170 0.06307 -0.01046
 C464 C 0.92406 0.08000 0.00684
 H465 H 0.81826 0.16632 0.04796
 H466 H 0.84121 0.16653 0.28936
 H467 H 0.81131 0.19719 0.32025
 H468 H 0.78827 0.19698 0.07788
 H469 H 0.91695 0.06830 0.20172
 H470 H 0.94788 0.03856 0.17204
 H471 H 0.94837 0.06192 -0.07002
 H472 H 0.91744 0.09157 -0.03937
 C473 C 0.31691 0.67396 0.60800
 C474 C 0.33198 0.66532 0.66712
 C475 C 0.33000 0.67432 0.74350
 C476 C 0.31300 0.69190 0.76081
 C477 C 0.29775 0.70071 0.70177
 C478 C 0.29990 0.69154 0.62514
 C479 C 0.34954 0.64727 0.64938
 C480 C 0.36428 0.63220 0.63449
 C481 C 0.38161 0.61463 0.61697
 C482 C 0.39648 0.59970 0.60192
 C483 C 0.41434 0.58198 0.58386
 C484 C 0.42312 0.56698 0.64298
 C485 C 0.44068 0.54996 0.62566
 C486 C 0.44969 0.54773 0.54884
 C487 C 0.44067 0.56284 0.48976
 C488 C 0.42311 0.57985 0.50724
 H489 H 0.31831 0.66713 0.54863
 H490 H 0.34161 0.66777 0.78967
 H491 H 0.31183 0.69858 0.82037
 H492 H 0.28844 0.69794 0.57839
 H493 H 0.41645 0.56848 0.70251
 H494 H 0.44722 0.53860 0.67247
 H495 H 0.44721 0.56159 0.43005
 H496 H 0.41643 0.59138 0.46102
   
