data_POSCAR
  _audit_creation_date              2014-09-24
  _audit_creation_method            'ToBaCCo'
  _symmetry_space_group_name_H-M    'P1'
  _symmetry_Int_Tables_number       1
  _symmetry_cell_setting            triclinic
  loop_
  _symmetry_equiv_pos_as_xyz
 x,y,z
_cell_length_a 29.4070
_cell_length_b 29.0338
_cell_length_c 29.4255
_cell_angle_alpha 89.994300
_cell_angle_beta 89.998200
_cell_angle_gamma 90.006500
loop_
  _atom_site_label
  _atom_site_type_symbol
  _atom_site_fract_x
  _atom_site_fract_y
  _atom_site_fract_z
N1 N 0.62434 0.62443 0.62469
 N2 N 0.87589 0.37596 0.12469
 N3 N 0.37595 0.12434 -0.12440
 N4 N 0.12436 0.87595 0.37557
 N5 N 0.07160 0.19840 0.10486
 N6 N 0.05452 0.18054 0.14222
 C7 C 0.01837 0.20577 0.15532
 C8 C 0.01214 0.24064 0.12401
 C9 C 0.04632 0.23492 0.09235
 H10 H -0.00241 0.19896 0.18489
 H11 H 0.05271 0.25622 0.06288
 Cu12 Cu 0.08009 0.12499 0.16894
 Cu13 Cu 0.12637 0.17422 0.07637
 Cu14 Cu 0.17484 0.07740 0.12548
 N15 N 0.10768 0.07063 0.19606
 N16 N 0.14579 0.05339 0.18002
 C17 C 0.15854 0.01748 0.20601
 C18 C 0.12627 0.01151 0.23958
 C19 C 0.09437 0.04562 0.23226
 H20 H 0.18852 -0.00333 0.20044
 H21 H 0.06418 0.05199 0.25228
 N22 N 0.19919 0.10673 0.07021
 N23 N 0.18180 0.14467 0.05258
 C24 C 0.20707 0.15739 0.01650
 C25 C 0.24133 0.12545 0.01077
 C26 C 0.23531 0.09371 0.04515
 H27 H 0.20066 0.18715 -0.00463
 H28 H 0.25620 0.06379 0.05170
 H29 H 0.11747 0.10681 0.09714
 H30 H 0.15294 0.14447 0.13443
 N31 N 0.42802 0.80139 0.60562
 N32 N 0.44415 0.81827 0.64383
 C33 C 0.48037 0.79309 0.65684
 C34 C 0.48759 0.75926 0.62466
 C35 C 0.45394 0.76555 0.59253
 H36 H 0.50051 0.79923 0.68699
 H37 H 0.44833 0.74506 0.56236
 Cu38 Cu 0.41733 0.87255 0.67183
 Cu39 Cu 0.37354 0.82585 0.57681
 Cu40 Cu 0.32497 0.92262 0.62586
 N41 N 0.39094 0.92815 0.69763
 N42 N 0.35367 0.94635 0.68068
 C43 C 0.34150 0.98293 0.70603
 C44 C 0.37330 0.98833 0.74012
 C45 C 0.40433 0.95322 0.73377
 H46 H 0.31222 1.00453 0.69969
 H47 H 0.43396 0.94619 0.75440
 N48 N 0.30094 0.89352 0.57034
 N49 N 0.31837 0.85560 0.55271
 C50 C 0.29324 0.84297 0.51651
 C51 C 0.25903 0.87496 0.51069
 C52 C 0.26493 0.90662 0.54515
 H53 H 0.29965 0.81319 0.49540
 H54 H 0.24399 0.93650 0.55171
 H55 H 0.38293 0.89272 0.59915
 H56 H 0.34537 0.85504 0.63435
 N57 N 0.92820 0.69878 0.39478
 N58 N 0.94443 0.68179 0.35666
 C59 C 0.98069 0.70693 0.34367
 C60 C 0.98783 0.74085 0.37578
 C61 C 0.95410 0.73466 0.40784
 H62 H 1.00089 0.70072 0.31359
 H63 H 0.94841 0.75525 0.43793
 Cu64 Cu 0.91760 0.62748 0.32872
 Cu65 Cu 0.87362 0.67444 0.42352
 Cu66 Cu 0.82504 0.57763 0.37451
 N67 N 0.89119 0.57189 0.30291
 N68 N 0.85384 0.55378 0.31979
 C69 C 0.84163 0.51722 0.29442
 C70 C 0.87350 0.51173 0.26040
 C71 C 0.90460 0.54677 0.26681
 H72 H 0.81227 0.49570 0.30069
 H73 H 0.93428 0.55374 0.24622
 N74 N 0.80093 0.60684 0.42993
 N75 N 0.81835 0.64478 0.44753
 C76 C 0.79317 0.65746 0.48368
 C77 C 0.75894 0.62550 0.48949
 C78 C 0.76487 0.59379 0.45508
 H79 H 0.79959 0.68726 0.50477
 H80 H 0.74394 0.56389 0.44855
 H81 H 0.88296 0.60751 0.40134
 H82 H 0.84557 0.64516 0.36596
 N83 N 0.57228 0.30134 -0.10540
 N84 N 0.55613 0.31824 -0.14359
 C85 C 0.51991 0.29305 -0.15660
 C86 C 0.51271 0.25919 -0.12443
 C87 C 0.54636 0.26548 -0.09231
 H88 H 0.49976 0.29920 -0.18673
 H89 H 0.55198 0.24499 -0.06214
 Cu90 Cu 0.58294 0.37255 -0.17158
 Cu91 Cu 0.62675 0.32581 -0.07658
 Cu92 Cu 0.67526 0.42266 -0.12557
 N93 N 0.60930 0.42818 -0.19735
 N94 N 0.64656 0.44640 -0.18038
 C95 C 0.65872 0.48300 -0.20572
 C96 C 0.62693 0.48840 -0.23982
 C97 C 0.59591 0.45326 -0.23349
 H98 H 0.68799 0.50462 -0.19938
 H99 H 0.56630 0.44622 -0.25413
 N100 N 0.69930 0.39354 -0.07006
 N101 N 0.68191 0.35558 -0.05247
 C102 C 0.70705 0.34294 -0.01628
 C103 C 0.74123 0.37496 -0.01043
 C104 C 0.73530 0.40666 -0.04486
 H105 H 0.70066 0.31313 0.00480
 H106 H 0.75622 0.43657 -0.05139
 H107 H 0.61732 0.39269 -0.09888
 H108 H 0.65490 0.35507 -0.13410
 N109 N -0.06911 0.32852 0.08502
 C110 C -0.08921 0.34148 0.12455
 N111 N -0.07581 0.32118 0.16391
 N112 N -0.04371 0.28881 0.16369
 C113 C -0.02339 0.27610 0.12422
 N114 N -0.03652 0.29664 0.08492
 N115 N 0.57543 0.67841 0.66422
 C116 C 0.58942 0.65889 0.62468
 N117 N 0.56979 0.67253 0.58513
 N118 N 0.53709 0.70429 0.58517
 C119 C 0.52335 0.72404 0.62466
 N120 N 0.54321 0.71067 0.66416
 N121 N 1.06981 0.82787 0.41518
 C122 C 1.08952 0.84138 0.37563
 N123 N 1.07569 0.82166 0.33614
 N124 N 1.04352 0.78935 0.33624
 C125 C 1.02357 0.77611 0.37574
 N126 N 1.03717 0.79605 0.41518
 N127 N 0.43052 0.17245 -0.08487
 C128 C 0.41088 0.15882 -0.12441
 N129 N 0.42485 0.17834 -0.16395
 N130 N 0.45707 0.21060 -0.16391
 C131 C 0.47694 0.22397 -0.12442
 N132 N 0.46322 0.20421 -0.08492
 N133 N 0.08557 -0.06926 0.32694
 C134 C 0.12487 -0.08930 0.34093
 N135 N 0.16465 -0.07600 0.32151
 N136 N 0.16505 -0.04406 0.28899
 C137 C 0.12580 -0.02381 0.27524
 N138 N 0.08607 -0.03683 0.29491
 N139 N 0.66474 0.57704 -0.32080
 C140 C 0.62499 0.58967 -0.34069
 N141 N 0.58587 0.56886 -0.32728
 N142 N 0.58654 0.53632 -0.29536
 C143 C 0.62624 0.52395 -0.27524
 N144 N 0.66530 0.54499 -0.28839
 N145 N 0.33552 1.07695 0.82112
 C146 C 0.37528 1.08959 0.84098
 N147 N 0.41440 1.06880 0.82756
 N148 N 0.41371 1.03626 0.79564
 C149 C 0.37401 1.02388 0.77554
 N150 N 0.33495 1.04491 0.78871
 N151 N 0.83555 0.42339 0.17920
 C152 C 0.87530 0.41062 0.15939
 N153 N 0.91447 0.43122 0.17295
 N154 N 0.91385 0.46371 0.20492
 C155 C 0.87415 0.47621 0.22496
 N156 N 0.83504 0.45537 0.21166
 N157 N 0.32179 0.16477 -0.07678
 C158 C 0.34160 0.12464 -0.08983
 N159 N 0.32831 0.08479 -0.06964
 N160 N 0.29660 0.08511 -0.03730
 C161 C 0.27656 0.12518 -0.02452
 N162 N 0.28959 0.16497 -0.04494
 N163 N 0.67197 0.58486 0.56995
 C164 C 0.65870 0.62472 0.59012
 N165 N 0.67851 0.66484 0.57706
 N166 N 0.71072 0.66504 0.54521
 C167 C 0.72373 0.62523 0.52481
 N168 N 0.70368 0.58517 0.53761
 N169 N 0.82173 0.33559 0.07705
 C170 C 0.84149 0.37571 0.09017
 N171 N 0.82815 0.41559 0.07008
 N172 N 0.79643 0.41529 0.03775
 C173 C 0.77643 0.37523 0.02489
 N174 N 0.78951 0.33540 0.04522
 N175 N 0.17866 0.83560 0.42308
 C176 C 0.15877 0.87570 0.41009
 N177 N 0.17198 0.91556 0.43030
 N178 N 0.20370 0.91526 0.46263
 C179 C 0.22383 0.87522 0.47537
 N180 N 0.21088 0.83542 0.45492
   
