data_POSCAR
  _audit_creation_date              2014-09-24
  _audit_creation_method            'ToBaCCo'
  _symmetry_space_group_name_H-M    'P1'
  _symmetry_Int_Tables_number       1
  _symmetry_cell_setting            triclinic
  loop_
  _symmetry_equiv_pos_as_xyz
 x,y,z
_cell_length_a 33.2954
_cell_length_b 30.8890
_cell_length_c 29.4054
_cell_angle_alpha 90.029600
_cell_angle_beta 90.012800
_cell_angle_gamma 90.068000
loop_
  _atom_site_label
  _atom_site_type_symbol
  _atom_site_fract_x
  _atom_site_fract_y
  _atom_site_fract_z
O1 O 0.39452 0.37532 -0.04927
 O2 O 0.34475 0.43169 0.04126
 O3 O 0.40512 0.37624 0.03657
 O4 O 0.32639 0.41351 -0.04382
 O5 O 0.29445 0.35191 -0.03149
 O6 O 0.36803 0.31934 0.05411
 O7 O 0.30461 0.37636 0.05510
 O8 O 0.36375 0.31413 -0.03152
 Cu9 Cu 0.37054 0.40504 -0.00442
 Cu10 Cu 0.32836 0.33566 0.01430
 C11 C 0.38999 0.33515 -0.05442
 C12 C 0.31527 0.41555 0.06199
 C13 C 0.40073 0.34015 0.05704
 C14 C 0.29760 0.38754 -0.05236
 O15 O 0.60869 0.62553 -0.04871
 O16 O 0.65733 0.56704 0.04148
 O17 O 0.59652 0.62173 0.03689
 O18 O 0.67660 0.58664 -0.04267
 O19 O 0.70829 0.64805 -0.02841
 O20 O 0.63282 0.67871 0.05635
 O21 O 0.69679 0.62238 0.05762
 O22 O 0.63928 0.68627 -0.02896
 Cu23 Cu 0.63189 0.59436 -0.00418
 Cu24 Cu 0.67356 0.66353 0.01713
 C25 C 0.61342 0.66580 -0.05293
 C26 C 0.68629 0.58300 0.06334
 C27 C 0.60033 0.65736 0.05840
 C28 C 0.70556 0.61269 -0.04998
 O29 O 0.60767 0.37279 1.05112
 O30 O 0.65802 0.43151 0.96237
 O31 O 0.59728 0.37661 0.96521
 O32 O 0.67571 0.41173 1.04689
 O33 O 0.70765 0.35044 1.03322
 O34 O 0.63389 0.31972 0.94652
 O35 O 0.69762 0.37622 0.94687
 O36 O 0.63847 0.31212 1.03180
 Cu37 Cu 0.63176 0.40403 1.00728
 Cu38 Cu 0.67378 0.33497 0.98679
 C39 C 0.61218 0.33249 1.05516
 C40 C 0.68722 0.41558 0.94100
 C41 C 0.60147 0.34103 0.94374
 C42 C 0.70450 0.38572 1.05484
 O43 O 0.34445 0.56879 0.95540
 O44 O 0.39316 0.62449 1.04740
 O45 O 0.32496 0.58652 1.04024
 O46 O 0.40549 0.62342 0.96190
 O47 O 0.36928 0.68075 0.94386
 O48 O 0.29383 0.64850 1.02777
 O49 O 0.36318 0.68597 1.02939
 O50 O 0.30479 0.62432 0.94120
 Cu51 Cu 0.36980 0.59493 1.00187
 Cu52 Cu 0.32853 0.66469 0.98260
 C53 C 0.31526 0.58509 0.93432
 C54 C 0.38883 0.66465 1.05278
 C55 C 0.29630 0.61268 1.04841
 C56 C 0.40184 0.65965 0.94155
 O57 O 0.03788 0.33727 0.43203
 O58 O -0.03533 0.39810 0.37057
 O59 O -0.03828 0.32534 0.41197
 O60 O 0.04101 0.40054 0.37199
 O61 O 0.05435 0.35798 0.31361
 O62 O -0.02649 0.28547 0.35107
 O63 O -0.02424 0.36041 0.30785
 O64 O 0.04890 0.29335 0.37406
 Cu65 Cu 0.00103 0.36861 0.40263
 Cu66 Cu 0.01435 0.32016 0.33074
 C67 C 0.05483 0.30458 0.41535
 C68 C -0.04178 0.39124 0.32906
 C69 C -0.04652 0.29299 0.38676
 C70 C 0.05958 0.39317 0.33487
 O71 O 0.03431 0.66348 0.57073
 O72 O -0.04123 0.60516 0.63101
 O73 O -0.04067 0.67976 0.59239
 O74 O 0.03536 0.59971 0.63024
 O75 O 0.05134 0.64102 0.68881
 O76 O -0.02734 0.71732 0.65449
 O77 O -0.02705 0.63999 0.69476
 O78 O 0.04751 0.70603 0.62925
 Cu79 Cu -0.00362 0.63390 0.60020
 Cu80 Cu 0.01228 0.68008 0.67272
 C81 C 0.05285 0.69499 0.58779
 C82 C -0.04616 0.61053 0.67299
 C83 C -0.04743 0.71195 0.61841
 C84 C 0.05496 0.60592 0.66699
 O85 O 1.04202 0.60865 0.36792
 O86 O 0.96690 0.66697 0.42820
 O87 O 0.96516 0.60429 0.36808
 O88 O 1.04176 0.68314 0.40687
 O89 O 1.02930 0.72108 0.34484
 O90 O 0.94997 0.64587 0.30952
 O91 O 0.95433 0.71017 0.37008
 O92 O 1.02862 0.64383 0.30423
 Cu93 Cu 1.00454 0.63754 0.39852
 Cu94 Cu 0.98946 0.68424 0.32630
 C95 C 1.04737 0.61418 0.32605
 C96 C 0.94871 0.69875 0.41139
 C97 C 0.94569 0.61089 0.33135
 C98 C 1.04899 0.71539 0.38112
 O99 O 0.96270 0.32846 0.57605
 O100 O 1.03994 0.38624 0.63362
 O101 O 1.03783 0.31151 0.59560
 O102 O 0.96336 0.39267 0.63444
 O103 O 0.94755 0.35197 0.69348
 O104 O 1.02541 0.27473 0.65837
 O105 O 1.02609 0.35279 0.69819
 O106 O 0.94971 0.28602 0.63464
 Cu107 Cu 1.00146 0.35777 0.60407
 Cu108 Cu 0.98617 0.31237 0.67712
 C109 C 0.94382 0.29734 0.59334
 C110 C 1.04523 0.38171 0.67563
 C111 C 1.04485 0.27954 0.62175
 C112 C 0.94400 0.38692 0.67140
 O113 O 0.41393 0.04783 0.34263
 O114 O 0.35833 -0.02966 0.40942
 O115 O 0.41215 -0.03463 0.34762
 O116 O 0.35714 0.05263 0.40136
 O117 O 0.30870 0.04812 0.35025
 O118 O 0.36772 -0.03934 0.29203
 O119 O 0.31146 -0.03544 0.35648
 O120 O 0.36888 0.04516 0.28750
 Cu121 Cu 0.38982 0.00958 0.38036
 Cu122 Cu 0.33438 0.00460 0.31575
 C123 C 0.40226 0.05858 0.30344
 C124 C 0.32542 -0.04509 0.39552
 C125 C 0.40045 -0.05124 0.31058
 C126 C 0.32284 0.06366 0.38706
 O127 O 0.58339 0.04506 0.64746
 O128 O 0.63939 -0.04215 0.59496
 O129 O 0.58445 -0.03731 0.65636
 O130 O 0.63591 0.03961 0.58364
 O131 O 0.68418 0.04866 0.63433
 O132 O 0.63097 -0.03205 0.70964
 O133 O 0.68841 -0.03458 0.64501
 O134 O 0.62908 0.05228 0.70142
 Cu135 Cu 0.60619 0.00054 0.61572
 Cu136 Cu 0.66306 0.00931 0.67809
 C137 C 0.59545 0.06241 0.68395
 C138 C 0.67405 -0.05178 0.60923
 C139 C 0.59761 -0.04724 0.69529
 C140 C 0.66895 0.05643 0.59531
 O141 O 0.41601 0.95325 0.65806
 O142 O 0.35769 1.02977 0.59333
 O143 O 0.41216 1.03550 0.65465
 O144 O 0.35820 0.94728 0.60107
 O145 O 0.31039 0.94987 0.65306
 O146 O 0.36851 1.03796 0.71116
 O147 O 0.31136 1.03361 0.64702
 O148 O 0.37161 0.95372 0.71392
 Cu149 Cu 0.39032 0.99121 0.62151
 Cu150 Cu 0.33572 0.99379 0.68712
 C151 C 0.40507 0.94149 0.69719
 C152 C 0.32457 1.04403 0.60784
 C153 C 0.40084 1.05084 0.69240
 C154 C 0.32448 0.93493 0.61601
 O155 O 0.64630 1.04592 0.39572
 O156 O 0.58862 0.95404 0.35275
 O157 O 0.64960 0.96292 0.40562
 O158 O 0.58822 1.03549 0.33829
 O159 O 0.62897 1.02865 0.27941
 O160 O 0.69342 0.95489 0.34991
 O161 O 0.62961 0.94592 0.29424
 O162 O 0.68799 1.03914 0.33768
 Cu163 Cu 0.61427 1.00012 0.37892
 Cu164 Cu 0.66471 0.99106 0.30967
 C165 C 0.67678 1.05845 0.37369
 C166 C 0.59781 0.93573 0.31570
 C167 C 0.68197 0.94725 0.39040
 C168 C 0.59714 1.04386 0.29736
 C169 C 0.75609 0.89889 0.54523
 C170 C 0.74326 0.91234 0.50244
 C171 C 0.75957 0.89632 0.46183
 C172 C 0.79234 0.86740 0.46445
 C173 C 0.80678 0.85436 0.50804
 C174 C 0.78856 0.87034 0.54848
 C175 C 0.80263 0.85682 0.59101
 C176 C 0.83413 0.82755 0.59418
 C177 C 0.85251 0.81095 0.55487
 C178 C 0.83897 0.82462 0.51136
 C179 C 0.81068 0.85073 0.42523
 C180 C 0.84261 0.82149 0.42859
 C181 C 0.85700 0.80801 0.47129
 C182 C 0.88835 0.77755 0.47518
 C183 C 0.90170 0.76495 0.51882
 C184 C 0.88393 0.78075 0.55841
 H185 H 0.78914 0.86863 0.62215
 H186 H 0.84387 0.81786 0.62780
 H187 H 0.80029 0.86011 0.39175
 H188 H 0.85582 0.80922 0.39751
 H189 H 0.71972 0.93645 0.50100
 H190 H 0.92623 0.74222 0.52213
 C191 C 0.24578 0.10005 0.54284
 C192 C 0.26014 0.09008 0.49944
 C193 C 0.24351 0.10735 0.45966
 C194 C 0.20971 0.13466 0.46323
 C195 C 0.19425 0.14484 0.50717
 C196 C 0.21225 0.12720 0.54696
 C197 C 0.19677 0.13764 0.58987
 C198 C 0.16429 0.16560 0.59403
 C199 C 0.14633 0.18402 0.55538
 C200 C 0.16118 0.17333 0.51149
 C201 C 0.19155 0.15276 0.42463
 C202 C 0.15898 0.18101 0.42900
 C203 C 0.14361 0.19181 0.47209
 C204 C 0.11181 0.22154 0.47705
 C205 C 0.09719 0.23126 0.52091
 C206 C 0.11416 0.21324 0.55993
 H207 H 0.20992 0.12449 0.62059
 H208 H 0.15356 0.17296 0.62792
 H209 H 0.20275 0.14552 0.39090
 H210 H 0.14608 0.19466 0.39840
 H211 H 0.28470 0.06733 0.49631
 H212 H 0.07223 0.25338 0.52476
 C213 C 0.11431 0.77462 0.52624
 C214 C 0.10050 0.76412 0.48219
 C215 C 0.11821 0.78148 0.44326
 C216 C 0.15013 0.81096 0.44798
 C217 C 0.16433 0.82229 0.49195
 C218 C 0.14624 0.80429 0.53132
 C219 C 0.16113 0.81564 0.57450
 C220 C 0.19370 0.84398 0.57897
 C221 C 0.21220 0.86179 0.54039
 C222 C 0.19718 0.85110 0.49640
 C223 C 0.16838 0.82912 0.40936
 C224 C 0.20044 0.85761 0.41365
 C225 C 0.21534 0.86867 0.45665
 C226 C 0.24839 0.89647 0.46087
 C227 C 0.26245 0.90680 0.50427
 C228 C 0.24582 0.88942 0.54402
 H229 H 0.14787 0.80233 0.60508
 H230 H 0.20457 0.85163 0.61275
 H231 H 0.15810 0.82128 0.37540
 H232 H 0.21376 0.87065 0.38296
 H233 H 0.07556 0.74197 0.47804
 H234 H 0.28670 0.92999 0.50743
 C235 C 0.73615 0.12973 0.44091
 C236 C 0.72145 0.11124 0.48097
 C237 C 0.74053 0.11822 0.52341
 C238 C 0.77583 0.14411 0.52495
 C239 C 0.79131 0.16190 0.48401
 C240 C 0.77120 0.15470 0.44223
 C241 C 0.78687 0.17205 0.40187
 C242 C 0.82197 0.19593 0.40225
 C243 C 0.84236 0.20393 0.44310
 C244 C 0.82687 0.18726 0.48456
 C245 C 0.79587 0.15321 0.56604
 C246 C 0.83037 0.17945 0.56678
 C247 C 0.84643 0.19653 0.52632
 C248 C 0.88100 0.22335 0.52603
 C249 C 0.89693 0.23733 0.48383
 C250 C 0.87777 0.22850 0.44283
 H251 H 0.77235 0.16691 0.36935
 H252 H 0.83287 0.20827 0.37007
 H253 H 0.78472 0.14042 0.59792
 H254 H 0.84463 0.18601 0.59916
 H255 H 0.69450 0.09171 0.47888
 H256 H 0.92427 0.25631 0.48289
 C257 C 0.54571 0.74441 0.89433
 C258 C 0.50959 0.72255 0.90385
 C259 C 0.47233 0.73827 0.88953
 C260 C 0.47102 0.77724 0.86457
 C261 C 0.50737 0.79917 0.85346
 C262 C 0.54486 0.78268 0.86840
 C263 C 0.58048 0.80420 0.85610
 C264 C 0.57947 0.84102 0.82852
 C265 C 0.54274 0.85813 0.81366
 C266 C 0.50621 0.83750 0.82705
 C267 C 0.43422 0.79461 0.85016
 C268 C 0.43299 0.83250 0.82454
 C269 C 0.46852 0.85408 0.81249
 C270 C 0.46753 0.89106 0.78485
 C271 C 0.50358 0.91144 0.77303
 C272 C 0.54121 0.89461 0.78476
 H273 H 0.60945 0.79204 0.86692
 H274 H 0.60759 0.85617 0.81900
 H275 H 0.40609 0.77874 0.85826
 H276 H 0.40399 0.84462 0.81377
 H277 H 0.51039 0.69381 0.92489
 H278 H 0.50224 0.94033 0.75221
 C279 C 0.46319 0.10714 0.21340
 C280 C 0.49905 0.08600 0.22436
 C281 C 0.53667 0.10199 0.21150
 C282 C 0.53842 0.13862 0.18297
 C283 C 0.50215 0.16013 0.17058
 C284 C 0.46439 0.14420 0.18576
 C285 C 0.42912 0.16655 0.17442
 C286 C 0.43077 0.20459 0.14896
 C287 C 0.46774 0.22146 0.13427
 C288 C 0.50377 0.19876 0.14471
 C289 C 0.57531 0.15513 0.16777
 C290 C 0.57676 0.19242 0.14105
 C291 C 0.54144 0.21484 0.12974
 C292 C 0.54285 0.25363 0.10482
 C293 C 0.50708 0.27612 0.09570
 C294 C 0.46960 0.26066 0.10973
 H295 H 0.40006 0.15492 0.18559
 H296 H 0.40287 0.22107 0.14138
 H297 H 0.60325 0.13927 0.17654
 H298 H 0.60585 0.20419 0.13011
 H299 H 0.49763 0.05720 0.24534
 H300 H 0.50835 0.30519 0.07519
 C301 C 0.53490 0.12147 0.76733
 C302 C 0.49859 0.10147 0.75591
 C303 C 0.46142 0.11617 0.77159
 C304 C 0.46056 0.15069 0.80283
 C305 C 0.49726 0.17120 0.81570
 C306 C 0.53459 0.15641 0.79800
 C307 C 0.57028 0.17739 0.81068
 C308 C 0.56949 0.21295 0.83997
 C309 C 0.53297 0.22856 0.85736
 C310 C 0.49653 0.20719 0.84551
 C311 C 0.42417 0.16570 0.82085
 C312 C 0.42358 0.20062 0.85091
 C313 C 0.45931 0.22187 0.86321
 C314 C 0.45869 0.25822 0.89189
 C315 C 0.49479 0.27949 0.90252
 C316 C 0.53191 0.26523 0.88602
 H317 H 0.59901 0.16661 0.79765
 H318 H 0.59767 0.22848 0.84853
 H319 H 0.39596 0.15055 0.81169
 H320 H 0.39484 0.21136 0.86392
 H321 H 0.49932 0.07333 0.73393
 H322 H 0.49404 0.30660 0.92586
 C323 C 0.53381 0.87367 0.23811
 C324 C 0.49765 0.89324 0.25057
 C325 C 0.46031 0.87950 0.23406
 C326 C 0.45926 0.84563 0.20189
 C327 C 0.49583 0.82516 0.18863
 C328 C 0.53323 0.83946 0.20663
 C329 C 0.56885 0.81881 0.19332
 C330 C 0.56793 0.78391 0.16324
 C331 C 0.53138 0.76879 0.14542
 C332 C 0.49500 0.78998 0.15772
 C333 C 0.42286 0.83132 0.18312
 C334 C 0.42216 0.79715 0.15203
 C335 C 0.45778 0.77597 0.13932
 C336 C 0.45713 0.74040 0.10947
 C337 C 0.49321 0.71920 0.09858
 C338 C 0.53028 0.73281 0.11584
 H339 H 0.59763 0.82923 0.20658
 H340 H 0.59608 0.76856 0.15431
 H341 H 0.39472 0.84642 0.19251
 H342 H 0.39342 0.78693 0.13847
 H343 H 0.49880 0.92088 0.27318
 H344 H 0.49251 0.69268 0.07450
 C345 C 0.76397 0.47566 0.87651
 C346 C 0.75241 0.51736 0.89133
 C347 C 0.77216 0.55464 0.87659
 C348 C 0.80485 0.55070 0.84672
 C349 C 0.81672 0.50928 0.83068
 C350 C 0.79626 0.47152 0.84553
 C351 C 0.80831 0.43098 0.82848
 C352 C 0.83945 0.42768 0.79656
 C353 C 0.85992 0.46476 0.78132
 C354 C 0.84890 0.50587 0.79935
 C355 C 0.82600 0.58768 0.83260
 C356 C 0.85805 0.58427 0.80273
 C357 C 0.86959 0.54387 0.78553
 C358 C 0.90052 0.54086 0.75355
 C359 C 0.91054 0.50050 0.73533
 C360 C 0.89067 0.46238 0.74805
 H361 H 0.79322 0.40163 0.83919
 H362 H 0.84730 0.39595 0.78368
 H363 H 0.81792 0.61967 0.84454
 H364 H 0.87339 0.61368 0.79264
 H365 H 0.72797 0.52098 0.91525
 H366 H 0.93507 0.49883 0.71121
 C367 C 0.23795 0.47607 0.12479
 C368 C 0.24942 0.51745 0.10888
 C369 C 0.22976 0.55500 0.12284
 C370 C 0.19719 0.55170 0.15296
 C371 C 0.18543 0.51065 0.17015
 C372 C 0.20583 0.47259 0.15612
 C373 C 0.19395 0.43246 0.17438
 C374 C 0.16306 0.42989 0.20670
 C375 C 0.14265 0.46727 0.22110
 C376 C 0.15344 0.50795 0.20183
 C377 C 0.17607 0.58895 0.16624
 C378 C 0.14415 0.58620 0.19638
 C379 C 0.13275 0.54623 0.21474
 C380 C 0.10193 0.54393 0.24696
 C381 C 0.09217 0.50397 0.26635
 C382 C 0.11218 0.46567 0.25473
 H383 H 0.20901 0.40290 0.16434
 H384 H 0.15535 0.39848 0.22056
 H385 H 0.18406 0.62066 0.15339
 H386 H 0.12882 0.61580 0.20576
 H387 H 0.27371 0.52058 0.08466
 H388 H 0.06769 0.50268 0.29056
 C389 C 0.90102 0.45822 0.24924
 C390 C 0.91162 0.49880 0.26650
 C391 C 0.89129 0.53673 0.25446
 C392 C 0.85986 0.53418 0.22205
 C393 C 0.84839 0.49294 0.20462
 C394 C 0.86923 0.45497 0.21829
 C395 C 0.85710 0.41447 0.20185
 C396 C 0.82448 0.41093 0.17273
 C397 C 0.80333 0.44788 0.15861
 C398 C 0.81564 0.48938 0.17404
 C399 C 0.83923 0.57118 0.20704
 C400 C 0.80759 0.56774 0.17574
 C401 C 0.79514 0.52711 0.15922
 C402 C 0.76247 0.52287 0.12871
 C403 C 0.75053 0.48109 0.11446
 C404 C 0.77028 0.44385 0.12922
 H405 H 0.87249 0.38511 0.21189
 H406 H 0.81602 0.37887 0.16128
 H407 H 0.84742 0.60297 0.21953
 H408 H 0.79246 0.59704 0.16510
 H409 H 0.93689 0.50085 0.28960
 H410 H 0.72578 0.47736 0.09093
 C411 C 0.10945 0.53236 0.74463
 C412 C 0.08958 0.49375 0.73348
 C413 C 0.10004 0.45397 0.75285
 C414 C 0.13170 0.45216 0.78410
 C415 C 0.15234 0.49073 0.79637
 C416 C 0.14066 0.53121 0.77745
 C417 C 0.16095 0.56891 0.79140
 C418 C 0.19255 0.56684 0.82292
 C419 C 0.20537 0.52689 0.84071
 C420 C 0.18513 0.48851 0.82707
 C421 C 0.14401 0.41235 0.80204
 C422 C 0.17677 0.41007 0.83104
 C423 C 0.19780 0.44763 0.84371
 C424 C 0.23112 0.44477 0.87280
 C425 C 0.25059 0.48259 0.88649
 C426 C 0.23821 0.52388 0.87123
 H427 H 0.15257 0.60021 0.77783
 H428 H 0.20743 0.59663 0.83264
 H429 H 0.12877 0.38253 0.79313
 H430 H 0.18544 0.37846 0.84355
 H431 H 0.06467 0.49462 0.70981
 H432 H 0.27548 0.47969 0.90995
 N433 N 0.29275 0.44476 0.08929
 N434 N 0.25826 0.43862 0.10667
 N435 N 0.70836 0.55360 0.09091
 N436 N 0.74231 0.55998 0.10958
 N437 N 0.70963 0.44499 0.91381
 N438 N 0.74360 0.43852 0.89530
 N439 N 0.29286 0.55593 0.90665
 N440 N 0.25820 0.56162 0.88947
 N441 N 0.07810 0.27968 0.44608
 N442 N 0.09436 0.24323 0.43857
 N443 N 0.07741 0.71874 0.55730
 N444 N 0.09563 0.75414 0.56479
 N445 N 0.92417 0.72215 0.44214
 N446 N 0.90685 0.75822 0.43587
 N447 N 0.91807 0.27503 0.56279
 N448 N 0.89963 0.23923 0.56712
 N449 N 0.43048 0.08179 0.27666
 N450 N 0.42705 0.09227 0.23506
 N451 N 0.56741 0.08923 0.70699
 N452 N 0.57098 0.10480 0.74685
 N453 N 0.43395 0.91819 0.72289
 N454 N 0.43119 0.90666 0.76424
 N455 N 0.56852 0.90784 0.29622
 N456 N 0.57032 0.89122 0.25667
 N457 N 0.41906 0.31418 0.91805
 N458 N 0.42226 0.27363 0.91230
 N459 N 0.58483 0.68749 0.91947
 N460 N 0.58214 0.72816 0.91412
 N461 N 0.41757 0.68522 0.08121
 N462 N 0.42077 0.72562 0.08821
 N463 N 0.58297 0.31066 0.08181
 N464 N 0.57959 0.26992 0.08580
 N465 N 0.30164 0.06897 0.57670
 N466 N 0.26548 0.08122 0.58172
 N467 N 0.69646 0.09246 0.38749
 N468 N 0.71520 0.12515 0.39851
 N469 N 0.69795 0.92227 0.58004
 N470 N 0.73547 0.91586 0.58425
 N471 N 0.30343 0.92947 0.42708
 N472 N 0.26770 0.91578 0.42204
 N473 N 0.07015 0.41327 0.69656
 N474 N 0.07908 0.41571 0.73839
 N475 N 0.07209 0.58313 0.30427
 N476 N 0.08114 0.58185 0.26243
 N477 N 0.93336 0.42182 0.30683
 N478 N 0.92194 0.42077 0.26570
 N479 N 0.92931 0.57950 0.69509
 N480 N 0.92115 0.57850 0.73716
 N481 N 0.73293 0.60340 0.91973
 N482 N 0.75947 0.59690 0.89131
 N483 N 0.27087 0.39699 0.91668
 N484 N 0.24477 0.40294 0.88761
 N485 N 0.26898 0.60317 0.07870
 N486 N 0.24239 0.59697 0.10716
 N487 N 0.73129 0.39499 0.08584
 N488 N 0.75728 0.40154 0.11492
 N489 N 0.92398 0.73952 0.60882
 N490 N 0.89686 0.76605 0.60250
 N491 N 0.92266 0.26823 0.39584
 N492 N 0.89300 0.24466 0.40032
 N493 N 0.07295 0.25157 0.61160
 N494 N 0.09965 0.22471 0.60446
 N495 N 0.07756 0.74278 0.39137
 N496 N 0.10466 0.76916 0.39862
 N497 N 0.57120 0.92752 0.72297
 N498 N 0.57626 0.91337 0.76329
 N499 N 0.42767 0.91950 0.28935
 N500 N 0.42481 0.90140 0.25054
 N501 N 0.56835 0.06801 0.27191
 N502 N 0.57193 0.08269 0.23162
 N503 N 0.42821 0.07945 0.71439
 N504 N 0.42575 0.09526 0.75430
 N505 N 0.56602 0.67536 0.08081
 N506 N 0.56665 0.71248 0.09986
 N507 N 0.43468 0.32084 0.07884
 N508 N 0.43364 0.28244 0.09480
 N509 N 0.56752 0.32293 0.92071
 N510 N 0.56825 0.28559 0.90213
 N511 N 0.43635 0.67860 0.92038
 N512 N 0.43600 0.71699 0.90435
 N513 N 0.70562 0.92406 0.42249
 N514 N 0.74177 0.91082 0.41960
 N515 N 0.30136 0.90897 0.58574
 N516 N 0.26353 0.90282 0.58653
 N517 N 0.29934 0.08871 0.41782
 N518 N 0.26145 0.09437 0.41711
 N519 N 0.68899 0.08179 0.56155
 N520 N 0.72418 0.09790 0.56372
 N521 N 0.92309 0.57591 0.31241
 N522 N 0.90508 0.57695 0.27406
 N523 N 0.92228 0.42261 0.69017
 N524 N 0.90421 0.42205 0.72850
 N525 N 0.07703 0.57059 0.68604
 N526 N 0.09541 0.57205 0.72417
 N527 N 0.08204 0.42768 0.31474
 N528 N 0.09881 0.42592 0.27570
   
