data_POSCAR
  _audit_creation_date              2014-09-24
  _audit_creation_method            'ToBaCCo'
  _symmetry_space_group_name_H-M    'P1'
  _symmetry_Int_Tables_number       1
  _symmetry_cell_setting            triclinic
  loop_
  _symmetry_equiv_pos_as_xyz
 x,y,z
_cell_length_a 45.4605
_cell_length_b 45.9310
_cell_length_c 45.7130
_cell_angle_alpha 90.087900
_cell_angle_beta 89.904600
_cell_angle_gamma 90.416500
loop_
  _atom_site_label
  _atom_site_type_symbol
  _atom_site_fract_x
  _atom_site_fract_y
  _atom_site_fract_z
N1 N 0.14495 0.16967 0.22496
 N2 N 0.16183 0.14684 0.22118
 C3 C 0.15590 0.12722 0.24231
 C4 C 0.13459 0.13868 0.26057
 C5 C 0.12813 0.16566 0.24892
 H6 H 0.16707 0.10668 0.24501
 H7 H 0.11239 0.18117 0.25723
 Cu8 Cu 0.19258 0.14685 0.19145
 Cu9 Cu 0.14585 0.20265 0.19827
 Cu10 Cu 0.20243 0.20480 0.14726
 N11 N 0.22311 0.14755 0.16154
 N12 N 0.22854 0.17127 0.14632
 C13 C 0.25251 0.16701 0.12951
 C14 C 0.26232 0.13894 0.13415
 C15 C 0.24309 0.12716 0.15450
 H16 H 0.26169 0.18285 0.11451
 H17 H 0.24415 0.10565 0.16401
 N18 N 0.17289 0.23591 0.15116
 N19 N 0.15041 0.23415 0.16942
 C20 C 0.13176 0.25611 0.16391
 C21 C 0.14323 0.27266 0.14140
 C22 C 0.16938 0.25943 0.13392
 H23 H 0.11096 0.25944 0.17488
 H24 H 0.18370 0.26545 0.11598
 H25 H 0.16598 0.18251 0.16267
 H26 H 0.19056 0.19989 0.19050
 N27 N -0.13888 0.84216 0.21615
 N28 N -0.16335 0.85548 0.22335
 C29 C -0.15928 0.87006 0.24858
 C30 C -0.13052 0.86613 0.25738
 C31 C -0.11806 0.84849 0.23619
 H32 H -0.17581 0.88300 0.25948
 H33 H -0.09581 0.84029 0.23577
 Cu34 Cu -0.19758 0.85381 0.19808
 Cu35 Cu -0.13706 0.81658 0.18192
 Cu36 Cu -0.20599 0.79419 0.15699
 N37 N -0.22922 0.85071 0.16977
 N38 N -0.23379 0.82657 0.15489
 C39 C -0.25811 0.82972 0.13833
 C40 C -0.26873 0.85765 0.14260
 C41 C -0.24977 0.87034 0.16261
 H42 H -0.26673 0.81333 0.12357
 H43 H -0.25105 0.89212 0.17156
 N44 N -0.16965 0.77183 0.14993
 N45 N -0.14331 0.78148 0.15762
 C46 C -0.12291 0.76247 0.14832
 C47 C -0.13708 0.73963 0.13440
 C48 C -0.16670 0.74621 0.13583
 H49 H -0.09952 0.76464 0.15213
 H50 H -0.18470 0.73353 0.12686
 H51 H -0.17532 0.82602 0.15832
 H52 H -0.17865 0.80449 0.19272
 N53 N -0.14184 0.16083 -0.22150
 N54 N -0.16049 0.13896 -0.21896
 C55 C -0.15704 0.12080 -0.24183
 C56 C -0.13536 0.13219 -0.25981
 C57 C -0.12617 0.15761 -0.24629
 H58 H -0.16951 0.10094 -0.24526
 H59 H -0.10891 0.17227 -0.25355
 Cu60 Cu -0.18775 0.13651 -0.18612
 Cu61 Cu -0.13838 0.19041 -0.19107
 Cu62 Cu -0.20504 0.20133 -0.15626
 N63 N -0.22074 0.14068 -0.15943
 N64 N -0.22854 0.16626 -0.14917
 C65 C -0.25352 0.16320 -0.13353
 C66 C -0.26137 0.13399 -0.13355
 C67 C -0.24001 0.12032 -0.15011
 H68 H -0.26478 0.18080 -0.12257
 H69 H -0.23903 0.09744 -0.15564
 N70 N -0.17225 0.23001 -0.15518
 N71 N -0.14637 0.22494 -0.16723
 C72 C -0.12742 0.24621 -0.15959
 C73 C -0.14210 0.26580 -0.14202
 C74 C -0.17052 0.25503 -0.13976
 H75 H -0.10446 0.24703 -0.16579
 H76 H -0.18806 0.26379 -0.12645
 H77 H -0.16773 0.17677 -0.15756
 H78 H -0.18238 0.18888 -0.19373
 N79 N 0.13855 0.84086 -0.22011
 N80 N 0.15758 0.86235 -0.21722
 C81 C 0.15420 0.88112 -0.23955
 C82 C 0.13216 0.87047 -0.25753
 C83 C 0.12271 0.84489 -0.24459
 H84 H 0.16701 0.90081 -0.24267
 H85 H 0.10520 0.83063 -0.25203
 Cu86 Cu 0.18531 0.86333 -0.18480
 Cu87 Cu 0.13484 0.81066 -0.19052
 Cu88 Cu 0.20140 0.79735 -0.15670
 N89 N 0.21900 0.85755 -0.15951
 N90 N 0.22630 0.83162 -0.14986
 C91 C 0.25188 0.83379 -0.13508
 C92 C 0.26067 0.86276 -0.13511
 C93 C 0.23921 0.87720 -0.15071
 H94 H 0.26295 0.81577 -0.12471
 H95 H 0.23876 0.90015 -0.15595
 N96 N 0.16797 0.76928 -0.15627
 N97 N 0.14223 0.77529 -0.16807
 C98 C 0.12286 0.75410 -0.16141
 C99 C 0.13703 0.73352 -0.14475
 C100 C 0.16568 0.74365 -0.14197
 H101 H 0.09994 0.75393 -0.16774
 H102 H 0.18300 0.73395 -0.12914
 H103 H 0.16486 0.82274 -0.15701
 H104 H 0.17906 0.81126 -0.19366
 N105 N 0.16988 1.14952 0.77284
 N106 N 0.14809 1.16811 0.77469
 C107 C 0.12891 1.16277 0.75287
 C108 C 0.13961 1.14000 0.73632
 C109 C 0.16567 1.13217 0.74946
 H110 H 0.10879 1.17460 0.74910
 H111 H 0.18000 1.11460 0.74297
 Cu112 Cu 0.14729 1.19772 0.80510
 Cu113 Cu 0.20092 1.14784 0.80198
 Cu114 Cu 0.20000 1.20023 0.85663
 N115 N 0.14793 1.22786 0.83498
 N116 N 0.16780 1.22787 0.85586
 C117 C 0.16225 1.24980 0.87457
 C118 C 0.13798 1.26459 0.86452
 C119 C 0.12947 1.25027 0.83932
 H120 H 0.17513 1.25491 0.89380
 H121 H 0.11087 1.25547 0.82562
 N122 N 0.23071 1.17037 0.85358
 N123 N 0.23035 1.14974 0.83343
 C124 C 0.25276 1.13140 0.83839
 C125 C 0.26817 1.14132 0.86240
 C126 C 0.25380 1.16610 0.87146
 H127 H 0.25755 1.11219 0.82558
 H128 H 0.25921 1.17934 0.89030
 H129 H 0.17765 1.16677 0.83588
 H130 H 0.19997 1.19171 0.81225
 N131 N 0.83279 0.85363 0.77149
 N132 N 0.85200 0.83241 0.77011
 C133 C 0.86981 0.83686 0.74691
 C134 C 0.86152 0.86248 0.73355
 C135 C 0.83809 0.87262 0.74972
 H136 H 0.88789 0.82302 0.74060
 H137 H 0.82568 0.89221 0.74572
 Cu138 Cu 0.85266 0.80209 0.79979
 Cu139 Cu 0.80179 0.85481 0.80075
 Cu140 Cu 0.80155 0.80038 0.85313
 N141 N 0.85268 0.77208 0.82980
 N142 N 0.83179 0.77080 0.84972
 C143 C 0.83625 0.74755 0.86698
 C144 C 0.86155 0.73391 0.85771
 C145 C 0.87156 0.75004 0.83420
 H146 H 0.82262 0.74148 0.88544
 H147 H 0.89099 0.74584 0.82123
 N148 N 0.77282 0.83228 0.85278
 N149 N 0.77221 0.85229 0.83209
 C150 C 0.74948 0.87025 0.83711
 C151 C 0.73556 0.86143 0.86243
 C152 C 0.75090 0.83743 0.87194
 H153 H 0.74381 0.88880 0.82380
 H154 H 0.74618 0.82457 0.89120
 H155 H 0.82508 0.83333 0.83295
 H156 H 0.80063 0.81058 0.80919
 N157 N 0.15865 0.85473 1.22040
 N158 N 0.14550 0.83035 1.22817
 C159 C 0.13141 0.83438 1.25370
 C160 C 0.13558 0.86299 1.26208
 C161 C 0.15276 0.87542 1.24040
 H162 H 0.11863 0.81793 1.26503
 H163 H 0.16091 0.89759 1.23955
 Cu164 Cu 0.14666 0.79627 1.20331
 Cu165 Cu 0.18358 0.85675 1.18567
 Cu166 Cu 0.20695 0.78874 1.16229
 N167 N 0.14968 0.76543 1.17460
 N168 N 0.17411 0.76124 1.15979
 C169 C 0.17049 0.73811 1.14200
 C170 C 0.14202 0.72791 1.14544
 C171 C 0.12939 0.74571 1.16623
 H172 H 0.18678 0.73033 1.12664
 H173 H 0.10710 0.74455 1.17448
 N174 N 0.22886 0.82488 1.15428
 N175 N 0.21872 0.85090 1.16114
 C176 C 0.23724 0.87131 1.15058
 C177 C 0.26018 0.85738 1.13666
 C178 C 0.25428 0.82798 1.13946
 H179 H 0.23458 0.89453 1.15337
 H180 H 0.26708 0.81021 1.13070
 H181 H 0.17425 0.81824 1.16308
 H182 H 0.19615 0.81641 1.19749
 N183 N 0.84227 1.14045 1.21925
 N184 N 0.86351 1.15984 1.21666
 C185 C 0.88245 1.15675 1.23902
 C186 C 0.87211 1.13451 1.25668
 C187 C 0.84660 1.12463 1.24356
 H188 H 0.90195 1.16996 1.24243
 H189 H 0.83254 1.10695 1.25081
 Cu190 Cu 0.86373 1.18778 1.18477
 Cu191 Cu 0.81188 1.13643 1.18976
 Cu192 Cu 0.79643 1.20257 1.15744
 N193 N 0.85682 1.22128 1.16014
 N194 N 0.83041 1.22798 1.15065
 C195 C 0.83199 1.25337 1.13595
 C196 C 0.86103 1.26263 1.13594
 C197 C 0.87615 1.24174 1.15138
 H198 H 0.81357 1.26394 1.12558
 H199 H 0.89941 1.24175 1.15634
 N200 N 0.76894 1.16885 1.15673
 N201 N 0.77582 1.14333 1.16794
 C202 C 0.75483 1.12376 1.16126
 C203 C 0.73349 1.13759 1.14519
 C204 C 0.74292 1.16622 1.14277
 H205 H 0.75532 1.10098 1.16717
 H206 H 0.73250 1.18334 1.13041
 H207 H 0.82307 1.16722 1.15680
 H208 H 0.81136 1.18021 1.19382
 O209 O 0.45845 0.94568 0.94962
 O210 O 0.42603 0.97423 0.97511
 C211 C 0.43201 0.95392 0.95640
 O212 O 0.53876 0.94464 1.05450
 O213 O 0.57194 0.97307 1.02929
 C214 C 0.56540 0.95297 1.04815
 O215 O 0.45610 0.94287 1.05007
 O216 O 0.42486 0.97268 1.02472
 C217 C 0.43003 0.95148 1.04260
 O218 O 0.54131 0.94942 0.94777
 O219 O 0.57305 0.97342 0.97869
 C220 C 0.56751 0.95592 0.95710
 Zr221 Zr 0.49974 0.96207 0.96438
 O222 O 0.50316 0.91612 0.96328
 O223 O 0.49719 0.96309 0.91817
 Zr224 Zr 0.49792 0.95995 1.03828
 O225 O 0.50047 0.91396 1.03793
 O226 O 0.49368 0.95986 1.08441
 O227 O 0.47253 0.95544 1.00054
 O228 O 0.52430 0.95561 1.00174
 O229 O 0.54272 1.05041 0.95229
 O230 O 0.57388 1.02191 0.97926
 C231 C 0.56878 1.04184 0.95989
 O232 O 0.45712 1.05092 1.05265
 O233 O 0.42526 1.02220 1.02622
 C234 C 0.43085 1.04273 1.04491
 O235 O 0.53957 1.04794 1.05745
 O236 O 0.57232 1.02120 1.03032
 C237 C 0.56605 1.04019 1.05036
 O238 O 0.45994 1.05339 0.95303
 O239 O 0.42672 1.02363 0.97654
 C240 C 0.43332 1.04488 0.95907
 Zr241 Zr 0.50069 1.03578 0.96664
 O242 O 0.50458 1.08173 0.96705
 O243 O 0.49859 1.03598 0.92036
 Zr244 Zr 0.49858 1.03362 1.04051
 O245 O 0.50218 1.07945 1.04396
 O246 O 0.49404 1.03043 1.08651
 Zr247 Zr 0.45553 0.99805 1.00136
 Zr248 Zr 0.54291 0.99767 1.00356
 O249 O 0.52518 1.03988 1.00435
 O250 O 0.47348 1.04050 1.00307
 O251 O 0.52656 0.99897 0.96043
 O252 O 0.47258 0.99675 1.04413
 O253 O 0.47488 0.99920 0.95950
 O254 O 0.52434 0.99655 1.04582
 H255 H 0.53739 0.93846 1.00145
 H256 H 0.45873 0.99639 1.06089
 H257 H 0.53853 1.05702 1.00507
 H258 H 0.46202 0.99972 0.94203
 H259 H 0.51107 0.97011 1.09252
 H260 H 0.51192 1.02092 1.09413
 H261 H 0.48899 1.08785 1.02908
 H262 H 0.48887 1.08930 0.97990
 H263 H 0.51657 1.02647 0.91291
 H264 H 0.51268 0.97662 0.91120
 H265 H 0.48618 0.90803 0.97419
 H266 H 0.48567 0.90671 1.02382
 O267 O 0.04905 0.45854 -0.05360
 O268 O 0.02243 0.42709 -0.02463
 C269 C 0.04184 0.43261 -0.04469
 O270 O 0.05141 0.54194 0.04927
 O271 O 0.02324 0.57360 0.02261
 C272 C 0.04330 0.56793 0.04186
 O273 O 0.05364 0.46033 0.04750
 O274 O 0.02306 0.42798 0.02394
 C275 C 0.04477 0.43411 0.04131
 O276 O 0.04849 0.54039 -0.05615
 O277 O 0.02204 0.57274 -0.02841
 C278 C 0.04099 0.56662 -0.04871
 Zr279 Zr 0.03384 0.49977 -0.03932
 O280 O 0.08035 0.50242 -0.04073
 O281 O 0.03200 0.49643 -0.08548
 Zr282 Zr 0.03593 0.50089 0.03462
 O283 O 0.08238 0.50401 0.03486
 O284 O 0.03561 0.49831 0.08088
 O285 O 0.04048 0.47441 -0.00218
 O286 O 0.04047 0.52554 -0.00285
 O287 O -0.05505 0.54063 -0.05315
 O288 O -0.02630 0.57289 -0.02722
 C289 C -0.04628 0.56680 -0.04651
 O290 O -0.05559 0.46014 0.05116
 O291 O -0.02699 0.42805 0.02536
 C292 C -0.04746 0.43398 0.04412
 O293 O -0.05233 0.54228 0.05264
 O294 O -0.02528 0.57362 0.02397
 C295 C -0.04427 0.56826 0.04450
 O296 O -0.05828 0.45873 -0.04943
 O297 O -0.02854 0.42725 -0.02436
 C298 C -0.04983 0.43273 -0.04231
 Zr299 Zr -0.04064 0.49985 -0.03699
 O300 O -0.08705 0.50315 -0.03597
 O301 O -0.04143 0.49598 -0.08314
 Zr302 Zr -0.03849 0.50096 0.03694
 O303 O -0.08485 0.50421 0.03922
 O304 O -0.03598 0.49849 0.08311
 Zr305 Zr -0.00258 0.45712 -0.00061
 Zr306 Zr -0.00193 0.54358 -0.00182
 O307 O -0.04466 0.52569 -0.00025
 O308 O -0.04546 0.47440 0.00048
 O309 O -0.00334 0.52565 -0.04427
 O310 O -0.00128 0.47574 0.04148
 O311 O -0.00375 0.47449 -0.04316
 O312 O -0.00089 0.52700 0.04115
 H313 H 0.05792 0.53857 -0.00353
 H314 H -0.00082 0.46274 0.05875
 H315 H -0.06181 0.53889 0.00002
 H316 H -0.00438 0.46104 -0.06012
 H317 H 0.02609 0.51612 0.08841
 H318 H -0.02503 0.51588 0.08999
 H319 H -0.09318 0.48892 0.02637
 H320 H -0.09459 0.48745 -0.02315
 H321 H -0.03027 0.51269 -0.09125
 H322 H 0.02042 0.51308 -0.09272
 H323 H 0.08813 0.48559 -0.02979
 H324 H 0.08971 0.49057 0.01965
 O325 O 0.95154 0.05474 0.45671
 O326 O 0.98003 0.02760 0.42547
 C327 C 0.96057 0.04741 0.43077
 O328 O 1.05537 0.05250 0.54140
 O329 O 1.02476 0.02756 0.57267
 C330 C 1.04607 0.04568 0.56736
 O331 O 1.05349 0.05619 0.45909
 O332 O 1.02876 0.02672 0.42668
 C333 C 1.04706 0.04757 0.43275
 O334 O 0.94731 0.05313 0.53917
 O335 O 0.97369 0.02564 0.57169
 C336 C 0.95389 0.04479 0.56552
 Zr337 Zr 0.96461 0.03898 0.49829
 O338 O 0.96488 0.08499 0.50119
 O339 O 0.91823 0.03858 0.49423
 Zr340 Zr 1.03908 0.03926 0.50004
 O341 O 1.03895 0.08520 0.50380
 O342 O 1.08557 0.03967 0.49745
 O343 O 1.00257 0.04475 0.47314
 O344 O 1.00118 0.04451 0.52454
 O345 O 0.94754 -0.04953 0.53887
 O346 O 0.97453 -0.02235 0.57157
 C347 C 0.95460 -0.04165 0.56525
 O348 O 1.05327 -0.05140 0.45943
 O349 O 1.02867 -0.02239 0.42690
 C350 C 1.04692 -0.04297 0.43309
 O351 O 1.05356 -0.04858 0.54197
 O352 O 1.02557 -0.02085 0.57312
 C353 C 1.04561 -0.04012 0.56794
 O354 O 0.95122 -0.05091 0.45658
 O355 O 0.97981 -0.02358 0.42542
 C356 C 0.96022 -0.04356 0.43061
 Zr357 Zr 0.96442 -0.03474 0.49816
 O358 O 0.96396 -0.08075 0.50085
 O359 O 0.91803 -0.03416 0.49423
 Zr360 Zr 1.03886 -0.03447 0.50024
 O361 O 1.03953 -0.08042 0.50348
 O362 O 1.08540 -0.03328 0.49822
 Zr363 Zr 1.00300 0.00216 0.45586
 Zr364 Zr 1.00047 0.00239 0.54258
 O365 O 1.00092 -0.03980 0.52453
 O366 O 1.00237 -0.04035 0.47316
 O367 O 0.95800 0.00209 0.52414
 O368 O 1.04509 0.00235 0.47499
 O369 O 0.95991 0.00207 0.47268
 O370 O 1.04394 0.00249 0.52635
 H371 H 1.00086 0.06156 0.53783
 H372 H 1.06271 0.00244 0.46220
 H373 H 1.00067 -0.05693 0.53768
 H374 H 0.94312 0.00195 0.45888
 H375 H 1.09291 0.02650 0.51285
 H376 H 1.09255 -0.02331 0.51607
 H377 H 1.02619 -0.08819 0.48825
 H378 H 0.97625 -0.08824 0.48467
 H379 H 0.91015 -0.02358 0.51137
 H380 H 0.91025 0.02663 0.51043
 H381 H 0.97677 0.09250 0.48467
 H382 H 1.02701 0.09284 0.48750
 C383 C 1.09989 0.10133 0.33474
 N384 N 1.11740 0.08577 0.31652
 N385 N 1.12888 0.09798 0.29263
 C386 C 1.12279 0.12604 0.28574
 N387 N 1.10508 0.14154 0.30389
 N388 N 1.09401 0.12947 0.32806
 C389 C 1.08681 0.08753 0.36065
 N390 N 1.08038 0.10334 0.38496
 N391 N 1.06824 0.09060 0.40829
 C392 C 1.06166 0.06172 0.40789
 N393 N 1.06794 0.04601 0.38353
 N394 N 1.08054 0.05862 0.36044
 C395 C 0.90900 -0.09824 0.33204
 N396 N 0.87935 -0.10151 0.33048
 N397 N 0.86682 -0.11286 0.30668
 C398 C 0.88350 -0.12173 0.28371
 N399 N 0.91319 -0.11874 0.28536
 N400 N 0.92570 -0.10701 0.30902
 C401 C 0.92266 -0.08480 0.35791
 N402 N 0.94972 -0.07223 0.35607
 N403 N 0.96168 -0.05916 0.37927
 C404 C 0.94721 -0.05853 0.40528
 N405 N 0.92028 -0.07137 0.40722
 N406 N 0.90814 -0.08409 0.38390
 C407 C 0.89860 0.09541 0.66364
 N408 N 0.88537 0.07847 0.68418
 N409 N 0.87415 0.09027 0.70835
 C410 C 0.87621 0.11939 0.71309
 N411 N 0.88955 0.13634 0.69261
 N412 N 0.90037 0.12459 0.66821
 C413 C 0.91186 0.08215 0.63758
 N414 N 0.91573 0.09769 0.61258
 N415 N 0.92849 0.08565 0.58926
 C416 C 0.93821 0.05778 0.59031
 N417 N 0.93440 0.04232 0.61532
 N418 N 0.92124 0.05419 0.63844
 C419 C 1.09823 -0.09146 0.66682
 N420 N 1.11107 -0.07478 0.68783
 N421 N 1.12230 -0.08695 0.71174
 C422 C 1.12063 -0.11620 0.71572
 N423 N 1.10767 -0.13287 0.69477
 N424 N 1.09686 -0.12074 0.67064
 C425 C 1.08528 -0.07797 0.64082
 N426 N 1.08275 -0.09307 0.61537
 N427 N 1.07054 -0.08088 0.59193
 C428 C 1.06000 -0.05332 0.59329
 N429 N 1.06241 -0.03830 0.61878
 N430 N 1.07504 -0.05032 0.64205
 C431 C 0.33352 1.09887 1.09645
 N432 N 0.32907 1.12781 1.09261
 N433 N 0.30582 1.14078 1.10459
 C434 C 0.28646 1.12538 1.12128
 N435 N 0.29111 1.09648 1.12529
 N436 N 0.31405 1.08342 1.11289
 C437 C 0.35886 1.08442 1.08299
 N438 N 0.35711 1.05596 1.07511
 N439 N 0.38001 1.04278 1.06276
 C440 C 0.40567 1.05743 1.05835
 N441 N 0.40753 1.08584 1.06646
 N442 N 0.38444 1.09917 1.07835
 C443 C 0.33412 0.89992 0.90225
 N444 N 0.31284 0.91669 0.89032
 N445 N 0.28923 0.90455 0.87802
 C446 C 0.28570 0.87517 0.87758
 N447 N 0.30693 0.85835 0.88968
 N448 N 0.33081 0.87051 0.90163
 C449 C 0.35984 0.91368 0.91612
 N450 N 0.38571 0.89928 0.91875
 N451 N 0.40893 0.91215 0.93122
 C452 C 0.40695 0.93972 0.94184
 N453 N 0.38104 0.95398 0.93934
 N454 N 0.35801 0.94129 0.92651
 C455 C 0.66057 0.89694 1.10339
 N456 N 0.66514 0.86794 1.09992
 N457 N 0.68815 0.85513 1.11246
 C458 C 0.70714 0.87078 1.12932
 N459 N 0.70231 0.89972 1.13297
 N460 N 0.67963 0.91259 1.12005
 C461 C 0.63569 0.91137 1.08911
 N462 N 0.63784 0.93977 1.08114
 N463 N 0.61545 0.95298 1.06802
 C464 C 0.58988 0.93843 1.06292
 N465 N 0.58760 0.91009 1.07113
 N466 N 0.61020 0.89673 1.08380
 C467 C 0.66698 1.09548 0.90589
 N468 N 0.68826 1.07902 0.89337
 N469 N 0.71137 1.09154 0.88043
 C470 C 0.71433 1.12099 0.87991
 N471 N 0.69314 1.13745 0.89266
 N472 N 0.66979 1.12492 0.90522
 C473 C 0.64143 1.08160 0.91994
 N474 N 0.61565 1.09609 0.92274
 N475 N 0.59240 1.08334 0.93524
 C476 C 0.59424 1.05579 0.94580
 N477 N 0.62008 1.04138 0.94319
 N478 N 0.64318 1.05397 0.93028
 C479 C 0.10216 0.34139 0.09808
 N480 N 0.13192 0.33894 0.09763
 N481 N 0.14506 0.31702 0.11138
 C482 C 0.12895 0.29708 0.12649
 N483 N 0.09923 0.29969 0.12714
 N484 N 0.08607 0.32133 0.11303
 C485 C 0.08754 0.36531 0.08274
 N486 N 0.05924 0.36236 0.07368
 N487 N 0.04579 0.38413 0.06003
 C488 C 0.06000 0.40980 0.05534
 N489 N 0.08826 0.41281 0.06451
 N490 N 0.10187 0.39087 0.07777
 C491 C -0.10452 0.33698 -0.09836
 N492 N -0.08753 0.31503 -0.10860
 N493 N -0.09957 0.29255 -0.12270
 C494 C -0.12910 0.29098 -0.12680
 N495 N -0.14618 0.31283 -0.11640
 N496 N -0.13407 0.33555 -0.10260
 C497 C -0.09091 0.36178 -0.08307
 N498 N -0.10478 0.38782 -0.08126
 N499 N -0.09180 0.41048 -0.06817
 C500 C -0.06468 0.40777 -0.05608
 N501 N -0.05099 0.38165 -0.05765
 N502 N -0.06378 0.35914 -0.07105
 C503 C 0.09693 0.66154 -0.10487
 N504 N 0.08076 0.68451 -0.11393
 N505 N 0.09364 0.70723 -0.12684
 C506 C 0.12323 0.70804 -0.13082
 N507 N 0.13950 0.68514 -0.12161
 N508 N 0.12654 0.66219 -0.10903
 C509 C 0.08246 0.63669 -0.09049
 N510 N 0.09536 0.61013 -0.08988
 N511 N 0.08195 0.58767 -0.07693
 C512 C 0.05535 0.59106 -0.06383
 N513 N 0.04256 0.61766 -0.06431
 N514 N 0.05576 0.64000 -0.07760
 C515 C -0.09765 0.66610 0.09734
 N516 N -0.08163 0.69057 0.10281
 N517 N -0.09420 0.71389 0.11471
 C518 C -0.12335 0.71378 0.12124
 N519 N -0.13943 0.68938 0.11562
 N520 N -0.12678 0.66591 0.10402
 C521 C -0.08365 0.64046 0.08409
 N522 N -0.09665 0.61377 0.08557
 N523 N -0.08391 0.59064 0.07338
 C524 C -0.05787 0.59342 0.05901
 N525 N -0.04495 0.62012 0.05747
 N526 N -0.05750 0.64316 0.06994
 C527 C 1.10012 0.10036 0.66400
 N528 N 1.12974 0.09953 0.66754
 N529 N 1.14233 0.11210 0.69067
 C530 C 1.12579 0.12634 0.71079
 N531 N 1.09621 0.12739 0.70711
 N532 N 1.08357 0.11443 0.68422
 C533 C 1.08618 0.08610 0.63888
 N534 N 1.05789 0.07662 0.64058
 N535 N 1.04523 0.06345 0.61784
 C536 C 1.06027 0.05970 0.59245
 N537 N 1.08850 0.06937 0.59067
 N538 N 1.10132 0.08213 0.61358
 C539 C 0.89979 -0.09706 0.66103
 N540 N 0.90138 -0.12638 0.66430
 N541 N 0.88939 -0.13933 0.68756
 C542 C 0.87503 -0.12344 0.70808
 N543 N 0.87324 -0.09416 0.70466
 N544 N 0.88562 -0.08117 0.68167
 C545 C 0.91353 -0.08263 0.63589
 N546 N 0.92310 -0.05466 0.63812
 N547 N 0.93613 -0.04160 0.61552
 C548 C 0.93956 -0.05586 0.58974
 N549 N 0.92971 -0.08374 0.58739
 N550 N 0.91710 -0.09697 0.61016
 C551 C 1.10107 -0.09693 0.33645
 N552 N 1.10351 -0.12633 0.33515
 N553 N 1.11458 -0.13910 0.31143
 C554 C 1.12389 -0.12290 0.28834
 N555 N 1.12174 -0.09349 0.28977
 N556 N 1.11034 -0.08074 0.31334
 C557 C 1.08771 -0.08288 0.36191
 N558 N 1.07644 -0.05574 0.35951
 N559 N 1.06345 -0.04315 0.38229
 C560 C 1.06156 -0.05708 0.40839
 N561 N 1.07308 -0.08413 0.41093
 N562 N 1.08576 -0.09691 0.38799
 C563 C 0.91015 0.10116 0.33242
 N564 N 0.88063 0.09952 0.32833
 N565 N 0.86852 0.11021 0.30416
 C566 C 0.88545 0.12331 0.28347
 N567 N 0.91493 0.12528 0.28771
 N568 N 0.92711 0.11416 0.31168
 C569 C 0.92355 0.08819 0.35834
 N570 N 0.95150 0.07807 0.35724
 N571 N 0.96331 0.06512 0.38041
 C572 C 0.94775 0.06224 0.40561
 N573 N 0.91992 0.07267 0.40684
 N574 N 0.90794 0.08522 0.38351
 C575 C 0.09779 0.33656 -0.09700
 N576 N 0.09609 0.33217 -0.12631
 N577 N 0.10876 0.30911 -0.13858
 C578 C 0.12397 0.28992 -0.12201
 N579 N 0.12590 0.29445 -0.09273
 N580 N 0.11283 0.31725 -0.08040
 C581 C 0.08342 0.36160 -0.08341
 N582 N 0.07392 0.36018 -0.05529
 N583 N 0.06048 0.38280 -0.04302
 C584 C 0.05654 0.40779 -0.05828
 N585 N 0.06628 0.40931 -0.08632
 N586 N 0.07928 0.38652 -0.09875
 C587 C -0.10165 0.33673 0.09760
 N588 N -0.13107 0.33542 0.10279
 N589 N -0.14316 0.31173 0.11481
 C590 C -0.12618 0.28871 0.12231
 N591 N -0.09680 0.29016 0.11727
 N592 N -0.08480 0.31364 0.10497
 C593 C -0.08800 0.36230 0.08383
 N594 N -0.06116 0.35992 0.07111
 N595 N -0.04842 0.38284 0.05848
 C596 C -0.06185 0.40911 0.05842
 N597 N -0.08866 0.41163 0.07131
 N598 N -0.10160 0.38855 0.08368
 C599 C -0.09916 0.66163 -0.10370
 N600 N -0.08262 0.68155 -0.11838
 N601 N -0.09519 0.70436 -0.13110
 C602 C -0.12469 0.70830 -0.12917
 N603 N -0.14122 0.68847 -0.11437
 N604 N -0.12870 0.66540 -0.10205
 C605 C -0.08531 0.63678 -0.08932
 N606 N -0.10057 0.61164 -0.08496
 N607 N -0.08802 0.58916 -0.07161
 C608 C -0.05995 0.59123 -0.06172
 N609 N -0.04476 0.61643 -0.06593
 N610 N -0.05714 0.63874 -0.07969
 C611 C 0.10049 0.66100 0.09914
 N612 N 0.08451 0.68250 0.11170
 N613 N 0.09779 0.70374 0.12661
 C614 C 0.12753 0.70441 0.12917
 N615 N 0.14354 0.68306 0.11638
 N616 N 0.13022 0.66158 0.10182
 C617 C 0.08583 0.63714 0.08358
 N618 N 0.09924 0.61101 0.08070
 N619 N 0.08560 0.58896 0.06738
 C620 C 0.05825 0.59239 0.05610
 N621 N 0.04493 0.61862 0.05869
 N622 N 0.05842 0.64057 0.07240
 C623 C 0.33935 1.10123 0.90295
 N624 N 0.31981 1.08537 0.88702
 N625 N 0.29736 1.09827 0.87376
 C626 C 0.29339 1.12740 0.87636
 N627 N 0.31283 1.14327 0.89242
 N628 N 0.33558 1.13043 0.90531
 C629 C 0.36381 1.08685 0.91770
 N630 N 0.38928 1.10142 0.92328
 N631 N 0.41159 1.08805 0.93637
 C632 C 0.40897 1.05981 0.94476
 N633 N 0.38340 1.04535 0.93941
 N634 N 0.36130 1.05857 0.92591
 C635 C 0.33216 0.89635 1.09509
 N636 N 0.30777 0.91204 1.10140
 N637 N 0.28486 0.89962 1.11473
 C638 C 0.28541 0.87099 1.12196
 N639 N 0.30971 0.85523 1.11548
 N640 N 0.33276 0.86773 1.10241
 C641 C 0.35752 0.91025 1.08091
 N642 N 0.38434 0.89745 1.08133
 N643 N 0.40752 0.91053 1.06906
 C644 C 0.40458 0.93671 1.05568
 N645 N 0.37771 0.94937 1.05506
 N646 N 0.35462 0.93645 1.06759
 C647 C 0.66132 1.09670 1.10590
 N648 N 0.68497 1.08113 1.11455
 N649 N 0.70777 1.09428 1.12726
 C650 C 0.70796 1.12353 1.13144
 N651 N 0.68438 1.13921 1.12265
 N652 N 0.66135 1.12598 1.11025
 C653 C 0.63640 1.08199 1.09178
 N654 N 0.60944 1.09446 1.09122
 N655 N 0.58688 1.08089 1.07840
 C656 C 0.59058 1.05456 1.06543
 N657 N 0.61757 1.04216 1.06587
 N658 N 0.64003 1.05555 1.07902
 C659 C 0.66373 0.90131 0.90245
 N660 N 0.66782 0.90338 0.87312
 N661 N 0.69080 0.89072 0.86038
 C662 C 0.71019 0.87515 0.87647
 N663 N 0.70594 0.87284 0.90576
 N664 N 0.68322 0.88589 0.91857
 C665 C 0.63876 0.91565 0.91653
 N666 N 0.64041 0.92413 0.94493
 N667 N 0.61779 0.93732 0.95772
 C668 C 0.59256 0.94211 0.94269
 N669 N 0.59082 0.93346 0.91434
 N670 N 0.61363 0.92068 0.90140
   
