data_POSCAR
  _audit_creation_date              2014-09-24
  _audit_creation_method            'ToBaCCo'
  _symmetry_space_group_name_H-M    'P1'
  _symmetry_Int_Tables_number       1
  _symmetry_cell_setting            triclinic
  loop_
  _symmetry_equiv_pos_as_xyz
 x,y,z
_cell_length_a 29.4914
_cell_length_b 30.1969
_cell_length_c 29.2743
_cell_angle_alpha 92.913500
_cell_angle_beta 81.756400
_cell_angle_gamma 88.993500
loop_
  _atom_site_label
  _atom_site_type_symbol
  _atom_site_fract_x
  _atom_site_fract_y
  _atom_site_fract_z
C1 C 0.06263 0.42496 0.19367
 H2 H 0.09126 0.43084 0.21226
 C3 C 0.06037 0.38492 0.16821
 H4 H 0.08835 0.36095 0.16663
 C5 C -0.00859 0.44911 0.17398
 H6 H -0.03606 0.47384 0.17779
 C7 C -0.01141 0.41050 0.14668
 H8 H -0.04179 0.40589 0.13033
 N9 N 0.02849 0.45608 0.19579
 C10 C 0.02002 0.59857 0.21720
 H11 H 0.02377 0.60170 0.25344
 C12 C 0.01174 0.63610 0.19370
 H13 H 0.00937 0.66832 0.21201
 C14 C 0.01783 0.55255 0.14949
 H15 H 0.02124 0.52010 0.13201
 C16 C 0.00922 0.58926 0.12466
 H17 H 0.00599 0.58479 0.08834
 Zn18 Zn 0.02803 0.50911 0.23204
 N19 N 0.02172 0.55773 0.19525
 C20 C 0.12213 0.51925 0.22415
 N21 N 0.08422 0.51518 0.25601
 C22 C 0.08709 0.51667 0.30198
 C23 C 0.12969 0.52148 0.31732
 C24 C 0.16527 0.52420 0.23792
 C25 C -0.06054 0.53508 0.27510
 C26 C -0.10343 0.52828 0.30017
 C27 C -0.07195 0.46415 0.33164
 C28 C -0.02935 0.47223 0.30583
 N29 N -0.02462 0.50688 0.27767
 H30 H 0.11878 0.51830 0.18779
 H31 H 0.05644 0.51410 0.32674
 H32 H 0.13134 0.52264 0.35406
 H33 H 0.19505 0.52633 0.21186
 H34 H -0.05714 0.56122 0.25120
 H35 H -0.13183 0.54989 0.29531
 H36 H -0.07539 0.43579 0.35295
 H37 H -0.00072 0.44946 0.30629
 C38 C 0.00581 0.63156 0.14697
 C39 C 0.02310 0.37725 0.14377
 C40 C -0.11000 0.49189 0.32818
 C41 C 0.16963 0.52503 0.28506
 C42 C -0.06627 0.54846 0.85848
 H43 H -0.07058 0.51944 0.87860
 C44 C -0.06955 0.59086 0.88104
 H45 H -0.07600 0.59414 0.91843
 C46 C -0.05372 0.58028 0.78563
 H47 H -0.04958 0.57627 0.74840
 C48 C -0.05568 0.62291 0.80664
 H49 H -0.05190 0.65130 0.78536
 N50 N -0.05748 0.54392 0.81145
 C51 C -0.09341 0.40746 0.79596
 H52 H -0.10949 0.41392 0.76599
 C53 C -0.09814 0.36586 0.81462
 H54 H -0.11812 0.34132 0.79873
 C55 C -0.04422 0.42979 0.84957
 H56 H -0.02149 0.45404 0.86166
 C57 C -0.04808 0.38849 0.86937
 H58 H -0.02949 0.38211 0.89777
 Zn59 Zn -0.05028 0.48819 0.77634
 N60 N -0.06593 0.43818 0.81276
 C61 C 0.03701 0.44285 0.75748
 N62 N 0.01334 0.48019 0.74930
 C63 C 0.03551 0.51349 0.72645
 C64 C 0.08299 0.51096 0.71300
 C65 C 0.08463 0.43888 0.74447
 C66 C -0.13580 0.50144 0.74937
 C67 C -0.17000 0.50247 0.72093
 C68 C -0.11264 0.48229 0.65562
 C69 C -0.07945 0.48185 0.68559
 N70 N -0.09163 0.49084 0.73165
 H71 H 0.01929 0.41602 0.77467
 H72 H 0.01681 0.54274 0.71948
 H73 H 0.09969 0.53873 0.69631
 H74 H 0.10250 0.40890 0.75143
 H75 H -0.14477 0.50811 0.78626
 H76 H -0.20454 0.50864 0.73822
 H77 H -0.10031 0.47630 0.61927
 H78 H -0.04399 0.47396 0.67202
 C79 C -0.07431 0.35531 0.85102
 C80 C -0.06326 0.62861 0.85489
 C81 C -0.15961 0.49229 0.67267
 C82 C 0.10848 0.47346 0.72232
 C83 C 0.21630 0.04079 0.40189
 H84 H 0.19380 0.04933 0.43372
 C85 C 0.20328 0.05154 0.35965
 H86 H 0.17044 0.06803 0.35926
 C87 C 0.28570 0.00770 0.36323
 H88 H 0.31765 -0.00983 0.36501
 C89 C 0.27425 0.01822 0.32031
 H90 H 0.29701 0.00785 0.28907
 N91 N 0.25692 0.01917 0.40290
 C92 C 0.22038 -0.02062 0.53948
 H93 H 0.23203 -0.05397 0.52805
 C94 C 0.19924 -0.01231 0.58491
 H95 H 0.19424 -0.03982 0.60727
 C96 C 0.21760 0.05603 0.52606
 H97 H 0.22727 0.08277 0.50369
 C98 C 0.19658 0.06587 0.57155
 H99 H 0.18840 0.10006 0.58320
 Zn100 Zn 0.27649 0.00382 0.45922
 N101 N 0.23037 0.01347 0.51145
 C102 C 0.32704 0.05119 0.51766
 N103 N 0.32344 0.04241 0.47222
 C104 C 0.34005 0.07068 0.43957
 C105 C 0.35685 0.11147 0.45258
 C106 C 0.34275 0.09219 0.53235
 C107 C 0.26416 -0.08584 0.43870
 C108 C 0.27347 -0.13151 0.43573
 C109 C 0.34655 -0.11707 0.46091
 C110 C 0.33584 -0.07157 0.46337
 N111 N 0.29486 -0.05700 0.45301
 H112 H 0.31288 0.02856 0.54313
 H113 H 0.33638 0.06383 0.40383
 H114 H 0.36657 0.13484 0.42626
 H115 H 0.34209 0.10024 0.56891
 H116 H 0.23182 -0.07328 0.43063
 H117 H 0.24788 -0.15387 0.42575
 H118 H 0.37921 -0.12812 0.46964
 H119 H 0.35979 -0.04799 0.47438
 C120 C 0.18830 0.03152 0.60201
 C121 C 0.23231 0.03993 0.31815
 C122 C 0.31484 -0.14781 0.44760
 C123 C 0.35602 0.12356 0.49965
 C124 C 0.72748 -0.00800 0.63397
 H125 H 0.69109 -0.01045 0.63371
 C126 C 0.74516 -0.01697 0.67427
 H127 H 0.72191 -0.02366 0.70513
 C128 C 0.80203 -0.00024 0.59315
 H129 H 0.82407 0.00410 0.56094
 C130 C 0.82124 -0.00860 0.63312
 H131 H 0.85816 -0.00939 0.63156
 N132 N 0.75577 -0.00038 0.59425
 C133 C 0.76316 -0.04890 0.45612
 H134 H 0.73721 -0.07244 0.46677
 C135 C 0.78984 -0.05638 0.41309
 H136 H 0.78314 -0.08563 0.39244
 C137 C 0.79919 0.01903 0.46844
 H138 H 0.80255 0.04851 0.49016
 C139 C 0.82550 0.01375 0.42436
 H140 H 0.84967 0.03906 0.41356
 Zn141 Zn 0.72629 -0.00449 0.54049
 N142 N 0.76822 -0.01194 0.48335
 C143 C 0.69275 0.07157 0.50134
 N144 N 0.68564 0.04599 0.53861
 C145 C 0.65230 0.05759 0.57469
 C146 C 0.62628 0.09695 0.57506
 C147 C 0.66776 0.11124 0.50041
 C148 C 0.72530 -0.09198 0.55474
 C149 C 0.70984 -0.13451 0.56190
 C150 C 0.63281 -0.10738 0.55868
 C151 C 0.65001 -0.06497 0.55109
 N152 N 0.69573 -0.05845 0.54865
 H153 H 0.71838 0.06178 0.47233
 H154 H 0.64613 0.03685 0.60373
 H155 H 0.60096 0.10607 0.60477
 H156 H 0.67452 0.13113 0.47055
 H157 H 0.76148 -0.08566 0.55303
 H158 H 0.73465 -0.16078 0.56450
 H159 H 0.59635 -0.11230 0.56045
 H160 H 0.62708 -0.03754 0.54710
 C161 C 0.82143 -0.02474 0.39580
 C162 C 0.79258 -0.01804 0.67410
 C163 C 0.66312 -0.14294 0.56368
 C164 C 0.63450 0.12490 0.53796
 C165 C 0.58283 0.18940 0.93747
 H166 H 0.57100 0.19764 0.90559
 C167 C 0.62762 0.17325 0.93641
 H168 H 0.64989 0.16846 0.90367
 C169 C 0.56989 0.18897 1.01921
 H170 H 0.54822 0.19728 1.05155
 C171 C 0.61395 0.17200 1.01973
 H172 H 0.62551 0.16691 1.05260
 N173 N 0.55657 0.20038 0.97875
 C174 C 0.41710 0.25560 1.01118
 H175 H 0.42476 0.28972 1.01953
 C176 C 0.37169 0.24191 1.01788
 H177 H 0.34532 0.26669 1.03036
 C178 C 0.44313 0.18374 0.98220
 H179 H 0.47125 0.16119 0.96844
 C180 C 0.39816 0.16866 0.98778
 H181 H 0.39322 0.13396 0.97940
 Zn182 Zn 0.51278 0.24738 0.98349
 N183 N 0.45172 0.22662 0.99358
 C184 C 0.48629 0.29405 0.91039
 N185 N 0.52269 0.27938 0.92944
 C186 C 0.56643 0.28728 0.91022
 C187 C 0.57498 0.30812 0.86865
 C188 C 0.49321 0.31660 0.86977
 C189 C 0.50392 0.27569 1.07651
 C190 C 0.51509 0.29908 1.11529
 C191 C 0.56800 0.34201 1.06563
 C192 C 0.55601 0.31745 1.02763
 N193 N 0.52433 0.28513 1.03370
 H194 H 0.45182 0.28836 0.92668
 H195 H 0.59497 0.27627 0.92653
 H196 H 0.61013 0.31163 0.85292
 H197 H 0.46352 0.32886 0.85605
 H198 H 0.47984 0.24908 1.08058
 H199 H 0.49892 0.29053 1.14918
 H200 H 0.59263 0.36810 1.06033
 H201 H 0.57241 0.32417 0.99348
 C202 C 0.36103 0.19777 1.00581
 C203 C 0.64421 0.16686 0.97818
 C204 C 0.54718 0.33303 1.11008
 C205 C 0.53809 0.32266 0.84744
 C206 C 0.46375 0.81887 0.96429
 H207 H 0.49602 0.82413 0.94285
 C208 C 0.42623 0.84680 0.96183
 H209 H 0.42999 0.87376 0.93865
 C210 C 0.41932 0.77610 1.01901
 H211 H 0.41702 0.74870 1.04152
 C212 C 0.38028 0.80115 1.01526
 H213 H 0.34828 0.79321 1.03596
 N214 N 0.46016 0.78593 0.99448
 C215 C 0.60667 0.76440 0.98869
 H216 H 0.60957 0.72859 0.98720
 C217 C 0.64616 0.78956 0.98239
 H218 H 0.67950 0.77299 0.97569
 C219 C 0.56015 0.82982 1.00156
 H220 H 0.52689 0.84558 1.01177
 C221 C 0.59852 0.85619 0.99476
 H222 H 0.59436 0.89196 0.99871
 Zn223 Zn 0.51096 0.75038 1.00154
 N224 N 0.56458 0.78480 0.99616
 C225 C 0.54785 0.69842 0.91955
 N226 N 0.51275 0.70406 0.95511
 C227 C 0.47413 0.67983 0.95604
 C228 C 0.46944 0.64886 0.92008
 C229 C 0.54504 0.66702 0.88347
 C230 C 0.50201 0.68470 1.06837
 C231 C 0.49222 0.66990 1.11304
 C232 C 0.48039 0.74611 1.14250
 C233 C 0.49093 0.75948 1.09733
 N234 N 0.50105 0.72884 1.06143
 H235 H 0.57732 0.71920 0.91802
 H236 H 0.44633 0.68546 0.98422
 H237 H 0.43826 0.63033 0.92080
 H238 H 0.57295 0.66313 0.85505
 H239 H 0.51027 0.66099 1.03930
 H240 H 0.49302 0.63463 1.11812
 H241 H 0.47260 0.77087 1.17076
 H242 H 0.49037 0.79438 1.09067
 C243 C 0.64206 0.83603 0.98448
 C244 C 0.38369 0.83790 0.98742
 C245 C 0.48112 0.70081 1.15074
 C246 C 0.50521 0.64235 0.88331
 B247 B 1.01133 1.04641 0.03094
 B248 B 1.00877 1.04567 -0.02762
 B249 B 1.05758 1.02556 -0.00804
 B250 B 1.04061 0.99945 0.04248
 B251 B 0.98161 1.00214 0.05375
 B252 B 0.96125 1.03054 0.01104
 B253 B 1.00617 0.95263 -0.03009
 B254 B 1.00951 0.95365 0.02847
 B255 B 0.96038 0.97343 0.00884
 B256 B 0.97718 1.00033 -0.04184
 B257 B 1.03607 0.99714 -0.05297
 B258 B 1.05574 0.96836 -0.00890
 B259 B 0.54294 0.50664 0.47180
 B260 B 0.53377 0.50528 0.53136
 B261 B 0.51327 0.54965 0.50550
 B262 B 0.49489 0.53038 0.45445
 B263 B 0.50255 0.47348 0.44928
 B264 B 0.52770 0.45690 0.49741
 B265 B 0.43947 0.49457 0.52943
 B266 B 0.44884 0.49699 0.46990
 B267 B 0.46926 0.45106 0.49506
 B268 B 0.48843 0.46977 0.54528
 B269 B 0.47880 0.52579 0.55216
 B270 B 0.45597 0.54375 0.50468
 C271 C 1.03489 1.29666 0.13415
 C272 C 1.02745 1.25604 0.11155
 C273 C 1.00629 1.25531 0.07116
 C274 C 0.99221 1.29511 0.05450
 C275 C 0.99788 1.33532 0.07832
 C276 C 1.01925 1.33678 0.11852
 C277 C 0.99862 1.21475 0.04866
 C278 C 1.01048 1.17487 0.06696
 C279 C 1.03019 1.17554 0.10797
 C280 C 1.03931 1.21608 0.12975
 C281 C 1.03854 1.13558 0.12746
 C282 C 1.02943 1.09547 0.10522
 C283 C 1.01452 1.09343 0.06128
 C284 C 1.00228 1.13433 0.04488
 H285 H 1.04998 1.29648 0.16579
 H286 H 0.97606 1.29510 0.02349
 H287 H 0.98660 1.36542 0.06428
 H288 H 0.98278 1.21421 0.01738
 H289 H 1.05462 1.21653 0.16132
 H290 H 1.05103 1.13528 0.16051
 H291 H 1.03175 1.06686 0.12468
 H292 H 0.98552 1.13593 0.01544
 C293 C 1.02508 0.70824 0.12681
 C294 C 1.01711 0.74719 0.10532
 C295 C 0.98166 0.74963 0.07767
 C296 C 0.95531 0.71214 0.07136
 C297 C 0.96355 0.67311 0.09310
 C298 C 0.99806 0.67128 0.12154
 C299 C 0.97322 0.78954 0.05727
 C300 C 0.99997 0.82670 0.06439
 C301 C 1.03583 0.82320 0.09106
 C302 C 1.04420 0.78376 0.11144
 C303 C 1.06414 0.85873 0.09550
 C304 C 1.05610 0.89789 0.07507
 C305 C 1.01715 0.90553 0.05271
 C306 C 0.99180 0.86716 0.04489
 H307 H 1.05240 0.70666 0.14791
 H308 H 0.92815 0.71314 0.05010
 H309 H 0.94234 0.64475 0.08864
 H310 H 0.94586 0.79174 0.03629
 H311 H 1.07185 0.78152 0.13209
 H312 H 1.09390 0.85574 0.11312
 H313 H 1.08348 0.92070 0.07454
 H314 H 0.96566 0.86761 0.02348
 C315 C 0.96646 1.28954 -0.12220
 C316 C 0.96774 1.24508 -0.11022
 C317 C 0.92804 1.21940 -0.10912
 C318 C 0.88761 1.23883 -0.11984
 C319 C 0.88648 1.28320 -0.13143
 C320 C 0.92590 1.30908 -0.13307
 C321 C 0.92945 1.17487 -0.09719
 C322 C 0.96964 1.15621 -0.08473
 C323 C 1.00932 1.18161 -0.08722
 C324 C 1.00837 1.22574 -0.09996
 C325 C 1.04962 1.16225 -0.07739
 C326 C 1.05009 1.11915 -0.06258
 C327 C 1.01023 1.09357 -0.05471
 C328 C 0.97055 1.11289 -0.06892
 H329 H 0.99746 1.30852 -0.12425
 H330 H 0.85687 1.21968 -0.11938
 H331 H 0.85463 1.29726 -0.13922
 H332 H 0.89927 1.15493 -0.09724
 H333 H 1.03912 1.24512 -0.10145
 H334 H 1.08115 1.18050 -0.08106
 H335 H 1.08290 1.10747 -0.05834
 H336 H 0.93953 1.09434 -0.06748
 C337 C 0.97203 0.70249 -0.13397
 C338 C 0.97010 0.74637 -0.11516
 C339 C 0.93032 0.76252 -0.08585
 C340 C 0.89388 0.73387 -0.07450
 C341 C 0.89657 0.68985 -0.09251
 C342 C 0.93530 0.67402 -0.12290
 C343 C 0.92787 0.80684 -0.06813
 C344 C 0.96559 0.83455 -0.07756
 C345 C 1.00573 0.81773 -0.10533
 C346 C 1.00748 0.77420 -0.12488
 C347 C 1.04380 0.84457 -0.11246
 C348 C 1.04305 0.88648 -0.08996
 C349 C 1.00405 0.90422 -0.06012
 C350 C 0.96431 0.87824 -0.05802
 H351 H 1.00220 0.69028 -0.15710
 H352 H 0.86328 0.74552 -0.05176
 H353 H 0.86787 0.66847 -0.08376
 H354 H 0.89719 0.81933 -0.04594
 H355 H 1.03831 0.76166 -0.14677
 H356 H 1.07493 0.83259 -0.13415
 H357 H 1.07422 0.90493 -0.09561
 H358 H 0.93248 0.88972 -0.03890
 C359 C 1.17287 1.02938 0.26723
 C360 C 1.15777 1.02921 0.22416
 C361 C 1.18529 1.04613 0.18572
 C362 C 1.22840 1.06285 0.19168
 C363 C 1.24398 1.06166 0.23486
 C364 C 1.21613 1.04492 0.27296
 C365 C 1.16949 1.04479 0.14223
 C366 C 1.12734 1.02503 0.13691
 C367 C 1.10141 1.00757 0.17588
 C368 C 1.11601 1.01053 0.21902
 C369 C 1.06182 0.98542 0.17114
 C370 C 1.04730 0.98114 0.12859
 C371 C 1.06884 1.00020 0.08845
 C372 C 1.11063 1.02177 0.09367
 H373 H 1.15165 1.01538 0.29607
 H374 H 1.25039 1.07586 0.16284
 H375 H 1.27772 1.07365 0.23853
 H376 H 1.19028 1.05797 0.11265
 H377 H 1.09535 0.99692 0.24852
 H378 H 1.04263 0.96973 0.20013
 H379 H 1.02065 0.95906 0.12708
 H380 H 1.13089 1.03601 0.06551
 C381 C 1.13985 1.01156 -0.32524
 C382 C 1.12691 1.01615 -0.27733
 C383 C 1.14380 1.05107 -0.25109
 C384 C 1.17344 1.08133 -0.27411
 C385 C 1.18687 1.07611 -0.32216
 C386 C 1.17069 1.04069 -0.34807
 C387 C 1.13090 1.05463 -0.20257
 C388 C 1.10151 1.02337 -0.18040
 C389 C 1.08497 0.98916 -0.20766
 C390 C 1.09758 0.98565 -0.25547
 C391 C 1.05387 0.95996 -0.18721
 C392 C 1.03953 0.96391 -0.14019
 C393 C 1.05808 0.99415 -0.10947
 C394 C 1.08733 1.02606 -0.13188
 H395 H 1.12636 0.98465 -0.34480
 H396 H 1.18690 1.10846 -0.25490
 H397 H 1.21108 1.09891 -0.33879
 H398 H 1.14376 1.08138 -0.18228
 H399 H 1.08432 0.95911 -0.27580
 H400 H 1.03833 0.93537 -0.20797
 H401 H 1.00992 0.94510 -0.12972
 H402 H 1.09775 1.05426 -0.11282
 C403 C 0.85879 1.00451 0.32254
 C404 C 0.87962 0.99706 0.27624
 C405 C 0.89065 0.95330 0.25813
 C406 C 0.88042 0.91776 0.28632
 C407 C 0.85838 0.92519 0.33161
 C408 C 0.84664 0.96857 0.35063
 C409 C 0.91128 0.94566 0.21199
 C410 C 0.92027 0.98123 0.18320
 C411 C 0.90859 1.02474 0.20102
 C412 C 0.88859 1.03257 0.24737
 C413 C 0.91682 1.05975 0.17201
 C414 C 0.93792 1.05196 0.12646
 C415 C 0.95354 1.00912 0.10783
 C416 C 0.94153 0.97381 0.13711
 H417 H 0.84950 1.03819 0.33542
 H418 H 0.88897 0.88400 0.27316
 H419 H 0.85170 0.89654 0.35208
 H420 H 0.92001 0.91201 0.19841
 H421 H 0.87979 1.06623 0.26084
 H422 H 0.90647 1.09337 0.18434
 H423 H 0.93975 1.08030 0.10567
 H424 H 0.95283 0.94046 0.12664
 C425 C 0.84631 0.99839 -0.26938
 C426 C 0.86379 0.99098 -0.22838
 C427 C 0.84749 0.95618 -0.20038
 C428 C 0.81289 0.92946 -0.21433
 C429 C 0.79500 0.93749 -0.25524
 C430 C 0.81179 0.97200 -0.28319
 C431 C 0.86602 0.94920 -0.15918
 C432 C 0.90007 0.97733 -0.14570
 C433 C 0.91516 1.01186 -0.17442
 C434 C 0.89738 1.01842 -0.21517
 C435 C 0.94985 1.03843 -0.16353
 C436 C 0.96833 1.03249 -0.12371
 C437 C 0.95153 1.00261 -0.08973
 C438 C 0.91989 0.97171 -0.10470
 H439 H 0.85889 1.02556 -0.29014
 H440 H 0.79954 0.90262 -0.19358
 H441 H 0.76830 0.91651 -0.26525
 H442 H 0.85375 0.92247 -0.13766
 H443 H 0.90995 1.04500 -0.23685
 H444 H 0.96427 1.06304 -0.18684
 H445 H 0.99892 1.05038 -0.12268
 H446 H 0.91151 0.94254 -0.08618
 C447 C 1.30148 1.14743 -0.01639
 C448 C 1.25596 1.13324 -0.01117
 C449 C 1.22256 1.15463 0.02247
 C450 C 1.23524 1.19029 0.04996
 C451 C 1.28051 1.20456 0.04438
 C452 C 1.31480 1.18335 0.01129
 C453 C 1.17719 1.13984 0.02823
 C454 C 1.16490 1.10370 0.00073
 C455 C 1.19827 1.08301 -0.03335
 C456 C 1.24342 1.09786 -0.03924
 C457 C 1.18626 1.04710 -0.06050
 C458 C 1.14226 1.03049 -0.05273
 C459 C 1.10810 1.04882 -0.01761
 C460 C 1.12013 1.08723 0.00761
 H461 H 1.32586 1.13123 -0.04351
 H462 H 1.21018 1.20700 0.07617
 H463 H 1.28857 1.23121 0.06773
 H464 H 1.15169 1.15600 0.05447
 H465 H 1.26895 1.08144 -0.06527
 H466 H 1.21140 1.03068 -0.08685
 H467 H 1.13629 1.00069 -0.07266
 H468 H 1.09593 1.10376 0.03389
 C469 C 0.70802 1.12715 0.00704
 C470 C 0.75437 1.12222 0.01141
 C471 C 0.78699 1.15047 -0.01140
 C472 C 0.77230 1.18323 -0.03862
 C473 C 0.72595 1.18743 -0.04353
 C474 C 0.69356 1.15951 -0.02056
 C475 C 0.83367 1.14454 -0.00754
 C476 C 0.84822 1.10839 0.01552
 C477 C 0.81511 1.08148 0.03909
 C478 C 0.76852 1.08900 0.03793
 C479 C 0.82922 1.04692 0.06319
 C480 C 0.87523 1.03487 0.05797
 C481 C 0.90955 1.05576 0.02756
 C482 C 0.89517 1.09721 0.01354
 H483 H 0.68310 1.10562 0.02487
 H484 H 0.79657 1.20539 -0.05620
 H485 H 0.71517 1.21331 -0.06422
 H486 H 0.85857 1.16656 -0.02426
 H487 H 0.74345 1.06769 0.05595
 H488 H 0.80453 1.02727 0.08395
 H489 H 0.88184 1.00650 0.07656
 H490 H 0.91890 1.12147 0.00160
 C491 C 1.30226 0.84589 -0.01533
 C492 C 1.26304 0.87252 -0.01411
 C493 C 1.26595 0.91911 -0.00881
 C494 C 1.30882 0.93840 -0.00906
 C495 C 1.34835 0.91156 -0.01309
 C496 C 1.34514 0.86504 -0.01425
 C497 C 1.22595 0.94548 -0.00351
 C498 C 1.18378 0.92588 -0.00696
 C499 C 1.18164 0.87990 -0.01613
 C500 C 1.22101 0.85314 -0.01825
 C501 C 1.13973 0.86142 -0.02124
 C502 C 1.10091 0.88872 -0.01935
 C503 C 1.10212 0.93559 -0.01301
 C504 C 1.14368 0.95184 -0.00153
 H505 H 1.29957 0.81011 -0.01848
 H506 H 1.31174 0.97412 -0.00594
 H507 H 1.38097 0.92724 -0.01212
 H508 H 1.22774 0.98117 0.00218
 H509 H 1.21901 0.81743 -0.02347
 H510 H 1.13664 0.82581 -0.02592
 H511 H 1.06939 0.87156 -0.01865
 H512 H 1.14583 0.98460 0.01265
 C513 C 0.71775 0.85551 0.00606
 C514 C 0.75603 0.88236 0.00336
 C515 C 0.76045 0.91742 -0.02714
 C516 C 0.72572 0.92526 -0.05406
 C517 C 0.68707 0.89869 -0.05051
 C518 C 0.68309 0.86353 -0.02064
 C519 C 0.79942 0.94384 -0.03003
 C520 C 0.83383 0.93529 -0.00285
 C521 C 0.82826 0.90108 0.02832
 C522 C 0.78968 0.87475 0.03121
 C523 C 0.86111 0.89416 0.05689
 C524 C 0.90064 0.91871 0.05232
 C525 C 0.91056 0.94919 0.01780
 C526 C 0.87399 0.96004 -0.00643
 H527 H 0.71434 0.82889 0.02975
 H528 H 0.72831 0.95197 -0.07758
 H529 H 0.66040 0.90534 -0.07129
 H530 H 0.80327 0.97043 -0.05375
 H531 H 0.78589 0.84829 0.05510
 H532 H 0.85659 0.86936 0.08257
 H533 H 0.92363 0.91176 0.07544
 H534 H 0.87582 0.98878 -0.02690
 C535 C 0.81148 0.51619 0.36717
 C536 C 0.76534 0.50747 0.38210
 C537 C 0.75014 0.46334 0.38136
 C538 C 0.78184 0.42860 0.36635
 C539 C 0.82774 0.43765 0.35077
 C540 C 0.84290 0.48159 0.35025
 C541 C 0.70350 0.45490 0.39506
 C542 C 0.67214 0.49014 0.40978
 C543 C 0.68772 0.53396 0.41036
 C544 C 0.73401 0.54248 0.39657
 C545 C 0.65617 0.56879 0.42281
 C546 C 0.61053 0.56003 0.43821
 C547 C 0.59501 0.51650 0.44522
 C548 C 0.62548 0.48241 0.42451
 H549 H 0.82274 0.55017 0.36782
 H550 H 0.77094 0.39453 0.36557
 H551 H 0.85093 0.41032 0.33745
 H552 H 0.69173 0.42107 0.39457
 H553 H 0.74556 0.57640 0.39669
 H554 H 0.66647 0.60290 0.41961
 H555 H 0.58755 0.58787 0.44018
 H556 H 0.61339 0.44941 0.42055
 C557 C 0.22618 0.50185 0.33597
 C558 C 0.26930 0.50377 0.35077
 C559 C 0.30307 0.53191 0.32979
 C560 C 0.29275 0.55765 0.29383
 C561 C 0.24947 0.55562 0.27925
 C562 C 0.21563 0.52786 0.30037
 C563 C 0.34611 0.53402 0.34555
 C564 C 0.35505 0.50906 0.38283
 C565 C 0.32097 0.48090 0.40290
 C566 C 0.27877 0.47803 0.38666
 C567 C 0.32927 0.45605 0.43945
 C568 C 0.36950 0.46118 0.45812
 C569 C 0.40361 0.49129 0.44196
 C570 C 0.39691 0.51220 0.40109
 H571 H 0.20089 0.47962 0.35196
 H572 H 0.31798 0.57956 0.27721
 H573 H 0.24226 0.57624 0.25184
 H574 H 0.37197 0.55583 0.32976
 H575 H 0.25288 0.45631 0.40263
 H576 H 0.30381 0.43375 0.45501
 H577 H 0.37180 0.44348 0.48797
 H578 H 0.42369 0.52985 0.38247
 C579 C 0.76250 0.51180 0.65837
 C580 C 0.72753 0.50911 0.63020
 C581 C 0.73593 0.48590 0.58671
 C582 C 0.77920 0.46635 0.57186
 C583 C 0.81384 0.46902 0.59987
 C584 C 0.80662 0.49132 0.64433
 C585 C 0.70093 0.48255 0.55877
 C586 C 0.65737 0.50204 0.57401
 C587 C 0.64937 0.52630 0.61677
 C588 C 0.68429 0.52971 0.64476
 C589 C 0.60744 0.54904 0.62917
 C590 C 0.57318 0.54510 0.60080
 C591 C 0.57710 0.51513 0.56149
 C592 C 0.62196 0.49849 0.54658
 H593 H 0.75497 0.53170 0.69037
 H594 H 0.78619 0.44825 0.53857
 H595 H 0.84534 0.45105 0.58670
 H596 H 0.70742 0.46442 0.52543
 H597 H 0.67785 0.54850 0.67770
 H598 H 0.60169 0.57131 0.65976
 H599 H 0.54509 0.56882 0.60782
 H600 H 0.63121 0.48701 0.51211
 C601 C 0.17806 0.48736 0.66568
 C602 C 0.22550 0.48628 0.65146
 C603 C 0.25573 0.46746 0.67886
 C604 C 0.23700 0.44979 0.72080
 C605 C 0.18924 0.45119 0.73503
 C606 C 0.15924 0.47034 0.70767
 C607 C 0.30370 0.46665 0.66349
 C608 C 0.32116 0.48398 0.62064
 C609 C 0.28982 0.50312 0.59475
 C610 C 0.24281 0.50416 0.60993
 C611 C 0.30573 0.52224 0.55404
 C612 C 0.35173 0.51989 0.53704
 C613 C 0.38505 0.49675 0.55743
 C614 C 0.36889 0.48297 0.60285
 H615 H 0.15563 0.50124 0.64352
 H616 H 0.25920 0.43511 0.74265
 H617 H 0.17588 0.43796 0.76782
 H618 H 0.32703 0.45205 0.68427
 H619 H 0.21950 0.51905 0.58920
 H620 H 0.28239 0.53873 0.53452
 H621 H 0.35956 0.53500 0.50544
 H622 H 0.39256 0.47423 0.62581
 C623 C 0.50269 0.65432 0.21228
 C624 C 0.49563 0.63938 0.25711
 C625 C 0.45776 0.65565 0.28908
 C626 C 0.42786 0.68748 0.27540
 C627 C 0.43544 0.70261 0.23049
 C628 C 0.47269 0.68575 0.19851
 C629 C 0.45059 0.63962 0.33385
 C630 C 0.48105 0.60761 0.34671
 C631 C 0.51880 0.59238 0.31452
 C632 C 0.52605 0.60819 0.27017
 C633 C 0.54866 0.56088 0.32687
 C634 C 0.54074 0.54371 0.37019
 C635 C 0.50311 0.55641 0.40422
 C636 C 0.47395 0.58989 0.39079
 H637 H 0.53198 0.64178 0.18809
 H638 H 0.39867 0.70055 0.29932
 H639 H 0.41184 0.72695 0.22048
 H640 H 0.42136 0.65171 0.35836
 H641 H 0.55519 0.59585 0.24562
 H642 H 0.57812 0.54874 0.30269
 H643 H 0.56535 0.51964 0.37513
 H644 H 0.44436 0.60151 0.41296
 C645 C 0.46602 0.61695 0.81661
 C646 C 0.46612 0.59091 0.77539
 C647 C 0.50064 0.55755 0.76287
 C648 C 0.53360 0.55008 0.79182
 C649 C 0.53412 0.57706 0.83175
 C650 C 0.50094 0.61100 0.84401
 C651 C 0.50344 0.53390 0.72032
 C652 C 0.47408 0.54497 0.68884
 C653 C 0.43872 0.57680 0.70136
 C654 C 0.43406 0.59911 0.74522
 C655 C 0.40965 0.58598 0.66900
 C656 C 0.41955 0.56774 0.62342
 C657 C 0.46062 0.54274 0.60764
 C658 C 0.48224 0.52673 0.64368
 H659 H 0.44060 0.64346 0.82597
 H660 H 0.56016 0.52461 0.78255
 H661 H 0.56101 0.57206 0.85273
 H662 H 0.53062 0.50907 0.71037
 H663 H 0.40733 0.62439 0.75473
 H664 H 0.37988 0.60779 0.67852
 H665 H 0.39457 0.57401 0.60099
 H666 H 0.50983 0.50358 0.63660
 C667 C 0.51909 0.37276 0.18455
 C668 C 0.52590 0.39229 0.22694
 C669 C 0.57048 0.40208 0.23612
 C670 C 0.60784 0.39222 0.20127
 C671 C 0.60080 0.37088 0.15911
 C672 C 0.55626 0.35999 0.15121
 C673 C 0.57650 0.42004 0.28029
 C674 C 0.53844 0.42601 0.31545
 C675 C 0.49473 0.41476 0.30513
 C676 C 0.48843 0.39949 0.26106
 C677 C 0.45792 0.41582 0.33979
 C678 C 0.46362 0.42972 0.38395
 C679 C 0.50440 0.44835 0.39601
 C680 C 0.54301 0.44222 0.36080
 H681 H 0.48453 0.36564 0.17817
 H682 H 0.64243 0.39944 0.20723
 H683 H 0.63010 0.36152 0.13351
 H684 H 0.61054 0.42791 0.28763
 H685 H 0.45439 0.39099 0.25397
 H686 H 0.42483 0.40378 0.33338
 H687 H 0.43527 0.42238 0.40877
 H688 H 0.57660 0.45025 0.36665
 C689 C 0.51375 0.33706 0.77123
 C690 C 0.51866 0.35808 0.72959
 C691 C 0.55818 0.38269 0.71602
 C692 C 0.59166 0.38669 0.74533
 C693 C 0.58525 0.36757 0.78823
 C694 C 0.54604 0.34269 0.80175
 C695 C 0.56251 0.40420 0.67433
 C696 C 0.52600 0.40432 0.64842
 C697 C 0.48598 0.38116 0.66334
 C698 C 0.48331 0.35654 0.70257
 C699 C 0.44846 0.38438 0.63979
 C700 C 0.44952 0.41266 0.60376
 C701 C 0.48802 0.43744 0.58860
 C702 C 0.52782 0.42926 0.60923
 H703 H 0.48409 0.31688 0.78004
 H704 H 0.62197 0.40586 0.73583
 H705 H 0.61062 0.37312 0.81105
 H706 H 0.59288 0.42297 0.66360
 H707 H 0.45256 0.33840 0.71361
 H708 H 0.41749 0.36649 0.65037
 H709 H 0.41954 0.41477 0.58825
 H710 H 0.55985 0.44375 0.59666
 C711 C 0.61402 0.79568 0.54069
 C712 C 0.60289 0.75086 0.53879
 C713 C 0.62550 0.72003 0.56311
 C714 C 0.65780 0.73523 0.59059
 C715 C 0.66845 0.78019 0.59270
 C716 C 0.64739 0.81071 0.56693
 C717 C 0.61550 0.67471 0.55926
 C718 C 0.58195 0.66034 0.53264
 C719 C 0.55924 0.69169 0.50933
 C720 C 0.56997 0.73645 0.51206
 C721 C 0.52661 0.67769 0.48266
 C722 C 0.51441 0.63367 0.48147
 C723 C 0.53298 0.60117 0.50721
 C724 C 0.57072 0.61524 0.52878
 H725 H 0.59795 0.81847 0.52009
 H726 H 0.67513 0.71235 0.61004
 H727 H 0.69373 0.79095 0.61400
 H728 H 0.63307 0.65091 0.57754
 H729 H 0.55260 0.76012 0.49341
 H730 H 0.50932 0.70102 0.46359
 H731 H 0.48748 0.62675 0.46238
 H732 H 0.59453 0.59206 0.53875
 C733 C 0.63271 0.20628 0.52285
 C734 C 0.60942 0.24742 0.52353
 C735 C 0.56203 0.25101 0.54024
 C736 C 0.53880 0.21332 0.55609
 C737 C 0.56227 0.17250 0.55543
 C738 C 0.60941 0.16840 0.53870
 C739 C 0.53874 0.29215 0.54061
 C740 C 0.56223 0.32962 0.52389
 C741 C 0.60918 0.32583 0.50766
 C742 C 0.63279 0.28503 0.50769
 C743 C 0.63190 0.36324 0.49214
 C744 C 0.60809 0.40345 0.49058
 C745 C 0.55980 0.40914 0.50245
 C746 C 0.53907 0.37063 0.52261
 H747 H 0.66916 0.20389 0.51049
 H748 H 0.50243 0.21537 0.56884
 H749 H 0.54335 0.14390 0.56744
 H750 H 0.50233 0.29483 0.55327
 H751 H 0.66921 0.28249 0.49505
 H752 H 0.66865 0.36163 0.48118
 H753 H 0.63074 0.42833 0.48041
 H754 H 0.50366 0.37064 0.53670
 C755 C 0.34460 0.78655 0.48423
 C756 C 0.35394 0.74097 0.48535
 C757 C 0.34200 0.71117 0.45047
 C758 C 0.32046 0.72794 0.41496
 C759 C 0.31157 0.77366 0.41384
 C760 C 0.32392 0.80350 0.44828
 C761 C 0.35293 0.66553 0.45121
 C762 C 0.37752 0.64992 0.48530
 C763 C 0.38923 0.68030 0.51965
 C764 C 0.37638 0.72512 0.52030
 C765 C 0.41646 0.66623 0.55120
 C766 C 0.43525 0.62362 0.54656
 C767 C 0.42495 0.59124 0.51284
 C768 C 0.39335 0.60527 0.48384
 H769 H 0.35349 0.80893 0.51153
 H770 H 0.31112 0.70582 0.38770
 H771 H 0.29571 0.78575 0.38559
 H772 H 0.34425 0.64267 0.42419
 H773 H 0.38597 0.74813 0.54678
 H774 H 0.42669 0.68934 0.57719
 H775 H 0.46141 0.61782 0.56786
 H776 H 0.38396 0.58293 0.45711
 C777 C 0.40034 0.19231 0.48855
 C778 C 0.40390 0.23820 0.49481
 C779 C 0.37217 0.26282 0.52765
 C780 C 0.33774 0.24022 0.55469
 C781 C 0.33388 0.19420 0.54764
 C782 C 0.36459 0.17013 0.51367
 C783 C 0.37529 0.30939 0.53220
 C784 C 0.41019 0.33118 0.50452
 C785 C 0.44152 0.30563 0.47227
 C786 C 0.43825 0.25973 0.46750
 C787 C 0.47685 0.32596 0.44575
 C788 C 0.48333 0.37072 0.45295
 C789 C 0.45350 0.39878 0.48512
 C790 C 0.41521 0.37768 0.50927
 H791 H 0.42447 0.17391 0.46269
 H792 H 0.31306 0.25824 0.58024
 H793 H 0.30564 0.17778 0.56717
 H794 H 0.35105 0.32843 0.55736
 H795 H 0.46266 0.24065 0.44245
 H796 H 0.50168 0.30669 0.42139
 H797 H 0.51536 0.38170 0.43546
 H798 H 0.38928 0.39622 0.53243
   
