data_POSCAR
  _audit_creation_date              2014-09-24
  _audit_creation_method            'ToBaCCo'
  _symmetry_space_group_name_H-M    'P1'
  _symmetry_Int_Tables_number       1
  _symmetry_cell_setting            triclinic
  loop_
  _symmetry_equiv_pos_as_xyz
 x,y,z
_cell_length_a 45.7216
_cell_length_b 45.7095
_cell_length_c 45.7311
_cell_angle_alpha 90.018200
_cell_angle_beta 90.020400
_cell_angle_gamma 90.019100
loop_
  _atom_site_label
  _atom_site_type_symbol
  _atom_site_fract_x
  _atom_site_fract_y
  _atom_site_fract_z
O1 O 0.32073 0.36169 0.02795
 O2 O 0.36101 0.32156 -0.02900
 O3 O 0.32061 0.36198 -0.02878
 O4 O 0.36127 0.32148 0.02773
 O5 O 0.32717 0.28715 0.02773
 O6 O 0.28644 0.32773 -0.02883
 O7 O 0.32689 0.28726 -0.02905
 O8 O 0.28657 0.32741 0.02795
 Cu9 Cu 0.34434 0.34513 -0.00053
 Cu10 Cu 0.30332 0.30393 -0.00056
 C11 C 0.29673 0.35146 0.03737
 C12 C 0.35091 0.29749 -0.03842
 C13 C 0.29652 0.35186 -0.03814
 C14 C 0.35124 0.29736 0.03708
 O15 O 0.67929 0.63838 0.02791
 O16 O 0.63904 0.67856 -0.02902
 O17 O 0.67933 0.63805 -0.02881
 O18 O 0.63885 0.67870 0.02770
 O19 O 0.67304 0.71293 0.02769
 O20 O 0.71359 0.67221 -0.02889
 O21 O 0.67325 0.71278 -0.02910
 O22 O 0.71353 0.67257 0.02789
 Cu23 Cu 0.65568 0.65498 -0.00056
 Cu24 Cu 0.69681 0.69608 -0.00062
 C25 C 0.70333 0.64855 0.03732
 C26 C 0.64919 0.70260 -0.03845
 C27 C 0.70344 0.64809 -0.03819
 C28 C 0.64896 0.70280 0.03705
 O29 O 0.67928 0.36174 0.97214
 O30 O 0.63898 0.32155 1.02902
 O31 O 0.67933 0.36202 1.02886
 O32 O 0.63878 0.32148 0.97230
 O33 O 0.67291 0.28721 0.97229
 O34 O 0.71354 0.32783 1.02892
 O35 O 0.67314 0.28730 1.02908
 O36 O 0.71346 0.32752 0.97214
 Cu37 Cu 0.65565 0.34515 1.00059
 Cu38 Cu 0.69671 0.30401 1.00062
 C39 C 0.70329 0.35155 0.96272
 C40 C 0.64910 0.29750 1.03844
 C41 C 0.70342 0.35194 1.03824
 C42 C 0.64885 0.29738 0.96293
 O43 O 0.36137 0.67829 1.02916
 O44 O 0.32098 0.63802 0.97230
 O45 O 0.36150 0.67831 0.97243
 O46 O 0.32100 0.63780 1.02903
 O47 O 0.28679 0.67198 1.02910
 O48 O 0.32736 0.71257 0.97244
 O49 O 0.28680 0.67224 0.97232
 O50 O 0.32721 0.71253 1.02922
 Cu51 Cu 0.34465 0.65465 1.00074
 Cu52 Cu 0.30359 0.69579 1.00078
 C53 C 0.35127 0.70236 1.03856
 C54 C 0.29695 0.64819 0.96291
 C55 C 0.35142 0.70240 0.96307
 C56 C 0.29691 0.64787 1.03841
 O57 O -0.02891 0.36099 0.32117
 O58 O 0.02810 0.32097 0.36147
 O59 O 0.02783 0.36146 0.32117
 O60 O -0.02863 0.32064 0.36159
 O61 O -0.02848 0.28641 0.32741
 O62 O 0.02804 0.32730 0.28692
 O63 O 0.02831 0.28675 0.32727
 O64 O -0.02875 0.32680 0.28693
 Cu65 Cu -0.00042 0.34446 0.34480
 Cu66 Cu -0.00020 0.30336 0.30368
 C67 C -0.03825 0.35080 0.29711
 C68 C 0.03762 0.29697 0.35132
 C69 C 0.03726 0.35143 0.29709
 C70 C -0.03790 0.29651 0.35149
 O71 O 0.02823 0.67865 0.63840
 O72 O -0.02884 0.63875 0.67873
 O73 O -0.02849 0.67897 0.63819
 O74 O 0.02791 0.63826 0.67880
 O75 O 0.02811 0.67252 0.71296
 O76 O -0.02835 0.71329 0.67227
 O77 O -0.02869 0.67303 0.71287
 O78 O 0.02844 0.71296 0.67252
 Cu79 Cu -0.00031 0.65520 0.65510
 Cu80 Cu -0.00010 0.69641 0.69610
 C81 C 0.03776 0.70269 0.64850
 C82 C -0.03820 0.64901 0.70274
 C83 C -0.03775 0.70313 0.64821
 C84 C 0.03733 0.64836 0.70287
 O85 O 0.97191 0.67901 0.36147
 O86 O 1.02884 0.63894 0.32111
 O87 O 1.02864 0.67920 0.36162
 O88 O 0.97210 0.63856 0.32112
 O89 O 0.97194 0.67277 0.28693
 O90 O 1.02854 0.71348 0.32751
 O91 O 1.02873 0.67317 0.28695
 O92 O 0.97175 0.71327 0.32734
 Cu93 Cu 1.00038 0.65547 0.34477
 Cu94 Cu 1.00023 0.69663 0.30373
 C95 C 0.96243 0.70304 0.35137
 C96 C 1.03820 0.64915 0.29709
 C97 C 1.03794 0.70333 0.35157
 C98 C 0.96267 0.64865 0.29706
 O99 O 0.97151 0.32120 0.63801
 O100 O 1.02847 0.36121 0.67851
 O101 O 1.02824 0.32094 0.63796
 O102 O 0.97173 0.36162 0.67843
 O103 O 0.97150 0.32738 0.71259
 O104 O 1.02807 0.28664 0.67204
 O105 O 1.02829 0.32694 0.71264
 O106 O 0.97128 0.28691 0.67212
 Cu107 Cu 1.00000 0.34469 0.65479
 Cu108 Cu 0.99976 0.30351 0.69579
 C109 C 0.96200 0.29716 0.64807
 C110 C 1.03779 0.35098 0.70254
 C111 C 1.03750 0.29679 0.64800
 C112 C 0.96228 0.35153 0.70248
 O113 O 0.36127 0.02876 0.32131
 O114 O 0.32104 -0.02828 0.36141
 O115 O 0.36157 -0.02799 0.32120
 O116 O 0.32095 0.02848 0.36178
 O117 O 0.28673 0.02851 0.32759
 O118 O 0.32744 -0.02802 0.28692
 O119 O 0.28685 -0.02829 0.32718
 O120 O 0.32709 0.02880 0.28707
 Cu121 Cu 0.34465 0.00025 0.34488
 Cu122 Cu 0.30358 0.00026 0.30373
 C123 C 0.35112 0.03820 0.29729
 C124 C 0.29702 -0.03771 0.35121
 C125 C 0.35152 -0.03735 0.29709
 C126 C 0.29685 0.03782 0.35170
 O127 O 0.63875 0.02864 0.67871
 O128 O 0.67908 -0.02837 0.63867
 O129 O 0.63853 -0.02811 0.67887
 O130 O 0.67905 0.02838 0.63822
 O131 O 0.71328 0.02856 0.67240
 O132 O 0.67266 -0.02799 0.71315
 O133 O 0.71326 -0.02824 0.67290
 O134 O 0.67293 0.02882 0.71294
 Cu135 Cu 0.65541 0.00013 0.65517
 Cu136 Cu 0.69649 0.00031 0.69631
 C137 C 0.64888 0.03815 0.70273
 C138 C 0.70311 -0.03773 0.64889
 C139 C 0.64860 -0.03739 0.70299
 C140 C 0.70313 0.03780 0.64828
 O141 O 0.32062 1.02824 0.63887
 O142 O 0.36099 0.97137 0.67907
 O143 O 0.32068 0.97149 0.63859
 O144 O 0.36117 1.02812 0.67908
 O145 O 0.32705 1.02810 0.71335
 O146 O 0.28646 0.97140 0.67276
 O147 O 0.32682 0.97129 0.71329
 O148 O 0.28645 1.02821 0.67309
 Cu149 Cu 0.34431 0.99981 0.65545
 Cu150 Cu 0.30324 0.99974 0.69658
 C151 C 0.29660 1.03764 0.64906
 C152 C 0.35087 0.96194 0.70310
 C153 C 0.29661 0.96209 0.64867
 C154 C 0.35110 1.03748 0.70317
 O155 O 0.67944 1.02875 0.36177
 O156 O 0.63905 0.97188 0.32149
 O157 O 0.67937 0.97200 0.36198
 O158 O 0.63887 1.02864 0.32154
 O159 O 0.67299 1.02865 0.28727
 O160 O 0.71358 0.97195 0.32781
 O161 O 0.67321 0.97184 0.28727
 O162 O 0.71360 1.02877 0.32756
 Cu163 Cu 0.65574 1.00032 0.34514
 Cu164 Cu 0.69680 1.00030 0.30402
 C165 C 0.70348 1.03816 0.35161
 C166 C 0.64916 0.96247 0.29744
 C167 C 0.70345 0.96261 0.35189
 C168 C 0.64892 1.03800 0.29745
 O169 O 0.86526 0.82448 0.47222
 O170 O 0.82518 0.86452 0.52919
 O171 O 0.86555 0.82434 0.52894
 O172 O 0.82512 0.86484 0.47248
 O173 O 0.79089 0.83083 0.47234
 O174 O 0.83155 0.79011 0.52897
 O175 O 0.79097 0.83049 0.52920
 O176 O 0.83123 0.79027 0.47210
 Cu177 Cu 0.84868 0.84795 0.50072
 Cu178 Cu 0.80773 0.80699 0.50066
 C179 C 0.85527 0.80042 0.46254
 C180 C 0.80110 0.85454 0.53879
 C181 C 0.85566 0.80019 0.53848
 C182 C 0.80100 0.85495 0.46287
 O183 O 0.17476 0.13543 0.52912
 O184 O 0.13478 0.17552 0.47212
 O185 O 0.17495 0.13519 0.47241
 O186 O 0.13441 0.17563 0.52884
 O187 O 0.16841 0.20986 0.52901
 O188 O 0.20916 0.16922 0.47240
 O189 O 0.16879 0.20975 0.47214
 O190 O 0.20897 0.16947 0.52927
 Cu191 Cu 0.15132 0.15204 0.50062
 Cu192 Cu 0.19226 0.19301 0.50072
 C193 C 0.19883 0.14540 0.53879
 C194 C 0.14478 0.19959 0.46250
 C195 C 0.19908 0.14511 0.46286
 C196 C 0.14428 0.19977 0.53844
 O197 O 0.13497 0.82419 0.52778
 O198 O 0.17511 0.86442 0.47100
 O199 O 0.13474 0.82423 0.47107
 O200 O 0.17511 0.86456 0.52771
 O201 O 0.20933 0.83057 0.52776
 O202 O 0.16873 0.79000 0.47095
 O203 O 0.20931 0.83040 0.47089
 O204 O 0.16899 0.79000 0.52782
 Cu205 Cu 0.15158 0.84775 0.49938
 Cu206 Cu 0.19252 0.80681 0.49934
 C207 C 0.14495 0.80012 0.53740
 C208 C 0.19919 0.85447 0.46137
 C209 C 0.14463 0.80012 0.46145
 C210 C 0.19921 0.85465 0.53731
 O211 O 0.86488 0.17540 0.52725
 O212 O 0.82474 0.13509 0.47044
 O213 O 0.86513 0.17531 0.47054
 O214 O 0.82472 0.13502 0.52716
 O215 O 0.79050 0.16901 0.52716
 O216 O 0.83113 0.20953 0.47037
 O217 O 0.79054 0.16911 0.47029
 O218 O 0.83085 0.20959 0.52724
 Cu219 Cu 0.84827 0.15180 0.49884
 Cu220 Cu 0.80733 0.19274 0.49874
 C221 C 0.85490 0.19949 0.53685
 C222 C 0.80065 0.14501 0.46080
 C223 C 0.85525 0.19943 0.46092
 C224 C 0.80061 0.14494 0.53673
 O225 O 0.47134 0.86448 0.82477
 O226 O 0.52836 0.82436 0.86472
 O227 O 0.52806 0.86479 0.82466
 O228 O 0.47163 0.82429 0.86511
 O229 O 0.47149 0.79008 0.83109
 O230 O 0.52809 0.83083 0.79039
 O231 O 0.52837 0.79020 0.83065
 O232 O 0.47121 0.83047 0.79055
 Cu233 Cu 0.49985 0.84788 0.84822
 Cu234 Cu 0.49978 0.80697 0.80724
 C235 C 0.46166 0.85452 0.80071
 C236 C 0.53800 0.80031 0.85468
 C237 C 0.53761 0.85493 0.80052
 C238 C 0.46204 0.80016 0.85522
 O239 O 0.52842 0.17579 0.13554
 O240 O 0.47146 0.13567 0.17558
 O241 O 0.47170 0.17578 0.13516
 O242 O 0.52819 0.13546 0.17570
 O243 O 0.52822 0.16950 0.20990
 O244 O 0.47155 0.21006 0.16911
 O245 O 0.47133 0.16975 0.20974
 O246 O 0.52843 0.21003 0.16953
 Cu247 Cu 0.49994 0.15227 0.15210
 Cu248 Cu 0.49987 0.19327 0.19300
 C249 C 0.53804 0.19988 0.14552
 C250 C 0.46179 0.14567 0.19962
 C251 C 0.46209 0.19992 0.14500
 C252 C 0.53775 0.14539 0.19983
 O253 O 0.52857 0.13559 0.82452
 O254 O 0.47171 0.17578 0.86464
 O255 O 0.47184 0.13536 0.82456
 O256 O 0.52844 0.17573 0.86491
 O257 O 0.52853 0.20997 0.83094
 O258 O 0.47178 0.16932 0.79032
 O259 O 0.47165 0.20995 0.83060
 O260 O 0.52866 0.16962 0.79034
 Cu261 Cu 0.50015 0.15221 0.84806
 Cu262 Cu 0.50016 0.19315 0.80712
 C263 C 0.53820 0.14556 0.80045
 C264 C 0.46207 0.19984 0.85464
 C265 C 0.46224 0.14524 0.80045
 C266 C 0.53804 0.19986 0.85503
 O267 O 0.52890 0.86481 0.17547
 O268 O 0.47201 0.82449 0.13539
 O269 O 0.47217 0.86495 0.17547
 O270 O 0.52875 0.82461 0.13509
 O271 O 0.52891 0.79040 0.16908
 O272 O 0.47218 0.83100 0.20973
 O273 O 0.47202 0.79034 0.16945
 O274 O 0.52906 0.83079 0.20966
 Cu275 Cu 0.50045 0.84811 0.15195
 Cu276 Cu 0.50056 0.80721 0.19291
 C277 C 0.53856 0.85488 0.19955
 C278 C 0.46241 0.80041 0.14540
 C279 C 0.46262 0.85507 0.19960
 C280 C 0.53837 0.80050 0.14497
 O281 O 0.82467 0.47183 0.86480
 O282 O 0.86450 0.52890 0.82466
 O283 O 0.82441 0.52857 0.86508
 O284 O 0.86487 0.47216 0.82449
 O285 O 0.83077 0.47198 0.79038
 O286 O 0.79011 0.52858 0.83116
 O287 O 0.83039 0.52888 0.79054
 O288 O 0.79036 0.47169 0.83089
 Cu289 Cu 0.84803 0.50037 0.84815
 Cu290 Cu 0.80696 0.50028 0.80732
 C291 C 0.80059 0.46214 0.85489
 C292 C 0.85444 0.53852 0.80062
 C293 C 0.80024 0.53810 0.85524
 C294 C 0.85493 0.46255 0.80040
 O295 O 0.13546 0.52886 0.17526
 O296 O 0.17530 0.47176 0.13517
 O297 O 0.13500 0.47212 0.17538
 O298 O 0.17563 0.52850 0.13493
 O299 O 0.20986 0.52849 0.16891
 O300 O 0.16903 0.47192 0.20957
 O301 O 0.20953 0.47159 0.16916
 O302 O 0.16949 0.52882 0.20945
 Cu303 Cu 0.15194 0.50032 0.15178
 Cu304 Cu 0.19291 0.50019 0.19270
 C305 C 0.14548 0.53847 0.19932
 C306 C 0.19935 0.46205 0.14512
 C307 C 0.14488 0.46250 0.19949
 C308 C 0.19980 0.53801 0.14481
 O309 O 0.82471 0.52817 0.13510
 O310 O 0.86460 0.47118 0.17528
 O311 O 0.82448 0.47144 0.13490
 O312 O 0.86499 0.52792 0.17534
 O313 O 0.83095 0.52811 0.20950
 O314 O 0.79022 0.47145 0.16883
 O315 O 0.83055 0.47121 0.20942
 O316 O 0.79047 0.52835 0.16906
 Cu317 Cu 0.84811 0.49967 0.15176
 Cu318 Cu 0.80711 0.49979 0.19263
 C319 C 0.80066 0.53787 0.14503
 C320 C 0.85457 0.46157 0.19933
 C321 C 0.80032 0.46191 0.14476
 C322 C 0.85509 0.53756 0.19943
 O323 O 0.17519 0.52796 0.86504
 O324 O 0.13519 0.47100 0.82479
 O325 O 0.17534 0.47122 0.86520
 O326 O 0.13489 0.52775 0.82478
 O327 O 0.16894 0.52792 0.79063
 O328 O 0.20960 0.47121 0.83127
 O329 O 0.16925 0.47102 0.79066
 O330 O 0.20943 0.52811 0.83109
 Cu331 Cu 0.15175 0.49947 0.84835
 Cu332 Cu 0.19274 0.49957 0.80749
 C333 C 0.19927 0.53764 0.85514
 C334 C 0.14520 0.46141 0.80073
 C335 C 0.19949 0.46168 0.85534
 C336 C 0.14481 0.53737 0.80069
 C337 C 0.24862 0.40087 0.09375
 C338 C 0.25993 0.41109 0.12031
 C339 C 0.24363 0.43049 0.13746
 C340 C 0.28024 0.36799 0.05829
 C341 C 0.20448 0.42907 0.10171
 C342 C 0.22078 0.40968 0.08465
 C343 C 0.26600 0.38259 0.07496
 C344 C 0.21586 0.43998 0.12815
 H345 H 0.28152 0.40448 0.12749
 H346 H 0.25301 0.43851 0.15768
 H347 H 0.18318 0.43590 0.09392
 H348 H 0.21187 0.40197 0.06408
 C349 C 0.75139 0.59906 0.09365
 C350 C 0.74009 0.58885 0.12020
 C351 C 0.75638 0.56943 0.13735
 C352 C 0.71979 0.63199 0.05822
 C353 C 0.79551 0.57081 0.10161
 C354 C 0.77922 0.59022 0.08455
 C355 C 0.73402 0.61736 0.07488
 C356 C 0.78414 0.55993 0.12804
 H357 H 0.71851 0.59548 0.12738
 H358 H 0.74700 0.56144 0.15756
 H359 H 0.81680 0.56397 0.09382
 H360 H 0.78813 0.59792 0.06399
 C361 C 0.75135 0.40098 0.90633
 C362 C 0.74000 0.41121 0.87981
 C363 C 0.75628 0.43061 0.86263
 C364 C 0.71976 0.36809 0.94182
 C365 C 0.79550 0.42917 0.89830
 C366 C 0.77922 0.40978 0.91538
 C367 C 0.73399 0.38271 0.92514
 C368 C 0.78408 0.44008 0.87189
 H369 H 0.71839 0.40461 0.87266
 H370 H 0.74687 0.43862 0.84243
 H371 H 0.81683 0.43599 0.90605
 H372 H 0.78817 0.40207 0.93592
 C373 C 0.24873 0.59868 0.90661
 C374 C 0.25996 0.58851 0.88002
 C375 C 0.24362 0.56914 0.86285
 C376 C 0.28042 0.63161 0.94204
 C377 C 0.20455 0.57048 0.89865
 C378 C 0.22090 0.58984 0.91573
 C379 C 0.26615 0.61697 0.92539
 C380 C 0.21585 0.55965 0.87216
 H381 H 0.28154 0.59514 0.87282
 H382 H 0.25295 0.56118 0.84259
 H383 H 0.18326 0.56364 0.90645
 H384 H 0.21203 0.59751 0.93632
 C385 C 0.09375 0.24894 0.40110
 C386 C 0.12025 0.26023 0.41146
 C387 C 0.13729 0.24392 0.43096
 C388 C 0.05848 0.28054 0.36797
 C389 C 0.10150 0.20480 0.42937
 C390 C 0.08456 0.22111 0.40988
 C391 C 0.07508 0.26632 0.38269
 C392 C 0.12790 0.21615 0.44040
 H393 H 0.12750 0.28181 0.40487
 H394 H 0.15748 0.25328 0.43907
 H395 H 0.09365 0.18350 0.43615
 H396 H 0.06403 0.21221 0.40206
 C397 C 0.09386 0.75069 0.59869
 C398 C 0.08466 0.77850 0.58987
 C399 C 0.10160 0.79483 0.57040
 C400 C 0.05862 0.71909 0.63183
 C401 C 0.13744 0.75577 0.56891
 C402 C 0.12040 0.73944 0.58838
 C403 C 0.07521 0.73330 0.61709
 C404 C 0.12803 0.78352 0.55944
 H405 H 0.06411 0.78737 0.59764
 H406 H 0.09374 0.81611 0.56359
 H407 H 0.15766 0.74644 0.56085
 H408 H 0.12766 0.71788 0.59500
 C409 C 0.90635 0.75109 0.40117
 C410 C 0.91557 0.77889 0.41005
 C411 C 0.89862 0.79519 0.42953
 C412 C 0.94160 0.71949 0.36803
 C413 C 0.86276 0.75614 0.43092
 C414 C 0.87980 0.73983 0.41142
 C415 C 0.92502 0.73371 0.38276
 C416 C 0.87217 0.78387 0.44045
 H417 H 0.93614 0.78776 0.40231
 H418 H 0.90649 0.81646 0.43639
 H419 H 0.84252 0.74680 0.43894
 H420 H 0.87253 0.71827 0.40476
 C421 C 0.90599 0.24905 0.59813
 C422 C 0.87943 0.26025 0.58782
 C423 C 0.86240 0.24388 0.56835
 C424 C 0.94118 0.28071 0.63134
 C425 C 0.89829 0.20487 0.56984
 C426 C 0.91523 0.22124 0.58930
 C427 C 0.92462 0.26647 0.61657
 C428 C 0.87182 0.21613 0.55888
 H429 H 0.87214 0.28180 0.59444
 H430 H 0.84215 0.25317 0.56030
 H431 H 0.90617 0.18360 0.56303
 H432 H 0.93580 0.21241 0.59708
 C433 C 0.40068 0.09441 0.24912
 C434 C 0.41089 0.12103 0.26032
 C435 C 0.43028 0.13813 0.24395
 C436 C 0.36772 0.05908 0.28082
 C437 C 0.42889 0.10221 0.20496
 C438 C 0.40951 0.08520 0.22133
 C439 C 0.38238 0.07570 0.26656
 C440 C 0.43977 0.12872 0.21622
 H441 H 0.40427 0.12831 0.28187
 H442 H 0.43828 0.15841 0.25324
 H443 H 0.43572 0.09433 0.18370
 H444 H 0.40181 0.06458 0.21250
 C445 C 0.59925 0.09430 0.75089
 C446 C 0.59043 0.08508 0.77868
 C447 C 0.57106 0.10208 0.79506
 C448 C 0.63225 0.05900 0.71918
 C449 C 0.56967 0.13801 0.75609
 C450 C 0.58905 0.12091 0.73971
 C451 C 0.61757 0.07560 0.73344
 C452 C 0.56019 0.12859 0.78383
 H453 H 0.59813 0.06447 0.78749
 H454 H 0.56423 0.09421 0.81632
 H455 H 0.56168 0.15829 0.74682
 H456 H 0.59567 0.12819 0.71816
 C457 C 0.40051 0.90579 0.75127
 C458 C 0.41069 0.87919 0.74006
 C459 C 0.43010 0.86208 0.75640
 C460 C 0.36750 0.94111 0.71959
 C461 C 0.42876 0.89798 0.79542
 C462 C 0.40936 0.91499 0.77907
 C463 C 0.38218 0.92450 0.73385
 C464 C 0.43962 0.87148 0.78414
 H465 H 0.40405 0.87192 0.71850
 H466 H 0.43808 0.84181 0.74709
 H467 H 0.43561 0.90584 0.81668
 H468 H 0.40168 0.93560 0.78792
 C469 C 0.59953 0.90631 0.24915
 C470 C 0.59065 0.91553 0.22137
 C471 C 0.57131 0.89847 0.20497
 C472 C 0.63252 0.94164 0.28091
 C473 C 0.57007 0.86250 0.24389
 C474 C 0.58942 0.87965 0.26029
 C475 C 0.61784 0.92504 0.26661
 C476 C 0.56053 0.87191 0.21618
 H477 H 0.59828 0.93618 0.21258
 H478 H 0.56444 0.90635 0.18372
 H479 H 0.56216 0.84218 0.25315
 H480 H 0.59609 0.87236 0.28183
 C481 C 0.40073 0.24931 0.90563
 C482 C 0.40961 0.22155 0.91491
 C483 C 0.42909 0.20520 0.89800
 C484 C 0.36757 0.28100 0.94078
 C485 C 0.43048 0.24415 0.86205
 C486 C 0.41099 0.26050 0.87906
 C487 C 0.38231 0.26674 0.92424
 C488 C 0.44001 0.21644 0.87153
 H489 H 0.40187 0.21273 0.93550
 H490 H 0.43595 0.18396 0.90592
 H491 H 0.43850 0.25343 0.84180
 H492 H 0.40433 0.28203 0.87173
 C493 C 0.59942 0.75083 0.90559
 C494 C 0.59058 0.77862 0.91488
 C495 C 0.57109 0.79497 0.89799
 C496 C 0.63255 0.71911 0.94075
 C497 C 0.56960 0.75600 0.86204
 C498 C 0.58910 0.73964 0.87903
 C499 C 0.61782 0.73339 0.92420
 C500 C 0.56011 0.78371 0.87153
 H501 H 0.59836 0.78744 0.93546
 H502 H 0.56426 0.81622 0.90591
 H503 H 0.56153 0.74671 0.84180
 H504 H 0.59572 0.71810 0.87170
 C505 C 0.40114 0.75072 0.09442
 C506 C 0.41141 0.73961 0.12103
 C507 C 0.43087 0.75603 0.13802
 C508 C 0.36797 0.71891 0.05932
 C509 C 0.42944 0.79491 0.10201
 C510 C 0.40999 0.77849 0.08510
 C511 C 0.38272 0.73323 0.07583
 C512 C 0.44037 0.78374 0.12851
 H513 H 0.40477 0.71808 0.12839
 H514 H 0.43890 0.74680 0.15830
 H515 H 0.43628 0.81615 0.09406
 H516 H 0.40224 0.78726 0.06450
 C517 C 0.59936 0.24933 0.09447
 C518 C 0.58906 0.26057 0.12101
 C519 C 0.56959 0.24422 0.13804
 C520 C 0.63246 0.28101 0.05925
 C521 C 0.57109 0.20516 0.10219
 C522 C 0.59055 0.22150 0.08526
 C523 C 0.61775 0.26674 0.07582
 C524 C 0.56012 0.21647 0.12862
 H525 H 0.59567 0.28214 0.12828
 H526 H 0.56153 0.25355 0.15826
 H527 H 0.56427 0.18388 0.09432
 H528 H 0.59832 0.21264 0.06470
 C529 C 0.24835 0.09398 0.59973
 C530 C 0.22049 0.08485 0.59096
 C531 C 0.20412 0.10192 0.57165
 C532 C 0.28008 0.05853 0.63253
 C533 C 0.24321 0.13775 0.57023
 C534 C 0.25959 0.12058 0.58955
 C535 C 0.26580 0.07519 0.61795
 C536 C 0.21542 0.12841 0.56079
 H537 H 0.21163 0.06425 0.59864
 H538 H 0.18281 0.09411 0.56485
 H539 H 0.25254 0.15800 0.56224
 H540 H 0.28118 0.12779 0.59613
 C541 C 0.75094 0.09340 0.40007
 C542 C 0.77879 0.08428 0.40884
 C543 C 0.79523 0.10140 0.42809
 C544 C 0.71915 0.05789 0.36731
 C545 C 0.75620 0.13727 0.42945
 C546 C 0.73976 0.12004 0.41019
 C547 C 0.73345 0.07458 0.38188
 C548 C 0.78398 0.12794 0.43888
 H549 H 0.78762 0.06364 0.40120
 H550 H 0.81653 0.09359 0.43488
 H551 H 0.74691 0.15756 0.43739
 H552 H 0.71817 0.12726 0.40362
 C553 C 0.75144 0.90591 0.59967
 C554 C 0.77932 0.91505 0.59099
 C555 C 0.79574 0.89799 0.57170
 C556 C 0.71964 0.94135 0.63240
 C557 C 0.75666 0.86216 0.57012
 C558 C 0.74023 0.87931 0.58942
 C559 C 0.73395 0.92468 0.61785
 C560 C 0.78446 0.87151 0.56077
 H561 H 0.78816 0.93564 0.59872
 H562 H 0.81706 0.90581 0.56497
 H563 H 0.74735 0.84191 0.56208
 H564 H 0.71862 0.87210 0.59593
 C565 C 0.24879 0.90591 0.40052
 C566 C 0.26001 0.87932 0.41071
 C567 C 0.24361 0.86215 0.43002
 C568 C 0.28053 0.94137 0.36773
 C569 C 0.20455 0.89798 0.42856
 C570 C 0.22094 0.91505 0.40927
 C571 C 0.26625 0.92470 0.38231
 C572 C 0.21583 0.87149 0.43943
 H573 H 0.28160 0.87210 0.40415
 H574 H 0.25292 0.84189 0.43801
 H575 H 0.18324 0.90579 0.43534
 H576 H 0.21210 0.93565 0.40158
 C577 C 0.09400 0.40035 0.75100
 C578 C 0.08481 0.40907 0.77884
 C579 C 0.10180 0.42843 0.79528
 C580 C 0.05866 0.36749 0.71914
 C581 C 0.13767 0.43001 0.75628
 C582 C 0.12058 0.41064 0.73984
 C583 C 0.07528 0.38210 0.73348
 C584 C 0.12827 0.43939 0.78405
 H585 H 0.06422 0.40131 0.78764
 H586 H 0.09394 0.43518 0.81657
 H587 H 0.15792 0.43807 0.74701
 H588 H 0.12784 0.40411 0.71826
 C589 C 0.09441 0.59971 0.24882
 C590 C 0.08526 0.59102 0.22096
 C591 C 0.10222 0.57160 0.20459
 C592 C 0.05907 0.63262 0.28056
 C593 C 0.13798 0.56992 0.24371
 C594 C 0.12092 0.58935 0.26008
 C595 C 0.07570 0.61800 0.26627
 C596 C 0.12861 0.56056 0.21592
 H597 H 0.06472 0.59884 0.21208
 H598 H 0.09439 0.56487 0.18327
 H599 H 0.15817 0.56180 0.25305
 H600 H 0.12814 0.59587 0.28169
 C601 C 0.90558 0.40029 0.24885
 C602 C 0.87906 0.41066 0.26008
 C603 C 0.86203 0.43011 0.24371
 C604 C 0.94087 0.36734 0.28059
 C605 C 0.89784 0.42845 0.20465
 C606 C 0.91477 0.40901 0.22102
 C607 C 0.92426 0.38197 0.26630
 C608 C 0.87143 0.43949 0.21594
 H609 H 0.87181 0.40412 0.28166
 H610 H 0.84183 0.43823 0.25302
 H611 H 0.90570 0.43520 0.18336
 H612 H 0.93532 0.40119 0.21217
 C613 C 0.90552 0.59970 0.75105
 C614 C 0.87898 0.58934 0.73982
 C615 C 0.86192 0.56994 0.75622
 C616 C 0.94089 0.63253 0.71927
 C617 C 0.89773 0.57163 0.79530
 C618 C 0.91469 0.59103 0.77891
 C619 C 0.92424 0.61795 0.73357
 C620 C 0.87131 0.56059 0.78401
 H621 H 0.87175 0.59584 0.71822
 H622 H 0.84171 0.56181 0.74690
 H623 H 0.90558 0.56491 0.81661
 H624 H 0.93525 0.59884 0.78776
 C625 C 0.75070 0.59902 0.90688
 C626 C 0.77854 0.59016 0.91599
 C627 C 0.79487 0.57081 0.89889
 C628 C 0.71911 0.63221 0.94222
 C629 C 0.75578 0.56945 0.86310
 C630 C 0.73944 0.58882 0.88030
 C631 C 0.73334 0.61744 0.92563
 C632 C 0.78357 0.55998 0.87239
 H633 H 0.78744 0.59784 0.93657
 H634 H 0.81617 0.56399 0.90668
 H635 H 0.74644 0.56151 0.84284
 H636 H 0.71787 0.59546 0.87308
 C637 C 0.24911 0.40078 0.90692
 C638 C 0.26034 0.41099 0.88034
 C639 C 0.24397 0.43034 0.86316
 C640 C 0.28079 0.36769 0.94227
 C641 C 0.20490 0.42893 0.89894
 C642 C 0.22127 0.40960 0.91603
 C643 C 0.26652 0.38241 0.92567
 C644 C 0.21618 0.43978 0.87244
 H645 H 0.28192 0.40439 0.87313
 H646 H 0.25329 0.43831 0.84290
 H647 H 0.18359 0.43573 0.90673
 H648 H 0.21239 0.40191 0.93660
 C649 C 0.24952 0.59889 0.09330
 C650 C 0.26073 0.58866 0.11990
 C651 C 0.24433 0.56931 0.13705
 C652 C 0.28122 0.63202 0.05801
 C653 C 0.20529 0.57073 0.10121
 C654 C 0.22169 0.59007 0.08415
 C655 C 0.26695 0.61728 0.07459
 C656 C 0.21654 0.55988 0.12772
 H657 H 0.28231 0.59527 0.12714
 H658 H 0.25363 0.56134 0.15732
 H659 H 0.18398 0.56395 0.09339
 H660 H 0.21283 0.59777 0.06357
 C661 C 0.75074 0.40091 0.09321
 C662 C 0.77860 0.40973 0.08412
 C663 C 0.79495 0.42910 0.10120
 C664 C 0.71911 0.36778 0.05785
 C665 C 0.75583 0.43057 0.13694
 C666 C 0.73948 0.41118 0.11977
 C667 C 0.73336 0.38252 0.07447
 C668 C 0.78364 0.43999 0.12766
 H669 H 0.78749 0.40200 0.06357
 H670 H 0.81626 0.43588 0.09342
 H671 H 0.74649 0.43857 0.15717
 H672 H 0.71789 0.40458 0.12696
 C673 C 0.90730 0.75053 0.59929
 C674 C 0.88069 0.73930 0.58910
 C675 C 0.86349 0.75568 0.56977
 C676 C 0.94266 0.71885 0.63237
 C677 C 0.89931 0.79476 0.57117
 C678 C 0.91641 0.77838 0.59048
 C679 C 0.92606 0.73312 0.61765
 C680 C 0.87279 0.78348 0.56034
 H681 H 0.87347 0.71771 0.59570
 H682 H 0.84321 0.74636 0.56182
 H683 H 0.90711 0.81607 0.56438
 H684 H 0.93701 0.78726 0.59815
 C685 C 0.90701 0.24904 0.40018
 C686 C 0.91609 0.22119 0.40903
 C687 C 0.89893 0.20482 0.42829
 C688 C 0.94247 0.28076 0.36725
 C689 C 0.86313 0.24390 0.42957
 C690 C 0.88038 0.26027 0.41029
 C691 C 0.92583 0.26646 0.38189
 C692 C 0.87239 0.21610 0.43905
 H693 H 0.93670 0.21232 0.40142
 H694 H 0.90671 0.18351 0.43512
 H695 H 0.84284 0.25322 0.43746
 H696 H 0.87318 0.28186 0.40366
 C697 C 0.09254 0.24940 0.59919
 C698 C 0.08342 0.22156 0.59030
 C699 C 0.10056 0.20519 0.57102
 C700 C 0.05712 0.28108 0.63220
 C701 C 0.13641 0.24425 0.56979
 C702 C 0.11918 0.26062 0.58909
 C703 C 0.07375 0.26681 0.61751
 C704 C 0.12712 0.21646 0.56028
 H705 H 0.06280 0.21269 0.59790
 H706 H 0.09276 0.18389 0.56417
 H707 H 0.15671 0.25356 0.56192
 H708 H 0.12640 0.28220 0.59575
 C709 C 0.09302 0.75064 0.40045
 C710 C 0.11959 0.73935 0.41065
 C711 C 0.13680 0.75568 0.43003
 C712 C 0.05759 0.71902 0.36738
 C713 C 0.10105 0.79482 0.42866
 C714 C 0.08395 0.77849 0.40930
 C715 C 0.07423 0.73327 0.38208
 C716 C 0.12753 0.78348 0.43951
 H717 H 0.12677 0.71776 0.40402
 H718 H 0.15704 0.74632 0.43800
 H719 H 0.09329 0.81613 0.43548
 H720 H 0.06338 0.78740 0.40161
 C721 C 0.59866 0.90652 0.75110
 C722 C 0.58842 0.87995 0.73980
 C723 C 0.56900 0.86277 0.75609
 C724 C 0.63188 0.94185 0.71955
 C725 C 0.57039 0.89854 0.79522
 C726 C 0.58978 0.91562 0.77892
 C727 C 0.61710 0.92526 0.73377
 C728 C 0.55953 0.87205 0.78388
 H729 H 0.59506 0.87274 0.71823
 H730 H 0.56103 0.84252 0.74673
 H731 H 0.56357 0.90632 0.81651
 H732 H 0.59749 0.93619 0.78785
 C733 C 0.40151 0.90658 0.24902
 C734 C 0.41179 0.88004 0.26032
 C735 C 0.43121 0.86288 0.24402
 C736 C 0.36826 0.94189 0.28055
 C737 C 0.42976 0.89861 0.20489
 C738 C 0.41035 0.91567 0.22118
 C739 C 0.38305 0.92532 0.26634
 C740 C 0.44067 0.87215 0.21624
 H741 H 0.40517 0.87285 0.28190
 H742 H 0.43922 0.84266 0.25339
 H743 H 0.43656 0.90638 0.18358
 H744 H 0.40262 0.93621 0.21225
 C745 C 0.59890 0.09401 0.24934
 C746 C 0.59002 0.08485 0.22153
 C747 C 0.57059 0.10186 0.20521
 C748 C 0.63218 0.05877 0.28092
 C749 C 0.56918 0.13769 0.24427
 C750 C 0.58862 0.12058 0.26060
 C751 C 0.61738 0.07533 0.26670
 C752 C 0.55970 0.12835 0.21650
 H753 H 0.59776 0.06428 0.21264
 H754 H 0.56378 0.09403 0.18392
 H755 H 0.56118 0.15794 0.25360
 H756 H 0.59526 0.12783 0.28216
 C757 C 0.40104 0.09370 0.75115
 C758 C 0.41132 0.12022 0.73980
 C759 C 0.43078 0.13740 0.75606
 C760 C 0.36780 0.05831 0.71968
 C761 C 0.42934 0.10173 0.79525
 C762 C 0.40990 0.08465 0.77900
 C763 C 0.38258 0.07494 0.73386
 C764 C 0.44026 0.12816 0.78386
 H765 H 0.40468 0.12738 0.71822
 H766 H 0.43880 0.15761 0.74666
 H767 H 0.43616 0.09398 0.81656
 H768 H 0.40216 0.06412 0.78796
 C769 C 0.59922 0.75097 0.09327
 C770 C 0.58907 0.73971 0.11986
 C771 C 0.56975 0.75605 0.13709
 C772 C 0.63229 0.71936 0.05785
 C773 C 0.57104 0.79515 0.10133
 C774 C 0.59035 0.77882 0.08420
 C775 C 0.61757 0.73360 0.07447
 C776 C 0.56026 0.78384 0.12784
 H777 H 0.59572 0.71812 0.12705
 H778 H 0.56183 0.74670 0.15735
 H779 H 0.56421 0.81646 0.09356
 H780 H 0.59799 0.78772 0.06361
 C781 C 0.40117 0.24933 0.09326
 C782 C 0.41008 0.22150 0.08419
 C783 C 0.42942 0.20520 0.10133
 C784 C 0.36798 0.28085 0.05786
 C785 C 0.43068 0.24434 0.13708
 C786 C 0.41131 0.26064 0.11985
 C787 C 0.38275 0.26665 0.07447
 C788 C 0.44020 0.21655 0.12784
 H789 H 0.40243 0.21256 0.06361
 H790 H 0.43628 0.18390 0.09357
 H791 H 0.43859 0.25371 0.15735
 H792 H 0.40464 0.28221 0.12703
 C793 C 0.59903 0.24932 0.90667
 C794 C 0.59021 0.22145 0.91571
 C795 C 0.57084 0.20513 0.89859
 C796 C 0.63216 0.28087 0.94210
 C797 C 0.56941 0.24432 0.86292
 C798 C 0.58880 0.26064 0.88013
 C799 C 0.61742 0.26666 0.92547
 C800 C 0.55997 0.21650 0.87214
 H801 H 0.59792 0.21250 0.93625
 H802 H 0.56405 0.18380 0.90633
 H803 H 0.56143 0.25371 0.84270
 H804 H 0.59541 0.28225 0.87298
 C805 C 0.40122 0.75055 0.90689
 C806 C 0.41009 0.77839 0.91599
 C807 C 0.42940 0.79475 0.89888
 C808 C 0.36811 0.71893 0.94227
 C809 C 0.43070 0.75566 0.86307
 C810 C 0.41137 0.73930 0.88029
 C811 C 0.38285 0.73317 0.92566
 C812 C 0.44018 0.78346 0.87236
 H813 H 0.40244 0.78729 0.93658
 H814 H 0.43622 0.81606 0.90667
 H815 H 0.43862 0.74633 0.84280
 H816 H 0.40473 0.71771 0.87308
 C817 C 0.75155 0.90651 0.40182
 C818 C 0.74029 0.87991 0.41199
 C819 C 0.75660 0.86274 0.43140
 C820 C 0.71999 0.94183 0.36860
 C821 C 0.79566 0.89858 0.43016
 C822 C 0.77936 0.91566 0.41076
 C823 C 0.73421 0.92525 0.38338
 C824 C 0.78435 0.87206 0.44095
 H825 H 0.71874 0.87267 0.40530
 H826 H 0.74726 0.84247 0.43932
 H827 H 0.81694 0.90640 0.43703
 H828 H 0.78826 0.93625 0.40311
 C829 C 0.24855 0.90603 0.59862
 C830 C 0.25985 0.87949 0.58834
 C831 C 0.24358 0.86237 0.56884
 C832 C 0.28008 0.94131 0.63193
 C833 C 0.20447 0.89814 0.57024
 C834 C 0.22074 0.91516 0.58972
 C835 C 0.26587 0.92473 0.61713
 C836 C 0.21582 0.87169 0.55932
 H837 H 0.28141 0.87227 0.59500
 H838 H 0.25295 0.84214 0.56082
 H839 H 0.18318 0.90594 0.56339
 H840 H 0.21182 0.93571 0.59746
 C841 C 0.24863 0.09371 0.40177
 C842 C 0.25985 0.12032 0.41200
 C843 C 0.24351 0.13743 0.43144
 C844 C 0.28026 0.05853 0.36847
 C845 C 0.20451 0.10152 0.43009
 C846 C 0.22085 0.08450 0.41067
 C847 C 0.26601 0.07505 0.38328
 C848 C 0.21577 0.12804 0.44094
 H849 H 0.28139 0.12761 0.40534
 H850 H 0.25281 0.15771 0.43940
 H851 H 0.18324 0.09365 0.43693
 H852 H 0.21199 0.06390 0.40297
 C853 C 0.75123 0.09366 0.59807
 C854 C 0.77901 0.08447 0.58914
 C855 C 0.79529 0.10145 0.56965
 C856 C 0.71968 0.05851 0.63147
 C857 C 0.75625 0.13729 0.56827
 C858 C 0.73997 0.12022 0.58778
 C859 C 0.73390 0.07502 0.61661
 C860 C 0.78399 0.12793 0.55874
 H861 H 0.78791 0.06392 0.59688
 H862 H 0.81656 0.09360 0.56279
 H863 H 0.74692 0.15753 0.56027
 H864 H 0.71843 0.12749 0.59446
 C865 C 0.90663 0.59862 0.24893
 C866 C 0.91581 0.58965 0.22116
 C867 C 0.89875 0.57025 0.20484
 C868 C 0.94192 0.63188 0.28052
 C869 C 0.86284 0.56906 0.24381
 C870 C 0.88001 0.58848 0.26014
 C871 C 0.92535 0.61708 0.26629
 C872 C 0.87220 0.55948 0.21609
 H873 H 0.93643 0.59728 0.21231
 H874 H 0.90658 0.56335 0.18359
 H875 H 0.84254 0.56116 0.25311
 H876 H 0.87274 0.59520 0.28166
 C877 C 0.90639 0.40159 0.75071
 C878 C 0.91564 0.41056 0.77846
 C879 C 0.89861 0.42993 0.79484
 C880 C 0.94157 0.36832 0.71903
 C881 C 0.86259 0.43109 0.75596
 C882 C 0.87971 0.41171 0.73957
 C883 C 0.92505 0.38313 0.73330
 C884 C 0.87201 0.44067 0.78367
 H885 H 0.93629 0.40295 0.78726
 H886 H 0.90651 0.43683 0.81608
 H887 H 0.84225 0.43897 0.74672
 H888 H 0.87238 0.40499 0.71806
 C889 C 0.09327 0.59834 0.75110
 C890 C 0.08406 0.58938 0.77886
 C891 C 0.10113 0.57001 0.79522
 C892 C 0.05804 0.63158 0.71945
 C893 C 0.13708 0.56885 0.75630
 C894 C 0.11992 0.58823 0.73994
 C895 C 0.07457 0.61679 0.73372
 C896 C 0.12770 0.55928 0.78401
 H897 H 0.06343 0.59699 0.78769
 H898 H 0.09326 0.56312 0.81646
 H899 H 0.15740 0.56097 0.74703
 H900 H 0.12721 0.59494 0.71842
 C901 C 0.09323 0.40156 0.24901
 C902 C 0.08404 0.41056 0.22126
 C903 C 0.10113 0.42993 0.20493
 C904 C 0.05798 0.36826 0.28058
 C905 C 0.13709 0.43103 0.24388
 C906 C 0.11990 0.41165 0.26021
 C907 C 0.07453 0.38309 0.26636
 C908 C 0.12772 0.44063 0.21616
 H909 H 0.06340 0.40297 0.21241
 H910 H 0.09327 0.43684 0.18369
 H911 H 0.15742 0.43888 0.25316
 H912 H 0.12719 0.40491 0.28172
   
