data_POSCAR
  _audit_creation_date              2014-09-24
  _audit_creation_method            'ToBaCCo'
  _symmetry_space_group_name_H-M    'P1'
  _symmetry_Int_Tables_number       1
  _symmetry_cell_setting            triclinic
  loop_
  _symmetry_equiv_pos_as_xyz
 x,y,z
_cell_length_a 40.2853
_cell_length_b 39.0879
_cell_length_c 26.9590
_cell_angle_alpha 90.102000
_cell_angle_beta 89.993500
_cell_angle_gamma 90.065800
loop_
  _atom_site_label
  _atom_site_type_symbol
  _atom_site_fract_x
  _atom_site_fract_y
  _atom_site_fract_z
O1 O 0.28833 0.21752 0.21985
 O2 O 0.22541 0.28436 0.19994
 O3 O 0.28797 0.28368 0.22482
 O4 O 0.22555 0.21794 0.19486
 O5 O 0.21142 0.21540 0.27372
 O6 O 0.27387 0.28108 0.30377
 O7 O 0.21110 0.28155 0.27880
 O8 O 0.27396 0.21468 0.29869
 Cu9 Cu 0.25820 0.25114 0.20195
 Cu10 Cu 0.24120 0.24791 0.29665
 C11 C 0.29217 0.20494 0.26288
 C12 C 0.20724 0.29413 0.23578
 C13 C 0.29190 0.29337 0.26945
 C14 C 0.20743 0.20563 0.22910
 O15 O 0.71203 0.28219 0.22030
 O16 O 0.77497 0.21534 0.20029
 O17 O 0.71240 0.21604 0.22515
 O18 O 0.77481 0.28175 0.19532
 O19 O 0.78894 0.28441 0.27418
 O20 O 0.72647 0.21878 0.30411
 O21 O 0.78926 0.21827 0.27917
 O22 O 0.72638 0.28517 0.29914
 Cu23 Cu 0.74217 0.24856 0.20235
 Cu24 Cu 0.75915 0.25194 0.29706
 C25 C 0.70818 0.29485 0.26334
 C26 C 0.79313 0.20562 0.23612
 C27 C 0.70846 0.20643 0.26976
 C28 C 0.79292 0.29412 0.22958
 O29 O 0.78817 0.71658 0.72715
 O30 O 0.72623 0.78242 0.69657
 O31 O 0.78889 0.78268 0.72276
 O32 O 0.72580 0.71601 0.70138
 O33 O 0.71110 0.71868 0.78011
 O34 O 0.77366 0.78587 0.80112
 O35 O 0.71136 0.78481 0.77522
 O36 O 0.77375 0.71939 0.80596
 Cu37 Cu 0.75871 0.74918 0.70407
 Cu38 Cu 0.74104 0.75244 0.79850
 C39 C 0.79187 0.70699 0.77181
 C40 C 0.70786 0.79458 0.73061
 C41 C 0.79237 0.79551 0.76581
 C42 C 0.70744 0.70616 0.73694
 O43 O 0.28819 0.78234 0.77863
 O44 O 0.22533 0.71545 0.79937
 O45 O 0.28778 0.71618 0.77389
 O46 O 0.22549 0.78187 0.80400
 O47 O 0.21108 0.78420 0.72525
 O48 O 0.27342 0.71858 0.69504
 O49 O 0.21074 0.71804 0.72060
 O50 O 0.27358 0.78499 0.69988
 Cu51 Cu 0.25811 0.74872 0.79687
 Cu52 Cu 0.24079 0.75170 0.70229
 C53 C 0.29191 0.79484 0.73552
 C54 C 0.20701 0.70557 0.76373
 C55 C 0.29156 0.70640 0.72927
 C56 C 0.20725 0.79406 0.76985
 C57 C 0.99888 0.07243 0.08031
 C58 C 1.02892 0.06141 0.05959
 C59 C 1.02901 0.03321 0.02719
 C60 C 0.99967 0.01439 0.01782
 C61 C 0.97006 0.02543 0.04096
 C62 C 0.96922 0.05508 0.07031
 C63 C 0.99966 -0.01624 -0.01615
 C64 C 0.96991 -0.02778 -0.03841
 C65 C 0.96919 -0.05724 -0.06812
 C66 C 0.99894 -0.07399 -0.07925
 C67 C 1.02904 -0.06264 -0.05906
 C68 C 1.02913 -0.03454 -0.02646
 H69 H 0.99849 0.09546 0.10274
 H70 H 1.05216 0.02627 0.00971
 H71 H 0.94723 0.01123 0.03673
 H72 H 0.94687 -0.01415 -0.03322
 H73 H 0.99852 -0.09688 -0.10199
 H74 H 1.05238 -0.02729 -0.00949
 C75 C 0.50169 0.57365 0.57875
 C76 C 0.53139 0.55650 0.56854
 C77 C 0.53062 0.52695 0.53898
 C78 C 0.50100 0.51577 0.51599
 C79 C 0.47161 0.53435 0.52559
 C80 C 0.47165 0.56250 0.55810
 C81 C 0.50105 0.48516 0.48204
 C82 C 0.47171 0.46641 0.47246
 C83 C 0.47186 0.43821 0.44005
 C84 C 0.50194 0.42719 0.41947
 C85 C 0.53160 0.44451 0.42965
 C86 C 0.53071 0.47412 0.45910
 H87 H 0.50205 0.59662 0.60132
 H88 H 0.55349 0.51289 0.53449
 H89 H 0.44845 0.52724 0.50820
 H90 H 0.44853 0.47341 0.48980
 H91 H 0.50239 0.40418 0.39700
 H92 H 0.55353 0.48831 0.46357
 C93 C 0.00134 0.42710 0.08059
 C94 C -0.02873 0.43816 0.06007
 C95 C -0.02883 0.46634 0.02778
 C96 C 0.00053 0.48504 0.01827
 C97 C 0.03018 0.47395 0.04113
 C98 C 0.03102 0.44436 0.07045
 C99 C 0.00053 0.51563 -0.01554
 C100 C 0.03016 0.52669 -0.03859
 C101 C 0.03099 0.55623 -0.06804
 C102 C 0.00133 0.57348 -0.07804
 C103 C -0.02872 0.56245 -0.05734
 C104 C -0.02882 0.53432 -0.02496
 H105 H 0.00174 0.40409 0.10297
 H106 H -0.05201 0.47337 0.01046
 H107 H 0.05303 0.48810 0.03668
 H108 H 0.05298 0.51255 -0.03424
 H109 H 0.00173 0.59644 -0.10052
 H110 H -0.05197 0.52728 -0.00753
 C111 C 0.49822 0.92682 0.57848
 C112 C 0.46854 0.94393 0.56810
 C113 C 0.46938 0.97341 0.53854
 C114 C 0.49906 0.98453 0.51570
 C115 C 0.52844 0.96598 0.52548
 C116 C 0.52831 0.93793 0.55801
 C117 C 0.49908 1.01505 0.48172
 C118 C 0.52844 1.03377 0.47224
 C119 C 0.52834 1.06189 0.43983
 C120 C 0.49829 1.07288 0.41918
 C121 C 0.46862 1.05558 0.42926
 C122 C 0.46946 1.02603 0.45868
 H123 H 0.49780 0.90391 0.60106
 H124 H 0.44653 0.98745 0.53393
 H125 H 0.55164 0.97306 0.50824
 H126 H 0.55159 1.02681 0.48965
 H127 H 0.49788 1.09585 0.39672
 H128 H 0.44663 1.01185 0.46306
 C129 C 1.17690 0.17114 0.16820
 C130 C 1.15033 0.14928 0.15640
 C131 C 1.12897 0.13767 0.19444
 C132 C 1.13496 0.14737 0.24364
 C133 C 1.16134 0.16914 0.25512
 C134 C 1.18237 0.18181 0.21759
 C135 C 1.10160 0.11703 0.18267
 C136 C 1.09516 0.10797 0.13327
 C137 C 1.11688 0.11884 0.09524
 C138 C 1.14440 0.13939 0.10706
 C139 C 1.11036 0.10940 0.04593
 C140 C 1.08216 0.09005 0.03430
 C141 C 1.06000 0.07996 0.07175
 C142 C 1.06695 0.08864 0.12127
 H143 H 1.19284 0.18034 0.13866
 H144 H 1.11892 0.13852 0.27324
 H145 H 1.16479 0.17653 0.29352
 H146 H 1.08501 0.10851 0.21186
 H147 H 1.16084 0.14811 0.07782
 H148 H 1.12678 0.11741 0.01630
 H149 H 1.07719 0.08377 -0.00413
 H150 H 1.05018 0.08053 0.15045
 C151 C 0.67917 0.66343 0.68190
 C152 C 0.65219 0.64197 0.67093
 C153 C 0.62644 0.63776 0.70607
 C154 C 0.62876 0.65410 0.75227
 C155 C 0.65571 0.67541 0.76291
 C156 C 0.68081 0.68084 0.72753
 C157 C 0.59844 0.61806 0.69399
 C158 C 0.59572 0.60278 0.64702
 C159 C 0.62201 0.60604 0.61255
 C160 C 0.65012 0.62547 0.62481
 C161 C 0.61932 0.59064 0.56576
 C162 C 0.59032 0.57335 0.55240
 C163 C 0.56349 0.57106 0.58558
 C164 C 0.56669 0.58521 0.63336
 H165 H 0.69848 0.66719 0.65443
 H166 H 0.60937 0.65101 0.77976
 H167 H 0.65638 0.68846 0.79837
 H168 H 0.57840 0.61539 0.72060
 H169 H 0.66998 0.62848 0.59797
 H170 H 0.63927 0.59278 0.53897
 H171 H 0.58837 0.56297 0.51524
 H172 H 0.54629 0.58322 0.65943
 C173 C -0.17661 0.32857 0.16874
 C174 C -0.15005 0.35042 0.15695
 C175 C -0.12864 0.36205 0.19496
 C176 C -0.13458 0.35238 0.24414
 C177 C -0.16095 0.33062 0.25562
 C178 C -0.18202 0.31793 0.21809
 C179 C -0.10128 0.38267 0.18319
 C180 C -0.09490 0.39171 0.13381
 C181 C -0.11668 0.38082 0.09580
 C182 C -0.14418 0.36029 0.10762
 C183 C -0.11022 0.39024 0.04651
 C184 C -0.08204 0.40957 0.03487
 C185 C -0.05981 0.41966 0.07228
 C186 C -0.06669 0.41101 0.12179
 H187 H -0.19257 0.31935 0.13920
 H188 H -0.11850 0.36124 0.27374
 H189 H -0.16436 0.32325 0.29400
 H190 H -0.08465 0.39120 0.21236
 H191 H -0.16066 0.35156 0.07840
 H192 H -0.12669 0.38223 0.01690
 H193 H -0.07711 0.41584 -0.00355
 H194 H -0.04987 0.41912 0.15094
 C195 C 0.32036 0.83743 0.68066
 C196 C 0.34739 0.85882 0.66983
 C197 C 0.37305 0.86309 0.70511
 C198 C 0.37059 0.84687 0.75130
 C199 C 0.34359 0.82562 0.76180
 C200 C 0.31858 0.82013 0.72627
 C201 C 0.40111 0.88273 0.69318
 C202 C 0.40397 0.89788 0.64622
 C203 C 0.37777 0.89456 0.61161
 C204 C 0.34960 0.87520 0.62371
 C205 C 0.38060 0.90984 0.56483
 C206 C 0.40965 0.92705 0.55162
 C207 C 0.43639 0.92942 0.58496
 C208 C 0.43305 0.91539 0.63271
 H209 H 0.30112 0.83362 0.65307
 H210 H 0.38991 0.85001 0.77890
 H211 H 0.34282 0.81266 0.79725
 H212 H 0.42108 0.88544 0.71990
 H213 H 0.32981 0.87214 0.59676
 H214 H 0.36072 0.90765 0.53793
 H215 H 0.41171 0.93734 0.51447
 H216 H 0.45338 0.91743 0.65890
 C217 C -0.17660 0.67143 -0.16658
 C218 C -0.15001 0.64972 -0.15462
 C219 C -0.12844 0.63824 -0.19255
 C220 C -0.13422 0.64798 -0.24176
 C221 C -0.16061 0.66963 -0.25330
 C222 C -0.18181 0.68196 -0.21589
 C223 C -0.10109 0.61773 -0.18066
 C224 C -0.09483 0.60868 -0.13126
 C225 C -0.11671 0.61945 -0.09334
 C226 C -0.14424 0.63985 -0.10528
 C227 C -0.11034 0.61004 -0.04403
 C228 C -0.08213 0.59083 -0.03228
 C229 C -0.05981 0.58085 -0.06962
 C230 C -0.06662 0.58949 -0.11914
 H231 H -0.19277 0.68067 -0.13735
 H232 H -0.11800 0.63929 -0.27127
 H233 H -0.16403 0.67722 -0.29157
 H234 H -0.08435 0.60931 -0.20974
 H235 H -0.16083 0.64848 -0.07614
 H236 H -0.12688 0.61796 -0.01449
 H237 H -0.07727 0.58458 0.00615
 H238 H -0.04974 0.58145 -0.14824
 C239 C 0.32054 1.16210 0.31726
 C240 C 0.34756 1.14072 0.32792
 C241 C 0.37329 1.13674 0.29269
 C242 C 0.37089 1.15322 0.24669
 C243 C 0.34389 1.17445 0.23635
 C244 C 0.31883 1.17966 0.27186
 C245 C 0.40135 1.11713 0.30451
 C246 C 0.40414 1.10173 0.35131
 C247 C 0.37786 1.10477 0.38585
 C248 C 0.34969 1.12409 0.37385
 C249 C 0.38061 1.08925 0.43246
 C250 C 0.40966 1.07209 0.44561
 C251 C 0.43648 1.07001 0.41237
 C252 C 0.43322 1.08427 0.36475
 H253 H 0.30125 1.16568 0.34482
 H254 H 0.39027 1.15030 0.21913
 H255 H 0.34317 1.18762 0.20106
 H256 H 0.42137 1.11464 0.27784
 H257 H 0.32985 1.12693 0.40075
 H258 H 0.36067 1.09122 0.45930
 H259 H 0.41166 1.06163 0.48266
 H260 H 0.45361 1.08245 0.33863
 C261 C 1.17696 -0.17141 -0.16913
 C262 C 1.15038 -0.14967 -0.15714
 C263 C 1.12879 -0.13828 -0.19498
 C264 C 1.13458 -0.14805 -0.24420
 C265 C 1.16097 -0.16971 -0.25587
 C266 C 1.18221 -0.18218 -0.21851
 C267 C 1.10139 -0.11780 -0.18297
 C268 C 1.09516 -0.10869 -0.13353
 C269 C 1.11713 -0.11934 -0.09572
 C270 C 1.14467 -0.13972 -0.10777
 C271 C 1.11083 -0.10987 -0.04637
 C272 C 1.08260 -0.09073 -0.03446
 C273 C 1.06018 -0.08087 -0.07166
 C274 C 1.06691 -0.08957 -0.12124
 H275 H 1.19306 -0.18046 -0.13972
 H276 H 1.11837 -0.13937 -0.27367
 H277 H 1.16426 -0.17717 -0.29428
 H278 H 1.08461 -0.10945 -0.21200
 H279 H 1.16130 -0.14827 -0.07870
 H280 H 1.12744 -0.11771 -0.01691
 H281 H 1.07780 -0.08446 0.00402
 H282 H 1.04992 -0.08164 -0.15023
 C283 C 0.67977 0.33778 0.31777
 C284 C 0.65274 0.35918 0.32842
 C285 C 0.62706 0.36313 0.29315
 C286 C 0.62949 0.34658 0.24712
 C287 C 0.65650 0.32532 0.23679
 C288 C 0.68152 0.32015 0.27234
 C289 C 0.59899 0.38277 0.30494
 C290 C 0.59616 0.39823 0.35176
 C291 C 0.62240 0.39524 0.38635
 C292 C 0.65057 0.37589 0.37438
 C293 C 0.61960 0.41083 0.43299
 C294 C 0.59054 0.42803 0.44611
 C295 C 0.56376 0.43006 0.41281
 C296 C 0.56707 0.41573 0.36517
 H297 H 0.69903 0.33423 0.34537
 H298 H 0.61015 0.34946 0.21952
 H299 H 0.65725 0.31210 0.20147
 H300 H 0.57900 0.38523 0.27823
 H301 H 0.67038 0.37308 0.40132
 H302 H 0.63950 0.40889 0.45987
 H303 H 0.58850 0.43855 0.48318
 H304 H 0.54672 0.41752 0.33901
 C305 C 0.82080 -0.16485 -0.17814
 C306 C 0.84758 -0.14303 -0.16764
 C307 C 0.87178 -0.13660 -0.20442
 C308 C 0.86794 -0.15086 -0.25180
 C309 C 0.84104 -0.17232 -0.26218
 C310 C 0.81758 -0.18034 -0.22516
 C311 C 0.89976 -0.11665 -0.19294
 C312 C 0.90380 -0.10309 -0.14507
 C313 C 0.87884 -0.10835 -0.10896
 C314 C 0.85091 -0.12825 -0.12047
 C315 C 0.88264 -0.09438 -0.06141
 C316 C 0.91148 -0.07650 -0.04904
 C317 C 0.93709 -0.07233 -0.08392
 C318 C 0.93280 -0.08515 -0.13227
 H319 H 0.80283 -0.17019 -0.14920
 H320 H 0.88607 -0.14593 -0.28061
 H321 H 0.83931 -0.18348 -0.29890
 H322 H 0.91869 -0.11233 -0.22086
 H323 H 0.83215 -0.13287 -0.09238
 H324 H 0.86368 -0.09802 -0.03338
 H325 H 0.91436 -0.06710 -0.01146
 H326 H 0.95233 -0.08175 -0.15951
 C327 C 0.32362 0.32908 0.33087
 C328 C 0.35033 0.35073 0.34278
 C329 C 0.37197 0.36198 0.30484
 C330 C 0.36614 0.35208 0.25564
 C331 C 0.33962 0.33048 0.24415
 C332 C 0.31835 0.31838 0.28159
 C333 C 0.39944 0.38245 0.31670
 C334 C 0.40572 0.39167 0.36609
 C335 C 0.38375 0.38110 0.40401
 C336 C 0.35613 0.36075 0.39209
 C337 C 0.39013 0.39067 0.45330
 C338 C 0.41840 0.40987 0.46505
 C339 C 0.44078 0.41970 0.42773
 C340 C 0.43399 0.41086 0.37821
 H341 H 0.30739 0.32002 0.36013
 H342 H 0.38241 0.36059 0.22612
 H343 H 0.33615 0.32274 0.20590
 H344 H 0.41623 0.39071 0.28762
 H345 H 0.33948 0.35228 0.42123
 H346 H 0.37353 0.38289 0.48284
 H347 H 0.42324 0.41627 0.50348
 H348 H 0.45093 0.41877 0.34913
 C349 C 0.17879 0.66280 -0.18145
 C350 C 0.15180 0.64138 -0.17051
 C351 C 0.12599 0.63724 -0.20557
 C352 C 0.12826 0.65360 -0.25167
 C353 C 0.15523 0.67488 -0.26229
 C354 C 0.18038 0.68025 -0.22696
 C355 C 0.09797 0.61759 -0.19348
 C356 C 0.09530 0.60230 -0.14659
 C357 C 0.12166 0.60548 -0.11222
 C358 C 0.14980 0.62485 -0.12448
 C359 C 0.11902 0.59007 -0.06551
 C360 C 0.09001 0.57287 -0.05210
 C361 C 0.06311 0.57066 -0.08517
 C362 C 0.06626 0.58480 -0.13289
 H363 H 0.19815 0.66651 -0.15403
 H364 H 0.10882 0.65056 -0.27910
 H365 H 0.15586 0.68796 -0.29766
 H366 H 0.07788 0.61497 -0.22002
 H367 H 0.16970 0.62782 -0.09771
 H368 H 0.13903 0.59215 -0.03880
 H369 H 0.08810 0.56249 -0.01498
 H370 H 0.04581 0.58287 -0.15888
 C371 C 0.67669 1.17084 0.33109
 C372 C 0.64998 1.14919 0.34292
 C373 C 0.62839 1.13784 0.30492
 C374 C 0.63427 1.14765 0.25575
 C375 C 0.66079 1.16924 0.24433
 C376 C 0.68201 1.18143 0.28183
 C377 C 0.60092 1.11739 0.31671
 C378 C 0.59458 1.10828 0.36608
 C379 C 0.61649 1.11894 0.40405
 C380 C 0.64412 1.13928 0.39222
 C381 C 0.61005 1.10948 0.45333
 C382 C 0.58177 1.09029 0.46500
 C383 C 0.55944 1.08037 0.42761
 C384 C 0.56629 1.08910 0.37812
 H385 H 0.69287 1.17997 0.36039
 H386 H 0.61804 1.13906 0.22618
 H387 H 0.66430 1.17689 0.20610
 H388 H 0.58417 1.10905 0.28758
 H389 H 0.66072 1.14782 0.42141
 H390 H 0.62660 1.11733 0.48291
 H391 H 0.57688 1.08398 0.50341
 H392 H 0.54940 1.08112 0.34898
 C393 C 0.17889 0.33708 0.18152
 C394 C 0.15193 0.35858 0.17102
 C395 C 0.12628 0.36261 0.20635
 C396 C 0.12867 0.34605 0.25228
 C397 C 0.15561 0.32470 0.26247
 C398 C 0.18062 0.31946 0.22687
 C399 C 0.09828 0.38236 0.19471
 C400 C 0.09548 0.39786 0.14799
 C401 C 0.12169 0.39478 0.11334
 C402 C 0.14980 0.37531 0.12516
 C403 C 0.11892 0.41040 0.06680
 C404 C 0.08992 0.42771 0.05382
 C405 C 0.06316 0.42982 0.08717
 C406 C 0.06645 0.41547 0.13473
 H407 H 0.19814 0.33347 0.15389
 H408 H 0.10935 0.34900 0.27992
 H409 H 0.15634 0.31149 0.29773
 H410 H 0.07831 0.38489 0.22146
 H411 H 0.16958 0.37243 0.09817
 H412 H 0.13881 0.40840 0.03988
 H413 H 0.08789 0.43824 0.01682
 H414 H 0.04611 0.41732 0.16093
 C415 C 0.67642 0.83001 0.66879
 C416 C 0.64974 0.85153 0.65659
 C417 C 0.62794 0.86287 0.69430
 C418 C 0.63359 0.85318 0.74358
 C419 C 0.66007 0.83170 0.75537
 C420 C 0.68149 0.81951 0.71815
 C421 C 0.60049 0.88317 0.68214
 C422 C 0.59437 0.89214 0.63266
 C423 C 0.61648 0.88150 0.59496
 C424 C 0.64411 0.86132 0.60718
 C425 C 0.61025 0.89081 0.54558
 C426 C 0.58196 0.90981 0.53352
 C427 C 0.55943 0.91968 0.57063
 C428 C 0.56608 0.91113 0.62024
 H429 H 0.69276 0.82088 0.63971
 H430 H 0.61720 0.86176 0.77293
 H431 H 0.66339 0.82413 0.79367
 H432 H 0.58358 0.89149 0.71105
 H433 H 0.66087 0.85279 0.57821
 H434 H 0.62696 0.88298 0.51620
 H435 H 0.57723 0.91599 0.49503
 H436 H 0.54903 0.91909 0.64917
 C437 C 0.82142 0.16251 0.18184
 C438 C 0.84838 0.14099 0.17128
 C439 C 0.87409 0.13709 0.20652
 C440 C 0.87175 0.15380 0.25244
 C441 C 0.84481 0.17516 0.26269
 C442 C 0.81975 0.18028 0.22717
 C443 C 0.90208 0.11733 0.19481
 C444 C 0.90482 0.10169 0.14809
 C445 C 0.87856 0.10463 0.11355
 C446 C 0.85045 0.12412 0.12544
 C447 C 0.88126 0.08887 0.06702
 C448 C 0.91027 0.07157 0.05394
 C449 C 0.93709 0.06958 0.08718
 C450 C 0.93385 0.08407 0.13474
 H451 H 0.80213 0.16602 0.15428
 H452 H 0.89111 0.15095 0.28002
 H453 H 0.84412 0.18849 0.29793
 H454 H 0.92210 0.11490 0.22148
 H455 H 0.83062 0.12689 0.09853
 H456 H 0.86133 0.09077 0.04017
 H457 H 0.91224 0.06093 0.01694
 H458 H 0.95424 0.08233 0.16086
 C459 C 0.32323 0.67081 0.66773
 C460 C 0.34995 0.64925 0.65574
 C461 C 0.37161 0.63801 0.69362
 C462 C 0.36578 0.64783 0.74285
 C463 C 0.33926 0.66935 0.75443
 C464 C 0.31798 0.68144 0.71704
 C465 C 0.39909 0.61766 0.68167
 C466 C 0.40538 0.60855 0.63225
 C467 C 0.38340 0.61909 0.59438
 C468 C 0.35575 0.63932 0.60638
 C469 C 0.38979 0.60964 0.54505
 C470 C 0.41810 0.59059 0.53321
 C471 C 0.44051 0.58080 0.57049
 C472 C 0.43369 0.58951 0.62004
 H473 H 0.30700 0.67987 0.63851
 H474 H 0.38207 0.63933 0.77234
 H475 H 0.33581 0.67703 0.79270
 H476 H 0.41590 0.60941 0.71072
 H477 H 0.33909 0.64778 0.57728
 H478 H 0.37318 0.61740 0.51555
 H479 H 0.42296 0.58429 0.49476
 H480 H 0.45064 0.58162 0.64910
   
