data_POSCAR
  _audit_creation_date              2014-09-24
  _audit_creation_method            'ToBaCCo'
  _symmetry_space_group_name_H-M    'P1'
  _symmetry_Int_Tables_number       1
  _symmetry_cell_setting            triclinic
  loop_
  _symmetry_equiv_pos_as_xyz
 x,y,z
_cell_length_a 32.2534
_cell_length_b 32.2341
_cell_length_c 32.1895
_cell_angle_alpha 89.851800
_cell_angle_beta 89.860000
_cell_angle_gamma 90.172700
loop_
  _atom_site_label
  _atom_site_type_symbol
  _atom_site_fract_x
  _atom_site_fract_y
  _atom_site_fract_z
C1 C 0.29445 0.46320 0.99882
 C2 C 0.27295 0.50083 1.00058
 C3 C 0.29481 0.53839 1.00218
 C4 C 0.33821 0.53841 1.00203
 C5 C 0.35976 0.50065 1.00028
 C6 C 0.33781 0.46303 0.99867
 C7 C 0.22754 0.50090 1.00064
 C8 C 0.20581 0.49927 1.03832
 C9 C 0.16240 0.49927 1.03845
 C10 C 0.14073 0.50093 1.00068
 C11 C 0.16258 0.50257 0.96294
 C12 C 0.20594 0.50254 0.96301
 H13 H 0.27740 0.43418 0.99757
 H14 H 0.27794 0.56744 1.00351
 H15 H 0.22276 0.49798 1.06737
 H16 H 0.22290 0.50379 0.93389
 H17 H 0.39340 0.50047 1.00015
 H18 H 0.10709 0.50093 1.00058
 C19 C 0.70666 0.46252 0.00049
 C20 C 0.72841 0.50014 -0.00125
 C21 C 0.70681 0.53772 -0.00301
 C22 C 0.66344 0.53775 -0.00303
 C23 C 0.64162 0.50005 -0.00128
 C24 C 0.66329 0.46239 0.00048
 C25 C 0.77382 0.50019 -0.00123
 C26 C 0.79560 0.49855 -0.03887
 C27 C 0.83900 0.49856 -0.03894
 C28 C 0.86063 0.50023 -0.00115
 C29 C 0.83875 0.50187 0.03656
 C30 C 0.79539 0.50184 0.03643
 H31 H 0.72350 0.43348 0.00185
 H32 H 0.72377 0.56680 -0.00434
 H33 H 0.77867 0.49728 -0.06793
 H34 H 0.77839 0.50310 0.06551
 H35 H 0.60800 0.50001 -0.00127
 H36 H 0.89427 0.50025 -0.00101
 C37 C 0.03738 0.20664 0.50184
 C38 C -0.00007 0.22833 0.49905
 C39 C -0.03764 0.20662 0.49648
 C40 C -0.03785 0.16322 0.49689
 C41 C -0.00031 0.14148 0.49949
 C42 C 0.03735 0.16325 0.50187
 C43 C 0.00006 0.27377 0.49895
 C44 C -0.00224 0.29550 0.46131
 C45 C -0.00188 0.33893 0.46113
 C46 C 0.00039 0.36064 0.49885
 C47 C 0.00249 0.33880 0.53657
 C48 C 0.00252 0.29542 0.53652
 H49 H 0.06643 0.22356 0.50375
 H50 H -0.06660 0.22351 0.49445
 H51 H -0.00403 0.27852 0.43230
 H52 H 0.00421 0.27846 0.56561
 H53 H -0.00041 0.10784 0.49968
 H54 H 0.00051 0.39430 0.49893
 C55 C 1.03781 0.79462 0.49818
 C56 C 1.00029 0.77278 0.50064
 C57 C 0.96273 0.79430 0.50319
 C58 C 0.96258 0.83769 0.50308
 C59 C 1.00017 0.85964 0.50079
 C60 C 1.03787 0.83805 0.49842
 C61 C 1.00034 0.72734 0.50063
 C62 C 0.99808 0.70553 0.53825
 C63 C 0.99835 0.66211 0.53835
 C64 C 1.00051 0.64047 0.50058
 C65 C 1.00259 0.66238 0.46288
 C66 C 1.00268 0.70577 0.46300
 H67 H 1.06680 0.77773 0.49632
 H68 H 0.93374 0.77726 0.50501
 H69 H 0.99637 0.72246 0.56729
 H70 H 1.00435 0.72278 0.43393
 H71 H 1.00002 0.89330 0.50085
 H72 H 1.00059 0.60682 0.50045
 C73 C 0.49729 0.03659 0.20592
 C74 C 0.49975 -0.00103 0.22759
 C75 C 0.50223 -0.03850 0.20583
 C76 C 0.50206 -0.03844 0.16238
 C77 C 0.49980 -0.00072 0.14063
 C78 C 0.49751 0.03684 0.16247
 C79 C 0.49970 -0.00118 0.27308
 C80 C 0.46217 0.00142 0.29485
 C81 C 0.46203 0.00119 0.33830
 C82 C 0.49961 -0.00125 0.36005
 C83 C 0.53724 -0.00365 0.33820
 C84 C 0.53718 -0.00382 0.29475
 H85 H 0.49547 0.06555 0.22289
 H86 H 0.50402 -0.06758 0.22274
 H87 H 0.43319 0.00338 0.27795
 H88 H 0.56620 -0.00570 0.27778
 H89 H 0.49982 -0.00059 0.10694
 H90 H 0.49958 -0.00124 0.39374
 C91 C 0.50116 0.03652 0.79515
 C92 C 0.49896 -0.00102 0.77349
 C93 C 0.49676 -0.03863 0.79524
 C94 C 0.49693 -0.03880 0.83873
 C95 C 0.49897 -0.00111 0.86047
 C96 C 0.50099 0.03657 0.83859
 C97 C 0.49900 -0.00094 0.72799
 C98 C 0.53655 0.00157 0.70622
 C99 C 0.53669 0.00154 0.66277
 C100 C 0.49908 -0.00066 0.64103
 C101 C 0.46142 -0.00300 0.66289
 C102 C 0.46148 -0.00331 0.70633
 H103 H 0.50279 0.06558 0.77816
 H104 H 0.49515 -0.06761 0.77823
 H105 H 0.56556 0.00332 0.72311
 H106 H 0.43245 -0.00514 0.72332
 H107 H 0.49899 -0.00104 0.89417
 H108 H 0.49911 -0.00055 0.60734
 C109 C 0.31131 0.03786 0.45592
 H110 H 0.30709 0.06178 0.47906
 C111 C 0.34560 0.03930 0.42948
 H112 H 0.36746 0.06478 0.43172
 C113 C 0.29000 -0.02653 0.42730
 H114 H 0.26939 -0.05303 0.42806
 C115 C 0.32404 -0.02632 0.40027
 H116 H 0.32908 -0.05230 0.37961
 N117 N 0.28482 0.00496 0.45489
 C118 C 0.18687 0.04499 0.53890
 H119 H 0.19086 0.02181 0.56292
 C120 C 0.15295 0.07169 0.54036
 H121 H 0.13114 0.06957 0.56593
 C122 C 0.20833 0.07351 0.47426
 H123 H 0.22884 0.07263 0.44767
 C124 C 0.17468 0.10079 0.47449
 H125 H 0.16982 0.12150 0.44841
 Zn126 Zn 0.24877 -0.00016 0.50076
 N127 N 0.21325 0.04585 0.50587
 C128 C 0.29003 0.02591 0.57420
 N129 N 0.28450 -0.00557 0.54665
 C130 C 0.31053 -0.03868 0.54563
 C131 C 0.34471 -0.04036 0.57204
 C132 C 0.32397 0.02547 0.60118
 C133 C 0.18644 -0.04474 0.46254
 C134 C 0.15223 -0.07126 0.46095
 C135 C 0.17322 -0.10069 0.52675
 C136 C 0.20718 -0.07359 0.52711
 N137 N 0.21262 -0.04587 0.49559
 H138 H 0.26980 0.05258 0.57342
 H139 H 0.30607 -0.06258 0.52253
 H140 H 0.36623 -0.06601 0.56979
 H141 H 0.32931 0.05143 0.62180
 H142 H 0.19086 -0.02153 0.43859
 H143 H 0.13063 -0.06897 0.43533
 H144 H 0.16799 -0.12150 0.55273
 H145 H 0.22754 -0.07292 0.55373
 C146 C 0.14623 0.09911 0.50738
 C147 C 0.35258 0.00644 0.40214
 C148 C 0.14501 -0.09878 0.49381
 C149 C 0.35206 -0.00752 0.59932
 C150 C 0.68763 0.03777 0.54481
 H151 H 0.69198 0.06159 0.52145
 C152 C 0.65335 0.03930 0.57124
 H153 H 0.63164 0.06477 0.56877
 C154 C 0.70856 -0.02651 0.57401
 H155 H 0.72901 -0.05301 0.57348
 C156 C 0.67453 -0.02619 0.60104
 H157 H 0.66934 -0.05209 0.62195
 N158 N 0.71393 0.00487 0.54613
 C159 C 0.81201 0.04451 0.46158
 H160 H 0.80786 0.02118 0.43784
 C161 C 0.84605 0.07126 0.45975
 H162 H 0.86779 0.06902 0.43415
 C163 C 0.79079 0.07342 0.52592
 H164 H 0.77033 0.07269 0.55256
 C165 C 0.82457 0.10075 0.52532
 H166 H 0.82957 0.12165 0.55114
 Zn167 Zn 0.74991 -0.00044 0.50027
 N168 N 0.78569 0.04556 0.49465
 C169 C 0.70880 0.02529 0.42659
 N170 N 0.71411 -0.00606 0.45446
 C171 C 0.68787 -0.03916 0.45581
 C172 C 0.65368 -0.04095 0.42941
 C173 C 0.67487 0.02472 0.39961
 C174 C 0.81204 -0.04486 0.53883
 C175 C 0.84618 -0.07126 0.54055
 C176 C 0.82499 -0.10089 0.47500
 C177 C 0.79110 -0.07390 0.47450
 N178 N 0.78581 -0.04612 0.50582
 H179 H 0.72920 0.05195 0.42711
 H180 H 0.69217 -0.06295 0.47915
 H181 H 0.63199 -0.06657 0.43191
 H182 H 0.66971 0.05060 0.37873
 H183 H 0.80774 -0.02160 0.56261
 H184 H 0.86785 -0.06884 0.56610
 H185 H 0.83013 -0.12171 0.44914
 H186 H 0.77071 -0.07333 0.44791
 C187 C 0.85295 0.09891 0.49238
 C188 C 0.64618 0.00655 0.59889
 C189 C 0.85327 -0.09881 0.50786
 C190 C 0.64656 -0.00824 0.40180
 C191 C 0.46124 0.18811 1.04534
 H192 H 0.43714 0.19256 1.02245
 C193 C 0.45971 0.15383 1.07184
 H194 H 0.43398 0.13224 1.06989
 C195 C 0.52614 0.20873 1.07323
 H196 H 0.55285 0.22904 1.07214
 C197 C 0.52585 0.17469 1.10030
 H198 H 0.55198 0.16936 1.12067
 N199 N 0.49443 0.21424 1.04598
 C200 C 0.45445 0.31216 0.96183
 H201 H 0.47726 0.30779 0.93755
 C202 C 0.42809 0.34637 0.96048
 H203 H 0.43007 0.36799 0.93472
 C204 C 0.42656 0.29141 1.02697
 H205 H 0.42759 0.27108 1.05370
 C206 C 0.39964 0.32536 1.02686
 H207 H 0.37931 0.33059 1.05316
 Zn208 Zn 0.49948 0.25008 0.99993
 N209 N 0.45374 0.28599 0.99504
 C210 C 0.47261 0.20845 0.92693
 N211 N 0.50431 0.21406 0.95419
 C212 C 0.53734 0.18793 0.95511
 C213 C 0.53873 0.15358 0.92889
 C214 C 0.47276 0.17433 0.90014
 C215 C 0.54498 0.31212 1.03760
 C216 C 0.57172 0.34618 1.03883
 C217 C 0.60015 0.32495 0.97267
 C218 C 0.57284 0.29115 0.97268
 N219 N 0.54551 0.28590 1.00456
 H220 H 0.44602 0.22877 0.92780
 H221 H 0.56142 0.19246 0.97800
 H222 H 0.56434 0.13202 0.93105
 H223 H 0.44664 0.16894 0.87974
 H224 H 0.52205 0.30787 1.06184
 H225 H 0.56990 0.36783 1.06445
 H226 H 0.62063 0.33005 0.94641
 H227 H 0.57169 0.27077 0.94609
 C228 C 0.40117 0.35359 0.99375
 C229 C 0.49277 0.14649 1.09881
 C230 C 0.59884 0.35321 1.00561
 C231 C 0.50568 0.14615 0.90190
 C232 C 0.46173 0.81153 -0.04505
 H233 H 0.43781 0.80684 -0.02188
 C234 C 0.46004 0.84595 -0.07133
 H235 H 0.43436 0.86741 -0.06893
 C236 C 0.52636 0.79135 -0.07391
 H237 H 0.55303 0.77113 -0.07330
 C238 C 0.52590 0.82553 -0.10078
 H239 H 0.55186 0.83108 -0.12149
 N240 N 0.49486 0.78554 -0.04628
 C241 C 0.45538 0.68674 0.03761
 H242 H 0.47847 0.69099 0.06157
 C243 C 0.42885 0.65252 0.03915
 H244 H 0.43099 0.63073 0.06473
 C245 C 0.42687 0.70795 -0.02692
 H246 H 0.42768 0.72850 -0.05349
 C247 C 0.39976 0.67398 -0.02661
 H248 H 0.37909 0.66894 -0.05260
 Zn249 Zn 0.50016 0.74937 -0.00053
 N250 N 0.45443 0.71317 0.00461
 C251 C 0.47373 0.79013 0.07314
 N252 N 0.50523 0.78505 0.04544
 C253 C 0.53821 0.81145 0.04437
 C254 C 0.53973 0.84554 0.07091
 C255 C 0.47402 0.82398 0.10027
 C256 C 0.54545 0.68775 -0.03899
 C257 C 0.57214 0.65382 -0.04058
 C258 C 0.60088 0.67494 0.02539
 C259 C 0.57363 0.70862 0.02574
 N260 N 0.54616 0.71384 -0.00585
 H261 H 0.44717 0.76961 0.07240
 H262 H 0.56213 0.80733 0.02115
 H263 H 0.56527 0.86734 0.06865
 H264 H 0.44803 0.82896 0.12104
 H265 H 0.52242 0.69197 -0.06299
 H266 H 0.57016 0.63224 -0.06625
 H267 H 0.62145 0.66983 0.05145
 H268 H 0.57262 0.72888 0.05243
 C269 C 0.40150 0.64553 0.00628
 C270 C 0.49288 0.85358 -0.09871
 C271 C 0.59938 0.64678 -0.00763
 C272 C 0.50687 0.85243 0.09839
 C273 C 1.04590 0.46260 0.18751
 H274 H 1.02299 0.43840 0.19195
 C275 C 1.07240 0.46132 0.15322
 H276 H 1.07042 0.43568 0.13161
 C277 C 1.07392 0.52749 0.20819
 H278 H 1.07290 0.55409 0.22853
 C279 C 1.10098 0.52744 0.17415
 H280 H 1.12143 0.55366 0.16886
 N281 N 1.04662 0.49565 0.21369
 C282 C 0.96249 0.45531 0.31197
 H283 H 0.93847 0.47824 0.30753
 C284 C 0.96090 0.42884 0.34629
 H285 H 0.93520 0.43086 0.36792
 C286 C 1.02723 0.42722 0.29125
 H287 H 1.05391 0.42820 0.27086
 C288 C 1.02687 0.40018 0.32532
 H289 H 1.05292 0.37971 0.33061
 Zn290 Zn 1.00072 0.50045 0.24969
 N291 N 0.99562 0.45455 0.28575
 C292 C 0.92764 0.47350 0.20842
 N293 N 0.95491 0.50532 0.21378
 C294 C 0.95569 0.53844 0.18751
 C295 C 0.92930 0.53979 0.15327
 C296 C 0.90068 0.47361 0.17443
 C297 C 1.03878 0.54547 0.31173
 C298 C 1.04028 0.57186 0.34597
 C299 C 0.97434 0.60053 0.32509
 C300 C 0.97407 0.57358 0.29109
 N301 N 1.00571 0.54628 0.28559
 H302 H 0.92860 0.44684 0.22884
 H303 H 0.97859 0.56263 0.19184
 H304 H 0.93135 0.56547 0.13157
 H305 H 0.88027 0.44739 0.16925
 H306 H 1.06282 0.52256 0.30729
 H307 H 1.06592 0.56979 0.36755
 H308 H 0.94826 0.62096 0.33040
 H309 H 0.94745 0.57263 0.27078
 C310 C 0.99384 0.40175 0.35359
 C311 C 1.09946 0.49450 0.14592
 C312 C 1.00730 0.59891 0.35328
 C313 C 0.90228 0.50662 0.14610
 C314 C -0.04455 0.46248 0.81216
 H315 H -0.02166 0.43840 0.80781
 C316 C -0.07103 0.46103 0.84646
 H317 H -0.06907 0.43539 0.86819
 C318 C -0.07253 0.52724 0.79121
 H319 H -0.07149 0.55387 0.77075
 C320 C -0.09957 0.52703 0.82526
 H321 H -0.11999 0.55314 0.83044
 N322 N -0.04525 0.49555 0.78583
 C323 C 0.03879 0.45579 0.68767
 H324 H 0.06285 0.47880 0.69205
 C325 C 0.04029 0.42945 0.65339
 H326 H 0.06596 0.43165 0.63173
 C327 C -0.02601 0.42739 0.70849
 H328 H -0.05267 0.42821 0.72889
 C329 C -0.02574 0.40047 0.67446
 H330 H -0.05185 0.37994 0.66922
 Zn331 Zn 0.00063 0.50064 0.74980
 N332 N 0.00567 0.45482 0.71391
 C333 C 0.07369 0.47402 0.79117
 N334 N 0.04645 0.50571 0.78568
 C335 C 0.04569 0.53879 0.81182
 C336 C 0.07206 0.54023 0.84607
 C337 C 0.10063 0.47422 0.82518
 C338 C -0.03745 0.54550 0.68761
 C339 C -0.03898 0.57193 0.65328
 C340 C 0.02696 0.60100 0.67402
 C341 C 0.02726 0.57398 0.70812
 N342 N -0.00436 0.54647 0.71372
 H343 H 0.07271 0.44738 0.77086
 H344 H 0.02282 0.56288 0.80739
 H345 H 0.07003 0.56587 0.86767
 H346 H 0.12101 0.44810 0.83048
 H347 H -0.06148 0.52242 0.69214
 H348 H -0.06464 0.56975 0.63173
 H349 H 0.05302 0.62162 0.66864
 H350 H 0.05390 0.57318 0.72842
 C351 C 0.00726 0.40228 0.64616
 C352 C -0.09806 0.49407 0.85363
 C353 C -0.00602 0.59921 0.64586
 C354 C 0.09904 0.50718 0.85338
 C355 C 0.07606 0.14124 0.50407
 C356 C 0.10838 0.12260 0.50570
 C357 C 0.64148 0.57654 -0.00475
 C358 C 0.62286 0.60890 -0.00613
 C359 C 0.92375 -0.14048 0.50503
 C360 C 0.89130 -0.12204 0.50644
 C361 C 0.35960 0.42414 0.99687
 C362 C 0.37801 0.39166 0.99541
 C363 C 0.92331 0.14117 0.49503
 C364 C 0.89090 0.12248 0.49370
 C365 C 0.35926 0.57511 0.00353
 C366 C 0.37799 0.60752 0.00483
 C367 C 0.07455 -0.14093 0.49665
 C368 C 0.10698 -0.12223 0.49525
 C369 C 0.64118 0.42356 1.00231
 C370 C 0.62245 0.39115 1.00383
 C371 C 0.49566 0.07576 1.14052
 C372 C 0.49427 0.10832 1.12205
 C373 C -0.00327 0.64115 0.57515
 C374 C -0.00458 0.62255 0.60769
 C375 C 0.49540 0.92440 -0.14038
 C376 C 0.49418 0.89182 -0.12188
 C377 C 0.99651 0.35984 0.42431
 C378 C 0.99523 0.37842 0.39176
 C379 C 0.50393 0.92281 0.14033
 C380 C 0.50534 0.89041 0.12175
 C381 C 0.00435 0.36070 0.57546
 C382 C 0.00575 0.37913 0.60800
 C383 C 0.50274 0.07543 0.86048
 C384 C 0.50412 0.10797 0.87885
 C385 C 1.00441 0.64053 0.42396
 C386 C 1.00579 0.62210 0.39142
 C387 C 1.14147 0.49763 0.07526
 C388 C 1.12285 0.49618 0.10779
 C389 C 0.57554 0.00351 0.64072
 C390 C 0.60804 0.00499 0.62217
 C391 C -0.14004 0.49699 0.92428
 C392 C -0.12142 0.49562 0.89177
 C393 C 0.42320 0.00324 0.36034
 C394 C 0.39070 0.00479 0.37887
 C395 C 0.14069 0.50424 0.92403
 C396 C 0.12224 0.50562 0.89151
 C397 C 0.57603 -0.00555 0.36014
 C398 C 0.60848 -0.00690 0.37861
 C399 C 0.86061 0.50357 0.07547
 C400 C 0.87906 0.50498 0.10799
 C401 C 0.42262 -0.00479 0.64095
 C402 C 0.39015 -0.00613 0.62250
   
