data_POSCAR
  _audit_creation_date              2014-09-24
  _audit_creation_method            'ToBaCCo'
  _symmetry_space_group_name_H-M    'P1'
  _symmetry_Int_Tables_number       1
  _symmetry_cell_setting            triclinic
  loop_
  _symmetry_equiv_pos_as_xyz
 x,y,z
_cell_length_a 55.5593
_cell_length_b 55.6658
_cell_length_c 56.7936
_cell_angle_alpha 88.940300
_cell_angle_beta 90.682900
_cell_angle_gamma 90.280100
loop_
  _atom_site_label
  _atom_site_type_symbol
  _atom_site_fract_x
  _atom_site_fract_y
  _atom_site_fract_z
N1 N 0.29267 0.25234 0.21561
 N2 N 0.28109 0.26966 0.20438
 C3 C 0.29416 0.27719 0.18589
 C4 C 0.31509 0.26379 0.18529
 C5 C 0.31354 0.24821 0.20455
 H6 H 0.28862 0.29121 0.17361
 H7 H 0.32621 0.23436 0.20971
 Cu8 Cu 0.24942 0.28027 0.21375
 Cu9 Cu 0.27904 0.23570 0.24280
 Cu10 Cu 0.22562 0.25768 0.26403
 N11 N 0.22083 0.29378 0.22760
 N12 N 0.21185 0.28538 0.24745
 C13 C 0.19193 0.29788 0.25249
 C14 C 0.18811 0.31489 0.23476
 C15 C 0.20686 0.31178 0.21932
 H16 H 0.18056 0.29428 0.26749
 H17 H 0.21007 0.32186 0.20319
 N18 N 0.24220 0.22973 0.27831
 N19 N 0.26248 0.22127 0.27005
 C20 C 0.26864 0.20140 0.28251
 C21 C 0.25137 0.19703 0.29947
 C22 C 0.23493 0.21548 0.29633
 H23 H 0.28437 0.19069 0.27922
 H24 H 0.21841 0.21782 0.30587
 H25 H 0.24296 0.24269 0.23566
 H26 H 0.26013 0.26565 0.25293
 N27 N 0.69628 -0.24670 0.23304
 N28 N 0.70564 -0.26678 0.22566
 C29 C 0.69296 -0.27444 0.20690
 C30 C 0.67443 -0.25829 0.20214
 C31 C 0.67720 -0.24092 0.21929
 H32 H 0.69716 -0.29054 0.19748
 H33 H 0.66656 -0.22495 0.22146
 Cu34 Cu 0.73387 -0.28089 0.24079
 Cu35 Cu 0.70984 -0.22936 0.25965
 Cu36 Cu 0.76453 -0.24971 0.28161
 N37 N 0.76671 -0.28905 0.24972
 N38 N 0.77871 -0.27663 0.26543
 C39 C 0.80114 -0.28543 0.26760
 C40 C 0.80347 -0.30457 0.25240
 C41 C 0.78103 -0.30629 0.24140
 H42 H 0.81467 -0.27816 0.27931
 H43 H 0.77548 -0.31878 0.22803
 N44 N 0.74713 -0.22272 0.29538
 N45 N 0.72658 -0.21454 0.28662
 C46 C 0.71982 -0.19537 0.29902
 C47 C 0.73684 -0.19142 0.31654
 C48 C 0.75385 -0.20916 0.31374
 H49 H 0.70370 -0.18503 0.29558
 H50 H 0.77029 -0.21152 0.32388
 H51 H 0.74434 -0.24019 0.25195
 H52 H 0.72836 -0.25715 0.27591
 N53 N 0.70557 0.24916 0.76776
 N54 N 0.71949 0.26508 0.77804
 C55 C 0.71038 0.27029 0.79917
 C56 C 0.68955 0.25696 0.80234
 C57 C 0.68699 0.24381 0.78198
 H58 H 0.71847 0.28266 0.81144
 H59 H 0.67325 0.23054 0.77826
 Cu60 Cu 0.74885 0.27684 0.76367
 Cu61 Cu 0.71405 0.23495 0.73789
 Cu62 Cu 0.76238 0.26051 0.70860
 N63 N 0.77283 0.29390 0.74521
 N64 N 0.77817 0.28759 0.72375
 C65 C 0.79593 0.30194 0.71563
 C66 C 0.80215 0.31822 0.73301
 C67 C 0.78688 0.31247 0.75150
 H68 H 0.80392 0.30023 0.69850
 H69 H 0.78607 0.32084 0.76847
 N70 N 0.74401 0.23294 0.69636
 N71 N 0.72566 0.22312 0.70757
 C72 C 0.71810 0.20366 0.69578
 C73 C 0.73234 0.20109 0.67614
 C74 C 0.74852 0.22007 0.67707
 H75 H 0.70370 0.19186 0.70143
 H76 H 0.76325 0.22355 0.66522
 H77 H 0.75067 0.24203 0.73838
 H78 H 0.73060 0.26630 0.72621
 N79 N 0.29374 -0.24049 0.76700
 N80 N 0.28679 -0.26185 0.77423
 C81 C 0.30057 -0.26878 0.79284
 C82 C 0.31710 -0.25067 0.79751
 C83 C 0.31219 -0.23300 0.78063
 H84 H 0.29822 -0.28537 0.80267
 H85 H 0.32106 -0.21581 0.77859
 Cu86 Cu 0.25939 -0.27803 0.75967
 Cu87 Cu 0.27780 -0.22330 0.74106
 Cu88 Cu 0.22946 -0.25179 0.71426
 N89 N 0.23198 -0.29362 0.74450
 N90 N 0.22048 -0.28327 0.72686
 C91 C 0.20174 -0.29716 0.72038
 C92 C 0.20126 -0.31749 0.73493
 C93 C 0.22092 -0.31458 0.75002
 H94 H 0.18917 -0.29235 0.70650
 H95 H 0.22648 -0.32639 0.76430
 N96 N 0.24124 -0.21992 0.70406
 N97 N 0.25942 -0.20891 0.71450
 C98 C 0.26254 -0.18718 0.70416
 C99 C 0.24554 -0.18436 0.68631
 C100 C 0.23241 -0.20553 0.68672
 H101 H 0.27621 -0.17434 0.70921
 H102 H 0.21716 -0.20987 0.67558
 H103 H 0.24443 -0.23931 0.74526
 H104 H 0.26533 -0.25350 0.72415
 N105 N 0.71901 -0.24210 0.79097
 N106 N 0.72670 -0.26317 0.79860
 C107 C 0.71418 -0.26979 0.81779
 C108 C 0.69770 -0.25196 0.82250
 C109 C 0.70127 -0.23467 0.80501
 H110 H 0.71688 -0.28637 0.82762
 H111 H 0.69203 -0.21770 0.80292
 Cu112 Cu 0.75280 -0.27987 0.78340
 Cu113 Cu 0.73302 -0.22569 0.76383
 Cu114 Cu 0.78023 -0.25417 0.73676
 N115 N 0.78038 -0.29472 0.76874
 N116 N 0.79079 -0.28467 0.75038
 C117 C 0.80964 -0.29809 0.74418
 C118 C 0.81141 -0.31776 0.75954
 C119 C 0.79234 -0.31492 0.77488
 H120 H 0.82141 -0.29340 0.72981
 H121 H 0.78768 -0.32639 0.78970
 N122 N 0.76720 -0.22318 0.72550
 N123 N 0.74954 -0.21207 0.73608
 C124 C 0.74556 -0.19085 0.72496
 C125 C 0.76143 -0.18851 0.70642
 C126 C 0.77482 -0.20940 0.70730
 H127 H 0.73209 -0.17803 0.72997
 H128 H 0.78948 -0.21393 0.69589
 H129 H 0.74470 -0.25616 0.74761
 H130 H 0.76653 -0.24110 0.76792
 N131 N 0.29500 0.23399 0.78162
 N132 N 0.28703 0.25455 0.78936
 C133 C 0.29799 0.25930 0.81006
 C134 C 0.31349 0.24056 0.81562
 C135 C 0.31109 0.22485 0.79715
 H136 H 0.29454 0.27493 0.82050
 H137 H 0.32056 0.20812 0.79504
 Cu138 Cu 0.26244 0.27266 0.77220
 Cu139 Cu 0.28429 0.22069 0.75189
 Cu140 Cu 0.23557 0.24798 0.72469
 N141 N 0.23198 0.28456 0.75960
 N142 N 0.22156 0.27473 0.74122
 C143 C 0.20029 0.28546 0.73703
 C144 C 0.19709 0.30299 0.75368
 C145 C 0.21768 0.30200 0.76768
 H146 H 0.18796 0.28067 0.72301
 H147 H 0.22160 0.31255 0.78307
 N148 N 0.25243 0.22058 0.71102
 N149 N 0.27089 0.21001 0.72163
 C150 C 0.27769 0.19114 0.70887
 C151 C 0.26279 0.18968 0.68924
 C152 C 0.24703 0.20874 0.69115
 H153 H 0.29226 0.17916 0.71368
 H154 H 0.23216 0.21309 0.67942
 H155 H 0.27093 0.25174 0.73591
 H156 H 0.25008 0.23454 0.75584
 N157 N 0.29577 -0.24534 0.22873
 N158 N 0.28599 -0.26582 0.22247
 C159 C 0.29541 -0.27245 0.20184
 C160 C 0.31207 -0.25517 0.19485
 C161 C 0.31182 -0.23831 0.21244
 H162 H 0.29030 -0.28852 0.19258
 H163 H 0.32196 -0.22172 0.21301
 Cu164 Cu 0.26136 -0.28150 0.24140
 Cu165 Cu 0.28616 -0.22852 0.25676
 Cu166 Cu 0.23629 -0.25077 0.28549
 N167 N 0.23094 -0.29135 0.25514
 N168 N 0.22101 -0.27907 0.27201
 C169 C 0.19943 -0.28883 0.27704
 C170 C 0.19560 -0.30830 0.26260
 C171 C 0.21608 -0.30942 0.24900
 H172 H 0.18728 -0.28207 0.29005
 H173 H 0.21945 -0.32179 0.23497
 N174 N 0.25445 -0.22250 0.29640
 N175 N 0.27362 -0.21414 0.28546
 C176 C 0.28168 -0.19444 0.29651
 C177 C 0.26686 -0.19008 0.31537
 C178 C 0.24979 -0.20832 0.31474
 H179 H 0.29704 -0.18386 0.29101
 H180 H 0.23464 -0.21063 0.32632
 H181 H 0.27145 -0.25707 0.27533
 H182 H 0.25138 -0.24125 0.25330
 N183 N 0.70603 0.24142 0.23470
 N184 N 0.71769 0.25788 0.22243
 C185 C 0.70616 0.26160 0.20172
 C186 C 0.68615 0.24668 0.20099
 C187 C 0.68661 0.23420 0.22228
 H188 H 0.71197 0.27415 0.18816
 H189 H 0.67428 0.22022 0.22793
 Cu190 Cu 0.74726 0.27249 0.23411
 Cu191 Cu 0.71810 0.22895 0.26472
 Cu192 Cu 0.76706 0.25815 0.28906
 N193 N 0.77165 0.29150 0.25019
 N194 N 0.77939 0.28584 0.27151
 C195 C 0.79670 0.30149 0.27788
 C196 C 0.80001 0.31796 0.25958
 C197 C 0.78371 0.31102 0.24230
 H198 H 0.80623 0.30080 0.29457
 H199 H 0.78119 0.31917 0.22503
 N200 N 0.75195 0.22978 0.30404
 N201 N 0.73307 0.21886 0.29482
 C202 C 0.72751 0.19959 0.30836
 C203 C 0.74373 0.19815 0.32705
 C204 C 0.75893 0.21773 0.32373
 H205 H 0.71307 0.18718 0.30447
 H206 H 0.77445 0.22240 0.33437
 H207 H 0.73342 0.26169 0.27326
 H208 H 0.75393 0.23846 0.26100
 C209 C 0.24263 0.00426 0.43170
 C210 C 0.23710 0.02621 0.44200
 C211 C 0.23340 0.02692 0.46640
 C212 C 0.23691 0.00627 0.48084
 C213 C 0.24324 -0.01538 0.47002
 C214 C 0.24553 -0.01664 0.44551
 C215 C 0.23525 0.00749 0.50713
 C216 C 0.22995 -0.01327 0.52088
 C217 C 0.23096 -0.01276 0.54558
 C218 C 0.23551 0.00908 0.55664
 C219 C 0.24031 0.03001 0.54349
 C220 C 0.24042 0.02910 0.51885
 H221 H 0.24444 0.00345 0.41275
 H222 H 0.22839 0.04380 0.47404
 H223 H 0.24722 -0.03128 0.48054
 H224 H 0.22577 -0.03012 0.51257
 H225 H 0.23547 0.00976 0.57571
 H226 H 0.24558 0.04513 0.50907
 C227 C 0.75353 -0.00327 0.57138
 C228 C 0.74583 0.01713 0.55866
 C229 C 0.74520 0.01655 0.53395
 C230 C 0.75347 -0.00362 0.52168
 C231 C 0.76182 -0.02360 0.53504
 C232 C 0.76116 -0.02386 0.55977
 C233 C 0.75278 -0.00392 0.49517
 C234 C 0.75166 -0.02579 0.48284
 C235 C 0.75035 -0.02599 0.45807
 C236 C 0.74877 -0.00406 0.44564
 C237 C 0.74958 0.01782 0.45735
 C238 C 0.75251 0.01779 0.48189
 H239 H 0.75336 -0.00319 0.59044
 H240 H 0.73758 0.03180 0.52455
 H241 H 0.76905 -0.03910 0.52645
 H242 H 0.75172 -0.04278 0.49230
 H243 H 0.74671 -0.00394 0.42665
 H244 H 0.75402 0.03490 0.49046
 C245 C 0.44640 0.24378 0.00554
 C246 C 0.46083 0.24603 0.02575
 C247 C 0.48582 0.24313 0.02408
 C248 C 0.49655 0.23712 0.00253
 C249 C 0.48140 0.23425 -0.01736
 C250 C 0.45654 0.23820 -0.01611
 C251 C 0.52338 0.23472 0.00065
 C252 C 0.53508 0.23846 -0.02107
 C253 C 0.56025 0.23689 -0.02275
 C254 C 0.57396 0.23281 -0.00219
 C255 C 0.56288 0.22938 0.01966
 C256 C 0.53766 0.22944 0.02075
 H257 H 0.42716 0.24663 0.00663
 H258 H 0.49670 0.24638 0.03961
 H259 H 0.48863 0.22880 -0.03400
 H260 H 0.52483 0.24271 -0.03684
 H261 H 0.59342 0.23320 -0.00309
 H262 H 0.52938 0.22535 0.03748
 C263 C 0.56011 0.74217 0.00449
 C264 C 0.54654 0.73821 0.02481
 C265 C 0.52137 0.73990 0.02335
 C266 C 0.50963 0.74663 0.00204
 C267 C 0.52391 0.75130 -0.01798
 C268 C 0.54898 0.74831 -0.01701
 C269 C 0.48266 0.74817 0.00059
 C270 C 0.47027 0.74460 -0.02094
 C271 C 0.44508 0.74625 -0.02242
 C272 C 0.43199 0.75002 -0.00191
 C273 C 0.44371 0.75269 0.01986
 C274 C 0.46898 0.75268 0.02083
 H275 H 0.57956 0.74089 0.00546
 H276 H 0.51113 0.73534 0.03888
 H277 H 0.51573 0.75687 -0.03454
 H278 H 0.48001 0.74057 -0.03673
 H279 H 0.41251 0.75060 -0.00285
 H280 H 0.47778 0.75577 0.03758
 C281 C -0.00565 0.44270 0.24306
 C282 C 0.01581 0.45456 0.23718
 C283 C 0.01590 0.47970 0.23460
 C284 C -0.00490 0.49328 0.23906
 C285 C -0.02617 0.48084 0.24535
 C286 C -0.02670 0.45567 0.24706
 C287 C -0.00422 0.52025 0.23832
 C288 C -0.02535 0.53361 0.23387
 C289 C -0.02543 0.55880 0.23533
 C290 C -0.00363 0.57081 0.23992
 C291 C 0.01796 0.55811 0.24318
 C292 C 0.01738 0.53288 0.24285
 H293 H -0.00589 0.42330 0.24495
 H294 H 0.03236 0.48845 0.22905
 H295 H -0.04224 0.49055 0.24984
 H296 H -0.04187 0.52449 0.22910
 H297 H -0.00350 0.59014 0.24164
 H298 H 0.03390 0.52321 0.24622
 C299 C 0.00612 0.55898 0.73971
 C300 C 0.02763 0.54627 0.73744
 C301 C 0.02733 0.52112 0.73972
 C302 C 0.00582 0.50858 0.74486
 C303 C -0.01544 0.52194 0.74787
 C304 C -0.01552 0.54699 0.74459
 C305 C 0.00531 0.48167 0.74571
 C306 C -0.01560 0.46904 0.73876
 C307 C -0.01616 0.44382 0.73876
 C308 C 0.00475 0.43113 0.74496
 C309 C 0.02603 0.44321 0.75116
 C310 C 0.02599 0.46839 0.75227
 H311 H 0.00622 0.57839 0.73783
 H312 H 0.04379 0.51147 0.73654
 H313 H -0.03219 0.51294 0.75209
 H314 H -0.03135 0.47870 0.73257
 H315 H 0.00449 0.41166 0.74516
 H316 H 0.04231 0.47751 0.75768
 C317 C 0.32951 0.27717 0.14555
 C318 C 0.34657 0.27743 0.12777
 C319 C 0.36855 0.26544 0.13081
 C320 C 0.37315 0.25309 0.15226
 C321 C 0.35596 0.25279 0.17013
 C322 C 0.33387 0.26475 0.16692
 C323 C 0.38517 0.26537 0.11056
 C324 C 0.40834 0.25867 0.11162
 C325 C 0.42340 0.25757 0.09028
 C326 C 0.44201 0.24065 0.08953
 C327 C 0.45495 0.23752 0.06882
 C328 C 0.44950 0.25136 0.04853
 C329 C 0.43192 0.26930 0.04973
 C330 C 0.41913 0.27253 0.07041
 H331 H 0.31266 0.28631 0.14218
 H332 H 0.34240 0.28686 0.11138
 H333 H 0.38958 0.24313 0.15522
 H334 H 0.35996 0.24303 0.18635
 H335 H 0.37747 0.27078 0.09370
 H336 H 0.41628 0.25254 0.12811
 H337 H 0.44590 0.22916 0.10469
 H338 H 0.46848 0.22360 0.06834
 H339 H 0.42785 0.28062 0.03449
 H340 H 0.40579 0.28661 0.07066
 C341 C 0.63866 0.75824 0.18192
 C342 C 0.62183 0.75774 0.16345
 C343 C 0.62277 0.74002 0.14625
 C344 C 0.64111 0.72269 0.14799
 C345 C 0.65788 0.72307 0.16653
 C346 C 0.65708 0.74095 0.18377
 C347 C 0.60515 0.74121 0.12633
 C348 C 0.60159 0.72359 0.11082
 C349 C 0.58587 0.72633 0.08968
 C350 C 0.59160 0.71349 0.06949
 C351 C 0.57841 0.71680 0.04861
 C352 C 0.55894 0.73281 0.04757
 C353 C 0.55237 0.74474 0.06809
 C354 C 0.56570 0.74156 0.08897
 H355 H 0.63704 0.77233 0.19464
 H356 H 0.60804 0.77144 0.16252
 H357 H 0.64319 0.70910 0.13486
 H358 H 0.67174 0.70952 0.16684
 H359 H 0.59523 0.75780 0.12408
 H360 H 0.61154 0.70702 0.11253
 H361 H 0.60684 0.70140 0.06967
 H362 H 0.58363 0.70707 0.03316
 H363 H 0.53741 0.75715 0.06778
 H364 H 0.56022 0.75111 0.10442
 C365 C 0.68459 0.26101 -0.15420
 C366 C 0.67092 0.25849 -0.13383
 C367 C 0.64686 0.25087 -0.13513
 C368 C 0.63669 0.24564 -0.15726
 C369 C 0.65050 0.24783 -0.17764
 C370 C 0.67460 0.25547 -0.17630
 C371 C 0.63347 0.24726 -0.11298
 C372 C 0.60954 0.24954 -0.11146
 C373 C 0.59679 0.24581 -0.08895
 C374 C 0.57638 0.25956 -0.08424
 C375 C 0.56443 0.25676 -0.06281
 C376 C 0.57244 0.23978 -0.04583
 C377 C 0.59244 0.22549 -0.05097
 C378 C 0.60451 0.22849 -0.07224
 H379 H 0.70319 0.26666 -0.15251
 H380 H 0.67919 0.26242 -0.11696
 H381 H 0.61834 0.23920 -0.15882
 H382 H 0.64232 0.24350 -0.19444
 H383 H 0.64396 0.24368 -0.09711
 H384 H 0.59917 0.25563 -0.12668
 H385 H 0.57002 0.27289 -0.09696
 H386 H 0.54924 0.26822 -0.05937
 H387 H 0.59868 0.21179 -0.03859
 H388 H 0.61969 0.21701 -0.07569
 C389 C 0.34688 0.77187 -0.17746
 C390 C 0.36261 0.77311 -0.15813
 C391 C 0.36704 0.75279 -0.14378
 C392 C 0.35549 0.73102 -0.14931
 C393 C 0.33970 0.72979 -0.16863
 C394 C 0.33495 0.75026 -0.18279
 C395 C 0.38231 0.75553 -0.12238
 C396 C 0.39321 0.73720 -0.11093
 C397 C 0.40689 0.74029 -0.08858
 C398 C 0.40120 0.75848 -0.07271
 C399 C 0.41378 0.76043 -0.05141
 C400 C 0.43224 0.74422 -0.04537
 C401 C 0.43795 0.72603 -0.06116
 C402 C 0.42524 0.72398 -0.08247
 H403 H 0.34369 0.78806 -0.18780
 H404 H 0.37112 0.79015 -0.15419
 H405 H 0.35790 0.71509 -0.13837
 H406 H 0.33098 0.71281 -0.17219
 H407 H 0.38491 0.77362 -0.11609
 H408 H 0.39272 0.71942 -0.11832
 H409 H 0.38667 0.77091 -0.07638
 H410 H 0.40906 0.77466 -0.03959
 H411 H 0.45188 0.71309 -0.05679
 H412 H 0.42973 0.70960 -0.09422
 C413 C 0.16061 0.34033 0.20965
 C414 C 0.14112 0.35596 0.20701
 C415 C 0.12870 0.36381 0.22676
 C416 C 0.13572 0.35520 0.24925
 C417 C 0.15499 0.33925 0.25186
 C418 C 0.16774 0.33179 0.23210
 C419 C 0.10784 0.38000 0.22329
 C420 C 0.10164 0.39634 0.23913
 C421 C 0.08019 0.41191 0.23640
 C422 C 0.07985 0.43389 0.24810
 C423 C 0.05926 0.44823 0.24746
 C424 C 0.03842 0.44067 0.23543
 C425 C 0.03881 0.41881 0.22345
 C426 C 0.05950 0.40458 0.22387
 H427 H 0.16978 0.33456 0.19404
 H428 H 0.13579 0.36203 0.18949
 H429 H 0.12603 0.36031 0.26479
 H430 H 0.15999 0.33288 0.26937
 H431 H 0.09802 0.37902 0.20675
 H432 H 0.11304 0.39893 0.25449
 H433 H 0.09546 0.43981 0.25808
 H434 H 0.05930 0.46478 0.25720
 H435 H 0.02295 0.41253 0.21411
 H436 H 0.05885 0.38746 0.21517
 C437 C 0.18545 0.64455 0.75152
 C438 C 0.16774 0.62660 0.75218
 C439 C 0.14823 0.62714 0.73629
 C440 C 0.14680 0.64612 0.71964
 C441 C 0.16446 0.66405 0.71896
 C442 C 0.18400 0.66376 0.73503
 C443 C 0.12904 0.60863 0.73869
 C444 C 0.11309 0.60355 0.72153
 C445 C 0.09212 0.58740 0.72505
 C446 C 0.07127 0.59165 0.71147
 C447 C 0.05050 0.57796 0.71516
 C448 C 0.05025 0.55946 0.73232
 C449 C 0.07143 0.55441 0.74518
 C450 C 0.09220 0.56828 0.74163
 H451 H 0.20000 0.64332 0.76427
 H452 H 0.16921 0.61231 0.76533
 H453 H 0.13170 0.64782 0.70755
 H454 H 0.16227 0.67832 0.70597
 H455 H 0.12771 0.59946 0.75560
 H456 H 0.11432 0.61264 0.70459
 H457 H 0.07082 0.60607 0.69840
 H458 H 0.03451 0.58197 0.70475
 H459 H 0.07170 0.54019 0.75846
 H460 H 0.10819 0.56397 0.75189
 C461 C -0.15403 0.68618 0.26056
 C462 C -0.13365 0.67220 0.25692
 C463 C -0.13460 0.65266 0.24175
 C464 C -0.15623 0.64769 0.22972
 C465 C -0.17662 0.66181 0.23314
 C466 C -0.17594 0.68124 0.24876
 C467 C -0.11261 0.63823 0.23852
 C468 C -0.11316 0.61468 0.23402
 C469 C -0.09096 0.60020 0.23278
 C470 C -0.09106 0.57656 0.24170
 C471 C -0.06995 0.56297 0.24214
 C472 C -0.04836 0.57256 0.23313
 C473 C -0.04868 0.59588 0.22309
 C474 C -0.06969 0.60961 0.22305
 H475 H -0.15232 0.70091 0.27261
 H476 H -0.11710 0.67651 0.26625
 H477 H -0.15736 0.63316 0.21735
 H478 H -0.19282 0.65726 0.22346
 H479 H -0.09543 0.64692 0.24177
 H480 H -0.13027 0.60528 0.23331
 H481 H -0.10732 0.56889 0.24911
 H482 H -0.07044 0.54523 0.25025
 H483 H -0.03266 0.60363 0.21533
 H484 H -0.06930 0.62753 0.21533
 C485 C -0.17504 0.35036 0.75226
 C486 C -0.15639 0.36723 0.75221
 C487 C -0.14162 0.37025 0.73256
 C488 C -0.14643 0.35653 0.71248
 C489 C -0.16511 0.33956 0.71249
 C490 C -0.17957 0.33595 0.73251
 C491 C -0.12155 0.38786 0.73396
 C492 C -0.10183 0.38708 0.72057
 C493 C -0.08063 0.40309 0.72396
 C494 C -0.05839 0.39596 0.71502
 C495 C -0.03759 0.40951 0.71921
 C496 C -0.03856 0.43057 0.73245
 C497 C -0.06099 0.43833 0.74047
 C498 C -0.08183 0.42486 0.73616
 H499 H -0.18558 0.34864 0.76806
 H500 H -0.15323 0.37770 0.76784
 H501 H -0.13600 0.35890 0.69664
 H502 H -0.16799 0.32931 0.69671
 H503 H -0.12242 0.40069 0.74799
 H504 H -0.10010 0.37291 0.70793
 H505 H -0.05697 0.37953 0.70520
 H506 H -0.02068 0.40335 0.71226
 H507 H -0.06236 0.45448 0.75069
 H508 H -0.09868 0.43160 0.74258
 C509 C 0.26352 0.15544 0.31214
 C510 C 0.26165 0.13545 0.32719
 C511 C 0.24630 0.13562 0.34663
 C512 C 0.23260 0.15637 0.35058
 C513 C 0.23442 0.17639 0.33542
 C514 C 0.24988 0.17614 0.31600
 C515 C 0.24524 0.11367 0.36185
 C516 C 0.23525 0.11241 0.38326
 C517 C 0.23599 0.09029 0.39824
 C518 C 0.21818 0.08645 0.41527
 C519 C 0.21841 0.06571 0.42962
 C520 C 0.23656 0.04847 0.42722
 C521 C 0.25471 0.05264 0.41061
 C522 C 0.25453 0.07333 0.39639
 H523 H 0.27540 0.15440 0.29725
 H524 H 0.27232 0.11972 0.32359
 H525 H 0.22023 0.15728 0.36506
 H526 H 0.22372 0.19207 0.33899
 H527 H 0.25356 0.09778 0.35496
 H528 H 0.22607 0.12774 0.39023
 H529 H 0.20389 0.09941 0.41727
 H530 H 0.20422 0.06297 0.44231
 H531 H 0.26934 0.04002 0.40887
 H532 H 0.26925 0.07610 0.38433
 C533 C 0.74388 0.18357 0.63753
 C534 C 0.74491 0.16430 0.62215
 C535 C 0.73408 0.14217 0.62793
 C536 C 0.72194 0.13981 0.64949
 C537 C 0.72085 0.15913 0.66484
 C538 C 0.73205 0.18114 0.65917
 C539 C 0.73732 0.12178 0.61177
 C540 C 0.72361 0.10184 0.61197
 C541 C 0.72842 0.08075 0.59711
 C542 C 0.72000 0.05811 0.60466
 C543 C 0.72517 0.03752 0.59196
 C544 C 0.73873 0.03914 0.57125
 C545 C 0.74636 0.06192 0.56316
 C546 C 0.74122 0.08252 0.57588
 H547 H 0.75251 0.20032 0.63246
 H548 H 0.75445 0.16663 0.60574
 H549 H 0.71397 0.12294 0.65510
 H550 H 0.71191 0.15648 0.68151
 H551 H 0.75210 0.12332 0.59958
 H552 H 0.70888 0.10018 0.62418
 H553 H 0.70982 0.05626 0.62075
 H554 H 0.71863 0.02030 0.59843
 H555 H 0.75684 0.06375 0.54727
 H556 H 0.74731 0.09968 0.56895
 C557 C 0.25115 -0.14060 0.67705
 C558 C 0.24791 -0.12050 0.66234
 C559 C 0.23550 -0.12231 0.64076
 C560 C 0.22589 -0.14478 0.63442
 C561 C 0.22904 -0.16491 0.64927
 C562 C 0.24186 -0.16307 0.67066
 C563 C 0.23358 -0.10032 0.62568
 C564 C 0.22620 -0.09970 0.60306
 C565 C 0.22730 -0.07735 0.58845
 C566 C 0.21111 -0.07398 0.56949
 C567 C 0.21209 -0.05303 0.55542
 C568 C 0.22941 -0.03518 0.56006
 C569 C 0.24596 -0.03893 0.57864
 C570 C 0.24501 -0.05975 0.59257
 H571 H 0.26077 -0.13839 0.69355
 H572 H 0.25539 -0.10344 0.66780
 H573 H 0.21590 -0.14705 0.61818
 H574 H 0.22167 -0.18198 0.64379
 H575 H 0.23935 -0.08372 0.63368
 H576 H 0.21932 -0.11566 0.59475
 H577 H 0.19754 -0.08745 0.56572
 H578 H 0.19918 -0.05064 0.54116
 H579 H 0.26001 -0.02588 0.58216
 H580 H 0.25859 -0.06217 0.60621
 C581 C 0.72614 -0.14971 0.32810
 C582 C 0.72797 -0.13045 0.34345
 C583 C 0.74075 -0.13281 0.36481
 C584 C 0.75182 -0.15486 0.37054
 C585 C 0.75034 -0.17403 0.35497
 C586 C 0.73757 -0.17159 0.33354
 C587 C 0.74338 -0.11153 0.37987
 C588 C 0.74558 -0.11281 0.40339
 C589 C 0.74779 -0.09097 0.41777
 C590 C 0.73679 -0.09026 0.43985
 C591 C 0.73780 -0.06934 0.45319
 C592 C 0.75025 -0.04888 0.44485
 C593 C 0.76217 -0.05012 0.42317
 C594 C 0.76086 -0.07083 0.40974
 H595 H 0.71637 -0.14719 0.31164
 H596 H 0.71944 -0.11359 0.33858
 H597 H 0.76222 -0.15710 0.38666
 H598 H 0.75924 -0.19073 0.35967
 H599 H 0.74226 -0.09404 0.37122
 H600 H 0.74422 -0.13005 0.41245
 H601 H 0.72678 -0.10566 0.44645
 H602 H 0.72825 -0.06901 0.46968
 H603 H 0.77256 -0.03501 0.41652
 H604 H 0.77021 -0.07111 0.39313
 C605 C 0.68365 0.73302 -0.13817
 C606 C 0.66762 0.73334 -0.11948
 C607 C 0.64798 0.74909 -0.11980
 C608 C 0.64493 0.76493 -0.13921
 C609 C 0.66110 0.76467 -0.15795
 C610 C 0.68057 0.74861 -0.15768
 C611 C 0.63167 0.74833 -0.09931
 C612 C 0.60935 0.75748 -0.09911
 C613 C 0.59350 0.75469 -0.07837
 C614 C 0.57578 0.77198 -0.07424
 C615 C 0.56101 0.76994 -0.05445
 C616 C 0.56372 0.75050 -0.03853
 C617 C 0.58088 0.73282 -0.04312
 C618 C 0.59546 0.73476 -0.06287
 H619 H 0.69859 0.72065 -0.13710
 H620 H 0.67053 0.72106 -0.10470
 H621 H 0.63038 0.77775 -0.13999
 H622 H 0.65820 0.77695 -0.17269
 H623 H 0.63846 0.73914 -0.08365
 H624 H 0.60237 0.76740 -0.11422
 H625 H 0.57368 0.78731 -0.08610
 H626 H 0.54787 0.78379 -0.05132
 H627 H 0.58286 0.71730 -0.03147
 H628 H 0.60800 0.72040 -0.06603
 C629 C 0.33649 0.21474 -0.15558
 C630 C 0.35170 0.21199 -0.13598
 C631 C 0.36043 0.23216 -0.12411
 C632 C 0.35300 0.25518 -0.13172
 C633 C 0.33748 0.25791 -0.15113
 C634 C 0.32928 0.23773 -0.16340
 C635 C 0.37664 0.22856 -0.10353
 C636 C 0.39390 0.24436 -0.09779
 C637 C 0.41024 0.24097 -0.07725
 C638 C 0.43301 0.25195 -0.07763
 C639 C 0.44843 0.25024 -0.05807
 C640 C 0.44119 0.23781 -0.03759
 C641 C 0.41849 0.22660 -0.03726
 C642 C 0.40314 0.22815 -0.05688
 H643 H 0.33016 0.19882 -0.16445
 H644 H 0.35693 0.19407 -0.13024
 H645 H 0.35886 0.27106 -0.12251
 H646 H 0.33220 0.27584 -0.15674
 H647 H 0.37513 0.21177 -0.09371
 H648 H 0.39694 0.25994 -0.10910
 H649 H 0.43879 0.26210 -0.09303
 H650 H 0.46569 0.25937 -0.05865
 H651 H 0.41248 0.21695 -0.02165
 H652 H 0.38547 0.21998 -0.05571
 C653 C 0.31950 0.73188 0.15352
 C654 C 0.33261 0.73314 0.13269
 C655 C 0.35289 0.74814 0.13076
 C656 C 0.35954 0.76232 0.15007
 C657 C 0.34637 0.76111 0.17089
 C658 C 0.32623 0.74584 0.17288
 C659 C 0.36612 0.74870 0.10820
 C660 C 0.38899 0.75628 0.10596
 C661 C 0.40227 0.75561 0.08346
 C662 C 0.42203 0.77110 0.08012
 C663 C 0.43544 0.77042 0.05943
 C664 C 0.42939 0.75413 0.04170
 C665 C 0.40976 0.73848 0.04514
 C666 C 0.39641 0.73913 0.06577
 H667 H 0.30392 0.72018 0.15428
 H668 H 0.32692 0.72222 0.11802
 H669 H 0.37459 0.77466 0.14918
 H670 H 0.35212 0.77210 0.18546
 H671 H 0.35653 0.74202 0.09296
 H672 H 0.39863 0.76322 0.12103
 H673 H 0.42705 0.78382 0.09355
 H674 H 0.45042 0.78275 0.05723
 H675 H 0.40507 0.72528 0.03206
 H676 H 0.38200 0.72620 0.06799
 C677 C 0.64576 0.23407 0.18530
 C678 C 0.62954 0.23091 0.16659
 C679 C 0.63624 0.23676 0.14344
 C680 C 0.65925 0.24652 0.13941
 C681 C 0.67536 0.24994 0.15813
 C682 C 0.66884 0.24361 0.18125
 C683 C 0.61856 0.23361 0.12404
 C684 C 0.62513 0.22903 0.10193
 C685 C 0.60788 0.22754 0.08194
 C686 C 0.61447 0.21487 0.06190
 C687 C 0.59950 0.21467 0.04195
 C688 C 0.57772 0.22743 0.04154
 C689 C 0.57096 0.23982 0.06175
 C690 C 0.58586 0.23992 0.08172
 H691 H 0.64011 0.22930 0.20296
 H692 H 0.61179 0.22369 0.17017
 H693 H 0.66474 0.25193 0.12187
 H694 H 0.69301 0.25728 0.15440
 H695 H 0.59966 0.23437 0.12836
 H696 H 0.64392 0.22584 0.09825
 H697 H 0.63139 0.20529 0.06159
 H698 H 0.60511 0.20477 0.02674
 H699 H 0.55458 0.25028 0.06181
 H700 H 0.58050 0.25053 0.09652
 C701 C -0.17081 0.64554 0.77715
 C702 C -0.15279 0.62801 0.77764
 C703 C -0.13458 0.62832 0.76076
 C704 C -0.13452 0.64682 0.74357
 C705 C -0.15242 0.66430 0.74304
 C706 C -0.17088 0.66409 0.75986
 C707 C -0.11514 0.61011 0.76224
 C708 C -0.10249 0.60373 0.74339
 C709 C -0.08086 0.58824 0.74440
 C710 C -0.06429 0.59066 0.72606
 C711 C -0.04321 0.57721 0.72625
 C712 C -0.03830 0.56072 0.74465
 C713 C -0.05512 0.55768 0.76275
 C714 C -0.07622 0.57142 0.76272
 H715 H -0.18446 0.64448 0.79054
 H716 H -0.15309 0.61414 0.79127
 H717 H -0.12028 0.64837 0.73080
 H718 H -0.15134 0.67809 0.72946
 H719 H -0.11095 0.60237 0.77941
 H720 H -0.10728 0.61124 0.72628
 H721 H -0.06749 0.60332 0.71165
 H722 H -0.03073 0.57960 0.71187
 H723 H -0.05175 0.54498 0.77708
 H724 H -0.08884 0.56863 0.77687
 C725 C -0.18368 0.35571 0.24058
 C726 C -0.16614 0.37374 0.23882
 C727 C -0.14662 0.37437 0.25472
 C728 C -0.14504 0.35644 0.27250
 C729 C -0.16260 0.33848 0.27429
 C730 C -0.18203 0.33776 0.25826
 C731 C -0.12761 0.39292 0.25119
 C732 C -0.11130 0.39881 0.26774
 C733 C -0.09056 0.41495 0.26308
 C734 C -0.06916 0.41102 0.27589
 C735 C -0.04857 0.42459 0.27101
 C736 C -0.04909 0.44271 0.25349
 C737 C -0.07081 0.44755 0.24146
 C738 C -0.09139 0.43372 0.24612
 H739 H -0.19846 0.35586 0.22800
 H740 H -0.16773 0.38718 0.22485
 H741 H -0.12995 0.35557 0.28465
 H742 H -0.16047 0.32478 0.28790
 H743 H -0.12669 0.40142 0.23392
 H744 H -0.11196 0.39038 0.28502
 H745 H -0.06816 0.39688 0.28923
 H746 H -0.03212 0.42080 0.28079
 H747 H -0.07166 0.46154 0.22797
 H748 H -0.10781 0.43774 0.23644
 C749 C 0.15358 0.31175 0.74629
 C750 C 0.13350 0.32647 0.74807
 C751 C 0.13501 0.34846 0.75970
 C752 C 0.15708 0.35508 0.77026
 C753 C 0.17723 0.34017 0.76862
 C754 C 0.17574 0.31851 0.75632
 C755 C 0.11317 0.36371 0.75961
 C756 C 0.11251 0.38692 0.76559
 C757 C 0.09049 0.40152 0.76185
 C758 C 0.08539 0.42044 0.77702
 C759 C 0.06450 0.43419 0.77367
 C760 C 0.04850 0.42930 0.75497
 C761 C 0.05411 0.41089 0.73941
 C762 C 0.07486 0.39726 0.74272
 H763 H 0.15162 0.29498 0.73711
 H764 H 0.11673 0.32077 0.73993
 H765 H 0.15901 0.37164 0.77975
 H766 H 0.19406 0.34584 0.77660
 H767 H 0.09675 0.35540 0.75320
 H768 H 0.12815 0.39566 0.77308
 H769 H 0.09738 0.42432 0.79165
 H770 H 0.06064 0.44833 0.78589
 H771 H 0.04254 0.40722 0.72440
 H772 H 0.07879 0.38365 0.72998
 C773 C 0.15137 0.68524 0.26811
 C774 C 0.13062 0.67113 0.26605
 C775 C 0.13183 0.64776 0.25737
 C776 C 0.15418 0.63890 0.25015
 C777 C 0.17492 0.65319 0.25186
 C778 C 0.17374 0.67645 0.26098
 C779 C 0.10921 0.63387 0.25475
 C780 C 0.10799 0.60981 0.25586
 C781 C 0.08490 0.59674 0.25268
 C782 C 0.08082 0.57508 0.26506
 C783 C 0.05903 0.56260 0.26229
 C784 C 0.04107 0.57135 0.24671
 C785 C 0.04546 0.59284 0.23404
 C786 C 0.06707 0.60537 0.23699
 H787 H 0.14973 0.70324 0.27479
 H788 H 0.11351 0.67851 0.27124
 H789 H 0.15559 0.62126 0.24261
 H790 H 0.19188 0.64599 0.24609
 H791 H 0.09272 0.64407 0.25286
 H792 H 0.12395 0.59947 0.26021
 H793 H 0.09435 0.56799 0.27715
 H794 H 0.05618 0.54627 0.27254
 H795 H 0.03235 0.59979 0.22146
 H796 H 0.06999 0.62157 0.22656
 C797 C 0.75517 -0.14516 0.69539
 C798 C 0.75786 -0.12567 0.67979
 C799 C 0.76915 -0.12849 0.65806
 C800 C 0.77828 -0.15118 0.65244
 C801 C 0.77576 -0.17066 0.66815
 C802 C 0.76407 -0.16789 0.68975
 C803 C 0.77135 -0.10732 0.64202
 C804 C 0.77275 -0.10887 0.61853
 C805 C 0.77232 -0.08736 0.60278
 C806 C 0.76137 -0.08899 0.58049
 C807 C 0.75859 -0.06853 0.56609
 C808 C 0.76701 -0.04604 0.57362
 C809 C 0.77933 -0.04473 0.59534
 C810 C 0.78198 -0.06517 0.60977
 H811 H 0.74641 -0.14228 0.71201
 H812 H 0.75088 -0.10832 0.68463
 H813 H 0.78768 -0.15390 0.63614
 H814 H 0.78283 -0.18791 0.66324
 H815 H 0.76981 -0.08979 0.64982
 H816 H 0.77177 -0.12629 0.61040
 H817 H 0.75401 -0.10595 0.57461
 H818 H 0.74888 -0.07012 0.54955
 H819 H 0.78657 -0.02779 0.60135
 H820 H 0.79140 -0.06349 0.62646
 C821 C 0.28173 -0.14895 0.32588
 C822 C 0.28161 -0.12896 0.34037
 C823 C 0.26799 -0.12903 0.36101
 C824 C 0.25454 -0.14971 0.36699
 C825 C 0.25459 -0.16969 0.35242
 C826 C 0.26795 -0.16946 0.33155
 C827 C 0.26714 -0.10670 0.37478
 C828 C 0.26080 -0.10593 0.39748
 C829 C 0.25848 -0.08314 0.41037
 C830 C 0.24295 -0.08247 0.42965
 C831 C 0.23914 -0.06102 0.44142
 C832 C 0.25093 -0.03979 0.43421
 C833 C 0.26728 -0.04067 0.41557
 C834 C 0.27112 -0.06211 0.40383
 H835 H 0.29214 -0.14796 0.30992
 H836 H 0.29202 -0.11322 0.33529
 H837 H 0.24333 -0.15037 0.38242
 H838 H 0.24391 -0.18521 0.35744
 H839 H 0.27163 -0.09021 0.36543
 H840 H 0.25610 -0.12234 0.40686
 H841 H 0.23320 -0.09846 0.43521
 H842 H 0.22640 -0.06087 0.45571
 H843 H 0.27712 -0.02473 0.41006
 H844 H 0.28406 -0.06206 0.38976
 C845 C 0.76161 0.18082 0.36460
 C846 C 0.76373 0.16218 0.38136
 C847 C 0.74965 0.14129 0.37951
 C848 C 0.73361 0.13928 0.36028
 C849 C 0.73148 0.15786 0.34357
 C850 C 0.74548 0.17885 0.34542
 C851 C 0.75314 0.12143 0.39699
 C852 C 0.73612 0.10488 0.40159
 C853 C 0.73989 0.08332 0.41688
 C854 C 0.72467 0.06348 0.41348
 C855 C 0.72784 0.04236 0.42669
 C856 C 0.74622 0.04062 0.44381
 C857 C 0.76107 0.06066 0.44780
 C858 C 0.75798 0.08186 0.43445
 H859 H 0.77271 0.19666 0.36669
 H860 H 0.77645 0.16406 0.39583
 H861 H 0.72316 0.12310 0.35756
 H862 H 0.71919 0.15536 0.32891
 H863 H 0.77045 0.12038 0.40586
 H864 H 0.71874 0.10638 0.39289
 H865 H 0.71044 0.06419 0.40028
 H866 H 0.71580 0.02735 0.42359
 H867 H 0.77529 0.05981 0.46100
 H868 H 0.76962 0.09698 0.43813
 C869 C 0.27375 0.14856 0.67601
 C870 C 0.27288 0.13031 0.65952
 C871 C 0.26113 0.13381 0.63774
 C872 C 0.25008 0.15608 0.63280
 C873 C 0.25082 0.17434 0.64942
 C874 C 0.26261 0.17075 0.67123
 C875 C 0.25987 0.11330 0.62150
 C876 C 0.25498 0.11518 0.59833
 C877 C 0.25316 0.09385 0.58315
 C878 C 0.23804 0.09464 0.56314
 C879 C 0.23447 0.07413 0.54960
 C880 C 0.24602 0.05253 0.55588
 C881 C 0.26220 0.05214 0.57504
 C882 C 0.26588 0.07259 0.58844
 H883 H 0.28268 0.14497 0.69273
 H884 H 0.28132 0.11327 0.66389
 H885 H 0.24032 0.15935 0.61649
 H886 H 0.24209 0.19123 0.64517
 H887 H 0.26304 0.09571 0.62934
 H888 H 0.25126 0.13254 0.59026
 H889 H 0.22834 0.11091 0.55848
 H890 H 0.22199 0.07488 0.53481
 H891 H 0.27184 0.03585 0.57981
 H892 H 0.27863 0.07156 0.60296
   
