data_POSCAR
  _audit_creation_date              2014-09-24
  _audit_creation_method            'ToBaCCo'
  _symmetry_space_group_name_H-M    'P1'
  _symmetry_Int_Tables_number       1
  _symmetry_cell_setting            triclinic
  loop_
  _symmetry_equiv_pos_as_xyz
 x,y,z
_cell_length_a 35.8171
_cell_length_b 35.8645
_cell_length_c 35.7270
_cell_angle_alpha 90.000200
_cell_angle_beta 89.999900
_cell_angle_gamma 89.894100
loop_
  _atom_site_label
  _atom_site_type_symbol
  _atom_site_fract_x
  _atom_site_fract_y
  _atom_site_fract_z
C1 C 0.16030 0.18644 0.21562
 C2 C 0.16033 0.21409 0.18787
 C3 C 0.18773 0.21408 0.16049
 C4 C 0.21545 0.18640 0.16053
 C5 C 0.21544 0.15906 0.18796
 C6 C 0.18769 0.15907 0.21567
 C7 C 0.13724 0.17972 0.24572
 N8 N 0.15011 0.14906 0.26375
 C9 C 0.18085 0.13612 0.24583
 C10 C 0.24556 0.13607 0.18118
 N11 N 0.26353 0.14898 0.15044
 C12 C 0.24556 0.17964 0.13750
 C13 C 0.18096 0.24413 0.13745
 N14 N 0.15025 0.26209 0.15032
 C15 C 0.13733 0.24415 0.18104
 H16 H 0.11301 0.19590 0.25392
 H17 H 0.19700 0.11193 0.25415
 H18 H 0.25383 0.11189 0.19736
 H19 H 0.25381 0.19579 0.11327
 H20 H 0.19713 0.25239 0.11323
 H21 H 0.11310 0.25244 0.19718
 C22 C -0.16032 0.81357 0.21562
 C23 C -0.16035 0.78592 0.18787
 C24 C -0.18775 0.78593 0.16049
 C25 C -0.21547 0.81361 0.16053
 C26 C -0.21546 0.84096 0.18795
 C27 C -0.18771 0.84094 0.21567
 C28 C -0.13726 0.82029 0.24572
 N29 N -0.15014 0.85095 0.26375
 C30 C -0.18087 0.86389 0.24583
 C31 C -0.24559 0.86394 0.18117
 N32 N -0.26356 0.85103 0.15043
 C33 C -0.24558 0.82037 0.13750
 C34 C -0.18098 0.75588 0.13744
 N35 N -0.15027 0.73792 0.15032
 C36 C -0.13735 0.75586 0.18104
 H37 H -0.11304 0.80411 0.25392
 H38 H -0.19702 0.88808 0.25415
 H39 H -0.25385 0.88812 0.19736
 H40 H -0.25383 0.80422 0.11326
 H41 H -0.19715 0.74762 0.11322
 H42 H -0.11312 0.74757 0.19718
 C43 C -0.16116 0.18683 -0.21542
 C44 C -0.16126 0.21458 -0.18777
 C45 C -0.18865 0.21469 -0.16038
 C46 C -0.21629 0.18703 -0.16030
 C47 C -0.21620 0.15959 -0.18764
 C48 C -0.18846 0.15948 -0.21537
 C49 C -0.13808 0.17998 -0.24550
 N50 N -0.15087 0.14927 -0.26341
 C51 C -0.18156 0.13641 -0.24544
 C52 C -0.24623 0.13662 -0.18079
 N53 N -0.26425 0.14962 -0.15009
 C54 C -0.24638 0.18033 -0.13725
 C55 C -0.18190 0.24483 -0.13745
 N56 N -0.15123 0.26270 -0.15042
 C57 C -0.13831 0.24462 -0.18108
 H58 H -0.11391 0.19611 -0.25377
 H59 H -0.19764 0.11221 -0.25366
 H60 H -0.25440 0.11239 -0.19690
 H61 H -0.25470 0.19655 -0.11306
 H62 H -0.19805 0.25321 -0.11323
 H63 H -0.11411 0.25279 -0.19726
 C64 C 0.16113 0.81318 -0.21542
 C65 C 0.16123 0.78543 -0.18777
 C66 C 0.18862 0.78531 -0.16038
 C67 C 0.21626 0.81298 -0.16030
 C68 C 0.21617 0.84042 -0.18764
 C69 C 0.18844 0.84052 -0.21537
 C70 C 0.13806 0.82003 -0.24550
 N71 N 0.15084 0.85074 -0.26341
 C72 C 0.18154 0.86360 -0.24544
 C73 C 0.24621 0.86338 -0.18079
 N74 N 0.26422 0.85039 -0.15009
 C75 C 0.24636 0.81968 -0.13725
 C76 C 0.18188 0.75518 -0.13744
 N77 N 0.15120 0.73731 -0.15041
 C78 C 0.13829 0.75539 -0.18108
 H79 H 0.11388 0.80390 -0.25377
 H80 H 0.19762 0.88780 -0.25366
 H81 H 0.25437 0.88762 -0.19690
 H82 H 0.25467 0.80346 -0.11306
 H83 H 0.19803 0.74680 -0.11323
 H84 H 0.11408 0.74722 -0.19726
 C85 C 0.18602 1.16029 0.78476
 C86 C 0.21373 1.16034 0.81245
 C87 C 0.21378 1.18774 0.83979
 C88 C 0.18610 1.21543 0.83975
 C89 C 0.15869 1.21540 0.81235
 C90 C 0.15865 1.18766 0.78469
 C91 C 0.17928 1.13725 0.75469
 N92 N 0.14859 1.15013 0.73668
 C93 C 0.13565 1.18085 0.75457
 C94 C 0.13573 1.24552 0.81906
 N95 N 0.14872 1.26351 0.84973
 C96 C 0.17941 1.24556 0.86270
 C97 C 0.24391 1.18100 0.86277
 N98 N 0.26184 1.15031 0.84988
 C99 C 0.24381 1.13737 0.81922
 H100 H 0.19547 1.11305 0.74648
 H101 H 0.11146 1.19700 0.74623
 H102 H 0.11152 1.25378 0.80287
 H103 H 0.19563 1.25386 0.88689
 H104 H 0.25227 1.19717 0.88694
 H105 H 0.25207 1.11316 0.80309
 C106 C 0.81397 0.83972 0.78476
 C107 C 0.78626 0.83968 0.81246
 C108 C 0.78620 0.81228 0.83979
 C109 C 0.81387 0.78458 0.83975
 C110 C 0.84129 0.78461 0.81236
 C111 C 0.84134 0.81235 0.78470
 C112 C 0.82071 0.86277 0.75470
 N113 N 0.85140 0.84988 0.73669
 C114 C 0.86434 0.81916 0.75457
 C115 C 0.86424 0.75449 0.81906
 N116 N 0.85124 0.73650 0.84973
 C117 C 0.82056 0.75445 0.86270
 C118 C 0.75606 0.81902 0.86277
 N119 N 0.73814 0.84971 0.84988
 C120 C 0.75617 0.86265 0.81922
 H121 H 0.80453 0.88696 0.74649
 H122 H 0.88853 0.80301 0.74624
 H123 H 0.88845 0.74623 0.80287
 H124 H 0.80434 0.74615 0.88688
 H125 H 0.74771 0.80284 0.88694
 H126 H 0.74792 0.88686 0.80309
 C127 C 0.18666 0.84026 1.21555
 C128 C 0.21435 0.84022 1.18783
 C129 C 0.21443 0.81287 1.16044
 C130 C 0.18681 0.78523 1.16045
 C131 C 0.15942 0.78525 1.18785
 C132 C 0.15934 0.81293 1.21557
 C133 C 0.17989 0.86324 1.24566
 N134 N 0.14924 0.85037 1.26367
 C135 C 0.13635 0.81972 1.24572
 C136 C 0.13654 0.75518 1.18106
 N137 N 0.14955 0.73723 1.15036
 C138 C 0.18017 0.75518 1.13745
 C139 C 0.24452 0.81957 1.13745
 N140 N 0.26241 0.85019 1.15037
 C141 C 0.24440 0.86313 1.18107
 H142 H 0.19603 0.88740 1.25392
 H143 H 0.11219 0.80359 1.25404
 H144 H 0.11236 0.74689 1.19722
 H145 H 0.19637 0.74689 1.11324
 H146 H 0.25287 0.80341 1.11324
 H147 H 0.25265 0.88729 1.19724
 C148 C 0.81331 1.15975 1.21555
 C149 C 0.78562 1.15979 1.18783
 C150 C 0.78555 1.18714 1.16044
 C151 C 0.81317 1.21477 1.16045
 C152 C 0.84055 1.21476 1.18785
 C153 C 0.84064 1.18708 1.21557
 C154 C 0.82009 1.13676 1.24567
 N155 N 0.85073 1.14964 1.26367
 C156 C 0.86363 1.18029 1.24573
 C157 C 0.86343 1.24483 1.18107
 N158 N 0.85043 1.26278 1.15036
 C159 C 0.81981 1.24483 1.13745
 C160 C 0.75546 1.18044 1.13745
 N161 N 0.73757 1.14981 1.15037
 C162 C 0.75558 1.13687 1.18107
 H163 H 0.80394 1.11261 1.25392
 H164 H 0.88778 1.19642 1.25405
 H165 H 0.88761 1.25312 1.19722
 H166 H 0.80361 1.25311 1.11324
 H167 H 0.74711 1.19660 1.11324
 H168 H 0.74733 1.11271 1.19724
 N169 N 0.53914 1.06611 0.95968
 N170 N 0.56737 1.08925 0.95490
 N171 N 0.46062 1.04015 0.93369
 N172 N 0.43230 1.04489 0.91050
 N173 N 0.46056 1.06604 0.95969
 N174 N 0.43221 1.08913 0.95496
 N175 N 0.53921 1.04021 0.93368
 N176 N 0.56750 1.04500 0.91047
 C177 C 0.58467 1.07567 0.92413
 C178 C 0.41500 1.07552 0.92421
 N179 N 0.46084 0.93390 0.95968
 N180 N 0.43261 0.91075 0.95490
 N181 N 0.53936 0.95986 0.93368
 N182 N 0.56768 0.95512 0.91050
 N183 N 0.53941 0.93397 0.95969
 N184 N 0.56776 0.91088 0.95496
 N185 N 0.46077 0.95980 0.93368
 N186 N 0.43248 0.95501 0.91047
 Mn187 Mn 0.49999 1.00000 0.93323
 C188 C 0.41531 0.92434 0.92413
 C189 C 0.58498 0.92449 0.92421
 N190 N 0.46048 1.06603 1.04033
 N191 N 0.43211 1.08911 1.04515
 N192 N 0.53913 1.04019 1.06631
 N193 N 0.56743 1.04493 1.08948
 N194 N 0.53906 1.06609 1.04032
 N195 N 0.56732 1.08919 1.04505
 N196 N 0.46056 1.04012 1.06632
 N197 N 0.43227 1.04484 1.08955
 Mn198 Mn 0.49981 1.06651 1.00000
 C199 C 0.41492 1.07547 1.07592
 C200 C 0.58460 1.07556 1.07579
 N201 N 0.53950 0.93398 1.04033
 N202 N 0.56786 0.91089 1.04515
 N203 N 0.46085 0.95981 1.06631
 N204 N 0.43254 0.95508 1.08948
 N205 N 0.46092 0.93391 1.04032
 N206 N 0.43266 0.91082 1.04505
 N207 N 0.53941 0.95989 1.06632
 N208 N 0.56770 0.95517 1.08955
 Mn209 Mn 0.50017 0.93350 1.00000
 Mn210 Mn 0.49999 1.00000 1.06676
 Cl211 Cl 0.49999 1.00000 0.99999
 C212 C 0.58505 0.92453 1.07592
 C213 C 0.41538 0.92444 1.07579
 N214 N -0.06625 0.46107 0.03975
 N215 N -0.08940 0.43285 0.04452
 N216 N -0.04013 0.53943 0.06573
 N217 N -0.04486 0.56769 0.08896
 N218 N -0.06607 0.53954 0.03973
 N219 N -0.08917 0.56788 0.04453
 N220 N -0.04030 0.46098 0.06573
 N221 N -0.04504 0.43272 0.08891
 C222 C -0.07574 0.41559 0.07526
 C223 C -0.07551 0.58504 0.07530
 N224 N 0.06622 0.53894 0.03975
 N225 N 0.08937 0.56715 0.04451
 N226 N 0.04011 0.46057 0.06573
 N227 N 0.04484 0.43231 0.08895
 N228 N 0.06604 0.46046 0.03972
 N229 N 0.08914 0.43213 0.04452
 N230 N 0.04028 0.53903 0.06573
 N231 N 0.04502 0.56729 0.08891
 Mn232 Mn -0.00001 0.50000 0.06617
 C233 C 0.07572 0.58441 0.07525
 C234 C 0.07549 0.41497 0.07529
 N235 N -0.06607 0.53951 -0.04090
 N236 N -0.08913 0.56787 -0.04567
 N237 N -0.04035 0.46090 -0.06690
 N238 N -0.04520 0.43261 -0.09005
 N239 N -0.06627 0.46103 -0.04088
 N240 N -0.08947 0.43286 -0.04559
 N241 N -0.04014 0.53939 -0.06690
 N242 N -0.04481 0.56768 -0.09009
 Mn243 Mn -0.06661 0.50029 -0.00058
 C244 C -0.07544 0.58503 -0.07642
 C245 C -0.07591 0.41553 -0.07634
 N246 N 0.06604 0.46050 -0.04091
 N247 N 0.08909 0.43213 -0.04567
 N248 N 0.04032 0.53911 -0.06690
 N249 N 0.04516 0.56740 -0.09005
 N250 N 0.06624 0.53897 -0.04089
 N251 N 0.08944 0.56715 -0.04560
 N252 N 0.04010 0.46062 -0.06691
 N253 N 0.04477 0.43233 -0.09010
 Mn254 Mn 0.06658 0.49972 -0.00058
 Mn255 Mn -0.00002 0.50001 -0.06735
 Cl256 Cl -0.00001 0.50000 -0.00059
 C257 C 0.07540 0.41497 -0.07643
 C258 C 0.07588 0.58448 -0.07634
 N259 N 0.93372 0.04008 0.53968
 N260 N 0.91051 0.04482 0.56800
 N261 N 0.95960 0.06602 0.46092
 N262 N 0.95482 0.08914 0.43256
 N263 N 0.93373 0.04012 0.46091
 N264 N 0.91059 0.04486 0.43252
 N265 N 0.95956 0.06603 0.53969
 N266 N 0.95467 0.08916 0.56804
 C267 C 0.92400 0.07550 0.58530
 C268 C 0.92418 0.07551 0.41526
 N269 N 1.06603 0.04022 0.46086
 N270 N 1.08921 0.04499 0.43253
 N271 N 1.03999 0.06612 0.53961
 N272 N 1.04466 0.08926 0.56795
 N273 N 1.06601 0.04026 0.53964
 N274 N 1.08913 0.04508 0.56801
 N275 N 1.04004 0.06610 0.46084
 N276 N 1.04479 0.08922 0.43247
 Mn277 Mn 0.99980 0.06651 0.50026
 C278 C 1.07554 0.07562 0.41521
 C279 C 1.07537 0.07571 0.58525
 N280 N 0.93394 -0.04021 0.46086
 N281 N 0.91077 -0.04498 0.43253
 N282 N 0.95998 -0.06611 0.53961
 N283 N 0.95532 -0.08925 0.56795
 N284 N 0.93397 -0.04025 0.53964
 N285 N 0.91085 -0.04507 0.56801
 N286 N 0.95994 -0.06609 0.46084
 N287 N 0.95518 -0.08921 0.43247
 Mn288 Mn 0.93339 -0.00007 0.50027
 C289 C 0.92444 -0.07561 0.41521
 C290 C 0.92461 -0.07570 0.58525
 N291 N 1.06626 -0.04007 0.53968
 N292 N 1.08946 -0.04481 0.56801
 N293 N 1.04038 -0.06601 0.46091
 N294 N 1.04516 -0.08913 0.43256
 N295 N 1.06625 -0.04011 0.46090
 N296 N 1.08939 -0.04485 0.43252
 N297 N 1.04042 -0.06602 0.53969
 N298 N 1.04531 -0.08915 0.56804
 Mn299 Mn 1.06658 0.00007 0.50027
 Mn300 Mn 1.00018 -0.06650 0.50026
 Cl301 Cl 0.99999 0.00000 0.50027
 C302 C 1.07598 -0.07549 0.58530
 C303 C 1.07580 -0.07551 0.41526
 C304 C 1.13509 0.13423 0.29423
 C305 C 1.12140 0.12079 0.32196
 C306 C 1.10537 0.10511 0.35444
 C307 C 1.09171 0.09169 0.38218
 C308 C 0.86489 -0.13422 0.29423
 C309 C 0.87858 -0.12078 0.32196
 C310 C 0.89461 -0.10510 0.35444
 C311 C 0.90827 -0.09169 0.38218
 C312 C 0.86419 0.13432 0.70615
 C313 C 0.87791 0.12080 0.67846
 C314 C 0.89400 0.10504 0.64601
 C315 C 0.90772 0.09159 0.61830
 C316 C 1.13579 -0.13431 0.70615
 C317 C 1.12207 -0.12079 0.67846
 C318 C 1.10597 -0.10503 0.64601
 C319 C 1.09225 -0.09158 0.61830
 C320 C 0.29400 1.13410 1.13546
 C321 C 0.32171 1.12063 1.12181
 C322 C 0.35418 1.10491 1.10579
 C323 C 0.38191 1.09150 1.09214
 C324 C 0.29463 0.86528 0.86490
 C325 C 0.32230 0.87881 0.87851
 C326 C 0.35470 0.89467 0.89441
 C327 C 0.38237 0.90820 0.90797
 C328 C 0.70597 0.86591 1.13546
 C329 C 0.67826 0.87937 1.12181
 C330 C 0.64579 0.89508 1.10580
 C331 C 0.61807 0.90850 1.09214
 C332 C 0.70534 1.13473 0.86490
 C333 C 0.67768 1.12119 0.87851
 C334 C 0.64528 1.10534 0.89440
 C335 C 0.61761 1.09180 0.90796
 C336 C 0.13448 0.29424 0.13450
 C337 C 0.12092 0.32190 0.12092
 C338 C 0.10508 0.35432 0.10503
 C339 C 0.09157 0.38200 0.09147
 C340 C -0.13543 0.29486 -0.13476
 C341 C -0.12179 0.32252 -0.12136
 C342 C -0.10578 0.35493 -0.10573
 C343 C -0.09212 0.38260 -0.09236
 C344 C 0.13540 0.70516 -0.13476
 C345 C 0.12176 0.67749 -0.12136
 C346 C 0.10574 0.64508 -0.10573
 C347 C 0.09208 0.61742 -0.09236
 C348 C -0.13450 0.70577 0.13451
 C349 C -0.12095 0.67811 0.12093
 C350 C -0.10510 0.64569 0.10504
 C351 C -0.09159 0.61800 0.09148
 C352 C 1.13376 0.13516 0.70621
 C353 C 1.12035 0.12151 0.67848
 C354 C 1.10472 0.10552 0.64601
 C355 C 1.09136 0.09188 0.61827
 C356 C 0.86623 -0.13515 0.70621
 C357 C 0.87964 -0.12150 0.67849
 C358 C 0.89526 -0.10551 0.64602
 C359 C 0.90862 -0.09187 0.61828
 C360 C 1.13439 -0.13470 0.29418
 C361 C 1.12095 -0.12110 0.32194
 C362 C 1.10527 -0.10517 0.35444
 C363 C 1.09186 -0.09160 0.38221
 C364 C 0.86558 0.13471 0.29418
 C365 C 0.87903 0.12111 0.32194
 C366 C 0.89471 0.10518 0.35444
 C367 C 0.90812 0.09161 0.38221
 C368 C 0.13389 0.29400 -0.13541
 C369 C 0.12045 0.32173 -0.12189
 C370 C 0.10475 0.35421 -0.10606
 C371 C 0.09136 0.38195 -0.09254
 C372 C -0.13400 0.29493 0.13456
 C373 C -0.12066 0.32260 0.12093
 C374 C -0.10508 0.35500 0.10497
 C375 C -0.09174 0.38267 0.09137
 C376 C -0.13394 0.70600 -0.13541
 C377 C -0.12050 0.67826 -0.12190
 C378 C -0.10482 0.64577 -0.10607
 C379 C -0.09142 0.61804 -0.09254
 C380 C 0.13397 0.70508 0.13455
 C381 C 0.12064 0.67741 0.12093
 C382 C 0.10507 0.64501 0.10496
 C383 C 0.09172 0.61734 0.09137
 C384 C 0.29405 1.13456 0.86557
 C385 C 0.32178 1.12100 0.87902
 C386 C 0.35425 1.10513 0.89472
 C387 C 0.38199 1.09159 0.90815
 C388 C 0.29459 0.86584 1.13465
 C389 C 0.32228 0.87928 1.12113
 C390 C 0.35471 0.89500 1.10533
 C391 C 0.38242 0.90843 1.09185
 C392 C 0.70539 1.13416 1.13465
 C393 C 0.67770 1.12072 1.12113
 C394 C 0.64527 1.10501 1.10533
 C395 C 0.61756 1.09158 1.09185
 C396 C 0.70593 0.86546 0.86557
 C397 C 0.67820 0.87901 0.87902
 C398 C 0.64573 0.89489 0.89472
 C399 C 0.61799 0.90842 0.90815
   
