data_POSCAR
  _audit_creation_date              2014-09-24
  _audit_creation_method            'ToBaCCo'
  _symmetry_space_group_name_H-M    'P1'
  _symmetry_Int_Tables_number       1
  _symmetry_cell_setting            triclinic
  loop_
  _symmetry_equiv_pos_as_xyz
 x,y,z
_cell_length_a 34.2444
_cell_length_b 35.7984
_cell_length_c 34.2985
_cell_angle_alpha 89.246300
_cell_angle_beta 89.535400
_cell_angle_gamma 89.445400
loop_
  _atom_site_label
  _atom_site_type_symbol
  _atom_site_fract_x
  _atom_site_fract_y
  _atom_site_fract_z
Si1 Si 0.24606 0.24753 0.24943
 Si2 Si 0.74612 0.74847 0.24710
 Si3 Si 0.74988 0.25083 0.74371
 Si4 Si 0.24991 0.74976 0.75263
 C5 C 0.05257 0.05771 0.01360
 H6 H 0.05446 0.05870 -0.01790
 C7 C 0.07451 0.08228 0.03562
 H8 H 0.09373 0.10174 0.02078
 C9 C 0.02533 0.03077 0.07100
 H10 H 0.00557 0.01118 0.08468
 C11 C 0.04671 0.05487 0.09416
 H12 H 0.04311 0.05347 0.12553
 N13 N 0.02895 0.03233 0.03149
 C14 C 0.01613 -0.05612 -0.05378
 H15 H -0.01536 -0.05747 -0.05542
 C16 C 0.03928 -0.08062 -0.07558
 H17 H 0.02534 -0.10090 -0.09388
 C18 C 0.07240 -0.02886 -0.02673
 H19 H 0.08523 -0.00907 -0.00725
 C20 C 0.09663 -0.05291 -0.04789
 H21 H 0.12799 -0.05074 -0.04504
 Zn22 Zn -0.00047 0.00081 -0.00077
 N23 N 0.03293 -0.03060 -0.03033
 C24 C -0.02960 0.02937 -0.07321
 N25 N -0.03096 0.03211 -0.03370
 C26 C -0.05397 0.05810 -0.01601
 C27 C -0.07778 0.08191 -0.03811
 C28 C -0.05308 0.05257 -0.09647
 C29 C -0.01611 -0.05580 0.05426
 C30 C -0.03895 -0.08025 0.07660
 C31 C -0.09659 -0.05296 0.04720
 C32 C -0.07268 -0.02893 0.02558
 N33 N -0.03322 -0.03055 0.02967
 H34 H -0.01054 0.00909 -0.08681
 H35 H -0.05396 0.06010 0.01544
 H36 H -0.09574 0.10248 -0.02337
 H37 H -0.05235 0.04927 -0.12780
 H38 H 0.01539 -0.05697 0.05638
 H39 H -0.02480 -0.10036 0.09579
 H40 H -0.12796 -0.05096 0.04384
 H41 H -0.08574 -0.00927 0.00529
 C42 C 0.08013 -0.07918 -0.07279
 C43 C 0.07179 0.08103 0.07651
 C44 C -0.07977 -0.07905 0.07314
 C45 C -0.07788 0.07909 -0.07893
 C46 C 0.05822 0.56344 0.51418
 H47 H 0.05931 0.56455 0.48265
 C48 C 0.08069 0.58798 0.53572
 H49 H 0.09952 0.60751 0.52047
 C50 C 0.03251 0.53623 0.57213
 H51 H 0.01318 0.51650 0.58623
 C52 C 0.05443 0.56029 0.59483
 H53 H 0.05164 0.55875 0.62627
 N54 N 0.03514 0.53790 0.53256
 C55 C 0.02074 0.44843 0.44881
 H56 H -0.01077 0.44651 0.44863
 C57 C 0.04333 0.42395 0.42645
 H58 H 0.02892 0.40306 0.40931
 C59 C 0.07763 0.47722 0.47262
 H60 H 0.09096 0.49765 0.49103
 C61 C 0.10135 0.45332 0.45070
 H62 H 0.13275 0.45625 0.45192
 Zn63 Zn 0.00519 0.50615 0.50100
 N64 N 0.03808 0.47468 0.47094
 C65 C -0.02547 0.53365 0.42887
 N66 N -0.02594 0.53711 0.46832
 C67 C -0.04874 0.56326 0.48601
 C68 C -0.07337 0.58640 0.46401
 C69 C -0.04976 0.55616 0.40572
 C70 C -0.00999 0.44945 0.55641
 C71 C -0.03275 0.42467 0.57847
 C72 C -0.09047 0.45202 0.54930
 C73 C -0.06666 0.47635 0.52796
 N74 N -0.02719 0.47481 0.53198
 H75 H -0.00662 0.51321 0.41524
 H76 H -0.04806 0.56581 0.51739
 H77 H -0.09125 0.60703 0.47874
 H78 H -0.04979 0.55222 0.37448
 H79 H 0.02151 0.44831 0.55847
 H80 H -0.01853 0.40439 0.59741
 H81 H -0.12184 0.45390 0.54588
 H82 H -0.07982 0.49606 0.50780
 C83 C 0.08424 0.42627 0.42712
 C84 C 0.07908 0.58654 0.57666
 C85 C -0.07357 0.42564 0.57487
 C86 C -0.07446 0.58273 0.42330
 C87 C 0.55165 0.05779 0.51364
 H88 H 0.55204 0.05857 0.48210
 C89 C 0.57409 0.08296 0.53440
 H90 H 0.59218 0.10268 0.51852
 C91 C 0.52780 0.03069 0.57244
 H92 H 0.50918 0.01076 0.58720
 C93 C 0.54972 0.05539 0.59436
 H94 H 0.54766 0.05411 0.62587
 N95 N 0.52957 0.03195 0.53281
 C96 C 0.51621 -0.05844 0.44995
 H97 H 0.48476 -0.06114 0.45011
 C98 C 0.53922 -0.08236 0.42733
 H99 H 0.52522 -0.10360 0.41032
 C100 C 0.57255 -0.02823 0.47312
 H101 H 0.58553 -0.00749 0.49140
 C102 C 0.59666 -0.05153 0.45096
 H103 H 0.62798 -0.04780 0.45183
 Zn104 Zn 0.49985 -0.00092 0.50229
 N105 N 0.53307 -0.03174 0.47187
 C106 C 0.46774 0.02584 0.43056
 N107 N 0.46724 0.02898 0.47004
 C108 C 0.44402 0.05464 0.48799
 C109 C 0.41932 0.07787 0.46617
 C110 C 0.44339 0.04845 0.40760
 C111 C 0.48831 -0.05696 0.55888
 C112 C 0.46727 -0.08117 0.58319
 C113 C 0.40750 -0.05616 0.55595
 C114 C 0.42968 -0.03226 0.53233
 N115 N 0.46933 -0.03274 0.53454
 H116 H 0.48694 0.00581 0.41674
 H117 H 0.44472 0.05698 0.51939
 H118 H 0.40135 0.09831 0.48108
 H119 H 0.44361 0.04496 0.37629
 H120 H 0.51990 -0.05728 0.55947
 H121 H 0.48289 -0.10024 0.60239
 H122 H 0.37596 -0.05493 0.55426
 H123 H 0.41513 -0.01345 0.51219
 C124 C 0.58006 -0.07900 0.42756
 C125 C 0.57345 0.08187 0.57536
 C126 C 0.42629 -0.08087 0.58200
 C127 C 0.41859 0.07482 0.42538
 C128 C 0.55247 0.55547 0.01409
 H129 H 0.55345 0.55683 -0.01744
 C130 C 0.57438 0.58032 0.03576
 H131 H 0.59269 0.60037 0.02060
 C132 C 0.52751 0.52732 0.07189
 H133 H 0.50864 0.50712 0.08588
 C134 C 0.54890 0.55170 0.09473
 H135 H 0.54620 0.54992 0.12617
 N136 N 0.53000 0.52935 0.03232
 C137 C 0.51749 0.44102 -0.05310
 H138 H 0.48603 0.43857 -0.05362
 C139 C 0.54076 0.41753 -0.07595
 H140 H 0.52693 0.39685 -0.09382
 C141 C 0.57359 0.47021 -0.02802
 H142 H 0.58637 0.49040 -0.00895
 C143 C 0.59795 0.44732 -0.05039
 H144 H 0.62926 0.45083 -0.04884
 Zn145 Zn 0.50062 0.49755 0.00035
 N146 N 0.53412 0.46704 -0.03013
 C147 C 0.46975 0.52601 -0.07137
 N148 N 0.46913 0.52863 -0.03184
 C149 C 0.44622 0.55437 -0.01363
 C150 C 0.42184 0.57810 -0.03519
 C151 C 0.44569 0.54914 -0.09411
 C152 C 0.48620 0.44038 0.05543
 C153 C 0.46371 0.41567 0.07785
 C154 C 0.40566 0.44246 0.04877
 C155 C 0.42921 0.46675 0.02710
 N156 N 0.46870 0.46553 0.03098
 H157 H 0.48868 0.50589 -0.08540
 H158 H 0.44680 0.55626 0.01782
 H159 H 0.40403 0.59851 -0.02005
 H160 H 0.44589 0.54599 -0.12545
 H161 H 0.51771 0.43951 0.05740
 H162 H 0.47813 0.39568 0.09697
 H163 H 0.37426 0.44419 0.04557
 H164 H 0.41583 0.48632 0.00693
 C165 C 0.58160 0.42060 -0.07488
 C166 C 0.57282 0.57863 0.07668
 C167 C 0.42286 0.41648 0.07457
 C168 C 0.42107 0.57548 -0.07601
 C169 C 0.17760 -0.17728 -0.16447
 C170 C 0.21694 -0.18534 -0.15634
 C171 C 0.23851 -0.20792 -0.18156
 C172 C 0.22152 -0.22206 -0.21535
 C173 C 0.18192 -0.21391 -0.22202
 N174 N 0.16146 -0.19185 -0.19700
 C175 C 0.15325 -0.15266 -0.13951
 N176 N 0.12036 -0.13688 -0.15490
 C177 C 0.09657 -0.11371 -0.13422
 C178 C 0.10540 -0.10502 -0.09551
 C179 C 0.13884 -0.12136 -0.07884
 C180 C 0.16268 -0.14525 -0.10057
 H181 H 0.26853 -0.21443 -0.17426
 H182 H 0.16682 -0.22476 -0.24678
 H183 H 0.07119 -0.10160 -0.14831
 H184 H 0.14624 -0.11611 -0.04878
 H185 H 0.23140 -0.17400 -0.13130
 H186 H 0.18769 -0.15806 -0.08656
 C187 C 0.17803 0.32719 0.33285
 C188 C 0.21839 0.32149 0.33751
 C189 C 0.23848 0.29756 0.31240
 C190 C 0.21877 0.27975 0.28238
 C191 C 0.17847 0.28583 0.27889
 N192 N 0.15946 0.30926 0.30366
 C193 C 0.15503 0.35258 0.35815
 N194 N 0.12067 0.36687 0.34457
 C195 C 0.09773 0.39024 0.36592
 C196 C 0.10892 0.40056 0.40354
 C197 C 0.14403 0.38584 0.41832
 C198 C 0.16706 0.36184 0.39586
 H199 H 0.26936 0.29270 0.31683
 H200 H 0.16184 0.27206 0.25681
 H201 H 0.07107 0.40112 0.35320
 H202 H 0.15337 0.39232 0.44752
 H203 H 0.23459 0.33559 0.35979
 H204 H 0.19344 0.35022 0.40841
 C205 C 0.67608 -0.17473 0.33181
 C206 C 0.71667 -0.17907 0.33599
 C207 C 0.73736 -0.20212 0.31048
 C208 C 0.71801 -0.22041 0.28055
 C209 C 0.67748 -0.21572 0.27755
 N210 N 0.65789 -0.19311 0.30269
 C211 C 0.65243 -0.15029 0.35753
 N212 N 0.61749 -0.13700 0.34437
 C213 C 0.59399 -0.11447 0.36610
 C214 C 0.60521 -0.10400 0.40367
 C215 C 0.64089 -0.11778 0.41803
 C216 C 0.66448 -0.14093 0.39520
 H217 H 0.76844 -0.20596 0.31456
 H218 H 0.66113 -0.22993 0.25558
 H219 H 0.56688 -0.10431 0.35370
 H220 H 0.65029 -0.11117 0.44718
 H221 H 0.73255 -0.16455 0.35820
 H222 H 0.69135 -0.15183 0.40741
 C223 C 0.67885 0.32691 -0.17167
 C224 C 0.71935 0.32238 -0.16695
 C225 C 0.74036 0.29967 -0.19253
 C226 C 0.72143 0.28190 -0.22308
 C227 C 0.68098 0.28689 -0.22671
 N228 N 0.66107 0.30914 -0.20146
 C229 C 0.65487 0.35083 -0.14572
 N230 N 0.62020 0.36459 -0.15909
 C231 C 0.59642 0.38664 -0.13712
 C232 C 0.60704 0.39609 -0.09906
 C233 C 0.64242 0.38181 -0.08449
 C234 C 0.66631 0.35917 -0.10758
 H235 H 0.77134 0.29561 -0.18798
 H236 H 0.66494 0.27311 -0.24920
 H237 H 0.56956 0.39723 -0.14969
 H238 H 0.65135 0.38761 -0.05499
 H239 H 0.73492 0.33644 -0.14420
 H240 H 0.69292 0.34785 -0.09522
 C241 C -0.17780 0.17275 -0.17433
 C242 C -0.21862 0.17528 -0.16993
 C243 C -0.24002 0.19872 -0.19473
 C244 C -0.22111 0.21921 -0.22412
 C245 C -0.18056 0.21567 -0.22813
 N246 N -0.16020 0.19282 -0.20349
 C247 C -0.15323 0.14854 -0.14882
 N248 N -0.11634 0.13963 -0.16086
 C249 C -0.09188 0.11770 -0.13925
 C250 C -0.10408 0.10332 -0.10290
 C251 C -0.14185 0.11244 -0.08973
 C252 C -0.16635 0.13509 -0.11236
 H253 H -0.27142 0.20072 -0.19109
 H254 H -0.16499 0.23091 -0.25069
 H255 H -0.06279 0.11197 -0.15031
 H256 H -0.15268 0.10177 -0.06206
 H257 H -0.23425 0.15912 -0.14816
 H258 H -0.19489 0.14216 -0.10085
 C259 C -0.17851 0.67244 0.32832
 C260 C -0.21929 0.67417 0.33348
 C261 C -0.24168 0.69687 0.30880
 C262 C -0.22377 0.71741 0.27882
 C263 C -0.18324 0.71457 0.27402
 N264 N -0.16192 0.69244 0.29854
 C265 C -0.15288 0.64920 0.35375
 N266 N -0.11608 0.64080 0.34105
 C267 C -0.09066 0.61984 0.36256
 C268 C -0.10169 0.60601 0.39949
 C269 C -0.13935 0.61464 0.41335
 C270 C -0.16487 0.63628 0.39079
 H271 H -0.27303 0.69834 0.31307
 H272 H -0.16842 0.72985 0.25097
 H273 H -0.06171 0.61444 0.35094
 H274 H -0.14929 0.60435 0.44151
 H275 H -0.23411 0.65798 0.35580
 H276 H -0.19331 0.64302 0.40278
 C277 C 0.31803 0.16884 0.33105
 C278 C 0.27731 0.17210 0.33605
 C279 C 0.25598 0.19574 0.31139
 C280 C 0.27485 0.21571 0.28157
 C281 C 0.31528 0.21149 0.27703
 N282 N 0.33556 0.18845 0.30153
 C283 C 0.34262 0.14437 0.35629
 N284 N 0.37937 0.13538 0.34390
 C285 C 0.40396 0.11334 0.36522
 C286 C 0.39207 0.09892 0.40165
 C287 C 0.35443 0.10806 0.41517
 C288 C 0.32976 0.13082 0.39281
 H289 H 0.22467 0.19830 0.31544
 H290 H 0.33081 0.22633 0.25416
 H291 H 0.43295 0.10761 0.35389
 H292 H 0.34385 0.09738 0.44294
 H293 H 0.26171 0.15637 0.35818
 H294 H 0.30133 0.13790 0.40459
 C295 C 0.32042 0.67069 -0.16895
 C296 C 0.27977 0.67411 -0.16371
 C297 C 0.25845 0.69824 -0.18787
 C298 C 0.27725 0.71868 -0.21752
 C299 C 0.31769 0.71404 -0.22236
 N300 N 0.33790 0.69052 -0.19831
 C301 C 0.34501 0.64583 -0.14412
 N302 N 0.38170 0.63687 -0.15675
 C303 C 0.40632 0.61457 -0.13576
 C304 C 0.39454 0.59986 -0.09943
 C305 C 0.35696 0.60893 -0.08568
 C306 C 0.33226 0.63195 -0.10771
 H307 H 0.22716 0.70076 -0.18346
 H308 H 0.33343 0.72885 -0.24513
 H309 H 0.43525 0.60887 -0.14726
 H310 H 0.34646 0.59800 -0.05799
 H311 H 0.26418 0.65816 -0.14174
 H312 H 0.30390 0.63898 -0.09574
 C313 C -0.17589 -0.17868 0.16477
 C314 C -0.19887 -0.20695 0.14899
 C315 C -0.22184 -0.22904 0.17366
 C316 C -0.22213 -0.22307 0.21394
 C317 C -0.19783 -0.19547 0.22872
 N318 N -0.17568 -0.17423 0.20414
 C319 C -0.15151 -0.15385 0.13999
 N320 N -0.12010 -0.13701 0.15603
 C321 C -0.09671 -0.11341 0.13531
 C322 C -0.10469 -0.10514 0.09603
 C323 C -0.13712 -0.12193 0.07899
 C324 C -0.16057 -0.14619 0.10079
 H325 H -0.23900 -0.25092 0.16105
 H326 H -0.19636 -0.19062 0.25965
 H327 H -0.07232 -0.10064 0.14974
 H328 H -0.14422 -0.11649 0.04873
 H329 H -0.19876 -0.21251 0.11807
 H330 H -0.18586 -0.15806 0.08713
 C331 C -0.17015 0.32402 0.66365
 C332 C -0.19320 0.29621 0.64708
 C333 C -0.21670 0.27396 0.67109
 C334 C -0.21742 0.27927 0.71147
 C335 C -0.19296 0.30633 0.72704
 N336 N -0.17033 0.32779 0.70311
 C337 C -0.14547 0.34923 0.63956
 N338 N -0.11424 0.36583 0.65622
 C339 C -0.09073 0.38988 0.63619
 C340 C -0.09845 0.39892 0.59702
 C341 C -0.13064 0.38233 0.57935
 C342 C -0.15419 0.35760 0.60043
 H343 H -0.23400 0.25251 0.65787
 H344 H -0.19182 0.31065 0.75808
 H345 H -0.06651 0.40243 0.65109
 H346 H -0.13752 0.38832 0.54914
 H347 H -0.19282 0.29118 0.61606
 H348 H -0.17934 0.34596 0.58629
 C349 C 0.33275 -0.17594 0.68136
 C350 C 0.32956 -0.17139 0.72184
 C351 C 0.30444 -0.19420 0.74347
 C352 C 0.28206 -0.22132 0.72504
 C353 C 0.28659 -0.22535 0.68456
 N354 N 0.31115 -0.20269 0.66406
 C355 C 0.35802 -0.15181 0.65674
 N356 N 0.34875 -0.14647 0.61853
 C357 C 0.37010 -0.12424 0.59421
 C358 C 0.40323 -0.10591 0.60797
 C359 C 0.41378 -0.11160 0.64706
 C360 C 0.39135 -0.13448 0.67149
 H361 H 0.30276 -0.19029 0.77457
 H362 H 0.27111 -0.24655 0.66895
 H363 H 0.36133 -0.12114 0.56409
 H364 H 0.43906 -0.09792 0.65889
 H365 H 0.34555 -0.15001 0.73673
 H366 H 0.40039 -0.13875 0.70137
 C367 C 0.32657 0.31756 0.16686
 C368 C 0.30339 0.28931 0.15134
 C369 C 0.27974 0.26801 0.17612
 C370 C 0.27900 0.27471 0.21626
 C371 C 0.30364 0.30215 0.23084
 N372 N 0.32640 0.32267 0.20614
 C373 C 0.35129 0.34187 0.14184
 N374 N 0.38271 0.35880 0.15779
 C375 C 0.40619 0.38220 0.13688
 C376 C 0.39823 0.39021 0.09754
 C377 C 0.36588 0.37322 0.08058
 C378 C 0.34238 0.34915 0.10254
 H379 H 0.26235 0.24619 0.16370
 H380 H 0.30477 0.30754 0.26168
 H381 H 0.43054 0.39510 0.15123
 H382 H 0.35881 0.37845 0.05027
 H383 H 0.30376 0.28323 0.12053
 H384 H 0.31708 0.33721 0.08894
 C385 C 0.16363 0.17854 0.17113
 C386 C 0.16308 0.21779 0.16855
 C387 C 0.18752 0.23829 0.19238
 C388 C 0.21198 0.22002 0.21915
 C389 C 0.21140 0.18095 0.22128
 N390 N 0.18756 0.16150 0.19760
 C391 C 0.13908 0.15488 0.14619
 N392 N 0.13328 0.11864 0.15712
 C393 C 0.11184 0.09479 0.13566
 C394 C 0.09485 0.10694 0.10054
 C395 C 0.10060 0.14413 0.08855
 C396 C 0.12271 0.16809 0.11110
 H397 H 0.18754 0.26847 0.18972
 H398 H 0.23013 0.16571 0.24121
 H399 H 0.10872 0.06620 0.14575
 H400 H 0.08782 0.15480 0.06182
 H401 H 0.14396 0.23277 0.14878
 H402 H 0.12731 0.19627 0.10050
 C403 C 0.17294 0.68312 0.67051
 C404 C 0.17321 0.72234 0.66788
 C405 C 0.19686 0.74251 0.69282
 C406 C 0.21983 0.72399 0.72088
 C407 C 0.21893 0.68481 0.72237
 N408 N 0.19577 0.66578 0.69770
 C409 C 0.14829 0.65970 0.64538
 N410 N 0.14249 0.62341 0.65615
 C411 C 0.12058 0.59977 0.63492
 C412 C 0.10293 0.61220 0.60024
 C413 C 0.10874 0.64942 0.58834
 C414 C 0.13140 0.67317 0.61063
 H415 H 0.19715 0.77270 0.69017
 H416 H 0.23650 0.66897 0.74282
 H417 H 0.11752 0.57115 0.64491
 H418 H 0.09549 0.66032 0.56193
 H419 H 0.15513 0.73763 0.64740
 H420 H 0.13585 0.70142 0.60018
 C421 C 0.66824 0.18075 0.66552
 C422 C 0.66731 0.21999 0.66275
 C423 C 0.69178 0.24081 0.68625
 C424 C 0.71670 0.22287 0.71285
 C425 C 0.71676 0.18379 0.71490
 N426 N 0.69282 0.16404 0.69162
 C427 C 0.64315 0.15671 0.64150
 N428 N 0.63828 0.12043 0.65278
 C429 C 0.61617 0.09627 0.63240
 C430 C 0.59738 0.10813 0.59811
 C431 C 0.60220 0.14534 0.58572
 C432 C 0.62506 0.16963 0.60715
 H433 H 0.69128 0.27100 0.68367
 H434 H 0.73588 0.16879 0.73464
 H435 H 0.61387 0.06768 0.64271
 H436 H 0.58807 0.15580 0.55959
 H437 H 0.64774 0.23474 0.64324
 H438 H 0.62880 0.19784 0.59630
 C439 C 0.66455 0.67772 0.16962
 C440 C 0.66297 0.71696 0.16720
 C441 C 0.68727 0.73795 0.19068
 C442 C 0.71263 0.72018 0.21696
 C443 C 0.71314 0.68110 0.21891
 N444 N 0.68940 0.66116 0.19557
 C445 C 0.64005 0.65360 0.14511
 N446 N 0.63542 0.61716 0.15596
 C447 C 0.61402 0.59295 0.13491
 C448 C 0.59583 0.60490 0.10033
 C449 C 0.60036 0.64229 0.08844
 C450 C 0.62247 0.66661 0.11055
 H451 H 0.68641 0.76814 0.18819
 H452 H 0.73257 0.66626 0.23849
 H453 H 0.61187 0.56423 0.14488
 H454 H 0.58663 0.65283 0.06214
 H455 H 0.64311 0.73157 0.14787
 H456 H 0.62610 0.69494 0.10000
   
