data_POSCAR
  _audit_creation_date              2014-09-24
  _audit_creation_method            'ToBaCCo'
  _symmetry_space_group_name_H-M    'P1'
  _symmetry_Int_Tables_number       1
  _symmetry_cell_setting            triclinic
  loop_
  _symmetry_equiv_pos_as_xyz
 x,y,z
_cell_length_a 25.3504
_cell_length_b 25.3436
_cell_length_c 25.2618
_cell_angle_alpha 90.119700
_cell_angle_beta 90.120800
_cell_angle_gamma 89.881400
loop_
  _atom_site_label
  _atom_site_type_symbol
  _atom_site_fract_x
  _atom_site_fract_y
  _atom_site_fract_z
C1 C 0.38912 1.00040 -0.54919
 C2 C 0.36220 0.99992 -0.50097
 C3 C 0.38941 0.99949 -0.45287
 C4 C 0.44515 0.99976 -0.45238
 C5 C 0.47306 1.00001 -0.50102
 C6 C 0.44497 1.00022 -0.54972
 C7 C 0.47349 1.00022 -0.59745
 C8 C 0.52840 0.99997 -0.59740
 C9 C 0.55706 0.99991 -0.54962
 C10 C 0.52912 1.00005 -0.50096
 C11 C 0.47366 0.99979 -0.40459
 C12 C 0.52857 1.00013 -0.40450
 C13 C 0.55714 1.00023 -0.45222
 C14 C 0.61298 1.00051 -0.45265
 C15 C 0.64001 1.00014 -0.50081
 C16 C 0.61290 0.99972 -0.54904
 H17 H 0.45349 1.00033 -0.63537
 H18 H 0.54829 0.99992 -0.63529
 H19 H 0.45370 0.99965 -0.36675
 H20 H 0.54852 1.00021 -0.36656
 H21 H 0.31935 0.99989 -0.50077
 H22 H 0.68289 1.00017 -0.50075
 C23 C -0.45312 1.61280 0.00020
 C24 C -0.50107 1.64001 -0.00020
 C25 C -0.54911 1.61305 -0.00054
 C26 C -0.54962 1.55720 -0.00023
 C27 C -0.50108 1.52916 -0.00007
 C28 C -0.45260 1.55706 0.00003
 C29 C -0.40497 1.52851 -0.00004
 C30 C -0.40491 1.47357 -0.00027
 C31 C -0.45246 1.44513 -0.00022
 C32 C -0.50099 1.47314 0.00001
 C33 C -0.59718 1.52861 -0.00008
 C34 C -0.59707 1.47367 0.00029
 C35 C -0.54943 1.44518 0.00031
 C36 C -0.54881 1.38943 0.00061
 C37 C -0.50081 1.36232 0.00015
 C38 C -0.45290 1.38938 -0.00038
 H39 H -0.36725 1.54847 -0.00002
 H40 H -0.36715 1.45354 -0.00039
 H41 H -0.63499 1.54857 -0.00015
 H42 H -0.63476 1.45367 0.00046
 H43 H -0.50088 1.68288 -0.00025
 H44 H -0.50074 1.31948 0.00020
 C45 C 0.00028 0.38696 0.45262
 C46 C -0.00020 0.35991 0.50076
 C47 C -0.00062 0.38702 0.54898
 C48 C -0.00032 0.44287 0.54958
 C49 C -0.00007 0.47082 0.50094
 C50 C 0.00011 0.44281 0.45220
 C51 C 0.00010 0.47140 0.40448
 C52 C -0.00013 0.52632 0.40459
 C53 C -0.00015 0.55482 0.45238
 C54 C -0.00000 0.52689 0.50102
 C55 C -0.00025 0.47151 0.59738
 C56 C 0.00011 0.52643 0.59745
 C57 C 0.00021 0.55496 0.54972
 C58 C 0.00051 0.61082 0.54920
 C59 C 0.00013 0.63777 0.50100
 C60 C -0.00032 0.61057 0.45289
 H61 H 0.00019 0.45145 0.36653
 H62 H -0.00019 0.54630 0.36675
 H63 H -0.00038 0.45160 0.63526
 H64 H 0.00023 0.54643 0.63537
 H65 H -0.00025 0.31701 0.50069
 H66 H 0.00017 0.68064 0.50081
 O67 O -0.13598 1.00181 -0.07190
 O68 O 0.13580 0.99810 -0.07146
 O69 O -0.00199 1.07123 -0.13612
 O70 O 0.00174 0.92851 -0.13627
 O71 O 0.00181 0.86396 -0.07186
 O72 O -0.00201 1.13591 -0.07156
 O73 O 0.07122 0.99806 -0.13608
 O74 O -0.07145 1.00171 -0.13630
 Zr75 Zr -0.00010 0.99992 -0.09308
 O76 O 0.04785 0.95199 -0.04799
 O77 O -0.04800 1.04793 -0.04802
 C78 C -0.12011 1.00259 -0.12066
 C79 C 0.11989 0.99723 -0.12027
 C80 C -0.00285 1.11993 -0.12035
 C81 C 0.00261 0.87984 -0.12061
 H82 H 0.06997 1.07007 -0.07019
 O83 O 0.04749 1.04762 -0.04763
 H84 H -0.07016 0.92982 -0.07057
 O85 O -0.04766 0.95231 -0.04789
 O86 O 0.13589 1.00169 0.07184
 O87 O -0.13589 0.99845 0.07145
 O88 O 0.07122 1.13594 0.00203
 O89 O 0.07156 0.86396 -0.00184
 O90 O -0.07136 0.86410 0.00151
 O91 O -0.07166 1.13606 -0.00172
 O92 O 0.00173 1.07145 0.13627
 O93 O -0.00167 0.92877 0.13609
 O94 O 0.00159 1.13603 0.07189
 O95 O -0.00161 0.86410 0.07153
 O96 O 0.13561 1.07130 0.00208
 O97 O -0.13588 1.07153 -0.00193
 O98 O -0.13572 0.92876 0.00151
 O99 O 0.13578 0.92850 -0.00171
 O100 O 0.07139 1.00182 0.13627
 O101 O -0.07130 0.99841 0.13606
 Zr102 Zr 0.09283 0.99993 0.00013
 Zr103 Zr -0.09293 1.00010 -0.00016
 Zr104 Zr -0.00016 1.09306 0.00011
 Zr105 Zr 0.00005 0.90696 -0.00012
 Zr106 Zr 0.00001 1.00008 0.09306
 O107 O -0.04783 0.95217 0.04785
 O108 O 0.04779 1.04793 0.04812
 C109 C 0.12004 1.00258 0.12060
 C110 C -0.11997 0.99763 0.12026
 C111 C 0.11984 1.11998 0.00293
 C112 C 0.12015 0.87984 -0.00261
 C113 C -0.11998 0.88008 0.00231
 C114 C -0.12024 1.12018 -0.00267
 C115 C 0.00248 1.12013 0.12064
 C116 C -0.00245 0.88007 0.12031
 H117 H -0.07024 1.07031 0.07035
 O118 O -0.04771 1.04778 0.04773
 H119 H 0.07022 0.92982 0.07038
 O120 O 0.04767 0.95231 0.04776
 C121 C 0.29862 1.00282 0.32058
 N122 N 0.27598 1.04864 0.30457
 N123 N 0.24245 1.04909 0.26386
 C124 C 0.23052 1.00372 0.23795
 N125 N 0.25324 0.95791 0.25389
 N126 N 0.28677 0.95746 0.29460
 C127 C 0.33244 1.00192 0.36618
 C128 C 0.35966 1.00117 0.40538
 C129 C 0.19253 1.00378 0.19575
 C130 C 0.15981 1.00347 0.16105
 C131 C -0.29733 0.99743 0.32056
 N132 N -0.27507 0.95156 0.30405
 N133 N -0.24187 0.95112 0.26321
 C134 C -0.22991 0.99654 0.23764
 N135 N -0.25226 1.04239 0.25408
 N136 N -0.28546 1.04284 0.29492
 C137 C -0.33083 0.99829 0.36627
 C138 C -0.35782 0.99900 0.40552
 C139 C -0.19220 0.99648 0.19535
 C140 C -0.15965 0.99678 0.16063
 C141 C -0.29725 1.00287 -0.32188
 N142 N -0.28550 0.95752 -0.29595
 N143 N -0.25238 0.95797 -0.25491
 C144 C -0.23000 1.00377 -0.23855
 N145 N -0.24184 1.04914 -0.26441
 N146 N -0.27495 1.04869 -0.30545
 C147 C -0.33070 1.00199 -0.36776
 C148 C -0.35769 1.00126 -0.40713
 C149 C -0.19235 1.00381 -0.19605
 C150 C -0.15982 1.00349 -0.16117
 C151 C 0.29773 0.99696 -0.32013
 N152 N 0.28592 1.04228 -0.29405
 N153 N 0.25258 1.04182 -0.25332
 C154 C 0.23003 0.99603 -0.23747
 N155 N 0.24192 0.95069 -0.26348
 N156 N 0.27526 0.95115 -0.30420
 C157 C 0.33138 0.99787 -0.36571
 C158 C 0.35848 0.99865 -0.40487
 C159 C 0.19220 0.99597 -0.19528
 C160 C 0.15959 0.99630 -0.16062
 C161 C 0.31901 1.29770 0.00330
 N162 N 0.30359 1.27471 0.04914
 N163 N 0.26298 1.24140 0.04962
 C164 C 0.23660 1.23007 0.00426
 N165 N 0.25196 1.25315 -0.04157
 N166 N 0.29256 1.28646 -0.04205
 C167 C 0.36443 1.33133 0.00233
 C168 C 0.40343 1.35843 0.00151
 C169 C 0.19458 1.19227 0.00428
 C170 C 0.16004 1.15967 0.00392
 C171 C 0.32063 0.70279 -0.00290
 N172 N 0.29485 0.71459 0.04261
 N173 N 0.25392 0.74767 0.04216
 C174 C 0.23755 0.76996 -0.00381
 N175 N 0.26326 0.75807 -0.04934
 N176 N 0.30419 0.72498 -0.04889
 C177 C 0.36636 0.66939 -0.00202
 C178 C 0.40558 0.64241 -0.00129
 C179 C 0.19522 0.80760 -0.00385
 C180 C 0.16049 0.84013 -0.00352
 C181 C -0.32039 0.70379 0.00246
 N182 N -0.30355 0.72562 0.04854
 N183 N -0.26261 0.75852 0.04899
 C184 C -0.23728 0.77057 0.00337
 N185 N -0.25405 0.74866 -0.04269
 N186 N -0.29499 0.71575 -0.04315
 C187 C -0.36610 0.67054 0.00162
 C188 C -0.40527 0.64367 0.00092
 C189 C -0.19495 0.80804 0.00344
 C190 C -0.16025 0.84046 0.00315
 C191 C -0.32029 1.29772 -0.00291
 N192 N -0.29418 1.28621 0.04255
 N193 N -0.25337 1.25298 0.04208
 C194 C -0.23746 1.23026 -0.00386
 N195 N -0.26349 1.24185 -0.04934
 N196 N -0.30430 1.27508 -0.04887
 C197 C -0.36590 1.33127 -0.00199
 C198 C -0.40503 1.35835 -0.00121
 C199 C -0.19523 1.19251 -0.00392
 C200 C -0.16056 1.15991 -0.00359
 C201 C 0.00268 1.29724 0.32185
 N202 N -0.04266 1.28562 0.29576
 N203 N -0.04220 1.25251 0.25471
 C204 C 0.00362 1.23000 0.23852
 N205 N 0.04897 1.24170 0.26453
 N206 N 0.04851 1.27481 0.30558
 C207 C 0.00179 1.33067 0.36773
 C208 C 0.00104 1.35764 0.40710
 C209 C 0.00367 1.19235 0.19603
 C210 C 0.00336 1.15982 0.16116
 C211 C -0.00316 1.29724 -0.32067
 N212 N -0.04890 1.27454 -0.30491
 N213 N -0.04937 1.24134 -0.26406
 C214 C -0.00411 1.22983 -0.23776
 N215 N 0.04161 1.25262 -0.25345
 N216 N 0.04208 1.28582 -0.29430
 C217 C -0.00223 1.33074 -0.36636
 C218 C -0.00144 1.35773 -0.40560
 C219 C -0.00414 1.19212 -0.19548
 C220 C -0.00380 1.15958 -0.16075
 C221 C 0.00295 0.70127 -0.32055
 N222 N 0.04871 0.72395 -0.30453
 N223 N 0.04916 0.75748 -0.26382
 C224 C 0.00384 0.76937 -0.23793
 N225 N -0.04190 0.74661 -0.25388
 N226 N -0.04235 0.71308 -0.29459
 C227 C 0.00205 0.66746 -0.36615
 C228 C 0.00129 0.64027 -0.40537
 C229 C 0.00387 0.80736 -0.19575
 C230 C 0.00354 0.84008 -0.16106
 C231 C -0.00267 0.70227 0.32018
 N232 N 0.04272 0.71419 0.29456
 N233 N 0.04228 0.74754 0.25384
 C234 C -0.00355 0.76999 0.23753
 N235 N -0.04896 0.75799 0.26307
 N236 N -0.04851 0.72464 0.30380
 C237 C -0.00181 0.66862 0.36576
 C238 C -0.00108 0.64152 0.40491
 C239 C -0.00361 0.80781 0.19535
 C240 C -0.00331 0.84041 0.16068
   
