data_POSCAR
  _audit_creation_date              2014-09-24
  _audit_creation_method            'ToBaCCo'
  _symmetry_space_group_name_H-M    'P1'
  _symmetry_Int_Tables_number       1
  _symmetry_cell_setting            triclinic
  loop_
  _symmetry_equiv_pos_as_xyz
 x,y,z
_cell_length_a 25.6799
_cell_length_b 25.3768
_cell_length_c 25.4579
_cell_angle_alpha 89.620600
_cell_angle_beta 89.943400
_cell_angle_gamma 90.071700
loop_
  _atom_site_label
  _atom_site_type_symbol
  _atom_site_fract_x
  _atom_site_fract_y
  _atom_site_fract_z
N1 N 0.19558 0.19845 0.19900
 N2 N -0.20605 0.79892 0.20264
 N3 N -0.20764 0.20802 -0.20549
 N4 N 0.19501 0.80800 -0.19506
 N5 N 0.19929 1.20406 0.80065
 N6 N 0.80590 0.81103 0.81183
 N7 N 0.21318 0.78657 1.21878
 N8 N 0.80777 1.18584 1.18586
 N9 N 0.55521 0.94632 0.90842
 N10 N 0.59689 0.94155 0.87844
 N11 N 0.44435 0.90910 0.94267
 N12 N 0.40214 0.87980 0.93821
 N13 N 0.44549 0.94566 0.90595
 N14 N 0.40410 0.94220 0.87554
 N15 N 0.55393 0.90895 0.94430
 N16 N 0.59452 0.87744 0.93947
 C17 C 0.62095 0.89838 0.89832
 C18 C 0.37732 0.90110 0.89627
 N19 N 0.44173 0.94405 1.09243
 N20 N 0.40479 0.93400 1.12725
 N21 N 0.55190 0.90852 1.05727
 N22 N 0.59282 0.87763 1.06279
 N23 N 0.55159 0.94513 1.09350
 N24 N 0.59245 0.94020 1.12457
 N25 N 0.44242 0.90774 1.05592
 N26 N 0.40616 0.87189 1.06509
 Mn27 Mn 0.49807 0.90793 0.99999
 C28 C 0.38295 0.88882 1.10969
 C29 C 0.61790 0.89808 1.10469
 N30 N 0.44479 1.05882 0.90542
 N31 N 0.40690 1.06591 0.87109
 N32 N 0.55220 1.09671 0.94399
 N33 N 0.58880 1.13236 0.93571
 N34 N 0.55416 1.05978 0.90817
 N35 N 0.59240 1.06901 0.87471
 N36 N 0.44279 1.09463 0.94238
 N37 N 0.40319 1.12685 0.93447
 Mn38 Mn 0.50004 1.00255 0.90636
 C39 C 0.38132 1.10836 0.88988
 C40 C 0.61347 1.11442 0.89243
 N41 N 0.55069 1.05872 1.09355
 N42 N 0.59252 1.06254 1.12341
 N43 N 0.44131 1.09418 1.05550
 N44 N 0.40025 1.12497 1.06006
 N45 N 0.44098 1.05743 1.09200
 N46 N 0.39952 1.06209 1.12227
 N47 N 0.55100 1.09538 1.05687
 N48 N 0.59323 1.12484 1.06058
 Mn49 Mn 0.49624 1.00138 1.09356
 Mn50 Mn 0.49675 1.09586 0.99979
 Cl51 Cl 0.49778 1.00194 0.99993
 C52 C 0.61865 1.10392 1.10233
 C53 C 0.37427 1.10421 1.10159
 N54 N 0.05374 0.44649 0.09680
 N55 N 0.06414 0.41060 0.13294
 N56 N 0.08803 0.55840 0.06174
 N57 N 0.12212 0.59586 0.07214
 N58 N 0.05132 0.55687 0.09772
 N59 N 0.05958 0.59323 0.13364
 N60 N 0.09076 0.44803 0.06125
 N61 N 0.12727 0.41313 0.07216
 C62 C 0.11026 0.39027 0.11716
 C63 C 0.10387 0.61723 0.11708
 N64 N 0.05591 0.55870 -0.08892
 N65 N 0.06287 0.59885 -0.12136
 N66 N 0.09287 0.44862 -0.05184
 N67 N 0.12450 0.40790 -0.05646
 N68 N 0.05713 0.44786 -0.08871
 N69 N 0.06325 0.40646 -0.11920
 N70 N 0.09062 0.55947 -0.05114
 N71 N 0.12195 0.60036 -0.05643
 Mn72 Mn 0.09112 0.50368 0.00491
 C73 C 0.10404 0.62442 -0.10034
 C74 C 0.10537 0.38189 -0.09853
 N75 N -0.06084 0.55422 0.09547
 N76 N -0.06958 0.59230 0.12937
 N77 N -0.09441 0.44379 0.05655
 N78 N -0.12324 0.40069 0.05868
 N79 N -0.05880 0.44302 0.09356
 N80 N -0.06256 0.39928 0.12181
 N81 N -0.09565 0.55511 0.05777
 N82 N -0.12890 0.59410 0.06473
 Mn83 Mn -0.00379 0.50007 0.09650
 C84 C -0.11213 0.61673 0.10964
 C85 C -0.10293 0.37314 0.09951
 N86 N -0.05494 0.44681 -0.09163
 N87 N -0.06286 0.40984 -0.12694
 N88 N -0.09309 0.55693 -0.05544
 N89 N -0.12674 0.59533 -0.06390
 N90 N -0.05623 0.55766 -0.09123
 N91 N -0.06376 0.59672 -0.12489
 N92 N -0.09209 0.44627 -0.05621
 N93 N -0.12634 0.40897 -0.06645
 Mn94 Mn 0.00054 0.50273 -0.09076
 Mn95 Mn -0.09441 0.50063 0.00075
 Cl96 Cl -0.00162 0.50176 0.00288
 C97 C -0.10770 0.38673 -0.11082
 C98 C -0.10821 0.61963 -0.10764
 N99 N 1.05049 0.09551 0.55669
 N100 N 1.05851 0.13022 0.59422
 N101 N 1.08783 0.05884 0.44698
 N102 N 1.12008 0.06464 0.40709
 N103 N 1.05198 0.09565 0.44639
 N104 N 1.05910 0.12800 0.40622
 N105 N 1.08683 0.05917 0.55735
 N106 N 1.12064 0.06830 0.59528
 C107 C 1.10264 0.11299 0.61778
 C108 C 1.10166 0.10791 0.38226
 N109 N 1.05252 -0.09095 0.44645
 N110 N 1.06288 -0.12587 0.40959
 N111 N 1.08787 -0.05448 0.55707
 N112 N 1.12405 -0.06491 0.59234
 N113 N 1.05220 -0.09157 0.55680
 N114 N 1.06316 -0.12822 0.59206
 N115 N 1.08849 -0.05408 0.44717
 N116 N 1.12418 -0.06288 0.41102
 Mn117 Mn 1.08821 0.00244 0.50223
 C118 C 1.10776 -0.10773 0.38789
 C119 C 1.10824 -0.11113 0.61373
 N120 N 0.93968 0.09481 0.44452
 N121 N 0.93303 0.12762 0.40461
 N122 N 0.90230 0.05829 0.55477
 N123 N 0.86987 0.06430 0.59448
 N124 N 0.93857 0.09474 0.55531
 N125 N 0.93219 0.12634 0.59575
 N126 N 0.90364 0.05805 0.44441
 N127 N 0.87148 0.06496 0.40451
 Mn128 Mn 0.99513 0.09583 0.50070
 C129 C 0.88995 0.10888 0.38026
 C130 C 0.88926 0.10666 0.61977
 N131 N 0.93959 -0.09137 0.55738
 N132 N 0.93599 -0.12020 0.60068
 N133 N 0.90383 -0.05529 0.44596
 N134 N 0.86944 -0.06422 0.40865
 N135 N 0.93986 -0.09191 0.44635
 N136 N 0.93086 -0.12688 0.40923
 N137 N 0.90316 -0.05504 0.55657
 N138 N 0.87385 -0.05836 0.59913
 Mn139 Mn 0.99592 -0.09212 0.50171
 Mn140 Mn 0.90265 0.00145 0.50037
 Cl141 Cl 0.99552 0.00184 0.50128
 C142 C 0.89479 -0.09910 0.62644
 C143 C 0.88655 -0.10918 0.38628
 C144 C 1.14850 0.17878 0.33627
 C145 C 1.17231 0.20024 0.29200
 C146 C 1.17179 0.17343 0.24407
 C147 C 1.14610 0.12406 0.24061
 C148 C 1.12321 0.10150 0.28613
 C149 C 1.12451 0.12943 0.33400
 C150 C 1.09824 0.05231 0.28179
 N151 N 1.09585 0.02802 0.23459
 N152 N 1.11630 0.04979 0.19153
 C153 C 1.14096 0.09705 0.19285
 H154 H 1.14955 0.20042 0.37281
 H155 H 1.19132 0.23823 0.29487
 H156 H 1.08006 0.03324 0.31521
 H157 H 1.15540 0.11317 0.15641
 C158 C 0.89133 -0.15586 0.30182
 C159 C 0.86904 -0.17803 0.25737
 C160 C 0.81479 -0.18071 0.25142
 C161 C 0.78242 -0.16351 0.29329
 C162 C 0.80521 -0.14075 0.33869
 C163 C 0.86021 -0.13563 0.34204
 C164 C 0.77205 -0.12608 0.38023
 N165 N 0.71993 -0.13317 0.37614
 N166 N 0.69866 -0.15478 0.33382
 C167 C 0.72804 -0.17061 0.29263
 H168 H 0.93338 -0.15301 0.30404
 H169 H 0.89438 -0.19162 0.22627
 H170 H 0.78674 -0.11052 0.41663
 H171 H 0.70850 -0.19031 0.26097
 C172 C 0.81271 0.14106 0.66627
 C173 C 0.78898 0.16515 0.70893
 C174 C 0.81768 0.17786 0.75390
 C175 C 0.87024 0.16124 0.75773
 C176 C 0.89476 0.13764 0.71383
 C177 C 0.86582 0.12899 0.66737
 C178 C 0.94690 0.12135 0.71885
 N179 N 0.97202 0.12724 0.76522
 N180 N 0.94849 0.14806 0.80680
 C181 C 0.89855 0.16512 0.80470
 H182 H 0.78981 0.13345 0.63139
 H183 H 0.74836 0.17622 0.70612
 H184 H 0.96757 0.10272 0.68700
 H185 H 0.88116 0.17965 0.84029
 C186 C 1.10238 -0.15962 0.69691
 C187 C 1.12296 -0.17792 0.74387
 C188 C 1.17681 -0.17756 0.75288
 C189 C 1.21059 -0.16197 0.71118
 C190 C 1.18915 -0.14039 0.66424
 C191 C 1.13431 -0.13757 0.65829
 C192 C 1.22345 -0.12485 0.62385
 N193 N 1.27548 -0.13128 0.62987
 N194 N 1.29546 -0.15289 0.67312
 C195 C 1.26487 -0.16897 0.71359
 H196 H 1.06079 -0.16062 0.69144
 H197 H 1.09633 -0.19106 0.77426
 H198 H 1.20963 -0.10931 0.58685
 H199 H 1.28339 -0.18882 0.74604
 C200 C 0.32014 1.12592 1.17812
 C201 C 0.27701 1.14856 1.20186
 C202 C 0.23748 1.17192 1.17180
 C203 C 0.24027 1.16932 1.11613
 C204 C 0.28466 1.14660 1.09181
 C205 C 0.32549 1.12593 1.12342
 C206 C 0.28541 1.14351 1.03661
 N207 N 0.24484 1.16227 1.00811
 N208 N 0.20307 1.18297 1.03092
 C209 C 0.19915 1.18660 1.08382
 H210 H 0.35050 1.10973 1.20294
 H211 H 0.27528 1.14957 1.24434
 H212 H 0.31689 1.12515 1.01559
 H213 H 0.16315 1.20130 1.09973
 C214 C 0.32145 0.82587 0.87457
 C215 C 0.27746 0.80319 0.85264
 C216 C 0.23809 0.83436 0.83042
 C217 C 0.24211 0.89015 0.83338
 C218 C 0.28726 0.91341 0.85576
 C219 C 0.32781 0.88060 0.87515
 C220 C 0.28904 0.96874 0.85989
 N221 N 0.24878 0.99838 0.84214
 N222 N 0.20648 0.97656 0.82137
 C223 C 0.20156 0.92361 0.81683
 H224 H 0.35163 0.80020 0.88983
 H225 H 0.27489 0.76063 0.85127
 H226 H 0.32110 0.98892 0.87827
 H227 H 0.16528 0.90847 0.80191
 C228 C 0.66804 0.82061 1.13298
 C229 C 0.71085 0.79645 1.15606
 C230 C 0.75343 0.82610 1.17362
 C231 C 0.75411 0.88136 1.16396
 C232 C 0.70981 0.90624 1.14133
 C233 C 0.66603 0.87539 1.12693
 C234 C 0.71185 0.96097 1.13193
 N235 N 0.75536 0.98856 1.14416
 N236 N 0.79718 0.96510 1.16436
 C237 C 0.79823 0.91253 1.17416
 H238 H 0.63531 0.79635 1.12136
 H239 H 0.70991 0.75421 1.16237
 H240 H 0.67999 0.98205 1.11390
 H241 H 0.83415 0.89567 1.18812
 C242 C 0.70429 1.11264 0.86263
 C243 C 0.74780 1.13508 0.83889
 C244 C 0.74597 1.18638 0.81833
 C245 C 0.69891 1.21536 0.82139
 C246 C 0.65487 1.19279 0.84664
 C247 C 0.65797 1.14097 0.86731
 C248 C 0.60858 1.22230 0.84856
 N249 N 0.60678 1.27099 0.82639
 N250 N 0.64791 1.29186 0.80206
 C251 C 0.69373 1.26563 0.79851
 H252 H 0.70686 1.07306 0.87822
 H253 H 0.78347 1.11245 0.83679
 H254 H 0.57363 1.20700 0.86680
 H255 H 0.72515 1.28401 0.77705
 C256 C 0.10361 0.30663 0.16498
 C257 C 0.12386 0.25970 0.18392
 C258 C 0.17768 0.25062 0.18431
 C259 C 0.21177 0.29216 0.16894
 C260 C 0.19078 0.33935 0.14724
 C261 C 0.13598 0.34539 0.14355
 C262 C 0.22548 0.37976 0.13235
 N263 N 0.27742 0.37336 0.13923
 N264 N 0.29696 0.32971 0.16067
 C265 C 0.26597 0.28925 0.17625
 H266 H 0.06193 0.31187 0.16505
 H267 H 0.09703 0.22927 0.19674
 H268 H 0.21207 0.41704 0.11694
 H269 H 0.28408 0.25631 0.19583
 C270 C -0.15517 0.30264 -0.10684
 C271 C -0.17986 0.25969 -0.12944
 C272 C -0.18408 0.25519 -0.18415
 C273 C -0.16529 0.29694 -0.21655
 C274 C -0.13973 0.34077 -0.19344
 C275 C -0.13384 0.34283 -0.13804
 C276 C -0.12328 0.38222 -0.22666
 N277 N -0.13159 0.37959 -0.27911
 N278 N -0.15603 0.33887 -0.30062
 C279 C -0.17357 0.29787 -0.27117
 H280 H -0.15179 0.30396 -0.06443
 H281 H -0.19454 0.22869 -0.10398
 H282 H -0.10520 0.41743 -0.21178
 H283 H -0.19544 0.26771 -0.29079
 C284 C 0.14798 0.67046 -0.17300
 C285 C 0.17058 0.71485 -0.19581
 C286 C 0.17128 0.76308 -0.16935
 C287 C 0.14797 0.76669 -0.11895
 C288 C 0.12640 0.72102 -0.09504
 C289 C 0.12657 0.67278 -0.12259
 C290 C 0.10370 0.72567 -0.04494
 N291 N 0.10226 0.77320 -0.02099
 N292 N 0.12150 0.81632 -0.04393
 C293 C 0.14390 0.81477 -0.09215
 H294 H 0.14799 0.63375 -0.19450
 H295 H 0.18787 0.71175 -0.23448
 H296 H 0.08649 0.69226 -0.02485
 H297 H 0.15732 0.85129 -0.10922
 C298 C -0.14145 0.70918 0.10671
 C299 C -0.16383 0.75353 0.12941
 C300 C -0.18425 0.75148 0.18048
 C301 C -0.18329 0.70304 0.20864
 C302 C -0.15921 0.65828 0.18607
 C303 C -0.13790 0.66178 0.13484
 C304 C -0.15895 0.61081 0.21498
 N305 N -0.18182 0.60851 0.26295
 N306 N -0.20530 0.65023 0.28369
 C307 C -0.20714 0.69720 0.25807
 H308 H -0.12571 0.71219 0.06728
 H309 H -0.16483 0.79009 0.10726
 H310 H -0.14160 0.57530 0.19970
 H311 H -0.22816 0.72892 0.27623
 C312 C 1.14912 0.10730 0.70238
 C313 C 1.17264 0.12908 0.74640
 C314 C 1.17637 0.18388 0.75264
 C315 C 1.15791 0.21729 0.71158
 C316 C 1.13368 0.19498 0.66658
 C317 C 1.12837 0.13937 0.66268
 C318 C 1.11787 0.22928 0.62586
 N319 N 1.12518 0.28193 0.63031
 N320 N 1.14808 0.30270 0.67218
 C321 C 1.16508 0.27228 0.71255
 H322 H 1.14613 0.06479 0.69988
 H323 H 1.18689 0.10279 0.77680
 H324 H 1.10111 0.21515 0.58982
 H325 H 1.18561 0.29157 0.74378
 C326 C 0.82054 -0.11803 0.68574
 C327 C 0.79861 -0.13892 0.73142
 C328 C 0.82971 -0.16270 0.77050
 C329 C 0.88493 -0.15867 0.76550
 C330 C 0.90715 -0.13559 0.71951
 C331 C 0.87451 -0.11813 0.67795
 C332 C 0.96130 -0.12752 0.71829
 N333 N 0.99103 -0.14192 0.75989
 N334 N 0.97046 -0.16366 0.80278
 C335 C 0.91860 -0.17222 0.80715
 H336 H 0.79482 -0.10317 0.65537
 H337 H 0.75655 -0.13996 0.73451
 H338 H 0.98028 -0.10793 0.68573
 H339 H 0.90435 -0.18681 0.84431
 C340 C 1.10976 -0.14973 0.30069
 C341 C 1.13530 -0.17445 0.25932
 C342 C 1.18868 -0.18602 0.26209
 C343 C 1.21664 -0.17249 0.30819
 C344 C 1.19071 -0.14679 0.35018
 C345 C 1.13683 -0.13501 0.34595
 C346 C 1.21931 -0.13595 0.39606
 N347 N 1.27024 -0.14951 0.39922
 N348 N 1.29439 -0.17382 0.36002
 C349 C 1.26931 -0.18613 0.31492
 H350 H 1.06857 -0.14126 0.29699
 H351 H 1.11321 -0.18461 0.22462
 H352 H 1.20171 -0.11795 0.43000
 H353 H 1.29064 -0.20757 0.28558
 C354 C 0.84801 0.09731 0.29389
 C355 C 0.82714 0.11581 0.24687
 C356 C 0.82393 0.17015 0.23554
 C357 C 0.83848 0.20631 0.27590
 C358 C 0.86075 0.18716 0.32367
 C359 C 0.86658 0.13206 0.33199
 C360 C 0.87361 0.22394 0.36283
 N361 N 0.86406 0.27588 0.35516
 N362 N 0.84147 0.29358 0.31154
 C363 C 0.82762 0.26067 0.27228
 H364 H 0.85112 0.05510 0.29986
 H365 H 0.81576 0.08715 0.21767
 H366 H 0.88953 0.21224 0.40026
 H367 H 0.80620 0.27744 0.23998
 C368 C 0.18169 0.33192 -0.12957
 C369 C 0.20461 0.28859 -0.15363
 C370 C 0.17469 0.24485 -0.16849
 C371 C 0.12136 0.24303 -0.15408
 C372 C 0.09773 0.28759 -0.13042
 C373 C 0.12809 0.33295 -0.11968
 C374 C 0.04481 0.28431 -0.11633
 N375 N 0.01798 0.23909 -0.12452
 N376 N 0.04053 0.19700 -0.14555
 C377 C 0.09119 0.19735 -0.16045
 H378 H 0.20569 0.36582 -0.12057
 H379 H 0.24569 0.29015 -0.16316
 H380 H 0.02477 0.31652 -0.09757
 H381 H 0.10760 0.16133 -0.17534
 C382 C -0.17711 0.31293 0.11621
 C383 C -0.19919 0.26678 0.13615
 C384 C -0.16828 0.22745 0.15996
 C385 C -0.11304 0.23277 0.15683
 C386 C -0.09063 0.27946 0.13514
 C387 C -0.12320 0.32112 0.11754
 C388 C -0.03627 0.28136 0.12871
 N389 N -0.00655 0.23966 0.14319
 N390 N -0.02736 0.19597 0.16328
 C391 C -0.07941 0.19094 0.17018
 H392 H -0.20272 0.34341 0.10124
 H393 H -0.24124 0.26355 0.13652
 H394 H -0.01706 0.31457 0.11040
 H395 H -0.09382 0.15325 0.18349
 C396 C -0.15400 0.70427 -0.09816
 C397 C -0.17599 0.75046 -0.11754
 C398 C -0.17778 0.76151 -0.17186
 C399 C -0.16081 0.72134 -0.20717
 C400 C -0.13745 0.67440 -0.18707
 C401 C -0.13290 0.66668 -0.13195
 C402 C -0.12211 0.63538 -0.22303
 N403 N -0.13036 0.64242 -0.27512
 N404 N -0.15389 0.68525 -0.29377
 C405 C -0.17009 0.72433 -0.26169
 H406 H -0.15190 0.69871 -0.05596
 H407 H -0.18905 0.77945 -0.08942
 H408 H -0.10523 0.59851 -0.21058
 H409 H -0.19202 0.75593 -0.27927
 C410 C 0.14726 0.70399 0.11700
 C411 C 0.17389 0.74500 0.14127
 C412 C 0.18600 0.74269 0.19494
 C413 C 0.17131 0.69732 0.22446
 C414 C 0.14353 0.65579 0.19988
 C415 C 0.13108 0.65962 0.14570
 C416 C 0.13134 0.61071 0.23008
 N417 N 0.14571 0.60786 0.28123
 N418 N 0.17206 0.64659 0.30409
 C419 C 0.18568 0.69090 0.27742
 H420 H 0.13864 0.70720 0.07545
 H421 H 0.18484 0.77916 0.11805
 H422 H 0.11155 0.57715 0.21362
 H423 H 0.20879 0.71978 0.29766
 C424 C 0.28738 1.12788 0.88957
 C425 C 0.24320 1.15163 0.86834
 C426 C 0.24603 1.18005 0.82108
 C427 C 0.29445 1.18466 0.79476
 C428 C 0.33941 1.16044 0.81638
 C429 C 0.33562 1.13229 0.86439
 C430 C 0.38703 1.16635 0.78965
 N431 N 0.38915 1.19478 0.74441
 N432 N 0.34701 1.21788 0.72437
 C433 C 0.29984 1.21398 0.74809
 H434 H 0.28388 1.10541 0.92567
 H435 H 0.20628 1.14759 0.88858
 H436 H 0.42259 1.14896 0.80441
 H437 H 0.26731 1.23428 0.73052
 C438 C 0.29680 0.88901 1.15313
 C439 C 0.25555 0.86450 1.17932
 C440 C 0.25702 0.81052 1.19154
 C441 C 0.30188 0.78101 1.17756
 C442 C 0.34364 0.80584 1.15021
 C443 C 0.34064 0.86030 1.13751
 C444 C 0.38811 0.77557 1.13870
 N445 N 0.39025 0.72417 1.15331
 N446 N 0.35136 0.70110 1.17928
 C447 C 0.30758 0.72779 1.19225
 H448 H 0.29411 0.93075 1.14427
 H449 H 0.22187 0.88780 1.18984
 H450 H 0.42175 0.79220 1.11931
 H451 H 0.27850 0.70732 1.21508
 C452 C 0.67446 1.13238 1.17541
 C453 C 0.72062 1.15197 1.19614
 C454 C 0.76434 1.16207 1.16405
 C455 C 0.76128 1.14811 1.10976
 C456 C 0.71347 1.12943 1.08851
 C457 C 0.66960 1.12263 1.12172
 C458 C 0.71198 1.11560 1.03502
 N459 N 0.75559 1.11918 1.00523
 N460 N 0.80076 1.13477 1.02543
 C461 C 0.80526 1.14856 1.07657
 H462 H 0.64153 1.12640 1.20144
 H463 H 0.72142 1.16149 1.23754
 H464 H 0.67712 1.10062 1.01671
 H465 H 0.84363 1.15788 1.09084
 C466 C 0.67257 0.82435 0.86392
 C467 C 0.71781 0.80273 0.84303
 C468 C 0.76308 0.83335 0.83585
 C469 C 0.76288 0.88645 0.85404
 C470 C 0.71638 0.90848 0.87477
 C471 C 0.67071 0.87733 0.87840
 C472 C 0.71791 0.96034 0.89396
 N473 N 0.76319 0.98778 0.89334
 N474 N 0.80706 0.96685 0.87521
 C475 C 0.80857 0.91718 0.85609
 H476 H 0.63819 0.79978 0.86752
 H477 H 0.71692 0.76206 0.83038
 H478 H 0.68402 0.97895 0.91080
 H479 H 0.84594 0.90190 0.84471
   
