data_POSCAR
  _audit_creation_date              2014-09-24
  _audit_creation_method            'ToBaCCo'
  _symmetry_space_group_name_H-M    'P1'
  _symmetry_Int_Tables_number       1
  _symmetry_cell_setting            triclinic
  loop_
  _symmetry_equiv_pos_as_xyz
 x,y,z
_cell_length_a 28.9200
_cell_length_b 28.9426
_cell_length_c 55.4747
_cell_angle_alpha 89.996100
_cell_angle_beta 90.002300
_cell_angle_gamma 119.923300
loop_
  _atom_site_label
  _atom_site_type_symbol
  _atom_site_fract_x
  _atom_site_fract_y
  _atom_site_fract_z
Zn1 Zn 0.96492 0.03394 1.01079
 Zn2 Zn 1.06903 0.03503 1.01077
 Zn3 Zn 0.96618 -0.06890 1.01077
 Zn4 Zn 1.00003 0.00005 0.96685
 O5 O 1.00004 0.00003 0.99981
 O6 O 1.00635 0.09085 1.02909
 O7 O 1.08459 -0.00643 1.02906
 O8 O 0.90921 -0.08438 1.02907
 O9 O 1.08345 0.09173 1.02905
 O10 O 0.90819 -0.00830 1.02906
 O11 O 1.00849 -0.08341 1.02902
 O12 O 0.96750 -0.06570 0.95433
 O13 O 1.11720 0.05938 0.98686
 O14 O 0.94238 -0.11703 0.98685
 O15 O 1.06583 0.03324 0.95434
 O16 O 0.96674 0.03263 0.95435
 O17 O 0.94050 0.05777 0.98688
 C18 C 1.05467 0.11117 1.03555
 C19 C 1.05667 -0.05470 1.03551
 C20 C 0.88881 -0.05645 1.03554
 C21 C 0.94505 -0.11131 0.96415
 C22 C 1.11147 0.05636 0.96415
 C23 C 0.94354 0.05510 0.96418
 Zn24 Zn 0.03428 0.96519 0.51075
 Zn25 Zn -0.06895 0.96584 0.51077
 Zn26 Zn 0.03478 1.06892 0.51078
 Zn27 Zn 0.00001 1.00003 0.46684
 O28 O 0.00003 1.00000 0.49981
 O29 O -0.00772 0.90853 0.52906
 O30 O -0.08369 1.00789 0.52907
 O31 O 0.09153 1.08353 0.52908
 O32 O -0.08418 0.90892 0.52905
 O33 O 0.09127 1.00680 0.52900
 O34 O -0.00694 1.08423 0.52905
 O35 O 0.03339 1.06580 0.45435
 O36 O -0.11715 0.94209 0.48687
 O37 O 0.05919 1.11709 0.48688
 O38 O -0.06580 0.96769 0.45434
 O39 O 0.03243 0.96661 0.45432
 O40 O 0.05801 0.94074 0.48682
 C41 C -0.05594 0.88886 0.53554
 C42 C -0.05521 1.05608 0.53554
 C43 C 0.11130 1.05500 0.53551
 C44 C 0.05644 1.11139 0.46417
 C45 C -0.11144 0.94509 0.46416
 C46 C 0.05502 0.94351 0.46412
 O47 O 0.25295 0.57372 0.27020
 O48 O 0.25505 0.66380 0.27749
 C49 C 0.28031 0.71327 0.28191
 O50 O 0.32119 0.74659 0.27020
 O51 O 0.40916 0.74435 0.27750
 C52 C 0.43341 0.71906 0.28192
 O53 O 0.42594 0.67820 0.27021
 O54 O 0.33584 0.59034 0.27750
 C55 C 0.28634 0.56618 0.28191
 O56 O 0.25515 0.59036 0.22223
 O57 O 0.25282 0.67825 0.22953
 C58 C 0.28614 0.71914 0.21783
 O59 O 0.33565 0.74440 0.22224
 O60 O 0.42586 0.74659 0.22954
 C61 C 0.43350 0.71327 0.21784
 O62 O 0.40933 0.66379 0.22224
 O63 O 0.32143 0.57371 0.22953
 C64 C 0.28049 0.56614 0.21783
 Cr65 Cr 0.25700 0.62803 0.24986
 Cr66 Cr 0.37147 0.74248 0.24987
 Cr67 Cr 0.37163 0.62801 0.24987
 O68 O 0.33336 0.66617 0.24986
 O69 O 0.74510 0.40929 0.77756
 O70 O 0.74696 0.32122 0.77015
 C71 C 0.71347 0.28035 0.78181
 O72 O 0.66397 0.25531 0.77738
 O73 O 0.57400 0.25362 0.77015
 C74 C 0.56665 0.28703 0.78193
 O75 O 0.59104 0.33653 0.77759
 O76 O 0.67912 0.42643 0.77035
 C77 C 0.71998 0.43370 0.78202
 O78 O 0.74736 0.42626 0.72961
 O79 O 0.74483 0.33599 0.72220
 C80 C 0.71944 0.28655 0.71775
 O81 O 0.67843 0.25328 0.72941
 O82 O 0.59068 0.25605 0.72217
 C83 C 0.56656 0.28150 0.71785
 O84 O 0.57426 0.32237 0.72962
 O85 O 0.66457 0.41003 0.72238
 C86 C 0.71408 0.43408 0.71796
 Cr87 Cr 0.74306 0.37171 0.74988
 Cr88 Cr 0.62828 0.25756 0.74978
 Cr89 Cr 0.62874 0.37233 0.74998
 O90 O 0.66670 0.33387 0.74988
 C91 C 0.07723 0.15713 0.05092
 C92 C 0.09594 0.19532 0.06412
 C93 C 0.11797 0.24036 0.08019
 C94 C 0.08409 0.25038 0.09450
 C95 C 0.10539 0.29313 0.11066
 C96 C 0.16097 0.32645 0.11275
 C97 C 0.19469 0.31631 0.09812
 C98 C 0.17329 0.27354 0.08195
 C99 C 0.18361 0.37083 0.13047
 C100 C 0.22871 0.38134 0.14423
 C101 C 0.24905 0.42204 0.16144
 C102 C 0.22470 0.45284 0.16511
 C103 C 0.18015 0.44308 0.15137
 C104 C 0.15971 0.40236 0.13415
 C105 C 0.24467 0.49351 0.18341
 C106 C 0.26115 0.52700 0.19899
 H107 H 0.04121 0.22479 0.09336
 H108 H 0.07840 0.29941 0.12190
 H109 H 0.23760 0.34162 0.09909
 H110 H 0.19988 0.26618 0.07093
 H111 H 0.24755 0.35733 0.14207
 H112 H 0.28341 0.42910 0.17207
 H113 H 0.16103 0.46672 0.15405
 H114 H 0.12537 0.39569 0.12364
 C115 C 0.84281 0.92013 0.05092
 C116 C 0.80459 0.90060 0.06412
 C117 C 0.75952 0.87748 0.08018
 C118 C 0.74931 0.83326 0.09426
 C119 C 0.70652 0.81168 0.11042
 C120 C 0.67337 0.83414 0.11275
 C121 C 0.68369 0.87833 0.09835
 C122 C 0.72650 0.89983 0.08219
 C123 C 0.62896 0.81224 0.13048
 C124 C 0.61865 0.84665 0.14448
 C125 C 0.57792 0.82614 0.16169
 C126 C 0.54690 0.77103 0.16513
 C127 C 0.55647 0.73642 0.15115
 C128 C 0.59722 0.75685 0.13392
 C129 C 0.50619 0.75017 0.18342
 C130 C 0.47267 0.73309 0.19900
 H131 H 0.77477 0.81580 0.09293
 H132 H 0.70009 0.77814 0.12147
 H133 H 0.65851 0.89609 0.09951
 H134 H 0.73401 0.93403 0.07135
 H135 H 0.64283 0.88947 0.14250
 H136 H 0.57101 0.85330 0.17250
 H137 H 0.53266 0.69368 0.15365
 H138 H 0.60373 0.72932 0.12323
 C139 C 0.08011 0.92267 0.05088
 C140 C 0.09960 0.90390 0.06406
 C141 C 0.12260 0.88176 0.08011
 C142 C 0.09938 0.82645 0.08248
 C143 C 0.12074 0.80498 0.09865
 C144 C 0.16567 0.83863 0.11269
 C145 C 0.18902 0.89419 0.10999
 C146 C 0.16757 0.91556 0.09383
 C147 C 0.18743 0.81598 0.13044
 C148 C 0.24287 0.83867 0.13354
 C149 C 0.26319 0.81824 0.15077
 C150 C 0.22843 0.77491 0.16511
 C151 C 0.17326 0.75177 0.16202
 C152 C 0.15285 0.77210 0.14480
 C153 C 0.24924 0.75498 0.18341
 C154 C 0.26630 0.73850 0.19899
 H155 H 0.06458 0.79992 0.07192
 H156 H 0.10227 0.76207 0.10009
 H157 H 0.22316 0.92115 0.12077
 H158 H 0.18572 0.95844 0.09222
 H159 H 0.27051 0.87205 0.12256
 H160 H 0.30598 0.83643 0.15300
 H161 H 0.14599 0.71837 0.17311
 H162 H 0.11000 0.75422 0.14309
 C163 C 0.92098 0.84293 0.55095
 C164 C 0.90191 0.80479 0.56417
 C165 C 0.87950 0.75981 0.58028
 C166 C 0.82412 0.72725 0.58215
 C167 C 0.80238 0.68454 0.59835
 C168 C 0.83582 0.67386 0.61291
 C169 C 0.89146 0.70657 0.61072
 C170 C 0.91310 0.74926 0.59452
 C171 C 0.81285 0.62954 0.63066
 C172 C 0.83610 0.59740 0.63427
 C173 C 0.81533 0.55671 0.65150
 C174 C 0.77109 0.54758 0.66533
 C175 C 0.74739 0.57899 0.66173
 C176 C 0.76806 0.61967 0.64451
 C177 C 0.75074 0.50687 0.68361
 C178 C 0.73390 0.47332 0.69917
 H179 H 0.79774 0.73503 0.57119
 H180 H 0.75942 0.65970 0.59940
 H181 H 0.91825 0.69986 0.62190
 H182 H 0.95603 0.77437 0.59329
 H183 H 0.87019 0.60357 0.62369
 H184 H 0.83395 0.53258 0.65412
 H185 H 0.71327 0.57242 0.67242
 H186 H 0.74971 0.64415 0.64240
 C187 C 0.15732 0.07775 0.55088
 C188 C 0.19555 0.09666 0.56407
 C189 C 0.24064 0.11897 0.58013
 C190 C 0.25315 0.08533 0.59323
 C191 C 0.29591 0.10681 0.60941
 C192 C 0.32672 0.16232 0.61273
 C193 C 0.31411 0.19583 0.59931
 C194 C 0.27134 0.17425 0.58312
 C195 C 0.37106 0.18502 0.63050
 C196 C 0.37902 0.22763 0.64547
 C197 C 0.41973 0.24797 0.66269
 C198 C 0.45307 0.22612 0.66517
 C199 C 0.44584 0.18407 0.65022
 C200 C 0.40512 0.16363 0.63299
 C201 C 0.49380 0.24600 0.68345
 C202 C 0.52735 0.26237 0.69903
 H203 H 0.22949 0.04246 0.59114
 H204 H 0.30412 0.07993 0.61971
 H205 H 0.33747 0.23872 0.60124
 H206 H 0.26203 0.20066 0.57305
 H207 H 0.35304 0.24447 0.64423
 H208 H 0.42482 0.28037 0.67425
 H209 H 0.47147 0.16688 0.65198
 H210 H 0.40043 0.13127 0.62154
 C211 C 0.92189 0.07922 0.55091
 C212 C 0.90276 0.09834 0.56410
 C213 C 0.88011 0.12080 0.58017
 C214 C 0.83637 0.08731 0.59461
 C215 C 0.81524 0.10901 0.61076
 C216 C 0.83767 0.16462 0.61271
 C217 C 0.88137 0.19794 0.59796
 C218 C 0.90242 0.17613 0.58180
 C219 C 0.81624 0.18767 0.63042
 C220 C 0.85105 0.23283 0.64404
 C221 C 0.83100 0.25357 0.66124
 C222 C 0.77595 0.22956 0.66504
 C223 C 0.74095 0.18496 0.65142
 C224 C 0.76091 0.16412 0.63421
 C225 C 0.75557 0.24993 0.68333
 C226 C 0.73886 0.26677 0.69891
 H227 H 0.81894 0.04442 0.59357
 H228 H 0.78208 0.08232 0.62210
 H229 H 0.89909 0.24085 0.59882
 H230 H 0.93625 0.20243 0.57069
 H231 H 0.89384 0.25142 0.64179
 H232 H 0.85847 0.28796 0.67177
 H233 H 0.69825 0.16609 0.65420
 H234 H 0.73307 0.12974 0.62381
 C235 C 0.15789 0.07969 0.94903
 C236 C 0.19636 0.09896 0.93599
 C237 C 0.24162 0.12158 0.92003
 C238 C 0.27316 0.17695 0.91771
 C239 C 0.31595 0.19885 0.90153
 C240 C 0.32772 0.16557 0.88745
 C241 C 0.29609 0.10996 0.89012
 C242 C 0.25332 0.08817 0.90628
 C243 C 0.37197 0.18864 0.86965
 C244 C 0.40519 0.16648 0.86645
 C245 C 0.44574 0.18724 0.84914
 C246 C 0.45363 0.23038 0.83481
 C247 C 0.42114 0.25302 0.83800
 C248 C 0.38060 0.23236 0.85530
 C249 C 0.49417 0.25064 0.81644
 C250 C 0.52757 0.26737 0.80081
 H251 H 0.26447 0.20319 0.92827
 H252 H 0.33995 0.24180 0.90011
 H253 H 0.30364 0.08328 0.87930
 H254 H 0.22899 0.04524 0.90785
 H255 H 0.39997 0.13325 0.87741
 H256 H 0.47072 0.16945 0.84684
 H257 H 0.42675 0.28627 0.82693
 H258 H 0.35526 0.24983 0.85708
 C259 C 0.92199 0.84230 0.94903
 C260 C 0.90281 0.80385 0.93600
 C261 C 0.88017 0.75859 0.92006
 C262 C 0.83452 0.74644 0.90663
 C263 C 0.81351 0.70367 0.89049
 C264 C 0.83798 0.67247 0.88753
 C265 C 0.88356 0.68468 0.90129
 C266 C 0.90449 0.72748 0.91745
 C267 C 0.81675 0.62822 0.86974
 C268 C 0.85172 0.61998 0.85509
 C269 C 0.83176 0.57945 0.83780
 C270 C 0.77666 0.54657 0.83493
 C271 C 0.74152 0.55406 0.84956
 C272 C 0.76139 0.59461 0.86686
 C273 C 0.75627 0.50607 0.81656
 C274 C 0.73951 0.47271 0.80092
 H275 H 0.81553 0.77043 0.90843
 H276 H 0.77884 0.69576 0.87992
 H277 H 0.90290 0.66102 0.89964
 H278 H 0.93982 0.73651 0.92777
 H279 H 0.89449 0.64563 0.85663
 H280 H 0.85931 0.57415 0.82649
 H281 H 0.69878 0.52879 0.84750
 H282 H 0.73347 0.59952 0.87805
 C283 C 0.92014 0.07816 0.94907
 C284 C 0.90080 0.09732 0.93602
 C285 C 0.87809 0.11990 0.92005
 C286 C 0.91139 0.16679 0.90740
 C287 C 0.88961 0.18775 0.89119
 C288 C 0.83414 0.16199 0.88740
 C289 C 0.80095 0.11515 0.90040
 C290 C 0.82282 0.09428 0.91661
 C291 C 0.81120 0.18321 0.86953
 C292 C 0.76968 0.14838 0.85412
 C293 C 0.74917 0.16839 0.83680
 C294 C 0.76977 0.22340 0.83463
 C295 C 0.81072 0.25837 0.85001
 C296 C 0.83133 0.23845 0.86735
 C297 C 0.74967 0.24389 0.81628
 C298 C 0.73304 0.26073 0.80066
 H299 H 0.95425 0.18680 0.90984
 H300 H 0.91628 0.22343 0.88123
 H301 H 0.75807 0.09478 0.89810
 H302 H 0.79667 0.05797 0.92633
 H303 H 0.75384 0.10573 0.85511
 H304 H 0.71763 0.14097 0.82491
 H305 H 0.82692 0.30103 0.84851
 H306 H 0.86282 0.26622 0.87913
 C307 C 0.84214 0.92230 0.44905
 C308 C 0.80366 0.90345 0.43601
 C309 C 0.75839 0.88129 0.42006
 C310 C 0.74719 0.91509 0.40632
 C311 C 0.70441 0.89372 0.39016
 C312 C 0.67227 0.83816 0.38748
 C313 C 0.68354 0.80451 0.40156
 C314 C 0.72633 0.82598 0.41773
 C315 C 0.62802 0.81552 0.36967
 C316 C 0.61889 0.77166 0.35533
 C317 C 0.57835 0.75139 0.33802
 C318 C 0.54635 0.77458 0.33483
 C319 C 0.55473 0.81788 0.34917
 C320 C 0.59528 0.83824 0.36648
 C321 C 0.50584 0.75473 0.31646
 C322 C 0.47246 0.73832 0.30081
 H323 H 0.77192 0.95797 0.40789
 H324 H 0.69725 0.92068 0.37935
 H325 H 0.65914 0.76160 0.40013
 H326 H 0.73463 0.79945 0.42829
 H327 H 0.64385 0.75376 0.35711
 H328 H 0.57237 0.71801 0.32694
 H329 H 0.53015 0.83609 0.34686
 H330 H 0.60089 0.87161 0.37744
 C331 C 0.08011 0.15779 0.44906
 C332 C 0.09980 0.19624 0.43603
 C333 C 0.12302 0.24147 0.42007
 C334 C 0.10006 0.27389 0.41780
 C335 C 0.12149 0.31665 0.40163
 C336 C 0.16622 0.32753 0.38749
 C337 C 0.18934 0.29503 0.39011
 C338 C 0.16782 0.25228 0.40628
 C339 C 0.18794 0.37176 0.36969
 C340 C 0.24337 0.40407 0.36643
 C341 C 0.26365 0.44458 0.34911
 C342 C 0.22885 0.45334 0.33484
 C343 C 0.17369 0.42176 0.33809
 C344 C 0.15333 0.38127 0.35540
 C345 C 0.24959 0.49382 0.31646
 C346 C 0.26659 0.52717 0.30081
 H347 H 0.06538 0.26589 0.42841
 H348 H 0.10321 0.34133 0.40025
 H349 H 0.22331 0.30189 0.37926
 H350 H 0.18575 0.22728 0.40780
 H351 H 0.27104 0.39817 0.37735
 H352 H 0.30642 0.46885 0.34676
 H353 H 0.14639 0.42805 0.32706
 H354 H 0.11049 0.35663 0.35723
 C355 C 0.07775 0.91980 0.44899
 C356 C 0.09651 0.90008 0.43594
 C357 C 0.11853 0.87682 0.41998
 C358 C 0.08460 0.83248 0.40597
 C359 C 0.10585 0.81091 0.38981
 C360 C 0.16144 0.83352 0.38742
 C361 C 0.19522 0.87778 0.40177
 C362 C 0.17386 0.89927 0.41794
 C363 C 0.18399 0.81174 0.36963
 C364 C 0.22848 0.84627 0.35556
 C365 C 0.24868 0.82588 0.33827
 C366 C 0.22479 0.77078 0.33481
 C367 C 0.18086 0.73607 0.34887
 C368 C 0.16056 0.75637 0.36617
 C369 C 0.24460 0.75004 0.31644
 C370 C 0.26100 0.73304 0.30080
 H371 H 0.04170 0.81495 0.40732
 H372 H 0.07880 0.77731 0.37879
 H373 H 0.23814 0.89566 0.40056
 H374 H 0.20049 0.93358 0.42871
 H375 H 0.24694 0.88908 0.35755
 H376 H 0.28256 0.85312 0.32740
 H377 H 0.16210 0.69334 0.34636
 H378 H 0.12669 0.72876 0.37692
   
