data_POSCAR
  _audit_creation_date              2014-09-24
  _audit_creation_method            'ToBaCCo'
  _symmetry_space_group_name_H-M    'P1'
  _symmetry_Int_Tables_number       1
  _symmetry_cell_setting            triclinic
  loop_
  _symmetry_equiv_pos_as_xyz
 x,y,z
_cell_length_a 16.4180
_cell_length_b 19.5273
_cell_length_c 9.3802
_cell_angle_alpha 89.923100
_cell_angle_beta 90.040700
_cell_angle_gamma 90.011800
loop_
  _atom_site_label
  _atom_site_type_symbol
  _atom_site_fract_x
  _atom_site_fract_y
  _atom_site_fract_z
C1 C 0.70362 0.29367 0.58781
 C2 C 0.70416 0.30351 0.43650
 C3 C 0.75467 0.26018 0.35542
 C4 C 0.79930 0.20516 0.41405
 C5 C 0.80047 0.19634 0.56629
 C6 C 0.74926 0.23970 0.64670
 H7 H 0.74721 0.23318 0.76151
 H8 H 0.75511 0.26688 0.24060
 C9 C 0.20875 0.79699 0.58732
 C10 C 0.19998 0.80010 0.43575
 C11 C 0.24619 0.75342 0.35516
 C12 C 0.29748 0.70381 0.41624
 C13 C 0.30757 0.70145 0.56823
 C14 C 0.26193 0.74897 0.64858
 H15 H 0.26688 0.74880 0.76392
 H16 H 0.24112 0.75440 0.23988
 C17 C 0.29223 0.29666 -0.58449
 C18 C 0.29574 0.30299 -0.43300
 C19 C 0.24597 0.25858 -0.35259
 C20 C 0.19957 0.20527 -0.41377
 C21 C 0.19561 0.19940 -0.56647
 C22 C 0.24334 0.24591 -0.64594
 H23 H 0.24284 0.24324 -0.76143
 H24 H 0.24755 0.26270 -0.23728
 C25 C -0.20922 0.79744 -0.58524
 C26 C -0.20450 0.80306 -0.43366
 C27 C -0.25279 0.75766 -0.35308
 C28 C -0.29837 0.70388 -0.41396
 C29 C -0.30365 0.69878 -0.56672
 C30 C -0.25807 0.74652 -0.64669
 H31 H -0.26008 0.74449 -0.76221
 H32 H -0.25067 0.76139 -0.23774
 N33 N -0.07314 0.87777 -0.17265
 N34 N -0.12377 0.82924 -0.21360
 N35 N 0.10776 0.92680 -0.22133
 N36 N 0.15323 0.90799 -0.33033
 N37 N 0.09475 0.87479 -0.13542
 N38 N 0.12921 0.81908 -0.18877
 N39 N -0.06237 0.92320 -0.27466
 N40 N -0.10673 0.90531 -0.38777
 C41 C -0.14574 0.84670 -0.34796
 C42 C 0.16529 0.84112 -0.31058
 N43 N 0.09614 1.12320 -0.13597
 N44 N 0.12778 1.17973 -0.19156
 N45 N -0.06031 1.07746 -0.27640
 N46 N -0.10185 1.09802 -0.39112
 N47 N -0.07339 1.12012 -0.17106
 N48 N -0.12778 1.17060 -0.21316
 N49 N 0.10948 1.07119 -0.22131
 N50 N 0.15399 1.09334 -0.33910
 Mn51 Mn 0.02458 0.99975 -0.24594
 C52 C 0.16148 1.16062 -0.31760
 C53 C -0.14459 1.15485 -0.35072
 N54 N 0.07081 0.87681 0.17338
 N55 N 0.11952 0.82712 0.21557
 N56 N -0.10901 0.92785 0.22238
 N57 N -0.15399 0.90890 0.33208
 N58 N -0.09676 0.87590 0.13608
 N59 N -0.13105 0.82023 0.18997
 N60 N 0.06100 0.92245 0.27499
 N61 N 0.10418 0.90361 0.38896
 Mn62 Mn -0.00110 0.87643 0.00030
 C63 C 0.14138 0.84408 0.35020
 C64 C -0.16632 0.84203 0.31241
 N65 N -0.09738 1.12299 0.13176
 N66 N -0.13344 1.18236 0.18623
 N67 N 0.06099 1.07725 0.27533
 N68 N 0.10105 1.09901 0.39072
 N69 N 0.07316 1.12018 0.16960
 N70 N 0.12564 1.17189 0.21229
 N71 N -0.10739 1.07343 0.22470
 N72 N -0.14719 1.09564 0.33784
 Mn73 Mn -0.00028 1.12150 -0.00100
 Mn74 Mn -0.02457 1.00004 0.24659
 Cl75 Cl -0.00036 0.99932 0.00008
 C76 C -0.16163 1.16213 0.31554
 C77 C 0.14220 1.15674 0.35028
 N78 N 0.39121 0.42686 0.22034
 N79 N 0.34665 0.40798 0.33064
 N80 N 0.57180 0.37635 0.17433
 N81 N 0.62275 0.32813 0.21603
 N82 N 0.56127 0.42225 0.27488
 N83 N 0.60621 0.40529 0.38771
 N84 N 0.40431 0.37462 0.13524
 N85 N 0.37113 0.31881 0.19079
 C86 C 0.33564 0.34086 0.31292
 C87 C 0.64512 0.34650 0.34962
 N88 N 0.60728 0.42420 -0.22436
 N89 N 0.64719 0.40221 -0.33752
 N90 N 0.42893 0.37646 -0.17319
 N91 N 0.37819 0.32793 -0.21410
 N92 N 0.43818 0.42268 -0.27406
 N93 N 0.39318 0.40524 -0.38669
 N94 N 0.59826 0.37474 -0.13070
 N95 N 0.63520 0.31569 -0.18489
 Mn96 Mn 0.50074 0.37565 0.00093
 C97 C 0.66294 0.33603 -0.31451
 C98 C 0.35505 0.34614 -0.34750
 N99 N 0.56153 0.57546 0.27447
 N100 N 0.60368 0.59780 0.39642
 N101 N 0.40698 0.62419 0.13523
 N102 N 0.37534 0.68050 0.19109
 N103 N 0.39195 0.57188 0.21934
 N104 N 0.34738 0.59125 0.32919
 N105 N 0.57517 0.61958 0.17155
 N106 N 0.62486 0.66861 0.21366
 Mn107 Mn 0.47538 0.49912 0.24462
 C108 C 0.64357 0.65499 0.35183
 C109 C 0.33868 0.65874 0.31246
 N110 N 0.44137 0.57676 -0.27490
 N111 N 0.39854 0.59939 -0.39630
 N112 N 0.59918 0.62174 -0.13521
 N113 N 0.63134 0.67801 -0.19081
 N114 N 0.61152 0.56961 -0.22095
 N115 N 0.65637 0.59152 -0.33858
 N116 N 0.43048 0.62172 -0.17272
 N117 N 0.38218 0.67182 -0.21476
 Mn118 Mn 0.52539 0.49862 -0.24576
 Mn119 Mn 0.50297 0.62156 -0.00032
 Cl120 Cl 0.50097 0.49861 -0.00023
 C121 C 0.36154 0.65799 -0.35199
 C122 C 0.66458 0.65881 -0.31704
   
