data_POSCAR
  _audit_creation_date              2014-09-24
  _audit_creation_method            'ToBaCCo'
  _symmetry_space_group_name_H-M    'P1'
  _symmetry_Int_Tables_number       1
  _symmetry_cell_setting            triclinic
  loop_
  _symmetry_equiv_pos_as_xyz
 x,y,z
_cell_length_a 29.2779
_cell_length_b 29.1997
_cell_length_c 54.1544
_cell_angle_alpha 90.883800
_cell_angle_beta 94.959800
_cell_angle_gamma 94.664800
loop_
  _atom_site_label
  _atom_site_type_symbol
  _atom_site_fract_x
  _atom_site_fract_y
  _atom_site_fract_z
C1 C -0.01213 0.61738 0.99880
 C2 C -0.02233 0.59326 1.02028
 C3 C -0.01696 0.54575 1.02057
 C4 C 0.00097 0.52307 1.00088
 C5 C 0.01217 0.54872 0.98010
 C6 C 0.00467 0.59567 0.97837
 C7 C 0.00840 0.47282 1.00212
 C8 C 0.00872 0.44578 0.98029
 C9 C 0.01756 0.39927 0.98140
 C10 C 0.02324 0.37877 1.00456
 C11 C 0.02168 0.40434 1.02653
 C12 C 0.01557 0.45144 1.02520
 H13 H -0.01711 0.65349 0.99800
 H14 H -0.02867 0.52596 1.03584
 H15 H 0.02904 0.53265 0.96570
 H16 H 0.00254 0.46062 0.96227
 H17 H 0.02756 0.34231 1.00543
 H18 H 0.01715 0.47117 1.04235
 C19 C 0.37909 0.00955 0.50150
 C20 C 0.40661 0.00059 0.52308
 C21 C 0.45432 0.00008 0.52209
 C22 C 0.47513 0.01045 0.50007
 C23 C 0.44665 0.02036 0.47879
 C24 C 0.39868 0.01894 0.47921
 C25 C 0.52625 0.01088 0.49931
 C26 C 0.54543 0.00145 0.47702
 C27 C 0.59339 0.00272 0.47576
 C28 C 0.62207 0.01157 0.49791
 C29 C 0.60411 0.02003 0.52074
 C30 C 0.55606 0.02066 0.52089
 H31 H 0.34217 0.00919 0.50205
 H32 H 0.47484 -0.00928 0.53853
 H33 H 0.46150 0.03002 0.46182
 H34 H 0.52278 -0.00913 0.46077
 H35 H 0.65878 0.01184 0.49737
 H36 H 0.54189 0.03094 0.53769
 C37 C 0.05102 0.00328 0.26188
 H38 H 0.05377 0.00181 0.24209
 C39 C 0.09082 0.00847 0.27825
 H40 H 0.12417 0.01093 0.27093
 C41 C 0.00414 0.00388 0.29540
 H42 H -0.02959 0.00299 0.30208
 C43 C 0.04291 0.00922 0.31237
 H44 H 0.03841 0.01119 0.33198
 N45 N 0.00876 0.00073 0.27067
 C46 C -0.08860 -0.06626 0.21304
 H47 H -0.11523 -0.04265 0.21305
 C48 C -0.09403 -0.10424 0.19680
 H49 H -0.12529 -0.10991 0.18455
 C50 C -0.01558 -0.08725 0.22914
 H51 H 0.01496 -0.08047 0.24174
 C52 C -0.01952 -0.12565 0.21312
 H53 H 0.00859 -0.14758 0.21330
 Zn54 Zn -0.04422 -0.00289 0.24775
 N55 N -0.04940 -0.05787 0.22834
 C56 C -0.03664 0.04132 0.20209
 N57 N -0.03822 0.04835 0.22688
 C58 C -0.03184 0.09141 0.23723
 C59 C -0.02373 0.12956 0.22244
 C60 C -0.02849 0.07835 0.18668
 C61 C -0.10737 -0.04022 0.27884
 C62 C -0.14451 -0.04205 0.29336
 C63 C -0.16253 0.03248 0.27840
 C64 C -0.12495 0.03286 0.26410
 N65 N -0.09768 -0.00274 0.26504
 H66 H -0.04067 0.00691 0.19421
 H67 H -0.03222 0.09599 0.25707
 H68 H -0.01797 0.16352 0.23101
 H69 H -0.02750 0.07194 0.16700
 H70 H -0.08529 -0.06820 0.27906
 H71 H -0.15039 -0.07142 0.30497
 H72 H -0.18353 0.06137 0.27773
 H73 H -0.11727 0.06188 0.25260
 C74 C -0.05880 -0.13405 0.19632
 C75 C 0.08699 0.01176 0.30388
 C76 C -0.17229 -0.00507 0.29357
 C77 C -0.02149 0.12316 0.19683
 C78 C 0.04291 0.08420 0.76473
 H79 H 0.04209 0.08914 0.74495
 C80 C 0.04350 0.12213 0.78088
 H81 H 0.04382 0.15634 0.77343
 C82 C 0.04269 0.03349 0.79847
 H83 H 0.04106 -0.00106 0.80530
 C84 C 0.04352 0.07033 0.81523
 H85 H 0.04267 0.06351 0.83479
 N86 N 0.04280 0.04095 0.77374
 C87 C 0.09351 -0.04658 0.71789
 H88 H 0.06648 -0.07428 0.71696
 C89 C 0.12975 -0.04832 0.70289
 H90 H 0.13000 -0.07732 0.69022
 C91 C 0.12463 0.02568 0.73493
 H92 H 0.12254 0.05435 0.74751
 C93 C 0.16156 0.02538 0.72021
 H94 H 0.18772 0.05394 0.72167
 Zn95 Zn 0.03846 -0.00969 0.75110
 N96 N 0.09106 -0.00956 0.73310
 C97 C -0.00997 0.00004 0.70430
 N98 N -0.01456 -0.00465 0.72893
 C99 C -0.05614 -0.00261 0.73817
 C100 C -0.09536 0.00366 0.72233
 C101 C -0.04812 0.00654 0.68787
 C102 C 0.07253 -0.07425 0.78345
 C103 C 0.07176 -0.11277 0.79837
 C104 C -0.00638 -0.13374 0.78149
 C105 C -0.00409 -0.09471 0.76687
 N106 N 0.03459 -0.06531 0.76860
 H107 H 0.02340 -0.00047 0.69730
 H108 H -0.05869 -0.00534 0.75791
 H109 H -0.12810 0.00566 0.73000
 H110 H -0.04371 0.00979 0.66831
 H111 H 0.10300 -0.05049 0.78427
 H112 H 0.10169 -0.11802 0.81086
 H113 H -0.03769 -0.15642 0.78018
 H114 H -0.03350 -0.08763 0.75450
 C115 C 0.16409 -0.01171 0.70366
 C116 C 0.04388 0.11537 0.80652
 C117 C 0.03163 -0.14272 0.79785
 C118 C -0.09150 0.00864 0.69682
 C119 C -0.05445 -0.33161 0.08345
 C120 C -0.03392 -0.37296 0.08641
 C121 C -0.02513 -0.39881 0.06563
 C122 C -0.03612 -0.38338 0.04133
 C123 C -0.05886 -0.34253 0.03886
 C124 C -0.06771 -0.31701 0.05967
 C125 C -0.05895 -0.30222 0.10452
 C126 C -0.06164 -0.27566 0.12150
 C127 C -0.06379 -0.24181 0.14087
 C128 C -0.04606 -0.24941 0.16517
 C129 C -0.04520 -0.21477 0.18342
 C130 C -0.06199 -0.17207 0.17753
 C131 C -0.08036 -0.16518 0.15311
 C132 C -0.08123 -0.19978 0.13496
 H133 H -0.02324 -0.38446 0.10478
 H134 H -0.00678 -0.42915 0.06888
 H135 H -0.07066 -0.33015 0.02090
 H136 H -0.08414 -0.28525 0.05716
 H137 H -0.03229 -0.28178 0.16993
 H138 H -0.03127 -0.22132 0.20209
 H139 H -0.09279 -0.13250 0.14782
 H140 H -0.09461 -0.19337 0.11616
 C141 C 0.02170 0.32883 0.09389
 C142 C 0.05397 0.32130 0.07696
 C143 C 0.05536 0.34723 0.05554
 C144 C 0.02436 0.38103 0.05072
 C145 C -0.00669 0.38969 0.06834
 C146 C -0.00810 0.36360 0.08976
 C147 C 0.01663 0.29809 0.11417
 C148 C 0.01188 0.27041 0.13023
 C149 C 0.00585 0.23519 0.14824
 C150 C 0.02727 0.19444 0.14588
 C151 C 0.01898 0.15842 0.16197
 C152 C -0.01098 0.16258 0.18069
 C153 C -0.03153 0.20409 0.18335
 C154 C -0.02327 0.24014 0.16714
 H155 H 0.07712 0.29440 0.07994
 H156 H 0.08000 0.34019 0.04245
 H157 H -0.03129 0.41515 0.06500
 H158 H -0.03344 0.36950 0.10265
 H159 H 0.04982 0.19020 0.13131
 H160 H 0.03591 0.12719 0.15972
 H161 H -0.05499 0.20815 0.19748
 H162 H -0.04026 0.27145 0.16903
 C163 C 0.34079 -0.01390 0.59071
 C164 C 0.32117 -0.03707 0.56906
 C165 C 0.34331 -0.03366 0.54724
 C166 C 0.38539 -0.00691 0.54678
 C167 C 0.40562 0.01504 0.56883
 C168 C 0.38335 0.01165 0.59065
 C169 C 0.31564 -0.01403 0.61240
 C170 C 0.29303 -0.01348 0.62996
 C171 C 0.26422 -0.01228 0.65015
 C172 C 0.25197 -0.05258 0.66250
 C173 C 0.22053 -0.05216 0.68052
 C174 C 0.20082 -0.01138 0.68636
 C175 C 0.21442 0.02923 0.67434
 C176 C 0.24585 0.02872 0.65634
 H177 H 0.28823 -0.05693 0.56890
 H178 H 0.32721 -0.05143 0.53063
 H179 H 0.43776 0.03625 0.56897
 H180 H 0.39873 0.02993 0.60727
 H181 H 0.26592 -0.08453 0.65783
 H182 H 0.21120 -0.08385 0.68966
 H183 H 0.19943 0.06101 0.67814
 H184 H 0.25484 0.06005 0.64677
 C185 C -0.30527 0.03232 0.58664
 C186 C -0.35129 0.01615 0.58770
 C187 C -0.38165 0.01366 0.56619
 C188 C -0.36634 0.02675 0.54302
 C189 C -0.32004 0.04474 0.54266
 C190 C -0.29000 0.04732 0.56419
 C191 C -0.27271 0.03116 0.60806
 C192 C -0.24371 0.02950 0.62517
 C193 C -0.20717 0.02695 0.64452
 C194 C -0.21194 -0.00377 0.66392
 C195 C -0.17468 -0.00897 0.68139
 C196 C -0.13215 0.01630 0.67950
 C197 C -0.12816 0.04791 0.66031
 C198 C -0.16538 0.05313 0.64295
 H199 H -0.36343 0.00419 0.60500
 H200 H -0.41627 -0.00139 0.56770
 H201 H -0.30670 0.05785 0.52592
 H202 H -0.25451 0.06044 0.56322
 H203 H -0.24405 -0.02446 0.66520
 H204 H -0.17865 -0.03381 0.69585
 H205 H -0.09608 0.06838 0.65861
 H206 H -0.16128 0.07693 0.62799
 C207 C 0.02348 -0.32934 0.91280
 C208 C 0.01375 -0.37700 0.91138
 C209 C 0.00898 -0.40197 0.93299
 C210 C 0.01330 -0.37959 0.95657
 C211 C 0.02472 -0.33152 0.95754
 C212 C 0.02960 -0.30685 0.93592
 C213 C 0.02519 -0.30280 0.89068
 C214 C 0.02585 -0.27884 0.87277
 C215 C 0.02598 -0.24823 0.85220
 C216 C -0.01266 -0.22424 0.84584
 C217 C -0.01135 -0.19106 0.82754
 C218 C 0.02876 -0.18130 0.81537
 C219 C 0.06697 -0.20664 0.82135
 C220 C 0.06558 -0.23983 0.83969
 H221 H 0.00871 -0.39476 0.89351
 H222 H -0.00085 -0.43844 0.93085
 H223 H 0.03112 -0.31255 0.97497
 H224 H 0.03773 -0.26997 0.93726
 H225 H -0.04337 -0.23023 0.85554
 H226 H -0.04109 -0.17175 0.82366
 H227 H 0.09814 -0.20033 0.81210
 H228 H 0.09572 -0.25814 0.84450
 C229 C 0.02840 0.31698 0.91601
 C230 C 0.06017 0.31482 0.93669
 C231 C 0.05683 0.34201 0.95776
 C232 C 0.02154 0.37181 0.95850
 C233 C -0.00985 0.37444 0.93747
 C234 C -0.00649 0.34703 0.91635
 C235 C 0.03091 0.28667 0.89505
 C236 C 0.03394 0.25963 0.87833
 C237 C 0.03838 0.22547 0.85945
 C238 C 0.06778 0.19070 0.86453
 C239 C 0.07036 0.15555 0.84707
 C240 C 0.04350 0.15463 0.82422
 C241 C 0.01487 0.19035 0.81897
 C242 C 0.01224 0.22551 0.83654
 H243 H 0.08729 0.29168 0.93663
 H244 H 0.08190 0.33976 0.97353
 H245 H -0.03758 0.39680 0.93759
 H246 H -0.03143 0.34877 0.90048
 H247 H 0.08821 0.19037 0.88218
 H248 H 0.09318 0.12889 0.85149
 H249 H -0.00656 0.19029 0.80164
 H250 H -0.01077 0.25217 0.83246
 C251 C -0.34609 -0.00981 0.40763
 C252 C -0.32363 -0.02416 0.42960
 C253 C -0.34400 -0.02141 0.45188
 C254 C -0.38753 -0.00391 0.45279
 C255 C -0.41056 0.00863 0.43012
 C256 C -0.38985 0.00596 0.40785
 C257 C -0.32275 -0.00915 0.38530
 C258 C -0.30110 -0.00801 0.36734
 C259 C -0.27287 -0.00622 0.34685
 C260 C -0.26793 -0.04614 0.33304
 C261 C -0.23646 -0.04543 0.31500
 C262 C -0.20937 -0.00477 0.31063
 C263 C -0.21578 0.03553 0.32403
 C264 C -0.24726 0.03474 0.34204
 H265 H -0.28992 -0.03698 0.42959
 H266 H -0.32562 -0.03409 0.46821
 H267 H -0.44338 0.02330 0.42956
 H268 H -0.40748 0.01740 0.39092
 H269 H -0.28748 -0.07807 0.33666
 H270 H -0.23275 -0.07687 0.30478
 H271 H -0.19505 0.06720 0.32137
 H272 H -0.25053 0.06575 0.35277
 C273 C 0.30669 0.03145 0.41393
 C274 C 0.29955 0.05448 0.43594
 C275 C 0.33032 0.05177 0.45697
 C276 C 0.36866 0.02585 0.45627
 C277 C 0.37642 0.00407 0.43383
 C278 C 0.34551 0.00676 0.41281
 C279 C 0.27247 0.03074 0.39316
 C280 C 0.24245 0.02943 0.37639
 C281 C 0.20508 0.02722 0.35721
 C282 C 0.16732 0.05269 0.35997
 C283 C 0.12932 0.04827 0.34238
 C284 C 0.12850 0.01818 0.32177
 C285 C 0.16705 -0.00653 0.31884
 C286 C 0.20506 -0.00212 0.33651
 H287 H 0.26960 0.07367 0.43702
 H288 H 0.32380 0.06939 0.47389
 H289 H 0.40537 -0.01651 0.43281
 H290 H 0.35123 -0.01140 0.39590
 H291 H 0.16694 0.07547 0.37592
 H292 H 0.10049 0.06832 0.34495
 H293 H 0.16725 -0.03025 0.30329
 H294 H 0.23400 -0.02223 0.33428
   
