data_POSCAR
  _audit_creation_date              2014-09-24
  _audit_creation_method            'ToBaCCo'
  _symmetry_space_group_name_H-M    'P1'
  _symmetry_Int_Tables_number       1
  _symmetry_cell_setting            triclinic
  loop_
  _symmetry_equiv_pos_as_xyz
 x,y,z
_cell_length_a 24.7088
_cell_length_b 23.6115
_cell_length_c 22.8528
_cell_angle_alpha 91.355000
_cell_angle_beta 89.773300
_cell_angle_gamma 91.176500
loop_
  _atom_site_label
  _atom_site_type_symbol
  _atom_site_fract_x
  _atom_site_fract_y
  _atom_site_fract_z
O1 O 0.54157 0.10762 -0.00973
 O2 O 0.43880 -0.03748 -0.10919
 O3 O 0.60785 -0.03576 -0.05712
 O4 O 0.37051 0.05851 0.02275
 O5 O 0.53957 -0.05287 -0.11812
 O6 O 0.44421 0.11028 0.01212
 O7 O 0.42727 0.04341 -0.06575
 O8 O 0.60865 0.05099 0.00478
 C9 C 0.59043 0.09581 -0.01607
 C10 C 0.42127 0.01237 -0.11026
 C11 C 0.58935 -0.04359 -0.10880
 C12 C 0.39353 0.10895 0.02244
 O13 O 0.46244 0.05307 0.11226
 O14 O 0.53634 -0.12823 -0.03953
 O15 O 0.57146 -0.01473 0.09692
 O16 O 0.38241 -0.04431 -0.02027
 O17 O 0.43692 -0.11288 -0.02038
 O18 O 0.56114 0.07262 0.09516
 O19 O 0.41811 -0.01899 0.07760
 O20 O 0.57833 -0.09556 0.03671
 Co21 Co 0.50192 0.07580 0.04772
 Co22 Co 0.48831 -0.07573 -0.06499
 Co23 Co 0.58457 -0.02156 0.01932
 Co24 Co 0.42623 0.01247 0.00696
 O25 O 0.50327 -0.00772 0.00025
 C26 C 0.43196 0.01071 0.12050
 C27 C 0.56945 -0.13474 0.00105
 C28 C 0.57760 0.03146 0.12167
 C29 C 0.38936 -0.09621 -0.01672
 O30 O -0.12762 0.46556 -0.02394
 O31 O 0.05269 0.52583 0.11030
 O32 O -0.04542 0.40486 0.06211
 O33 O -0.04696 0.62771 0.01309
 O34 O 0.03305 0.42489 0.09443
 O35 O -0.11193 0.56703 -0.00610
 O36 O -0.01882 0.57026 0.09575
 O37 O -0.08313 0.38816 -0.03587
 C38 C -0.12726 0.41284 -0.02955
 C39 C 0.01572 0.55573 0.13063
 C40 C -0.01277 0.40294 0.10260
 C41 C -0.09663 0.61607 0.00881
 O42 O -0.04591 0.57443 -0.09880
 O43 O 0.08048 0.42542 -0.01139
 O44 O 0.00402 0.41362 -0.08785
 O45 O 0.06564 0.61670 0.04324
 O46 O 0.09892 0.53573 0.00602
 O47 O -0.06278 0.46578 -0.11811
 O48 O 0.02942 0.59658 -0.05218
 O49 O 0.02134 0.35229 -0.00664
 Co50 Co -0.08092 0.51659 -0.05704
 Co51 Co 0.05909 0.47957 0.04493
 Co52 Co -0.01750 0.41466 -0.01014
 Co53 Co 0.00663 0.57662 0.02162
 O54 O -0.01587 0.49825 -0.00074
 C55 C -0.00095 0.60195 -0.09591
 C56 C 0.07164 0.37113 -0.01066
 C57 C -0.02679 0.42885 -0.12830
 C58 C 0.10719 0.58748 0.02475
 O59 O -0.06324 -0.09528 0.44953
 O60 O 0.10993 -0.01824 0.54521
 O61 O 0.05434 0.00248 0.35054
 O62 O 0.02674 -0.07184 0.59318
 O63 O 0.09934 -0.01698 0.43108
 O64 O -0.05615 -0.09065 0.56166
 O65 O 0.07747 0.01108 0.63203
 O66 O 0.01504 -0.07976 0.40432
 C67 C -0.02554 -0.11204 0.41515
 C68 C 0.11840 -0.00583 0.59976
 C69 C 0.10094 -0.00287 0.37703
 C70 C -0.01437 -0.10493 0.58987
 O71 O -0.09928 0.01223 0.56311
 O72 O 0.07292 0.09225 0.44290
 O73 O -0.05648 -0.01121 0.37713
 O74 O 0.00876 0.08137 0.58793
 O75 O 0.08513 0.09117 0.54779
 O76 O -0.10670 0.00825 0.45245
 O77 O -0.03824 0.00082 0.62972
 O78 O -0.00450 0.07345 0.40587
 Co79 Co -0.07479 -0.03774 0.50611
 Co80 Co 0.08484 0.03357 0.49210
 Co81 Co 0.00889 -0.00124 0.41139
 Co82 Co 0.02078 0.00598 0.58344
 O83 O 0.00211 0.00179 0.49897
 C84 C -0.08597 0.01156 0.61625
 C85 C 0.03292 0.10814 0.41473
 C86 C -0.10207 -0.00072 0.39832
 C87 C 0.04802 0.11236 0.57758
 C88 C -0.37164 0.19380 -0.02597
 C89 C -0.32651 0.22894 -0.03775
 C90 C -0.28133 0.20633 -0.06790
 C91 C -0.28286 0.14987 -0.08784
 C92 C -0.32693 0.11499 -0.07407
 C93 C -0.37077 0.13609 -0.04183
 C94 C -0.23420 0.23940 -0.07482
 C95 C -0.23100 0.29435 -0.05065
 C96 C -0.27668 0.31782 -0.02233
 C97 C -0.32438 0.28516 -0.01660
 C98 C -0.27332 0.37306 0.00129
 C99 C -0.22478 0.40417 -0.00176
 C100 C -0.17872 0.38037 -0.02802
 C101 C -0.18228 0.32565 -0.05303
 H102 H -0.40513 0.21005 -0.00025
 H103 H -0.24880 0.13187 -0.11124
 H104 H -0.32583 0.07070 -0.08622
 H105 H -0.19927 0.22154 -0.09685
 H106 H -0.35896 0.30269 0.00634
 H107 H -0.30794 0.39189 0.02286
 H108 H -0.22297 0.44652 0.01750
 H109 H -0.14710 0.30738 -0.07413
 C110 C 0.34977 0.80890 -0.00888
 C111 C 0.30253 0.77443 -0.00353
 C112 C 0.25150 0.80039 0.00092
 C113 C 0.24769 0.85898 -0.00075
 C114 C 0.29380 0.89247 -0.00681
 C115 C 0.34580 0.86865 -0.01067
 C116 C 0.20436 0.76773 0.00682
 C117 C 0.20672 0.70892 0.00801
 C118 C 0.25684 0.68165 0.00271
 C119 C 0.30484 0.71471 -0.00280
 C120 C 0.25744 0.62200 0.00311
 C121 C 0.20888 0.59038 0.00934
 C122 C 0.15933 0.61810 0.01586
 C123 C 0.15897 0.67736 0.01460
 H124 H 0.38899 0.78927 -0.01215
 H125 H 0.20872 0.87917 0.00230
 H126 H 0.28788 0.93765 -0.00858
 H127 H 0.16554 0.78826 0.01052
 H128 H 0.34358 0.69416 -0.00657
 H129 H 0.29530 0.59993 -0.00116
 H130 H 0.21012 0.54458 0.01002
 H131 H 0.12114 0.69957 0.01840
 C132 C 0.30880 0.15482 -0.00764
 C133 C 0.27533 0.20181 -0.01029
 C134 C 0.29288 0.25464 0.01396
 C135 C 0.34498 0.25985 0.03819
 C136 C 0.37857 0.21277 0.03977
 C137 C 0.36016 0.15973 0.01809
 C138 C 0.25767 0.30078 0.01452
 C139 C 0.20515 0.29435 -0.00860
 C140 C 0.18888 0.24180 -0.03481
 C141 C 0.22410 0.19616 -0.03581
 C142 C 0.13680 0.23489 -0.05791
 C143 C 0.09989 0.27837 -0.05221
 C144 C 0.11439 0.32993 -0.02394
 C145 C 0.16777 0.33860 -0.00400
 H146 H 0.29475 0.11427 -0.02566
 H147 H 0.35945 0.30006 0.05654
 H148 H 0.41828 0.21743 0.05935
 H149 H 0.27058 0.34102 0.03423
 H150 H 0.21101 0.15570 -0.05498
 H151 H 0.12399 0.19513 -0.07869
 H152 H 0.05931 0.27105 -0.06887
 H153 H 0.17922 0.37826 0.01784
 C154 C -0.34747 0.81746 0.03413
 C155 C -0.30935 0.77457 0.02801
 C156 C -0.32191 0.72570 -0.00650
 C157 C -0.37261 0.72069 -0.03408
 C158 C -0.40952 0.76491 -0.02978
 C159 C -0.39705 0.81400 0.00376
 C160 C -0.28292 0.68373 -0.01449
 C161 C -0.23095 0.69114 0.00979
 C162 C -0.21827 0.74037 0.04376
 C163 C -0.25789 0.78128 0.05356
 C164 C -0.16576 0.74840 0.06629
 C165 C -0.12589 0.70833 0.05473
 C166 C -0.13815 0.65908 0.02139
 C167 C -0.19104 0.65064 -0.00050
 H168 H -0.33688 0.85527 0.05970
 H169 H -0.38286 0.68354 -0.06083
 H170 H -0.44716 0.76138 -0.05384
 H171 H -0.29244 0.64618 -0.04104
 H172 H -0.24814 0.81917 0.07949
 H173 H -0.15537 0.78601 0.09228
 H174 H -0.08561 0.71559 0.07225
 H175 H -0.20090 0.61300 -0.02673
 C176 C -0.02297 -0.38670 0.21322
 C177 C -0.01479 -0.34442 0.25673
 C178 C 0.03841 -0.32937 0.27475
 C179 C 0.08204 -0.36059 0.25301
 C180 C 0.07352 -0.40305 0.21021
 C181 C 0.02137 -0.41443 0.18785
 C182 C 0.04729 -0.28184 0.31193
 C183 C 0.00347 -0.24975 0.33202
 C184 C -0.04996 -0.26803 0.31797
 C185 C -0.05873 -0.31485 0.28009
 C186 C -0.09388 -0.23821 0.34076
 C187 C -0.08514 -0.18930 0.37494
 C188 C -0.03240 -0.16795 0.38532
 C189 C 0.01199 -0.19903 0.36472
 H190 H -0.06333 -0.39533 0.19631
 H191 H 0.12302 -0.35033 0.26694
 H192 H 0.10842 -0.42363 0.19117
 H193 H 0.08826 -0.26891 0.32376
 H194 H -0.09965 -0.32717 0.26741
 H195 H -0.13506 -0.25217 0.33135
 H196 H -0.12005 -0.16673 0.39120
 H197 H 0.05281 -0.18352 0.37360
 C198 C 0.02258 0.37107 0.79606
 C199 C 0.02112 0.33314 0.74772
 C200 C -0.02819 0.32278 0.71768
 C201 C -0.07396 0.35382 0.73345
 C202 C -0.07197 0.39204 0.78100
 C203 C -0.02441 0.39934 0.81407
 C204 C -0.03159 0.27993 0.67417
 C205 C 0.01382 0.24759 0.65999
 C206 C 0.06418 0.26098 0.68672
 C207 C 0.06747 0.30350 0.73063
 C208 C 0.10996 0.22997 0.67069
 C209 C 0.10524 0.18399 0.63129
 C210 C 0.05456 0.16767 0.60818
 C211 C 0.00922 0.20055 0.62140
 H212 H 0.05951 0.37666 0.82120
 H213 H -0.11188 0.34693 0.71046
 H214 H -0.10873 0.41312 0.79422
 H215 H -0.06997 0.27047 0.65284
 H216 H 0.10559 0.31215 0.75282
 H217 H 0.14901 0.24005 0.69015
 H218 H 0.14062 0.15900 0.62172
 H219 H -0.02992 0.18822 0.60333
 C220 C 0.01501 0.35960 0.19686
 C221 C 0.00675 0.31877 0.24001
 C222 C -0.04260 0.28739 0.24162
 C223 C -0.08378 0.29934 0.20206
 C224 C -0.07505 0.33949 0.15895
 C225 C -0.02508 0.36874 0.15473
 C226 C -0.04915 0.24297 0.28095
 C227 C -0.00659 0.22877 0.31797
 C228 C 0.04185 0.26174 0.31824
 C229 C 0.04804 0.30685 0.27964
 C230 C 0.08421 0.24752 0.35543
 C231 C 0.07992 0.19925 0.38949
 C232 C 0.03318 0.16429 0.38708
 C233 C -0.01072 0.18048 0.35265
 H234 H 0.05367 0.38197 0.19418
 H235 H -0.12202 0.27606 0.20299
 H236 H -0.10673 0.34588 0.12729
 H237 H -0.08649 0.21798 0.28099
 H238 H 0.08578 0.33112 0.27880
 H239 H 0.12146 0.27255 0.35657
 H240 H 0.11427 0.18790 0.41575
 H241 H -0.04708 0.15402 0.35057
 C242 C -0.01892 -0.35437 0.81220
 C243 C -0.00614 -0.31213 0.77181
 C244 C 0.04072 -0.27750 0.77981
 C245 C 0.07550 -0.28755 0.82642
 C246 C 0.06267 -0.32951 0.86650
 C247 C 0.01432 -0.36238 0.86126
 C248 C 0.05118 -0.23229 0.74223
 C249 C 0.01492 -0.22086 0.69712
 C250 C -0.03072 -0.25711 0.68772
 C251 C -0.04072 -0.30266 0.72476
 C252 C -0.06686 -0.24603 0.64267
 C253 C -0.05966 -0.19786 0.60925
 C254 C -0.01604 -0.15979 0.61993
 C255 C 0.02222 -0.17253 0.66281
 H256 H -0.05587 -0.37943 0.80630
 H257 H 0.11196 -0.26191 0.83288
 H258 H 0.09003 -0.33457 0.90285
 H259 H 0.08647 -0.20494 0.74933
 H260 H -0.07646 -0.32949 0.71820
 H261 H -0.10171 -0.27365 0.63447
 H262 H -0.08943 -0.18955 0.57602
 H263 H 0.05605 -0.14359 0.67139
 C264 C 0.37664 -0.00855 0.79834
 C265 C 0.33391 0.00326 0.76049
 C266 C 0.30563 0.05437 0.76807
 C267 C 0.32295 0.09456 0.81029
 C268 C 0.36493 0.08232 0.84824
 C269 C 0.39024 0.02922 0.84512
 C270 C 0.25902 0.06345 0.73524
 C271 C 0.24003 0.02182 0.69530
 C272 C 0.26998 -0.02784 0.68493
 C273 C 0.31695 -0.03674 0.71753
 C274 C 0.25141 -0.06844 0.64337
 C275 C 0.20263 -0.06076 0.61392
 C276 C 0.17146 -0.01308 0.62673
 C277 C 0.19068 0.02844 0.66669
 H278 H 0.39630 -0.04910 0.79385
 H279 H 0.30232 0.13441 0.81587
 H280 H 0.37504 0.11334 0.88239
 H281 H 0.23641 0.10194 0.74237
 H282 H 0.33900 -0.07565 0.71107
 H283 H 0.27410 -0.10647 0.63438
 H284 H 0.18832 -0.09287 0.58274
 H285 H 0.16691 0.06579 0.67571
 C286 C -0.35385 -0.00567 0.18877
 C287 C -0.31577 0.00218 0.23340
 C288 C -0.31458 0.05291 0.26752
 C289 C -0.35203 0.09514 0.25582
 C290 C -0.38850 0.08795 0.20922
 C291 C -0.38920 0.03767 0.17504
 C292 C -0.27471 0.06120 0.31094
 C293 C -0.23447 0.02062 0.31811
 C294 C -0.23562 -0.02938 0.28249
 C295 C -0.27700 -0.03896 0.24187
 C296 C -0.19409 -0.06830 0.28613
 C297 C -0.15095 -0.05745 0.32366
 C298 C -0.14952 -0.00895 0.36033
 C299 C -0.19185 0.02981 0.35839
 H300 H -0.35368 -0.04443 0.16234
 H301 H -0.35180 0.13445 0.28124
 H302 H -0.41551 0.12194 0.19928
 H303 H -0.27365 0.10003 0.33725
 H304 H -0.27754 -0.07739 0.21483
 H305 H -0.19409 -0.10636 0.25865
 H306 H -0.11830 -0.08728 0.32405
 H307 H -0.19034 0.06775 0.38602
 C308 C 0.36949 0.04241 0.19763
 C309 C 0.32948 0.02847 0.23876
 C310 C 0.32776 -0.02616 0.26293
 C311 C 0.36674 -0.06572 0.24560
 C312 C 0.40421 -0.05262 0.20154
 C313 C 0.40521 0.00124 0.17688
 C314 C 0.28505 -0.04146 0.30068
 C315 C 0.24220 -0.00421 0.31106
 C316 C 0.24395 0.05006 0.28584
 C317 C 0.28842 0.06672 0.25178
 C318 C 0.19988 0.08593 0.29242
 C319 C 0.15361 0.06763 0.32189
 C320 C 0.15139 0.01431 0.34761
 C321 C 0.19624 -0.02117 0.34350
 H322 H 0.36904 0.08333 0.17698
 H323 H 0.36590 -0.10795 0.26316
 H324 H 0.43080 -0.08519 0.18486
 H325 H 0.28347 -0.08344 0.31894
 H326 H 0.28927 0.10817 0.23224
 H327 H 0.20041 0.12737 0.27299
 H328 H 0.11930 0.09535 0.32468
 H329 H 0.19420 -0.06263 0.36287
 C330 C -0.31861 -0.02512 0.84822
 C331 C -0.28480 -0.01521 0.79995
 C332 C -0.30531 -0.02275 0.74255
 C333 C -0.35976 -0.03863 0.73456
 C334 C -0.39374 -0.04607 0.78290
 C335 C -0.37368 -0.03895 0.84024
 C336 C -0.27103 -0.01459 0.69421
 C337 C -0.21660 0.00160 0.70260
 C338 C -0.19680 0.01119 0.76011
 C339 C -0.23091 0.00256 0.80833
 C340 C -0.14266 0.02772 0.76863
 C341 C -0.10756 0.03148 0.72096
 C342 C -0.12595 0.01922 0.66380
 C343 C -0.18108 0.00628 0.65463
 H344 H -0.30216 -0.02100 0.89204
 H345 H -0.37628 -0.04455 0.69093
 H346 H -0.43593 -0.05709 0.77527
 H347 H -0.28650 -0.02150 0.65021
 H348 H -0.21539 0.00917 0.85237
 H349 H -0.12698 0.03582 0.81232
 H350 H -0.06531 0.04190 0.72908
 H351 H -0.19556 -0.00356 0.61077
   
