data_POSCAR
  _audit_creation_date              2014-09-24
  _audit_creation_method            'ToBaCCo'
  _symmetry_space_group_name_H-M    'P1'
  _symmetry_Int_Tables_number       1
  _symmetry_cell_setting            triclinic
  loop_
  _symmetry_equiv_pos_as_xyz
 x,y,z
_cell_length_a 20.6202
_cell_length_b 20.6410
_cell_length_c 20.7137
_cell_angle_alpha 90.163000
_cell_angle_beta 90.149200
_cell_angle_gamma 90.114900
loop_
  _atom_site_label
  _atom_site_type_symbol
  _atom_site_fract_x
  _atom_site_fract_y
  _atom_site_fract_z
C1 C 0.53030 0.99681 -0.50108
 C2 C 0.46462 0.99575 -0.49958
 C3 C 0.42466 0.99136 -0.55891
 C4 C 0.42761 0.99858 -0.43850
 C5 C 0.57041 0.99681 -0.44159
 C6 C 0.56707 0.99774 -0.56236
 C7 C 0.42298 1.04196 -0.60390
 C8 C 0.37760 1.04083 -0.65428
 C9 C 0.33316 0.98922 -0.66027
 C10 C 0.33688 0.93762 -0.61621
 C11 C 0.38196 0.93895 -0.56601
 C12 C 0.38325 1.04918 -0.42944
 C13 C 0.34137 1.04883 -0.37679
 C14 C 0.34273 0.99761 -0.33262
 C15 C 0.38833 0.94776 -0.34040
 C16 C 0.43059 0.94819 -0.39322
 C17 C 0.61729 0.94827 -0.43377
 C18 C 0.66106 0.95093 -0.38248
 C19 C 0.65888 1.00226 -0.33822
 C20 C 0.61114 1.05023 -0.34492
 C21 C 0.56722 1.04766 -0.39653
 C22 C 0.56526 0.94508 -0.60539
 C23 C 0.60801 0.94280 -0.65776
 C24 C 0.65299 0.99303 -0.66730
 C25 C 0.65308 1.04651 -0.62554
 C26 C 0.61064 1.04875 -0.57339
 H27 H 0.45496 1.08332 -0.59851
 H28 H 0.37588 1.08120 -0.68755
 H29 H 0.30416 0.89679 -0.61883
 H30 H 0.38240 0.89970 -0.53138
 H31 H 0.37999 1.08817 -0.46420
 H32 H 0.30652 1.08767 -0.37143
 H33 H 0.46383 0.90822 -0.40010
 H34 H 0.62082 0.90895 -0.46833
 H35 H 0.69760 0.91357 -0.37799
 H36 H 0.60869 1.09040 -0.31138
 H37 H 0.53223 1.08625 -0.40251
 H38 H 0.53274 0.90475 -0.59690
 H39 H 0.60718 0.90104 -0.68941
 H40 H 0.68745 1.08565 -0.63228
 H41 H 0.61304 1.08946 -0.54033
 H42 H 0.39018 0.90773 -0.30686
 C43 C -0.46710 1.50144 -0.00977
 C44 C -0.53254 1.50402 -0.01101
 C45 C -0.57346 1.44571 -0.00381
 C46 C -0.56816 1.56565 -0.01699
 C47 C -0.42659 1.56030 -0.00435
 C48 C -0.43112 1.43966 -0.01122
 C49 C -0.57654 1.39781 -0.05188
 C50 C -0.62139 1.34712 -0.04664
 C51 C -0.66347 1.34409 0.00649
 C52 C -0.65884 1.39104 0.05526
 C53 C -0.61435 1.44154 0.04999
 C54 C -0.60784 1.57497 -0.07117
 C55 C -0.65024 1.62735 -0.07376
 C56 C -0.65393 1.67080 -0.02181
 C57 C -0.61223 1.66314 0.03130
 C58 C -0.56951 1.61068 0.03381
 C59 C -0.38671 1.56744 0.05008
 C60 C -0.34208 1.61797 0.05381
 C61 C -0.33622 1.66215 0.00277
 C62 C -0.37773 1.65629 -0.05095
 C63 C -0.42262 1.60547 -0.05460
 C64 C -0.43418 1.39572 0.04025
 C65 C -0.39231 1.34251 0.04193
 C66 C -0.34687 1.33321 -0.00760
 C67 C -0.34543 1.37600 -0.05988
 C68 C -0.38714 1.42892 -0.06160
 H69 H -0.54580 1.40085 -0.09408
 H70 H -0.62450 1.31118 -0.08472
 H71 H -0.69046 1.38988 0.09677
 H72 H -0.61263 1.47832 0.08738
 H73 H -0.60758 1.54023 -0.11048
 H74 H -0.68175 1.63213 -0.11526
 H75 H -0.53985 1.60350 0.07640
 H76 H -0.38920 1.53278 0.08919
 H77 H -0.31140 1.62110 0.09608
 H78 H -0.37407 1.68993 -0.09083
 H79 H -0.45258 1.60009 -0.09731
 H80 H -0.46698 1.40408 0.08014
 H81 H -0.39403 1.31016 0.08288
 H82 H -0.31054 1.36951 -0.09836
 H83 H -0.38379 1.46279 -0.10133
 H84 H -0.61474 1.69625 0.07187
 C85 C 0.00327 0.46747 0.50382
 C86 C 0.00814 0.53298 0.50184
 C87 C 0.01341 0.57320 0.56104
 C88 C 0.00562 0.56932 0.44038
 C89 C -0.00175 0.42733 0.44455
 C90 C 0.00319 0.43125 0.56542
 C91 C -0.04102 0.58411 0.60003
 C92 C -0.03830 0.62937 0.65038
 C93 C 0.01846 0.66556 0.66173
 C94 C 0.07335 0.65353 0.62343
 C95 C 0.07070 0.60786 0.57345
 C96 C -0.05179 0.60096 0.42255
 C97 C -0.05238 0.64360 0.37019
 C98 C 0.00442 0.65522 0.33489
 C99 C 0.06154 0.62233 0.35181
 C100 C 0.06223 0.58007 0.40453
 C101 C 0.05293 0.41605 0.40600
 C102 C 0.05024 0.37100 0.35539
 C103 C -0.00682 0.33551 0.34333
 C104 C -0.06193 0.34804 0.38118
 C105 C -0.05929 0.39340 0.43139
 C106 C 0.05946 0.39910 0.58570
 C107 C 0.05735 0.35646 0.63806
 C108 C -0.00114 0.34519 0.67094
 C109 C -0.05713 0.37873 0.65140
 C110 C -0.05501 0.42097 0.59876
 H111 H -0.08635 0.55961 0.58987
 H112 H -0.08132 0.63780 0.67912
 H113 H 0.11798 0.68013 0.63093
 H114 H 0.11290 0.60078 0.54323
 H115 H -0.09557 0.59423 0.45055
 H116 H -0.09677 0.66887 0.35818
 H117 H 0.10745 0.55769 0.41885
 H118 H 0.09836 0.44022 0.41661
 H119 H 0.09339 0.36230 0.32695
 H120 H -0.10690 0.32221 0.37307
 H121 H -0.10177 0.40091 0.46109
 H122 H 0.10446 0.40541 0.55959
 H123 H 0.10106 0.33087 0.65182
 H124 H -0.10316 0.37077 0.67499
 H125 H -0.09938 0.44369 0.58244
 H126 H 0.10619 0.63093 0.32591
 O127 O -0.16628 1.00178 -0.08795
 O128 O 0.16733 1.00323 -0.08212
 O129 O -0.00068 1.09311 -0.16277
 O130 O 0.00618 0.91710 -0.16699
 O131 O 0.00563 0.83640 -0.08990
 O132 O -0.00485 1.17009 -0.08167
 O133 O 0.08989 1.00308 -0.16291
 O134 O -0.08680 1.00577 -0.16615
 Zr135 Zr 0.00086 1.00387 -0.11262
 O136 O 0.05967 0.94537 -0.05743
 O137 O -0.05970 1.06018 -0.05696
 C138 C -0.14678 1.00483 -0.14718
 C139 C 0.14927 1.00206 -0.14203
 C140 C -0.00348 1.15240 -0.14179
 C141 C 0.00799 0.85692 -0.14896
 H142 H 0.08515 1.09061 -0.08103
 O143 O 0.05737 1.06216 -0.05450
 H144 H -0.08404 0.91511 -0.08838
 O145 O -0.05722 0.94273 -0.05975
 O146 O 0.16444 1.00459 0.09183
 O147 O -0.16885 0.99360 0.08475
 O148 O 0.08378 1.16955 0.00817
 O149 O 0.09021 0.83711 -0.00518
 O150 O -0.08545 0.83306 -0.00151
 O151 O -0.09204 1.16567 0.00177
 O152 O -0.00327 1.08536 0.16986
 O153 O -0.00376 0.90915 0.16521
 O154 O -0.00261 1.16615 0.09285
 O155 O 0.00049 0.83216 0.08414
 O156 O 0.16425 1.09193 0.00774
 O157 O -0.16907 1.08441 -0.00174
 O158 O -0.16579 0.91075 -0.00156
 O159 O 0.16770 0.91789 -0.00052
 O160 O 0.08424 1.00068 0.16935
 O161 O -0.09163 0.99345 0.16566
 Zr162 Zr 0.11287 1.00373 0.00370
 Zr163 Zr -0.11420 0.99875 -0.00070
 Zr164 Zr -0.00296 1.11524 0.00422
 Zr165 Zr 0.00136 0.88733 -0.00152
 Zr166 Zr -0.00266 0.99853 0.11531
 O167 O -0.05930 0.93972 0.05762
 O168 O 0.05588 1.06003 0.06285
 C169 C 0.14429 1.00295 0.15102
 C170 C -0.15098 0.99187 0.14466
 C171 C 0.14388 1.15122 0.00902
 C172 C 0.14954 0.85796 -0.00493
 C173 C -0.14552 0.85148 -0.00102
 C174 C -0.15129 1.14455 -0.00092
 C175 C -0.00271 1.14561 0.15199
 C176 C -0.00190 0.84982 0.14423
 H177 H -0.08987 1.08361 0.08779
 O178 O -0.06114 1.05716 0.06016
 H179 H 0.08588 0.91480 0.08630
 O180 O 0.05783 0.94261 0.05935
 C181 C 0.18149 0.99416 0.27530
 C182 C 0.23393 0.94106 0.27971
 C183 C 0.28365 0.99134 0.29108
 C184 C 0.23578 1.04414 0.28910
 C185 C 0.29865 0.99733 0.22195
 C186 C 0.24596 0.94618 0.20639
 C187 C 0.19488 1.00053 0.20237
 C188 C 0.24771 1.05190 0.21583
 H189 H 0.13348 0.99287 0.29940
 H190 H 0.22789 0.89460 0.30577
 H191 H 0.23371 1.08395 0.32523
 H192 H 0.34872 0.99812 0.20234
 H193 H 0.25162 0.90467 0.17279
 H194 H 0.25478 1.09864 0.19054
 C195 C -0.27664 0.98843 0.17793
 C196 C -0.28613 0.93574 0.23020
 C197 C -0.29660 0.98952 0.28075
 C198 C -0.28766 1.04211 0.22904
 C199 C -0.22351 0.99096 0.29620
 C200 C -0.21244 0.93729 0.24509
 C201 C -0.20366 0.98994 0.19363
 C202 C -0.21412 1.04358 0.24404
 H203 H -0.29812 0.98740 0.12873
 H204 H -0.31561 0.89112 0.22391
 H205 H -0.31913 1.08521 0.22270
 H206 H -0.20206 0.99194 0.34541
 H207 H -0.18087 0.89433 0.25134
 H208 H -0.18387 1.08786 0.24928
 C209 C -0.20511 0.95497 -0.25151
 C210 C -0.27869 0.95048 -0.23762
 C211 C -0.29073 1.00567 -0.28594
 C212 C -0.21763 1.01017 -0.30035
 C213 C -0.28405 1.05655 -0.23184
 C214 C -0.27149 1.00131 -0.18302
 C215 C -0.19844 1.00579 -0.19760
 C216 C -0.21036 1.06101 -0.24566
 H217 H -0.17205 0.91326 -0.25911
 H218 H -0.30735 0.90502 -0.23452
 H219 H -0.19591 1.01393 -0.34918
 H220 H -0.31632 1.09860 -0.22303
 H221 H -0.29340 0.99756 -0.13427
 H222 H -0.18204 1.10659 -0.24839
 C223 C 0.27477 0.99910 -0.17667
 C224 C 0.28352 0.94434 -0.22722
 C225 C 0.29314 0.99605 -0.27979
 C226 C 0.28494 1.05070 -0.22983
 C227 C 0.21981 0.99655 -0.29415
 C228 C 0.20962 0.94498 -0.24104
 C229 C 0.20159 0.99973 -0.19132
 C230 C 0.21117 1.05125 -0.24374
 H231 H 0.29695 1.00023 -0.12779
 H232 H 0.31308 0.90011 -0.21985
 H233 H 0.31648 1.09414 -0.22550
 H234 H 0.19760 0.99536 -0.34302
 H235 H 0.17788 0.90163 -0.24510
 H236 H 0.18085 1.09517 -0.25005
 C237 C 0.24680 1.21018 0.06174
 C238 C 0.29828 1.21946 0.00819
 C239 C 0.28506 1.29275 0.00928
 C240 C 0.23406 1.28404 0.06289
 C241 C 0.23242 1.28504 -0.04300
 C242 C 0.24507 1.21119 -0.04406
 C243 C 0.19435 1.20270 0.00953
 C244 C 0.18101 1.27586 0.01054
 H245 H 0.25208 1.17889 0.10485
 H246 H 0.34700 1.19672 0.00726
 H247 H 0.22836 1.31316 0.10761
 H248 H 0.22694 1.31630 -0.08619
 H249 H 0.24884 1.18059 -0.08807
 H250 H 0.13232 1.29871 0.01147
 C251 C 0.25307 0.79578 0.04203
 C252 C 0.24198 0.72219 0.03285
 C253 C 0.29432 0.72163 -0.01999
 C254 C 0.30598 0.79469 -0.01088
 C255 C 0.24267 0.73478 -0.07225
 C256 C 0.18996 0.73576 -0.01928
 C257 C 0.20167 0.80870 -0.01012
 C258 C 0.25376 0.80843 -0.06302
 H259 H 0.25662 0.82115 0.08917
 H260 H 0.23755 0.68622 0.07234
 H261 H 0.35421 0.81846 -0.00761
 H262 H 0.23740 0.71059 -0.11988
 H263 H 0.14181 0.71180 -0.02261
 H264 H 0.25782 0.84462 -0.10239
 C265 C -0.24740 0.78974 -0.05289
 C266 C -0.23494 0.71588 -0.04919
 C267 C -0.28704 0.71061 0.00365
 C268 C -0.30012 0.78383 -0.00009
 C269 C -0.23544 0.72137 0.05668
 C270 C -0.18295 0.72716 0.00376
 C271 C -0.19610 0.80023 0.00007
 C272 C -0.24802 0.79515 0.05285
 H273 H -0.25147 0.81847 -0.09795
 H274 H -0.22990 0.68282 -0.09124
 H275 H -0.34876 0.80675 -0.00152
 H276 H -0.22882 0.69450 0.10252
 H277 H -0.13431 0.70424 0.00522
 H278 H -0.25269 0.82846 0.09477
 C279 C -0.21168 1.24549 -0.05451
 C280 C -0.28522 1.23047 -0.05750
 C281 C -0.29682 1.28089 -0.00394
 C282 C -0.22379 1.29642 -0.00099
 C283 C -0.28899 1.22875 0.04845
 C284 C -0.27683 1.17776 -0.00513
 C285 C -0.20394 1.19356 -0.00218
 C286 C -0.21543 1.24377 0.05136
 H287 H -0.17921 1.25181 -0.09672
 H288 H -0.31455 1.22529 -0.10224
 H289 H -0.20245 1.34581 0.00082
 H290 H -0.32059 1.22115 0.09104
 H291 H -0.29821 1.12838 -0.00696
 H292 H -0.18614 1.24873 0.09609
 C293 C -0.05424 1.25065 0.20731
 C294 C -0.06254 1.23761 0.28039
 C295 C -0.00741 1.28628 0.29460
 C296 C 0.00084 1.29978 0.22204
 C297 C 0.04318 1.23150 0.29116
 C298 C -0.01189 1.18246 0.27641
 C299 C -0.00375 1.19606 0.20394
 C300 C 0.05135 1.24445 0.21796
 H301 H -0.09427 1.25819 0.17228
 H302 H -0.11002 1.23323 0.30509
 H303 H 0.00593 1.34842 0.19987
 H304 H 0.08336 1.22374 0.32605
 H305 H -0.01702 1.13381 0.29856
 H306 H 0.09823 1.24665 0.19180
 C307 C 0.05430 1.22172 -0.23458
 C308 C 0.00792 1.22491 -0.29334
 C309 C -0.00366 1.29730 -0.27941
 C310 C 0.04282 1.29470 -0.22116
 C311 C -0.06181 1.28058 -0.23579
 C312 C -0.05014 1.20770 -0.24926
 C313 C -0.00375 1.20510 -0.19119
 C314 C -0.01524 1.27740 -0.17704
 H315 H 0.10205 1.19699 -0.23362
 H316 H 0.01742 1.20347 -0.34161
 H317 H 0.08109 1.33089 -0.20972
 H318 H -0.11015 1.30408 -0.23481
 H319 H -0.08804 1.17133 -0.26085
 H320 H -0.02483 1.29868 -0.12873
 C321 C 0.06347 0.75242 -0.20231
 C322 C 0.00924 0.70246 -0.21754
 C323 C 0.01860 0.71528 -0.29008
 C324 C 0.07296 0.76471 -0.27544
 C325 C -0.03261 0.76952 -0.28817
 C326 C -0.04198 0.75717 -0.21509
 C327 C 0.01220 0.80639 -0.20055
 C328 C 0.02159 0.81935 -0.27296
 H329 H 0.10300 0.74598 -0.16639
 H330 H 0.00429 0.65400 -0.19494
 H331 H 0.12080 0.76910 -0.29945
 H332 H -0.07226 0.77644 -0.32384
 H333 H -0.08934 0.75467 -0.18981
 H334 H 0.02661 0.86785 -0.29546
 C335 C 0.01054 0.72487 0.17939
 C336 C 0.05995 0.72205 0.23578
 C337 C 0.00416 0.70553 0.28233
 C338 C -0.04517 0.70782 0.22645
 C339 C -0.00679 0.77800 0.29639
 C340 C 0.04895 0.79497 0.24940
 C341 C -0.00040 0.79723 0.19370
 C342 C -0.05611 0.78084 0.24003
 H343 H 0.01759 0.70327 0.13077
 H344 H 0.10806 0.69822 0.23307
 H345 H -0.08389 0.67149 0.21722
 H346 H -0.01384 0.79958 0.34501
 H347 H 0.08762 0.83143 0.25847
 H348 H -0.10395 0.80523 0.24126
   
