data_POSCAR
  _audit_creation_date              2014-09-24
  _audit_creation_method            'ToBaCCo'
  _symmetry_space_group_name_H-M    'P1'
  _symmetry_Int_Tables_number       1
  _symmetry_cell_setting            triclinic
  loop_
  _symmetry_equiv_pos_as_xyz
 x,y,z
_cell_length_a 44.3188
_cell_length_b 44.4660
_cell_length_c 43.0865
_cell_angle_alpha 89.913300
_cell_angle_beta 89.363100
_cell_angle_gamma 89.737600
loop_
  _atom_site_label
  _atom_site_type_symbol
  _atom_site_fract_x
  _atom_site_fract_y
  _atom_site_fract_z
N1 N 0.19053 1.25424 0.16800
 N2 N 0.17010 1.25457 0.19039
 C3 C 0.15040 1.27717 0.18519
 C4 C 0.15926 1.29167 0.15830
 C5 C 0.18462 1.27659 0.14782
 H6 H 0.13024 1.28166 0.19882
 H7 H 0.19670 1.28039 0.12623
 Cu8 Cu 0.16947 1.22316 0.22192
 Cu9 Cu 0.22056 1.22223 0.16438
 Cu10 Cu 0.22343 1.16994 0.22410
 N11 N 0.16886 1.19178 0.25340
 N12 N 0.19040 1.17134 0.25440
 C13 C 0.18373 1.15113 0.27672
 C14 C 0.15672 1.15953 0.29035
 C15 C 0.14768 1.18523 0.27505
 H16 H 0.19664 1.13096 0.28145
 H17 H 0.12666 1.19730 0.27841
 N18 N 0.25424 1.17225 0.19073
 N19 N 0.25299 1.19194 0.16776
 C20 C 0.27534 1.18588 0.14722
 C21 C 0.29123 1.16132 0.15784
 C22 C 0.27735 1.15310 0.18530
 H23 H 0.27883 1.19736 0.12534
 H24 H 0.28259 1.13354 0.19922
 H25 H 0.19850 1.18847 0.18933
 H26 H 0.22279 1.21488 0.21140
 N27 N 0.80887 0.74720 0.16930
 N28 N 0.82879 0.74661 0.19171
 C29 C 0.84850 0.72398 0.18636
 C30 C 0.84026 0.70975 0.15936
 C31 C 0.81518 0.72501 0.14899
 H32 H 0.86829 0.71925 0.20003
 H33 H 0.80353 0.72132 0.12741
 Cu34 Cu 0.82916 0.77746 0.22375
 Cu35 Cu 0.77894 0.77912 0.16605
 Cu36 Cu 0.77600 0.83210 0.22467
 N37 N 0.82972 0.80994 0.25395
 N38 N 0.80868 0.83092 0.25449
 C39 C 0.81554 0.85154 0.27613
 C40 C 0.84212 0.84281 0.28983
 C41 C 0.85071 0.81650 0.27527
 H42 H 0.80300 0.87207 0.28043
 H43 H 0.87132 0.80393 0.27894
 N44 N 0.74539 0.82958 0.19192
 N45 N 0.74665 0.80953 0.16934
 C46 C 0.72444 0.81537 0.14907
 C47 C 0.70862 0.84017 0.15946
 C48 C 0.72241 0.84877 0.18651
 H49 H 0.72102 0.80357 0.12747
 H50 H 0.71722 0.86857 0.20013
 H51 H 0.80175 0.81248 0.19055
 H52 H 0.77620 0.78698 0.21309
 N53 N 0.81129 1.25187 -0.16598
 N54 N 0.82926 1.25498 -0.19027
 C55 C 0.84769 1.27852 -0.18558
 C56 C 0.84070 1.29066 -0.15693
 C57 C 0.81769 1.27322 -0.14499
 H58 H 0.86606 1.28510 -0.20083
 H59 H 0.80762 1.27479 -0.12205
 Cu60 Cu 0.83002 1.22496 -0.22306
 Cu61 Cu 0.78420 1.21774 -0.16148
 Cu62 Cu 0.77032 1.17953 -0.23001
 N63 N 0.82885 1.19400 -0.25483
 N64 N 0.80536 1.17625 -0.25758
 C65 C 0.81104 1.15587 -0.28002
 C66 C 0.83963 1.16122 -0.29166
 C67 C 0.85044 1.18538 -0.27523
 H68 H 0.79610 1.13771 -0.28624
 H69 H 0.87276 1.19503 -0.27698
 N70 N 0.74429 1.17614 -0.19284
 N71 N 0.75011 1.19001 -0.16650
 C72 C 0.73007 1.18106 -0.14472
 C73 C 0.71091 1.16061 -0.15805
 C74 C 0.72047 1.15782 -0.18847
 H75 H 0.73011 1.18800 -0.12067
 H76 H 0.71180 1.14249 -0.20564
 H77 H 0.79984 1.18759 -0.19543
 H78 H 0.77701 1.22091 -0.20742
 N79 N 0.19204 0.74668 -0.16807
 N80 N 0.17203 0.74626 -0.19041
 C81 C 0.15259 0.72354 -0.18518
 C82 C 0.16110 0.70905 -0.15833
 C83 C 0.18606 0.72425 -0.14793
 H84 H 0.13279 0.71891 -0.19879
 H85 H 0.19780 0.72044 -0.12640
 Cu86 Cu 0.17156 0.77775 -0.22184
 Cu87 Cu 0.22153 0.77885 -0.16449
 Cu88 Cu 0.22458 0.83142 -0.22403
 N89 N 0.17083 0.80929 -0.25312
 N90 N 0.19200 0.82996 -0.25411
 C91 C 0.18528 0.85025 -0.27625
 C92 C 0.15862 0.84166 -0.28975
 C93 C 0.14987 0.81577 -0.27457
 H94 H 0.19788 0.87056 -0.28094
 H95 H 0.12913 0.80351 -0.27789
 N96 N 0.25491 0.82913 -0.19086
 N97 N 0.25358 0.80933 -0.16797
 C98 C 0.27561 0.81531 -0.14762
 C99 C 0.29137 0.83995 -0.15826
 C100 C 0.27776 0.84828 -0.18556
 H101 H 0.27899 0.80369 -0.12586
 H102 H 0.28302 0.86786 -0.19948
 H103 H 0.19937 0.81257 -0.18923
 H104 H 0.22452 0.78644 -0.21149
 C105 C 0.46796 0.97895 -0.02037
 C106 C 0.48390 0.99879 -0.00136
 C107 C 0.46813 1.01900 0.01792
 C108 C 0.43653 1.01932 0.01820
 C109 C 0.42071 0.99954 -0.00085
 C110 C 0.43636 0.97938 -0.02015
 C111 C 0.51705 0.99842 -0.00165
 C112 C 0.53307 1.01795 -0.02136
 C113 C 0.56467 1.01763 -0.02156
 C114 C 0.58023 0.99791 -0.00202
 C115 C 0.56432 0.97845 0.01771
 C116 C 0.53272 0.97864 0.01787
 H117 H 0.48013 0.96335 -0.03530
 H118 H 0.48043 1.03431 0.03264
 H119 H 0.52098 1.03327 -0.03641
 H120 H 0.52036 0.96361 0.03317
 H121 H 0.39623 0.99984 -0.00066
 H122 H 0.60472 0.99776 -0.00211
 C123 C -0.01918 0.46676 0.98064
 C124 C 0.00054 0.48253 0.99992
 C125 C 0.02036 0.46669 1.01924
 C126 C 0.02039 0.43520 1.01933
 C127 C 0.00071 0.41955 1.00003
 C128 C -0.01904 0.43526 0.98067
 C129 C 0.00040 0.51557 0.99994
 C130 C -0.01969 0.53135 1.01943
 C131 C -0.01967 0.56285 1.01954
 C132 C 0.00032 0.57854 1.00013
 C133 C 0.02035 0.56288 0.98061
 C134 C 0.02044 0.53139 0.98054
 H135 H -0.03449 0.47897 0.96568
 H136 H 0.03559 0.47886 1.03417
 H137 H -0.03514 0.51915 1.03446
 H138 H 0.03596 0.51922 0.96546
 H139 H 0.00076 0.39515 1.00010
 H140 H 0.00030 0.60294 1.00022
 C141 C 0.98008 -0.02049 0.46742
 C142 C 0.99917 -0.00120 0.48377
 C143 C 1.01834 0.01846 0.46750
 C144 C 1.01841 0.01882 0.43500
 C145 C 0.99935 -0.00046 0.41877
 C146 C 0.98018 -0.02009 0.43491
 C147 C 0.99887 -0.00138 0.51786
 C148 C 1.01831 -0.02062 0.53411
 C149 C 1.01800 -0.02069 0.56662
 C150 C 0.99827 -0.00155 0.58288
 C151 C 0.97886 0.01768 0.56673
 C152 C 0.97915 0.01777 0.53423
 H153 H 0.96520 -0.03563 0.47997
 H154 H 1.03305 0.03342 0.48012
 H155 H 1.03359 -0.03539 0.52147
 H156 H 0.96417 0.03269 0.52169
 H157 H 0.99940 -0.00016 0.39359
 H158 H 0.99806 -0.00158 0.60806
 C159 C 0.10934 0.34988 1.10852
 C160 C 0.12730 0.36881 1.08496
 C161 C 0.10968 0.38709 1.06723
 C162 C 0.07585 0.38463 1.07481
 C163 C 0.07315 0.39102 1.10975
 C164 C 0.09077 0.37274 1.12749
 C165 C 0.08614 0.33286 1.08915
 C166 C 0.06856 0.35110 1.07146
 C167 C 0.12806 0.32975 1.12731
 C168 C 0.14296 0.31227 1.14218
 C169 C 0.05666 0.40383 1.05551
 C170 C 0.04038 0.41865 1.03921
 H171 H 0.15169 0.36798 1.08247
 H172 H 0.11898 0.40193 1.04956
 H173 H 0.05873 0.40840 1.11967
 H174 H 0.09145 0.37445 1.15260
 H175 H 0.08372 0.30858 1.08933
 H176 H 0.05109 0.34243 1.05649
 C177 C -0.10899 0.64937 1.10886
 C178 C -0.08678 0.66605 1.08744
 C179 C -0.06923 0.64746 1.06977
 C180 C -0.07553 0.61395 1.07519
 C181 C -0.10946 0.61034 1.06952
 C182 C -0.12707 0.62897 1.08723
 C183 C -0.08933 0.62785 1.12795
 C184 C -0.07173 0.60921 1.11024
 C185 C -0.12768 0.66987 1.12764
 C186 C -0.14256 0.68761 1.14247
 C187 C -0.05631 0.59440 1.05590
 C188 C -0.03991 0.57942 1.03956
 H189 H -0.08500 0.69037 1.08625
 H190 H -0.05243 0.65587 1.05344
 H191 H -0.11883 0.59454 1.05307
 H192 H -0.15152 0.62912 1.08598
 H193 H -0.08928 0.62727 1.15314
 H194 H -0.05660 0.59266 1.12026
 C195 C -0.10829 0.35004 0.89277
 C196 C -0.12618 0.37361 0.91148
 C197 C -0.10848 0.39188 0.92891
 C198 C -0.07464 0.38476 0.92589
 C199 C -0.06763 0.38642 0.89095
 C200 C -0.08534 0.36816 0.87353
 C201 C -0.08942 0.33310 0.91685
 C202 C -0.07175 0.35132 0.93424
 C203 C -0.12711 0.32995 0.87430
 C204 C -0.14208 0.31250 0.85971
 C205 C -0.05536 0.40395 0.94488
 C206 C -0.03905 0.41875 0.96097
 H207 H -0.15058 0.37579 0.91104
 H208 H -0.11770 0.40972 0.94340
 H209 H -0.05035 0.40071 0.88079
 H210 H -0.08321 0.36679 0.84844
 H211 H -0.08988 0.30887 0.91997
 H212 H -0.05710 0.34270 0.95225
 C213 C 0.11023 0.64895 0.89200
 C214 C 0.09671 0.62278 0.87364
 C215 C 0.07894 0.60428 0.89123
 C216 C 0.07647 0.61380 0.92541
 C217 C 0.06534 0.64651 0.92459
 C218 C 0.08305 0.66496 0.90705
 C219 C 0.12693 0.63406 0.91906
 C220 C 0.10918 0.61557 0.93663
 C221 C 0.12906 0.66932 0.87335
 C222 C 0.14399 0.68697 0.85858
 C223 C 0.05710 0.59439 0.94456
 C224 C 0.04062 0.57947 0.96076
 H225 H 0.10076 0.61907 0.84905
 H226 H 0.06778 0.58473 0.88171
 H227 H 0.04525 0.65450 0.93672
 H228 H 0.07814 0.68874 0.90417
 H229 H 0.15062 0.63766 0.92393
 H230 H 0.11765 0.60335 0.95657
 C231 C 1.10620 0.10888 0.34839
 C232 C 1.09987 0.07791 0.33428
 C233 C 1.08237 0.06003 0.35270
 C234 C 1.07289 0.07483 0.38346
 C235 C 1.05745 0.10442 0.37414
 C236 C 1.07496 0.12232 0.35570
 C237 C 1.12009 0.10221 0.38018
 C238 C 1.10256 0.08429 0.39864
 C239 C 1.12491 0.12790 0.32815
 C240 C 1.14000 0.14303 0.31073
 C241 C 1.05388 0.05535 0.40291
 C242 C 1.03790 0.03890 0.41802
 H243 H 1.10840 0.07064 0.31178
 H244 H 1.07592 0.03745 0.34597
 H245 H 1.03477 0.11077 0.38142
 H246 H 1.06730 0.14401 0.34719
 H247 H 1.14174 0.11081 0.38754
 H248 H 1.10918 0.07754 0.42182
 C249 C 1.10761 -0.10843 0.65271
 C250 C 1.08616 -0.12654 0.63224
 C251 C 1.06830 -0.10907 0.61393
 C252 C 1.07364 -0.07521 0.61790
 C253 C 1.10754 -0.07088 0.61175
 C254 C 1.12541 -0.08836 0.63006
 C255 C 1.08711 -0.08676 0.67102
 C256 C 1.06928 -0.06932 0.65275
 C257 C 1.12664 -0.12704 0.67279
 C258 C 1.14187 -0.14194 0.69005
 C259 C 1.05423 -0.05622 0.59860
 C260 C 1.03790 -0.04022 0.58357
 H261 H 1.08514 -0.15093 0.63211
 H262 H 1.05196 -0.11849 0.59811
 H263 H 1.11669 -0.05549 0.59451
 H264 H 1.14987 -0.08794 0.62851
 H265 H 1.08665 -0.08525 0.69617
 H266 H 1.05354 -0.05287 0.66226
 C267 C 0.89233 -0.10753 0.34777
 C268 C 0.91493 -0.12564 0.36713
 C269 C 0.93243 -0.10826 0.38569
 C270 C 0.92560 -0.07448 0.38305
 C271 C 0.89167 -0.07147 0.39003
 C272 C 0.87417 -0.08885 0.37147
 C273 C 0.91155 -0.08458 0.32984
 C274 C 0.92902 -0.06722 0.34837
 C275 C 0.87367 -0.12606 0.32748
 C276 C 0.85868 -0.14089 0.31009
 C277 C 0.94462 -0.05559 0.40262
 C278 C 0.96064 -0.03963 0.41783
 H279 H 0.91701 -0.14997 0.36634
 H280 H 0.94949 -0.11769 0.40080
 H281 H 0.88223 -0.05695 0.40793
 H282 H 0.84974 -0.08925 0.37350
 H283 H 0.91145 -0.08215 0.30476
 H284 H 0.94385 -0.04993 0.33916
 C285 C 0.88941 0.10810 0.65179
 C286 C 0.91301 0.12518 0.63238
 C287 C 0.93076 0.10696 0.61441
 C288 C 0.92317 0.07344 0.61761
 C289 C 0.88943 0.07128 0.61024
 C290 C 0.87166 0.08952 0.62823
 C291 C 0.90754 0.08494 0.67042
 C292 C 0.92528 0.06674 0.65247
 C293 C 0.87058 0.12763 0.67148
 C294 C 0.85572 0.14352 0.68844
 C295 C 0.94252 0.05376 0.59862
 C296 C 0.95888 0.03740 0.58372
 H297 H 0.91552 0.14946 0.63268
 H298 H 0.94848 0.11562 0.59931
 H299 H 0.88031 0.05675 0.59247
 H300 H 0.84732 0.09061 0.62587
 H301 H 0.90653 0.08298 0.69553
 H302 H 0.93944 0.04920 0.66221
 C303 C 0.35113 1.11011 0.10704
 C304 C 0.37317 1.12769 0.08618
 C305 C 0.39151 1.10973 0.06850
 C306 C 0.38598 1.07598 0.07344
 C307 C 0.35226 1.07158 0.06726
 C308 C 0.33397 1.08949 0.08489
 C309 C 0.37109 1.08889 0.12616
 C310 C 0.38942 1.07094 0.10849
 C311 C 0.33092 1.12914 0.12582
 C312 C 0.31332 1.14417 0.14072
 C313 C 0.40522 1.05640 0.05421
 C314 C 0.42003 1.03976 0.03799
 H315 H 0.37432 1.15206 0.08542
 H316 H 0.40837 1.11871 0.05258
 H317 H 0.34350 1.05576 0.05047
 H318 H 0.30955 1.08901 0.08320
 H319 H 0.37089 1.08809 0.15135
 H320 H 0.40493 1.05475 0.11853
 C321 C 0.65103 1.10774 -0.10957
 C322 C 0.63644 1.08243 -0.12830
 C323 C 0.61795 1.06442 -0.11099
 C324 C 0.61589 1.07351 -0.07666
 C325 C 0.60603 1.10666 -0.07694
 C326 C 0.62452 1.12467 -0.09425
 C327 C 0.66708 1.09178 -0.08277
 C328 C 0.64864 1.07382 -0.06550
 C329 C 0.67135 1.12698 -0.12783
 C330 C 0.68895 1.14249 -0.14206
 C331 C 0.59646 1.05399 -0.05771
 C332 C 0.58144 1.03760 -0.04152
 H333 H 0.64025 1.07898 -0.15298
 H334 H 0.60592 1.04554 -0.12082
 H335 H 0.58626 1.11521 -0.06468
 H336 H 0.62058 1.14865 -0.09684
 H337 H 0.69090 1.09436 -0.07780
 H338 H 0.65666 1.06101 -0.04573
 C339 C 0.35084 0.89038 -0.10803
 C340 C 0.37751 0.90375 -0.12635
 C341 C 0.39580 0.92137 -0.10884
 C342 C 0.38560 0.92386 -0.07476
 C343 C 0.38346 0.89127 -0.06315
 C344 C 0.36518 0.87366 -0.08065
 C345 C 0.33460 0.91753 -0.09343
 C346 C 0.35285 0.93510 -0.07597
 C347 C 0.33072 0.87170 -0.12662
 C348 C 0.31325 0.85690 -0.14136
 C349 C 0.40483 0.94306 -0.05573
 C350 C 0.41970 0.95935 -0.03970
 H351 H 0.38169 0.89971 -0.15086
 H352 H 0.41564 0.93242 -0.11836
 H353 H 0.39529 0.88276 -0.04301
 H354 H 0.36136 0.85007 -0.07550
 H355 H 0.31082 0.92252 -0.09655
 H356 H 0.34469 0.95514 -0.06413
 C357 C 0.64910 0.89029 0.10826
 C358 C 0.62844 0.91152 0.12698
 C359 C 0.61026 0.92896 0.10897
 C360 C 0.61454 0.92344 0.07402
 C361 C 0.60958 0.88956 0.06971
 C362 C 0.62776 0.87212 0.08773
 C363 C 0.66647 0.91081 0.08573
 C364 C 0.64832 0.92821 0.06775
 C365 C 0.66917 0.87178 0.12734
 C366 C 0.68667 0.85708 0.14237
 C367 C 0.59544 0.94244 0.05442
 C368 C 0.58073 0.95859 0.03788
 H369 H 0.62809 0.91271 0.15215
 H370 H 0.59435 0.94511 0.11869
 H371 H 0.59322 0.88011 0.05393
 H372 H 0.62696 0.84772 0.08741
 H373 H 0.69091 0.91161 0.08403
 H374 H 0.65724 0.94390 0.05067
   
