data_POSCAR
  _audit_creation_date              2014-09-24
  _audit_creation_method            'ToBaCCo'
  _symmetry_space_group_name_H-M    'P1'
  _symmetry_Int_Tables_number       1
  _symmetry_cell_setting            triclinic
  loop_
  _symmetry_equiv_pos_as_xyz
 x,y,z
_cell_length_a 55.4720
_cell_length_b 56.0783
_cell_length_c 20.4020
_cell_angle_alpha 90.164800
_cell_angle_beta 90.016500
_cell_angle_gamma 120.925000
loop_
  _atom_site_label
  _atom_site_type_symbol
  _atom_site_fract_x
  _atom_site_fract_y
  _atom_site_fract_z
O1 O 0.17839 0.40644 0.43951
 O2 O 0.22762 0.40653 0.56226
 O3 O 0.18046 0.40611 0.56767
 O4 O 0.22463 0.40489 0.43418
 O5 O 0.24840 0.45072 0.43259
 O6 O 0.20498 0.45195 0.56729
 O7 O 0.25197 0.45230 0.55926
 O8 O 0.20243 0.45229 0.44049
 Cu9 Cu 0.20033 0.40138 0.50095
 Cu10 Cu 0.22934 0.45636 0.49980
 C11 C 0.18198 0.42951 0.41948
 C12 C 0.24843 0.42959 0.58149
 C13 C 0.18517 0.42925 0.59037
 C14 C 0.24413 0.42763 0.41061
 O15 O 0.52687 -0.25146 0.44666
 O16 O 0.51179 -0.21727 0.57993
 O17 O 0.51499 -0.26207 0.57187
 O18 O 0.51812 -0.20985 0.45475
 O19 O 0.47276 -0.23762 0.43535
 O20 O 0.46964 -0.28819 0.55185
 O21 O 0.46634 -0.24302 0.55912
 O22 O 0.48157 -0.27921 0.42841
 Cu23 Cu 0.52249 -0.23265 0.51509
 Cu24 Cu 0.46811 -0.26485 0.49192
 C25 C 0.50701 -0.27141 0.41511
 C26 C 0.48675 -0.22332 0.59046
 C27 C 0.49146 -0.28432 0.58148
 C28 C 0.49546 -0.21472 0.42690
 O29 O 1.29025 0.76309 0.42988
 O30 O 1.24257 0.71584 0.55632
 O31 O 1.28982 0.76295 0.55678
 O32 O 1.24237 0.71598 0.42896
 O33 O 1.26527 0.69339 0.42840
 O34 O 1.31262 0.74028 0.55753
 O35 O 1.26474 0.69260 0.55459
 O36 O 1.31368 0.74103 0.43084
 Cu37 Cu 1.26395 0.74170 0.49282
 Cu38 Cu 1.29141 0.71458 0.49267
 C39 C 1.31057 0.76062 0.41004
 C40 C 1.24506 0.69575 0.57631
 C41 C 1.30952 0.75991 0.57854
 C42 C 1.24531 0.69630 0.40783
 O43 O 0.76751 0.57713 0.55976
 O44 O 0.81120 0.56260 0.44714
 O45 O 0.76966 0.57192 0.43227
 O46 O 0.81137 0.57230 0.57209
 O47 O 0.78316 0.52698 0.58351
 O48 O 0.74022 0.52701 0.44570
 O49 O 0.78157 0.51764 0.46004
 O50 O 0.73947 0.53200 0.57265
 Cu51 Cu 0.79273 0.57549 0.50111
 Cu52 Cu 0.75807 0.52144 0.51642
 C53 C 0.74613 0.55672 0.58658
 C54 C 0.80400 0.53742 0.43595
 C55 C 0.74761 0.54956 0.41548
 C56 C 0.80471 0.54976 0.60108
 O57 O 0.45853 0.24807 0.43519
 O58 O 0.47169 0.21031 0.56362
 O59 O 0.46016 0.24978 0.56329
 O60 O 0.47175 0.20965 0.43687
 O61 O 0.51702 0.24131 0.43522
 O62 O 0.50543 0.28114 0.56140
 O63 O 0.51707 0.24112 0.56020
 O64 O 0.50371 0.27968 0.43282
 Cu65 Cu 0.46100 0.22642 0.49988
 Cu66 Cu 0.51529 0.26425 0.49747
 C67 C 0.47882 0.27031 0.41180
 C68 C 0.49663 0.21860 0.58249
 C69 C 0.48097 0.27241 0.58407
 C70 C 0.49646 0.21828 0.41578
 O71 O 0.71678 0.24289 0.43600
 O72 O 0.76478 0.28849 0.56506
 O73 O 0.71631 0.24240 0.56285
 O74 O 0.76467 0.28999 0.43761
 O75 O 0.74229 0.31308 0.43878
 O76 O 0.69427 0.26583 0.56514
 O77 O 0.74353 0.31260 0.56516
 O78 O 0.69395 0.26553 0.43894
 Cu79 Cu 0.74287 0.26366 0.50013
 Cu80 Cu 0.71633 0.29164 0.50221
 C81 C 0.69669 0.24583 0.41678
 C82 C 0.76290 0.30880 0.58627
 C83 C 0.69669 0.24565 0.58440
 C84 C 0.76202 0.30996 0.41757
 N85 N 0.97617 0.53342 0.05601
 N86 N 0.95926 0.54309 0.06617
 N87 N 1.03319 0.54388 0.10933
 N88 N 1.05479 0.55681 0.14960
 N89 N 1.03493 0.56055 0.06208
 N90 N 1.05757 0.58543 0.06952
 N91 N 0.97401 0.51673 0.10362
 N92 N 0.95535 0.51450 0.14726
 C93 C 0.94608 0.53082 0.12275
 C94 C 1.06972 0.58274 0.12438
 N95 N 1.02973 0.47326 0.07583
 N96 N 1.04867 0.46676 0.09256
 N97 N 0.97075 0.46364 0.11077
 N98 N 0.94864 0.45118 0.14953
 N99 N 0.97095 0.44578 0.06924
 N100 N 0.94912 0.42063 0.07912
 N101 N 1.02985 0.49118 0.11764
 N102 N 1.04915 0.49772 0.16317
 Mn103 Mn 1.00188 0.50382 0.11109
 C104 C 1.06078 0.48242 0.14688
 C105 C 0.93534 0.42436 0.12919
 N106 N 1.03712 0.55855 -0.07892
 N107 N 1.05851 0.58383 -0.09006
 N108 N 0.97798 0.51293 -0.12644
 N109 N 0.95628 0.50346 -0.16635
 N110 N 0.97820 0.53088 -0.08468
 N111 N 0.95670 0.53434 -0.09555
 N112 N 1.03713 0.54071 -0.12062
 N113 N 1.05881 0.55325 -0.16065
 Mn114 Mn 1.00663 0.54612 -0.01148
 C115 C 1.07196 0.58012 -0.14084
 C116 C 0.94328 0.51707 -0.14680
 N117 N 0.97339 0.44373 -0.07195
 N118 N 0.95118 0.41860 -0.08049
 N119 N 1.03406 0.48833 -0.11264
 N120 N 1.05554 0.49491 -0.15139
 N121 N 1.03240 0.47142 -0.06613
 N122 N 1.05256 0.46558 -0.07291
 N123 N 0.97488 0.46050 -0.11861
 N124 N 0.95353 0.44743 -0.15953
 Mn125 Mn 1.00165 0.45823 0.00181
 Mn126 Mn 1.00603 0.50060 -0.12026
 Cl127 Cl 1.00404 0.50218 -0.00460
 C128 C 0.93900 0.42133 -0.13529
 C129 C 1.06691 0.48066 -0.12617
 N130 N 0.47367 0.44431 0.06455
 N131 N 0.47217 0.42000 0.06868
 N132 N 0.45639 0.48628 0.11339
 N133 N 0.44106 0.49169 0.15302
 N134 N 0.44095 0.46961 0.06576
 N135 N 0.41445 0.46290 0.07229
 N136 N 0.48865 0.46061 0.11318
 N137 N 0.49812 0.44819 0.15088
 C138 C 0.48759 0.42290 0.12305
 C139 C 0.41500 0.47699 0.12699
 N140 N 0.52557 0.55889 0.08789
 N141 N 0.52675 0.58278 0.09807
 N142 N 0.53866 0.51349 0.12666
 N143 N 0.55074 0.50429 0.16634
 N144 N 0.55713 0.53229 0.08667
 N145 N 0.58253 0.53659 0.09880
 N146 N 0.50685 0.53957 0.12661
 N147 N 0.49463 0.54962 0.16354
 Mn148 Mn 0.49757 0.50002 0.12053
 C149 C 0.50736 0.57659 0.14567
 C150 C 0.57805 0.51881 0.14875
 N151 N 0.44538 0.47491 -0.07529
 N152 N 0.41929 0.46742 -0.09106
 N153 N 0.49562 0.46928 -0.11717
 N154 N 0.50648 0.45935 -0.15868
 N155 N 0.47798 0.44974 -0.07727
 N156 N 0.47604 0.42577 -0.09144
 N157 N 0.46331 0.49490 -0.11391
 N158 N 0.45000 0.50176 -0.15637
 Mn159 Mn 0.45917 0.45922 -0.00565
 C160 C 0.42260 0.48456 -0.14141
 C161 C 0.49410 0.43224 -0.14233
 N162 N 0.56164 0.53782 -0.05514
 N163 N 0.58780 0.54345 -0.06199
 N164 N 0.51416 0.54845 -0.10054
 N165 N 0.50899 0.56314 -0.14248
 N166 N 0.53039 0.56433 -0.05273
 N167 N 0.53693 0.59034 -0.06129
 N168 N 0.54591 0.52225 -0.10391
 N169 N 0.56064 0.51643 -0.14447
 Mn170 Mn 0.54409 0.54865 0.01689
 Mn171 Mn 0.50468 0.50878 -0.10947
 Cl172 Cl 0.50137 0.50418 0.00548
 C173 C 0.58667 0.52989 -0.11817
 C174 C 0.52313 0.58917 -0.11712
 N175 N 0.44526 -0.03104 0.06597
 N176 N 0.42054 -0.05373 0.07488
 N177 N 0.48747 0.02964 0.10957
 N178 N 0.49229 0.04996 0.15029
 N179 N 0.46934 0.02673 0.06427
 N180 N 0.46102 0.04469 0.07332
 N181 N 0.46311 -0.02870 0.11148
 N182 N 0.45112 -0.05000 0.15206
 C183 C 0.42455 -0.06539 0.12861
 C184 C 0.47566 0.05915 0.12690
 N185 N 0.56063 0.03814 0.06717
 N186 N 0.58547 0.06073 0.07623
 N187 N 0.51819 -0.02165 0.11357
 N188 N 0.51322 -0.04122 0.15640
 N189 N 0.53619 -0.01977 0.06915
 N190 N 0.54426 -0.03778 0.08102
 N191 N 0.54264 0.03663 0.11124
 N192 N 0.55469 0.05833 0.15103
 Mn193 Mn 0.50286 0.00402 0.11232
 C194 C 0.58142 0.07318 0.12854
 C195 C 0.52960 -0.05112 0.13545
 N196 N 0.46962 0.02605 -0.07666
 N197 N 0.46119 0.04378 -0.08797
 N198 N 0.46341 -0.02990 -0.11978
 N199 N 0.45129 -0.05125 -0.16058
 N200 N 0.44545 -0.03174 -0.07530
 N201 N 0.42050 -0.05405 -0.08523
 N202 N 0.48801 0.02859 -0.12078
 N203 N 0.49296 0.04848 -0.16281
 Mn204 Mn 0.45714 -0.00256 -0.00542
 C205 C 0.47610 0.05778 -0.14148
 C206 C 0.42454 -0.06611 -0.13827
 N207 N 0.53599 -0.02093 -0.07226
 N208 N 0.54111 -0.04142 -0.07709
 N209 N 0.54301 0.03522 -0.11904
 N210 N 0.55516 0.05666 -0.15917
 N211 N 0.56079 0.03714 -0.07391
 N212 N 0.58562 0.05971 -0.08250
 N213 N 0.51829 -0.02313 -0.11800
 N214 N 0.51071 -0.04527 -0.15477
 Mn215 Mn 0.54870 0.00864 -0.00253
 Mn216 Mn 0.50323 0.00274 -0.12029
 Cl217 Cl 0.50299 0.00321 -0.00396
 C218 C 0.52523 -0.05639 -0.12901
 C219 C 0.58175 0.07171 -0.13573
 C220 C 1.16198 0.45489 0.36251
 C221 C 1.14316 0.45586 0.31833
 C222 C 1.12453 0.43192 0.28165
 C223 C 1.12494 0.40732 0.29047
 C224 C 1.14349 0.40639 0.33550
 C225 C 1.16222 0.43017 0.37176
 C226 C 1.10560 0.43291 0.23755
 C227 C 1.10462 0.45733 0.23102
 C228 C 1.12307 0.48112 0.26854
 C229 C 1.14244 0.48034 0.31120
 C230 C 1.12146 0.50519 0.26385
 C231 C 1.10134 0.50556 0.22354
 C232 C 1.08296 0.48213 0.18598
 C233 C 1.08498 0.45819 0.18897
 H234 H 1.17616 0.47332 0.39058
 H235 H 1.11076 0.38873 0.26294
 H236 H 1.14331 0.38713 0.34161
 H237 H 1.09131 0.41456 0.20933
 H238 H 1.15659 0.49863 0.33980
 H239 H 1.13540 0.52357 0.29234
 H240 H 1.10012 0.52421 0.22174
 H241 H 1.07060 0.43994 0.16062
 C242 C 0.49201 0.68944 0.33959
 C243 C 0.49878 0.67379 0.29783
 C244 C 0.52710 0.68401 0.28033
 C245 C 0.54815 0.70978 0.30469
 C246 C 0.54142 0.72472 0.34824
 C247 C 0.51333 0.71462 0.36703
 C248 C 0.53406 0.66787 0.24089
 C249 C 0.51322 0.64104 0.22140
 C250 C 0.48490 0.63077 0.23937
 C251 C 0.47779 0.64746 0.27599
 C252 C 0.46427 0.60351 0.22278
 C253 C 0.47176 0.58620 0.19111
 C254 C 0.49977 0.59608 0.17349
 C255 C 0.52037 0.62377 0.18702
 H256 H 0.47027 0.68117 0.35345
 H257 H 0.56997 0.71796 0.29179
 H258 H 0.55840 0.74414 0.36771
 H259 H 0.55582 0.67569 0.22786
 H260 H 0.45609 0.63944 0.28998
 H261 H 0.44250 0.59526 0.23626
 H262 H 0.45567 0.56493 0.18073
 H263 H 0.54209 0.63132 0.17417
 C264 C 0.32472 -0.20155 0.32768
 C265 C 0.34546 -0.17925 0.29118
 C266 C 0.37347 -0.17345 0.29246
 C267 C 0.37991 -0.19094 0.32753
 C268 C 0.35907 -0.21327 0.36325
 C269 C 0.33149 -0.21834 0.36497
 C270 C 0.39462 -0.14998 0.25981
 C271 C 0.38802 -0.13247 0.22520
 C272 C 0.35975 -0.13912 0.22127
 C273 C 0.33870 -0.16235 0.25462
 C274 C 0.35302 -0.12222 0.18462
 C275 C 0.37414 -0.09861 0.15319
 C276 C 0.40237 -0.09118 0.15906
 C277 C 0.40922 -0.10827 0.19481
 H278 H 0.30344 -0.20546 0.32820
 H279 H 0.40116 -0.18703 0.32841
 H280 H 0.36480 -0.22590 0.39170
 H281 H 0.41621 -0.14517 0.26200
 H282 H 0.31714 -0.16705 0.25281
 H283 H 0.33145 -0.12716 0.18062
 H284 H 0.36848 -0.08570 0.12567
 H285 H 0.43098 -0.10281 0.19864
 C286 C 0.84007 0.54840 0.34802
 C287 C 0.85710 0.54125 0.31192
 C288 C 0.85667 0.51635 0.32643
 C289 C 0.83876 0.49870 0.37534
 C290 C 0.82149 0.50561 0.40980
 C291 C 0.82209 0.53054 0.39697
 C292 C 0.87410 0.50943 0.29192
 C293 C 0.89165 0.52677 0.24202
 C294 C 0.89147 0.55121 0.22595
 C295 C 0.87442 0.55844 0.26138
 C296 C 0.90842 0.56806 0.17468
 C297 C 0.92564 0.56097 0.14025
 C298 C 0.92657 0.53717 0.15708
 C299 C 0.90939 0.52006 0.20793
 H300 H 0.84050 0.56755 0.33749
 H301 H 0.83807 0.47951 0.38692
 H302 H 0.80795 0.49160 0.44760
 H303 H 0.87395 0.49050 0.30377
 H304 H 0.87457 0.57736 0.24951
 H305 H 0.90846 0.58676 0.16134
 H306 H 0.93872 0.57450 0.10125
 H307 H 0.90980 0.50153 0.22083
 C308 C 0.49530 0.31039 0.33408
 C309 C 0.48978 0.32571 0.28844
 C310 C 0.46184 0.31602 0.26824
 C311 C 0.43998 0.29084 0.29302
 C312 C 0.44562 0.27582 0.33876
 C313 C 0.47324 0.28557 0.36046
 C314 C 0.45611 0.33201 0.22515
 C315 C 0.47791 0.35793 0.20329
 C316 C 0.50593 0.36733 0.22272
 C317 C 0.51170 0.35100 0.26429
 C318 C 0.52764 0.39351 0.20257
 C319 C 0.52152 0.41088 0.16676
 C320 C 0.49376 0.40217 0.14895
 C321 C 0.47206 0.37530 0.16528
 H322 H 0.51672 0.31814 0.35011
 H323 H 0.41844 0.28302 0.27799
 H324 H 0.42820 0.25671 0.35789
 H325 H 0.43461 0.32475 0.21053
 H326 H 0.53315 0.35846 0.27977
 H327 H 0.54921 0.40102 0.21684
 H328 H 0.53843 0.43156 0.15433
 H329 H 0.45055 0.36875 0.15248
 C330 C 0.68216 0.20869 0.33163
 C331 C 0.66125 0.18660 0.29452
 C332 C 0.63321 0.18065 0.29724
 C333 C 0.62688 0.19780 0.33448
 C334 C 0.64791 0.21996 0.37075
 C335 C 0.67555 0.22516 0.37096
 C336 C 0.61192 0.15735 0.26388
 C337 C 0.61839 0.14011 0.22731
 C338 C 0.64667 0.14690 0.22215
 C339 C 0.66786 0.16999 0.25604
 C340 C 0.65325 0.13024 0.18384
 C341 C 0.63200 0.10668 0.15208
 C342 C 0.60376 0.09908 0.15905
 C343 C 0.59706 0.11601 0.19633
 H344 H 0.70347 0.21268 0.33107
 H345 H 0.60557 0.19370 0.33673
 H346 H 0.64228 0.23228 0.40088
 H347 H 0.59031 0.15243 0.26711
 H348 H 0.68944 0.17478 0.25320
 H349 H 0.67482 0.13528 0.17891
 H350 H 0.63759 0.09395 0.12343
 H351 H 0.57531 0.11044 0.20115
 C352 C 0.47881 0.17857 -0.34465
 C353 C 0.48322 0.16033 -0.30678
 C354 C 0.51069 0.16515 -0.29892
 C355 C 0.53347 0.18911 -0.32600
 C356 C 0.52899 0.20759 -0.36250
 C357 C 0.50153 0.20210 -0.37408
 C358 C 0.51484 0.14580 -0.26482
 C359 C 0.49188 0.12205 -0.23721
 C360 C 0.46462 0.11815 -0.24215
 C361 C 0.46044 0.13710 -0.27750
 C362 C 0.44188 0.09521 -0.21196
 C363 C 0.44595 0.07602 -0.17793
 C364 C 0.47264 0.07902 -0.17506
 C365 C 0.49561 0.10210 -0.20468
 H366 H 0.45751 0.17415 -0.35177
 H367 H 0.55473 0.19335 -0.31980
 H368 H 0.54702 0.22552 -0.38402
 H369 H 0.53584 0.14915 -0.26003
 H370 H 0.43942 0.13369 -0.28252
 H371 H 0.42093 0.09207 -0.21476
 H372 H 0.42805 0.05836 -0.15523
 H373 H 0.51633 0.10465 -0.20164
 C374 C 0.70675 0.53807 -0.33724
 C375 C 0.68967 0.54167 -0.29271
 C376 C 0.69521 0.56865 -0.27801
 C377 C 0.71823 0.59166 -0.30763
 C378 C 0.73528 0.58792 -0.35215
 C379 C 0.72960 0.56104 -0.36805
 C380 C 0.67734 0.57204 -0.23499
 C381 C 0.65376 0.54868 -0.20769
 C382 C 0.64863 0.52174 -0.22217
 C383 C 0.66677 0.51847 -0.26380
 C384 C 0.62478 0.49831 -0.19686
 C385 C 0.60538 0.50138 -0.16013
 C386 C 0.60988 0.52786 -0.14645
 C387 C 0.63446 0.55158 -0.16867
 H388 H 0.70195 0.51713 -0.34808
 H389 H 0.72290 0.61255 -0.29687
 H390 H 0.75274 0.60611 -0.37450
 H391 H 0.68134 0.59272 -0.22423
 H392 H 0.66257 0.49776 -0.27524
 H393 H 0.62056 0.47757 -0.20760
 H394 H 0.58638 0.48296 -0.14366
 H395 H 0.63760 0.57202 -0.15917
 C396 C 0.80269 0.32208 -0.33982
 C397 C 0.82441 0.34197 -0.29986
 C398 C 0.82706 0.36816 -0.28986
 C399 C 0.80691 0.37335 -0.31653
 C400 C 0.78490 0.35319 -0.35482
 C401 C 0.78299 0.32765 -0.36881
 C402 C 0.84999 0.38885 -0.25422
 C403 C 0.86996 0.38342 -0.22715
 C404 C 0.86634 0.35665 -0.23367
 C405 C 0.84376 0.33619 -0.27060
 C406 C 0.88562 0.35093 -0.20383
 C407 C 0.90872 0.37176 -0.16942
 C408 C 0.91326 0.39874 -0.16584
 C409 C 0.89367 0.40441 -0.19419
 H410 H 0.80136 0.30237 -0.34874
 H411 H 0.80840 0.39318 -0.30859
 H412 H 0.77009 0.35819 -0.37580
 H413 H 0.85245 0.40921 -0.24808
 H414 H 0.84143 0.31590 -0.27710
 H415 H 0.88299 0.33045 -0.20769
 H416 H 0.92363 0.36708 -0.14769
 H417 H 0.89693 0.42515 -0.19053
 C418 C 0.50192 -0.18984 -0.31600
 C419 C 0.50072 -0.16862 -0.28234
 C420 C 0.47920 -0.16307 -0.29741
 C421 C 0.45854 -0.17966 -0.34361
 C422 C 0.45976 -0.20090 -0.37652
 C423 C 0.48192 -0.20557 -0.36449
 C424 C 0.47926 -0.14041 -0.26794
 C425 C 0.50065 -0.12317 -0.22382
 C426 C 0.52159 -0.12933 -0.20691
 C427 C 0.52144 -0.15207 -0.23614
 C428 C 0.54272 -0.11222 -0.16214
 C429 C 0.54357 -0.08878 -0.13569
 C430 C 0.52344 -0.08197 -0.15398
 C431 C 0.50178 -0.09949 -0.19741
 H432 H 0.51912 -0.19331 -0.30655
 H433 H 0.44216 -0.17544 -0.35636
 H434 H 0.44438 -0.21247 -0.41438
 H435 H 0.46313 -0.13577 -0.28066
 H436 H 0.53786 -0.15643 -0.22427
 H437 H 0.55883 -0.11672 -0.14833
 H438 H 0.56034 -0.07563 -0.10202
 H439 H 0.48595 -0.09457 -0.21116
 C440 C 0.29207 0.45566 -0.35616
 C441 C 0.31208 0.45654 -0.31267
 C442 C 0.30766 0.43176 -0.28371
 C443 C 0.28332 0.40644 -0.29939
 C444 C 0.26372 0.40562 -0.34398
 C445 C 0.26781 0.43020 -0.37299
 C446 C 0.32786 0.43266 -0.24054
 C447 C 0.35280 0.45794 -0.22769
 C448 C 0.35730 0.48263 -0.25764
 C449 C 0.33674 0.48184 -0.29899
 C450 C 0.38264 0.50767 -0.24707
 C451 C 0.40366 0.50819 -0.20850
 C452 C 0.39943 0.48388 -0.17835
 C453 C 0.37374 0.45885 -0.18705
 H454 H 0.29584 0.47490 -0.37799
 H455 H 0.27960 0.38720 -0.27781
 H456 H 0.24532 0.38567 -0.35550
 H457 H 0.32448 0.41364 -0.21824
 H458 H 0.34024 0.50082 -0.32178
 H459 H 0.38644 0.52674 -0.26983
 H460 H 0.42334 0.52766 -0.20226
 H461 H 0.37057 0.43996 -0.16454
 C462 C 1.20525 0.68125 -0.34978
 C463 C 1.18411 0.66105 -0.30972
 C464 C 1.18254 0.63535 -0.29986
 C465 C 1.20311 0.63094 -0.32714
 C466 C 1.22453 0.65142 -0.36572
 C467 C 1.22541 0.67649 -0.37920
 C468 C 1.16023 0.61437 -0.26367
 C469 C 1.13983 0.61903 -0.23608
 C470 C 1.14236 0.64533 -0.24282
 C471 C 1.16430 0.66606 -0.28015
 C472 C 1.12266 0.65034 -0.21271
 C473 C 1.10025 0.62929 -0.17757
 C474 C 1.09684 0.60277 -0.17338
 C475 C 1.11680 0.59777 -0.20226
 H476 H 1.20579 0.70059 -0.35838
 H477 H 1.20244 0.61150 -0.31939
 H478 H 1.23974 0.64706 -0.38709
 H479 H 1.15863 0.59440 -0.25746
 H480 H 1.16582 0.68598 -0.28666
 H481 H 1.12444 0.67045 -0.21681
 H482 H 1.08504 0.63347 -0.15545
 H483 H 1.11440 0.57737 -0.19825
 C484 C 0.82514 0.52644 -0.33583
 C485 C 0.84529 0.52765 -0.29233
 C486 C 0.86265 0.55235 -0.25655
 C487 C 0.85934 0.57533 -0.26455
 C488 C 0.83990 0.57427 -0.30977
 C489 C 0.82292 0.54995 -0.34620
 C490 C 0.88379 0.55409 -0.21558
 C491 C 0.88863 0.53191 -0.21235
 C492 C 0.87123 0.50722 -0.24825
 C493 C 0.84928 0.50502 -0.28676
 C494 C 0.87681 0.48554 -0.24723
 C495 C 0.90008 0.48871 -0.21318
 C496 C 0.91764 0.51324 -0.17807
 C497 C 0.91140 0.53450 -0.17628
 H498 H 0.81233 0.50773 -0.36444
 H499 H 0.87246 0.59443 -0.23760
 H500 H 0.83840 0.59259 -0.31698
 H501 H 0.89726 0.57311 -0.18857
 H502 H 0.83613 0.48618 -0.31469
 H503 H 0.86373 0.46650 -0.27445
 H504 H 0.90453 0.47204 -0.21481
 H505 H 0.92507 0.55356 -0.14966
 C506 C 0.49839 0.31630 -0.35163
 C507 C 0.49410 0.33287 -0.30716
 C508 C 0.46792 0.32195 -0.27517
 C509 C 0.44652 0.29450 -0.28811
 C510 C 0.45082 0.27826 -0.33337
 C511 C 0.47671 0.28905 -0.36585
 C512 C 0.46338 0.33885 -0.23207
 C513 C 0.48445 0.36674 -0.22211
 C514 C 0.51062 0.37753 -0.25433
 C515 C 0.51540 0.36044 -0.29574
 C516 C 0.53135 0.40554 -0.24626
 C517 C 0.52594 0.42302 -0.20855
 C518 C 0.49999 0.41269 -0.17687
 C519 C 0.47949 0.38435 -0.18243
 H520 H 0.51843 0.32494 -0.37650
 H521 H 0.42631 0.28575 -0.26410
 H522 H 0.43379 0.25729 -0.34321
 H523 H 0.44324 0.33054 -0.20783
 H524 H 0.53543 0.36884 -0.32060
 H525 H 0.55149 0.41413 -0.27058
 H526 H 0.54203 0.44479 -0.20465
 H527 H 0.45933 0.37636 -0.15857
 C528 C 0.68233 0.20799 -0.33295
 C529 C 0.66148 0.18576 -0.29658
 C530 C 0.63350 0.18004 -0.29827
 C531 C 0.62719 0.19756 -0.33364
 C532 C 0.64817 0.21987 -0.36917
 C533 C 0.67570 0.22481 -0.37046
 C534 C 0.61224 0.15659 -0.26582
 C535 C 0.61871 0.13900 -0.23116
 C536 C 0.64694 0.14556 -0.22686
 C537 C 0.66810 0.16879 -0.25988
 C538 C 0.65351 0.12854 -0.19025
 C539 C 0.63225 0.10487 -0.15931
 C540 C 0.60407 0.09755 -0.16559
 C541 C 0.59739 0.11478 -0.20118
 H542 H 0.70358 0.21183 -0.33325
 H543 H 0.60592 0.19365 -0.33505
 H544 H 0.64257 0.23252 -0.39796
 H545 H 0.59067 0.15185 -0.26831
 H546 H 0.68963 0.17343 -0.25780
 H547 H 0.67504 0.13340 -0.18598
 H548 H 0.63778 0.09185 -0.13185
 H549 H 0.57566 0.10939 -0.20530
 C550 C 1.16960 0.45517 -0.33818
 C551 C 1.15135 0.45576 -0.29154
 C552 C 1.13066 0.43080 -0.26180
 C553 C 1.12889 0.40569 -0.27875
 C554 C 1.14687 0.40521 -0.32610
 C555 C 1.16719 0.42987 -0.35677
 C556 C 1.11159 0.43124 -0.21724
 C557 C 1.11236 0.45621 -0.20383
 C558 C 1.13324 0.48118 -0.23345
 C559 C 1.15288 0.48086 -0.27606
 C560 C 1.13343 0.50592 -0.22229
 C561 C 1.11230 0.50573 -0.18494
 C562 C 1.09117 0.48102 -0.15636
 C563 C 1.09176 0.45644 -0.16407
 H564 H 1.18513 0.47435 -0.36146
 H565 H 1.11321 0.38634 -0.25644
 H566 H 1.14466 0.38545 -0.33920
 H567 H 1.09552 0.41204 -0.19499
 H568 H 1.16867 0.49999 -0.29915
 H569 H 1.14924 0.52520 -0.24462
 H570 H 1.11208 0.52484 -0.17948
 H571 H 1.07518 0.43726 -0.14290
 C572 C 0.51203 0.69866 -0.33760
 C573 C 0.50953 0.67694 -0.29807
 C574 C 0.48425 0.65081 -0.29898
 C575 C 0.46154 0.64713 -0.33664
 C576 C 0.46387 0.66888 -0.37429
 C577 C 0.48925 0.69477 -0.37656
 C578 C 0.48201 0.62863 -0.26261
 C579 C 0.50451 0.63228 -0.22397
 C580 C 0.52937 0.65868 -0.22019
 C581 C 0.53186 0.68080 -0.25785
 C582 C 0.55136 0.66235 -0.17916
 C583 C 0.54896 0.63992 -0.14355
 C584 C 0.52481 0.61342 -0.14955
 C585 C 0.50257 0.60979 -0.18938
 H586 H 0.53163 0.71849 -0.33780
 H587 H 0.44194 0.62732 -0.33731
 H588 H 0.44580 0.66498 -0.40318
 H589 H 0.46277 0.60848 -0.26457
 H590 H 0.55113 0.70091 -0.25604
 H591 H 0.57048 0.68246 -0.17508
 H592 H 0.56634 0.64308 -0.11301
 H593 H 0.48374 0.58942 -0.19350
 C594 C 0.32372 -0.20112 -0.34167
 C595 C 0.34409 -0.17959 -0.30241
 C596 C 0.37087 -0.17655 -0.29497
 C597 C 0.37621 -0.19608 -0.32390
 C598 C 0.35580 -0.21750 -0.36287
 C599 C 0.32966 -0.21979 -0.37351
 C600 C 0.39199 -0.15377 -0.25998
 C601 C 0.38652 -0.13418 -0.23171
 C602 C 0.35922 -0.13817 -0.23602
 C603 C 0.33825 -0.16073 -0.27170
 C604 C 0.35342 -0.11930 -0.20526
 C605 C 0.37462 -0.09629 -0.17184
 C606 C 0.40207 -0.09142 -0.17006
 C607 C 0.40794 -0.11051 -0.19967
 H608 H 0.30348 -0.20290 -0.34874
 H609 H 0.39632 -0.19451 -0.31734
 H610 H 0.36086 -0.23171 -0.38650
 H611 H 0.41273 -0.15108 -0.25557
 H612 H 0.31754 -0.16335 -0.27640
 H613 H 0.33256 -0.12220 -0.20749
 H614 H 0.36976 -0.08178 -0.14903
 H615 H 0.42906 -0.10699 -0.19744
 C616 C 0.51716 -0.17427 0.34895
 C617 C 0.51541 -0.15378 0.31315
 C618 C 0.49107 -0.15174 0.31852
 C619 C 0.46868 -0.17052 0.35779
 C620 C 0.47025 -0.19121 0.39153
 C621 C 0.49447 -0.19317 0.38792
 C622 C 0.48937 -0.13100 0.28462
 C623 C 0.51143 -0.11251 0.24413
 C624 C 0.53544 -0.11493 0.23679
 C625 C 0.53742 -0.13538 0.27192
 C626 C 0.55701 -0.09680 0.19436
 C627 C 0.55490 -0.07634 0.16019
 C628 C 0.53145 -0.07339 0.16886
 C629 C 0.50975 -0.09161 0.21074
 H630 H 0.53583 -0.17580 0.34583
 H631 H 0.44996 -0.16919 0.36252
 H632 H 0.45266 -0.20538 0.42193
 H633 H 0.47081 -0.12933 0.28954
 H634 H 0.55597 -0.13706 0.26695
 H635 H 0.57549 -0.09842 0.18768
 H636 H 0.57186 -0.06246 0.12800
 H637 H 0.49142 -0.08966 0.21701
 C638 C 0.28564 0.45249 0.33632
 C639 C 0.30450 0.45247 0.29061
 C640 C 0.30001 0.42702 0.26516
 C641 C 0.27635 0.40202 0.28521
 C642 C 0.25785 0.40219 0.33157
 C643 C 0.26250 0.42738 0.35821
 C644 C 0.31967 0.42697 0.22178
 C645 C 0.34418 0.45201 0.20528
 C646 C 0.34838 0.47744 0.23049
 C647 C 0.32831 0.47753 0.27193
 C648 C 0.37321 0.50236 0.21618
 C649 C 0.39433 0.50202 0.18008
 C650 C 0.39072 0.47695 0.15597
 C651 C 0.36525 0.45202 0.16677
 H652 H 0.28952 0.47209 0.35635
 H653 H 0.27250 0.38230 0.26619
 H654 H 0.24012 0.38254 0.34728
 H655 H 0.31642 0.40743 0.20288
 H656 H 0.33179 0.49704 0.29169
 H657 H 0.37675 0.52200 0.23504
 H658 H 0.41384 0.52135 0.17192
 H659 H 0.36263 0.43258 0.14897
 C660 C 1.20750 0.68247 0.32368
 C661 C 1.18509 0.66194 0.28644
 C662 C 1.17918 0.63423 0.28798
 C663 C 1.19668 0.62784 0.32386
 C664 C 1.21915 0.64846 0.36011
 C665 C 1.22430 0.67575 0.36174
 C666 C 1.15554 0.61326 0.25490
 C667 C 1.13792 0.61971 0.21967
 C668 C 1.14465 0.64764 0.21526
 C669 C 1.16810 0.66856 0.24902
 C670 C 1.12752 0.65410 0.17793
 C671 C 1.10355 0.63301 0.14661
 C672 C 1.09605 0.60513 0.15333
 C673 C 1.11346 0.59861 0.18938
 H674 H 1.21148 0.70353 0.32422
 H675 H 1.19260 0.60676 0.32511
 H676 H 1.23175 0.64277 0.38923
 H677 H 1.15063 0.59189 0.25740
 H678 H 1.17286 0.68989 0.24697
 H679 H 1.13251 0.67541 0.17350
 H680 H 1.09039 0.63839 0.11879
 H681 H 1.10794 0.57712 0.19383
 C682 C 0.47967 0.18020 0.33256
 C683 C 0.48387 0.16164 0.29507
 C684 C 0.51022 0.16336 0.29672
 C685 C 0.53231 0.18446 0.33330
 C686 C 0.52807 0.20310 0.36973
 C687 C 0.50159 0.20073 0.37084
 C688 C 0.51392 0.14370 0.26281
 C689 C 0.49169 0.12254 0.22660
 C690 C 0.46576 0.12164 0.22237
 C691 C 0.46196 0.14108 0.25698
 C692 C 0.44393 0.10105 0.18417
 C693 C 0.44750 0.08115 0.15164
 C694 C 0.47273 0.08122 0.15788
 C695 C 0.49486 0.10208 0.19499
 H696 H 0.45925 0.17841 0.33275
 H697 H 0.55270 0.18623 0.33472
 H698 H 0.54525 0.21872 0.39910
 H699 H 0.53395 0.14467 0.26524
 H700 H 0.44188 0.14000 0.25489
 H701 H 0.42402 0.10019 0.17992
 H702 H 0.43024 0.06522 0.12304
 H703 H 0.51452 0.10240 0.19912
 C704 C 0.70285 0.52713 0.35101
 C705 C 0.68481 0.52865 0.30529
 C706 C 0.69413 0.55318 0.26844
 C707 C 0.72161 0.57559 0.27710
 C708 C 0.73929 0.57411 0.32367
 C709 C 0.72994 0.55007 0.36179
 C710 C 0.67554 0.55525 0.22533
 C711 C 0.64750 0.53341 0.22026
 C712 C 0.63842 0.50877 0.25669
 C713 C 0.65722 0.50638 0.29798
 C714 C 0.61033 0.48726 0.25335
 C715 C 0.59107 0.49055 0.21667
 C716 C 0.59961 0.51508 0.18130
 C717 C 0.62805 0.53621 0.18170
 H718 H 0.69535 0.50849 0.38015
 H719 H 0.72919 0.59453 0.24921
 H720 H 0.76014 0.59204 0.33068
 H721 H 0.68258 0.57420 0.19771
 H722 H 0.65006 0.48759 0.32640
 H723 H 0.60303 0.46826 0.28085
 H724 H 0.56926 0.47398 0.21698
 H725 H 0.63471 0.55527 0.15490
 C726 C 0.80019 0.32412 0.33446
 C727 C 0.82209 0.34462 0.29638
 C728 C 0.82701 0.37200 0.29618
 C729 C 0.80916 0.37808 0.33158
 C730 C 0.78723 0.35749 0.36874
 C731 C 0.78294 0.33054 0.37173
 C732 C 0.84998 0.39297 0.26171
 C733 C 0.86797 0.38686 0.22692
 C734 C 0.86231 0.35923 0.22464
 C735 C 0.83949 0.33831 0.25965
 C736 C 0.87987 0.35308 0.18811
 C737 C 0.90321 0.37421 0.15544
 C738 C 0.90961 0.40185 0.15973
 C739 C 0.89175 0.40802 0.19500
 H740 H 0.79690 0.30333 0.33603
 H741 H 0.81249 0.39889 0.33157
 H742 H 0.77427 0.36295 0.39716
 H743 H 0.85409 0.41408 0.26272
 H744 H 0.83552 0.31724 0.25905
 H745 H 0.87573 0.33199 0.18537
 H746 H 0.91671 0.36905 0.12834
 H747 H 0.89641 0.42930 0.19775
   
