data_POSCAR
  _audit_creation_date              2014-09-24
  _audit_creation_method            'ToBaCCo'
  _symmetry_space_group_name_H-M    'P1'
  _symmetry_Int_Tables_number       1
  _symmetry_cell_setting            triclinic
  loop_
  _symmetry_equiv_pos_as_xyz
 x,y,z
_cell_length_a 44.8842
_cell_length_b 44.8867
_cell_length_c 42.6126
_cell_angle_alpha 89.971300
_cell_angle_beta 89.978100
_cell_angle_gamma 89.975000
loop_
  _atom_site_label
  _atom_site_type_symbol
  _atom_site_fract_x
  _atom_site_fract_y
  _atom_site_fract_z
O1 O -0.03562 0.28585 0.02749
 O2 O 0.02324 0.28621 -0.03265
 O3 O -0.03462 0.28451 -0.03353
 O4 O 0.02237 0.28704 0.02855
 O5 O 0.02359 0.23794 0.02948
 O6 O -0.03337 0.23540 -0.03253
 O7 O 0.02450 0.23715 -0.03174
 O8 O -0.03443 0.23674 0.02850
 Cu9 Cu -0.00625 0.29082 -0.00261
 Cu10 Cu -0.00476 0.23189 -0.00144
 C11 C -0.04517 0.26125 0.03826
 C12 C 0.03389 0.26177 -0.04272
 C13 C -0.04374 0.25951 -0.04369
 C14 C 0.03270 0.26290 0.03970
 O15 O 0.53567 0.78571 0.47215
 O16 O 0.47721 0.78621 0.53272
 O17 O 0.53511 0.78446 0.53319
 O18 O 0.47765 0.78685 0.47150
 O19 O 0.47649 0.73774 0.47074
 O20 O 0.53389 0.73534 0.53236
 O21 O 0.47598 0.73710 0.53199
 O22 O 0.53453 0.73659 0.47131
 Cu23 Cu 0.50649 0.79072 0.50245
 Cu24 Cu 0.50507 0.73177 0.50149
 C25 C 0.54517 0.76109 0.46139
 C26 C 0.46669 0.76177 0.54287
 C27 C 0.54433 0.75948 0.54336
 C28 C 0.46727 0.76267 0.46050
 O29 O 0.97713 0.71044 -0.02889
 O30 O 1.03586 0.71269 0.03136
 O31 O 0.97789 0.71156 0.03225
 O32 O 1.03523 0.71204 -0.02962
 O33 O 1.03398 0.76111 -0.03039
 O34 O 0.97674 0.76067 0.03141
 O35 O 1.03469 0.76181 0.03058
 O36 O 0.97591 0.75950 -0.02970
 Cu37 Cu 1.00661 0.70677 0.00132
 Cu38 Cu 1.00518 0.76568 0.00036
 C39 C 0.96637 0.73456 -0.03967
 C40 C 1.04538 0.73763 0.04126
 C41 C 0.96755 0.73606 0.04249
 C42 C 1.04461 0.73669 -0.04054
 O43 O 0.46395 0.21173 0.46806
 O44 O 0.52277 0.20930 0.52815
 O45 O 0.46468 0.21092 0.52904
 O46 O 0.52190 0.21067 0.46702
 O47 O 0.52299 0.25978 0.46798
 O48 O 0.46588 0.26003 0.52990
 O49 O 0.52394 0.25841 0.52907
 O50 O 0.46505 0.26085 0.46895
 Cu51 Cu 0.49325 0.20573 0.49801
 Cu52 Cu 0.49461 0.26469 0.49910
 C53 C 0.45439 0.23669 0.45824
 C54 C 0.53346 0.23343 0.53888
 C55 C 0.45536 0.23556 0.53997
 C56 C 0.53219 0.23521 0.45683
 O57 O 0.71320 -0.03489 0.02912
 O58 O 0.71150 0.02415 -0.03073
 O59 O 0.71385 -0.03380 -0.03194
 O60 O 0.71189 0.02307 0.03037
 O61 O 0.76101 0.02451 0.03040
 O62 O 0.76296 -0.03220 -0.03176
 O63 O 0.76056 0.02574 -0.03069
 O64 O 0.76231 -0.03345 0.02930
 Cu65 Cu 0.70769 -0.00551 -0.00081
 Cu66 Cu 0.76663 -0.00369 -0.00068
 C67 C 0.73800 -0.04431 0.03948
 C68 C 0.73569 0.03512 -0.04106
 C69 C 0.73879 -0.04275 -0.04250
 C70 C 0.73616 0.03351 0.04106
 O71 O 0.21199 0.47775 0.53109
 O72 O 0.21289 0.53620 0.47041
 O73 O 0.21193 0.47820 0.46983
 O74 O 0.21296 0.53577 0.53138
 O75 O 0.26209 0.53490 0.53130
 O76 O 0.26106 0.47735 0.46976
 O77 O 0.26202 0.53534 0.47034
 O78 O 0.26111 0.47689 0.53101
 Cu79 Cu 0.20752 0.50700 0.50069
 Cu80 Cu 0.26649 0.50597 0.50060
 C81 C 0.23639 0.46738 0.54153
 C82 C 0.23762 0.54586 0.46006
 C83 C 0.23632 0.46799 0.45915
 C84 C 0.23771 0.54529 0.54179
 O85 O 0.28763 0.97764 -0.03068
 O86 O 0.28658 1.03622 0.02983
 O87 O 0.28769 0.97822 0.03057
 O88 O 0.28660 1.03564 -0.03113
 O89 O 0.23752 1.03474 -0.03111
 O90 O 0.23857 0.97731 0.03061
 O91 O 0.23745 1.03530 0.02984
 O92 O 0.23856 0.97674 -0.03065
 Cu93 Cu 0.29204 1.00695 -0.00036
 Cu94 Cu 0.23312 1.00587 -0.00033
 C95 C 0.26328 0.96717 -0.04119
 C96 C 0.26182 1.04588 0.04012
 C97 C 0.26332 0.96801 0.04126
 C98 C 0.26187 1.04519 -0.04166
 O99 O 0.78703 0.46472 0.46982
 O100 O 0.78918 0.52356 0.52977
 O101 O 0.78664 0.46561 0.53088
 O102 O 0.78842 0.52268 0.46867
 O103 O 0.73931 0.52427 0.46892
 O104 O 0.73753 0.46736 0.53097
 O105 O 0.74008 0.52531 0.53001
 O106 O 0.73791 0.46631 0.46991
 Cu107 Cu 0.79274 0.49398 0.49978
 Cu108 Cu 0.73379 0.49599 0.49997
 C109 C 0.76215 0.45542 0.45957
 C110 C 0.76504 0.53453 0.54018
 C111 C 0.76174 0.45669 0.54154
 C112 C 0.76411 0.53323 0.45813
 C113 C 0.23281 0.26822 0.24909
 C114 C 0.25424 0.24668 0.24900
 C115 C 0.25583 0.22373 0.22392
 C116 C 0.27716 0.24487 0.27407
 C117 C 0.23309 0.29293 0.27231
 C118 C 0.20797 0.26804 0.22607
 C119 C 0.25623 0.19340 0.23202
 C120 C 0.25744 0.17157 0.20869
 C121 C 0.25849 0.17981 0.17703
 C122 C 0.25859 0.21002 0.16878
 C123 C 0.25742 0.23189 0.19211
 C124 C 0.26893 0.24303 0.30584
 C125 C 0.29076 0.24172 0.32919
 C126 C 0.32097 0.24194 0.32099
 C127 C 0.32928 0.24323 0.28935
 C128 C 0.30749 0.24457 0.26600
 C129 C 0.25828 0.31124 0.27581
 C130 C 0.25861 0.33374 0.29848
 C131 C 0.23367 0.33838 0.31763
 C132 C 0.20827 0.32068 0.31374
 C133 C 0.20793 0.29815 0.29111
 C134 C 0.20274 0.29321 0.20728
 C135 C 0.18007 0.29292 0.18480
 C136 C 0.16226 0.26758 0.18109
 C137 C 0.16689 0.24266 0.20026
 C138 C 0.18953 0.24293 0.22277
 H139 H 0.25521 0.18666 0.25641
 H140 H 0.25743 0.14827 0.21534
 H141 H 0.25955 0.21665 0.14435
 H142 H 0.25772 0.25516 0.18539
 H143 H 0.24565 0.24265 0.31251
 H144 H 0.28410 0.24056 0.35360
 H145 H 0.31426 0.24579 0.24163
 H146 H 0.27771 0.30794 0.26114
 H147 H 0.27833 0.34740 0.30119
 H148 H 0.18883 0.32412 0.32837
 H149 H 0.18825 0.28439 0.28865
 H150 H 0.21660 0.31283 0.20961
 H151 H 0.17663 0.31234 0.17013
 H152 H 0.15314 0.22298 0.19767
 H153 H 0.19284 0.22351 0.23745
 H154 H 0.35260 0.24332 0.28276
 C155 C 0.76600 0.73543 0.25066
 C156 C 0.74445 0.75686 0.25063
 C157 C 0.74266 0.77963 0.22538
 C158 C 0.72158 0.75855 0.27579
 C159 C 0.76593 0.71072 0.27387
 C160 C 0.79068 0.73555 0.22743
 C161 C 0.74250 0.81002 0.23318
 C162 C 0.74154 0.83167 0.20962
 C163 C 0.74049 0.82317 0.17804
 C164 C 0.74004 0.79290 0.17011
 C165 C 0.74096 0.77122 0.19366
 C166 C 0.72987 0.76022 0.30756
 C167 C 0.70810 0.76103 0.33102
 C168 C 0.67786 0.76050 0.32296
 C169 C 0.66948 0.75948 0.29134
 C170 C 0.69122 0.75863 0.26787
 C171 C 0.74092 0.69218 0.27737
 C172 C 0.74097 0.66936 0.29971
 C173 C 0.76612 0.66467 0.31852
 C174 C 0.79132 0.68267 0.31469
 C175 C 0.79128 0.70550 0.29239
 C176 C 0.79593 0.71021 0.20892
 C177 C 0.81868 0.71025 0.18652
 C178 C 0.83655 0.73552 0.18257
 C179 C 0.83183 0.76067 0.20137
 C180 C 0.80910 0.76065 0.22382
 H181 H 0.74361 0.81695 0.25750
 H182 H 0.74180 0.85503 0.21602
 H183 H 0.73906 0.78607 0.14575
 H184 H 0.74049 0.74790 0.18718
 H185 H 0.75317 0.76074 0.31413
 H186 H 0.71484 0.76198 0.35541
 H187 H 0.68438 0.75753 0.24352
 H188 H 0.72137 0.69546 0.26288
 H189 H 0.72140 0.65547 0.30239
 H190 H 0.81091 0.67918 0.32908
 H191 H 0.81083 0.71943 0.28990
 H192 H 0.78209 0.69060 0.21149
 H193 H 0.82219 0.69066 0.17214
 H194 H 0.84563 0.78029 0.19860
 H195 H 0.80578 0.78020 0.23828
 H196 H 0.64615 0.75915 0.28484
 C197 C 0.73354 0.23544 0.24845
 C198 C 0.75502 0.25692 0.24843
 C199 C 0.77789 0.25865 0.22327
 C200 C 0.75677 0.27968 0.27366
 C201 C 0.70889 0.23549 0.27172
 C202 C 0.73368 0.21074 0.22529
 C203 C 0.80825 0.25881 0.23121
 C204 C 0.82999 0.25971 0.20775
 C205 C 0.82162 0.26069 0.17613
 C206 C 0.79139 0.26113 0.16804
 C207 C 0.76961 0.26027 0.19150
 C208 C 0.75858 0.27124 0.30538
 C209 C 0.75951 0.29290 0.32891
 C210 C 0.75895 0.32317 0.32097
 C211 C 0.75777 0.33170 0.28939
 C212 C 0.75681 0.31007 0.26584
 C213 C 0.69038 0.26053 0.27536
 C214 C 0.66767 0.26045 0.29783
 C215 C 0.66305 0.23527 0.31662
 C216 C 0.68102 0.21005 0.31264
 C217 C 0.70374 0.21011 0.29023
 C218 C 0.70836 0.20549 0.20675
 C219 C 0.70840 0.18265 0.18448
 C220 C 0.73365 0.16469 0.18071
 C221 C 0.75877 0.16942 0.19954
 C222 C 0.75874 0.19223 0.22185
 H223 H 0.81507 0.25774 0.25556
 H224 H 0.85332 0.25944 0.21427
 H225 H 0.78467 0.26205 0.14365
 H226 H 0.74631 0.26073 0.18490
 H227 H 0.75915 0.24791 0.31185
 H228 H 0.76060 0.28606 0.35327
 H229 H 0.75560 0.31700 0.24152
 H230 H 0.69363 0.28011 0.26091
 H231 H 0.65380 0.28003 0.30062
 H232 H 0.67758 0.19043 0.32701
 H233 H 0.71765 0.19054 0.28764
 H234 H 0.68877 0.21939 0.20921
 H235 H 0.68884 0.17913 0.17007
 H236 H 0.77837 0.15556 0.19689
 H237 H 0.77827 0.19556 0.23635
 H238 H 0.75743 0.35506 0.28299
 C239 C 0.26661 0.76824 0.25138
 C240 C 0.24510 0.74678 0.25123
 C241 C 0.22226 0.74519 0.22605
 C242 C 0.24332 0.72376 0.27623
 C243 C 0.29135 0.76788 0.27455
 C244 C 0.26646 0.79306 0.22830
 C245 C 0.19189 0.74485 0.23399
 C246 C 0.17018 0.74365 0.21054
 C247 C 0.17858 0.74254 0.17892
 C248 C 0.20882 0.74237 0.17084
 C249 C 0.23058 0.74354 0.19428
 C250 C 0.24158 0.73183 0.30805
 C251 C 0.24035 0.70989 0.33132
 C252 C 0.24053 0.67971 0.32299
 C253 C 0.24171 0.67156 0.29132
 C254 C 0.24298 0.69346 0.26805
 C255 C 0.30969 0.74268 0.27793
 C256 C 0.33229 0.74230 0.30050
 C257 C 0.33700 0.76719 0.31967
 C258 C 0.31926 0.79260 0.31590
 C259 C 0.29663 0.79300 0.29337
 C260 C 0.29167 0.79825 0.20955
 C261 C 0.29141 0.82084 0.18697
 C262 C 0.26605 0.83863 0.18307
 C263 C 0.24109 0.83404 0.20220
 C264 C 0.24133 0.81148 0.22483
 H265 H 0.18504 0.74592 0.25834
 H266 H 0.14684 0.74369 0.21706
 H267 H 0.21557 0.74135 0.14645
 H268 H 0.25388 0.74319 0.18770
 H269 H 0.24124 0.75508 0.31481
 H270 H 0.23930 0.71644 0.35576
 H271 H 0.24412 0.68680 0.24365
 H272 H 0.30635 0.72329 0.26324
 H273 H 0.34598 0.72257 0.30311
 H274 H 0.32276 0.81201 0.33055
 H275 H 0.28286 0.81269 0.29099
 H276 H 0.31131 0.78441 0.21200
 H277 H 0.31087 0.82425 0.17235
 H278 H 0.22140 0.84777 0.19948
 H279 H 0.22187 0.80819 0.23945
 H280 H 0.24178 0.64828 0.28462
 C281 C 0.75549 0.25337 0.74775
 C282 C 0.73392 0.23199 0.74804
 C283 C 0.71093 0.23021 0.72304
 C284 C 0.73227 0.20933 0.77341
 C285 C 0.78000 0.25360 0.77115
 C286 C 0.75566 0.27776 0.72417
 C287 C 0.68062 0.23045 0.73119
 C288 C 0.65875 0.22981 0.70787
 C289 C 0.66695 0.22866 0.67620
 C290 C 0.69713 0.22771 0.66793
 C291 C 0.71904 0.22832 0.69124
 C292 C 0.73055 0.21788 0.80510
 C293 C 0.73020 0.19631 0.82878
 C294 C 0.73123 0.16602 0.82101
 C295 C 0.73219 0.15737 0.78947
 C296 C 0.73258 0.17891 0.76578
 C297 C 0.79864 0.22871 0.77511
 C298 C 0.82126 0.22912 0.79764
 C299 C 0.82565 0.25451 0.81617
 C300 C 0.80752 0.27956 0.81189
 C301 C 0.78488 0.27916 0.78942
 C302 C 0.78123 0.28265 0.70588
 C303 C 0.78175 0.30548 0.68360
 C304 C 0.75682 0.32380 0.67953
 C305 C 0.73138 0.31934 0.69800
 C306 C 0.73084 0.29652 0.72034
 H307 H 0.67393 0.23174 0.75558
 H308 H 0.63546 0.23049 0.71453
 H309 H 0.70372 0.22668 0.64349
 H310 H 0.74230 0.22755 0.68450
 H311 H 0.72975 0.24123 0.81144
 H312 H 0.72930 0.20325 0.85311
 H313 H 0.73374 0.17188 0.74149
 H314 H 0.79557 0.20899 0.76083
 H315 H 0.83527 0.20967 0.80067
 H316 H 0.81078 0.29933 0.82605
 H317 H 0.77086 0.29862 0.78657
 H318 H 0.80065 0.26855 0.70864
 H319 H 0.80156 0.30879 0.66949
 H320 H 0.71202 0.33350 0.69514
 H321 H 0.71113 0.29349 0.73465
 H322 H 0.73291 0.13399 0.78320
 C323 C 0.24492 0.74444 0.75236
 C324 C 0.26653 0.76580 0.75261
 C325 C 0.29142 0.76547 0.72961
 C326 C 0.26623 0.79056 0.77576
 C327 C 0.22175 0.74278 0.77720
 C328 C 0.24334 0.72158 0.72720
 C329 C 0.30970 0.74022 0.72626
 C330 C 0.33222 0.73974 0.70358
 C331 C 0.33690 0.76457 0.68430
 C332 C 0.31927 0.79006 0.68810
 C333 C 0.29672 0.79056 0.71073
 C334 C 0.29137 0.79579 0.79458
 C335 C 0.29108 0.81850 0.81701
 C336 C 0.26576 0.83639 0.82070
 C337 C 0.24084 0.83171 0.80155
 C338 C 0.24111 0.80903 0.77908
 C339 C 0.19150 0.74241 0.76879
 C340 C 0.16945 0.74102 0.79189
 C341 C 0.17740 0.73974 0.82362
 C342 C 0.20753 0.73963 0.83217
 C343 C 0.22962 0.74099 0.80907
 C344 C 0.24181 0.72987 0.69542
 C345 C 0.24068 0.70809 0.67200
 C346 C 0.24076 0.67786 0.68013
 C347 C 0.24174 0.66948 0.71176
 C348 C 0.24291 0.69122 0.73518
 H349 H 0.30632 0.72085 0.74098
 H350 H 0.34584 0.71996 0.70095
 H351 H 0.32276 0.80942 0.67337
 H352 H 0.28298 0.81027 0.71308
 H353 H 0.31101 0.78193 0.79225
 H354 H 0.31052 0.82197 0.83163
 H355 H 0.22171 0.80574 0.76439
 H356 H 0.18499 0.74358 0.74435
 H357 H 0.14621 0.74106 0.78502
 H358 H 0.21392 0.73851 0.85666
 H359 H 0.25283 0.74065 0.81601
 H360 H 0.24153 0.75317 0.68881
 H361 H 0.23976 0.71481 0.64760
 H362 H 0.24174 0.64616 0.71830
 H363 H 0.24389 0.68440 0.75954
 H364 H 0.22118 0.84552 0.80409
 C365 C 0.25471 0.24340 0.74899
 C366 C 0.23321 0.26488 0.74891
 C367 C 0.23352 0.28970 0.72581
 C368 C 0.20842 0.26464 0.77203
 C369 C 0.25630 0.22048 0.77410
 C370 C 0.27776 0.24168 0.72403
 C371 C 0.25871 0.30804 0.72243
 C372 C 0.25900 0.33077 0.69999
 C373 C 0.23404 0.33560 0.68095
 C374 C 0.20865 0.31785 0.68471
 C375 C 0.20834 0.29509 0.70711
 C376 C 0.20330 0.28973 0.79095
 C377 C 0.18080 0.28934 0.81364
 C378 C 0.16304 0.26396 0.81746
 C379 C 0.16755 0.23912 0.79816
 C380 C 0.19002 0.23950 0.77543
 C381 C 0.25651 0.19014 0.76607
 C382 C 0.25767 0.16835 0.78945
 C383 C 0.25887 0.17665 0.82108
 C384 C 0.25918 0.20686 0.82925
 C385 C 0.25805 0.22870 0.80587
 C386 C 0.26973 0.24002 0.69219
 C387 C 0.29172 0.23861 0.66898
 C388 C 0.32188 0.23853 0.67738
 C389 C 0.32998 0.23966 0.70907
 C390 C 0.30804 0.24111 0.73228
 H391 H 0.27815 0.30462 0.73704
 H392 H 0.27871 0.34448 0.69739
 H393 H 0.18918 0.32145 0.67016
 H394 H 0.18865 0.28132 0.70949
 H395 H 0.21714 0.30937 0.78857
 H396 H 0.17745 0.30871 0.82838
 H397 H 0.19326 0.22013 0.76068
 H398 H 0.25537 0.18338 0.74170
 H399 H 0.25750 0.14504 0.78287
 H400 H 0.26025 0.21352 0.85366
 H401 H 0.25850 0.25198 0.81251
 H402 H 0.24649 0.23984 0.68537
 H403 H 0.28521 0.23761 0.64452
 H404 H 0.35325 0.23955 0.71583
 H405 H 0.31467 0.24218 0.75670
 H406 H 0.15383 0.21943 0.80081
 C407 C 0.74594 0.75423 0.75136
 C408 C 0.76762 0.73294 0.75138
 C409 C 0.76948 0.71015 0.72619
 C410 C 0.79052 0.73139 0.77652
 C411 C 0.74555 0.77874 0.77475
 C412 C 0.72152 0.75425 0.72782
 C413 C 0.76914 0.67978 0.73404
 C414 C 0.76956 0.65812 0.71049
 C415 C 0.77059 0.66662 0.67890
 C416 C 0.77171 0.69686 0.67093
 C417 C 0.77132 0.71855 0.69446
 C418 C 0.78230 0.72971 0.80831
 C419 C 0.80412 0.72922 0.83173
 C420 C 0.83435 0.73010 0.82360
 C421 C 0.84266 0.73107 0.79194
 C422 C 0.82088 0.73159 0.76852
 C423 C 0.77027 0.79762 0.77855
 C424 C 0.76959 0.82048 0.80081
 C425 C 0.74410 0.82486 0.81922
 C426 C 0.71925 0.80645 0.81515
 C427 C 0.71992 0.78358 0.79295
 C428 C 0.71653 0.77972 0.70942
 C429 C 0.69390 0.77997 0.68692
 C430 C 0.67588 0.75485 0.68273
 C431 C 0.68039 0.72953 0.70135
 C432 C 0.70301 0.72926 0.72392
 H433 H 0.76789 0.67288 0.75837
 H434 H 0.76877 0.63477 0.71691
 H435 H 0.77265 0.70368 0.64656
 H436 H 0.77214 0.74186 0.68797
 H437 H 0.75902 0.72896 0.81495
 H438 H 0.79744 0.72832 0.85614
 H439 H 0.82767 0.73272 0.74415
 H440 H 0.79003 0.79461 0.76431
 H441 H 0.78889 0.83470 0.80368
 H442 H 0.69940 0.80971 0.82922
 H443 H 0.70058 0.76940 0.79020
 H444 H 0.73044 0.79926 0.71221
 H445 H 0.69055 0.79971 0.67270
 H446 H 0.66647 0.71002 0.69841
 H447 H 0.70614 0.70961 0.73829
 H448 H 0.86598 0.73168 0.78538
 C449 C 0.26040 0.11507 0.10975
 C450 C 0.23367 0.10326 0.09835
 C451 C 0.23411 0.08072 0.07571
 C452 C 0.26135 0.06968 0.06418
 C453 C 0.28811 0.08172 0.07580
 C454 C 0.28761 0.10426 0.09844
 C455 C 0.25989 0.13809 0.13325
 C456 C 0.25933 0.15722 0.15310
 H457 H 0.21249 0.11144 0.10697
 H458 H 0.21312 0.07197 0.06726
 H459 H 0.30944 0.07373 0.06741
 H460 H 0.30844 0.11322 0.10714
 C461 C 0.76816 0.60285 0.61065
 C462 C 0.74068 0.59281 0.59931
 C463 C 0.73962 0.57061 0.57632
 C464 C 0.76607 0.55817 0.56438
 C465 C 0.79359 0.56850 0.57590
 C466 C 0.79459 0.59068 0.59888
 C467 C 0.76922 0.62546 0.63455
 C468 C 0.76998 0.64429 0.65470
 H469 H 0.72008 0.60207 0.60830
 H470 H 0.71809 0.56317 0.56796
 H471 H 0.81436 0.55940 0.56721
 H472 H 0.81598 0.59829 0.60752
 C473 C 0.73936 0.88709 0.10982
 C474 C 0.71220 0.89754 0.09807
 C475 C 0.71175 0.91981 0.07513
 C476 C 0.73853 0.93195 0.06363
 C477 C 0.76574 0.92123 0.07554
 C478 C 0.76612 0.89895 0.09849
 C479 C 0.73974 0.86441 0.13370
 C480 C 0.74004 0.84553 0.15383
 H481 H 0.69135 0.88853 0.10670
 H482 H 0.69043 0.92755 0.06647
 H483 H 0.78673 0.93009 0.06719
 H484 H 0.78728 0.89103 0.10746
 C485 C 0.23531 0.40015 0.61336
 C486 C 0.20852 0.41157 0.60163
 C487 C 0.20884 0.43341 0.57822
 C488 C 0.23602 0.44412 0.56621
 C489 C 0.26284 0.43247 0.57815
 C490 C 0.26246 0.41063 0.60156
 C491 C 0.23493 0.37756 0.63735
 C492 C 0.23455 0.35852 0.65732
 H493 H 0.18738 0.40359 0.61057
 H494 H 0.18781 0.44191 0.56956
 H495 H 0.28414 0.44023 0.56943
 H496 H 0.28333 0.40191 0.61045
 C497 C 0.88593 0.26111 0.10830
 C498 C 0.89657 0.28808 0.09624
 C499 C 0.91896 0.28815 0.07343
 C500 C 0.93104 0.26118 0.06236
 C501 C 0.92015 0.23416 0.07460
 C502 C 0.89775 0.23416 0.09742
 C503 C 0.86310 0.26108 0.13202
 C504 C 0.84410 0.26098 0.15204
 H505 H 0.88760 0.30907 0.10452
 H506 H 0.92684 0.30932 0.06450
 H507 H 0.92895 0.21303 0.06660
 H508 H 0.88969 0.21315 0.10663
 C509 C 0.40031 0.76281 0.61556
 C510 C 0.41179 0.78958 0.60387
 C511 C 0.43329 0.78926 0.58013
 C512 C 0.44360 0.76209 0.56772
 C513 C 0.43186 0.73527 0.57958
 C514 C 0.41035 0.73567 0.60334
 C515 C 0.37814 0.76326 0.63996
 C516 C 0.35945 0.76379 0.66029
 H517 H 0.40414 0.81073 0.61313
 H518 H 0.44187 0.81029 0.57155
 H519 H 0.43933 0.71399 0.57056
 H520 H 0.40158 0.71480 0.61219
 C521 C 0.11425 0.74009 0.11122
 C522 C 0.10242 0.76665 0.09936
 C523 C 0.08001 0.76589 0.07659
 C524 C 0.06912 0.73849 0.06538
 C525 C 0.08120 0.71190 0.07744
 C526 C 0.10360 0.71273 0.10021
 C527 C 0.13710 0.74090 0.13489
 C528 C 0.15611 0.74161 0.15486
 H529 H 0.11048 0.78796 0.10775
 H530 H 0.07121 0.78675 0.06779
 H531 H 0.07333 0.69045 0.06932
 H532 H 0.11258 0.69203 0.10927
 C533 C 0.60239 0.23047 0.60874
 C534 C 0.59183 0.25791 0.59780
 C535 C 0.56940 0.25890 0.57507
 C536 C 0.55723 0.23241 0.56296
 C537 C 0.56803 0.20492 0.57410
 C538 C 0.59046 0.20399 0.59684
 C539 C 0.62529 0.22953 0.63234
 C540 C 0.64437 0.22897 0.65225
 H541 H 0.60090 0.27854 0.60689
 H542 H 0.56160 0.28042 0.56700
 H543 H 0.55915 0.18412 0.56527
 H544 H 0.59846 0.18263 0.60518
 C545 C 0.73321 0.10244 0.88957
 C546 C 0.76057 0.09228 0.90109
 C547 C 0.76147 0.07008 0.92410
 C548 C 0.73490 0.05763 0.93598
 C549 C 0.70747 0.06818 0.92420
 C550 C 0.70670 0.09038 0.90120
 C551 C 0.73236 0.12502 0.86559
 C552 C 0.73173 0.14379 0.84535
 H553 H 0.78125 0.10147 0.89222
 H554 H 0.78302 0.06266 0.93247
 H555 H 0.68652 0.05929 0.93264
 H556 H 0.68539 0.09808 0.89241
 C557 C 0.23879 0.61491 0.39023
 C558 C 0.21162 0.60408 0.40161
 C559 C 0.21120 0.58158 0.42431
 C560 C 0.23801 0.56960 0.43592
 C561 C 0.26521 0.58065 0.42431
 C562 C 0.26556 0.60315 0.40162
 C563 C 0.23923 0.63792 0.36671
 C564 C 0.23973 0.65707 0.34688
 H565 H 0.19076 0.61301 0.39292
 H566 H 0.18990 0.57358 0.43275
 H567 H 0.28623 0.57193 0.43276
 H568 H 0.28672 0.61135 0.39294
 C569 C 0.26447 0.90092 0.88828
 C570 C 0.23733 0.91139 0.90005
 C571 C 0.23688 0.93326 0.92341
 C572 C 0.26368 0.94504 0.93543
 C573 C 0.29089 0.93423 0.92336
 C574 C 0.29123 0.91236 0.90000
 C575 C 0.26489 0.87832 0.86431
 C576 C 0.26526 0.85929 0.84434
 H577 H 0.21648 0.90265 0.89116
 H578 H 0.21547 0.94089 0.93197
 H579 H 0.31201 0.94263 0.93189
 H580 H 0.31238 0.90438 0.89108
 C581 C 0.76036 0.38699 0.38917
 C582 C 0.73367 0.39890 0.40063
 C583 C 0.73419 0.42113 0.42360
 C584 C 0.76147 0.43175 0.43539
 C585 C 0.78818 0.41956 0.42375
 C586 C 0.78759 0.39734 0.40080
 C587 C 0.75985 0.36435 0.36529
 C588 C 0.75946 0.34550 0.34516
 H589 H 0.71246 0.39105 0.39176
 H590 H 0.71325 0.43003 0.43207
 H591 H 0.80955 0.42722 0.43232
 H592 H 0.80838 0.38829 0.39206
 C593 C 0.09956 0.26254 0.88613
 C594 C 0.08801 0.28934 0.89761
 C595 C 0.06640 0.28914 0.92124
 C596 C 0.05595 0.26200 0.93383
 C597 C 0.06789 0.23514 0.92211
 C598 C 0.08951 0.23546 0.89846
 C599 C 0.12178 0.26288 0.86178
 C600 C 0.14050 0.26331 0.84148
 H601 H 0.09568 0.31044 0.88825
 H602 H 0.05788 0.31030 0.92953
 H603 H 0.06053 0.21379 0.93108
 H604 H 0.09835 0.21457 0.88976
 C605 C 0.61369 0.76089 0.39094
 C606 C 0.60306 0.78787 0.40297
 C607 C 0.58079 0.78795 0.42591
 C608 C 0.56881 0.76099 0.43712
 C609 C 0.57969 0.73396 0.42489
 C610 C 0.60197 0.73395 0.40195
 C611 C 0.63645 0.76085 0.36713
 C612 C 0.65541 0.76076 0.34708
 H613 H 0.61196 0.80885 0.39459
 H614 H 0.57293 0.80913 0.43483
 H615 H 0.57096 0.71283 0.43301
 H616 H 0.61003 0.71293 0.39277
 C617 C 0.89871 0.73185 0.89134
 C618 C 0.91062 0.70536 0.90325
 C619 C 0.93298 0.70620 0.92607
 C620 C 0.94385 0.73366 0.93738
 C621 C 0.93160 0.76020 0.92517
 C622 C 0.90924 0.75924 0.90236
 C623 C 0.87587 0.73098 0.86764
 C624 C 0.85686 0.73044 0.84766
 H625 H 0.90264 0.68402 0.89485
 H626 H 0.94172 0.68527 0.93478
 H627 H 0.93926 0.78178 0.93317
 H628 H 0.90019 0.77990 0.89327
 C629 C 0.38543 0.23930 0.38846
 C630 C 0.39613 0.21192 0.39938
 C631 C 0.41857 0.21104 0.42210
 C632 C 0.43062 0.23761 0.43419
 C633 C 0.41968 0.26504 0.42306
 C634 C 0.39724 0.26585 0.40034
 C635 C 0.36254 0.24017 0.36487
 C636 C 0.34350 0.24093 0.34496
 H637 H 0.38716 0.19124 0.39030
 H638 H 0.42648 0.18957 0.43017
 H639 H 0.42846 0.28588 0.43189
 H640 H 0.38913 0.28717 0.39201
 C641 C 0.74166 0.89025 0.88567
 C642 C 0.71422 0.90026 0.89716
 C643 C 0.71323 0.92216 0.92047
 C644 C 0.73973 0.93430 0.93259
 C645 C 0.76721 0.92415 0.92077
 C646 C 0.76814 0.90226 0.89747
 C647 C 0.74267 0.86741 0.86204
 C648 C 0.74342 0.84811 0.84241
 H649 H 0.69360 0.89108 0.88819
 H650 H 0.69173 0.92948 0.92905
 H651 H 0.78801 0.93303 0.92958
 H652 H 0.78950 0.89464 0.88875
 C653 C 0.23511 0.40194 0.38619
 C654 C 0.26227 0.41222 0.39809
 C655 C 0.26270 0.43368 0.42187
 C656 C 0.23590 0.44513 0.43409
 C657 C 0.20870 0.43462 0.42197
 C658 C 0.20834 0.41317 0.39819
 C659 C 0.23468 0.37972 0.36184
 C660 C 0.23426 0.36098 0.34158
 H661 H 0.28313 0.40365 0.38899
 H662 H 0.28401 0.44129 0.43066
 H663 H 0.18769 0.44298 0.43083
 H664 H 0.18718 0.40533 0.38917
 C665 C 0.26059 0.11228 0.88875
 C666 C 0.28776 0.10160 0.90022
 C667 C 0.28825 0.07936 0.92319
 C668 C 0.26145 0.06741 0.93508
 C669 C 0.23422 0.07837 0.92323
 C670 C 0.23385 0.10061 0.90027
 C671 C 0.26012 0.13510 0.86504
 C672 C 0.25963 0.15413 0.84508
 H673 H 0.30860 0.11048 0.89141
 H674 H 0.30966 0.07161 0.93160
 H675 H 0.21311 0.06984 0.93168
 H676 H 0.21269 0.10871 0.89150
 C677 C 0.76544 0.59989 0.38579
 C678 C 0.73828 0.58968 0.39777
 C679 C 0.73784 0.56795 0.42127
 C680 C 0.76463 0.55614 0.43312
 C681 C 0.79184 0.56651 0.42086
 C682 C 0.79221 0.58826 0.39735
 C683 C 0.76579 0.62252 0.36188
 C684 C 0.76596 0.64164 0.34200
 H685 H 0.71743 0.59857 0.38901
 H686 H 0.71652 0.56046 0.43018
 H687 H 0.81284 0.55788 0.42947
 H688 H 0.81336 0.59605 0.38825
 C689 C 0.11221 0.73771 0.89041
 C690 C 0.10015 0.76447 0.90141
 C691 C 0.07770 0.76417 0.92414
 C692 C 0.06691 0.73699 0.93628
 C693 C 0.07921 0.71016 0.92487
 C694 C 0.10167 0.71058 0.90212
 C695 C 0.13532 0.73817 0.86702
 C696 C 0.15460 0.73877 0.84732
 H697 H 0.10814 0.78560 0.89245
 H698 H 0.06891 0.78530 0.93221
 H699 H 0.07160 0.68878 0.93352
 H700 H 0.11084 0.68973 0.89371
 C701 C 0.59861 0.23529 0.38424
 C702 C 0.58826 0.26223 0.39664
 C703 C 0.56663 0.26222 0.42024
 C704 C 0.55506 0.23521 0.43177
 C705 C 0.56558 0.20823 0.41910
 C706 C 0.58723 0.20831 0.39550
 C707 C 0.62112 0.23534 0.36020
 C708 C 0.64013 0.23535 0.34022
 H709 H 0.59696 0.28325 0.38811
 H710 H 0.55901 0.28337 0.42947
 H711 H 0.55714 0.18707 0.42745
 H712 H 0.59512 0.18732 0.38608
 C713 C 0.88998 0.25645 0.88376
 C714 C 0.90151 0.22999 0.89616
 C715 C 0.92311 0.23095 0.91977
 C716 C 0.93343 0.25846 0.93129
 C717 C 0.92172 0.28494 0.91861
 C718 C 0.90013 0.28391 0.89501
 C719 C 0.86752 0.25548 0.85973
 C720 C 0.84854 0.25488 0.83975
 H721 H 0.89377 0.20861 0.88764
 H722 H 0.93167 0.21017 0.92901
 H723 H 0.92919 0.30646 0.92695
 H724 H 0.89130 0.30453 0.88559
 C725 C 0.40092 0.76514 0.38785
 C726 C 0.41234 0.79170 0.40010
 C727 C 0.43391 0.79095 0.42377
 C728 C 0.44435 0.76355 0.43551
 C729 C 0.43272 0.73696 0.42301
 C730 C 0.41115 0.73778 0.39935
 C731 C 0.37857 0.76592 0.36363
 C732 C 0.35972 0.76652 0.34349
 H733 H 0.40455 0.81301 0.39139
 H734 H 0.44240 0.81181 0.43286
 H735 H 0.44027 0.71550 0.43150
 H736 H 0.40245 0.71708 0.39006
 C737 C 0.26462 0.90212 0.11443
 C738 C 0.23744 0.91235 0.10248
 C739 C 0.23698 0.93375 0.07863
 C740 C 0.26377 0.94520 0.06639
 C741 C 0.29098 0.93476 0.07856
 C742 C 0.29138 0.91336 0.10241
 C743 C 0.26508 0.87995 0.13883
 C744 C 0.26550 0.86123 0.15912
 H745 H 0.21660 0.90377 0.11159
 H746 H 0.21566 0.94132 0.06980
 H747 H 0.31199 0.94311 0.06968
 H748 H 0.31255 0.90556 0.11147
 C749 C 0.75903 0.38936 0.61315
 C750 C 0.73254 0.40152 0.60152
 C751 C 0.73341 0.42351 0.57831
 C752 C 0.76085 0.43363 0.56638
 C753 C 0.78738 0.42133 0.57831
 C754 C 0.78644 0.39934 0.60154
 C755 C 0.75808 0.36643 0.63673
 C756 C 0.75739 0.34708 0.65633
 H757 H 0.71120 0.39393 0.61033
 H758 H 0.71259 0.43250 0.56964
 H759 H 0.80886 0.42863 0.56964
 H760 H 0.80709 0.39004 0.61036
 C761 C 0.73458 0.10000 0.11346
 C762 C 0.76179 0.08974 0.10164
 C763 C 0.76231 0.06806 0.07812
 C764 C 0.73556 0.05635 0.06610
 C765 C 0.70831 0.06677 0.07820
 C766 C 0.70785 0.08847 0.10174
 C767 C 0.73414 0.12259 0.13737
 C768 C 0.73389 0.14169 0.15724
 H769 H 0.78261 0.09855 0.11054
 H770 H 0.78366 0.06052 0.06933
 H771 H 0.68734 0.05822 0.06946
 H772 H 0.68667 0.09630 0.11071
 C773 C 0.23900 0.61356 0.61240
 C774 C 0.21182 0.60285 0.60099
 C775 C 0.21136 0.58058 0.57805
 C776 C 0.23814 0.56873 0.56623
 C777 C 0.26536 0.57965 0.57789
 C778 C 0.26576 0.60192 0.60082
 C779 C 0.23948 0.63638 0.63611
 C780 C 0.23999 0.65538 0.65608
 H781 H 0.19097 0.61169 0.60982
 H782 H 0.19004 0.57268 0.56958
 H783 H 0.28637 0.57103 0.56929
 H784 H 0.28693 0.61004 0.60952
 C785 C 0.90103 0.73585 0.11498
 C786 C 0.91134 0.76284 0.10266
 C787 C 0.93300 0.76293 0.07908
 C788 C 0.94464 0.73596 0.06750
 C789 C 0.93415 0.70894 0.08009
 C790 C 0.91247 0.70891 0.10367
 C791 C 0.87850 0.73579 0.13901
 C792 C 0.85948 0.73571 0.15898
 H793 H 0.90259 0.78382 0.11123
 H794 H 0.94059 0.78411 0.06991
 H795 H 0.94264 0.68781 0.07170
 H796 H 0.90461 0.68789 0.11303
 C797 C 0.38681 0.23649 0.61031
 C798 C 0.39885 0.26327 0.59931
 C799 C 0.42125 0.26298 0.57653
 C800 C 0.43193 0.23582 0.56443
 C801 C 0.41973 0.20899 0.57571
 C802 C 0.39731 0.20935 0.59851
 C803 C 0.36377 0.23692 0.63379
 C804 C 0.34457 0.23753 0.65357
 H805 H 0.39090 0.28440 0.60832
 H806 H 0.43014 0.28402 0.56835
 H807 H 0.42743 0.18772 0.56688
 H808 H 0.38816 0.18849 0.60691
 C809 C 0.09857 0.26553 0.11275
 C810 C 0.08721 0.29207 0.10034
 C811 C 0.06578 0.29126 0.07654
 C812 C 0.05545 0.26383 0.06484
 C813 C 0.06702 0.23727 0.07750
 C814 C 0.08844 0.23815 0.10129
 C815 C 0.12081 0.26636 0.13704
 C816 C 0.13959 0.26696 0.15724
 H817 H 0.09494 0.31340 0.10902
 H818 H 0.05733 0.31210 0.06732
 H819 H 0.05954 0.21580 0.06903
 H820 H 0.09712 0.21747 0.11071
 C821 C 0.61120 0.75657 0.61540
 C822 C 0.60094 0.78401 0.60413
 C823 C 0.57916 0.78499 0.58070
 C824 C 0.56737 0.75848 0.56821
 C825 C 0.57782 0.73100 0.57974
 C826 C 0.59960 0.73009 0.60317
 C827 C 0.63382 0.75566 0.63931
 C828 C 0.65290 0.75513 0.65920
 H829 H 0.60980 0.80465 0.61341
 H830 H 0.57160 0.80649 0.57236
 H831 H 0.56920 0.71020 0.57064
 H832 H 0.60742 0.70873 0.61171
   
