data_POSCAR
  _audit_creation_date              2014-09-24
  _audit_creation_method            'ToBaCCo'
  _symmetry_space_group_name_H-M    'P1'
  _symmetry_Int_Tables_number       1
  _symmetry_cell_setting            triclinic
  loop_
  _symmetry_equiv_pos_as_xyz
 x,y,z
_cell_length_a 76.1154
_cell_length_b 40.0370
_cell_length_c 23.9397
_cell_angle_alpha 89.990100
_cell_angle_beta 89.964100
_cell_angle_gamma 90.058800
loop_
  _atom_site_label
  _atom_site_type_symbol
  _atom_site_fract_x
  _atom_site_fract_y
  _atom_site_fract_z
C1 C 0.74994 0.25027 0.47186
 C2 C 0.74993 0.25040 0.52886
 C3 C 0.73432 0.26147 0.56125
 C4 C 0.76554 0.23945 0.56127
 C5 C 0.76451 0.23493 0.43949
 C6 C 0.73539 0.26550 0.43932
 C7 C 0.73600 0.28647 0.60162
 C8 C 0.72127 0.29827 0.63033
 C9 C 0.70420 0.28531 0.61973
 C10 C 0.70299 0.25907 0.57998
 C11 C 0.71778 0.24735 0.55161
 C12 C 0.78212 0.25370 0.55141
 C13 C 0.79691 0.24187 0.57963
 C14 C 0.79538 0.21582 0.61874
 C15 C 0.77866 0.20243 0.62995
 C16 C 0.76387 0.21422 0.60158
 C17 C 0.76963 0.20177 0.44931
 C18 C 0.78390 0.18808 0.42066
 C19 C 0.79319 0.20717 0.38115
 C20 C 0.78766 0.24003 0.37013
 C21 C 0.77342 0.25373 0.39893
 C22 C 0.72650 0.24657 0.39895
 C23 C 0.71228 0.26019 0.36994
 C24 C 0.70678 0.29311 0.38054
 C25 C 0.71606 0.31233 0.41986
 C26 C 0.73029 0.29872 0.44873
 H27 H 0.74870 0.29772 0.60964
 H28 H 0.72351 0.31908 0.65809
 H29 H 0.69082 0.24609 0.57170
 H30 H 0.71631 0.22717 0.52184
 H31 H 0.78362 0.27371 0.52133
 H32 H 0.80956 0.25314 0.57092
 H33 H 0.75118 0.20301 0.60991
 H34 H 0.76266 0.18661 0.47956
 H35 H 0.78763 0.16251 0.42926
 H36 H 0.79464 0.25544 0.34028
 H37 H 0.76961 0.27931 0.39061
 H38 H 0.73029 0.22094 0.39095
 H39 H 0.70531 0.24467 0.34026
 H40 H 0.71235 0.33796 0.42813
 H41 H 0.73724 0.31398 0.47884
 H42 H 0.77707 0.18218 0.65952
 C43 C 0.25002 0.74981 0.47219
 C44 C 0.25007 0.74984 0.52919
 C45 C 0.23446 0.76074 0.56170
 C46 C 0.26572 0.73896 0.56145
 C47 C 0.26451 0.73432 0.43966
 C48 C 0.23547 0.76524 0.43988
 C49 C 0.23611 0.78592 0.60208
 C50 C 0.22133 0.79758 0.63066
 C51 C 0.20462 0.78409 0.61959
 C52 C 0.20310 0.75810 0.58038
 C53 C 0.21790 0.74641 0.55196
 C54 C 0.28228 0.75321 0.55131
 C55 C 0.29711 0.74156 0.57957
 C56 C 0.29563 0.71569 0.61903
 C57 C 0.27893 0.70226 0.63046
 C58 C 0.26411 0.71387 0.60204
 C59 C 0.26956 0.70113 0.44954
 C60 C 0.28378 0.68730 0.42087
 C61 C 0.29310 0.70628 0.38128
 C62 C 0.28764 0.73916 0.37015
 C63 C 0.27343 0.75300 0.39898
 C64 C 0.22651 0.74651 0.39939
 C65 C 0.21226 0.76030 0.37073
 C66 C 0.20680 0.79319 0.38182
 C67 C 0.21615 0.81221 0.42123
 C68 C 0.23041 0.79843 0.44974
 H69 H 0.24879 0.79718 0.61033
 H70 H 0.22289 0.81778 0.66029
 H71 H 0.19047 0.74676 0.57178
 H72 H 0.21641 0.72642 0.52185
 H73 H 0.28374 0.77313 0.52103
 H74 H 0.30973 0.75286 0.57068
 H75 H 0.25143 0.70266 0.61060
 H76 H 0.26258 0.68605 0.47989
 H77 H 0.28746 0.66170 0.42955
 H78 H 0.29464 0.75448 0.34023
 H79 H 0.26968 0.77861 0.39061
 H80 H 0.23026 0.72090 0.39104
 H81 H 0.20524 0.74494 0.34095
 H82 H 0.21247 0.83781 0.42988
 H83 H 0.23741 0.81355 0.47993
 H84 H 0.27738 0.68213 0.66028
 C85 C 0.24988 0.25004 -0.47127
 C86 C 0.24990 0.24993 -0.52828
 C87 C 0.26555 0.26079 -0.56074
 C88 C 0.23428 0.23896 -0.56066
 C89 C 0.23535 0.23458 -0.43878
 C90 C 0.26439 0.26562 -0.43896
 C91 C 0.26393 0.28556 -0.60164
 C92 C 0.27868 0.29699 -0.63067
 C93 C 0.29559 0.28382 -0.61973
 C94 C 0.29688 0.25803 -0.57950
 C95 C 0.28208 0.24662 -0.55077
 C96 C 0.21776 0.25321 -0.55094
 C97 C 0.20297 0.24172 -0.57961
 C98 C 0.20428 0.21576 -0.61950
 C99 C 0.22118 0.20250 -0.63021
 C100 C 0.23593 0.21402 -0.60125
 C101 C 0.23029 0.20144 -0.44846
 C102 C 0.21607 0.18754 -0.41977
 C103 C 0.20655 0.20632 -0.37989
 C104 C 0.21226 0.23937 -0.36920
 C105 C 0.22646 0.25318 -0.39818
 C106 C 0.27335 0.24703 -0.39833
 C107 C 0.28759 0.26095 -0.36976
 C108 C 0.29305 0.29383 -0.38107
 C109 C 0.28369 0.31274 -0.42058
 C110 C 0.26944 0.29882 -0.44901
 H111 H 0.25126 0.29681 -0.60995
 H112 H 0.27674 0.31742 -0.65952
 H113 H 0.30919 0.24561 -0.57101
 H114 H 0.28352 0.22671 -0.52049
 H115 H 0.21630 0.27324 -0.52090
 H116 H 0.19066 0.25421 -0.57133
 H117 H 0.24860 0.20271 -0.60937
 H118 H 0.23734 0.18630 -0.47851
 H119 H 0.21305 0.16163 -0.42803
 H120 H 0.20532 0.25557 -0.34061
 H121 H 0.23018 0.27885 -0.39009
 H122 H 0.26961 0.22141 -0.38984
 H123 H 0.29462 0.24568 -0.33990
 H124 H 0.28736 0.33833 -0.42939
 H125 H 0.26243 0.31384 -0.47933
 H126 H 0.22314 0.18195 -0.65880
 C127 C -0.25014 0.75005 -0.52913
 C128 C -0.25027 0.75073 -0.47215
 C129 C -0.26593 0.73994 -0.43969
 C130 C -0.23478 0.76229 -0.43969
 C131 C -0.23554 0.76511 -0.56181
 C132 C -0.26462 0.73425 -0.56134
 C133 C -0.28247 0.75389 -0.45006
 C134 C -0.29728 0.74251 -0.42127
 C135 C -0.29595 0.71698 -0.38061
 C136 C -0.27902 0.70403 -0.36928
 C137 C -0.26427 0.71543 -0.39836
 C138 C -0.23669 0.78771 -0.39987
 C139 C -0.22209 0.79961 -0.37060
 C140 C -0.20532 0.78609 -0.38029
 C141 C -0.20353 0.75998 -0.41915
 C142 C -0.21814 0.74809 -0.44838
 C143 C -0.22657 0.74597 -0.60152
 C144 C -0.21236 0.75943 -0.63084
 C145 C -0.20674 0.79269 -0.62159
 C146 C -0.21633 0.81200 -0.58258
 C147 C -0.23053 0.79841 -0.55338
 C148 C -0.26972 0.70122 -0.55074
 C149 C -0.28390 0.68707 -0.57920
 C150 C -0.29334 0.70546 -0.61974
 C151 C -0.28760 0.73838 -0.63132
 C152 C -0.27344 0.75245 -0.60258
 H153 H -0.28394 0.77359 -0.48071
 H154 H -0.30962 0.75476 -0.43009
 H155 H -0.27705 0.68379 -0.34009
 H156 H -0.25158 0.70436 -0.38975
 H157 H -0.24944 0.79877 -0.39220
 H158 H -0.22393 0.81935 -0.34026
 H159 H -0.21644 0.72804 -0.47825
 H160 H -0.23044 0.72035 -0.60932
 H161 H -0.20621 0.74372 -0.66192
 H162 H -0.21253 0.83723 -0.57205
 H163 H -0.23746 0.81377 -0.52336
 H164 H -0.26272 0.68639 -0.52016
 H165 H -0.28695 0.66125 -0.57021
 H166 H -0.29448 0.75430 -0.66045
 H167 H -0.26968 0.77803 -0.61137
 H168 H -0.19078 0.74920 -0.42784
 N169 N 0.01836 0.96356 -0.09790
 N170 N 0.03185 0.95956 -0.13191
 N171 N -0.01857 0.94047 -0.05832
 N172 N -0.03208 0.92008 -0.06443
 N173 N -0.01862 0.96347 -0.09740
 N174 N -0.03215 0.95936 -0.13116
 N175 N 0.01842 0.94058 -0.05878
 N176 N 0.03194 0.92032 -0.06512
 C177 C 0.04020 0.93244 -0.11100
 C178 C -0.04042 0.93215 -0.11013
 N179 N -0.01839 0.96458 0.10030
 N180 N -0.03207 0.96132 0.13376
 N181 N 0.01857 0.94127 0.06148
 N182 N 0.03225 0.92136 0.06777
 N183 N 0.01859 0.96471 0.09981
 N184 N 0.03226 0.96139 0.13320
 N185 N -0.01844 0.94116 0.06194
 N186 N -0.03217 0.92133 0.06826
 Mn187 Mn -0.00001 0.94044 0.00160
 C188 C -0.04052 0.93416 0.11339
 C189 C 0.04065 0.93418 0.11282
 N190 N -0.01864 1.03538 -0.09855
 N191 N -0.03217 1.03910 -0.13245
 N192 N 0.01840 1.05887 -0.06064
 N193 N 0.03210 1.07875 -0.06709
 N194 N 0.01835 1.03545 -0.09901
 N195 N 0.03199 1.03875 -0.13257
 N196 N -0.01859 1.05880 -0.06018
 N197 N -0.03208 1.07908 -0.06692
 Mn198 Mn -0.00014 0.99946 -0.09891
 C199 C -0.04043 1.06651 -0.11225
 C200 C 0.04044 1.06595 -0.11228
 N201 N 0.01856 1.03657 0.09869
 N202 N 0.03210 1.04069 0.13242
 N203 N -0.01850 1.05943 0.06008
 N204 N -0.03220 1.07931 0.06602
 N205 N -0.01841 1.03642 0.09916
 N206 N -0.03203 1.04002 0.13272
 N207 N 0.01851 1.05957 0.05961
 N208 N 0.03201 1.07996 0.06569
 Mn209 Mn 0.00009 1.00057 0.10017
 Mn210 Mn -0.00004 1.05960 -0.00029
 Cl211 Cl -0.00002 1.00002 0.00063
 C212 C 0.04037 1.06789 0.11137
 C213 C -0.04050 1.06694 0.11166
 N214 N 0.48171 0.44094 -0.06155
 N215 N 0.46800 0.42112 -0.06816
 N216 N 0.51882 0.46444 -0.09903
 N217 N 0.53238 0.46076 -0.13284
 N218 N 0.51871 0.44095 -0.06078
 N219 N 0.53219 0.42065 -0.06752
 N220 N 0.48183 0.46443 -0.09980
 N221 N 0.46821 0.46124 -0.13345
 C222 C 0.45972 0.43403 -0.11333
 C223 C 0.54061 0.43328 -0.11271
 N224 N 0.51872 0.55928 -0.05831
 N225 N 0.53218 0.57978 -0.06436
 N226 N 0.48184 0.53632 -0.09834
 N227 N 0.46840 0.54041 -0.13246
 N228 N 0.48174 0.55922 -0.05910
 N229 N 0.46823 0.57951 -0.06548
 N230 N 0.51881 0.53636 -0.09752
 N231 N 0.53234 0.54064 -0.13129
 Mn232 Mn 0.50033 0.50039 -0.09937
 C233 C 0.54056 0.56785 -0.11013
 C234 C 0.46003 0.56749 -0.11150
 N235 N 0.51845 0.44008 0.05948
 N236 N 0.53217 0.42024 0.06531
 N237 N 0.48136 0.46291 0.09789
 N238 N 0.46780 0.45872 0.13157
 N239 N 0.48145 0.43999 0.05870
 N240 N 0.46794 0.41957 0.06466
 N241 N 0.51832 0.46301 0.09867
 N242 N 0.53193 0.45939 0.13221
 Mn243 Mn 0.50008 0.44006 -0.00105
 C244 C 0.54044 0.43254 0.11102
 C245 C 0.45955 0.43154 0.11038
 N246 N 0.48144 0.55829 0.06115
 N247 N 0.46776 0.57820 0.06740
 N248 N 0.51834 0.53484 0.10018
 N249 N 0.53197 0.53801 0.13380
 N250 N 0.51846 0.55834 0.06194
 N251 N 0.53218 0.57814 0.06853
 N252 N 0.48136 0.53477 0.09936
 N253 N 0.46764 0.53803 0.13263
 Mn254 Mn 0.50009 0.55922 0.00144
 Mn255 Mn 0.49984 0.49888 0.09970
 Cl256 Cl 0.50009 0.49964 0.00017
 C257 C 0.45929 0.56530 0.11230
 C258 C 0.54047 0.56520 0.11368
 C259 C 0.32442 0.32501 0.27301
 C260 C 0.34090 0.32251 0.29828
 C261 C 0.34247 0.30685 0.35014
 C262 C 0.32764 0.29387 0.37692
 C263 C 0.31076 0.29634 0.35240
 C264 C 0.30953 0.31213 0.29961
 C265 C 0.35617 0.33644 0.27148
 C266 C 0.36902 0.34826 0.24961
 C267 C 0.38413 0.36228 0.22465
 C268 C 0.39709 0.37437 0.20391
 C269 C 0.41265 0.38894 0.17982
 C270 C 0.42033 0.37472 0.13232
 C271 C 0.43559 0.38865 0.10949
 C272 C 0.44334 0.41696 0.13403
 C273 C 0.43548 0.43120 0.18154
 C274 C 0.42023 0.41724 0.20428
 H275 H 0.32308 0.33688 0.23255
 H276 H 0.35517 0.30505 0.37035
 H277 H 0.32953 0.28336 0.41807
 H278 H 0.29721 0.31372 0.27733
 H279 H 0.41457 0.35282 0.11305
 H280 H 0.44135 0.37722 0.07280
 H281 H 0.44114 0.45305 0.20123
 H282 H 0.41439 0.42845 0.24105
 C283 C -0.17495 0.85397 0.31569
 C284 C -0.16176 0.83269 0.29634
 C285 C -0.16354 0.79822 0.30314
 C286 C -0.17838 0.78500 0.32955
 C287 C -0.19185 0.80607 0.35010
 C288 C -0.18981 0.84092 0.34223
 C289 C -0.14624 0.84622 0.27046
 C290 C -0.13313 0.85748 0.24931
 C291 C -0.11768 0.87060 0.22514
 C292 C -0.10440 0.88177 0.20498
 C293 C -0.08846 0.89511 0.18148
 C294 C -0.08070 0.87979 0.13508
 C295 C -0.06508 0.89252 0.11277
 C296 C -0.05705 0.92071 0.13674
 C297 C -0.06497 0.93603 0.18319
 C298 C -0.08058 0.92328 0.20541
 H299 H -0.17376 0.88075 0.31022
 H300 H -0.15331 0.78150 0.28872
 H301 H -0.17868 0.75828 0.33590
 H302 H -0.19987 0.85843 0.35468
 H303 H -0.08669 0.85797 0.11624
 H304 H -0.05929 0.88027 0.07688
 H305 H -0.05910 0.95784 0.20240
 H306 H -0.08648 0.93533 0.24134
 C307 C 0.66690 0.65263 0.35140
 C308 C 0.66165 0.66482 0.29939
 C309 C 0.67139 0.69005 0.27357
 C310 C 0.68626 0.70329 0.29978
 C311 C 0.69177 0.69153 0.35274
 C312 C 0.68176 0.66571 0.37780
 C313 C 0.64611 0.65175 0.27300
 C314 C 0.63300 0.64082 0.25146
 C315 C 0.61755 0.62802 0.22687
 C316 C 0.60427 0.61706 0.20640
 C317 C 0.58834 0.60389 0.18262
 C318 C 0.58066 0.61940 0.13627
 C319 C 0.56506 0.60680 0.11368
 C320 C 0.55697 0.57854 0.13730
 C321 C 0.56481 0.56305 0.18371
 C322 C 0.58040 0.57568 0.20621
 H323 H 0.65935 0.63326 0.37203
 H324 H 0.66751 0.69950 0.23299
 H325 H 0.69364 0.72196 0.27710
 H326 H 0.68475 0.65637 0.41907
 H327 H 0.58670 0.64125 0.11768
 H328 H 0.55933 0.61917 0.07784
 H329 H 0.55889 0.54119 0.20266
 H330 H 0.58623 0.56348 0.24209
 C331 C 0.17551 1.17417 0.27366
 C332 C 0.15902 1.17681 0.29884
 C333 C 0.15741 1.19270 0.35049
 C334 C 0.17223 1.20576 0.37715
 C335 C 0.18912 1.20315 0.35273
 C336 C 0.19039 1.18713 0.30014
 C337 C 0.14375 1.16281 0.27217
 C338 C 0.13091 1.15094 0.25041
 C339 C 0.11580 1.13690 0.22557
 C340 C 0.10284 1.12481 0.20489
 C341 C 0.08728 1.11029 0.18083
 C342 C 0.07961 1.12459 0.13339
 C343 C 0.06435 1.11073 0.11057
 C344 C 0.05658 1.08240 0.13506
 C345 C 0.06442 1.06809 0.18251
 C346 C 0.07968 1.08199 0.20525
 H347 H 0.17688 1.16212 0.23336
 H348 H 0.14470 1.19462 0.37063
 H349 H 0.17032 1.21646 0.41816
 H350 H 0.20272 1.18542 0.27793
 H351 H 0.08540 1.14650 0.11416
 H352 H 0.05861 1.12221 0.07392
 H353 H 0.05875 1.04623 0.20215
 H354 H 0.08551 1.07072 0.24197
 C355 C 0.65759 0.30624 -0.34964
 C356 C 0.65931 0.32480 -0.30068
 C357 C 0.67592 0.32983 -0.27766
 C358 C 0.69083 0.31660 -0.30363
 C359 C 0.68956 0.29779 -0.35384
 C360 C 0.67241 0.29288 -0.37587
 C361 C 0.64401 0.33900 -0.27448
 C362 C 0.63115 0.35099 -0.25299
 C363 C 0.61603 0.36507 -0.22831
 C364 C 0.60306 0.37712 -0.20760
 C365 C 0.58750 0.39148 -0.18328
 C366 C 0.57996 0.42003 -0.20695
 C367 C 0.56471 0.43375 -0.18387
 C368 C 0.55681 0.41900 -0.13681
 C369 C 0.56452 0.39043 -0.11309
 C370 C 0.57978 0.37676 -0.13624
 H371 H 0.64476 0.30248 -0.36820
 H372 H 0.67739 0.34390 -0.23927
 H373 H 0.70313 0.32020 -0.28200
 H374 H 0.67012 0.28041 -0.41518
 H375 H 0.58583 0.43163 -0.24336
 H376 H 0.55907 0.45581 -0.20293
 H377 H 0.55875 0.37860 -0.07676
 H378 H 0.58551 0.35465 -0.11757
 C379 C 0.15828 0.81575 -0.35601
 C380 C 0.15886 0.82423 -0.29935
 C381 C 0.17434 0.81931 -0.26892
 C382 C 0.18922 0.80608 -0.29510
 C383 C 0.18878 0.79756 -0.35212
 C384 C 0.17312 0.80250 -0.38226
 C385 C 0.14360 0.83827 -0.27272
 C386 C 0.13076 0.85013 -0.25097
 C387 C 0.11565 0.86413 -0.22610
 C388 C 0.10268 0.87613 -0.20535
 C389 C 0.08712 0.89051 -0.18113
 C390 C 0.07952 0.87616 -0.13355
 C391 C 0.06426 0.88987 -0.11053
 C392 C 0.05641 0.91809 -0.13495
 C393 C 0.06417 0.93246 -0.18255
 C394 C 0.07943 0.91871 -0.20549
 H395 H 0.14639 0.81959 -0.38002
 H396 H 0.17492 0.82574 -0.22499
 H397 H 0.20101 0.80223 -0.27068
 H398 H 0.17245 0.79668 -0.42638
 H399 H 0.08537 0.85433 -0.11436
 H400 H 0.05858 0.87835 -0.07377
 H401 H 0.05843 0.95425 -0.20214
 H402 H 0.08520 0.93002 -0.24232
 C403 C 0.32600 0.68076 -0.26956
 C404 C 0.34146 0.67575 -0.30012
 C405 C 0.34199 0.68408 -0.35686
 C406 C 0.32713 0.69727 -0.38304
 C407 C 0.31150 0.70229 -0.35276
 C408 C 0.31110 0.69393 -0.29568
 C409 C 0.35673 0.66177 -0.27355
 C410 C 0.36958 0.64993 -0.25181
 C411 C 0.38469 0.63597 -0.22693
 C412 C 0.39765 0.62397 -0.20615
 C413 C 0.41320 0.60957 -0.18188
 C414 C 0.42073 0.62384 -0.13418
 C415 C 0.43597 0.61009 -0.11108
 C416 C 0.44386 0.58191 -0.13555
 C417 C 0.43615 0.56763 -0.18328
 C418 C 0.42092 0.58141 -0.20629
 H419 H 0.32545 0.67445 -0.22558
 H420 H 0.35386 0.68018 -0.38098
 H421 H 0.32776 0.70297 -0.42722
 H422 H 0.29933 0.69784 -0.27114
 H423 H 0.41486 0.64563 -0.11493
 H424 H 0.44160 0.62155 -0.07422
 H425 H 0.44192 0.54587 -0.20291
 H426 H 0.41520 0.57017 -0.24321
 C427 C -0.15834 1.18371 -0.35760
 C428 C -0.15889 1.17510 -0.30098
 C429 C -0.17433 1.18011 -0.27033
 C430 C -0.18920 1.19354 -0.29626
 C431 C -0.18878 1.20217 -0.35323
 C432 C -0.17317 1.19716 -0.38359
 C433 C -0.14365 1.16089 -0.27459
 C434 C -0.13082 1.14889 -0.25297
 C435 C -0.11574 1.13478 -0.22816
 C436 C -0.10280 1.12272 -0.20736
 C437 C -0.08727 1.10834 -0.18296
 C438 C -0.07969 1.07983 -0.20669
 C439 C -0.06446 1.06611 -0.18356
 C440 C -0.05662 1.08080 -0.13640
 C441 C -0.06437 1.10932 -0.11261
 C442 C -0.07960 1.12300 -0.13582
 H443 H -0.14647 1.17983 -0.38177
 H444 H -0.17489 1.17359 -0.22644
 H445 H -0.20096 1.19743 -0.27166
 H446 H -0.17252 1.20307 -0.42769
 H447 H -0.08551 1.06828 -0.24318
 H448 H -0.05879 1.04409 -0.20266
 H449 H -0.05864 1.12110 -0.07620
 H450 H -0.08536 1.14507 -0.11711
 C451 C 0.67524 0.67600 -0.27306
 C452 C 0.65879 0.67813 -0.29857
 C453 C 0.65722 0.69351 -0.35066
 C454 C 0.67203 0.70657 -0.37744
 C455 C 0.68889 0.70445 -0.35270
 C456 C 0.69012 0.68896 -0.29965
 C457 C 0.64355 0.66406 -0.27181
 C458 C 0.63074 0.65209 -0.24994
 C459 C 0.61569 0.63790 -0.22496
 C460 C 0.60277 0.62566 -0.20416
 C461 C 0.58728 0.61092 -0.17997
 C462 C 0.57964 0.62499 -0.13228
 C463 C 0.56444 0.61090 -0.10932
 C464 C 0.55672 0.58258 -0.13392
 C465 C 0.56454 0.56850 -0.18161
 C466 C 0.57973 0.58261 -0.20449
 H467 H 0.67659 0.66436 -0.23242
 H468 H 0.64454 0.69503 -0.37106
 H469 H 0.67015 0.71685 -0.41876
 H470 H 0.70242 0.68766 -0.27720
 H471 H 0.58538 0.64690 -0.11296
 H472 H 0.55871 0.62222 -0.07249
 H473 H 0.55890 0.54664 -0.20135
 H474 H 0.58554 0.57152 -0.24140
 C475 C 0.16683 1.15360 -0.34993
 C476 C 0.16149 1.16626 -0.29831
 C477 C 0.17115 1.19181 -0.27313
 C478 C 0.18603 1.20489 -0.29959
 C479 C 0.19163 1.19262 -0.35214
 C480 C 0.18170 1.16651 -0.37657
 C481 C 0.14596 1.15327 -0.27167
 C482 C 0.13286 1.14236 -0.24998
 C483 C 0.11743 1.12952 -0.22529
 C484 C 0.10417 1.11847 -0.20481
 C485 C 0.08826 1.10515 -0.18106
 C486 C 0.08056 1.12044 -0.13451
 C487 C 0.06498 1.10767 -0.11197
 C488 C 0.05692 1.07946 -0.13583
 C489 C 0.06478 1.06418 -0.18243
 C490 C 0.08035 1.07698 -0.20489
 H491 H 0.15934 1.13397 -0.37007
 H492 H 0.16720 1.20163 -0.23286
 H493 H 0.19335 1.22383 -0.27738
 H494 H 0.18475 1.15679 -0.41755
 H495 H 0.08657 1.14226 -0.11574
 H496 H 0.05923 1.11989 -0.07598
 H497 H 0.05889 1.04238 -0.20158
 H498 H 0.08620 1.06495 -0.24092
 C499 C 0.33578 0.34044 -0.35655
 C500 C 0.33872 0.33423 -0.29981
 C501 C 0.32666 0.31510 -0.26936
 C502 C 0.31173 0.30209 -0.29561
 C503 C 0.30869 0.30812 -0.35270
 C504 C 0.32087 0.32750 -0.38285
 C505 C 0.35423 0.34722 -0.27316
 C506 C 0.36732 0.35812 -0.25145
 C507 C 0.38275 0.37093 -0.22674
 C508 C 0.39600 0.38192 -0.20621
 C509 C 0.41191 0.39515 -0.18238
 C510 C 0.41956 0.37975 -0.13589
 C511 C 0.43514 0.39241 -0.11327
 C512 C 0.44324 0.42063 -0.13700
 C513 C 0.43543 0.43602 -0.18354
 C514 C 0.41986 0.42333 -0.20608
 H515 H 0.34507 0.35511 -0.38057
 H516 H 0.32880 0.31018 -0.22538
 H517 H 0.30250 0.28757 -0.27117
 H518 H 0.31903 0.33215 -0.42703
 H519 H 0.41352 0.35792 -0.11723
 H520 H 0.44085 0.38011 -0.07732
 H521 H 0.44135 0.45784 -0.20258
 H522 H 0.41405 0.43544 -0.24207
 C523 C -0.17288 0.84703 -0.31609
 C524 C -0.15977 0.82545 -0.29684
 C525 C -0.16162 0.79094 -0.30420
 C526 C -0.17648 0.77806 -0.33097
 C527 C -0.18970 0.79958 -0.35073
 C528 C -0.18775 0.83422 -0.34283
 C529 C -0.14430 0.83880 -0.27042
 C530 C -0.13132 0.85022 -0.24881
 C531 C -0.11608 0.86384 -0.22410
 C532 C -0.10303 0.87566 -0.20352
 C533 C -0.08740 0.88997 -0.17960
 C534 C -0.07976 0.87565 -0.13213
 C535 C -0.06446 0.88942 -0.10933
 C536 C -0.05664 0.91767 -0.13385
 C537 C -0.06445 0.93199 -0.18136
 C538 C -0.07973 0.91820 -0.20408
 H539 H -0.17155 0.87379 -0.31084
 H540 H -0.15155 0.77400 -0.28940
 H541 H -0.17769 0.75128 -0.33585
 H542 H -0.19757 0.85146 -0.35827
 H543 H -0.08559 0.85381 -0.11283
 H544 H -0.05875 0.87793 -0.07264
 H545 H -0.05873 0.95381 -0.20104
 H546 H -0.08554 0.92949 -0.24080
 C547 C 0.32652 0.68515 0.26888
 C548 C 0.33862 0.66603 0.29907
 C549 C 0.33577 0.65980 0.35587
 C550 C 0.32091 0.67271 0.38249
 C551 C 0.30869 0.69207 0.35260
 C552 C 0.31165 0.69812 0.29545
 C553 C 0.35407 0.65302 0.27208
 C554 C 0.36710 0.64209 0.25013
 C555 C 0.38247 0.62920 0.22520
 C556 C 0.39568 0.61808 0.20458
 C557 C 0.41153 0.60466 0.18079
 C558 C 0.41931 0.57634 0.20446
 C559 C 0.43485 0.56348 0.18206
 C560 C 0.44282 0.57884 0.13568
 C561 C 0.43489 0.60719 0.11194
 C562 C 0.41933 0.62003 0.13443
 H563 H 0.32859 0.69007 0.22486
 H564 H 0.34509 0.64514 0.37968
 H565 H 0.31914 0.66804 0.42670
 H566 H 0.30238 0.71262 0.27121
 H567 H 0.41339 0.56426 0.24034
 H568 H 0.44065 0.54157 0.20110
 H569 H 0.44072 0.61947 0.07612
 H570 H 0.41342 0.64196 0.11579
 C571 C -0.17336 1.18647 0.26860
 C572 C -0.16122 1.16738 0.29867
 C573 C -0.16405 1.16102 0.35544
 C574 C -0.17894 1.17377 0.38215
 C575 C -0.19120 1.19311 0.35238
 C576 C -0.18826 1.19928 0.29525
 C577 C -0.14575 1.15454 0.27157
 C578 C -0.13270 1.14373 0.24953
 C579 C -0.11732 1.13095 0.22451
 C580 C -0.10410 1.11990 0.20385
 C581 C -0.08824 1.10648 0.18008
 C582 C -0.08030 1.07852 0.20440
 C583 C -0.06477 1.06562 0.18203
 C584 C -0.05696 1.08058 0.13502
 C585 C -0.06504 1.10857 0.11064
 C586 C -0.08060 1.12145 0.13311
 H587 H -0.17131 1.19149 0.22460
 H588 H -0.15470 1.14638 0.37916
 H589 H -0.18069 1.16901 0.42633
 H590 H -0.19755 1.21376 0.27110
 H591 H -0.08610 1.06673 0.24076
 H592 H -0.05886 1.04397 0.20158
 H593 H -0.05934 1.12054 0.07432
 H594 H -0.08663 1.14311 0.11397
 C595 C 0.66408 0.33926 0.35422
 C596 C 0.66125 0.33264 0.29754
 C597 C 0.67340 0.31340 0.26771
 C598 C 0.68828 0.30068 0.29453
 C599 C 0.69120 0.30710 0.35157
 C600 C 0.67894 0.32660 0.38109
 C601 C 0.64580 0.34537 0.27033
 C602 C 0.63274 0.35611 0.24825
 C603 C 0.61735 0.36880 0.22326
 C604 C 0.60412 0.37979 0.20267
 C605 C 0.58823 0.39316 0.17904
 C606 C 0.58062 0.37822 0.13204
 C607 C 0.56504 0.39104 0.10970
 C608 C 0.55692 0.41894 0.13426
 C609 C 0.56470 0.43386 0.18130
 C610 C 0.58026 0.42102 0.20353
 H611 H 0.65472 0.35402 0.37775
 H612 H 0.67136 0.30818 0.22379
 H613 H 0.69757 0.28607 0.27057
 H614 H 0.68068 0.33155 0.42521
 H615 H 0.58669 0.35663 0.11276
 H616 H 0.55935 0.37912 0.07336
 H617 H 0.55876 0.45543 0.20098
 H618 H 0.58604 0.43277 0.23992
 C619 C 0.17330 0.81419 0.26968
 C620 C 0.16123 0.83337 0.29989
 C621 C 0.16412 0.83967 0.35664
 C622 C 0.17899 0.82678 0.38318
 C623 C 0.19118 0.80736 0.35325
 C624 C 0.18819 0.80124 0.29616
 C625 C 0.14577 0.84638 0.27297
 C626 C 0.13274 0.85731 0.25105
 C627 C 0.11738 0.87020 0.22611
 C628 C 0.10418 0.88131 0.20546
 C629 C 0.08834 0.89474 0.18160
 C630 C 0.08061 0.87946 0.13509
 C631 C 0.06508 0.89231 0.11251
 C632 C 0.05710 0.92060 0.13631
 C633 C 0.06500 0.93588 0.18284
 C634 C 0.08051 0.92300 0.20533
 H635 H 0.17121 0.80922 0.22570
 H636 H 0.15482 0.85438 0.38048
 H637 H 0.18078 0.83151 0.42734
 H638 H 0.19744 0.78670 0.27189
 H639 H 0.08656 0.85757 0.11640
 H640 H 0.05930 0.88010 0.07657
 H641 H 0.05917 0.95775 0.20193
 H642 H 0.08638 0.93502 0.24132
   
