data_POSCAR
  _audit_creation_date              2014-09-24
  _audit_creation_method            'ToBaCCo'
  _symmetry_space_group_name_H-M    'P1'
  _symmetry_Int_Tables_number       1
  _symmetry_cell_setting            triclinic
  loop_
  _symmetry_equiv_pos_as_xyz
 x,y,z
_cell_length_a 38.4683
_cell_length_b 39.2513
_cell_length_c 37.4005
_cell_angle_alpha 90.598900
_cell_angle_beta 91.647800
_cell_angle_gamma 88.976700
loop_
  _atom_site_label
  _atom_site_type_symbol
  _atom_site_fract_x
  _atom_site_fract_y
  _atom_site_fract_z
C1 C 0.22683 0.17611 0.21501
 C2 C 0.21186 0.16207 0.24502
 C3 C 0.17885 0.17315 0.25645
 C4 C 0.16129 0.19926 0.23704
 C5 C 0.17640 0.21402 0.20731
 C6 C 0.20924 0.20229 0.19617
 C7 C 0.25864 0.16324 0.20292
 C8 C 0.27360 0.17600 0.17184
 C9 C 0.25623 0.20342 0.15413
 C10 C 0.22425 0.21638 0.16590
 C11 C 0.20672 0.24280 0.14742
 C12 C 0.17402 0.25478 0.15841
 C13 C 0.15903 0.24020 0.18838
 H14 H 0.22537 0.14099 0.25811
 H15 H 0.13635 0.20907 0.24559
 H16 H 0.27025 0.14166 0.21681
 H17 H 0.26757 0.21530 0.13135
 H18 H 0.21811 0.25349 0.12395
 H19 H 0.13395 0.24948 0.19716
 C20 C -0.24823 0.80019 0.25728
 C21 C -0.23081 0.81782 0.28495
 C22 C -0.19816 0.80632 0.29880
 C23 C -0.18391 0.77567 0.28470
 C24 C -0.20131 0.75750 0.25724
 C25 C -0.23363 0.76985 0.24357
 C26 C -0.27885 0.81396 0.24151
 C27 C -0.29522 0.79810 0.21155
 C28 C -0.28161 0.76624 0.20006
 C29 C -0.25077 0.75254 0.21527
 C30 C -0.23575 0.72283 0.20097
 C31 C -0.20276 0.71106 0.21313
 C32 C -0.18607 0.72812 0.24195
 H33 H -0.24184 0.84197 0.29361
 H34 H -0.15947 0.76537 0.29524
 H35 H -0.28783 0.83860 0.25103
 H36 H -0.29451 0.75201 0.17875
 H37 H -0.24919 0.70961 0.17922
 H38 H -0.16047 0.71962 0.25130
 C39 C -0.22347 0.18567 -0.23197
 C40 C -0.20955 0.17163 -0.26303
 C41 C -0.18534 0.18956 -0.28247
 C42 C -0.17523 0.22214 -0.27071
 C43 C -0.18962 0.23689 -0.23993
 C44 C -0.21409 0.21862 -0.22066
 C45 C -0.24567 0.16658 -0.21146
 C46 C -0.25926 0.17982 -0.17947
 C47 C -0.25146 0.21374 -0.16957
 C48 C -0.22847 0.23285 -0.18956
 C49 C -0.21827 0.26531 -0.17788
 C50 C -0.19263 0.28318 -0.19582
 C51 C -0.17889 0.26890 -0.22725
 H52 H -0.21649 0.14602 -0.27135
 H53 H -0.15611 0.23583 -0.28540
 H54 H -0.25274 0.14142 -0.22101
 H55 H -0.26101 0.22458 -0.14490
 H56 H -0.22972 0.27622 -0.15414
 H57 H -0.15875 0.28195 -0.24110
 C58 C 0.22150 0.81639 -0.19784
 C59 C 0.20613 0.83130 -0.22829
 C60 C 0.17407 0.81989 -0.24269
 C61 C 0.15858 0.79170 -0.22667
 C62 C 0.17350 0.77696 -0.19562
 C63 C 0.20499 0.78948 -0.18098
 C64 C 0.25266 0.82891 -0.18335
 C65 C 0.26707 0.81572 -0.15147
 C66 C 0.25043 0.78920 -0.13420
 C67 C 0.21955 0.77570 -0.14900
 C68 C 0.20234 0.74952 -0.13185
 C69 C 0.17059 0.73741 -0.14597
 C70 C 0.15660 0.75092 -0.17806
 H71 H 0.21968 0.85167 -0.24101
 H72 H 0.13364 0.78266 -0.23660
 H73 H 0.26519 0.84991 -0.19617
 H74 H 0.26149 0.77927 -0.10935
 H75 H 0.21292 0.73940 -0.10689
 H76 H 0.13216 0.74149 -0.18902
 C77 C 0.18230 1.22904 0.79213
 C78 C 0.16806 1.21452 0.76067
 C79 C 0.18705 1.19047 0.74029
 C80 C 0.22128 1.18178 0.75234
 C81 C 0.23574 1.19602 0.78391
 C82 C 0.21624 1.21991 0.80375
 C83 C 0.16273 1.25231 0.81233
 C84 C 0.17640 1.26692 0.84433
 C85 C 0.21079 1.25793 0.85524
 C86 C 0.23045 1.23422 0.83555
 C87 C 0.26370 1.22374 0.84790
 C88 C 0.28291 1.19900 0.82901
 C89 C 0.26896 1.18575 0.79665
 H90 H 0.14234 1.22298 0.75178
 H91 H 0.23632 1.16248 0.73846
 H92 H 0.13705 1.25966 0.80223
 H93 H 0.22182 1.26769 0.88018
 H94 H 0.27445 1.23445 0.87256
 H95 H 0.28338 1.16640 0.78210
 C96 C 0.82460 0.76378 0.75196
 C97 C 0.84341 0.78105 0.72634
 C98 C 0.83227 0.81334 0.71358
 C99 C 0.80158 0.82804 0.72758
 C100 C 0.78301 0.81144 0.75392
 C101 C 0.79444 0.77909 0.76588
 C102 C 0.83607 0.73171 0.76443
 C103 C 0.81808 0.71453 0.79117
 C104 C 0.78746 0.73014 0.80414
 C105 C 0.77597 0.76222 0.79218
 C106 C 0.74661 0.77796 0.80690
 C107 C 0.73568 0.81078 0.79632
 C108 C 0.75374 0.82714 0.76928
 H109 H 0.86611 0.76847 0.71546
 H110 H 0.79291 0.85329 0.71954
 H111 H 0.86023 0.72137 0.75449
 H112 H 0.77180 0.71732 0.82325
 H113 H 0.73247 0.76478 0.82708
 H114 H 0.74573 0.85253 0.76099
 C115 C 0.18637 0.78522 1.20070
 C116 C 0.17383 0.80147 1.23120
 C117 C 0.19089 0.82954 1.24654
 C118 C 0.22206 0.84044 1.23178
 C119 C 0.23526 0.82401 1.20112
 C120 C 0.21722 0.79621 1.18560
 C121 C 0.16746 0.75898 1.18440
 C122 C 0.17842 0.74320 1.15254
 C123 C 0.21041 0.75311 1.13853
 C124 C 0.22942 0.77993 1.15446
 C125 C 0.25945 0.79187 1.13867
 C126 C 0.27706 0.82033 1.15297
 C127 C 0.26513 0.83582 1.18467
 H128 H 0.15004 0.79272 1.24268
 H129 H 0.23519 0.86233 1.24331
 H130 H 0.14414 0.75069 1.19709
 H131 H 0.21941 0.74187 1.11382
 H132 H 0.26867 0.77945 1.11464
 H133 H 0.27816 0.85800 1.19567
 C134 C 0.82065 1.23238 1.23482
 C135 C 0.83973 1.21576 1.26218
 C136 C 0.82929 1.18404 1.27536
 C137 C 0.79890 1.16925 1.26010
 C138 C 0.78006 1.18517 1.23194
 C139 C 0.79075 1.21708 1.21966
 C140 C 0.83171 1.26367 1.22167
 C141 C 0.81316 1.28007 1.19358
 C142 C 0.78283 1.26494 1.17931
 C143 C 0.77205 1.23332 1.19152
 C144 C 0.74376 1.21705 1.17481
 C145 C 0.73408 1.18439 1.18533
 C146 C 0.75165 1.16901 1.21472
 H147 H 0.86216 1.22841 1.27393
 H148 H 0.79087 1.14435 1.26851
 H149 H 0.85551 1.27457 1.23248
 H150 H 0.76788 1.27741 1.15806
 H151 H 0.72992 1.22933 1.15266
 H152 H 0.74434 1.14381 1.22298
 O153 O 0.54876 0.96992 0.92224
 O154 O 0.48786 0.95909 1.04593
 O155 O 0.55317 0.94777 1.03060
 O156 O 0.44415 0.99595 0.95535
 O157 O 0.54364 0.98002 1.07407
 O158 O 0.48393 0.96797 0.92603
 O159 O 0.44457 0.98212 1.01809
 O160 O 0.56126 0.94239 0.96959
 C161 C 0.56173 0.94426 0.93671
 C162 C 0.45676 0.95808 1.03644
 C163 C 0.55628 0.95273 1.06324
 C164 C 0.45318 0.97098 0.93575
 O165 O 0.48196 1.03417 0.92384
 O166 O 0.53370 1.03949 1.05029
 O167 O 0.58671 1.00704 0.96541
 O168 O 0.47236 1.04391 1.03484
 O169 O 0.48337 1.01463 1.08259
 O170 O 0.54778 1.03435 0.93096
 O171 O 0.47384 1.05763 0.97406
 O172 O 0.57984 1.01318 1.03082
 Co173 Co 0.51527 1.00131 0.93214
 Co174 Co 0.50952 0.99979 1.04545
 Co175 Co 0.56595 0.97933 0.99883
 Co176 Co 0.46318 1.01810 0.99520
 O177 O 0.51499 0.99815 0.99091
 C178 C 0.47201 1.05948 0.94122
 C179 C 0.56605 1.03834 1.04690
 C180 C 0.57854 1.03050 0.94311
 C181 C 0.46466 1.03831 1.06687
 O182 O 0.03166 0.47008 0.05430
 O183 O 0.03300 0.52876 -0.04197
 O184 O -0.00474 0.42950 -0.02737
 O185 O -0.00352 0.57279 0.03092
 O186 O 0.03288 0.46746 -0.03580
 O187 O 0.02861 0.53540 0.06078
 O188 O -0.00547 0.56763 -0.03452
 O189 O -0.00412 0.43077 0.03700
 C190 C 0.02555 0.43932 0.04879
 C191 C 0.02545 0.55953 -0.03984
 C192 C 0.02585 0.43688 -0.03401
 C193 C 0.02282 0.56532 0.05043
 O194 O -0.03731 0.53154 0.07742
 O195 O -0.03111 0.46563 -0.06964
 O196 O -0.06945 0.45845 0.03494
 O197 O -0.06946 0.54304 -0.03377
 O198 O -0.03205 0.52708 -0.07293
 O199 O -0.03311 0.46806 0.07775
 O200 O -0.06873 0.55519 0.03404
 O201 O -0.06839 0.46057 -0.02914
 Co202 Co -0.00385 0.50086 0.06138
 Co203 Co -0.00095 0.49738 -0.05021
 Co204 Co -0.03514 0.44931 0.00376
 Co205 Co -0.03526 0.55390 -0.00075
 O206 O -0.01840 0.50049 0.00386
 C207 C -0.06345 0.54908 0.06656
 C208 C -0.06139 0.45851 -0.06115
 C209 C -0.06273 0.45878 0.06741
 C210 C -0.06179 0.53894 -0.06568
 O211 O 1.08211 0.03172 0.47282
 O212 O 0.92892 0.01642 0.52685
 O213 O 0.98475 0.02195 0.43298
 O214 O 1.03577 0.05223 0.54969
 O215 O 0.96584 0.04465 0.48206
 O216 O 1.08377 0.02637 0.54012
 O217 O 0.97489 0.04264 0.54667
 O218 O 1.04803 0.01187 0.42913
 C219 C 1.07151 0.03203 0.44063
 C220 C 0.94253 0.03797 0.54949
 C221 C 0.96978 0.04643 0.44903
 C222 C 1.06791 0.05188 0.55185
 O223 O 1.07823 -0.03955 0.53335
 O224 O 0.93883 -0.01160 0.46391
 O225 O 1.03818 -0.05426 0.44892
 O226 O 0.98612 -0.02308 0.56836
 O227 O 0.96210 -0.04008 0.51947
 O228 O 1.08586 -0.03278 0.46663
 O229 O 1.04821 -0.01257 0.57401
 O230 O 0.97927 -0.04579 0.45329
 Co231 Co 1.07624 -0.00352 0.50316
 Co232 Co 0.96628 0.00240 0.50204
 Co233 Co 1.01278 -0.01523 0.44559
 Co234 Co 1.01184 0.01325 0.55462
 O235 O 1.01886 -0.00198 0.49977
 C236 C 1.06794 -0.03708 0.56477
 C237 C 0.94813 -0.03823 0.44873
 C238 C 1.07017 -0.05467 0.44871
 C239 C 0.96802 -0.04457 0.55181
 C240 C 1.13328 0.12170 0.34131
 C241 C 1.16940 0.12545 0.34133
 C242 C 1.18435 0.14312 0.31382
 C243 C 1.16356 0.15745 0.28597
 C244 C 1.12719 0.15411 0.28792
 N245 N 1.11333 0.13604 0.31469
 C246 C 1.11680 0.10050 0.36813
 N247 N 1.08823 0.08229 0.35830
 C248 C 1.07307 0.06061 0.38102
 C249 C 1.08677 0.05634 0.41592
 C250 C 1.11559 0.07565 0.42687
 C251 C 1.13065 0.09771 0.40311
 H252 H 1.21229 0.14591 0.31495
 H253 H 1.10973 0.16379 0.26709
 H254 H 1.05058 0.04654 0.37166
 H255 H 1.12678 0.07345 0.45367
 H256 H 1.18619 0.11392 0.36170
 H257 H 1.15283 0.11241 0.41211
 C258 C 0.85817 -0.12935 0.37014
 C259 C 0.82175 -0.12898 0.37052
 C260 C 0.80317 -0.15089 0.34780
 C261 C 0.82049 -0.17365 0.32453
 C262 C 0.85718 -0.17433 0.32669
 N263 N 0.87459 -0.15234 0.34870
 C264 C 0.87966 -0.10547 0.39187
 N265 N 0.91422 -0.11273 0.39630
 C266 C 0.93628 -0.09175 0.41449
 C267 C 0.92391 -0.06108 0.42939
 C268 C 0.88845 -0.05285 0.42523
 C269 C 0.86623 -0.07489 0.40642
 H270 H 0.77513 -0.15034 0.34933
 H271 H 0.87240 -0.19056 0.30940
 H272 H 0.96351 -0.09902 0.41704
 H273 H 0.87801 -0.02928 0.43618
 H274 H 0.80748 -0.11228 0.38821
 H275 H 0.83921 -0.06742 0.40274
 C276 C 0.86300 0.13106 0.63566
 C277 C 0.82652 0.13394 0.63572
 C278 C 0.81070 0.15446 0.66143
 C279 C 0.83099 0.17251 0.68668
 C280 C 0.86723 0.17075 0.68431
 N281 N 0.88208 0.15007 0.65948
 C282 C 0.88172 0.10719 0.61170
 N283 N 0.91678 0.11025 0.60952
 C284 C 0.93649 0.08854 0.58982
 C285 C 0.92103 0.06151 0.57083
 C286 C 0.88500 0.05765 0.57257
 C287 C 0.86524 0.08032 0.59304
 H288 H 0.78257 0.15564 0.66215
 H289 H 0.88376 0.18426 0.70336
 H290 H 0.96425 0.09243 0.58918
 H291 H 0.87218 0.03695 0.55846
 H292 H 0.81014 0.12036 0.61669
 H293 H 0.83769 0.07603 0.59467
 C294 C 1.12461 -0.12594 0.67272
 C295 C 1.11958 -0.16109 0.67505
 C296 C 1.13552 -0.17921 0.70323
 C297 C 1.15736 -0.16254 0.72854
 C298 C 1.16152 -0.12713 0.72474
 N299 N 1.14500 -0.11009 0.69772
 C300 C 1.10787 -0.10511 0.64446
 N301 N 1.09675 -0.07304 0.65297
 C302 C 1.08304 -0.05138 0.62809
 C303 C 1.08103 -0.06128 0.59199
 C304 C 1.09234 -0.09426 0.58251
 C305 C 1.10546 -0.11644 0.60879
 H306 H 1.13169 -0.20643 0.70422
 H307 H 1.17653 -0.11241 0.74409
 H308 H 1.07470 -0.02611 0.63643
 H309 H 1.09108 -0.10278 0.55487
 H310 H 1.10311 -0.17430 0.65568
 H311 H 1.11472 -0.14162 0.60117
 C312 C 0.36167 1.12529 1.12972
 C313 C 0.33929 1.14432 1.10707
 C314 C 0.31093 1.16182 1.12108
 C315 C 0.30413 1.16046 1.15789
 C316 C 0.32791 1.14142 1.17968
 N317 N 0.35533 1.12445 1.16523
 C318 C 0.39083 1.10482 1.11537
 N319 N 0.40111 1.07523 1.13170
 C320 C 0.42590 1.05404 1.11788
 C321 C 0.44120 1.06211 1.08557
 C322 C 0.43201 1.09316 1.06931
 C323 C 0.40718 1.11462 1.08421
 H324 H 0.29334 1.17446 1.10225
 H325 H 0.32546 1.14036 1.20834
 H326 H 0.43257 1.03041 1.13130
 H327 H 0.44365 1.10070 1.04464
 H328 H 0.34261 1.14461 1.07844
 H329 H 0.40069 1.13845 1.07112
 C330 C 0.35295 0.87215 0.88901
 C331 C 0.35509 0.85565 0.85563
 C332 C 0.32774 0.83556 0.84326
 C333 C 0.29849 0.83159 0.86416
 C334 C 0.29788 0.84727 0.89797
 N335 N 0.32455 0.86739 0.90919
 C336 C 0.37948 0.89666 0.90129
 N337 N 0.36969 0.92402 0.92157
 C338 C 0.39251 0.94834 0.93249
 C339 C 0.42751 0.94573 0.92310
 C340 C 0.43817 0.91748 0.90257
 C341 C 0.41432 0.89295 0.89168
 H342 H 0.32877 0.82411 0.81682
 H343 H 0.27541 0.84508 0.91452
 H344 H 0.38327 0.96958 0.94850
 H345 H 0.46503 0.91414 0.89515
 H346 H 0.37673 0.85956 0.83837
 H347 H 0.42324 0.87116 0.87630
 C348 C 0.62977 0.85438 1.15042
 C349 C 0.64879 0.82789 1.13431
 C350 C 0.67228 0.80841 1.15478
 C351 C 0.67761 0.81508 1.19167
 C352 C 0.65681 0.84122 1.20689
 N353 N 0.63421 0.86002 1.18618
 C354 C 0.60741 0.87809 1.12897
 N355 N 0.60133 0.91032 1.14159
 C356 C 0.58374 0.93434 1.12186
 C357 C 0.57192 0.92658 1.08697
 C358 C 0.57666 0.89323 1.07404
 C359 C 0.59394 0.86888 1.09501
 H360 H 0.68799 0.78996 1.14056
 H361 H 0.65811 0.84686 1.23523
 H362 H 0.58022 0.95974 1.13287
 H363 H 0.56729 0.88604 1.04748
 H364 H 0.64729 0.82323 1.10578
 H365 H 0.59688 0.84331 1.08437
 C366 C 0.67923 1.11750 0.88365
 C367 C 0.70608 1.10281 0.86397
 C368 C 0.72641 1.12341 0.84331
 C369 C 0.72061 1.15900 0.84236
 C370 C 0.69403 1.17271 0.86369
 N371 N 0.67387 1.15184 0.88282
 C372 C 0.65470 1.09605 0.90236
 N373 N 0.62038 1.10497 0.90134
 C374 C 0.59583 1.08484 0.91505
 C375 C 0.60539 1.05364 0.93086
 C376 C 0.64079 1.04462 0.93360
 C377 C 0.66553 1.06569 0.91919
 H378 H 0.74730 1.11126 0.82887
 H379 H 0.68774 1.19967 0.86366
 H380 H 0.56882 1.09300 0.91305
 H381 H 0.64921 1.02090 0.94589
 H382 H 0.71064 1.07551 0.86353
 H383 H 0.69274 1.05819 0.92090
 C384 C 0.11841 0.33476 0.10326
 C385 C 0.15449 0.33736 0.10937
 C386 C 0.17278 0.31111 0.12697
 C387 C 0.15528 0.28231 0.13848
 C388 C 0.11941 0.28034 0.13101
 N389 N 0.10219 0.30619 0.11387
 C390 C 0.09706 0.36226 0.08634
 N391 N 0.06566 0.35424 0.07109
 C392 C 0.04320 0.37822 0.05756
 C393 C 0.05145 0.41288 0.05977
 C394 C 0.08398 0.42176 0.07467
 C395 C 0.10684 0.39659 0.08796
 H396 H 0.20046 0.31360 0.13217
 H397 H 0.10505 0.25827 0.13876
 H398 H 0.01848 0.37019 0.04610
 H399 H 0.09137 0.44820 0.07696
 H400 H 0.16858 0.35922 0.10062
 H401 H 0.13110 0.40426 0.10067
 C402 C -0.14627 0.37207 -0.14848
 C403 C -0.14955 0.36961 -0.18588
 C404 C -0.16567 0.34122 -0.20152
 C405 C -0.17817 0.31515 -0.18002
 C406 C -0.17491 0.31922 -0.14270
 N407 N -0.15936 0.34706 -0.12822
 C408 C -0.12750 0.39984 -0.12986
 N409 N -0.13628 0.40776 -0.09576
 C410 C -0.11714 0.42894 -0.07452
 C411 C -0.08612 0.44234 -0.08678
 C412 C -0.07734 0.43590 -0.12242
 C413 C -0.09808 0.41476 -0.14415
 H414 H -0.16819 0.33967 -0.23038
 H415 H -0.18341 0.29975 -0.12484
 H416 H -0.12508 0.43345 -0.04732
 H417 H -0.05358 0.44572 -0.13287
 H418 H -0.13988 0.38931 -0.20280
 H419 H -0.08984 0.40843 -0.17086
 C420 C 0.11266 0.66429 -0.08983
 C421 C 0.09612 0.69411 -0.10266
 C422 C 0.11516 0.71788 -0.12078
 C423 C 0.15068 0.71221 -0.12619
 C424 C 0.16644 0.68226 -0.11275
 N425 N 0.14719 0.65911 -0.09549
 C426 C 0.09258 0.63766 -0.07247
 N427 N 0.10135 0.60421 -0.07762
 C428 C 0.08152 0.57855 -0.06561
 C429 C 0.05051 0.58614 -0.04808
 C430 C 0.04215 0.62038 -0.04080
 C431 C 0.06317 0.64613 -0.05268
 H432 H 0.10213 0.74078 -0.13058
 H433 H 0.19379 0.67696 -0.11666
 H434 H 0.08908 0.55240 -0.07130
 H435 H 0.01882 0.62732 -0.02670
 H436 H 0.06852 0.69867 -0.09971
 H437 H 0.05601 0.67238 -0.04703
 C438 C -0.14994 0.63190 0.15486
 C439 C -0.17108 0.65594 0.13668
 C440 C -0.18820 0.68137 0.15579
 C441 C -0.18472 0.68316 0.19322
 C442 C -0.16295 0.65887 0.21051
 N443 N -0.14618 0.63429 0.19115
 C444 C -0.13019 0.60566 0.13468
 N445 N -0.09778 0.59562 0.14651
 C446 C -0.07679 0.57507 0.12653
 C447 C -0.08785 0.56448 0.09213
 C448 C -0.12189 0.57278 0.08054
 C449 C -0.14319 0.59298 0.10181
 H450 H -0.20347 0.70022 0.14102
 H451 H -0.15939 0.65931 0.23931
 H452 H -0.05076 0.56893 0.13649
 H453 H -0.13165 0.56461 0.05444
 H454 H -0.17353 0.65593 0.10778
 H455 H -0.16921 0.59943 0.09202
 C456 C 1.14120 0.14077 0.64973
 C457 C 1.17735 0.14526 0.65174
 C458 C 1.19245 0.16184 0.68137
 C459 C 1.17186 0.17479 0.70920
 C460 C 1.13549 0.17093 0.70509
 N461 N 1.12157 0.15408 0.67631
 C462 C 1.12360 0.12070 0.62072
 N463 N 1.08819 0.12211 0.61761
 C464 C 1.06982 0.10208 0.59420
 C465 C 1.08715 0.07815 0.57265
 C466 C 1.12363 0.07702 0.57450
 C467 C 1.14191 0.09808 0.59838
 H468 H 1.22028 0.16533 0.68160
 H469 H 1.11795 0.17934 0.72556
 H470 H 1.04169 0.10377 0.59370
 H471 H 1.13809 0.05886 0.55847
 H472 H 1.19412 0.13638 0.63081
 H473 H 1.16986 0.09519 0.60018
 C474 C 0.89081 -0.13452 0.63772
 C475 C 0.85466 -0.12959 0.63818
 C476 C 0.83532 -0.14658 0.66328
 C477 C 0.85164 -0.16929 0.68775
 C478 C 0.88810 -0.17373 0.68577
 N479 N 0.90641 -0.15609 0.66170
 C480 C 0.91238 -0.11500 0.61331
 N481 N 0.94317 -0.10221 0.62573
 C482 C 0.96262 -0.08139 0.60574
 C483 C 0.95123 -0.07227 0.57107
 C484 C 0.92054 -0.08668 0.55707
 C485 C 0.90095 -0.10785 0.57816
 H486 H 0.80741 -0.14260 0.66248
 H487 H 0.90253 -0.18978 0.70447
 H488 H 0.98628 -0.07099 0.61739
 H489 H 0.91075 -0.08020 0.53051
 H490 H 0.84149 -0.11213 0.61987
 H491 H 0.87683 -0.11802 0.56734
 C492 C 1.14028 -0.12471 0.33582
 C493 C 1.12131 -0.13162 0.30406
 C494 C 1.13828 -0.14524 0.27472
 C495 C 1.17420 -0.15207 0.27659
 C496 C 1.19266 -0.14328 0.30818
 N497 N 1.17545 -0.13007 0.33670
 C498 C 1.12274 -0.11064 0.36768
 N499 N 1.14041 -0.08955 0.39059
 C500 C 1.12477 -0.07339 0.41839
 C501 C 1.08908 -0.07755 0.42393
 C502 C 1.07094 -0.10068 0.40190
 C503 C 1.08767 -0.11739 0.37398
 H504 H 1.12319 -0.15078 0.25052
 H505 H 1.22043 -0.14800 0.31059
 H506 H 1.13981 -0.05595 0.43494
 H507 H 1.04349 -0.10489 0.40537
 H508 H 1.09366 -0.12631 0.30160
 H509 H 1.07301 -0.13491 0.35716
 C510 C 0.88975 0.13411 0.35613
 C511 C 0.85370 0.12952 0.35416
 C512 C 0.83370 0.14567 0.32734
 C513 C 0.84926 0.16727 0.30275
 C514 C 0.88566 0.17133 0.30624
 N515 N 0.90462 0.15448 0.33195
 C516 C 0.91209 0.11535 0.38231
 N517 N 0.94272 0.10126 0.37157
 C518 C 0.96292 0.08102 0.39331
 C519 C 0.95255 0.07396 0.42810
 C520 C 0.92208 0.08979 0.44037
 C521 C 0.90165 0.11028 0.41747
 H522 H 0.80588 0.14201 0.32687
 H523 H 0.89954 0.18643 0.28751
 H524 H 0.98634 0.06939 0.38294
 H525 H 0.91301 0.08477 0.46693
 H526 H 0.84117 0.11295 0.37263
 H527 H 0.87762 0.12148 0.42690
 C528 C 0.11506 0.33444 -0.09385
 C529 C 0.09906 0.30888 -0.11450
 C530 C 0.11925 0.28673 -0.13488
 C531 C 0.15576 0.28944 -0.13478
 C532 C 0.17069 0.31538 -0.11313
 N533 N 0.15025 0.33715 -0.09405
 C534 C 0.09403 0.35965 -0.07387
 N535 N 0.10388 0.39281 -0.07241
 C536 C 0.08356 0.41778 -0.05785
 C537 C 0.05103 0.40990 -0.04429
 C538 C 0.04144 0.37561 -0.04366
 C539 C 0.06282 0.35047 -0.05836
 H540 H 0.10597 0.26677 -0.14968
 H541 H 0.19839 0.31960 -0.11258
 H542 H 0.09214 0.44388 -0.05836
 H543 H 0.01684 0.36831 -0.03291
 H544 H 0.07106 0.30639 -0.11559
 H545 H 0.05464 0.32422 -0.05824
 C546 C -0.14511 0.36893 0.14600
 C547 C -0.16339 0.34528 0.12469
 C548 C -0.17718 0.31671 0.14030
 C549 C -0.17335 0.31155 0.17731
 C550 C -0.15517 0.33609 0.19782
 N551 N -0.14133 0.36355 0.18181
 C552 C -0.12728 0.39755 0.12939
 N553 N -0.09524 0.40674 0.14218
 C554 C -0.07522 0.42901 0.12460
 C555 C -0.08688 0.44236 0.09161
 C556 C -0.12082 0.43517 0.07945
 C557 C -0.14112 0.41297 0.09832
 H558 H -0.18979 0.29809 0.12303
 H559 H -0.15177 0.33342 0.22647
 H560 H -0.04932 0.43426 0.13506
 H561 H -0.13102 0.44535 0.05439
 H562 H -0.16572 0.34793 0.09593
 H563 H -0.16684 0.40691 0.08790
 C564 C -0.13931 0.62456 -0.16189
 C565 C -0.13191 0.63202 -0.19746
 C566 C -0.14645 0.66128 -0.21332
 C567 C -0.16880 0.68332 -0.19417
 C568 C -0.17664 0.67364 -0.15907
 N569 N -0.16171 0.64541 -0.14421
 C570 C -0.12191 0.59657 -0.14145
 N571 N -0.13434 0.58914 -0.10876
 C572 C -0.11720 0.56806 -0.08545
 C573 C -0.08471 0.55392 -0.09399
 C574 C -0.07234 0.55934 -0.12837
 C575 C -0.09078 0.58067 -0.15217
 H576 H -0.14059 0.66591 -0.24093
 H577 H -0.19266 0.68941 -0.14212
 H578 H -0.12793 0.56423 -0.05939
 H579 H -0.04732 0.54897 -0.13602
 H580 H -0.11509 0.61574 -0.21309
 H581 H -0.07939 0.58611 -0.17750
 C582 C 0.11371 0.67073 0.10117
 C583 C 0.09893 0.69776 0.12042
 C584 C 0.12032 0.72156 0.13718
 C585 C 0.15681 0.71907 0.13475
 C586 C 0.17046 0.69187 0.11419
 N587 N 0.14891 0.66838 0.09877
 C588 C 0.09139 0.64416 0.08511
 N589 N 0.10105 0.61076 0.08820
 C590 C 0.07991 0.58515 0.07683
 C591 C 0.04694 0.59265 0.06143
 C592 C 0.03712 0.62696 0.05691
 C593 C 0.05919 0.65271 0.06876
 H594 H 0.10783 0.74256 0.15107
 H595 H 0.19822 0.68815 0.11177
 H596 H 0.08871 0.55901 0.08023
 H597 H 0.01210 0.63393 0.04486
 H598 H 0.07104 0.70014 0.12317
 H599 H 0.05102 0.67906 0.06547
 C600 C 0.37644 1.15327 0.87307
 C601 C 0.37458 1.16167 0.83658
 C602 C 0.34449 1.17742 0.82230
 C603 C 0.31638 1.18525 0.84423
 C604 C 0.32001 1.17796 0.88085
 N605 N 0.34931 1.16218 0.89402
 C606 C 0.40569 1.13300 0.88927
 N607 N 0.40949 1.13231 0.92560
 C608 C 0.43258 1.11105 0.94279
 C609 C 0.45277 1.08775 0.92321
 C610 C 0.45037 1.08894 0.88574
 C611 C 0.42698 1.11145 0.86868
 H612 H 0.34309 1.18327 0.79406
 H613 H 0.29899 1.18341 0.89877
 H614 H 0.43358 1.11101 0.97175
 H615 H 0.46535 1.07129 0.86960
 H616 H 0.39583 1.15603 0.81905
 H617 H 0.42438 1.11029 0.83985
 C618 C 0.35844 0.86772 1.09608
 C619 C 0.33035 0.85307 1.07710
 C620 C 0.30430 0.83720 1.09564
 C621 C 0.30611 0.83535 1.13314
 C622 C 0.33533 0.84920 1.15106
 N623 N 0.36030 0.86487 1.13238
 C624 C 0.38490 0.88782 1.07775
 N625 N 0.41735 0.89111 1.09291
 C626 C 0.44173 0.91150 1.07883
 C627 C 0.43353 0.93101 1.04836
 C628 C 0.40050 0.92749 1.03205
 C629 C 0.37628 0.90593 1.04644
 H630 H 0.28223 0.82722 1.08057
 H631 H 0.33816 0.84783 1.17988
 H632 H 0.46679 0.91378 1.09248
 H633 H 0.39288 0.94243 1.00890
 H634 H 0.32822 0.85403 1.04822
 H635 H 0.35053 0.90503 1.03410
 C636 C 0.65963 1.12857 1.12174
 C637 C 0.68506 1.14751 1.10510
 C638 C 0.70896 1.16583 1.12594
 C639 C 0.70775 1.16552 1.16343
 C640 C 0.68160 1.14665 1.17909
 N641 N 0.65842 1.12900 1.15814
 C642 C 0.63492 1.10740 1.10047
 N643 N 0.60224 1.10255 1.11240
 C644 C 0.57903 1.08215 1.09469
 C645 C 0.58871 1.06439 1.06363
 C646 C 0.62211 1.06924 1.05078
 C647 C 0.64516 1.09080 1.06892
 H648 H 0.72884 1.17980 1.11271
 H649 H 0.67955 1.14603 1.20787
 H650 H 0.55362 1.07870 1.10567
 H651 H 0.63065 1.05581 1.02705
 H652 H 0.68648 1.14830 1.07626
 H653 H 0.67115 1.09332 1.05906
 C654 C 0.65217 0.86156 0.85070
 C655 C 0.65509 0.86542 0.81349
 C656 C 0.68206 0.84873 0.79569
 C657 C 0.70631 0.82823 0.81462
 C658 C 0.70244 0.82498 0.85169
 N659 N 0.67607 0.84152 0.86843
 C660 C 0.62544 0.88002 0.87193
 N661 N 0.62874 0.87979 0.90835
 C662 C 0.60720 0.89808 0.92985
 C663 C 0.58081 0.91895 0.91478
 C664 C 0.57585 0.91842 0.87747
 C665 C 0.59776 0.89886 0.85602
 H666 H 0.68384 0.85180 0.76706
 H667 H 0.72084 0.80995 0.86759
 H668 H 0.61190 0.89769 0.95852
 H669 H 0.55555 0.93391 0.86476
 H670 H 0.63747 0.88151 0.79798
 H671 H 0.59310 0.89932 0.82744
   
