data_POSCAR
  _audit_creation_date              2014-09-24
  _audit_creation_method            'ToBaCCo'
  _symmetry_space_group_name_H-M    'P1'
  _symmetry_Int_Tables_number       1
  _symmetry_cell_setting            triclinic
  loop_
  _symmetry_equiv_pos_as_xyz
 x,y,z
_cell_length_a 30.7941
_cell_length_b 33.0945
_cell_length_c 34.7329
_cell_angle_alpha 88.498300
_cell_angle_beta 87.499000
_cell_angle_gamma 89.091400
loop_
  _atom_site_label
  _atom_site_type_symbol
  _atom_site_fract_x
  _atom_site_fract_y
  _atom_site_fract_z
N1 N 0.39981 0.36645 1.35911
 N2 N 1.14362 0.66304 0.81754
 N3 N 0.61914 -0.14761 0.16788
 N4 N -0.14012 1.15793 -0.33426
 N5 N 0.59412 0.60829 0.62102
 N6 N 0.84379 0.34383 0.17184
 N7 N 0.37273 0.14971 0.86255
 N8 N 0.20000 0.82282 0.30599
 Zn9 Zn 0.04932 0.98201 0.01379
 Zn10 Zn -0.03209 0.96115 -0.02546
 Zn11 Zn -0.03748 0.99662 0.05241
 Zn12 Zn -0.00883 1.04830 -0.01450
 O13 O -0.00723 0.99697 0.00638
 O14 O 0.06548 0.93876 -0.01337
 O15 O -0.07790 0.93496 -0.00294
 O16 O -0.00568 0.97929 0.09130
 O17 O 0.00574 0.92271 -0.04236
 O18 O 0.05921 0.96859 0.06329
 O19 O -0.08297 0.96446 0.05352
 O20 O -0.03812 1.08402 0.01555
 O21 O -0.05289 0.98632 -0.06745
 O22 O -0.05956 1.04467 0.06495
 O23 O -0.03453 1.05009 -0.05976
 O24 O 0.04403 1.06887 -0.02352
 O25 O 0.08736 1.02043 -0.00155
 C26 C 0.04559 0.91637 -0.03571
 C27 C -0.09691 0.93989 0.02980
 C28 C 0.03371 0.96785 0.09308
 C29 C -0.05839 1.07894 0.04787
 C30 C -0.05222 1.02312 -0.07891
 C31 C 0.08184 1.05511 -0.01726
 Zn32 Zn 0.49713 -0.05078 0.49409
 Zn33 Zn 0.52487 -0.00891 0.56399
 Zn34 Zn 0.53061 0.03371 0.48694
 Zn35 Zn 0.44393 0.01670 0.52544
 O36 O 0.49931 -0.00227 0.51759
 O37 O 0.51653 -0.09196 0.52351
 O38 O 0.57378 0.01991 0.56692
 O39 O 0.55313 0.01142 0.44352
 O40 O 0.53809 -0.06079 0.57482
 O41 O 0.52836 -0.05107 0.44977
 O42 O 0.57535 0.05366 0.51093
 O43 O 0.43596 0.06500 0.50336
 O44 O 0.48982 0.00700 0.60366
 O45 O 0.49895 0.07740 0.47272
 O46 O 0.42868 0.02243 0.57506
 O47 O 0.40392 -0.01368 0.50513
 O48 O 0.44357 -0.06367 0.48080
 C49 C 0.53256 -0.09300 0.55662
 C50 C 0.59071 0.04608 0.54368
 C51 C 0.54982 -0.02410 0.43103
 C52 C 0.45996 0.08757 0.48179
 C53 C 0.45035 0.01885 0.60520
 C54 C 0.40715 -0.04578 0.48605
 Zn55 Zn 0.95025 0.48039 0.48876
 Zn56 Zn 1.04276 0.47227 0.51225
 Zn57 Zn 1.02121 0.51772 0.43972
 Zn58 Zn 0.99681 0.55233 0.51501
 O59 O 1.00278 0.50546 0.48904
 O60 O 0.95091 0.43176 0.51279
 O61 O 1.08947 0.46128 0.48078
 O62 O 0.98323 0.50477 0.40501
 O63 O 1.02030 0.42410 0.52646
 O64 O 0.93327 0.47180 0.44072
 O65 O 1.07003 0.49146 0.42638
 O66 O 1.01735 0.59542 0.48837
 O67 O 1.06205 0.49287 0.55600
 O68 O 1.03396 0.56980 0.43153
 O69 O 1.02566 0.55101 0.55825
 O70 O 0.94157 0.56396 0.52847
 O71 O 0.90699 0.50962 0.51127
 C72 C 0.98186 0.41074 0.52628
 C73 C 1.09648 0.46977 0.44515
 C74 C 0.94873 0.48435 0.40816
 C75 C 1.03252 0.59942 0.45398
 C76 C 1.05203 0.52567 0.57276
 C77 C 0.90673 0.54441 0.52593
 Zn78 Zn 0.46901 0.49851 0.95369
 Zn79 Zn 0.54906 0.53391 0.98355
 Zn80 Zn 0.46287 0.54744 1.02566
 Zn81 Zn 0.50539 0.46638 1.02673
 O82 O 0.49649 0.51169 0.99734
 O83 O 0.50028 0.51048 0.91000
 O84 O 0.55333 0.58454 0.99975
 O85 O 0.41307 0.56082 1.00289
 O86 O 0.55955 0.53624 0.93273
 O87 O 0.41856 0.52553 0.94945
 O88 O 0.49055 0.59374 1.03239
 O89 O 0.48010 0.46889 1.07344
 O90 O 0.59424 0.50627 1.00264
 O91 O 0.44796 0.52894 1.07366
 O92 O 0.56136 0.45610 1.03478
 O93 O 0.48422 0.42243 1.00659
 O94 O 0.45661 0.44539 0.95235
 C95 C 0.53758 0.52600 0.90463
 C96 C 0.52763 0.60615 1.02037
 C97 C 0.39817 0.55045 0.97109
 C98 C 0.45730 0.49566 1.09056
 C99 C 0.59570 0.47449 1.02381
 C100 C 0.46426 0.41654 0.97612
 C101 C 1.32421 0.39286 0.36038
 C102 C 1.28727 0.40755 0.38082
 C103 C 1.28928 0.41543 0.42053
 C104 C 1.32866 0.40945 0.43882
 C105 C 1.36534 0.39484 0.41820
 C106 C 1.36335 0.38600 0.37897
 C107 C 1.25183 0.42861 0.44135
 C108 C 1.21248 0.43431 0.42286
 C109 C 1.21089 0.42727 0.38292
 C110 C 1.24817 0.41374 0.36225
 C111 C 1.17200 0.43393 0.36419
 C112 C 1.13498 0.44765 0.38470
 C113 C 1.13590 0.45427 0.42445
 C114 C 1.17472 0.44725 0.44352
 H115 H 1.32216 0.38539 0.33032
 H116 H 1.33091 0.41545 0.46918
 H117 H 1.39521 0.38958 0.43299
 H118 H 1.25326 0.43429 0.47188
 H119 H 1.24671 0.40795 0.33174
 H120 H 1.17026 0.42880 0.33361
 H121 H 1.10537 0.45281 0.36945
 H122 H 1.17577 0.45275 0.47409
 C123 C 0.19073 0.63908 0.87003
 C124 C 0.23030 0.62287 0.88258
 C125 C 0.26360 0.61243 0.85514
 C126 C 0.25731 0.61950 0.81583
 C127 C 0.21834 0.63656 0.80368
 C128 C 0.18433 0.64603 0.83047
 C129 C 0.30278 0.59536 0.86740
 C130 C 0.30958 0.58944 0.90681
 C131 C 0.27687 0.60101 0.93437
 C132 C 0.23721 0.61718 0.92207
 C133 C 0.28457 0.59640 0.97378
 C134 C 0.32423 0.58041 0.98578
 C135 C 0.35647 0.56794 0.95859
 C136 C 0.34883 0.57248 0.91911
 H137 H 0.16486 0.64625 0.89101
 H138 H 0.28270 0.61214 0.79446
 H139 H 0.21482 0.64245 0.77317
 H140 H 0.32810 0.58699 0.84627
 H141 H 0.21194 0.62565 0.94320
 H142 H 0.26001 0.60532 0.99532
 H143 H 0.32947 0.57719 1.01635
 H144 H 0.37378 0.56346 0.89792
 C145 C -0.31157 0.85300 0.12840
 C146 C -0.27776 0.87407 0.10878
 C147 C -0.27835 0.91681 0.10819
 C148 C -0.31379 0.93770 0.12526
 C149 C -0.34790 0.91650 0.14367
 C150 C -0.34675 0.87402 0.14636
 C151 C -0.24330 0.93803 0.09098
 C152 C -0.20798 0.91709 0.07372
 C153 C -0.20839 0.87444 0.07225
 C154 C -0.24314 0.85313 0.09015
 C155 C -0.17355 0.85391 0.05351
 C156 C -0.13792 0.87537 0.03770
 C157 C -0.13640 0.91743 0.04113
 C158 C -0.17179 0.93818 0.05858
 H159 H -0.31019 0.82028 0.13024
 H160 H -0.31506 0.97045 0.12452
 H161 H -0.37505 0.93338 0.15639
 H162 H -0.24326 0.97079 0.09144
 H163 H -0.24302 0.82036 0.08995
 H164 H -0.17350 0.82127 0.05174
 H165 H -0.11074 0.85901 0.02435
 H166 H -0.17076 0.97078 0.06087
 C167 C 0.79329 0.14979 0.62887
 C168 C 0.76201 0.12535 0.61332
 C169 C 0.76616 0.08283 0.61642
 C170 C 0.80314 0.06557 0.63283
 C171 C 0.83479 0.09021 0.64735
 C172 C 0.82933 0.13255 0.64721
 C173 C 0.73321 0.05840 0.60327
 C174 C 0.69674 0.07608 0.58617
 C175 C 0.69408 0.11862 0.58111
 C176 C 0.72638 0.14294 0.59514
 C177 C 0.65892 0.13628 0.56232
 C178 C 0.62620 0.11217 0.54923
 C179 C 0.62740 0.07013 0.55559
 C180 C 0.66279 0.05209 0.57404
 H181 H 0.78877 0.18226 0.62742
 H182 H 0.80750 0.03304 0.63461
 H183 H 0.86316 0.07608 0.65957
 H184 H 0.73587 0.02578 0.60645
 H185 H 0.72366 0.17558 0.59206
 H186 H 0.65663 0.16877 0.55789
 H187 H 0.59911 0.12653 0.53508
 H188 H 0.66402 0.01956 0.57856
 C189 C 0.39375 0.30153 0.39510
 C190 C 0.41250 0.26596 0.40995
 C191 C 0.45815 0.26038 0.40744
 C192 C 0.48427 0.29103 0.39063
 C193 C 0.46521 0.32641 0.37572
 C194 C 0.41984 0.33172 0.37750
 C195 C 0.47674 0.22407 0.42122
 C196 C 0.45017 0.19337 0.43738
 C197 C 0.40455 0.19945 0.44027
 C198 C 0.38607 0.23564 0.42657
 C199 C 0.37798 0.16912 0.45666
 C200 C 0.39626 0.13295 0.47006
 C201 C 0.44148 0.12620 0.46713
 C202 C 0.46834 0.15662 0.45066
 H203 H 0.35869 0.30529 0.39604
 H204 H 0.51931 0.28738 0.38850
 H205 H 0.48569 0.34947 0.36215
 H206 H 0.51172 0.21959 0.41908
 H207 H 0.35106 0.24006 0.42855
 H208 H 0.34301 0.17336 0.45911
 H209 H 0.37479 0.11004 0.48253
 H210 H 0.50326 0.15186 0.44848
 C211 C 0.90178 0.20462 0.62256
 C212 C 0.91071 0.24393 0.60848
 C213 C 0.88393 0.27667 0.62086
 C214 C 0.84984 0.26973 0.64826
 C215 C 0.84243 0.23077 0.66330
 C216 C 0.86782 0.19801 0.65012
 C217 C 0.89199 0.31584 0.60608
 C218 C 0.92754 0.32300 0.58028
 C219 C 0.95551 0.29055 0.56932
 C220 C 0.94641 0.25113 0.58288
 C221 C 0.99237 0.29819 0.54523
 C222 C 1.00139 0.33754 0.53200
 C223 C 0.97301 0.36965 0.54164
 C224 C 0.93600 0.36221 0.56567
 H225 H 0.92176 0.17922 0.61305
 H226 H 0.82933 0.29449 0.65840
 H227 H 0.81646 0.22586 0.68487
 H228 H 0.87104 0.34081 0.61512
 H229 H 0.96749 0.22618 0.57399
 H230 H 1.01436 0.27378 0.53682
 H231 H 1.03005 0.34282 0.51345
 H232 H 0.91435 0.38709 0.57356
 C233 C 0.14187 0.72504 -0.14389
 C234 C 0.11856 0.75574 -0.12445
 C235 C 0.07265 0.75453 -0.12111
 C236 C 0.05095 0.72210 -0.13645
 C237 C 0.07441 0.69161 -0.15558
 C238 C 0.11996 0.69298 -0.15990
 C239 C 0.04918 0.78593 -0.10290
 C240 C 0.07103 0.81844 -0.08776
 C241 C 0.11700 0.81912 -0.09036
 C242 C 0.14043 0.78789 -0.10879
 C243 C 0.13884 0.85116 -0.07459
 C244 C 0.11547 0.88241 -0.05661
 C245 C 0.06975 0.88255 -0.05439
 C246 C 0.04770 0.85034 -0.07008
 H247 H 0.17695 0.72652 -0.14744
 H248 H 0.01582 0.72053 -0.13400
 H249 H 0.05700 0.66705 -0.16758
 H250 H 0.01395 0.78516 -0.10071
 H251 H 0.17565 0.78872 -0.11110
 H252 H 0.17403 0.85210 -0.07621
 H253 H 0.13329 0.90685 -0.04484
 H254 H 0.01247 0.84993 -0.06826
 C255 C 0.60133 0.80560 1.11633
 C256 C 0.58720 0.76788 1.10467
 C257 C 0.57567 0.73780 1.13279
 C258 C 0.58016 0.74531 1.17189
 C259 C 0.59551 0.78242 1.18315
 C260 C 0.60553 0.81322 1.15566
 C261 C 0.56005 0.70061 1.12142
 C262 C 0.55720 0.69252 1.08223
 C263 C 0.57047 0.72189 1.05397
 C264 C 0.58467 0.75967 1.06539
 C265 C 0.56975 0.71272 1.01477
 C266 C 0.55613 0.67477 1.00373
 C267 C 0.54171 0.64611 1.03165
 C268 C 0.54199 0.65517 1.07082
 H269 H 0.60888 0.82913 1.09492
 H270 H 0.57200 0.72241 1.19378
 H271 H 0.59919 0.78732 1.21352
 H272 H 0.55063 0.67779 1.14306
 H273 H 0.59424 0.78243 1.04376
 H274 H 0.58018 0.73467 0.99273
 H275 H 0.55626 0.66794 0.97339
 H276 H 0.53154 0.63264 1.09236
 C277 C 0.40677 0.41542 1.30384
 C278 C 0.41559 0.42393 1.26443
 C279 C 0.42873 0.39220 1.23980
 C280 C 0.43205 0.35263 1.25465
 C281 C 0.42252 0.34435 1.29358
 C282 C 0.41011 0.37555 1.31876
 C283 C 0.43834 0.40040 1.20067
 C284 C 0.43475 0.43989 1.18559
 C285 C 0.42077 0.47166 1.20978
 C286 C 0.41141 0.46351 1.24917
 C287 C 0.41679 0.51102 1.19409
 C288 C 0.42745 0.51889 1.15501
 C289 C 0.44247 0.48756 1.13109
 C290 C 0.44546 0.44804 1.14663
 H291 H 0.39720 0.43967 1.32294
 H292 H 0.44172 0.32797 1.23606
 H293 H 0.42444 0.31327 1.30394
 H294 H 0.44880 0.37603 1.18196
 H295 H 0.40102 0.48787 1.26789
 H296 H 0.40594 0.53576 1.21211
 H297 H 0.42493 0.54962 1.14374
 H298 H 0.45663 0.42349 1.12845
 C299 C 0.62363 -0.11019 0.22868
 C300 C 0.60407 -0.09500 0.26271
 C301 C 0.55936 -0.10152 0.27121
 C302 C 0.53457 -0.12125 0.24476
 C303 C 0.55399 -0.13513 0.21047
 C304 C 0.59881 -0.13057 0.20236
 C305 C 0.54014 -0.08846 0.30610
 C306 C 0.56476 -0.06802 0.33221
 C307 C 0.60891 -0.05954 0.32295
 C308 C 0.62847 -0.07358 0.28844
 C309 C 0.63269 -0.03737 0.34856
 C310 C 0.61313 -0.02448 0.38335
 C311 C 0.56996 -0.03452 0.39337
 C312 C 0.54587 -0.05605 0.36760
 H313 H 0.65823 -0.10660 0.22283
 H314 H 0.50015 -0.12600 0.25061
 H315 H 0.53408 -0.15006 0.19037
 H316 H 0.50606 -0.09427 0.31295
 H317 H 0.66258 -0.06787 0.28164
 H318 H 0.66643 -0.03022 0.34178
 H319 H 0.63205 -0.00782 0.40299
 H320 H 0.51228 -0.06330 0.37512
 C321 C -0.13934 1.11749 -0.27262
 C322 C -0.11840 1.10430 -0.23932
 C323 C -0.07814 1.12106 -0.23074
 C324 C -0.05891 1.14974 -0.25615
 C325 C -0.07899 1.16137 -0.29003
 C326 C -0.11937 1.14531 -0.29901
 C327 C -0.05759 1.10875 -0.19704
 C328 C -0.07605 1.07879 -0.17246
 C329 C -0.11545 1.06078 -0.18182
 C330 C -0.13681 1.07420 -0.21479
 C331 C -0.13269 1.02948 -0.15809
 C332 C -0.11135 1.01643 -0.12520
 C333 C -0.07306 1.03514 -0.11498
 C334 C -0.05554 1.06633 -0.13875
 H335 H -0.17112 1.10586 -0.27796
 H336 H -0.02796 1.16279 -0.25010
 H337 H -0.06259 1.18294 -0.30925
 H338 H -0.02701 1.12211 -0.19021
 H339 H -0.16735 1.06078 -0.22166
 H340 H -0.16266 1.01510 -0.16498
 H341 H -0.12540 0.99242 -0.10714
 H342 H -0.02570 1.08055 -0.13120
 C343 C 1.12976 0.61250 0.76798
 C344 C 1.11504 0.60280 0.73164
 C345 C 1.09711 0.63358 0.70788
 C346 C 1.09493 0.67346 0.72043
 C347 C 1.11036 0.68293 0.75619
 C348 C 1.12774 0.65268 0.78045
 C349 C 1.08170 0.62411 0.67190
 C350 C 1.08437 0.58433 0.65904
 C351 C 1.10308 0.55358 0.68225
 C352 C 1.11808 0.56295 0.71857
 C353 C 1.10629 0.51399 0.66869
 C354 C 1.09058 0.50488 0.63272
 C355 C 1.07102 0.53513 0.60989
 C356 C 1.06838 0.57489 0.62325
 H357 H 1.14289 0.58895 0.78657
 H358 H 1.08154 0.69741 0.70246
 H359 H 1.10897 0.71411 0.76493
 H360 H 1.06762 0.64773 0.65390
 H361 H 1.13214 0.53934 0.73658
 H362 H 1.12071 0.49003 0.68599
 H363 H 1.09297 0.47403 0.62311
 H364 H 1.05376 0.59863 0.60579
 C365 C 0.67058 0.61290 0.59768
 C366 C 0.70962 0.59469 0.58451
 C367 C 0.71141 0.55262 0.57833
 C368 C 0.67406 0.52946 0.58593
 C369 C 0.63545 0.54781 0.59978
 C370 C 0.63342 0.58960 0.60555
 C371 C 0.75056 0.53441 0.56507
 C372 C 0.78806 0.55767 0.55861
 C373 C 0.78624 0.59963 0.56547
 C374 C 0.74700 0.61790 0.57804
 C375 C 0.82380 0.62270 0.55982
 C376 C 0.86291 0.60450 0.54741
 C377 C 0.86516 0.56294 0.53999
 C378 C 0.82747 0.53966 0.54562
 H379 H 0.66924 0.64507 0.60282
 H380 H 0.67483 0.49716 0.58154
 H381 H 0.60701 0.52954 0.60596
 H382 H 0.75194 0.50218 0.56014
 H383 H 0.74564 0.65012 0.58311
 H384 H 0.82297 0.65485 0.56504
 H385 H 0.89137 0.62318 0.54316
 H386 H 0.82885 0.50754 0.54021
 C387 C 0.80066 0.37847 1.12254
 C388 C 0.76081 0.39374 1.10987
 C389 C 0.72274 0.38926 1.13384
 C390 C 0.72540 0.37062 1.17040
 C391 C 0.76535 0.35637 1.18308
 C392 C 0.80306 0.35988 1.15916
 C393 C 0.68269 0.40356 1.12097
 C394 C 0.68031 0.42319 1.08483
 C395 C 0.71852 0.42883 1.06134
 C396 C 0.75847 0.41361 1.07380
 C397 C 0.71609 0.44985 1.02587
 C398 C 0.67619 0.46512 1.01378
 C399 C 0.63798 0.45880 1.03654
 C400 C 0.64028 0.43767 1.07201
 H401 H 0.82996 0.38135 1.10429
 H402 H 0.69661 0.36712 1.18919
 H403 H 0.76687 0.34186 1.21130
 H404 H 0.65345 0.39972 1.13919
 H405 H 0.78772 0.41753 1.05562
 H406 H 0.74506 0.45468 1.00760
 H407 H 0.67508 0.48137 0.98635
 H408 H 0.61098 0.43320 1.08999
 C409 C 0.29970 1.14876 -0.10493
 C410 C 0.26576 1.12764 -0.08555
 C411 C 0.27180 1.08643 -0.07496
 C412 C 0.31184 1.06723 -0.08352
 C413 C 0.34517 1.08831 -0.10335
 C414 C 0.33929 1.12904 -0.11455
 C415 C 0.23742 1.06480 -0.05691
 C416 C 0.19672 1.08357 -0.05017
 C417 C 0.19079 1.12485 -0.06053
 C418 C 0.22548 1.14674 -0.07770
 C419 C 0.14987 1.14330 -0.05450
 C420 C 0.11476 1.12079 -0.03956
 C421 C 0.12001 1.07955 -0.02978
 C422 C 0.16143 1.06135 -0.03441
 H423 H 0.29486 1.18007 -0.11386
 H424 H 0.31708 1.03571 -0.07557
 H425 H 0.37557 1.07274 -0.11034
 H426 H 0.24198 1.03311 -0.04911
 H427 H 0.22078 1.17830 -0.08593
 H428 H 0.14477 1.17490 -0.06220
 H429 H 0.08326 1.13559 -0.03611
 H430 H 0.16585 1.02951 -0.02723
 C431 C 0.23229 -0.13369 0.35286
 C432 C 0.26655 -0.12448 0.37631
 C433 C 0.30543 -0.14787 0.37425
 C434 C 0.30891 -0.18063 0.34940
 C435 C 0.27418 -0.19014 0.32687
 C436 C 0.23601 -0.16655 0.32828
 C437 C 0.34014 -0.13812 0.39699
 C438 C 0.33634 -0.10550 0.42200
 C439 C 0.29701 -0.08290 0.42482
 C440 C 0.26243 -0.09245 0.40189
 C441 C 0.29317 -0.05060 0.45007
 C442 C 0.32844 -0.03976 0.47130
 C443 C 0.36827 -0.06104 0.46774
 C444 C 0.37162 -0.09453 0.44359
 H445 H 0.20234 -0.11602 0.35416
 H446 H 0.33832 -0.19903 0.34760
 H447 H 0.27696 -0.21577 0.30812
 H448 H 0.37016 -0.15569 0.39501
 H449 H 0.23246 -0.07479 0.40375
 H450 H 0.26318 -0.03313 0.45277
 H451 H 0.32486 -0.01387 0.48966
 H452 H 0.40210 -0.11122 0.44053
 C453 C 0.57886 -0.31868 0.62548
 C454 C 0.56915 -0.28116 0.60791
 C455 C 0.55881 -0.27920 0.56860
 C456 C 0.55873 -0.31480 0.54753
 C457 C 0.56957 -0.35187 0.56504
 C458 C 0.57960 -0.35404 0.60403
 C459 C 0.54945 -0.24168 0.55086
 C460 C 0.55110 -0.20602 0.57170
 C461 C 0.56204 -0.20798 0.61084
 C462 C 0.57063 -0.24554 0.62878
 C463 C 0.56436 -0.17226 0.63139
 C464 C 0.55559 -0.13492 0.61350
 C465 C 0.54405 -0.13255 0.57476
 C466 C 0.54204 -0.16837 0.55400
 H467 H 0.58752 -0.32037 0.65541
 H468 H 0.55110 -0.31386 0.51735
 H469 H 0.57048 -0.37898 0.54822
 H470 H 0.54136 -0.24021 0.52076
 H471 H 0.57892 -0.24701 0.65882
 H472 H 0.57283 -0.17320 0.66136
 H473 H 0.55724 -0.10788 0.63025
 H474 H 0.53331 -0.16703 0.52408
 C475 C 1.15886 0.78304 0.35577
 C476 C 1.13408 0.74923 0.36704
 C477 C 1.12574 0.71963 0.33975
 C478 C 1.14137 0.72496 0.30144
 C479 C 1.16541 0.75909 0.29036
 C480 C 1.17472 0.78805 0.31748
 C481 C 1.10226 0.68508 0.35124
 C482 C 1.08683 0.67986 0.38963
 C483 C 1.09403 0.71005 0.41661
 C484 C 1.11767 0.74451 0.40516
 C485 C 1.07813 0.70492 0.45481
 C486 C 1.05657 0.66960 0.46656
 C487 C 1.05059 0.63870 0.44035
 C488 C 1.06513 0.64446 0.40166
 H489 H 1.16551 0.80574 0.37657
 H490 H 1.13510 0.70271 0.28010
 H491 H 1.17740 0.76274 0.26072
 H492 H 1.09644 0.66209 0.33045
 H493 H 1.12371 0.76740 0.42599
 H494 H 1.08312 0.72787 0.47580
 H495 H 1.04574 0.66598 0.49652
 H496 H 1.06057 0.62098 0.38109
 C497 C -0.15390 1.27587 0.14518
 C498 C -0.13189 1.24509 0.12496
 C499 C -0.08998 1.25216 0.10801
 C500 C -0.07053 1.28977 0.11237
 C501 C -0.09227 1.31986 0.13357
 C502 C -0.13405 1.31310 0.14980
 C503 C -0.06800 1.22136 0.08761
 C504 C -0.08679 1.18317 0.08514
 C505 C -0.12823 1.17596 0.10306
 C506 C -0.15079 1.20713 0.12221
 C507 C -0.14617 1.13739 0.10220
 C508 C -0.12310 1.10602 0.08424
 C509 C -0.08229 1.11291 0.06587
 C510 C -0.06444 1.15170 0.06589
 H511 H -0.18601 1.27073 0.15827
 H512 H -0.03835 1.29570 0.09982
 H513 H -0.07678 1.34858 0.13716
 H514 H -0.03599 1.22682 0.07441
 H515 H -0.18266 1.20158 0.13569
 H516 H -0.17774 1.13131 0.11595
 H517 H -0.13735 1.07629 0.08439
 H518 H -0.03268 1.15694 0.05212
 C519 C 0.39000 0.20371 0.90676
 C520 C 0.40128 0.24381 0.91326
 C521 C 0.40409 0.27212 0.88203
 C522 C 0.39573 0.25973 0.84482
 C523 C 0.38525 0.21960 0.83854
 C524 C 0.38239 0.19132 0.86938
 C525 C 0.41576 0.31215 0.88842
 C526 C 0.42550 0.32405 0.92551
 C527 C 0.42304 0.29555 0.95660
 C528 C 0.41054 0.25579 0.95036
 C529 C 0.43365 0.30714 0.99346
 C530 C 0.44700 0.34644 0.99950
 C531 C 0.44952 0.37517 0.96893
 C532 C 0.43830 0.36383 0.93197
 H533 H 0.38813 0.18180 0.93050
 H534 H 0.39774 0.28095 0.82053
 H535 H 0.37921 0.21050 0.80956
 H536 H 0.41787 0.33384 0.86447
 H537 H 0.40866 0.23404 0.97427
 H538 H 0.43197 0.28570 1.01759
 H539 H 0.45518 0.35441 1.02832
 H540 H 0.44033 0.38565 0.90815
 C541 C 0.60192 0.58250 0.68773
 C542 C 0.58372 0.57083 0.72393
 C543 C 0.53802 0.57020 0.73000
 C544 C 0.51137 0.58151 0.69965
 C545 C 0.52984 0.59380 0.66383
 C546 C 0.57517 0.59433 0.65757
 C547 C 0.51982 0.55903 0.76643
 C548 C 0.54678 0.54952 0.79708
 C549 C 0.59248 0.55060 0.79093
 C550 C 0.61062 0.56070 0.75433
 C551 C 0.61941 0.54236 0.82173
 C552 C 0.60134 0.53399 0.85853
 C553 C 0.55603 0.53283 0.86509
 C554 C 0.52884 0.53998 0.83406
 H555 H 0.63694 0.58353 0.68326
 H556 H 0.47629 0.58135 0.70377
 H557 H 0.50882 0.60288 0.64086
 H558 H 0.48477 0.55858 0.77113
 H559 H 0.64568 0.56151 0.74970
 H560 H 0.65447 0.54312 0.81752
 H561 H 0.62288 0.52840 0.88199
 H562 H 0.49384 0.53956 0.83899
 C563 C 0.37046 0.10957 0.80391
 C564 C 0.39135 0.09192 0.77170
 C565 C 0.43713 0.09363 0.76667
 C566 C 0.46117 0.11300 0.79399
 C567 C 0.43999 0.13115 0.82560
 C568 C 0.39458 0.12964 0.83072
 C569 C 0.45801 0.07681 0.73402
 C570 C 0.43358 0.05938 0.70578
 C571 C 0.38778 0.05788 0.71078
 C572 C 0.36703 0.07359 0.74397
 C573 C 0.36333 0.04169 0.68195
 C574 C 0.38388 0.02826 0.64793
 C575 C 0.42930 0.02990 0.64251
 C576 C 0.45409 0.04470 0.67194
 H577 H 0.33535 0.10884 0.80764
 H578 H 0.49625 0.11468 0.79059
 H579 H 0.45893 0.14647 0.84617
 H580 H 0.49310 0.07828 0.73008
 H581 H 0.33190 0.07255 0.74771
 H582 H 0.32823 0.04034 0.68529
 H583 H 0.36419 0.01685 0.62564
 H584 H 0.48912 0.04650 0.66778
 C585 C 0.14457 0.85946 0.26933
 C586 C 0.13217 0.88180 0.23668
 C587 C 0.16367 0.89215 0.20737
 C588 C 0.20738 0.88117 0.21203
 C589 C 0.21953 0.85933 0.24496
 C590 C 0.18811 0.84770 0.27343
 C591 C 0.15083 0.91272 0.17375
 C592 C 0.10693 0.92320 0.16923
 C593 C 0.07584 0.91407 0.19928
 C594 C 0.08863 0.89340 0.23272
 C595 C 0.03220 0.92508 0.19514
 C596 C 0.01906 0.94383 0.16109
 C597 C 0.04923 0.95178 0.13034
 C598 C 0.09338 0.94194 0.13489
 H599 H 0.12043 0.85091 0.29158
 H600 H 0.23204 0.88904 0.19002
 H601 H 0.25325 0.85044 0.24779
 H602 H 0.17483 0.92003 0.15095
 H603 H 0.06458 0.88581 0.25542
 H604 H 0.00805 0.91855 0.21800
 H605 H -0.01512 0.95107 0.15849
 H606 H 0.11702 0.94810 0.11151
 C607 C 0.86060 0.39442 0.21950
 C608 C 0.87464 0.40446 0.25589
 C609 C 0.88576 0.37338 0.28260
 C610 C 0.88348 0.33286 0.27211
 C611 C 0.87043 0.32320 0.23550
 C612 C 0.85867 0.35384 0.20906
 C613 C 0.89950 0.38328 0.31911
 C614 C 0.90378 0.42388 0.32878
 C615 C 0.89369 0.45495 0.30169
 C616 C 0.87842 0.44505 0.26571
 C617 C 0.90015 0.49543 0.31067
 C618 C 0.91749 0.50499 0.34573
 C619 C 0.92708 0.47438 0.37287
 C620 C 0.91946 0.43392 0.36462
 H621 H 0.85176 0.41803 0.19895
 H622 H 0.89202 0.30866 0.29213
 H623 H 0.86873 0.29174 0.22798
 H624 H 0.90783 0.35944 0.33964
 H625 H 0.87046 0.46889 0.24505
 H626 H 0.89290 0.51958 0.29017
 H627 H 0.92359 0.53631 0.35169
 H628 H 0.92776 0.41024 0.38532
   
