data_POSCAR
  _audit_creation_date              2014-09-24
  _audit_creation_method            'ToBaCCo'
  _symmetry_space_group_name_H-M    'P1'
  _symmetry_Int_Tables_number       1
  _symmetry_cell_setting            triclinic
  loop_
  _symmetry_equiv_pos_as_xyz
 x,y,z
_cell_length_a 33.4936
_cell_length_b 33.1599
_cell_length_c 37.9614
_cell_angle_alpha 85.514200
_cell_angle_beta 89.349100
_cell_angle_gamma 82.612600
loop_
  _atom_site_label
  _atom_site_type_symbol
  _atom_site_fract_x
  _atom_site_fract_y
  _atom_site_fract_z
C1 C 1.19242 0.23991 0.21167
 C2 C 1.21367 0.26826 0.18672
 C3 C 1.23354 0.29677 0.20356
 C4 C 1.22856 0.29382 0.24373
 C5 C 1.22365 0.22132 0.23885
 C6 C 1.24381 0.24956 0.25562
 C7 C 1.16193 0.26712 0.23176
 C8 C 1.17926 0.29855 0.25133
 H9 H 1.21235 0.26700 0.15839
 H10 H 1.24399 0.31616 0.25709
 H11 H 1.22668 0.18911 0.24703
 H12 H 1.13037 0.26313 0.23355
 C13 C 0.71342 -0.27598 0.19708
 C14 C 0.74339 -0.25127 0.17811
 C15 C 0.76108 -0.22481 0.19891
 C16 C 0.74642 -0.22601 0.23702
 C17 C 0.73580 -0.29911 0.22835
 C18 C 0.75522 -0.27443 0.25259
 C19 C 0.68158 -0.24530 0.21213
 C20 C 0.69679 -0.21602 0.23552
 H21 H 0.74836 -0.25204 0.14996
 H22 H 0.76048 -0.20537 0.25346
 H23 H 0.73728 -0.33188 0.23345
 H24 H 0.64968 -0.24554 0.20798
 C25 C 0.69631 0.21529 -0.29933
 C26 C 0.72081 0.24126 -0.32037
 C27 C 0.74308 0.26621 -0.30147
 C28 C 0.73732 0.26045 -0.26177
 C29 C 0.72334 0.18985 -0.27483
 C30 C 0.74851 0.21095 -0.25164
 C31 C 0.66937 0.24136 -0.27818
 C32 C 0.68835 0.26879 -0.25526
 H33 H 0.72050 0.24280 -0.34896
 H34 H 0.75470 0.27929 -0.24624
 H35 H 0.72504 0.15687 -0.27194
 H36 H 0.63714 0.24031 -0.27719
 C37 C 1.20994 -0.28021 -0.29945
 C38 C 1.23806 -0.25491 -0.32075
 C39 C 1.26093 -0.23175 -0.30071
 C40 C 1.25315 -0.23694 -0.26106
 C41 C 1.23660 -0.30745 -0.27295
 C42 C 1.26182 -0.28661 -0.24982
 C43 C 1.18323 -0.25048 -0.27832
 C44 C 1.20412 -0.22483 -0.25565
 H45 H 1.23857 -0.25330 -0.34932
 H46 H 1.27119 -0.21901 -0.24522
 H47 H 1.23754 -0.34032 -0.27053
 H48 H 1.15069 -0.24849 -0.27860
 C49 C 0.25991 0.21333 0.79116
 C50 C 0.28596 0.23168 0.81310
 C51 C 0.31313 0.25908 0.79443
 C52 C 0.30452 0.25892 0.75093
 C53 C 0.23574 0.24807 0.76854
 C54 C 0.25946 0.27222 0.74643
 C55 C 0.28723 0.18991 0.76537
 C56 C 0.31019 0.21412 0.74286
 H57 H 0.28561 0.22701 0.84168
 H58 H 0.32364 0.27809 0.73447
 H59 H 0.20324 0.25148 0.76806
 H60 H 0.28721 0.15752 0.76396
 C61 C 0.72329 0.73878 0.79567
 C62 C 0.74512 0.76172 0.81804
 C63 C 0.77446 0.78691 0.80004
 C64 C 0.77164 0.78127 0.75711
 C65 C 0.70235 0.76847 0.76973
 C66 C 0.72718 0.79113 0.74738
 C67 C 0.75334 0.71351 0.77606
 C68 C 0.77994 0.73532 0.75445
 H69 H 0.74210 0.75983 0.84658
 H70 H 0.79190 0.79920 0.74072
 H71 H 0.66987 0.77280 0.76742
 H72 H 0.75443 0.68068 0.77728
 C73 C 0.76338 0.20903 0.30177
 C74 C 0.78835 0.23247 0.32374
 C75 C 0.81047 0.26287 0.30384
 C76 C 0.80037 0.26154 0.26107
 C77 C 0.73500 0.24089 0.28016
 C78 C 0.75438 0.26879 0.25784
 C79 C 0.79247 0.18928 0.27529
 C80 C 0.81219 0.21700 0.25311
 H81 H 0.79057 0.22718 0.35222
 H82 H 0.81592 0.28344 0.24394
 H83 H 0.70278 0.24090 0.28172
 H84 H 0.79468 0.15699 0.27207
 C85 C 0.23173 0.70797 0.29412
 C86 C 0.25880 0.72574 0.31891
 C87 C 0.28650 0.74937 0.30180
 C88 C 0.28236 0.75306 0.26113
 C89 C 0.21103 0.74462 0.27177
 C90 C 0.23779 0.76893 0.25338
 C91 C 0.25997 0.68463 0.26881
 C92 C 0.28709 0.70882 0.25048
 H93 H 0.25746 0.72026 0.34741
 H94 H 0.30348 0.77195 0.24707
 H95 H 0.17871 0.74933 0.26899
 H96 H 0.25822 0.65294 0.26510
 O97 O 1.07013 0.04336 0.03587
 O98 O 0.93773 -0.05054 0.01677
 O99 O 0.94380 0.07283 0.02305
 O100 O 1.06488 -0.07889 0.01750
 O101 O 0.93205 0.01374 0.03931
 O102 O 1.07529 -0.02815 0.04492
 O103 O 0.99562 -0.07743 0.03567
 O104 O 1.00908 0.06149 0.05063
 C105 C 1.04519 0.05808 0.05783
 C106 C 0.95870 -0.07318 0.03933
 C107 C 0.93022 0.04958 0.04593
 C108 C 1.07748 -0.06544 0.04438
 O109 O 1.09017 -0.03489 -0.02612
 O110 O 0.92675 0.04997 -0.02989
 O111 O 1.04130 0.08531 -0.01140
 O112 O 0.97367 -0.07293 -0.03279
 O113 O 0.94635 -0.01410 -0.05061
 O114 O 1.07290 0.03639 -0.03646
 O115 O 1.04080 -0.05818 -0.04959
 O116 O 0.97964 0.07850 -0.04056
 Co117 Co 1.07045 0.00398 0.00400
 Co118 Co 0.94223 0.00003 -0.00556
 Co119 Co 0.99469 0.06719 0.00482
 Co120 Co 1.01741 -0.06444 -0.00669
 O121 O 1.00623 0.00161 -0.00084
 C122 C 1.07595 -0.05023 -0.05160
 C123 C 0.94547 0.07341 -0.04942
 C124 C 1.06368 0.07343 -0.03572
 C125 C 0.95442 -0.05023 -0.05612
 O126 O 1.04071 0.50538 0.56925
 O127 O 0.91432 0.46113 0.52823
 O128 O 0.94463 0.58360 0.53991
 O129 O 1.03963 0.43581 0.54936
 O130 O 0.90857 0.53241 0.54758
 O131 O 1.09271 0.46435 0.53384
 O132 O 0.96942 0.43517 0.55368
 O133 O 1.01665 0.56854 0.55495
 C134 C 1.03241 0.54134 0.57770
 C135 C 0.93234 0.43804 0.55214
 C136 C 0.91727 0.56602 0.55602
 C137 C 1.07772 0.43285 0.54822
 O138 O 1.05962 0.49449 0.47573
 O139 O 0.91082 0.56108 0.48300
 O140 O 1.03354 0.56968 0.48286
 O141 O 0.96246 0.43360 0.48220
 O142 O 0.92577 0.49018 0.46309
 O143 O 1.07637 0.54244 0.51951
 O144 O 1.03421 0.43865 0.47693
 O145 O 0.96659 0.58297 0.46981
 Co146 Co 1.04779 0.49866 0.52206
 Co147 Co 0.92196 0.51069 0.50609
 Co148 Co 0.99035 0.57080 0.51224
 Co149 Co 1.00046 0.44209 0.51511
 O150 O 0.98761 0.50787 0.51282
 C151 C 1.05503 0.46321 0.46140
 C152 C 0.93055 0.58338 0.46388
 C153 C 1.06842 0.56748 0.49400
 C154 C 0.94009 0.45423 0.45885
 O155 O 0.54660 0.01643 0.54197
 O156 O 0.42400 -0.04428 0.51634
 O157 O 0.45168 0.06615 0.52591
 O158 O 0.54757 -0.09453 0.49586
 O159 O 0.40772 0.03017 0.50534
 O160 O 0.55161 -0.05122 0.53190
 O161 O 0.48289 -0.07517 0.52782
 O162 O 0.52406 0.07412 0.51682
 C163 C 0.54046 0.05376 0.54272
 C164 C 0.44681 -0.06895 0.53590
 C165 C 0.41746 0.05486 0.52676
 C166 C 0.56319 -0.08592 0.52322
 O167 O 0.57188 -0.03440 0.46132
 O168 O 0.43070 0.02133 0.43626
 O169 O 0.51516 0.07449 0.44943
 O170 O 0.47758 -0.10620 0.46874
 O171 O 0.44490 -0.04930 0.44631
 O172 O 0.56820 0.03702 0.47324
 O173 O 0.51991 -0.05637 0.43859
 O174 O 0.43994 0.07650 0.45861
 Co175 Co 0.55473 -0.00789 0.50102
 Co176 Co 0.43249 -0.00993 0.47744
 Co177 Co 0.48370 0.06555 0.48780
 Co178 Co 0.49967 -0.06309 0.48311
 O179 O 0.49385 -0.00162 0.48869
 C180 C 0.55525 -0.04771 0.43554
 C181 C 0.42788 0.05886 0.43383
 C182 C 0.55240 0.06415 0.45032
 C183 C 0.44794 -0.08786 0.44936
 O184 O 0.57667 0.52627 0.03821
 O185 O 0.42846 0.44607 0.01863
 O186 O 0.45290 0.56640 0.02898
 O187 O 0.55148 0.40496 0.03415
 O188 O 0.43017 0.51009 0.04209
 O189 O 0.56909 0.45692 0.05646
 O190 O 0.48131 0.41654 0.04433
 O191 O 0.51807 0.55027 0.05337
 C192 C 0.55403 0.54295 0.06053
 C193 C 0.44436 0.42387 0.04401
 C194 C 0.43310 0.54510 0.04949
 C195 C 0.56615 0.42011 0.05945
 O196 O 0.58780 0.43654 -0.01011
 O197 O 0.43032 0.54631 -0.02437
 O198 O 0.55133 0.56390 -0.01288
 O199 O 0.46786 0.41974 -0.02695
 O200 O 0.44488 0.47992 -0.04684
 O201 O 0.57926 0.50731 -0.02991
 O202 O 0.53712 0.42299 -0.03723
 O203 O 0.48685 0.56519 -0.03769
 Co204 Co 0.57106 0.48246 0.01288
 Co205 Co 0.44061 0.49495 -0.00190
 Co206 Co 0.50264 0.55447 0.00775
 Co207 Co 0.50918 0.42302 0.00374
 O208 O 0.50584 0.48874 0.00565
 C209 C 0.57360 0.42454 -0.03695
 C210 C 0.45126 0.56549 -0.04532
 C211 C 0.57406 0.54480 -0.03410
 C212 C 0.45255 0.44337 -0.05186
 C213 C 1.17567 0.20725 0.19335
 C214 C 1.14436 0.21527 0.16909
 C215 C 1.13213 0.18245 0.14916
 C216 C 1.09161 0.18298 0.14026
 C217 C 1.07952 0.15169 0.12191
 C218 C 1.10799 0.11950 0.11193
 C219 C 1.14863 0.11965 0.12008
 C220 C 1.16064 0.15074 0.13854
 C221 C 1.09699 0.08757 0.09025
 C222 C 1.05789 0.07807 0.08806
 H223 H 1.12779 0.24559 0.16567
 H224 H 1.06930 0.20750 0.14768
 H225 H 1.04812 0.15356 0.11482
 H226 H 1.17120 0.09579 0.11188
 H227 H 1.19238 0.15029 0.14384
 H228 H 1.12011 0.07297 0.07357
 H229 H 1.19019 0.17618 0.19802
 H230 H 1.03483 0.09032 0.10591
 C231 C 1.18520 0.69649 0.67820
 C232 C 1.16189 0.66754 0.69352
 C233 C 1.13236 0.64877 0.67355
 C234 C 1.12357 0.60942 0.68462
 C235 C 1.09503 0.59138 0.66660
 C236 C 1.07419 0.61290 0.63760
 C237 C 1.08217 0.65270 0.62731
 C238 C 1.11109 0.67038 0.64488
 C239 C 1.04481 0.59516 0.61657
 C240 C 1.04709 0.55362 0.61123
 H241 H 1.16546 0.65816 0.72140
 H242 H 1.13911 0.59248 0.70709
 H243 H 1.08909 0.56096 0.67562
 H244 H 1.06635 0.67004 0.60517
 H245 H 1.11610 0.70125 0.63640
 H246 H 1.02526 0.61654 0.59938
 H247 H 1.18274 0.70517 0.65014
 H248 H 1.06633 0.53120 0.62766
 C249 C 0.67482 0.19123 0.67945
 C250 C 0.64653 0.20861 0.65397
 C251 C 0.62288 0.18387 0.63345
 C252 C 0.58585 0.20176 0.61898
 C253 C 0.56285 0.17922 0.59938
 C254 C 0.57640 0.13834 0.59396
 C255 C 0.61381 0.12059 0.60796
 C256 C 0.63686 0.14314 0.62738
 C257 C 0.55268 0.11624 0.57117
 C258 C 0.55694 0.07379 0.57138
 H259 H 0.64003 0.24155 0.65040
 H260 H 0.57465 0.23321 0.62292
 H261 H 0.53445 0.19378 0.58830
 H262 H 0.62614 0.08979 0.60300
 H263 H 0.66605 0.12878 0.63667
 H264 H 0.53203 0.13425 0.55252
 H265 H 0.67857 0.15840 0.68482
 H266 H 0.57473 0.05491 0.59151
 C267 C 0.69649 0.69603 0.17352
 C268 C 0.67121 0.66810 0.18671
 C269 C 0.65710 0.63788 0.16489
 C270 C 0.62084 0.62263 0.17370
 C271 C 0.60593 0.59528 0.15263
 C272 C 0.62732 0.58259 0.12249
 C273 C 0.66474 0.59593 0.11497
 C274 C 0.67952 0.62340 0.13590
 C275 C 0.61083 0.55722 0.09742
 C276 C 0.56964 0.55895 0.09173
 H277 H 0.66085 0.66908 0.21382
 H278 H 0.60360 0.63260 0.19646
 H279 H 0.57766 0.58438 0.15993
 H280 H 0.68205 0.58601 0.09222
 H281 H 0.70850 0.63310 0.12930
 H282 H 0.63157 0.54141 0.07944
 H283 H 0.70425 0.69777 0.14573
 H284 H 0.54823 0.57624 0.10813
 C285 C 0.78861 -0.19880 0.18587
 C286 C 0.80864 -0.20340 0.15363
 C287 C 0.83443 -0.17410 0.13750
 C288 C 0.86651 -0.18854 0.11590
 C289 C 0.88900 -0.16141 0.09712
 C290 C 0.87929 -0.11914 0.09907
 C291 C 0.84730 -0.10462 0.12082
 C292 C 0.82528 -0.13190 0.14026
 C293 C 0.89997 -0.09001 0.07639
 C294 C 0.94024 -0.09853 0.06670
 H295 H 0.80722 -0.23067 0.14004
 H296 H 0.87370 -0.22092 0.11302
 H297 H 0.91279 -0.17352 0.07987
 H298 H 0.83901 -0.07213 0.12235
 H299 H 0.80007 -0.11992 0.15609
 H300 H 0.88297 -0.06129 0.06682
 H301 H 0.79578 -0.17527 0.20211
 H302 H 0.95871 -0.12485 0.07922
 C303 C 0.76707 0.29450 0.68316
 C304 C 0.77883 0.29598 0.64771
 C305 C 0.80306 0.32706 0.63219
 C306 C 0.83417 0.31562 0.60857
 C307 C 0.85664 0.34474 0.59256
 C308 C 0.84753 0.38603 0.59914
 C309 C 0.81590 0.39763 0.62225
 C310 C 0.79419 0.36827 0.63914
 C311 C 0.86938 0.41727 0.58050
 C312 C 0.91089 0.41066 0.57552
 H313 H 0.77329 0.27197 0.63139
 H314 H 0.84115 0.28408 0.60258
 H315 H 0.88035 0.33517 0.57422
 H316 H 0.80813 0.42939 0.62732
 H317 H 0.76976 0.37789 0.65676
 H318 H 0.85260 0.44609 0.57088
 H319 H 0.77840 0.31528 0.70008
 H320 H 0.92817 0.38388 0.58857
 C321 C 0.28719 -0.20491 0.68490
 C322 C 0.30096 -0.20427 0.64993
 C323 C 0.32670 -0.17414 0.63468
 C324 C 0.35713 -0.18644 0.61063
 C325 C 0.37966 -0.15801 0.59346
 C326 C 0.37142 -0.11639 0.59926
 C327 C 0.34099 -0.10404 0.62336
 C328 C 0.31922 -0.13273 0.64136
 C329 C 0.39114 -0.08541 0.57757
 C330 C 0.43110 -0.09259 0.56632
 H331 H 0.29513 -0.22812 0.63355
 H332 H 0.36310 -0.21811 0.60475
 H333 H 0.40220 -0.16835 0.57437
 H334 H 0.33368 -0.07207 0.62784
 H335 H 0.29537 -0.12230 0.65925
 H336 H 0.37303 -0.05704 0.56871
 H337 H 0.29862 -0.18465 0.70227
 H338 H 0.45036 -0.11898 0.57780
 C339 C 0.25801 0.32327 0.18610
 C340 C 0.27160 0.31905 0.15146
 C341 C 0.30033 0.34437 0.13418
 C342 C 0.33013 0.32601 0.11224
 C343 C 0.35689 0.34921 0.09421
 C344 C 0.35366 0.39145 0.09715
 C345 C 0.32350 0.41002 0.11871
 C346 C 0.29732 0.38654 0.13756
 C347 C 0.37990 0.41652 0.07605
 C348 C 0.42018 0.40252 0.06992
 H349 H 0.26506 0.29340 0.13762
 H350 H 0.33266 0.29360 0.10902
 H351 H 0.37924 0.33430 0.07707
 H352 H 0.32025 0.44265 0.12092
 H353 H 0.27402 0.40146 0.15383
 H354 H 0.36728 0.44656 0.06508
 H355 H 0.26956 0.34572 0.20108
 H356 H 0.43422 0.37483 0.08416
 C357 C 0.77635 0.18599 -0.22328
 C358 C 0.80074 0.20092 -0.19946
 C359 C 0.82346 0.17319 -0.17220
 C360 C 0.85237 0.18793 -0.15194
 C361 C 0.87377 0.16242 -0.12564
 C362 C 0.86643 0.12166 -0.11903
 C363 C 0.83715 0.10710 -0.13893
 C364 C 0.81607 0.13243 -0.16545
 C365 C 0.88752 0.09428 -0.09067
 C366 C 0.92617 0.09840 -0.07961
 H367 H 0.80310 0.23335 -0.20060
 H368 H 0.85829 0.21928 -0.15637
 H369 H 0.89528 0.17501 -0.11002
 H370 H 0.83070 0.07595 -0.13404
 H371 H 0.79366 0.12014 -0.18031
 H372 H 0.87259 0.06944 -0.07878
 H373 H 0.76340 0.20544 -0.23717
 H374 H 0.94283 0.12086 -0.09318
 C375 C 0.77677 0.70366 0.28589
 C376 C 0.79732 0.71996 0.31171
 C377 C 0.81518 0.69324 0.34199
 C378 C 0.84554 0.70592 0.36199
 C379 C 0.86390 0.68020 0.38978
 C380 C 0.85180 0.64148 0.39821
 C381 C 0.82041 0.62950 0.37910
 C382 C 0.80246 0.65490 0.35108
 C383 C 0.87101 0.61315 0.42686
 C384 C 0.91138 0.61194 0.43573
 H385 H 0.80165 0.75195 0.30915
 H386 H 0.85549 0.73547 0.35576
 H387 H 0.88721 0.69085 0.40478
 H388 H 0.81028 0.60003 0.38542
 H389 H 0.77862 0.64445 0.33657
 H390 H 0.85364 0.59077 0.43971
 H391 H 0.76722 0.72268 0.26959
 H392 H 0.92992 0.63199 0.42121
 C393 C 0.27374 0.23815 0.28136
 C394 C 0.29153 0.19768 0.28726
 C395 C 0.31686 0.18089 0.31771
 C396 C 0.31804 0.13911 0.32725
 C397 C 0.34222 0.12049 0.35486
 C398 C 0.36687 0.14303 0.37313
 C399 C 0.36500 0.18520 0.36432
 C400 C 0.34015 0.20414 0.33670
 C401 C 0.39373 0.12299 0.40177
 C402 C 0.40753 0.08137 0.40308
 H403 H 0.28518 0.17550 0.26940
 H404 H 0.29982 0.12070 0.31340
 H405 H 0.34101 0.08844 0.36192
 H406 H 0.38330 0.20330 0.37840
 H407 H 0.34002 0.23642 0.32978
 H408 H 0.40234 0.14108 0.42231
 H409 H 0.28301 0.26138 0.29681
 H410 H 0.40149 0.06366 0.38145
 C411 C 0.28816 0.68782 -0.22070
 C412 C 0.31386 0.70135 -0.19706
 C413 C 0.33495 0.67280 -0.16930
 C414 C 0.36646 0.68499 -0.15032
 C415 C 0.38636 0.65868 -0.12362
 C416 C 0.37480 0.61973 -0.11520
 C417 C 0.34299 0.60777 -0.13386
 C418 C 0.32347 0.63380 -0.16083
 C419 C 0.39394 0.59176 -0.08615
 C420 C 0.43371 0.59175 -0.07570
 H421 H 0.31878 0.73318 -0.19890
 H422 H 0.37562 0.71496 -0.15610
 H423 H 0.41004 0.66933 -0.10908
 H424 H 0.33328 0.57810 -0.12762
 H425 H 0.29900 0.62353 -0.17464
 H426 H 0.37649 0.56946 -0.07328
 H427 H 0.27644 0.70794 -0.23486
 H428 H 0.45270 0.61136 -0.09016
 C429 C 1.17950 -0.19518 -0.23137
 C430 C 1.19468 -0.17167 -0.20724
 C431 C 1.16775 -0.14768 -0.18312
 C432 C 1.18460 -0.12824 -0.15647
 C433 C 1.16000 -0.10746 -0.13193
 C434 C 1.11776 -0.10543 -0.13373
 C435 C 1.10096 -0.12423 -0.16087
 C436 C 1.12557 -0.14506 -0.18532
 C437 C 1.09034 -0.08640 -0.10690
 C438 C 1.10241 -0.06276 -0.08106
 H439 H 1.22702 -0.17246 -0.20464
 H440 H 1.21699 -0.12992 -0.15410
 H441 H 1.17453 -0.09422 -0.11122
 H442 H 1.06861 -0.12333 -0.16288
 H443 H 1.11146 -0.15959 -0.20559
 H444 H 1.05929 -0.09247 -0.10676
 H445 H 1.19853 -0.20923 -0.24281
 H446 H 1.13258 -0.05454 -0.08105
 C447 C 1.15265 0.32606 0.27594
 C448 C 1.16572 0.35439 0.29671
 C449 C 1.13909 0.37432 0.32336
 C450 C 1.15421 0.40160 0.34461
 C451 C 1.13100 0.41816 0.37208
 C452 C 1.09204 0.40772 0.37877
 C453 C 1.07661 0.38114 0.35702
 C454 C 1.09972 0.36476 0.32946
 C455 C 1.06816 0.42117 0.40973
 C456 C 1.07459 0.45503 0.42745
 H457 H 1.19687 0.36022 0.29507
 H458 H 1.18450 0.40925 0.34059
 H459 H 1.14440 0.43770 0.38878
 H460 H 1.04679 0.37246 0.36176
 H461 H 1.08708 0.34378 0.31363
 H462 H 1.04492 0.40314 0.41936
 H463 H 1.17199 0.31398 0.26349
 H464 H 1.09511 0.47559 0.41685
 C465 C 0.66773 -0.18560 0.25595
 C466 C 0.67964 -0.15973 0.27973
 C467 C 0.65050 -0.13661 0.30260
 C468 C 0.66517 -0.11486 0.32876
 C469 C 0.63902 -0.09576 0.35304
 C470 C 0.59727 -0.09765 0.35150
 C471 C 0.58250 -0.11857 0.32469
 C472 C 0.60876 -0.13780 0.30041
 C473 C 0.56892 -0.08121 0.37882
 C474 C 0.57921 -0.05540 0.40361
 H475 H 0.71152 -0.15873 0.28374
 H476 H 0.69720 -0.11371 0.33115
 H477 H 0.65220 -0.08106 0.37361
 H478 H 0.55059 -0.12076 0.32296
 H479 H 0.59642 -0.15434 0.28052
 H480 H 0.53960 -0.09177 0.38079
 H481 H 0.68779 -0.20014 0.24656
 H482 H 0.60744 -0.04287 0.40157
 C483 C 0.66350 0.29619 -0.22931
 C484 C 0.67959 0.32025 -0.20621
 C485 C 0.65447 0.34172 -0.17947
 C486 C 0.67269 0.36415 -0.15580
 C487 C 0.65022 0.38282 -0.12890
 C488 C 0.60896 0.37912 -0.12502
 C489 C 0.59054 0.35772 -0.14940
 C490 C 0.61298 0.33912 -0.17630
 C491 C 0.58409 0.39680 -0.09613
 C492 C 0.59987 0.40956 -0.06561
 H493 H 0.71177 0.32180 -0.20645
 H494 H 0.70453 0.36689 -0.15789
 H495 H 0.66544 0.40007 -0.11147
 H496 H 0.55875 0.35472 -0.14725
 H497 H 0.59788 0.32224 -0.19421
 H498 H 0.55169 0.39795 -0.09819
 H499 H 0.68136 0.28309 -0.24222
 H500 H 0.63198 0.40793 -0.06188
 C501 C 1.23423 0.18571 -0.18823
 C502 C 1.20207 0.20038 -0.16724
 C503 C 1.17742 0.17274 -0.14703
 C504 C 1.15831 0.18527 -0.11600
 C505 C 1.13608 0.15916 -0.09562
 C506 C 1.13199 0.12018 -0.10634
 C507 C 1.15050 0.10800 -0.13774
 C508 C 1.17272 0.13409 -0.15808
 C509 C 1.11032 0.09092 -0.08475
 C510 C 1.08142 0.10294 -0.05976
 H511 H 1.19610 0.23285 -0.16432
 H512 H 1.16147 0.21492 -0.10702
 H513 H 1.12323 0.16933 -0.07109
 H514 H 1.14770 0.07821 -0.14659
 H515 H 1.18589 0.12393 -0.18252
 H516 H 1.11732 0.05875 -0.08873
 H517 H 1.24307 0.15310 -0.18788
 H518 H 1.07191 0.13493 -0.05687
 C519 C 1.20205 0.68331 0.31307
 C520 C 1.21330 0.65442 0.34109
 C521 C 1.18328 0.63873 0.36565
 C522 C 1.19337 0.62974 0.40141
 C523 C 1.16467 0.61812 0.42591
 C524 C 1.12532 0.61471 0.41490
 C525 C 1.11567 0.62270 0.37892
 C526 C 1.14431 0.63440 0.35450
 C527 C 1.09345 0.60286 0.43954
 C528 C 1.10027 0.58582 0.47409
 H529 H 1.24484 0.64787 0.34817
 H530 H 1.22323 0.63292 0.41061
 H531 H 1.17343 0.61272 0.45334
 H532 H 1.08578 0.61987 0.36960
 H533 H 1.13580 0.63995 0.32697
 H534 H 1.06324 0.60491 0.42901
 H535 H 1.17048 0.69119 0.30665
 H536 H 1.13008 0.58145 0.48545
 C537 C 0.74194 0.17859 0.32362
 C538 C 0.71404 0.19088 0.34938
 C539 C 0.69072 0.16228 0.36985
 C540 C 0.65264 0.17708 0.38251
 C541 C 0.62923 0.15084 0.40125
 C542 C 0.64368 0.10923 0.40793
 C543 C 0.68242 0.09470 0.39651
 C544 C 0.70574 0.12092 0.37741
 C545 C 0.61935 0.08109 0.42784
 C546 C 0.57749 0.08683 0.42629
 H547 H 0.70711 0.22317 0.35283
 H548 H 0.64078 0.20897 0.37754
 H549 H 0.60010 0.16338 0.41093
 H550 H 0.69445 0.06294 0.40204
 H551 H 0.73561 0.10884 0.36908
 H552 H 0.63466 0.05540 0.44391
 H553 H 0.74711 0.14684 0.31798
 H554 H 0.56227 0.11049 0.40808
 C555 C 0.69580 0.71575 -0.18450
 C556 C 0.70818 0.68610 -0.15721
 C557 C 0.67929 0.66608 -0.13422
 C558 C 0.69117 0.62689 -0.11825
 C559 C 0.66480 0.60743 -0.09598
 C560 C 0.62601 0.62703 -0.08897
 C561 C 0.61457 0.66671 -0.10411
 C562 C 0.64081 0.68603 -0.12665
 C563 C 0.59774 0.60744 -0.06496
 C564 C 0.59850 0.56524 -0.06057
 H565 H 0.74011 0.67703 -0.15283
 H566 H 0.72092 0.61124 -0.12308
 H567 H 0.67526 0.57743 -0.08373
 H568 H 0.58518 0.68274 -0.09857
 H569 H 0.63118 0.71688 -0.13741
 H570 H 0.57533 0.62667 -0.05095
 H571 H 0.66387 0.72193 -0.19021
 H572 H 0.61868 0.54597 -0.07652
 C573 C 0.80228 -0.19139 -0.17755
 C574 C 0.83201 -0.16782 -0.18907
 C575 C 0.85831 -0.15260 -0.16332
 C576 C 0.87971 -0.11987 -0.17357
 C577 C 0.90423 -0.10483 -0.14931
 C578 C 0.90823 -0.12279 -0.11449
 C579 C 0.88786 -0.15631 -0.10464
 C580 C 0.86287 -0.17084 -0.12862
 C581 C 0.93297 -0.10732 -0.08771
 C582 C 0.93700 -0.06608 -0.08682
 H583 H 0.83594 -0.16012 -0.21711
 H584 H 0.87707 -0.10561 -0.20025
 H585 H 0.92030 -0.07951 -0.15795
 H586 H 0.89069 -0.17083 -0.07805
 H587 H 0.84736 -0.19658 -0.11997
 H588 H 0.94414 -0.12819 -0.06557
 H589 H 0.78993 -0.20001 -0.19537
 H590 H 0.92295 -0.04420 -0.10707
 C591 C 0.83701 0.28671 0.32535
 C592 C 0.85897 0.31837 0.31483
 C593 C 0.88140 0.33685 0.34153
 C594 C 0.89156 0.37647 0.33462
 C595 C 0.91021 0.39530 0.36062
 C596 C 0.91945 0.37456 0.39390
 C597 C 0.91113 0.33427 0.40011
 C598 C 0.89203 0.31569 0.37439
 C599 C 0.93687 0.39413 0.42290
 C600 C 0.92808 0.43571 0.42724
 H601 H 0.85785 0.33124 0.28762
 H602 H 0.88417 0.39322 0.30940
 H603 H 0.91734 0.42601 0.35460
 H604 H 0.91835 0.31749 0.42535
 H605 H 0.88531 0.28481 0.38040
 H606 H 0.95333 0.37463 0.44354
 H607 H 0.82499 0.27850 0.30677
 H608 H 0.90923 0.45508 0.40811
 C609 C 0.31477 -0.23529 0.32227
 C610 C 0.34375 -0.21105 0.30979
 C611 C 0.37114 -0.19651 0.33508
 C612 C 0.38009 -0.15630 0.33076
 C613 C 0.40196 -0.14073 0.35663
 C614 C 0.41567 -0.16532 0.38716
 C615 C 0.40917 -0.20634 0.39021
 C616 C 0.38691 -0.22178 0.36455
 C617 C 0.43634 -0.14858 0.41607
 C618 C 0.42585 -0.10844 0.42439
 H619 H 0.34399 -0.19937 0.28239
 H620 H 0.36887 -0.13648 0.30802
 H621 H 0.40787 -0.10936 0.35277
 H622 H 0.42015 -0.22611 0.41306
 H623 H 0.38158 -0.25337 0.36802
 H624 H 0.45890 -0.16835 0.43167
 H625 H 0.31349 -0.24250 0.35058
 H626 H 0.40149 -0.08973 0.41010
 C627 C 0.33953 0.28035 -0.18414
 C628 C 0.36334 0.31039 -0.19509
 C629 C 0.38578 0.32911 -0.16863
 C630 C 0.39654 0.36847 -0.17597
 C631 C 0.41556 0.38739 -0.15021
 C632 C 0.42462 0.36687 -0.11683
 C633 C 0.41532 0.32694 -0.11014
 C634 C 0.39585 0.30836 -0.13556
 C635 C 0.44350 0.38564 -0.08819
 C636 C 0.43927 0.42754 -0.08439
 H637 H 0.36329 0.32232 -0.22255
 H638 H 0.38944 0.38492 -0.20136
 H639 H 0.42326 0.41782 -0.15656
 H640 H 0.42234 0.31032 -0.08479
 H641 H 0.38859 0.27774 -0.12922
 H642 H 0.45796 0.36517 -0.06711
 H643 H 0.32796 0.27206 -0.20201
 H644 H 0.42347 0.44884 -0.10413
 C645 C 1.22557 -0.19925 0.22739
 C646 C 1.18504 -0.18692 0.21837
 C647 C 1.17076 -0.15979 0.18697
 C648 C 1.13303 -0.16406 0.17298
 C649 C 1.11729 -0.13897 0.14391
 C650 C 1.13875 -0.10853 0.12829
 C651 C 1.17621 -0.10360 0.14258
 C652 C 1.19237 -0.12930 0.17149
 C653 C 1.12160 -0.08078 0.09821
 C654 C 1.09660 -0.09336 0.07311
 H655 H 1.16161 -0.19997 0.23326
 H656 H 1.11556 -0.18703 0.18462
 H657 H 1.08783 -0.14284 0.13429
 H658 H 1.19304 -0.07995 0.13125
 H659 H 1.22111 -0.12461 0.18211
 H660 H 1.12987 -0.05016 0.09508
 H661 H 1.24876 -0.18555 0.21249
 H662 H 1.09177 -0.12508 0.07377
 C663 C 1.24466 0.30171 0.71963
 C664 C 1.20371 0.31253 0.71209
 C665 C 1.18786 0.33781 0.68007
 C666 C 1.14723 0.33790 0.67149
 C667 C 1.13062 0.36020 0.64132
 C668 C 1.15440 0.38298 0.61869
 C669 C 1.19482 0.38375 0.62760
 C670 C 1.21153 0.36135 0.65791
 C671 C 1.13708 0.40829 0.58725
 C672 C 1.10151 0.40143 0.57131
 H673 H 1.18160 0.29988 0.72906
 H674 H 1.12810 0.32054 0.68824
 H675 H 1.09890 0.36013 0.63647
 H676 H 1.21354 0.40179 0.61106
 H677 H 1.24267 0.36317 0.66382
 H678 H 1.15158 0.43442 0.57766
 H679 H 1.26674 0.31477 0.70292
 H680 H 1.08758 0.37453 0.57943
 C681 C 0.71416 -0.18587 0.71605
 C682 C 0.67693 -0.18836 0.70039
 C683 C 0.66392 -0.16753 0.66579
 C684 C 0.63574 -0.18416 0.64599
 C685 C 0.62016 -0.16386 0.61450
 C686 C 0.63219 -0.12615 0.60241
 C687 C 0.66091 -0.10988 0.62187
 C688 C 0.67684 -0.13042 0.65318
 C689 C 0.61200 -0.10071 0.57244
 C690 C 0.58988 -0.11516 0.54617
 H691 H 0.65744 -0.20928 0.71212
 H692 H 0.62513 -0.21263 0.65532
 H693 H 0.59738 -0.17683 0.60069
 H694 H 0.67022 -0.08056 0.61333
 H695 H 0.69785 -0.11633 0.66813
 H696 H 0.61300 -0.06813 0.57208
 H697 H 0.73559 -0.16904 0.70168
 H698 H 0.59101 -0.14748 0.54322
 C699 C 0.73470 0.29809 0.23289
 C700 C 0.69318 0.30231 0.22614
 C701 C 0.67262 0.32989 0.19735
 C702 C 0.63547 0.32122 0.18510
 C703 C 0.61484 0.34602 0.15795
 C704 C 0.63084 0.38037 0.14249
 C705 C 0.66744 0.38978 0.15538
 C706 C 0.68829 0.36474 0.18241
 C707 C 0.60988 0.40724 0.11349
 C708 C 0.58356 0.39378 0.08995
 H709 H 0.67460 0.28251 0.24070
 H710 H 0.62239 0.29491 0.19646
 H711 H 0.58612 0.33847 0.14958
 H712 H 0.68012 0.41644 0.14427
 H713 H 0.71619 0.37318 0.19180
 H714 H 0.61770 0.43795 0.10893
 H715 H 0.75328 0.31666 0.21683
 H716 H 0.57792 0.36229 0.09209
 C717 C 0.83678 0.20584 0.22437
 C718 C 0.84913 0.16512 0.21772
 C719 C 0.86758 0.15134 0.18435
 C720 C 0.88181 0.10974 0.18310
 C721 C 0.89640 0.09423 0.15165
 C722 C 0.89691 0.12006 0.12055
 C723 C 0.88382 0.16186 0.12191
 C724 C 0.86895 0.17740 0.15339
 C725 C 0.91181 0.10462 0.08668
 C726 C 0.91218 0.06412 0.07878
 H727 H 0.84465 0.14122 0.23783
 H728 H 0.88123 0.08896 0.20653
 H729 H 0.90754 0.06211 0.15198
 H730 H 0.88428 0.18243 0.09833
 H731 H 0.85779 0.20949 0.15292
 H732 H 0.92210 0.12626 0.06684
 H733 H 0.84596 0.23008 0.20664
 H734 H 0.89991 0.04230 0.09716
 C735 C 0.80772 0.71873 0.72990
 C736 C 0.81063 0.67854 0.72063
 C737 C 0.83411 0.66454 0.68965
 C738 C 0.81893 0.63642 0.66945
 C739 C 0.83953 0.62284 0.63962
 C740 C 0.87675 0.63603 0.62985
 C741 C 0.89184 0.66450 0.64998
 C742 C 0.87073 0.67869 0.67962
 C743 C 0.90027 0.62052 0.59913
 C744 C 0.89448 0.58382 0.58555
 H745 H 0.79113 0.65802 0.73301
 H746 H 0.79049 0.62554 0.67638
 H747 H 0.82562 0.60244 0.62419
 H748 H 0.92026 0.67536 0.64302
 H749 H 0.88343 0.70009 0.69497
 H750 H 0.92387 0.63719 0.58812
 H751 H 0.82526 0.73949 0.71505
 H752 H 0.87309 0.56545 0.59804
 C753 C 0.33095 0.20073 0.71277
 C754 C 0.33064 0.16159 0.70123
 C755 C 0.34678 0.14873 0.66686
 C756 C 0.33465 0.11356 0.65405
 C757 C 0.34967 0.09955 0.62212
 C758 C 0.37727 0.12057 0.60238
 C759 C 0.38913 0.15590 0.61505
 C760 C 0.37422 0.16983 0.64696
 C761 C 0.39715 0.10543 0.57019
 C762 C 0.38881 0.07141 0.55327
 H763 H 0.31546 0.13942 0.71663
 H764 H 0.31364 0.09662 0.66895
 H765 H 0.34024 0.07189 0.61362
 H766 H 0.41080 0.17238 0.60056
 H767 H 0.38518 0.19641 0.65613
 H768 H 0.42189 0.12114 0.56014
 H769 H 0.34507 0.22316 0.69658
 H770 H 0.36264 0.05636 0.55989
 C771 C 0.31349 0.69585 0.22331
 C772 C 0.31538 0.65743 0.20991
 C773 C 0.33979 0.64466 0.17883
 C774 C 0.32871 0.61237 0.16094
 C775 C 0.35078 0.59839 0.13193
 C776 C 0.38524 0.61585 0.12035
 C777 C 0.39610 0.64863 0.13787
 C778 C 0.37376 0.66285 0.16694
 C779 C 0.40984 0.60071 0.09006
 C780 C 0.41028 0.56109 0.07985
 H781 H 0.29599 0.63602 0.22089
 H782 H 0.30251 0.59801 0.16927
 H783 H 0.34026 0.57421 0.11847
 H784 H 0.42235 0.66281 0.12942
 H785 H 0.38371 0.68738 0.18032
 H786 H 0.42908 0.62066 0.07630
 H787 H 0.33160 0.71781 0.21104
 H788 H 0.39364 0.53990 0.09511
   
