data_POSCAR
  _audit_creation_date              2014-09-24
  _audit_creation_method            'ToBaCCo'
  _symmetry_space_group_name_H-M    'P1'
  _symmetry_Int_Tables_number       1
  _symmetry_cell_setting            triclinic
  loop_
  _symmetry_equiv_pos_as_xyz
 x,y,z
_cell_length_a 34.8203
_cell_length_b 34.9418
_cell_length_c 35.0870
_cell_angle_alpha 73.437400
_cell_angle_beta 101.059400
_cell_angle_gamma 70.653800
loop_
  _atom_site_label
  _atom_site_type_symbol
  _atom_site_fract_x
  _atom_site_fract_y
  _atom_site_fract_z
O1 O 0.54234 0.49400 -0.01046
 O2 O 0.43080 0.51281 -0.01463
 O3 O 0.49546 0.44932 -0.01560
 O4 O 0.47776 0.55771 -0.01076
 O5 O 0.45721 0.58712 -0.07991
 O6 O 0.47454 0.47924 -0.08473
 O7 O 0.41004 0.54309 -0.08368
 O8 O 0.52200 0.52260 -0.07964
 Cu9 Cu 0.48859 0.50046 -0.00591
 Cu10 Cu 0.46385 0.53598 -0.08890
 C11 C 0.55109 0.50538 -0.04433
 C12 C 0.40138 0.53101 -0.04986
 C13 C 0.48774 0.44599 -0.05114
 C14 C 0.46502 0.59074 -0.04459
 O15 O -0.05501 0.57789 0.47335
 O16 O -0.06086 0.47230 0.48460
 O17 O -0.06704 0.52037 0.52978
 O18 O -0.04756 0.52939 0.42860
 O19 O 0.02225 0.49563 0.46140
 O20 O 0.00279 0.48565 0.56234
 O21 O 0.00905 0.43778 0.51676
 O22 O 0.01460 0.54370 0.50695
 Cu23 Cu -0.06462 0.52837 0.47575
 Cu24 Cu 0.01921 0.48718 0.51507
 C25 C -0.01942 0.57884 0.48877
 C26 C -0.02702 0.43713 0.50235
 C27 C -0.03533 0.50184 0.56324
 C28 C -0.00927 0.51398 0.42784
 O29 O 0.51085 0.01742 0.55146
 O30 O 0.50321 0.03626 0.44085
 O31 O 0.44905 0.04016 0.48346
 O32 O 0.56451 0.01437 0.50847
 O33 O 0.57867 -0.05528 0.52074
 O34 O 0.46341 -0.02975 0.49723
 O35 O 0.51604 -0.03324 0.45367
 O36 O 0.52568 -0.05245 0.56457
 Cu37 Cu 0.50548 0.03407 0.49480
 Cu38 Cu 0.52241 -0.04970 0.51040
 C39 C 0.51944 -0.02073 0.57688
 C40 C 0.50831 0.00467 0.42847
 C41 C 0.43661 0.00947 0.48640
 C42 C 0.59119 -0.02470 0.51835
 C43 C 0.51191 -0.02715 0.01941
 C44 C 0.51710 0.00357 -0.01054
 C45 C 0.52141 -0.00054 -0.05069
 C46 C 0.51771 0.04394 -0.00504
 C47 C 0.50523 -0.02077 0.05797
 C48 C 0.51227 -0.06837 0.01544
 C49 C 0.55564 0.00479 -0.06360
 C50 C 0.55877 0.00420 -0.10252
 C51 C 0.52776 -0.00174 -0.12943
 C52 C 0.49338 -0.00715 -0.11649
 C53 C 0.49022 -0.00645 -0.07748
 C54 C 0.54977 0.04190 0.02753
 C55 C 0.55061 0.08038 0.03140
 C56 C 0.51980 0.12148 0.00250
 C57 C 0.48726 0.12326 -0.02967
 C58 C 0.48653 0.08484 -0.03356
 C59 C 0.46646 0.01020 0.05642
 C60 C 0.45998 0.01490 0.09326
 C61 C 0.49253 -0.01057 0.13192
 C62 C 0.53139 -0.04149 0.13330
 C63 C 0.53749 -0.04680 0.09662
 C64 C 0.47741 -0.07920 0.01894
 C65 C 0.47748 -0.11833 0.01635
 C66 C 0.51261 -0.14755 0.01034
 C67 C 0.54784 -0.13704 0.00759
 C68 C 0.54765 -0.09769 0.00998
 H69 H 0.57982 0.00983 -0.04362
 H70 H 0.58534 0.00884 -0.11181
 H71 H 0.46811 -0.01046 -0.13679
 H72 H 0.46285 -0.00934 -0.06868
 H73 H 0.57439 0.01057 0.04957
 H74 H 0.57581 0.07807 0.05662
 H75 H 0.46141 0.08694 -0.05871
 H76 H 0.44112 0.03022 0.02679
 H77 H 0.42965 0.03859 0.09158
 H78 H 0.55663 -0.06233 0.16281
 H79 H 0.56742 -0.07112 0.09828
 H80 H 0.45005 -0.05726 0.02370
 H81 H 0.45040 -0.12596 0.02001
 H82 H 0.57551 -0.15929 0.00352
 H83 H 0.57524 -0.09031 0.00805
 H84 H 0.46198 0.15412 -0.05164
 C85 C -0.03606 0.52639 0.97456
 C86 C -0.00605 0.52812 1.00442
 C87 C 0.03692 0.52347 1.00074
 C88 C -0.01422 0.53335 1.04302
 C89 C -0.07704 0.52641 0.98052
 C90 C -0.02935 0.52346 0.93480
 C91 C 0.06451 0.48562 0.99750
 C92 C 0.10540 0.48106 0.99536
 C93 C 0.11927 0.51438 0.99601
 C94 C 0.09167 0.55212 0.99960
 C95 C 0.05096 0.55645 1.00216
 C96 C 0.01392 0.50237 1.08239
 C97 C 0.00677 0.50685 1.11902
 C98 C -0.02851 0.54278 1.11690
 C99 C -0.05666 0.57372 1.07745
 C100 C -0.04934 0.56933 1.04080
 C101 C -0.11560 0.56297 0.95628
 C102 C -0.15457 0.56281 0.96076
 C103 C -0.15566 0.52550 0.98839
 C104 C -0.11697 0.48880 1.01265
 C105 C -0.07786 0.48942 1.00897
 C106 C -0.01892 0.55428 0.90837
 C107 C -0.01322 0.55128 0.87080
 C108 C -0.01871 0.51800 0.85861
 C109 C -0.02903 0.48709 0.88520
 C110 C -0.03452 0.49000 0.92280
 H111 H 0.05453 0.45945 0.99714
 H112 H 0.12627 0.45146 0.99314
 H113 H 0.10177 0.57784 1.00149
 H114 H 0.03031 0.58561 1.00522
 H115 H 0.04113 0.47433 1.08473
 H116 H 0.02845 0.48165 1.14882
 H117 H -0.07094 0.59411 1.01073
 H118 H -0.11541 0.59168 0.93409
 H119 H -0.18402 0.59147 0.94193
 H120 H -0.11697 0.45990 1.03468
 H121 H -0.04829 0.46089 1.02776
 H122 H -0.01545 0.58079 0.91671
 H123 H -0.00508 0.57535 0.85092
 H124 H -0.03219 0.46019 0.87752
 H125 H -0.04233 0.46574 0.94285
 H126 H -0.08411 0.60159 1.07499
 C127 C 0.04419 -0.04064 0.53555
 C128 C 0.01327 -0.00767 0.53993
 C129 C -0.02821 -0.00932 0.54262
 C130 C 0.01851 0.03261 0.54082
 C131 C 0.08402 -0.03743 0.52898
 C132 C 0.03966 -0.08162 0.53625
 C133 C -0.05466 -0.01497 0.51101
 C134 C -0.09440 -0.01475 0.51310
 C135 C -0.10847 -0.00860 0.54681
 C136 C -0.08219 -0.00231 0.57799
 C137 C -0.04242 -0.00270 0.57595
 C138 C -0.01235 0.07356 0.51199
 C139 C -0.00861 0.11195 0.51255
 C140 C 0.02583 0.11021 0.54258
 C141 C 0.05697 0.06910 0.57118
 C142 C 0.05322 0.03061 0.57053
 C143 C 0.12392 -0.07086 0.55529
 C144 C 0.16170 -0.06969 0.54835
 C145 C 0.16038 -0.03507 0.51504
 C146 C 0.12032 -0.00164 0.48841
 C147 C 0.08244 -0.00294 0.49529
 C148 C 0.03387 -0.10843 0.57096
 C149 C 0.03127 -0.14770 0.57158
 C150 C 0.03414 -0.16065 0.53746
 C151 C 0.04045 -0.13393 0.50296
 C152 C 0.04323 -0.09487 0.50246
 H153 H -0.04486 -0.01874 0.48433
 H154 H -0.11439 -0.01808 0.48767
 H155 H -0.09251 0.00302 0.60398
 H156 H -0.02270 0.00226 0.60035
 H157 H -0.03917 0.07575 0.48861
 H158 H -0.03242 0.14270 0.48889
 H159 H 0.07717 -0.00069 0.59335
 H160 H 0.12577 -0.09799 0.58116
 H161 H 0.19211 -0.09601 0.56908
 H162 H 0.11795 0.02484 0.46165
 H163 H 0.05187 0.02250 0.47389
 H164 H 0.03191 -0.09919 0.59772
 H165 H 0.02698 -0.16801 0.59874
 H166 H 0.04428 -0.14350 0.47673
 H167 H 0.04831 -0.07491 0.47565
 H168 H 0.08397 0.06681 0.59440
 C169 C -0.40472 0.49918 0.95700
 C170 C -0.37543 0.49612 0.99219
 C171 C -0.33216 0.49383 0.99290
 C172 C -0.31435 0.51507 1.01471
 C173 C -0.27378 0.51413 1.01529
 C174 C -0.24991 0.49099 0.99483
 C175 C -0.26707 0.46846 0.97426
 C176 C -0.30810 0.47027 0.97284
 C177 C -0.20695 0.48946 0.99506
 C178 C -0.19740 0.52580 0.99160
 H179 H -0.38594 0.49962 1.01863
 H180 H -0.33217 0.53300 1.03078
 H181 H -0.26086 0.53097 1.03219
 H182 H -0.24898 0.45002 0.95870
 H183 H -0.32068 0.45274 0.95661
 H184 H -0.18367 0.46054 0.99388
 H185 H -0.39624 0.50075 0.92864
 H186 H -0.22264 0.55664 0.98679
 C187 C 0.35908 0.53769 0.94800
 C188 C 0.34747 0.52197 0.98337
 C189 C 0.30300 0.52738 0.98133
 C190 C 0.29645 0.49634 1.01182
 C191 C 0.25493 0.50056 1.01114
 C192 C 0.21903 0.53636 0.98012
 C193 C 0.22557 0.56795 0.95020
 C194 C 0.26711 0.56343 0.95057
 C195 C 0.17465 0.54269 0.97944
 C196 C 0.16324 0.50797 0.99499
 H197 H 0.37229 0.50245 1.01346
 H198 H 0.32359 0.46862 1.03620
 H199 H 0.25110 0.47633 1.03549
 H200 H 0.19842 0.59619 0.92641
 H201 H 0.27095 0.58869 0.92735
 H202 H 0.14983 0.57568 0.96426
 H203 H 0.33493 0.55414 0.91738
 H204 H 0.18682 0.47471 1.00499
 C205 C -0.01850 -0.38088 0.48587
 C206 C 0.01816 -0.37689 0.50535
 C207 C 0.01811 -0.33428 0.50447
 C208 C 0.04653 -0.33320 0.53801
 C209 C 0.04689 -0.29340 0.53841
 C210 C 0.01899 -0.25389 0.50492
 C211 C -0.00854 -0.25514 0.47086
 C212 C -0.00917 -0.29486 0.47064
 C213 C 0.01918 -0.21124 0.50356
 C214 C 0.03235 -0.20290 0.53940
 H215 H 0.04695 -0.40619 0.52457
 H216 H 0.06830 -0.36322 0.56414
 H217 H 0.06958 -0.29386 0.56453
 H218 H -0.02976 -0.22524 0.44434
 H219 H -0.03048 -0.29461 0.44362
 H220 H 0.00637 -0.18482 0.47317
 H221 H -0.04826 -0.35192 0.46953
 H222 H 0.03973 -0.22729 0.56999
 C223 C -0.03043 0.39559 0.50550
 C224 C 0.00527 0.35548 0.52210
 C225 C 0.00251 0.31364 0.52351
 C226 C 0.03676 0.27395 0.55082
 C227 C 0.03540 0.23383 0.55285
 C228 C -0.00029 0.23268 0.52718
 C229 C -0.03437 0.27237 0.49978
 C230 C -0.03294 0.31236 0.49764
 C231 C -0.00396 0.19137 0.52814
 C232 C 0.03067 0.15039 0.54421
 H233 H 0.03651 0.35452 0.53538
 H234 H 0.06452 0.27397 0.57100
 H235 H 0.06200 0.20410 0.57503
 H236 H -0.06215 0.27247 0.47949
 H237 H -0.05944 0.34195 0.47510
 H238 H -0.03577 0.19393 0.51455
 H239 H -0.06228 0.39717 0.49419
 H240 H 0.06248 0.14705 0.55898
 C241 C 0.52163 -0.02833 -0.38134
 C242 C 0.51497 0.00479 -0.36526
 C243 C 0.51473 -0.00181 -0.32165
 C244 C 0.52139 0.02812 -0.30463
 C245 C 0.52034 0.02385 -0.26405
 C246 C 0.51243 -0.01054 -0.23955
 C247 C 0.50489 -0.03997 -0.25685
 C248 C 0.50613 -0.03582 -0.29741
 C249 C 0.51004 -0.01541 -0.19678
 C250 C 0.53121 0.00058 -0.17142
 H251 H 0.51064 0.03698 -0.38518
 H252 H 0.52731 0.05506 -0.32288
 H253 H 0.52474 0.04817 -0.25247
 H254 H 0.49797 -0.06628 -0.23892
 H255 H 0.49933 -0.05868 -0.30984
 H256 H 0.49276 -0.03398 -0.18439
 H257 H 0.52875 -0.06130 -0.36103
 H258 H 0.55273 0.01423 -0.18209
 C259 C 0.50624 0.01214 0.38458
 C260 C 0.50171 -0.01754 0.36656
 C261 C 0.50371 -0.01294 0.32388
 C262 C 0.48021 -0.02880 0.30024
 C263 C 0.48329 -0.02697 0.26066
 C264 C 0.51072 -0.01006 0.24445
 C265 C 0.53457 0.00537 0.26828
 C266 C 0.53081 0.00440 0.30748
 C267 C 0.51720 -0.01100 0.20428
 C268 C 0.48469 -0.00601 0.17063
 H269 H 0.49540 -0.04459 0.38394
 H270 H 0.45961 -0.04285 0.31255
 H271 H 0.46534 -0.04016 0.24345
 H272 H 0.55634 0.01798 0.25662
 H273 H 0.55021 0.01580 0.32547
 H274 H 0.54816 -0.01417 0.20059
 H275 H 0.50800 0.04177 0.36603
 H276 H 0.45219 0.00329 0.17195
 C277 C 0.45974 -0.36616 -0.04345
 C278 C 0.47818 -0.36139 -0.00710
 C279 C 0.47725 -0.31891 -0.00661
 C280 C 0.51094 -0.31850 0.02229
 C281 C 0.51154 -0.27888 0.02295
 C282 C 0.47807 -0.23886 -0.00510
 C283 C 0.44372 -0.23934 -0.03309
 C284 C 0.44335 -0.27893 -0.03405
 C285 C 0.47709 -0.19632 -0.00474
 C286 C 0.51406 -0.18982 0.00863
 H287 H 0.49718 -0.39039 0.02105
 H288 H 0.53711 -0.34893 0.04413
 H289 H 0.53780 -0.27977 0.04592
 H290 H 0.41718 -0.20895 -0.05448
 H291 H 0.41620 -0.27810 -0.05584
 H292 H 0.44619 -0.16864 -0.01764
 H293 H 0.44417 -0.33816 -0.07280
 H294 H 0.54521 -0.21584 0.01619
 C295 C 0.49329 0.40356 -0.05428
 C296 C 0.50189 0.36649 -0.01961
 C297 C 0.50364 0.32421 -0.02208
 C298 C 0.51607 0.28823 0.01537
 C299 C 0.51683 0.24814 0.01469
 C300 C 0.50529 0.24311 -0.02370
 C301 C 0.49280 0.27906 -0.06108
 C302 C 0.49188 0.31910 -0.06042
 C303 C 0.50418 0.20196 -0.02664
 C304 C 0.52214 0.16163 0.00701
 H305 H 0.50685 0.36879 0.01097
 H306 H 0.52485 0.29126 0.04536
 H307 H 0.52568 0.22176 0.04429
 H308 H 0.48332 0.27631 -0.09112
 H309 H 0.48120 0.34573 -0.09020
 H310 H 0.48978 0.20343 -0.05751
 H311 H 0.48904 0.40261 -0.08523
 H312 H 0.54074 0.15834 0.03712
 C313 C -0.36287 -0.03488 0.52625
 C314 C -0.34734 -0.00243 0.52302
 C315 C -0.30221 -0.00997 0.52635
 C316 C -0.28740 0.02070 0.53412
 C317 C -0.24566 0.01603 0.53560
 C318 C -0.21780 -0.01955 0.52925
 C319 C -0.23274 -0.04995 0.52098
 C320 C -0.27447 -0.04536 0.51962
 C321 C -0.17399 -0.02459 0.52884
 C322 C -0.15109 -0.00617 0.54931
 H323 H -0.36935 0.03027 0.51788
 H324 H -0.30837 0.04865 0.53868
 H325 H -0.23590 0.04102 0.54058
 H326 H -0.21213 -0.07722 0.51527
 H327 H -0.28503 -0.06891 0.51213
 H328 H -0.15878 -0.04497 0.51323
 H329 H -0.34129 -0.06843 0.53396
 H330 H -0.16403 0.00929 0.56942
 C331 C 0.39062 0.01964 0.47801
 C332 C 0.37546 -0.01311 0.48139
 C333 C 0.33074 -0.00697 0.47903
 C334 C 0.31968 -0.04231 0.48005
 C335 C 0.27912 -0.03976 0.48130
 C336 C 0.24874 -0.00176 0.48185
 C337 C 0.25900 0.03429 0.47906
 C338 C 0.29970 0.03172 0.47797
 C339 C 0.20660 0.00076 0.48597
 C340 C 0.20127 -0.03614 0.50828
 H341 H 0.39815 -0.04584 0.48749
 H342 H 0.34274 -0.07234 0.48050
 H343 H 0.27175 -0.06763 0.48190
 H344 H 0.23592 0.06404 0.47909
 H345 H 0.30665 0.05973 0.47743
 H346 H 0.18051 0.03282 0.47459
 H347 H 0.36908 0.05316 0.47026
 H348 H 0.22911 -0.06707 0.52399
 C349 C -0.00068 0.51663 1.38798
 C350 C -0.03359 0.53502 1.34986
 C351 C -0.02606 0.53534 1.30961
 C352 C -0.05999 0.54111 1.27648
 C353 C -0.05396 0.54022 1.23842
 C354 C -0.01379 0.53400 1.23261
 C355 C 0.01995 0.52888 1.26549
 C356 C 0.01390 0.52988 1.30348
 C357 C -0.00533 0.53071 1.19364
 C358 C -0.03744 0.54810 1.15508
 H359 H -0.06653 0.54746 1.34986
 H360 H -0.09109 0.54540 1.28034
 H361 H -0.08050 0.54325 1.21422
 H362 H 0.05116 0.52416 1.26175
 H363 H 0.04057 0.52667 1.32761
 H364 H 0.02784 0.51551 1.19520
 H365 H 0.03246 0.50187 1.38942
 H366 H -0.06995 0.56828 1.15201
 C367 C -0.04311 0.50009 0.60329
 C368 C -0.00943 0.48658 0.63976
 C369 C -0.01581 0.48866 0.67972
 C370 C 0.01643 0.49103 0.70862
 C371 C 0.01150 0.49374 0.74647
 C372 C -0.02585 0.49390 0.75624
 C373 C -0.05752 0.49016 0.72792
 C374 C -0.05270 0.48772 0.68993
 C375 C -0.03211 0.49642 0.79611
 C376 C -0.01249 0.51576 0.81864
 H377 H 0.02300 0.47713 0.63817
 H378 H 0.04545 0.49112 0.70175
 H379 H 0.03728 0.49499 0.76817
 H380 H -0.08622 0.48940 0.73512
 H381 H -0.07759 0.48446 0.66907
 H382 H -0.05506 0.48504 0.80658
 H383 H -0.07604 0.51263 0.60312
 H384 H 0.00600 0.53229 0.80540
   
