data_POSCAR
  _audit_creation_date              2014-09-24
  _audit_creation_method            'ToBaCCo'
  _symmetry_space_group_name_H-M    'P1'
  _symmetry_Int_Tables_number       1
  _symmetry_cell_setting            triclinic
  loop_
  _symmetry_equiv_pos_as_xyz
 x,y,z
_cell_length_a 31.7414
_cell_length_b 32.1279
_cell_length_c 44.7084
_cell_angle_alpha 90.181800
_cell_angle_beta 90.055700
_cell_angle_gamma 122.075000
loop_
  _atom_site_label
  _atom_site_type_symbol
  _atom_site_fract_x
  _atom_site_fract_y
  _atom_site_fract_z
C1 C -0.02519 0.50058 1.22299
 C2 C 0.02486 0.51286 1.22337
 C3 C 0.04860 0.51801 1.25089
 C4 C 0.02508 0.51379 1.27850
 C5 C -0.02550 0.50086 1.27824
 C6 C -0.04885 0.49592 1.25048
 H7 H -0.08805 0.48313 1.25024
 H8 H 0.08769 0.53026 1.25057
 C9 C 0.48678 0.50915 1.27890
 C10 C 0.50222 0.47490 1.27796
 C11 C 0.50822 0.45892 1.24976
 C12 C 0.50139 0.47745 1.22307
 C13 C 0.48607 0.51137 1.22429
 C14 C 0.47917 0.52686 1.25212
 H15 H 0.46586 0.55174 1.25293
 H16 H 0.52200 0.43450 1.24834
 C17 C 0.49135 0.97519 1.27862
 C18 C 0.52494 1.02693 1.27934
 C19 C 0.54287 1.05192 1.25188
 C20 C 0.52489 1.02778 1.22406
 C21 C 0.49140 0.97603 1.22394
 C22 C 0.47559 0.95080 1.25108
 H23 H 0.45138 0.91108 1.25075
 H24 H 0.56647 1.09164 1.25221
 C25 C 0.97469 0.49821 0.72420
 C26 C 1.02515 0.51277 0.72419
 C27 C 1.04975 0.51871 0.75140
 C28 C 1.02565 0.51255 0.77897
 C29 C 0.97451 0.49709 0.77871
 C30 C 0.95000 0.49067 0.75142
 H31 H 0.91066 0.47744 0.75132
 H32 H 1.08908 0.53197 0.75093
 C33 C 0.50379 0.48042 0.72307
 C34 C 0.48623 0.51266 0.72378
 C35 C 0.47854 0.52835 0.75143
 C36 C 0.48664 0.51134 0.77840
 C37 C 0.50341 0.47845 0.77765
 C38 C 0.51166 0.46328 0.75000
 H39 H 0.52591 0.43918 0.74947
 H40 H 0.46412 0.55230 0.75196
 C41 C 0.51533 0.02558 0.72368
 C42 C 0.50274 -0.02394 0.72272
 C43 C 0.49735 -0.04821 0.75000
 C44 C 0.50153 -0.02587 0.77795
 C45 C 0.51505 0.02392 0.77848
 C46 C 0.52119 0.04853 0.75145
 H47 H 0.53324 0.08707 0.75205
 H48 H 0.48457 -0.08690 0.74941
 O49 O 0.41426 0.65713 0.97647
 O50 O 0.41298 0.73569 0.96647
 C51 C 0.38975 0.75617 0.95921
 O52 O 0.35182 0.74937 0.97339
 O53 O 0.26956 0.66478 0.96507
 C54 C 0.24692 0.61916 0.95975
 O55 O 0.25355 0.58956 0.97484
 O56 O 0.33706 0.59381 0.96807
 C57 C 0.38306 0.61846 0.96213
 O58 O 0.41099 0.67190 1.03600
 O59 O 0.41412 0.75313 1.02599
 C60 C 0.38231 0.75829 1.04009
 O61 O 0.33677 0.73517 1.03306
 O62 O 0.25299 0.65336 1.02443
 C63 C 0.24605 0.61737 1.04023
 O64 O 0.26782 0.59458 1.03500
 O65 O 0.34920 0.59465 1.02781
 C66 C 0.38698 0.62674 1.04259
 Cr67 Cr 0.41033 0.70303 1.00122
 Cr68 Cr 0.30424 0.69943 0.99901
 Cr69 Cr 0.30325 0.59587 1.00139
 O70 O 0.33927 0.66607 1.00041
 O71 O 0.58329 0.33667 0.97523
 O72 O 0.59036 0.26051 0.96764
 C73 C 0.61551 0.24119 0.96243
 O74 O 0.65310 0.25056 0.97814
 O75 O 0.73246 0.33614 0.96758
 C76 C 0.75297 0.38098 0.96063
 O77 O 0.74486 0.41073 0.97451
 O78 O 0.65903 0.40078 0.96523
 C79 C 0.61290 0.37422 0.95976
 O80 O 0.58745 0.32699 1.03511
 O81 O 0.58940 0.24748 1.02744
 C82 C 0.62195 0.24596 1.04324
 O83 O 0.66793 0.27159 1.03746
 O84 O 0.74958 0.35481 1.02658
 C85 C 0.75412 0.39127 1.04088
 O86 O 0.72964 0.41079 1.03424
 O87 O 0.64572 0.40461 1.02452
 C88 C 0.60927 0.37273 1.04011
 Cr89 Cr 0.59027 0.29440 1.00137
 Cr90 Cr 0.69926 0.30435 1.00239
 Cr91 Cr 0.69365 0.40411 0.99968
 O92 O 0.66110 0.33437 1.00105
 O93 O 0.66097 0.40588 0.53410
 O94 O 0.74690 0.41607 0.52538
 C95 C 0.75611 0.38831 0.54055
 O96 O 0.73584 0.34284 0.53526
 O97 O 0.65643 0.25567 0.52755
 C98 C 0.61842 0.24698 0.54255
 O99 O 0.59304 0.26554 0.53602
 O100 O 0.58511 0.34044 0.52576
 C101 C 0.61512 0.37956 0.54013
 O102 O 0.64530 0.40367 0.47467
 O103 O 0.72914 0.40945 0.46573
 C104 C 0.75375 0.38974 0.45995
 O105 O 0.75045 0.35505 0.47559
 O106 O 0.66910 0.27027 0.46749
 C107 C 0.62311 0.24438 0.46165
 O108 O 0.59067 0.24693 0.47686
 O109 O 0.58780 0.32490 0.46626
 C110 C 0.60886 0.36995 0.45976
 Cr111 Cr 0.69445 0.40613 0.50001
 Cr112 Cr 0.70142 0.30700 0.50148
 Cr113 Cr 0.59182 0.29599 0.50121
 O114 O 0.66260 0.33641 0.50105
 O115 O 0.33335 0.59365 0.53502
 O116 O 0.25072 0.59120 0.52711
 C117 C 0.24617 0.62210 0.54238
 O118 O 0.27042 0.66764 0.53684
 O119 O 0.35317 0.75075 0.52689
 C120 C 0.39110 0.75735 0.54103
 O121 O 0.41297 0.73529 0.53425
 O122 O 0.41123 0.65473 0.52554
 C123 C 0.37957 0.61746 0.54060
 O124 O 0.34485 0.59071 0.47562
 O125 O 0.26524 0.59338 0.46715
 C126 C 0.24398 0.61658 0.46177
 O127 O 0.25114 0.65277 0.47764
 O128 O 0.33573 0.73313 0.46757
 C129 C 0.38111 0.75513 0.46034
 O130 O 0.41273 0.74972 0.47451
 O131 O 0.40705 0.66678 0.46568
 C132 C 0.38227 0.62115 0.46018
 Cr133 Cr 0.29989 0.59489 0.50123
 Cr134 Cr 0.30395 0.69979 0.50222
 Cr135 Cr 0.40833 0.70029 0.50002
 O136 O 0.33747 0.66503 0.50129
 C137 C 0.44231 0.55079 0.35886
 C138 C 0.47948 0.58699 0.33999
 C139 C 0.49416 0.57301 0.31424
 C140 C 0.47271 0.52331 0.30699
 C141 C 0.43651 0.48739 0.32582
 C142 C 0.42152 0.50083 0.35152
 C143 C 0.42645 0.56742 0.38559
 C144 C 0.38850 0.53457 0.40515
 C145 C 0.37440 0.55201 0.42936
 C146 C 0.39785 0.60261 0.43483
 C147 C 0.43591 0.63559 0.41558
 C148 C 0.45010 0.61849 0.39105
 C149 C 0.50153 0.63692 0.34677
 C150 C 0.48732 0.65232 0.37183
 H151 H 0.53014 0.66457 0.33240
 H152 H 0.50542 0.69142 0.37603
 H153 H 0.52233 0.60079 0.29968
 H154 H 0.41933 0.44880 0.32038
 H155 H 0.34490 0.52568 0.44381
 H156 H 0.45422 0.67481 0.41940
 H157 H 0.39344 0.47160 0.36512
 H158 H 0.36893 0.49531 0.40207
 C159 C 0.44085 0.88251 0.35650
 C160 C 0.49241 0.91467 0.35136
 C161 C 0.50888 0.94555 0.32623
 C162 C 0.47454 0.94432 0.30589
 C163 C 0.42362 0.91215 0.31087
 C164 C 0.40687 0.88179 0.33585
 C165 C 0.42468 0.84995 0.38342
 C166 C 0.37433 0.81792 0.39082
 C167 C 0.36087 0.78776 0.41577
 C168 C 0.39704 0.78839 0.43421
 C169 C 0.44749 0.82051 0.42724
 C170 C 0.46151 0.85149 0.40215
 C171 C 0.52707 0.91517 0.37105
 C172 C 0.51196 0.88402 0.39576
 H173 H 0.56655 0.93970 0.36712
 H174 H 0.54026 0.88551 0.41012
 H175 H 0.54835 0.96996 0.32215
 H176 H 0.39666 0.91070 0.29532
 H177 H 0.32163 0.76343 0.42045
 H178 H 0.47583 0.82164 0.44140
 H179 H 0.36721 0.85779 0.33828
 H180 H 0.34456 0.81548 0.37774
 C181 C 0.11393 0.55860 0.35773
 C182 C 0.11877 0.52939 0.33591
 C183 C 0.08979 0.51520 0.30970
 C184 C 0.05445 0.52833 0.30498
 C185 C 0.05009 0.55754 0.32680
 C186 C 0.07912 0.57230 0.35272
 C187 C 0.14621 0.57364 0.38518
 C188 C 0.14590 0.60445 0.40761
 C189 C 0.17727 0.61799 0.43249
 C190 C 0.20945 0.60084 0.43590
 C191 C 0.20977 0.56986 0.41377
 C192 C 0.17895 0.55663 0.38845
 C193 C 0.15220 0.51410 0.34045
 C194 C 0.18135 0.52712 0.36623
 H195 H 0.15577 0.49152 0.32384
 H196 H 0.20653 0.51422 0.36867
 H197 H 0.09346 0.49216 0.29347
 H198 H 0.02506 0.57039 0.32351
 H199 H 0.17629 0.64203 0.44914
 H200 H 0.23491 0.55682 0.41590
 H201 H 0.07376 0.59457 0.36846
 H202 H 0.12214 0.61895 0.40627
 C203 C 0.54088 0.42496 0.35519
 C204 C 0.55479 0.47458 0.35298
 C205 C 0.54114 0.49068 0.32774
 C206 C 0.51419 0.45826 0.30403
 C207 C 0.50168 0.40929 0.30613
 C208 C 0.51439 0.39277 0.33133
 C209 C 0.55641 0.40930 0.38243
 C210 C 0.54233 0.36028 0.38741
 C211 C 0.55889 0.34774 0.41269
 C212 C 0.59005 0.38362 0.43368
 C213 C 0.60349 0.43242 0.42927
 C214 C 0.58653 0.44536 0.40405
 C215 C 0.58341 0.50820 0.37559
 C216 C 0.59941 0.49403 0.40041
 H217 H 0.59426 0.54629 0.37387
 H218 H 0.62211 0.52160 0.41705
 H219 H 0.55399 0.52927 0.32593
 H220 H 0.48064 0.38301 0.28854
 H221 H 0.54776 0.30975 0.41555
 H222 H 0.62702 0.46038 0.44554
 H223 H 0.50351 0.35477 0.33145
 H224 H 0.51855 0.33101 0.37214
 C225 C 0.56182 0.11305 0.35890
 C226 C 0.59859 0.12379 0.33716
 C227 C 0.58622 0.09520 0.31101
 C228 C 0.53769 0.05461 0.30626
 C229 C 0.50157 0.04394 0.32823
 C230 C 0.51336 0.07246 0.35410
 C231 C 0.57617 0.14562 0.38599
 C232 C 0.54175 0.14007 0.40802
 C233 C 0.55695 0.17197 0.43257
 C234 C 0.60688 0.20985 0.43600
 C235 C 0.64141 0.21555 0.41422
 C236 C 0.62642 0.18429 0.38922
 C237 C 0.64760 0.16291 0.34164
 C238 C 0.66131 0.19218 0.36724
 H239 H 0.67590 0.17097 0.32512
 H240 H 0.69976 0.22193 0.36967
 H241 H 0.61498 0.10380 0.29469
 H242 H 0.46319 0.01481 0.32488
 H243 H 0.52951 0.16685 0.44897
 H244 H 0.68001 0.24514 0.41635
 H245 H 0.48379 0.06232 0.36987
 H246 H 0.50287 0.11176 0.40659
 C247 C 0.88224 0.45931 0.35551
 C248 C 0.91677 0.44453 0.35229
 C249 C 0.94783 0.45904 0.32707
 C250 C 0.94479 0.48784 0.30444
 C251 C 0.90968 0.50157 0.30771
 C252 C 0.87921 0.48790 0.33281
 C253 C 0.84956 0.44288 0.38265
 C254 C 0.81539 0.45719 0.38836
 C255 C 0.78503 0.44020 0.41353
 C256 C 0.78759 0.40833 0.43381
 C257 C 0.82202 0.39431 0.42858
 C258 C 0.85320 0.41165 0.40335
 C259 C 0.91935 0.41448 0.37393
 C260 C 0.88798 0.39806 0.39875
 H261 H 0.94568 0.40299 0.37147
 H262 H 0.89111 0.37443 0.41465
 H263 H 0.97296 0.44609 0.32452
 H264 H 0.90655 0.52428 0.29110
 H265 H 0.75895 0.45178 0.41690
 H266 H 0.82473 0.37006 0.44418
 H267 H 0.85332 0.49989 0.33379
 H268 H 0.81143 0.48153 0.37375
 C269 C 0.54479 0.43821 1.14171
 C270 C 0.50840 0.40129 1.16059
 C271 C 0.49367 0.41434 1.18676
 C272 C 0.51462 0.46383 1.19448
 C273 C 0.55016 0.50036 1.17564
 C274 C 0.56496 0.48787 1.14951
 C275 C 0.56099 0.42270 1.11462
 C276 C 0.59796 0.45647 1.09491
 C277 C 0.61304 0.44017 1.07062
 C278 C 0.59158 0.38980 1.06517
 C279 C 0.55405 0.35586 1.08436
 C280 C 0.53886 0.37185 1.10900
 C281 C 0.48745 0.35160 1.15350
 C282 C 0.50228 0.33720 1.12823
 H283 H 0.45943 0.32336 1.16787
 H284 H 0.48524 0.29827 1.12388
 H285 H 0.46614 0.38605 1.20135
 H286 H 0.56725 0.53880 1.18148
 H287 H 0.64198 0.46726 1.05619
 H288 H 0.53714 0.31680 1.08049
 H289 H 0.59264 0.51764 1.13605
 H290 H 0.61614 0.49562 1.09796
 C291 C 0.88555 0.46393 1.14437
 C292 C 0.91989 0.44886 1.14743
 C293 C 0.95039 0.46234 1.17295
 C294 C 0.94676 0.49003 1.19618
 C295 C 0.91215 0.50443 1.19296
 C296 C 0.88238 0.49200 1.16747
 C297 C 0.85277 0.44771 1.11716
 C298 C 0.81856 0.46206 1.11157
 C299 C 0.78741 0.44437 1.08657
 C300 C 0.78931 0.41181 1.06644
 C301 C 0.82417 0.39827 1.07138
 C302 C 0.85604 0.41623 1.09636
 C303 C 0.92247 0.41906 1.12549
 C304 C 0.89091 0.40271 1.10067
 H305 H 0.94870 0.40742 1.12781
 H306 H 0.89380 0.37898 1.08463
 H307 H 0.97482 0.44858 1.17543
 H308 H 0.90864 0.52643 1.21001
 H309 H 0.76107 0.45566 1.08331
 H310 H 0.82648 0.37361 1.05581
 H311 H 0.85665 0.50420 1.16659
 H312 H 0.81504 0.48675 1.12622
 C313 C 0.56106 0.11578 1.14583
 C314 C 0.59797 0.12627 1.16753
 C315 C 0.58583 0.09713 1.19327
 C316 C 0.53742 0.05625 1.19762
 C317 C 0.50113 0.04599 1.17576
 C318 C 0.51268 0.07504 1.15031
 C319 C 0.57522 0.14863 1.11907
 C320 C 0.54069 0.14309 1.09707
 C321 C 0.55580 0.17478 1.07261
 C322 C 0.60574 0.21253 1.06926
 C323 C 0.64034 0.21852 1.09115
 C324 C 0.62544 0.18736 1.11605
 C325 C 0.64690 0.16560 1.16334
 C326 C 0.66043 0.19517 1.13802
 H327 H 0.67529 0.17352 1.17983
 H328 H 0.69886 0.22497 1.13577
 H329 H 0.61471 0.10548 1.20953
 H330 H 0.46280 0.01671 1.17889
 H331 H 0.52830 0.16942 1.05612
 H332 H 0.67896 0.24801 1.08908
 H333 H 0.48298 0.06511 1.13459
 H334 H 0.50181 0.11478 1.09836
 C335 C 0.45077 0.56516 1.14618
 C336 C 0.42749 0.51399 1.15093
 C337 C 0.43981 0.49667 1.17616
 C338 C 0.47478 0.52964 1.19698
 C339 C 0.49770 0.58019 1.19236
 C340 C 0.48610 0.59787 1.16725
 C341 C 0.43596 0.58217 1.11924
 C342 C 0.45740 0.63219 1.11232
 C343 C 0.44164 0.64627 1.08738
 C344 C 0.40404 0.61101 1.06859
 C345 C 0.38283 0.56101 1.07505
 C346 C 0.39861 0.54641 1.10007
 C347 C 0.39150 0.48047 1.13079
 C348 C 0.37718 0.49633 1.10599
 H349 H 0.37370 0.44132 1.13442
 H350 H 0.34878 0.46892 1.09124
 H351 H 0.42149 0.45748 1.17999
 H352 H 0.52476 0.60610 1.20829
 H353 H 0.45881 0.68513 1.08299
 H354 H 0.35397 0.53335 1.06062
 H355 H 0.50487 0.63717 1.16501
 H356 H 0.48633 0.66113 1.12584
 C357 C 0.11535 0.55888 1.14367
 C358 C 0.11278 0.52197 1.16227
 C359 C 0.08334 0.50715 1.18821
 C360 C 0.05590 0.52830 1.19586
 C361 C 0.05872 0.56503 1.17755
 C362 C 0.08782 0.58006 1.15176
 C363 C 0.14768 0.57403 1.11634
 C364 C 0.15327 0.61074 1.09657
 C365 C 0.18463 0.62424 1.07179
 C366 C 0.21117 0.60145 1.06589
 C367 C 0.20532 0.56437 1.08527
 C368 C 0.17409 0.55070 1.11035
 C369 C 0.13966 0.50015 1.15494
 C370 C 0.16960 0.51417 1.12955
 H371 H 0.13766 0.47185 1.16911
 H372 H 0.18979 0.49626 1.12497
 H373 H 0.08133 0.47880 1.20237
 H374 H 0.03838 0.58233 1.18334
 H375 H 0.18829 0.65294 1.05731
 H376 H 0.22565 0.54647 1.08112
 H377 H 0.08834 0.60838 1.13861
 H378 H 0.13410 0.62979 1.09988
 C379 C 0.44147 0.88570 1.14456
 C380 C 0.49299 0.91747 1.15022
 C381 C 0.50927 0.94770 1.17581
 C382 C 0.47477 0.94600 1.19616
 C383 C 0.42389 0.91411 1.19070
 C384 C 0.40733 0.88451 1.16522
 C385 C 0.42551 0.85376 1.11719
 C386 C 0.37524 0.82243 1.10916
 C387 C 0.36193 0.79232 1.08403
 C388 C 0.39817 0.79234 1.06603
 C389 C 0.44857 0.82416 1.07345
 C390 C 0.46244 0.85507 1.09873
 C391 C 0.52779 0.91807 1.13066
 C392 C 0.51285 0.88722 1.10564
 H393 H 0.56724 0.94229 1.13499
 H394 H 0.54124 0.88861 1.09146
 H395 H 0.54870 0.97185 1.18028
 H396 H 0.39681 0.91228 1.20627
 H397 H 0.32273 0.76838 1.07895
 H398 H 0.47698 0.82490 1.05961
 H399 H 0.36769 0.86062 1.16245
 H400 H 0.34544 0.82045 1.12191
 C401 C 0.54832 0.44246 0.64166
 C402 C 0.51025 0.40521 0.65958
 C403 C 0.49561 0.41772 0.68607
 C404 C 0.51761 0.46704 0.69462
 C405 C 0.55403 0.50391 0.67637
 C406 C 0.56924 0.49194 0.65021
 C407 C 0.56498 0.42751 0.61453
 C408 C 0.60555 0.46145 0.59690
 C409 C 0.62104 0.44563 0.57261
 C410 C 0.59619 0.39571 0.56489
 C411 C 0.55516 0.36157 0.58193
 C412 C 0.54003 0.37698 0.60698
 C413 C 0.48715 0.35584 0.65095
 C414 C 0.50127 0.34209 0.62501
 H415 H 0.45765 0.32733 0.66447
 H416 H 0.48226 0.30339 0.61936
 H417 H 0.46701 0.38920 0.70006
 H418 H 0.57135 0.54219 0.68268
 H419 H 0.65284 0.47268 0.55981
 H420 H 0.53629 0.32281 0.57641
 H421 H 0.59744 0.52197 0.63713
 H422 H 0.62657 0.50024 0.60181
 C423 C 0.55414 0.11830 0.64609
 C424 C 0.57812 0.09243 0.65162
 C425 C 0.56491 0.06171 0.67671
 C426 C 0.52813 0.05648 0.69652
 C427 C 0.50461 0.08223 0.69106
 C428 C 0.51718 0.11258 0.66617
 C429 C 0.56970 0.15122 0.61931
 C430 C 0.54776 0.17805 0.61183
 C431 C 0.56374 0.20865 0.58698
 C432 C 0.60213 0.21363 0.56870
 C433 C 0.62421 0.18687 0.57583
 C434 C 0.60816 0.15564 0.60088
 C435 C 0.61548 0.09787 0.63233
 C436 C 0.63029 0.12890 0.60758
 H437 H 0.63385 0.07807 0.63655
 H438 H 0.65959 0.13204 0.59348
 H439 H 0.58370 0.04235 0.68113
 H440 H 0.47620 0.07866 0.70617
 H441 H 0.54591 0.22879 0.58222
 H442 H 0.65377 0.19019 0.56189
 H443 H 0.49770 0.13138 0.66329
 H444 H 0.51819 0.17610 0.62482
 C445 C 0.88755 0.46178 0.64361
 C446 C 0.91194 0.43692 0.65111
 C447 C 0.94138 0.45009 0.67698
 C448 C 0.94592 0.48686 0.69609
 C449 C 0.92134 0.51106 0.68902
 C450 C 0.89274 0.49900 0.66297
 C451 C 0.85569 0.44586 0.61602
 C452 C 0.83171 0.46956 0.60565
 C453 C 0.80048 0.45170 0.58062
 C454 C 0.79210 0.40965 0.56551
 C455 C 0.81713 0.38686 0.57502
 C456 C 0.84914 0.40489 0.59981
 C457 C 0.90563 0.39808 0.63332
 C458 C 0.87434 0.38195 0.60846
 H459 H 0.92426 0.37906 0.63911
 H460 H 0.86976 0.35096 0.59581
 H461 H 0.95970 0.43075 0.68281
 H462 H 0.92433 0.53936 0.70374
 H463 H 0.78177 0.47007 0.57357
 H464 H 0.81161 0.35487 0.56310
 H465 H 0.87430 0.51853 0.65874
 H466 H 0.83637 0.50171 0.61660
 C467 C 0.44133 0.55233 0.64331
 C468 C 0.48065 0.58907 0.66104
 C469 C 0.49495 0.57612 0.68748
 C470 C 0.47155 0.52678 0.69601
 C471 C 0.43373 0.49037 0.67800
 C472 C 0.41869 0.50282 0.65200
 C473 C 0.42559 0.56780 0.61604
 C474 C 0.38404 0.53461 0.59857
 C475 C 0.36983 0.55093 0.57396
 C476 C 0.39696 0.60056 0.56575
 C477 C 0.43880 0.63395 0.58271
 C478 C 0.45267 0.61811 0.60810
 C479 C 0.50559 0.63833 0.65215
 C480 C 0.49238 0.65243 0.62603
 H481 H 0.53601 0.66644 0.66552
 H482 H 0.51296 0.69100 0.62010
 H483 H 0.52469 0.60422 0.70126
 H484 H 0.41547 0.45206 0.68427
 H485 H 0.33728 0.52451 0.56127
 H486 H 0.45938 0.67256 0.57685
 H487 H 0.38949 0.47312 0.63903
 H488 H 0.36133 0.49608 0.60385
 C489 C 0.46510 0.88829 0.64400
 C490 C 0.44932 0.92174 0.64741
 C491 C 0.46343 0.95211 0.67287
 C492 C 0.49230 0.94901 0.69570
 C493 C 0.50752 0.91540 0.69208
 C494 C 0.49459 0.88589 0.66663
 C495 C 0.44807 0.85548 0.61699
 C496 C 0.46311 0.82217 0.61119
 C497 C 0.44487 0.79106 0.58641
 C498 C 0.41103 0.79205 0.56664
 C499 C 0.39652 0.82582 0.57182
 C500 C 0.41512 0.85775 0.59665
 C501 C 0.41807 0.92343 0.62592
 C502 C 0.40095 0.89180 0.60126
 H503 H 0.40585 0.94897 0.62851
 H504 H 0.37612 0.89398 0.58559
 H505 H 0.44900 0.97578 0.67572
 H506 H 0.53036 0.91235 0.70887
 H507 H 0.45692 0.76554 0.58300
 H508 H 0.37087 0.82737 0.55652
 H509 H 0.50742 0.86089 0.66550
 H510 H 0.48887 0.81936 0.62546
 C511 C 0.11276 0.55813 0.64394
 C512 C 0.10646 0.51767 0.66047
 C513 C 0.07781 0.50286 0.68671
 C514 C 0.05425 0.52707 0.69621
 C515 C 0.05909 0.56595 0.67932
 C516 C 0.08790 0.58136 0.65350
 C517 C 0.14582 0.57459 0.61706
 C518 C 0.15807 0.61714 0.60090
 C519 C 0.19026 0.63196 0.57660
 C520 C 0.21066 0.60457 0.56747
 C521 C 0.19837 0.56179 0.58315
 C522 C 0.16691 0.54718 0.60818
 C523 C 0.12866 0.49228 0.65067
 C524 C 0.15765 0.50629 0.62484
 H525 H 0.12343 0.46098 0.66311
 H526 H 0.17393 0.48539 0.61817
 H527 H 0.07350 0.47236 0.69967
 H528 H 0.04095 0.58490 0.68642
 H529 H 0.19922 0.66513 0.56487
 H530 H 0.21466 0.54087 0.57651
 H531 H 0.09012 0.61145 0.64143
 H532 H 0.14407 0.64010 0.60693
 C533 C 0.44479 0.55143 0.86008
 C534 C 0.48385 0.58794 0.84233
 C535 C 0.49752 0.57470 0.81573
 C536 C 0.47356 0.52533 0.80691
 C537 C 0.43609 0.48910 0.82497
 C538 C 0.42181 0.50183 0.85123
 C539 C 0.42937 0.56730 0.88738
 C540 C 0.38811 0.53437 0.90492
 C541 C 0.37388 0.55114 0.92937
 C542 C 0.40070 0.60101 0.93733
 C543 C 0.44242 0.63411 0.92038
 C544 C 0.45632 0.61779 0.89519
 C545 C 0.50894 0.63732 0.85123
 C546 C 0.49589 0.65183 0.87728
 H547 H 0.53918 0.66523 0.83783
 H548 H 0.51644 0.69050 0.88314
 H549 H 0.52691 0.60268 0.80187
 H550 H 0.41727 0.45078 0.81844
 H551 H 0.34148 0.52489 0.94206
 H552 H 0.46283 0.67288 0.92607
 H553 H 0.39271 0.47229 0.86417
 H554 H 0.36561 0.49569 0.89982
 C555 C 0.11220 0.55372 0.85865
 C556 C 0.11747 0.52511 0.83664
 C557 C 0.08925 0.51206 0.81016
 C558 C 0.05365 0.52497 0.80578
 C559 C 0.04764 0.55203 0.82831
 C560 C 0.07631 0.56616 0.85428
 C561 C 0.14517 0.56963 0.88568
 C562 C 0.14713 0.60323 0.90681
 C563 C 0.17982 0.61852 0.93099
 C564 C 0.21061 0.60002 0.93509
 C565 C 0.20866 0.56603 0.91452
 C566 C 0.17715 0.55176 0.88941
 C567 C 0.15041 0.50924 0.84138
 C568 C 0.17885 0.52144 0.86748
 H569 H 0.15400 0.48670 0.82475
 H570 H 0.20357 0.50802 0.87015
 H571 H 0.09373 0.49021 0.79342
 H572 H 0.02216 0.56442 0.82537
 H573 H 0.18117 0.64510 0.94658
 H574 H 0.23337 0.55260 0.91731
 H575 H 0.06976 0.58689 0.87058
 H576 H 0.12481 0.61923 0.90471
 C577 C 0.46047 0.88340 0.85517
 C578 C 0.44586 0.91780 0.85222
 C579 C 0.46062 0.94858 0.82710
 C580 C 0.48925 0.94527 0.80422
 C581 C 0.50284 0.91033 0.80721
 C582 C 0.48909 0.88021 0.83228
 C583 C 0.44357 0.85087 0.88215
 C584 C 0.45796 0.81704 0.88771
 C585 C 0.44057 0.78687 0.91277
 C586 C 0.40815 0.78929 0.93303
 C587 C 0.39393 0.82325 0.92792
 C588 C 0.41182 0.85435 0.90287
 C589 C 0.41546 0.92035 0.87392
 C590 C 0.39840 0.88899 0.89852
 H591 H 0.40408 0.94658 0.87163
 H592 H 0.37443 0.89202 0.91445
 H593 H 0.44725 0.97319 0.82467
 H594 H 0.52537 0.90693 0.79036
 H595 H 0.45224 0.76106 0.91610
 H596 H 0.36937 0.82586 0.94359
 H597 H 0.50086 0.85434 0.83304
 H598 H 0.48275 0.81327 0.87311
 C599 C 0.54124 0.42917 0.85688
 C600 C 0.56714 0.47976 0.84960
 C601 C 0.55351 0.49561 0.82423
 C602 C 0.51537 0.46163 0.80533
 C603 C 0.49029 0.41154 0.81212
 C604 C 0.50270 0.39539 0.83771
 C605 C 0.55729 0.41379 0.88408
 C606 C 0.53225 0.36491 0.89440
 C607 C 0.54974 0.35231 0.91932
 C608 C 0.59285 0.38794 0.93438
 C609 C 0.61735 0.43687 0.92473
 C610 C 0.59956 0.45012 0.90010
 C611 C 0.60741 0.51407 0.86713
 C612 C 0.62375 0.49948 0.89156
 H613 H 0.62734 0.55274 0.86149
 H614 H 0.65576 0.52735 0.90403
 H615 H 0.57349 0.53432 0.81861
 H616 H 0.46098 0.38487 0.79753
 H617 H 0.53008 0.31433 0.92645
 H618 H 0.65020 0.46483 0.93659
 H619 H 0.48239 0.35638 0.84173
 H620 H 0.49913 0.33592 0.88358
 C621 C 0.88469 0.44724 0.85818
 C622 C 0.88794 0.48579 0.84099
 C623 C 0.91685 0.50160 0.81490
 C624 C 0.94383 0.48047 0.80616
 C625 C 0.94142 0.44305 0.82347
 C626 C 0.91230 0.42657 0.84917
 C627 C 0.85201 0.43017 0.88525
 C628 C 0.84336 0.38968 0.90242
 C629 C 0.81163 0.37433 0.92697
 C630 C 0.78811 0.39916 0.93533
 C631 C 0.79679 0.43987 0.91862
 C632 C 0.82783 0.45498 0.89340
 C633 C 0.86268 0.50852 0.85008
 C634 C 0.83377 0.49386 0.87592
 H635 H 0.86549 0.53831 0.83707
 H636 H 0.81509 0.51273 0.88204
 H637 H 0.91914 0.53089 0.80159
 H638 H 0.96203 0.42635 0.81692
 H639 H 0.80548 0.34276 0.93950
 H640 H 0.77810 0.45877 0.92465
 H641 H 0.91218 0.39785 0.86163
 H642 H 0.85996 0.36878 0.89706
 C643 C 0.55858 0.11121 0.85921
 C644 C 0.52165 0.10874 0.84010
 C645 C 0.50758 0.08014 0.81392
 C646 C 0.52939 0.05335 0.80650
 C647 C 0.56572 0.05552 0.82544
 C648 C 0.58011 0.08393 0.85151
 C649 C 0.57339 0.14322 0.88659
 C650 C 0.61072 0.14947 0.90662
 C651 C 0.62397 0.18074 0.93137
 C652 C 0.60021 0.20637 0.93695
 C653 C 0.56254 0.19984 0.91731
 C654 C 0.54925 0.16890 0.89226
 C655 C 0.49907 0.13491 0.84714
 C656 C 0.51246 0.16422 0.87270
 H657 H 0.47068 0.13286 0.83260
 H658 H 0.49399 0.18390 0.87707
 H659 H 0.47937 0.07837 0.79932
 H660 H 0.58330 0.03541 0.81988
 H661 H 0.65317 0.18505 0.94609
 H662 H 0.54398 0.21959 0.92117
 H663 H 0.60823 0.08414 0.86517
 H664 H 0.63051 0.13101 0.90346
   
