data_POSCAR
  _audit_creation_date              2014-09-24
  _audit_creation_method            'ToBaCCo'
  _symmetry_space_group_name_H-M    'P1'
  _symmetry_Int_Tables_number       1
  _symmetry_cell_setting            triclinic
  loop_
  _symmetry_equiv_pos_as_xyz
 x,y,z
_cell_length_a 33.8697
_cell_length_b 19.4263
_cell_length_c 16.9963
_cell_angle_alpha 131.780200
_cell_angle_beta 99.821400
_cell_angle_gamma 106.616100
loop_
  _atom_site_label
  _atom_site_type_symbol
  _atom_site_fract_x
  _atom_site_fract_y
  _atom_site_fract_z
O1 O 0.70026 0.22832 0.42301
 O2 O 0.75089 0.18466 0.58846
 O3 O 0.71757 0.22203 0.59805
 O4 O 0.75844 0.16491 0.41819
 O5 O 0.78431 0.26948 0.41788
 O6 O 0.74726 0.32308 0.59466
 O7 O 0.79736 0.27242 0.59643
 O8 O 0.75039 0.30519 0.42402
 Cu9 Cu 0.73400 0.21156 0.50104
 Cu10 Cu 0.76779 0.28328 0.50933
 C11 C 0.71461 0.27687 0.40956
 C12 C 0.78676 0.21696 0.60769
 C13 C 0.71853 0.28402 0.60206
 C14 C 0.78193 0.20050 0.40335
 O15 O 0.25280 0.68869 0.58471
 O16 O 0.20841 0.72759 0.40905
 O17 O 0.27347 0.62895 0.41313
 O18 O 0.21944 0.72879 0.57921
 O19 O 0.23960 0.83653 0.58870
 O20 O 0.28400 0.73360 0.45530
 O21 O 0.25185 0.81267 0.41187
 O22 O 0.29549 0.76789 0.57575
 Cu23 Cu 0.24143 0.70293 0.49014
 Cu24 Cu 0.26297 0.79348 0.50950
 C25 C 0.28756 0.71419 0.59843
 C26 C 0.21698 0.78264 0.39599
 C27 C 0.25107 0.62866 0.34591
 C28 C 0.21858 0.79897 0.60477
 O29 O 0.20537 0.26467 -0.42092
 O30 O 0.26602 0.33785 -0.57446
 O31 O 0.22885 0.27548 -0.58106
 O32 O 0.26000 0.35910 -0.40579
 O33 O 0.27611 0.23792 -0.46848
 O34 O 0.25404 0.18315 -0.61223
 O35 O 0.28023 0.22921 -0.61957
 O36 O 0.23062 0.17052 -0.45118
 Cu37 Cu 0.23469 0.29991 -0.48714
 Cu38 Cu 0.25882 0.19035 -0.52249
 C39 C 0.20976 0.21179 -0.41038
 C40 C 0.28362 0.29069 -0.62446
 C41 C 0.21986 0.20102 -0.60120
 C42 C 0.28087 0.32828 -0.39787
 O43 O -0.23090 0.84051 -0.57701
 O44 O -0.28981 0.75919 -0.42716
 O45 O -0.26279 0.80513 -0.41312
 O46 O -0.27221 0.77370 -0.59048
 O47 O -0.24412 0.67478 -0.63011
 O48 O -0.22533 0.71388 -0.44472
 O49 O -0.26616 0.67293 -0.42579
 O50 O -0.21427 0.72660 -0.61775
 Cu51 Cu -0.25554 0.81611 -0.48824
 Cu52 Cu -0.24301 0.69705 -0.51779
 C53 C -0.21439 0.79054 -0.62806
 C54 C -0.29005 0.70599 -0.40012
 C55 C -0.22546 0.78175 -0.43390
 C56 C -0.27638 0.70077 -0.60987
 O57 O -0.03246 0.93999 0.12382
 O58 O 0.02225 0.91359 -0.21754
 O59 O -0.07813 0.89780 -0.12547
 O60 O 0.03581 0.90185 0.01101
 O61 O -0.05178 0.98615 -0.24325
 O62 O -0.00159 0.93091 0.12400
 O63 O 0.03844 0.93643 -0.08555
 O64 O -0.09011 0.93236 0.03117
 C65 C -0.06522 0.93790 0.12414
 C66 C 0.06569 0.96627 -0.12216
 C67 C -0.05094 0.90616 -0.23627
 C68 C 0.03440 0.91365 0.10209
 O69 O 0.00130 1.03013 0.16482
 O70 O -0.04891 1.06150 -0.13876
 O71 O -0.06331 1.02856 0.06712
 O72 O 0.00905 0.93545 -0.08979
 O73 O 0.01123 1.04499 -0.16395
 O74 O -0.02249 1.04237 0.12046
 O75 O 0.04282 1.00201 0.04344
 O76 O -0.08591 0.99478 0.01860
 Co77 Co -0.11223 0.80130 -0.05364
 Co78 Co -0.08901 0.83808 -0.32711
 Co79 Co -0.16514 0.79705 -0.17887
 Co80 Co -0.05577 0.79812 -0.16441
 O81 O -0.04366 0.96137 -0.00809
 C82 C 0.04110 1.08555 0.17858
 C83 C -0.05392 1.07922 -0.02673
 C84 C -0.01920 1.15424 0.19215
 C85 C 0.03251 1.06415 -0.06873
 O86 O 0.46574 0.44071 0.12696
 O87 O 0.51856 0.41810 -0.22400
 O88 O 0.42805 0.36830 -0.13288
 O89 O 0.52217 0.36338 -0.04610
 O90 O 0.48757 0.38291 -0.25043
 O91 O 0.49763 0.43122 0.12455
 O92 O 0.53662 0.42234 -0.05092
 O93 O 0.40428 0.42999 0.04862
 C94 C 0.43242 0.43739 0.13477
 C95 C 0.55987 0.45877 -0.08988
 C96 C 0.47280 0.42187 -0.14268
 C97 C 0.53099 0.40997 0.08211
 O98 O 0.49841 0.53043 0.16961
 O99 O 0.47127 0.56603 -0.18795
 O100 O 0.43454 0.50347 0.05712
 O101 O 0.53525 0.55606 -0.06301
 O102 O 0.50946 0.52305 -0.19813
 O103 O 0.46616 0.53937 0.12444
 O104 O 0.54174 0.50882 0.05440
 O105 O 0.43463 0.54747 -0.05410
 Co106 Co 0.38870 0.30074 -0.05324
 Co107 Co 0.41741 0.31797 -0.36713
 Co108 Co 0.33500 0.28544 -0.19532
 Co109 Co 0.44898 0.28803 -0.21599
 O110 O 0.45354 0.44548 -0.02427
 C111 C 0.53832 0.58652 0.17814
 C112 C 0.45086 0.59288 -0.10248
 C113 C 0.45367 0.60610 0.14580
 C114 C 0.54930 0.59068 -0.10229
 C115 C 0.33493 0.36742 0.28627
 C116 C 0.36559 0.34008 0.29688
 C117 C 0.36884 0.30088 0.34305
 C118 C 0.34607 0.31408 0.39903
 C119 C 0.31025 0.31808 0.36262
 C120 C 0.30674 0.35627 0.32064
 O121 O 0.33588 0.40393 0.24352
 C122 C 0.36948 0.39949 0.22725
 C123 C 0.38663 0.36174 0.26029
 C124 C 0.42051 0.34789 0.25254
 C125 C 0.43841 0.37586 0.20702
 C126 C 0.42042 0.41152 0.17537
 C127 C 0.38608 0.41854 0.17814
 H128 H 0.38981 0.27598 0.35822
 H129 H 0.34750 0.30096 0.43550
 H130 H 0.28395 0.37724 0.31278
 H131 H 0.42888 0.31751 0.28320
 H132 H 0.46515 0.38223 0.19616
 H133 H 0.37415 0.43648 0.13841
 C134 C -0.16768 0.85619 0.27045
 C135 C -0.13330 0.85084 0.30665
 C136 C -0.12700 0.82914 0.36956
 C137 C -0.15531 0.82243 0.39472
 C138 C -0.19175 0.81855 0.35519
 C139 C -0.19726 0.83966 0.29677
 O140 O -0.16878 0.87850 0.21312
 C141 C -0.13252 0.88614 0.21390
 C142 C -0.11248 0.87147 0.27181
 C143 C -0.07549 0.87499 0.28591
 C144 C -0.05615 0.89779 0.23615
 C145 C -0.07846 0.90477 0.17001
 C146 C -0.11564 0.89767 0.16033
 H147 H -0.10501 0.82087 0.40948
 H148 H -0.14990 0.80996 0.43754
 H149 H -0.22066 0.84342 0.26501
 H150 H -0.06573 0.86230 0.33781
 H151 H -0.02948 0.91561 0.22633
 H152 H -0.13450 0.90206 0.11005
 C153 C 0.65043 0.66258 0.39329
 C154 C 0.62137 0.67459 0.35923
 C155 C 0.64566 0.74824 0.35860
 C156 C 0.67096 0.71974 0.26577
 C157 C 0.70169 0.70959 0.31883
 C158 C 0.68452 0.63113 0.35474
 O159 O 0.65233 0.58368 0.27973
 C160 C 0.62052 0.56322 0.19923
 C161 C 0.60781 0.62595 0.26263
 C162 C 0.59611 0.67090 0.17109
 C163 C 0.55902 0.67578 0.18901
 C164 C 0.57225 0.59040 0.10573
 C165 C 0.60951 0.53327 0.10600
 H166 H 0.62670 0.78663 0.35803
 H167 H 0.67472 0.77858 0.37034
 H168 H 0.69838 0.58804 0.38082
 H169 H 0.57631 0.73148 0.23840
 H170 H 0.55215 0.62541 0.08771
 H171 H 0.60133 0.48422 0.11650
 C172 C 0.14542 1.15665 0.39956
 C173 C 0.12213 1.18168 0.37020
 C174 C 0.14444 1.24492 0.35589
 C175 C 0.17720 1.23417 0.28345
 C176 C 0.20191 1.19590 0.31980
 C177 C 0.18245 1.12995 0.36421
 O178 O 0.14565 1.07968 0.28997
 C179 C 0.12717 1.06022 0.19555
 C180 C 0.11400 1.11904 0.25404
 C181 C 0.09990 1.16962 0.16548
 C182 C 0.06325 1.17463 0.17835
 C183 C 0.06376 1.08043 0.11216
 C184 C 0.09962 1.05388 0.16921
 H185 H 0.12099 1.27770 0.35773
 H186 H 0.17352 1.28073 0.37633
 H187 H 0.19686 1.08350 0.37845
 H188 H 0.08051 1.23237 0.22953
 H189 H 0.05706 1.12110 0.08051
 H190 H 0.10749 0.99103 0.08832
 C191 C 0.64950 0.31190 -0.28726
 C192 C 0.64735 0.36946 -0.29348
 C193 C 0.66431 0.39220 -0.34900
 C194 C 0.69099 0.36479 -0.38675
 C195 C 0.69337 0.30634 -0.37727
 C196 C 0.67520 0.28968 -0.31814
 O197 O 0.63332 0.29492 -0.23360
 C198 C 0.61645 0.34262 -0.20739
 C199 C 0.62535 0.39102 -0.23958
 C200 C 0.60894 0.44256 -0.21907
 C201 C 0.58124 0.43914 -0.16010
 C202 C 0.58425 0.41583 -0.11953
 C203 C 0.59243 0.35273 -0.14973
 H204 H 0.67094 0.44676 -0.35335
 H205 H 0.70891 0.38459 -0.42450
 H206 H 0.67020 0.23424 -0.32108
 H207 H 0.62735 0.47078 -0.24882
 H208 H 0.51075 0.32609 -0.21512
 H209 H 0.57765 0.32111 -0.12649
 C210 C 0.15513 0.79257 -0.30347
 C211 C 0.13425 0.82644 -0.32114
 C212 C 0.13662 0.83170 -0.39844
 C213 C 0.16693 0.82505 -0.43058
 C214 C 0.19293 0.81373 -0.37694
 C215 C 0.18983 0.81443 -0.30006
 O216 O 0.16187 0.85084 -0.18635
 C217 C 0.13110 0.87892 -0.17791
 C218 C 0.12012 0.86155 -0.26447
 C219 C 0.10848 0.91120 -0.25919
 C220 C 0.07259 0.89893 -0.26742
 C221 C 0.07230 0.90281 -0.17928
 C222 C 0.09021 0.85656 -0.16637
 H223 H 0.11136 0.83401 -0.43293
 H224 H 0.17691 0.89363 -0.34460
 H225 H 0.21329 0.80556 -0.26138
 H226 H 0.07797 0.86593 -0.34865
 H227 H 0.05853 0.95709 -0.26762
 H228 H 0.11824 0.92188 -0.06960
 C229 C 0.36316 0.66318 -0.32685
 C230 C 0.34408 0.63751 -0.27613
 C231 C 0.30875 0.63446 -0.26788
 C232 C 0.29005 0.65890 -0.31628
 C233 C 0.30843 0.68702 -0.36714
 C234 C 0.34478 0.68840 -0.37894
 O235 O 0.39800 0.65523 -0.31736
 C236 C 0.39711 0.62973 -0.26067
 C237 C 0.36494 0.61668 -0.23392
 C238 C 0.35939 0.58817 -0.17443
 C239 C 0.38850 0.57731 -0.13719
 C240 C 0.42149 0.58908 -0.16413
 C241 C 0.42571 0.61401 -0.22747
 H242 H 0.29919 0.61008 -0.22681
 H243 H 0.26315 0.66655 -0.31284
 H244 H 0.35349 0.71407 -0.42208
 H245 H 0.33726 0.57158 -0.14710
 H246 H 0.38142 0.55831 -0.08774
 H247 H 0.44924 0.62636 -0.25140
 C248 C -0.16727 1.14175 -0.28224
 C249 C -0.13469 1.15460 -0.30915
 C250 C -0.12984 1.18389 -0.36892
 C251 C -0.16018 1.19507 -0.40661
 C252 C -0.19113 1.18875 -0.37010
 C253 C -0.19649 1.15839 -0.31359
 O254 O -0.16792 1.11658 -0.22553
 C255 C -0.13358 1.10909 -0.21720
 C256 C -0.11381 1.13345 -0.26616
 C257 C -0.07878 1.13584 -0.27200
 C258 C -0.06097 1.11326 -0.21803
 C259 C -0.07696 1.09425 -0.14450
 C260 C -0.11598 1.09065 -0.16044
 H261 H -0.10881 1.20159 -0.39757
 H262 H -0.16160 1.20859 -0.45715
 H263 H -0.21892 1.14433 -0.28765
 H264 H -0.06828 1.15963 -0.31289
 H265 H -0.03558 1.10725 -0.22783
 H266 H -0.12790 1.06736 -0.12466
 C267 C 0.65667 0.62806 -0.35255
 C268 C 0.63552 0.67768 -0.29161
 C269 C 0.63864 0.72550 -0.31892
 C270 C 0.65497 0.72140 -0.38496
 C271 C 0.68224 0.67591 -0.38214
 C272 C 0.69958 0.64784 -0.30673
 O273 O 0.67468 0.63280 -0.28195
 C274 C 0.63175 0.59329 -0.27198
 C275 C 0.61565 0.64931 -0.25615
 C276 C 0.58731 0.67232 -0.21763
 C277 C 0.57213 0.64139 -0.17438
 C278 C 0.58274 0.58722 -0.16305
 C279 C 0.62181 0.58911 -0.19954
 H280 H 0.62338 0.76238 -0.29444
 H281 H 0.66384 0.78279 -0.37477
 H282 H 0.71520 0.60258 -0.35550
 H283 H 0.58147 0.71935 -0.21487
 H284 H 0.54395 0.64545 -0.17296
 H285 H 0.67100 0.61444 -0.19188
 C286 C 0.13747 1.17143 -0.31262
 C287 C 0.15421 1.13209 -0.28105
 C288 C 0.18828 1.11777 -0.29006
 C289 C 0.20673 1.14574 -0.33615
 C290 C 0.19045 1.18663 -0.36871
 C291 C 0.15518 1.19943 -0.36119
 O292 O 0.10340 1.17395 -0.28985
 C293 C 0.10106 1.13688 -0.24397
 C294 C 0.13102 1.11081 -0.24050
 C295 C 0.13540 1.07880 -0.19428
 C296 C 0.11283 1.09291 -0.12548
 C297 C 0.06950 1.09858 -0.12885
 C298 C 0.07030 1.12362 -0.19928
 H299 H 0.19673 1.08620 -0.26001
 H300 H 0.23479 1.14461 -0.34460
 H301 H 0.14673 1.23181 -0.39239
 H302 H 0.15887 1.05252 -0.19209
 H303 H 0.12049 1.05772 -0.10655
 H304 H 0.05200 1.14692 -0.21955
 C305 C 0.32027 0.28148 -0.31991
 C306 C 0.35930 0.31573 -0.34627
 C307 C 0.36541 0.35221 -0.39655
 C308 C 0.33182 0.37573 -0.40866
 C309 C 0.30076 0.36090 -0.35360
 C310 C 0.29635 0.34735 -0.27282
 O311 O 0.33674 0.37184 -0.21508
 C312 C 0.37093 0.39239 -0.20701
 C313 C 0.38236 0.39600 -0.28446
 C314 C 0.39251 0.33035 -0.28462
 C315 C 0.44147 0.42864 -0.19606
 C316 C 0.40933 0.36722 -0.18553
 C317 C 0.37850 0.41660 -0.11733
 H318 H 0.38239 0.32259 -0.45466
 H319 H 0.32446 0.24928 -0.51698
 H320 H 0.27426 0.28250 -0.28103
 H321 H 0.42130 0.29175 -0.30285
 H322 H 0.44888 0.45704 -0.21512
 H323 H 0.36934 0.42239 -0.06270
 C324 C -0.18435 0.81016 -0.26988
 C325 C -0.15920 0.76804 -0.31218
 C326 C -0.15082 0.77106 -0.42115
 C327 C -0.14979 0.85468 -0.42058
 C328 C -0.18741 0.84234 -0.42766
 C329 C -0.18951 0.88396 -0.32521
 O330 O -0.17171 0.90572 -0.22999
 C331 C -0.13521 0.92015 -0.17925
 C332 C -0.13313 0.85483 -0.27845
 C333 C -0.10710 0.76517 -0.30203
 C334 C -0.03812 0.91538 -0.19529
 C335 C -0.07711 0.87471 -0.18392
 C336 C -0.11072 0.93393 -0.21005
 H337 H -0.12600 0.73447 -0.45653
 H338 H -0.16743 0.75798 -0.48732
 H339 H -0.20419 0.92927 -0.33458
 H340 H -0.04825 0.79870 -0.25868
 H341 H -0.02527 0.93408 -0.32967
 H342 H -0.11898 0.98900 -0.09461
 C343 C 0.36429 0.66261 0.36146
 C344 C 0.34302 0.63346 0.26471
 C345 C 0.33486 0.70834 0.29033
 C346 C 0.29117 0.68275 0.28839
 C347 C 0.30248 0.68582 0.38075
 C348 C 0.32396 0.62037 0.35653
 O349 O 0.39536 0.63750 0.36091
 C350 C 0.38604 0.58101 0.24841
 C351 C 0.36478 0.60745 0.21997
 C352 C 0.36180 0.58920 0.12955
 C353 C 0.40031 0.65240 0.15481
 C354 C 0.42077 0.60163 0.15538
 C355 C 0.42628 0.60826 0.24656
 H356 H 0.30144 0.61632 0.20483
 H357 H 0.30245 0.79144 0.36241
 H358 H 0.34981 0.71350 0.45412
 H359 H 0.33425 0.57690 0.09024
 H360 H 0.38251 0.55525 0.06627
 H361 H 0.45122 0.59818 0.27590
 C362 C -0.15090 1.23737 0.32715
 C363 C -0.13789 1.16728 0.31240
 C364 C -0.13241 1.18255 0.40528
 C365 C -0.17274 1.11573 0.37442
 C366 C -0.19074 1.17881 0.37918
 C367 C -0.19475 1.16435 0.28132
 O368 O -0.16540 1.13691 0.19717
 C369 C -0.13353 1.11067 0.17601
 C370 C -0.11755 1.14231 0.27508
 C371 C -0.10747 1.07087 0.25118
 C372 C -0.06670 1.10231 0.25585
 C373 C -0.06821 1.12125 0.19284
 C374 C -0.09261 1.15423 0.17756
 H375 H -0.10565 1.19038 0.44780
 H376 H -0.15067 1.22889 0.46656
 H377 H -0.22072 1.16398 0.24180
 H378 H -0.07399 1.15565 0.34643
 H379 H -0.09244 1.02661 0.19647
 H380 H -0.12190 1.06223 0.08460
 C381 C 0.62641 0.29944 0.29884
 C382 C 0.64324 0.37620 0.31824
 C383 C 0.67970 0.39153 0.33850
 C384 C 0.70626 0.37076 0.38025
 C385 C 0.68954 0.30248 0.37371
 C386 C 0.64914 0.29764 0.36841
 O387 O 0.59719 0.19640 0.15285
 C388 C 0.59994 0.30706 0.19696
 C389 C 0.62995 0.39827 0.25466
 C390 C 0.62474 0.40804 0.17347
 C391 C 0.60477 0.46760 0.25999
 C392 C 0.56413 0.40594 0.16792
 C393 C 0.57696 0.38812 0.25408
 H394 H 0.68573 0.45409 0.38910
 H395 H 0.71838 0.40699 0.45362
 H396 H 0.65277 0.23371 0.30680
 H397 H 0.63846 0.47753 0.28319
 H398 H 0.58900 0.50693 0.25858
 H399 H 0.55823 0.31530 0.14298
 C400 C 0.16961 0.86620 0.28947
 C401 C 0.13745 0.85056 0.30342
 C402 C 0.13289 0.83127 0.36216
 C403 C 0.16253 0.81132 0.40968
 C404 C 0.19319 0.81283 0.37459
 C405 C 0.19995 0.86476 0.34451
 O406 O 0.16797 0.88737 0.23052
 C407 C 0.13199 0.89153 0.21719
 C408 C 0.11386 0.86805 0.26191
 C409 C 0.07953 0.87468 0.27312
 C410 C 0.05850 0.89282 0.22225
 C411 C 0.07138 0.91195 0.16823
 C412 C 0.11082 0.90377 0.15816
 H413 H 0.13306 0.80710 0.38057
 H414 H 0.14802 0.72279 0.37104
 H415 H 0.21737 0.87524 0.31489
 H416 H 0.06716 0.86347 0.31250
 H417 H 0.03314 0.89990 0.22505
 H418 H 0.13113 0.93491 0.13725
   
