data_POSCAR
  _audit_creation_date              2014-09-24
  _audit_creation_method            'ToBaCCo'
  _symmetry_space_group_name_H-M    'P1'
  _symmetry_Int_Tables_number       1
  _symmetry_cell_setting            triclinic
  loop_
  _symmetry_equiv_pos_as_xyz
 x,y,z
_cell_length_a 36.9108
_cell_length_b 38.5587
_cell_length_c 34.7321
_cell_angle_alpha 90.964400
_cell_angle_beta 89.649400
_cell_angle_gamma 90.919200
loop_
  _atom_site_label
  _atom_site_type_symbol
  _atom_site_fract_x
  _atom_site_fract_y
  _atom_site_fract_z
C1 C 0.18871 0.20031 0.24832
 N2 N 0.17717 0.22851 0.22949
 C3 C 0.19516 0.23970 0.19779
 N4 N 0.22450 0.22229 0.18445
 C5 C 0.23612 0.19402 0.20336
 N6 N 0.21801 0.18288 0.23507
 C7 C -0.20967 0.78771 0.24834
 N8 N -0.19524 0.76072 0.22847
 C9 C -0.20875 0.75108 0.19364
 N10 N -0.23640 0.76897 0.17819
 C11 C -0.25091 0.79605 0.19817
 N12 N -0.23724 0.80561 0.23301
 C13 C -0.21040 0.21728 -0.26167
 N14 N -0.23652 0.19902 -0.24290
 C15 C -0.24933 0.21063 -0.20841
 N16 N -0.23539 0.24027 -0.19224
 C17 C -0.20920 0.25853 -0.21117
 N18 N -0.19652 0.24678 -0.24559
 C19 C 0.18827 0.79615 -0.25364
 N20 N 0.17730 0.76519 -0.23945
 C21 C 0.19461 0.75158 -0.20903
 N22 N 0.22266 0.76928 -0.19228
 C23 C 0.23368 0.80034 -0.20655
 N24 N 0.21628 0.81384 -0.23703
 C25 C 0.20446 1.20532 0.76499
 N26 N 0.18898 1.23463 0.77934
 C27 C 0.20488 1.25241 0.80906
 N28 N 0.23586 1.24060 0.82467
 C29 C 0.25129 1.21140 0.81036
 N30 N 0.23546 1.19368 0.78071
 C31 C 0.81343 0.79828 0.78017
 N32 N 0.78095 0.80992 0.79305
 C33 C 0.76235 0.79233 0.82052
 N34 N 0.77641 0.76324 0.83546
 C35 C 0.80884 0.75146 0.82266
 N36 N 0.82749 0.76908 0.79511
 C37 C 0.21514 0.80147 1.24748
 N38 N 0.19979 0.77055 1.23665
 C39 C 0.21487 0.75146 1.20763
 N40 N 0.24484 0.76354 1.18915
 C41 C 0.26016 0.79435 1.19987
 N42 N 0.24517 0.81344 1.22886
 C43 C 0.80107 1.19487 1.23200
 N44 N 0.76974 1.18329 1.21553
 C45 C 0.75288 1.20291 1.18915
 N46 N 0.76756 1.23387 1.17892
 C47 C 0.79878 1.24555 1.19531
 N48 N 0.81571 1.22596 1.22171
 O49 O 0.53385 0.96470 0.92332
 O50 O 0.47351 0.96129 1.05838
 O51 O 0.59060 0.98703 1.02695
 O52 O 0.42170 0.99100 0.95408
 O53 O 0.53906 0.97117 1.05711
 O54 O 0.46530 0.96495 0.92400
 O55 O 0.43848 0.95869 1.00975
 O56 O 0.55478 0.95153 0.98077
 C57 C 0.55134 0.94467 0.94524
 C58 C 0.44939 0.94589 1.03978
 C59 C 0.57390 0.97189 1.05572
 C60 C 0.43217 0.96839 0.93034
 O61 O 0.46524 1.03510 0.92463
 O62 O 0.52586 1.04094 1.05875
 O63 O 0.57744 1.00953 0.95308
 O64 O 0.40876 1.01399 1.02869
 O65 O 0.46022 1.03103 1.05791
 O66 O 0.53360 1.03475 0.92394
 O67 O 0.44451 1.04921 0.98269
 O68 O 0.56103 1.04229 1.00982
 Co69 Co 0.49950 0.99991 0.92913
 Co70 Co 0.49965 1.00106 1.05199
 Co71 Co 0.55363 0.99687 0.99722
 Co72 Co 0.44571 1.00404 0.99808
 O73 O 0.49966 1.00047 0.98990
 C74 C 0.44807 1.05562 0.94726
 C75 C 0.55029 1.05569 1.04021
 C76 C 0.56673 1.03184 0.93006
 C77 C 0.42539 1.02928 1.05773
 O78 O 0.04186 0.47001 0.07781
 O79 O 0.01822 0.53339 -0.07780
 O80 O 0.02706 0.43293 -0.02680
 O81 O 0.06403 0.54739 0.03192
 O82 O 0.04659 0.47913 -0.05355
 O83 O 0.03779 0.53525 0.08474
 O84 O 0.05508 0.54239 -0.03350
 O85 O 0.01484 0.42964 0.04224
 C86 C 0.03911 0.43919 0.06599
 C87 C 0.04670 0.54770 -0.06724
 C88 C 0.05038 0.44797 -0.04691
 C89 C 0.06389 0.54825 0.06733
 O90 O -0.03143 0.53141 0.07971
 O91 O -0.01332 0.47271 -0.08960
 O92 O -0.05343 0.45330 0.02869
 O93 O -0.01572 0.56536 -0.02541
 O94 O -0.04234 0.51817 -0.04709
 O95 O -0.02812 0.46583 0.08238
 O96 O -0.00510 0.57125 0.04379
 O97 O -0.04179 0.45502 -0.03853
 Co98 Co 0.00517 0.50056 0.07427
 Co99 Co 0.00187 0.49750 -0.04787
 Co100 Co -0.01156 0.44764 0.00209
 Co101 Co 0.02307 0.55238 0.00446
 O102 O 0.00595 0.50090 0.01057
 C103 C -0.02927 0.56191 0.06779
 C104 C -0.03606 0.45098 -0.07428
 C105 C -0.05399 0.45276 0.06417
 C106 C -0.04272 0.55028 -0.04100
 O107 O 1.04469 0.04651 0.48258
 O108 O 0.92324 0.02844 0.53906
 O109 O 0.96030 0.00888 0.42134
 O110 O 1.03673 0.04403 0.55169
 O111 O 0.92382 0.02963 0.46641
 O112 O 1.08457 0.01782 0.53128
 O113 O 0.97366 0.05436 0.55171
 O114 O 1.02571 0.02279 0.42879
 C115 C 1.03972 0.04829 0.44708
 C116 C 0.94024 0.05496 0.54984
 C117 C 0.93485 0.02862 0.43212
 C118 C 1.07011 0.03864 0.55633
 O119 O 1.05028 -0.03960 0.52207
 O120 O 0.92276 -0.03702 0.46438
 O121 O 1.03455 -0.04578 0.45081
 O122 O 0.95951 -0.01021 0.57966
 O123 O 0.92925 -0.03931 0.53588
 O124 O 1.07522 -0.00950 0.46332
 O125 O 1.02398 -0.02273 0.57420
 O126 O 0.97338 -0.05694 0.44390
 Co127 Co 1.04544 0.00352 0.50351
 Co128 Co 0.93110 -0.00431 0.50152
 Co129 Co 0.99820 -0.01629 0.44120
 Co130 Co 0.99788 0.01462 0.55880
 O131 O 0.99073 -0.00197 0.49949
 C132 C 1.04271 -0.04455 0.55635
 C133 C 0.94024 -0.05998 0.44755
 C134 C 1.06637 -0.03647 0.44591
 C135 C 0.93940 -0.03553 0.56986
 C136 C 1.12829 0.15962 0.33229
 N137 N 1.09318 0.15139 0.32462
 N138 N 1.07335 0.13332 0.34968
 C139 C 1.08802 0.12308 0.38324
 N140 N 1.12306 0.13153 0.39103
 N141 N 1.14289 0.14959 0.36596
 C142 C 1.15055 0.17555 0.30345
 C143 C 1.16888 0.18765 0.27806
 C144 C 1.06869 0.09925 0.40731
 C145 C 1.05423 0.07707 0.42623
 C146 C 0.84294 -0.17242 0.33889
 N147 N 0.87949 -0.17533 0.33962
 N148 N 0.89917 -0.15659 0.36463
 C149 C 0.88285 -0.13440 0.38968
 N150 N 0.84627 -0.13172 0.38918
 N151 N 0.82659 -0.15045 0.36416
 C152 C 0.82263 -0.18847 0.30830
 C153 C 0.80672 -0.20033 0.28084
 C154 C 0.90412 -0.11039 0.41223
 C155 C 0.92124 -0.08831 0.42930
 C156 C 0.84201 0.17188 0.64828
 N157 N 0.82581 0.14682 0.62630
 N158 N 0.84551 0.12691 0.60279
 C159 C 0.88196 0.13147 0.60058
 N160 N 0.89812 0.15674 0.62231
 N161 N 0.87842 0.17666 0.64580
 C162 C 0.82191 0.18948 0.67781
 C163 C 0.80628 0.20283 0.70455
 C164 C 0.90345 0.10657 0.58022
 C165 C 0.92085 0.08387 0.56527
 C166 C 1.13019 -0.15804 0.66577
 N167 N 1.14575 -0.14522 0.63343
 N168 N 1.12656 -0.12620 0.60949
 C169 C 1.09124 -0.11954 0.61711
 N170 N 1.07564 -0.13254 0.64933
 N171 N 1.09481 -0.15157 0.67327
 C172 C 1.15157 -0.17555 0.69344
 C173 C 1.16919 -0.18921 0.71781
 C174 C 1.07222 -0.09535 0.59418
 C175 C 1.05772 -0.07313 0.57619
 C176 C 0.31497 1.13546 1.15914
 N177 N 0.33957 1.14829 1.13373
 N178 N 0.36323 1.12733 1.11643
 C179 C 0.36305 1.09294 1.12405
 N180 N 0.33852 1.08013 1.14955
 N181 N 0.31487 1.10109 1.16686
 C182 C 0.28774 1.15742 1.17561
 C183 C 0.26392 1.17511 1.18884
 C184 C 0.38627 1.07001 1.10275
 C185 C 0.40473 1.05108 1.08320
 C186 C 0.31046 0.85904 0.84432
 N187 N 0.31198 0.86217 0.88324
 N188 N 0.33598 0.88374 0.89986
 C189 C 0.35911 0.90295 0.87807
 N190 N 0.35762 0.89980 0.83916
 N191 N 0.33361 0.87822 0.82254
 C192 C 0.28361 0.83690 0.82635
 C193 C 0.26047 0.81916 0.81103
 C194 C 0.38477 0.92637 0.89603
 C195 C 0.40634 0.94581 0.91144
 C196 C 0.67686 0.85841 1.15116
 N197 N 0.67592 0.89186 1.16382
 N198 N 0.65437 0.91447 1.14707
 C199 C 0.63306 0.90427 1.11717
 N200 N 0.63393 0.87080 1.10457
 N201 N 0.65549 0.84819 1.12131
 C202 C 0.70163 0.83473 1.16785
 C203 C 0.72345 0.81587 1.18193
 C204 C 0.61156 0.92895 1.09746
 C205 C 0.59408 0.94909 1.07938
 C206 C 0.68075 1.14797 0.84607
 N207 N 0.68931 1.13434 0.88054
 N208 N 0.66742 1.11097 0.89693
 C209 C 0.63642 1.10036 0.87922
 N210 N 0.62785 1.11402 0.84478
 N211 N 0.64974 1.13738 0.82840
 C212 C 0.70516 1.17184 0.82749
 C213 C 0.72621 1.19080 0.81107
 C214 C 0.61263 1.07542 0.89694
 C215 C 0.59209 1.05502 0.91191
 C216 C 0.14809 0.31854 0.14140
 N217 N 0.14425 0.34992 0.15903
 N218 N 0.12397 0.37410 0.14323
 C219 C 0.10681 0.36756 0.10941
 N220 N 0.11075 0.33623 0.09169
 N221 N 0.13103 0.31206 0.10750
 C222 C 0.16693 0.29146 0.16020
 C223 C 0.18096 0.26812 0.17689
 C224 C 0.08334 0.39284 0.09360
 C225 C 0.06320 0.41398 0.08081
 C226 C -0.15211 0.33918 -0.16354
 N227 N -0.12323 0.35137 -0.18386
 N228 N -0.10060 0.37484 -0.16825
 C229 C -0.10618 0.38678 -0.13180
 N230 N -0.13513 0.37468 -0.11153
 N231 N -0.15774 0.35120 -0.12714
 C232 C -0.17456 0.31190 -0.17939
 C233 C -0.19163 0.28800 -0.19332
 C234 C -0.08073 0.41030 -0.11387
 C235 C -0.05978 0.42930 -0.09700
 C236 C 0.14856 0.66494 -0.16339
 N237 N 0.15962 0.65149 -0.12970
 N238 N 0.14051 0.62612 -0.11318
 C239 C 0.10979 0.61344 -0.12983
 N240 N 0.09881 0.62678 -0.16360
 N241 N 0.11793 0.65214 -0.18013
 C242 C 0.16700 0.69441 -0.17937
 C243 C 0.18074 0.72011 -0.19275
 C244 C 0.08748 0.58867 -0.11000
 C245 C 0.06866 0.56918 -0.09158
 C246 C -0.15102 0.67709 0.13710
 N247 N -0.12779 0.68645 0.10856
 N248 N -0.10425 0.66379 0.09410
 C249 C -0.10308 0.63115 0.10793
 N250 N -0.12638 0.62175 0.13638
 N251 N -0.14992 0.64442 0.15084
 C252 C -0.17371 0.70243 0.15527
 C253 C -0.19095 0.72432 0.17198
 C254 C -0.07681 0.60716 0.09353
 C255 C -0.05483 0.58675 0.08177
 C256 C 1.15788 0.14600 0.68277
 N257 N 1.13061 0.15737 0.66048
 N258 N 1.11492 0.13615 0.63460
 C259 C 1.12602 0.10293 0.63014
 N260 N 1.15333 0.09158 0.65240
 N261 N 1.16902 0.11279 0.67827
 C262 C 1.17415 0.16842 0.71160
 C263 C 1.18812 0.18635 0.73639
 C264 C 1.10789 0.07969 0.60344
 C265 C 1.09149 0.06058 0.58158
 C266 C 0.86638 -0.14434 0.70217
 N267 N 0.86231 -0.15074 0.66390
 N268 N 0.87775 -0.12978 0.63819
 C269 C 0.89768 -0.10172 0.64993
 N270 N 0.90180 -0.09535 0.68820
 N271 N 0.88637 -0.11631 0.71391
 C272 C 0.84822 -0.16591 0.72992
 C273 C 0.83225 -0.18323 0.75341
 C274 C 0.91315 -0.07841 0.62214
 C275 C 0.92548 -0.05880 0.59851
 C276 C 1.16719 -0.13801 0.32705
 N277 N 1.16745 -0.10313 0.32245
 N278 N 1.14980 -0.08259 0.34723
 C279 C 1.13140 -0.09627 0.37746
 N280 N 1.13122 -0.13115 0.38211
 N281 N 1.14886 -0.15170 0.35733
 C282 C 1.18482 -0.16023 0.29925
 C283 C 1.19920 -0.17851 0.27525
 C284 C 1.11023 -0.07443 0.40261
 C285 C 1.09109 -0.05665 0.42291
 C286 C 0.85193 0.13390 0.30608
 N287 N 0.83805 0.10192 0.31364
 N288 N 0.85480 0.08112 0.33787
 C289 C 0.88601 0.09161 0.35527
 N290 N 0.89990 0.12359 0.34771
 N291 N 0.88315 0.14439 0.32347
 C292 C 0.83383 0.15624 0.27982
 C293 C 0.81848 0.17463 0.25753
 C294 C 0.90372 0.06932 0.38187
 C295 C 0.91818 0.05066 0.40455
 C296 C 0.15779 0.33388 -0.13957
 N297 N 0.13839 0.35727 -0.15921
 N298 N 0.12090 0.38244 -0.14043
 C299 C 0.12242 0.38515 -0.10146
 N300 N 0.14194 0.36183 -0.08184
 N301 N 0.15944 0.33666 -0.10062
 C302 C 0.17474 0.30535 -0.15939
 C303 C 0.18879 0.28072 -0.17494
 C304 C 0.09995 0.40952 -0.08112
 C305 C 0.07875 0.42827 -0.06478
 C306 C -0.15618 0.33246 0.15429
 N307 N -0.12924 0.35005 0.17291
 N308 N -0.11229 0.37665 0.15617
 C309 C -0.12183 0.38657 0.12038
 N310 N -0.14888 0.36907 0.10184
 N311 N -0.16584 0.34248 0.11858
 C312 C -0.17241 0.30200 0.17075
 C313 C -0.18585 0.27571 0.18312
 C314 C -0.10051 0.41223 0.10063
 C315 C -0.08053 0.43195 0.08386
 C316 C -0.14736 0.66793 -0.12539
 N317 N -0.14399 0.66849 -0.08651
 N318 N -0.12741 0.64286 -0.06875
 C319 C -0.11389 0.61573 -0.08929
 N320 N -0.11741 0.61510 -0.12816
 N321 N -0.13399 0.64074 -0.14594
 C322 C -0.16308 0.69672 -0.14461
 C323 C -0.17587 0.72146 -0.16008
 C324 C -0.09189 0.59058 -0.07084
 C325 C -0.07093 0.57105 -0.05637
 C326 C 0.16733 0.66590 0.16366
 N327 N 0.17838 0.65474 0.12831
 N328 N 0.16083 0.62882 0.11021
 C329 C 0.13175 0.61318 0.12698
 N330 N 0.12081 0.62424 0.16242
 N331 N 0.13834 0.65017 0.18051
 C332 C 0.18436 0.69578 0.18146
 C333 C 0.19856 0.72167 0.19474
 C334 C 0.11025 0.58813 0.10582
 C335 C 0.09028 0.56880 0.08801
 C336 C 0.33724 1.16820 0.86331
 N337 N 0.33685 1.16523 0.90217
 N338 N 0.36178 1.14656 0.91966
 C339 C 0.38791 1.13038 0.89883
 N340 N 0.38843 1.13353 0.85999
 N341 N 0.36350 1.15219 0.84250
 C342 C 0.30810 1.18494 0.84427
 C343 C 0.28262 1.19764 0.82854
 C344 C 0.41142 1.10638 0.91693
 C345 C 0.42930 1.08425 0.93135
 C346 C 0.34254 0.83500 1.13549
 N347 N 0.37343 0.84785 1.15157
 N348 N 0.39767 0.86502 1.13025
 C349 C 0.39188 0.86967 1.09215
 N350 N 0.36110 0.85659 1.07604
 N351 N 0.33688 0.83941 1.09735
 C352 C 0.31467 0.81979 1.15905
 C353 C 0.29028 0.80795 1.17824
 C354 C 0.41463 0.89325 1.07110
 C355 C 0.43180 0.91581 1.05534
 C356 C 0.66493 1.16416 1.13150
 N357 N 0.66684 1.16118 1.09257
 N358 N 0.64066 1.14466 1.07297
 C359 C 0.61163 1.13083 1.09166
 N360 N 0.60961 1.13405 1.13057
 N361 N 0.63579 1.15056 1.15019
 C362 C 0.69495 1.17865 1.15275
 C363 C 0.72101 1.18992 1.16991
 C364 C 0.58705 1.10780 1.07158
 C365 C 0.56869 1.08558 1.05612
 C366 C 0.67046 0.83453 0.86518
 N367 N 0.64803 0.85280 0.84266
 N368 N 0.62108 0.87090 0.85834
 C369 C 0.61564 0.87118 0.89701
 N370 N 0.63794 0.85272 0.91950
 N371 N 0.66490 0.83462 0.90381
 C372 C 0.70183 0.81826 0.84884
 C373 C 0.72907 0.80587 0.83560
 C374 C 0.59024 0.89464 0.91424
 C375 C 0.57108 0.91638 0.92858
   
