data_POSCAR
  _audit_creation_date              2014-09-24
  _audit_creation_method            'ToBaCCo'
  _symmetry_space_group_name_H-M    'P1'
  _symmetry_Int_Tables_number       1
  _symmetry_cell_setting            triclinic
  loop_
  _symmetry_equiv_pos_as_xyz
 x,y,z
_cell_length_a 34.5009
_cell_length_b 20.3385
_cell_length_c 15.1613
_cell_angle_alpha 91.484800
_cell_angle_beta 89.885100
_cell_angle_gamma 90.069100
loop_
  _atom_site_label
  _atom_site_type_symbol
  _atom_site_fract_x
  _atom_site_fract_y
  _atom_site_fract_z
O1 O 0.78236 0.17549 0.57550
 O2 O 0.69363 0.19999 0.44893
 O3 O 0.75988 0.14160 0.41797
 O4 O 0.71874 0.24216 0.60180
 O5 O 0.74483 0.33150 0.54698
 O6 O 0.78541 0.23185 0.36459
 O7 O 0.71976 0.28891 0.39278
 O8 O 0.80885 0.26472 0.52131
 Cu9 Cu 0.73605 0.18096 0.51689
 Cu10 Cu 0.76713 0.28847 0.45115
 C11 C 0.81078 0.21481 0.56970
 C12 C 0.69179 0.24831 0.39821
 C13 C 0.78016 0.17004 0.36007
 C14 C 0.72462 0.30400 0.60533
 O15 O 0.29303 0.75831 0.45503
 O16 O 0.21577 0.77681 0.61743
 O17 O 0.28228 0.71931 0.61766
 O18 O 0.21867 0.79477 0.44864
 O19 O 0.19925 0.69479 0.40965
 O20 O 0.25834 0.62177 0.58026
 O21 O 0.19143 0.67975 0.57981
 O22 O 0.27311 0.65773 0.42101
 Cu23 Cu 0.25494 0.77182 0.53729
 Cu24 Cu 0.22823 0.65432 0.49296
 C25 C 0.29767 0.70432 0.41331
 C26 C 0.19061 0.73224 0.62769
 C27 C 0.28008 0.65733 0.62864
 C28 C 0.19704 0.75644 0.40216
 O29 O 0.24574 0.38834 -0.60838
 O30 O 0.17704 0.31592 -0.45728
 O31 O 0.24124 0.38820 -0.43527
 O32 O 0.19718 0.29162 -0.62145
 O33 O 0.23534 0.20783 -0.59202
 O34 O 0.28029 0.30399 -0.41720
 O35 O 0.21646 0.23344 -0.43055
 O36 O 0.28487 0.30364 -0.59327
 Cu37 Cu 0.21153 0.35385 -0.53129
 Cu38 Cu 0.25837 0.25574 -0.50541
 C39 C 0.27625 0.35770 -0.62996
 C40 C 0.18407 0.26281 -0.41900
 C41 C 0.26939 0.36146 -0.39527
 C42 C 0.20916 0.23297 -0.63822
 O43 O -0.21865 0.83083 -0.56715
 O44 O -0.29754 0.80689 -0.40654
 O45 O -0.22425 0.83577 -0.39573
 O46 O -0.29332 0.79995 -0.57597
 O47 O -0.27822 0.69468 -0.57095
 O48 O -0.20765 0.73100 -0.39304
 O49 O -0.28062 0.70257 -0.39905
 O50 O -0.20347 0.72556 -0.56284
 Cu51 Cu -0.25974 0.82899 -0.48768
 Cu52 Cu -0.24113 0.70278 -0.48193
 C53 C -0.19703 0.78284 -0.59056
 C54 C -0.30232 0.75030 -0.37491
 C55 C -0.20418 0.78972 -0.36368
 C56 C -0.29856 0.74080 -0.60196
 O57 O -0.05044 0.91841 0.18686
 O58 O -0.09221 0.96002 0.08446
 C59 C -0.08509 0.93045 0.15713
 O60 O 0.05167 1.15872 0.11212
 O61 O 0.09844 1.08570 0.06459
 C62 C 0.08733 1.14110 0.10137
 O63 O -0.05510 1.14105 0.12117
 O64 O -0.09488 1.06324 0.05670
 C65 C -0.08893 1.11636 0.10387
 O66 O 0.05959 0.91868 0.18841
 O67 O 0.10180 0.97257 0.09777
 C68 C 0.09435 0.93643 0.16491
 Zr69 Zr 0.00484 0.94309 0.13296
 O70 O 0.00584 0.96193 0.27081
 O71 O 0.00542 0.84026 0.14923
 Zr72 Zr 0.00070 1.10522 0.08890
 O73 O 0.00352 1.12091 0.22746
 O74 O -0.00589 1.20771 0.07527
 O75 O -0.03188 1.02434 0.12553
 O76 O 0.03629 1.03021 0.12947
 O77 O 0.06455 0.86971 -0.11546
 O78 O 0.10442 0.94671 -0.04883
 C79 C 0.09852 0.89357 -0.09628
 O80 O -0.04924 1.08766 -0.18953
 O81 O -0.09156 1.03870 -0.09429
 C82 C -0.08388 1.07105 -0.16450
 O83 O 0.05971 1.10147 -0.17745
 O84 O 0.10214 1.05638 -0.07967
 C85 C 0.09451 1.09046 -0.14843
 O86 O -0.04376 0.86872 -0.13801
 O87 O -0.08914 0.93485 -0.06960
 C88 C -0.07932 0.88731 -0.12371
 Zr89 Zr 0.00879 0.90658 -0.08406
 O90 O 0.01498 0.87382 -0.21669
 O91 O 0.00637 0.80726 -0.04563
 Zr92 Zr 0.00514 1.06900 -0.12968
 O93 O 0.01128 1.04600 -0.26602
 O94 O -0.00074 1.17007 -0.15701
 Zr95 Zr -0.05249 1.00171 -0.00245
 Zr96 Zr 0.06271 1.01162 0.00620
 O97 O 0.04069 0.98792 -0.12030
 O98 O -0.02675 0.98228 -0.12667
 O99 O 0.04208 0.91596 0.03014
 O100 O -0.03090 1.09628 -0.02615
 O101 O -0.02716 0.91054 0.02484
 O102 O 0.03694 1.10276 -0.02147
 H103 H 0.05319 1.04101 0.18061
 H104 H -0.04925 1.13247 -0.03770
 H105 H 0.05873 0.98078 -0.17054
 H106 H -0.04472 0.87249 0.03253
 H107 H -0.00241 1.21639 0.01194
 H108 H 0.02079 1.19382 -0.12711
 H109 H -0.01019 1.01602 -0.28316
 H110 H 0.01001 0.91235 -0.25332
 H111 H 0.03009 0.79845 -0.01129
 H112 H 0.00425 0.83369 0.21370
 H113 H -0.01281 0.99789 0.28326
 H114 H -0.02195 1.10880 0.25245
 O115 O 0.44927 0.36256 0.13425
 O116 O 0.40699 0.43064 0.06345
 C117 C 0.41483 0.38357 0.11737
 O118 O 0.56053 0.59277 0.16556
 O119 O 0.60214 0.53205 0.07721
 C120 C 0.59514 0.57366 0.14139
 O121 O 0.44951 0.58699 0.17301
 O122 O 0.40736 0.53635 0.07558
 C123 C 0.41467 0.57093 0.14611
 O124 O 0.55718 0.35571 0.12873
 O125 O 0.60060 0.42144 0.05742
 C126 C 0.59223 0.37395 0.10899
 Zr127 Zr 0.50322 0.39601 0.08960
 O128 O 0.50586 0.38279 0.22751
 O129 O 0.50074 0.29356 0.06341
 Zr130 Zr 0.50515 0.56199 0.11678
 O131 O 0.50847 0.55810 0.25586
 O132 O 0.50422 0.66586 0.12263
 O133 O 0.46979 0.47901 0.11950
 O134 O 0.53751 0.47648 0.11980
 O135 O 0.55602 0.36857 -0.17129
 O136 O 0.60045 0.42716 -0.08853
 C137 C 0.59115 0.38247 -0.14767
 O138 O 0.45469 0.61755 -0.14727
 O139 O 0.40965 0.55368 -0.07736
 C140 C 0.41938 0.60094 -0.12955
 O141 O 0.56249 0.61327 -0.14053
 O142 O 0.60305 0.54196 -0.07091
 C143 C 0.59671 0.59090 -0.12161
 O144 O 0.44892 0.38538 -0.18413
 O145 O 0.40650 0.44314 -0.09488
 C146 C 0.41430 0.40355 -0.16097
 Zr147 Zr 0.50342 0.41185 -0.13095
 O148 O 0.50933 0.42606 -0.26826
 O149 O 0.49729 0.30946 -0.15459
 Zr150 Zr 0.50709 0.57730 -0.10356
 O151 O 0.51130 0.58702 -0.24192
 O152 O 0.50625 0.68071 -0.08365
 Zr153 Zr 0.44673 0.48907 -0.00841
 Zr154 Zr 0.56232 0.48356 -0.00662
 O155 O 0.53903 0.49351 -0.13349
 O156 O 0.47073 0.49772 -0.13546
 O157 O 0.53753 0.38938 -0.02228
 O158 O 0.47220 0.58277 0.00803
 O159 O 0.46915 0.39341 -0.02271
 O160 O 0.54119 0.58030 0.00938
 H161 H 0.55430 0.47215 0.17225
 H162 H 0.45506 0.62160 0.01528
 H163 H 0.55704 0.49509 -0.18439
 H164 H 0.45091 0.35589 -0.02885
 H165 H 0.50332 0.67833 0.18619
 H166 H 0.52646 0.69208 -0.03958
 H167 H 0.48979 0.56146 -0.26898
 H168 H 0.48560 0.44829 -0.28860
 H169 H 0.50844 0.28762 -0.10293
 H170 H 0.50126 0.27252 0.12162
 H171 H 0.48673 0.41301 0.25535
 H172 H 0.49060 0.52298 0.27423
 C173 C 0.29952 0.38421 0.30447
 C174 C 0.32945 0.35225 0.26777
 C175 C 0.35350 0.38325 0.19981
 C176 C 0.38381 0.35095 0.16593
 H177 H 0.33675 0.30319 0.28873
 H178 H 0.34846 0.43406 0.18319
 H179 H 0.29195 0.43233 0.28049
 H180 H 0.38947 0.30127 0.18688
 C181 C -0.16300 0.79343 0.35256
 C182 C -0.15610 0.85109 0.31549
 C183 C -0.12043 0.86306 0.26463
 C184 C -0.11932 0.91284 0.20922
 H185 H -0.17712 0.89050 0.32259
 H186 H -0.09553 0.83117 0.27164
 H187 H -0.14261 0.75336 0.34297
 H188 H -0.14540 0.94141 0.19913
 C189 C 0.66988 0.72617 0.33469
 C190 C 0.66443 0.66641 0.29792
 C191 C 0.62984 0.65075 0.24382
 C192 C 0.62929 0.59669 0.19186
 H193 H 0.68536 0.62782 0.30926
 H194 H 0.60478 0.68281 0.24744
 H195 H 0.64959 0.76518 0.32074
 H196 H 0.65538 0.56719 0.18584
 C197 C 0.19375 1.19437 0.29342
 C198 C 0.16716 1.21597 0.23780
 C199 C 0.14761 1.16947 0.17682
 C200 C 0.11576 1.18840 0.13570
 H201 H 0.15743 1.26667 0.24221
 H202 H 0.15584 1.11798 0.17532
 H203 H 0.20340 1.14368 0.28699
 H204 H 0.10654 1.23928 0.14240
 C205 C 0.70666 0.34528 -0.32453
 C206 C 0.68055 0.32073 -0.26933
 C207 C 0.65600 0.36363 -0.21299
 C208 C 0.62114 0.34161 -0.18992
 H209 H 0.67402 0.26854 -0.27276
 H210 H 0.66436 0.41415 -0.19845
 H211 H 0.71224 0.39776 -0.32368
 H212 H 0.61233 0.29260 -0.21173
 C213 C 0.16153 0.74174 -0.30897
 C214 C 0.16268 0.79289 -0.25124
 C215 C 0.12978 0.81042 -0.19361
 C216 C 0.13266 0.86169 -0.13669
 H217 H 0.18766 0.82539 -0.24957
 H218 H 0.10227 0.78564 -0.20399
 H219 H 0.13748 0.70743 -0.30739
 H220 H 0.16047 0.88568 -0.12700
 C221 C 0.30271 0.62447 -0.30307
 C222 C 0.33008 0.65468 -0.25514
 C223 C 0.35496 0.61675 -0.19594
 C224 C 0.38951 0.64043 -0.17231
 H225 H 0.33617 0.70633 -0.26469
 H226 H 0.34682 0.56720 -0.17901
 H227 H 0.29788 0.57226 -0.29516
 H228 H 0.39818 0.68846 -0.19486
 C229 C -0.15346 1.20183 -0.38111
 C230 C -0.15126 1.15079 -0.32776
 C231 C -0.11592 1.13546 -0.27874
 C232 C -0.11729 1.08935 -0.21783
 H233 H -0.17634 1.11934 -0.31924
 H234 H -0.08933 1.16213 -0.29121
 H235 H -0.12873 1.23408 -0.38912
 H236 H -0.14460 1.06510 -0.20415
 C237 C 0.66773 0.74045 -0.31464
 C238 C 0.66375 0.68375 -0.27289
 C239 C 0.62993 0.66981 -0.21729
 C240 C 0.63101 0.61834 -0.16462
 H241 H 0.68542 0.64544 -0.28143
 H242 H 0.60372 0.69861 -0.22364
 H243 H 0.64712 0.77982 -0.30201
 H244 H 0.65798 0.59158 -0.15771
 C245 C 0.15318 1.23584 -0.36335
 C246 C 0.15763 1.18481 -0.31071
 C247 C 0.12399 1.16016 -0.26100
 C248 C 0.12799 1.11663 -0.19721
 H249 H 0.18569 1.16146 -0.30443
 H250 H 0.09538 1.17850 -0.27670
 H251 H 0.12508 1.25954 -0.36639
 H252 H 0.15672 1.09995 -0.17964
 C253 C 0.29078 0.39723 -0.32442
 C254 C 0.32064 0.36783 -0.28503
 C255 C 0.34795 0.40171 -0.22474
 C256 C 0.38272 0.37423 -0.21321
 H257 H 0.32723 0.31702 -0.30265
 H258 H 0.34081 0.44896 -0.19452
 H259 H 0.28384 0.44813 -0.30882
 H260 H 0.38965 0.32890 -0.24914
 C261 C -0.17582 0.80429 -0.29312
 C262 C -0.17442 0.86326 -0.25180
 C263 C -0.14502 0.88353 -0.18568
 C264 C -0.11005 0.85539 -0.17730
 H265 H -0.19605 0.89984 -0.26693
 H266 H -0.15137 0.92851 -0.14863
 H267 H -0.15588 0.76575 -0.27566
 H268 H -0.10215 0.81296 -0.21789
 C269 C 0.33308 0.69631 0.35916
 C270 C 0.34090 0.64178 0.31184
 C271 C 0.37786 0.63347 0.26308
 C272 C 0.37995 0.58787 0.19864
 H273 H 0.31962 0.60248 0.30843
 H274 H 0.40265 0.66427 0.27902
 H275 H 0.35402 0.73612 0.36059
 H276 H 0.35385 0.56046 0.18189
 C277 C -0.20187 1.13264 0.29308
 C278 C -0.17920 1.16075 0.23286
 C279 C -0.15268 1.12216 0.17592
 C280 C -0.12196 1.15230 0.14165
 H281 H -0.17677 1.21393 0.23180
 H282 H -0.15543 1.06908 0.17095
 H283 H -0.20426 1.07949 0.29392
 H284 H -0.11815 1.20475 0.15347
 C285 C 0.65669 0.25738 0.34549
 C286 C 0.65778 0.29188 0.27210
 C287 C 0.62250 0.30708 0.22270
 C288 C 0.62546 0.34252 0.15034
 H289 H 0.68522 0.31161 0.24965
 H290 H 0.59435 0.29446 0.24930
 H291 H 0.62981 0.23510 0.36678
 H292 H 0.65400 0.35570 0.12623
 C293 C 0.16688 0.78110 0.34221
 C294 C 0.16231 0.84377 0.31981
 C295 C 0.12814 0.86263 0.26686
 C296 C 0.12799 0.91673 0.21864
 H297 H 0.18326 0.88073 0.34057
 H298 H 0.10302 0.83051 0.26548
 H299 H 0.14625 0.74496 0.31707
 H300 H 0.15405 0.94642 0.21548
   
