data_POSCAR
  _audit_creation_date              2014-09-24
  _audit_creation_method            'ToBaCCo'
  _symmetry_space_group_name_H-M    'P1'
  _symmetry_Int_Tables_number       1
  _symmetry_cell_setting            triclinic
  loop_
  _symmetry_equiv_pos_as_xyz
 x,y,z
_cell_length_a 33.9648
_cell_length_b 34.7734
_cell_length_c 33.6388
_cell_angle_alpha 88.952700
_cell_angle_beta 86.726700
_cell_angle_gamma 91.374800
loop_
  _atom_site_label
  _atom_site_type_symbol
  _atom_site_fract_x
  _atom_site_fract_y
  _atom_site_fract_z
C1 C 0.18371 0.53049 1.04415
 H2 H 0.18406 0.55370 1.02227
 C3 C 0.15641 0.53017 1.07689
 H4 H 0.13610 0.55364 1.08004
 C5 C 0.20886 0.47115 1.06543
 H6 H 0.22843 0.44753 1.06024
 C7 C 0.18227 0.46969 1.09860
 H8 H 0.18267 0.44453 1.11778
 N9 N 0.20918 0.50120 1.03903
 C10 C 0.30543 0.54089 0.95662
 H11 H 0.30304 0.51843 0.93499
 C12 C 0.33686 0.56733 0.95298
 H13 H 0.35851 0.56514 0.92825
 C14 C 0.28111 0.56942 1.01629
 H15 H 0.25993 0.56924 1.04152
 C16 C 0.31233 0.59664 1.01381
 H17 H 0.31471 0.61708 1.03743
 Zn18 Zn 0.24214 0.50008 0.99184
 N19 N 0.27857 0.54209 0.98803
 C20 C 0.21218 0.53134 0.92192
 N21 N 0.20915 0.50121 0.94835
 C22 C 0.18074 0.47324 0.94593
 C23 C 0.15373 0.47512 0.91612
 C24 C 0.18584 0.53436 0.89176
 C25 C 0.30074 0.45490 1.01984
 C26 C 0.32738 0.42509 1.02110
 C27 C 0.29730 0.39699 0.96474
 C28 C 0.27117 0.42753 0.96452
 N29 N 0.27330 0.45561 0.99199
 H30 H 0.23449 0.55363 0.92462
 H31 H 0.17861 0.44986 0.96767
 H32 H 0.13097 0.45289 0.91484
 H33 H 0.18936 0.55838 0.87088
 H34 H 0.30240 0.47814 1.04068
 H35 H 0.34962 0.42637 1.04279
 H36 H 0.29555 0.37502 0.94245
 H37 H 0.24982 0.42913 0.94197
 C38 C 0.34106 0.59531 0.98201
 C39 C 0.15516 0.49945 1.10481
 C40 C 0.32581 0.39538 0.99336
 C41 C 0.15554 0.50640 0.88911
 C42 C 0.81347 0.52334 -0.04318
 H43 H 0.81114 0.54539 -0.02094
 C44 C 0.84164 0.52733 -0.07482
 H45 H 0.86079 0.55274 -0.07692
 C46 C 0.79172 0.46312 -0.06676
 H47 H 0.77262 0.43787 -0.06310
 C48 C 0.81976 0.46584 -0.09891
 H49 H 0.82098 0.44296 -0.12026
 N50 N 0.78895 0.49185 -0.03989
 C51 C 0.69144 0.53275 0.03654
 H52 H 0.69034 0.51061 0.05962
 C53 C 0.66408 0.56205 0.03815
 H54 H 0.64180 0.56158 0.06243
 C55 C 0.72050 0.55808 -0.02437
 H56 H 0.74191 0.55597 -0.04917
 C57 C 0.69365 0.58791 -0.02398
 H58 H 0.69498 0.60879 -0.04834
 Zn59 Zn 0.75396 0.48970 0.00598
 N60 N 0.71927 0.53155 0.00593
 C61 C 0.78120 0.51865 0.07895
 N62 N 0.78596 0.49193 0.05011
 C63 C 0.81589 0.46668 0.05027
 C64 C 0.84305 0.46813 0.07982
 C65 C 0.80720 0.52051 0.10964
 C66 C 0.69890 0.43608 -0.02155
 C67 C 0.66966 0.40710 -0.01722
 C68 C 0.68776 0.39617 0.05041
 C69 C 0.71737 0.42460 0.04445
 N70 N 0.72187 0.44439 0.00916
 H71 H 0.75765 0.53889 0.07802
 H72 H 0.81905 0.44585 0.02687
 H73 H 0.86677 0.44785 0.07941
 H74 H 0.80321 0.54190 0.13243
 H75 H 0.70202 0.45324 -0.04874
 H76 H 0.65055 0.40201 -0.04136
 H77 H 0.68310 0.38203 0.07932
 H78 H 0.73507 0.43248 0.06887
 C79 C 0.66526 0.59046 0.00775
 C80 C 0.84536 0.49829 -0.10301
 C81 C 0.66327 0.38746 0.01952
 C82 C 0.83900 0.49559 0.10975
 C83 C -0.04138 0.30846 0.47581
 H84 H -0.06227 0.30933 0.50127
 C85 C -0.04476 0.33382 0.44357
 H86 H -0.06871 0.35365 0.44528
 C87 C 0.01602 0.28212 0.44500
 H88 H 0.04037 0.26282 0.44612
 C89 C 0.01372 0.30677 0.41209
 H90 H 0.03624 0.30548 0.38802
 N91 N -0.01134 0.28337 0.47600
 C92 C -0.04804 0.19469 0.56426
 H93 H -0.02444 0.19770 0.58436
 C94 C -0.07500 0.16386 0.56918
 H95 H -0.07222 0.14340 0.59348
 C96 C -0.07826 0.21603 0.50631
 H97 H -0.07832 0.23544 0.48088
 C98 C -0.10594 0.18560 0.51016
 H99 H -0.12691 0.18230 0.48739
 Zn100 Zn -0.00611 0.25374 0.52296
 N101 N -0.04967 0.21956 0.53281
 C102 C -0.02660 0.28986 0.59703
 N103 N -0.00109 0.28902 0.56441
 C104 C 0.02813 0.31611 0.55796
 C105 C 0.03251 0.34588 0.58461
 C106 C -0.02325 0.31922 0.62465
 C107 C 0.03956 0.19595 0.48904
 C108 C 0.07070 0.17058 0.48522
 C109 C 0.09952 0.20054 0.54134
 C110 C 0.06806 0.22568 0.54378
 N111 N 0.03887 0.22289 0.51785
 H112 H -0.05018 0.26848 0.60110
 H113 H 0.04742 0.31514 0.53128
 H114 H 0.05504 0.36769 0.57728
 H115 H -0.04426 0.32005 0.65007
 H116 H 0.01560 0.19396 0.46927
 H117 H 0.07071 0.14909 0.46231
 H118 H 0.12251 0.20325 0.56218
 H119 H 0.06660 0.24682 0.56692
 C120 C -0.10391 0.15850 0.54152
 C121 C -0.01666 0.33349 0.41103
 C122 C 0.10072 0.17221 0.51205
 C123 C 0.00648 0.34786 0.61859
 C124 C 0.97897 0.73015 0.54631
 H125 H 0.95379 0.74783 0.54199
 C126 C 0.97846 0.70484 0.57905
 H127 H 0.95298 0.70364 0.59997
 C128 C 1.04168 0.70851 0.52329
 H129 H 1.06576 0.70952 0.50078
 C130 C 1.04242 0.68279 0.55558
 H131 H 1.06716 0.66395 0.55703
 N132 N 1.01034 0.73155 0.51928
 C133 C 0.93726 0.79094 0.44472
 H134 H 0.94061 0.77121 0.42040
 C135 C 0.90535 0.81573 0.44657
 H136 H 0.88401 0.81448 0.42388
 C137 C 0.96177 0.81813 0.50274
 H138 H 0.98442 0.81937 0.52406
 C139 C 0.93055 0.84336 0.50569
 H140 H 0.93017 0.86423 0.52912
 Zn141 Zn 1.01006 0.76214 0.47228
 N142 N 0.96440 0.79231 0.47293
 C143 C 0.98220 0.70311 0.42450
 N144 N 1.01308 0.72789 0.42932
 C145 C 1.04810 0.72430 0.40815
 C146 C 1.05343 0.69410 0.38174
 C147 C 0.98592 0.67313 0.39757
 C148 C 1.07811 0.80189 0.49863
 C149 C 1.10608 0.83215 0.49701
 C150 C 1.08291 0.85184 0.43333
 C151 C 1.05556 0.82127 0.43613
 N152 N 1.05328 0.79740 0.46863
 H153 H 0.95525 0.70557 0.44292
 H154 H 1.07271 0.74342 0.41351
 H155 H 1.08203 0.69042 0.36653
 H156 H 0.96157 0.65276 0.39531
 H157 H 1.07506 0.78319 0.52469
 H158 H 1.12415 0.83620 0.52211
 H159 H 1.08339 0.87132 0.40780
 H160 H 1.03498 0.81735 0.41306
 C161 C 0.90145 0.84209 0.47760
 C162 C 1.01040 0.68071 0.58406
 C163 C 1.10820 0.85800 0.46423
 C164 C 1.02224 0.66796 0.37649
 C165 C 0.45576 -0.03111 0.30613
 H166 H 0.47566 -0.05494 0.30449
 C167 C 0.42554 -0.03068 0.33614
 H168 H 0.42211 -0.05486 0.35679
 C169 C 0.43628 0.02897 0.28049
 H170 H 0.44101 0.05259 0.25935
 C171 C 0.40564 0.03050 0.30985
 H172 H 0.38677 0.05519 0.31065
 N173 N 0.46057 -0.00157 0.27911
 C174 C 0.53180 -0.05030 0.18163
 H175 H 0.55592 -0.02933 0.17993
 C176 C 0.53324 -0.08224 0.15726
 H177 H 0.55845 -0.08473 0.13642
 C178 C 0.46915 -0.07057 0.21002
 H179 H 0.44422 -0.06570 0.23058
 C180 C 0.46869 -0.10236 0.18508
 H181 H 0.44337 -0.12200 0.18702
 Zn182 Zn 0.50409 -0.00243 0.24135
 N183 N 0.50085 -0.04580 0.20838
 C184 C 0.57313 -0.03618 0.26814
 N185 N 0.55057 -0.00439 0.27024
 C186 C 0.55935 0.02496 0.29472
 C187 C 0.59231 0.02324 0.31781
 C188 C 0.60636 -0.03895 0.29037
 C189 C 0.47294 0.04326 0.18351
 C190 C 0.46999 0.07385 0.15659
 C191 C 0.53210 0.09957 0.17729
 C192 C 0.53382 0.06838 0.20402
 N193 N 0.50414 0.04132 0.20697
 H194 H 0.56503 -0.06000 0.24996
 H195 H 0.54057 0.04963 0.29647
 H196 H 0.59895 0.04719 0.33656
 H197 H 0.62380 -0.06460 0.28832
 H198 H 0.45028 0.02080 0.18576
 H199 H 0.44514 0.07416 0.13787
 H200 H 0.55580 0.12104 0.17531
 H201 H 0.55893 0.06576 0.22211
 C202 C 0.50167 -0.10938 0.15927
 C203 C 0.40026 0.00078 0.33853
 C204 C 0.49957 0.10291 0.15363
 C205 C 0.61616 -0.00930 0.31592
 C206 C 0.53662 -0.03776 0.69443
 H207 H 0.51344 -0.05972 0.69599
 C208 C 0.56613 -0.03815 0.66394
 H209 H 0.56570 -0.06077 0.64223
 C210 C 0.56451 0.01897 0.72034
 H211 H 0.56332 0.04155 0.74196
 C212 C 0.59462 0.01976 0.69016
 H213 H 0.61695 0.04247 0.68987
 N214 N 0.53634 -0.00958 0.72190
 C215 C 0.46194 -0.06023 0.82046
 H216 H 0.43853 -0.03971 0.82303
 C217 C 0.46248 -0.09120 0.84754
 H218 H 0.43925 -0.09451 0.87087
 C219 C 0.52145 -0.08010 0.78781
 H220 H 0.54485 -0.07538 0.76504
 C221 C 0.52308 -0.11145 0.81408
 H222 H 0.54715 -0.13103 0.80992
 Zn223 Zn 0.49217 -0.01023 0.75874
 N224 N 0.49134 -0.05512 0.79153
 C225 C 0.41865 -0.03574 0.72822
 N226 N 0.44799 -0.00835 0.72732
 C227 C 0.44906 0.02158 0.70074
 C228 C 0.41952 0.02541 0.67408
 C229 C 0.38831 -0.03304 0.70186
 C230 C 0.52389 0.03758 0.81621
 C231 C 0.52514 0.06857 0.84207
 C232 C 0.46290 0.08902 0.81871
 C233 C 0.46295 0.05781 0.79325
 N234 N 0.49328 0.03297 0.79224
 H235 H 0.41901 -0.05987 0.74891
 H236 H 0.47338 0.04231 0.70000
 H237 H 0.42177 0.04905 0.65265
 H238 H 0.36504 -0.05494 0.70271
 H239 H 0.54743 0.01715 0.81514
 H240 H 0.55033 0.07174 0.86003
 H241 H 0.43835 0.10835 0.81915
 H242 H 0.43839 0.05323 0.77473
 C243 C 0.49383 -0.11677 0.84515
 C244 C 0.59529 -0.00888 0.66111
 C245 C 0.49405 0.09470 0.84380
 C246 C 0.38828 -0.00188 0.67473
 C247 C 0.22845 0.05708 0.50894
 C248 C 0.25287 0.05397 0.54563
 C249 C 0.27654 0.02286 0.54596
 C250 C 0.27331 -0.00255 0.50926
 C251 C 0.25884 0.05639 0.47352
 C252 C 0.28247 0.02524 0.47334
 C253 C 0.20584 0.01870 0.50759
 C254 C 0.22917 -0.01259 0.50752
 H255 H 0.25097 0.07483 0.56905
 H256 H 0.29177 -0.02832 0.51035
 H257 H 0.26136 0.07869 0.45053
 H258 H 0.17399 0.01672 0.50725
 C259 C 0.77524 -0.03946 0.49071
 C260 C 0.74645 -0.04332 0.52743
 C261 C 0.72285 -0.01262 0.53305
 C262 C 0.72962 0.01906 0.50054
 C263 C 0.74883 -0.03242 0.45600
 C264 C 0.72474 -0.00176 0.46110
 C265 C 0.79751 -0.00118 0.49543
 C266 C 0.77372 0.02946 0.50082
 H267 H 0.74504 -0.06824 0.54731
 H268 H 0.71044 0.04427 0.50400
 H269 H 0.74810 -0.05154 0.43106
 H270 H 0.82941 0.00132 0.49347
 C271 C 0.45114 0.27574 0.99167
 C272 C 0.45497 0.24973 0.95538
 C273 C 0.48616 0.22590 0.95545
 C274 C 0.51147 0.23099 0.99165
 C275 C 0.45052 0.24801 1.02771
 C276 C 0.48212 0.22441 1.02780
 C277 C 0.49084 0.29740 0.99182
 C278 C 0.52243 0.27409 0.99175
 H279 H 0.43372 0.24897 0.93256
 H280 H 0.53771 0.21262 0.99197
 H281 H 0.42706 0.24780 1.05082
 H282 H 0.49369 0.32849 0.99008
 C283 C 0.54574 0.71495 0.01106
 C284 C 0.54387 0.74048 -0.02648
 C285 C 0.51246 0.76441 -0.02584
 C286 C 0.48532 0.75993 0.01226
 C287 C 0.54579 0.74129 0.04395
 C288 C 0.51341 0.76673 0.04581
 C289 C 0.50574 0.69363 0.01474
 C290 C 0.47407 0.71691 0.01495
 H291 H 0.56562 0.73920 -0.05114
 H292 H 0.45958 0.77910 0.01291
 H293 H 0.56846 0.74102 0.06527
 H294 H 0.50305 0.66256 0.01693
 C295 C 0.99179 0.45270 0.28621
 C296 C 0.95663 0.45128 0.25942
 C297 C 0.95691 0.48025 0.23173
 C298 C 0.99221 0.50860 0.23339
 C299 C 1.02673 0.45281 0.25913
 C300 C 1.02849 0.48309 0.22973
 C301 C 0.99118 0.49292 0.30411
 C302 C 0.99110 0.52210 0.27659
 H303 H 0.93425 0.42848 0.26128
 H304 H 0.99249 0.53273 0.21127
 H305 H 1.04869 0.43094 0.26077
 H306 H 0.98955 0.49775 0.33590
 C307 C 0.00377 0.55899 0.71278
 C308 C -0.03503 0.55322 0.73791
 C309 C -0.03641 0.52141 0.76218
 C310 C 0.00169 0.49809 0.75907
 C311 C 0.03572 0.55925 0.74309
 C312 C 0.03473 0.52739 0.76751
 C313 C 0.00901 0.52136 0.69052
 C314 C 0.00824 0.48947 0.71464
 H315 H -0.05884 0.57339 0.73757
 H316 H 0.00167 0.47202 0.77852
 H317 H 0.05770 0.58221 0.74375
 H318 H 0.01197 0.52016 0.65834
 C319 C 0.13223 0.14362 0.50923
 C320 C 0.14886 0.12970 0.54148
 C321 C 0.17703 0.09810 0.54017
 C322 C 0.20185 0.09118 0.50883
 H323 H 0.13884 0.13909 0.57077
 H324 H 0.17788 0.08029 0.56685
 H325 H 0.13905 0.13120 0.48043
 H326 H 0.20214 0.10932 0.48231
 C327 C 0.63631 0.62172 0.00701
 C328 C 0.61626 0.63393 0.03975
 C329 C 0.58526 0.66304 0.03960
 C330 C 0.57998 0.68795 0.00953
 H331 H 0.62128 0.62120 0.06851
 H332 H 0.56565 0.66395 0.06611
 H333 H 0.63157 0.63470 -0.02172
 H334 H 0.59991 0.68882 -0.01672
 C335 C 0.86831 -0.13078 0.47864
 C336 C 0.85511 -0.11384 0.51223
 C337 C 0.82509 -0.08377 0.51475
 C338 C 0.80242 -0.07292 0.48536
 H339 H 0.86767 -0.12115 0.54011
 H340 H 0.82197 -0.06925 0.54295
 H341 H 0.85503 -0.12472 0.45084
 H342 H 0.80444 -0.08671 0.45682
 C343 C 0.35482 0.36401 0.99176
 C344 C 0.37611 0.35405 1.02266
 C345 C 0.40780 0.32548 1.02145
 C346 C 0.41636 0.30196 0.99118
 H347 H 0.37129 0.36808 1.05086
 H348 H 0.42546 0.32419 1.04724
 H349 H 0.35865 0.34927 0.96387
 H350 H 0.39923 0.30209 0.96510
 C351 C 0.87238 0.12210 0.54369
 C352 C 0.83966 0.11581 0.52416
 C353 C 0.82240 0.07665 0.52296
 C354 C 0.78873 0.06922 0.50552
 H355 H 0.82646 0.13878 0.50781
 H356 H 0.83826 0.05319 0.53575
 H357 H 0.88351 0.09862 0.56115
 H358 H 0.77150 0.09270 0.49486
 C359 C 0.37777 0.61930 -0.02041
 C360 C 0.38424 0.65097 0.00056
 C361 C 0.42410 0.66884 -0.00174
 C362 C 0.43290 0.70191 0.01583
 H363 H 0.36124 0.66293 0.01982
 H364 H 0.44729 0.65395 -0.01822
 H365 H 0.40156 0.60954 -0.04037
 H366 H 0.40974 0.71856 0.03008
 C367 C 0.13274 -0.10616 0.46290
 C368 C 0.16322 -0.09945 0.48554
 C369 C 0.18154 -0.06065 0.48543
 C370 C 0.21355 -0.05247 0.50537
 H371 H 0.17383 -0.12165 0.50487
 H372 H 0.16787 -0.03791 0.46905
 H373 H 0.12437 -0.08346 0.44272
 H374 H 0.22898 -0.07534 0.51968
 C375 C 0.62802 0.36228 1.02791
 C376 C 0.61376 0.33852 1.00114
 C377 C 0.57465 0.31979 1.00860
 C378 C 0.56348 0.28910 0.98834
 H379 H 0.63007 0.33423 0.97300
 H380 H 0.55404 0.33221 1.03030
 H381 H 0.61267 0.36423 1.05695
 H382 H 0.58465 0.27477 0.96877
 C383 C 0.49774 0.13603 1.12537
 C384 C 0.46340 0.14947 1.11375
 C385 C 0.45954 0.18173 1.08513
 C386 C 0.48807 0.19411 1.05834
 H387 H 0.43593 0.13732 1.12685
 H388 H 0.43048 0.19364 1.08480
 H389 H 0.52524 0.15040 1.11538
 H390 H 0.51626 0.18025 1.05685
 C391 C 0.00776 0.65204 0.61739
 C392 C 0.03914 0.63451 0.63125
 C393 C 0.03673 0.60307 0.66161
 C394 C 0.00475 0.59391 0.68546
 H395 H 0.06844 0.64191 0.61883
 H396 H 0.06293 0.58620 0.66397
 H397 H -0.02150 0.64491 0.63010
 H398 H -0.02152 0.61078 0.68482
 C399 C 0.49544 0.85187 -0.12446
 C400 C 0.52956 0.83647 -0.11468
 C401 C 0.53379 0.80605 -0.08403
 C402 C 0.50530 0.79333 -0.05736
 H403 H 0.55698 0.84678 -0.12949
 H404 H 0.56324 0.79520 -0.08268
 H405 H 0.46798 0.84270 -0.10894
 H406 H 0.47642 0.80574 -0.05664
 C407 C 0.98349 0.35939 0.37831
 C408 C 0.95545 0.38780 0.37298
 C409 C 0.95813 0.41593 0.34251
 C410 C 0.99088 0.42248 0.31573
 H411 H 0.92936 0.38868 0.39276
 H412 H 0.93323 0.43466 0.34053
 H413 H 1.00729 0.35677 0.35590
 H414 H 1.01744 0.40654 0.31908
 C415 C 0.50219 0.85736 0.13604
 C416 C 0.53730 0.84175 0.12034
 C417 C 0.53960 0.81047 0.09497
 C418 C 0.50874 0.79684 0.07270
 H419 H 0.56515 0.85255 0.13025
 H420 H 0.56869 0.79894 0.08994
 H421 H 0.47471 0.84145 0.13319
 H422 H 0.48140 0.81221 0.07305
 C423 C 0.00711 0.38098 0.64590
 C424 C 0.03772 0.40602 0.64692
 C425 C 0.03545 0.44328 0.66700
 C426 C 0.01190 0.45018 0.69924
 H427 H 0.06462 0.40158 0.62911
 H428 H 0.05459 0.46621 0.65421
 H429 H -0.01963 0.38606 0.66395
 H430 H -0.00442 0.42693 0.71499
 C431 C 0.49242 0.12797 0.87093
 C432 C 0.51550 0.13259 0.90171
 C433 C 0.51176 0.16423 0.93052
 C434 C 0.49215 0.19667 0.92448
 H435 H 0.53666 0.11107 0.90844
 H436 H 0.52548 0.15960 0.95836
 H437 H 0.46948 0.14829 0.86622
 H438 H 0.47822 0.20163 0.89682
 C439 C 1.02976 0.63275 0.35372
 C440 C 1.00275 0.61581 0.33209
 C441 C 1.00923 0.57706 0.31662
 C442 C 0.98831 0.56278 0.28763
 H443 H 0.97509 0.62966 0.32740
 H444 H 1.03077 0.55929 0.33025
 H445 H 1.05827 0.61972 0.35588
 H446 H 0.96883 0.58105 0.27178
 C447 C 1.12616 0.49901 0.13662
 C448 C 1.12373 0.47151 0.16783
 C449 C 1.09323 0.46772 0.19752
 C450 C 1.05900 0.48955 0.20025
 H451 H 1.14693 0.45114 0.17045
 H452 H 1.09718 0.44525 0.21937
 H453 H 1.10481 0.52156 0.13667
 H454 H 1.05513 0.51266 0.17907
 C455 C 0.62569 -0.00977 0.62778
 C456 C 0.64704 0.02118 0.61413
 C457 C 0.67613 0.02032 0.57970
 C458 C 0.69375 -0.01177 0.56733
 H459 H 0.64169 0.04906 0.62679
 H460 H 0.68429 0.04772 0.56554
 H461 H 0.62860 -0.03674 0.61248
 H462 H 0.68812 -0.03853 0.58381
 C463 C -0.12419 0.50355 0.86388
 C464 C -0.10870 0.47465 0.84273
 C465 C -0.07625 0.48068 0.81180
 C466 C -0.07040 0.51370 0.79086
 H467 H -0.11748 0.44518 0.85020
 H468 H -0.05751 0.45655 0.80583
 H469 H -0.11224 0.53247 0.85867
 H470 H -0.09152 0.53637 0.79459
 C471 C 0.36804 0.00389 0.36995
 C472 C 0.36739 -0.01467 0.40537
 C473 C 0.33619 -0.01033 0.43750
 C474 C 0.31323 0.02044 0.44088
 H475 H 0.39042 -0.03439 0.41173
 H476 H 0.33378 -0.03307 0.45982
 H477 H 0.34466 0.02327 0.36365
 H478 H 0.31719 0.04386 0.41932
 C479 C 0.12572 0.50912 0.85869
 C480 C 0.11473 0.54303 0.84372
 C481 C 0.08568 0.54823 0.81306
 C482 C 0.06295 0.52022 0.79868
 H483 H 0.12768 0.56939 0.85426
 H484 H 0.08277 0.57757 0.80269
 H485 H 0.11196 0.48256 0.84975
 H486 H 0.06381 0.49117 0.81044
 C487 C 0.65112 -0.01395 0.33987
 C488 C 0.65648 0.00409 0.37402
 C489 C 0.69003 -0.00559 0.39801
 C490 C 0.69388 0.00941 0.43397
 H491 H 0.63516 0.02429 0.38559
 H492 H 0.71098 -0.02602 0.38629
 H493 H 0.67219 -0.03532 0.33025
 H494 H 0.67290 0.03041 0.44463
 C495 C 0.86721 0.49822 0.14146
 C496 C 0.90600 0.49386 0.13398
 C497 C 0.93483 0.49566 0.16509
 C498 C 0.92659 0.48219 0.20221
 H499 H 0.91757 0.49044 0.10361
 H500 H 0.96471 0.50479 0.15585
 H501 H 0.85603 0.50581 0.17102
 H502 H 0.89789 0.46908 0.21018
 C503 C 0.35647 0.00117 0.64653
 C504 C 0.34523 0.03537 0.63270
 C505 C 0.31512 0.04096 0.60340
 C506 C 0.30420 0.01448 0.57737
 H507 H 0.35771 0.06150 0.64431
 H508 H 0.30421 0.06982 0.60158
 H509 H 0.34143 -0.02501 0.63821
 H510 H 0.31760 -0.01342 0.57717
   
