data_POSCAR
  _audit_creation_date              2014-09-24
  _audit_creation_method            'ToBaCCo'
  _symmetry_space_group_name_H-M    'P1'
  _symmetry_Int_Tables_number       1
  _symmetry_cell_setting            triclinic
  loop_
  _symmetry_equiv_pos_as_xyz
 x,y,z
_cell_length_a 28.1337
_cell_length_b 27.5993
_cell_length_c 69.7094
_cell_angle_alpha 87.798600
_cell_angle_beta 90.792100
_cell_angle_gamma 121.099100
loop_
  _atom_site_label
  _atom_site_type_symbol
  _atom_site_fract_x
  _atom_site_fract_y
  _atom_site_fract_z
C1 C 0.02056 0.10378 0.52246
 H2 H 0.05947 0.10532 0.52148
 C3 C 0.01802 0.14462 0.53274
 H4 H 0.05528 0.17726 0.53946
 C5 C -0.07571 0.05764 0.51598
 H6 H -0.11233 0.02310 0.50970
 C7 C -0.08026 0.09752 0.52638
 H8 H -0.12029 0.09383 0.52778
 N9 N -0.02567 0.06157 0.51416
 C10 C 0.02079 -0.06596 0.51346
 H11 H 0.03132 -0.06471 0.49851
 C12 C 0.02395 -0.10404 0.52649
 H13 H 0.03708 -0.13194 0.52143
 C14 C -0.01367 -0.03444 0.53785
 H15 H -0.03001 -0.00859 0.54212
 C16 C -0.01081 -0.07144 0.55132
 H17 H -0.02372 -0.07254 0.56598
 Zn18 Zn -0.01728 0.00719 0.50101
 N19 N 0.00067 -0.03337 0.51924
 C20 C 0.09443 0.07693 0.48871
 N21 N 0.04111 0.04587 0.48254
 C22 C 0.02891 0.04545 0.46357
 C23 C 0.07022 0.08056 0.45027
 C24 C 0.13702 0.11309 0.47592
 C25 C -0.10977 -0.02702 0.47606
 C26 C -0.15529 -0.06561 0.46536
 C27 C -0.15031 -0.14155 0.48157
 C28 C -0.10526 -0.10147 0.49196
 N29 N -0.08459 -0.04529 0.48864
 H30 H 0.10386 0.07479 0.50368
 H31 H -0.01309 0.01928 0.45868
 H32 H 0.05923 0.08036 0.43532
 H33 H 0.17855 0.13971 0.48137
 H34 H -0.09361 0.01791 0.47398
 H35 H -0.17394 -0.04808 0.45600
 H36 H -0.16115 -0.18489 0.48408
 H37 H -0.08555 -0.11572 0.50219
 C38 C 0.00635 -0.10829 0.54558
 C39 C -0.03280 0.14185 0.53484
 C40 C -0.17594 -0.12465 0.46734
 C41 C 0.12481 0.11656 0.45648
 C42 C 1.11216 0.04175 0.13696
 H43 H 1.11373 0.08176 0.13682
 C44 C 1.14954 0.03601 0.12585
 H45 H 1.17934 0.07166 0.11693
 C46 C 1.07111 -0.05318 0.14888
 H47 H 1.04100 -0.08737 0.15816
 C48 C 1.10771 -0.06093 0.13782
 H49 H 1.10550 -0.10131 0.13860
 N50 N 1.07407 -0.00235 0.14820
 C51 C 0.94498 0.03793 0.15610
 H52 H 0.94666 0.04374 0.17141
 C53 C 0.90356 0.03914 0.14514
 H54 H 0.87364 0.04632 0.15207
 C55 C 0.97955 0.01755 0.12868
 H56 H 1.00812 0.00751 0.12236
 C57 C 0.93874 0.01804 0.11724
 H58 H 0.93726 0.00972 0.10212
 Zn59 Zn 1.03027 0.01489 0.16352
 N60 N 0.98168 0.02689 0.14777
 C61 C 1.07810 0.12767 0.17756
 N62 N 1.08086 0.07996 0.17690
 C63 C 1.12197 0.07607 0.18590
 C64 C 1.16209 0.12081 0.19634
 C65 C 1.11731 0.17351 0.18808
 C66 C 0.94317 -0.09414 0.17493
 C67 C 0.90338 -0.13456 0.18776
 C68 C 0.95252 -0.07255 0.21370
 C69 C 0.99121 -0.03348 0.20045
 N70 N 0.98541 -0.04435 0.18142
 H71 H 1.04551 0.13015 0.17006
 H72 H 1.12318 0.03765 0.18508
 H73 H 1.19382 0.11631 0.20370
 H74 H 1.11464 0.21119 0.18865
 H75 H 0.93887 -0.10121 0.15968
 H76 H 0.86862 -0.17287 0.18229
 H77 H 0.95717 -0.06249 0.22873
 H78 H 1.02431 0.00662 0.20535
 C79 C 0.89949 0.02795 0.12552
 C80 C 1.14796 -0.01565 0.12628
 C81 C 0.90704 -0.12314 0.20736
 C82 C 1.15999 0.17025 0.19760
 C83 C 0.04958 0.95100 0.86525
 H84 H 0.00786 0.91493 0.86695
 C85 C 0.09211 0.95419 0.87656
 H86 H 0.08248 0.92076 0.88723
 C87 C 0.11212 1.03814 0.84910
 H88 H 0.11958 1.06998 0.83807
 C89 C 0.15631 1.04295 0.86014
 H90 H 0.19779 1.07876 0.85754
 N91 N 0.06018 0.99228 0.85178
 C92 C -0.11280 0.94329 0.84618
 H93 H -0.12350 0.92520 0.83217
 C94 C -0.15355 0.94300 0.85755
 H95 H -0.19532 0.92395 0.85201
 C96 C -0.04417 0.99474 0.86929
 H97 H -0.00125 1.01584 0.87368
 C98 C -0.08288 0.99747 0.88072
 H99 H -0.06900 1.01871 0.89418
 Zn100 Zn -0.00165 0.97608 0.83644
 N101 N -0.05951 0.96794 0.85238
 C102 C -0.06824 0.85929 0.82495
 N103 N -0.01904 0.90944 0.82369
 C104 C 0.02410 0.91511 0.81324
 C105 C 0.01838 0.87016 0.80297
 C106 C -0.07599 0.81310 0.81468
 C107 C 0.02706 1.08640 0.82451
 C108 C 0.02862 1.12757 0.81174
 C109 C 0.00452 1.06256 0.78607
 C110 C 0.00319 1.02269 0.79929
 N111 N 0.01351 1.03482 0.81816
 H112 H -0.10137 0.85474 0.83391
 H113 H 0.06302 0.95519 0.81272
 H114 H 0.05292 0.87624 0.79436
 H115 H -0.11542 0.77354 0.81562
 H116 H 0.03400 1.09455 0.83965
 H117 H 0.03692 1.16740 0.81718
 H118 H -0.00490 1.05160 0.77118
 H119 H -0.00883 0.98112 0.79455
 C120 C -0.13878 0.97147 0.87500
 C121 C 0.14656 0.99999 0.87386
 C122 C 0.01577 1.11521 0.79232
 C123 C -0.03225 0.81843 0.80349
 C124 C 0.37432 0.01192 0.00963
 C125 C 0.37599 0.01608 -0.01003
 C126 C 0.41796 0.00741 -0.01577
 N127 N 0.44153 -0.00244 -0.00025
 C128 C 0.41513 0.00059 0.01530
 C129 C 0.43077 0.00448 -0.03509
 C130 C 0.47517 -0.00217 -0.04078
 C131 C 0.48270 -0.01447 -0.05919
 C132 C 0.53073 -0.01600 -0.05903
 C133 C 0.55157 -0.00450 -0.04052
 N134 N 0.51783 0.00482 -0.02960
 C135 C 0.60223 0.00024 -0.03461
 C136 C 0.62069 0.00709 -0.01533
 C137 C 0.67274 0.01838 -0.00954
 C138 C 0.67348 0.01987 0.01007
 C139 C 0.62144 0.00803 0.01578
 N140 N 0.58924 0.00011 0.00023
 C141 C 0.60368 0.00119 0.03512
 C142 C 0.55090 -0.00939 0.04067
 C143 C 0.52751 -0.02941 0.05876
 C144 C 0.47694 -0.03295 0.05853
 C145 C 0.47089 -0.01469 0.04034
 N146 N 0.51639 -0.00002 0.02959
 C147 C 0.42517 -0.00968 0.03453
 H148 H 0.34592 0.01629 0.01870
 H149 H 0.34876 0.02380 -0.01903
 H150 H 0.52608 0.02087 0.01624
 H151 H 0.45666 -0.02121 -0.07157
 H152 H 0.54855 -0.02377 -0.07133
 H153 H 0.70687 0.02465 -0.01838
 H154 H 0.70825 0.02781 0.01907
 H155 H 0.44800 -0.04718 0.07046
 H156 H 0.52617 0.02047 -0.01592
 H157 H 0.54492 -0.04062 0.07085
 C158 C -0.00096 0.64844 0.66436
 C159 C -0.00435 0.64084 0.68395
 C160 C -0.01870 0.58528 0.68791
 N161 N -0.02472 0.55856 0.67141
 C162 C -0.01378 0.59714 0.65699
 C163 C -0.02902 0.55943 0.70649
 C164 C -0.03414 0.50635 0.71056
 C165 C -0.05203 0.47632 0.72798
 C166 C -0.04811 0.42893 0.72654
 C167 C -0.02819 0.43117 0.70824
 N168 N -0.01934 0.47870 0.69866
 C169 C -0.01667 0.39099 0.70114
 C170 C -0.00960 0.38624 0.68140
 C171 C 0.00635 0.35074 0.67405
 C172 C 0.00400 0.35523 0.65445
 C173 C -0.01293 0.39360 0.65046
 N174 N -0.02146 0.41232 0.66695
 C175 C -0.02316 0.40823 0.63187
 C176 C -0.03060 0.45450 0.62783
 C177 C -0.04882 0.46494 0.61044
 C178 C -0.04704 0.51541 0.61188
 C179 C -0.02819 0.53419 0.63016
 N180 N -0.01784 0.49710 0.63973
 C181 C -0.01905 0.58558 0.63725
 H182 H 0.00917 0.68716 0.65645
 H183 H 0.00285 0.67257 0.69413
 H184 H 0.00245 0.50370 0.65279
 H185 H -0.06606 0.48758 0.74051
 H186 H -0.05878 0.39648 0.73769
 H187 H 0.01800 0.32399 0.68198
 H188 H 0.01366 0.33279 0.64430
 H189 H -0.05846 0.53587 0.60074
 H190 H 0.00117 0.49424 0.68557
 H191 H -0.06167 0.43912 0.59793
 C192 C 0.65877 0.65108 0.34731
 C193 C 0.66574 0.65351 0.32779
 C194 C 0.61375 0.61778 0.32019
 N195 N 0.57535 0.59354 0.33439
 C196 C 0.60281 0.61375 0.35099
 C197 C 0.60169 0.61113 0.30039
 C198 C 0.54951 0.56963 0.29333
 C199 C 0.53080 0.56988 0.27484
 C200 C 0.47979 0.52108 0.27346
 C201 C 0.46892 0.49225 0.29111
 N202 N 0.51168 0.52212 0.30313
 C203 C 0.42226 0.43793 0.29527
 C204 C 0.40743 0.41381 0.31406
 C205 C 0.36850 0.35756 0.31849
 C206 C 0.36446 0.35208 0.33813
 C207 C 0.40077 0.40528 0.34503
 N208 N 0.42687 0.44297 0.33029
 C209 C 0.40661 0.41915 0.36455
 C210 C 0.44711 0.47282 0.37107
 C211 C 0.44528 0.49387 0.38860
 C212 C 0.49318 0.54593 0.38981
 C213 C 0.52331 0.55485 0.37310
 N214 N 0.49483 0.51004 0.36175
 C215 C 0.57738 0.60153 0.36930
 H216 H 0.69123 0.67416 0.35762
 H217 H 0.70459 0.67901 0.32009
 H218 H 0.50980 0.50217 0.34944
 H219 H 0.55179 0.60180 0.26351
 H220 H 0.45397 0.50801 0.26081
 H221 H 0.34546 0.32394 0.30860
 H222 H 0.33748 0.31345 0.34636
 H223 H 0.50473 0.57366 0.40177
 H224 H 0.51776 0.50794 0.31644
 H225 H 0.41275 0.47383 0.39937
 C226 C -0.03293 0.26328 0.57182
 C227 C -0.07597 0.20565 0.57325
 C228 C -0.07737 0.16665 0.56052
 C229 C -0.03577 0.18399 0.54653
 C230 C 0.00568 0.24139 0.54472
 C231 C 0.00706 0.28061 0.55710
 C232 C -0.03081 0.30282 0.58646
 C233 C 0.01133 0.36052 0.58667
 C234 C 0.01312 0.39478 0.60122
 C235 C -0.02704 0.37250 0.61582
 C236 C -0.06995 0.31569 0.61554
 C237 C -0.07203 0.28070 0.60105
 C238 C -0.11633 0.18691 0.58774
 C239 C -0.11440 0.22362 0.60133
 H240 H -0.14944 0.14290 0.58879
 H241 H -0.14611 0.20681 0.61244
 H242 H -0.10934 0.12227 0.56210
 H243 H 0.03776 0.25588 0.53383
 H244 H 0.04646 0.43867 0.60129
 H245 H -0.10111 0.29862 0.62685
 H246 H 0.04041 0.32395 0.55511
 H247 H 0.04373 0.37990 0.57593
 C248 C 0.77495 0.76753 0.24703
 C249 C 0.79430 0.74407 0.23367
 C250 C 0.83716 0.77969 0.22067
 C251 C 0.86179 0.83870 0.22097
 C252 C 0.84260 0.86169 0.23427
 C253 C 0.79988 0.82680 0.24711
 C254 C 0.72920 0.72823 0.26067
 C255 C 0.70623 0.74737 0.27417
 C256 C 0.66455 0.70922 0.28684
 C257 C 0.64485 0.65120 0.28643
 C258 C 0.66644 0.63138 0.27284
 C259 C 0.70829 0.66936 0.25995
 C260 C 0.77117 0.68534 0.23351
 C261 C 0.72933 0.64883 0.24643
 H262 H 0.78597 0.66730 0.22332
 H263 H 0.71317 0.60377 0.24582
 H264 H 0.85202 0.76158 0.21053
 H265 H 0.86027 0.90704 0.23459
 H266 H 0.64774 0.72501 0.29712
 H267 H 0.65087 0.58636 0.27246
 H268 H 0.78725 0.84725 0.25697
 H269 H 0.71973 0.79149 0.27524
 C270 C 0.27355 -0.00065 -0.09093
 C271 C 0.27535 0.05087 -0.09521
 C272 C 0.23480 0.05144 -0.10711
 C273 C 0.19241 0.00121 -0.11491
 C274 C 0.19266 -0.04907 -0.11141
 C275 C 0.23252 -0.05012 -0.09963
 C276 C 0.31502 -0.00040 -0.07714
 C277 C 0.31354 -0.05028 -0.07074
 C278 C 0.35165 -0.04819 -0.05730
 C279 C 0.39245 0.00353 -0.05010
 C280 C 0.39492 0.05358 -0.05643
 C281 C 0.35604 0.05191 -0.06968
 C282 C 0.31714 0.10123 -0.08739
 C283 C 0.35697 0.10183 -0.07508
 H284 H 0.31896 0.14081 -0.09079
 H285 H 0.38829 0.14186 -0.06935
 H286 H 0.23525 0.09062 -0.10980
 H287 H 0.16156 -0.08807 -0.11776
 H288 H 0.34907 -0.08717 -0.05234
 H289 H 0.42618 0.09348 -0.05059
 H290 H 0.23017 -0.09019 -0.09749
 H291 H 0.28268 -0.09146 -0.07559
 C292 C -0.01037 0.75837 0.58466
 C293 C 0.03647 0.78750 0.57232
 C294 C 0.04205 0.83110 0.55964
 C295 C 0.00156 0.84639 0.55909
 C296 C -0.04489 0.81711 0.57128
 C297 C -0.05084 0.77388 0.58388
 C298 C -0.01470 0.71242 0.59807
 C299 C -0.05951 0.68127 0.61099
 C300 C -0.06103 0.63975 0.62347
 C301 C -0.01810 0.62824 0.62338
 C302 C 0.02623 0.65807 0.61043
 C303 C 0.02837 0.70017 0.59784
 C304 C 0.07745 0.77305 0.57273
 C305 C 0.07348 0.73033 0.58521
 H306 H 0.11329 0.79523 0.56329
 H307 H 0.10641 0.72094 0.58502
 H308 H 0.07825 0.85356 0.55036
 H309 H -0.07745 0.82703 0.57086
 H310 H -0.09562 0.61674 0.63337
 H311 H 0.05940 0.64897 0.61041
 H312 H -0.08757 0.75316 0.59280
 H313 H -0.09362 0.68841 0.61182
 C314 C 0.27954 0.29653 0.23484
 C315 C 0.22324 0.28164 0.23539
 C316 C 0.18486 0.24250 0.22256
 C317 C 0.20152 0.21698 0.20935
 C318 C 0.25762 0.23325 0.20839
 C319 C 0.29622 0.27261 0.22088
 C320 C 0.31843 0.33556 0.24959
 C321 C 0.37479 0.35148 0.25065
 C322 C 0.40849 0.38544 0.26529
 C323 C 0.38699 0.40449 0.27913
 C324 C 0.33151 0.39026 0.27799
 C325 C 0.29709 0.35586 0.26340
 C326 C 0.20521 0.30452 0.24911
 C327 C 0.24134 0.34082 0.26281
 H328 H 0.16222 0.29340 0.24949
 H329 H 0.22512 0.35667 0.27331
 H330 H 0.14148 0.22986 0.22347
 H331 H 0.27157 0.21475 0.19809
 H332 H 0.45134 0.39621 0.26603
 H333 H 0.31505 0.40527 0.28871
 H334 H 0.33854 0.28275 0.21956
 H335 H 0.39354 0.33763 0.24054
 C336 C 0.74402 -0.01931 -0.08968
 C337 C 0.79900 0.02707 -0.09153
 C338 C 0.83753 0.02335 -0.10297
 C339 C 0.82173 -0.02499 -0.11369
 C340 C 0.76573 -0.06917 -0.11289
 C341 C 0.72766 -0.06677 -0.10088
 C342 C 0.70550 -0.01532 -0.07607
 C343 C 0.65317 -0.06213 -0.07077
 C344 C 0.61981 -0.05675 -0.05740
 C345 C 0.63715 -0.00441 -0.04940
 C346 C 0.68869 0.04266 -0.05478
 C347 C 0.72374 0.03707 -0.06746
 C348 C 0.81500 0.07735 -0.08223
 C349 C 0.77769 0.08275 -0.07089
 H350 H 0.85686 0.11337 -0.08394
 H351 H 0.79191 0.12270 -0.06415
 H352 H 0.87941 0.05959 -0.10417
 H353 H 0.75152 -0.10725 -0.12078
 H354 H 0.58036 -0.09363 -0.05318
 H355 H 0.70239 0.08295 -0.04836
 H356 H 0.68556 -0.10231 -0.10064
 H357 H 0.63812 -0.10352 -0.07633
 C358 C 0.26463 -0.02654 0.08994
 C359 C 0.28234 0.02032 0.10175
 C360 C 0.24440 0.02246 0.11400
 C361 C 0.18853 -0.02134 0.11470
 C362 C 0.17143 -0.06880 0.10359
 C363 C 0.20889 -0.07148 0.09135
 C364 C 0.30579 -0.02532 0.07615
 C365 C 0.29185 -0.06840 0.06307
 C366 C 0.33099 -0.06373 0.04985
 C367 C 0.38484 -0.01629 0.04942
 C368 C 0.39974 0.02612 0.06261
 C369 C 0.36065 0.02220 0.07585
 C370 C 0.33750 0.06537 0.10103
 C371 C 0.37586 0.06619 0.08841
 H372 H 0.35109 0.10099 0.11020
 H373 H 0.41786 0.10240 0.08822
 H374 H 0.25822 0.05880 0.12286
 H375 H 0.12851 -0.10311 0.10390
 H376 H 0.31909 -0.09681 0.03970
 H377 H 0.44147 0.06287 0.06218
 H378 H 0.19314 -0.10861 0.08291
 H379 H 0.25084 -0.10550 0.06258
 C380 C 0.70771 0.75494 0.42940
 C381 C 0.73172 0.81340 0.42512
 C382 C 0.76898 0.85338 0.43801
 C383 C 0.78325 0.83664 0.45563
 C384 C 0.75478 0.77767 0.46019
 C385 C 0.71823 0.73789 0.44737
 C386 C 0.67217 0.71376 0.41455
 C387 C 0.65165 0.65513 0.41655
 C388 C 0.62063 0.61887 0.40195
 C389 C 0.60877 0.63996 0.38513
 C390 C 0.62851 0.69809 0.38306
 C391 C 0.66097 0.73515 0.39741
 C392 C 0.71910 0.83184 0.40783
 C393 C 0.68373 0.79351 0.39443
 H394 H 0.73689 0.87666 0.40457
 H395 H 0.67534 0.80996 0.38128
 H396 H 0.78894 0.89731 0.43329
 H397 H 0.75875 0.76082 0.47395
 H398 H 0.60633 0.57420 0.40366
 H399 H 0.61971 0.71454 0.36998
 H400 H 0.69833 0.69383 0.45190
 H401 H 0.66021 0.63664 0.42903
 C402 C -0.00409 0.22910 0.75344
 C403 C 0.04067 0.25067 0.76652
 C404 C 0.04718 0.21356 0.77916
 C405 C 0.00984 0.15488 0.77890
 C406 C -0.03446 0.13380 0.76594
 C407 C -0.04139 0.17018 0.75339
 C408 C -0.00953 0.26994 0.74013
 C409 C -0.05280 0.25264 0.72668
 C410 C -0.05532 0.29213 0.71430
 C411 C -0.01490 0.34969 0.71497
 C412 C 0.02772 0.36775 0.72850
 C413 C 0.03076 0.32836 0.74105
 C414 C 0.07877 0.30904 0.76683
 C415 C 0.07398 0.34702 0.75435
 H416 H 0.11304 0.32564 0.77683
 H417 H 0.10474 0.39173 0.75509
 H418 H 0.08176 0.23029 0.78904
 H419 H -0.06457 0.08884 0.76568
 H420 H -0.08867 0.27775 0.70398
 H421 H 0.05889 0.41243 0.72902
 H422 H -0.07629 0.15113 0.74381
 H423 H -0.08495 0.20892 0.72538
 C424 C 0.76652 0.01666 0.09056
 C425 C 0.78161 -0.02487 0.08977
 C426 C 0.82460 -0.02094 0.10132
 C427 C 0.85314 0.02377 0.11383
 C428 C 0.83726 0.06407 0.11502
 C429 C 0.79461 0.06075 0.10351
 C430 C 0.72194 0.01212 0.07732
 C431 C 0.70542 0.05251 0.07629
 C432 C 0.66593 0.04794 0.06293
 C433 C 0.64185 0.00300 0.05041
 C434 C 0.65623 -0.03858 0.05176
 C435 C 0.69645 -0.03402 0.06490
 C436 C 0.75409 -0.06989 0.07737
 C437 C 0.71227 -0.07450 0.06527
 H438 H 0.76540 -0.10188 0.07689
 H439 H 0.69267 -0.10983 0.05579
 H440 H 0.83580 -0.05299 0.10062
 H441 H 0.85867 0.09891 0.12459
 H442 H 0.65499 0.08027 0.06205
 H443 H 0.63730 -0.07347 0.04208
 H444 H 0.78463 0.09328 0.10490
 H445 H 0.72323 0.08848 0.08536
 C446 C 0.24997 0.24473 0.41822
 C447 C 0.19393 0.23024 0.41681
 C448 C 0.15362 0.18827 0.42921
 C449 C 0.16777 0.15945 0.44300
 C450 C 0.22319 0.17321 0.44416
 C451 C 0.26379 0.21522 0.43197
 C452 C 0.29189 0.29064 0.40490
 C453 C 0.34906 0.30975 0.40553
 C454 C 0.38617 0.35204 0.39260
 C455 C 0.36722 0.37608 0.37876
 C456 C 0.31079 0.35839 0.37819
 C457 C 0.27311 0.31610 0.39115
 C458 C 0.17828 0.25763 0.40306
 C459 C 0.21693 0.29932 0.39041
 H460 H 0.13532 0.24640 0.40196
 H461 H 0.20262 0.31891 0.37993
 H462 H 0.11118 0.17883 0.42834
 H463 H 0.23523 0.15117 0.45446
 H464 H 0.42981 0.36564 0.39322
 H465 H 0.29636 0.37749 0.36754
 H466 H 0.30557 0.22372 0.43351
 H467 H 0.36597 0.29265 0.41584
 C468 C -0.04551 0.69208 0.76576
 C469 C 0.00071 0.72016 0.77805
 C470 C 0.00347 0.75934 0.79093
 C471 C -0.03913 0.77146 0.79180
 C472 C -0.08620 0.74152 0.78036
 C473 C -0.08950 0.70227 0.76750
 C474 C -0.04456 0.65426 0.75106
 C475 C -0.08657 0.62751 0.73725
 C476 C -0.08192 0.59574 0.72310
 C477 C -0.03567 0.58951 0.72246
 C478 C 0.00562 0.61440 0.73637
 C479 C 0.00183 0.64713 0.75052
 C480 C 0.04459 0.71014 0.77708
 C481 C 0.04498 0.67416 0.76369
 H482 H 0.07969 0.73121 0.78663
 H483 H 0.08033 0.66851 0.76333
 H484 H 0.03952 0.78152 0.80003
 H485 H -0.11960 0.75014 0.78079
 H486 H -0.11407 0.57666 0.71237
 H487 H 0.04154 0.60972 0.73573
 H488 H -0.12625 0.68137 0.75881
 H489 H -0.12268 0.63156 0.73685
   
