data_POSCAR
  _audit_creation_date              2014-09-24
  _audit_creation_method            'ToBaCCo'
  _symmetry_space_group_name_H-M    'P1'
  _symmetry_Int_Tables_number       1
  _symmetry_cell_setting            triclinic
  loop_
  _symmetry_equiv_pos_as_xyz
 x,y,z
_cell_length_a 51.0281
_cell_length_b 51.2081
_cell_length_c 35.2491
_cell_angle_alpha 89.683700
_cell_angle_beta 90.283900
_cell_angle_gamma 119.959100
loop_
  _atom_site_label
  _atom_site_type_symbol
  _atom_site_fract_x
  _atom_site_fract_y
  _atom_site_fract_z
C1 C 0.06564 0.54822 0.08241
 C2 C 0.06501 0.52118 0.08098
 C3 C 0.04622 0.50528 0.05097
 N4 N 0.03539 0.52170 0.03396
 C5 C 0.04720 0.54795 0.05321
 C6 C 0.04170 0.47741 0.03757
 C7 C 0.02017 0.46032 0.00951
 C8 C 0.02040 0.43767 -0.01148
 C9 C -0.00427 0.42650 -0.03527
 C10 C -0.01934 0.44219 -0.02756
 N11 N -0.00419 0.46282 -0.00017
 C12 C -0.04646 0.43721 -0.04544
 C13 C -0.05698 0.45811 -0.04234
 C14 C -0.08620 0.45164 -0.05061
 C15 C -0.08643 0.47814 -0.04811
 C16 C -0.05753 0.50007 -0.03720
 N17 N -0.03954 0.48768 -0.03382
 C18 C -0.04704 0.53148 -0.03518
 C19 C -0.01859 0.55221 -0.01923
 C20 C -0.00493 0.58343 -0.02115
 C21 C 0.02057 0.59497 0.00127
 C22 C 0.02169 0.57056 0.01653
 N23 N -0.00231 0.54467 0.00416
 C24 C 0.04342 0.57260 0.04309
 H25 H 0.07853 0.56619 0.10235
 H26 H 0.07741 0.51424 0.09952
 H27 H -0.00917 0.52322 0.01471
 H28 H 0.03694 0.43033 -0.01027
 H29 H -0.01014 0.40903 -0.05616
 H30 H -0.10536 0.43009 -0.05836
 H31 H -0.10578 0.48066 -0.05450
 H32 H 0.03614 0.61863 0.00636
 H33 H -0.01144 0.47602 0.01354
 H34 H -0.01283 0.59667 -0.03617
 C35 C 0.52474 0.46086 -0.08864
 C36 C 0.55100 0.48799 -0.08701
 C37 C 0.54868 0.50293 -0.05569
 N38 N 0.52195 0.48571 -0.03788
 C39 C 0.50729 0.45982 -0.05793
 C40 C 0.57211 0.53098 -0.04256
 C41 C 0.56797 0.54797 -0.01439
 C42 C 0.59108 0.57205 0.00484
 C43 C 0.57755 0.58309 0.02854
 C44 C 0.54658 0.56559 0.02279
 N45 N 0.54099 0.54439 -0.00364
 C46 C 0.52449 0.57025 0.04057
 C47 C 0.49314 0.54916 0.03900
 C48 C 0.47066 0.55467 0.05157
 C49 C 0.44392 0.52800 0.04877
 C50 C 0.45082 0.50706 0.03420
 N51 N 0.48095 0.52002 0.02837
 C52 C 0.42993 0.47594 0.03037
 C53 C 0.43691 0.45548 0.01263
 C54 C 0.41975 0.42438 0.01575
 C55 C 0.43358 0.41271 -0.00625
 C56 C 0.45856 0.43697 -0.02287
 N57 N 0.46032 0.46297 -0.01127
 C58 C 0.47885 0.43465 -0.04818
 H59 H 0.51912 0.44382 -0.11011
 H60 H 0.56971 0.49582 -0.10663
 H61 H 0.47498 0.48444 -0.02173
 H62 H 0.61516 0.58073 0.00208
 H63 H 0.58923 0.60195 0.04767
 H64 H 0.47329 0.57561 0.06231
 H65 H 0.42202 0.52441 0.05729
 H66 H 0.42613 0.38900 -0.00933
 H67 H 0.52030 0.53028 -0.01652
 H68 H 0.39949 0.41138 0.03240
 C69 C 0.55493 1.08877 -0.04745
 C70 C 0.52803 1.08840 -0.04493
 C71 C 0.50682 1.05981 -0.03256
 N72 N 0.51983 1.04251 -0.02807
 C73 C 0.54927 1.06014 -0.03754
 C74 C 0.47554 1.04934 -0.02912
 C75 C 0.45528 1.02205 -0.01086
 C76 C 0.42400 1.00825 -0.01240
 C77 C 0.41286 0.98333 0.01092
 C78 C 0.43768 0.98275 0.02616
 N79 N 0.46340 1.00659 0.01304
 C80 C 0.43614 0.96136 0.05282
 C81 C 0.46125 0.95820 0.06291
 C82 C 0.46138 0.94012 0.09222
 C83 C 0.48872 0.94119 0.09069
 C84 C 0.50441 0.95988 0.06047
 N85 N 0.48756 0.97023 0.04347
 C86 C 0.53237 0.96448 0.04680
 C87 C 0.54920 0.98553 0.01813
 C88 C 0.57211 0.98535 -0.00254
 C89 C 0.58282 1.00938 -0.02723
 C90 C 0.56658 1.02402 -0.02045
 N91 N 0.54613 1.00928 0.00738
 C92 C 0.57078 1.05029 -0.03974
 H93 H 0.57624 1.10794 -0.05604
 H94 H 0.52460 1.10709 -0.05175
 H95 H 0.53262 1.01643 0.02056
 H96 H 0.41056 1.01548 -0.02834
 H97 H 0.38921 0.96759 0.01628
 H98 H 0.44347 0.92715 0.11228
 H99 H 0.49595 0.92905 0.10923
 H100 H 0.60033 1.01507 -0.04814
 H101 H 0.48518 1.01375 0.02284
 H102 H 0.57991 0.96923 -0.00054
 C103 C 1.08641 0.53127 0.44754
 C104 C 1.08655 0.55792 0.45068
 C105 C 1.05782 0.55091 0.46247
 N106 N 1.04003 0.52060 0.46580
 C107 C 1.05741 0.50854 0.45640
 C108 C 1.04724 0.57177 0.46532
 C109 C 1.01882 0.56385 0.48148
 C110 C 1.00478 0.58113 0.47979
 C111 C 0.97942 0.56697 0.50223
 C112 C 0.97880 0.54164 0.51739
 N113 N 1.00294 0.54003 0.50481
 C114 C 0.95739 0.52192 0.54406
 C115 C 0.95435 0.49385 0.55445
 C116 C 0.93646 0.47585 0.58393
 C117 C 0.93778 0.44978 0.58282
 C118 C 0.95645 0.45273 0.55270
 N119 N 0.96649 0.47964 0.53532
 C120 C 0.96140 0.42959 0.53946
 C121 C 0.98217 0.43389 0.51051
 C122 C 0.98173 0.41095 0.48942
 C123 C 1.00564 0.42437 0.46462
 C124 C 1.02054 0.45513 0.47191
 N125 N 1.00597 0.46069 0.49997
 C126 C 1.04703 0.47721 0.45309
 H127 H 1.10546 0.52890 0.43901
 H128 H 1.10568 0.57975 0.44407
 H129 H 1.01332 0.48120 0.51354
 H130 H 1.01231 0.60219 0.46487
 H131 H 0.96363 0.57483 0.50745
 H132 H 0.92348 0.48080 0.60387
 H133 H 0.92585 0.43061 0.60158
 H134 H 1.01113 0.41268 0.44341
 H135 H 1.01019 0.52567 0.51520
 H136 H 0.96552 0.38709 0.49120
 C137 C 0.44081 0.52314 0.44024
 C138 C 0.46778 0.54967 0.43925
 C139 C 0.48959 0.54345 0.45301
 N140 N 0.47674 0.51400 0.46261
 C141 C 0.44685 0.50153 0.45502
 C142 C 0.52103 0.56432 0.45336
 C143 C 0.54251 0.55892 0.47194
 C144 C 0.57361 0.57640 0.46762
 C145 C 0.58642 0.56432 0.49124
 C146 C 0.56278 0.53972 0.50914
 N147 N 0.53614 0.53681 0.49759
 C148 C 0.56628 0.52136 0.53640
 C149 C 0.54240 0.49303 0.54829
 C150 C 0.54435 0.47616 0.57793
 C151 C 0.51757 0.44940 0.57841
 C152 C 0.50007 0.45077 0.54911
 N153 N 0.51533 0.47743 0.53063
 C154 C 0.47139 0.42675 0.53844
 C155 C 0.45202 0.42973 0.51221
 C156 C 0.42614 0.40588 0.49674
 C157 C 0.41308 0.41822 0.47403
 C158 C 0.43142 0.44928 0.47613
 N159 N 0.45486 0.45607 0.49986
 C160 C 0.42540 0.47044 0.45799
 H161 H 0.41935 0.52014 0.43051
 H162 H 0.47101 0.57102 0.42891
 H163 H 0.47008 0.47733 0.51015
 H164 H 0.58584 0.59583 0.44936
 H165 H 0.61039 0.57262 0.49470
 H166 H 0.56323 0.48236 0.59701
 H167 H 0.51175 0.43093 0.59796
 H168 H 0.39232 0.40569 0.45804
 H169 H 0.51508 0.52243 0.50930
 H170 H 0.41745 0.38206 0.50152
 C171 C 0.45072 -0.07259 0.43071
 C172 C 0.47748 -0.07250 0.42992
 C173 C 0.49370 -0.05680 0.46172
 N174 N 0.47775 -0.04697 0.48182
 C175 C 0.45127 -0.05690 0.46294
 C176 C 0.52248 -0.05260 0.47192
 C177 C 0.54227 -0.02942 0.49685
 C178 C 0.56789 -0.02738 0.51358
 C179 C 0.58111 -0.00139 0.53468
 C180 C 0.56298 0.01155 0.53077
 N181 N 0.53951 -0.00553 0.50741
 C182 C 0.56924 0.03919 0.54726
 C183 C 0.54792 0.04910 0.54982
 C184 C 0.55414 0.07668 0.56450
 C185 C 0.52728 0.07663 0.56526
 C186 C 0.50543 0.04902 0.55100
 N187 N 0.51808 0.03214 0.54184
 C188 C 0.47409 0.03901 0.54982
 C189 C 0.45224 0.01133 0.53371
 C190 C 0.42125 -0.00170 0.53867
 C191 C 0.40790 -0.02772 0.51763
 C192 C 0.43106 -0.02969 0.49989
 N193 N 0.45799 -0.00574 0.50974
 C194 C 0.42697 -0.05285 0.47463
 H195 H 0.43301 -0.08266 0.40953
 H196 H 0.48443 -0.08247 0.40801
 H197 H 0.47879 0.00006 0.49783
 H198 H 0.57621 -0.04303 0.51098
 H199 H 0.60169 0.00692 0.55113
 H200 H 0.57563 0.09476 0.57454
 H201 H 0.52419 0.09465 0.57601
 H202 H 0.38385 -0.04340 0.51569
 H203 H 0.52417 0.00024 0.49634
 H204 H 0.40938 0.00658 0.55574
 O205 O 0.18411 0.42073 0.20298
 O206 O 0.23412 0.41891 0.27786
 O207 O 0.18370 0.42106 0.27683
 O208 O 0.23472 0.41901 0.20403
 O209 O 0.26057 0.46874 0.20371
 O210 O 0.21020 0.47074 0.27579
 O211 O 0.25998 0.46864 0.27769
 O212 O 0.21072 0.47041 0.20271
 Cu213 Cu 0.20654 0.41490 0.24048
 Cu214 Cu 0.23808 0.47456 0.24000
 C215 C 0.18876 0.44599 0.19031
 C216 C 0.25565 0.44356 0.29049
 C217 C 0.18809 0.44646 0.28829
 C218 C 0.25637 0.44368 0.19147
 O219 O 0.57679 0.81430 0.28911
 O220 O 0.57732 0.76413 0.21388
 O221 O 0.57916 0.81651 0.21480
 O222 O 0.57611 0.76275 0.28752
 O223 O 0.52625 0.73901 0.28492
 O224 O 0.52931 0.79212 0.21253
 O225 O 0.52744 0.74052 0.21245
 O226 O 0.52698 0.79016 0.28610
 Cu227 Cu 0.58241 0.79199 0.25147
 Cu228 Cu 0.52257 0.76327 0.24881
 C229 C 0.55153 0.81066 0.30034
 C230 C 0.55221 0.74316 0.20115
 C231 C 0.55465 0.81347 0.20130
 C232 C 0.55053 0.74125 0.29795
 O233 O 0.23894 0.81563 0.21940
 O234 O 0.18564 0.76393 0.29146
 O235 O 0.23764 0.81422 0.29346
 O236 O 0.18687 0.76477 0.21755
 O237 O 0.21104 0.73913 0.21866
 O238 O 0.26174 0.78851 0.29265
 O239 O 0.21038 0.73882 0.29228
 O240 O 0.26240 0.78930 0.21949
 Cu241 Cu 0.20983 0.79225 0.25532
 Cu242 Cu 0.23872 0.76133 0.25574
 C243 C 0.25998 0.81140 0.20738
 C244 C 0.18907 0.74257 0.30428
 C245 C 0.25859 0.80980 0.30578
 C246 C 0.19019 0.74324 0.20547
 O247 O 0.76356 0.58080 0.78167
 O248 O 0.81421 0.57761 0.70922
 O249 O 0.76288 0.57805 0.70773
 O250 O 0.81515 0.58135 0.78289
 O251 O 0.78980 0.53169 0.78670
 O252 O 0.73836 0.52842 0.71135
 O253 O 0.78910 0.52800 0.71334
 O254 O 0.73894 0.53114 0.78476
 Cu255 Cu 0.79145 0.58447 0.74491
 Cu256 Cu 0.76158 0.52489 0.74929
 C257 C 0.74254 0.55632 0.79559
 C258 C 0.81042 0.55210 0.69926
 C259 C 0.74152 0.55260 0.69689
 C260 C 0.81132 0.55699 0.79766
 O261 O 0.42063 0.23433 0.71299
 O262 O 0.42010 0.18483 0.78974
 O263 O 0.42260 0.23726 0.78685
 O264 O 0.41968 0.18253 0.71614
 O265 O 0.46959 0.20663 0.71516
 O266 O 0.47244 0.26065 0.78482
 O267 O 0.47001 0.20886 0.78898
 O268 O 0.47048 0.25762 0.71184
 Cu269 Cu 0.41571 0.20735 0.75152
 Cu270 Cu 0.47558 0.23569 0.75012
 C271 C 0.44570 0.25465 0.69953
 C272 C 0.44502 0.18837 0.80237
 C273 C 0.44826 0.25861 0.79750
 C274 C 0.44434 0.18532 0.70374
 O275 O 0.81677 0.23990 0.78554
 O276 O 0.76689 0.18495 0.71351
 O277 O 0.81810 0.23659 0.71182
 O278 O 0.76566 0.18808 0.78699
 O279 O 0.74025 0.21229 0.78088
 O280 O 0.79238 0.26058 0.70698
 O281 O 0.74217 0.20992 0.70777
 O282 O 0.79084 0.26361 0.78002
 Cu283 Cu 0.79447 0.20996 0.75004
 Cu284 Cu 0.76389 0.23901 0.74355
 C285 C 0.81243 0.26143 0.79471
 C286 C 0.74592 0.18810 0.69848
 C287 C 0.81420 0.25703 0.69673
 C288 C 0.74358 0.19163 0.79622
 C289 C 0.10387 0.45439 0.08872
 C290 C 0.07306 0.43852 0.09866
 C291 C 0.05236 0.44475 0.08044
 C292 C 0.06218 0.46692 0.05208
 C293 C 0.09250 0.48160 0.04062
 C294 C 0.11315 0.47531 0.05866
 C295 C 0.12662 0.45139 0.11194
 C296 C 0.12063 0.42329 0.12643
 C297 C 0.14121 0.42127 0.15100
 C298 C 0.16810 0.44733 0.16169
 C299 C 0.17441 0.47525 0.14633
 C300 C 0.15395 0.47725 0.12181
 H301 H 0.02903 0.43342 0.08972
 H302 H 0.10036 0.49878 0.01873
 H303 H 0.13572 0.39942 0.16233
 H304 H 0.19489 0.49577 0.15397
 H305 H 0.13661 0.48751 0.04991
 H306 H 0.09988 0.40294 0.11908
 H307 H 0.06524 0.42251 0.12191
 H308 H 0.15906 0.49930 0.11171
 C309 C 0.54655 0.64853 0.10727
 C310 C 0.53361 0.61989 0.12422
 C311 C 0.52788 0.59477 0.10283
 C312 C 0.53451 0.59773 0.06395
 C313 C 0.54874 0.62653 0.04725
 C314 C 0.55491 0.65186 0.06889
 C315 C 0.54847 0.67399 0.12903
 C316 C 0.57593 0.70111 0.13348
 C317 C 0.57735 0.72412 0.15640
 C318 C 0.55117 0.72045 0.17444
 C319 C 0.52361 0.69365 0.16862
 C320 C 0.52234 0.67065 0.14642
 H321 H 0.51715 0.57276 0.11624
 H322 H 0.55403 0.62920 0.01727
 H323 H 0.59888 0.74453 0.16038
 H324 H 0.50303 0.68999 0.18215
 H325 H 0.56480 0.67376 0.05531
 H326 H 0.59633 0.70408 0.12019
 H327 H 0.52720 0.61690 0.15386
 H328 H 0.50088 0.65003 0.14301
 C329 C 0.35380 0.89767 0.10829
 C330 C 0.36800 0.92847 0.11758
 C331 C 0.39415 0.94948 0.09848
 C332 C 0.40647 0.94000 0.06988
 C333 C 0.39169 0.90956 0.05941
 C334 C 0.36555 0.88859 0.07836
 C335 C 0.32833 0.87483 0.13151
 C336 C 0.32745 0.84784 0.14170
 C337 C 0.30482 0.82702 0.16552
 C338 C 0.28245 0.83263 0.17983
 C339 C 0.28284 0.85929 0.16900
 C340 C 0.30561 0.88023 0.14513
 H341 H 0.40543 0.97292 0.10694
 H342 H 0.40093 0.90196 0.03726
 H343 H 0.30524 0.80675 0.17332
 H344 H 0.26592 0.86427 0.17954
 H345 H 0.35486 0.86514 0.07010
 H346 H 0.34487 0.84319 0.13224
 H347 H 0.35970 0.93613 0.14074
 H348 H 0.30554 0.90070 0.13750
 C349 C 0.89469 0.54175 0.59978
 C350 C 0.88481 0.51983 0.57108
 C351 C 0.90539 0.51419 0.55206
 C352 C 0.93623 0.53042 0.56124
 C353 C 0.94645 0.55324 0.58859
 C354 C 0.92584 0.55888 0.60774
 C355 C 0.87237 0.54502 0.62321
 C356 C 0.87787 0.57349 0.63516
 C357 C 0.85742 0.57601 0.65913
 C358 C 0.83119 0.55008 0.67176
 C359 C 0.82550 0.52172 0.65919
 C360 C 0.84581 0.51923 0.63525
 H361 H 0.89720 0.49658 0.53086
 H362 H 0.97022 0.56588 0.59602
 H363 H 0.86244 0.59818 0.66833
 H364 H 0.80555 0.50127 0.66839
 H365 H 0.93412 0.57569 0.62992
 H366 H 0.89803 0.59378 0.62609
 H367 H 0.86104 0.50663 0.56386
 H368 H 0.84114 0.49694 0.62713
 C369 C 0.45113 0.34424 0.59436
 C370 C 0.47133 0.35503 0.56361
 C371 C 0.47672 0.38105 0.54415
 C372 C 0.46190 0.39665 0.55494
 C373 C 0.44047 0.38512 0.58415
 C374 C 0.43510 0.35908 0.60374
 C375 C 0.44894 0.31945 0.61864
 C376 C 0.42110 0.29746 0.63387
 C377 C 0.41980 0.27574 0.65928
 C378 C 0.44635 0.27570 0.67010
 C379 C 0.47401 0.29719 0.65405
 C380 C 0.47529 0.31878 0.62865
 H381 H 0.49331 0.38973 0.52160
 H382 H 0.42902 0.39708 0.59291
 H383 H 0.39813 0.25945 0.67113
 H384 H 0.49489 0.29782 0.66178
 H385 H 0.41964 0.35151 0.62751
 H386 H 0.40039 0.29727 0.62642
 H387 H 0.48364 0.34382 0.55533
 H388 H 0.49715 0.33568 0.61794
 C389 C 0.65339 0.09884 0.60211
 C390 C 0.64812 0.10425 0.56446
 C391 C 0.62133 0.08402 0.54594
 C392 C 0.59932 0.05829 0.56491
 C393 C 0.60495 0.05223 0.60196
 C394 C 0.63190 0.07226 0.62036
 C395 C 0.67960 0.12217 0.62359
 C396 C 0.69696 0.11445 0.64728
 C397 C 0.71965 0.13623 0.67042
 C398 C 0.72491 0.16591 0.67075
 C399 C 0.70814 0.17374 0.64620
 C400 C 0.68588 0.15216 0.62270
 H401 H 0.61718 0.08900 0.51736
 H402 H 0.58802 0.03253 0.61700
 H403 H 0.73218 0.12958 0.68918
 H404 H 0.71179 0.19647 0.64578
 H405 H 0.63525 0.06776 0.64950
 H406 H 0.69258 0.09147 0.64834
 H407 H 0.66440 0.12451 0.54976
 H408 H 0.67262 0.15864 0.60503
 C409 C 0.44990 0.10551 0.90953
 C410 C 0.46144 0.11324 0.94658
 C411 C 0.46788 0.09394 0.96773
 C412 C 0.46345 0.06699 0.95178
 C413 C 0.45067 0.05860 0.91547
 C414 C 0.44370 0.07761 0.89460
 C415 C 0.44719 0.12758 0.88502
 C416 C 0.42103 0.11897 0.86323
 C417 C 0.41986 0.13916 0.83735
 C418 C 0.44507 0.16807 0.83225
 C419 C 0.47097 0.17684 0.85465
 C420 C 0.47192 0.15687 0.88101
 H421 H 0.47785 0.10072 0.99569
 H422 H 0.44732 0.03794 0.90274
 H423 H 0.39965 0.13179 0.82034
 H424 H 0.49068 0.19901 0.85139
 H425 H 0.43508 0.07131 0.86598
 H426 H 0.40171 0.09647 0.86588
 H427 H 0.46629 0.13460 0.95866
 H428 H 0.49246 0.16389 0.89719
 C429 C 0.65507 0.55383 0.90153
 C430 C 0.63900 0.56855 0.89142
 C431 C 0.61296 0.56270 0.91134
 C432 C 0.60272 0.54212 0.94161
 C433 C 0.61972 0.52889 0.95329
 C434 C 0.64577 0.53481 0.93356
 C435 C 0.67919 0.55553 0.87648
 C436 C 0.67990 0.52911 0.86806
 C437 C 0.70082 0.52966 0.84236
 C438 C 0.72166 0.55665 0.82435
 C439 C 0.72150 0.58330 0.83328
 C440 C 0.70035 0.58271 0.85902
 H441 H 0.59983 0.57283 0.90184
 H442 H 0.61198 0.51289 0.97657
 H443 H 0.70032 0.50872 0.83619
 H444 H 0.73730 0.60445 0.81988
 H445 H 0.65798 0.52356 0.94242
 H446 H 0.66356 0.50769 0.88042
 H447 H 0.64543 0.58309 0.86671
 H448 H 0.70041 0.60345 0.86511
 C449 C 0.89796 0.35972 0.88839
 C450 C 0.90952 0.35662 0.92331
 C451 C 0.92874 0.38215 0.94478
 C452 C 0.93674 0.41127 0.93165
 C453 C 0.92644 0.41410 0.89554
 C454 C 0.90725 0.38873 0.87435
 C455 C 0.87512 0.33311 0.86707
 C456 C 0.84959 0.33314 0.85214
 C457 C 0.82883 0.30937 0.82977
 C458 C 0.83312 0.28493 0.82160
 C459 C 0.85814 0.28432 0.83759
 C460 C 0.87891 0.30818 0.86032
 H461 H 0.93599 0.37901 0.97253
 H462 H 0.93300 0.43613 0.88381
 H463 H 0.80975 0.31052 0.81817
 H464 H 0.86203 0.26579 0.83185
 H465 H 0.89932 0.39177 0.84703
 H466 H 0.84582 0.35182 0.85750
 H467 H 0.90266 0.33445 0.93473
 H468 H 0.89844 0.30765 0.87153
 C469 C 0.54316 0.88821 0.41304
 C470 C 0.51732 0.87687 0.43604
 C471 C 0.51136 0.89629 0.45700
 C472 C 0.53136 0.92761 0.45614
 C473 C 0.55874 0.93871 0.43613
 C474 C 0.56443 0.91921 0.41446
 C475 C 0.54602 0.86811 0.38509
 C476 C 0.57417 0.87088 0.37624
 C477 C 0.57621 0.85220 0.34882
 C478 C 0.55013 0.83044 0.32983
 C479 C 0.52211 0.82778 0.33880
 C480 C 0.52011 0.84640 0.36585
 H481 H 0.49053 0.88692 0.47307
 H482 H 0.57459 0.96271 0.43475
 H483 H 0.59812 0.85478 0.34251
 H484 H 0.50158 0.81150 0.32452
 H485 H 0.58456 0.92867 0.39705
 H486 H 0.59453 0.88733 0.39062
 H487 H 0.50100 0.85299 0.43671
 H488 H 0.49819 0.84417 0.37106
 C489 C 0.34413 0.44721 0.39615
 C490 C 0.36545 0.44024 0.38144
 C491 C 0.39128 0.44656 0.40236
 C492 C 0.39591 0.45945 0.43852
 C493 C 0.37384 0.46484 0.45417
 C494 C 0.34824 0.45900 0.43300
 C495 C 0.31938 0.44488 0.37170
 C496 C 0.31490 0.46969 0.36793
 C497 C 0.29378 0.46899 0.34202
 C498 C 0.27635 0.44329 0.31978
 C499 C 0.28002 0.41803 0.32454
 C500 C 0.30159 0.41894 0.35002
 H501 H 0.40824 0.44248 0.38983
 H502 H 0.37720 0.47492 0.48199
 H503 H 0.29136 0.48875 0.33903
 H504 H 0.26695 0.39796 0.30766
 H505 H 0.33204 0.46442 0.44497
 H506 H 0.32858 0.49008 0.38401
 H507 H 0.36293 0.43143 0.35297
 H508 H 0.30465 0.39954 0.35250
 C509 C 0.10418 0.65351 0.40865
 C510 C 0.11293 0.64716 0.44378
 C511 C 0.09335 0.62101 0.46381
 C512 C 0.06475 0.60055 0.44890
 C513 C 0.05527 0.60786 0.41494
 C514 C 0.07479 0.63417 0.39506
 C515 C 0.12659 0.67827 0.38440
 C516 C 0.11895 0.69732 0.36430
 C517 C 0.13958 0.71894 0.33904
 C518 C 0.16799 0.72151 0.33301
 C519 C 0.17576 0.70281 0.35368
 C520 C 0.15536 0.68156 0.37921
 H521 H 0.10101 0.61603 0.49016
 H522 H 0.03344 0.59234 0.40269
 H523 H 0.13298 0.73303 0.32346
 H524 H 0.19751 0.70433 0.34975
 H525 H 0.06757 0.63841 0.36791
 H526 H 0.09693 0.69526 0.36788
 H527 H 0.13532 0.66195 0.45511
 H528 H 0.16169 0.66689 0.39391
 C529 C 0.89592 0.55530 0.90563
 C530 C 0.88719 0.54097 0.94116
 C531 C 0.90679 0.53476 0.96202
 C532 C 0.93539 0.54248 0.94756
 C533 C 0.94487 0.55859 0.91321
 C534 C 0.92533 0.56500 0.89248
 C535 C 0.87348 0.55715 0.88058
 C536 C 0.88120 0.58322 0.85913
 C537 C 0.86065 0.58360 0.83297
 C538 C 0.83222 0.55776 0.82741
 C539 C 0.82433 0.53197 0.84951
 C540 C 0.84466 0.53172 0.87589
 H541 H 0.89915 0.52270 0.98870
 H542 H 0.96674 0.56463 0.90133
 H543 H 0.86735 0.60379 0.81632
 H544 H 0.80256 0.51175 0.84598
 H545 H 0.93255 0.57587 0.86506
 H546 H 0.90324 0.60314 0.86231
 H547 H 0.86479 0.53366 0.95219
 H548 H 0.83825 0.51118 0.89163
 C549 C 0.45968 0.35318 0.89769
 C550 C 0.43802 0.36255 0.89763
 C551 C 0.44357 0.38864 0.91704
 C552 C 0.47114 0.40620 0.93633
 C553 C 0.49189 0.39572 0.93815
 C554 C 0.48612 0.36949 0.91941
 C555 C 0.45614 0.32810 0.87305
 C556 C 0.48154 0.33046 0.85448
 C557 C 0.47882 0.30766 0.83061
 C558 C 0.45054 0.28192 0.82416
 C559 C 0.42496 0.27940 0.84251
 C560 C 0.42775 0.30227 0.86682
 H561 H 0.42714 0.39611 0.91495
 H562 H 0.51289 0.40815 0.95380
 H563 H 0.49895 0.31054 0.81663
 H564 H 0.40286 0.25982 0.83808
 H565 H 0.50281 0.36236 0.92123
 H566 H 0.50362 0.35033 0.85767
 H567 H 0.41747 0.35060 0.88107
 H568 H 0.40775 0.29966 0.88085
 C569 C 0.64744 0.10567 0.89239
 C570 C 0.61807 0.09495 0.87833
 C571 C 0.59300 0.07571 0.90007
 C572 C 0.59650 0.06680 0.93676
 C573 C 0.62602 0.07607 0.94988
 C574 C 0.65126 0.09536 0.92786
 C575 C 0.67357 0.12876 0.87054
 C576 C 0.69928 0.12611 0.86398
 C577 C 0.72263 0.14701 0.84065
 C578 C 0.72072 0.17102 0.82387
 C579 C 0.69552 0.17421 0.83190
 C580 C 0.67225 0.15333 0.85485
 H581 H 0.57067 0.06813 0.88838
 H582 H 0.62966 0.06985 0.97802
 H583 H 0.74178 0.14397 0.83504
 H584 H 0.69335 0.19249 0.81967
 H585 H 0.67373 0.10331 0.93927
 H586 H 0.70081 0.10735 0.87579
 H587 H 0.61450 0.10189 0.85061
 H588 H 0.65293 0.15620 0.86004
 C589 C 0.10160 0.45591 0.38397
 C590 C 0.09154 0.47529 0.37077
 C591 C 0.07261 0.48120 0.39292
 C592 C 0.06335 0.46813 0.42918
 C593 C 0.07206 0.44729 0.44145
 C594 C 0.09101 0.44123 0.41900
 C595 C 0.12454 0.45284 0.36190
 C596 C 0.12117 0.42449 0.35383
 C597 C 0.14215 0.42219 0.33054
 C598 C 0.16696 0.44827 0.31540
 C599 C 0.17077 0.47658 0.32484
 C600 C 0.14979 0.47882 0.34768
 H601 H 0.06550 0.49649 0.38188
 H602 H 0.06566 0.43698 0.46928
 H603 H 0.13864 0.40006 0.32383
 H604 H 0.18965 0.49715 0.31387
 H605 H 0.09852 0.42621 0.42976
 H606 H 0.10186 0.40414 0.36452
 H607 H 0.09879 0.48632 0.34343
 H608 H 0.15319 0.50098 0.35402
 C609 C 0.54362 0.64421 0.38930
 C610 C 0.55057 0.64643 0.42817
 C611 C 0.54453 0.62063 0.44898
 C612 C 0.53184 0.59250 0.43096
 C613 C 0.52679 0.59074 0.39167
 C614 C 0.53239 0.61633 0.37108
 C615 C 0.54551 0.67007 0.36812
 C616 C 0.52004 0.66644 0.34823
 C617 C 0.52154 0.69002 0.32665
 C618 C 0.54870 0.71766 0.32401
 C619 C 0.57412 0.72154 0.34454
 C620 C 0.57243 0.69797 0.36679
 H621 H 0.54854 0.62234 0.47930
 H622 H 0.51719 0.56924 0.37731
 H623 H 0.50159 0.68624 0.31110
 H624 H 0.59534 0.74262 0.34304
 H625 H 0.52717 0.61422 0.34104
 H626 H 0.49896 0.64519 0.34923
 H627 H 0.55920 0.66776 0.44272
 H628 H 0.59231 0.70119 0.38202
 C629 C 0.34571 0.88753 0.41800
 C630 C 0.35549 0.91853 0.41918
 C631 C 0.38116 0.93820 0.44030
 C632 C 0.39783 0.92725 0.45990
 C633 C 0.38648 0.89595 0.46111
 C634 C 0.36060 0.87636 0.44081
 C635 C 0.32234 0.86727 0.39032
 C636 C 0.32618 0.84536 0.37131
 C637 C 0.30527 0.82670 0.34438
 C638 C 0.28001 0.82956 0.33523
 C639 C 0.27604 0.85151 0.35397
 C640 C 0.29702 0.87020 0.38134
 H641 H 0.38934 0.96219 0.43870
 H642 H 0.39833 0.88674 0.47687
 H643 H 0.30925 0.81027 0.33025
 H644 H 0.25676 0.85422 0.34752
 H645 H 0.35300 0.85248 0.44171
 H646 H 0.34583 0.84301 0.37657
 H647 H 0.34455 0.92788 0.40192
 H648 H 0.29337 0.88680 0.39554
 C649 C 0.55346 0.90157 0.09899
 C650 C 0.53444 0.89325 0.06698
 C651 C 0.52914 0.91433 0.04843
 C652 C 0.54291 0.94411 0.06139
 C653 C 0.56342 0.95307 0.09172
 C654 C 0.56871 0.93194 0.11040
 C655 C 0.55475 0.87816 0.12268
 C656 C 0.52801 0.85106 0.13057
 C657 C 0.52824 0.82987 0.15536
 C658 C 0.55524 0.83518 0.17290
 C659 C 0.58221 0.86190 0.16428
 C660 C 0.58194 0.88327 0.13952
 H661 H 0.51316 0.90712 0.02510
 H662 H 0.57396 0.97595 0.10223
 H663 H 0.50706 0.80952 0.16134
 H664 H 0.60338 0.86663 0.17734
 H665 H 0.58326 0.93898 0.13514
 H666 H 0.50659 0.84665 0.11861
 H667 H 0.52276 0.87014 0.05717
 H668 H 0.60292 0.90389 0.13379
 C669 C 0.34702 0.44958 0.08921
 C670 C 0.36900 0.44400 0.10530
 C671 C 0.39546 0.45141 0.08543
 C672 C 0.40008 0.46402 0.04896
 C673 C 0.37747 0.46811 0.03199
 C674 C 0.35120 0.46113 0.05207
 C675 C 0.32153 0.44636 0.11257
 C676 C 0.31578 0.47040 0.11480
 C677 C 0.29411 0.46914 0.13988
 C678 C 0.27737 0.44361 0.16284
 C679 C 0.28221 0.41901 0.15954
 C680 C 0.30437 0.42051 0.13488
 H681 H 0.41286 0.44837 0.09897
 H682 H 0.38083 0.47797 0.00392
 H683 H 0.29075 0.48838 0.14173
 H684 H 0.26968 0.39911 0.17702
 H685 H 0.33451 0.46553 0.03906
 H686 H 0.32894 0.49071 0.09824
 H687 H 0.36646 0.43545 0.13402
 H688 H 0.30841 0.40169 0.13359
 C689 C 0.10570 0.65414 0.10051
 C690 C 0.07466 0.63952 0.10920
 C691 C 0.05407 0.61373 0.08927
 C692 C 0.06422 0.60224 0.06042
 C693 C 0.09486 0.61761 0.05035
 C694 C 0.11541 0.64339 0.07013
 C695 C 0.12817 0.67864 0.12512
 C696 C 0.15485 0.67884 0.13567
 C697 C 0.17519 0.70029 0.16097
 C698 C 0.16943 0.72215 0.17646
 C699 C 0.14312 0.72251 0.16527
 C700 C 0.12261 0.70087 0.13993
 H701 H 0.03046 0.60198 0.09742
 H702 H 0.10297 0.60901 0.02804
 H703 H 0.19521 0.69933 0.16896
 H704 H 0.13806 0.73907 0.17672
 H705 H 0.13907 0.65445 0.06234
 H706 H 0.15956 0.66173 0.12535
 H707 H 0.06653 0.64707 0.13264
 H708 H 0.10233 0.70138 0.13211
 C709 C 0.45014 0.09791 0.60702
 C710 C 0.44498 0.07100 0.62443
 C711 C 0.45190 0.05133 0.60537
 C712 C 0.46358 0.05806 0.56843
 C713 C 0.46747 0.08421 0.55034
 C714 C 0.46099 0.10410 0.56958
 C715 C 0.44693 0.12068 0.62909
 C716 C 0.47074 0.15065 0.62968
 C717 C 0.46944 0.17175 0.65328
 C718 C 0.44410 0.16346 0.67637
 C719 C 0.41970 0.13378 0.67469
 C720 C 0.42125 0.11245 0.65152
 H721 H 0.44899 0.03131 0.61974
 H722 H 0.47658 0.08971 0.52187
 H723 H 0.48853 0.19450 0.65392
 H724 H 0.39996 0.12680 0.69234
 H725 H 0.46504 0.12465 0.55555
 H726 H 0.49092 0.15748 0.61298
 H727 H 0.43698 0.06590 0.65341
 H728 H 0.40259 0.08947 0.65143
 C729 C 0.64975 0.54346 0.59195
 C730 C 0.63514 0.55995 0.59985
 C731 C 0.60881 0.55395 0.58024
 C732 C 0.59676 0.53143 0.55248
 C733 C 0.61219 0.51614 0.54302
 C734 C 0.63848 0.52213 0.56253
 C735 C 0.67486 0.54645 0.61648
 C736 C 0.67542 0.52052 0.62849
 C737 C 0.69748 0.52268 0.65387
 C738 C 0.71960 0.55084 0.66788
 C739 C 0.71958 0.57691 0.65516
 C740 C 0.69735 0.57472 0.62981
 H741 H 0.59701 0.56581 0.58797
 H742 H 0.60314 0.49871 0.52158
 H743 H 0.69683 0.50215 0.66308
 H744 H 0.73633 0.59895 0.66542
 H745 H 0.64952 0.50943 0.55537
 H746 H 0.65814 0.49836 0.61928
 H747 H 0.64310 0.57632 0.62256
 H748 H 0.69761 0.59511 0.62083
 C749 C 0.90060 0.34561 0.59290
 C750 C 0.89184 0.35483 0.55984
 C751 C 0.91226 0.38132 0.54107
 C752 C 0.94183 0.39887 0.55481
 C753 C 0.95129 0.38888 0.58631
 C754 C 0.93083 0.36240 0.60524
 C755 C 0.87760 0.32073 0.61666
 C756 C 0.84946 0.31868 0.62281
 C757 C 0.82867 0.29741 0.64796
 C758 C 0.83543 0.27755 0.66763
 C759 C 0.86315 0.27883 0.66064
 C760 C 0.88411 0.30032 0.63549
 H761 H 0.90467 0.38888 0.51682
 H762 H 0.97401 0.40242 0.59740
 H763 H 0.80751 0.29701 0.65262
 H764 H 0.86898 0.26381 0.67537
 H765 H 0.93818 0.35609 0.63082
 H766 H 0.84391 0.33436 0.60931
 H767 H 0.86886 0.34213 0.54933
 H768 H 0.90555 0.30124 0.63111
   
