data_POSCAR
  _audit_creation_date              2014-09-24
  _audit_creation_method            'ToBaCCo'
  _symmetry_space_group_name_H-M    'P1'
  _symmetry_Int_Tables_number       1
  _symmetry_cell_setting            triclinic
  loop_
  _symmetry_equiv_pos_as_xyz
 x,y,z
_cell_length_a 37.5996
_cell_length_b 51.4504
_cell_length_c 43.5938
_cell_angle_alpha 89.920300
_cell_angle_beta 90.364800
_cell_angle_gamma 90.243000
loop_
  _atom_site_label
  _atom_site_type_symbol
  _atom_site_fract_x
  _atom_site_fract_y
  _atom_site_fract_z
O1 O 0.25237 0.27574 0.28623
 O2 O 0.20310 0.22728 0.24068
 O3 O 0.24589 0.22531 0.28790
 O4 O 0.21027 0.27749 0.23858
 O5 O 0.25524 0.27231 0.20693
 O6 O 0.29270 0.22236 0.25799
 O7 O 0.24973 0.22213 0.21087
 O8 O 0.29758 0.27295 0.25440
 Cu9 Cu 0.22334 0.25185 0.26648
 Cu10 Cu 0.27849 0.24702 0.22954
 C11 C 0.28319 0.28291 0.27790
 C12 C 0.21796 0.21634 0.21806
 C13 C 0.27561 0.21497 0.28153
 C14 C 0.22644 0.28354 0.21404
 O15 O 0.80123 0.27430 0.24485
 O16 O 0.75175 0.22481 0.28855
 O17 O 0.79488 0.22397 0.24219
 O18 O 0.75823 0.27520 0.29156
 O19 O 0.71286 0.27967 0.25971
 O20 O 0.74875 0.22775 0.21102
 O21 O 0.70573 0.22968 0.25755
 O22 O 0.75576 0.27820 0.21301
 Cu23 Cu 0.78111 0.24918 0.26995
 Cu24 Cu 0.72627 0.25427 0.23209
 C25 C 0.78701 0.28464 0.22133
 C26 C 0.72011 0.21885 0.28072
 C27 C 0.77799 0.21698 0.21824
 C28 C 0.72918 0.28614 0.28415
 O29 O 0.74193 0.77467 0.71541
 O30 O 0.78306 0.72314 0.76251
 O31 O 0.73860 0.72415 0.71664
 O32 O 0.78751 0.77358 0.76088
 O33 O 0.74348 0.77567 0.79387
 O34 O 0.69355 0.72700 0.74859
 O35 O 0.73798 0.72511 0.79454
 O36 O 0.69821 0.77758 0.74874
 Cu37 Cu 0.76723 0.74869 0.73559
 Cu38 Cu 0.71386 0.75157 0.77470
 C39 C 0.71309 0.78503 0.72418
 C40 C 0.76734 0.71517 0.78650
 C41 C 0.70772 0.71711 0.72494
 C42 C 0.77408 0.78307 0.78507
 O43 O 0.24298 0.72568 0.71079
 O44 O 0.20714 0.77665 0.76079
 O45 O 0.24300 0.77644 0.70968
 O46 O 0.20777 0.72645 0.76214
 O47 O 0.25852 0.72664 0.78769
 O48 O 0.29314 0.77730 0.73618
 O49 O 0.25745 0.77735 0.78713
 O50 O 0.29375 0.72690 0.73639
 Cu51 Cu 0.22022 0.75124 0.73316
 Cu52 Cu 0.28075 0.75211 0.76448
 C53 C 0.27455 0.71765 0.71491
 C54 C 0.22600 0.78556 0.78268
 C55 C 0.27415 0.78546 0.71400
 C56 C 0.22706 0.71799 0.78402
 C57 C 0.97959 -0.00452 0.00701
 C58 C 1.01578 -0.00519 0.00470
 C59 C 1.03876 0.01416 0.02078
 C60 C 1.03401 -0.02522 -0.01406
 C61 C 0.95628 -0.02134 -0.01220
 C62 C 0.96161 0.01321 0.02876
 C63 C 1.03237 0.04094 0.01781
 C64 C 1.05276 0.05887 0.03438
 C65 C 1.08054 0.05041 0.05356
 C66 C 1.08795 0.02372 0.05548
 C67 C 1.06718 0.00575 0.03927
 C68 C 1.05968 -0.01768 -0.03559
 C69 C 1.07591 -0.03622 -0.05420
 C70 C 1.06661 -0.06260 -0.05167
 C71 C 1.04166 -0.07022 -0.02954
 C72 C 1.02588 -0.05174 -0.01061
 C73 C 0.93149 -0.03791 0.00177
 C74 C 0.91070 -0.05480 -0.01596
 C75 C 0.91407 -0.05524 -0.04807
 C76 C 0.93817 -0.03800 -0.06206
 C77 C 0.95899 -0.02115 -0.04430
 C78 C 0.96997 0.01272 0.06018
 C79 C 0.95444 0.03052 0.08017
 C80 C 0.93011 0.04907 0.06912
 C81 C 0.92108 0.04897 0.03775
 C82 C 0.93653 0.03111 0.01782
 H83 H 1.01129 0.04793 0.00296
 H84 H 1.04694 0.07939 0.03214
 H85 H 1.10920 0.01674 0.07018
 H86 H 1.07276 -0.01479 0.04167
 H87 H 1.06658 0.00263 -0.03847
 H88 H 1.09503 -0.02988 -0.07115
 H89 H 1.00697 -0.05811 0.00649
 H90 H 0.92895 -0.03828 0.02651
 H91 H 0.89266 -0.06800 -0.00445
 H92 H 0.94087 -0.03748 -0.08677
 H93 H 0.97749 -0.00812 -0.05554
 H94 H 0.98884 -0.00126 0.06912
 H95 H 0.96145 0.02976 0.10428
 H96 H 0.90279 0.06317 0.02843
 H97 H 0.92974 0.03175 -0.00635
 H98 H 1.03452 -0.09050 -0.02682
 C99 C 0.47975 0.50174 0.49827
 C100 C 0.51591 0.49998 0.49827
 C101 C 0.53847 0.51636 0.51863
 C102 C 0.53434 0.48176 0.47741
 C103 C 0.45768 0.48227 0.48182
 C104 C 0.46091 0.52251 0.51530
 C105 C 0.56534 0.53197 0.50605
 C106 C 0.58496 0.54888 0.52472
 C107 C 0.57826 0.55032 0.55638
 C108 C 0.55216 0.53395 0.56907
 C109 C 0.53257 0.51704 0.55039
 C110 C 0.52895 0.48334 0.44559
 C111 C 0.54529 0.46565 0.42601
 C112 C 0.56754 0.44611 0.43786
 C113 C 0.57357 0.44500 0.46973
 C114 C 0.55721 0.46276 0.48931
 C115 C 0.45809 0.45615 0.49109
 C116 C 0.43858 0.43753 0.47479
 C117 C 0.41880 0.44472 0.44872
 C118 C 0.41817 0.47092 0.43963
 C119 C 0.43714 0.48964 0.45633
 C120 C 0.43351 0.51603 0.53569
 C121 C 0.41757 0.53524 0.55353
 C122 C 0.42883 0.56124 0.55132
 C123 C 0.45528 0.56786 0.53006
 C124 C 0.47085 0.54872 0.51193
 H125 H 0.57033 0.53169 0.48161
 H126 H 0.60467 0.56139 0.51421
 H127 H 0.54687 0.53423 0.59346
 H128 H 0.51239 0.50476 0.56061
 H129 H 0.51199 0.49826 0.43594
 H130 H 0.54070 0.46737 0.40155
 H131 H 0.56175 0.46134 0.51382
 H132 H 0.47377 0.45021 0.51079
 H133 H 0.43955 0.41742 0.48209
 H134 H 0.40291 0.47685 0.41968
 H135 H 0.43661 0.50974 0.44893
 H136 H 0.42526 0.49598 0.53852
 H137 H 0.39728 0.52966 0.56981
 H138 H 0.46396 0.58784 0.52754
 H139 H 0.49121 0.55428 0.49571
 H140 H 0.59030 0.43004 0.47959
 C141 C 0.02108 0.50542 0.00382
 C142 C -0.01470 0.50238 -0.00023
 C143 C -0.03552 0.48349 0.01826
 C144 C -0.03473 0.51812 -0.02300
 C145 C 0.04123 0.52631 -0.01214
 C146 C 0.04158 0.48733 0.02356
 C147 C -0.05699 0.46490 0.00356
 C148 C -0.07638 0.44687 0.02075
 C149 C -0.07482 0.44723 0.05299
 C150 C -0.05373 0.46618 0.06764
 C151 C -0.03442 0.48423 0.05044
 C152 C -0.02519 0.51812 -0.05408
 C153 C -0.04223 0.53469 -0.07484
 C154 C -0.06928 0.55146 -0.06493
 C155 C -0.07956 0.55069 -0.03396
 C156 C -0.06259 0.53405 -0.01326
 C157 C 0.02988 0.55228 -0.01089
 C158 C 0.04604 0.57119 -0.02916
 C159 C 0.07454 0.56464 -0.04825
 C160 C 0.08747 0.53907 -0.04791
 C161 C 0.07086 0.52003 -0.03004
 C162 C 0.05963 0.49668 0.04956
 C163 C 0.07697 0.47943 0.06938
 C164 C 0.07712 0.45264 0.06309
 C165 C 0.05998 0.44346 0.03648
 C166 C 0.04225 0.46066 0.01693
 H167 H -0.05829 0.46410 -0.02125
 H168 H -0.09214 0.43237 0.00881
 H169 H -0.05253 0.46727 0.09243
 H170 H -0.01869 0.49885 0.06223
 H171 H -0.00407 0.50563 -0.06209
 H172 H -0.03415 0.53447 -0.09863
 H173 H -0.07028 0.53430 0.01065
 H174 H 0.00772 0.55771 0.00345
 H175 H 0.03602 0.59089 -0.02868
 H176 H 0.10942 0.53359 -0.06248
 H177 H 0.08022 0.50017 -0.03117
 H178 H 0.05944 0.51723 0.05492
 H179 H 0.09029 0.48697 0.08961
 H180 H 0.05958 0.42289 0.03124
 H181 H 0.02863 0.45317 -0.00319
 H182 H -0.09995 0.56356 -0.02547
 C183 C 0.52116 0.99809 0.49373
 C184 C 0.48490 0.99747 0.49298
 C185 C 0.46466 0.98059 0.51436
 C186 C 0.46422 1.01375 0.47121
 C187 C 0.54219 1.01782 0.47653
 C188 C 0.54148 0.97862 0.51175
 C189 C 0.44099 0.96174 0.50300
 C190 C 0.42407 0.94450 0.52308
 C191 C 0.43040 0.94599 0.55488
 C192 C 0.45303 0.96563 0.56620
 C193 C 0.46988 0.98280 0.54614
 C194 C 0.47080 1.01261 0.43960
 C195 C 0.45365 1.02967 0.41949
 C196 C 0.42956 1.04823 0.43060
 C197 C 0.42200 1.04856 0.46218
 C198 C 0.43899 1.03134 0.48225
 C199 C 0.53364 1.04437 0.47797
 C200 C 0.55311 1.06262 0.46120
 C201 C 0.58220 1.05478 0.44353
 C202 C 0.59157 1.02841 0.44290
 C203 C 0.57164 1.01008 0.45915
 C204 C 0.56383 0.98663 0.53583
 C205 C 0.58239 0.96826 0.55324
 C206 C 0.57946 0.94166 0.54635
 C207 C 0.55761 0.93374 0.52181
 C208 C 0.53862 0.95207 0.50473
 H209 H 0.43655 0.95983 0.47853
 H210 H 0.40696 0.92949 0.51367
 H211 H 0.45784 0.96764 0.59060
 H212 H 0.48750 0.99760 0.55537
 H213 H 0.48977 0.99884 0.43061
 H214 H 0.45948 1.02848 0.39524
 H215 H 0.43357 1.03248 0.50658
 H216 H 0.51190 1.05099 0.49207
 H217 H 0.54579 1.08294 0.46237
 H218 H 0.61391 1.02196 0.42936
 H219 H 0.57898 0.98978 0.45788
 H220 H 0.56641 1.00706 0.54142
 H221 H 0.59929 0.97480 0.57193
 H222 H 0.55481 0.91333 0.51620
 H223 H 0.52169 0.94562 0.48603
 H224 H 0.40392 1.06275 0.47158
 C225 C 1.14163 0.17698 0.18502
 C226 C 1.15873 0.16057 0.16369
 C227 C 1.19630 0.16225 0.16164
 C228 C 1.21542 0.18049 0.17925
 C229 C 1.19791 0.19690 0.19980
 C230 C 1.16096 0.19473 0.20272
 C231 C 1.21468 0.14574 0.14206
 C232 C 1.19673 0.12725 0.12464
 C233 C 1.15931 0.12489 0.12557
 C234 C 1.13992 0.14243 0.14463
 C235 C 1.10239 0.14162 0.14352
 C236 C 1.08435 0.12398 0.12501
 C237 C 1.10281 0.10607 0.10732
 C238 C 1.14054 0.10591 0.10763
 C239 C 1.15781 0.08649 0.09021
 C240 C 1.13834 0.06853 0.07285
 C241 C 1.10118 0.06939 0.07203
 C242 C 1.08359 0.08820 0.08935
 H243 H 1.11341 0.17636 0.18903
 H244 H 1.24410 0.18173 0.17712
 H245 H 1.14675 0.20701 0.21862
 H246 H 1.24339 0.14699 0.14032
 H247 H 1.21302 0.11547 0.11000
 H248 H 1.08597 0.15488 0.15616
 H249 H 1.05551 0.12426 0.12474
 H250 H 1.18627 0.08430 0.08989
 H251 H 1.15245 0.05401 0.05975
 H252 H 1.05474 0.08859 0.08929
 C253 C 0.63442 0.67239 0.69610
 C254 C 0.65113 0.65896 0.67178
 C255 C 0.68728 0.66496 0.66584
 C256 C 0.70533 0.68394 0.68310
 C257 C 0.68828 0.69718 0.70687
 C258 C 0.65276 0.69110 0.71328
 C259 C 0.70541 0.65204 0.64269
 C260 C 0.68864 0.63306 0.62521
 C261 C 0.65264 0.62632 0.62996
 C262 C 0.63338 0.63979 0.65329
 C263 C 0.59695 0.63389 0.65707
 C264 C 0.57991 0.61545 0.63894
 C265 C 0.59842 0.60185 0.61654
 C266 C 0.63511 0.60683 0.61185
 C267 C 0.65265 0.59200 0.58918
 C268 C 0.63428 0.57364 0.57158
 C269 C 0.59790 0.56925 0.57590
 C270 C 0.58020 0.58337 0.59862
 H271 H 0.60731 0.66881 0.70273
 H272 H 0.73293 0.68828 0.67806
 H273 H 0.63895 0.70092 0.73163
 H274 H 0.73303 0.65661 0.63802
 H275 H 0.70471 0.62430 0.60773
 H276 H 0.58048 0.64350 0.67363
 H277 H 0.55184 0.61176 0.64256
 H278 H 0.68063 0.59386 0.58452
 H279 H 0.64878 0.56263 0.55462
 H280 H 0.55194 0.58032 0.60199
 C281 C -0.13923 0.32976 0.19516
 C282 C -0.15416 0.34174 0.16879
 C283 C -0.18929 0.33446 0.16031
 C284 C -0.20824 0.31597 0.17750
 C285 C -0.19295 0.30428 0.20343
 C286 C -0.15834 0.31141 0.21206
 C287 C -0.20547 0.34560 0.13468
 C288 C -0.18767 0.36389 0.11705
 C289 C -0.15264 0.37187 0.12433
 C290 C -0.13556 0.36058 0.15062
 C291 C -0.10045 0.36846 0.15779
 C292 C -0.08259 0.38667 0.14008
 C293 C -0.09882 0.39787 0.11451
 C294 C -0.13405 0.39073 0.10616
 C295 C -0.14909 0.40283 0.07991
 C296 C -0.12989 0.42102 0.06286
 C297 C -0.09512 0.42791 0.07126
 C298 C -0.07979 0.41622 0.09717
 H299 H -0.11285 0.33405 0.20350
 H300 H -0.23505 0.31065 0.17056
 H301 H -0.14581 0.30274 0.23202
 H302 H -0.23232 0.34010 0.12810
 H303 H -0.20232 0.37136 0.09770
 H304 H -0.08574 0.36089 0.17705
 H305 H -0.05565 0.39205 0.14653
 H306 H -0.17565 0.39882 0.07184
 H307 H -0.14256 0.43002 0.04318
 H308 H -0.05270 0.42115 0.10365
 C309 C 0.28231 0.83381 0.64861
 C310 C 0.31746 0.84346 0.65236
 C311 C 0.33784 0.83348 0.67717
 C312 C 0.32346 0.81484 0.69714
 C313 C 0.28872 0.80548 0.69302
 C314 C 0.26834 0.81517 0.66860
 C315 C 0.37259 0.84205 0.68201
 C316 C 0.38798 0.86023 0.66266
 C317 C 0.36912 0.87075 0.63747
 C318 C 0.33312 0.86245 0.63240
 C319 C 0.31401 0.87348 0.60764
 C320 C 0.32944 0.89176 0.58835
 C321 C 0.36455 0.89978 0.59271
 C322 C 0.38502 0.88939 0.61724
 C323 C 0.42068 0.89805 0.62032
 C324 C 0.43502 0.91630 0.60016
 C325 C 0.41457 0.92665 0.57618
 C326 C 0.37931 0.91820 0.57255
 H327 H 0.26488 0.84006 0.63039
 H328 H 0.33960 0.80748 0.71591
 H329 H 0.24141 0.80828 0.66480
 H330 H 0.38822 0.83454 0.70102
 H331 H 0.41487 0.86570 0.66834
 H332 H 0.28679 0.86850 0.60250
 H333 H 0.31364 0.89967 0.56968
 H334 H 0.43850 0.89102 0.63783
 H335 H 0.46257 0.92205 0.60313
 H336 H 0.36315 0.92621 0.55417
 C337 C -0.22180 0.66261 -0.15338
 C338 C -0.18669 0.65375 -0.15836
 C339 C -0.16675 0.66604 -0.18183
 C340 C -0.18194 0.68576 -0.19993
 C341 C -0.21680 0.69415 -0.19474
 C342 C -0.23642 0.68245 -0.17123
 C343 C -0.13166 0.65874 -0.18703
 C344 C -0.11543 0.63987 -0.16903
 C345 C -0.13397 0.62710 -0.14525
 C346 C -0.17057 0.63350 -0.14057
 C347 C -0.18992 0.61927 -0.11849
 C348 C -0.17390 0.60014 -0.10080
 C349 C -0.13789 0.59460 -0.10397
 C350 C -0.11725 0.60799 -0.12612
 C351 C -0.08057 0.60198 -0.12770
 C352 C -0.06533 0.58351 -0.10819
 C353 C -0.08597 0.57027 -0.08651
 C354 C -0.12236 0.57581 -0.08478
 H355 H -0.23855 0.65504 -0.13550
 H356 H -0.16634 0.69486 -0.21785
 H357 H -0.26335 0.68862 -0.16656
 H358 H -0.11635 0.66794 -0.20506
 H359 H -0.08832 0.63542 -0.17474
 H360 H -0.21787 0.62213 -0.11457
 H361 H -0.18988 0.58978 -0.08412
 H362 H -0.06261 0.61164 -0.14315
 H363 H -0.03699 0.58009 -0.10960
 H364 H -0.13873 0.56552 -0.06833
 C365 C 0.28448 1.16651 0.34470
 C366 C 0.31793 1.15512 0.33859
 C367 C 0.33723 1.16476 0.31314
 C368 C 0.32300 1.18434 0.29431
 C369 C 0.28964 1.19530 0.30048
 C370 C 0.27074 1.18619 0.32603
 C371 C 0.37077 1.15489 0.30654
 C372 C 0.38609 1.13592 0.32494
 C373 C 0.36815 1.12567 0.35064
 C374 C 0.33303 1.13481 0.35700
 C375 C 0.31406 1.12311 0.38127
 C376 C 0.32906 1.10367 0.39920
 C377 C 0.36375 1.09534 0.39414
 C378 C 0.38399 1.10632 0.36999
 C379 C 0.41948 1.09772 0.36658
 C380 C 0.43385 1.07889 0.38604
 C381 C 0.41354 1.06779 0.40953
 C382 C 0.37838 1.07612 0.41333
 H383 H 0.26840 1.16099 0.36402
 H384 H 0.33830 1.19117 0.27486
 H385 H 0.24504 1.19424 0.33175
 H386 H 0.38557 1.16207 0.28699
 H387 H 0.41194 1.12935 0.31795
 H388 H 0.28710 1.12822 0.38676
 H389 H 0.31338 1.09523 0.41750
 H390 H 0.43725 1.10556 0.34962
 H391 H 0.46140 1.07343 0.38304
 H392 H 0.36225 1.06762 0.43128
 C393 C 1.21877 -0.16096 -0.15807
 C394 C 1.18158 -0.15682 -0.15661
 C395 C 1.15937 -0.17260 -0.17536
 C396 C 1.17409 -0.19090 -0.19541
 C397 C 1.21093 -0.19459 -0.19668
 C398 C 1.23306 -0.17961 -0.17768
 C399 C 1.12252 -0.17021 -0.17392
 C400 C 1.10694 -0.15284 -0.15381
 C401 C 1.12774 -0.13661 -0.13466
 C402 C 1.16567 -0.13792 -0.13695
 C403 C 1.18637 -0.11999 -0.11995
 C404 C 1.17070 -0.10179 -0.10088
 C405 C 1.13391 -0.10106 -0.09735
 C406 C 1.11185 -0.11875 -0.11371
 C407 C 1.07479 -0.11798 -0.10807
 C408 C 1.06042 -0.09997 -0.08778
 C409 C 1.08228 -0.08204 -0.07254
 C410 C 1.11903 -0.08271 -0.07739
 H411 H 1.23757 -0.15055 -0.14391
 H412 H 1.15666 -0.20270 -0.20965
 H413 H 1.26162 -0.18224 -0.17803
 H414 H 1.10543 -0.18212 -0.18833
 H415 H 1.07833 -0.15214 -0.15442
 H416 H 1.21492 -0.11904 -0.12145
 H417 H 1.18768 -0.08825 -0.08853
 H418 H 1.05618 -0.13130 -0.11852
 H419 H 1.03191 -0.09982 -0.08427
 H420 H 1.13614 -0.06914 -0.06519
 C421 C 0.71811 0.33400 0.34940
 C422 C 0.68379 0.34433 0.34375
 C423 C 0.66488 0.33498 0.31774
 C424 C 0.68003 0.31640 0.29827
 C425 C 0.71395 0.30636 0.30428
 C426 C 0.73276 0.31535 0.33000
 C427 C 0.63079 0.34404 0.31127
 C428 C 0.61456 0.36196 0.33028
 C429 C 0.63197 0.37182 0.35663
 C430 C 0.66749 0.36333 0.36309
 C431 C 0.68557 0.37424 0.38852
 C432 C 0.66947 0.39245 0.40728
 C433 C 0.63461 0.40037 0.40181
 C434 C 0.61518 0.39009 0.37657
 C435 C 0.57958 0.39843 0.37259
 C436 C 0.56441 0.41644 0.39245
 C437 C 0.58396 0.42683 0.41701
 C438 C 0.61909 0.41860 0.42157
 H439 H 0.73424 0.33956 0.36881
 H440 H 0.66505 0.30949 0.27854
 H441 H 0.75898 0.30787 0.33531
 H442 H 0.61631 0.33706 0.29131
 H443 H 0.58831 0.36792 0.32334
 H444 H 0.71256 0.36938 0.39446
 H445 H 0.68450 0.40032 0.42646
 H446 H 0.56240 0.39120 0.35466
 H447 H 0.53694 0.42197 0.38879
 H448 H 0.63459 0.42663 0.44038
 C449 C 0.84676 -0.17217 -0.19009
 C450 C 0.83257 -0.16070 -0.16334
 C451 C 0.79770 -0.16814 -0.15467
 C452 C 0.77857 -0.18680 -0.17165
 C453 C 0.79321 -0.19823 -0.19793
 C454 C 0.82744 -0.19050 -0.20696
 C455 C 0.78196 -0.15695 -0.12906
 C456 C 0.79985 -0.13830 -0.11184
 C457 C 0.83470 -0.13026 -0.11931
 C458 C 0.85163 -0.14206 -0.14511
 C459 C 0.88721 -0.13514 -0.15152
 C460 C 0.90552 -0.11714 -0.13372
 C461 C 0.88916 -0.10499 -0.10904
 C462 C 0.85343 -0.11110 -0.10157
 C463 C 0.83800 -0.09764 -0.07666
 C464 C 0.85755 -0.07950 -0.05966
 C465 C 0.89306 -0.07400 -0.06679
 C466 C 0.90859 -0.08680 -0.09166
 H467 H 0.87259 -0.16725 -0.19895
 H468 H 0.75204 -0.19226 -0.16434
 H469 H 0.83963 -0.19866 -0.22721
 H470 H 0.75533 -0.16259 -0.12225
 H471 H 0.78567 -0.13088 -0.09238
 H472 H 0.90212 -0.14365 -0.16992
 H473 H 0.93289 -0.11262 -0.13944
 H474 H 0.81078 -0.10039 -0.06984
 H475 H 0.84461 -0.06951 -0.04097
 H476 H 0.93618 -0.08294 -0.09724
 C477 C 0.34784 0.33668 0.29913
 C478 C 0.33762 0.34297 0.32945
 C479 C 0.30994 0.32807 0.34283
 C480 C 0.29224 0.30872 0.32585
 C481 C 0.30228 0.30312 0.29569
 C482 C 0.33051 0.31702 0.28268
 C483 C 0.30000 0.33248 0.37311
 C484 C 0.31731 0.35110 0.39079
 C485 C 0.34485 0.36663 0.37857
 C486 C 0.35416 0.36323 0.34704
 C487 C 0.37907 0.38055 0.33396
 C488 C 0.39499 0.40012 0.35121
 C489 C 0.38755 0.40283 0.38232
 C490 C 0.36291 0.38584 0.39666
 C491 C 0.35788 0.38854 0.42870
 C492 C 0.37601 0.40762 0.44540
 C493 C 0.39936 0.42479 0.43082
 C494 C 0.40496 0.42236 0.39926
 H495 H 0.36956 0.34622 0.28763
 H496 H 0.27082 0.29775 0.33633
 H497 H 0.33900 0.31290 0.25950
 H498 H 0.27873 0.32123 0.38341
 H499 H 0.30769 0.35337 0.41384
 H500 H 0.38616 0.37997 0.31008
 H501 H 0.41370 0.41310 0.34009
 H502 H 0.34083 0.37584 0.44171
 H503 H 0.37165 0.40906 0.46988
 H504 H 0.42365 0.43531 0.38804
 C505 C 0.22159 0.66988 -0.15224
 C506 C 0.18563 0.66170 -0.15384
 C507 C 0.16364 0.67325 -0.17656
 C508 C 0.17767 0.69132 -0.19746
 C509 C 0.21345 0.69922 -0.19565
 C510 C 0.23507 0.68836 -0.17264
 C511 C 0.12760 0.66692 -0.17820
 C512 C 0.11252 0.64980 -0.15733
 C513 C 0.13321 0.63770 -0.13429
 C514 C 0.17064 0.64286 -0.13339
 C515 C 0.19190 0.62865 -0.11252
 C516 C 0.17708 0.61049 -0.09271
 C517 C 0.14045 0.60623 -0.09223
 C518 C 0.11784 0.62015 -0.11254
 C519 C 0.08069 0.61612 -0.10991
 C520 C 0.06691 0.59845 -0.08875
 C521 C 0.08952 0.58409 -0.06965
 C522 C 0.12629 0.58809 -0.07146
 H523 H 0.23984 0.66291 -0.13499
 H524 H 0.16027 0.69968 -0.21475
 H525 H 0.26271 0.69408 -0.17026
 H526 H 0.11067 0.67556 -0.19564
 H527 H 0.08457 0.64588 -0.16043
 H528 H 0.22041 0.63057 -0.11150
 H529 H 0.19452 0.59984 -0.07735
 H530 H 0.06147 0.62665 -0.12344
 H531 H 0.03836 0.59567 -0.08763
 H532 H 0.14384 0.57728 -0.05632
 C533 C 0.64548 1.17739 0.30828
 C534 C 0.66123 1.16382 0.33310
 C535 C 0.69784 1.16829 0.33912
 C536 C 0.71705 1.18668 0.32199
 C537 C 0.70087 1.20038 0.29777
 C538 C 0.66500 1.19519 0.29095
 C539 C 0.71521 1.15435 0.36215
 C540 C 0.69727 1.13562 0.37908
 C541 C 0.66073 1.13058 0.37422
 C542 C 0.64208 1.14572 0.35179
 C543 C 0.60483 1.14273 0.34929
 C544 C 0.58649 1.12509 0.36747
 C545 C 0.60453 1.10921 0.38823
 C546 C 0.64200 1.11130 0.39153
 C547 C 0.65916 1.09366 0.41170
 C548 C 0.63973 1.07531 0.42832
 C549 C 0.60268 1.07409 0.42570
 C550 C 0.58522 1.09109 0.40563
 H551 H 0.61829 1.17430 0.30118
 H552 H 0.74490 1.19002 0.32740
 H553 H 0.65162 1.20507 0.27221
 H554 H 0.74317 1.15776 0.36697
 H555 H 0.71266 1.12592 0.39655
 H556 H 0.58878 1.15436 0.33407
 H557 H 0.55784 1.12367 0.36497
 H558 H 0.68761 1.09311 0.41464
 H559 H 0.65370 1.06214 0.44356
 H560 H 0.55654 1.08980 0.40311
 C561 C 0.20877 0.32402 0.14309
 C562 C 0.18171 0.34116 0.15281
 C563 C 0.17083 0.33959 0.18386
 C564 C 0.18529 0.32074 0.20363
 C565 C 0.21150 0.30360 0.19336
 C566 C 0.22336 0.30567 0.16308
 C567 C 0.14555 0.35682 0.19506
 C568 C 0.13094 0.37585 0.17628
 C569 C 0.14045 0.37804 0.14509
 C570 C 0.16537 0.35985 0.13292
 C571 C 0.17248 0.36054 0.10116
 C572 C 0.15627 0.37855 0.08197
 C573 C 0.13296 0.39698 0.09363
 C574 C 0.12520 0.39741 0.12544
 C575 C 0.10262 0.41738 0.13618
 C576 C 0.08762 0.43543 0.11600
 C577 C 0.09439 0.43419 0.08453
 C578 C 0.11726 0.41499 0.07352
 H579 H 0.21973 0.32450 0.12033
 H580 H 0.17633 0.31959 0.22719
 H581 H 0.24383 0.29284 0.15461
 H582 H 0.13706 0.35569 0.21875
 H583 H 0.11140 0.38814 0.18679
 H584 H 0.18977 0.34686 0.09010
 H585 H 0.16222 0.37808 0.05767
 H586 H 0.09633 0.41984 0.16006
 H587 H 0.07009 0.45019 0.12500
 H588 H 0.12310 0.41426 0.04920
 C589 C 0.65579 0.84233 0.70191
 C590 C 0.66358 0.84571 0.67041
 C591 C 0.68784 0.82816 0.65684
 C592 C 0.70453 0.80885 0.67457
 C593 C 0.69653 0.80590 0.70573
 C594 C 0.67189 0.82269 0.71910
 C595 C 0.69507 0.82977 0.62557
 C596 C 0.67806 0.84798 0.60715
 C597 C 0.65366 0.86589 0.61949
 C598 C 0.64757 0.86549 0.65186
 C599 C 0.62616 0.88512 0.66468
 C600 C 0.61023 0.90395 0.64647
 C601 C 0.61423 0.90370 0.61472
 C602 C 0.63555 0.88448 0.60063
 C603 C 0.63720 0.88439 0.56816
 C604 C 0.61898 0.90289 0.55071
 C605 C 0.59886 0.92219 0.56492
 C606 C 0.59668 0.92253 0.59694
 H607 H 0.63668 0.85406 0.71383
 H608 H 0.72315 0.79566 0.66390
 H609 H 0.66504 0.82070 0.74309
 H610 H 0.71376 0.81653 0.61509
 H611 H 0.68532 0.84794 0.58329
 H612 H 0.62185 0.88689 0.68899
 H613 H 0.59419 0.91872 0.65738
 H614 H 0.65162 0.86996 0.55547
 H615 H 0.62081 0.90221 0.52593
 H616 H 0.58052 0.93717 0.60800
 C617 C 0.78577 0.16618 0.15584
 C618 C 0.82013 0.15579 0.16110
 C619 C 0.84057 0.16651 0.18547
 C620 C 0.82663 0.18624 0.20405
 C621 C 0.79248 0.19610 0.19864
 C622 C 0.77234 0.18596 0.17429
 C623 C 0.87492 0.15760 0.19120
 C624 C 0.88988 0.13849 0.17301
 C625 C 0.87081 0.12715 0.14839
 C626 C 0.83500 0.13543 0.14288
 C627 C 0.81514 0.12288 0.11958
 C628 C 0.82987 0.10342 0.10176
 C629 C 0.86508 0.09584 0.10605
 C630 C 0.88623 0.10763 0.12926
 C631 C 0.92209 0.09955 0.13201
 C632 C 0.93600 0.08054 0.11273
 C633 C 0.91482 0.06881 0.09007
 C634 C 0.87928 0.07654 0.08700
 H635 H 0.76868 0.15978 0.13742
 H636 H 0.84264 0.19408 0.22266
 H637 H 0.74594 0.19330 0.16943
 H638 H 0.89059 0.16563 0.20991
 H639 H 0.91645 0.13274 0.17926
 H640 H 0.78773 0.12736 0.11472
 H641 H 0.81352 0.09435 0.08418
 H642 H 0.94045 0.10787 0.14835
 H643 H 0.96378 0.07541 0.11518
 H644 H 0.86249 0.06745 0.06975
 C645 C 0.28024 0.66387 0.65595
 C646 C 0.31726 0.65895 0.65466
 C647 C 0.33996 0.67433 0.67343
 C648 C 0.32585 0.69305 0.69331
 C649 C 0.28915 0.69749 0.69441
 C650 C 0.26659 0.68286 0.67541
 C651 C 0.37670 0.67110 0.67222
 C652 C 0.39169 0.65323 0.65236
 C653 C 0.37037 0.63737 0.63319
 C654 C 0.33250 0.63963 0.63515
 C655 C 0.31116 0.62223 0.61797
 C656 C 0.32615 0.60362 0.59906
 C657 C 0.36292 0.60188 0.59593
 C658 C 0.38563 0.61897 0.61252
 C659 C 0.42271 0.61706 0.60741
 C660 C 0.43643 0.59855 0.58738
 C661 C 0.41386 0.58128 0.57183
 C662 C 0.37710 0.58308 0.57618
 H663 H 0.26110 0.65378 0.64181
 H664 H 0.34364 0.70453 0.70759
 H665 H 0.23813 0.68602 0.67564
 H666 H 0.39417 0.68270 0.68663
 H667 H 0.42025 0.65192 0.65313
 H668 H 0.28257 0.62203 0.61916
 H669 H 0.30867 0.59054 0.58654
 H670 H 0.44189 0.62977 0.61814
 H671 H 0.46497 0.59750 0.58435
 H672 H 0.35946 0.57001 0.56379
   
