data_POSCAR
  _audit_creation_date              2014-09-24
  _audit_creation_method            'ToBaCCo'
  _symmetry_space_group_name_H-M    'P1'
  _symmetry_Int_Tables_number       1
  _symmetry_cell_setting            triclinic
  loop_
  _symmetry_equiv_pos_as_xyz
 x,y,z
_cell_length_a 31.6360
_cell_length_b 32.0297
_cell_length_c 30.0275
_cell_angle_alpha 90.318700
_cell_angle_beta 90.676800
_cell_angle_gamma 90.528100
loop_
  _atom_site_label
  _atom_site_type_symbol
  _atom_site_fract_x
  _atom_site_fract_y
  _atom_site_fract_z
C1 C 0.17915 0.18781 0.24805
 C2 C 0.21396 0.16619 0.23031
 C3 C 0.23367 0.17902 0.19038
 C4 C 0.21826 0.21521 0.16913
 C5 C 0.18406 0.23708 0.18651
 C6 C 0.16578 0.22402 0.22617
 H7 H 0.22514 0.13869 0.24708
 H8 H 0.23027 0.22490 0.13719
 H9 H 0.14097 0.24300 0.23999
 C10 C -0.19776 0.79127 0.25348
 C11 C -0.23242 0.81188 0.23362
 C12 C -0.24795 0.80020 0.19129
 C13 C -0.22912 0.76698 0.16856
 C14 C -0.19537 0.74539 0.18793
 C15 C -0.18045 0.75718 0.23036
 H16 H -0.24527 0.83958 0.24888
 H17 H -0.24062 0.75795 0.13574
 H18 H -0.15470 0.73969 0.24483
 C19 C -0.21032 0.20799 -0.26313
 C20 C -0.24544 0.18946 -0.24210
 C21 C -0.25783 0.20123 -0.19880
 C22 C -0.23606 0.23484 -0.17799
 C23 C -0.20260 0.25537 -0.19925
 C24 C -0.19012 0.24190 -0.24150
 H25 H -0.26187 0.16414 -0.25877
 H26 H -0.24545 0.24595 -0.14552
 H27 H -0.16181 0.25571 -0.25515
 C28 C 0.18862 0.80657 -0.26361
 C29 C 0.17469 0.76921 -0.24506
 C30 C 0.19623 0.75111 -0.20929
 C31 C 0.23400 0.76974 -0.19331
 C32 C 0.24957 0.80754 -0.21190
 C33 C 0.22634 0.82499 -0.24782
 H34 H 0.14593 0.75462 -0.25783
 H35 H 0.24888 0.75627 -0.16422
 H36 H 0.23701 0.85317 -0.26392
 C37 C 0.19842 1.19781 0.76388
 C38 C 0.23392 1.18063 0.78515
 C39 C 0.25391 1.20110 0.82111
 C40 C 0.23869 1.23984 0.83530
 C41 C 0.20319 1.25792 0.81464
 C42 C 0.18343 1.23678 0.77853
 H43 H 0.24546 1.15053 0.77438
 H44 H 0.25461 1.25587 0.86266
 H45 H 0.15521 1.24954 0.76329
 C46 C 0.80856 0.81889 0.77331
 C47 C 0.76866 0.82991 0.79020
 C48 C 0.74968 0.80737 0.82471
 C49 C 0.77072 0.77290 0.84271
 C50 C 0.81076 0.76064 0.82738
 C51 C 0.82898 0.78394 0.79234
 H52 H 0.75319 0.85793 0.77886
 H53 H 0.75462 0.75477 0.86772
 H54 H 0.85950 0.77507 0.78009
 C55 C 0.20801 0.80149 1.27665
 C56 C 0.18980 0.76412 1.25904
 C57 C 0.21015 0.74111 1.22565
 C58 C 0.24987 0.75430 1.21116
 C59 C 0.26768 0.79203 1.22589
 C60 C 0.24723 0.81492 1.25918
 H61 H 0.15969 0.75265 1.27066
 H62 H 0.26611 0.73606 1.18626
 H63 H 0.26027 0.84517 1.26818
 C64 C 0.81285 1.18910 1.21706
 C65 C 0.77345 1.17575 1.19920
 C66 C 0.75363 1.19710 1.16425
 C67 C 0.77305 1.23262 1.14671
 C68 C 0.81267 1.24704 1.16258
 C69 C 0.83203 1.22500 1.19817
 H70 H 0.75897 1.14694 1.21019
 H71 H 0.75589 1.24980 1.12153
 H72 H 0.86226 1.23564 1.21095
 O73 O 0.53079 0.95987 0.91767
 O74 O 0.45733 0.95807 1.09440
 O75 O 0.58429 0.98274 1.04623
 O76 O 0.44335 0.93232 0.95942
 O77 O 0.53474 0.95402 1.08423
 O78 O 0.45386 0.97575 0.90917
 O79 O 0.43297 0.92661 1.03604
 O80 O 0.56190 0.94420 0.97893
 C81 C 0.55409 0.93577 0.93944
 C82 C 0.43763 0.92843 1.07689
 C83 C 0.57269 0.95641 1.07415
 C84 C 0.44015 0.94102 0.92002
 O85 O 0.46719 1.05104 0.94111
 O86 O 0.53768 1.03760 1.08193
 O87 O 0.60081 1.01258 0.96450
 O88 O 0.40761 1.00677 1.04315
 O89 O 0.45708 1.03734 1.08534
 O90 O 0.54386 1.04213 0.93697
 O91 O 0.41262 1.01420 0.96204
 O92 O 0.55481 1.05263 1.01475
 Co93 Co 0.49869 1.00513 0.93390
 Co94 Co 0.49701 0.99645 1.07876
 Co95 Co 0.55507 0.99781 0.99620
 Co96 Co 0.42958 0.97172 0.99983
 O97 O 0.49279 0.99108 1.00578
 C98 C 0.42832 1.04764 0.94696
 C99 C 0.55499 1.06171 1.05495
 C100 C 0.58364 1.03684 0.93442
 C101 C 0.41920 1.03367 1.07228
 O102 O 0.05324 0.46770 0.07910
 O103 O 0.02905 0.54829 -0.09373
 O104 O 0.06267 0.44237 -0.03006
 O105 O 0.07796 0.56688 0.03515
 O106 O 0.04328 0.47235 -0.08996
 O107 O 0.04489 0.54457 0.09188
 O108 O 0.07285 0.55833 -0.04180
 O109 O 0.02683 0.41863 0.03696
 C110 C 0.05268 0.43054 0.06633
 C111 C 0.06439 0.56117 -0.08144
 C112 C 0.06921 0.45000 -0.06961
 C113 C 0.07490 0.56426 0.07588
 O114 O -0.03454 0.54065 0.08006
 O115 O -0.03894 0.45924 -0.06944
 O116 O -0.04644 0.44443 0.00796
 O117 O -0.00949 0.58864 -0.04071
 O118 O -0.04789 0.53574 -0.06317
 O119 O -0.03042 0.46100 0.07551
 O120 O -0.00447 0.59113 0.04053
 O121 O -0.00633 0.40279 -0.04559
 Co122 Co 0.00866 0.50338 0.07373
 Co123 Co -0.00163 0.50410 -0.07155
 Co124 Co 0.00860 0.44715 -0.01178
 Co125 Co 0.03255 0.57095 -0.00214
 O126 O 0.01369 0.50848 0.00061
 C127 C -0.03246 0.57810 0.06746
 C128 C -0.03291 0.42003 -0.07381
 C129 C -0.05419 0.44250 0.04832
 C130 C -0.04358 0.57411 -0.05684
 O131 O 1.04797 0.06142 0.47793
 O132 O 0.90398 0.04434 0.53846
 O133 O 0.95094 0.01529 0.40617
 O134 O 1.03610 0.06129 0.55835
 O135 O 0.90901 0.04534 0.45448
 O136 O 1.09265 0.02898 0.53863
 O137 O 0.96243 0.07435 0.55688
 O138 O 1.02680 0.02977 0.41707
 C139 C 1.04348 0.06111 0.43650
 C140 C 0.92347 0.07503 0.55411
 C141 C 0.92305 0.04200 0.41572
 C142 C 1.07486 0.05459 0.56595
 O143 O 1.05280 -0.04007 0.52983
 O144 O 0.90467 -0.03481 0.45386
 O145 O 1.03482 -0.05129 0.44873
 O146 O 0.94537 -0.00346 0.58960
 O147 O 0.90857 -0.03655 0.53779
 O148 O 1.08299 -0.00800 0.46101
 O149 O 1.02132 -0.01794 0.58792
 O150 O 0.96368 -0.06328 0.43973
 Co151 Co 1.04784 0.01088 0.50521
 Co152 Co 0.91407 0.00460 0.49653
 Co153 Co 0.99352 -0.01545 0.43333
 Co154 Co 0.99075 0.02640 0.56689
 O155 O 0.98389 0.00510 0.49865
 C156 C 1.04412 -0.04445 0.56952
 C157 C 0.92482 -0.06490 0.43960
 C158 C 1.07215 -0.04129 0.44305
 C159 C 0.91957 -0.03199 0.57775
 C160 C 1.10885 0.13769 0.35514
 C161 C 1.15218 0.13002 0.35237
 C162 C 1.17580 0.14725 0.31788
 C163 C 1.15642 0.17258 0.28526
 C164 C 1.11270 0.18091 0.28969
 C165 C 1.08932 0.16355 0.32415
 C166 C 1.08373 0.11469 0.38617
 C167 C 1.06389 0.09220 0.41028
 H168 H 1.16755 0.10976 0.37625
 H169 H 1.20932 0.14100 0.31754
 H170 H 1.09531 0.19843 0.26498
 H171 H 1.05558 0.16890 0.32544
 C172 C 0.86227 -0.15214 0.36557
 C173 C 0.81861 -0.14863 0.35967
 C174 C 0.79825 -0.16910 0.32416
 C175 C 0.82136 -0.19319 0.29339
 C176 C 0.86511 -0.19854 0.30194
 C177 C 0.88523 -0.17802 0.33749
 C178 C 0.88435 -0.12424 0.39542
 C179 C 0.90306 -0.09837 0.41730
 H180 H 0.80052 -0.12862 0.38139
 H181 H 0.76438 -0.16557 0.32092
 H182 H 0.88513 -0.21542 0.27931
 H183 H 0.91922 -0.18039 0.34141
 C184 C 0.85173 0.15165 0.62794
 C185 C 0.85568 0.19464 0.63477
 C186 C 0.83333 0.21389 0.66905
 C187 C 0.80717 0.19024 0.69770
 C188 C 0.80205 0.14714 0.68827
 C189 C 0.82406 0.12829 0.65387
 C190 C 0.87865 0.12967 0.59796
 C191 C 0.90022 0.10689 0.57609
 H192 H 0.87686 0.21306 0.61450
 H193 H 0.83693 0.24733 0.67290
 H194 H 0.78403 0.12655 0.70935
 H195 H 0.82114 0.09481 0.64903
 C196 C 1.10923 -0.12763 0.64426
 C197 C 1.09167 -0.14737 0.68112
 C198 C 1.11753 -0.16939 0.71050
 C199 C 1.16137 -0.17192 0.70340
 C200 C 1.17867 -0.15257 0.66581
 C201 C 1.15268 -0.13052 0.63640
 C202 C 1.08358 -0.10108 0.61694
 C203 C 1.06389 -0.07657 0.59492
 H204 H 1.05821 -0.14478 0.68784
 H205 H 1.10341 -0.18334 0.73961
 H206 H 1.21222 -0.15426 0.65939
 H207 H 1.16660 -0.11494 0.60811
 C208 C 0.32980 1.10677 1.12964
 C209 C 0.30070 1.08786 1.15789
 C210 C 0.26943 1.11154 1.17826
 C211 C 0.26641 1.15504 1.17081
 C212 C 0.29646 1.17359 1.14225
 C213 C 0.32773 1.14968 1.12199
 C214 C 0.36162 1.08187 1.10859
 C215 C 0.38799 1.06024 1.09158
 H216 H 0.30180 1.05453 1.16377
 H217 H 0.24655 1.09479 1.19794
 H218 H 0.29704 1.20687 1.13639
 H219 H 0.35041 1.16476 1.10046
 C220 C 0.35589 0.87211 0.84564
 C221 C 0.35172 0.82886 0.85055
 C222 C 0.31724 0.80736 0.83117
 C223 C 0.28586 0.82873 0.80640
 C224 C 0.29125 0.87248 0.80149
 C225 C 0.32570 0.89366 0.82081
 C226 C 0.38857 0.89528 0.86936
 C227 C 0.41365 0.91584 0.89106
 H228 H 0.37482 0.81175 0.86993
 H229 H 0.31604 0.77385 0.83510
 H230 H 0.26782 0.89150 0.78509
 H231 H 0.32800 0.92729 0.81754
 C232 C 0.65794 0.87761 1.13045
 C233 C 0.65377 0.86539 1.17484
 C234 C 0.68381 0.83931 1.19436
 C235 C 0.71841 0.82516 1.16964
 C236 C 0.72187 0.83697 1.12477
 C237 C 0.69179 0.86306 1.10532
 C238 C 0.62788 0.90560 1.11086
 C239 C 0.60275 0.92904 1.09429
 H240 H 0.62756 0.87637 1.19449
 H241 H 0.68017 0.83039 1.22885
 H242 H 0.74849 0.82708 1.10511
 H243 H 0.69528 0.87239 1.07092
 C244 C 0.65655 1.12156 0.86882
 C245 C 0.65253 1.12693 0.82289
 C246 C 0.67931 1.15462 0.80079
 C247 C 0.71117 1.17742 0.82417
 C248 C 0.71313 1.17314 0.87104
 C249 C 0.68626 1.14532 0.89296
 C250 C 0.63078 1.09109 0.89109
 C251 C 0.60936 1.06579 0.91026
 H252 H 0.62897 1.10932 0.80399
 H253 H 0.67434 1.15828 0.76534
 H254 H 0.73722 1.18884 0.89092
 H255 H 0.68949 1.14149 0.92867
 C256 C 0.12351 0.33916 0.12147
 C257 C 0.16769 0.33922 0.12569
 C258 C 0.18804 0.30536 0.14574
 C259 C 0.16413 0.27159 0.16182
 C260 C 0.11998 0.27147 0.15616
 C261 C 0.09986 0.30504 0.13620
 C262 C 0.10144 0.37364 0.10226
 C263 C 0.08019 0.40070 0.08620
 H264 H 0.18622 0.36551 0.11407
 H265 H 0.22209 0.30602 0.14983
 H266 H 0.10096 0.24546 0.16767
 H267 H 0.06572 0.30457 0.13267
 C268 C -0.12030 0.34483 -0.13527
 C269 C -0.13428 0.35151 -0.17898
 C270 C -0.16265 0.32338 -0.19919
 C271 C -0.17729 0.28818 -0.17590
 C272 C -0.16420 0.28256 -0.13144
 C273 C -0.13584 0.31074 -0.11129
 C274 C -0.08912 0.37213 -0.11524
 C275 C -0.06304 0.39431 -0.09734
 H276 H -0.12261 0.37794 -0.19771
 H277 H -0.17251 0.32862 -0.23335
 H278 H -0.17446 0.25547 -0.11290
 H279 H -0.12523 0.30537 -0.07738
 C280 C 0.13387 0.64610 -0.14952
 C281 C 0.17757 0.64462 -0.15683
 C282 C 0.19860 0.67912 -0.17533
 C283 C 0.17596 0.71521 -0.18661
 C284 C 0.13235 0.71650 -0.17803
 C285 C 0.11156 0.68226 -0.15983
 C286 C 0.11144 0.61232 -0.12861
 C287 C 0.09047 0.58704 -0.10884
 H288 H 0.19528 0.61697 -0.14826
 H289 H 0.23217 0.67736 -0.18162
 H290 H 0.11422 0.74417 -0.18552
 H291 H 0.07796 0.68413 -0.15349
 C292 C -0.11926 0.65668 0.11959
 C293 C -0.13310 0.69243 0.09740
 C294 C -0.15987 0.72038 0.11885
 C295 C -0.17280 0.71283 0.16276
 C296 C -0.16016 0.67592 0.18399
 C297 C -0.13351 0.64804 0.16250
 C298 C -0.08877 0.62977 0.09959
 C299 C -0.06286 0.60669 0.08429
 H300 H -0.12221 0.69932 0.06415
 H301 H -0.16879 0.74882 0.10198
 H302 H -0.17002 0.66924 0.21765
 H303 H -0.12307 0.62032 0.17983
 C304 C 1.13728 0.12600 0.65932
 C305 C 1.15111 0.10663 0.69841
 C306 C 1.17032 0.13014 0.73247
 C307 C 1.17619 0.17356 0.72804
 C308 C 1.16165 0.19298 0.68890
 C309 C 1.14236 0.16930 0.65472
 C310 C 1.11674 0.10128 0.62486
 C311 C 1.09855 0.07996 0.59726
 H312 H 1.14690 0.07328 0.70266
 H313 H 1.18034 0.11431 0.76251
 H314 H 1.16589 0.22627 0.68444
 H315 H 1.13150 0.18472 0.62474
 C316 C 0.86603 -0.10684 0.67235
 C317 C 0.89109 -0.13000 0.70164
 C318 C 0.87241 -0.15476 0.73449
 C319 C 0.82789 -0.15689 0.73907
 C320 C 0.80320 -0.13345 0.70867
 C321 C 0.82206 -0.10884 0.67589
 C322 C 0.88529 -0.08067 0.63895
 C323 C 0.90108 -0.05854 0.61104
 H324 H 0.92524 -0.12852 0.69951
 H325 H 0.89346 -0.17041 0.75742
 H326 H 0.76904 -0.13492 0.70880
 H327 H 0.80220 -0.09140 0.65314
 C328 C 1.14352 -0.11945 0.36768
 C329 C 1.12085 -0.14792 0.34100
 C330 C 1.14191 -0.17464 0.31189
 C331 C 1.18650 -0.17340 0.30846
 C332 C 1.20887 -0.14505 0.33674
 C333 C 1.18759 -0.11841 0.36583
 C334 C 1.12102 -0.09080 0.39587
 C335 C 1.10012 -0.06750 0.41821
 H336 H 1.08662 -0.14888 0.34197
 H337 H 1.12251 -0.19434 0.29050
 H338 H 1.24304 -0.14377 0.33749
 H339 H 1.20557 -0.09684 0.38671
 C340 C 0.87178 0.11678 0.31924
 C341 C 0.82782 0.11728 0.31461
 C342 C 0.80855 0.14152 0.28167
 C343 C 0.83278 0.16604 0.25204
 C344 C 0.87729 0.16587 0.25799
 C345 C 0.89644 0.14140 0.29106
 C346 C 0.89115 0.09069 0.35282
 C347 C 0.90621 0.06850 0.38126
 H348 H 0.80825 0.09887 0.33660
 H349 H 0.77437 0.14171 0.28072
 H350 H 0.89795 0.18277 0.23591
 H351 H 0.93059 0.14125 0.29419
 C352 C 0.14845 0.36965 -0.13075
 C353 C 0.14936 0.36373 -0.17701
 C354 C 0.16784 0.32786 -0.19506
 C355 C 0.18539 0.29730 -0.16699
 C356 C 0.18480 0.30403 -0.12060
 C357 C 0.16658 0.33985 -0.10274
 C358 C 0.12403 0.40273 -0.11126
 C359 C 0.10080 0.42691 -0.09297
 H360 H 0.13480 0.38623 -0.19905
 H361 H 0.16807 0.32386 -0.23088
 H362 H 0.19706 0.28087 -0.09786
 H363 H 0.16526 0.34354 -0.06689
 C364 C -0.12910 0.35291 0.10248
 C365 C -0.15737 0.32790 0.07804
 C366 C -0.17651 0.29325 0.09779
 C367 C -0.16777 0.28256 0.14274
 C368 C -0.13898 0.30836 0.16684
 C369 C -0.12001 0.34308 0.14689
 C370 C -0.10659 0.38653 0.08125
 C371 C -0.08479 0.41329 0.06483
 H372 H -0.16390 0.33457 0.04330
 H373 H -0.19654 0.27387 0.07664
 H374 H -0.13187 0.30297 0.20163
 H375 H -0.09790 0.36214 0.16611
 C376 C -0.12284 0.65987 -0.11211
 C377 C -0.11562 0.67021 -0.15657
 C378 C -0.13766 0.70289 -0.17671
 C379 C -0.16769 0.72630 -0.15278
 C380 C -0.17501 0.71477 -0.10796
 C381 C -0.15274 0.68211 -0.08797
 C382 C -0.09758 0.62814 -0.09092
 C383 C -0.07435 0.60265 -0.07439
 H384 H -0.09260 0.65312 -0.17573
 H385 H -0.13173 0.70859 -0.21153
 H386 H -0.19625 0.73217 -0.08707
 H387 H -0.15820 0.67485 -0.05329
 C388 C 0.14719 0.64164 0.15361
 C389 C 0.17073 0.67182 0.13119
 C390 C 0.19107 0.70381 0.15487
 C391 C 0.18851 0.70613 0.20162
 C392 C 0.16481 0.67562 0.22411
 C393 C 0.14421 0.64350 0.20015
 C394 C 0.12348 0.61132 0.12785
 C395 C 0.10239 0.58836 0.10449
 H396 H 0.17263 0.67117 0.09517
 H397 H 0.20810 0.72737 0.13636
 H398 H 0.16231 0.67658 0.26003
 H399 H 0.12555 0.62054 0.21778
 C400 C 0.34950 1.13292 0.89139
 C401 C 0.31901 1.15490 0.91515
 C402 C 0.28889 1.17864 0.89236
 C403 C 0.28883 1.18035 0.84552
 C404 C 0.32049 1.15931 0.82211
 C405 C 0.35059 1.13576 0.84493
 C406 C 0.37768 1.10478 0.91382
 C407 C 0.40093 1.07950 0.93039
 H408 H 0.31771 1.15268 0.95110
 H409 H 0.26457 1.19414 0.91119
 H410 H 0.32142 1.16043 0.78609
 H411 H 0.37402 1.11879 0.82621
 C412 C 0.36781 0.85052 1.15316
 C413 C 0.36759 0.85357 1.19972
 C414 C 0.33592 0.83336 1.22393
 C415 C 0.30409 0.81014 1.20164
 C416 C 0.30542 0.80657 1.15490
 C417 C 0.33708 0.82649 1.13096
 C418 C 0.39584 0.87591 1.12738
 C419 C 0.41647 0.89885 1.10447
 H420 H 0.39104 0.87258 1.21715
 H421 H 0.33582 0.83653 1.25984
 H422 H 0.28087 0.78991 1.13649
 H423 H 0.33652 0.82457 1.09491
 C424 C 0.64023 1.14465 1.10610
 C425 C 0.64482 1.14709 1.15247
 C426 C 0.68113 1.16525 1.17155
 C427 C 0.71339 1.18106 1.14439
 C428 C 0.70780 1.17974 1.09781
 C429 C 0.67151 1.16154 1.07883
 C430 C 0.60690 1.11943 1.08677
 C431 C 0.58144 1.09498 1.07143
 H432 H 0.62106 1.13358 1.17388
 H433 H 0.68437 1.16626 1.20748
 H434 H 0.73232 1.19115 1.07602
 H435 H 0.66867 1.15910 1.04291
 C436 C 0.63509 0.85546 0.88080
 C437 C 0.66629 0.83833 0.90843
 C438 C 0.70281 0.82138 0.89011
 C439 C 0.70882 0.82141 0.84372
 C440 C 0.67650 0.83721 0.81607
 C441 C 0.64000 0.85426 0.83452
 C442 C 0.60190 0.87985 0.90030
 C443 C 0.57753 0.90349 0.91772
 H444 H 0.66330 0.83978 0.94432
 H445 H 0.72723 0.81007 0.91242
 H446 H 0.67989 0.83723 0.78023
 H447 H 0.61638 0.86792 0.81277
   
