data_POSCAR
  _audit_creation_date              2014-09-24
  _audit_creation_method            'ToBaCCo'
  _symmetry_space_group_name_H-M    'P1'
  _symmetry_Int_Tables_number       1
  _symmetry_cell_setting            triclinic
  loop_
  _symmetry_equiv_pos_as_xyz
 x,y,z
_cell_length_a 18.3007
_cell_length_b 18.9677
_cell_length_c 34.8346
_cell_angle_alpha 87.010800
_cell_angle_beta 85.387900
_cell_angle_gamma 83.909500
loop_
  _atom_site_label
  _atom_site_type_symbol
  _atom_site_fract_x
  _atom_site_fract_y
  _atom_site_fract_z
O1 O 0.08015 0.55762 1.03454
 O2 O 0.09824 0.43082 0.95554
 O3 O 0.09372 0.56724 0.95994
 O4 O 0.10768 0.41932 1.03038
 O5 O -0.01316 0.41736 1.03564
 O6 O -0.02725 0.56729 0.96218
 O7 O -0.02258 0.42907 0.96120
 O8 O -0.04060 0.55547 1.03729
 Cu9 Cu 0.10675 0.49347 0.99492
 Cu10 Cu -0.03770 0.49210 0.99949
 C11 C 0.01565 0.57878 1.04880
 C12 C 0.03994 0.40857 0.94504
 C13 C 0.03195 0.59279 0.94883
 C14 C 0.05081 0.39285 1.04513
 O15 O 0.55698 0.07488 0.46980
 O16 O 0.40343 0.04734 0.54285
 O17 O 0.54506 0.05091 0.54416
 O18 O 0.41365 0.08149 0.46913
 O19 O 0.42769 -0.03287 0.45794
 O20 O 0.55783 -0.06388 0.53407
 O21 O 0.41613 -0.06688 0.53129
 O22 O 0.57001 -0.03987 0.45976
 Cu23 Cu 0.47837 0.07514 0.50752
 Cu24 Cu 0.49421 -0.06230 0.49473
 C25 C 0.58992 0.02180 0.45245
 C26 C 0.38366 -0.01477 0.54933
 C27 C 0.57385 -0.01150 0.55193
 C28 C 0.39835 0.02975 0.45069
 C29 C 0.02988 -0.03097 0.24614
 C30 C -0.05367 0.02488 0.75963
 C31 C 0.00336 -0.36822 0.07850
 C32 C 0.05925 -0.33510 0.09272
 C33 C 0.04184 -0.27812 0.12023
 N34 N 0.09668 -0.25071 0.13668
 N35 N 0.08113 -0.19896 0.16142
 C36 C 0.01021 -0.17244 0.17051
 N37 N -0.04453 -0.19958 0.15390
 N38 N -0.02901 -0.25145 0.12929
 C39 C -0.00790 -0.11546 0.19790
 C40 C 0.04568 -0.09145 0.21881
 H41 H 0.11629 -0.35059 0.08332
 H42 H -0.06463 -0.09269 0.20222
 H43 H -0.05333 -0.35307 0.08875
 H44 H 0.10240 -0.11349 0.21298
 C45 C 0.06194 0.33284 0.07315
 C46 C 0.00519 0.30014 0.09348
 C47 C 0.02162 0.23942 0.12076
 N48 N -0.03361 0.21128 0.14275
 N49 N -0.01882 0.15636 0.16737
 C50 C 0.05173 0.12746 0.17087
 N51 N 0.10683 0.15549 0.14882
 N52 N 0.09207 0.21043 0.12430
 C53 C 0.06907 0.06608 0.19744
 C54 C 0.01490 0.03724 0.22196
 H55 H -0.05169 0.31951 0.08961
 H56 H 0.12556 0.04228 0.19737
 H57 H 0.11852 0.31376 0.07801
 H58 H -0.04173 0.06020 0.22069
 C59 C 0.32208 -0.02760 0.57767
 C60 C 0.29045 0.02347 0.60297
 C61 C 0.22739 0.01060 0.63045
 N62 N 0.20414 0.05812 0.65771
 N63 N 0.14609 0.04802 0.68222
 C64 C 0.10898 -0.00992 0.68033
 N65 N 0.13215 -0.05741 0.65302
 N66 N 0.19044 -0.04748 0.62861
 C67 C 0.04228 -0.01942 0.70583
 C68 C 0.02053 0.02488 0.73632
 H69 H 0.31282 0.07412 0.60290
 H70 H 0.00856 -0.06023 0.69957
 H71 H 0.30180 -0.07937 0.57896
 H72 H 0.05976 0.05959 0.74405
 C73 C -0.37323 -0.02389 0.58177
 C74 C -0.35206 0.03149 0.60185
 C75 C -0.29750 0.01954 0.63092
 N76 N -0.27769 0.07521 0.64929
 N77 N -0.22778 0.06508 0.67542
 C78 C -0.19594 -0.00120 0.68410
 N79 N -0.21585 -0.05676 0.66578
 N80 N -0.26566 -0.04664 0.63968
 C81 C -0.14032 -0.01422 0.71248
 C82 C -0.11527 0.03947 0.73253
 H83 H -0.37553 0.08542 0.59583
 H84 H -0.11765 -0.06873 0.71735
 H85 H -0.34977 -0.07784 0.58769
 H86 H -0.13623 0.09411 0.72621
 C87 C 0.03184 -0.35041 0.92194
 C88 C -0.03070 -0.31579 0.90627
 C89 C -0.02396 -0.25411 0.87905
 N90 N -0.08300 -0.22362 0.86087
 N91 N -0.07649 -0.16769 0.83643
 C92 C -0.01077 -0.14020 0.82938
 N93 N 0.04800 -0.17057 0.84763
 N94 N 0.04155 -0.22644 0.87191
 C95 C -0.00227 -0.07772 0.80325
 C96 C -0.05921 -0.04552 0.78210
 H97 H -0.08446 -0.33373 0.91388
 H98 H 0.05010 -0.05549 0.80116
 H99 H 0.08495 -0.33210 0.91289
 H100 H -0.11244 -0.06615 0.78621
 C101 C 0.04394 0.35914 0.91355
 C102 C -0.01592 0.32156 0.90844
 C103 C -0.01938 0.27632 0.87584
 N104 N -0.07000 0.22866 0.87796
 N105 N -0.07563 0.18813 0.84848
 C106 C -0.03163 0.19461 0.81549
 N107 N 0.01845 0.24293 0.81316
 N108 N 0.02463 0.28302 0.84284
 C109 C -0.03524 0.14814 0.78333
 C110 C -0.06287 0.08209 0.78925
 H111 H -0.06264 0.32467 0.92969
 H112 H -0.00921 0.16318 0.75554
 H113 H 0.09356 0.35233 0.89440
 H114 H -0.09118 0.07022 0.81703
 C115 C -0.35141 0.03184 0.42529
 C116 C -0.31341 -0.02424 0.40502
 C117 C -0.25049 -0.01460 0.37690
 N118 N -0.21778 -0.07059 0.35697
 N119 N -0.16050 -0.06292 0.33151
 C120 C -0.13374 0.00109 0.32515
 N121 N -0.16637 0.05701 0.34512
 N122 N -0.22370 0.04937 0.37052
 C123 C -0.07075 0.01104 0.29720
 C124 C -0.03630 -0.04278 0.27408
 H125 H -0.33008 -0.07734 0.40977
 H126 H -0.05149 0.06322 0.29428
 H127 H -0.33504 0.08495 0.41998
 H128 H -0.05424 -0.09551 0.27802
 C129 C 0.34550 0.04314 0.42084
 C130 C 0.32890 -0.01074 0.39833
 C131 C 0.27389 0.00063 0.36951
 N132 N 0.26122 -0.05432 0.34846
 N133 N 0.21043 -0.04597 0.32288
 C134 C 0.17023 0.01765 0.31731
 N135 N 0.18310 0.07285 0.33824
 N136 N 0.23405 0.06451 0.36388
 C137 C 0.11206 0.02612 0.29000
 C138 C 0.09613 -0.03128 0.26973
 H139 H 0.35659 -0.06372 0.40222
 H140 H 0.08003 0.07713 0.28678
 H141 H 0.31883 0.09647 0.41670
 H142 H 0.12751 -0.08216 0.27505
   
