data_POSCAR
  _audit_creation_date              2014-09-24
  _audit_creation_method            'ToBaCCo'
  _symmetry_space_group_name_H-M    'P1'
  _symmetry_Int_Tables_number       1
  _symmetry_cell_setting            triclinic
  loop_
  _symmetry_equiv_pos_as_xyz
 x,y,z
_cell_length_a 28.5612
_cell_length_b 28.5358
_cell_length_c 25.3845
_cell_angle_alpha 89.914600
_cell_angle_beta 89.914200
_cell_angle_gamma 89.964600
loop_
  _atom_site_label
  _atom_site_type_symbol
  _atom_site_fract_x
  _atom_site_fract_y
  _atom_site_fract_z
O1 O 0.04363 0.29559 -0.04902
 O2 O -0.04620 0.29782 0.05638
 O3 O 0.04533 0.29410 0.05391
 O4 O -0.04808 0.29925 -0.04706
 O5 O -0.05039 0.22190 -0.04772
 O6 O 0.04171 0.21687 0.05224
 O7 O -0.04890 0.22054 0.05426
 O8 O 0.04024 0.21834 -0.04929
 Cu9 Cu -0.00110 0.30455 0.00364
 Cu10 Cu -0.00471 0.21178 0.00225
 C11 C 0.05759 0.25629 -0.06662
 C12 C -0.06295 0.25927 0.07315
 C13 C 0.05961 0.25435 0.06994
 C14 C -0.06515 0.26115 -0.06444
 O15 O 0.54396 0.80001 0.44706
 O16 O 0.45341 0.80337 0.55177
 O17 O 0.54543 0.80377 0.54897
 O18 O 0.45207 0.80322 0.44819
 O19 O 0.45119 0.72588 0.45041
 O20 O 0.54433 0.72639 0.55028
 O21 O 0.45291 0.72599 0.55271
 O22 O 0.54193 0.72270 0.44949
 Cu23 Cu 0.49857 0.81043 0.49884
 Cu24 Cu 0.49723 0.71760 0.50107
 C25 C 0.55896 0.76043 0.43131
 C26 C 0.43761 0.76484 0.56976
 C27 C 0.56155 0.76504 0.56577
 C28 C 0.43574 0.76437 0.43213
 O29 O 0.95194 0.70798 -0.05445
 O30 O 1.04306 0.70651 0.05006
 O31 O 0.95099 0.70648 0.04942
 O32 O 1.04353 0.70199 -0.05257
 O33 O 1.04597 0.77930 -0.05317
 O34 O 0.95367 0.78371 0.04744
 O35 O 1.04426 0.78380 0.04798
 O36 O 0.95517 0.78515 -0.05478
 Cu37 Cu 0.99693 0.69794 -0.00170
 Cu38 Cu 0.99982 0.79056 -0.00338
 C39 C 0.93795 0.74732 -0.07234
 C40 C 1.05955 0.74537 0.06623
 C41 C 0.93660 0.74598 0.06589
 C42 C 1.06104 0.74002 -0.06968
 O43 O 0.54276 0.20399 0.55543
 O44 O 0.45240 0.20337 0.45074
 O45 O 0.54426 0.19862 0.45286
 O46 O 0.45094 0.20473 0.55381
 O47 O 0.45334 0.28196 0.54998
 O48 O 0.54653 0.27597 0.45074
 O49 O 0.45571 0.28058 0.44832
 O50 O 0.54383 0.28126 0.55177
 Cu51 Cu 0.49728 0.19481 0.50349
 Cu52 Cu 0.49999 0.28758 0.49977
 C53 C 0.55896 0.24314 0.57094
 C54 C 0.43839 0.24236 0.43215
 C55 C 0.56177 0.23647 0.43529
 C56 C 0.43608 0.24451 0.56887
 O57 O 0.70327 0.04501 -0.05153
 O58 O 0.69832 -0.04519 0.05365
 O59 O 0.70278 0.04625 0.05202
 O60 O 0.69813 -0.04674 -0.04968
 O61 O 0.77540 -0.04964 -0.04966
 O62 O 0.77989 0.04148 0.05146
 O63 O 0.77552 -0.04895 0.05217
 O64 O 0.78041 0.04094 -0.05043
 Cu65 Cu 0.69278 0.00030 0.00102
 Cu66 Cu 0.78542 -0.00441 0.00084
 C67 C 0.74295 0.05854 -0.06856
 C68 C 0.73647 -0.06256 0.07063
 C69 C 0.74242 0.05954 0.06916
 C70 C 0.73626 -0.06411 -0.06672
 O71 O 0.19620 0.45713 0.55013
 O72 O 0.20272 0.54705 0.44475
 O73 O 0.19781 0.45541 0.44663
 O74 O 0.20119 0.54891 0.54830
 O75 O 0.27827 0.54415 0.54900
 O76 O 0.27504 0.45220 0.44820
 O77 O 0.27983 0.54281 0.44703
 O78 O 0.27343 0.45341 0.55028
 Cu79 Cu 0.19168 0.50259 0.49732
 Cu80 Cu 0.28423 0.49775 0.49879
 C81 C 0.23408 0.43978 0.56782
 C82 C 0.24261 0.56036 0.42818
 C83 C 0.23612 0.43785 0.43029
 C84 C 0.24061 0.56246 0.56589
 O85 O 0.30364 1.04663 0.04984
 O86 O 0.29922 0.95612 -0.05510
 O87 O 0.30235 1.04810 -0.05426
 O88 O 0.30441 0.95459 0.04659
 O89 O 0.22711 0.95563 0.04890
 O90 O 0.22517 1.04891 -0.05093
 O91 O 0.22202 0.95827 -0.05165
 O92 O 0.22641 1.04703 0.05175
 Cu93 Cu 0.31023 1.00162 -0.00354
 Cu94 Cu 0.21757 1.00290 -0.00001
 C95 C 0.26533 1.06221 0.06870
 C96 C 0.25951 0.94117 -0.07032
 C97 C 0.26334 1.06436 -0.07002
 C98 C 0.26592 0.93836 0.06379
 O99 O 0.79946 0.45348 0.44798
 O100 O 0.79847 0.54474 0.55198
 O101 O 0.80312 0.45276 0.55004
 O102 O 0.80298 0.54573 0.44909
 O103 O 0.72567 0.54597 0.44986
 O104 O 0.72580 0.45197 0.54892
 O105 O 0.72124 0.54291 0.55121
 O106 O 0.72220 0.45499 0.44800
 Cu107 Cu 0.80884 0.49936 0.49974
 Cu108 Cu 0.71613 0.49901 0.49946
 C109 C 0.76040 0.43814 0.43115
 C110 C 0.75914 0.55958 0.56886
 C111 C 0.76448 0.43582 0.56579
 C112 C 0.76431 0.56216 0.43284
 C113 C 0.24894 0.20929 0.21330
 C114 C 0.21270 0.24460 0.21213
 C115 C 0.21721 0.28281 0.24682
 C116 C 0.24978 0.28467 0.28830
 C117 C 0.28585 0.24916 0.28949
 C118 C 0.28117 0.21087 0.25504
 H119 H 0.30380 0.18098 0.26076
 H120 H 0.19436 0.31257 0.24122
 C121 C 0.75130 0.79048 0.21552
 C122 C 0.78733 0.75493 0.21422
 C123 C 0.78318 0.71739 0.25009
 C124 C 0.75053 0.71603 0.29186
 C125 C 0.71449 0.75144 0.29250
 C126 C 0.71951 0.78956 0.25779
 H127 H 0.69729 0.81973 0.26366
 H128 H 0.80597 0.68755 0.24492
 C129 C 0.79066 0.24330 0.21866
 C130 C 0.75449 0.20796 0.21752
 C131 C 0.71725 0.21255 0.25368
 C132 C 0.71648 0.24531 0.29521
 C133 C 0.75253 0.28069 0.29560
 C134 C 0.79057 0.27480 0.26111
 H135 H 0.82115 0.29642 0.26693
 H136 H 0.68710 0.19018 0.24881
 C137 C 0.21430 0.75027 0.20650
 C138 C 0.25293 0.78272 0.20250
 C139 C 0.28650 0.78168 0.24320
 C140 C 0.28715 0.74857 0.28443
 C141 C 0.25485 0.70976 0.28072
 C142 C 0.21853 0.71341 0.24329
 H143 H 0.19212 0.68660 0.24312
 H144 H 0.31322 0.80825 0.24308
 C145 C 0.71281 0.24974 0.71151
 C146 C 0.75129 0.28232 0.70738
 C147 C 0.78470 0.28161 0.74816
 C148 C 0.78565 0.24826 0.78911
 C149 C 0.75363 0.20920 0.78533
 C150 C 0.71718 0.21286 0.74819
 H151 H 0.69082 0.18599 0.74806
 H152 H 0.81117 0.30844 0.74815
 C153 C 0.28664 0.74851 0.71387
 C154 C 0.25066 0.71296 0.71256
 C155 C 0.21322 0.71755 0.74853
 C156 C 0.21232 0.75017 0.79029
 C157 C 0.24819 0.78573 0.79094
 C158 C 0.28618 0.78015 0.75626
 H159 H 0.31663 0.80195 0.76211
 H160 H 0.18316 0.69511 0.74348
 C161 C 0.24661 0.28922 0.71295
 C162 C 0.28290 0.25396 0.71165
 C163 C 0.27820 0.21556 0.74611
 C164 C 0.24578 0.21369 0.78785
 C165 C 0.20948 0.24892 0.78909
 C166 C 0.21394 0.28720 0.75442
 H167 H 0.19102 0.31688 0.76010
 H168 H 0.30097 0.18576 0.74036
 C169 C 0.74979 0.71383 0.70898
 C170 C 0.71628 0.75159 0.70549
 C171 C 0.71644 0.78473 0.74661
 C172 C 0.74997 0.78620 0.78725
 C173 C 0.78964 0.75486 0.78304
 C174 C 0.78674 0.71876 0.74538
 H175 H 0.81420 0.69302 0.74466
 H176 H 0.68907 0.81067 0.74696
 C177 C 0.26457 0.09900 0.10688
 C178 C 0.31168 0.11462 0.13063
 C179 C 0.30750 0.15149 0.16493
 C180 C 0.25634 0.16903 0.17319
 C181 C 0.24202 0.18046 0.11652
 C182 C 0.24457 0.14391 0.08289
 C183 C 0.23363 0.08822 0.15478
 C184 C 0.22996 0.12427 0.18942
 H185 H 0.34536 0.09982 0.11985
 H186 H 0.33818 0.16829 0.18148
 H187 H 0.24026 0.21547 0.10091
 H188 H 0.24060 0.14912 0.04123
 H189 H 0.21782 0.05424 0.16226
 H190 H 0.21122 0.12076 0.22646
 C191 C 0.75683 0.59900 0.60810
 C192 C 0.78065 0.64355 0.58805
 C193 C 0.77888 0.67982 0.62242
 C194 C 0.75168 0.66978 0.67352
 C195 C 0.70409 0.64931 0.65756
 C196 C 0.70653 0.61369 0.62242
 C197 C 0.77975 0.58892 0.66159
 C198 C 0.77659 0.62556 0.69618
 H199 H 0.79908 0.64587 0.55068
 H200 H 0.79622 0.71294 0.61441
 H201 H 0.67197 0.65581 0.67863
 H202 H 0.67563 0.59350 0.61233
 H203 H 0.79392 0.55502 0.67268
 H204 H 0.78678 0.62127 0.73705
 C205 C 0.73676 0.90067 0.10874
 C206 C 0.76900 0.91062 0.15558
 C207 C 0.77210 0.87466 0.19042
 C208 C 0.74410 0.83072 0.17529
 C209 C 0.69334 0.84983 0.16843
 C210 C 0.68965 0.88672 0.13400
 C211 C 0.75464 0.85509 0.08433
 C212 C 0.75675 0.81860 0.11825
 H213 H 0.78578 0.94419 0.16251
 H214 H 0.79120 0.87794 0.22719
 H215 H 0.66244 0.83392 0.18571
 H216 H 0.65622 0.90244 0.12393
 H217 H 0.75639 0.84944 0.04242
 H218 H 0.75582 0.78354 0.10277
 C219 C 0.23376 0.40073 0.60772
 C220 C 0.26478 0.41035 0.65558
 C221 C 0.26733 0.37398 0.69000
 C222 C 0.23999 0.33000 0.67334
 C223 C 0.18930 0.34884 0.66523
 C224 C 0.18621 0.38612 0.63122
 C225 C 0.25270 0.35567 0.58325
 C226 C 0.25419 0.31873 0.61655
 H227 H 0.28134 0.44389 0.66323
 H228 H 0.28586 0.37678 0.72719
 H229 H 0.15812 0.33257 0.68143
 H230 H 0.15301 0.40185 0.62030
 H231 H 0.25665 0.35091 0.54147
 H232 H 0.25501 0.28382 0.60064
 C233 C 0.90039 0.25830 0.11136
 C234 C 0.91063 0.22592 0.15813
 C235 C 0.87473 0.22244 0.19302
 C236 C 0.83062 0.25038 0.17805
 C237 C 0.84937 0.30128 0.17109
 C238 C 0.88613 0.30528 0.13666
 C239 C 0.85497 0.24012 0.08705
 C240 C 0.81854 0.23775 0.12102
 H241 H 0.94423 0.20911 0.16484
 H242 H 0.87806 0.20293 0.22958
 H243 H 0.83326 0.33207 0.18836
 H244 H 0.90155 0.33888 0.12660
 H245 H 0.84944 0.23785 0.04516
 H246 H 0.78352 0.23817 0.10556
 C247 C 0.39824 0.76375 0.60914
 C248 C 0.40799 0.73217 0.65665
 C249 C 0.37138 0.72846 0.69057
 C250 C 0.32716 0.75549 0.67393
 C251 C 0.34519 0.80661 0.66650
 C252 C 0.38263 0.81074 0.63303
 C253 C 0.35377 0.74434 0.58387
 C254 C 0.31659 0.74174 0.61682
 H255 H 0.44166 0.71588 0.66433
 H256 H 0.37411 0.70917 0.72734
 H257 H 0.32819 0.83734 0.68282
 H258 H 0.39781 0.84438 0.62268
 H259 H 0.34946 0.74106 0.54188
 H260 H 0.28194 0.74081 0.60040
 C261 C 0.09909 0.74642 0.10555
 C262 C 0.08869 0.72307 0.15886
 C263 C 0.12542 0.72506 0.19345
 C264 C 0.17004 0.74942 0.17107
 C265 C 0.17945 0.72255 0.11966
 C266 C 0.14316 0.72189 0.08526
 C267 C 0.11471 0.79625 0.12044
 C268 C 0.15034 0.79759 0.15564
 H269 H 0.05457 0.70944 0.16985
 H270 H 0.12094 0.71446 0.23420
 H271 H 0.21212 0.70444 0.11152
 H272 H 0.14506 0.70369 0.04779
 H273 H 0.09497 0.82765 0.11087
 H274 H 0.15711 0.82930 0.17730
 C275 C 0.59814 0.24477 0.61041
 C276 C 0.61360 0.29480 0.62461
 C277 C 0.64906 0.29656 0.65995
 C278 C 0.66872 0.24856 0.67609
 C279 C 0.62408 0.22443 0.69869
 C280 C 0.58750 0.22201 0.66398
 C281 C 0.64225 0.22005 0.59063
 C282 C 0.67837 0.22110 0.62516
 H283 H 0.59369 0.32602 0.61475
 H284 H 0.65535 0.32840 0.68153
 H285 H 0.61953 0.21426 0.73957
 H286 H 0.55334 0.20847 0.67498
 H287 H 0.64430 0.20140 0.55344
 H288 H 0.71105 0.20284 0.61748
 C289 C 0.74597 0.09698 0.89074
 C290 C 0.72081 0.14168 0.90796
 C291 C 0.72275 0.17679 0.87201
 C292 C 0.75168 0.16583 0.82236
 C293 C 0.79913 0.14652 0.84084
 C294 C 0.79633 0.11203 0.87755
 C295 C 0.72470 0.08494 0.83684
 C296 C 0.72816 0.12056 0.80078
 H297 H 0.70109 0.14478 0.94440
 H298 H 0.70414 0.20959 0.87775
 H299 H 0.83161 0.15236 0.82024
 H300 H 0.82721 0.09255 0.88948
 H301 H 0.71138 0.05049 0.82672
 H302 H 0.71909 0.11491 0.75980
 C303 C 0.24611 0.59844 0.38713
 C304 C 0.22099 0.64337 0.40369
 C305 C 0.22329 0.67818 0.36740
 C306 C 0.25250 0.66671 0.31812
 C307 C 0.29977 0.64741 0.33721
 C308 C 0.29661 0.61321 0.37423
 C309 C 0.22516 0.58605 0.33317
 C310 C 0.22898 0.62137 0.29678
 H311 H 0.20110 0.64685 0.43996
 H312 H 0.20485 0.71114 0.37271
 H313 H 0.33245 0.65321 0.31699
 H314 H 0.32735 0.59380 0.38675
 H315 H 0.21177 0.55157 0.32329
 H316 H 0.22011 0.61546 0.25580
 C317 C 0.25643 0.90123 0.89114
 C318 C 0.27906 0.85633 0.91208
 C319 C 0.27673 0.81963 0.87829
 C320 C 0.25030 0.82970 0.82676
 C321 C 0.20305 0.85158 0.84209
 C322 C 0.20599 0.88759 0.87671
 C323 C 0.28006 0.91004 0.83768
 C324 C 0.27645 0.87302 0.80373
 H325 H 0.29727 0.85412 0.94953
 H326 H 0.29352 0.78632 0.88682
 H327 H 0.17126 0.84656 0.82015
 H328 H 0.17561 0.90903 0.88573
 H329 H 0.29552 0.94329 0.82632
 H330 H 0.28791 0.87608 0.76311
 C331 C 0.75868 0.39773 0.39327
 C332 C 0.78090 0.35326 0.41588
 C333 C 0.77948 0.31601 0.38281
 C334 C 0.75421 0.32518 0.33037
 C335 C 0.70661 0.34718 0.34369
 C336 C 0.70862 0.38373 0.37755
 C337 C 0.78361 0.40575 0.34044
 C338 C 0.78087 0.36816 0.30717
 H339 H 0.79830 0.35176 0.45385
 H340 H 0.79627 0.28294 0.39245
 H341 H 0.67542 0.34176 0.32077
 H342 H 0.67798 0.40528 0.38498
 H343 H 0.79927 0.43886 0.32886
 H344 H 0.79325 0.37061 0.26685
 C345 C 0.09647 0.25429 0.89326
 C346 C 0.14125 0.27804 0.91252
 C347 C 0.17691 0.27690 0.87724
 C348 C 0.16623 0.25016 0.82610
 C349 C 0.14600 0.20230 0.84202
 C350 C 0.11098 0.20422 0.87807
 C351 C 0.08562 0.27790 0.84020
 C352 C 0.12177 0.27534 0.80478
 H353 H 0.14399 0.29640 0.94982
 H354 H 0.20984 0.29479 0.88443
 H355 H 0.15170 0.17055 0.82006
 H356 H 0.09084 0.17320 0.88809
 H357 H 0.05175 0.29273 0.83025
 H358 H 0.11749 0.28710 0.76441
 C359 C 0.59892 0.75787 0.39276
 C360 C 0.64341 0.78105 0.41374
 C361 C 0.68015 0.77932 0.37988
 C362 C 0.67052 0.75287 0.32831
 C363 C 0.64937 0.70523 0.34351
 C364 C 0.61328 0.70760 0.37818
 C365 C 0.58984 0.78154 0.33941
 C366 C 0.62690 0.77850 0.30540
 H367 H 0.64534 0.79911 0.45129
 H368 H 0.71320 0.79646 0.38846
 H369 H 0.65510 0.67346 0.32165
 H370 H 0.59237 0.67687 0.38728
 H371 H 0.55639 0.79657 0.32814
 H372 H 0.62372 0.78999 0.26480
 C373 C 0.90155 0.74934 0.88891
 C374 C 0.88584 0.79946 0.87463
 C375 C 0.85159 0.80131 0.83777
 C376 C 0.83297 0.75341 0.82009
 C377 C 0.87861 0.73005 0.79909
 C378 C 0.91408 0.72746 0.83533
 C379 C 0.85701 0.72390 0.90634
 C380 C 0.82216 0.72494 0.87016
 H381 H 0.90477 0.83090 0.88578
 H382 H 0.84559 0.83340 0.81641
 H383 H 0.88469 0.72058 0.75829
 H384 H 0.94871 0.71441 0.82544
 H385 H 0.85385 0.70451 0.94302
 H386 H 0.78966 0.70586 0.87597
 C387 C 0.39936 0.24389 0.39240
 C388 C 0.38527 0.29389 0.37622
 C389 C 0.35009 0.29564 0.34055
 C390 C 0.32927 0.24780 0.32599
 C391 C 0.37337 0.22183 0.30472
 C392 C 0.40969 0.21937 0.33980
 C393 C 0.35448 0.22089 0.41269
 C394 C 0.31860 0.22192 0.37780
 H395 H 0.40589 0.32483 0.38507
 H396 H 0.34482 0.32702 0.31771
 H397 H 0.37740 0.20961 0.26453
 H398 H 0.44337 0.20413 0.32979
 H399 H 0.35182 0.20301 0.45035
 H400 H 0.28557 0.20442 0.38569
 C401 C 0.73645 0.89643 0.89405
 C402 C 0.75922 0.85258 0.91738
 C403 C 0.76056 0.81550 0.88429
 C404 C 0.74302 0.82582 0.82840
 C405 C 0.69195 0.84195 0.84000
 C406 C 0.68865 0.87915 0.87389
 C407 C 0.76445 0.90752 0.84425
 C408 C 0.76725 0.87120 0.80996
 H409 H 0.76735 0.84873 0.95859
 H410 H 0.76371 0.78089 0.90064
 H411 H 0.66088 0.82347 0.82696
 H412 H 0.65525 0.89272 0.88746
 H413 H 0.77907 0.94178 0.83551
 H414 H 0.78412 0.87479 0.77180
 C415 C 0.23666 0.39791 0.39141
 C416 C 0.25732 0.35385 0.41651
 C417 C 0.25879 0.31621 0.38430
 C418 C 0.24338 0.32593 0.32751
 C419 C 0.19250 0.34383 0.33640
 C420 C 0.18912 0.38164 0.36944
 C421 C 0.26669 0.40727 0.34256
 C422 C 0.26960 0.37022 0.30912
 H423 H 0.26410 0.35052 0.45802
 H424 H 0.26102 0.28180 0.40134
 H425 H 0.16147 0.32663 0.32122
 H426 H 0.15572 0.39685 0.38060
 H427 H 0.28258 0.44094 0.33376
 H428 H 0.28779 0.37260 0.27162
 C429 C 0.26147 0.10187 0.89263
 C430 C 0.24016 0.14586 0.91721
 C431 C 0.23782 0.18308 0.88438
 C432 C 0.25297 0.17299 0.82760
 C433 C 0.30422 0.15619 0.83610
 C434 C 0.30858 0.11884 0.86964
 C435 C 0.23125 0.09140 0.84427
 C436 C 0.22739 0.12807 0.81028
 H437 H 0.23335 0.14959 0.95863
 H438 H 0.23499 0.21761 0.90085
 H439 H 0.33481 0.17383 0.82028
 H440 H 0.34245 0.10452 0.88044
 H441 H 0.21583 0.05739 0.83620
 H442 H 0.20884 0.12502 0.77314
 C443 C 0.76326 0.60279 0.39506
 C444 C 0.74264 0.64659 0.42098
 C445 C 0.74061 0.68442 0.38860
 C446 C 0.75643 0.67506 0.33159
 C447 C 0.80732 0.65739 0.34044
 C448 C 0.81076 0.61938 0.37313
 C449 C 0.73329 0.59371 0.34626
 C450 C 0.73043 0.63088 0.31300
 H451 H 0.73730 0.64974 0.46321
 H452 H 0.73764 0.71883 0.40549
 H453 H 0.83833 0.67494 0.32553
 H454 H 0.84424 0.60437 0.38428
 H455 H 0.71744 0.56008 0.33730
 H456 H 0.71231 0.62866 0.27551
 C457 C 0.09936 0.73971 0.89420
 C458 C 0.14385 0.75913 0.91974
 C459 C 0.18144 0.76026 0.88705
 C460 C 0.17138 0.74487 0.83013
 C461 C 0.15257 0.69436 0.83907
 C462 C 0.11469 0.69174 0.87210
 C463 C 0.09075 0.76998 0.84529
 C464 C 0.12777 0.77197 0.81181
 H465 H 0.14753 0.76424 0.96195
 H466 H 0.21601 0.76218 0.90365
 H467 H 0.16923 0.66295 0.82393
 H468 H 0.09900 0.65853 0.88323
 H469 H 0.05746 0.78657 0.83631
 H470 H 0.12573 0.79007 0.77422
 C471 C 0.60256 0.23578 0.39778
 C472 C 0.64651 0.25600 0.42357
 C473 C 0.68450 0.25690 0.39146
 C474 C 0.67523 0.24046 0.33473
 C475 C 0.65668 0.18995 0.34449
 C476 C 0.61844 0.18762 0.37702
 C477 C 0.59426 0.26520 0.34825
 C478 C 0.63162 0.26694 0.31524
 H479 H 0.64957 0.26168 0.46574
 H480 H 0.71881 0.25908 0.40865
 H481 H 0.67370 0.15845 0.33012
 H482 H 0.60273 0.15458 0.38871
 H483 H 0.56093 0.28136 0.33859
 H484 H 0.62982 0.28437 0.27724
 C485 C 0.89548 0.26112 0.89625
 C486 C 0.87863 0.30903 0.87564
 C487 C 0.84156 0.30591 0.84162
 C488 C 0.82514 0.25488 0.83036
 C489 C 0.87033 0.23017 0.81230
 C490 C 0.90652 0.23282 0.84671
 C491 C 0.85143 0.23882 0.91960
 C492 C 0.81450 0.23758 0.88633
 H493 H 0.89241 0.34240 0.88895
 H494 H 0.82340 0.33709 0.82816
 H495 H 0.87388 0.21300 0.77434
 H496 H 0.94065 0.21781 0.83825
 H497 H 0.84732 0.23107 0.96089
 H498 H 0.77982 0.23439 0.90241
 C499 C 0.39645 0.76293 0.39254
 C500 C 0.37920 0.81044 0.37113
 C501 C 0.34235 0.80666 0.33696
 C502 C 0.32641 0.75543 0.32614
 C503 C 0.37194 0.73087 0.30878
 C504 C 0.40796 0.73418 0.34344
 C505 C 0.35246 0.74045 0.41587
 C506 C 0.31569 0.73850 0.38231
 H507 H 0.39252 0.84410 0.38409
 H508 H 0.32396 0.83757 0.32310
 H509 H 0.37581 0.71323 0.27114
 H510 H 0.44222 0.71926 0.33551
 H511 H 0.34827 0.73299 0.45724
 H512 H 0.28100 0.73489 0.39819
 C513 C 0.26515 0.89686 0.10032
 C514 C 0.31295 0.87798 0.11859
 C515 C 0.30963 0.83934 0.15033
 C516 C 0.25860 0.82348 0.16227
 C517 C 0.23516 0.86828 0.18344
 C518 C 0.23792 0.90601 0.15109
 C519 C 0.24166 0.85440 0.07465
 C520 C 0.23975 0.81591 0.10614
 H521 H 0.34637 0.89157 0.10511
 H522 H 0.34061 0.81978 0.16171
 H523 H 0.21865 0.87036 0.22194
 H524 H 0.22367 0.93997 0.16183
 H525 H 0.23433 0.85236 0.03273
 H526 H 0.23498 0.78206 0.08842
 C527 C 0.76357 0.39490 0.60310
 C528 C 0.81135 0.37671 0.62235
 C529 C 0.80805 0.33860 0.65486
 C530 C 0.75704 0.32255 0.66653
 C531 C 0.73312 0.36753 0.68651
 C532 C 0.73581 0.40470 0.65334
 C533 C 0.74067 0.35184 0.57805
 C534 C 0.73878 0.31389 0.61035
 H535 H 0.84480 0.39030 0.60894
 H536 H 0.83907 0.31948 0.66699
 H537 H 0.71644 0.37019 0.72487
 H538 H 0.72127 0.43875 0.66321
 H539 H 0.73383 0.34901 0.53609
 H540 H 0.73459 0.27969 0.59328
 C541 C 0.74543 0.09776 0.10999
 C542 C 0.72169 0.08626 0.16287
 C543 C 0.72526 0.12143 0.19931
 C544 C 0.75157 0.16571 0.17920
 C545 C 0.79876 0.14451 0.16248
 C546 C 0.79584 0.11051 0.12542
 C547 C 0.72285 0.14368 0.09210
 C548 C 0.72503 0.17844 0.12845
 H549 H 0.70605 0.05253 0.17194
 H550 H 0.71359 0.11635 0.23960
 H551 H 0.83045 0.14812 0.18499
 H552 H 0.82621 0.08955 0.11503
 H553 H 0.70442 0.14781 0.05500
 H554 H 0.70773 0.21192 0.12245
 C555 C 0.24312 0.60133 0.60626
 C556 C 0.29332 0.61455 0.62207
 C557 C 0.29578 0.64909 0.65862
 C558 C 0.24834 0.67026 0.67459
 C559 C 0.22225 0.68224 0.62330
 C560 C 0.22051 0.64699 0.58746
 C561 C 0.21897 0.59042 0.65905
 C562 C 0.22206 0.62606 0.69500
 H563 H 0.32394 0.59386 0.61197
 H564 H 0.32747 0.65370 0.68090
 H565 H 0.20511 0.71568 0.61647
 H566 H 0.20253 0.65065 0.55002
 H567 H 0.20338 0.55674 0.66847
 H568 H 0.21004 0.62137 0.73522
 C569 C 0.89818 0.74831 0.10673
 C570 C 0.90971 0.72418 0.15938
 C571 C 0.87433 0.72694 0.19577
 C572 C 0.82984 0.75293 0.17590
 C573 C 0.85055 0.80057 0.15978
 C574 C 0.88473 0.79843 0.12272
 C575 C 0.85268 0.72531 0.08849
 C576 C 0.81775 0.72673 0.12477
 H577 H 0.94358 0.70886 0.16838
 H578 H 0.87939 0.71492 0.23592
 H579 H 0.84696 0.83185 0.18305
 H580 H 0.90554 0.82907 0.11299
 H581 H 0.84900 0.70707 0.05122
 H582 H 0.78465 0.70887 0.11855
 C583 C 0.39663 0.24743 0.60825
 C584 C 0.40685 0.22420 0.66167
 C585 C 0.37047 0.22730 0.69666
 C586 C 0.32632 0.25259 0.67470
 C587 C 0.34708 0.30018 0.65844
 C588 C 0.38239 0.29771 0.62272
 C589 C 0.35182 0.22387 0.58876
 C590 C 0.31582 0.22566 0.62361
 H591 H 0.44055 0.20930 0.67219
 H592 H 0.37443 0.21595 0.73722
 H593 H 0.34231 0.33191 0.68063
 H594 H 0.40317 0.32837 0.61297
 H595 H 0.34928 0.20519 0.55166
 H596 H 0.28286 0.20790 0.61627
 C597 C 0.09911 0.25141 0.10912
 C598 C 0.11374 0.20107 0.12307
 C599 C 0.14908 0.19848 0.15861
 C600 C 0.16939 0.24607 0.17529
 C601 C 0.17975 0.27360 0.12444
 C602 C 0.14375 0.27547 0.08969
 C603 C 0.08869 0.27402 0.16276
 C604 C 0.12506 0.27081 0.19762
 H605 H 0.09342 0.17028 0.11279
 H606 H 0.15462 0.16641 0.18005
 H607 H 0.21264 0.29156 0.11712
 H608 H 0.14620 0.29445 0.05270
 H609 H 0.05490 0.28863 0.17349
 H610 H 0.12104 0.28177 0.23829
 C611 C 0.60283 0.76389 0.60256
 C612 C 0.62137 0.81161 0.62149
 C613 C 0.65974 0.80815 0.65342
 C614 C 0.67578 0.75705 0.66496
 C615 C 0.63098 0.73319 0.68556
 C616 C 0.59348 0.73614 0.65300
 C617 C 0.64557 0.74072 0.57693
 C618 C 0.68381 0.73861 0.60867
 H619 H 0.60771 0.84514 0.60838
 H620 H 0.67898 0.83912 0.66542
 H621 H 0.62875 0.71616 0.72377
 H622 H 0.55957 0.72156 0.66331
 H623 H 0.64790 0.73356 0.53498
 H624 H 0.71775 0.73366 0.59121
   
