data_POSCAR
  _audit_creation_date              2014-09-24
  _audit_creation_method            'ToBaCCo'
  _symmetry_space_group_name_H-M    'P1'
  _symmetry_Int_Tables_number       1
  _symmetry_cell_setting            triclinic
  loop_
  _symmetry_equiv_pos_as_xyz
 x,y,z
_cell_length_a 15.4944
_cell_length_b 15.5237
_cell_length_c 16.8607
_cell_angle_alpha 89.536100
_cell_angle_beta 91.037600
_cell_angle_gamma 90.440800
loop_
  _atom_site_label
  _atom_site_type_symbol
  _atom_site_fract_x
  _atom_site_fract_y
  _atom_site_fract_z
O1 O 0.45503 0.89456 -0.56804
 O2 O 0.61637 0.98279 -0.42711
 O3 O 0.46950 0.90136 -0.41324
 O4 O 0.60404 0.97147 -0.58022
 O5 O 0.53459 1.09522 -0.58493
 O6 O 0.39999 1.02507 -0.41746
 O7 O 0.54767 1.10688 -0.42976
 O8 O 0.38649 1.01888 -0.57037
 Cu9 Cu 0.54281 0.92491 -0.49664
 Cu10 Cu 0.46084 1.07431 -0.50066
 C11 C 0.39380 0.94185 -0.59359
 C12 C 0.60925 1.06011 -0.40424
 C13 C 0.41185 0.95084 -0.38710
 C14 C 0.59153 1.04503 -0.61150
 O15 O -0.53202 1.40062 0.08848
 O16 O -0.46479 1.62163 0.04460
 O17 O -0.61265 1.54806 0.05353
 O18 O -0.38498 1.48047 0.06483
 O19 O -0.39381 1.44835 -0.06255
 O20 O -0.62047 1.51137 -0.07274
 O21 O -0.47489 1.59546 -0.08401
 O22 O -0.54268 1.37220 -0.03944
 Cu23 Cu -0.49886 1.51435 0.07616
 Cu24 Cu -0.50760 1.47893 -0.07768
 C25 C -0.54982 1.34894 0.03257
 C26 C -0.45769 1.64610 -0.02674
 C27 C -0.65492 1.54195 -0.01174
 C28 C -0.35086 1.45329 0.00200
 O29 O -0.02424 0.38597 0.42670
 O30 O -0.09999 0.54203 0.57312
 O31 O -0.10605 0.53179 0.41787
 O32 O -0.02208 0.39395 0.57997
 O33 O 0.10189 0.46517 0.57828
 O34 O 0.01785 0.60305 0.41576
 O35 O 0.02431 0.61235 0.56925
 O36 O 0.10017 0.45620 0.42309
 Cu37 Cu -0.07582 0.45684 0.49979
 Cu38 Cu 0.07375 0.54086 0.49583
 C39 C 0.05143 0.39476 0.40009
 C40 C -0.05092 0.60309 0.59674
 C41 C -0.05846 0.59077 0.38920
 C42 C 0.05393 0.40639 0.60697
 O43 O -0.19673 1.08554 -0.12109
 O44 O 0.21297 0.92047 -0.09523
 O45 O 0.04778 1.11691 -0.20037
 O46 O -0.02475 0.89168 -0.20982
 O47 O -0.07456 0.79432 -0.11651
 O48 O 0.08366 1.20966 -0.09832
 O49 O 0.12389 0.96479 -0.19879
 O50 O -0.09601 1.04513 -0.21287
 Zr51 Zr 0.00943 1.00206 -0.14175
 O52 O 0.04950 0.89929 -0.07241
 O53 O -0.04004 1.10041 -0.07492
 C54 C -0.16976 1.07689 -0.19286
 C55 C 0.19559 0.93375 -0.16985
 C56 C 0.07434 1.19054 -0.17268
 C57 C -0.05804 0.81799 -0.18852
 H58 H 0.15521 1.06885 -0.09462
 O59 O 0.10531 1.04557 -0.06537
 H60 H -0.14034 0.93533 -0.11867
 O61 O -0.09504 0.95524 -0.08098
 O62 O 0.20000 0.91522 0.11736
 O63 O -0.21471 1.07076 0.09152
 O64 O 0.18730 1.16275 0.01830
 O65 O 0.02848 0.74979 -0.00971
 O66 O -0.18822 0.83354 -0.01497
 O67 O -0.02882 1.24671 0.00258
 O68 O 0.02959 1.10138 0.20790
 O69 O -0.05219 0.88082 0.19811
 O70 O 0.07873 1.19893 0.11457
 O71 O -0.08860 0.78828 0.09600
 O72 O 0.24824 1.02759 0.02401
 O73 O -0.16363 1.18441 -0.01288
 O74 O -0.24926 0.96853 -0.02286
 O75 O 0.16402 0.81098 0.00461
 O76 O 0.09922 0.95528 0.20920
 O77 O -0.12540 1.02661 0.19503
 Zr78 Zr 0.14103 0.94441 0.00727
 Zr79 Zr -0.14092 1.05121 -0.01061
 Zr80 Zr 0.05405 1.13904 0.00503
 Zr81 Zr -0.05443 0.85689 -0.00758
 Zr82 Zr -0.00900 0.99342 0.13885
 O83 O -0.10603 0.95016 0.06307
 O84 O 0.09582 1.04072 0.07835
 C85 C 0.17394 0.92572 0.18913
 C86 C -0.19784 1.05590 0.16599
 C87 C 0.25190 1.11090 0.02716
 C88 C 0.11187 0.74595 -0.00418
 C89 C -0.25324 0.88512 -0.02243
 C90 C -0.11210 1.25007 -0.00569
 C91 C 0.06425 1.17439 0.18672
 C92 C -0.08094 0.80798 0.17044
 H93 H -0.07267 1.14148 0.10257
 O94 O -0.04931 1.09541 0.06918
 H95 H 0.05937 0.84699 0.10493
 O96 O 0.04000 0.89585 0.07135
 N97 N 0.28595 0.83093 0.24845
 N98 N 0.34430 0.83490 0.30638
 C99 C 0.33241 0.90806 0.34699
 C100 C 0.26221 0.95174 0.31466
 C101 C 0.23509 0.90070 0.25208
 H102 H 0.23950 1.01525 0.32963
 H103 H 0.28353 0.78311 0.20521
 H104 H 0.39423 0.79075 0.31477
 N105 N -0.32813 1.13515 0.20798
 N106 N -0.38274 1.13340 0.26727
 C107 C -0.35809 1.07158 0.31923
 C108 C -0.28363 1.03301 0.29245
 C109 C -0.26696 1.07530 0.22159
 H110 H -0.24876 0.97958 0.31894
 H111 H -0.33344 1.17612 0.15870
 H112 H -0.43747 1.17200 0.27047
 N113 N -0.27574 1.17632 -0.25507
 N114 N -0.33901 1.17098 -0.31474
 C115 C -0.33163 1.09337 -0.34912
 C116 C -0.26259 1.04923 -0.31476
 C117 C -0.23003 1.10298 -0.25609
 H118 H -0.24349 0.98355 -0.32596
 H119 H -0.26996 1.22597 -0.21384
 H120 H -0.38702 1.21674 -0.32533
 N121 N 0.32460 0.85299 -0.21267
 N122 N 0.38128 0.85720 -0.27022
 C123 C 0.35929 0.92210 -0.31993
 C124 C 0.28428 0.95997 -0.29372
 C125 C 0.26456 0.91411 -0.22543
 H126 H 0.25121 1.01541 -0.31854
 H127 H 0.32800 0.80979 -0.16489
 H128 H 0.43554 0.81802 -0.27374
 N129 N 0.36523 1.15896 0.12032
 N130 N 0.41779 1.23223 0.12367
 C131 C 0.41885 1.26706 0.05029
 C132 C 0.36939 1.21700 -0.00103
 C133 C 0.33491 1.15167 0.04527
 H134 H 0.34910 1.23421 -0.06087
 H135 H 0.34145 1.12662 0.17002
 H136 H 0.44349 1.25882 0.17577
 N137 N 0.13708 0.61052 -0.07451
 N138 N 0.20698 0.55499 -0.07951
 C139 C 0.26125 0.57243 -0.01824
 C140 C 0.22777 0.63772 0.02705
 C141 C 0.15181 0.66166 -0.01158
 H142 H 0.26075 0.67226 0.07437
 H143 H 0.09053 0.61969 -0.11933
 H144 H 0.21761 0.51334 -0.12666
 N145 N -0.38077 0.84615 -0.10517
 N146 N -0.43322 0.77855 -0.10900
 C147 C -0.42388 0.73277 -0.04133
 C148 C -0.36371 0.77262 0.00744
 C149 C -0.33701 0.84364 -0.03530
 H150 H -0.33469 0.74699 0.06150
 H151 H -0.36899 0.88799 -0.15266
 H152 H -0.47026 0.76152 -0.15888
 N153 N -0.13389 1.39507 0.05133
 N154 N -0.19985 1.44832 0.05607
 C155 C -0.26194 1.42252 0.00440
 C156 C -0.23468 1.35048 -0.03484
 C157 C -0.15391 1.33405 -0.00251
 H158 H -0.27290 1.30927 -0.07354
 H159 H -0.08011 1.39592 0.08960
 H160 H -0.20405 1.49799 0.09723
 N161 N 0.15958 1.28739 0.24413
 N162 N 0.15615 1.34604 0.30023
 C163 C 0.08260 1.33443 0.34044
 C164 C 0.03795 1.26397 0.30961
 C165 C 0.08902 1.23643 0.24832
 H166 H -0.02568 1.24079 0.32507
 H167 H 0.20793 1.28450 0.20185
 H168 H 0.20150 1.39551 0.30811
 N169 N 0.15535 1.32053 -0.21766
 N170 N 0.15055 1.37716 -0.27649
 C171 C 0.08592 1.35341 -0.32637
 C172 C 0.04897 1.27747 -0.29901
 C173 C 0.09489 1.25899 -0.22989
 H174 H -0.00678 1.24357 -0.32312
 H175 H 0.19791 1.32534 -0.16910
 H176 H 0.18835 1.43301 -0.28021
 N177 N -0.15703 0.70953 -0.24734
 N178 N -0.15516 0.64905 -0.30783
 C179 C -0.07954 0.65894 -0.34514
 C180 C -0.03292 0.72694 -0.31130
 C181 C -0.08346 0.75609 -0.25007
 H182 H 0.03172 0.74824 -0.32550
 H183 H -0.20564 0.71420 -0.20549
 H184 H -0.20222 0.60163 -0.31784
 N185 N -0.16264 0.67838 0.21571
 N186 N -0.15680 0.62106 0.27394
 C187 C -0.09147 0.64436 0.32328
 C188 C -0.05527 0.72076 0.29626
 C189 C -0.10229 0.74001 0.22789
 H190 H 0.00096 0.75430 0.31984
 H191 H -0.20553 0.67376 0.16738
 H192 H -0.19428 0.56499 0.27749
   
