data_POSCAR
  _audit_creation_date              2014-09-24
  _audit_creation_method            'ToBaCCo'
  _symmetry_space_group_name_H-M    'P1'
  _symmetry_Int_Tables_number       1
  _symmetry_cell_setting            triclinic
  loop_
  _symmetry_equiv_pos_as_xyz
 x,y,z
_cell_length_a 43.7297
_cell_length_b 43.7237
_cell_length_c 43.7115
_cell_angle_alpha 89.996000
_cell_angle_beta 89.963500
_cell_angle_gamma 90.008900
loop_
  _atom_site_label
  _atom_site_type_symbol
  _atom_site_fract_x
  _atom_site_fract_y
  _atom_site_fract_z
C1 C 0.20271 0.52330 1.03780
 H2 H 0.20199 0.54081 1.02033
 C3 C 0.18191 0.52406 1.06203
 H4 H 0.16516 0.54229 1.06327
 C5 C 0.22481 0.47762 1.05699
 H6 H 0.24112 0.45923 1.05460
 C7 C 0.20441 0.47749 1.08161
 H8 H 0.20528 0.45910 1.09822
 N9 N 0.22369 0.50041 1.03579
 C10 C 0.29618 0.53690 0.97777
 H11 H 0.29692 0.51939 0.96030
 C12 C 0.31695 0.56114 0.97694
 H13 H 0.33372 0.56239 0.95874
 C14 C 0.27404 0.55620 1.02342
 H15 H 0.25773 0.55386 1.04183
 C16 C 0.29444 0.58082 1.02346
 H17 H 0.29360 0.59751 1.04176
 Zn18 Zn 0.24944 0.50015 1.00098
 N19 N 0.27519 0.53494 1.00068
 C20 C 0.22489 0.52258 0.94492
 N21 N 0.22371 0.49986 0.96619
 C22 C 0.20274 0.47696 0.96422
 C23 C 0.18203 0.47611 0.93995
 C24 C 0.20456 0.52260 0.92025
 C25 C 0.29616 0.46337 1.02413
 C26 C 0.31693 0.43914 1.02489
 C27 C 0.29445 0.41955 0.97834
 C28 C 0.27406 0.44416 0.97845
 N29 N 0.27519 0.46537 1.00123
 H30 H 0.24118 0.54099 0.94726
 H31 H 0.20197 0.45949 0.98175
 H32 H 0.16527 0.45790 0.93867
 H33 H 0.20543 0.54088 0.90355
 H34 H 0.29690 0.48084 1.04164
 H35 H 0.33370 0.43785 1.04308
 H36 H 0.29363 0.40291 0.96000
 H37 H 0.25776 0.44654 0.96006
 C38 C 0.31611 0.58324 1.00004
 C39 C 0.18271 0.50089 1.08410
 C40 C 0.31611 0.41709 1.00174
 C41 C 0.18291 0.49918 0.91782
 C42 C 0.79664 0.52341 -0.03629
 H43 H 0.79744 0.54085 -0.01875
 C44 C 0.81739 0.52421 -0.06056
 H45 H 0.83420 0.54237 -0.06182
 C46 C 0.77441 0.47784 -0.05560
 H47 H 0.75808 0.45946 -0.05325
 C48 C 0.79477 0.47778 -0.08026
 H49 H 0.79389 0.45949 -0.09696
 N50 N 0.77562 0.50054 -0.03432
 C51 C 0.70331 0.53701 0.02391
 H52 H 0.70257 0.51949 0.04137
 C53 C 0.68255 0.56125 0.02478
 H54 H 0.66580 0.56250 0.04301
 C55 C 0.72538 0.55633 -0.02177
 H56 H 0.74164 0.55398 -0.04021
 C57 C 0.70500 0.58095 -0.02176
 H58 H 0.70581 0.59764 -0.04007
 Zn59 Zn 0.74992 0.50021 0.00052
 N60 N 0.72425 0.53505 0.00096
 C61 C 0.77465 0.52242 0.05661
 N62 N 0.77571 0.49975 0.03527
 C63 C 0.79664 0.47680 0.03711
 C64 C 0.81744 0.47586 0.06131
 C65 C 0.79507 0.52234 0.08119
 C66 C 0.70308 0.46364 -0.02271
 C67 C 0.68229 0.43944 -0.02358
 C68 C 0.70481 0.41955 0.02281
 C69 C 0.72523 0.44414 0.02283
 N70 N 0.72409 0.46548 0.00017
 H71 H 0.75839 0.54086 0.05435
 H72 H 0.79731 0.45939 0.01954
 H73 H 0.83417 0.45763 0.06247
 H74 H 0.79431 0.54059 0.09793
 H75 H 0.70235 0.48122 -0.04012
 H76 H 0.66550 0.43826 -0.04176
 H77 H 0.70565 0.40279 0.04105
 H78 H 0.74156 0.44639 0.04121
 C79 C 0.68336 0.58336 0.00169
 C80 C 0.81649 0.50114 -0.08269
 C81 C 0.68312 0.41724 -0.00057
 C82 C 0.81669 0.49888 0.08349
 C83 C -0.02313 0.29715 0.46257
 H84 H -0.04059 0.29788 0.48010
 C85 C -0.02397 0.31794 0.43834
 H86 H -0.04221 0.33468 0.43717
 C87 C 0.02250 0.27506 0.44322
 H88 H 0.04090 0.25877 0.44555
 C89 C 0.02255 0.29546 0.41860
 H90 H 0.04088 0.29458 0.40193
 N91 N -0.00023 0.27619 0.46450
 C92 C -0.03653 0.20363 0.52255
 H93 H -0.01898 0.20287 0.53996
 C94 C -0.06076 0.18285 0.52342
 H95 H -0.06196 0.16606 0.54161
 C96 C -0.05596 0.22580 0.47699
 H97 H -0.05367 0.24213 0.45859
 C98 C -0.08057 0.20540 0.47700
 H99 H -0.09731 0.20625 0.45876
 Zn100 Zn 0.00013 0.25041 0.49928
 N101 N -0.03464 0.22464 0.49965
 C102 C -0.02223 0.27492 0.55542
 N103 N 0.00047 0.27612 0.53411
 C104 C 0.02336 0.29711 0.53607
 C105 C 0.02422 0.31781 0.56037
 C106 C -0.02224 0.29524 0.58010
 C107 C 0.03686 0.20371 0.47597
 C108 C 0.06109 0.18295 0.47511
 C109 C 0.08080 0.20543 0.52160
 C110 C 0.05619 0.22581 0.52160
 N111 N 0.03492 0.22468 0.49889
 H112 H -0.04062 0.25861 0.55308
 H113 H 0.04080 0.29790 0.51852
 H114 H 0.04241 0.33459 0.56163
 H115 H -0.04050 0.29435 0.59683
 H116 H 0.01934 0.20297 0.45852
 H117 H 0.06233 0.16618 0.45690
 H118 H 0.09750 0.20625 0.53989
 H119 H 0.05386 0.24210 0.54002
 C120 C -0.08292 0.18371 0.50040
 C121 C -0.00087 0.31714 0.41619
 C122 C 0.08320 0.18377 0.49818
 C123 C 0.00117 0.31691 0.58253
 C124 C 0.97676 0.70313 0.53666
 H125 H 0.95934 0.70235 0.51911
 C126 C 0.97589 0.68240 0.56094
 H127 H 0.95771 0.66561 0.56218
 C128 C 1.02232 0.72533 0.55603
 H129 H 1.04072 0.74164 0.55369
 C130 C 1.02231 0.70498 0.58068
 H131 H 1.04057 0.70585 0.59740
 N132 N 0.99965 0.72413 0.53471
 C133 C 0.96340 0.79647 0.47644
 H134 H 0.98097 0.79719 0.45902
 C135 C 0.93918 0.81724 0.47552
 H136 H 0.93799 0.83398 0.45729
 C137 C 0.94395 0.77443 0.52208
 H138 H 0.94623 0.75816 0.54052
 C139 C 0.91933 0.79482 0.52202
 H140 H 0.90259 0.79402 0.54028
 Zn141 Zn 1.00007 0.74981 0.49987
 N142 N 0.96528 0.77553 0.49940
 C143 C 0.97788 0.72508 0.44380
 N144 N 1.00054 0.72400 0.46512
 C145 C 1.02346 0.70304 0.46327
 C146 C 1.02437 0.68223 0.43907
 C147 C 0.97793 0.70464 0.41921
 C148 C 1.03665 0.79662 0.52313
 C149 C 1.06087 0.81741 0.52401
 C150 C 1.08080 0.79483 0.47764
 C151 C 1.05620 0.77442 0.47762
 N152 N 1.03483 0.77559 0.50026
 H153 H 0.95946 0.74137 0.44606
 H154 H 1.04087 0.70235 0.48083
 H155 H 1.04258 0.66547 0.43790
 H156 H 0.95968 0.70542 0.40248
 H157 H 1.01906 0.79738 0.54052
 H158 H 1.06202 0.83422 0.54218
 H159 H 1.09758 0.79398 0.45941
 H160 H 1.05396 0.75808 0.45924
 C161 C 0.91700 0.81645 0.49856
 C162 C 0.99892 0.68329 0.58309
 C163 C 1.08308 0.81655 0.50102
 C164 C 1.00136 0.68299 0.41690
 C165 C 0.46343 -0.02401 0.29618
 H166 H 0.48096 -0.04145 0.29693
 C167 C 0.43919 -0.02485 0.31697
 H168 H 0.43796 -0.04304 0.33376
 C169 C 0.44408 0.02159 0.27404
 H170 H 0.44640 0.03999 0.25772
 C171 C 0.41946 0.02161 0.29444
 H172 H 0.40276 0.03988 0.29360
 N173 N 0.46537 -0.00111 0.27519
 C174 C 0.52346 -0.03745 0.20269
 H175 H 0.54091 -0.01992 0.20195
 C176 C 0.52431 -0.06167 0.18189
 H177 H 0.54255 -0.06283 0.16513
 C178 C 0.47784 -0.05679 0.22482
 H179 H 0.45943 -0.05447 0.24113
 C180 C 0.47780 -0.08140 0.20442
 H181 H 0.45946 -0.09807 0.20531
 Zn182 Zn 0.50016 -0.00073 0.24943
 N183 N 0.50055 -0.03552 0.22368
 C184 C 0.55628 -0.02294 0.27402
 N185 N 0.53492 -0.00031 0.27518
 C186 C 0.53677 0.02260 0.29616
 C187 C 0.56100 0.02353 0.31692
 C188 C 0.58090 -0.02287 0.29440
 C189 C 0.47689 0.03597 0.20269
 C190 C 0.47600 0.06025 0.18197
 C191 C 0.52241 0.08005 0.20451
 C192 C 0.52244 0.05539 0.22485
 N193 N 0.49978 0.03406 0.22367
 H194 H 0.55403 -0.04135 0.25771
 H195 H 0.51919 0.03998 0.29691
 H196 H 0.56217 0.04173 0.33369
 H197 H 0.59766 -0.04109 0.29356
 H198 H 0.45948 0.01841 0.20192
 H199 H 0.45781 0.06149 0.16520
 H200 H 0.54065 0.09680 0.20538
 H201 H 0.54084 0.05308 0.24116
 C202 C 0.50121 -0.08380 0.18271
 C203 C 0.41707 -0.00179 0.31613
 C204 C 0.49901 0.08244 0.18285
 C205 C 0.58321 0.00055 0.31607
 C206 C 0.53681 -0.02343 0.70323
 H207 H 0.51927 -0.04087 0.70249
 C208 C 0.56106 -0.02430 0.68246
 H209 H 0.56230 -0.04251 0.66570
 C210 C 0.55616 0.02219 0.72532
 H211 H 0.55384 0.04062 0.74161
 C212 C 0.58080 0.02219 0.70494
 H213 H 0.59750 0.04047 0.70575
 N214 N 0.53487 -0.00050 0.72419
 C215 C 0.47667 -0.03674 0.79668
 H216 H 0.45925 -0.01919 0.79739
 C217 C 0.47577 -0.06095 0.81748
 H218 H 0.45755 -0.06215 0.83425
 C219 C 0.52229 -0.05616 0.77462
 H220 H 0.54072 -0.05387 0.75833
 C221 C 0.52225 -0.08075 0.79504
 H222 H 0.54052 -0.09747 0.79425
 Zn223 Zn 0.50005 -0.00009 0.74992
 N224 N 0.49961 -0.03485 0.77571
 C225 C 0.44395 -0.02235 0.72531
 N226 N 0.46531 0.00030 0.72413
 C227 C 0.46346 0.02318 0.70312
 C228 C 0.43924 0.02408 0.68235
 C229 C 0.41934 -0.02231 0.70492
 C230 C 0.52327 0.03668 0.79664
 C231 C 0.52410 0.06095 0.81737
 C232 C 0.47768 0.08067 0.79478
 C233 C 0.47771 0.05602 0.77443
 N234 N 0.50040 0.03473 0.77563
 H235 H 0.44620 -0.04073 0.74164
 H236 H 0.48104 0.04058 0.70235
 H237 H 0.43807 0.04226 0.66555
 H238 H 0.40258 -0.04053 0.70578
 H239 H 0.54070 0.01915 0.79743
 H240 H 0.54226 0.06221 0.83416
 H241 H 0.45941 0.09738 0.79390
 H242 H 0.45933 0.05368 0.75811
 C243 C 0.49881 -0.08310 0.81670
 C244 C 0.58319 -0.00124 0.68328
 C245 C 0.50105 0.08309 0.81647
 C246 C 0.41704 0.00109 0.68322
 C247 C 0.25003 0.00013 0.49976
 C248 C 0.75016 0.00008 0.49958
 C249 C 0.49965 0.25017 0.99994
 C250 C 0.49970 0.75019 0.00057
 C251 C 1.00050 0.49922 0.25011
 C252 C 0.00003 0.49984 0.75021
 C253 C 0.18856 0.09836 0.47375
 C254 C 0.15344 0.09370 0.47408
 C255 C 0.15075 0.11851 0.49882
 C256 C 0.18552 0.12359 0.49851
 C257 C 0.19155 0.07432 0.49920
 C258 C 0.18888 0.09911 0.52397
 C259 C 0.15677 0.06932 0.49952
 C260 C 0.15376 0.09445 0.52426
 C261 C 0.12736 0.14249 0.49860
 C262 C 0.10752 0.16161 0.49841
 C263 C 0.21342 0.04898 0.49941
 C264 C 0.23050 0.02734 0.49957
 H265 H 0.20315 0.09968 0.45299
 H266 H 0.13862 0.09173 0.45357
 H267 H 0.19706 0.14620 0.49809
 H268 H 0.20371 0.10104 0.54448
 H269 H 0.14518 0.04672 0.49993
 H270 H 0.13919 0.09309 0.54502
 C271 C 0.59852 0.68891 -0.02414
 C272 C 0.62313 0.68566 0.00119
 C273 C 0.61807 0.65088 0.00107
 C274 C 0.59388 0.65378 -0.02424
 C275 C 0.57387 0.69166 0.00076
 C276 C 0.56888 0.65687 0.00064
 C277 C 0.59804 0.68879 0.02609
 C278 C 0.59340 0.65366 0.02595
 C279 C 0.64207 0.62751 0.00127
 C280 C 0.66120 0.60767 0.00145
 C281 C 0.54852 0.71353 0.00063
 C282 C 0.52689 0.73062 0.00058
 H283 H 0.60033 0.70367 -0.04472
 H284 H 0.64573 0.69722 0.00142
 H285 H 0.59242 0.63913 -0.04492
 H286 H 0.54629 0.64528 0.00041
 H287 H 0.59946 0.70345 0.04677
 H288 H 0.59154 0.63892 0.04654
 C289 C 0.81159 -0.09829 0.47396
 C290 C 0.84671 -0.09364 0.47409
 C291 C 0.84949 -0.11827 0.49901
 C292 C 0.81472 -0.12334 0.49890
 C293 C 0.80871 -0.07406 0.49925
 C294 C 0.81146 -0.09866 0.52419
 C295 C 0.84349 -0.06906 0.49935
 C296 C 0.84658 -0.09401 0.52427
 C297 C 0.87287 -0.14225 0.49886
 C298 C 0.89270 -0.16138 0.49873
 C299 C 0.78683 -0.04872 0.49937
 C300 C 0.76974 -0.02710 0.49947
 H301 H 0.79693 -0.09976 0.45329
 H302 H 0.86146 -0.09183 0.45349
 H303 H 0.80317 -0.14594 0.49872
 H304 H 0.79670 -0.10043 0.54478
 H305 H 0.85508 -0.04647 0.49954
 H306 H 0.86123 -0.09250 0.54495
 C307 C 0.40136 0.31156 1.02577
 C308 C 0.40605 0.34668 1.02566
 C309 C 0.38134 0.34953 1.00085
 C310 C 0.37624 0.31476 1.00094
 C311 C 0.42550 0.30869 1.00037
 C312 C 0.40081 0.31151 0.97554
 C313 C 0.43053 0.34347 1.00028
 C314 C 0.40550 0.34664 0.97547
 C315 C 0.35738 0.37293 1.00114
 C316 C 0.33827 0.39277 1.00141
 C317 C 0.45082 0.28680 1.00015
 C318 C 0.47245 0.26971 1.00002
 H319 H 0.39996 0.29687 1.04643
 H320 H 0.40795 0.36140 1.04626
 H321 H 0.35362 0.30323 1.00122
 H322 H 0.39895 0.29678 0.95494
 H323 H 0.45313 0.35504 1.00000
 H324 H 0.40695 0.36131 0.95480
 C325 C 0.81187 0.09847 0.47452
 C326 C 0.81473 0.12354 0.49946
 C327 C 0.84950 0.11846 0.49997
 C328 C 0.84699 0.09381 0.47505
 C329 C 0.80868 0.07427 0.49980
 C330 C 0.84345 0.06926 0.50031
 C331 C 0.81116 0.09890 0.52474
 C332 C 0.84628 0.09424 0.52523
 C333 C 0.87290 0.14244 0.50009
 C334 C 0.89275 0.16155 0.50022
 C335 C 0.78679 0.04893 0.49972
 C336 C 0.76971 0.02729 0.49965
 H337 H 0.79746 0.09992 0.45367
 H338 H 0.80320 0.14616 0.49911
 H339 H 0.86198 0.09196 0.45463
 H340 H 0.85502 0.04666 0.50067
 H341 H 0.79616 0.10070 0.54516
 H342 H 0.86068 0.09274 0.54609
 C343 C 0.40133 0.68868 -0.02463
 C344 C 0.40599 0.65356 -0.02437
 C345 C 0.38134 0.65083 0.00054
 C346 C 0.37626 0.68561 0.00030
 C347 C 0.42553 0.69166 0.00066
 C348 C 0.40090 0.68896 0.02559
 C349 C 0.43054 0.65688 0.00090
 C350 C 0.40556 0.65384 0.02581
 C351 C 0.35737 0.62743 0.00042
 C352 C 0.33826 0.60758 0.00027
 C353 C 0.45087 0.71355 0.00068
 C354 C 0.47250 0.73064 0.00066
 H355 H 0.39988 0.70327 -0.04536
 H356 H 0.40784 0.63875 -0.04492
 H357 H 0.35365 0.69714 0.00005
 H358 H 0.39910 0.70379 0.04613
 H359 H 0.45313 0.64530 0.00114
 H360 H 0.40705 0.63925 0.04655
 C361 C 0.15667 -0.06899 0.49995
 C362 C 0.15367 -0.09405 0.47514
 C363 C 0.15063 -0.11818 0.50051
 C364 C 0.15331 -0.09344 0.52532
 C365 C 0.19145 -0.07400 0.50024
 C366 C 0.18843 -0.09810 0.52563
 C367 C 0.18879 -0.09872 0.47541
 C368 C 0.18540 -0.12327 0.50080
 C369 C 0.12724 -0.14216 0.50067
 C370 C 0.10740 -0.16129 0.50082
 C371 C 0.21334 -0.04866 0.50008
 C372 C 0.23045 -0.02705 0.49994
 H373 H 0.14510 -0.04639 0.49959
 H374 H 0.13913 -0.09264 0.45438
 H375 H 0.13847 -0.09152 0.54584
 H376 H 0.20299 -0.09947 0.54638
 H377 H 0.20365 -0.10059 0.45489
 H378 H 0.19693 -0.14588 0.50115
 C379 C 0.59839 0.31144 1.02483
 C380 C 0.62301 0.31488 0.99950
 C381 C 0.61789 0.34965 0.99983
 C382 C 0.59370 0.34656 1.02514
 C383 C 0.57375 0.30878 0.99994
 C384 C 0.56871 0.34356 1.00026
 C385 C 0.59793 0.31184 0.97461
 C386 C 0.59323 0.34696 0.97495
 C387 C 0.64185 0.37306 0.99973
 C388 C 0.66096 0.39292 0.99961
 C389 C 0.54844 0.28687 0.99997
 C390 C 0.52683 0.26975 0.99997
 H391 H 0.60022 0.29657 1.04533
 H392 H 0.64563 0.30337 0.99919
 H393 H 0.59220 0.36110 1.04591
 H394 H 0.54610 0.35511 1.00057
 H395 H 0.59938 0.29730 0.95385
 H396 H 0.59136 0.36182 0.95445
 C397 C 0.49992 0.15657 1.06869
 C398 C 0.52475 0.15348 1.09372
 C399 C 0.49941 0.15028 1.11787
 C400 C 0.47459 0.15305 1.09317
 C401 C 0.49957 0.19132 1.07388
 C402 C 0.47422 0.18815 1.09801
 C403 C 0.52442 0.18858 1.09856
 C404 C 0.49906 0.18503 1.12313
 C405 C 0.49929 0.12677 1.14174
 C406 C 0.49917 0.10684 1.16078
 C407 C 0.49964 0.21333 1.04864
 C408 C 0.49966 0.23052 1.02708
 H409 H 0.50028 0.14511 1.04603
 H410 H 0.54552 0.13897 1.09220
 H411 H 0.45410 0.13819 1.09120
 H412 H 0.45345 0.20268 1.09949
 H413 H 0.54490 0.20346 1.10048
 H414 H 0.49870 0.19645 1.14581
 C415 C -0.02552 0.59812 0.68868
 C416 C -0.00069 0.62326 0.68554
 C417 C -0.00046 0.61813 0.65076
 C418 C -0.02528 0.59341 0.65355
 C419 C -0.00015 0.57400 0.69165
 C420 C 0.00007 0.56894 0.65687
 C421 C 0.02468 0.59870 0.68889
 C422 C 0.02488 0.59399 0.65376
 C423 C -0.00067 0.64208 0.62733
 C424 C -0.00085 0.66117 0.60745
 C425 C -0.00002 0.54868 0.71356
 C426 C 0.00003 0.52705 0.73067
 H427 H -0.04623 0.59952 0.70331
 H428 H -0.00100 0.64589 0.69705
 H429 H -0.04582 0.59148 0.63877
 H430 H 0.00038 0.54633 0.64532
 H431 H 0.04522 0.60058 0.70369
 H432 H 0.04560 0.59255 0.63914
 C433 C 0.47418 0.81156 -0.09786
 C434 C 0.47443 0.84669 -0.09324
 C435 C 0.49928 0.84940 -0.11795
 C436 C 0.49905 0.81462 -0.12300
 C437 C 0.49951 0.80863 -0.07371
 C438 C 0.52438 0.81130 -0.09840
 C439 C 0.49975 0.84341 -0.06873
 C440 C 0.52459 0.84644 -0.09377
 C441 C 0.49913 0.87277 -0.14196
 C442 C 0.49900 0.89260 -0.16111
 C443 C 0.49962 0.78677 -0.04833
 C444 C 0.49967 0.76970 -0.02667
 H445 H 0.45346 0.79696 -0.09925
 H446 H 0.45390 0.86150 -0.09136
 H447 H 0.49876 0.80306 -0.14560
 H448 H 0.54491 0.79648 -0.10023
 H449 H 0.50003 0.85502 -0.04614
 H450 H 0.54532 0.86103 -0.09234
 C451 C 1.02548 0.40095 0.31214
 C452 C 1.02478 0.40572 0.34726
 C453 C 0.99985 0.38109 0.34976
 C454 C 1.00052 0.37590 0.31500
 C455 C 1.00023 0.42515 0.30880
 C456 C 0.97528 0.40054 0.31127
 C457 C 0.99957 0.43027 0.34357
 C458 C 0.97463 0.40531 0.34639
 C459 C 0.99961 0.35718 0.37324
 C460 C 0.99939 0.33812 0.39315
 C461 C 1.00040 0.45043 0.28683
 C462 C 1.00048 0.47203 0.26969
 H463 H 1.04638 0.39945 0.29780
 H464 H 1.04513 0.40760 0.36231
 H465 H 1.00091 0.35325 0.30354
 H466 H 0.95494 0.39870 0.29620
 H467 H 0.99918 0.45290 0.35507
 H468 H 0.95372 0.40686 0.36072
 C469 C 0.49987 0.84368 0.06952
 C470 C 0.47510 0.84682 0.09461
 C471 C 0.50048 0.84984 0.11871
 C472 C 0.52526 0.84701 0.09394
 C473 C 0.50006 0.80891 0.07462
 C474 C 0.52546 0.81190 0.09870
 C475 C 0.47526 0.81171 0.09937
 C476 C 0.50066 0.81508 0.12389
 C477 C 0.50073 0.87329 0.14263
 C478 C 0.50096 0.89318 0.16172
 C479 C 0.49987 0.78696 0.04933
 C480 C 0.49976 0.76981 0.02774
 H481 H 0.49955 0.85520 0.04689
 H482 H 0.45439 0.86144 0.09318
 H483 H 0.54581 0.86178 0.09196
 H484 H 0.54616 0.79726 0.10009
 H485 H 0.45471 0.79692 0.10130
 H486 H 0.50099 0.80360 0.14653
 C487 C -0.02455 0.40119 0.68860
 C488 C -0.02472 0.40603 0.65349
 C489 C 0.00060 0.38187 0.65039
 C490 C 0.00079 0.37661 0.68515
 C491 C 0.00031 0.42585 0.69144
 C492 C 0.02565 0.40172 0.68837
 C493 C 0.00012 0.43103 0.65667
 C494 C 0.02544 0.40655 0.65326
 C495 C 0.00078 0.35800 0.62688
 C496 C 0.00095 0.33897 0.60694
 C497 C 0.00017 0.45109 0.71344
 C498 C 0.00009 0.47267 0.73061
 H499 H -0.04510 0.39927 0.70340
 H500 H -0.04543 0.40755 0.63889
 H501 H 0.00107 0.35394 0.69658
 H502 H 0.04635 0.40023 0.70298
 H503 H -0.00016 0.45369 0.64520
 H504 H 0.04599 0.40851 0.63847
 C505 C 0.50015 0.15690 0.93080
 C506 C 0.47516 0.15352 0.90599
 C507 C 0.50033 0.15079 0.88160
 C508 C 0.52532 0.15386 0.90609
 C509 C 0.49994 0.19168 0.92572
 C510 C 0.52513 0.18897 0.90136
 C511 C 0.47492 0.18864 0.90126
 C512 C 0.50011 0.18555 0.87645
 C513 C 0.50057 0.12735 0.85767
 C514 C 0.50078 0.10746 0.83858
 C515 C 0.49977 0.21359 0.95105
 C516 C 0.49968 0.23067 0.97269
 H517 H 0.50016 0.14536 0.95343
 H518 H 0.45462 0.13868 0.90764
 H519 H 0.54605 0.13930 0.90783
 H520 H 0.54566 0.20382 0.89975
 H521 H 0.45420 0.20321 0.89956
 H522 H 0.50010 0.19705 0.85381
 C523 C 0.97588 0.59814 0.31124
 C524 C 0.97554 0.59352 0.34639
 C525 C 1.00091 0.61764 0.34942
 C526 C 1.00127 0.62269 0.31463
 C527 C 1.00069 0.57342 0.30863
 C528 C 1.02608 0.59752 0.31164
 C529 C 1.00034 0.56844 0.34343
 C530 C 1.02570 0.59289 0.34678
 C531 C 1.00105 0.64164 0.37279
 C532 C 1.00118 0.66079 0.39261
 C533 C 1.00059 0.54806 0.28676
 C534 C 1.00053 0.52642 0.26967
 H535 H 0.95540 0.60002 0.29637
 H536 H 0.95477 0.59212 0.36093
 H537 H 1.00165 0.64529 0.30307
 H538 H 1.04685 0.59887 0.29708
 H539 H 0.99995 0.54585 0.35503
 H540 H 1.04619 0.59097 0.36164
 C541 C 1.06951 0.49938 0.15662
 C542 C 1.09396 0.52477 0.15334
 C543 C 1.11869 0.49998 0.15048
 C544 C 1.09457 0.47460 0.15345
 C545 C 1.07458 0.49952 0.19140
 C546 C 1.09929 0.47471 0.18857
 C547 C 1.09868 0.52492 0.18846
 C548 C 1.12383 0.50011 0.18525
 C549 C 1.14263 0.50028 0.12703
 C550 C 1.16172 0.50055 0.10713
 C551 C 1.04928 0.49932 0.21336
 C552 C 1.02767 0.49923 0.23050
 H553 H 1.04690 0.49908 0.14509
 H554 H 1.09202 0.54535 0.13860
 H555 H 1.09313 0.45391 0.13879
 H556 H 1.10119 0.45413 0.20333
 H557 H 1.10008 0.54560 0.20313
 H558 H 1.14646 0.50042 0.19674
 C559 C 0.68943 0.02408 0.59899
 C560 C 0.65432 0.02512 0.59436
 C561 C 0.65079 -0.00064 0.61800
 C562 C 0.68554 -0.00171 0.62306
 C563 C 0.69161 -0.00032 0.57379
 C564 C 0.68811 -0.02610 0.59742
 C565 C 0.65685 0.00075 0.56881
 C566 C 0.65300 -0.02501 0.59278
 C567 C 0.62738 -0.00084 0.64199
 C568 C 0.60753 -0.00101 0.66112
 C569 C 0.71351 -0.00015 0.54844
 C570 C 0.73060 -0.00003 0.52680
 H571 H 0.70467 0.04425 0.60125
 H572 H 0.64017 0.04617 0.59335
 H573 H 0.69705 -0.00272 0.64566
 H574 H 0.70226 -0.04714 0.59838
 H575 H 0.64530 0.00177 0.54622
 H576 H 0.63777 -0.04519 0.59047
 C577 C -0.06913 0.49982 0.84355
 C578 C -0.09359 0.52519 0.84686
 C579 C -0.11832 0.50039 0.84964
 C580 C -0.09419 0.47502 0.84666
 C581 C -0.07416 0.50003 0.80877
 C582 C -0.09887 0.47520 0.81152
 C583 C -0.09826 0.52541 0.81173
 C584 C -0.12342 0.50059 0.81487
 C585 C -0.14228 0.50063 0.87307
 C586 C -0.16138 0.50085 0.89295
 C587 C -0.04883 0.49988 0.78685
 C588 C -0.02719 0.49982 0.76975
 H589 H -0.04654 0.49951 0.85511
 H590 H -0.09166 0.54574 0.86164
 H591 H -0.09277 0.45431 0.86127
 H592 H -0.10075 0.45465 0.79673
 H593 H -0.09965 0.54612 0.79710
 H594 H -0.14603 0.50091 0.80335
 C595 C 0.34340 -0.00021 0.43061
 C596 C 0.34677 -0.02570 0.40629
 C597 C 0.34948 -0.00103 0.38141
 C598 C 0.34642 0.02446 0.40540
 C599 C 0.30863 -0.00054 0.42559
 C600 C 0.31131 0.02415 0.40073
 C601 C 0.31166 -0.02606 0.40162
 C602 C 0.31472 -0.00137 0.37631
 C603 C 0.37289 -0.00131 0.35743
 C604 C 0.39274 -0.00153 0.33830
 C605 C 0.28672 -0.00028 0.45093
 C606 C 0.26961 -0.00008 0.47256
 H607 H 0.35495 0.00028 0.45321
 H608 H 0.36161 -0.04620 0.40833
 H609 H 0.36097 0.04523 0.40671
 H610 H 0.29645 0.04464 0.39873
 H611 H 0.29709 -0.04681 0.40035
 H612 H 0.30320 -0.00185 0.35369
 C613 C 0.09816 0.52505 0.81224
 C614 C 0.09332 0.52451 0.84735
 C615 C 0.11797 0.49961 0.84998
 C616 C 0.12322 0.50013 0.81522
 C617 C 0.07399 0.49976 0.80897
 C618 C 0.09861 0.47484 0.81157
 C619 C 0.06881 0.49924 0.84373
 C620 C 0.09378 0.47435 0.84668
 C621 C 0.14183 0.49950 0.87348
 C622 C 0.16086 0.49937 0.89341
 C623 C 0.04875 0.49982 0.78698
 C624 C 0.02718 0.49984 0.76982
 H625 H 0.09967 0.54589 0.79781
 H626 H 0.09140 0.54493 0.86232
 H627 H 0.14589 0.50049 0.80378
 H628 H 0.10050 0.45443 0.79658
 H629 H 0.04616 0.49888 0.85522
 H630 H 0.09223 0.45350 0.86110
 C631 C 0.65914 0.01332 0.42838
 C632 C 0.66314 0.02920 0.39697
 C633 C 0.65079 0.00029 0.38127
 C634 C 0.64648 -0.01557 0.41234
 C635 C 0.69161 0.00022 0.42544
 C636 C 0.67926 -0.02869 0.40975
 C637 C 0.69599 0.01610 0.39439
 C638 C 0.68325 -0.01283 0.37827
 C639 C 0.62739 0.00035 0.35731
 C640 C 0.60754 0.00042 0.33821
 C641 C 0.71350 0.00019 0.45077
 C642 C 0.73060 0.00015 0.47239
 H643 H 0.64947 0.02407 0.44926
 H644 H 0.65625 0.05300 0.39146
 H645 H 0.62588 -0.02858 0.41948
 H646 H 0.68616 -0.05248 0.41529
 H647 H 0.71661 0.02912 0.38732
 H648 H 0.69289 -0.02358 0.35738
 C649 C 0.90166 0.52415 0.18907
 C650 C 0.90627 0.52442 0.15393
 C651 C 0.88203 0.49916 0.15094
 C652 C 0.87700 0.49887 0.18573
 C653 C 0.92627 0.49922 0.19167
 C654 C 0.90206 0.47394 0.18872
 C655 C 0.93123 0.49951 0.15687
 C656 C 0.90667 0.47425 0.15357
 C657 C 0.85802 0.49910 0.12759
 C658 C 0.83888 0.49902 0.10778
 C659 C 0.95164 0.49924 0.21352
 C660 C 0.97329 0.49924 0.23058
 H661 H 0.89990 0.54466 0.20394
 H662 H 0.90776 0.54517 0.13937
 H663 H 0.85441 0.49861 0.19732
 H664 H 0.90062 0.45320 0.20329
 H665 H 0.95381 0.49977 0.14525
 H666 H 0.90848 0.45374 0.13872
 C667 C 0.31159 -0.02462 0.59828
 C668 C 0.34670 -0.02438 0.59356
 C669 C 0.34943 0.00069 0.61803
 C670 C 0.31467 0.00047 0.62317
 C671 C 0.30858 0.00050 0.57390
 C672 C 0.31129 0.02560 0.59835
 C673 C 0.34335 0.00072 0.56883
 C674 C 0.34640 0.02579 0.59363
 C675 C 0.37284 0.00081 0.64198
 C676 C 0.39270 0.00092 0.66108
 C677 C 0.28668 0.00039 0.54858
 C678 C 0.26958 0.00029 0.52696
 H679 H 0.29700 -0.04534 0.59991
 H680 H 0.36152 -0.04492 0.59184
 H681 H 0.30315 0.00037 0.64581
 H682 H 0.29645 0.04613 0.60002
 H683 H 0.35491 0.00083 0.54621
 H684 H 0.36097 0.04652 0.59196
   
