data_POSCAR
  _audit_creation_date              2014-09-24
  _audit_creation_method            'ToBaCCo'
  _symmetry_space_group_name_H-M    'P1'
  _symmetry_Int_Tables_number       1
  _symmetry_cell_setting            triclinic
  loop_
  _symmetry_equiv_pos_as_xyz
 x,y,z
_cell_length_a 32.5532
_cell_length_b 32.1434
_cell_length_c 31.3094
_cell_angle_alpha 89.534100
_cell_angle_beta 90.513800
_cell_angle_gamma 90.194900
loop_
  _atom_site_label
  _atom_site_type_symbol
  _atom_site_fract_x
  _atom_site_fract_y
  _atom_site_fract_z
C1 C 0.31388 0.32631 0.26039
 H2 H 0.32445 0.30792 0.28726
 C3 C 0.33710 0.36039 0.24703
 H4 H 0.36505 0.36782 0.26434
 C5 C 0.26674 0.33644 0.20329
 H6 H 0.23970 0.32676 0.18584
 C7 C 0.28934 0.37073 0.18856
 H8 H 0.27906 0.38731 0.16021
 N9 N 0.27891 0.31542 0.23916
 C10 C 0.18412 0.28228 0.31996
 H11 H 0.16452 0.27065 0.29474
 C12 C 0.16649 0.29611 0.35786
 H13 H 0.13344 0.29492 0.36109
 C14 C 0.25067 0.29736 0.34671
 H15 H 0.28350 0.29742 0.34267
 C16 C 0.23440 0.31134 0.38504
 H17 H 0.25528 0.32292 0.40924
 Zn18 Zn 0.24982 0.26879 0.26172
 N19 N 0.22556 0.28392 0.31467
 C20 C 0.29025 0.20471 0.30864
 N21 N 0.28863 0.22587 0.27092
 C22 C 0.31514 0.21739 0.23883
 C23 C 0.34503 0.18666 0.24412
 C24 C 0.31972 0.17382 0.31534
 C25 C 0.17813 0.27572 0.20937
 C26 C 0.14820 0.26183 0.18049
 C27 C 0.18106 0.19462 0.18045
 C28 C 0.21044 0.20984 0.20907
 N29 N 0.20877 0.24987 0.22270
 H30 H 0.26858 0.21162 0.33353
 H31 H 0.31318 0.23481 0.20917
 H32 H 0.36616 0.18097 0.21837
 H33 H 0.32021 0.15720 0.34552
 H34 H 0.17686 0.30718 0.22130
 H35 H 0.12406 0.28291 0.17048
 H36 H 0.18350 0.16283 0.16968
 H37 H 0.23456 0.18946 0.22040
 C38 C 0.19171 0.31145 0.39085
 C39 C 0.32478 0.38334 0.21089
 C40 C 0.14953 0.22079 0.16553
 C41 C 0.34772 0.16452 0.28287
 C42 C 0.87981 0.76092 0.23523
 H43 H 0.88091 0.75154 0.26849
 C44 C 0.91322 0.78191 0.21722
 H45 H 0.93943 0.78852 0.23750
 C46 C 0.84327 0.76427 0.16969
 H47 H 0.81645 0.75677 0.15082
 C48 C 0.87542 0.78615 0.15066
 H49 H 0.87224 0.79469 0.11733
 N50 N 0.84531 0.75343 0.21169
 C51 C 0.73921 0.75817 0.29549
 H52 H 0.72566 0.72779 0.29052
 C53 C 0.71928 0.78725 0.32095
 H54 H 0.69058 0.77882 0.33597
 C55 C 0.79291 0.80617 0.28140
 H56 H 0.82111 0.81385 0.26523
 C57 C 0.77427 0.83595 0.30684
 H58 H 0.78858 0.86624 0.30980
 Zn59 Zn 0.79955 0.72883 0.23969
 N60 N 0.77538 0.76805 0.27642
 C61 C 0.81403 0.67871 0.31395
 N62 N 0.81887 0.68210 0.27094
 C63 C 0.83949 0.65277 0.24874
 C64 C 0.85559 0.61790 0.26962
 C65 C 0.82990 0.64435 0.33622
 C66 C 0.74059 0.74282 0.17520
 C67 C 0.71177 0.73238 0.14374
 C68 C 0.71822 0.66029 0.16505
 C69 C 0.74755 0.67201 0.19551
 N70 N 0.75879 0.71262 0.19940
 H71 H 0.79816 0.70275 0.33112
 H72 H 0.84354 0.65666 0.21468
 H73 H 0.87231 0.59537 0.25117
 H74 H 0.82560 0.64207 0.37040
 H75 H 0.74909 0.77505 0.17987
 H76 H 0.69814 0.75676 0.12427
 H77 H 0.71018 0.62774 0.16187
 H78 H 0.76135 0.64856 0.21587
 C79 C 0.73694 0.82671 0.32692
 C80 C 0.91090 0.79620 0.17459
 C81 C 0.70055 0.69062 0.13822
 C82 C 0.85088 0.61329 0.31396
 C83 C 0.77004 0.27814 0.78420
 H84 H 0.76448 0.27368 0.81795
 C85 C 0.80372 0.30166 0.77079
 H86 H 0.82339 0.31573 0.79469
 C87 C 0.75092 0.26476 0.71244
 H88 H 0.73081 0.24960 0.68974
 C89 C 0.78424 0.28806 0.69761
 H90 H 0.78918 0.29052 0.66355
 N91 N 0.74435 0.26040 0.75510
 C92 C 0.62726 0.23913 0.81782
 H93 H 0.62229 0.20701 0.80900
 C94 C 0.59790 0.25979 0.84177
 H95 H 0.57072 0.24278 0.85106
 C96 C 0.66943 0.29924 0.81615
 H97 H 0.69718 0.31463 0.80581
 C98 C 0.64075 0.32122 0.84000
 H99 H 0.64717 0.35335 0.84760
 Zn100 Zn 0.70098 0.22659 0.77575
 N101 N 0.66258 0.25866 0.80634
 C102 C 0.70970 0.18097 0.85268
 N103 N 0.72447 0.18572 0.81251
 C104 C 0.75856 0.16499 0.79991
 C105 C 0.78002 0.13939 0.82877
 C106 C 0.72963 0.15529 0.88223
 C107 C 0.65026 0.22977 0.70493
 C108 C 0.62791 0.21575 0.66976
 C109 C 0.64974 0.14565 0.68648
 C110 C 0.67188 0.16114 0.72152
 N111 N 0.67214 0.20266 0.72955
 H112 H 0.68317 0.19820 0.86266
 H113 H 0.77001 0.16962 0.76789
 H114 H 0.80746 0.12410 0.81782
 H115 H 0.71704 0.15374 0.91396
 H116 H 0.65050 0.26253 0.71259
 H117 H 0.61078 0.23809 0.65078
 H118 H 0.65056 0.11267 0.67989
 H119 H 0.68910 0.14013 0.74196
 C120 C 0.60450 0.30139 0.85365
 C121 C 0.81137 0.30666 0.72694
 C122 C 0.62784 0.17328 0.65977
 C123 C 0.76613 0.13473 0.87112
 C124 C 0.30163 0.81837 0.67799
 H125 H 0.30913 0.82937 0.70969
 C126 C 0.32511 0.83132 0.64323
 H127 H 0.35011 0.85291 0.64871
 C128 C 0.26016 0.77625 0.63323
 H129 H 0.23573 0.75375 0.62960
 C130 C 0.28297 0.78823 0.59759
 H131 H 0.27506 0.77488 0.56703
 N132 N 0.26944 0.79185 0.67239
 C133 C 0.19671 0.81172 0.78739
 H134 H 0.19406 0.78016 0.79936
 C135 C 0.17810 0.84429 0.80923
 H136 H 0.16168 0.83753 0.83838
 C137 C 0.22124 0.85861 0.73465
 H138 H 0.23717 0.86404 0.70504
 C139 C 0.20339 0.89208 0.75559
 H140 H 0.20610 0.92290 0.74173
 Zn141 Zn 0.24178 0.77386 0.72235
 N142 N 0.21817 0.81943 0.75110
 C143 C 0.28984 0.75436 0.79818
 N144 N 0.28204 0.74675 0.75615
 C145 C 0.30371 0.71792 0.73438
 C146 C 0.33476 0.69543 0.75459
 C147 C 0.32039 0.73183 0.82001
 C148 C 0.16945 0.74427 0.68043
 C149 C 0.13828 0.71536 0.67169
 C150 C 0.16779 0.66967 0.72529
 C151 C 0.19885 0.69880 0.73215
 N152 N 0.19939 0.73517 0.70966
 H153 H 0.27243 0.77767 0.81480
 H154 H 0.29669 0.71241 0.70106
 H155 H 0.35130 0.67239 0.73657
 H156 H 0.32645 0.73792 0.85344
 H157 H 0.16994 0.77386 0.66373
 H158 H 0.11482 0.72266 0.64809
 H159 H 0.16800 0.64086 0.74347
 H160 H 0.22222 0.69249 0.75602
 C161 C 0.18163 0.88519 0.79351
 C162 C 0.31587 0.81636 0.60219
 C163 C 0.13722 0.67769 0.69459
 C164 C 0.34344 0.70223 0.79788
 C165 C 0.03246 0.09781 0.00806
 H166 H 0.02271 0.10003 -0.02500
 C167 C 0.04873 0.13269 0.02850
 H168 H 0.05184 0.16150 0.01069
 C169 C 0.04040 0.05725 0.07107
 H170 H 0.03624 0.02820 0.08798
 C171 C 0.05729 0.09125 0.09262
 H172 H 0.06627 0.08771 0.12582
 N173 N 0.02920 0.06084 0.02922
 C174 C 0.03246 -0.03285 -0.07091
 H175 H 0.00385 -0.04911 -0.06522
 C176 C 0.05932 -0.04703 -0.10215
 H177 H 0.05094 -0.07402 -0.12081
 C178 C 0.07848 0.02163 -0.05280
 H179 H 0.08645 0.04767 -0.03277
 C180 C 0.10591 0.00889 -0.08405
 H181 H 0.13465 0.02551 -0.08768
 Zn182 Zn 0.00668 0.01587 -0.00242
 N183 N 0.04248 0.00085 -0.04693
 C184 C -0.05301 0.03914 -0.06643
 N185 N -0.04446 0.03464 -0.02407
 C186 C -0.07221 0.04532 0.00596
 C187 C -0.11088 0.05992 -0.00595
 C188 C -0.09119 0.05467 -0.07991
 C189 C 0.02992 -0.04831 0.05572
 C190 C 0.02330 -0.08195 0.08348
 C191 C -0.04735 -0.08412 0.05960
 C192 C -0.03949 -0.05008 0.03302
 N193 N -0.00172 -0.03199 0.03253
 H194 H -0.03013 0.03110 -0.08976
 H195 H -0.06420 0.04225 0.03945
 H196 H -0.13159 0.06834 0.01928
 H197 H -0.09714 0.05772 -0.11383
 H198 H 0.06021 -0.03457 0.05338
 H199 H 0.04912 -0.09344 0.10195
 H200 H -0.07819 -0.09657 0.05954
 H201 H -0.06386 -0.03812 0.01284
 C202 C 0.09661 -0.02604 -0.10896
 C203 C 0.06179 0.12953 0.07122
 C204 C -0.01613 -0.10000 0.08656
 C205 C -0.12114 0.06505 -0.04949
 C206 C 0.03688 0.53917 0.55884
 H207 H 0.04729 0.53591 0.52632
 C208 C 0.05391 0.57001 0.58499
 H209 H 0.07766 0.59008 0.57228
 C210 C -0.00563 0.51585 0.61518
 H211 H -0.02915 0.49507 0.62691
 C212 C 0.01023 0.54627 0.64218
 H213 H -0.00154 0.54823 0.67429
 N214 N 0.00893 0.51176 0.57486
 C215 C 0.02654 0.39892 0.49975
 H216 H -0.00507 0.39128 0.49212
 C217 C 0.05827 0.37473 0.48355
 H218 H 0.05093 0.34842 0.46346
 C219 C 0.07445 0.44253 0.53523
 H220 H 0.08073 0.46869 0.55568
 C221 C 0.10708 0.41868 0.52044
 H222 H 0.13820 0.42746 0.52894
 Zn223 Zn -0.00980 0.46604 0.54177
 N224 N 0.03513 0.43299 0.52380
 C225 C -0.02573 0.47790 0.45367
 N226 N -0.03928 0.48697 0.49350
 C227 C -0.07214 0.51239 0.49909
 C228 C -0.09318 0.52904 0.46367
 C229 C -0.04620 0.49317 0.41761
 C230 C -0.02110 0.41211 0.60902
 C231 C -0.04154 0.38907 0.64014
 C232 C -0.10570 0.40423 0.60399
 C233 C -0.08390 0.42722 0.57340
 N234 N -0.04242 0.43143 0.57710
 H235 H 0.00144 0.45936 0.44951
 H236 H -0.08181 0.51996 0.53106
 H237 H -0.11934 0.54912 0.46854
 H238 H -0.03459 0.48566 0.38632
 H239 H 0.01190 0.41577 0.61100
 H240 H -0.02372 0.37443 0.66537
 H241 H -0.13883 0.40226 0.60144
 H242 H -0.10021 0.44258 0.54756
 C243 C 0.09915 0.38483 0.49356
 C244 C 0.04147 0.57293 0.62775
 C245 C -0.08448 0.38561 0.63847
 C246 C -0.08039 0.51901 0.42232
 C247 C 0.55392 0.05422 0.47538
 H248 H 0.55954 0.05437 0.44138
 C249 C 0.56865 0.08669 0.50034
 H250 H 0.58578 0.11163 0.48527
 C251 C 0.52506 0.02101 0.53603
 H252 H 0.50750 -0.00425 0.54969
 C253 C 0.54006 0.05270 0.56249
 H254 H 0.53398 0.05155 0.59643
 N255 N 0.53267 0.02218 0.49333
 C256 C 0.55952 -0.07422 0.40060
 H257 H 0.52985 -0.08056 0.38620
 C258 C 0.59470 -0.09390 0.38525
 H259 H 0.59179 -0.11506 0.35869
 C260 C 0.59933 -0.03847 0.45235
 H261 H 0.60112 -0.01741 0.47898
 C262 C 0.63507 -0.05737 0.43814
 H263 H 0.66375 -0.05043 0.45429
 Zn264 Zn 0.51561 -0.01807 0.45290
 N265 N 0.56260 -0.04642 0.43301
 C266 C 0.50168 0.01369 0.36742
 N267 N 0.48937 0.01282 0.40881
 C268 C 0.45701 0.03583 0.42197
 C269 C 0.43488 0.06023 0.39303
 C270 C 0.48040 0.03795 0.33723
 C271 C 0.48472 -0.07892 0.51186
 C272 C 0.45490 -0.10612 0.52818
 C273 C 0.41192 -0.09053 0.46692
 C274 C 0.44210 -0.06333 0.45220
 N275 N 0.47729 -0.05721 0.47511
 H276 H 0.52809 -0.00410 0.35780
 H277 H 0.44819 0.03484 0.45520
 H278 H 0.40885 0.07747 0.40458
 H279 H 0.49093 0.03840 0.30458
 H280 H 0.51354 -0.07480 0.52876
 H281 H 0.46088 -0.12262 0.55786
 H282 H 0.38381 -0.09387 0.44855
 H283 H 0.43721 -0.04714 0.42227
 C284 C 0.63324 -0.08499 0.40372
 C285 C 0.56190 0.08615 0.54444
 C286 C 0.41781 -0.11189 0.50565
 C287 C 0.44633 0.06157 0.34989
 C288 C 0.55423 0.58161 -0.00352
 H289 H 0.55023 0.57398 -0.03690
 C290 C 0.58571 0.60866 0.00904
 H291 H 0.60617 0.62145 -0.01479
 C292 C 0.53198 0.57471 0.06805
 H293 H 0.51024 0.56276 0.09090
 C294 C 0.56349 0.60089 0.08208
 H295 H 0.56588 0.60830 0.11569
 N296 N 0.52833 0.56498 0.02596
 C297 C 0.47687 0.45355 -0.03174
 H298 H 0.44474 0.46046 -0.02693
 C299 C 0.48803 0.41692 -0.05193
 H300 H 0.46407 0.39607 -0.06283
 C301 C 0.54667 0.47367 -0.02436
 H302 H 0.56933 0.49587 -0.01336
 C303 C 0.55926 0.43726 -0.04460
 H304 H 0.59174 0.43170 -0.04880
 Zn305 Zn 0.48528 0.53016 0.00593
 N306 N 0.50598 0.48127 -0.01893
 C307 C 0.46103 0.54896 -0.07766
 N308 N 0.45597 0.56060 -0.03639
 C309 C 0.43504 0.59581 -0.02654
 C310 C 0.41862 0.62109 -0.05912
 C311 C 0.44563 0.57336 -0.11093
 C312 C 0.47191 0.49064 0.08290
 C313 C 0.45060 0.47486 0.11779
 C314 C 0.38744 0.50010 0.08590
 C315 C 0.41029 0.51678 0.05207
 N316 N 0.45184 0.51205 0.05151
 H317 H 0.47866 0.52164 -0.08513
 H318 H 0.43225 0.60491 0.00649
 H319 H 0.40287 0.64953 -0.05102
 H320 H 0.45055 0.56357 -0.14348
 H321 H 0.50474 0.48604 0.08084
 H322 H 0.46716 0.45834 0.14281
 H323 H 0.35438 0.50367 0.08621
 H324 H 0.39484 0.53274 0.02603
 C325 C 0.52968 0.40844 -0.05885
 C326 C 0.59071 0.61828 0.05239
 C327 C 0.40793 0.47942 0.11942
 C328 C 0.42483 0.61030 -0.10194
 N329 N 0.15395 -0.01646 -0.16095
 N330 N 0.17611 -0.03969 -0.18657
 C331 C 0.16309 -0.07947 -0.18352
 C332 C 0.13092 -0.08146 -0.15476
 C333 C 0.12612 -0.04083 -0.14113
 H334 H 0.11383 -0.10867 -0.14465
 H335 H 0.15798 0.01557 -0.15743
 H336 H 0.20030 -0.02827 -0.20499
 N337 N 0.17073 0.35666 0.49328
 N338 N 0.19498 0.33717 0.46644
 C339 C 0.17373 0.32901 0.43022
 C340 C 0.13389 0.34351 0.43473
 C341 C 0.13340 0.36116 0.47497
 H342 H 0.10944 0.34384 0.41110
 H343 H 0.17995 0.36693 0.52345
 H344 H 0.22567 0.33019 0.47312
 N345 N 0.70937 -0.08702 0.39298
 N346 N 0.73644 -0.11001 0.37286
 C347 C 0.71664 -0.14167 0.35353
 C348 C 0.67494 -0.13860 0.36184
 C349 C 0.67155 -0.10338 0.38696
 H350 H 0.65053 -0.15877 0.35064
 H351 H 0.71702 -0.06007 0.40968
 H352 H 0.76796 -0.10390 0.37276
 N353 N 0.51792 0.33586 -0.08492
 N354 N 0.53724 0.30801 -0.10801
 C355 C 0.57401 0.32366 -0.11984
 C356 C 0.57803 0.36342 -0.10310
 C357 C 0.54176 0.37003 -0.08131
 H358 H 0.60336 0.38495 -0.10671
 H359 H 0.48897 0.33097 -0.07168
 H360 H 0.52475 0.27900 -0.11538
 N361 N -0.19184 0.08557 -0.03501
 N362 N -0.22373 0.10476 -0.05745
 C363 C -0.21111 0.11206 -0.09781
 C364 C -0.17128 0.09659 -0.10192
 C365 C -0.15992 0.08103 -0.06178
 H366 H -0.15190 0.09903 -0.12966
 H367 H -0.19406 0.07614 -0.00317
 H368 H -0.25196 0.11163 -0.04377
 N369 N -0.10295 0.51628 0.34596
 N370 N -0.12090 0.54091 0.31754
 C371 C -0.13136 0.57676 0.33665
 C372 C -0.11999 0.57440 0.37951
 C373 C -0.10165 0.53569 0.38393
 H374 H -0.12235 0.59834 0.40345
 H375 H -0.09165 0.48673 0.33911
 H376 H -0.12557 0.53296 0.28560
 N377 N 0.42559 0.08538 0.27591
 N378 N 0.39971 0.11232 0.25838
 C379 C 0.37965 0.13224 0.28965
 C380 C 0.39362 0.11728 0.32872
 C381 C 0.42274 0.08753 0.31881
 H382 H 0.38420 0.12727 0.36001
 H383 H 0.44416 0.06552 0.25836
 H384 H 0.39551 0.11609 0.22549
 N385 N 0.43081 0.63953 -0.17552
 N386 N 0.40966 0.66383 -0.20166
 C387 C 0.37653 0.67816 -0.18102
 C388 C 0.37692 0.66270 -0.13945
 C389 C 0.41163 0.63771 -0.13758
 H390 H 0.35381 0.66664 -0.11519
 H391 H 0.45779 0.62429 -0.18396
 H392 H 0.41778 0.66993 -0.23330
 N393 N 0.00076 -0.14393 0.14871
 N394 N -0.02015 -0.17273 0.17415
 C395 C -0.05777 -0.17878 0.15678
 C396 C -0.06135 -0.15411 0.12022
 C397 C -0.02459 -0.13209 0.11647
 H398 H -0.08831 -0.15106 0.10014
 H399 H 0.02987 -0.13229 0.15620
 H400 H -0.00765 -0.18658 0.20155
 N401 N -0.09125 0.35817 0.71315
 N402 N -0.11853 0.33789 0.73638
 C403 C -0.15201 0.33006 0.71205
 C404 C -0.14556 0.34634 0.67137
 C405 C -0.10657 0.36382 0.67337
 H406 H -0.16615 0.34539 0.64409
 H407 H -0.06285 0.36826 0.72494
 H408 H -0.11356 0.32914 0.76818
 N409 N 0.35571 -0.15746 0.49827
 N410 N 0.32887 -0.17603 0.52348
 C411 C 0.34009 -0.16981 0.56456
 C412 C 0.37615 -0.14646 0.56516
 C413 C 0.38481 -0.13902 0.52252
 H414 H 0.39295 -0.13486 0.59255
 H415 H 0.35358 -0.15724 0.46498
 H416 H 0.30280 -0.19152 0.51219
 N417 N 0.39867 0.46530 0.19675
 N418 N 0.37697 0.43979 0.22095
 C419 C 0.34993 0.41903 0.19604
 C420 C 0.35406 0.43284 0.15411
 C421 C 0.38565 0.46180 0.15603
 H422 H 0.33927 0.42063 0.12575
 H423 H 0.42303 0.48362 0.20784
 H424 H 0.38172 0.43606 0.25377
 N425 N 0.07393 0.20583 0.08234
 N426 N 0.09673 0.22975 0.10728
 C427 C 0.11865 0.20540 0.13429
 C428 C 0.10895 0.16411 0.12627
 C429 C 0.08059 0.16568 0.09304
 H430 H 0.12142 0.13666 0.14175
 H431 H 0.05423 0.21711 0.05847
 H432 H 0.09782 0.26215 0.10481
 N433 N 0.06312 0.59536 0.70090
 N434 N 0.08845 0.62260 0.71836
 C435 C 0.10444 0.64672 0.68732
 C436 C 0.08846 0.63437 0.64820
 C437 C 0.06252 0.60127 0.65815
 H438 H 0.09648 0.64632 0.61696
 H439 H 0.04826 0.57196 0.71821
 H440 H 0.09524 0.62388 0.75100
 N441 N 0.58109 0.16026 0.55632
 N442 N 0.59830 0.18306 0.58645
 C443 C 0.60623 0.15867 0.62079
 C444 C 0.59303 0.11842 0.61205
 C445 C 0.57743 0.12084 0.57072
 H446 H 0.59554 0.09104 0.63222
 H447 H 0.57234 0.17174 0.52631
 H448 H 0.60556 0.21452 0.58261
 N449 N 0.63831 0.67904 0.04365
 N450 N 0.66662 0.69852 0.06656
 C451 C 0.67089 0.67871 0.10446
 C452 C 0.64389 0.64536 0.10581
 C453 C 0.62372 0.64670 0.06668
 H454 H 0.63951 0.62324 0.13163
 H455 H 0.62886 0.68829 0.01307
 H456 H 0.68303 0.72454 0.05597
   
