data_POSCAR
  _audit_creation_date              2014-09-24
  _audit_creation_method            'ToBaCCo'
  _symmetry_space_group_name_H-M    'P1'
  _symmetry_Int_Tables_number       1
  _symmetry_cell_setting            triclinic
  loop_
  _symmetry_equiv_pos_as_xyz
 x,y,z
_cell_length_a 17.7389
_cell_length_b 18.2337
_cell_length_c 17.8805
_cell_angle_alpha 90.163500
_cell_angle_beta 90.073200
_cell_angle_gamma 90.151400
loop_
  _atom_site_label
  _atom_site_type_symbol
  _atom_site_fract_x
  _atom_site_fract_y
  _atom_site_fract_z
C1 C 0.57349 1.01465 -0.34400
 C2 C 0.50494 1.01483 -0.30500
 C3 C 0.43535 1.01671 -0.34161
 C4 C 0.43363 1.01935 -0.42042
 C5 C 0.50198 1.01929 -0.46135
 C6 C 0.57203 1.01845 -0.42307
 C7 C 0.63858 1.02130 -0.46518
 C8 C 0.63691 1.02159 -0.54228
 C9 C 0.56861 1.01883 -0.58191
 C10 C 0.50020 1.01909 -0.54092
 C11 C 0.36528 1.02191 -0.45957
 C12 C 0.36349 1.02133 -0.53664
 C13 C 0.42999 1.01820 -0.57896
 C14 C 0.42820 1.01407 -0.65796
 C15 C 0.49664 1.01388 -0.69725
 C16 C 0.56679 1.01575 -0.66106
 H17 H 0.69354 1.02341 -0.43992
 H18 H 0.69079 1.02375 -0.56939
 H19 H 0.31158 1.02413 -0.43196
 H20 H 0.30846 1.02339 -0.56162
 H21 H 0.50529 1.01324 -0.24499
 H22 H 0.49537 1.01211 -0.75724
 C23 C -0.56850 1.34338 0.00440
 C24 C -0.49961 1.30585 0.00084
 C25 C -0.43041 1.34317 -0.00297
 C26 C -0.43075 1.42037 -0.01011
 C27 C -0.49899 1.45934 0.00036
 C28 C -0.56753 1.42063 0.01113
 C29 C -0.63265 1.46035 0.02925
 C30 C -0.63258 1.53644 0.02861
 C31 C -0.56704 1.57604 0.01095
 C32 C -0.49872 1.53726 -0.00002
 C33 C -0.36536 1.45979 -0.02849
 C34 C -0.36497 1.53591 -0.02883
 C35 C -0.43023 1.57605 -0.01148
 C36 C -0.42954 1.65365 -0.00618
 C37 C -0.49881 1.69060 -0.00161
 C38 C -0.56765 1.65320 0.00445
 H39 H -0.68405 1.43342 0.04611
 H40 H -0.68440 1.56351 0.04364
 H41 H -0.31409 1.43253 -0.04495
 H42 H -0.31304 1.56251 -0.04456
 H43 H -0.49989 1.24653 0.00093
 H44 H -0.49939 1.74968 -0.00269
 C45 C -0.00141 0.33823 0.43177
 C46 C -0.00015 0.30153 0.50103
 C47 C 0.00108 0.33835 0.57046
 C48 C 0.00037 0.41652 0.57033
 C49 C -0.00024 0.45551 0.50137
 C50 C -0.00080 0.41638 0.43222
 C51 C -0.00069 0.45685 0.36542
 C52 C -0.00025 0.53292 0.36563
 C53 C -0.00021 0.57309 0.43261
 C54 C -0.00029 0.53418 0.50152
 C55 C 0.00022 0.45715 0.63725
 C56 C -0.00033 0.53326 0.63734
 C57 C -0.00043 0.57354 0.57052
 C58 C -0.00065 0.65176 0.57065
 C59 C -0.00039 0.68815 0.50126
 C60 C -0.00008 0.65093 0.43238
 H61 H -0.00073 0.43078 0.31138
 H62 H -0.00003 0.55941 0.31186
 H63 H 0.00032 0.43113 0.69118
 H64 H -0.00059 0.55960 0.69129
 H65 H -0.00012 0.24271 0.50088
 H66 H -0.00043 0.74697 0.50049
 O67 O -0.09875 0.99558 -0.19476
 O68 O -0.10730 1.00006 0.18946
 O69 O -0.19279 0.89837 -0.00498
 O70 O -0.19306 1.09269 -0.00058
 O71 O -0.10427 1.18554 0.00179
 O72 O -0.10404 0.80599 -0.00443
 O73 O -0.19487 0.99867 0.09413
 O74 O -0.18975 0.99293 -0.10292
 Zr75 Zr -0.12987 0.99576 -0.00255
 O76 O -0.06887 1.06354 0.06674
 O77 O -0.06654 0.92849 -0.06954
 C78 C -0.16797 0.99424 -0.17169
 C79 C -0.17572 1.00118 0.16356
 C80 C -0.17290 0.83022 -0.00595
 C81 C -0.17323 1.16095 0.00139
 H82 H -0.10189 0.89834 0.09775
 O83 O -0.06858 0.92897 0.06632
 H84 H -0.09811 1.09407 -0.10056
 O85 O -0.06588 1.06319 -0.06841
 O86 O 0.09864 0.99589 0.19474
 O87 O 0.10651 1.00022 -0.18945
 O88 O 0.00027 0.80628 0.10342
 O89 O -0.00318 1.18638 0.10454
 O90 O 0.00309 1.18642 -0.10323
 O91 O -0.00109 0.80610 -0.10406
 O92 O 0.19215 0.89908 0.00445
 O93 O 0.19281 1.09318 0.00117
 O94 O 0.10325 0.80639 0.00361
 O95 O 0.10431 1.18582 -0.00064
 O96 O -0.00136 0.89818 0.19300
 O97 O 0.00060 0.89791 -0.19321
 O98 O 0.00550 1.09446 -0.19271
 O99 O -0.00574 1.09445 0.19352
 O100 O 0.18945 0.99343 0.10271
 O101 O 0.19415 0.99930 -0.09421
 Zr102 Zr -0.00278 0.99638 0.13183
 Zr103 Zr 0.00229 0.99630 -0.13161
 Zr104 Zr -0.00037 0.86457 -0.00022
 Zr105 Zr -0.00008 1.12796 0.00046
 Zr106 Zr 0.12934 0.99617 0.00261
 O107 O 0.06853 1.06375 -0.06624
 O108 O 0.06592 0.92877 0.06936
 C109 C 0.16787 0.99464 0.17152
 C110 C 0.17490 1.00164 -0.16361
 C111 C 0.00017 0.83003 0.17237
 C112 C -0.00534 1.16260 0.17336
 C113 C 0.00519 1.16264 -0.17218
 C114 C -0.00098 0.82976 -0.17289
 C115 C 0.17216 0.83088 0.00513
 C116 C 0.17321 1.16138 -0.00045
 H117 H 0.10118 0.89858 -0.09812
 O118 O 0.06795 0.92911 -0.06652
 H119 H 0.09791 1.09440 0.10126
 O120 O 0.06558 1.06342 0.06896
 C121 C 0.23561 1.00796 0.31064
 C122 C 0.29829 0.94845 0.31285
 C123 C 0.35867 1.00843 0.30087
 C124 C 0.29707 1.06792 0.29961
 C125 C 0.35253 0.99872 0.21530
 C126 C 0.29199 0.93901 0.22720
 C127 C 0.23088 0.99834 0.22566
 C128 C 0.29094 1.05817 0.21414
 H129 H 0.18670 1.01146 0.34913
 H130 H 0.30194 0.90276 0.35360
 H131 H 0.29972 1.12151 0.32914
 H132 H 0.39672 0.99428 0.17171
 H133 H 0.28813 0.88487 0.19924
 H134 H 0.28631 1.10436 0.17431
 C135 C -0.30155 0.94561 0.21649
 C136 C -0.30527 0.95206 0.30258
 C137 C -0.36563 1.01234 0.29456
 C138 C -0.36221 1.00558 0.20847
 C139 C -0.30400 1.07214 0.29334
 C140 C -0.24265 1.01185 0.30094
 C141 C -0.24024 1.00517 0.21569
 C142 C -0.30029 1.06514 0.20729
 H143 H -0.29983 0.89345 0.18449
 H144 H -0.30778 0.90504 0.34183
 H145 H -0.40819 1.00268 0.16647
 H146 H -0.30545 1.12470 0.32480
 H147 H -0.19262 1.01433 0.33822
 H148 H -0.29761 1.11147 0.16738
 C149 C -0.29221 0.93911 -0.22852
 C150 C -0.35216 0.99916 -0.21689
 C151 C -0.35738 1.00880 -0.30248
 C152 C -0.29760 0.94848 -0.31420
 C153 C -0.29521 1.06798 -0.30039
 C154 C -0.28999 1.05831 -0.21490
 C155 C -0.23054 0.99814 -0.22613
 C156 C -0.23433 1.00769 -0.31113
 H157 H -0.28925 0.88504 -0.20069
 H158 H -0.39674 0.99497 -0.17367
 H159 H -0.30137 0.90280 -0.35523
 H160 H -0.29702 1.12152 -0.32974
 H161 H -0.28525 1.10447 -0.17473
 H162 H -0.18500 1.01089 -0.34912
 C163 C 0.30039 0.94648 -0.21701
 C164 C 0.30373 0.95268 -0.30308
 C165 C 0.36415 1.01321 -0.29510
 C166 C 0.36108 1.00676 -0.20913
 C167 C 0.30259 1.07271 -0.29360
 C168 C 0.24123 1.01216 -0.30117
 C169 C 0.23915 1.00578 -0.21589
 C170 C 0.29924 1.06606 -0.20757
 H171 H 0.29871 0.89442 -0.18511
 H172 H 0.30626 0.90565 -0.34254
 H173 H 0.40780 1.00431 -0.16795
 H174 H 0.30416 1.12508 -0.32507
 H175 H 0.19110 1.01429 -0.33830
 H176 H 0.29673 1.11252 -0.16755
 C177 C 0.24218 1.29000 0.03756
 C178 C 0.31993 1.26857 0.07074
 C179 C 0.35899 1.29899 0.00065
 C180 C 0.28196 1.32077 -0.03318
 C181 C 0.35347 1.22339 -0.03803
 C182 C 0.31441 1.19280 0.03226
 C183 C 0.23732 1.21467 -0.00068
 C184 C 0.27600 1.24460 -0.07109
 H185 H 0.19572 1.31721 0.06844
 H186 H 0.33836 1.27831 0.12929
 H187 H 0.26812 1.37293 -0.06189
 H188 H 0.39848 1.19505 -0.06998
 H189 H 0.32895 1.13934 0.05780
 H190 H 0.25688 1.23516 -0.12946
 C191 C 0.30910 0.79626 0.04806
 C192 C 0.31391 0.71566 0.07409
 C193 C 0.35991 0.69744 0.00357
 C194 C 0.35506 0.77789 -0.02257
 C195 C 0.28687 0.67907 -0.03985
 C196 C 0.23994 0.69781 0.03103
 C197 C 0.23608 0.77794 0.00528
 C198 C 0.28169 0.75991 -0.06534
 H199 H 0.31920 0.84558 0.08294
 H200 H 0.32767 0.69750 0.13170
 H201 H 0.40033 0.81311 -0.04591
 H202 H 0.27806 0.63077 -0.07681
 H203 H 0.19188 0.66524 0.05290
 H204 H 0.26740 0.77786 -0.12286
 C205 C -0.24072 0.69660 -0.03185
 C206 C -0.28814 0.67836 0.03887
 C207 C -0.36086 0.69607 -0.00517
 C208 C -0.31443 0.71373 -0.07550
 C209 C -0.35600 0.77686 0.02073
 C210 C -0.28292 0.75949 0.06397
 C211 C -0.23687 0.77700 -0.00645
 C212 C -0.30958 0.79465 -0.04975
 H213 H -0.19257 0.66399 -0.05327
 H214 H -0.27947 0.63059 0.07624
 H215 H -0.32776 0.69501 -0.13316
 H216 H -0.40093 0.81249 0.04393
 H217 H -0.26890 0.77801 0.12150
 H218 H -0.31929 0.84356 -0.08496
 C219 C -0.31416 1.19246 -0.03174
 C220 C -0.35338 1.22286 0.03864
 C221 C -0.35827 1.29858 0.00062
 C222 C -0.31907 1.26835 -0.06957
 C223 C -0.28129 1.32024 0.03498
 C224 C -0.27594 1.24395 0.07225
 C225 C -0.23712 1.21419 0.00176
 C226 C -0.24135 1.28964 -0.03583
 H227 H -0.32882 1.13908 -0.05788
 H228 H -0.39863 1.19440 0.07018
 H229 H -0.33716 1.27829 -0.12811
 H230 H -0.26736 1.37240 0.06409
 H231 H -0.25716 1.23434 0.13062
 H232 H -0.19459 1.31692 -0.06626
 C233 C -0.00343 1.30027 0.24050
 C234 C -0.06505 1.29893 0.30242
 C235 C -0.00302 1.29499 0.36309
 C236 C 0.05854 1.29682 0.30206
 C237 C -0.00488 1.21011 0.35914
 C238 C -0.06665 1.21409 0.29834
 C239 C -0.00527 1.21606 0.23762
 C240 C 0.05650 1.21205 0.29805
 H241 H -0.00291 1.33718 0.19125
 H242 H -0.11564 1.33460 0.30424
 H243 H 0.11063 1.33066 0.30357
 H244 H -0.00566 1.16865 0.40438
 H245 H -0.11854 1.17990 0.29648
 H246 H 0.10691 1.17609 0.29600
 C247 C 0.00320 1.30038 -0.23845
 C248 C 0.06479 1.29944 -0.30041
 C249 C 0.00274 1.29517 -0.36107
 C250 C -0.05880 1.29661 -0.30000
 C251 C 0.00466 1.21029 -0.35764
 C252 C 0.06645 1.21459 -0.29685
 C253 C 0.00510 1.21615 -0.23611
 C254 C -0.05670 1.21184 -0.29653
 H255 H 0.00267 1.33726 -0.18896
 H256 H 0.11534 1.33541 -0.30201
 H257 H -0.11091 1.33016 -0.30127
 H258 H 0.00544 1.16880 -0.40310
 H259 H 0.11836 1.18070 -0.29525
 H260 H -0.10708 1.17560 -0.29470
 C261 C -0.06275 0.77805 -0.29748
 C262 C -0.00092 0.78040 -0.35811
 C263 C -0.00098 0.69546 -0.36106
 C264 C -0.06304 0.69315 -0.30054
 C265 C 0.06059 0.69334 -0.29992
 C266 C 0.06046 0.77818 -0.29689
 C267 C -0.00138 0.77585 -0.23667
 C268 C -0.00145 0.69156 -0.23849
 H269 H -0.11384 0.81311 -0.29616
 H270 H -0.00066 0.82151 -0.40370
 H271 H -0.11437 0.65822 -0.30206
 H272 H 0.11188 0.65861 -0.30093
 H273 H 0.11162 0.81338 -0.29511
 H274 H -0.00171 0.65525 -0.18878
 C275 C 0.00073 0.69200 0.23759
 C276 C 0.06225 0.69423 0.29962
 C277 C 0.00024 0.69639 0.36017
 C278 C -0.06127 0.69366 0.29899
 C279 C 0.00008 0.78120 0.35743
 C280 C 0.06192 0.77909 0.29680
 C281 C 0.00056 0.77629 0.23595
 C282 C -0.06128 0.77846 0.29620
 H283 H 0.00103 0.65548 0.18782
 H284 H 0.11356 0.65956 0.30120
 H285 H -0.11247 0.65854 0.30005
 H286 H -0.00022 0.82179 0.40373
 H287 H 0.11298 0.81444 0.29559
 H288 H -0.11250 0.81332 0.29450
   
