data_POSCAR
  _audit_creation_date              2014-09-24
  _audit_creation_method            'ToBaCCo'
  _symmetry_space_group_name_H-M    'P1'
  _symmetry_Int_Tables_number       1
  _symmetry_cell_setting            triclinic
  loop_
  _symmetry_equiv_pos_as_xyz
 x,y,z
_cell_length_a 19.9543
_cell_length_b 20.9465
_cell_length_c 20.5895
_cell_angle_alpha 86.929300
_cell_angle_beta 91.436500
_cell_angle_gamma 90.433500
loop_
  _atom_site_label
  _atom_site_type_symbol
  _atom_site_fract_x
  _atom_site_fract_y
  _atom_site_fract_z
C1 C 0.30059 0.41558 1.37761
 N2 N 0.32337 0.35810 1.40207
 C3 C 0.37638 0.32979 1.37584
 N4 N 0.40636 0.35908 1.32334
 C5 C 0.38458 0.41756 1.29936
 N6 N 0.33232 0.44571 1.32720
 C7 C 1.20347 0.61591 0.87796
 N8 N 1.16997 0.58784 0.82873
 C9 C 1.10765 0.60726 0.80949
 N10 N 1.07895 0.65597 0.83890
 C11 C 1.11252 0.68656 0.88636
 N12 N 1.17498 0.66613 0.90647
 C13 C 0.69782 -0.12244 0.13254
 N14 N 0.66850 -0.17424 0.10585
 C15 C 0.60657 -0.19482 0.12502
 N16 N 0.57402 -0.16267 0.17020
 C17 C 0.60284 -0.11123 0.19714
 N18 N 0.66485 -0.09169 0.17855
 C19 C -0.18573 1.09133 -0.38573
 N20 N -0.16369 1.14718 -0.41412
 C21 C -0.11056 1.17822 -0.38861
 N22 N -0.07869 1.15277 -0.33448
 C23 C -0.09881 1.09582 -0.30690
 N24 N -0.15296 1.06511 -0.33227
 C25 C 0.68291 0.63428 0.59375
 N26 N 0.65626 0.68846 0.56553
 C27 C 0.60503 0.71818 0.59329
 N28 N 0.57987 0.69287 0.64990
 C29 C 0.60685 0.63887 0.67904
 N30 N 0.65860 0.60985 0.65100
 C31 C 0.80597 0.34178 0.12351
 N32 N 0.83389 0.28609 0.10736
 C33 C 0.88160 0.25686 0.14627
 N34 N 0.90052 0.28325 0.20247
 C35 C 0.87413 0.33940 0.21927
 N36 N 0.82679 0.36914 0.17952
 C37 C 0.31232 0.12536 0.87633
 N38 N 0.33575 0.11164 0.81726
 C39 C 0.38228 0.15009 0.78741
 N40 N 0.40612 0.20201 0.81768
 C41 C 0.38403 0.21565 0.87735
 N42 N 0.33689 0.17728 0.90641
 C43 C 0.18064 0.87650 0.40978
 N44 N 0.15188 0.90230 0.35415
 C45 C 0.09600 0.87559 0.32810
 N46 N 0.06932 0.82192 0.35715
 C47 C 0.09857 0.79505 0.41226
 N48 N 0.15377 0.82291 0.43860
 Zn49 Zn 0.09857 0.95887 0.02380
 Zn50 Zn -0.03225 0.91982 -0.03943
 Zn51 Zn -0.03307 0.99118 0.08181
 Zn52 Zn 0.01081 1.05777 -0.03992
 O53 O 0.01106 0.98160 0.00646
 O54 O 0.11789 0.88230 -0.00570
 O55 O -0.10820 0.88981 -0.00147
 O56 O 0.01687 0.96750 0.15135
 O57 O 0.02099 0.85217 -0.04984
 O58 O 0.11612 0.95000 0.10942
 O59 O -0.10844 0.94465 0.08728
 O60 O -0.03569 1.11827 -0.00337
 O61 O -0.05846 0.94931 -0.11991
 O62 O -0.05958 1.07154 0.09221
 O63 O -0.02598 1.05058 -0.11798
 O64 O 0.09276 1.09097 -0.05322
 O65 O 0.15948 1.01518 -0.01042
 C66 C 0.08230 0.84155 -0.03456
 C67 C -0.13585 0.90476 0.05051
 C68 C 0.07803 0.95175 0.15772
 C69 C -0.06103 1.11979 0.05227
 C70 C -0.05313 1.00489 -0.14716
 C71 C 0.15100 1.06919 -0.04058
 Zn72 Zn 0.45786 0.03680 0.40283
 Zn73 Zn 0.42896 -0.02411 0.53569
 Zn74 Zn 0.56760 -0.01855 0.48648
 Zn75 Zn 0.50043 0.10098 0.52353
 O76 O 0.48849 0.02390 0.48713
 O77 O 0.37596 0.00366 0.39189
 O78 O 0.46156 -0.10036 0.56554
 O79 O 0.59464 -0.03396 0.40698
 O80 O 0.35509 -0.04138 0.48942
 O81 O 0.50977 0.00113 0.34419
 O82 O 0.56435 -0.09484 0.52805
 O83 O 0.58635 0.11459 0.54563
 O84 O 0.40241 0.01450 0.60639
 O85 O 0.63433 0.02339 0.52350
 O86 O 0.45540 0.10759 0.59780
 O87 O 0.47547 0.16718 0.46925
 O88 O 0.45083 0.12006 0.37763
 C89 C 0.33800 -0.02791 0.43048
 C90 C 0.51865 -0.12493 0.55875
 C91 C 0.56635 -0.02602 0.35148
 C92 C 0.63730 0.07876 0.54526
 C93 C 0.41684 0.06851 0.62830
 C94 C 0.45721 0.16999 0.40957
 Zn95 Zn 0.99898 0.41190 0.47236
 Zn96 Zn 1.06695 0.53050 0.51119
 Zn97 Zn 0.92451 0.53425 0.46009
 Zn98 Zn 0.95987 0.47323 0.59247
 O99 O 0.98731 0.48770 0.50893
 O100 O 1.08405 0.39780 0.45380
 O101 O 1.06106 0.60676 0.47048
 O102 O 0.89486 0.49534 0.38781
 O103 O 1.13377 0.48917 0.47607
 O104 O 0.95182 0.40513 0.39822
 O105 O 0.95623 0.61142 0.43239
 O106 O 0.87903 0.50511 0.60404
 O107 O 1.09627 0.54606 0.59150
 O108 O 0.85238 0.55023 0.50694
 O109 O 1.01376 0.50778 0.65198
 O110 O 0.95428 0.39035 0.61640
 O111 O 0.97576 0.34561 0.52416
 C112 C 1.13576 0.43304 0.45614
 C113 C 1.01362 0.63673 0.44054
 C114 C 0.91045 0.44158 0.36680
 C115 C 0.83888 0.53650 0.56616
 C116 C 1.06980 0.53615 0.64637
 C117 C 0.96001 0.34148 0.58343
 Zn118 Zn 0.53512 0.42635 1.02071
 Zn119 Zn 0.47677 0.51107 0.91431
 Zn120 Zn 0.47915 0.55571 1.04930
 Zn121 Zn 0.60230 0.54254 0.97745
 O122 O 0.52123 0.50846 0.99115
 O123 O 0.49731 0.36870 0.96838
 O124 O 0.39899 0.55210 0.91736
 O125 O 0.46275 0.50777 1.12313
 O126 O 0.45690 0.43249 0.88741
 O127 O 0.49952 0.41219 1.09855
 O128 O 0.39877 0.58567 1.01766
 O129 O 0.60502 0.62516 0.99341
 O130 O 0.52442 0.55158 0.85204
 O131 O 0.52816 0.62604 1.06927
 O132 O 0.62676 0.53703 0.89407
 O133 O 0.66367 0.50623 1.03256
 O134 O 0.62308 0.40765 1.03506
 C135 C 0.46608 0.37693 0.91393
 C136 C 0.37068 0.58099 0.96188
 C137 C 0.47220 0.44840 1.13750
 C138 C 0.57738 0.65220 1.03934
 C139 C 0.58770 0.55330 0.84628
 C140 C 0.66938 0.44726 1.04883
 C141 C 1.24267 0.44203 0.40090
 C142 C 1.19936 0.40700 0.43655
 H143 H 1.22977 0.49068 0.38493
 H144 H 1.20762 0.35637 0.44715
 C145 C 0.26684 0.59222 0.89639
 C146 C 0.30394 0.60988 0.94779
 H147 H 0.28606 0.55520 0.86714
 H148 H 0.28499 0.64413 0.98030
 C149 C -0.23859 0.90011 0.11463
 C150 C -0.20162 0.87611 0.06802
 H151 H -0.21903 0.94069 0.13983
 H152 H -0.22068 0.83688 0.04055
 C153 C 0.75099 0.06396 0.59124
 C154 C 0.70139 0.10283 0.56966
 H155 H 0.74376 0.01259 0.59510
 H156 H 0.70724 0.15423 0.57150
 C157 C 0.39787 0.27106 0.40396
 C158 C 0.44111 0.23246 0.37701
 H159 H 0.37532 0.25464 0.44936
 H160 H 0.45978 0.24384 0.32876
 C161 C 0.90781 0.23721 0.58337
 C162 C 0.94680 0.27854 0.61417
 H163 H 0.88532 0.25182 0.53640
 H164 H 0.96409 0.26858 0.66399
 C165 C 0.08273 0.74059 -0.09007
 C166 C 0.11400 0.78119 -0.05123
 H167 H 0.03248 0.75198 -0.10818
 H168 H 0.16508 0.77218 -0.03424
 C169 C 0.57687 0.74967 1.10202
 C170 C 0.60501 0.71442 1.05782
 H171 H 0.52964 0.73396 1.12257
 H172 H 0.65132 0.73028 1.03552
 C173 C 0.41340 0.44977 1.24109
 C174 C 0.45087 0.41901 1.20023
 H175 H 0.39882 0.49879 1.22897
 H176 H 0.46325 0.36921 1.21111
 C177 C 0.56740 -0.07881 0.24788
 C178 C 0.60065 -0.04991 0.29535
 H179 H 0.51338 -0.08401 0.24973
 H180 H 0.65498 -0.05030 0.29704
 C181 C -0.06545 1.07286 -0.24607
 C182 C -0.08089 1.01807 -0.21332
 H183 H -0.02843 1.10484 -0.22578
 H184 H -0.11610 0.98447 -0.23367
 C185 C 1.07219 0.57816 0.75510
 C186 C 1.10522 0.55872 0.70415
 H187 H 1.01786 0.57823 0.75408
 H188 H 1.15919 0.56455 0.70244
 C189 C 0.73985 0.60502 0.56300
 C190 C 0.77655 0.55894 0.59332
 H191 H 0.75445 0.62502 0.51576
 H192 H 0.76368 0.54067 0.64169
 C193 C 0.75415 0.36727 1.08326
 C194 C 0.72868 0.42559 1.08801
 H195 H 0.73410 0.33779 1.04552
 H196 H 0.75140 0.45844 1.12116
 C197 C 0.25984 1.08410 -0.09361
 C198 C 0.20906 1.10841 -0.06177
 H199 H 0.25895 1.03389 -0.10387
 H200 H 0.20602 1.15972 -0.05803
 C201 C 0.23930 -0.09788 0.43580
 C202 C 0.27322 -0.05023 0.40524
 H203 H 0.25944 -0.11987 0.48095
 H204 H 0.25561 -0.02964 0.35852
 C205 C 0.58285 -0.22371 0.56485
 C206 C 0.53295 -0.18938 0.58752
 H207 H 0.60938 -0.20491 0.52254
 H208 H 0.50294 -0.20806 0.62745
 C209 C 1.07721 0.73636 0.43921
 C210 C 1.02618 0.70237 0.41482
 H211 H 1.10611 0.71629 0.48063
 H212 H 0.99430 0.72200 0.37542
 C213 C -0.08841 1.20028 0.12941
 C214 C -0.09417 1.17856 0.06955
 H215 H -0.05645 1.17496 0.16542
 H216 H -0.12028 1.20627 0.03093
 C217 C 0.41225 0.27048 0.91164
 C218 C 0.43975 0.32137 0.87990
 H219 H 0.40797 0.27003 0.96404
 H220 H 0.43875 0.32449 0.82718
 C221 C 0.58004 0.61310 0.74099
 C222 C 0.61572 0.57540 0.78348
 H223 H 0.53043 0.62848 0.75338
 H224 H 0.66713 0.56359 0.77366
 C225 C 0.40784 0.13615 0.72281
 C226 C 0.38847 0.08463 0.69100
 H227 H 0.44474 0.16870 0.70161
 H228 H 0.35243 0.05146 0.71266
 C229 C 0.06713 0.90182 0.26643
 C230 C 0.10522 0.93288 0.22237
 H231 H 0.01523 0.89065 0.25470
 H232 H 0.15859 0.93875 0.23152
 C233 C 0.89861 0.36511 0.28097
 C234 C 0.88046 0.42072 0.30459
 H235 H 0.93508 0.33568 0.30828
 H236 H 0.84449 0.45124 0.27800
   
