data_POSCAR
  _audit_creation_date              2014-09-24
  _audit_creation_method            'ToBaCCo'
  _symmetry_space_group_name_H-M    'P1'
  _symmetry_Int_Tables_number       1
  _symmetry_cell_setting            triclinic
  loop_
  _symmetry_equiv_pos_as_xyz
 x,y,z
_cell_length_a 25.0439
_cell_length_b 25.0555
_cell_length_c 24.8691
_cell_angle_alpha 91.585200
_cell_angle_beta 91.210800
_cell_angle_gamma 90.118600
loop_
  _atom_site_label
  _atom_site_type_symbol
  _atom_site_fract_x
  _atom_site_fract_y
  _atom_site_fract_z
Si1 Si 0.25656 0.25498 0.24582
 Si2 Si 0.74548 0.74894 0.25094
 Si3 Si 0.76457 0.25381 0.73755
 Si4 Si 0.25233 0.76300 0.76098
 C5 C 0.06137 0.08281 0.02365
 H6 H 0.05915 0.08447 -0.01977
 C7 C 0.09362 0.11895 0.05297
 H8 H 0.11608 0.14839 0.03169
 C9 C 0.03357 0.04308 0.10379
 H10 H 0.00986 0.01355 0.12337
 C11 C 0.06537 0.07865 0.13483
 H12 H 0.06650 0.07543 0.17815
 N13 N 0.03261 0.04545 0.04918
 C14 C 0.01007 -0.08978 -0.06315
 H15 H -0.03226 -0.09704 -0.05942
 C16 C 0.04053 -0.12388 -0.09552
 H17 H 0.02163 -0.15719 -0.11718
 C18 C 0.08687 -0.03843 -0.03872
 H19 H 0.10511 -0.00549 -0.01634
 C20 C 0.11873 -0.07149 -0.07059
 H21 H 0.16102 -0.06317 -0.07322
 Zn22 Zn -0.01044 -0.00126 0.00526
 N23 N 0.03336 -0.04743 -0.03630
 C24 C -0.07016 0.02188 -0.08975
 N25 N -0.05308 0.04099 -0.04062
 C26 C -0.06462 0.09160 -0.02358
 C27 C -0.09240 0.12589 -0.05727
 C28 C -0.09858 0.05468 -0.12458
 C29 C -0.03178 -0.08248 0.07694
 C30 C -0.06338 -0.11548 0.10754
 C31 C -0.14137 -0.06733 0.07720
 C32 C -0.10830 -0.03537 0.04696
 N33 N -0.05460 -0.04330 0.04762
 H34 H -0.06135 -0.01858 -0.10242
 H35 H -0.05139 0.10574 0.01596
 H36 H -0.09950 0.16654 -0.04340
 H37 H -0.11194 0.03841 -0.16332
 H38 H 0.01103 -0.08810 0.07634
 H39 H -0.04454 -0.14616 0.13115
 H40 H -0.18393 -0.06077 0.07543
 H41 H -0.12558 -0.00433 0.02283
 C42 C 0.09540 -0.11459 -0.09936
 C43 C 0.09616 0.11711 0.10935
 C44 C -0.11893 -0.10799 0.10804
 C45 C -0.10915 0.10787 -0.10893
 C46 C 0.10657 0.56214 0.53321
 H47 H 0.12553 0.53844 0.50217
 C48 C 0.13721 0.59811 0.56496
 H49 H 0.17980 0.60062 0.55887
 C50 C 0.02811 0.58865 0.57823
 H51 H -0.01459 0.58500 0.58278
 C52 C 0.05716 0.62478 0.61097
 H53 H 0.03638 0.64904 0.64049
 N54 N 0.05316 0.55741 0.54106
 C55 C 0.03485 0.45238 0.40369
 H56 H -0.00086 0.47031 0.38716
 C57 C 0.06555 0.41871 0.37107
 H58 H 0.05256 0.41142 0.32978
 C59 C 0.09208 0.43714 0.47856
 H60 H 0.10176 0.44401 0.52078
 C61 C 0.12453 0.40401 0.44719
 H62 H 0.15970 0.38669 0.46568
 Zn63 Zn 0.00885 0.50947 0.50004
 N64 N 0.04945 0.46229 0.45598
 C65 C -0.01821 0.57572 0.41417
 N66 N -0.03773 0.55193 0.45811
 C67 C -0.08884 0.56044 0.47364
 C68 C -0.12330 0.59178 0.44299
 C69 C -0.05149 0.60662 0.38186
 C70 C -0.01904 0.46478 0.59942
 C71 C -0.05046 0.43470 0.63308
 C72 C -0.10649 0.40933 0.55622
 C73 C -0.07339 0.43901 0.52386
 N74 N -0.03154 0.46711 0.54604
 H75 H 0.02308 0.56980 0.40362
 H76 H -0.10288 0.54346 0.51024
 H77 H -0.16351 0.59827 0.45674
 H78 H -0.03541 0.62326 0.34590
 H79 H 0.01533 0.48615 0.61595
 H80 H -0.04039 0.43352 0.67560
 H81 H -0.14011 0.38774 0.53812
 H82 H -0.08172 0.44070 0.48108
 C83 C 0.11217 0.39512 0.39220
 C84 C 0.11255 0.62965 0.60484
 C85 C -0.09531 0.40731 0.61161
 C86 C -0.10517 0.61460 0.39566
 C87 C 0.53991 0.09772 0.53925
 H88 H 0.50962 0.11647 0.51491
 C89 C 0.57751 0.12979 0.56715
 H90 H 0.57440 0.17276 0.56497
 C91 C 0.58176 0.01960 0.57067
 H92 H 0.58483 -0.02332 0.57019
 C93 C 0.62009 0.05009 0.59917
 H94 H 0.65160 0.03002 0.62114
 N95 N 0.54213 0.04355 0.54196
 C96 C 0.52379 -0.10163 0.45566
 H97 H 0.49025 -0.11780 0.47656
 C98 C 0.55612 -0.13567 0.42507
 H99 H 0.54729 -0.17785 0.42356
 C100 C 0.57610 -0.02693 0.43309
 H101 H 0.58351 0.01559 0.43646
 C102 C 0.60951 -0.05948 0.40234
 H103 H 0.64220 -0.04149 0.38145
 Zn104 Zn 0.49310 -0.00143 0.50211
 N105 N 0.53439 -0.04838 0.45917
 C106 C 0.44798 0.03000 0.40266
 N107 N 0.44806 0.04010 0.45673
 C108 C 0.41718 0.07957 0.47835
 C109 C 0.38657 0.11223 0.44506
 C110 C 0.41728 0.06109 0.36805
 C111 C 0.47655 -0.07606 0.58334
 C112 C 0.44766 -0.10568 0.61952
 C113 C 0.36668 -0.06539 0.58573
 C114 C 0.39719 -0.03656 0.55003
 N115 N 0.45129 -0.04169 0.54993
 H116 H 0.47208 -0.00193 0.38615
 H117 H 0.41709 0.08631 0.52151
 H118 H 0.36283 0.14398 0.46266
 H119 H 0.41813 0.05313 0.32504
 H120 H 0.51920 -0.08118 0.58166
 H121 H 0.46888 -0.13202 0.64629
 H122 H 0.32371 -0.06081 0.58491
 H123 H 0.37740 -0.01025 0.52239
 C124 C 0.59986 -0.11470 0.39809
 C125 C 0.61838 0.10600 0.59760
 C126 C 0.39197 -0.10023 0.62147
 C127 C 0.38692 0.10325 0.38923
 C128 C 0.56540 0.58347 0.01108
 H129 H 0.55515 0.59481 -0.02949
 C130 C 0.59693 0.61752 0.04409
 H131 H 0.61139 0.65457 0.02832
 C132 C 0.55846 0.52182 0.08109
 H133 H 0.54296 0.48506 0.09598
 C134 C 0.59018 0.55429 0.11516
 H135 H 0.59841 0.54190 0.15588
 N136 N 0.54665 0.53670 0.03003
 C137 C 0.53040 0.39949 -0.07303
 H138 H 0.49589 0.38187 -0.05506
 C139 C 0.56288 0.36808 -0.10602
 H140 H 0.55358 0.32610 -0.11220
 C141 C 0.58457 0.47538 -0.08653
 H142 H 0.59271 0.51728 -0.07890
 C143 C 0.61815 0.44546 -0.11968
 H144 H 0.65179 0.46492 -0.13757
 Zn145 Zn 0.50089 0.49342 -0.01502
 N146 N 0.54243 0.45183 -0.06297
 C147 C 0.44716 0.52900 -0.10860
 N148 N 0.45583 0.53866 -0.05502
 C149 C 0.43330 0.58118 -0.02916
 C150 C 0.40057 0.61615 -0.05737
 C151 C 0.41424 0.56276 -0.13832
 C152 C 0.48348 0.40733 0.05387
 C153 C 0.45478 0.37569 0.08858
 C154 C 0.37630 0.42790 0.06880
 C155 C 0.40642 0.45840 0.03434
 N156 N 0.45929 0.44831 0.02817
 H157 H 0.46568 0.49500 -0.12829
 H158 H 0.44094 0.58792 0.01346
 H159 H 0.38273 0.64964 -0.03600
 H160 H 0.40807 0.55472 -0.18100
 H161 H 0.52553 0.39979 0.04811
 H162 H 0.47556 0.34450 0.10940
 H163 H 0.33428 0.43673 0.07317
 H164 H 0.38759 0.49064 0.01319
 C165 C 0.60814 0.39075 -0.12889
 C166 C 0.60948 0.60309 0.09702
 C167 C 0.40053 0.38625 0.09706
 C168 C 0.39051 0.60706 -0.11266
 C169 C 0.20090 -0.21292 -0.14244
 C170 C 0.20652 -0.20211 -0.19719
 C171 C 0.16624 -0.17053 -0.22120
 C172 C 0.12788 -0.14398 -0.18974
 C173 C 0.12822 -0.14940 -0.13369
 C174 C 0.16270 -0.18700 -0.11165
 C175 C 0.19699 -0.18425 -0.06222
 C176 C 0.23966 -0.21120 -0.09563
 H177 H 0.16492 -0.16525 -0.26429
 H178 H 0.09982 -0.11724 -0.20880
 H179 H 0.18156 -0.20987 -0.03022
 H180 H 0.20783 -0.14286 -0.04900
 H181 H 0.24985 -0.25166 -0.08138
 H182 H 0.27404 -0.18430 -0.10200
 C183 C 0.21820 0.29576 0.34633
 C184 C 0.21717 0.30018 0.29049
 C185 C 0.18360 0.33910 0.26822
 C186 C 0.15081 0.37108 0.30106
 C187 C 0.14881 0.36340 0.35711
 C188 C 0.18502 0.32661 0.37879
 C189 C 0.17493 0.28126 0.41500
 C190 C 0.21110 0.24761 0.37951
 H191 H 0.18172 0.34401 0.22509
 H192 H 0.12639 0.40090 0.28193
 H193 H 0.13256 0.26781 0.41337
 H194 H 0.19194 0.28878 0.45616
 H195 H 0.18980 0.21458 0.35726
 H196 H 0.24875 0.23576 0.40037
 C197 C 0.64614 -0.21431 0.29101
 C198 C 0.70174 -0.21007 0.29488
 C199 C 0.72381 -0.17199 0.33152
 C200 C 0.69074 -0.14131 0.36535
 C201 C 0.63483 -0.14902 0.36435
 C202 C 0.61345 -0.18499 0.32533
 C203 C 0.57630 -0.23126 0.33084
 C204 C 0.61158 -0.26274 0.29275
 H205 H 0.76663 -0.16625 0.33437
 H206 H 0.70907 -0.11259 0.39341
 H207 H 0.53590 -0.22327 0.31356
 H208 H 0.57695 -0.24776 0.37187
 H209 H 0.59153 -0.27228 0.25337
 H210 H 0.63206 -0.29695 0.31181
 C211 C 0.66314 0.28154 -0.22082
 C212 C 0.71743 0.29405 -0.22204
 C213 C 0.73677 0.33569 -0.18791
 C214 C 0.70153 0.36664 -0.15686
 C215 C 0.64598 0.35687 -0.15966
 C216 C 0.62827 0.31211 -0.19014
 C217 C 0.58503 0.30802 -0.23226
 C218 C 0.62325 0.27487 -0.26597
 H219 H 0.77908 0.34476 -0.18576
 H220 H 0.71784 0.39858 -0.13128
 H221 H 0.57514 0.34721 -0.24983
 H222 H 0.55019 0.28480 -0.21868
 H223 H 0.63573 0.29493 -0.30303
 H224 H 0.61021 0.23266 -0.27209
 C225 C -0.19426 0.22144 -0.16051
 C226 C -0.19394 0.21310 -0.21634
 C227 C -0.16098 0.17249 -0.23717
 C228 C -0.13177 0.13931 -0.20268
 C229 C -0.13611 0.14500 -0.14629
 C230 C -0.16596 0.18817 -0.12648
 C231 C -0.20894 0.18840 -0.08594
 C232 C -0.24015 0.22456 -0.12294
 H233 H -0.15934 0.16499 -0.28016
 H234 H -0.10712 0.10841 -0.22042
 H235 H -0.19612 0.20861 -0.04745
 H236 H -0.22768 0.14847 -0.08186
 H237 H -0.24547 0.26528 -0.10509
 H238 H -0.27715 0.20573 -0.14014
 C239 C -0.15481 0.71319 0.29249
 C240 C -0.21027 0.70808 0.29410
 C241 C -0.23147 0.66845 0.32644
 C242 C -0.19765 0.63696 0.35850
 C243 C -0.14175 0.64550 0.36015
 C244 C -0.12151 0.68282 0.32481
 C245 C -0.08434 0.72852 0.33644
 C246 C -0.12073 0.76182 0.30127
 H247 H -0.27419 0.66187 0.32706
 H248 H -0.21566 0.60652 0.38226
 H249 H -0.04438 0.72171 0.31892
 H250 H -0.08382 0.74163 0.37954
 H251 H -0.10139 0.77426 0.26380
 H252 H -0.14135 0.79435 0.32389
 C253 C 0.34335 0.22492 0.31393
 C254 C 0.29747 0.20786 0.28552
 C255 C 0.28551 0.15279 0.28571
 C256 C 0.31520 0.11817 0.31887
 C257 C 0.35701 0.13821 0.35267
 C258 C 0.37217 0.19127 0.34628
 C259 C 0.38949 0.23567 0.38391
 C260 C 0.35813 0.27315 0.34751
 H261 H 0.25214 0.13672 0.26208
 H262 H 0.30404 0.07644 0.31985
 H263 H 0.43334 0.24245 0.38342
 H264 H 0.37218 0.23263 0.42450
 H265 H 0.38412 0.30086 0.32563
 H266 H 0.32379 0.29220 0.36775
 C267 C 0.32575 0.73410 -0.16021
 C268 C 0.29180 0.71695 -0.20274
 C269 C 0.28875 0.66145 -0.21388
 C270 C 0.31990 0.62532 -0.18419
 C271 C 0.35525 0.64376 -0.14278
 C272 C 0.35531 0.69845 -0.13015
 C273 C 0.40135 0.73586 -0.12291
 C274 C 0.36980 0.77477 -0.15675
 H275 H 0.26361 0.64560 -0.24644
 H276 H 0.31690 0.58311 -0.19432
 H277 H 0.43804 0.72075 -0.14256
 H278 H 0.40692 0.74969 -0.08030
 H279 H 0.38911 0.78167 -0.19561
 H280 H 0.35893 0.81172 -0.13396
 C281 C -0.21666 -0.15216 0.21267
 C282 C -0.21324 -0.20779 0.20902
 C283 C -0.17555 -0.23050 0.17413
 C284 C -0.14483 -0.19803 0.14132
 C285 C -0.15233 -0.14222 0.14150
 C286 C -0.18744 -0.12015 0.17921
 C287 C -0.23298 -0.08223 0.17244
 C288 C -0.26446 -0.11687 0.20958
 H289 H -0.17033 -0.27337 0.17169
 H290 H -0.11649 -0.21673 0.11448
 H291 H -0.25043 -0.08277 0.13099
 H292 H -0.22375 -0.04193 0.19006
 H293 H -0.29948 -0.13688 0.18949
 H294 H -0.27281 -0.09645 0.24872
 C295 C -0.13834 0.30670 0.71234
 C296 C -0.19342 0.30255 0.70228
 C297 C -0.21745 0.34137 0.66986
 C298 C -0.18586 0.37719 0.64149
 C299 C -0.12970 0.37612 0.64678
 C300 C -0.10736 0.34313 0.68564
 C301 C -0.06127 0.30598 0.68135
 C302 C -0.09523 0.26554 0.70951
 H303 H -0.26046 0.34288 0.66489
 H304 H -0.20517 0.40442 0.61423
 H305 H -0.02627 0.32018 0.70603
 H306 H -0.05247 0.29422 0.63901
 H307 H -0.07907 0.25558 0.74997
 H308 H -0.10620 0.23081 0.68278
 C309 C 0.34527 -0.21122 0.70957
 C310 C 0.29592 -0.19342 0.72819
 C311 C 0.28293 -0.13961 0.71860
 C312 C 0.31477 -0.10853 0.68509
 C313 C 0.36089 -0.13019 0.66103
 C314 C 0.37697 -0.18053 0.67801
 C315 C 0.39989 -0.22834 0.64985
 C316 C 0.36570 -0.26240 0.68583
 H317 H 0.24734 -0.12166 0.73461
 H318 H 0.30233 -0.06816 0.67694
 H319 H 0.44342 -0.23258 0.65824
 H320 H 0.38762 -0.23122 0.60663
 H321 H 0.38970 -0.28506 0.71555
 H322 H 0.33499 -0.28635 0.66321
 C323 C 0.33705 0.26962 0.16757
 C324 C 0.30180 0.29478 0.20305
 C325 C 0.29924 0.35091 0.20274
 C326 C 0.33150 0.38034 0.16863
 C327 C 0.36854 0.35474 0.13473
 C328 C 0.36967 0.29875 0.13427
 C329 C 0.41554 0.26160 0.14262
 C330 C 0.38011 0.23000 0.17873
 H331 H 0.27331 0.37277 0.22942
 H332 H 0.32850 0.42347 0.16998
 H333 H 0.44975 0.28031 0.16529
 H334 H 0.42603 0.23942 0.10500
 H335 H 0.39458 0.23128 0.22121
 H336 H 0.37080 0.18944 0.16205
 C337 C 0.21646 0.20230 0.14966
 C338 C 0.20640 0.21748 0.20302
 C339 C 0.15568 0.20557 0.22319
 C340 C 0.11857 0.17463 0.19237
 C341 C 0.13148 0.15483 0.14062
 C342 C 0.17979 0.17173 0.11939
 C343 C 0.22200 0.13879 0.09352
 C344 C 0.26221 0.17156 0.12671
 H345 H 0.14529 0.21837 0.26353
 H346 H 0.08063 0.16493 0.20976
 H347 H 0.22415 0.14558 0.04963
 H348 H 0.22041 0.09619 0.10483
 H349 H 0.28774 0.19631 0.10119
 H350 H 0.28386 0.14790 0.15739
 C351 C 0.16228 0.70644 0.72888
 C352 C 0.21042 0.72903 0.71307
 C353 C 0.22042 0.72761 0.65736
 C354 C 0.18812 0.69622 0.62138
 C355 C 0.14393 0.66737 0.64011
 C356 C 0.12997 0.67714 0.69359
 C357 C 0.11115 0.64171 0.73659
 C358 C 0.14619 0.67475 0.77592
 H359 H 0.25382 0.74897 0.64145
 H360 H 0.19844 0.69371 0.57934
 H361 H 0.12498 0.59983 0.73089
 H362 H 0.06776 0.64645 0.74390
 H363 H 0.17923 0.65145 0.79403
 H364 H 0.12277 0.69900 0.80511
 C365 C 0.71576 0.15544 0.70643
 C366 C 0.72833 0.20690 0.69052
 C367 C 0.71208 0.22137 0.63840
 C368 C 0.67792 0.18777 0.60685
 C369 C 0.65965 0.13887 0.62678
 C370 C 0.68259 0.12221 0.67532
 C371 C 0.65732 0.09963 0.72357
 C372 C 0.69388 0.13603 0.75775
 H373 H 0.72317 0.25953 0.62287
 H374 H 0.66435 0.20109 0.56787
 H375 H 0.66655 0.05657 0.72788
 H376 H 0.61434 0.11018 0.72646
 H377 H 0.72422 0.11395 0.78159
 H378 H 0.67195 0.16738 0.78064
 C379 C 0.70651 0.64991 0.20748
 C380 C 0.70428 0.70547 0.20486
 C381 C 0.66710 0.72783 0.16879
 C382 C 0.63563 0.69489 0.13389
 C383 C 0.64108 0.63884 0.13414
 C384 C 0.67552 0.61747 0.17301
 C385 C 0.71937 0.57803 0.16530
 C386 C 0.75352 0.61349 0.20263
 H387 H 0.66279 0.77073 0.16716
 H388 H 0.60757 0.71334 0.10645
 H389 H 0.73367 0.57606 0.12326
 H390 H 0.70977 0.53883 0.18264
 H391 H 0.78766 0.63226 0.18234
 H392 H 0.76397 0.59407 0.24105
   
