data_POSCAR
  _audit_creation_date              2014-09-24
  _audit_creation_method            'ToBaCCo'
  _symmetry_space_group_name_H-M    'P1'
  _symmetry_Int_Tables_number       1
  _symmetry_cell_setting            triclinic
  loop_
  _symmetry_equiv_pos_as_xyz
 x,y,z
_cell_length_a 44.2045
_cell_length_b 46.2698
_cell_length_c 8.7580
_cell_angle_alpha 89.897800
_cell_angle_beta 90.184500
_cell_angle_gamma 90.100900
loop_
  _atom_site_label
  _atom_site_type_symbol
  _atom_site_fract_x
  _atom_site_fract_y
  _atom_site_fract_z
C1 C 0.17006 0.25046 0.18464
 C2 C 0.18472 0.22503 0.22865
 C3 C 0.21591 0.22527 0.25739
 C4 C 0.23309 0.25073 0.23634
 C5 C 0.21792 0.27609 0.18942
 C6 C 0.18654 0.27602 0.16648
 C7 C 0.26657 0.25073 0.26251
 C8 C 0.28179 0.27606 0.30986
 C9 C 0.31316 0.27601 0.33292
 C10 C 0.32959 0.25050 0.31443
 C11 C 0.31489 0.22509 0.27004
 C12 C 0.28370 0.22532 0.24118
 H13 H 0.14584 0.25040 0.16385
 H14 H 0.22658 0.20554 0.29660
 H15 H 0.23030 0.29591 0.16895
 H16 H 0.26944 0.29584 0.33060
 H17 H 0.35381 0.25045 0.33529
 H18 H 0.27299 0.20562 0.20173
 C19 C 0.82937 0.25097 0.18588
 C20 C 0.81297 0.27652 0.16727
 C21 C 0.78160 0.27657 0.18979
 C22 C 0.76640 0.25120 0.23669
 C23 C 0.78352 0.22577 0.25800
 C24 C 0.81467 0.22556 0.22980
 C25 C 0.73294 0.25118 0.26255
 C26 C 0.71573 0.22575 0.24112
 C27 C 0.68456 0.22550 0.26957
 C28 C 0.66996 0.25091 0.31372
 C29 C 0.68648 0.27643 0.33236
 C30 C 0.71783 0.27650 0.30966
 H31 H 0.85357 0.25084 0.16558
 H32 H 0.76926 0.29638 0.16905
 H33 H 0.77291 0.20601 0.29699
 H34 H 0.72635 0.20606 0.20195
 H35 H 0.64576 0.25084 0.33425
 H36 H 0.73026 0.29629 0.33049
 C37 C 0.67065 0.75196 0.68693
 C38 C 0.68537 0.72658 0.73086
 C39 C 0.71654 0.72684 0.75919
 C40 C 0.73369 0.75231 0.73786
 C41 C 0.71847 0.77766 0.69102
 C42 C 0.68708 0.77754 0.66845
 C43 C 0.76719 0.75232 0.76351
 C44 C 0.78246 0.77764 0.81054
 C45 C 0.81387 0.77756 0.83319
 C46 C 0.83024 0.75198 0.81447
 C47 C 0.81545 0.72663 0.77038
 C48 C 0.78427 0.72689 0.74207
 H49 H 0.64643 0.75178 0.66647
 H50 H 0.72717 0.70710 0.79819
 H51 H 0.73083 0.79748 0.67023
 H52 H 0.77007 0.79740 0.83137
 H53 H 0.85447 0.75173 0.83477
 H54 H 0.77359 0.70717 0.70304
 C55 C 0.32942 0.75104 0.68684
 C56 C 0.31298 0.77656 0.66809
 C57 C 0.28161 0.77658 0.69040
 C58 C 0.26642 0.75119 0.73720
 C59 C 0.28359 0.72578 0.75878
 C60 C 0.31474 0.72562 0.73074
 C61 C 0.23295 0.75111 0.76270
 C62 C 0.21581 0.72563 0.74145
 C63 C 0.18464 0.72531 0.76967
 C64 C 0.16996 0.75070 0.81345
 C65 C 0.18641 0.77627 0.83191
 C66 C 0.21777 0.77641 0.80940
 H67 H 0.35362 0.75093 0.66665
 H68 H 0.26924 0.79636 0.66948
 H69 H 0.27300 0.70601 0.79778
 H70 H 0.22649 0.70595 0.70253
 H71 H 0.14575 0.75058 0.83384
 H72 H 0.23013 0.79623 0.83013
 O73 O 1.02973 -0.03361 0.19504
 O74 O 0.97094 0.02158 0.25626
 O75 O 0.97077 -0.03370 0.19510
 O76 O 1.02966 0.02170 0.25574
 O77 O 1.02941 0.03093 0.00862
 O78 O 0.97064 -0.02422 -0.05172
 O79 O 0.97078 0.03082 0.00916
 O80 O 1.02944 -0.02415 -0.05180
 Cu81 Cu 1.00030 -0.00706 0.24995
 Cu82 Cu 1.00005 0.00431 -0.04580
 C83 C 1.03956 -0.03843 0.06131
 C84 C 0.96099 0.03585 0.14266
 C85 C 0.96070 -0.03852 0.06148
 C86 C 1.03940 0.03602 0.14202
 O87 O 0.52935 0.53099 0.50985
 O88 O 0.47066 0.47576 0.44935
 O89 O 0.47073 0.53080 0.51034
 O90 O 0.52946 0.47592 0.44908
 O91 O 0.52977 0.46643 0.69588
 O92 O 0.47090 0.52153 0.75742
 O93 O 0.47080 0.46626 0.69615
 O94 O 0.52962 0.52172 0.75692
 Cu95 Cu 0.50003 0.50433 0.45528
 Cu96 Cu 0.50030 0.49292 0.75102
 C97 C 0.53934 0.53606 0.64327
 C98 C 0.46074 0.46144 0.56251
 C99 C 0.46094 0.53581 0.64386
 C100 C 0.53961 0.46165 0.56214
 O101 O -0.02884 0.53115 -0.00926
 O102 O 0.02971 0.47594 0.05141
 O103 O 0.02978 0.53104 -0.00979
 O104 O -0.02909 0.47605 0.05167
 O105 O -0.02941 0.46671 -0.19512
 O106 O 0.02959 0.52194 -0.25686
 O107 O 0.02955 0.46661 -0.19539
 O108 O -0.02913 0.52204 -0.25632
 Cu109 Cu 0.00042 0.50450 0.04534
 Cu110 Cu 0.00012 0.49328 -0.25031
 C111 C -0.03882 0.53630 -0.14269
 C112 C 0.03959 0.46169 -0.06175
 C113 C 0.03957 0.53617 -0.14332
 C114 C -0.03927 0.46184 -0.06138
 O115 O 0.52892 1.02253 0.24301
 O116 O 0.47012 0.96711 0.30468
 O117 O 0.47019 1.02245 0.24339
 O118 O 0.52909 0.96722 0.30466
 O119 O 0.52919 0.97659 0.55142
 O120 O 0.47042 1.03157 0.49045
 O121 O 0.47039 0.97646 0.55144
 O122 O 0.52905 1.03166 0.49005
 Cu123 Cu 0.49956 0.99378 0.24955
 Cu124 Cu 0.49978 1.00503 0.54517
 C125 C 0.53885 1.03679 0.35654
 C126 C 0.46028 0.96221 0.43841
 C127 C 0.46043 1.03667 0.35700
 C128 C 0.53915 0.96238 0.43834
 C129 C 1.09125 0.09075 0.33220
 C130 C 1.10218 0.10591 0.20529
 C131 C 1.09353 0.09747 0.05820
 C132 C 1.07362 0.07434 0.03774
 C133 C 1.16873 0.19987 0.23715
 C134 C 1.07132 0.06751 0.31200
 C135 C 1.12124 0.13089 0.22439
 C136 C 1.13670 0.15230 0.23440
 C137 C 1.15421 0.17780 0.23912
 C138 C 1.06202 0.05927 0.16443
 H139 H 1.09775 0.09716 0.44663
 H140 H 1.10182 0.10908 -0.04082
 H141 H 1.06697 0.06856 -0.07735
 H142 H 1.06275 0.05638 0.41182
 C143 C 0.59115 0.59078 0.83379
 C144 C 0.60203 0.60601 0.70701
 C145 C 0.59337 0.59762 0.55986
 C146 C 0.57348 0.57448 0.53923
 C147 C 0.66852 0.69999 0.74006
 C148 C 0.57124 0.56752 0.81342
 C149 C 0.62106 0.63100 0.72636
 C150 C 0.63649 0.65242 0.73663
 C151 C 0.65400 0.67792 0.74169
 C152 C 0.56193 0.55934 0.66581
 H153 H 0.59766 0.59715 0.94826
 H154 H 0.60161 0.60929 0.46093
 H155 H 0.56682 0.56873 0.42411
 H156 H 0.56271 0.55634 0.91316
 C157 C -0.09373 0.41064 0.13560
 C158 C -0.10407 0.39401 0.01274
 C159 C -0.09401 0.40015 -0.13516
 C160 C -0.07332 0.42257 -0.15990
 C161 C -0.17130 0.30273 0.12744
 C162 C -0.07305 0.43306 0.11122
 C163 C -0.12381 0.36977 0.03986
 C164 C -0.13960 0.34904 0.06487
 C165 C -0.15717 0.32428 0.09711
 C166 C -0.06237 0.43910 -0.03668
 H167 H -0.10128 0.40600 0.25066
 H168 H -0.10178 0.38733 -0.23104
 H169 H -0.06557 0.42667 -0.27512
 H170 H -0.06509 0.44536 0.20850
 C171 C 0.40575 0.90033 0.36485
 C172 C 0.39571 0.89417 0.51279
 C173 C 0.40602 0.91085 0.63560
 C174 C 0.42662 0.93332 0.61111
 C175 C 0.32868 0.80279 0.62816
 C176 C 0.42636 0.92282 0.34001
 C177 C 0.37604 0.86989 0.54003
 C178 C 0.36029 0.84913 0.56522
 C179 C 0.34278 0.82435 0.59770
 C180 C 0.43726 0.93939 0.46317
 H181 H 0.39801 0.88749 0.26903
 H182 H 0.39849 0.90619 0.75069
 H183 H 0.43454 0.94566 0.70836
 H184 H 0.43408 0.92692 0.22478
 C185 C -0.09272 0.59773 -0.05934
 C186 C -0.10138 0.60620 -0.20648
 C187 C -0.09052 0.59108 -0.33327
 C188 C -0.07065 0.56784 -0.31290
 C189 C -0.16777 0.70007 -0.23900
 C190 C -0.07287 0.57461 -0.03871
 C191 C -0.12039 0.63116 -0.22575
 C192 C -0.13581 0.65255 -0.23590
 C193 C -0.15329 0.67802 -0.24080
 C194 C -0.06135 0.55957 -0.16527
 H195 H -0.10095 0.60932 0.03959
 H196 H -0.09702 0.59751 -0.44774
 H197 H -0.06214 0.55674 -0.41264
 H198 H -0.06622 0.56880 0.07641
 C199 C 0.40623 1.09786 0.44043
 C200 C 0.39754 1.10631 0.29331
 C201 C 0.40849 1.09125 0.16649
 C202 C 0.42847 1.06810 0.18681
 C203 C 0.33084 1.19997 0.26134
 C204 C 0.42619 1.07482 0.46102
 C205 C 0.37842 1.13120 0.27408
 C206 C 0.36292 1.15253 0.26401
 C207 C 0.34536 1.17795 0.25929
 C208 C 0.43779 1.05985 0.33442
 H209 H 0.39794 1.10939 0.53940
 H210 H 0.40196 1.09767 0.05203
 H211 H 0.43704 1.05705 0.08705
 H212 H 0.43286 1.06903 0.57614
 C213 C 1.09373 -0.08957 -0.13575
 C214 C 1.10400 -0.10630 -0.01291
 C215 C 1.09400 -0.10023 0.13503
 C216 C 1.07344 -0.07778 0.15983
 C217 C 1.17073 -0.19757 -0.12818
 C218 C 1.07318 -0.06713 -0.11131
 C219 C 1.12358 -0.13056 -0.04014
 C220 C 1.13925 -0.15130 -0.06531
 C221 C 1.15669 -0.17604 -0.09774
 C222 C 1.06256 -0.06117 0.03662
 H223 H 1.10123 -0.09415 -0.25084
 H224 H 1.10172 -0.11311 0.23089
 H225 H 1.06573 -0.07375 0.27506
 H226 H 1.06527 -0.05476 -0.20859
 C227 C 0.59390 0.41065 0.36494
 C228 C 0.60417 0.39390 0.48771
 C229 C 0.59414 0.39992 0.63565
 C230 C 0.57354 0.42233 0.66052
 C231 C 0.67088 0.30262 0.37239
 C232 C 0.57331 0.43305 0.38946
 C233 C 0.62378 0.36966 0.46042
 C234 C 0.63945 0.34892 0.43523
 C235 C 0.65686 0.32416 0.40283
 C236 C 0.56265 0.43896 0.53739
 H237 H 0.60143 0.40611 0.24985
 H238 H 0.60186 0.38701 0.73143
 H239 H 0.56580 0.42632 0.77575
 H240 H 0.56540 0.44544 0.29224
 C241 C 0.90626 -0.10041 0.13550
 C242 C 0.89587 -0.10637 -0.01229
 C243 C 0.90591 -0.08954 -0.13505
 C244 C 0.92660 -0.06713 -0.11074
 C245 C 0.82880 -0.19767 -0.12880
 C246 C 0.92695 -0.07799 0.16017
 C247 C 0.87616 -0.13062 -0.03958
 C248 C 0.86040 -0.15135 -0.06503
 C249 C 0.84288 -0.17611 -0.09792
 C250 C 0.93759 -0.06127 0.03700
 H251 H 0.89873 -0.11338 0.23130
 H252 H 0.89810 -0.09403 -0.25001
 H253 H 0.93431 -0.05468 -0.20799
 H254 H 0.93496 -0.07404 0.27526
 C255 C 0.40637 0.39949 0.63651
 C256 C 0.39601 0.39350 0.48873
 C257 C 0.40604 0.41033 0.36593
 C258 C 0.42670 0.43276 0.39023
 C259 C 0.32888 0.30220 0.37317
 C260 C 0.42704 0.42194 0.66117
 C261 C 0.37630 0.36924 0.46157
 C262 C 0.36053 0.34850 0.43637
 C263 C 0.34299 0.32374 0.40381
 C264 C 0.43767 0.43865 0.53799
 H265 H 0.39884 0.38653 0.73233
 H266 H 0.39825 0.40581 0.25097
 H267 H 0.43441 0.44521 0.29298
 H268 H 0.43502 0.42591 0.77628
 C269 C 0.09399 0.59746 -0.06023
 C270 C 0.10234 0.60603 -0.20743
 C271 C 0.09115 0.59098 -0.33421
 C272 C 0.07123 0.56774 -0.31377
 C273 C 0.16869 0.70013 -0.23910
 C274 C 0.07409 0.57433 -0.03953
 C275 C 0.12135 0.63105 -0.22672
 C276 C 0.13675 0.65249 -0.23675
 C277 C 0.15421 0.67803 -0.24130
 C278 C 0.06221 0.55938 -0.16608
 H279 H 0.10247 0.60898 0.03872
 H280 H 0.09742 0.59749 -0.44872
 H281 H 0.06244 0.55671 -0.41350
 H282 H 0.06767 0.56845 0.07565
 C283 C 0.59056 1.09151 0.16578
 C284 C 0.60175 1.10656 0.29258
 C285 C 0.59329 1.09806 0.43974
 C286 C 0.57333 1.07498 0.46041
 C287 C 0.66854 1.20037 0.26076
 C288 C 0.57058 1.06831 0.18618
 C289 C 0.62087 1.13149 0.27333
 C290 C 0.63638 1.15286 0.26328
 C291 C 0.65397 1.17832 0.25862
 C292 C 0.56148 1.06002 0.33384
 H293 H 0.59691 1.09796 0.05129
 H294 H 0.60177 1.10959 0.53868
 H295 H 0.56684 1.06915 0.57556
 H296 H 0.56182 1.05726 0.08646
 C297 C 0.09402 0.41035 0.13477
 C298 C 0.10400 0.39363 0.01189
 C299 C 0.09370 0.39977 -0.13590
 C300 C 0.07314 0.42226 -0.16050
 C301 C 0.17087 0.30224 0.12662
 C302 C 0.07347 0.43283 0.11052
 C303 C 0.12362 0.36935 0.03892
 C304 C 0.13933 0.34858 0.06395
 C305 C 0.15680 0.32380 0.09625
 C306 C 0.06256 0.43887 -0.03725
 H307 H 0.10176 0.40572 0.24975
 H308 H 0.10119 0.38689 -0.23177
 H309 H 0.06520 0.42634 -0.27562
 H310 H 0.06579 0.44519 0.20782
 C311 C 0.59392 0.91142 0.63523
 C312 C 0.60402 0.89474 0.51249
 C313 C 0.59367 0.90076 0.36466
 C314 C 0.57295 0.92311 0.33988
 C315 C 0.67134 0.80371 0.62840
 C316 C 0.57321 0.93377 0.61081
 C317 C 0.62379 0.87057 0.53977
 C318 C 0.63961 0.84991 0.56509
 C319 C 0.65720 0.82522 0.59777
 C320 C 0.56226 0.93969 0.46299
 H321 H 0.60170 0.90688 0.75024
 H322 H 0.60124 0.88790 0.26888
 H323 H 0.56498 0.92711 0.22473
 H324 H 0.56546 0.94611 0.70802
 C325 C 0.90930 0.09025 0.33349
 C326 C 0.89813 0.10537 0.20674
 C327 C 0.90656 0.09700 0.05954
 C328 C 0.92652 0.07400 0.03881
 C329 C 0.83151 0.19902 0.23924
 C330 C 0.92927 0.06714 0.31303
 C331 C 0.87904 0.13024 0.22609
 C332 C 0.86357 0.15157 0.23623
 C333 C 0.84603 0.17700 0.24107
 C334 C 0.93836 0.05898 0.16534
 H335 H 0.90297 0.09661 0.44800
 H336 H 0.89809 0.10858 -0.03937
 H337 H 0.93300 0.06827 -0.07636
 H338 H 0.93802 0.05604 0.41273
 C339 C 0.40656 0.59701 0.56090
 C340 C 0.39812 0.60536 0.70810
 C341 C 0.40925 0.59021 0.83482
 C342 C 0.42920 0.56707 0.81431
 C343 C 0.33160 0.69908 0.74033
 C344 C 0.42648 0.57398 0.54012
 C345 C 0.37907 0.63027 0.72747
 C346 C 0.36363 0.65162 0.73758
 C347 C 0.34612 0.67706 0.74231
 C348 C 0.43830 0.55894 0.66662
 H349 H 0.39812 0.60861 0.46202
 H350 H 0.40291 0.59655 0.94934
 H351 H 0.43793 0.55595 0.91398
 H352 H 0.43297 0.56827 0.42495
   
