data_POSCAR
  _audit_creation_date              2014-09-24
  _audit_creation_method            'ToBaCCo'
  _symmetry_space_group_name_H-M    'P1'
  _symmetry_Int_Tables_number       1
  _symmetry_cell_setting            triclinic
  loop_
  _symmetry_equiv_pos_as_xyz
 x,y,z
_cell_length_a 28.1053
_cell_length_b 28.3367
_cell_length_c 54.8594
_cell_angle_alpha 89.822200
_cell_angle_beta 95.482200
_cell_angle_gamma 90.024200
loop_
  _atom_site_label
  _atom_site_type_symbol
  _atom_site_fract_x
  _atom_site_fract_y
  _atom_site_fract_z
C1 C -0.00005 0.62393 1.00003
 C2 C 0.00084 0.59952 1.02244
 C3 C 0.00269 0.54987 1.02220
 C4 C -0.00015 0.52443 1.00003
 C5 C -0.00293 0.55013 0.97786
 C6 C -0.00099 0.59978 0.97762
 C7 C -0.00021 0.47132 1.00003
 C8 C 0.01479 0.44577 0.98001
 C9 C 0.01353 0.39626 0.97959
 C10 C -0.00032 0.37189 1.00002
 C11 C -0.01411 0.39603 1.02045
 C12 C -0.01526 0.44556 1.02004
 H13 H -0.00002 0.66215 1.00003
 H14 H 0.00661 0.53119 1.03946
 H15 H -0.00690 0.53166 0.96059
 H16 H 0.02819 0.46396 0.96474
 H17 H -0.00035 0.33369 1.00002
 H18 H -0.02861 0.46358 1.03532
 C19 C 0.37519 0.02036 0.50360
 C20 C 0.40606 0.02751 0.52488
 C21 C 0.45555 0.02906 0.52311
 C22 C 0.47485 0.02014 0.50070
 C23 C 0.44269 0.01128 0.47979
 C24 C 0.39299 0.01290 0.48091
 C25 C 0.52810 0.01977 0.49919
 C26 C 0.54744 0.02725 0.47664
 C27 C 0.59699 0.02486 0.47480
 C28 C 0.62774 0.01878 0.49635
 C29 C 0.60993 0.01289 0.51926
 C30 C 0.56008 0.01166 0.52025
 H31 H 0.33695 0.02023 0.50475
 H32 H 0.47862 0.03758 0.53938
 H33 H 0.45583 0.00248 0.46251
 H34 H 0.52414 0.03519 0.46035
 H35 H 0.66600 0.01832 0.49525
 H36 H 0.54648 0.00390 0.53757
 C37 C 0.04517 -0.00096 0.26351
 H38 H 0.05019 -0.00207 0.24421
 C39 C 0.08489 0.00120 0.28092
 H40 H 0.12040 0.00163 0.27483
 C41 C -0.00731 -0.00014 0.29480
 H42 H -0.04318 -0.00012 0.30026
 C43 C 0.03119 0.00217 0.31275
 H44 H 0.02410 0.00349 0.33179
 N45 N 0.00020 -0.00271 0.27072
 C46 C -0.08924 -0.07779 0.21393
 H47 H -0.12023 -0.05496 0.21224
 C48 C -0.08760 -0.11704 0.19871
 H49 H -0.11770 -0.12413 0.18540
 C50 C -0.01186 -0.09497 0.23283
 H51 H 0.01765 -0.08633 0.24611
 C52 C -0.00866 -0.13454 0.21796
 H53 H 0.02360 -0.15562 0.21994
 Zn54 Zn -0.05314 -0.00837 0.24690
 N55 N -0.05102 -0.06656 0.22995
 C56 C -0.05074 0.03276 0.20011
 N57 N -0.05139 0.04245 0.22433
 C58 C -0.04984 0.08774 0.23257
 C59 C -0.04942 0.12546 0.21604
 C60 C -0.05042 0.06919 0.18303
 C61 C -0.11892 -0.04488 0.27697
 C62 C -0.15685 -0.04409 0.29162
 C63 C -0.17817 0.03335 0.27560
 C64 C -0.13991 0.03095 0.26114
 N65 N -0.11024 -0.00709 0.26272
 H66 H -0.05039 -0.00326 0.19385
 H67 H -0.04931 0.09456 0.25198
 H68 H -0.04876 0.16125 0.22291
 H69 H -0.05031 0.06032 0.16385
 H70 H -0.09499 -0.07486 0.27772
 H71 H -0.16181 -0.07385 0.30354
 H72 H -0.20024 0.06472 0.27478
 H73 H -0.13313 0.06024 0.24934
 C74 C -0.04631 -0.14525 0.20011
 C75 C 0.07812 0.00222 0.30597
 C76 C -0.18624 -0.00398 0.29161
 C77 C -0.05016 0.11634 0.19084
 C78 C 0.04930 0.09055 0.76747
 H79 H 0.04884 0.09761 0.74806
 C80 C 0.04885 0.12806 0.78400
 H81 H 0.04823 0.16393 0.77713
 C82 C 0.05009 0.03517 0.79992
 H83 H 0.04970 -0.00093 0.80616
 C84 C 0.04973 0.07138 0.81700
 H85 H 0.04956 0.06227 0.83617
 N86 N 0.05082 0.04515 0.77570
 C87 C 0.11834 -0.04135 0.72300
 H88 H 0.09441 -0.07135 0.72224
 C89 C 0.15621 -0.04030 0.70831
 H90 H 0.16114 -0.06988 0.69636
 C91 C 0.13937 0.03426 0.73887
 H92 H 0.13262 0.06336 0.75071
 C93 C 0.17758 0.03691 0.72438
 H94 H 0.19966 0.06829 0.72522
 Zn95 Zn 0.05263 -0.00538 0.75312
 N96 N 0.10971 -0.00378 0.73728
 C97 C 0.00683 0.00356 0.70524
 N98 N -0.00072 0.00046 0.72931
 C99 C -0.04573 0.00180 0.73650
 C100 C -0.08542 0.00401 0.71907
 C101 C -0.03164 0.00596 0.68728
 C102 C 0.08883 -0.07507 0.78613
 C103 C 0.08727 -0.11451 0.80135
 C104 C 0.00844 -0.13209 0.78204
 C105 C 0.01156 -0.09233 0.76716
 N106 N 0.05062 -0.06379 0.77007
 H107 H 0.04271 0.00393 0.69981
 H108 H -0.05079 0.00029 0.75579
 H109 H -0.12096 0.00409 0.72513
 H110 H -0.02450 0.00768 0.66825
 H111 H 0.11975 -0.05213 0.78784
 H112 H 0.11735 -0.12163 0.81469
 H113 H -0.02375 -0.15328 0.78003
 H114 H -0.01793 -0.08366 0.75385
 C115 C 0.18560 -0.00017 0.70833
 C116 C 0.04951 0.11863 0.80920
 C117 C 0.04607 -0.14286 0.79992
 C118 C -0.07860 0.00554 0.69403
 N119 N -0.00756 -0.30389 0.06517
 C120 C -0.00921 -0.32715 0.08666
 N121 N -0.00637 -0.37490 0.08696
 N122 N -0.00233 -0.39862 0.06630
 C123 C -0.00103 -0.37553 0.04456
 N124 N -0.00356 -0.32759 0.04456
 C125 C -0.01554 -0.30118 0.10854
 C126 C -0.02156 -0.27754 0.12622
 C127 C -0.02922 -0.24722 0.14639
 N128 N 0.00652 -0.23866 0.16420
 N129 N 0.00058 -0.20732 0.18172
 C130 C -0.04125 -0.18330 0.18203
 N131 N -0.07708 -0.19245 0.16424
 N132 N -0.07117 -0.22379 0.14674
 N133 N -0.03934 0.29610 0.06057
 C134 C -0.04105 0.31726 0.08255
 N135 N -0.03562 0.36477 0.08416
 N136 N -0.02831 0.39018 0.06433
 C137 C -0.02604 0.36893 0.04225
 N138 N -0.03198 0.32141 0.04083
 C139 C -0.04560 0.28862 0.10381
 C140 C -0.04824 0.26126 0.12050
 C141 C -0.05028 0.22516 0.13876
 N142 N -0.04711 0.23560 0.16299
 N143 N -0.04732 0.20116 0.17963
 C144 C -0.05048 0.15515 0.17262
 N145 N -0.05371 0.14514 0.14832
 N146 N -0.05356 0.17944 0.13173
 N147 N 0.31991 0.03430 0.57158
 C148 C 0.34874 0.03083 0.59274
 N149 N 0.39670 0.02808 0.59180
 N150 N 0.41515 0.02842 0.57028
 C151 C 0.38630 0.03138 0.54895
 N152 N 0.33833 0.03457 0.55012
 C153 C 0.32793 0.02675 0.61554
 C154 C 0.30787 0.02200 0.63386
 C155 C 0.28101 0.01509 0.65455
 N156 N 0.25839 -0.02651 0.65743
 N157 N 0.22935 -0.03181 0.67505
 C158 C 0.22172 0.00431 0.69044
 N159 N 0.24499 0.04580 0.68766
 N160 N 0.27404 0.05114 0.67000
 N161 N -0.34422 0.00299 0.58344
 C162 C -0.29640 0.00488 0.58187
 N163 N -0.27993 0.00849 0.55956
 N164 N -0.31023 0.01045 0.53941
 C165 C -0.35829 0.00887 0.54070
 N166 N -0.37459 0.00493 0.56322
 C167 C -0.26306 0.00427 0.60338
 C168 C -0.23271 0.00436 0.62046
 C169 C -0.19401 0.00493 0.63951
 N170 N -0.14845 0.00700 0.63349
 N171 N -0.11200 0.00748 0.65085
 C172 C -0.11966 0.00599 0.67492
 N173 N -0.16551 0.00401 0.68089
 N174 N -0.20208 0.00353 0.66349
 N175 N 0.00620 -0.37388 0.91309
 C176 C 0.00913 -0.32613 0.91339
 N177 N 0.00756 -0.30313 0.93489
 N178 N 0.00353 -0.32707 0.95550
 C179 C 0.00091 -0.37501 0.95550
 N180 N 0.00214 -0.39784 0.93375
 C181 C 0.01547 -0.29992 0.89151
 C182 C 0.02147 -0.27606 0.87383
 C183 C 0.02911 -0.24550 0.85366
 N184 N 0.07100 -0.22191 0.85333
 N185 N 0.07687 -0.19035 0.83582
 C186 C 0.04107 -0.18114 0.81800
 N187 N -0.00070 -0.20531 0.81828
 N188 N -0.00660 -0.23688 0.83581
 N189 N 0.03854 0.29677 0.93947
 C190 C 0.04037 0.31821 0.91750
 N191 N 0.03508 0.36574 0.91590
 N192 N 0.02780 0.39092 0.93573
 C193 C 0.02542 0.36940 0.95779
 N194 N 0.03120 0.32185 0.95921
 C195 C 0.04492 0.28982 0.89624
 C196 C 0.04756 0.26268 0.87955
 C197 C 0.04959 0.22680 0.86128
 N198 N 0.04652 0.23754 0.83706
 N199 N 0.04673 0.20331 0.82041
 C200 C 0.04980 0.15721 0.82742
 N201 N 0.05294 0.14689 0.85171
 N202 N 0.05278 0.18099 0.86831
 N203 N -0.39537 0.02903 0.40894
 C204 C -0.34752 0.02560 0.40779
 N205 N -0.31831 0.02340 0.42884
 N206 N -0.33628 0.02416 0.45041
 C207 C -0.38423 0.02710 0.45185
 N208 N -0.41337 0.02984 0.43058
 C209 C -0.32752 0.02176 0.38477
 C210 C -0.30793 0.01720 0.36630
 C211 C -0.28144 0.01051 0.34548
 N212 N -0.27437 0.04684 0.33010
 N213 N -0.24543 0.04174 0.31239
 C214 C -0.22237 0.00023 0.30950
 N215 N -0.23011 -0.03617 0.32482
 N216 N -0.25905 -0.03111 0.34248
 N217 N 0.34462 0.00357 0.41580
 C218 C 0.29687 0.00239 0.41769
 N219 N 0.28082 0.00352 0.44018
 N220 N 0.31145 0.00606 0.46018
 C221 C 0.35936 0.00751 0.45851
 N222 N 0.37532 0.00608 0.43587
 C223 C 0.26312 0.00155 0.39635
 C224 C 0.23257 0.00146 0.37936
 C225 C 0.19374 0.00182 0.36037
 N226 N 0.14820 0.00314 0.36645
 N227 N 0.11168 0.00353 0.34913
 C228 C 0.11924 0.00269 0.32504
 N229 N 0.16507 0.00145 0.31901
 N230 N 0.20171 0.00106 0.33637
   
