data_POSCAR
  _audit_creation_date              2014-09-24
  _audit_creation_method            'ToBaCCo'
  _symmetry_space_group_name_H-M    'P1'
  _symmetry_Int_Tables_number       1
  _symmetry_cell_setting            triclinic
  loop_
  _symmetry_equiv_pos_as_xyz
 x,y,z
_cell_length_a 19.8567
_cell_length_b 19.8244
_cell_length_c 25.9113
_cell_angle_alpha 89.661400
_cell_angle_beta 91.100500
_cell_angle_gamma 84.816900
loop_
  _atom_site_label
  _atom_site_type_symbol
  _atom_site_fract_x
  _atom_site_fract_y
  _atom_site_fract_z
C1 C -0.00416 0.56884 1.02834
 C2 C 0.00144 0.56870 0.97344
 C3 C 0.00234 0.50623 0.94763
 C4 C -0.00352 0.44490 0.97380
 C5 C -0.00846 0.44472 1.02842
 C6 C -0.00922 0.50697 1.05434
 H7 H -0.01300 0.50720 1.09604
 H8 H 0.00511 0.50510 0.90589
 C9 C 0.44268 -0.02024 0.52707
 C10 C 0.43974 -0.01185 0.47294
 C11 C 0.49992 -0.00898 0.44592
 C12 C 0.56380 -0.01406 0.47123
 C13 C 0.56592 -0.02167 0.52602
 C14 C 0.50561 -0.02606 0.55278
 H15 H 0.50736 -0.03005 0.59456
 H16 H 0.49652 -0.00602 0.40417
 C17 C 0.13187 0.01747 0.26977
 H18 H 0.13233 0.02918 0.22895
 C19 C 0.19137 0.01696 0.29939
 H20 H 0.23776 0.02765 0.28097
 C21 C 0.07079 -0.01156 0.34313
 H22 H 0.02359 -0.02217 0.36010
 C23 C 0.12922 -0.01308 0.37414
 H24 H 0.12637 -0.02459 0.41490
 N25 N 0.07333 0.00276 0.29184
 C26 C -0.05807 -0.08978 0.18308
 H27 H -0.10449 -0.05770 0.18806
 C28 C -0.05830 -0.14836 0.15352
 H29 H -0.10505 -0.16113 0.13541
 C30 C 0.05927 -0.11280 0.20132
 H31 H 0.10474 -0.09938 0.22067
 C32 C 0.06155 -0.17123 0.17132
 H33 H 0.10885 -0.20248 0.16780
 Zn34 Zn -0.00512 0.00388 0.24919
 N35 N 0.00003 -0.07343 0.20655
 C36 C -0.01640 0.08002 0.15581
 N37 N -0.01061 0.08349 0.20811
 C38 C -0.00597 0.14363 0.23222
 C39 C -0.00835 0.20370 0.20365
 C40 C -0.01840 0.13887 0.12566
 C41 C -0.09467 -0.05769 0.31301
 C42 C -0.15212 -0.06235 0.34263
 C43 C -0.18411 0.05620 0.32547
 C44 C -0.12667 0.05829 0.29555
 N45 N -0.08296 0.00201 0.29024
 H46 H -0.01876 0.03157 0.13733
 H47 H -0.00043 0.14484 0.27381
 H48 H -0.00584 0.25107 0.22384
 H49 H -0.02164 0.13483 0.08406
 H50 H -0.05954 -0.10196 0.30766
 H51 H -0.16106 -0.11082 0.35933
 H52 H -0.21707 0.10221 0.33012
 H53 H -0.11719 0.10511 0.27679
 C54 C 0.00206 -0.18987 0.14754
 C55 C 0.19055 0.00111 0.35225
 C56 C -0.19784 -0.00479 0.34934
 C57 C -0.01427 0.20188 0.14953
 C58 C -0.00201 0.14775 0.76726
 H59 H -0.00502 0.15126 0.72559
 C60 C -0.00303 0.20670 0.79651
 H61 H -0.00711 0.25546 0.77709
 C62 C 0.00907 0.07991 0.84309
 H63 H 0.01409 0.03035 0.86109
 C64 C 0.00908 0.13762 0.87381
 H65 H 0.01320 0.13205 0.91539
 N66 N 0.00356 0.08586 0.79078
 C67 C 0.10173 -0.05562 0.67998
 H68 H 0.06971 -0.09676 0.68057
 C69 C 0.15973 -0.06108 0.65000
 H70 H 0.17109 -0.10590 0.62693
 C71 C 0.12750 0.05177 0.71017
 H72 H 0.11617 0.09508 0.73447
 C73 C 0.18532 0.04884 0.68020
 H74 H 0.21740 0.09020 0.68158
 Zn75 Zn 0.00691 0.00622 0.74981
 N76 N 0.08630 0.00047 0.70906
 C77 C -0.08137 -0.05195 0.68064
 N78 N -0.07193 0.00602 0.70663
 C79 C -0.11960 0.05992 0.70447
 C80 C -0.17844 0.05729 0.67439
 C81 C -0.13983 -0.05705 0.65065
 C82 C 0.06711 -0.10997 0.80342
 C83 C 0.06665 -0.16872 0.83341
 C84 C -0.05403 -0.14499 0.84255
 C85 C -0.05116 -0.08650 0.81277
 N86 N 0.00861 -0.07062 0.79342
 H87 H -0.04443 -0.09518 0.68434
 H88 H -0.11315 0.10466 0.72677
 H89 H -0.21604 0.10042 0.67351
 H90 H -0.14640 -0.10365 0.63033
 H91 H 0.11415 -0.09588 0.78806
 H92 H 0.11386 -0.19904 0.84134
 H93 H -0.10254 -0.15765 0.85619
 H94 H -0.09695 -0.05429 0.80411
 C95 C 0.20192 -0.00805 0.64958
 C96 C 0.00274 0.20201 0.85049
 C97 C 0.00535 -0.18735 0.85301
 C98 C -0.18920 -0.00189 0.64724
 C99 C -0.04634 -0.35855 0.09898
 C100 C -0.00046 -0.37244 0.05875
 C101 C 0.04871 -0.32683 0.04994
 C102 C 0.05020 -0.26794 0.07922
 C103 C 0.00239 -0.25316 0.11766
 C104 C -0.04552 -0.29916 0.12752
 H105 H -0.08508 -0.39213 0.10689
 H106 H 0.08644 -0.33699 0.02068
 H107 H 0.08795 -0.23331 0.07127
 H108 H -0.08236 -0.28912 0.15744
 C109 C -0.05314 0.33403 0.04347
 C110 C -0.01144 0.38482 0.05813
 C111 C 0.02742 0.37522 0.10412
 C112 C 0.02656 0.31606 0.13338
 C113 C -0.01422 0.26506 0.11827
 C114 C -0.05438 0.27491 0.07309
 H115 H -0.08647 0.34068 0.00994
 H116 H 0.06112 0.41228 0.11649
 H117 H 0.05918 0.30972 0.16734
 H118 H -0.08768 0.23740 0.06102
 C119 C 0.36737 -0.07306 0.58901
 C120 C 0.38075 -0.01764 0.55814
 C121 C 0.33519 0.04073 0.55731
 C122 C 0.27703 0.04372 0.58698
 C123 C 0.26316 -0.01186 0.61763
 C124 C 0.30864 -0.07046 0.61817
 H125 H 0.40213 -0.11844 0.59013
 H126 H 0.34496 0.08411 0.53391
 H127 H 0.24254 0.08928 0.58568
 H128 H 0.29931 -0.11372 0.64184
 C129 C -0.33645 0.04188 0.55415
 C130 C -0.37171 -0.01620 0.55752
 C131 C -0.34761 -0.06892 0.59126
 C132 C -0.28804 -0.06445 0.62015
 C133 C -0.25226 -0.00663 0.61648
 C134 C -0.27729 0.04670 0.58346
 H135 H -0.35470 0.08333 0.52866
 H136 H -0.37441 -0.11392 0.59456
 H137 H -0.27030 -0.10585 0.64583
 H138 H -0.25052 0.09167 0.57980
 C139 C 0.04319 -0.36887 0.90012
 C140 C 0.00100 -0.37127 0.94314
 C141 C -0.04222 -0.31300 0.95435
 C142 C -0.04051 -0.25348 0.92547
 C143 C 0.00323 -0.25079 0.88367
 C144 C 0.04447 -0.30947 0.87101
 H145 H 0.07740 -0.41221 0.88996
 H146 H -0.07822 -0.31342 0.98516
 H147 H -0.07311 -0.20933 0.93631
 H148 H 0.07769 -0.30968 0.83837
 C149 C 0.04812 0.32800 0.95228
 C150 C -0.00089 0.38237 0.94230
 C151 C -0.04768 0.37754 0.90148
 C152 C -0.04627 0.31906 0.87163
 C153 C 0.00179 0.26407 0.88216
 C154 C 0.04896 0.26902 0.92282
 H155 H 0.08537 0.33113 0.98305
 H156 H -0.08586 0.41891 0.89312
 H157 H -0.08348 0.31636 0.84077
 H158 H 0.08707 0.22765 0.93128
 C159 C -0.37761 0.02883 0.39661
 C160 C -0.37711 -0.01248 0.44119
 C161 C -0.31696 -0.05313 0.45384
 C162 C -0.25897 -0.05035 0.42446
 C163 C -0.25962 -0.00821 0.38063
 C164 C -0.31997 0.03075 0.36683
 H165 H -0.42195 0.06182 0.38533
 H166 H -0.31482 -0.08903 0.48552
 H167 H -0.21351 -0.08117 0.43640
 H168 H -0.32301 0.06276 0.33274
 C169 C 0.32962 -0.05766 0.44891
 C170 C 0.37482 -0.00771 0.44319
 C171 C 0.35891 0.04537 0.40769
 C172 C 0.29888 0.04852 0.37843
 C173 C 0.25351 -0.00133 0.38417
 C174 C 0.26932 -0.05425 0.41994
 H175 H 0.34148 -0.09985 0.47525
 H176 H 0.39299 0.08451 0.40274
 H177 H 0.28765 0.09025 0.35156
 H178 H 0.23578 -0.09390 0.42459
   
