data_POSCAR
  _audit_creation_date              2014-09-24
  _audit_creation_method            'ToBaCCo'
  _symmetry_space_group_name_H-M    'P1'
  _symmetry_Int_Tables_number       1
  _symmetry_cell_setting            triclinic
  loop_
  _symmetry_equiv_pos_as_xyz
 x,y,z
_cell_length_a 32.0331
_cell_length_b 32.0175
_cell_length_c 32.0037
_cell_angle_alpha 89.993500
_cell_angle_beta 89.951200
_cell_angle_gamma 90.015600
loop_
  _atom_site_label
  _atom_site_type_symbol
  _atom_site_fract_x
  _atom_site_fract_y
  _atom_site_fract_z
C1 C 0.18566 0.53222 1.05129
 H2 H 0.18507 0.55621 1.02748
 C3 C 0.15676 0.53319 1.08394
 H4 H 0.13391 0.55812 1.08533
 C5 C 0.21514 0.46956 1.07760
 H6 H 0.23728 0.44432 1.07446
 C7 C 0.18674 0.46930 1.11079
 H8 H 0.18740 0.44399 1.13327
 N9 N 0.21411 0.50079 1.04873
 C10 C 0.31302 0.55010 0.96909
 H11 H 0.31364 0.52621 0.94519
 C12 C 0.34187 0.58275 0.96797
 H13 H 0.36476 0.58414 0.94307
 C14 C 0.28347 0.57665 1.03169
 H15 H 0.26132 0.57362 1.05696
 C16 C 0.31185 0.60984 1.03176
 H17 H 0.31125 0.63246 1.05692
 Zn18 Zn 0.24933 0.50021 1.00124
 N19 N 0.28454 0.54767 1.00056
 C20 C 0.21534 0.53062 0.92473
 N21 N 0.21418 0.49954 0.95376
 C22 C 0.18573 0.46808 0.95129
 C23 C 0.15703 0.46690 0.91852
 C24 C 0.18712 0.53064 0.89143
 C25 C 0.31297 0.45023 1.03326
 C26 C 0.34181 0.41757 1.03425
 C27 C 0.31181 0.39069 0.97040
 C28 C 0.28346 0.42388 0.97061
 N29 N 0.28452 0.45276 1.00183
 H30 H 0.23746 0.55590 0.92779
 H31 H 0.18504 0.44420 0.97520
 H32 H 0.13418 0.44199 0.91708
 H33 H 0.18781 0.55575 0.86875
 H34 H 0.31359 0.47404 1.05724
 H35 H 0.36468 0.41611 1.05912
 H36 H 0.31122 0.36816 0.94516
 H37 H 0.26135 0.42699 0.94536
 C38 C 0.34141 0.61277 0.99970
 C39 C 0.15715 0.50132 1.11386
 C40 C 0.34134 0.38766 1.00242
 C41 C 0.15762 0.49856 0.88843
 C42 C 0.81357 0.53246 -0.04942
 H43 H 0.81429 0.55632 -0.02550
 C44 C 0.84236 0.53352 -0.08216
 H45 H 0.86532 0.55835 -0.08357
 C46 C 0.78384 0.46999 -0.07598
 H47 H 0.76166 0.44477 -0.07292
 C48 C 0.81215 0.46987 -0.10925
 H49 H 0.81147 0.44474 -0.13189
 N50 N 0.78503 0.50107 -0.04696
 C51 C 0.68647 0.55026 0.03310
 H52 H 0.68587 0.52635 0.05698
 C53 C 0.65763 0.58291 0.03430
 H54 H 0.63478 0.58427 0.05924
 C55 C 0.71589 0.57687 -0.02954
 H56 H 0.73797 0.57385 -0.05488
 C57 C 0.68754 0.61005 -0.02954
 H58 H 0.68808 0.63268 -0.05470
 Zn59 Zn 0.74994 0.50032 0.00061
 N60 N 0.71487 0.54785 0.00156
 C61 C 0.78432 0.53030 0.07712
 N62 N 0.78522 0.49933 0.04797
 C63 C 0.81360 0.46780 0.05017
 C64 C 0.84252 0.46646 0.08274
 C65 C 0.81275 0.53016 0.11023
 C66 C 0.68611 0.45073 -0.03158
 C67 C 0.65724 0.41810 -0.03279
 C68 C 0.68731 0.39065 0.03077
 C69 C 0.71570 0.42382 0.03080
 N70 N 0.71462 0.45296 -0.00018
 H71 H 0.76224 0.55563 0.07427
 H72 H 0.81410 0.44402 0.02616
 H73 H 0.86533 0.44152 0.08394
 H74 H 0.81229 0.55521 0.13298
 H75 H 0.68549 0.47474 -0.05536
 H76 H 0.63433 0.41686 -0.05764
 H77 H 0.68792 0.36788 0.05581
 H78 H 0.73788 0.42669 0.05603
 C79 C 0.65803 0.61294 0.00258
 C80 C 0.84178 0.50184 -0.11221
 C81 C 0.65773 0.38791 -0.00124
 C82 C 0.84221 0.49803 0.11292
 C83 C -0.03204 0.31430 0.44906
 H84 H -0.05591 0.31492 0.47299
 C85 C -0.03316 0.34316 0.41638
 H86 H -0.05808 0.36601 0.41510
 C87 C 0.03048 0.28477 0.42245
 H88 H 0.05572 0.26264 0.42547
 C89 C 0.03058 0.31313 0.38923
 H90 H 0.05578 0.31244 0.36661
 N91 N -0.00061 0.28584 0.45147
 C92 C -0.04941 0.18683 0.53130
 H93 H -0.02538 0.18618 0.55503
 C94 C -0.08206 0.15798 0.53263
 H95 H -0.08328 0.13506 0.55751
 C96 C -0.07637 0.21646 0.46897
 H97 H -0.07352 0.23865 0.44371
 C98 C -0.10956 0.18809 0.46911
 H99 H -0.13235 0.18872 0.44413
 Zn100 Zn 0.00020 0.25062 0.49896
 N101 N -0.04720 0.21535 0.49987
 C102 C -0.03001 0.28454 0.57559
 N103 N 0.00100 0.28577 0.54648
 C104 C 0.03241 0.31428 0.54891
 C105 C 0.03359 0.34298 0.58172
 C106 C -0.03001 0.31274 0.60893
 C107 C 0.05001 0.18695 0.46663
 C108 C 0.08266 0.15812 0.46542
 C109 C 0.10990 0.18822 0.52907
 C110 C 0.07671 0.21656 0.52909
 N111 N 0.04765 0.21545 0.49808
 H112 H -0.05524 0.26238 0.57256
 H113 H 0.05622 0.31504 0.52493
 H114 H 0.05844 0.36589 0.58312
 H115 H -0.05508 0.31200 0.63166
 H116 H 0.02606 0.18629 0.44282
 H117 H 0.08398 0.13521 0.44055
 H118 H 0.13258 0.18884 0.55415
 H119 H 0.07375 0.23871 0.55435
 C120 C -0.11229 0.15850 0.50115
 C121 C -0.00144 0.34272 0.38630
 C122 C 0.11275 0.15864 0.49703
 C123 C 0.00200 0.34231 0.61188
 C124 C 0.96778 0.68624 0.54969
 H125 H 0.94400 0.68550 0.52571
 C126 C 0.96660 0.65747 0.58244
 H127 H 0.94178 0.63451 0.58380
 C128 C 1.03014 0.71598 0.57639
 H129 H 1.05537 0.73816 0.57338
 C130 C 1.03014 0.68770 0.60966
 H131 H 1.05520 0.68840 0.63237
 N132 N 0.99917 0.71478 0.54729
 C133 C 0.95043 0.81343 0.46715
 H134 H 0.97447 0.81404 0.44340
 C135 C 0.91779 0.84227 0.46582
 H136 H 0.91658 0.86514 0.44090
 C137 C 0.92347 0.78395 0.52962
 H138 H 0.92633 0.76184 0.55494
 C139 C 0.89029 0.81230 0.52947
 H140 H 0.86752 0.81174 0.55451
 Zn141 Zn 1.00010 0.74986 0.49974
 N142 N 0.95265 0.78500 0.49867
 C143 C 0.97023 0.71554 0.42320
 N144 N 1.00116 0.71456 0.45234
 C145 C 1.03263 0.68611 0.45012
 C146 C 1.03392 0.65719 0.41752
 C147 C 0.97034 0.68711 0.39006
 C148 C 1.04957 0.81371 0.53208
 C149 C 1.08219 0.84257 0.53341
 C150 C 1.10990 0.81239 0.46996
 C151 C 1.07673 0.78401 0.46982
 N152 N 1.04746 0.78514 0.50068
 H153 H 0.94495 0.73766 0.42607
 H154 H 1.05637 0.68556 0.47413
 H155 H 1.05881 0.63431 0.41630
 H156 H 0.94532 0.68763 0.36732
 H157 H 1.02546 0.81437 0.55577
 H158 H 1.08333 0.86553 0.55825
 H159 H 1.13276 0.81175 0.44501
 H160 H 1.07396 0.76179 0.44459
 C161 C 0.88758 0.84183 0.49737
 C162 C 0.99817 0.65808 0.61256
 C163 C 1.11251 0.84203 0.50196
 C164 C 1.00239 0.65757 0.38735
 C165 C 0.45037 -0.03318 0.31312
 H166 H 0.47433 -0.05698 0.31381
 C167 C 0.41770 -0.03435 0.34197
 H168 H 0.41637 -0.05918 0.36494
 C169 C 0.42365 0.02922 0.28342
 H170 H 0.42661 0.05445 0.26123
 C171 C 0.39044 0.02923 0.31178
 H172 H 0.36774 0.05431 0.31114
 N173 N 0.45272 -0.00178 0.28457
 C174 C 0.53251 -0.05078 0.18567
 H175 H 0.55635 -0.02685 0.18502
 C176 C 0.53365 -0.08344 0.15680
 H177 H 0.55857 -0.08470 0.13390
 C178 C 0.47002 -0.07742 0.21529
 H179 H 0.44477 -0.07442 0.23747
 C180 C 0.46995 -0.11062 0.18692
 H181 H 0.44477 -0.13323 0.18764
 Zn182 Zn 0.50018 -0.00091 0.24936
 N183 N 0.50107 -0.04839 0.21418
 C184 C 0.57681 -0.03074 0.28348
 N185 N 0.54756 0.00009 0.28459
 C186 C 0.54970 0.03155 0.31308
 C187 C 0.58235 0.03298 0.34189
 C188 C 0.61001 -0.03050 0.31181
 C189 C 0.46792 0.04888 0.18563
 C190 C 0.46666 0.08165 0.15690
 C191 C 0.53018 0.10900 0.18708
 C192 C 0.53025 0.07569 0.21532
 N193 N 0.49932 0.04653 0.21414
 H194 H 0.57401 -0.05601 0.26131
 H195 H 0.52561 0.05522 0.31373
 H196 H 0.58352 0.05787 0.36479
 H197 H 0.63286 -0.05543 0.31117
 H198 H 0.44417 0.02486 0.18491
 H199 H 0.44181 0.08299 0.13399
 H200 H 0.55518 0.13178 0.18779
 H201 H 0.55548 0.07274 0.23748
 C202 C 0.50196 -0.11352 0.15727
 C203 C 0.38759 -0.00275 0.34142
 C204 C 0.49817 0.11187 0.15752
 C205 C 0.61266 0.00157 0.34137
 C206 C 0.54993 -0.03254 0.68630
 H207 H 0.52595 -0.05634 0.68566
 C208 C 0.58262 -0.03380 0.65746
 H209 H 0.58394 -0.05869 0.63457
 C210 C 0.57669 0.02992 0.71583
 H211 H 0.57373 0.05521 0.73796
 C212 C 0.60991 0.02986 0.68748
 H213 H 0.63262 0.05493 0.68807
 N214 N 0.54758 -0.00107 0.71476
 C215 C 0.46762 -0.04979 0.81371
 H216 H 0.44383 -0.02581 0.81430
 C217 C 0.46637 -0.08239 0.84264
 H218 H 0.44148 -0.08366 0.86554
 C219 C 0.53008 -0.07660 0.78421
 H220 H 0.55536 -0.07370 0.76207
 C221 C 0.53001 -0.10975 0.81265
 H222 H 0.55508 -0.13245 0.81211
 Zn223 Zn 0.50009 -0.00010 0.74992
 N224 N 0.49909 -0.04751 0.78523
 C225 C 0.42348 -0.03003 0.71583
 N226 N 0.45273 0.00081 0.71466
 C227 C 0.45058 0.03222 0.68609
 C228 C 0.41793 0.03358 0.65729
 C229 C 0.39027 -0.02986 0.68751
 C230 C 0.53227 0.04985 0.81358
 C231 C 0.53339 0.08260 0.84234
 C232 C 0.46984 0.10976 0.81210
 C233 C 0.46990 0.07648 0.78383
 N234 N 0.50091 0.04742 0.78505
 H235 H 0.42627 -0.05526 0.73805
 H236 H 0.47467 0.05590 0.68540
 H237 H 0.41675 0.05843 0.63434
 H238 H 0.36741 -0.05479 0.68820
 H239 H 0.55608 0.02590 0.81433
 H240 H 0.55820 0.08399 0.86529
 H241 H 0.44476 0.13244 0.81139
 H242 H 0.44470 0.07345 0.76165
 C243 C 0.49796 -0.11252 0.84223
 C244 C 0.61275 -0.00220 0.65793
 C245 C 0.50179 0.11270 0.84171
 C246 C 0.38761 0.00216 0.65789
 C247 C 0.25004 0.00026 0.49978
 C248 C 0.75024 0.00017 0.49949
 C249 C 0.49960 0.25026 0.99996
 C250 C 0.49969 0.75029 0.00092
 C251 C 1.00073 0.49905 0.25004
 C252 C 0.00008 0.49990 0.75023
 C253 C 0.14498 0.12734 0.49769
 C254 C 0.17091 0.10007 0.49821
 C255 C 0.19990 0.06690 0.49878
 C256 C 0.22336 0.03745 0.49925
 C257 C 0.62671 0.64515 0.00193
 C258 C 0.59943 0.67107 0.00148
 C259 C 0.56625 0.70005 0.00109
 C260 C 0.53681 0.72353 0.00091
 C261 C 0.85538 -0.12685 0.49789
 C262 C 0.82947 -0.09956 0.49830
 C263 C 0.80049 -0.06639 0.49874
 C264 C 0.77701 -0.03695 0.49909
 C265 C 0.37262 0.35542 1.00158
 C266 C 0.39987 0.32947 1.00097
 C267 C 0.43301 0.30046 1.00041
 C268 C 0.46245 0.27698 1.00010
 C269 C 0.85544 0.12722 0.50068
 C270 C 0.82948 0.09996 0.50036
 C271 C 0.80046 0.06679 0.50004
 C272 C 0.77697 0.03735 0.49979
 C273 C 0.37269 0.64504 0.00035
 C274 C 0.39995 0.67100 0.00074
 C275 C 0.43311 0.70003 0.00101
 C276 C 0.46254 0.72353 0.00107
 C277 C 0.14475 -0.12667 0.50146
 C278 C 0.17069 -0.09941 0.50108
 C279 C 0.19971 -0.06626 0.50065
 C280 C 0.22323 -0.03684 0.50027
 C281 C 0.62646 0.35564 0.99933
 C282 C 0.59923 0.32966 0.99968
 C283 C 0.56610 0.30060 0.99994
 C284 C 0.53670 0.27707 1.00003
 C285 C 0.49870 0.14431 1.12641
 C286 C 0.49907 0.17045 1.09931
 C287 C 0.49940 0.19968 1.06633
 C288 C 0.49956 0.22335 1.03701
 C289 C -0.00115 0.62685 0.64489
 C290 C -0.00065 0.59963 0.67090
 C291 C -0.00020 0.56651 0.69997
 C292 C 0.00004 0.53707 0.72349
 C293 C 0.49854 0.85528 -0.12639
 C294 C 0.49897 0.82938 -0.09906
 C295 C 0.49936 0.80041 -0.06582
 C296 C 0.49958 0.77697 -0.03632
 C297 C 0.99927 0.37233 0.35573
 C298 C 0.99983 0.39950 0.32964
 C299 C 1.00035 0.43255 0.30047
 C300 C 1.00064 0.46192 0.27687
 C301 C 0.50126 0.85596 0.12763
 C302 C 0.50069 0.82990 0.10044
 C303 C 0.50015 0.80077 0.06737
 C304 C 0.49984 0.77717 0.03800
 C305 C 0.00138 0.37340 0.64435
 C306 C 0.00092 0.40049 0.67050
 C307 C 0.00049 0.43348 0.69973
 C308 C 0.00023 0.46281 0.72338
 C309 C 0.50106 0.14504 0.87292
 C310 C 0.50052 0.17106 0.90013
 C311 C 0.50001 0.20013 0.93326
 C312 C 0.49972 0.22361 0.96272
 C313 C 1.00184 0.62619 0.35515
 C314 C 1.00145 0.59888 0.32924
 C315 C 1.00107 0.56567 0.30026
 C316 C 1.00085 0.53621 0.27679
 C317 C 1.12750 0.50048 0.14439
 C318 C 1.10030 0.49985 0.17045
 C319 C 1.06721 0.49931 0.19959
 C320 C 1.03783 0.49905 0.22318
 C321 C 0.64502 -0.00160 0.62662
 C322 C 0.67098 -0.00112 0.59934
 C323 C 0.70001 -0.00062 0.56615
 C324 C 0.72350 -0.00023 0.53668
 C325 C -0.12696 0.50106 0.85548
 C326 C -0.09971 0.50052 0.82949
 C327 C -0.06656 0.50007 0.80045
 C328 C -0.03710 0.49986 0.77695
 C329 C 0.35533 -0.00205 0.37274
 C330 C 0.32937 -0.00147 0.40001
 C331 C 0.30034 -0.00083 0.43318
 C332 C 0.27682 -0.00031 0.46262
 C333 C 0.12654 0.49914 0.85600
 C334 C 0.09944 0.49951 0.82989
 C335 C 0.06646 0.49979 0.80070
 C336 C 0.03714 0.49991 0.77707
 C337 C 0.64494 0.00120 0.37260
 C338 C 0.67091 0.00095 0.39983
 C339 C 0.69995 0.00070 0.43295
 C340 C 0.72347 0.00048 0.46237
 C341 C 0.87357 0.49850 0.14509
 C342 C 0.90089 0.49878 0.17097
 C343 C 0.93410 0.49900 0.19991
 C344 C 0.96357 0.49908 0.22334
 C345 C 0.35531 0.00171 0.62667
 C346 C 0.32933 0.00139 0.59946
 C347 C 0.30028 0.00103 0.56634
 C348 C 0.27677 0.00071 0.53693
   
