data_POSCAR
  _audit_creation_date              2014-09-24
  _audit_creation_method            'ToBaCCo'
  _symmetry_space_group_name_H-M    'P1'
  _symmetry_Int_Tables_number       1
  _symmetry_cell_setting            triclinic
  loop_
  _symmetry_equiv_pos_as_xyz
 x,y,z
_cell_length_a 22.8582
_cell_length_b 22.8056
_cell_length_c 55.9629
_cell_angle_alpha 88.874500
_cell_angle_beta 88.779000
_cell_angle_gamma 123.612100
loop_
  _atom_site_label
  _atom_site_type_symbol
  _atom_site_fract_x
  _atom_site_fract_y
  _atom_site_fract_z
C1 C -0.05371 -0.06924 0.48425
 C2 C -0.02615 -0.04675 0.50684
 C3 C -0.04409 -0.09641 0.52551
 C4 C -0.09166 -0.16892 0.52199
 C5 C -0.12014 -0.19020 0.49920
 C6 C -0.10165 -0.14123 0.47996
 C7 C 0.01793 0.02957 0.51093
 C8 C -0.00737 0.05994 0.52594
 C9 C 0.02873 0.13367 0.52713
 C10 C 0.09187 0.17669 0.51356
 C11 C 0.11846 0.14658 0.49898
 C12 C 0.08109 0.07307 0.49767
 H13 H -0.03642 -0.02949 0.47006
 H14 H -0.02317 -0.07791 0.54296
 H15 H -0.05649 0.02598 0.53605
 H16 H 0.10010 0.04968 0.48576
 H17 H -0.15721 -0.24559 0.49656
 H18 H 0.11984 0.23353 0.51399
 C19 C 1.09800 0.03509 0.14093
 C20 C 1.04726 0.01625 0.15934
 C21 C 1.06832 0.04459 0.18192
 C22 C 1.13935 0.09428 0.18611
 C23 C 1.18952 0.11412 0.16740
 C24 C 1.17007 0.08440 0.14469
 C25 C 0.97143 -0.02817 0.15483
 C26 C 0.92745 -0.09119 0.16816
 C27 C 0.85418 -0.12834 0.16661
 C28 C 0.82482 -0.10158 0.15177
 C29 C 0.86834 -0.03851 0.13816
 C30 C 0.94181 -0.00278 0.13955
 H31 H 1.08057 0.01359 0.12347
 H32 H 1.02872 0.02909 0.19605
 H33 H 0.95024 -0.11015 0.18033
 H34 H 0.97616 0.04634 0.12943
 H35 H 1.24425 0.15193 0.17085
 H36 H 0.76816 -0.12924 0.15121
 C37 C 0.09595 1.00214 0.84451
 C38 C 0.03303 0.97159 0.83257
 C39 C 0.00534 0.90703 0.82191
 C40 C 0.04044 0.87258 0.82301
 C41 C 0.10280 0.90239 0.83559
 C42 C 0.13147 0.96772 0.84658
 C43 C -0.00513 1.00636 0.83206
 C44 C 0.01404 1.06042 0.81512
 C45 C -0.02052 1.09551 0.81511
 C46 C -0.07359 1.07670 0.83265
 C47 C -0.09377 1.02221 0.84999
 C48 C -0.05899 0.98688 0.84918
 H49 H 0.11432 1.05087 0.85340
 H50 H -0.04305 0.88418 0.81240
 H51 H 0.05517 1.07429 0.80176
 H52 H -0.07038 0.94668 0.86259
 H53 H 0.12956 0.87535 0.83614
 H54 H -0.10028 1.10375 0.83220
 O55 O 0.44606 0.00137 -0.02503
 O56 O 0.55084 0.00029 0.02448
 O57 O 0.44939 0.02174 0.02100
 O58 O 0.54284 -0.02479 -0.02078
 O59 O 0.62234 0.08808 -0.02876
 O60 O 0.53062 0.13456 0.01384
 O61 O 0.63039 0.11318 0.01656
 O62 O 0.52608 0.11470 -0.03178
 Cu63 Cu 0.48902 -0.01167 0.00074
 Cu64 Cu 0.58529 0.12384 -0.00829
 C65 C 0.46862 0.05874 -0.03685
 C66 C 0.60906 0.05694 0.02877
 C67 C 0.47421 0.08609 0.02468
 C68 C 0.59845 0.02363 -0.03195
 O69 O -0.08893 0.38111 0.69445
 O70 O -0.13760 0.47528 0.65397
 O71 O -0.11693 0.37513 0.64953
 O72 O -0.11477 0.47730 0.69951
 O73 O -0.00245 0.55832 0.69174
 O74 O -0.00431 0.45437 0.64134
 O75 O -0.02538 0.55614 0.64590
 O76 O 0.02333 0.46186 0.68635
 Cu77 Cu -0.12576 0.41936 0.67515
 Cu78 Cu 0.00901 0.51604 0.66540
 C79 C -0.02443 0.40547 0.69737
 C80 C -0.08982 0.53167 0.64291
 C81 C -0.06127 0.39644 0.63703
 C82 C -0.05847 0.53463 0.70447
 O83 O 0.44231 0.46783 0.36251
 O84 O 0.53216 0.55554 0.30399
 O85 O 0.41092 0.44271 0.31788
 O86 O 0.55807 0.58692 0.34853
 O87 O 0.61052 0.52972 0.34978
 O88 O 0.46327 0.38544 0.31685
 O89 O 0.58463 0.49843 0.30489
 O90 O 0.49482 0.41075 0.36174
 Cu91 Cu 0.48063 0.51890 0.33323
 Cu92 Cu 0.54350 0.45041 0.33332
 C93 C 0.45370 0.42399 0.37203
 C94 C 0.57407 0.54152 0.29454
 C95 C 0.41170 0.38987 0.31187
 C96 C 0.60909 0.58328 0.35457
 C97 C 0.01127 0.25314 0.56860
 C98 C -0.06006 0.22289 0.56847
 C99 C -0.10486 0.16441 0.55529
 C100 C -0.07497 0.13577 0.54166
 C101 C -0.00150 0.16546 0.54155
 C102 C 0.04218 0.22544 0.55518
 O103 O 0.04406 0.30741 0.58284
 C104 C -0.00780 0.31138 0.59192
 C105 C -0.07251 0.26076 0.58368
 C106 C -0.13442 0.25345 0.59144
 C107 C -0.12965 0.29965 0.60863
 C108 C -0.06366 0.35217 0.61763
 C109 C -0.00169 0.35858 0.60885
 H110 H -0.16088 0.14154 0.55551
 H111 H -0.10907 0.09080 0.53103
 H112 H 0.09824 0.24894 0.55572
 H113 H -0.18476 0.21285 0.58480
 H114 H -0.17757 0.29398 0.61511
 H115 H 0.04926 0.39733 0.61560
 C116 C 0.72159 0.74144 0.21333
 C117 C 0.73348 0.68870 0.21189
 C118 C 0.78173 0.69137 0.19557
 C119 C 0.81996 0.75131 0.18026
 C120 C 0.80891 0.80653 0.18142
 C121 C 0.75825 0.80105 0.19797
 O122 O 0.67713 0.73070 0.23123
 C123 C 0.66071 0.66989 0.24131
 C124 C 0.69371 0.64208 0.23005
 C125 C 0.68735 0.58093 0.23827
 C126 C 0.64600 0.54739 0.25915
 C127 C 0.61210 0.57532 0.27146
 C128 C 0.61877 0.63704 0.26212
 H129 H 0.79096 0.64969 0.19508
 H130 H 0.85894 0.75538 0.16773
 H131 H 0.75020 0.84337 0.19958
 H132 H 0.71448 0.56055 0.22923
 H133 H 0.64147 0.50018 0.26593
 H134 H 0.59460 0.66031 0.27126
 C135 C 0.26448 -0.01416 -0.11131
 C136 C 0.30708 0.05790 -0.11035
 C137 C 0.29667 0.10276 -0.12387
 C138 C 0.23898 0.07219 -0.13865
 C139 C 0.19284 -0.00246 -0.13997
 C140 C 0.20768 -0.04592 -0.12640
 O141 O 0.28138 -0.04713 -0.09591
 C142 C 0.33595 0.00546 -0.08507
 C143 C 0.35391 0.07073 -0.09342
 C144 C 0.40822 0.13316 -0.08430
 C145 C 0.44584 0.12825 -0.06582
 C146 C 0.42821 0.06162 -0.05661
 C147 C 0.37228 -0.00075 -0.06646
 H148 H 0.33100 0.15941 -0.12274
 H149 H 0.23133 0.10730 -0.14936
 H150 H 0.17335 -0.10282 -0.12612
 H151 H 0.42096 0.18386 -0.09109
 H152 H 0.48817 0.17656 -0.05849
 H153 H 0.35743 -0.05235 -0.05984
 C154 C -0.08034 0.73456 0.57438
 C155 C -0.14718 0.67460 0.57531
 C156 C -0.19849 0.66431 0.55988
 C157 C -0.17994 0.71738 0.54245
 C158 C -0.11093 0.78026 0.54077
 C159 C -0.06116 0.78916 0.55763
 O160 O -0.03813 0.73159 0.58960
 C161 C -0.07943 0.66845 0.60038
 C162 C -0.14684 0.63177 0.59242
 C163 C -0.19826 0.56380 0.60074
 C164 C -0.17933 0.53207 0.61788
 C165 C -0.10967 0.56805 0.62605
 C166 C -0.05919 0.63760 0.61723
 H167 H -0.25070 0.61642 0.56090
 H168 H -0.22033 0.70962 0.53062
 H169 H -0.00749 0.83476 0.55674
 H170 H -0.25085 0.53584 0.59405
 H171 H -0.21854 0.47878 0.62430
 H172 H -0.00556 0.66641 0.62300
 C173 C 0.24722 0.18546 0.23997
 C174 C 0.20549 0.20336 0.25122
 C175 C 0.14092 0.18507 0.24278
 C176 C 0.11871 0.14740 0.22172
 C177 C 0.16093 0.12860 0.20954
 C178 C 0.22573 0.14714 0.21919
 O179 O 0.30910 0.21273 0.24984
 C180 C 0.30648 0.24897 0.26764
 C181 C 0.24406 0.24470 0.26926
 C182 C 0.23186 0.28267 0.28538
 C183 C 0.28673 0.32805 0.30010
 C184 C 0.35227 0.33467 0.29849
 C185 C 0.36161 0.29319 0.28237
 H186 H 0.10978 0.20123 0.25165
 H187 H 0.06992 0.13547 0.21444
 H188 H 0.25946 0.13388 0.21048
 H189 H 0.18270 0.27927 0.28605
 H190 H 0.27878 0.35948 0.31232
 H191 H 0.41153 0.29843 0.28031
 C192 C 0.78991 0.03637 -0.10604
 C193 C 0.75025 -0.03132 -0.09656
 C194 C 0.75920 -0.08373 -0.10391
 C195 C 0.81129 -0.06561 -0.12173
 C196 C 0.85330 0.00417 -0.13212
 C197 C 0.84133 0.05549 -0.12392
 O198 O 0.77441 0.07885 -0.09619
 C199 C 0.72353 0.03688 -0.08021
 C200 C 0.70650 -0.03119 -0.07977
 C201 C 0.65450 -0.08379 -0.06435
 C202 C 0.61867 -0.06540 -0.04876
 C203 C 0.63579 0.00475 -0.04872
 C204 C 0.68913 0.05648 -0.06475
 H205 H 0.72717 -0.13681 -0.09622
 H206 H 0.81653 -0.10720 -0.12789
 H207 H 0.87303 0.10995 -0.13027
 H208 H 0.64198 -0.13704 -0.06431
 H209 H 0.57815 -0.10564 -0.03658
 H210 H 0.70338 0.11037 -0.06527
 C211 C 0.26982 0.07396 0.09313
 C212 C 0.32968 0.14090 0.09258
 C213 C 0.33893 0.19202 0.10800
 C214 C 0.28486 0.17316 0.12501
 C215 C 0.22205 0.10399 0.12632
 C216 C 0.21437 0.05441 0.10950
 O217 O 0.27350 0.03211 0.07787
 C218 C 0.33701 0.07375 0.06744
 C219 C 0.37326 0.14100 0.07569
 C220 C 0.44134 0.19279 0.06768
 C221 C 0.47356 0.17446 0.05050
 C222 C 0.43789 0.10504 0.04195
 C223 C 0.36832 0.05411 0.05053
 H224 H 0.38668 0.24437 0.10724
 H225 H 0.29184 0.21352 0.13676
 H226 H 0.16892 0.00062 0.11009
 H227 H 0.46893 0.24526 0.07458
 H228 H 0.52683 0.21403 0.04424
 H229 H 0.33967 0.00067 0.04445
 C230 C 0.80663 0.74511 0.42824
 C231 C 0.79903 0.79032 0.41422
 C232 C 0.82505 0.85904 0.42031
 C233 C 0.85971 0.88207 0.44189
 C234 C 0.86768 0.83633 0.45728
 C235 C 0.84123 0.76681 0.44970
 O236 O 0.77428 0.68056 0.41996
 C237 C 0.74504 0.68503 0.40036
 C238 C 0.75868 0.75121 0.39607
 C239 C 0.72882 0.76651 0.37765
 C240 C 0.68175 0.71099 0.36340
 C241 C 0.66593 0.64198 0.36766
 C242 C 0.69938 0.62922 0.38608
 H243 H 0.81698 0.89318 0.40920
 H244 H 0.87598 0.93432 0.44700
 H245 H 0.84732 0.72989 0.45989
 H246 H 0.73939 0.81869 0.37489
 H247 H 0.65621 0.72131 0.34941
 H248 H 0.68671 0.57671 0.39015
 C249 C -0.03639 0.20735 0.76844
 C250 C 0.03319 0.25641 0.76230
 C251 C 0.08770 0.25577 0.77259
 C252 C 0.06964 0.20242 0.78995
 C253 C -0.00188 0.15130 0.79663
 C254 C -0.05547 0.15402 0.78557
 O255 O -0.08016 0.21736 0.75672
 C256 C -0.03732 0.27410 0.74289
 C257 C 0.03258 0.30012 0.74558
 C258 C 0.08627 0.35973 0.73293
 C259 C 0.06706 0.39396 0.71692
 C260 C -0.00482 0.36820 0.71389
 C261 C -0.05759 0.30710 0.72709
 H262 H 0.14212 0.29510 0.76756
 H263 H 0.11132 0.20155 0.79841
 H264 H -0.11053 0.11540 0.79001
 H265 H 0.14095 0.37936 0.73536
 H266 H 0.10822 0.44063 0.70700
 H267 H -0.11286 0.28606 0.72533
 C268 C 0.75073 -0.01905 0.09656
 C269 C 0.78173 0.05257 0.09673
 C270 C 0.84008 0.09690 0.10998
 C271 C 0.86784 0.06622 0.12361
 C272 C 0.83744 -0.00756 0.12367
 C273 C 0.77757 -0.05077 0.10998
 O274 O 0.69653 -0.05130 0.08231
 C275 C 0.69340 0.00123 0.07330
 C276 C 0.74448 0.06579 0.08158
 C277 C 0.75255 0.12828 0.07396
 C278 C 0.70659 0.12427 0.05690
 C279 C 0.65352 0.05846 0.04789
 C280 C 0.64641 -0.00413 0.05648
 H281 H 0.86348 0.15315 0.10982
 H282 H 0.91266 0.09999 0.13431
 H283 H 0.75348 -0.10706 0.10943
 H284 H 0.79348 0.17848 0.08064
 H285 H 0.71278 0.17266 0.05058
 H286 H 0.60715 -0.05498 0.04974
 C287 C 0.25083 0.27861 0.45256
 C288 C 0.30302 0.26623 0.45448
 C289 C 0.29920 0.21772 0.47098
 C290 C 0.23869 0.17978 0.48600
 C291 C 0.18402 0.19135 0.48437
 C292 C 0.19063 0.24224 0.46763
 O293 O 0.26270 0.32319 0.43453
 C294 C 0.32367 0.33918 0.42485
 C295 C 0.35048 0.30579 0.43649
 C296 C 0.41155 0.31155 0.42871
 C297 C 0.44604 0.35259 0.40786
 C298 C 0.41913 0.38680 0.39514
 C299 C 0.35753 0.38089 0.40407
 H300 H 0.34048 0.20810 0.47184
 H301 H 0.23378 0.14067 0.49869
 H302 H 0.14878 0.25071 0.46567
 H303 H 0.43112 0.28411 0.43804
 H304 H 0.49316 0.35659 0.40139
 H305 H 0.33502 0.40528 0.39459
 C306 C 0.02221 0.74193 0.77858
 C307 C -0.04764 0.68908 0.78243
 C308 C -0.09007 0.69115 0.80011
 C309 C -0.05959 0.75084 0.81410
 C310 C 0.01206 0.80648 0.81029
 C311 C 0.05386 0.80132 0.79255
 O312 O 0.05207 0.73125 0.76004
 C313 C -0.00011 0.67042 0.75201
 C314 C -0.06213 0.64250 0.76512
 C315 C -0.12410 0.58050 0.75939
 C316 C -0.12210 0.54558 0.73937
 C317 C -0.05884 0.57307 0.72543
 C318 C 0.00312 0.63656 0.73197
 H319 H -0.14510 0.64925 0.80260
 H320 H -0.09201 0.75463 0.82756
 H321 H 0.10820 0.84387 0.78892
 H322 H -0.17240 0.55995 0.76987
 H323 H -0.17009 0.49716 0.73473
 H324 H 0.05215 0.65922 0.72171
   
