data_POSCAR
  _audit_creation_date              2014-09-24
  _audit_creation_method            'ToBaCCo'
  _symmetry_space_group_name_H-M    'P1'
  _symmetry_Int_Tables_number       1
  _symmetry_cell_setting            triclinic
  loop_
  _symmetry_equiv_pos_as_xyz
 x,y,z
_cell_length_a 33.5790
_cell_length_b 32.9689
_cell_length_c 33.5000
_cell_angle_alpha 90.104500
_cell_angle_beta 92.826200
_cell_angle_gamma 88.470900
loop_
  _atom_site_label
  _atom_site_type_symbol
  _atom_site_fract_x
  _atom_site_fract_y
  _atom_site_fract_z
C1 C 0.01898 0.43978 0.20881
 H2 H 0.04103 0.46163 0.20169
 C3 C 0.02175 0.40016 0.19374
 H4 H 0.04648 0.39264 0.17537
 C5 C -0.03741 0.42318 0.24435
 H6 H -0.06012 0.43187 0.26467
 C7 C -0.03547 0.38322 0.23053
 H8 H -0.05829 0.36300 0.23933
 N9 N -0.01030 0.45055 0.23365
 C10 C -0.02083 0.58286 0.24368
 H11 H -0.02391 0.58291 0.27567
 C12 C -0.02398 0.61927 0.22273
 H13 H -0.02912 0.64718 0.23902
 C14 C -0.00933 0.54619 0.18427
 H15 H -0.00387 0.51755 0.16950
 C16 C -0.01205 0.58232 0.16198
 H17 H -0.00876 0.58119 0.13001
 Zn18 Zn -0.01042 0.50198 0.25981
 N19 N -0.01340 0.54728 0.22450
 C20 C 0.06279 0.53563 0.28561
 N21 N 0.03779 0.50477 0.29219
 C22 C 0.04887 0.47422 0.31804
 C23 C 0.08660 0.47382 0.33806
 C24 C 0.10031 0.53669 0.30526
 C25 C -0.09111 0.51305 0.26614
 C26 C -0.12763 0.51969 0.28335
 C27 C -0.09405 0.51306 0.34856
 C28 C -0.05776 0.50723 0.32999
 N29 N -0.05710 0.50719 0.28940
 H30 H 0.05439 0.55901 0.26412
 H31 H 0.02889 0.44954 0.32221
 H32 H 0.09520 0.44910 0.35818
 H33 H 0.11991 0.56113 0.29875
 H34 H -0.08969 0.51296 0.23395
 H35 H -0.15433 0.52417 0.26421
 H36 H -0.09440 0.51297 0.38086
 H37 H -0.03030 0.50287 0.34789
 C38 C -0.01964 0.61949 0.18132
 C39 C -0.00534 0.37054 0.20498
 C40 C -0.12949 0.51979 0.32503
 C41 C 0.11289 0.50537 0.33159
 C42 C 0.02740 0.55160 0.80841
 H43 H 0.02941 0.52378 0.82536
 C44 C 0.03185 0.58870 0.82826
 H45 H 0.03769 0.58914 0.86034
 C46 C 0.01578 0.58561 0.74652
 H47 H 0.00740 0.58451 0.71506
 C48 C 0.02065 0.62311 0.76495
 H49 H 0.01687 0.65054 0.74727
 N50 N 0.02019 0.55071 0.76806
 C51 C -0.02165 0.43181 0.76668
 H52 H -0.04528 0.43993 0.74491
 C53 C -0.02309 0.39501 0.78688
 H54 H -0.04786 0.37536 0.78016
 C55 C 0.04070 0.44590 0.79923
 H56 H 0.06612 0.46527 0.80286
 C57 C 0.04035 0.40941 0.82031
 H58 H 0.06515 0.40158 0.84097
 Zn59 Zn 0.01374 0.50185 0.73875
 N60 N 0.01022 0.45612 0.77258
 C61 C 0.07991 0.45909 0.70800
 N62 N 0.05709 0.49380 0.70510
 C63 C 0.06541 0.52351 0.67890
 C64 C 0.09909 0.52020 0.65634
 C65 C 0.11382 0.45440 0.68581
 C66 C -0.06627 0.52208 0.72613
 C67 C -0.10342 0.52450 0.70586
 C68 C -0.07317 0.49692 0.64735
 C69 C -0.03651 0.49537 0.66887
 N70 N -0.03397 0.50736 0.70761
 H71 H 0.07223 0.43508 0.72782
 H72 H 0.04636 0.55019 0.67574
 H73 H 0.10603 0.54514 0.63712
 H74 H 0.13190 0.42680 0.68897
 H75 H -0.06329 0.53088 0.75725
 H76 H -0.12823 0.53410 0.72322
 H77 H -0.07312 0.48817 0.61627
 H78 H -0.01019 0.48391 0.65479
 C79 C 0.00853 0.38297 0.81357
 C80 C 0.02898 0.62492 0.80624
 C81 C -0.10811 0.51110 0.66569
 C82 C 0.12427 0.48566 0.66026
 C83 C 0.18233 0.02600 0.44482
 H84 H 0.17618 0.05186 0.46369
 C85 C 0.16302 0.02313 0.40701
 H86 H 0.14166 0.04664 0.39712
 C87 C 0.21830 -0.03555 0.43416
 H88 H 0.24040 -0.05809 0.44426
 C89 C 0.19944 -0.03982 0.39648
 H90 H 0.20745 -0.06553 0.37808
 N91 N 0.21009 -0.00269 0.45730
 C92 C 0.22782 0.00487 0.58739
 H93 H 0.25990 0.00180 0.58990
 C94 C 0.20645 0.00605 0.62196
 H95 H 0.22254 0.00422 0.65074
 C96 C 0.16799 0.00780 0.54689
 H97 H 0.15306 0.00783 0.51761
 C98 C 0.14532 0.00901 0.58085
 H99 H 0.11310 0.01071 0.57730
 Zn100 Zn 0.24109 0.00323 0.50601
 N101 N 0.20855 0.00618 0.55074
 C102 C 0.30070 0.05651 0.53403
 N103 N 0.27236 0.05052 0.50430
 C104 C 0.26601 0.07801 0.47422
 C105 C 0.28712 0.11390 0.47436
 C106 C 0.32278 0.09182 0.53512
 C107 C 0.25917 -0.07680 0.52809
 C108 C 0.28076 -0.11350 0.52894
 C109 C 0.33454 -0.08012 0.49794
 C110 C 0.31192 -0.04394 0.49781
 N111 N 0.27484 -0.04312 0.51240
 H112 H 0.30642 0.03383 0.55691
 H113 H 0.24443 0.07251 0.45009
 H114 H 0.28141 0.13555 0.45035
 H115 H 0.34465 0.09636 0.55945
 H116 H 0.22923 -0.07548 0.53863
 H117 H 0.26717 -0.14030 0.54024
 H118 H 0.36379 -0.08051 0.48568
 H119 H 0.32335 -0.01686 0.48483
 C120 C 0.16464 0.00833 0.61903
 C121 C 0.17194 -0.00991 0.38218
 C122 C 0.31871 -0.11564 0.51313
 C123 C 0.31562 0.12132 0.50533
 C124 C 0.81207 0.02887 0.53688
 H125 H 0.81435 0.05216 0.51446
 C126 C 0.83294 0.03233 0.57387
 H127 H 0.85216 0.05783 0.57908
 C128 C 0.78336 -0.03197 0.55757
 H129 H 0.76281 -0.05617 0.55191
 C130 C 0.80306 -0.02938 0.59498
 H131 H 0.79727 -0.05189 0.61729
 N132 N 0.78816 -0.00318 0.52932
 C133 C 0.76154 -0.00449 0.40038
 H134 H 0.73038 -0.01172 0.40157
 C135 C 0.77766 0.00273 0.36368
 H136 H 0.75854 -0.00073 0.33701
 C137 C 0.82359 0.00702 0.43451
 H138 H 0.84124 0.00895 0.46225
 C139 C 0.84132 0.01367 0.39824
 H140 H 0.87239 0.02162 0.39925
 Zn141 Zn 0.75548 -0.00558 0.48175
 N142 N 0.78409 -0.00075 0.43488
 C143 C 0.71686 0.06682 0.45457
 N144 N 0.71759 0.03806 0.48369
 C145 C 0.69485 0.04255 0.51604
 C146 C 0.67042 0.07731 0.52006
 C147 C 0.69249 0.10140 0.45702
 C148 C 0.75773 -0.08896 0.47696
 C149 C 0.74407 -0.12848 0.47738
 C150 C 0.67672 -0.10110 0.47965
 C151 C 0.69180 -0.06196 0.47968
 N152 N 0.73176 -0.05678 0.47900
 H153 H 0.73624 0.06403 0.42998
 H154 H 0.69664 0.01973 0.53927
 H155 H 0.65300 0.08099 0.54624
 H156 H 0.69311 0.12428 0.43391
 H157 H 0.78938 -0.08380 0.47629
 H158 H 0.76560 -0.15350 0.47754
 H159 H 0.64480 -0.10467 0.48010
 H160 H 0.67172 -0.03584 0.48067
 C161 C 0.81808 0.01273 0.36189
 C162 C 0.82823 0.00311 0.60374
 C163 C 0.70307 -0.13509 0.47918
 C164 C 0.66922 0.10722 0.49021
 C165 C 0.54652 0.18790 0.97657
 H166 H 0.52383 0.18311 0.95311
 C167 C 0.58348 0.16719 0.97561
 H168 H 0.58891 0.14609 0.95155
 C169 C 0.56826 0.22313 1.03503
 H170 H 0.56304 0.24593 1.05746
 C171 C 0.60549 0.20354 1.03497
 H172 H 0.62793 0.21065 1.05808
 N173 N 0.53966 0.21535 1.00602
 C174 C 0.41269 0.24718 1.00731
 H175 H 0.41718 0.27922 1.01218
 C176 C 0.37430 0.23243 1.00609
 H177 H 0.35023 0.25379 1.01168
 C178 C 0.44022 0.18144 0.99700
 H179 H 0.46612 0.16183 0.99343
 C180 C 0.40203 0.16512 0.99570
 H181 H 0.39962 0.13299 0.98993
 Zn182 Zn 0.49328 0.24973 1.00408
 N183 N 0.44463 0.22197 1.00213
 C184 C 0.46433 0.27915 0.92922
 N185 N 0.49488 0.28204 0.95724
 C186 C 0.52857 0.30194 0.94922
 C187 C 0.53306 0.31833 0.91113
 C188 C 0.46744 0.29523 0.89116
 C189 C 0.48733 0.25489 1.08425
 C190 C 0.48479 0.27109 1.12237
 C191 C 0.49298 0.33783 1.09467
 C192 C 0.49535 0.32017 1.05667
 N193 N 0.49262 0.27930 1.05241
 H194 H 0.43811 0.26256 0.93540
 H195 H 0.55283 0.30309 0.97163
 H196 H 0.56079 0.33237 0.90464
 H197 H 0.44288 0.29192 0.86932
 H198 H 0.48519 0.22249 1.07986
 H199 H 0.48135 0.25077 1.14725
 H200 H 0.49488 0.37041 1.09782
 H201 H 0.49913 0.33896 1.03076
 C202 C 0.36791 0.19077 0.99973
 C203 C 0.61373 0.17564 1.00471
 C204 C 0.48740 0.31306 1.12809
 C205 C 0.50261 0.31395 0.88117
 C206 C 0.44793 0.81737 0.99732
 H207 H 0.47254 0.83547 0.98902
 C208 C 0.40986 0.83549 0.99988
 H209 H 0.40641 0.86763 0.99381
 C210 C 0.42367 0.75435 1.01754
 H211 H 0.42922 0.72275 1.02487
 C212 C 0.38563 0.77120 1.02128
 H213 H 0.36245 0.75117 1.02962
 N214 N 0.45400 0.77733 1.00591
 C215 C 0.57783 0.77717 1.03561
 H216 H 0.57394 0.75507 1.05867
 C217 C 0.61403 0.79665 1.03503
 H218 H 0.63655 0.79009 1.05854
 C219 C 0.55401 0.81154 0.97687
 H220 H 0.53095 0.81629 0.95354
 C221 C 0.59036 0.83134 0.97479
 H222 H 0.59474 0.85132 0.94987
 Zn223 Zn 0.50402 0.74903 1.00652
 N224 N 0.54880 0.78407 1.00642
 C225 C 0.52991 0.72082 0.93195
 N226 N 0.50446 0.71345 0.96128
 C227 C 0.47731 0.68364 0.95689
 C228 C 0.47406 0.66109 0.92145
 C229 C 0.52705 0.69979 0.89578
 C230 C 0.50125 0.74474 1.08788
 C231 C 0.50281 0.72854 1.12623
 C232 C 0.51532 0.66220 1.09791
 C233 C 0.51386 0.67986 1.05980
 N234 N 0.50708 0.72054 1.05567
 H235 H 0.55172 0.74405 0.93574
 H236 H 0.45765 0.67762 0.98061
 H237 H 0.45231 0.63749 0.91898
 H238 H 0.54627 0.70836 0.87241
 H239 H 0.49562 0.77694 1.08362
 H240 H 0.49788 0.74842 1.15137
 H241 H 0.52108 0.62986 1.10103
 H242 H 0.51836 0.66123 1.03373
 C243 C 0.62141 0.82301 1.00359
 C244 C 0.37779 0.81252 1.01257
 C245 C 0.51008 0.68682 1.13170
 C246 C 0.49844 0.66972 0.88967
 B247 B 1.00066 1.04352 0.02228
 B248 B 1.02656 0.99921 0.03667
 B249 B 0.97537 1.00201 0.03762
 B250 B 0.95725 1.03001 -0.00313
 B251 B 0.99744 1.04471 -0.02973
 B252 B 1.04062 1.02630 -0.00367
 B253 B 0.99664 0.96041 -0.03200
 B254 B 0.97089 1.00379 -0.04670
 B255 B 1.02210 1.00228 -0.04656
 B256 B 1.03982 0.97377 -0.00596
 B257 B 0.99882 0.95812 0.01922
 B258 B 0.95588 0.97784 -0.00562
 B259 B 0.54307 0.50005 0.47984
 B260 B 0.49885 0.52441 0.46373
 B261 B 0.50278 0.47202 0.46399
 B262 B 0.53089 0.45695 0.50616
 B263 B 0.54538 0.50036 0.53118
 B264 B 0.52563 0.54189 0.50568
 B265 B 0.46204 0.49682 0.53074
 B266 B 0.50641 0.47274 0.54755
 B267 B 0.50239 0.52479 0.54726
 B268 B 0.47407 0.53972 0.50535
 B269 B 0.45998 0.49644 0.47919
 B270 B 0.47943 0.45501 0.50586
 C271 C 0.98234 1.29721 0.21340
 C272 C 0.98423 1.25714 0.19941
 C273 C 1.00073 1.24809 0.16288
 C274 C 1.01664 1.27968 0.14103
 C275 C 1.01538 1.31964 0.15514
 C276 C 0.99754 1.32955 0.19137
 N277 N 0.99952 1.20732 0.14751
 N278 N 1.00633 1.20050 0.11105
 C279 C 1.00506 1.16157 0.09201
 C280 C 1.00502 1.16092 0.05072
 C281 C 1.00331 1.12456 0.02986
 C282 C 1.00239 1.08643 0.04882
 C283 C 1.00326 1.08775 0.09131
 C284 C 1.00409 1.12468 0.11264
 H285 H 0.96990 1.30225 0.24220
 H286 H 0.97213 1.23316 0.21683
 H287 H 1.02963 1.27363 0.11261
 H288 H 1.02665 1.34280 0.13623
 H289 H 1.00576 1.18914 0.03427
 H290 H 1.00252 1.12807 -0.00155
 H291 H 1.00414 1.06033 0.10877
 H292 H 1.00463 1.12428 0.14497
 C293 C 0.94845 0.68828 0.16916
 C294 C 0.94791 0.72680 0.15187
 C295 C 0.97603 0.73668 0.12431
 C296 C 1.00419 0.70691 0.11317
 C297 C 1.00477 0.66817 0.13051
 C298 C 0.97735 0.65871 0.15931
 N299 N 0.97579 0.77737 0.10917
 N300 N 0.99998 0.78900 0.08371
 C301 C 0.99959 0.83004 0.06942
 C302 C 1.02301 0.83972 0.03792
 C303 C 1.02228 0.87911 0.02256
 C304 C 0.99927 0.91137 0.03874
 C305 C 0.97500 0.89998 0.06995
 C306 C 0.97530 0.86052 0.08532
 H307 H 0.92651 0.68176 0.19074
 H308 H 0.92589 0.74933 0.16049
 H309 H 1.02620 0.71381 0.09182
 H310 H 1.02754 0.64617 0.12253
 H311 H 1.04139 0.81641 0.02454
 H312 H 1.04008 0.88328 -0.00268
 H313 H 0.95174 0.91986 0.07989
 H314 H 0.95546 0.85365 0.10876
 C315 C 1.04557 1.31933 -0.16400
 C316 C 1.04627 1.27984 -0.14903
 C317 C 1.01107 1.26202 -0.13826
 C318 C 0.97493 1.28444 -0.14181
 C319 C 0.97419 1.32414 -0.15649
 C320 C 1.00948 1.34194 -0.16809
 N321 N 1.01320 1.22144 -0.12324
 N322 N 0.98250 1.20141 -0.11595
 C323 C 0.98635 1.16128 -0.09966
 C324 C 0.95241 1.14007 -0.09136
 C325 C 0.95613 1.10244 -0.07209
 C326 C 0.99367 1.08578 -0.05822
 C327 C 1.02702 1.10544 -0.07211
 C328 C 1.02376 1.14281 -0.09144
 H329 H 1.07316 1.33172 -0.17332
 H330 H 1.07430 1.26280 -0.14631
 H331 H 0.94740 1.27136 -0.13319
 H332 H 0.94600 1.34090 -0.15873
 H333 H 0.92306 1.15264 -0.09969
 H334 H 0.92925 1.08574 -0.06931
 H335 H 1.05631 1.09348 -0.06762
 H336 H 1.05075 1.15748 -0.09934
 C337 C 1.05665 0.69448 -0.18975
 C338 C 1.05714 0.73351 -0.17346
 C339 C 1.03312 0.74358 -0.14181
 C340 C 1.00988 0.71360 -0.12525
 C341 C 1.00987 0.67439 -0.14108
 C342 C 1.03261 0.66478 -0.17399
 N343 N 1.03173 0.78458 -0.12780
 N344 N 1.00438 0.79713 -0.10556
 C345 C 1.00209 0.83778 -0.09083
 C346 C 0.96943 0.84964 -0.06941
 C347 C 0.96691 0.88843 -0.05308
 C348 C 0.99666 0.91731 -0.05740
 C349 C 1.02934 0.90435 -0.07971
 C350 C 1.03200 0.86557 -0.09646
 H351 H 1.07459 0.68759 -0.21501
 H352 H 1.07530 0.75629 -0.18631
 H353 H 0.99132 0.72063 -0.10050
 H354 H 0.99094 0.65203 -0.12865
 H355 H 0.94604 0.82843 -0.06464
 H356 H 0.94175 0.89445 -0.03631
 H357 H 1.05363 0.92348 -0.08431
 H358 H 1.05788 0.85712 -0.11296
 C359 C 1.14127 0.95027 0.32533
 C360 C 1.12722 0.94725 0.28553
 C361 C 1.12638 0.98118 0.26048
 C362 C 1.13900 1.01863 0.27591
 C363 C 1.15279 1.02177 0.31583
 C364 C 1.15442 0.98751 0.34083
 N365 N 1.11195 0.97691 0.21981
 N366 N 1.11282 1.00570 0.19466
 C367 C 1.09683 1.00169 0.15448
 C368 C 1.09531 1.03535 0.12943
 C369 C 1.07530 1.03376 0.09196
 C370 C 1.05538 0.99864 0.07823
 C371 C 1.06067 0.96402 0.10288
 C372 C 1.08050 0.96549 0.14044
 H373 H 1.14189 0.92348 0.34404
 H374 H 1.11723 0.91833 0.27404
 H375 H 1.13837 1.04536 0.25715
 H376 H 1.16318 1.05071 0.32686
 H377 H 1.10833 1.06349 0.13956
 H378 H 1.07428 1.06140 0.07497
 H379 H 1.04702 0.93583 0.09529
 H380 H 1.08167 0.93863 0.15905
 C381 C 1.10734 0.98584 -0.34159
 C382 C 1.08773 0.98413 -0.30575
 C383 C 1.10211 1.00535 -0.27205
 C384 C 1.13579 1.02937 -0.27484
 C385 C 1.15535 1.03117 -0.31058
 C386 C 1.14175 1.00891 -0.34417
 N387 N 1.08294 1.00106 -0.23509
 N388 N 1.09617 1.01794 -0.20309
 C389 C 1.07798 1.01329 -0.16569
 C390 C 1.09450 1.03245 -0.13199
 C391 C 1.07785 1.02811 -0.09493
 C392 C 1.04331 1.00529 -0.09009
 C393 C 1.02855 0.98452 -0.12457
 C394 C 1.04509 0.98878 -0.16171
 H395 H 1.09635 0.96809 -0.36682
 H396 H 1.06179 0.96551 -0.30396
 H397 H 1.14733 1.04634 -0.24931
 H398 H 1.18135 1.04977 -0.31184
 H399 H 1.12097 1.05020 -0.13423
 H400 H 1.09422 1.04074 -0.06989
 H401 H 1.00382 0.96460 -0.12362
 H402 H 1.03222 0.97267 -0.18719
 C403 C 0.81041 1.03711 0.29230
 C404 C 0.82604 1.04325 0.25498
 C405 C 0.86578 1.03292 0.24871
 C406 C 0.89052 1.01838 0.28087
 C407 C 0.87526 1.01299 0.31847
 C408 C 0.83454 1.02111 0.32468
 N409 N 0.87978 1.03474 0.20909
 N410 N 0.91092 1.01465 0.20017
 C411 C 0.92592 1.01383 0.16104
 C412 C 0.95431 0.98432 0.15264
 C413 C 0.96898 0.98138 0.11468
 C414 C 0.95549 1.00633 0.08245
 C415 C 0.93016 1.03934 0.09366
 C416 C 0.91417 1.04211 0.13151
 H417 H 0.77947 1.04581 0.29570
 H418 H 0.80676 1.05488 0.23052
 H419 H 0.92152 1.01033 0.27673
 H420 H 0.89512 1.00001 0.34173
 H421 H 0.96514 0.96319 0.17569
 H422 H 0.99099 0.95862 0.11174
 H423 H 0.92519 1.06571 0.07536
 H424 H 0.89432 1.06737 0.13820
 C425 C 0.85259 1.04571 -0.33799
 C426 C 0.86834 1.04927 -0.29878
 C427 C 0.87855 1.01462 -0.27612
 C428 C 0.87425 0.97616 -0.29353
 C429 C 0.85927 0.97253 -0.33296
 C430 C 0.84753 1.00723 -0.35552
 N431 N 0.89372 1.01926 -0.23578
 N432 N 0.89505 0.99011 -0.21085
 C433 C 0.91184 0.99481 -0.17106
 C434 C 0.90753 0.96444 -0.14295
 C435 C 0.92539 0.96771 -0.10451
 C436 C 0.94711 1.00215 -0.09176
 C437 C 0.95372 1.03032 -0.12258
 C438 C 0.93536 1.02775 -0.16066
 H439 H 0.84338 1.07308 -0.35408
 H440 H 0.87174 1.07910 -0.28567
 H441 H 0.88272 0.94898 -0.27677
 H442 H 0.85683 0.94245 -0.34570
 H443 H 0.89083 0.93773 -0.15099
 H444 H 0.92192 0.94243 -0.08525
 H445 H 0.97713 1.05160 -0.12036
 H446 H 0.94193 1.05017 -0.18282
 C447 C 1.29520 1.20124 -0.01297
 C448 C 1.25640 1.18702 -0.01324
 C449 C 1.24954 1.14701 -0.00281
 C450 C 1.28219 1.12087 0.00730
 C451 C 1.32114 1.13490 0.00751
 C452 C 1.32854 1.17565 -0.00207
 N453 N 1.20930 1.13359 -0.00282
 N454 N 1.20159 1.09755 0.00710
 C455 C 1.16197 1.08269 0.00713
 C456 C 1.15717 1.04233 0.01667
 C457 C 1.11935 1.02612 0.01552
 C458 C 1.08460 1.04848 0.00221
 C459 C 1.08998 1.09068 -0.00153
 C460 C 1.12798 1.10745 -0.00066
 H461 H 1.29866 1.23214 -0.02270
 H462 H 1.23153 1.20731 -0.02173
 H463 H 1.27766 1.08964 0.01550
 H464 H 1.34500 1.11394 0.01708
 H465 H 1.18285 1.02342 0.02593
 H466 H 1.11815 0.99698 0.02881
 H467 H 1.06548 1.11151 -0.00577
 H468 H 1.13066 1.13965 -0.00581
 C469 C 0.65944 1.11489 -0.00294
 C470 C 0.69780 1.09714 -0.00215
 C471 C 0.73147 1.12096 0.00414
 C472 C 0.72643 1.16300 0.00939
 C473 C 0.68813 1.18071 0.00907
 C474 C 0.65423 1.15680 0.00317
 N475 N 0.77021 1.10158 0.00579
 N476 N 0.80242 1.12123 0.00715
 C477 C 0.84055 1.10051 0.00931
 C478 C 0.87495 1.12116 0.00132
 C479 C 0.91174 1.10012 0.00005
 C480 C 0.91506 1.05732 0.00342
 C481 C 0.88128 1.03967 0.01972
 C482 C 0.84438 1.05988 0.02061
 H483 H 0.63385 1.09577 -0.00731
 H484 H 0.70133 1.06467 -0.00621
 H485 H 0.75199 1.18204 0.01426
 H486 H 0.68495 1.21317 0.01341
 H487 H 0.87329 1.15349 -0.00445
 H488 H 0.93685 1.11818 -0.00463
 H489 H 0.88308 1.01023 0.03357
 H490 H 0.81910 1.04389 0.03096
 C491 C 1.31235 0.81360 0.04323
 C492 C 1.27341 0.82917 0.04543
 C493 C 1.25957 0.86088 0.02052
 C494 C 1.28578 0.87813 -0.00572
 C495 C 1.32503 0.86314 -0.00754
 C496 C 1.33890 0.82984 0.01624
 N497 N 1.21876 0.87455 0.02176
 N498 N 1.20286 0.89742 -0.00544
 C499 C 1.16236 0.91211 -0.00564
 C500 C 1.14720 0.93362 -0.03866
 C501 C 1.10856 0.95005 -0.03971
 C502 C 1.08275 0.94653 -0.00778
 C503 C 1.09891 0.92298 0.02488
 C504 C 1.13771 0.90600 0.02608
 H505 H 1.32167 0.78946 0.06371
 H506 H 1.25372 0.81600 0.06623
 H507 H 1.27582 0.90294 -0.02518
 H508 H 1.34350 0.87645 -0.02931
 H509 H 1.16563 0.93806 -0.06386
 H510 H 1.10038 0.96508 -0.06649
 H511 H 1.08211 0.91677 0.04985
 H512 H 1.14851 0.88875 0.05206
 C513 C 0.69582 0.81465 0.01100
 C514 C 0.73415 0.82962 0.00965
 C515 C 0.73994 0.86918 -0.00321
 C516 C 0.70666 0.89381 -0.01522
 C517 C 0.66798 0.87892 -0.01352
 C518 C 0.66211 0.83924 0.00012
 N519 N 0.77990 0.88343 -0.00257
 N520 N 0.78921 0.91707 -0.01765
 C521 C 0.82966 0.93025 -0.01527
 C522 C 0.84009 0.96368 -0.03727
 C523 C 0.87930 0.97709 -0.03503
 C524 C 0.91012 0.95826 -0.01007
 C525 C 0.89823 0.92403 0.01111
 C526 C 0.85920 0.91020 0.00869
 H527 H 0.69265 0.78359 0.02053
 H528 H 0.75956 0.81028 0.01872
 H529 H 0.71049 0.92462 -0.02517
 H530 H 0.64273 0.89870 -0.02198
 H531 H 0.81770 0.97984 -0.05592
 H532 H 0.88441 1.00449 -0.05132
 H533 H 0.91898 0.90438 0.02609
 H534 H 0.85237 0.88329 0.02525
 C535 C 0.80465 0.55701 0.32961
 C536 C 0.76633 0.56052 0.34418
 C537 C 0.75378 0.53254 0.37198
 C538 C 0.78083 0.50196 0.38643
 C539 C 0.81935 0.49886 0.37239
 C540 C 0.83137 0.52584 0.34324
 N541 N 0.71345 0.53486 0.38445
 N542 N 0.69869 0.50483 0.40174
 C543 C 0.65918 0.50445 0.41601
 C544 C 0.64655 0.46867 0.43211
 C545 C 0.61004 0.46724 0.44985
 C546 C 0.58461 0.50156 0.45405
 C547 C 0.59655 0.53662 0.43375
 C548 C 0.63345 0.53852 0.41574
 H549 H 0.81332 0.57838 0.30733
 H550 H 0.74599 0.58435 0.33294
 H551 H 0.77205 0.48017 0.40825
 H552 H 0.83924 0.47446 0.38321
 H553 H 0.66564 0.44165 0.43180
 H554 H 0.60415 0.43883 0.46159
 H555 H 0.57918 0.56391 0.43357
 H556 H 0.64214 0.56677 0.40271
 C557 C 0.16941 0.54192 0.36598
 C558 C 0.20889 0.54326 0.38103
 C559 C 0.23370 0.50851 0.38107
 C560 C 0.21814 0.47176 0.36675
 C561 C 0.17840 0.47029 0.35186
 C562 C 0.15379 0.50555 0.35079
 N563 N 0.27430 0.51179 0.39586
 N564 N 0.29992 0.48260 0.39548
 C565 C 0.34007 0.48740 0.41134
 C566 C 0.36632 0.45403 0.41414
 C567 C 0.40415 0.45750 0.43326
 C568 C 0.41696 0.49381 0.45187
 C569 C 0.39129 0.52781 0.44419
 C570 C 0.35346 0.52480 0.42531
 H571 H 0.15109 0.56946 0.36599
 H572 H 0.22040 0.57168 0.39229
 H573 H 0.23672 0.44442 0.36669
 H574 H 0.16729 0.44193 0.34004
 H575 H 0.35706 0.42484 0.40269
 H576 H 0.42154 0.43031 0.43557
 H577 H 0.39841 0.55708 0.45402
 H578 H 0.33444 0.55178 0.42244
 C579 C 0.84733 0.48511 0.61264
 C580 C 0.80898 0.48236 0.59493
 C581 C 0.77732 0.50510 0.60956
 C582 C 0.78442 0.53182 0.64145
 C583 C 0.82257 0.53466 0.65941
 C584 C 0.85506 0.51064 0.64616
 N585 N 0.73807 0.49967 0.59231
 N586 N 0.70800 0.51956 0.60439
 C587 C 0.66868 0.51337 0.58768
 C588 C 0.63759 0.53898 0.59873
 C589 C 0.59916 0.53413 0.58196
 C590 C 0.58986 0.50312 0.55420
 C591 C 0.62214 0.47741 0.54413
 C592 C 0.66070 0.48225 0.56038
 H593 H 0.86975 0.46472 0.60122
 H594 H 0.80372 0.46154 0.57030
 H595 H 0.76040 0.55041 0.65278
 H596 H 0.82614 0.55700 0.68284
 H597 H 0.64326 0.56338 0.61976
 H598 H 0.57746 0.55563 0.59059
 H599 H 0.61887 0.45335 0.52334
 H600 H 0.68429 0.46171 0.55131
 C601 C 0.16490 0.49979 0.60114
 C602 C 0.20169 0.50154 0.58363
 C603 C 0.23636 0.48687 0.60414
 C604 C 0.23384 0.46934 0.64207
 C605 C 0.19716 0.46781 0.65973
 C606 C 0.16235 0.48357 0.63971
 N607 N 0.27390 0.49176 0.58668
 N608 N 0.30619 0.47706 0.60278
 C609 C 0.34384 0.48330 0.58605
 C610 C 0.37705 0.46078 0.60038
 C611 C 0.41397 0.46576 0.58395
 C612 C 0.41970 0.49440 0.55359
 C613 C 0.38529 0.51691 0.53997
 C614 C 0.34816 0.51164 0.55575
 H615 H 0.13854 0.51160 0.58471
 H616 H 0.20332 0.51496 0.55430
 H617 H 0.26032 0.45792 0.65855
 H618 H 0.19634 0.45571 0.68969
 H619 H 0.37418 0.43853 0.62374
 H620 H 0.43740 0.44640 0.59527
 H621 H 0.38602 0.53881 0.51681
 H622 H 0.32283 0.52974 0.54412
 C623 C 0.53188 0.69003 0.20419
 C624 C 0.53120 0.67566 0.24333
 C625 C 0.51021 0.64091 0.25175
 C626 C 0.49057 0.61992 0.22025
 C627 C 0.49146 0.63412 0.18097
 C628 C 0.51168 0.66965 0.17264
 N629 N 0.50940 0.62758 0.29238
 N630 N 0.48866 0.59784 0.30232
 C631 C 0.48831 0.58355 0.34263
 C632 C 0.46719 0.54901 0.35037
 C633 C 0.46914 0.53192 0.38846
 C634 C 0.49305 0.54818 0.42036
 C635 C 0.51106 0.58541 0.41250
 C636 C 0.50944 0.60248 0.37422
 H637 H 0.54812 0.71722 0.19855
 H638 H 0.54672 0.69190 0.26726
 H639 H 0.47433 0.59278 0.22599
 H640 H 0.47541 0.61803 0.15729
 H641 H 0.45030 0.53425 0.32637
 H642 H 0.45404 0.50388 0.39109
 H643 H 0.52644 0.60212 0.43551
 H644 H 0.52499 0.63025 0.36935
 C645 C 0.45561 0.63528 0.83597
 C646 C 0.45046 0.61785 0.79796
 C647 C 0.48233 0.61485 0.77268
 C648 C 0.51999 0.62787 0.78649
 C649 C 0.52551 0.64418 0.82485
 C650 C 0.49323 0.64898 0.84999
 N651 N 0.47625 0.59798 0.73344
 N652 N 0.49800 0.60781 0.70511
 C653 C 0.49462 0.58978 0.66617
 C654 C 0.51297 0.60796 0.63474
 C655 C 0.51421 0.58887 0.59753
 C656 C 0.49890 0.54984 0.59040
 C657 C 0.47830 0.53345 0.62236
 C658 C 0.47625 0.55273 0.65946
 H659 H 0.42976 0.63890 0.85381
 H660 H 0.42128 0.60773 0.78775
 H661 H 0.54529 0.62494 0.76776
 H662 H 0.55522 0.65293 0.83466
 H663 H 0.52752 0.63664 0.63940
 H664 H 0.53099 0.60388 0.57648
 H665 H 0.46565 0.50426 0.62036
 H666 H 0.46187 0.53771 0.68337
 C667 C 0.45835 0.31416 0.19577
 C668 C 0.45826 0.32765 0.23534
 C669 C 0.48452 0.35741 0.24892
 C670 C 0.51052 0.37422 0.22208
 C671 C 0.51071 0.36068 0.18249
 C672 C 0.48497 0.33012 0.16902
 N673 N 0.48420 0.37022 0.28984
 N674 N 0.50675 0.39813 0.30294
 C675 C 0.50725 0.41276 0.34317
 C676 C 0.52801 0.44769 0.35200
 C677 C 0.52718 0.46505 0.38977
 C678 C 0.50521 0.44848 0.42059
 C679 C 0.48738 0.41084 0.41194
 C680 C 0.48746 0.39367 0.37356
 H681 H 0.43767 0.29105 0.18614
 H682 H 0.43782 0.31473 0.25553
 H683 H 0.53107 0.39741 0.23178
 H684 H 0.53182 0.37326 0.16279
 H685 H 0.54385 0.46252 0.32896
 H686 H 0.54193 0.49334 0.39296
 H687 H 0.47428 0.39362 0.43476
 H688 H 0.47248 0.36543 0.36782
 C689 C 0.49338 0.30226 0.80732
 C690 C 0.49610 0.31469 0.76775
 C691 C 0.51343 0.35147 0.75904
 C692 C 0.52892 0.37554 0.79061
 C693 C 0.52614 0.36315 0.83035
 C694 C 0.50774 0.32664 0.83917
 N695 N 0.51298 0.36456 0.71822
 N696 N 0.52905 0.39723 0.70805
 C697 C 0.52670 0.41192 0.66775
 C698 C 0.54362 0.44881 0.65975
 C699 C 0.53786 0.46664 0.62217
 C700 C 0.51412 0.44899 0.59098
 C701 C 0.50007 0.40990 0.59899
 C702 C 0.50562 0.39189 0.63680
 H703 H 0.47989 0.27350 0.81299
 H704 H 0.48416 0.29582 0.74377
 H705 H 0.54236 0.40424 0.78463
 H706 H 0.53734 0.38265 0.85416
 H707 H 0.56023 0.46466 0.68322
 H708 H 0.55036 0.49577 0.61916
 H709 H 0.48197 0.39397 0.57771
 H710 H 0.49227 0.36298 0.64210
 C711 C 0.70681 0.79029 0.46219
 C712 C 0.69312 0.75077 0.46571
 C713 C 0.66027 0.74322 0.48841
 C714 C 0.64176 0.77562 0.50838
 C715 C 0.65570 0.81492 0.50537
 C716 C 0.68818 0.82291 0.48195
 N717 N 0.64496 0.70308 0.48970
 N718 N 0.60999 0.69795 0.50133
 C719 C 0.59156 0.65953 0.50331
 C720 C 0.55066 0.65956 0.50663
 C721 C 0.53068 0.62338 0.50827
 C722 C 0.55035 0.58498 0.50656
 C723 C 0.59260 0.58592 0.50615
 C724 C 0.61289 0.62248 0.50354
 H725 H 0.73159 0.79531 0.44350
 H726 H 0.70752 0.72617 0.44996
 H727 H 0.61652 0.77057 0.52649
 H728 H 0.64125 0.83894 0.52185
 H729 H 0.53402 0.68807 0.50851
 H730 H 0.50054 0.62707 0.51521
 H731 H 0.61068 0.55849 0.50657
 H732 H 0.64504 0.62175 0.50214
 C733 C 0.62322 0.16110 0.46084
 C734 C 0.60627 0.20014 0.46182
 C735 C 0.61189 0.22451 0.49570
 C736 C 0.63304 0.20866 0.52968
 C737 C 0.64984 0.16932 0.52885
 C738 C 0.64596 0.14567 0.49397
 N739 N 0.59762 0.26575 0.49358
 N740 N 0.60275 0.29123 0.52183
 C741 C 0.58881 0.33250 0.51703
 C742 C 0.58947 0.35867 0.54975
 C743 C 0.57421 0.39847 0.54573
 C744 C 0.55692 0.41347 0.50899
 C745 C 0.56012 0.38710 0.47573
 C746 C 0.57530 0.34751 0.47965
 H747 H 0.61960 0.14335 0.43372
 H748 H 0.58986 0.21201 0.43556
 H749 H 0.63762 0.22701 0.55626
 H750 H 0.66754 0.15818 0.55463
 H751 H 0.60155 0.34818 0.57859
 H752 H 0.57734 0.41744 0.57168
 H753 H 0.55288 0.39681 0.44598
 H754 H 0.57643 0.32866 0.45321
 C755 C 0.35938 0.83396 0.47522
 C756 C 0.37699 0.79540 0.47124
 C757 C 0.37593 0.76701 0.50210
 C758 C 0.35769 0.77786 0.53759
 C759 C 0.33999 0.81639 0.54160
 C760 C 0.34028 0.84471 0.51029
 N761 N 0.39290 0.72728 0.49637
 N762 N 0.39301 0.70002 0.52321
 C763 C 0.40984 0.66028 0.51718
 C764 C 0.41295 0.63317 0.54902
 C765 C 0.43085 0.59486 0.54453
 C766 C 0.44666 0.58201 0.50799
 C767 C 0.44088 0.60952 0.47556
 C768 C 0.42308 0.64789 0.48006
 H769 H 0.35959 0.85490 0.45037
 H770 H 0.39096 0.78734 0.44376
 H771 H 0.35668 0.75647 0.56197
 H772 H 0.32587 0.82399 0.56911
 H773 H 0.40180 0.64189 0.57768
 H774 H 0.43109 0.57532 0.57007
 H775 H 0.44889 0.60185 0.44614
 H776 H 0.41985 0.66788 0.45443
 C777 C 0.37887 0.15943 0.51577
 C778 C 0.39950 0.19568 0.51698
 C779 C 0.37926 0.23274 0.50953
 C780 C 0.33795 0.23326 0.50052
 C781 C 0.31732 0.19697 0.49894
 C782 C 0.33758 0.15971 0.50664
 N783 N 0.40151 0.26916 0.51076
 N784 N 0.38503 0.30431 0.50761
 C785 C 0.40821 0.34018 0.50820
 C786 C 0.38916 0.37815 0.50835
 C787 C 0.41135 0.41344 0.50850
 C788 C 0.45361 0.41252 0.50747
 C789 C 0.47172 0.37326 0.50867
 C790 C 0.44977 0.33799 0.50876
 H791 H 0.39527 0.13113 0.52143
 H792 H 0.43138 0.19494 0.52377
 H793 H 0.32170 0.26157 0.49456
 H794 H 0.28543 0.19806 0.49222
 H795 H 0.35691 0.38052 0.50810
 H796 H 0.39419 0.44134 0.50741
 H797 H 0.50274 0.36820 0.51268
 H798 H 0.46558 0.30892 0.50984
   
