data_POSCAR
  _audit_creation_date              2014-09-24
  _audit_creation_method            'ToBaCCo'
  _symmetry_space_group_name_H-M    'P1'
  _symmetry_Int_Tables_number       1
  _symmetry_cell_setting            triclinic
  loop_
  _symmetry_equiv_pos_as_xyz
 x,y,z
_cell_length_a 36.1898
_cell_length_b 36.1941
_cell_length_c 36.2121
_cell_angle_alpha 76.025800
_cell_angle_beta 104.221400
_cell_angle_gamma 74.988300
loop_
  _atom_site_label
  _atom_site_type_symbol
  _atom_site_fract_x
  _atom_site_fract_y
  _atom_site_fract_z
O1 O 0.56684 0.48899 0.03480
 O2 O 0.46097 0.50273 0.03005
 O3 O 0.52219 0.44263 0.03573
 O4 O 0.50601 0.54869 0.03022
 O5 O 0.48710 0.56723 -0.03629
 O6 O 0.50316 0.46097 -0.03077
 O7 O 0.44209 0.52122 -0.03645
 O8 O 0.54777 0.50735 -0.03171
 Cu9 Cu 0.51590 0.49391 0.03941
 Cu10 Cu 0.49312 0.51603 -0.04051
 C11 C 0.57507 0.49625 0.00225
 C12 C 0.43371 0.51399 -0.00401
 C13 C 0.51506 0.43393 0.00341
 C14 C 0.49425 0.57579 -0.00387
 O15 O -0.03512 0.55977 0.47704
 O16 O -0.03143 0.45466 0.48995
 O17 O -0.03065 0.49972 0.53640
 O18 O -0.03470 0.51412 0.43104
 O19 O 0.03223 0.49380 0.45063
 O20 O 0.03627 0.47932 0.55583
 O21 O 0.03550 0.43420 0.50940
 O22 O 0.03179 0.53948 0.49658
 Cu23 Cu -0.03972 0.50916 0.48167
 Cu24 Cu 0.04070 0.48470 0.50508
 C25 C -0.00229 0.56736 0.48488
 C26 C 0.00257 0.42675 0.50148
 C27 C 0.00349 0.48727 0.56386
 C28 C -0.00182 0.50594 0.42315
 O29 O 0.49193 0.03285 0.54983
 O30 O 0.47968 0.03643 0.44489
 O31 O 0.43318 0.03624 0.48981
 O32 O 0.53897 0.03188 0.50539
 O33 O 0.55899 -0.03496 0.52488
 O34 O 0.45338 -0.03061 0.50922
 O35 O 0.49982 -0.03041 0.46428
 O36 O 0.51197 -0.03398 0.56936
 Cu37 Cu 0.48397 0.04109 0.49552
 Cu38 Cu 0.50810 -0.03923 0.51887
 C39 C 0.50357 -0.00109 0.57724
 C40 C 0.48788 0.00362 0.43688
 C41 C 0.42552 0.00345 0.49727
 C42 C 0.56679 -0.00227 0.51751
 C43 C 0.49718 -0.00969 0.02057
 C44 C 0.50066 0.01957 -0.00870
 C45 C 0.50119 0.01489 -0.04825
 C46 C 0.50403 0.05798 -0.00305
 C47 C 0.49482 -0.00461 0.05954
 C48 C 0.49539 -0.04867 0.01525
 C49 C 0.53376 0.01858 -0.06151
 C50 C 0.53464 0.01477 -0.09877
 C51 C 0.50277 0.00749 -0.12371
 C52 C 0.46993 0.00417 -0.11051
 C53 C 0.46908 0.00799 -0.07318
 C54 C 0.53526 0.05813 0.02877
 C55 C 0.53852 0.09477 0.03273
 C56 C 0.51067 0.13181 0.00485
 C57 C 0.47962 0.13142 -0.02704
 C58 C 0.47646 0.09488 -0.03102
 C59 C 0.46466 0.02794 0.06098
 C60 C 0.46175 0.03086 0.09808
 C61 C 0.48864 0.00103 0.13434
 C62 C 0.51888 -0.03133 0.13268
 C63 C 0.52182 -0.03417 0.09569
 C64 C 0.46246 -0.06080 0.01952
 C65 C 0.46050 -0.09764 0.01535
 C66 C 0.49163 -0.12325 0.00711
 C67 C 0.52472 -0.11109 0.00297
 C68 C 0.52668 -0.07420 0.00722
 H69 H 0.55863 0.02428 -0.04287
 H70 H 0.55999 0.01820 -0.10837
 H71 H 0.44504 -0.00167 -0.12892
 H72 H 0.44334 0.00572 -0.06377
 H73 H 0.55725 0.02992 0.05028
 H74 H 0.56264 0.09416 0.05769
 H75 H 0.45240 0.09536 -0.05598
 H76 H 0.44297 0.05063 0.03340
 H77 H 0.43783 0.05587 0.09838
 H78 H 0.54042 -0.05445 0.16005
 H79 H 0.54523 -0.05955 0.09523
 H80 H 0.43808 -0.04152 0.02581
 H81 H 0.43441 -0.10593 0.01822
 H82 H 0.54947 -0.13048 -0.00272
 H83 H 0.55274 -0.06571 0.00462
 H84 H 0.45816 0.15942 -0.04939
 C85 C -0.00900 0.49755 0.97937
 C86 C 0.02055 0.50104 1.00854
 C87 C 0.05917 0.50381 1.00296
 C88 C 0.01597 0.50203 1.04795
 C89 C -0.04818 0.49634 0.98462
 C90 C -0.00398 0.49446 0.94064
 C91 C 0.09602 0.47636 1.03127
 C92 C 0.13275 0.47905 1.02745
 C93 C 0.13344 0.50948 0.99534
 C94 C 0.09646 0.53719 0.96709
 C95 C 0.05962 0.53441 0.97091
 C96 C 0.00888 0.47025 1.07291
 C97 C 0.00493 0.47159 1.11004
 C98 C 0.00832 0.50458 1.12299
 C99 C 0.01585 0.53611 1.09806
 C100 C 0.01979 0.53474 1.06098
 C101 C -0.07348 0.52796 0.99247
 C102 C -0.11067 0.52663 0.99637
 C103 C -0.12338 0.49386 0.99206
 C104 C -0.09796 0.46235 0.98409
 C105 C -0.06083 0.46368 0.98027
 C106 C -0.03339 0.52131 0.90432
 C107 C -0.03058 0.51772 0.86754
 C108 C 0.00161 0.48699 0.86630
 C109 C 0.03128 0.46024 0.90271
 C110 C 0.02837 0.46379 0.93961
 H111 H 0.09631 0.45278 1.05643
 H112 H 0.16067 0.45771 1.05009
 H113 H 0.09604 0.56083 0.94194
 H114 H 0.03149 0.55631 0.94911
 H115 H 0.00650 0.44442 1.06365
 H116 H -0.00111 0.44698 1.12848
 H117 H 0.02564 0.55934 1.04227
 H118 H -0.06462 0.55383 0.99513
 H119 H -0.12986 0.55166 1.00188
 H120 H -0.10664 0.43647 0.98112
 H121 H -0.04177 0.43904 0.97413
 H122 H -0.05862 0.54510 0.90450
 H123 H -0.05355 0.53915 0.84000
 H124 H 0.05614 0.43597 0.90269
 H125 H 0.05092 0.44222 0.96735
 H126 H 0.01933 0.56156 1.10750
 C127 C 0.01025 -0.01941 0.49829
 C128 C -0.01914 0.01018 0.50217
 C129 C -0.05758 0.00503 0.50600
 C130 C -0.01444 0.04960 0.50303
 C131 C 0.04944 -0.01464 0.49675
 C132 C 0.00519 -0.05818 0.49535
 C133 C -0.09456 0.03433 0.47998
 C134 C -0.13105 0.03146 0.48432
 C135 C -0.13134 -0.00068 0.51498
 C136 C -0.09427 -0.03027 0.54088
 C137 C -0.05765 -0.02729 0.53658
 C138 C -0.00744 0.07450 0.47111
 C139 C -0.00386 0.11183 0.47214
 C140 C -0.00766 0.12512 0.50491
 C141 C -0.01487 0.10013 0.53668
 C142 C -0.01836 0.06285 0.53566
 C143 C 0.07466 -0.00717 0.52821
 C144 C 0.11168 -0.00328 0.52646
 C145 C 0.12431 -0.00725 0.49342
 C146 C 0.09906 -0.01502 0.46214
 C147 C 0.06206 -0.01882 0.46388
 C148 C 0.03491 -0.09483 0.52149
 C149 C 0.03212 -0.13162 0.51795
 C150 C -0.00037 -0.13260 0.48797
 C151 C -0.03039 -0.09585 0.46196
 C152 C -0.02750 -0.05893 0.46546
 H153 H -0.09514 0.05954 0.45626
 H154 H -0.15912 0.05436 0.46352
 H155 H -0.09355 -0.05510 0.56506
 H156 H -0.02939 -0.04976 0.55752
 H157 H -0.00515 0.06519 0.44526
 H158 H 0.00103 0.13067 0.44691
 H159 H -0.02387 0.04411 0.56052
 H160 H 0.06580 -0.00468 0.55423
 H161 H 0.13079 0.00202 0.55133
 H162 H 0.10773 -0.01778 0.43610
 H163 H 0.04304 -0.02471 0.43938
 H164 H 0.06040 -0.09491 0.54470
 H165 H 0.05536 -0.15940 0.53884
 H166 H -0.05551 -0.09562 0.43826
 H167 H -0.05033 -0.03096 0.44443
 H168 H -0.01745 0.10927 0.56255
 C169 C -0.21503 0.50410 1.02730
 C170 C -0.23903 0.49062 1.00063
 C171 C -0.22524 0.47819 0.97127
 C172 C -0.18766 0.47922 0.96853
 C173 C -0.38419 0.49292 1.00365
 C174 C -0.17739 0.50518 1.02460
 C175 C -0.27816 0.49027 1.00271
 C176 C -0.31124 0.49040 1.00373
 C177 C -0.35038 0.49128 1.00408
 C178 C -0.16328 0.49274 0.99515
 H179 H -0.22543 0.51383 1.05013
 H180 H -0.24368 0.46794 0.95031
 H181 H -0.17795 0.47002 0.94515
 H182 H -0.15914 0.51531 1.04580
 C183 C 0.21598 0.55266 0.98074
 C184 C 0.24860 0.51736 0.98977
 C185 C 0.24320 0.47972 0.99928
 C186 C 0.20557 0.47725 1.00038
 C187 C 0.39504 0.51727 0.99426
 C188 C 0.17823 0.55026 0.98177
 C189 C 0.28793 0.51934 0.99019
 C190 C 0.32134 0.51984 0.99114
 C191 C 0.36092 0.51908 0.99272
 C192 C 0.17274 0.51245 0.99200
 H193 H 0.21984 0.58196 0.97341
 H194 H 0.26819 0.45221 1.00618
 H195 H 0.20215 0.44776 1.00779
 H196 H 0.15366 0.57785 0.97560
 C197 C 0.03163 -0.24013 0.48536
 C198 C -0.00508 -0.24760 0.47849
 C199 C -0.04059 -0.21712 0.47367
 C200 C -0.03929 -0.17944 0.47616
 C201 C -0.00363 -0.39409 0.48156
 C202 C 0.03301 -0.20258 0.48792
 C203 C -0.00581 -0.28703 0.47777
 C204 C -0.00562 -0.32047 0.47807
 C205 C -0.00472 -0.36004 0.47947
 C206 C -0.00237 -0.17191 0.48371
 H207 H 0.05929 -0.26345 0.48908
 H208 H -0.06916 -0.22263 0.46850
 H209 H -0.06695 -0.15657 0.47315
 H210 H 0.06177 -0.19750 0.49309
 C211 C -0.02860 0.22761 0.52038
 C212 C 0.00040 0.24105 0.50736
 C213 C 0.02688 0.21661 0.49357
 C214 C 0.02434 0.17887 0.49275
 C215 C 0.00363 0.38618 0.50464
 C216 C -0.03118 0.18993 0.51962
 C217 C 0.00237 0.28025 0.50750
 C218 C 0.00340 0.31334 0.50724
 C219 C 0.00386 0.35245 0.50627
 C220 C -0.00475 0.16511 0.50577
 H221 H -0.04941 0.24638 0.53089
 H222 H 0.04945 0.22672 0.48341
 H223 H 0.04540 0.16028 0.48237
 H224 H -0.05428 0.18048 0.52928
 C225 C 0.46932 0.02013 -0.23529
 C226 C 0.50568 -0.00029 -0.23969
 C227 C 0.54092 -0.01885 -0.20608
 C228 C 0.53991 -0.01670 -0.16828
 C229 C 0.50603 -0.00207 -0.38449
 C230 C 0.46823 0.02229 -0.19752
 C231 C 0.50685 -0.00164 -0.27882
 C232 C 0.50735 -0.00229 -0.31184
 C233 C 0.50714 -0.00245 -0.35084
 C234 C 0.50358 0.00408 -0.16360
 H235 H 0.44188 0.03471 -0.26113
 H236 H 0.56921 -0.03484 -0.20911
 H237 H 0.56750 -0.03149 -0.14265
 H238 H 0.43993 0.03895 -0.19502
 C239 C 0.48807 -0.03081 0.24194
 C240 C 0.48072 0.00595 0.24975
 C241 C 0.47500 0.04142 0.21952
 C242 C 0.47703 0.04004 0.18174
 C243 C 0.48439 0.00499 0.39618
 C244 C 0.49017 -0.03227 0.20429
 C245 C 0.48030 0.00681 0.28921
 C246 C 0.48078 0.00674 0.32265
 C247 C 0.48229 0.00598 0.36218
 C248 C 0.48500 0.00307 0.17384
 H249 H 0.49248 -0.05844 0.26508
 H250 H 0.46944 0.07003 0.22529
 H251 H 0.47329 0.06767 0.15904
 H252 H 0.49569 -0.06107 0.19894
 C253 C 0.50025 -0.21414 -0.02925
 C254 C 0.48684 -0.23806 -0.00261
 C255 C 0.47483 -0.22440 0.02700
 C256 C 0.47628 -0.18703 0.03007
 C257 C 0.49014 -0.38332 -0.00554
 C258 C 0.50174 -0.17673 -0.02623
 C259 C 0.48645 -0.27711 -0.00480
 C260 C 0.48672 -0.31019 -0.00584
 C261 C 0.48799 -0.34940 -0.00612
 C262 C 0.48982 -0.16279 0.00353
 H263 H 0.50967 -0.22448 -0.05225
 H264 H 0.46467 -0.24280 0.04795
 H265 H 0.46747 -0.17741 0.05366
 H266 H 0.51186 -0.15854 -0.04736
 C267 C 0.48191 0.24112 0.00199
 C268 C 0.51966 0.24644 0.01075
 C269 C 0.55476 0.21388 0.01900
 C270 C 0.55203 0.17626 0.01790
 C271 C 0.51925 0.39290 0.00555
 C272 C 0.47910 0.20364 0.00082
 C273 C 0.52188 0.28566 0.01024
 C274 C 0.52239 0.31906 0.00915
 C275 C 0.52141 0.35870 0.00733
 C276 C 0.51408 0.17089 0.00837
 H277 H 0.45456 0.26608 -0.00430
 H278 H 0.58414 0.21770 0.02573
 H279 H 0.57942 0.15172 0.02344
 H280 H 0.44954 0.20027 -0.00603
 C281 C -0.23832 0.03109 0.51885
 C282 C -0.24560 -0.00568 0.52612
 C283 C -0.21508 -0.04117 0.53100
 C284 C -0.17759 -0.03979 0.52806
 C285 C -0.39228 -0.00394 0.52195
 C286 C -0.20096 0.03255 0.51584
 C287 C -0.28497 -0.00643 0.52688
 C288 C -0.31844 -0.00620 0.52640
 C289 C -0.35810 -0.00518 0.52458
 C290 C -0.17031 -0.00280 0.52000
 H291 H -0.26171 0.05874 0.51506
 H292 H -0.22048 -0.06978 0.53645
 H293 H -0.15469 -0.06742 0.53105
 H294 H -0.19603 0.06137 0.51026
 C295 C 0.21499 0.02845 0.50291
 C296 C 0.23943 0.00177 0.48930
 C297 C 0.22617 -0.02763 0.47682
 C298 C 0.18869 -0.03046 0.47802
 C299 C 0.38476 0.00474 0.49320
 C300 C 0.17747 0.02566 0.50417
 C301 C 0.27857 0.00376 0.48913
 C302 C 0.31169 0.00476 0.48957
 C303 C 0.35089 0.00512 0.49100
 C304 C 0.16394 -0.00390 0.49180
 H305 H 0.22500 0.05130 0.51268
 H306 H 0.24497 -0.04860 0.46648
 H307 H 0.17938 -0.05389 0.46884
 H308 H 0.15888 0.04683 0.51446
 C309 C 0.02029 0.47238 1.23425
 C310 C -0.00037 0.50889 1.23821
 C311 C -0.01879 0.54387 1.20444
 C312 C -0.01630 0.54243 1.16687
 C313 C -0.00300 0.50924 1.38260
 C314 C 0.02279 0.47086 1.19671
 C315 C -0.00212 0.51041 1.27710
 C316 C -0.00300 0.51100 1.30999
 C317 C -0.00334 0.51066 1.34894
 C318 C 0.00468 0.50592 1.16263
 H319 H 0.03476 0.44515 1.26024
 H320 H -0.03495 0.57226 1.20717
 H321 H -0.03099 0.56979 1.14108
 H322 H 0.03959 0.44245 1.19452
 C323 C -0.03029 0.48540 0.75901
 C324 C 0.00653 0.47789 0.75135
 C325 C 0.04207 0.47221 0.78164
 C326 C 0.04070 0.47453 0.81933
 C327 C 0.00505 0.48298 0.60468
 C328 C -0.03174 0.48779 0.79657
 C329 C 0.00731 0.47757 0.71190
 C330 C 0.00713 0.47832 0.67841
 C331 C 0.00621 0.48032 0.63879
 C332 C 0.00367 0.48277 0.82703
 H333 H -0.05797 0.48981 0.73580
 H334 H 0.07071 0.46655 0.77595
 H335 H 0.06837 0.47088 0.84208
 H336 H -0.06058 0.49353 0.80181
   
