data_POSCAR
  _audit_creation_date              2014-09-24
  _audit_creation_method            'ToBaCCo'
  _symmetry_space_group_name_H-M    'P1'
  _symmetry_Int_Tables_number       1
  _symmetry_cell_setting            triclinic
  loop_
  _symmetry_equiv_pos_as_xyz
 x,y,z
_cell_length_a 17.4119
_cell_length_b 18.1026
_cell_length_c 17.0635
_cell_angle_alpha 91.100000
_cell_angle_beta 89.369400
_cell_angle_gamma 90.775100
loop_
  _atom_site_label
  _atom_site_type_symbol
  _atom_site_fract_x
  _atom_site_fract_y
  _atom_site_fract_z
O1 O 0.57956 0.14213 0.00764
 O2 O 0.42979 -0.04802 -0.15565
 O3 O 0.60137 0.04678 -0.10397
 O4 O 0.35517 0.09454 -0.03843
 O5 O 0.56558 -0.05992 -0.14739
 O6 O 0.43683 0.15152 0.03934
 O7 O 0.33582 -0.04063 -0.07780
 O8 O 0.68167 0.06920 0.01046
 C9 C 0.65322 0.13625 0.01126
 C10 C 0.36065 -0.03417 -0.14526
 C11 C 0.59846 0.00084 -0.15976
 C12 C 0.38264 0.15323 -0.00940
 O13 O 0.46211 0.05278 0.15985
 O14 O 0.55324 -0.14633 -0.01969
 O15 O 0.61215 -0.03977 0.08945
 O16 O 0.35109 -0.08062 0.06057
 O17 O 0.41138 -0.14476 -0.03139
 O18 O 0.59423 0.06459 0.13508
 O19 O 0.35574 0.05437 0.10422
 O20 O 0.64992 -0.07447 -0.04026
 Co21 Co 0.51392 0.09366 0.07694
 Co22 Co 0.48983 -0.09210 -0.08077
 Co23 Co 0.60076 0.00757 -0.00461
 Co24 Co 0.36218 0.00670 0.01136
 O25 O 0.48779 -0.00077 -0.00040
 C26 C 0.39228 0.04139 0.16343
 C27 C 0.62473 -0.13773 -0.02513
 C28 C 0.62056 0.00295 0.14523
 C29 C 0.36287 -0.14123 0.02510
 O30 O -0.14524 0.44540 -0.00336
 O31 O 0.05399 0.55894 0.15654
 O32 O 0.04483 0.34015 0.04443
 O33 O -0.06412 0.68211 0.00122
 O34 O 0.05558 0.41874 0.14469
 O35 O -0.13885 0.58306 -0.00577
 O36 O -0.05161 0.58933 0.10336
 O37 O -0.06759 0.35583 -0.03636
 C38 C -0.13082 0.37763 -0.00775
 C39 C -0.00984 0.59018 0.16183
 C40 C 0.04431 0.35418 0.11810
 C41 C -0.13321 0.65356 -0.00746
 O42 O -0.06024 0.57336 -0.14385
 O43 O 0.16677 0.42494 0.04568
 O44 O 0.02624 0.42384 -0.14801
 O45 O 0.07655 0.64853 0.04911
 O46 O 0.16082 0.56254 0.04241
 O47 O -0.09169 0.43534 -0.14525
 O48 O 0.03558 0.62514 -0.08650
 O49 O 0.13339 0.40026 -0.07184
 Co50 Co -0.09624 0.50864 -0.06864
 Co51 Co 0.10001 0.49255 0.08792
 Co52 Co 0.03194 0.38861 -0.05031
 Co53 Co -0.00722 0.60139 0.00670
 O54 O 0.01331 0.49388 -0.00494
 C55 C -0.00666 0.62099 -0.14469
 C56 C 0.18142 0.39612 -0.01975
 C57 C -0.03465 0.41103 -0.18031
 C58 C 0.14537 0.62943 0.04557
 O59 O -0.00218 -0.14527 0.43116
 O60 O 0.13197 0.07028 0.58042
 O61 O 0.10510 -0.04647 0.37922
 O62 O -0.03951 -0.06920 0.69006
 O63 O 0.14211 0.06081 0.43032
 O64 O -0.01017 -0.13603 0.58293
 O65 O 0.08174 -0.02963 0.63278
 O66 O -0.01320 -0.09507 0.31369
 C67 C -0.01410 -0.15389 0.35717
 C68 C 0.13657 0.01593 0.62649
 C69 C 0.15658 0.00346 0.38913
 C70 C -0.02625 -0.13388 0.65675
 O71 O -0.14894 -0.07283 0.57067
 O72 O 0.01651 0.14105 0.41772
 O73 O -0.09531 0.01005 0.36722
 O74 O 0.00292 0.08483 0.66575
 O75 O 0.00436 0.15116 0.56162
 O76 O -0.14097 -0.08303 0.42666
 O77 O -0.11298 0.03237 0.61225
 O78 O 0.02791 0.05772 0.32540
 Co79 Co -0.06926 -0.10011 0.50252
 Co80 Co 0.06757 0.09750 0.49796
 Co81 Co 0.00106 -0.02166 0.38323
 Co82 Co -0.01746 -0.00316 0.61446
 O83 O -0.00457 0.00322 0.49857
 C84 C -0.16532 -0.01305 0.60522
 C85 C 0.02099 0.12408 0.34608
 C86 C -0.15010 -0.03212 0.37957
 C87 C -0.00192 0.14687 0.63427
 C88 C -0.21625 0.19020 0.02765
 C89 C -0.29437 0.20104 0.01285
 C90 C -0.32042 0.27319 0.00134
 C91 C -0.26800 0.33284 0.00015
 C92 C -0.18923 0.32072 0.01068
 C93 C -0.16444 0.24920 0.02659
 H94 H -0.19452 0.13566 0.03873
 H95 H -0.38062 0.28309 -0.00904
 H96 H -0.28835 0.38744 -0.01306
 H97 H -0.10412 0.23833 0.03527
 C98 C 0.33079 0.73077 0.00311
 C99 C 0.31772 0.79970 0.04070
 C100 C 0.25040 0.80803 0.08682
 C101 C 0.19518 0.75185 0.08940
 C102 C 0.20683 0.68531 0.04825
 C103 C 0.27612 0.67388 0.00766
 H104 H 0.38199 0.72135 -0.03217
 H105 H 0.23645 0.86000 0.11555
 H106 H 0.14230 0.76116 0.12200
 H107 H 0.28627 0.62232 -0.02381
 C108 C 0.35313 0.28322 0.02984
 C109 C 0.34555 0.22430 -0.02461
 C110 C 0.29393 0.23057 -0.08660
 C111 C 0.24590 0.29158 -0.08998
 C112 C 0.24739 0.34635 -0.03029
 C113 C 0.30392 0.34341 0.02747
 H114 H 0.39274 0.28009 0.07813
 H115 H 0.28749 0.18632 -0.12978
 H116 H 0.20322 0.29250 -0.13562
 H117 H 0.30660 0.38497 0.07392
 C118 C -0.33356 0.72967 -0.03027
 C119 C -0.32004 0.80401 -0.00920
 C120 C -0.24840 0.82547 0.02091
 C121 C -0.18931 0.77525 0.02455
 C122 C -0.20033 0.70205 -0.00163
 C123 C -0.27367 0.67867 -0.02648
 H124 H -0.38865 0.71211 -0.05344
 H125 H -0.23708 0.88215 0.03932
 H126 H -0.13415 0.79472 0.04584
 H127 H -0.28363 0.62224 -0.04629
 C128 C -0.07971 -0.30139 0.21546
 C129 C -0.02563 -0.35698 0.22689
 C130 C 0.02479 -0.35001 0.29068
 C131 C 0.02534 -0.28564 0.33772
 C132 C -0.02298 -0.22712 0.31985
 C133 C -0.07709 -0.23643 0.26028
 H134 H -0.11943 -0.30485 0.16712
 H135 H 0.06729 -0.39183 0.30069
 H136 H 0.06728 -0.27932 0.38386
 H137 H -0.11510 -0.19194 0.24597
 C138 C 0.01348 0.34636 0.70015
 C139 C -0.03926 0.34941 0.76257
 C140 C -0.08200 0.28553 0.78161
 C141 C -0.06863 0.21852 0.74167
 C142 C -0.01506 0.21550 0.67984
 C143 C 0.02418 0.28042 0.65802
 H144 H 0.04839 0.39436 0.68594
 H145 H -0.12153 0.28612 0.83106
 H146 H -0.09965 0.16924 0.75923
 H147 H 0.06552 0.27942 0.61014
 C148 C 0.03288 0.21979 0.15071
 C149 C 0.03214 0.29438 0.17472
 C150 C 0.02246 0.31211 0.25480
 C151 C 0.01638 0.25666 0.31003
 C152 C 0.01994 0.18212 0.28657
 C153 C 0.02697 0.16408 0.20623
 H154 H 0.04002 0.20452 0.08940
 H155 H 0.02089 0.36910 0.27521
 H156 H 0.01075 0.27233 0.37139
 H157 H 0.02970 0.10697 0.18642
 C158 C -0.05355 -0.32705 0.73593
 C159 C -0.00168 -0.32701 0.79901
 C160 C 0.04700 -0.26426 0.80932
 C161 C 0.03841 -0.20140 0.76364
 C162 C -0.01623 -0.20064 0.70408
 C163 C -0.05995 -0.26488 0.68859
 H164 H -0.09172 -0.37381 0.72499
 H165 H 0.08829 -0.26125 0.85638
 H166 H 0.07412 -0.15301 0.77524
 H167 H -0.10157 -0.26587 0.64190
 C168 C 0.33308 -0.01131 0.71750
 C169 C 0.31109 -0.01810 0.79708
 C170 C 0.23289 -0.00805 0.81725
 C171 C 0.17864 0.00508 0.76096
 C172 C 0.19971 0.00983 0.68221
 C173 C 0.27745 0.00309 0.66026
 H174 H 0.39245 -0.01798 0.69939
 H175 H 0.21204 -0.01200 0.87705
 H176 H 0.11908 0.01050 0.77915
 H177 H 0.29448 0.00637 0.59919
 C178 C -0.30209 0.05145 0.25653
 C179 C -0.32990 -0.01025 0.21345
 C180 C -0.30507 -0.08094 0.23318
 C181 C -0.25126 -0.08904 0.29320
 C182 C -0.21981 -0.02644 0.33195
 C183 C -0.24683 0.04355 0.31403
 H184 H -0.31985 0.10680 0.24281
 H185 H -0.32552 -0.12931 0.20098
 H186 H -0.23069 -0.14363 0.30590
 H187 H -0.22295 0.09253 0.34260
 C188 C 0.33721 0.07660 0.29307
 C189 C 0.35129 0.02185 0.23624
 C190 C 0.31147 -0.04605 0.24093
 C191 C 0.25104 -0.05554 0.29488
 C192 C 0.23147 0.00230 0.34673
 C193 C 0.27858 0.06656 0.34853
 H194 H 0.36715 0.12938 0.29062
 H195 H 0.32449 -0.09049 0.20036
 H196 H 0.21705 -0.10608 0.29280
 H197 H 0.26604 0.11220 0.38836
 C198 C -0.30290 0.06706 0.75685
 C199 C -0.35466 0.00801 0.76715
 C200 C -0.35215 -0.05200 0.71293
 C201 C -0.29418 -0.05669 0.65551
 C202 C -0.23818 -0.00076 0.64985
 C203 C -0.24589 0.06303 0.69824
 H204 H -0.30323 0.11405 0.79710
 H205 H -0.39164 -0.09839 0.71851
 H206 H -0.29031 -0.10621 0.61913
 H207 H -0.20436 0.10783 0.69459
   
