data_POSCAR
  _audit_creation_date              2014-09-24
  _audit_creation_method            'ToBaCCo'
  _symmetry_space_group_name_H-M    'P1'
  _symmetry_Int_Tables_number       1
  _symmetry_cell_setting            triclinic
  loop_
  _symmetry_equiv_pos_as_xyz
 x,y,z
_cell_length_a 53.2732
_cell_length_b 53.2721
_cell_length_c 53.3439
_cell_angle_alpha 90.038200
_cell_angle_beta 89.998600
_cell_angle_gamma 90.018000
loop_
  _atom_site_label
  _atom_site_type_symbol
  _atom_site_fract_x
  _atom_site_fract_y
  _atom_site_fract_z
C1 C 0.18891 0.21222 0.22449
 N2 N 0.19286 0.22784 0.20476
 C3 C 0.21242 0.22407 0.18885
 N4 N 0.22813 0.20439 0.19287
 C5 C 0.22447 0.18858 0.21251
 N6 N 0.20480 0.19263 0.22823
 C7 C 0.68857 0.71266 0.72423
 N8 N 0.69261 0.72838 0.70459
 C9 C 0.71218 0.72463 0.68869
 N10 N 0.72781 0.70487 0.69262
 C11 C 0.72406 0.68896 0.71216
 N12 N 0.70440 0.69300 0.72787
 C13 C 0.31068 0.78819 0.72462
 N14 N 0.30670 0.77247 0.70496
 C15 C 0.28714 0.77619 0.68905
 N16 N 0.27148 0.79593 0.69299
 C17 C 0.27513 0.81190 0.71256
 N18 N 0.29482 0.80783 0.72827
 C19 C 0.81183 0.28746 0.22473
 N20 N 0.79583 0.30703 0.22837
 C21 C 0.77615 0.31098 0.21265
 N22 N 0.77251 0.29508 0.19306
 C23 C 0.78827 0.27543 0.18909
 N24 N 0.80785 0.27177 0.20499
 C25 C 0.81158 0.71262 0.27562
 N26 N 0.79567 0.69302 0.27198
 C27 C 0.77600 0.68906 0.28771
 N28 N 0.77234 0.70500 0.30727
 C29 C 0.78806 0.72470 0.31120
 N30 N 0.80764 0.72837 0.29528
 C31 C 0.31121 0.21215 -0.22500
 N32 N 0.29525 0.19255 -0.22869
 C33 C 0.27550 0.18850 -0.21305
 N34 N 0.27184 0.20443 -0.19346
 C35 C 0.28755 0.22411 -0.18943
 N36 N 0.30716 0.22782 -0.20528
 C37 C 0.68888 0.28770 -0.22402
 N38 N 0.70475 0.30732 -0.22774
 C39 C 0.72453 0.31138 -0.21213
 N40 N 0.72825 0.29543 -0.19258
 C41 C 0.71258 0.27571 -0.18857
 N42 N 0.69294 0.27199 -0.20438
 C43 C 0.18929 0.78771 0.27516
 N44 N 0.19317 0.77206 0.29488
 C45 C 0.21269 0.77582 0.31084
 N46 N 0.22843 0.79550 0.30688
 C47 C 0.22488 0.81139 0.28724
 N48 N 0.20522 0.80729 0.27149
 C49 C 0.46216 0.43869 0.47470
 N50 N 0.47787 0.44264 0.45503
 C51 C 0.47420 0.46223 0.43915
 N52 N 0.45453 0.47797 0.44312
 C53 C 0.43862 0.47430 0.46270
 N54 N 0.44258 0.45461 0.47839
 C55 C -0.03738 -0.06089 0.97408
 N56 N -0.02167 -0.05688 0.95443
 C57 C -0.02537 -0.03726 0.93860
 N58 N -0.04506 -0.02156 0.94261
 C59 C -0.06101 -0.02524 0.96218
 N60 N -0.05697 -0.04499 0.97781
 C61 C 1.03724 0.56138 0.97449
 N62 N 1.02155 0.55734 0.95478
 C63 C 1.02522 0.53773 0.93890
 N64 N 1.04488 0.52199 0.94289
 C65 C 1.06078 0.52569 0.96246
 N66 N 1.05682 0.54540 0.97814
 C67 C 0.53790 0.06068 0.47476
 N68 N 0.55755 0.04485 0.47842
 C69 C 0.56166 0.02515 0.46271
 N70 N 0.54573 0.02146 0.44313
 C71 C 0.52598 0.03710 0.43918
 N72 N 0.52221 0.05666 0.45509
 C73 C -0.03799 0.06139 0.52557
 N74 N -0.02224 0.05739 0.54518
 C75 C -0.02591 0.03779 0.56105
 N76 N -0.04563 0.02209 0.55710
 C77 C -0.06163 0.02576 0.53757
 N78 N -0.05761 0.04550 0.52191
 C79 C 0.46242 0.56123 0.02574
 N80 N 0.44284 0.54531 0.02200
 C81 C 0.43886 0.52560 0.03765
 N82 N 0.45474 0.52190 0.05723
 C83 C 0.47442 0.53763 0.06126
 N84 N 0.47811 0.55725 0.04542
 C85 C 0.53774 -0.06151 0.02537
 N86 N 0.55737 -0.04559 0.02174
 C87 C 0.56144 -0.02594 0.03748
 N88 N 0.54560 -0.02226 0.05710
 C89 C 0.52588 -0.03794 0.06106
 N90 N 0.52210 -0.05749 0.04512
 C91 C 1.03705 0.43848 0.52519
 N92 N 1.02140 0.44243 0.54496
 C93 C 1.02511 0.46198 0.56090
 N94 N 1.04476 0.47774 0.55694
 C95 C 1.06061 0.47413 0.53731
 N96 N 1.05662 0.45448 0.52156
 C97 C 0.41363 0.01122 0.21646
 H98 H 0.41464 0.02823 0.22750
 C99 C 0.43002 0.00770 0.19633
 H100 H 0.44367 0.02207 0.19175
 C101 C 0.39488 -0.02851 0.20910
 H102 H 0.38146 -0.04275 0.21436
 C103 C 0.41093 -0.03278 0.18883
 H104 H 0.40964 -0.05018 0.17840
 N105 N 0.39632 -0.00665 0.22227
 C106 C 0.33685 0.03327 0.26197
 H107 H 0.33584 0.02225 0.27897
 C108 C 0.32048 0.05343 0.25844
 H109 H 0.30685 0.05805 0.27279
 C110 C 0.35559 0.04054 0.22229
 H111 H 0.36900 0.03523 0.20807
 C112 C 0.33956 0.06084 0.21801
 H113 H 0.34086 0.07125 0.20062
 Zn114 Zn 0.37521 -0.00058 0.25018
 N115 N 0.35415 0.02740 0.24413
 C116 C 0.39489 0.02736 0.29126
 N117 N 0.39629 0.00547 0.27813
 C118 C 0.41356 -0.01241 0.28397
 C119 C 0.42995 -0.00889 0.30411
 C120 C 0.41094 0.03163 0.31153
 C121 C 0.33680 -0.03436 0.23833
 C122 C 0.32038 -0.05450 0.24182
 C123 C 0.33939 -0.06196 0.28227
 C124 C 0.35547 -0.04168 0.27803
 N125 N 0.35409 -0.02853 0.25620
 H126 H 0.38150 0.04161 0.28597
 H127 H 0.41454 -0.02944 0.27296
 H128 H 0.44356 -0.02327 0.30871
 H129 H 0.40968 0.04905 0.32194
 H130 H 0.33583 -0.02332 0.22134
 H131 H 0.30676 -0.05909 0.22746
 H132 H 0.34064 -0.07239 0.29966
 H133 H 0.36888 -0.03641 0.29227
 C134 C 0.32191 0.06736 0.23628
 C135 C 0.42860 -0.01448 0.18237
 C136 C 0.32175 -0.06845 0.26397
 C137 C 0.42857 0.01331 0.31803
 C138 C 0.08692 -0.01153 0.71590
 H139 H 0.08595 -0.02854 0.72693
 C140 C 0.07049 -0.00804 0.69581
 H141 H 0.05685 -0.02241 0.69125
 C142 C 0.10563 0.02820 0.70856
 H143 H 0.11905 0.04246 0.71381
 C144 C 0.08954 0.03245 0.68832
 H145 H 0.09079 0.04986 0.67790
 N146 N 0.10423 0.00635 0.72170
 C147 C 0.16375 -0.03346 0.76138
 H148 H 0.16477 -0.02239 0.77836
 C149 C 0.18012 -0.05362 0.75787
 H150 H 0.19376 -0.05821 0.77221
 C151 C 0.14498 -0.04083 0.72172
 H152 H 0.13156 -0.03557 0.70750
 C153 C 0.16101 -0.06114 0.71746
 H154 H 0.15971 -0.07160 0.70008
 Zn155 Zn 0.12536 0.00033 0.74960
 N156 N 0.14643 -0.02764 0.74354
 C157 C 0.10572 -0.02757 0.79069
 N158 N 0.10430 -0.00571 0.77756
 C159 C 0.08701 0.01216 0.78341
 C160 C 0.07064 0.00865 0.80355
 C161 C 0.08969 -0.03184 0.81096
 C162 C 0.16373 0.03413 0.73775
 C163 C 0.18014 0.05429 0.74125
 C164 C 0.16114 0.06176 0.78171
 C165 C 0.14507 0.04147 0.77746
 N166 N 0.14646 0.02830 0.75562
 H167 H 0.11912 -0.04182 0.78539
 H168 H 0.08601 0.02918 0.77239
 H169 H 0.05701 0.02302 0.80816
 H170 H 0.09097 -0.04925 0.82137
 H171 H 0.16470 0.02309 0.72075
 H172 H 0.19376 0.05888 0.72688
 H173 H 0.15989 0.07220 0.79910
 H174 H 0.13168 0.03619 0.79171
 C175 C 0.17868 -0.06762 0.73573
 C176 C 0.07187 0.01414 0.68187
 C177 C 0.17877 0.06825 0.76341
 C178 C 0.07204 -0.01353 0.81748
 C179 C 0.58670 0.48813 0.21644
 H180 H 0.58569 0.47108 0.22742
 C181 C 0.57033 0.49168 0.19630
 H182 H 0.55671 0.47731 0.19165
 C183 C 0.60541 0.52789 0.20927
 H184 H 0.61881 0.54214 0.21460
 C185 C 0.58939 0.53219 0.18899
 H186 H 0.59067 0.54963 0.17862
 N187 N 0.60398 0.50600 0.22234
 C188 C 0.66344 0.46610 0.26201
 H189 H 0.66442 0.47712 0.27903
 C190 C 0.67984 0.44597 0.25847
 H191 H 0.69347 0.44136 0.27282
 C192 C 0.64475 0.45882 0.22230
 H193 H 0.63135 0.46412 0.20808
 C194 C 0.66081 0.43855 0.21800
 H195 H 0.65955 0.42814 0.20059
 Zn196 Zn 0.62505 0.49990 0.25027
 N197 N 0.64615 0.47195 0.24417
 C198 C 0.60537 0.47188 0.29125
 N199 N 0.60396 0.49378 0.27818
 C200 C 0.58667 0.51164 0.28407
 C201 C 0.57029 0.50808 0.30419
 C202 C 0.58932 0.46757 0.31151
 C203 C 0.66345 0.53371 0.23855
 C204 C 0.67984 0.55386 0.24209
 C205 C 0.66078 0.56129 0.28254
 C206 C 0.64473 0.54099 0.27824
 N207 N 0.64615 0.52785 0.25638
 H208 H 0.61877 0.45765 0.28592
 H209 H 0.58568 0.52869 0.27310
 H210 H 0.55667 0.52244 0.30884
 H211 H 0.59059 0.45013 0.32187
 H212 H 0.66444 0.52268 0.22153
 H213 H 0.69348 0.55847 0.22775
 H214 H 0.65951 0.57171 0.29994
 H215 H 0.63131 0.53570 0.29246
 C216 C 0.67846 0.43204 0.23628
 C217 C 0.57175 0.51389 0.18243
 C218 C 0.67844 0.56780 0.26426
 C219 C 0.57168 0.48586 0.31806
 C220 C 0.91286 0.51123 0.71620
 H221 H 0.91386 0.52830 0.72716
 C222 C 0.92924 0.50764 0.69607
 H223 H 0.94286 0.52200 0.69141
 C224 C 0.89415 0.47145 0.70905
 H225 H 0.88075 0.45722 0.71438
 C226 C 0.91019 0.46710 0.68878
 H227 H 0.90890 0.44965 0.67842
 N228 N 0.89557 0.49337 0.72210
 C229 C 0.83609 0.53345 0.76162
 H230 H 0.83508 0.52250 0.77867
 C231 C 0.81973 0.55361 0.75802
 H232 H 0.80611 0.55830 0.77235
 C233 C 0.85482 0.54054 0.72190
 H234 H 0.86823 0.53517 0.70770
 C235 C 0.83881 0.56083 0.71755
 H236 H 0.84011 0.57118 0.70012
 Zn237 Zn 0.87447 0.49957 0.75000
 N238 N 0.85339 0.52750 0.74380
 C239 C 0.89412 0.52773 0.79094
 N240 N 0.89554 0.50579 0.77791
 C241 C 0.91282 0.48795 0.78385
 C242 C 0.92919 0.49158 0.80398
 C243 C 0.91015 0.53212 0.81120
 C244 C 0.83609 0.46568 0.73833
 C245 C 0.81971 0.44553 0.74192
 C246 C 0.83873 0.43831 0.78240
 C247 C 0.85477 0.45859 0.77806
 N248 N 0.85337 0.47163 0.75616
 H249 H 0.88072 0.54195 0.78557
 H250 H 0.91382 0.47087 0.77291
 H251 H 0.94281 0.47723 0.80866
 H252 H 0.90887 0.54959 0.82153
 H253 H 0.83511 0.47663 0.72128
 H254 H 0.80609 0.44085 0.72757
 H255 H 0.83999 0.42797 0.79984
 H256 H 0.86817 0.46396 0.79228
 C257 C 0.82116 0.56745 0.73580
 C258 C 0.92783 0.48540 0.68221
 C259 C 0.82110 0.43170 0.76414
 C260 C 0.92779 0.51385 0.81780
 C261 C 0.21597 0.41301 0.01165
 H262 H 0.22700 0.41398 0.02866
 C263 C 0.19582 0.42942 0.00817
 H264 H 0.19122 0.44302 0.02255
 C265 C 0.20866 0.39437 -0.02808
 H266 H 0.21395 0.38099 -0.04234
 C267 C 0.18838 0.41044 -0.03232
 H268 H 0.17796 0.40919 -0.04972
 N269 N 0.22181 0.39575 -0.00624
 C270 C 0.26158 0.33623 0.03346
 H271 H 0.27861 0.33526 0.02244
 C272 C 0.25807 0.31983 0.05358
 H273 H 0.27245 0.30622 0.05816
 C274 C 0.22184 0.35491 0.04079
 H275 H 0.20759 0.36832 0.03552
 C276 C 0.21757 0.33885 0.06104
 H277 H 0.20016 0.34012 0.07146
 Zn278 Zn 0.24977 0.37466 -0.00023
 N279 N 0.24371 0.35352 0.02765
 C280 C 0.29087 0.39431 0.02773
 N281 N 0.27773 0.39575 0.00589
 C282 C 0.28357 0.41308 -0.01192
 C283 C 0.30372 0.42948 -0.00836
 C284 C 0.31116 0.41036 0.03204
 C285 C 0.23800 0.33634 -0.03411
 C286 C 0.24155 0.31999 -0.05428
 C287 C 0.28205 0.33907 -0.06161
 C288 C 0.27775 0.35508 -0.04130
 N289 N 0.25586 0.35363 -0.02820
 H290 H 0.28559 0.38087 0.04193
 H291 H 0.27254 0.41410 -0.02891
 H292 H 0.30833 0.44313 -0.02268
 H293 H 0.32159 0.40906 0.04943
 H294 H 0.22096 0.33531 -0.02312
 H295 H 0.22718 0.30636 -0.05893
 H296 H 0.29948 0.34037 -0.07199
 H297 H 0.29199 0.36847 -0.03597
 C298 C 0.23589 0.32122 0.06751
 C299 C 0.18188 0.42806 -0.01400
 C300 C 0.26375 0.32142 -0.06817
 C301 C 0.31767 0.42805 0.01380
 C302 C 0.71698 0.08630 -0.01182
 H303 H 0.72798 0.08532 -0.02884
 C304 C 0.69681 0.06993 -0.00830
 H305 H 0.69216 0.05632 -0.02267
 C306 C 0.70976 0.10498 0.02791
 H307 H 0.71508 0.11837 0.04215
 C308 C 0.68945 0.08895 0.03219
 H309 H 0.67905 0.09021 0.04960
 N310 N 0.72287 0.10358 0.00605
 C311 C 0.76254 0.16311 -0.03377
 H312 H 0.77960 0.16410 -0.02281
 C313 C 0.75895 0.17953 -0.05386
 H314 H 0.77331 0.19317 -0.05847
 C315 C 0.72277 0.14440 -0.04098
 H316 H 0.70854 0.13098 -0.03568
 C317 C 0.71844 0.16047 -0.06120
 H318 H 0.70099 0.15921 -0.07156
 Zn319 Zn 0.75082 0.12468 -0.00004
 N320 N 0.74469 0.14580 -0.02791
 C321 C 0.79187 0.10506 -0.02806
 N322 N 0.77878 0.10361 -0.00619
 C323 C 0.78467 0.08631 0.01161
 C324 C 0.80482 0.06993 0.00802
 C325 C 0.81216 0.08903 -0.03241
 C326 C 0.73908 0.16303 0.03381
 C327 C 0.74263 0.17940 0.05396
 C328 C 0.78314 0.16036 0.06129
 C329 C 0.77884 0.14433 0.04100
 N330 N 0.75694 0.14575 0.02791
 H331 H 0.78655 0.11848 -0.04226
 H332 H 0.77368 0.08529 0.02864
 H333 H 0.80947 0.05629 0.02234
 H334 H 0.82255 0.09033 -0.04982
 H335 H 0.72204 0.16403 0.02282
 H336 H 0.72826 0.19301 0.05861
 H337 H 0.80057 0.15908 0.07168
 H338 H 0.79307 0.13093 0.03568
 C339 C 0.73672 0.17814 -0.06772
 C340 C 0.68290 0.07132 0.01389
 C341 C 0.76484 0.17799 0.06785
 C342 C 0.81872 0.07137 -0.01417
 C343 C 0.21580 0.58692 0.48818
 H344 H 0.22685 0.58594 0.47120
 C345 C 0.19565 0.57051 0.49167
 H346 H 0.19108 0.55687 0.47730
 C347 C 0.20843 0.60563 0.52788
 H348 H 0.21370 0.61904 0.54212
 C349 C 0.18815 0.58956 0.53211
 H350 H 0.17770 0.59082 0.54950
 N351 N 0.22161 0.60422 0.50605
 C352 C 0.26146 0.66369 0.46632
 H353 H 0.27847 0.66469 0.47737
 C354 C 0.25798 0.68007 0.44619
 H355 H 0.27237 0.69369 0.44161
 C356 C 0.22172 0.64498 0.45896
 H357 H 0.20746 0.63158 0.46422
 C358 C 0.21749 0.66102 0.43869
 H359 H 0.20010 0.65974 0.42824
 Zn360 Zn 0.24959 0.62531 0.50005
 N361 N 0.24357 0.64640 0.47213
 C362 C 0.29072 0.60563 0.47219
 N363 N 0.27755 0.60422 0.49401
 C364 C 0.28336 0.58692 0.51186
 C365 C 0.30350 0.57052 0.50835
 C366 C 0.31101 0.58957 0.46793
 C367 C 0.23776 0.66369 0.53384
 C368 C 0.24128 0.68008 0.55398
 C369 C 0.28177 0.66103 0.56142
 C370 C 0.27750 0.64498 0.54114
 N371 N 0.25563 0.64640 0.52800
 H372 H 0.28546 0.61904 0.45796
 H373 H 0.27231 0.58593 0.52884
 H374 H 0.30808 0.55689 0.52270
 H375 H 0.32145 0.59084 0.45055
 H376 H 0.22075 0.66469 0.52282
 H377 H 0.22691 0.69371 0.55859
 H378 H 0.29918 0.65976 0.57184
 H379 H 0.29174 0.63158 0.53585
 C380 C 0.23582 0.67866 0.43222
 C381 C 0.18168 0.57189 0.51381
 C382 C 0.26346 0.67868 0.56792
 C383 C 0.31748 0.57191 0.48621
 C384 C 0.71631 0.91397 0.51181
 H385 H 0.72729 0.91498 0.52884
 C386 C 0.69612 0.93031 0.50826
 H387 H 0.69145 0.94392 0.52261
 C388 C 0.70914 0.89524 0.47208
 H389 H 0.71449 0.88185 0.45786
 C390 C 0.68882 0.91124 0.46778
 H391 H 0.67844 0.90994 0.45036
 N392 N 0.72223 0.89669 0.49396
 C393 C 0.76196 0.83727 0.53386
 H394 H 0.77902 0.83630 0.52290
 C395 C 0.75838 0.82086 0.55395
 H396 H 0.77275 0.80725 0.55859
 C397 C 0.72216 0.85591 0.54102
 H398 H 0.70792 0.86929 0.53570
 C399 C 0.71783 0.83984 0.56125
 H400 H 0.70038 0.84108 0.57160
 Zn401 Zn 0.75021 0.87564 0.50008
 N402 N 0.74408 0.85453 0.52797
 C403 C 0.79123 0.89536 0.52810
 N404 N 0.77813 0.89677 0.50623
 C405 C 0.78401 0.91408 0.48841
 C406 C 0.80414 0.93048 0.49199
 C407 C 0.81151 0.91143 0.53243
 C408 C 0.73855 0.83724 0.46625
 C409 C 0.74215 0.82086 0.44612
 C410 C 0.78264 0.83998 0.43881
 C411 C 0.77829 0.85602 0.45908
 N412 N 0.75638 0.85457 0.47215
 H413 H 0.78592 0.88194 0.54230
 H414 H 0.77301 0.91506 0.47139
 H415 H 0.80878 0.94412 0.47765
 H416 H 0.82191 0.91015 0.54984
 H417 H 0.72150 0.83622 0.47722
 H418 H 0.72781 0.80721 0.44147
 H419 H 0.80008 0.84129 0.42845
 H420 H 0.79250 0.86945 0.46441
 C421 C 0.73614 0.82221 0.56780
 C422 C 0.68223 0.92887 0.48606
 C423 C 0.76438 0.82230 0.43225
 C424 C 0.81805 0.92908 0.51417
 C425 C 0.01140 0.21672 0.41337
 H426 H 0.02843 0.22775 0.41440
 C427 C 0.00783 0.19659 0.42974
 H428 H 0.02216 0.19199 0.44339
 C429 C -0.02830 0.20940 0.39458
 H430 H -0.04250 0.21468 0.38115
 C431 C -0.03262 0.18913 0.41060
 H432 H -0.05003 0.17870 0.40929
 N433 N -0.00642 0.22255 0.39604
 C434 C 0.03368 0.26217 0.33672
 H435 H 0.02269 0.27921 0.33568
 C436 C 0.05386 0.25857 0.32040
 H437 H 0.05853 0.27291 0.30678
 C438 C 0.04084 0.22244 0.35546
 H439 H 0.03548 0.20822 0.36885
 C440 C 0.06115 0.21809 0.33948
 H441 H 0.07152 0.20065 0.34079
 Zn442 Zn -0.00027 0.25047 0.37497
 N443 N 0.02774 0.24433 0.35399
 C444 C 0.02766 0.29159 0.39466
 N445 N 0.00577 0.27847 0.39602
 C446 C -0.01215 0.28435 0.41324
 C447 C -0.00863 0.30451 0.42962
 C448 C 0.03193 0.31188 0.41071
 C449 C -0.03397 0.23860 0.33656
 C450 C -0.05409 0.24209 0.32014
 C451 C -0.06158 0.28261 0.33910
 C452 C -0.04132 0.27838 0.35518
 N453 N -0.02817 0.25651 0.35382
 H454 H 0.04194 0.28627 0.38132
 H455 H -0.02919 0.27334 0.41419
 H456 H -0.02303 0.30914 0.44320
 H457 H 0.04937 0.32228 0.40949
 H458 H -0.02294 0.22158 0.33561
 H459 H -0.05866 0.22768 0.30654
 H460 H -0.07202 0.30002 0.34033
 H461 H -0.03607 0.29265 0.36857
 C462 C 0.06774 0.23635 0.32184
 C463 C -0.01436 0.18264 0.42828
 C464 C -0.06804 0.26427 0.32148
 C465 C 0.01359 0.31842 0.42829
 C466 C -0.01163 0.71589 0.08606
 H467 H -0.02866 0.72692 0.08512
 C468 C -0.00817 0.69571 0.06970
 H469 H -0.02258 0.69108 0.05614
 C470 C 0.02817 0.70862 0.10462
 H471 H 0.04246 0.71393 0.11796
 C472 C 0.03239 0.68830 0.08859
 H473 H 0.04981 0.67788 0.08982
 N474 N 0.00630 0.72177 0.10327
 C475 C -0.03332 0.76164 0.16279
 H476 H -0.02226 0.77865 0.16374
 C477 C -0.05342 0.75816 0.17924
 H478 H -0.05794 0.77255 0.19287
 C479 C -0.04077 0.72189 0.14414
 H480 H -0.03556 0.70762 0.13073
 C481 C -0.06100 0.71766 0.16025
 H482 H -0.07147 0.70026 0.15903
 Zn483 Zn 0.00032 0.74976 0.12433
 N484 N -0.02758 0.74374 0.14550
 C485 C -0.02767 0.79086 0.10478
 N486 N -0.00581 0.77771 0.10328
 C487 C 0.01201 0.78356 0.08596
 C488 C 0.00844 0.80372 0.06962
 C489 C -0.03199 0.81116 0.08879
 C490 C 0.03423 0.73801 0.16258
 C491 C 0.05441 0.74157 0.17892
 C492 C 0.06180 0.78205 0.15985
 C493 C 0.04149 0.77773 0.14385
 N494 N 0.02835 0.75585 0.14530
 H495 H -0.04187 0.78557 0.11821
 H496 H 0.02903 0.77252 0.08490
 H497 H 0.02278 0.80833 0.05597
 H498 H -0.04939 0.82159 0.09013
 H499 H 0.02321 0.72098 0.16360
 H500 H 0.05903 0.72723 0.19254
 H501 H 0.07221 0.79947 0.15856
 H502 H 0.03617 0.79196 0.13046
 C503 C -0.06741 0.73599 0.17790
 C504 C 0.01402 0.68177 0.07103
 C505 C 0.06833 0.76377 0.17749
 C506 C -0.01373 0.81767 0.07111
 C507 C 0.48799 0.21584 0.58715
 H508 H 0.47094 0.22682 0.58612
 C509 C 0.49160 0.19569 0.57079
 H510 H 0.47726 0.19103 0.55715
 C511 C 0.52771 0.20867 0.60591
 H512 H 0.54192 0.21402 0.61933
 C513 C 0.53207 0.18838 0.58990
 H514 H 0.54951 0.17801 0.59120
 N515 N 0.50581 0.22176 0.60446
 C516 C 0.46570 0.26148 0.66375
 H517 H 0.47668 0.27853 0.66477
 C518 C 0.44552 0.25791 0.68008
 H519 H 0.44084 0.27228 0.69367
 C520 C 0.45855 0.22169 0.64507
 H521 H 0.46391 0.20745 0.63170
 C522 C 0.43823 0.21737 0.66105
 H523 H 0.42786 0.19992 0.65976
 Zn524 Zn 0.49963 0.24973 0.62549
 N525 N 0.47164 0.24360 0.64650
 C526 C 0.47164 0.29075 0.60578
 N527 N 0.49354 0.27765 0.60441
 C528 C 0.51143 0.28352 0.58716
 C529 C 0.50789 0.30364 0.57077
 C530 C 0.46735 0.31101 0.58973
 C531 C 0.53341 0.23805 0.66389
 C532 C 0.55355 0.24164 0.68027
 C533 C 0.56093 0.28212 0.66122
 C534 C 0.54066 0.27779 0.64519
 N535 N 0.52754 0.25589 0.64660
 H536 H 0.45739 0.28545 0.61915
 H537 H 0.52848 0.27252 0.58620
 H538 H 0.52228 0.30826 0.55718
 H539 H 0.44992 0.32140 0.59097
 H540 H 0.52241 0.22101 0.66488
 H541 H 0.55817 0.22729 0.69389
 H542 H 0.57134 0.29955 0.65994
 H543 H 0.53535 0.29200 0.63178
 C544 C 0.43163 0.23568 0.67865
 C545 C 0.51382 0.18181 0.57223
 C546 C 0.56746 0.26385 0.67886
 C547 C 0.48568 0.31754 0.57212
 C548 C 0.51164 0.71670 0.91358
 H549 H 0.52867 0.72773 0.91454
 C550 C 0.50814 0.69655 0.92994
 H551 H 0.52254 0.69194 0.94351
 C552 C 0.47186 0.70941 0.89497
 H553 H 0.45759 0.71470 0.88161
 C554 C 0.46761 0.68912 0.91099
 H555 H 0.45018 0.67869 0.90974
 N556 N 0.49374 0.72255 0.89634
 C557 C 0.53351 0.76229 0.83688
 H558 H 0.52250 0.77932 0.83592
 C559 C 0.55362 0.75875 0.82046
 H560 H 0.55821 0.77311 0.80684
 C561 C 0.54081 0.72254 0.85553
 H562 H 0.53554 0.70831 0.86893
 C563 C 0.56106 0.71825 0.83945
 H564 H 0.57147 0.70083 0.84069
 Zn565 Zn 0.49978 0.75051 0.87528
 N566 N 0.52769 0.74443 0.85416
 C567 C 0.52780 0.79161 0.89489
 N568 N 0.50592 0.77848 0.89634
 C569 C 0.48809 0.78434 0.91366
 C570 C 0.49167 0.80449 0.93003
 C571 C 0.53214 0.81189 0.91092
 C572 C 0.46588 0.73872 0.83701
 C573 C 0.44571 0.74226 0.82067
 C574 C 0.43834 0.78276 0.83973
 C575 C 0.45865 0.77847 0.85573
 N576 N 0.47177 0.75659 0.85428
 H577 H 0.54201 0.78630 0.88146
 H578 H 0.47105 0.77332 0.91468
 H579 H 0.47734 0.80911 0.94368
 H580 H 0.54956 0.82230 0.90962
 H581 H 0.47690 0.72169 0.83599
 H582 H 0.44108 0.72789 0.80705
 H583 H 0.42794 0.80019 0.84102
 H584 H 0.46398 0.79271 0.86912
 C585 C 0.56755 0.73654 0.82181
 C586 C 0.48595 0.68260 0.92857
 C587 C 0.43180 0.76446 0.82210
 C588 C 0.51388 0.81841 0.92859
 C589 C 0.12680 0.22461 0.27448
 C590 C 0.14310 0.20441 0.27846
 C591 C 0.16330 0.20036 0.26222
 C592 C 0.16749 0.21650 0.24175
 C593 C 0.15096 0.23677 0.23794
 C594 C 0.13078 0.24077 0.25420
 C595 C 0.10600 0.22875 0.29118
 C596 C 0.08856 0.23221 0.30517
 H597 H 0.14018 0.19178 0.29410
 H598 H 0.17561 0.18458 0.26574
 H599 H 0.15359 0.24957 0.22239
 H600 H 0.11827 0.25647 0.25095
 C601 C 0.62649 0.72495 0.77427
 C602 C 0.63055 0.74125 0.75412
 C603 C 0.65073 0.73728 0.73783
 C604 C 0.66716 0.71690 0.74150
 C605 C 0.66289 0.70063 0.76185
 C606 C 0.64269 0.70465 0.77810
 C607 C 0.60572 0.72906 0.79102
 C608 C 0.58831 0.73248 0.80506
 H609 H 0.61812 0.75703 0.75099
 H610 H 0.65343 0.75018 0.72239
 H611 H 0.67512 0.68477 0.76525
 H612 H 0.63972 0.69191 0.79365
 C613 C 0.37276 0.77600 0.77467
 C614 C 0.36875 0.75971 0.75448
 C615 C 0.34857 0.76365 0.73819
 C616 C 0.33209 0.78398 0.74190
 C617 C 0.33631 0.80024 0.76229
 C618 C 0.35651 0.79626 0.77854
 C619 C 0.39355 0.77193 0.79140
 C620 C 0.41098 0.76853 0.80540
 H621 H 0.38123 0.74397 0.75131
 H622 H 0.34592 0.75076 0.72272
 H623 H 0.32403 0.81607 0.76573
 H624 H 0.35944 0.80898 0.79412
 C625 C -0.12704 0.27564 0.27396
 C626 C -0.13096 0.25939 0.25374
 C627 C -0.15115 0.26325 0.23745
 C628 C -0.16782 0.28352 0.24112
 C629 C -0.16359 0.29975 0.26163
 C630 C -0.14337 0.29580 0.27787
 C631 C -0.10625 0.27162 0.29071
 C632 C -0.08883 0.26826 0.30474
 H633 H -0.11841 0.24371 0.25056
 H634 H -0.15359 0.25029 0.22199
 H635 H -0.17584 0.31556 0.26525
 H636 H -0.14049 0.30850 0.29348
 C637 C -0.12634 0.72464 0.22552
 C638 C -0.13029 0.74096 0.24570
 C639 C -0.15047 0.73708 0.26201
 C640 C -0.16700 0.71678 0.25834
 C641 C -0.16284 0.70048 0.23797
 C642 C -0.14264 0.70441 0.22169
 C643 C -0.10556 0.72865 0.20875
 C644 C -0.08816 0.73199 0.19469
 H645 H -0.11777 0.75669 0.24883
 H646 H -0.15308 0.75000 0.27747
 H647 H -0.17515 0.68467 0.23456
 H648 H -0.13975 0.69166 0.20612
 C649 C 0.37248 0.22411 0.72594
 C650 C 0.36847 0.24034 0.74616
 C651 C 0.34825 0.23643 0.76239
 C652 C 0.33161 0.21613 0.75866
 C653 C 0.33592 0.19993 0.73815
 C654 C 0.35618 0.20392 0.72198
 C655 C 0.39332 0.22818 0.70927
 C656 C 0.41079 0.23159 0.69531
 H657 H 0.38100 0.25604 0.74939
 H658 H 0.34574 0.24939 0.77785
 H659 H 0.32369 0.18410 0.73449
 H660 H 0.35912 0.19124 0.70637
 C661 C 0.62658 0.27547 0.72619
 C662 C 0.63065 0.25921 0.74637
 C663 C 0.65090 0.26316 0.76258
 C664 C 0.66738 0.28348 0.75881
 C665 C 0.66309 0.29973 0.73844
 C666 C 0.64283 0.29572 0.72227
 C667 C 0.60574 0.27137 0.70952
 C668 C 0.58828 0.26794 0.69555
 H669 H 0.61818 0.24347 0.74958
 H670 H 0.65361 0.25028 0.77804
 H671 H 0.67537 0.31555 0.73495
 H672 H 0.63984 0.30843 0.70670
 C673 C 0.12732 0.77541 0.22498
 C674 C 0.13124 0.75920 0.24523
 C675 C 0.15139 0.76317 0.26155
 C676 C 0.16792 0.78346 0.25784
 C677 C 0.16379 0.79965 0.23739
 C678 C 0.14362 0.79563 0.22110
 C679 C 0.10655 0.77132 0.20822
 C680 C 0.08913 0.76788 0.19420
 H681 H 0.11872 0.74349 0.24841
 H682 H 0.15397 0.75033 0.27707
 H683 H 0.17611 0.81544 0.23394
 H684 H 0.14075 0.80830 0.20548
 C685 C 0.27446 0.12642 0.22474
 C686 C 0.25428 0.13051 0.24102
 C687 C 0.23801 0.15071 0.23707
 C688 C 0.24172 0.16714 0.21673
 C689 C 0.26210 0.16284 0.20048
 C690 C 0.27833 0.14262 0.20448
 C691 C 0.29119 0.10562 0.22882
 C692 C 0.30519 0.08818 0.23223
 H693 H 0.25112 0.11807 0.25678
 H694 H 0.22254 0.15342 0.24996
 H695 H 0.26554 0.17508 0.18464
 H696 H 0.29391 0.13963 0.19176
 C697 C 0.77385 0.62660 0.72421
 C698 C 0.75364 0.63066 0.74046
 C699 C 0.73743 0.65092 0.73656
 C700 C 0.74123 0.66744 0.71631
 C701 C 0.76164 0.66316 0.70007
 C702 C 0.77781 0.64288 0.70402
 C703 C 0.79053 0.60575 0.72827
 C704 C 0.80449 0.58829 0.73170
 H705 H 0.75040 0.61817 0.75615
 H706 H 0.72194 0.65362 0.74943
 H707 H 0.76515 0.67546 0.68431
 H708 H 0.79341 0.63990 0.69133
 C709 C 0.77366 0.37262 0.77581
 C710 C 0.77765 0.35635 0.79597
 C711 C 0.76145 0.33610 0.80000
 C712 C 0.74088 0.33178 0.78386
 C713 C 0.73712 0.34840 0.76360
 C714 C 0.75339 0.36861 0.75965
 C715 C 0.79038 0.39344 0.77169
 C716 C 0.80438 0.41088 0.76824
 H717 H 0.79331 0.35930 0.80859
 H718 H 0.76513 0.32389 0.81580
 H719 H 0.72162 0.34588 0.75070
 H720 H 0.75014 0.38112 0.74398
 C721 C 0.27418 -0.12747 0.27538
 C722 C 0.25403 -0.13151 0.25907
 C723 C 0.23771 -0.15169 0.26295
 C724 C 0.24129 -0.16825 0.28329
 C725 C 0.26173 -0.16390 0.29958
 C726 C 0.27799 -0.14369 0.29561
 C727 C 0.29095 -0.10667 0.27134
 C728 C 0.30499 -0.08925 0.26798
 H729 H 0.25092 -0.11904 0.24334
 H730 H 0.22232 -0.15423 0.24993
 H731 H 0.26528 -0.17607 0.31545
 H732 H 0.29355 -0.14072 0.30836
 C733 C 0.22606 -0.12678 0.72435
 C734 C 0.24623 -0.13080 0.74062
 C735 C 0.26247 -0.15104 0.73677
 C736 C 0.25879 -0.16769 0.71649
 C737 C 0.23832 -0.16336 0.70024
 C738 C 0.22214 -0.14309 0.70418
 C739 C 0.20937 -0.10592 0.72835
 C740 C 0.19538 -0.08846 0.73171
 H741 H 0.24942 -0.11826 0.75630
 H742 H 0.27789 -0.15356 0.74976
 H743 H 0.23470 -0.17559 0.68442
 H744 H 0.20656 -0.14013 0.69146
 C745 C 0.72602 0.37306 0.22477
 C746 C 0.72217 0.35677 0.20455
 C747 C 0.73845 0.33657 0.20058
 C748 C 0.75885 0.33239 0.21684
 C749 C 0.76254 0.34891 0.23713
 C750 C 0.74622 0.36908 0.24104
 C751 C 0.70925 0.39384 0.22881
 C752 C 0.69521 0.41125 0.23221
 H753 H 0.70658 0.35968 0.19183
 H754 H 0.73503 0.32427 0.18478
 H755 H 0.77802 0.34628 0.25001
 H756 H 0.74937 0.38159 0.25676
 C757 C 0.72595 0.62686 0.27572
 C758 C 0.74615 0.63084 0.25945
 C759 C 0.76245 0.65105 0.26332
 C760 C 0.75873 0.66760 0.28358
 C761 C 0.73833 0.66342 0.29984
 C762 C 0.72208 0.64318 0.29591
 C763 C 0.70920 0.60605 0.27170
 C764 C 0.69517 0.58861 0.26832
 H765 H 0.74932 0.61831 0.24375
 H766 H 0.77793 0.65368 0.25043
 H767 H 0.73489 0.67575 0.31561
 H768 H 0.70649 0.64027 0.30863
 C769 C 0.22628 0.12731 0.77490
 C770 C 0.24651 0.13132 0.75869
 C771 C 0.26280 0.15152 0.76263
 C772 C 0.25911 0.16813 0.78293
 C773 C 0.23859 0.16382 0.79912
 C774 C 0.22236 0.14358 0.79510
 C775 C 0.20955 0.10649 0.77083
 C776 C 0.19552 0.08906 0.76744
 H777 H 0.24971 0.11881 0.74299
 H778 H 0.27826 0.15403 0.74969
 H779 H 0.23496 0.17602 0.81496
 H780 H 0.20674 0.14064 0.80777
 C781 C 0.22446 0.27385 0.12657
 C782 C 0.24074 0.25364 0.13061
 C783 C 0.23685 0.23744 0.15085
 C784 C 0.21658 0.24124 0.16736
 C785 C 0.20032 0.26163 0.16311
 C786 C 0.20426 0.27780 0.14285
 C787 C 0.22850 0.29052 0.10575
 C788 C 0.23187 0.30451 0.08831
 H789 H 0.25645 0.25042 0.11811
 H790 H 0.24973 0.22196 0.15353
 H791 H 0.18453 0.26514 0.17541
 H792 H 0.19154 0.29340 0.13990
 C793 C 0.72448 0.77469 0.62669
 C794 C 0.70429 0.77866 0.64299
 C795 C 0.70027 0.76240 0.66316
 C796 C 0.71643 0.74190 0.66730
 C797 C 0.73668 0.73809 0.65077
 C798 C 0.74065 0.75438 0.63062
 C799 C 0.72858 0.79143 0.60593
 C800 C 0.73203 0.80547 0.58855
 H801 H 0.69166 0.79433 0.64011
 H802 H 0.68451 0.76592 0.67548
 H803 H 0.74949 0.72253 0.65336
 H804 H 0.75634 0.75114 0.61810
 C805 C 0.77598 0.77480 0.37327
 C806 C 0.79619 0.77870 0.35698
 C807 C 0.80015 0.76243 0.33679
 C808 C 0.78390 0.74199 0.33261
 C809 C 0.76363 0.73826 0.34913
 C810 C 0.75972 0.75456 0.36931
 C811 C 0.77192 0.79156 0.39405
 C812 C 0.76849 0.80558 0.41146
 H813 H 0.80889 0.79432 0.35988
 H814 H 0.81593 0.76589 0.32448
 H815 H 0.75075 0.72275 0.34652
 H816 H 0.74401 0.75137 0.38181
 C817 C 0.27534 0.27405 -0.12726
 C818 C 0.29559 0.27798 -0.14349
 C819 C 0.29958 0.26176 -0.16372
 C820 C 0.28334 0.24134 -0.16798
 C821 C 0.26302 0.23758 -0.15152
 C822 C 0.25907 0.25383 -0.13131
 C823 C 0.27125 0.29076 -0.10644
 C824 C 0.26783 0.30474 -0.08900
 H825 H 0.30829 0.29359 -0.14051
 H826 H 0.31540 0.26525 -0.17598
 H827 H 0.25014 0.22208 -0.15421
 H828 H 0.24333 0.25062 -0.11885
 C829 C 0.72500 0.22567 -0.12658
 C830 C 0.74122 0.24593 -0.13060
 C831 C 0.73721 0.26222 -0.15075
 C832 C 0.71686 0.25845 -0.16718
 C833 C 0.70066 0.23799 -0.16295
 C834 C 0.70472 0.22174 -0.14278
 C835 C 0.72915 0.20893 -0.10583
 C836 C 0.73261 0.19490 -0.08846
 H837 H 0.75698 0.24914 -0.11816
 H838 H 0.75006 0.27774 -0.15342
 H839 H 0.68483 0.23451 -0.17519
 H840 H 0.69205 0.20611 -0.13984
 C841 C 0.22454 0.72601 0.37312
 C842 C 0.24081 0.74624 0.36916
 C843 C 0.23699 0.76245 0.34892
 C844 C 0.21678 0.75864 0.33233
 C845 C 0.20052 0.73822 0.33651
 C846 C 0.20439 0.72204 0.35677
 C847 C 0.22850 0.70933 0.39396
 C848 C 0.23183 0.69535 0.41140
 H849 H 0.25647 0.74948 0.38171
 H850 H 0.24988 0.77795 0.34629
 H851 H 0.18478 0.73470 0.32415
 H852 H 0.19168 0.70643 0.35967
 C853 C 0.27497 0.72616 0.62694
 C854 C 0.25875 0.74642 0.63091
 C855 C 0.26268 0.76270 0.65110
 C856 C 0.28294 0.75893 0.66762
 C857 C 0.29915 0.73847 0.66344
 C858 C 0.29516 0.72222 0.64323
 C859 C 0.27090 0.70942 0.60615
 C860 C 0.26750 0.69541 0.58872
 H861 H 0.24305 0.74964 0.61841
 H862 H 0.24983 0.77823 0.65373
 H863 H 0.31492 0.73498 0.67575
 H864 H 0.30784 0.70659 0.64032
 C865 C 0.77630 0.22543 0.12691
 C866 C 0.79651 0.22155 0.14320
 C867 C 0.80043 0.23779 0.16343
 C868 C 0.78414 0.25818 0.16764
 C869 C 0.76386 0.26189 0.15112
 C870 C 0.76000 0.24562 0.13091
 C871 C 0.77229 0.20870 0.10610
 C872 C 0.76890 0.19469 0.08867
 H873 H 0.80925 0.20597 0.14027
 H874 H 0.81622 0.23435 0.17573
 H875 H 0.75095 0.27736 0.15377
 H876 H 0.74429 0.24879 0.11841
 C877 C 0.47421 0.37654 0.52467
 C878 C 0.45402 0.39287 0.52857
 C879 C 0.45007 0.41308 0.51235
 C880 C 0.46632 0.41725 0.49194
 C881 C 0.48658 0.40069 0.48819
 C882 C 0.49047 0.38049 0.50446
 C883 C 0.47823 0.35574 0.54139
 C884 C 0.48162 0.33832 0.55540
 H885 H 0.44131 0.38997 0.54417
 H886 H 0.43430 0.42542 0.51581
 H887 H 0.49945 0.40330 0.47270
 H888 H 0.50616 0.36796 0.50126
 C889 C -0.02527 0.87683 0.02386
 C890 C -0.00899 0.88088 0.00368
 C891 C -0.01290 0.90112 -0.01252
 C892 C -0.03320 0.91763 -0.00874
 C893 C -0.04945 0.91337 0.01164
 C894 C -0.04549 0.89310 0.02780
 C895 C -0.02122 0.85598 0.04051
 C896 C -0.01781 0.83851 0.05446
 H897 H 0.00673 0.86838 0.00046
 H898 H -0.00001 0.90381 -0.02798
 H899 H -0.06525 0.92566 0.01513
 H900 H -0.05821 0.89013 0.04338
 C901 C 0.02539 0.62264 0.02363
 C902 C 0.00914 0.61865 0.00343
 C903 C 0.01301 0.59843 -0.01283
 C904 C 0.03329 0.58177 -0.00915
 C905 C 0.04952 0.58606 0.01134
 C906 C 0.04556 0.60632 0.02755
 C907 C 0.02137 0.64347 0.04033
 C908 C 0.01801 0.66093 0.05433
 H909 H -0.00654 0.63119 0.00023
 H910 H 0.00005 0.59593 -0.02827
 H911 H 0.06533 0.57383 0.01497
 H912 H 0.05825 0.60925 0.04315
 C913 C 0.52555 0.12278 0.52479
 C914 C 0.54582 0.10656 0.52868
 C915 C 0.54987 0.08635 0.51243
 C916 C 0.53363 0.08210 0.49203
 C917 C 0.51328 0.09854 0.48831
 C918 C 0.50930 0.11873 0.50459
 C919 C 0.52142 0.14357 0.54152
 C920 C 0.51796 0.16100 0.55553
 H921 H 0.55852 0.10953 0.54427
 H922 H 0.56571 0.07410 0.51588
 H923 H 0.50042 0.09586 0.47283
 H924 H 0.49353 0.13118 0.50142
 C925 C -0.02591 0.12358 0.47566
 C926 C -0.00959 0.11955 0.49580
 C927 C -0.01350 0.09934 0.51205
 C928 C -0.03383 0.08285 0.50835
 C929 C -0.05013 0.08709 0.48801
 C930 C -0.04618 0.10732 0.47180
 C931 C -0.02186 0.14439 0.45896
 C932 C -0.01845 0.16183 0.44497
 H933 H 0.00616 0.13203 0.49896
 H934 H -0.00057 0.09666 0.52748
 H935 H -0.06596 0.07481 0.48458
 H936 H -0.05893 0.11028 0.45626
 C937 C 0.47452 0.62349 0.97591
 C938 C 0.45432 0.60717 0.97196
 C939 C 0.45037 0.58692 0.98814
 C940 C 0.46660 0.58271 1.00855
 C941 C 0.48687 0.59926 1.01233
 C942 C 0.49078 0.61949 0.99611
 C943 C 0.47856 0.64433 0.95923
 C944 C 0.48193 0.66178 0.94526
 H945 H 0.44163 0.61009 0.95637
 H946 H 0.43459 0.57459 0.98464
 H947 H 0.49974 0.59661 1.02782
 H948 H 0.50647 0.63202 0.99934
 C949 C 0.52557 0.87742 0.97608
 C950 C 0.50936 0.88141 0.99631
 C951 C 0.51334 0.90157 1.01262
 C952 C 0.53368 0.91816 1.00895
 C953 C 0.54986 0.91388 0.98842
 C954 C 0.54579 0.89368 0.97217
 C955 C 0.52144 0.85664 0.95933
 C956 C 0.51799 0.83922 0.94532
 H957 H 0.49363 0.86892 0.99950
 H958 H 0.50041 0.90407 1.02809
 H959 H 0.56572 0.92607 0.98481
 H960 H 0.55846 0.89075 0.95654
 C961 C 0.02508 0.37741 0.47585
 C962 C 0.04525 0.39375 0.47195
 C963 C 0.04924 0.41394 0.48822
 C964 C 0.03306 0.41815 0.50876
 C965 C 0.01279 0.40147 0.51243
 C966 C 0.00888 0.38131 0.49610
 C967 C 0.02103 0.35663 0.45908
 C968 C 0.01763 0.33921 0.44504
 H969 H 0.05791 0.39089 0.45631
 H970 H 0.06506 0.42620 0.48461
 H971 H -0.00015 0.40390 0.52790
 H972 H -0.00680 0.36875 0.49928
 C973 C 0.37650 0.52439 0.47478
 C974 C 0.38047 0.50418 0.49104
 C975 C 0.40067 0.48787 0.48714
 C976 C 0.41719 0.49158 0.46687
 C977 C 0.41301 0.51199 0.45064
 C978 C 0.39280 0.52826 0.45459
 C979 C 0.35570 0.54114 0.47881
 C980 C 0.33828 0.55517 0.48218
 H981 H 0.36796 0.50101 0.50674
 H982 H 0.40329 0.47239 0.50001
 H983 H 0.42533 0.51543 0.43486
 H984 H 0.38989 0.54385 0.44189
 C985 C 0.87779 0.02394 -0.02579
 C986 C 0.88179 0.00370 -0.00960
 C987 C 0.90199 -0.01257 -0.01353
 C988 C 0.91862 -0.00886 -0.03381
 C989 C 0.91432 0.01167 -0.04997
 C990 C 0.89408 0.02789 -0.04596
 C991 C 0.85698 0.04066 -0.02171
 C992 C 0.83954 0.05466 -0.01828
 H993 H 0.86927 0.00048 0.00608
 H994 H 0.90449 -0.02805 -0.00061
 H995 H 0.92653 0.01532 -0.06579
 H996 H 0.89115 0.04352 -0.05861
 C997 C 0.62374 0.02395 0.02536
 C998 C 0.61963 0.00378 0.00906
 C999 C 0.59938 -0.01246 0.01297
 C1000 C 0.58293 -0.00873 0.03330
 C1001 C 0.58725 0.01164 0.04959
 C1002 C 0.60752 0.02784 0.04562
 C1003 C 0.64458 0.04064 0.02130
 C1004 C 0.66205 0.05462 0.01792
 H1005 H 0.63207 0.00060 -0.00669
 H1006 H 0.59665 -0.02791 0.00006
 H1007 H 0.57500 0.01509 0.06542
 H1008 H 0.61053 0.04340 0.05836
 C1009 C 0.12269 0.52430 0.52523
 C1010 C 0.11867 0.50412 0.50891
 C1011 C 0.09850 0.48779 0.51281
 C1012 C 0.08203 0.49144 0.53314
 C1013 C 0.08626 0.51181 0.54944
 C1014 C 0.10645 0.52811 0.54548
 C1015 C 0.14347 0.54108 0.52119
 C1016 C 0.16089 0.55513 0.51782
 H1017 H 0.13114 0.50100 0.49316
 H1018 H 0.09583 0.47233 0.49989
 H1019 H 0.07399 0.51521 0.56526
 H1020 H 0.10940 0.54367 0.55823
 C1021 C 0.12288 0.47560 -0.02541
 C1022 C 0.11890 0.49583 -0.00916
 C1023 C 0.09871 0.51214 -0.01307
 C1024 C 0.08220 0.50841 -0.03335
 C1025 C 0.08639 0.48798 -0.04958
 C1026 C 0.10659 0.47171 -0.04562
 C1027 C 0.14367 0.45885 -0.02137
 C1028 C 0.16109 0.44481 -0.01801
 H1029 H 0.13140 0.49902 0.00655
 H1030 H 0.09608 0.52764 -0.00020
 H1031 H 0.07408 0.48452 -0.06536
 H1032 H 0.10950 0.45610 -0.05832
 C1033 C 0.62303 0.97615 0.47457
 C1034 C 0.61896 0.99634 0.49083
 C1035 C 0.59870 1.01256 0.48696
 C1036 C 0.58210 1.00883 0.46666
 C1037 C 0.58647 0.98836 0.45042
 C1038 C 0.60676 0.97220 0.45438
 C1039 C 0.64390 0.95949 0.47860
 C1040 C 0.66138 0.94553 0.48200
 H1041 H 0.63146 0.99956 0.50653
 H1042 H 0.59614 1.02799 0.49994
 H1043 H 0.57428 0.98471 0.43459
 H1044 H 0.60976 0.95661 0.44167
 C1045 C 0.87712 0.97657 0.52571
 C1046 C 0.88109 0.99680 0.50951
 C1047 C 0.90131 1.01309 0.51338
 C1048 C 0.91797 1.00938 0.53362
 C1049 C 0.91370 0.98886 0.54981
 C1050 C 0.89345 0.97264 0.54584
 C1051 C 0.85630 0.95983 0.52166
 C1052 C 0.83886 0.94581 0.51825
 H1053 H 0.86854 1.00001 0.49384
 H1054 H 0.90378 1.02855 0.50045
 H1055 H 0.92595 0.98522 0.56560
 H1056 H 0.89054 0.95701 0.55850
 C1057 C 0.37672 0.47554 0.02539
 C1058 C 0.39298 0.47163 0.04560
 C1059 C 0.41320 0.48789 0.04961
 C1060 C 0.41742 0.50832 0.03342
 C1061 C 0.40092 0.51207 0.01314
 C1062 C 0.38073 0.49578 0.00918
 C1063 C 0.35591 0.45880 0.02129
 C1064 C 0.33848 0.44477 0.01787
 H1065 H 0.39005 0.45601 0.05827
 H1066 H 0.42549 0.48442 0.06540
 H1067 H 0.40358 0.52758 0.00030
 H1068 H 0.36824 0.49897 -0.00653
 C1069 C 0.52422 0.47432 0.37704
 C1070 C 0.50402 0.49061 0.38107
 C1071 C 0.48775 0.48671 0.40125
 C1072 C 0.49146 0.46640 0.41772
 C1073 C 0.51185 0.45012 0.41349
 C1074 C 0.52810 0.45408 0.39329
 C1075 C 0.54095 0.47837 0.35626
 C1076 C 0.55497 0.48178 0.33885
 H1077 H 0.50085 0.50634 0.36860
 H1078 H 0.47227 0.49961 0.40391
 H1079 H 0.51529 0.43431 0.42576
 H1080 H 0.54368 0.44135 0.39034
 C1081 C 0.02461 -0.02504 0.87649
 C1082 C 0.02853 -0.04527 0.89273
 C1083 C 0.01230 -0.04927 0.91293
 C1084 C -0.00812 -0.03304 0.91718
 C1085 C -0.01188 -0.01273 0.90071
 C1086 C 0.00439 -0.00878 0.88052
 C1087 C 0.04132 -0.02097 0.85569
 C1088 C 0.05533 -0.01757 0.83827
 H1089 H 0.04414 -0.05797 0.88977
 H1090 H 0.01578 -0.06508 0.92520
 H1091 H -0.02738 0.00014 0.90339
 H1092 H 0.00118 0.00694 0.86806
 C1093 C 0.02425 0.02561 0.62300
 C1094 C 0.02814 0.04583 0.60674
 C1095 C 0.01185 0.04981 0.58658
 C1096 C -0.00860 0.03358 0.58242
 C1097 C -0.01233 0.01329 0.59891
 C1098 C 0.00400 0.00936 0.61905
 C1099 C 0.04103 0.02155 0.64375
 C1100 C 0.05509 0.01817 0.66113
 H1101 H 0.04377 0.05852 0.60963
 H1102 H 0.01531 0.06561 0.57429
 H1103 H -0.02785 0.00043 0.59630
 H1104 H 0.00081 -0.00635 0.63154
 C1105 C 0.52436 0.52545 0.12339
 C1106 C 0.52827 0.54571 0.10718
 C1107 C 0.51205 0.54969 0.08696
 C1108 C 0.49165 0.53343 0.08269
 C1109 C 0.48790 0.51311 0.09914
 C1110 C 0.50415 0.50917 0.11934
 C1111 C 0.54107 0.52137 0.14419
 C1112 C 0.55506 0.51795 0.16162
 H1113 H 0.54387 0.55843 0.11015
 H1114 H 0.51553 0.56551 0.07471
 H1115 H 0.47241 0.50021 0.09645
 H1116 H 0.50095 0.49343 0.13178
 C1117 C 0.47601 -0.02590 0.12330
 C1118 C 0.49626 -0.00966 0.11933
 C1119 C 0.51250 -0.01355 0.09910
 C1120 C 0.50867 -0.03378 0.08253
 C1121 C 0.48822 -0.05000 0.08671
 C1122 C 0.47202 -0.04606 0.10696
 C1123 C 0.45931 -0.02188 0.14412
 C1124 C 0.44532 -0.01851 0.16156
 H1125 H 0.49952 0.00601 0.13188
 H1126 H 0.52802 -0.00070 0.09648
 H1127 H 0.48469 -0.06575 0.07437
 H1128 H 0.45639 -0.05875 0.10986
 C1129 C 0.97522 0.47389 0.62315
 C1130 C 0.99541 0.49020 0.61916
 C1131 C 1.01166 0.48634 0.59893
 C1132 C 1.00790 0.46608 0.58238
 C1133 C 0.98751 0.44979 0.58659
 C1134 C 0.97130 0.45369 0.60684
 C1135 C 0.95851 0.47791 0.64396
 C1136 C 0.94452 0.48131 0.66140
 H1137 H 0.99861 0.50590 0.63168
 H1138 H 1.02713 0.49926 0.59629
 H1139 H 0.98404 0.43401 0.57426
 H1140 H 0.95571 0.44096 0.60976
 C1141 C 0.97523 0.52554 0.87679
 C1142 C 0.99542 0.50926 0.88082
 C1143 C 1.01169 0.51320 0.90100
 C1144 C 1.00797 0.53353 0.91747
 C1145 C 0.98758 0.54980 0.91323
 C1146 C 0.97134 0.54581 0.89302
 C1147 C 0.95850 0.52145 0.85600
 C1148 C 0.94449 0.51799 0.83859
 H1149 H 0.99860 0.49351 0.86835
 H1150 H 1.02717 0.50030 0.90367
 H1151 H 0.98413 0.56563 0.92550
 H1152 H 0.95576 0.55853 0.89007
 C1153 C 0.47602 0.02485 0.37704
 C1154 C 0.47204 0.04504 0.39335
 C1155 C 0.48826 0.04904 0.41356
 C1156 C 0.50874 0.03287 0.41774
 C1157 C 0.51256 0.01261 0.40120
 C1158 C 0.49630 0.00866 0.38101
 C1159 C 0.45930 0.02077 0.35624
 C1160 C 0.44529 0.01736 0.33882
 H1161 H 0.45639 0.05769 0.39045
 H1162 H 0.48474 0.06481 0.42588
 H1163 H 0.52811 -0.00021 0.40383
 H1164 H 0.49955 -0.00703 0.36849
   
