data_POSCAR
  _audit_creation_date              2014-09-24
  _audit_creation_method            'ToBaCCo'
  _symmetry_space_group_name_H-M    'P1'
  _symmetry_Int_Tables_number       1
  _symmetry_cell_setting            triclinic
  loop_
  _symmetry_equiv_pos_as_xyz
 x,y,z
_cell_length_a 46.8653
_cell_length_b 45.9472
_cell_length_c 29.7375
_cell_angle_alpha 90.081500
_cell_angle_beta 90.019100
_cell_angle_gamma 90.115300
loop_
  _atom_site_label
  _atom_site_type_symbol
  _atom_site_fract_x
  _atom_site_fract_y
  _atom_site_fract_z
O1 O 0.24416 0.28141 0.18111
 O2 O 0.29210 0.22616 0.22811
 O3 O 0.24409 0.22470 0.18333
 O4 O 0.29125 0.28242 0.22793
 O5 O 0.26704 0.28203 0.29152
 O6 O 0.21934 0.22569 0.24629
 O7 O 0.26690 0.22539 0.29084
 O8 O 0.21984 0.28234 0.24457
 Cu9 Cu 0.27029 0.25364 0.19872
 Cu10 Cu 0.24079 0.25398 0.27460
 C11 C 0.22384 0.29142 0.20468
 C12 C 0.28777 0.21636 0.26741
 C13 C 0.22351 0.21532 0.20723
 C14 C 0.28743 0.29176 0.26775
 O15 O 0.77942 0.27081 0.24741
 O16 O 0.73087 0.21233 0.28336
 O17 O 0.77844 0.21466 0.23790
 O18 O 0.73154 0.26901 0.29137
 O19 O 0.70823 0.27408 0.22742
 O20 O 0.75359 0.21833 0.17519
 O21 O 0.70572 0.21792 0.22137
 O22 O 0.75594 0.27461 0.18339
 Cu23 Cu 0.75742 0.24116 0.27139
 Cu24 Cu 0.72846 0.24650 0.19546
 C25 C 0.77614 0.28260 0.20916
 C26 C 0.70959 0.20545 0.25904
 C27 C 0.77416 0.20738 0.19720
 C28 C 0.71203 0.28109 0.26830
 O29 O 0.73196 0.78503 0.71112
 O30 O 0.78251 0.73076 0.75416
 O31 O 0.73459 0.72828 0.70862
 O32 O 0.77917 0.78688 0.75655
 O33 O 0.75634 0.78262 0.82099
 O34 O 0.70873 0.72790 0.77066
 O35 O 0.75673 0.72615 0.81588
 O36 O 0.70881 0.78420 0.77567
 Cu37 Cu 0.75943 0.75784 0.72615
 Cu38 Cu 0.73021 0.75486 0.80216
 C39 C 0.71202 0.79430 0.73622
 C40 C 0.77835 0.71928 0.79241
 C41 C 0.71353 0.71870 0.73112
 C42 C 0.77576 0.79443 0.79736
 O43 O 0.29186 0.76967 0.76188
 O44 O 0.24106 0.71709 0.81041
 O45 O 0.28694 0.71369 0.76079
 O46 O 0.24642 0.77384 0.81200
 O47 O 0.21756 0.77416 0.75349
 O48 O 0.26227 0.71893 0.69814
 O49 O 0.21625 0.71781 0.74736
 O50 O 0.26324 0.77546 0.70353
 Cu51 Cu 0.26914 0.74325 0.79255
 Cu52 Cu 0.23713 0.74689 0.71952
 C53 C 0.28600 0.78175 0.72463
 C54 C 0.22024 0.70805 0.78679
 C55 C 0.28212 0.70666 0.72016
 C56 C 0.22464 0.78396 0.79192
 C57 C 0.99545 0.08569 0.04800
 C58 C 1.02468 0.08439 0.04707
 C59 C 1.03173 0.05622 0.03451
 N60 N 1.00781 0.04037 0.02751
 C61 C 0.98562 0.05838 0.03560
 C62 C 1.05973 0.04491 0.03300
 C63 C 1.06601 0.01701 0.01569
 C64 C 1.09079 0.00164 0.02445
 C65 C 1.08921 -0.02371 -0.00013
 C66 C 1.06367 -0.02291 -0.02374
 N67 N 1.04963 0.00199 -0.01376
 C68 C 1.05471 -0.04399 -0.05558
 C69 C 1.02642 -0.04527 -0.07208
 C70 C 1.01750 -0.06188 -0.10844
 C71 C 0.98836 -0.05952 -0.11028
 C72 C 0.98046 -0.04120 -0.07539
 N73 N 1.00375 -0.03263 -0.05200
 C74 C 0.95206 -0.03499 -0.06283
 C75 C 0.94493 -0.01405 -0.02986
 C76 C 0.91842 -0.01143 -0.00956
 C77 C 0.91985 0.01240 0.01837
 C78 C 0.94706 0.02397 0.01389
 N79 N 0.96216 0.00777 -0.01569
 C80 C 0.95664 0.04994 0.03461
 H81 H 0.98286 0.10458 0.05684
 H82 H 1.03907 0.10208 0.05518
 H83 H 0.98190 0.01315 -0.02929
 H84 H 1.10816 0.00798 0.04639
 H85 H 1.10520 -0.04065 -0.00072
 H86 H 1.03054 -0.07474 -0.13093
 H87 H 0.97462 -0.07046 -0.13418
 H88 H 0.90263 0.02048 0.03912
 H89 H 1.03154 0.00989 -0.02988
 H90 H 0.89983 -0.02505 -0.01450
 C91 C 0.49203 0.55657 0.61491
 C92 C 0.52127 0.55716 0.61320
 C93 C 0.52919 0.54055 0.57631
 N94 N 0.50576 0.52966 0.55572
 C95 C 0.48303 0.53928 0.57940
 C96 C 0.55743 0.53743 0.56017
 C97 C 0.56491 0.51682 0.52676
 C98 C 0.59043 0.51671 0.50310
 C99 C 0.59031 0.49212 0.47665
 C100 C 0.56462 0.47805 0.48453
 N101 N 0.54927 0.49319 0.51513
 C102 C 0.55665 0.45104 0.46553
 C103 C 0.52815 0.44103 0.46449
 C104 C 0.51966 0.41343 0.45107
 C105 C 0.49040 0.41333 0.45145
 C106 C 0.48200 0.44082 0.46528
 N107 N 0.50510 0.45775 0.47310
 C108 C 0.45344 0.45040 0.46793
 C109 C 0.44541 0.47663 0.48938
 C110 C 0.41867 0.48933 0.48628
 C111 C 0.41881 0.51304 0.51454
 C112 C 0.44575 0.51441 0.53377
 N113 N 0.46175 0.49201 0.51849
 C114 C 0.45426 0.53465 0.56705
 H115 H 0.47896 0.56789 0.63926
 H116 H 0.53507 0.56878 0.63627
 H117 H 0.48142 0.48565 0.53122
 H118 H 0.60750 0.53256 0.50489
 H119 H 0.60723 0.48536 0.45421
 H120 H 0.53312 0.39530 0.44167
 H121 H 0.47686 0.39510 0.44251
 H122 H 0.40092 0.52738 0.52054
 H123 H 0.53078 0.48597 0.53094
 H124 H 0.40073 0.48203 0.46627
 C125 C 0.01153 0.56971 -0.08376
 C126 C -0.01771 0.56923 -0.08582
 C127 C -0.02694 0.55157 -0.05095
 N128 N -0.00429 0.54102 -0.02803
 C129 C 0.01926 0.55191 -0.04820
 C130 C -0.05578 0.54699 -0.03871
 C131 C -0.06404 0.52589 -0.00660
 C132 C -0.09044 0.52483 0.01447
 C133 C -0.09090 0.49986 0.03986
 C134 C -0.06470 0.48647 0.03390
 N135 N -0.04842 0.50247 0.00563
 C136 C -0.05717 0.45911 0.05188
 C137 C -0.02862 0.44964 0.05525
 C138 C -0.02021 0.42182 0.06734
 C139 C 0.00901 0.42231 0.06984
 C140 C 0.01745 0.45036 0.05900
 N141 N -0.00559 0.46705 0.05023
 C142 C 0.04588 0.46058 0.05987
 C143 C 0.05427 0.48759 0.04127
 C144 C 0.08059 0.50070 0.04800
 C145 C 0.08111 0.52530 0.02171
 C146 C 0.05497 0.52673 -0.00009
 N147 N 0.03883 0.50353 0.01180
 C148 C 0.04747 0.54779 -0.03266
 H149 H 0.02542 0.58198 -0.10578
 H150 H -0.03064 0.58085 -0.10999
 H151 H 0.01983 0.49717 -0.00332
 H152 H -0.10773 0.54029 0.01151
 H153 H -0.10858 0.49231 0.06017
 H154 H -0.03368 0.40315 0.07391
 H155 H 0.02250 0.40409 0.07866
 H156 H 0.09894 0.54015 0.01862
 H157 H -0.02928 0.49588 -0.00880
 H158 H 0.09784 0.49312 0.06914
 C159 C 0.50927 1.05015 0.38307
 C160 C 0.48000 1.05026 0.38389
 C161 C 0.47195 1.03845 0.42485
 N162 N 0.49526 1.03119 0.44905
 C163 C 0.51810 1.03843 0.42367
 C164 C 0.44366 1.03683 0.44101
 C165 C 0.43586 1.01905 0.47788
 C166 C 0.40980 1.02000 0.49991
 C167 C 0.40970 0.99756 0.53044
 C168 C 0.43599 0.98389 0.52711
 N169 N 0.45170 0.99702 0.49478
 C170 C 0.44411 0.95859 0.55093
 C171 C 0.47280 0.94943 0.55481
 C172 C 0.48167 0.92357 0.57434
 C173 C 0.51091 0.92389 0.57387
 C174 C 0.51902 0.95013 0.55479
 N175 N 0.49571 0.96575 0.54334
 C176 C 0.54745 0.96007 0.55066
 C177 C 0.55482 0.98546 0.52659
 C178 C 0.58049 1.00025 0.53081
 C179 C 0.58024 1.02214 0.49931
 C180 C 0.55453 1.01989 0.47638
 N181 N 0.53909 0.99759 0.49347
 C182 C 0.54667 1.03676 0.43859
 H183 H 0.52250 1.05804 0.35586
 H184 H 0.46620 1.05829 0.35750
 H185 H 0.52055 0.98886 0.47964
 H186 H 0.39237 1.03494 0.49414
 H187 H 0.39206 0.99196 0.55220
 H188 H 0.46858 0.90634 0.58809
 H189 H 0.52457 0.90684 0.58665
 H190 H 0.59722 1.03769 0.49365
 H191 H 0.47070 0.98923 0.48136
 H192 H 0.59770 0.99560 0.55400
 C193 C 1.18256 0.18299 0.21734
 C194 C 1.16390 0.16183 0.20078
 C195 C 1.16720 0.15080 0.15731
 C196 C 1.18978 0.16092 0.13043
 C197 C 1.20862 0.18207 0.14696
 C198 C 1.20515 0.19358 0.19061
 N199 N 1.14687 0.12997 0.14116
 N200 N 1.14761 0.11961 0.10147
 C201 C 1.12649 0.09940 0.08579
 C202 C 1.12712 0.09035 0.04083
 C203 C 1.10574 0.07211 0.02387
 C204 C 1.08343 0.06268 0.05180
 C205 C 1.08328 0.07097 0.09724
 C206 C 1.10458 0.08929 0.11412
 H207 H 1.17909 0.19111 0.25111
 H208 H 1.14655 0.15419 0.22176
 H209 H 1.19274 0.15268 0.09664
 H210 H 1.22571 0.18955 0.12533
 H211 H 1.14389 0.09794 0.01869
 H212 H 1.10620 0.06585 -0.01125
 H213 H 1.06635 0.06369 0.11934
 H214 H 1.10367 0.09584 0.14907
 C215 C 0.66482 0.69775 0.72230
 C216 C 0.64576 0.67828 0.70225
 C217 C 0.65552 0.65740 0.67170
 C218 C 0.68466 0.65647 0.66064
 C219 C 0.70368 0.67656 0.67970
 C220 C 0.69390 0.69724 0.71093
 N221 N 0.63528 0.63794 0.65174
 N222 N 0.64235 0.61336 0.63547
 C223 C 0.62155 0.59473 0.61492
 C224 C 0.62590 0.56460 0.61474
 C225 C 0.60509 0.54593 0.59708
 C226 C 0.57999 0.55726 0.57807
 C227 C 0.57626 0.58759 0.57666
 C228 C 0.59665 0.60615 0.59552
 H229 H 0.65672 0.71366 0.74597
 H230 H 0.62333 0.67927 0.71083
 H231 H 0.69256 0.64063 0.63673
 H232 H 0.72601 0.67579 0.67043
 H233 H 0.64505 0.55555 0.62948
 H234 H 0.60842 0.52263 0.59853
 H235 H 0.55730 0.59684 0.56156
 H236 H 0.59308 0.62942 0.59476
 C237 C -0.18237 0.31580 0.22361
 C238 C -0.16312 0.33716 0.20947
 C239 C -0.16486 0.34868 0.16607
 C240 C -0.18641 0.33884 0.13687
 C241 C -0.20577 0.31754 0.15100
 C242 C -0.20385 0.30566 0.19445
 N243 N -0.14419 0.36985 0.15229
 N244 N -0.14376 0.38033 0.11272
 C245 C -0.12268 0.40105 0.09884
 C246 C -0.12234 0.41024 0.05399
 C247 C -0.10126 0.42942 0.03886
 C248 C -0.08026 0.43974 0.06856
 C249 C -0.08097 0.43109 0.11380
 C250 C -0.10197 0.41179 0.12886
 H251 H -0.18035 0.30716 0.25732
 H252 H -0.14659 0.34457 0.23226
 H253 H -0.18820 0.34745 0.10312
 H254 H -0.22206 0.31021 0.12774
 H255 H -0.13818 0.40214 0.03057
 H256 H -0.10104 0.43590 0.00386
 H257 H -0.06504 0.43901 0.13723
 H258 H -0.10186 0.40510 0.16374
 C259 C 0.33558 0.79706 0.70634
 C260 C 0.35481 0.81611 0.68577
 C261 C 0.34506 0.84164 0.66536
 C262 C 0.31571 0.84778 0.66498
 C263 C 0.29634 0.82819 0.68415
 C264 C 0.30619 0.80278 0.70517
 N265 N 0.36518 0.86038 0.64372
 N266 N 0.36138 0.88773 0.64094
 C267 C 0.38132 0.90571 0.61739
 C268 C 0.38737 0.93370 0.63349
 C269 C 0.40787 0.95097 0.61209
 C270 C 0.42164 0.94087 0.57316
 C271 C 0.41476 0.91322 0.55614
 C272 C 0.39508 0.89556 0.57850
 H273 H 0.34357 0.77743 0.72204
 H274 H 0.37738 0.81111 0.68598
 H275 H 0.30779 0.86728 0.64886
 H276 H 0.27372 0.83293 0.68288
 H277 H 0.37685 0.94173 0.66344
 H278 H 0.41309 0.97216 0.62587
 H279 H 0.42517 0.90511 0.52613
 H280 H 0.39040 0.87409 0.56534
 C281 C -0.17158 0.70176 -0.20099
 C282 C -0.15109 0.68337 -0.18227
 C283 C -0.15924 0.66094 -0.15322
 C284 C -0.18824 0.65723 -0.14253
 C285 C -0.20871 0.67620 -0.16023
 C286 C -0.20052 0.69854 -0.18976
 N287 N -0.13761 0.64292 -0.13396
 N288 N -0.14286 0.61746 -0.11931
 C289 C -0.12104 0.60023 -0.09880
 C290 C -0.12334 0.56987 -0.09974
 C291 C -0.10195 0.55259 -0.08086
 C292 C -0.07834 0.56549 -0.05943
 C293 C -0.07651 0.59600 -0.05743
 C294 C -0.09746 0.61324 -0.07753
 H295 H -0.16470 0.71902 -0.22329
 H296 H -0.12880 0.68651 -0.19053
 H297 H -0.19492 0.64017 -0.11976
 H298 H -0.23090 0.67336 -0.15103
 H299 H -0.14146 0.55961 -0.11591
 H300 H -0.10382 0.52912 -0.08282
 H301 H -0.05877 0.60644 -0.04046
 H302 H -0.09550 0.63670 -0.07589
 C303 C 0.33643 1.19497 0.27313
 C304 C 0.35565 1.17522 0.29180
 C305 C 0.34630 1.15434 0.32264
 C306 C 0.31742 1.15362 0.33529
 C307 C 0.29827 1.17394 0.31756
 C308 C 0.30763 1.19469 0.28616
 N309 N 0.36677 1.13493 0.34181
 N310 N 0.35981 1.11066 0.35923
 C311 C 0.38080 1.09237 0.37975
 C312 C 0.37562 1.06246 0.38366
 C313 C 0.39613 1.04421 0.40292
 C314 C 0.42174 1.05586 0.41983
 C315 C 0.42657 1.08598 0.41668
 C316 C 0.40645 1.10403 0.39636
 H317 H 0.34420 1.21091 0.24926
 H318 H 0.37791 1.17607 0.28207
 H319 H 0.30986 1.13781 0.35949
 H320 H 0.27615 1.17332 0.32806
 H321 H 0.35590 1.05323 0.37104
 H322 H 0.39202 1.02104 0.40480
 H323 H 0.44601 1.09549 0.42990
 H324 H 0.41074 1.12715 0.39419
 C325 C 1.21787 -0.17973 -0.14863
 C326 C 1.20144 -0.15783 -0.12869
 C327 C 1.17467 -0.15075 -0.14624
 C328 C 1.16480 -0.16503 -0.18497
 C329 C 1.18159 -0.18613 -0.20596
 C330 C 1.20822 -0.19411 -0.18774
 N331 N 1.15772 -0.12897 -0.12466
 N332 N 1.13068 -0.13128 -0.12335
 C333 C 1.11294 -0.10925 -0.10415
 C334 C 1.08679 -0.11731 -0.08527
 C335 C 1.06843 -0.09620 -0.06797
 C336 C 1.07541 -0.06649 -0.07109
 C337 C 1.10173 -0.05843 -0.09010
 C338 C 1.12057 -0.07970 -0.10597
 H339 H 1.23829 -0.18505 -0.13372
 H340 H 1.20930 -0.14683 -0.09892
 H341 H 1.14425 -0.15955 -0.19926
 H342 H 1.17335 -0.19661 -0.23594
 H343 H 1.08070 -0.14003 -0.08380
 H344 H 1.04842 -0.10297 -0.05303
 H345 H 1.10750 -0.03568 -0.09313
 H346 H 1.14059 -0.07308 -0.12099
 C347 C 0.67209 0.31703 0.26328
 C348 C 0.65431 0.33793 0.28260
 C349 C 0.65747 0.34570 0.32778
 C350 C 0.67889 0.33241 0.35366
 C351 C 0.69676 0.31146 0.33435
 C352 C 0.69348 0.30347 0.28896
 N353 N 0.63826 0.36663 0.34654
 N354 N 0.63949 0.37473 0.38743
 C355 C 0.61958 0.39519 0.40573
 C356 C 0.62118 0.40233 0.45145
 C357 C 0.60108 0.42100 0.47076
 C358 C 0.57907 0.43275 0.44446
 C359 C 0.57789 0.42623 0.39838
 C360 C 0.59794 0.40754 0.37912
 H361 H 0.66899 0.31143 0.22823
 H362 H 0.63785 0.34799 0.26237
 H363 H 0.68171 0.33806 0.38873
 H364 H 0.71304 0.30145 0.35501
 H365 H 0.63775 0.39299 0.47228
 H366 H 0.60229 0.42583 0.50637
 H367 H 0.56113 0.43526 0.37757
 H368 H 0.59628 0.40245 0.34366
 C369 C 0.79195 -0.17780 -0.13717
 C370 C 0.81069 -0.15775 -0.11762
 C371 C 0.83109 -0.14344 -0.14381
 C372 C 0.83265 -0.14936 -0.19008
 C373 C 0.81429 -0.16979 -0.20963
 C374 C 0.79371 -0.18441 -0.18340
 N375 N 0.85067 -0.12391 -0.12235
 N376 N 0.86629 -0.10638 -0.14453
 C377 C 0.88679 -0.08795 -0.12288
 C378 C 0.89910 -0.06506 -0.14717
 C379 C 0.91985 -0.04731 -0.12730
 C380 C 0.92890 -0.05266 -0.08311
 C381 C 0.91664 -0.07562 -0.05876
 C382 C 0.89553 -0.09301 -0.07833
 H383 H 0.77650 -0.18852 -0.11572
 H384 H 0.80938 -0.15342 -0.08188
 H385 H 0.84842 -0.13866 -0.21092
 H386 H 0.81633 -0.17414 -0.24529
 H387 H 0.89264 -0.06105 -0.18156
 H388 H 0.92926 -0.02975 -0.14655
 H389 H 0.92359 -0.08013 -0.02474
 H390 H 0.88651 -0.11075 -0.05905
 C391 C 0.32951 0.32539 0.26112
 C392 C 0.34899 0.34492 0.28024
 C393 C 0.34664 0.35294 0.32551
 C394 C 0.32414 0.34163 0.35140
 C395 C 0.30459 0.32221 0.33231
 C396 C 0.30721 0.31363 0.28707
 N397 N 0.36768 0.37196 0.34460
 N398 N 0.36767 0.37865 0.38616
 C399 C 0.38892 0.39724 0.40563
 C400 C 0.38823 0.40251 0.45200
 C401 C 0.40910 0.41989 0.47230
 C402 C 0.43092 0.43236 0.44632
 C403 C 0.43145 0.42736 0.39974
 C404 C 0.41065 0.40988 0.37949
 H405 H 0.33211 0.31926 0.22619
 H406 H 0.36622 0.35351 0.25993
 H407 H 0.32182 0.34754 0.38645
 H408 H 0.28769 0.31356 0.35324
 H409 H 0.37163 0.39287 0.47249
 H410 H 0.40840 0.42349 0.50829
 H411 H 0.44809 0.43690 0.37918
 H412 H 0.41162 0.40616 0.34357
 C413 C 0.18253 0.66996 -0.22340
 C414 C 0.16314 0.64982 -0.20584
 C415 C 0.16075 0.64595 -0.15935
 C416 C 0.17855 0.66200 -0.13040
 C417 C 0.19832 0.68180 -0.14796
 C418 C 0.20028 0.68621 -0.19463
 N419 N 0.13992 0.62590 -0.14247
 N420 N 0.13287 0.62522 -0.10116
 C421 C 0.11202 0.60516 -0.08438
 C422 C 0.10099 0.60936 -0.04111
 C423 C 0.07997 0.59072 -0.02427
 C424 C 0.07013 0.56726 -0.05027
 C425 C 0.08151 0.56267 -0.09331
 C426 C 0.10220 0.58162 -0.11045
 H427 H 0.18367 0.67278 -0.25951
 H428 H 0.14959 0.63752 -0.22847
 H429 H 0.17719 0.65924 -0.09432
 H430 H 0.21168 0.69406 -0.12499
 H431 H 0.10840 0.62740 -0.02072
 H432 H 0.07133 0.59453 0.00899
 H433 H 0.07410 0.54463 -0.11373
 H434 H 0.11052 0.57785 -0.14390
 C435 C 0.66383 1.18010 0.25188
 C436 C 0.64343 1.16090 0.26920
 C437 C 0.64914 1.14486 0.30808
 C438 C 0.67552 1.14826 0.32979
 C439 C 0.69560 1.16814 0.31345
 C440 C 0.69000 1.18448 0.27433
 N441 N 0.62733 1.12659 0.32647
 N442 N 0.63318 1.10455 0.35061
 C443 C 0.61117 1.08769 0.37144
 C444 C 0.61563 1.05806 0.37958
 C445 C 0.59448 1.04133 0.40044
 C446 C 0.56895 1.05431 0.41504
 C447 C 0.56484 1.08423 0.40764
 C448 C 0.58557 1.10068 0.38539
 H449 H 0.65859 1.19225 0.22181
 H450 H 0.62308 1.15854 0.25232
 H451 H 0.68020 1.13625 0.36021
 H452 H 0.71548 1.17072 0.33165
 H453 H 0.63537 1.04785 0.36918
 H454 H 0.59811 1.01831 0.40558
 H455 H 0.54558 1.09487 0.41920
 H456 H 0.58195 1.12369 0.38008
 C457 C 0.20838 0.32290 0.14046
 C458 C 0.18981 0.34316 0.12138
 C459 C 0.16719 0.35456 0.14640
 C460 C 0.16341 0.34562 0.19120
 C461 C 0.18196 0.32528 0.21038
 C462 C 0.20458 0.31359 0.18512
 N463 N 0.14810 0.37459 0.12514
 N464 N 0.12723 0.38614 0.14585
 C465 C 0.10784 0.40562 0.12401
 C466 C 0.08543 0.41766 0.14891
 C467 C 0.06555 0.43590 0.12824
 C468 C 0.06779 0.44227 0.08222
 C469 C 0.09045 0.43054 0.05731
 C470 C 0.11038 0.41234 0.07803
 H471 H 0.22556 0.31434 0.12005
 H472 H 0.19292 0.34985 0.08682
 H473 H 0.14602 0.35412 0.21122
 H474 H 0.17846 0.31858 0.24484
 H475 H 0.08324 0.41264 0.18431
 H476 H 0.04821 0.44482 0.14797
 H477 H 0.09244 0.43518 0.02175
 H478 H 0.12750 0.40328 0.05803
 C479 C 0.67062 0.82825 0.74666
 C480 C 0.65165 0.84906 0.72990
 C481 C 0.65391 0.85874 0.68545
 C482 C 0.67570 0.84764 0.65792
 C483 C 0.69472 0.82693 0.67463
 C484 C 0.69228 0.81685 0.71910
 N485 N 0.63345 0.87915 0.66866
 N486 N 0.63362 0.88745 0.62784
 C487 C 0.61290 0.90719 0.61009
 C488 C 0.61307 0.91300 0.56392
 C489 C 0.59211 0.93066 0.54484
 C490 C 0.57071 0.94293 0.57184
 C491 C 0.57105 0.93793 0.61842
 C492 C 0.59192 0.92004 0.63745
 H493 H 0.66820 0.82099 0.78107
 H494 H 0.63492 0.85742 0.75143
 H495 H 0.67792 0.85477 0.62342
 H496 H 0.71116 0.81862 0.65253
 H497 H 0.62914 0.90325 0.54254
 H498 H 0.59219 0.93430 0.50886
 H499 H 0.55482 0.94741 0.63980
 H500 H 0.59145 0.91597 0.67329
 C501 C 0.79003 0.17936 0.12927
 C502 C 0.80942 0.16105 0.10753
 C503 C 0.83274 0.14959 0.13086
 C504 C 0.83627 0.15628 0.17666
 C505 C 0.81691 0.17462 0.19846
 C506 C 0.79369 0.18657 0.17491
 N507 N 0.85278 0.13177 0.10709
 N508 N 0.87445 0.12070 0.12631
 C509 C 0.89475 0.10322 0.10252
 C510 C 0.91730 0.09068 0.12644
 C511 C 0.93747 0.07347 0.10434
 C512 C 0.93541 0.06870 0.05781
 C513 C 0.91293 0.08144 0.03369
 C514 C 0.89267 0.09854 0.05587
 H515 H 0.77241 0.18821 0.11013
 H516 H 0.80646 0.15603 0.07224
 H517 H 0.85412 0.14766 0.19546
 H518 H 0.82035 0.17974 0.23361
 H519 H 0.91915 0.09416 0.16235
 H520 H 0.95462 0.06373 0.12351
 H521 H 0.91106 0.07803 -0.00224
 H522 H 0.87548 0.10810 0.03661
 C523 C 0.30050 0.68195 0.65091
 C524 C 0.31887 0.66226 0.62984
 C525 C 0.33686 0.64450 0.65536
 C526 C 0.33618 0.64649 0.70251
 C527 C 0.31811 0.66645 0.72364
 C528 C 0.30018 0.68450 0.69803
 N529 N 0.35630 0.62550 0.63262
 N530 N 0.37064 0.60621 0.65332
 C531 C 0.39090 0.58809 0.63064
 C532 C 0.40239 0.56414 0.65333
 C533 C 0.42269 0.54644 0.63241
 C534 C 0.43206 0.55283 0.58873
 C535 C 0.42070 0.57689 0.56601
 C536 C 0.40009 0.59432 0.58667
 H537 H 0.28706 0.69566 0.63027
 H538 H 0.31927 0.66099 0.59348
 H539 H 0.35000 0.63306 0.72296
 H540 H 0.31830 0.66789 0.75999
 H541 H 0.39558 0.55920 0.68727
 H542 H 0.43136 0.52797 0.65038
 H543 H 0.42786 0.58214 0.53235
 H544 H 0.39169 0.61285 0.56859
   
