data_POSCAR
  _audit_creation_date              2014-09-24
  _audit_creation_method            'ToBaCCo'
  _symmetry_space_group_name_H-M    'P1'
  _symmetry_Int_Tables_number       1
  _symmetry_cell_setting            triclinic
  loop_
  _symmetry_equiv_pos_as_xyz
 x,y,z
_cell_length_a 25.6036
_cell_length_b 24.2546
_cell_length_c 24.2555
_cell_angle_alpha 89.881600
_cell_angle_beta 90.030800
_cell_angle_gamma 89.969200
loop_
  _atom_site_label
  _atom_site_type_symbol
  _atom_site_fract_x
  _atom_site_fract_y
  _atom_site_fract_z
C1 C 0.32905 0.32569 0.22894
 H2 H 0.33110 0.32680 0.27348
 C3 C 0.36278 0.35830 0.19757
 H4 H 0.39060 0.38457 0.21846
 C5 C 0.29041 0.28942 0.14800
 H6 H 0.26273 0.26195 0.12878
 C7 C 0.32343 0.32128 0.11502
 H8 H 0.32020 0.31822 0.07062
 N9 N 0.29329 0.29273 0.20389
 C10 C 0.16992 0.27048 0.32588
 H11 H 0.16775 0.22594 0.32714
 C12 C 0.13646 0.30196 0.35859
 H13 H 0.10870 0.28116 0.38508
 C14 C 0.20861 0.35129 0.28917
 H15 H 0.23622 0.37043 0.26150
 C16 C 0.17587 0.38438 0.32112
 H17 H 0.17922 0.42877 0.31793
 Zn18 Zn 0.24936 0.24962 0.24960
 N19 N 0.20559 0.29541 0.29266
 C20 C 0.29041 0.21003 0.35132
 N21 N 0.29319 0.20643 0.29544
 C22 C 0.32888 0.17325 0.27055
 C23 C 0.36266 0.14078 0.30208
 C24 C 0.32346 0.17832 0.38445
 C25 C 0.16978 0.22909 0.17329
 C26 C 0.13608 0.19776 0.14069
 C27 C 0.17530 0.11516 0.17812
 C28 C 0.20828 0.14810 0.20997
 N29 N 0.20545 0.20399 0.20646
 H30 H 0.26280 0.23769 0.37041
 H31 H 0.33088 0.17192 0.22602
 H32 H 0.39045 0.11436 0.28131
 H33 H 0.32033 0.18165 0.42883
 H34 H 0.16776 0.27363 0.17202
 H35 H 0.10832 0.21869 0.11426
 H36 H 0.17848 0.07076 0.18136
 H37 H 0.23590 0.12884 0.23760
 C38 C 0.13935 0.35978 0.35669
 C39 C 0.36008 0.35656 0.13974
 C40 C 0.13873 0.13992 0.14264
 C41 C 0.36008 0.14287 0.35991
 C42 C 0.82987 0.82746 0.22782
 H43 H 0.83200 0.82875 0.27235
 C44 C 0.86332 0.86023 0.19628
 H45 H 0.89089 0.88668 0.21735
 C46 C 0.79136 0.79061 0.14716
 H47 H 0.76382 0.76284 0.12812
 C48 C 0.82406 0.82257 0.11394
 H49 H 0.82052 0.81904 0.06959
 N50 N 0.79430 0.79416 0.20300
 C51 C 0.67102 0.77152 0.32512
 H52 H 0.66897 0.72697 0.32630
 C53 C 0.63746 0.80283 0.35789
 H54 H 0.60976 0.78189 0.38434
 C55 C 0.70951 0.85252 0.28859
 H56 H 0.73708 0.87179 0.26097
 C57 C 0.67667 0.88544 0.32061
 H58 H 0.67991 0.92985 0.31751
 Zn59 Zn 0.75059 0.75096 0.24893
 N60 N 0.70665 0.79662 0.29197
 C61 C 0.79150 0.71144 0.35073
 N62 N 0.79452 0.70795 0.29486
 C63 C 0.83022 0.67472 0.27006
 C64 C 0.86366 0.64194 0.30168
 C65 C 0.82422 0.67942 0.38395
 C66 C 0.67104 0.72982 0.17274
 C67 C 0.63743 0.69820 0.14032
 C68 C 0.67691 0.61592 0.17816
 C69 C 0.70980 0.64914 0.20981
 N70 N 0.70680 0.70501 0.20601
 H71 H 0.76389 0.73912 0.36976
 H72 H 0.83239 0.67346 0.22554
 H73 H 0.89141 0.61542 0.28099
 H74 H 0.82085 0.68260 0.42832
 H75 H 0.66887 0.77434 0.17124
 H76 H 0.60959 0.71890 0.11379
 H77 H 0.68023 0.57155 0.18162
 H78 H 0.73746 0.63011 0.23755
 C79 C 0.64021 0.86066 0.35613
 C80 C 0.86065 0.85842 0.13830
 C81 C 0.64026 0.64038 0.14257
 C82 C 0.86073 0.64380 0.35950
 C83 C 0.83053 0.32506 0.73024
 H84 H 0.83274 0.32632 0.77476
 C85 C 0.86394 0.35782 0.69862
 H86 H 0.89168 0.38434 0.71933
 C87 C 0.79179 0.28836 0.64956
 H88 H 0.76417 0.26068 0.63052
 C89 C 0.82446 0.32036 0.61635
 H90 H 0.82106 0.31718 0.57198
 N91 N 0.79484 0.29184 0.70543
 C92 C 0.67151 0.26991 0.82756
 H93 H 0.66941 0.22538 0.82905
 C94 C 0.63785 0.30151 0.85995
 H95 H 0.61005 0.28078 0.88645
 C96 C 0.71012 0.35061 0.79051
 H97 H 0.73774 0.36966 0.76279
 C98 C 0.67719 0.38381 0.82214
 H99 H 0.68042 0.42818 0.81867
 Zn100 Zn 0.75099 0.24881 0.75134
 N101 N 0.70721 0.29474 0.79430
 C102 C 0.79197 0.20913 0.85306
 N103 N 0.79480 0.20557 0.79724
 C104 C 0.83034 0.17225 0.77240
 C105 C 0.86389 0.13947 0.80389
 C106 C 0.82476 0.17719 0.88628
 C107 C 0.67134 0.22836 0.67516
 C108 C 0.63772 0.19709 0.64241
 C109 C 0.67699 0.11442 0.67963
 C110 C 0.70988 0.14730 0.71163
 N111 N 0.70702 0.20320 0.70828
 H112 H 0.76446 0.23693 0.87211
 H113 H 0.83237 0.17096 0.72787
 H114 H 0.89135 0.11311 0.78252
 H115 H 0.82110 0.18096 0.93061
 H116 H 0.66929 0.27290 0.67400
 H117 H 0.60998 0.21808 0.61599
 H118 H 0.68022 0.07001 0.68271
 H119 H 0.73751 0.12798 0.73923
 C120 C 0.64057 0.35933 0.85769
 C121 C 0.86097 0.35597 0.64081
 C122 C 0.64046 0.13926 0.64415
 C123 C 0.86145 0.14119 0.86201
 C124 C 0.32897 0.82676 0.72939
 H125 H 0.33098 0.82805 0.77393
 C126 C 0.36274 0.85925 0.69793
 H127 H 0.39052 0.88562 0.71876
 C128 C 0.29049 0.79011 0.64855
 H129 H 0.26288 0.76250 0.62940
 C130 C 0.32353 0.82184 0.61548
 H131 H 0.32039 0.81857 0.57109
 N132 N 0.29329 0.79365 0.70443
 C133 C 0.16987 0.77122 0.82643
 H134 H 0.16786 0.72669 0.82779
 C135 C 0.13614 0.80265 0.85890
 H136 H 0.10837 0.78180 0.88533
 C137 C 0.20834 0.85211 0.78963
 H138 H 0.23596 0.87130 0.76199
 C139 C 0.17533 0.88515 0.82134
 H140 H 0.17849 0.92954 0.81801
 Zn141 Zn 0.24947 0.75051 0.75023
 N142 N 0.20554 0.79623 0.79325
 C143 C 0.29049 0.71063 0.85189
 N144 N 0.29340 0.70739 0.79601
 C145 C 0.32918 0.67442 0.77098
 C146 C 0.36289 0.64173 0.80237
 C147 C 0.32348 0.67869 0.88490
 C148 C 0.17003 0.72958 0.67386
 C149 C 0.13655 0.69803 0.64122
 C150 C 0.17599 0.61567 0.67893
 C151 C 0.20875 0.64882 0.71080
 N152 N 0.20572 0.70469 0.70716
 H153 H 0.26278 0.73810 0.87109
 H154 H 0.33126 0.67336 0.72645
 H155 H 0.39073 0.61546 0.78149
 H156 H 0.32022 0.68169 0.92929
 H157 H 0.16785 0.77411 0.67248
 H158 H 0.10878 0.71879 0.61466
 H159 H 0.17934 0.57129 0.68225
 H160 H 0.23636 0.62972 0.73855
 C161 C 0.13875 0.86048 0.85681
 C162 C 0.36014 0.85723 0.64010
 C163 C 0.13944 0.64021 0.64328
 C164 C 0.36014 0.64339 0.86020
 Si165 Si -0.00160 0.00039 -0.00047
 Si166 Si -0.00008 0.49987 0.50016
 Si167 Si 0.50066 0.00007 0.50015
 Si168 Si 0.50040 0.49982 0.00000
 N169 N 0.10625 -0.04929 -0.11075
 C170 C 0.10377 -0.10523 -0.10863
 N171 N 0.06883 -0.12902 -0.07375
 N172 N 0.03778 -0.09820 -0.04230
 C173 C 0.04049 -0.04244 -0.04461
 N174 N 0.07520 -0.01846 -0.07932
 N175 N 0.06986 0.37038 0.42658
 C176 C 0.10470 0.39412 0.39155
 N177 N 0.10737 0.45006 0.38954
 N178 N 0.07656 0.48092 0.42119
 C179 C 0.04193 0.45700 0.45602
 N180 N 0.03906 0.40125 0.45824
 N181 N 0.57068 -0.12909 0.42603
 C182 C 0.60550 -0.10518 0.39111
 N183 N 0.60812 -0.04923 0.38933
 N184 N 0.57729 -0.01853 0.42110
 C185 C 0.54267 -0.04262 0.45584
 N186 N 0.53984 -0.09838 0.45782
 N187 N 0.60821 0.44972 -0.11015
 C188 C 0.60566 0.39378 -0.10785
 N189 N 0.57069 0.37015 -0.07290
 N190 N 0.53969 0.40111 -0.04155
 C191 C 0.54246 0.45686 -0.04402
 N192 N 0.57721 0.48068 -0.07881
 N193 N -0.07165 0.07435 -0.13005
 C194 C -0.10680 0.10930 -0.10654
 N195 N -0.10933 0.11098 -0.05049
 N196 N -0.07842 0.07934 -0.01957
 C197 C -0.04366 0.04470 -0.04342
 N198 N -0.04075 0.04269 -0.09913
 N199 N -0.10746 0.61072 0.44991
 C200 C -0.10470 0.60881 0.39398
 N201 N -0.06985 0.57375 0.37039
 N202 N -0.03912 0.54198 0.40139
 C203 C -0.04209 0.54410 0.45713
 N204 N -0.07673 0.57896 0.48091
 N205 N 0.39268 0.11043 0.45023
 C206 C 0.39514 0.10834 0.39429
 N207 N 0.43014 0.07353 0.37061
 N208 N 0.46126 0.04208 0.40151
 C209 C 0.45857 0.04434 0.45726
 N210 N 0.42380 0.07899 0.48114
 N211 N 0.42999 0.57374 -0.12939
 C212 C 0.39506 0.60856 -0.10557
 N213 N 0.39255 0.61037 -0.04963
 N214 N 0.42356 0.57872 -0.01884
 C215 C 0.45827 0.54408 -0.04284
 N216 N 0.46101 0.54207 -0.09860
 N217 N -0.07139 -0.07353 0.12916
 C218 C -0.10646 -0.10844 0.10560
 N219 N -0.10916 -0.11020 0.04960
 N220 N -0.07834 -0.07854 0.01866
 C221 C -0.04358 -0.04388 0.04249
 N222 N -0.04058 -0.04186 0.09822
 N223 N -0.10730 0.38901 0.55040
 C224 C -0.10451 0.39094 0.60634
 N225 N -0.06967 0.42598 0.62993
 N226 N -0.03898 0.45775 0.59893
 C227 C -0.04198 0.45562 0.54319
 N228 N -0.07662 0.42076 0.51941
 N229 N 0.39271 -0.11022 0.54985
 C230 C 0.39517 -0.10821 0.60579
 N231 N 0.43016 -0.07344 0.62956
 N232 N 0.46126 -0.04198 0.59872
 C233 C 0.45856 -0.04417 0.54297
 N234 N 0.42381 -0.07877 0.51901
 N235 N 0.42995 0.42609 0.12935
 C236 C 0.39503 0.39129 0.10552
 N237 N 0.39256 0.38940 0.04958
 N238 N 0.42360 0.42097 0.01880
 C239 C 0.45829 0.45560 0.04282
 N240 N 0.46100 0.45768 0.09858
 N241 N 0.06885 0.12962 0.07306
 C242 C 0.10378 0.10574 0.10794
 N243 N 0.10628 0.04979 0.10996
 N244 N 0.07525 0.01906 0.07842
 C245 C 0.04053 0.04313 0.04371
 N246 N 0.03781 0.09889 0.04151
 N247 N 0.06982 0.62948 0.57350
 C248 C 0.10476 0.60581 0.60853
 N249 N 0.10748 0.54988 0.61064
 N250 N 0.07664 0.51895 0.57908
 C251 C 0.04192 0.54281 0.54424
 N252 N 0.03899 0.59855 0.54192
 N253 N 0.57082 0.12913 0.57428
 C254 C 0.60567 0.10516 0.60920
 N255 N 0.60825 0.04921 0.61100
 N256 N 0.57736 0.01855 0.57924
 C257 C 0.54272 0.04270 0.54450
 N258 N 0.53992 0.09847 0.54251
 N259 N 0.60807 0.54997 0.11034
 C260 C 0.60542 0.60591 0.10805
 N261 N 0.57044 0.62951 0.07304
 N262 N 0.53952 0.59853 0.04162
 C263 C 0.54238 0.54279 0.04409
 N264 N 0.57714 0.51898 0.07894
   
