data_POSCAR
  _audit_creation_date              2014-09-24
  _audit_creation_method            'ToBaCCo'
  _symmetry_space_group_name_H-M    'P1'
  _symmetry_Int_Tables_number       1
  _symmetry_cell_setting            triclinic
  loop_
  _symmetry_equiv_pos_as_xyz
 x,y,z
_cell_length_a 37.4172
_cell_length_b 38.0945
_cell_length_c 39.0391
_cell_angle_alpha 89.788600
_cell_angle_beta 89.774200
_cell_angle_gamma 89.867300
loop_
  _atom_site_label
  _atom_site_type_symbol
  _atom_site_fract_x
  _atom_site_fract_y
  _atom_site_fract_z
O1 O 0.32151 0.36419 0.03284
 O2 O 0.36090 0.30855 -0.03308
 O3 O 0.31727 0.36080 -0.03303
 O4 O 0.36568 0.31288 0.03272
 O5 O 0.32186 0.27440 0.03767
 O6 O 0.27054 0.32628 -0.02665
 O7 O 0.31594 0.27131 -0.02874
 O8 O 0.27657 0.32728 0.03937
 Cu9 Cu 0.34578 0.34016 -0.00081
 Cu10 Cu 0.29159 0.29590 0.00563
 C11 C 0.29247 0.35552 0.04745
 C12 C 0.34570 0.28032 -0.04189
 C13 C 0.28525 0.35306 -0.04032
 C14 C 0.35251 0.28558 0.04636
 O15 O 0.63550 0.67682 -0.03398
 O16 O 0.69002 0.64581 0.03758
 O17 O 0.64173 0.69081 0.03278
 O18 O 0.68799 0.62956 -0.02291
 O19 O 0.72249 0.67131 -0.04391
 O20 O 0.68083 0.73205 0.01953
 O21 O 0.73280 0.68226 0.02139
 O22 O 0.67329 0.71967 -0.04526
 Cu23 Cu 0.65887 0.65752 0.00331
 Cu24 Cu 0.70665 0.70565 -0.01292
 C25 C 0.64413 0.70388 -0.05117
 C26 C 0.72172 0.65711 0.04021
 C27 C 0.65347 0.72175 0.03626
 C28 C 0.71344 0.63914 -0.04237
 O29 O 0.61765 0.33663 1.03133
 O30 O 0.65951 0.37870 0.95686
 O31 O 0.61207 0.33089 0.96558
 O32 O 0.66393 0.38653 1.02276
 O33 O 0.70752 0.34761 1.02392
 O34 O 0.65445 0.29052 0.96600
 O35 O 0.70301 0.33950 0.95758
 O36 O 0.66012 0.29637 1.03230
 Cu37 Cu 0.63413 0.36212 0.99419
 Cu38 Cu 0.68568 0.31451 0.99520
 C39 C 0.63112 0.30894 1.04414
 C40 C 0.68836 0.36647 0.94443
 C41 C 0.62401 0.30134 0.95592
 C42 C 0.69474 0.37725 1.03289
 O43 O 0.32685 0.62607 0.97684
 O44 O 0.38026 0.67713 1.03618
 O45 O 0.33196 0.62960 1.04280
 O46 O 0.37268 0.67570 0.97060
 O47 O 0.33155 0.71726 0.97354
 O48 O 0.28730 0.66740 1.04362
 O49 O 0.33770 0.71712 1.04000
 O50 O 0.28417 0.66616 0.97729
 Cu51 Cu 0.35710 0.64821 1.00647
 Cu52 Cu 0.30583 0.69614 1.00905
 C53 C 0.29664 0.63699 0.96672
 C54 C 0.36868 0.70590 1.04805
 C55 C 0.30207 0.63957 1.05489
 C56 C 0.35962 0.70450 0.95999
 O57 O -0.04117 0.36657 0.31169
 O58 O 0.02547 0.32331 0.36568
 O59 O 0.02777 0.36809 0.31633
 O60 O -0.04345 0.32567 0.36394
 O61 O -0.04076 0.27942 0.33029
 O62 O 0.02964 0.32474 0.27894
 O63 O 0.02840 0.27864 0.32990
 O64 O -0.03997 0.32206 0.27559
 Cu65 Cu -0.00806 0.35031 0.34282
 Cu66 Cu -0.00565 0.29671 0.29990
 C67 C -0.05182 0.35198 0.28442
 C68 C 0.03819 0.29357 0.35736
 C69 C 0.04072 0.35434 0.28955
 C70 C -0.05362 0.29496 0.35649
 O71 O 0.04448 0.68138 0.64230
 O72 O -0.03132 0.63252 0.67730
 O73 O -0.01900 0.68132 0.62874
 O74 O 0.03903 0.63626 0.68853
 O75 O 0.02852 0.67689 0.72750
 O76 O -0.03758 0.71811 0.66852
 O77 O -0.03987 0.67170 0.71795
 O78 O 0.03118 0.72551 0.67666
 Cu79 Cu 0.00792 0.65285 0.65635
 Cu80 Cu -0.00507 0.70243 0.70174
 C81 C 0.04921 0.71281 0.65181
 C82 C -0.04792 0.64280 0.70387
 C83 C -0.03749 0.70779 0.63754
 C84 C 0.04432 0.64890 0.71803
 O85 O 1.03115 0.61539 0.33622
 O86 O 0.95642 0.65899 0.37948
 O87 O 0.96221 0.61255 0.33218
 O88 O 1.02561 0.66121 0.38464
 O89 O 1.02665 0.70434 0.34691
 O90 O 0.96336 0.65418 0.29274
 O91 O 0.95726 0.70166 0.34110
 O92 O 1.03279 0.65731 0.29709
 Cu93 Cu 0.99382 0.63292 0.36197
 Cu94 Cu 0.99529 0.68369 0.31554
 C95 C 1.04444 0.62838 0.30905
 C96 C 0.94400 0.68770 0.36791
 C97 C 0.95199 0.62466 0.30353
 C98 C 1.03673 0.69126 0.37537
 O99 O 0.97537 0.33076 0.62416
 O100 O 1.03894 0.38213 0.67397
 O101 O 1.04419 0.33711 0.62526
 O102 O 0.97028 0.37697 0.67200
 O103 O 0.97314 0.33579 0.71184
 O104 O 1.04577 0.29293 0.66181
 O105 O 1.04257 0.33961 0.71235
 O106 O 0.97672 0.28810 0.66255
 Cu107 Cu 1.00695 0.36089 0.64508
 Cu108 Cu 1.00990 0.30978 0.69112
 C109 C 0.96527 0.30071 0.63444
 C110 C 1.05140 0.37003 0.70179
 C111 C 1.05704 0.30777 0.63456
 C112 C 0.95945 0.36396 0.70010
 O113 O 0.37322 0.03030 0.32426
 O114 O 0.31884 -0.03762 0.36503
 O115 O 0.36875 -0.03683 0.31884
 O116 O 0.32389 0.03018 0.36979
 O117 O 0.28249 0.03684 0.33014
 O118 O 0.32891 -0.03067 0.27769
 O119 O 0.27719 -0.03144 0.32557
 O120 O 0.33311 0.03693 0.28340
 Cu121 Cu 0.35003 -0.00433 0.34853
 Cu122 Cu 0.30111 0.00325 0.30013
 C123 C 0.36286 0.04511 0.29687
 C124 C 0.28862 -0.04584 0.35289
 C125 C 0.35746 -0.04447 0.28922
 C126 C 0.29588 0.04523 0.35886
 O127 O 0.63392 0.03366 0.68537
 O128 O 0.67877 -0.03341 0.63453
 O129 O 0.63224 -0.03391 0.68264
 O130 O 0.68083 0.03442 0.63687
 O131 O 0.72464 0.03182 0.67449
 O132 O 0.67448 -0.03719 0.72193
 O133 O 0.72246 -0.03686 0.67223
 O134 O 0.67607 0.03076 0.72474
 Cu135 Cu 0.65226 0.00062 0.65606
 Cu136 Cu 0.70396 -0.00299 0.70222
 C137 C 0.64660 0.04319 0.71393
 C138 C 0.70806 -0.04677 0.64442
 C139 C 0.64461 -0.04713 0.71000
 C140 C 0.71111 0.04460 0.64728
 O141 O 0.37685 0.96214 0.66497
 O142 O 0.32968 1.03283 0.62030
 O143 O 0.37770 1.03014 0.66760
 O144 O 0.33131 0.96537 0.61575
 O145 O 0.28755 0.96249 0.65370
 O146 O 0.33501 1.02833 0.70672
 O147 O 0.28568 1.03050 0.65806
 O148 O 0.33427 0.95984 0.70418
 Cu149 Cu 0.35819 0.99790 0.63845
 Cu150 Cu 0.30626 0.99509 0.68465
 C151 C 0.36395 0.94899 0.69227
 C152 C 0.29939 1.04333 0.63095
 C153 C 0.36483 1.04021 0.69600
 C154 C 0.30143 0.95310 0.62533
 O155 O 0.67550 1.03626 0.37670
 O156 O 0.62917 0.97040 0.32640
 O157 O 0.67471 0.96887 0.37569
 O158 O 0.63215 1.03828 0.32572
 O159 O 0.67678 1.03777 0.28855
 O160 O 0.71987 0.96694 0.33919
 O161 O 0.67316 0.96931 0.28859
 O162 O 0.72181 1.03449 0.34169
 Cu163 Cu 0.64839 1.00360 0.35461
 Cu164 Cu 0.70241 1.00219 0.31059
 C165 C 0.70698 1.04580 0.36897
 C166 C 0.64268 0.95875 0.29888
 C167 C 0.70475 0.95643 0.36656
 C168 C 0.64677 1.04972 0.29854
 C169 C 0.88257 0.74797 0.49871
 C170 C 0.86470 0.75862 0.46919
 C171 C 0.84241 0.78809 0.47044
 C172 C 0.83911 0.80808 0.50085
 C173 C 0.86024 0.79840 0.52943
 C174 C 0.88186 0.76818 0.52863
 C175 C 0.81329 0.83826 0.50292
 C176 C 0.79899 0.84914 0.53487
 C177 C 0.77270 0.87537 0.53647
 C178 C 0.75990 0.89025 0.50615
 C179 C 0.77317 0.87983 0.47430
 C180 C 0.80080 0.85502 0.47281
 H181 H 0.89842 0.72420 0.49766
 H182 H 0.82741 0.79445 0.44767
 H183 H 0.86061 0.81461 0.55207
 H184 H 0.80688 0.83657 0.55854
 H185 H 0.73934 0.91034 0.50738
 H186 H 0.81153 0.84846 0.44793
 C187 C 0.11092 0.24703 0.49733
 C188 C 0.11858 0.23027 0.46642
 C189 C 0.14150 0.20104 0.46645
 C190 C 0.15933 0.19027 0.49683
 C191 C 0.15181 0.20890 0.52744
 C192 C 0.12732 0.23675 0.52784
 C193 C 0.18695 0.16129 0.49637
 C194 C 0.19913 0.14547 0.52725
 C195 C 0.22780 0.12171 0.52704
 C196 C 0.24250 0.11119 0.49585
 C197 C 0.23020 0.12498 0.46491
 C198 C 0.20298 0.15028 0.46518
 H199 H 0.09166 0.26834 0.49761
 H200 H 0.14556 0.18762 0.44247
 H201 H 0.16549 0.20306 0.55106
 H202 H 0.18735 0.15177 0.55174
 H203 H 0.26371 0.09173 0.49570
 H204 H 0.19573 0.16181 0.44090
 C205 C 0.09899 0.76248 0.50992
 C206 C 0.11135 0.78142 0.53795
 C207 C 0.13446 0.80970 0.53270
 C208 C 0.14845 0.81736 0.49965
 C209 C 0.13582 0.79721 0.47168
 C210 C 0.11068 0.77021 0.47660
 C211 C 0.17761 0.84439 0.49500
 C212 C 0.18714 0.85782 0.46218
 C213 C 0.21644 0.88054 0.45829
 C214 C 0.23478 0.89200 0.48724
 C215 C 0.22555 0.88008 0.51991
 C216 C 0.19774 0.85585 0.52356
 H217 H 0.08008 0.74142 0.51435
 H218 H 0.14184 0.82465 0.55498
 H219 H 0.14618 0.80114 0.44613
 H220 H 0.17274 0.85048 0.43941
 H221 H 0.25653 0.91054 0.48415
 H222 H 0.19324 0.84541 0.54891
 C223 C 0.89749 0.23987 0.49815
 C224 C 0.88996 0.22534 0.53022
 C225 C 0.86791 0.19564 0.53239
 C226 C 0.85077 0.18199 0.50283
 C227 C 0.85836 0.19833 0.47087
 C228 C 0.88188 0.22672 0.46846
 C229 C 0.82363 0.15266 0.50542
 C230 C 0.80982 0.13633 0.47557
 C231 C 0.78136 0.11251 0.47752
 C232 C 0.76861 0.10227 0.50970
 C233 C 0.78221 0.11685 0.53964
 C234 C 0.80926 0.14210 0.53756
 H235 H 0.91577 0.26185 0.49631
 H236 H 0.86388 0.18435 0.55745
 H237 H 0.84544 0.19055 0.44751
 H238 H 0.81988 0.14242 0.45038
 H239 H 0.74746 0.08293 0.51157
 H240 H 0.81745 0.15397 0.56127
 C241 C 0.50132 0.88395 0.75508
 C242 C 0.46841 0.86996 0.76492
 C243 C 0.46699 0.84565 0.79198
 C244 C 0.49839 0.83602 0.81009
 C245 C 0.53102 0.85222 0.80041
 C246 C 0.53269 0.87480 0.77211
 C247 C 0.49758 0.80814 0.83758
 C248 C 0.52931 0.79028 0.84734
 C249 C 0.52879 0.76374 0.87230
 C250 C 0.49611 0.75356 0.88648
 C251 C 0.46426 0.76984 0.87675
 C252 C 0.46508 0.79791 0.85349
 H253 H 0.50257 0.90263 0.73407
 H254 H 0.44145 0.83384 0.79767
 H255 H 0.55558 0.84709 0.81396
 H256 H 0.55466 0.79591 0.83529
 H257 H 0.49534 0.73312 0.90587
 H258 H 0.44014 0.81095 0.84778
 C259 C 0.50763 0.11202 0.24269
 C260 C 0.47432 0.12367 0.23140
 C261 C 0.47265 0.14781 0.20428
 C262 C 0.50406 0.15952 0.18721
 C263 C 0.53737 0.14606 0.19869
 C264 C 0.53913 0.12358 0.22714
 C265 C 0.50202 0.18690 0.15917
 C266 C 0.53265 0.20633 0.14888
 C267 C 0.53000 0.23360 0.12474
 C268 C 0.49659 0.24237 0.11145
 C269 C 0.46598 0.22398 0.12109
 C270 C 0.46889 0.19544 0.14356
 H271 H 0.50921 0.09342 0.26374
 H272 H 0.44658 0.15789 0.19786
 H273 H 0.56225 0.15320 0.18650
 H274 H 0.55858 0.20164 0.15998
 H275 H 0.49432 0.26361 0.09300
 H276 H 0.44480 0.18095 0.14904
 C277 C 0.50278 0.10085 0.76596
 C278 C 0.53330 0.11088 0.78382
 C279 C 0.52983 0.13148 0.81332
 C280 C 0.49597 0.14477 0.82360
 C281 C 0.46557 0.13436 0.80450
 C282 C 0.46888 0.11210 0.77616
 C283 C 0.49262 0.17115 0.85224
 C284 C 0.45879 0.17949 0.86672
 C285 C 0.45501 0.20751 0.88953
 C286 C 0.48517 0.22564 0.90045
 C287 C 0.51910 0.21729 0.88790
 C288 C 0.52276 0.19045 0.86363
 H289 H 0.50555 0.08394 0.74380
 H290 H 0.55390 0.13755 0.82721
 H291 H 0.43920 0.14429 0.81016
 H292 H 0.43489 0.16542 0.85990
 H293 H 0.48201 0.24697 0.91856
 H294 H 0.54901 0.18635 0.85284
 C295 C 0.50264 0.89981 0.23314
 C296 C 0.53601 0.88857 0.22132
 C297 C 0.53796 0.86733 0.19214
 C298 C 0.50672 0.85800 0.17383
 C299 C 0.47346 0.87142 0.18565
 C300 C 0.47130 0.89086 0.21600
 C301 C 0.50854 0.83240 0.14447
 C302 C 0.47777 0.81344 0.13436
 C303 C 0.47983 0.78716 0.10943
 C304 C 0.51295 0.77895 0.09481
 C305 C 0.54381 0.79683 0.10439
 C306 C 0.54148 0.82426 0.12811
 H307 H 0.50096 0.91595 0.25592
 H308 H 0.56394 0.85729 0.18511
 H309 H 0.44885 0.86625 0.17228
 H310 H 0.45226 0.81726 0.14678
 H311 H 0.51495 0.75787 0.07629
 H312 H 0.56581 0.83800 0.13421
 C313 C 0.74999 0.49736 0.88016
 C314 C 0.75894 0.46676 0.86268
 C315 C 0.78746 0.46717 0.83945
 C316 C 0.80808 0.49793 0.83448
 C317 C 0.80008 0.52781 0.85474
 C318 C 0.77098 0.52767 0.87768
 C319 C 0.83719 0.49889 0.80791
 C320 C 0.84734 0.53099 0.79222
 C321 C 0.87260 0.53161 0.76554
 C322 C 0.88716 0.49998 0.75392
 C323 C 0.87749 0.46794 0.76870
 C324 C 0.85367 0.46751 0.79643
 H325 H 0.72699 0.49687 0.89707
 H326 H 0.79262 0.44353 0.82505
 H327 H 0.81680 0.55088 0.85341
 H328 H 0.83496 0.55550 0.79963
 H329 H 0.90670 0.50021 0.73333
 H330 H 0.84769 0.44248 0.80821
 C331 C 0.24449 0.49968 0.11381
 C332 C 0.23141 0.46760 0.12551
 C333 C 0.20415 0.46719 0.15012
 C334 C 0.18871 0.49878 0.16262
 C335 C 0.20265 0.53101 0.14986
 C336 C 0.23137 0.53142 0.12658
 C337 C 0.15987 0.49779 0.18993
 C338 C 0.14983 0.52836 0.20846
 C339 C 0.12515 0.52654 0.23559
 C340 C 0.11101 0.49404 0.24507
 C341 C 0.12010 0.46360 0.22736
 C342 C 0.14303 0.46569 0.19909
 H343 H 0.26525 0.49997 0.09436
 H344 H 0.19646 0.44179 0.15978
 H345 H 0.19229 0.55601 0.15810
 H346 H 0.16141 0.55367 0.20309
 H347 H 0.09218 0.49241 0.26621
 H348 H 0.14779 0.44168 0.18530
 C349 C 0.77276 0.51519 0.08887
 C350 C 0.79168 0.54345 0.10225
 C351 C 0.81706 0.53771 0.12781
 C352 C 0.82204 0.50392 0.14236
 C353 C 0.80189 0.47572 0.12870
 C354 C 0.77758 0.48114 0.10176
 C355 C 0.84614 0.49877 0.17291
 C356 C 0.85795 0.46485 0.18307
 C357 C 0.87766 0.46023 0.21326
 C358 C 0.88808 0.48951 0.23210
 C359 C 0.87794 0.52332 0.22233
 C360 C 0.85647 0.52780 0.19333
 H361 H 0.75349 0.52006 0.06872
 H362 H 0.83195 0.56021 0.13642
 H363 H 0.80344 0.44972 0.13966
 H364 H 0.85166 0.44178 0.16831
 H365 H 0.90467 0.48581 0.25455
 H366 H 0.84726 0.55408 0.18793
 C367 C 0.22827 0.49749 0.90991
 C368 C 0.21773 0.53028 0.89757
 C369 C 0.19083 0.53238 0.87285
 C370 C 0.17356 0.50175 0.86065
 C371 C 0.18444 0.46884 0.87445
 C372 C 0.21283 0.46665 0.89771
 C373 C 0.14695 0.50405 0.83173
 C374 C 0.13856 0.47413 0.81176
 C375 C 0.11639 0.47678 0.78298
 C376 C 0.10329 0.50968 0.77324
 C377 C 0.11129 0.53968 0.79207
 C378 C 0.13161 0.53669 0.82196
 H379 H 0.24956 0.49588 0.92864
 H380 H 0.18526 0.55802 0.86233
 H381 H 0.17226 0.44456 0.86657
 H382 H 0.15004 0.44872 0.81713
 H383 H 0.08664 0.51214 0.75067
 H384 H 0.13594 0.56033 0.83649
 C385 C 0.29897 0.40484 0.08841
 C386 C 0.27695 0.37972 0.07296
 C387 C 0.23994 0.38074 0.07925
 C388 C 0.22501 0.40821 0.09841
 C389 C 0.24697 0.43481 0.11155
 C390 C 0.28416 0.43198 0.10760
 H391 H 0.32764 0.40437 0.08446
 H392 H 0.22239 0.36166 0.06762
 H393 H 0.19624 0.40988 0.10110
 H394 H 0.30171 0.45178 0.11807
 C395 C 0.73267 0.62214 0.09277
 C396 C 0.74618 0.63734 0.06260
 C397 C 0.77905 0.62543 0.04940
 C398 C 0.79605 0.59621 0.06408
 C399 C 0.78065 0.57924 0.09243
 C400 C 0.74987 0.59339 0.10764
 H401 H 0.70716 0.63059 0.10312
 H402 H 0.78951 0.63621 0.02570
 H403 H 0.81955 0.58527 0.05181
 H404 H 0.73750 0.58034 0.12935
 C405 C 0.74254 0.38261 0.90981
 C406 C 0.70553 0.38532 0.91560
 C407 C 0.68571 0.40991 0.89661
 C408 C 0.70299 0.43396 0.87527
 C409 C 0.74042 0.43405 0.87278
 C410 C 0.75991 0.40693 0.88854
 H411 H 0.75843 0.36376 0.92397
 H412 H 0.65706 0.41218 0.90006
 H413 H 0.68745 0.45460 0.86325
 H414 H 0.78883 0.40670 0.88723
 C415 C 0.29381 0.58741 0.92571
 C416 C 0.27596 0.61426 0.94351
 C417 C 0.23846 0.61619 0.94180
 C418 C 0.21914 0.59000 0.92478
 C419 C 0.23718 0.56173 0.90938
 C420 C 0.27464 0.56149 0.90884
 H421 H 0.32270 0.58552 0.92609
 H422 H 0.22407 0.63662 0.95530
 H423 H 0.19021 0.59062 0.92547
 H424 H 0.28910 0.54021 0.89666
 C425 C 0.08369 0.29705 0.40333
 C426 C 0.06365 0.27631 0.38091
 C427 C 0.06550 0.23952 0.38395
 C428 C 0.08503 0.22395 0.41069
 C429 C 0.10304 0.24504 0.43449
 C430 C 0.10334 0.28161 0.42959
 H431 H 0.08320 0.32541 0.40129
 H432 H 0.05019 0.22296 0.36697
 H433 H 0.08440 0.19571 0.41389
 H434 H 0.11767 0.29845 0.44709
 C435 C 0.06328 0.76974 0.62262
 C436 C 0.07299 0.73495 0.63059
 C437 C 0.10012 0.71868 0.61137
 C438 C 0.11460 0.73534 0.58268
 C439 C 0.10239 0.76864 0.57272
 C440 C 0.07789 0.78651 0.59369
 H441 H 0.04201 0.78265 0.63668
 H442 H 0.10805 0.69188 0.61689
 H443 H 0.13359 0.72123 0.56683
 H444 H 0.06806 0.81218 0.58625
 C445 C 0.91090 0.74209 0.38551
 C446 C 0.91522 0.70547 0.38730
 C447 C 0.89517 0.68639 0.41148
 C448 C 0.87445 0.70381 0.43587
 C449 C 0.87368 0.74064 0.43673
 C450 C 0.89028 0.75960 0.41017
 H451 H 0.92591 0.75742 0.36701
 H452 H 0.89747 0.65808 0.41306
 H453 H 0.86170 0.68866 0.45600
 H454 H 0.89030 0.78803 0.41050
 C455 C 0.91982 0.29823 0.58834
 C456 C 0.94102 0.28034 0.61231
 C457 C 0.94158 0.24339 0.61199
 C458 C 0.92330 0.22488 0.58641
 C459 C 0.90421 0.24316 0.56103
 C460 C 0.90150 0.27987 0.56318
 H461 H 0.91845 0.32664 0.58825
 H462 H 0.95781 0.22899 0.63018
 H463 H 0.92575 0.19657 0.58530
 H464 H 0.88633 0.29456 0.54436
 C465 C 0.41364 0.08696 0.29993
 C466 C 0.38684 0.07095 0.28039
 C467 C 0.38603 0.07691 0.24485
 C468 C 0.41333 0.09620 0.22887
 C469 C 0.44163 0.10986 0.24828
 C470 C 0.44061 0.10632 0.28408
 H471 H 0.41461 0.08329 0.32744
 H472 H 0.36566 0.06484 0.22920
 H473 H 0.41355 0.09852 0.20121
 H474 H 0.46168 0.11720 0.29972
 C475 C 0.62014 0.06193 0.77005
 C476 C 0.62510 0.06762 0.73474
 C477 C 0.60380 0.09258 0.71792
 C478 C 0.57588 0.10911 0.73517
 C479 C 0.56848 0.10082 0.76951
 C480 C 0.59179 0.07843 0.78740
 H481 H 0.63607 0.04250 0.78343
 H482 H 0.60722 0.09751 0.69075
 H483 H 0.55835 0.12652 0.72100
 H484 H 0.58639 0.07161 0.81387
 C485 C 0.41151 0.90328 0.69280
 C486 C 0.38500 0.92201 0.71060
 C487 C 0.38217 0.91781 0.74632
 C488 C 0.40767 0.89792 0.76419
 C489 C 0.43608 0.88194 0.74646
 C490 C 0.43667 0.88334 0.71053
 H491 H 0.41399 0.90557 0.66523
 H492 H 0.36194 0.93195 0.76064
 H493 H 0.40682 0.89733 0.79192
 H494 H 0.45813 0.87091 0.69630
 C495 C 0.62310 0.93372 0.24255
 C496 C 0.62120 0.93402 0.27851
 C497 C 0.59463 0.91416 0.29505
 C498 C 0.56859 0.89693 0.27615
 C499 C 0.56837 0.89932 0.24029
 C500 C 0.59674 0.91647 0.22351
 H501 H 0.64328 0.94892 0.22922
 H502 H 0.59284 0.91354 0.32275
 H503 H 0.54732 0.88336 0.28964
 H504 H 0.59706 0.91868 0.19584
 C505 C 0.38339 0.27355 0.90653
 C506 C 0.36470 0.25768 0.93362
 C507 C 0.37123 0.22219 0.94144
 C508 C 0.39887 0.20403 0.92466
 C509 C 0.41971 0.22124 0.89982
 C510 C 0.41055 0.25543 0.88967
 H511 H 0.37887 0.30092 0.90022
 H512 H 0.35747 0.20969 0.96266
 H513 H 0.40588 0.17778 0.93304
 H514 H 0.42647 0.26911 0.87063
 C515 C 0.59083 0.69657 0.91142
 C516 C 0.61878 0.71783 0.92320
 C517 C 0.61969 0.75335 0.91335
 C518 C 0.59150 0.76796 0.89453
 C519 C 0.56214 0.74720 0.88514
 C520 C 0.56294 0.71106 0.89243
 H521 H 0.58971 0.66899 0.91817
 H522 H 0.64093 0.77033 0.92207
 H523 H 0.59153 0.79591 0.88936
 H524 H 0.54104 0.69427 0.88485
 C525 C 0.42311 0.71008 0.08407
 C526 C 0.39293 0.72660 0.06990
 C527 C 0.38926 0.76319 0.07311
 C528 C 0.41668 0.78305 0.08793
 C529 C 0.44803 0.76652 0.09955
 C530 C 0.45032 0.72980 0.09867
 H531 H 0.42652 0.68189 0.08244
 H532 H 0.36633 0.77660 0.06235
 H533 H 0.41437 0.81139 0.08843
 H534 H 0.47393 0.71643 0.10807
 C535 C 0.58436 0.30845 0.08972
 C536 C 0.61126 0.29052 0.07166
 C537 C 0.61525 0.25415 0.07677
 C538 C 0.59049 0.23561 0.09690
 C539 C 0.56160 0.25328 0.11220
 C540 C 0.55988 0.29004 0.10987
 H541 H 0.58092 0.33653 0.08669
 H542 H 0.63577 0.23968 0.06316
 H543 H 0.59225 0.20725 0.09823
 H544 H 0.53806 0.30428 0.12179
 C545 C 0.24227 0.06964 0.60869
 C546 C 0.27986 0.06946 0.61010
 C547 C 0.29914 0.09120 0.58763
 C548 C 0.28155 0.11044 0.56241
 C549 C 0.24431 0.10820 0.55889
 C550 C 0.22455 0.08890 0.58309
 H551 H 0.22682 0.05299 0.62569
 H552 H 0.32807 0.09190 0.58839
 H553 H 0.29728 0.12552 0.54425
 H554 H 0.19581 0.08676 0.58075
 C555 C 0.76279 0.07195 0.39017
 C556 C 0.72545 0.06729 0.39213
 C557 C 0.70695 0.08174 0.42023
 C558 C 0.72525 0.09790 0.44672
 C559 C 0.76270 0.09970 0.44642
 C560 C 0.78131 0.08779 0.41730
 H561 H 0.77796 0.06142 0.36886
 H562 H 0.67815 0.07969 0.42244
 H563 H 0.71001 0.10810 0.46815
 H564 H 0.81019 0.08915 0.41623
 C565 C 0.76266 0.92308 0.62064
 C566 C 0.72529 0.92681 0.62216
 C567 C 0.70411 0.90809 0.59893
 C568 C 0.71987 0.88860 0.57282
 C569 C 0.75716 0.88750 0.56925
 C570 C 0.77855 0.90354 0.59419
 H571 H 0.77955 0.93727 0.63827
 H572 H 0.67523 0.91003 0.59983
 H573 H 0.70290 0.87619 0.55400
 H574 H 0.80739 0.90315 0.59174
 C575 C 0.28400 0.90187 0.39062
 C576 C 0.26670 0.92870 0.37234
 C577 C 0.23002 0.93457 0.37803
 C578 C 0.21196 0.91624 0.40418
 C579 C 0.23040 0.89168 0.42445
 C580 C 0.26599 0.88345 0.41627
 H581 H 0.31221 0.89678 0.38664
 H582 H 0.21624 0.95540 0.36447
 H583 H 0.18464 0.92328 0.41040
 H584 H 0.28072 0.86470 0.43170
 C585 C 0.09137 0.42182 0.70673
 C586 C 0.07475 0.39289 0.72241
 C587 C 0.07689 0.38904 0.75818
 C588 C 0.09274 0.41531 0.77806
 C589 C 0.10668 0.44563 0.76237
 C590 C 0.10727 0.44782 0.72647
 H591 H 0.09060 0.42524 0.67918
 H592 H 0.06423 0.36701 0.77091
 H593 H 0.09196 0.41304 0.80571
 H594 H 0.11852 0.47057 0.71371
 C595 C 0.07669 0.61126 0.25502
 C596 C 0.07229 0.60814 0.29070
 C597 C 0.09121 0.58183 0.30828
 C598 C 0.11139 0.55716 0.29033
 C599 C 0.11290 0.55809 0.25441
 C600 C 0.09685 0.58629 0.23695
 H601 H 0.06238 0.63130 0.24085
 H602 H 0.08875 0.57908 0.33581
 H603 H 0.12390 0.53588 0.30437
 H604 H 0.09753 0.58743 0.20923
 C605 C 0.89553 0.39077 0.27869
 C606 C 0.92283 0.37150 0.26278
 C607 C 0.92979 0.37680 0.22773
 C608 C 0.91221 0.40381 0.20986
 C609 C 0.88739 0.42529 0.22693
 C610 C 0.87776 0.41722 0.26084
 H611 H 0.88974 0.38706 0.30567
 H612 H 0.95108 0.36243 0.21513
 H613 H 0.92025 0.40988 0.18383
 H614 H 0.85868 0.43352 0.27445
 C615 C 0.91770 0.61970 0.75449
 C616 C 0.92470 0.61951 0.71907
 C617 C 0.90887 0.59357 0.69873
 C618 C 0.88905 0.56665 0.71376
 C619 C 0.88497 0.56481 0.74950
 C620 C 0.89800 0.59243 0.76965
 H621 H 0.92963 0.63941 0.77075
 H622 H 0.91337 0.59306 0.67131
 H623 H 0.87871 0.54600 0.69759
 H624 H 0.89528 0.59155 0.79727
 C625 C 0.73065 0.57850 0.95089
 C626 C 0.73173 0.61332 0.93900
 C627 C 0.75091 0.62077 0.90871
 C628 C 0.76508 0.59321 0.88887
 C629 C 0.76186 0.55813 0.90005
 C630 C 0.74661 0.55168 0.93242
 H631 H 0.71778 0.57184 0.97497
 H632 H 0.75278 0.64743 0.89915
 H633 H 0.77704 0.59924 0.86427
 H634 H 0.74575 0.52546 0.94318
 C635 C 0.28504 0.40233 0.92020
 C636 C 0.26625 0.37599 0.93806
 C637 C 0.22855 0.37639 0.93697
 C638 C 0.21038 0.40492 0.92194
 C639 C 0.22975 0.43278 0.90726
 C640 C 0.26703 0.43007 0.90484
 H641 H 0.31399 0.40251 0.91934
 H642 H 0.21316 0.35638 0.95012
 H643 H 0.18153 0.40631 0.92373
 H644 H 0.28251 0.45069 0.89268
 C645 C 0.30429 0.59077 0.09490
 C646 C 0.28497 0.61813 0.07923
 C647 C 0.24786 0.62045 0.08541
 C648 C 0.23004 0.59334 0.10301
 C649 C 0.24930 0.56428 0.11544
 C650 C 0.28674 0.56458 0.11315
 H651 H 0.33301 0.58863 0.09184
 H652 H 0.23215 0.64138 0.07410
 H653 H 0.20115 0.59390 0.10474
 H654 H 0.30238 0.54313 0.12361
 C655 C 0.75044 0.39385 0.06224
 C656 C 0.71461 0.40065 0.05320
 C657 C 0.69920 0.43272 0.06355
 C658 C 0.71930 0.45786 0.08065
 C659 C 0.75557 0.45203 0.08778
 C660 C 0.77073 0.41936 0.07930
 H661 H 0.76325 0.36944 0.05501
 H662 H 0.67159 0.43896 0.05782
 H663 H 0.70654 0.48236 0.08769
 H664 H 0.79864 0.41413 0.08455
 C665 C 0.91385 0.74727 0.61936
 C666 C 0.94363 0.72586 0.61209
 C667 C 0.95507 0.72266 0.57794
 C668 C 0.93669 0.73914 0.55167
 C669 C 0.90457 0.75717 0.55812
 C670 C 0.89386 0.76204 0.59246
 H671 H 0.90470 0.75073 0.64549
 H672 H 0.97893 0.70791 0.57138
 H673 H 0.94745 0.73683 0.52600
 H674 H 0.86946 0.77603 0.59852
 C675 C 0.91835 0.24128 0.37891
 C676 C 0.92275 0.27801 0.37913
 C677 C 0.90672 0.29741 0.40577
 C678 C 0.89057 0.28051 0.43333
 C679 C 0.89025 0.24380 0.43525
 C680 C 0.90248 0.22424 0.40705
 H681 H 0.92991 0.22550 0.35865
 H682 H 0.90836 0.32580 0.40641
 H683 H 0.88031 0.29617 0.45431
 H684 H 0.90219 0.19583 0.40790
 C685 C 0.08978 0.25514 0.61613
 C686 C 0.08200 0.29123 0.61300
 C687 C 0.09633 0.30983 0.58490
 C688 C 0.11429 0.29229 0.55882
 C689 C 0.11790 0.25566 0.55975
 C690 C 0.10730 0.23739 0.58943
 H691 H 0.07965 0.24002 0.63760
 H692 H 0.09206 0.33783 0.58202
 H693 H 0.12325 0.30714 0.53668
 H694 H 0.11005 0.20912 0.59084
 C695 C 0.07223 0.69383 0.42750
 C696 C 0.05923 0.71006 0.39755
 C697 C 0.06757 0.74569 0.39179
 C698 C 0.08587 0.76510 0.41670
 C699 C 0.09665 0.74913 0.44755
 C700 C 0.09092 0.71297 0.45187
 H701 H 0.06731 0.66629 0.43267
 H702 H 0.05836 0.75910 0.36895
 H703 H 0.08999 0.79292 0.41259
 H704 H 0.09994 0.69956 0.47478
 C705 C 0.61796 0.92739 0.76357
 C706 C 0.62266 0.92652 0.72784
 C707 C 0.60148 0.90402 0.70820
 C708 C 0.57402 0.88498 0.72343
 C709 C 0.56693 0.88833 0.75858
 C710 C 0.59005 0.90836 0.77892
 H711 H 0.63391 0.94482 0.77911
 H712 H 0.60486 0.90272 0.68065
 H713 H 0.55681 0.86924 0.70738
 H714 H 0.58496 0.91127 0.80609
 C715 C 0.38356 0.93783 0.23248
 C716 C 0.37975 0.93208 0.26793
 C717 C 0.40256 0.90804 0.28423
 C718 C 0.43064 0.89253 0.26631
 C719 C 0.43667 0.90082 0.23172
 C720 C 0.41199 0.92227 0.21443
 H721 H 0.36647 0.95650 0.21942
 H722 H 0.40006 0.90293 0.31146
 H723 H 0.44910 0.87567 0.28002
 H724 H 0.41621 0.92901 0.18774
 C725 C 0.62441 0.07283 0.24238
 C726 C 0.62697 0.07587 0.27818
 C727 C 0.60494 0.09996 0.29532
 C728 C 0.57853 0.11821 0.27763
 C729 C 0.57338 0.11248 0.24252
 C730 C 0.59755 0.09103 0.22459
 H731 H 0.64096 0.05414 0.22873
 H732 H 0.60657 0.10287 0.32287
 H733 H 0.56026 0.13482 0.29187
 H734 H 0.59382 0.08613 0.19753
 C735 C 0.38305 0.06564 0.75271
 C736 C 0.38619 0.06475 0.71682
 C737 C 0.41336 0.08435 0.70088
 C738 C 0.43863 0.10203 0.72036
 C739 C 0.43745 0.10043 0.75626
 C740 C 0.40860 0.08338 0.77235
 H741 H 0.36237 0.05073 0.76564
 H742 H 0.41615 0.08462 0.67325
 H743 H 0.46031 0.11547 0.70738
 H744 H 0.40722 0.08176 0.80002
 C745 C 0.61637 0.73131 0.08805
 C746 C 0.63334 0.74552 0.05905
 C747 C 0.62487 0.77995 0.04874
 C748 C 0.59734 0.79850 0.06535
 C749 C 0.57853 0.78285 0.09258
 C750 C 0.58930 0.74983 0.10469
 H751 H 0.62240 0.70481 0.09645
 H752 H 0.63725 0.79122 0.02613
 H753 H 0.58903 0.82381 0.05544
 H754 H 0.57493 0.73730 0.12554
 C755 C 0.38056 0.23082 0.06991
 C756 C 0.37437 0.26715 0.07196
 C757 C 0.39454 0.28736 0.09471
 C758 C 0.42252 0.27226 0.11291
 C759 C 0.43110 0.23671 0.10848
 C760 C 0.40898 0.21561 0.08813
 H761 H 0.36547 0.21491 0.05219
 H762 H 0.39008 0.31539 0.09675
 H763 H 0.43904 0.28887 0.12878
 H764 H 0.41530 0.18813 0.08436
 C765 C 0.57239 0.29546 0.91643
 C766 C 0.60122 0.27961 0.93352
 C767 C 0.60564 0.24300 0.93129
 C768 C 0.58008 0.22249 0.91436
 C769 C 0.54994 0.23841 0.89951
 C770 C 0.54713 0.27513 0.89960
 H771 H 0.56854 0.32364 0.91715
 H772 H 0.62766 0.23011 0.94417
 H773 H 0.58272 0.19417 0.91464
 H774 H 0.52439 0.28803 0.88788
 C775 C 0.38291 0.75993 0.93334
 C776 C 0.37885 0.72326 0.93254
 C777 C 0.39831 0.70366 0.90850
 C778 C 0.42382 0.71983 0.88785
 C779 C 0.43058 0.75586 0.89104
 C780 C 0.40886 0.77620 0.91269
 H781 H 0.36826 0.77549 0.95185
 H782 H 0.39538 0.67540 0.90721
 H783 H 0.44019 0.70376 0.87113
 H784 H 0.41389 0.80402 0.91561
 C785 C 0.76003 0.92773 0.38996
 C786 C 0.72258 0.93109 0.38954
 C787 C 0.70226 0.91355 0.41453
 C788 C 0.71897 0.89522 0.44087
 C789 C 0.75639 0.89415 0.44296
 C790 C 0.77687 0.90934 0.41660
 H791 H 0.77630 0.94112 0.37102
 H792 H 0.67336 0.91530 0.41460
 H793 H 0.70262 0.88303 0.46053
 H794 H 0.80578 0.90874 0.41768
 C795 C 0.30098 0.91426 0.57418
 C796 C 0.28246 0.92905 0.60201
 C797 C 0.24542 0.92366 0.60487
 C798 C 0.22696 0.90593 0.57902
 C799 C 0.24531 0.89335 0.55003
 C800 C 0.28262 0.89658 0.54853
 H801 H 0.32960 0.91752 0.57148
 H802 H 0.23048 0.93480 0.62602
 H803 H 0.19815 0.90379 0.58074
 H804 H 0.29750 0.88648 0.52682
 C805 C 0.29990 0.08978 0.40481
 C806 C 0.27888 0.07196 0.38081
 C807 C 0.24166 0.07701 0.38106
 C808 C 0.22555 0.09699 0.40703
 C809 C 0.24659 0.11216 0.43276
 C810 C 0.28394 0.10979 0.43040
 H811 H 0.32871 0.08681 0.40482
 H812 H 0.22493 0.06354 0.36276
 H813 H 0.19668 0.09840 0.40847
 H814 H 0.30069 0.12167 0.44972
 C815 C 0.76828 0.06974 0.62385
 C816 C 0.73075 0.07022 0.62591
 C817 C 0.71145 0.09159 0.60312
 C818 C 0.72889 0.10940 0.57676
 C819 C 0.76598 0.10625 0.57263
 C820 C 0.78584 0.08767 0.59722
 H821 H 0.78373 0.05335 0.64104
 H822 H 0.68254 0.09278 0.60435
 H823 H 0.71315 0.12377 0.55812
 H824 H 0.81449 0.08481 0.59428
 C825 C 0.92599 0.60695 0.24683
 C826 C 0.92761 0.60312 0.28263
 C827 C 0.90826 0.57589 0.29837
 C828 C 0.88988 0.55148 0.27871
 C829 C 0.89063 0.55352 0.24281
 C830 C 0.90765 0.58224 0.22702
 H831 H 0.94064 0.62774 0.23406
 H832 H 0.90849 0.57261 0.32594
 H833 H 0.87640 0.52997 0.29153
 H834 H 0.90867 0.58431 0.19936
 C835 C 0.93310 0.38601 0.75524
 C836 C 0.93194 0.38354 0.71933
 C837 C 0.90804 0.40494 0.70109
 C838 C 0.88812 0.43052 0.71793
 C839 C 0.89175 0.43536 0.75333
 C840 C 0.91308 0.41193 0.77221
 H841 H 0.95153 0.36991 0.76979
 H842 H 0.90641 0.40334 0.67344
 H843 H 0.87149 0.44809 0.70296
 H844 H 0.91627 0.41534 0.79956
 C845 C 0.09681 0.61055 0.72701
 C846 C 0.06790 0.62903 0.74122
 C847 C 0.05768 0.62212 0.77528
 C848 C 0.07392 0.59458 0.79356
 C849 C 0.10054 0.57407 0.77788
 C850 C 0.11300 0.58339 0.74519
 H851 H 0.10516 0.61545 0.70082
 H852 H 0.03512 0.63576 0.78655
 H853 H 0.06385 0.58757 0.81871
 H854 H 0.13359 0.56791 0.73275
 C855 C 0.09267 0.39393 0.29001
 C856 C 0.06801 0.37455 0.27089
 C857 C 0.06515 0.38068 0.23550
 C858 C 0.08434 0.40827 0.22019
 C859 C 0.10643 0.42967 0.24027
 C860 C 0.11175 0.42115 0.27484
 H861 H 0.09532 0.38956 0.31733
 H862 H 0.04590 0.36629 0.22042
 H863 H 0.07989 0.41453 0.19346
 H864 H 0.12898 0.43713 0.29064
   
