data_POSCAR
  _audit_creation_date              2014-09-24
  _audit_creation_method            'ToBaCCo'
  _symmetry_space_group_name_H-M    'P1'
  _symmetry_Int_Tables_number       1
  _symmetry_cell_setting            triclinic
  loop_
  _symmetry_equiv_pos_as_xyz
 x,y,z
_cell_length_a 48.0939
_cell_length_b 47.0988
_cell_length_c 40.8933
_cell_angle_alpha 89.975200
_cell_angle_beta 90.047900
_cell_angle_gamma 89.963000
loop_
  _atom_site_label
  _atom_site_type_symbol
  _atom_site_fract_x
  _atom_site_fract_y
  _atom_site_fract_z
C1 C 1.20939 0.25594 0.30095
 H2 H 1.21028 0.23299 0.30081
 C3 C 1.19029 0.26987 0.32102
 H4 H 1.17644 0.25746 0.33621
 C5 C 1.22547 0.29986 0.27993
 H6 H 1.23917 0.31149 0.26390
 C7 C 1.20669 0.31464 0.29957
 H8 H 1.20626 0.33761 0.29856
 N9 N 1.22581 0.27100 0.28017
 C10 C 1.23484 0.21512 0.19620
 H11 H 1.25719 0.21322 0.19421
 C12 C 1.21761 0.20083 0.17414
 H13 H 1.22686 0.18794 0.15512
 C14 C 1.19564 0.23476 0.22301
 H15 H 1.18703 0.24832 0.24168
 C16 C 1.17770 0.22094 0.20151
 H17 H 1.15548 0.22344 0.20462
 Zn18 Zn 1.24761 0.25024 0.25000
 N19 N 1.22363 0.23123 0.22045
 C20 C 1.26641 0.19552 0.26955
 N21 N 1.26926 0.22389 0.27426
 C22 C 1.28629 0.23412 0.29792
 C23 C 1.30171 0.21565 0.31761
 C24 C 1.28135 0.17621 0.28865
 C25 C 1.25676 0.29313 0.20427
 C26 C 1.27177 0.31223 0.18506
 C27 C 1.31423 0.29347 0.20813
 C28 C 1.29838 0.27467 0.22690
 N29 N 1.27014 0.27511 0.22498
 H30 H 1.25239 0.18766 0.25102
 H31 H 1.28755 0.25680 0.30189
 H32 H 1.31377 0.22530 0.33689
 H33 H 1.27902 0.15407 0.28241
 H34 H 1.23430 0.29280 0.20293
 H35 H 1.26063 0.32681 0.16930
 H36 H 1.33668 0.29273 0.20987
 H37 H 1.30868 0.25975 0.24290
 C38 C 1.18859 0.20351 0.17683
 C39 C 1.18828 0.29959 0.31982
 C40 C 1.30092 0.31270 0.18696
 C41 C 1.29966 0.18578 0.31353
 C42 C 0.71206 -0.23271 0.29616
 H43 H 0.71003 -0.25525 0.30065
 C44 C 0.69637 -0.21341 0.31439
 H45 H 0.68231 -0.22133 0.33292
 C46 C 0.73389 -0.19508 0.26758
 H47 H 0.74893 -0.18794 0.24982
 C48 C 0.71865 -0.17505 0.28528
 H49 H 0.72168 -0.15270 0.28026
 N50 N 0.73022 -0.22333 0.27309
 C51 C 0.74409 -0.29540 0.20737
 H52 H 0.76658 -0.29573 0.20743
 C53 C 0.72939 -0.31483 0.18825
 H54 H 0.74076 -0.32992 0.17343
 C55 C 0.70210 -0.27468 0.22600
 H56 H 0.69154 -0.25886 0.24053
 C57 C 0.68655 -0.29369 0.20716
 H58 H 0.66408 -0.29257 0.20789
 Zn59 Zn 0.75233 -0.25074 0.25116
 N60 N 0.73034 -0.27609 0.22608
 C61 C 0.77214 -0.29952 0.28520
 N62 N 0.77258 -0.27069 0.28349
 C63 C 0.78849 -0.25503 0.30423
 C64 C 0.80625 -0.26838 0.32644
 C65 C 0.78951 -0.31375 0.30712
 C66 C 0.76753 -0.21720 0.19700
 C67 C 0.78570 -0.20321 0.17577
 C68 C 0.82436 -0.22305 0.20584
 C69 C 0.80550 -0.23658 0.22646
 N70 N 0.77766 -0.23294 0.22223
 H71 H 0.75894 -0.31158 0.26900
 H72 H 0.78812 -0.23210 0.30262
 H73 H 0.81929 -0.25558 0.34220
 H74 H 0.78978 -0.33673 0.30714
 H75 H 0.74529 -0.21519 0.19370
 H76 H 0.77728 -0.19050 0.15603
 H77 H 0.84641 -0.22552 0.21035
 H78 H 0.81326 -0.24989 0.24591
 C79 C 0.70020 -0.31422 0.18805
 C80 C 0.69959 -0.18411 0.30910
 C81 C 0.81455 -0.20580 0.18033
 C82 C 0.80732 -0.29814 0.32758
 C83 C 0.71200 0.26819 -0.20480
 H84 H 0.70934 0.24565 -0.20071
 C85 C 0.69657 0.28767 -0.18652
 H86 H 0.68164 0.27990 -0.16886
 C87 C 0.73496 0.30555 -0.23257
 H88 H 0.75050 0.31252 -0.24982
 C89 C 0.71995 0.32577 -0.21486
 H90 H 0.72406 0.34809 -0.21893
 N91 N 0.73065 0.27734 -0.22745
 C92 C 0.74426 0.20492 -0.29294
 H93 H 0.76675 0.20422 -0.29246
 C94 C 0.72951 0.18556 -0.31212
 H95 H 0.74086 0.17017 -0.32657
 C96 C 0.70235 0.22640 -0.27525
 H97 H 0.69184 0.24247 -0.26103
 C98 C 0.68676 0.20747 -0.29416
 H99 H 0.66430 0.20892 -0.29380
 Zn100 Zn 0.75262 0.24956 -0.24908
 N101 N 0.73058 0.22456 -0.27463
 C102 C 0.77140 0.20045 -0.21465
 N103 N 0.77208 0.22927 -0.21633
 C104 C 0.78798 0.24479 -0.19543
 C105 C 0.80549 0.23127 -0.17308
 C106 C 0.78854 0.18606 -0.19260
 C107 C 0.76991 0.28355 -0.30230
 C108 C 0.78897 0.29722 -0.32274
 C109 C 0.82618 0.27488 -0.29264
 C110 C 0.80639 0.26181 -0.27286
 N111 N 0.77888 0.26690 -0.27735
 H112 H 0.75824 0.18851 -0.23102
 H113 H 0.78785 0.26771 -0.19706
 H114 H 0.81854 0.24396 -0.15722
 H115 H 0.78866 0.16307 -0.19264
 H116 H 0.74784 0.28686 -0.30578
 H117 H 0.78039 0.31159 -0.34066
 H118 H 0.84756 0.26891 -0.28845
 H119 H 0.81321 0.24727 -0.25410
 C120 C 0.70034 0.18656 -0.31280
 C121 C 0.70051 0.31694 -0.19135
 C122 C 0.81803 0.29370 -0.31796
 C123 C 0.80638 0.20150 -0.17200
 C124 C 1.20930 -0.24400 -0.19970
 H125 H 1.21005 -0.26696 -0.20005
 C126 C 1.19028 -0.23009 -0.17952
 H127 H 1.17635 -0.24251 -0.16445
 C128 C 1.22566 -0.20005 -0.22032
 H129 H 1.23945 -0.18840 -0.23624
 C130 C 1.20696 -0.18528 -0.20056
 H131 H 1.20667 -0.16230 -0.20138
 N132 N 1.22581 -0.22891 -0.22035
 C133 C 1.23438 -0.28438 -0.30468
 H134 H 1.25673 -0.28635 -0.30673
 C135 C 1.21708 -0.29865 -0.32666
 H136 H 1.22626 -0.31156 -0.34571
 C137 C 1.19529 -0.26469 -0.27771
 H138 H 1.18676 -0.25113 -0.25898
 C139 C 1.17727 -0.27848 -0.29914
 H140 H 1.15506 -0.27596 -0.29594
 Zn141 Zn 1.24740 -0.24960 -0.25075
 N142 N 1.22326 -0.26830 -0.28036
 C143 C 1.26553 -0.30464 -0.23171
 N144 N 1.26891 -0.27627 -0.22682
 C145 C 1.28629 -0.26635 -0.20319
 C146 C 1.30147 -0.28522 -0.18373
 C147 C 1.28030 -0.32423 -0.21283
 C148 C 1.25656 -0.20650 -0.29612
 C149 C 1.27155 -0.18738 -0.31532
 C150 C 1.31405 -0.20657 -0.29283
 C151 C 1.29822 -0.22538 -0.27405
 N152 N 1.26998 -0.22473 -0.27569
 H153 H 1.25098 -0.31221 -0.24982
 H154 H 1.28821 -0.24371 -0.19936
 H155 H 1.31547 -0.27686 -0.16536
 H156 H 1.27698 -0.34670 -0.21683
 H157 H 1.23409 -0.20667 -0.29725
 H158 H 1.26040 -0.17263 -0.33084
 H159 H 1.33651 -0.20748 -0.29132
 H160 H 1.30853 -0.24048 -0.25828
 C161 C 1.18808 -0.29596 -0.32383
 C162 C 1.18845 -0.20036 -0.18048
 C163 C 1.30071 -0.18712 -0.31371
 C164 C 1.29856 -0.31463 -0.18841
 C165 C 0.25574 0.20540 0.70604
 H166 H 0.23325 0.20496 0.70621
 C167 C 0.27045 0.18662 0.68610
 H168 H 0.25909 0.17188 0.67080
 C169 C 0.29771 0.22584 0.72516
 H170 H 0.30825 0.24132 0.74019
 C171 C 0.31327 0.20746 0.70553
 H172 H 0.33574 0.20869 0.70615
 N173 N 0.26948 0.22426 0.72536
 C174 C 0.21139 0.24313 0.80415
 H175 H 0.21171 0.26609 0.80335
 C176 C 0.19383 0.22919 0.82603
 H177 H 0.18165 0.24207 0.84256
 C178 C 0.22812 0.19930 0.78395
 H179 H 0.24137 0.18771 0.76735
 C180 C 0.21102 0.18443 0.80554
 H181 H 0.21113 0.16153 0.80390
 Zn182 Zn 0.24747 0.24889 0.75130
 N183 N 0.22736 0.22810 0.78296
 C184 C 0.19425 0.26353 0.72691
 N185 N 0.22208 0.26734 0.72292
 C186 C 0.23221 0.28350 0.69808
 C187 C 0.21404 0.29760 0.67689
 C188 C 0.17539 0.27716 0.70631
 C189 C 0.28766 0.26569 0.79697
 C190 C 0.30335 0.28446 0.81591
 C191 C 0.28126 0.32362 0.78793
 C192 C 0.26601 0.30409 0.76950
 N193 N 0.26958 0.27571 0.77413
 H194 H 0.18651 0.24991 0.74606
 H195 H 0.25445 0.28564 0.69496
 H196 H 0.22246 0.31053 0.65738
 H197 H 0.15333 0.27445 0.71055
 H198 H 0.28962 0.24304 0.80072
 H199 H 0.31734 0.27602 0.83426
 H200 H 0.27833 0.34610 0.78361
 H201 H 0.25105 0.31173 0.75187
 C202 C 0.19276 0.19923 0.82661
 C203 C 0.29964 0.18741 0.68574
 C204 C 0.30022 0.31389 0.81157
 C205 C 0.18519 0.29469 0.68109
 C206 C 0.76801 0.71619 0.69670
 H207 H 0.74585 0.71317 0.69374
 C208 C 0.78660 0.70218 0.67596
 H209 H 0.77858 0.68802 0.65737
 C210 C 0.80536 0.73791 0.72498
 H211 H 0.81271 0.75232 0.74358
 C212 C 0.82461 0.72449 0.70478
 H213 H 0.84655 0.72864 0.70832
 N214 N 0.77767 0.73302 0.72123
 C215 C 0.71185 0.73330 0.79500
 H216 H 0.70995 0.75590 0.79920
 C217 C 0.69607 0.71430 0.81352
 H218 H 0.68272 0.72313 0.83217
 C219 C 0.73369 0.69536 0.76726
 H220 H 0.74871 0.68797 0.74962
 C221 C 0.71841 0.67556 0.78525
 H222 H 0.72140 0.65338 0.77951
 Zn223 Zn 0.75219 0.75087 0.74999
 N224 N 0.73004 0.72364 0.77220
 C225 C 0.70200 0.77493 0.72471
 N226 N 0.73025 0.77622 0.72480
 C227 C 0.74406 0.79552 0.70616
 C228 C 0.72942 0.81511 0.68715
 C229 C 0.68651 0.79411 0.70599
 C230 C 0.78858 0.75515 0.80271
 C231 C 0.80670 0.76843 0.82452
 C232 C 0.78990 0.81387 0.80535
 C233 C 0.77216 0.79969 0.78382
 N234 N 0.77248 0.77086 0.78219
 H235 H 0.69139 0.75911 0.73918
 H236 H 0.76655 0.79576 0.70624
 H237 H 0.74084 0.83023 0.67242
 H238 H 0.66404 0.79312 0.70674
 H239 H 0.78814 0.73222 0.80114
 H240 H 0.81992 0.75559 0.84005
 H241 H 0.79029 0.83685 0.80525
 H242 H 0.75883 0.81180 0.76778
 C243 C 0.69907 0.68468 0.80906
 C244 C 0.81536 0.70593 0.68026
 C245 C 0.80796 0.79819 0.82548
 C246 C 0.70023 0.81468 0.68700
 C247 C 0.76836 0.21618 0.19609
 H248 H 0.74621 0.21312 0.19307
 C249 C 0.78701 0.20227 0.17534
 H250 H 0.77904 0.18813 0.15669
 C251 C 0.80563 0.23792 0.22450
 H252 H 0.81291 0.25230 0.24316
 C253 C 0.82493 0.22458 0.20431
 H254 H 0.84685 0.22877 0.20790
 N255 N 0.77795 0.23298 0.22068
 C256 C 0.71194 0.23307 0.29421
 H257 H 0.70985 0.25566 0.29831
 C258 C 0.69617 0.21399 0.31262
 H259 H 0.68198 0.22213 0.33089
 C260 C 0.73403 0.19513 0.26646
 H261 H 0.74923 0.18778 0.24902
 C262 C 0.71871 0.17530 0.28437
 H263 H 0.72182 0.15289 0.27978
 Zn264 Zn 0.75238 0.25073 0.24939
 N265 N 0.73025 0.22344 0.27145
 C266 C 0.70224 0.27470 0.22393
 N267 N 0.73048 0.27605 0.22416
 C268 C 0.74433 0.29539 0.20561
 C269 C 0.72973 0.31496 0.18654
 C270 C 0.68679 0.29386 0.20514
 C271 C 0.78863 0.25498 0.30222
 C272 C 0.80664 0.26827 0.32413
 C273 C 0.78976 0.31370 0.30505
 C274 C 0.77212 0.29952 0.28341
 N275 N 0.77254 0.27070 0.28169
 H276 H 0.69160 0.25884 0.23832
 H277 H 0.76682 0.29567 0.20581
 H278 H 0.74118 0.33011 0.17189
 H279 H 0.66431 0.29282 0.20578
 H280 H 0.78826 0.23206 0.30056
 H281 H 0.81987 0.25543 0.33967
 H282 H 0.79007 0.33668 0.30503
 H283 H 0.75879 0.31163 0.26736
 C284 C 0.69947 0.18464 0.30785
 C285 C 0.81575 0.20607 0.17971
 C286 C 0.80781 0.29803 0.32519
 C287 C 0.70054 0.31446 0.18625
 C288 C 0.25613 0.70571 0.20666
 H289 H 0.23363 0.70541 0.20663
 C290 C 0.27085 0.68685 0.18680
 H291 H 0.25948 0.67222 0.17137
 C292 C 0.29810 0.72584 0.22618
 H293 H 0.30864 0.74122 0.24134
 C294 C 0.31366 0.70739 0.20663
 H295 H 0.33614 0.70847 0.20745
 N296 N 0.26985 0.72445 0.22614
 C297 C 0.21183 0.74386 0.30495
 H298 H 0.21243 0.76682 0.30415
 C299 C 0.19409 0.73014 0.32681
 H300 H 0.18130 0.74268 0.34312
 C301 C 0.22763 0.69971 0.28428
 H302 H 0.24063 0.68793 0.26758
 C303 C 0.21024 0.68511 0.30581
 H304 H 0.20975 0.66214 0.30504
 Zn305 Zn 0.24787 0.74923 0.25200
 N306 N 0.22750 0.72858 0.28360
 C307 C 0.19476 0.76410 0.22755
 N308 N 0.22260 0.76784 0.22355
 C309 C 0.23275 0.78400 0.19872
 C310 C 0.21460 0.79815 0.17755
 C311 C 0.17592 0.77779 0.20697
 C312 C 0.28795 0.76591 0.29788
 C313 C 0.30362 0.78453 0.31703
 C314 C 0.28186 0.82376 0.28900
 C315 C 0.26669 0.80429 0.27041
 N316 N 0.27006 0.77595 0.27497
 H317 H 0.18698 0.75051 0.24670
 H318 H 0.25500 0.78609 0.19560
 H319 H 0.22305 0.81108 0.15804
 H320 H 0.15385 0.77513 0.21121
 H321 H 0.28963 0.74324 0.30175
 H322 H 0.31635 0.77499 0.33580
 H323 H 0.27902 0.84589 0.28297
 H324 H 0.25202 0.81198 0.25249
 C325 C 0.19273 0.70037 0.32695
 C326 C 0.30004 0.68745 0.18667
 C327 C 0.30095 0.81438 0.31321
 C328 C 0.18574 0.79530 0.18174
 O329 O 0.95040 -0.04037 -0.05841
 O330 O 0.97571 -0.07201 -0.02758
 C331 C 0.95724 -0.06588 -0.04959
 O332 O 1.05094 0.03824 -0.05687
 O333 O 1.02481 0.07014 -0.02757
 C334 C 1.04431 0.06379 -0.04816
 O335 O 1.04732 -0.04077 -0.06014
 O336 O 1.02269 -0.07220 -0.02838
 C337 C 1.04056 -0.06621 -0.05107
 O338 O 0.94798 0.03881 -0.05559
 O339 O 0.97500 0.07041 -0.02693
 C340 C 0.95507 0.06429 -0.04708
 Zr341 Zr 0.96433 -0.00075 -0.04054
 O342 O 0.96299 -0.00224 -0.09234
 O343 O 0.92049 -0.00127 -0.03696
 Zr344 Zr 1.03412 -0.00106 -0.04181
 O345 O 1.03169 0.00174 -0.09341
 O346 O 1.07794 -0.00456 -0.04433
 O347 O 0.99906 -0.02641 -0.04736
 O348 O 0.99930 0.02417 -0.04722
 O349 O 0.94875 0.03901 0.05638
 O350 O 0.97563 0.07050 0.02735
 C351 C 0.95593 0.06446 0.04782
 O352 O 1.04934 -0.04057 0.05857
 O353 O 1.02350 -0.07211 0.02835
 C354 C 1.04218 -0.06605 0.05012
 O355 O 1.05236 0.03850 0.05505
 O356 O 1.02532 0.07029 0.02661
 C357 C 1.04534 0.06403 0.04660
 O358 O 0.95128 -0.04004 0.06007
 O359 O 0.97618 -0.07180 0.02906
 C360 C 0.95804 -0.06559 0.05137
 Zr361 Zr 0.96542 -0.00054 0.04199
 O362 O 0.96783 0.00283 0.09356
 O363 O 0.92154 -0.00271 0.04418
 Zr364 Zr 1.03517 -0.00090 0.04098
 O365 O 1.03363 0.00256 0.09260
 O366 O 1.07902 -0.00422 0.04270
 Zr367 Zr 0.99966 -0.04335 0.00034
 Zr368 Zr 1.00006 0.04187 -0.00004
 O369 O 1.00048 0.02435 0.04731
 O370 O 1.00026 -0.02631 0.04802
 O371 O 0.95961 0.02466 0.00067
 O372 O 1.03980 -0.02555 -0.00044
 O373 O 0.95964 -0.02533 0.00086
 O374 O 1.04036 0.02415 -0.00059
 H375 H 0.99936 0.03743 -0.06601
 H376 H 1.05631 -0.03814 -0.00075
 H377 H 1.00072 0.03752 0.06621
 H378 H 0.94304 -0.03777 0.00110
 H379 H 1.08583 0.00938 -0.02883
 H380 H 1.08653 0.00883 0.02597
 H381 H 1.02516 -0.01505 0.10122
 H382 H 0.97682 -0.01463 0.10190
 H383 H 0.91436 0.00745 0.02475
 H384 H 0.91334 -0.00191 -0.05969
 H385 H 0.97246 0.01477 -0.10108
 H386 H 1.01850 -0.01304 -0.10086
 O387 O 0.94979 0.45971 0.44174
 O388 O 0.97512 0.42799 0.47242
 C389 C 0.95662 0.43418 0.45047
 O390 O 1.05058 0.53810 0.44345
 O391 O 1.02457 0.56997 0.47297
 C392 C 1.04403 0.56364 0.45230
 O393 O 1.04675 0.45900 0.44002
 O394 O 1.02228 0.42755 0.47196
 C395 C 1.04007 0.43355 0.44917
 O396 O 0.94780 0.53898 0.44467
 O397 O 0.97554 0.57045 0.47258
 C398 C 0.95535 0.56443 0.45275
 Zr399 Zr 0.96385 0.49924 0.45969
 O400 O 0.96240 0.49783 0.40789
 O401 O 0.92001 0.49886 0.46328
 Zr402 Zr 1.03364 0.49880 0.45831
 O403 O 1.03111 0.50168 0.40672
 O404 O 1.07744 0.49524 0.45551
 O405 O 0.99853 0.47352 0.45272
 O406 O 0.99887 0.52406 0.45305
 O407 O 0.94833 0.53871 0.55679
 O408 O 0.97505 0.57025 0.52765
 C409 C 0.95542 0.56418 0.54819
 O410 O 1.04896 0.45916 0.55858
 O411 O 1.02321 0.42773 0.52810
 C412 C 1.04183 0.43372 0.54997
 O413 O 1.05191 0.53826 0.55539
 O414 O 1.02479 0.57007 0.52710
 C415 C 1.04483 0.56379 0.54705
 O416 O 0.95098 0.45966 0.56031
 O417 O 0.97590 0.42798 0.52924
 C418 C 0.95780 0.43413 0.55161
 Zr419 Zr 0.96505 0.49922 0.54227
 O420 O 0.96758 0.50251 0.59385
 O421 O 0.92117 0.49701 0.54461
 Zr422 Zr 1.03488 0.49886 0.54100
 O423 O 1.03384 0.50218 0.59264
 O424 O 1.07876 0.49548 0.54199
 Zr425 Zr 0.99917 0.45652 0.50039
 Zr426 Zr 0.99962 0.54169 0.50029
 O427 O 1.00014 0.52406 0.54757
 O428 O 0.99993 0.47347 0.54810
 O429 O 0.95915 0.52455 0.50100
 O430 O 1.03935 0.47425 0.49957
 O431 O 0.95916 0.47457 0.50105
 O432 O 1.03994 0.52399 0.49953
 H433 H 0.99906 0.53726 0.43421
 H434 H 1.05587 0.46169 0.49920
 H435 H 1.00038 0.53718 0.56651
 H436 H 0.94257 0.46211 0.50132
 H437 H 1.08538 0.50872 0.47151
 H438 H 1.08621 0.50952 0.52631
 H439 H 1.02478 0.48487 0.60124
 H440 H 0.97655 0.48501 0.60212
 H441 H 0.91396 0.50700 0.52508
 H442 H 0.91286 0.49844 0.44055
 H443 H 0.97202 0.51475 0.39915
 H444 H 1.01806 0.48679 0.39924
 O445 O 0.53881 0.05066 0.55824
 O446 O 0.56987 0.02477 0.52764
 C447 C 0.56383 0.04350 0.54981
 O448 O 0.46172 -0.05180 0.55592
 O449 O 0.43045 -0.02495 0.52669
 C450 C 0.43666 -0.04477 0.54752
 O451 O 0.53916 -0.04882 0.55872
 O452 O 0.57005 -0.02321 0.52756
 C453 C 0.56413 -0.04171 0.55004
 O454 O 0.46147 0.05346 0.55487
 O455 O 0.43032 0.02581 0.52655
 C456 C 0.43644 0.04605 0.54685
 Zr457 Zr 0.50007 0.03605 0.54057
 O458 O 0.49913 0.03100 0.59190
 O459 O 0.50073 0.08073 0.54562
 Zr460 Zr 0.50028 -0.03505 0.54048
 O461 O 0.49763 -0.03388 0.59216
 O462 O 0.50350 -0.07987 0.54132
 O463 O 0.52528 0.00061 0.54672
 O464 O 0.47558 0.00050 0.54651
 O465 O 0.46102 0.05267 0.44256
 O466 O 0.43012 0.02560 0.47192
 C467 C 0.43607 0.04546 0.45107
 O468 O 0.53888 -0.04892 0.43951
 O469 O 0.56992 -0.02307 0.47017
 C470 C 0.56388 -0.04165 0.44784
 O471 O 0.46142 -0.05182 0.44266
 O472 O 0.43031 -0.02488 0.47192
 C473 C 0.43641 -0.04472 0.45109
 O474 O 0.53844 0.05050 0.43950
 O475 O 0.56964 0.02516 0.47053
 C476 C 0.56348 0.04354 0.44802
 Zr477 Zr 0.49982 0.03630 0.45791
 O478 O 0.49660 0.03547 0.40626
 O479 O 0.50232 0.08119 0.45759
 Zr480 Zr 0.50009 -0.03509 0.45788
 O481 O 0.49674 -0.03408 0.40625
 O482 O 0.50337 -0.07992 0.45718
 Zr483 Zr 0.54180 0.00070 0.49897
 Zr484 Zr 0.45823 0.00045 0.49926
 O485 O 0.47554 0.00053 0.45201
 O486 O 0.52492 0.00069 0.45135
 O487 O 0.47522 0.04177 0.49929
 O488 O 0.52438 -0.04028 0.49911
 O489 O 0.52410 0.04156 0.49915
 O490 O 0.47540 -0.04079 0.49924
 H491 H 0.46286 0.00054 0.56556
 H492 H 0.53684 -0.05704 0.49908
 H493 H 0.46286 0.00049 0.43290
 H494 H 0.53646 0.05837 0.49907
 H495 H 0.48884 -0.08749 0.52681
 H496 H 0.48866 -0.08754 0.47160
 H497 H 0.51308 -0.02373 0.39769
 H498 H 0.51285 0.02493 0.39774
 H499 H 0.48742 0.08845 0.47202
 H500 H 0.50489 0.08869 0.52383
 H501 H 0.49852 0.05043 0.60114
 H502 H 0.51287 -0.02160 0.60017
 O503 O 0.53899 0.55064 0.05814
 O504 O 0.56999 0.52478 0.02742
 C505 C 0.56398 0.54348 0.04964
 O506 O 0.46208 0.44798 0.05625
 O507 O 0.43064 0.47473 0.02716
 C508 C 0.43697 0.45493 0.04796
 O509 O 0.53942 0.45107 0.05861
 O510 O 0.57014 0.47639 0.02695
 C511 C 0.56433 0.45802 0.04961
 O512 O 0.46164 0.55337 0.05518
 O513 O 0.43039 0.52561 0.02715
 C514 C 0.43658 0.54590 0.04737
 Zr515 Zr 0.50020 0.53601 0.04064
 O516 O 0.49950 0.53100 0.09198
 O517 O 0.50076 0.58070 0.04563
 Zr518 Zr 0.50050 0.46492 0.04063
 O519 O 0.49806 0.46630 0.09231
 O520 O 0.50376 0.42010 0.04166
 O521 O 0.52551 0.50061 0.04668
 O522 O 0.47578 0.50042 0.04680
 O523 O 0.46077 0.55252 -0.05708
 O524 O 0.43001 0.52552 -0.02741
 C525 C 0.43586 0.54532 -0.04837
 O526 O 0.53864 0.45093 -0.06060
 O527 O 0.56978 0.47655 -0.02985
 C528 C 0.56367 0.45808 -0.05227
 O529 O 0.46122 0.44830 -0.05719
 O530 O 0.43020 0.47570 -0.02838
 C531 C 0.43623 0.45570 -0.04900
 O532 O 0.53818 0.55049 -0.06059
 O533 O 0.56957 0.52521 -0.02976
 C534 C 0.56328 0.54360 -0.05222
 Zr535 Zr 0.49965 0.53618 -0.04199
 O536 O 0.49624 0.53528 -0.09362
 O537 O 0.50205 0.58107 -0.04240
 Zr538 Zr 0.49997 0.46483 -0.04196
 O539 O 0.49649 0.46565 -0.09359
 O540 O 0.50322 0.41999 -0.04238
 Zr541 Zr 0.54188 0.50073 -0.00116
 Zr542 Zr 0.45823 0.50030 -0.00033
 O543 O 0.47540 0.50043 -0.04769
 O544 O 0.52479 0.50062 -0.04868
 O545 O 0.47519 0.54163 -0.00048
 O546 O 0.52441 0.45973 -0.00088
 O547 O 0.52408 0.54154 -0.00090
 O548 O 0.47542 0.45907 -0.00047
 H549 H 0.46312 0.50043 0.06591
 H550 H 0.53678 0.44290 -0.00099
 H551 H 0.46275 0.50047 -0.06683
 H552 H 0.53643 0.55837 -0.00105
 H553 H 0.48946 0.41246 0.02669
 H554 H 0.48810 0.41239 -0.02855
 H555 H 0.51263 0.47627 -0.10223
 H556 H 0.51255 0.52490 -0.10223
 H557 H 0.48732 0.58831 -0.02772
 H558 H 0.50520 0.58866 0.02392
 H559 H 0.49887 0.55044 0.10121
 H560 H 0.51349 0.47840 0.10020
 C561 C 1.12605 0.18431 0.12470
 C562 C 1.13166 0.15586 0.11745
 C563 C 1.15648 0.14342 0.12818
 C564 C 1.17538 0.15916 0.14672
 C565 C 1.16964 0.18757 0.15486
 C566 C 1.14494 0.20010 0.14325
 C567 C 1.11148 0.13884 0.10047
 C568 C 1.09496 0.12357 0.08706
 C569 C 1.07638 0.10435 0.07223
 C570 C 1.06149 0.08666 0.06020
 H571 H 1.10690 0.19413 0.11649
 H572 H 1.16094 0.12136 0.12282
 H573 H 1.19402 0.14880 0.15564
 H574 H 1.14013 0.22205 0.14874
 C575 C 1.12537 0.68452 0.62450
 C576 C 1.13098 0.65604 0.61744
 C577 C 1.15585 0.64369 0.62813
 C578 C 1.17480 0.65954 0.64646
 C579 C 1.16906 0.68799 0.65440
 C580 C 1.14431 0.70044 0.64284
 C581 C 1.11079 0.63890 0.60066
 C582 C 1.09428 0.62352 0.58739
 C583 C 1.07576 0.60419 0.57268
 C584 C 1.06093 0.58643 0.56070
 H585 H 1.10618 0.69428 0.61631
 H586 H 1.16032 0.62159 0.62291
 H587 H 1.19347 0.64925 0.65536
 H588 H 1.13950 0.72241 0.64821
 C589 C 0.67690 0.11774 0.64707
 C590 C 0.65316 0.12665 0.63011
 C591 C 0.64501 0.15517 0.63153
 C592 C 0.66038 0.17466 0.64994
 C593 C 0.68419 0.16591 0.66724
 C594 C 0.69234 0.13721 0.66548
 C595 C 0.63659 0.10658 0.61195
 C596 C 0.62181 0.09043 0.59701
 C597 C 0.60322 0.07253 0.57991
 C598 C 0.58605 0.05843 0.56580
 H599 H 0.68334 0.09570 0.64632
 H600 H 0.62667 0.16233 0.61852
 H601 H 0.65376 0.19663 0.65040
 H602 H 0.71036 0.12971 0.67883
 C603 C 0.64484 0.65449 0.13245
 C604 C 0.65326 0.62608 0.13051
 C605 C 0.67718 0.61719 0.14714
 C606 C 0.69254 0.63661 0.16572
 C607 C 0.68412 0.66519 0.16799
 C608 C 0.66012 0.67391 0.15103
 C609 C 0.63678 0.60610 0.11217
 C610 C 0.62203 0.59005 0.09708
 C611 C 0.60343 0.57229 0.07984
 C612 C 0.58623 0.55831 0.06565
 H613 H 0.62635 0.66162 0.11969
 H614 H 0.68382 0.59523 0.14599
 H615 H 0.71072 0.62914 0.17880
 H616 H 0.65330 0.69581 0.15188
 C617 C 0.84831 -0.14564 0.13342
 C618 C 0.87365 -0.15790 0.12428
 C619 C 0.87921 -0.18625 0.13213
 C620 C 0.85969 -0.20213 0.14965
 C621 C 0.83439 -0.18978 0.15957
 C622 C 0.82879 -0.16145 0.15092
 C623 C 0.89412 -0.14086 0.10785
 C624 C 0.91062 -0.12549 0.09456
 C625 C 0.92881 -0.10610 0.07938
 C626 C 0.94305 -0.08828 0.06656
 H627 H 0.84385 -0.12367 0.12754
 H628 H 0.89874 -0.19595 0.12509
 H629 H 0.86444 -0.22401 0.15560
 H630 H 0.80971 -0.15122 0.15858
 C631 C 0.84972 0.33641 0.61523
 C632 C 0.87679 0.33973 0.62686
 C633 C 0.88456 0.32701 0.65623
 C634 C 0.86527 0.31137 0.67430
 C635 C 0.83733 0.30803 0.66353
 C636 C 0.83025 0.32080 0.63314
 C637 C 0.89611 0.35764 0.60971
 C638 C 0.91180 0.37355 0.59589
 C639 C 0.92927 0.39335 0.58020
 C640 C 0.94309 0.41135 0.56706
 H641 H 0.84353 0.34608 0.59230
 H642 H 0.90542 0.32981 0.66573
 H643 H 0.87243 0.30369 0.69771
 H644 H 0.81005 0.31825 0.62203
 C645 C 0.32456 -0.14072 0.61556
 C646 C 0.34795 -0.12749 0.62907
 C647 C 0.35588 -0.13374 0.66122
 C648 C 0.34057 -0.15313 0.67980
 C649 C 0.31705 -0.16659 0.66646
 C650 C 0.30918 -0.16011 0.63412
 C651 C 0.36441 -0.10816 0.60982
 C652 C 0.37907 -0.09240 0.59424
 C653 C 0.39752 -0.07465 0.57681
 C654 C 0.41458 -0.06036 0.56281
 H655 H 0.31833 -0.13621 0.59063
 H656 H 0.37398 -0.12367 0.67193
 H657 H 0.34696 -0.15734 0.70473
 H658 H 0.29140 -0.17037 0.62300
 C659 C 0.32506 0.35879 0.11608
 C660 C 0.34828 0.37223 0.12972
 C661 C 0.35599 0.36625 0.16201
 C662 C 0.34062 0.34691 0.18060
 C663 C 0.31728 0.33322 0.16713
 C664 C 0.30963 0.33944 0.13465
 C665 C 0.36480 0.39151 0.11046
 C666 C 0.37950 0.40724 0.09487
 C667 C 0.39795 0.42497 0.07739
 C668 C 0.41497 0.43927 0.06335
 H669 H 0.31901 0.36309 0.09104
 H670 H 0.37395 0.37649 0.17282
 H671 H 0.34683 0.34290 0.20564
 H672 H 0.29198 0.32901 0.12343
 C673 C 0.83965 0.14631 -0.11688
 C674 C 0.86709 0.15613 -0.11533
 C675 C 0.87436 0.18148 -0.13094
 C676 C 0.85439 0.19667 -0.14862
 C677 C 0.82690 0.18661 -0.15099
 C678 C 0.81966 0.16144 -0.13457
 C679 C 0.88797 0.13920 -0.09936
 C680 C 0.90495 0.12397 -0.08664
 C681 C 0.92390 0.10475 -0.07239
 C682 C 0.93895 0.08702 -0.06064
 H683 H 0.83382 0.12667 -0.10491
 H684 H 0.89558 0.18915 -0.13009
 H685 H 0.86070 0.21575 -0.16138
 H686 H 0.79862 0.15333 -0.13566
 C687 C 0.87542 0.68204 0.36844
 C688 C 0.86816 0.65678 0.38426
 C689 C 0.84071 0.64700 0.38295
 C690 C 0.82068 0.66206 0.36526
 C691 C 0.82790 0.68712 0.34862
 C692 C 0.85540 0.69718 0.35078
 C693 C 0.88905 0.63985 0.40018
 C694 C 0.90595 0.62453 0.41289
 C695 C 0.92471 0.60515 0.42717
 C696 C 0.93954 0.58728 0.43900
 H697 H 0.89665 0.68968 0.36912
 H698 H 0.83490 0.62743 0.39509
 H699 H 0.79962 0.65398 0.36434
 H700 H 0.86167 0.71619 0.33785
 C701 C 0.32270 0.11905 0.35438
 C702 C 0.34597 0.12846 0.37157
 C703 C 0.35363 0.15697 0.36979
 C704 C 0.33828 0.17605 0.35078
 C705 C 0.31458 0.16714 0.33269
 C706 C 0.30719 0.13797 0.33527
 C707 C 0.36273 0.10883 0.39013
 C708 C 0.37767 0.09294 0.40523
 C709 C 0.39645 0.07516 0.42223
 C710 C 0.41376 0.06093 0.43595
 H711 H 0.31642 0.09698 0.35575
 H712 H 0.37191 0.16446 0.38268
 H713 H 0.34641 0.19736 0.34930
 H714 H 0.28877 0.12938 0.32391
 C715 C 0.33343 0.65062 -0.11513
 C716 C 0.34490 0.62625 -0.12932
 C717 C 0.34095 0.62102 -0.16269
 C718 C 0.32575 0.64012 -0.18185
 C719 C 0.31433 0.66483 -0.16790
 C720 C 0.31823 0.66978 -0.13425
 C721 C 0.36195 0.60736 -0.11013
 C722 C 0.37709 0.59196 -0.09465
 C723 C 0.39605 0.57462 -0.07735
 C724 C 0.41347 0.56064 -0.06350
 H725 H 0.33644 0.65494 -0.08935
 H726 H 0.34994 0.60236 -0.17402
 H727 H 0.32344 0.63587 -0.20773
 H728 H 0.30939 0.68837 -0.12267
 C729 C 1.13836 -0.17904 -0.11301
 C730 C 1.12419 -0.15650 -0.12791
 C731 C 1.13097 -0.14842 -0.15982
 C732 C 1.15191 -0.16266 -0.17680
 C733 C 1.16644 -0.18522 -0.16204
 C734 C 1.15933 -0.19341 -0.13002
 C735 C 1.10372 -0.14050 -0.11017
 C736 C 1.08727 -0.12572 -0.09592
 C737 C 1.06920 -0.10675 -0.07986
 C738 C 1.05516 -0.08904 -0.06653
 H739 H 1.13343 -0.18529 -0.08819
 H740 H 1.12020 -0.13094 -0.17153
 H741 H 1.15655 -0.15621 -0.20162
 H742 H 1.17028 -0.21057 -0.11798
 C743 C 1.13823 0.32099 0.38732
 C744 C 1.12396 0.34343 0.37235
 C745 C 1.13066 0.35142 0.34038
 C746 C 1.15161 0.33718 0.32342
 C747 C 1.16624 0.31473 0.33823
 C748 C 1.15922 0.30664 0.37032
 C749 C 1.10344 0.35941 0.39008
 C750 C 1.08695 0.37414 0.40432
 C751 C 1.06882 0.39307 0.42039
 C752 C 1.05473 0.41074 0.43372
 H753 H 1.13337 0.31481 0.41218
 H754 H 1.11981 0.36883 0.32862
 H755 H 1.15617 0.34356 0.29855
 H756 H 1.17025 0.28955 0.38242
 C757 C 0.68032 -0.11826 0.35795
 C758 C 0.65240 -0.12367 0.36528
 C759 C 0.63994 -0.14875 0.35425
 C760 C 0.65526 -0.16837 0.33600
 C761 C 0.68333 -0.16318 0.32847
 C762 C 0.69570 -0.13787 0.33965
 C763 C 0.63626 -0.10363 0.38395
 C764 C 0.62170 -0.08762 0.39934
 C765 C 0.60325 -0.06999 0.41695
 C766 C 0.58610 -0.05619 0.43146
 H767 H 0.69021 -0.09895 0.36641
 H768 H 0.61831 -0.15312 0.35966
 H769 H 0.64501 -0.18742 0.32740
 H770 H 0.71737 -0.13341 0.33465
 C771 C 0.65932 0.38277 -0.16784
 C772 C 0.65417 0.37776 -0.13465
 C773 C 0.66449 0.35309 -0.11988
 C774 C 0.67968 0.33341 -0.13824
 C775 C 0.68475 0.33810 -0.17171
 C776 C 0.67453 0.36312 -0.18625
 C777 C 0.63712 0.39714 -0.11614
 C778 C 0.62202 0.41270 -0.10084
 C779 C 0.60317 0.42995 -0.08327
 C780 C 0.58588 0.44356 -0.06874
 H781 H 0.65124 0.40166 -0.17962
 H782 H 0.66058 0.34892 -0.09424
 H783 H 0.68760 0.31459 -0.12618
 H784 H 0.67779 0.36723 -0.21201
 C785 C 1.12819 0.18232 -0.12574
 C786 C 1.13296 0.15400 -0.11739
 C787 C 1.15801 0.14104 -0.12606
 C788 C 1.17800 0.15605 -0.14375
 C789 C 1.17335 0.18452 -0.15334
 C790 C 1.14815 0.19750 -0.14337
 C791 C 1.11185 0.13763 -0.10119
 C792 C 1.09472 0.12275 -0.08828
 C793 C 1.07564 0.10384 -0.07383
 C794 C 1.06051 0.08631 -0.06192
 H795 H 1.10874 0.19250 -0.11931
 H796 H 1.16202 0.11914 -0.11940
 H797 H 1.19727 0.14521 -0.14913
 H798 H 1.14279 0.21888 -0.15065
 C799 C 1.15934 0.64463 0.38110
 C800 C 1.13208 0.65484 0.38335
 C801 C 1.12495 0.68058 0.36845
 C802 C 1.14489 0.69578 0.35081
 C803 C 1.17221 0.68534 0.34776
 C804 C 1.17930 0.65975 0.36343
 C805 C 1.11122 0.63802 0.39943
 C806 C 1.09426 0.62288 0.41228
 C807 C 1.07532 0.60379 0.42670
 C808 C 1.06025 0.58619 0.43859
 H809 H 1.16506 0.62470 0.39253
 H810 H 1.10386 0.68858 0.36986
 H811 H 1.13870 0.71520 0.33864
 H812 H 1.20022 0.65136 0.36184
 C813 C 0.63960 0.14987 0.35312
 C814 C 0.65204 0.12496 0.36476
 C815 C 0.68001 0.11946 0.35777
 C816 C 0.69547 0.13881 0.33922
 C817 C 0.68313 0.16395 0.32744
 C818 C 0.65499 0.16923 0.33462
 C819 C 0.63582 0.10519 0.38369
 C820 C 0.62122 0.08937 0.39926
 C821 C 0.60274 0.07191 0.41703
 C822 C 0.58562 0.05817 0.43161
 H823 H 0.61793 0.15431 0.35827
 H824 H 0.68988 0.10028 0.36670
 H825 H 0.71717 0.13430 0.33448
 H826 H 0.64477 0.18815 0.32556
 C827 C 0.67729 0.61733 -0.14860
 C828 C 0.65208 0.62558 -0.13459
 C829 C 0.64242 0.65327 -0.13912
 C830 C 0.65780 0.67269 -0.15754
 C831 C 0.68340 0.66488 -0.17207
 C832 C 0.69279 0.63666 -0.16711
 C833 C 0.63566 0.60568 -0.11606
 C834 C 0.62095 0.58977 -0.10074
 C835 C 0.60243 0.57219 -0.08317
 C836 C 0.58533 0.55834 -0.06866
 H837 H 0.68507 0.59594 -0.14510
 H838 H 0.62273 0.65982 -0.12868
 H839 H 0.64872 0.69343 -0.16130
 H840 H 0.71261 0.62944 -0.17634
 C841 C 0.84274 -0.14711 -0.12024
 C842 C 0.87013 -0.15718 -0.11950
 C843 C 0.87691 -0.18253 -0.13539
 C844 C 0.85648 -0.19749 -0.15255
 C845 C 0.82902 -0.18717 -0.15409
 C846 C 0.82230 -0.16199 -0.13742
 C847 C 0.89135 -0.14055 -0.10383
 C848 C 0.90843 -0.12547 -0.09113
 C849 C 0.92724 -0.10632 -0.07658
 C850 C 0.94191 -0.08860 -0.06426
 H851 H 0.83729 -0.12748 -0.10801
 H852 H 0.89808 -0.19041 -0.13513
 H853 H 0.86237 -0.21660 -0.16553
 H854 H 0.80130 -0.15371 -0.13789
 C855 C 0.84229 0.35269 0.37974
 C856 C 0.86971 0.34275 0.38046
 C857 C 0.87662 0.31747 0.36449
 C858 C 0.85627 0.30247 0.34726
 C859 C 0.82877 0.31268 0.34572
 C860 C 0.82193 0.33777 0.36248
 C861 C 0.89086 0.35944 0.39617
 C862 C 0.90788 0.37458 0.40888
 C863 C 0.92663 0.39376 0.42344
 C864 C 0.94128 0.41150 0.43577
 H865 H 0.83675 0.37227 0.39202
 H866 H 0.89783 0.30969 0.36474
 H867 H 0.86225 0.28343 0.33420
 H868 H 0.80089 0.34597 0.36202
 C869 C 0.32344 -0.11881 0.35422
 C870 C 0.34716 -0.12796 0.37080
 C871 C 0.35540 -0.15627 0.36837
 C872 C 0.34014 -0.17543 0.34943
 C873 C 0.31593 -0.16683 0.33207
 C874 C 0.30803 -0.13783 0.33517
 C875 C 0.36370 -0.10826 0.38951
 C876 C 0.37847 -0.09234 0.40477
 C877 C 0.39706 -0.07453 0.42198
 C878 C 0.41423 -0.06027 0.43586
 H879 H 0.31673 -0.09690 0.35608
 H880 H 0.37403 -0.16353 0.38076
 H881 H 0.34869 -0.19655 0.34744
 H882 H 0.28926 -0.12948 0.32434
 C883 C 0.31960 0.37851 -0.13752
 C884 C 0.34748 0.37281 -0.13021
 C885 C 0.35987 0.34788 -0.14185
 C886 C 0.34452 0.32874 -0.16072
 C887 C 0.31649 0.33426 -0.16829
 C888 C 0.30418 0.35938 -0.15643
 C889 C 0.36373 0.39253 -0.11123
 C890 C 0.37835 0.40845 -0.09578
 C891 C 0.39684 0.42619 -0.07840
 C892 C 0.41401 0.44035 -0.06438
 H893 H 0.30978 0.39772 -0.12863
 H894 H 0.38148 0.34331 -0.13649
 H895 H 0.35472 0.30983 -0.16982
 H896 H 0.28256 0.36407 -0.16145
 C897 C 1.15173 -0.14497 0.13413
 C898 C 1.12670 -0.15758 0.12445
 C899 C 1.12141 -0.18597 0.13230
 C900 C 1.14089 -0.20156 0.15030
 C901 C 1.16589 -0.18888 0.16071
 C902 C 1.17122 -0.16050 0.15211
 C903 C 1.10625 -0.14086 0.10745
 C904 C 1.08974 -0.12574 0.09373
 C905 C 1.07150 -0.10657 0.07816
 C906 C 1.05720 -0.08883 0.06519
 H907 H 1.15598 -0.12296 0.12827
 H908 H 1.10212 -0.19595 0.12487
 H909 H 1.13636 -0.22349 0.15618
 H910 H 1.19006 -0.15002 0.16012
 C911 C 1.15118 0.35445 0.63359
 C912 C 1.12616 0.34185 0.62389
 C913 C 1.12085 0.31345 0.63170
 C914 C 1.14033 0.29784 0.64967
 C915 C 1.16533 0.31051 0.66009
 C916 C 1.17066 0.33891 0.65154
 C917 C 1.10571 0.35860 0.60696
 C918 C 1.08924 0.37379 0.59330
 C919 C 1.07106 0.39306 0.57782
 C920 C 1.05682 0.41088 0.56494
 H921 H 1.15542 0.37647 0.62777
 H922 H 1.10157 0.30349 0.62425
 H923 H 1.13581 0.27590 0.65552
 H924 H 1.18950 0.34938 0.65957
 C925 C 0.67747 -0.11625 0.64687
 C926 C 0.65345 -0.12483 0.63027
 C927 C 0.64488 -0.15319 0.63195
 C928 C 0.66012 -0.17288 0.65025
 C929 C 0.68421 -0.16446 0.66719
 C930 C 0.69278 -0.13592 0.66518
 C931 C 0.63701 -0.10459 0.61220
 C932 C 0.62227 -0.08836 0.59730
 C933 C 0.60367 -0.07046 0.58022
 C934 C 0.58643 -0.05645 0.56609
 H935 H 0.68422 -0.09432 0.64592
 H936 H 0.62631 -0.16009 0.61921
 H937 H 0.65318 -0.19473 0.65091
 H938 H 0.71103 -0.12869 0.67826
 C939 C 0.67778 0.38351 0.14611
 C940 C 0.65386 0.37488 0.12936
 C941 C 0.64536 0.34649 0.13092
 C942 C 0.66058 0.32683 0.14927
 C943 C 0.68457 0.33529 0.16637
 C944 C 0.69307 0.36386 0.16447
 C945 C 0.63741 0.39511 0.11130
 C946 C 0.62264 0.41133 0.09645
 C947 C 0.60399 0.42922 0.07946
 C948 C 0.58670 0.44324 0.06545
 H949 H 0.68446 0.40546 0.14525
 H950 H 0.62686 0.33956 0.11806
 H951 H 0.65370 0.30495 0.14985
 H952 H 0.71124 0.37112 0.17767
 C953 C 0.85075 0.17007 0.10750
 C954 C 0.87454 0.15879 0.12239
 C955 C 0.87932 0.16338 0.15569
 C956 C 0.86031 0.17896 0.17418
 C957 C 0.83618 0.19021 0.15959
 C958 C 0.83165 0.18572 0.12598
 C959 C 0.89330 0.14105 0.10423
 C960 C 0.90877 0.12519 0.09002
 C961 C 0.92628 0.10539 0.07445
 C962 C 0.94043 0.08733 0.06193
 H963 H 0.84679 0.16649 0.08175
 H964 H 0.89751 0.15447 0.16753
 H965 H 0.86417 0.18161 0.20008
 H966 H 0.81343 0.19435 0.11401
 C967 C 0.85019 0.66970 0.60807
 C968 C 0.87402 0.65846 0.62292
 C969 C 0.87887 0.66314 0.65619
 C970 C 0.85990 0.67877 0.67468
 C971 C 0.83574 0.68999 0.66013
 C972 C 0.83114 0.68541 0.62655
 C973 C 0.89275 0.64069 0.60474
 C974 C 0.90821 0.62483 0.59051
 C975 C 0.92573 0.60505 0.57490
 C976 C 0.93989 0.58701 0.56234
 H977 H 0.84618 0.66606 0.58234
 H978 H 0.89709 0.65426 0.66800
 H979 H 0.86382 0.68148 0.70056
 H980 H 0.81289 0.69401 0.61460
 C981 C 0.32292 0.12003 0.64250
 C982 C 0.34675 0.12943 0.62615
 C983 C 0.35497 0.15784 0.62892
 C984 C 0.33959 0.17673 0.64811
 C985 C 0.31572 0.16745 0.66487
 C986 C 0.30748 0.13890 0.66170
 C987 C 0.36346 0.10987 0.60751
 C988 C 0.37835 0.09397 0.59240
 C989 C 0.39704 0.07612 0.57545
 C990 C 0.41426 0.06176 0.56181
 H991 H 0.31646 0.09805 0.64073
 H992 H 0.37340 0.16536 0.61640
 H993 H 0.34628 0.19863 0.64966
 H994 H 0.28941 0.13101 0.67459
 C995 C 0.32317 0.62005 0.14329
 C996 C 0.34717 0.62934 0.12719
 C997 C 0.35557 0.65767 0.13021
 C998 C 0.34020 0.67660 0.14938
 C999 C 0.31615 0.66745 0.16586
 C1000 C 0.30773 0.63896 0.16246
 C1001 C 0.36383 0.60974 0.10850
 C1002 C 0.37866 0.59383 0.09332
 C1003 C 0.39729 0.57596 0.07625
 C1004 C 0.41445 0.56160 0.06249
 H1005 H 0.31655 0.59813 0.14133
 H1006 H 0.37413 0.66512 0.11790
 H1007 H 0.34703 0.69845 0.15110
 H1008 H 0.28951 0.63115 0.17513
   
