data_POSCAR
  _audit_creation_date              2014-09-24
  _audit_creation_method            'ToBaCCo'
  _symmetry_space_group_name_H-M    'P1'
  _symmetry_Int_Tables_number       1
  _symmetry_cell_setting            triclinic
  loop_
  _symmetry_equiv_pos_as_xyz
 x,y,z
_cell_length_a 36.3084
_cell_length_b 34.6311
_cell_length_c 27.1493
_cell_angle_alpha 90.064400
_cell_angle_beta 89.965800
_cell_angle_gamma 89.978000
loop_
  _atom_site_label
  _atom_site_type_symbol
  _atom_site_fract_x
  _atom_site_fract_y
  _atom_site_fract_z
C1 C 1.24381 0.25036 0.24474
 C2 C 0.75233 -0.24894 0.25466
 C3 C 0.75823 0.25028 -0.24424
 C4 C 1.24902 -0.24997 -0.25479
 C5 C 0.24226 0.24735 0.75787
 C6 C 0.74999 0.75457 0.74798
 C7 C 0.75635 0.25247 0.24725
 C8 C 0.24880 0.74970 0.25442
 O9 O 1.06667 -0.05887 0.08716
 O10 O 1.03605 -0.10346 0.03977
 C11 C 1.06127 -0.09369 0.07134
 O12 O 0.92633 0.04064 0.08697
 O13 O 0.96015 0.08711 0.04703
 C14 C 0.93302 0.07621 0.07500
 O15 O 0.93844 -0.06585 0.09218
 O16 O 0.97085 -0.10689 0.04146
 C17 C 0.94786 -0.10001 0.07717
 O18 O 1.06692 0.04721 0.08378
 O19 O 1.02901 0.09079 0.04555
 C20 C 1.05765 0.08211 0.07209
 Zr21 Zr 1.04353 -0.00609 0.06540
 O22 O 1.03661 -0.00384 0.14284
 O23 O 1.10108 -0.00599 0.07689
 Zr24 Zr 0.95270 -0.01087 0.06565
 O25 O 0.95727 -0.00935 0.14331
 O26 O 0.89464 -0.01674 0.06476
 O27 O 0.99998 -0.04409 0.07339
 O28 O 0.99662 0.02625 0.07578
 O29 O 1.06353 0.05131 -0.07935
 O30 O 1.02758 0.09251 -0.03357
 C31 C 1.05382 0.08541 -0.06488
 O32 O 0.93682 -0.06144 -0.08821
 O33 O 0.97065 -0.10505 -0.04335
 C34 C 0.94700 -0.09629 -0.07757
 O35 O 0.92470 0.04408 -0.07396
 O36 O 0.95934 0.08897 -0.03237
 C37 C 0.93168 0.07915 -0.06010
 O38 O 1.06621 -0.05483 -0.08627
 O39 O 1.03545 -0.10141 -0.04237
 C40 C 1.06063 -0.09029 -0.07319
 Zr41 Zr 1.04310 -0.00318 -0.06007
 O42 O 1.03693 0.00205 -0.13737
 O43 O 1.10102 -0.00227 -0.06790
 Zr44 Zr 0.95204 -0.00794 -0.05856
 O45 O 0.95362 -0.00005 -0.13590
 O46 O 0.89425 -0.01504 -0.06162
 Zr47 Zr 1.00094 -0.06535 0.00054
 Zr48 Zr 0.99563 0.05132 0.00539
 O49 O 0.99583 0.02931 -0.06682
 O50 O 0.99929 -0.04059 -0.07048
 O51 O 1.04965 0.02923 0.00381
 O52 O 0.94700 -0.04343 0.00223
 O53 O 1.05228 -0.03693 0.00133
 O54 O 0.94375 0.02415 0.00500
 H55 H 0.99603 0.04411 0.10434
 H56 H 0.92590 -0.06158 0.00172
 H57 H 0.99446 0.04817 -0.09420
 H58 H 1.07588 -0.05126 0.00056
 H59 H 0.88627 -0.01851 0.09941
 H60 H 0.88451 -0.00676 -0.02923
 H61 H 0.96679 -0.02238 -0.15034
 H62 H 1.03208 -0.02401 -0.15088
 H63 H 1.11101 0.00948 -0.03750
 H64 H 1.11257 -0.00405 0.04397
 H65 H 1.03034 -0.03021 0.15412
 H66 H 0.93189 -0.00969 0.15664
 O67 O 0.93117 0.44895 0.41799
 O68 O 0.96601 0.40441 0.46002
 C69 C 0.93940 0.41386 0.43049
 O70 O 1.06947 0.55329 0.42083
 O71 O 1.03533 0.59783 0.46367
 C72 C 1.06252 0.58826 0.43490
 O73 O 1.06441 0.44744 0.41252
 O74 O 1.03176 0.40348 0.45824
 C75 C 1.05729 0.41257 0.42677
 O76 O 0.93116 0.55579 0.42168
 O77 O 0.96726 0.59883 0.46440
 C78 C 0.94103 0.59050 0.43364
 Zr79 Zr 0.95347 0.50208 0.44129
 O80 O 0.95793 0.50588 0.36363
 O81 O 0.89553 0.50184 0.43416
 Zr82 Zr 1.04425 0.50071 0.43787
 O83 O 1.03651 0.50587 0.36082
 O84 O 1.10159 0.49770 0.42514
 O85 O 0.99828 0.46584 0.42929
 O86 O 0.99929 0.53637 0.43154
 O87 O 0.93525 0.55347 0.59076
 O88 O 0.96836 0.59786 0.54649
 C89 C 0.94346 0.58860 0.57897
 O90 O 1.06790 0.44532 0.58514
 O91 O 1.03253 0.40262 0.54077
 C92 C 1.05873 0.41078 0.57162
 O93 O 1.07370 0.55173 0.57836
 O94 O 1.03644 0.59700 0.54198
 C95 C 1.06541 0.58698 0.56687
 O96 O 0.93523 0.44713 0.59042
 O97 O 0.96742 0.40361 0.54297
 C98 C 0.94240 0.41239 0.57529
 Zr99 Zr 0.95601 0.50056 0.56623
 O100 O 0.96388 0.50016 0.64331
 O101 O 0.89807 0.49910 0.57464
 Zr102 Zr 1.04695 0.49937 0.56317
 O103 O 1.04212 0.50310 0.64079
 O104 O 1.10459 0.49577 0.57284
 Zr105 Zr 0.99971 0.44235 0.50107
 Zr106 Zr 1.00086 0.55922 0.50341
 O107 O 1.00219 0.53473 0.57430
 O108 O 1.00123 0.46434 0.57359
 O109 O 0.94736 0.53555 0.50477
 O110 O 1.05266 0.46718 0.49970
 O111 O 0.94723 0.46848 0.50344
 O112 O 1.05353 0.53339 0.50081
 H113 H 0.99948 0.55492 0.40375
 H114 H 1.07536 0.45134 0.49882
 H115 H 1.00351 0.55266 0.60274
 H116 H 0.92426 0.45309 0.50426
 H117 H 1.11361 0.50263 0.45719
 H118 H 1.11565 0.49870 0.53979
 H119 H 1.03532 0.47714 0.65300
 H120 H 0.93892 0.50057 0.65805
 H121 H 0.88748 0.51560 0.54851
 H122 H 0.88542 0.50164 0.46793
 H123 H 0.96316 0.47968 0.35080
 H124 H 1.03092 0.47983 0.34777
 O125 O 0.54867 0.07888 0.58412
 O126 O 0.59189 0.04415 0.54091
 C127 C 0.58244 0.07103 0.57205
 O128 O 0.45233 -0.06340 0.58950
 O129 O 0.40909 -0.03190 0.54261
 C130 C 0.41861 -0.05636 0.57679
 O131 O 0.55390 -0.05644 0.59334
 O132 O 0.59449 -0.02395 0.54323
 C133 C 0.58695 -0.04788 0.57883
 O134 O 0.44683 0.07623 0.58203
 O135 O 0.40639 0.03819 0.53854
 C136 C 0.41380 0.06556 0.57007
 Zr137 Zr 0.49859 0.05565 0.55858
 O138 O 0.49785 0.05357 0.63638
 O139 O 0.49850 0.11679 0.55757
 Zr140 Zr 0.50229 -0.04042 0.56408
 O141 O 0.49877 -0.03646 0.64179
 O142 O 0.50818 -0.10117 0.56831
 O143 O 0.53390 0.00940 0.57105
 O144 O 0.46779 0.00661 0.57017
 O145 O 0.44768 0.07126 0.41024
 O146 O 0.40673 0.03559 0.45585
 C147 C 0.41449 0.06143 0.42243
 O148 O 0.55411 -0.06474 0.41473
 O149 O 0.59437 -0.02645 0.45832
 C150 C 0.58698 -0.05422 0.42747
 O151 O 0.45274 -0.06957 0.41626
 O152 O 0.40938 -0.03501 0.45964
 C153 C 0.41901 -0.06154 0.42801
 O154 O 0.54869 0.07318 0.40781
 O155 O 0.59201 0.04187 0.45461
 C156 C 0.58235 0.06725 0.42160
 Zr157 Zr 0.49896 0.05074 0.43441
 O158 O 0.49905 0.04056 0.35765
 O159 O 0.49681 0.11111 0.42313
 Zr160 Zr 0.50256 -0.04500 0.44005
 O161 O 0.49999 -0.04570 0.36209
 O162 O 0.50771 -0.10588 0.44257
 Zr163 Zr 0.55648 0.00763 0.49953
 Zr164 Zr 0.44473 0.00309 0.49920
 O165 O 0.46799 0.00136 0.42825
 O166 O 0.53448 0.00400 0.42775
 O167 O 0.46569 0.05980 0.49596
 O168 O 0.53462 -0.04867 0.50263
 O169 O 0.53040 0.06187 0.49623
 O170 O 0.46971 -0.05187 0.50248
 H171 H 0.45124 0.00698 0.59921
 H172 H 0.55124 -0.07132 0.50424
 H173 H 0.45141 -0.00005 0.39931
 H174 H 0.54524 0.08584 0.49535
 H175 H 0.48853 -0.11284 0.54797
 H176 H 0.48817 -0.11579 0.46457
 H177 H 0.52093 -0.03031 0.34949
 H178 H 0.49707 0.06626 0.34189
 H179 H 0.50160 0.12342 0.45531
 H180 H 0.47941 0.12503 0.53379
 H181 H 0.49671 0.08074 0.64778
 H182 H 0.51729 -0.01734 0.65275
 O183 O 0.55221 0.57378 0.08402
 O184 O 0.59394 0.53720 0.04049
 C185 C 0.58549 0.56437 0.07166
 O186 O 0.45199 0.43332 0.08990
 O187 O 0.40949 0.46622 0.04338
 C188 C 0.41843 0.44107 0.07704
 O189 O 0.55374 0.43563 0.09020
 O190 O 0.59498 0.46933 0.04240
 C191 C 0.58693 0.44366 0.07570
 O192 O 0.45059 0.57337 0.08349
 O193 O 0.40877 0.53681 0.04029
 C194 C 0.41721 0.56372 0.07199
 Zr195 Zr 0.50145 0.55161 0.05903
 O196 O 0.49923 0.55225 0.13700
 O197 O 0.50331 0.61270 0.05645
 Zr198 Zr 0.50243 0.45551 0.06437
 O199 O 0.50231 0.46403 0.14145
 O200 O 0.50499 0.39474 0.07190
 O201 O 0.53555 0.50414 0.07108
 O202 O 0.46925 0.50343 0.07087
 O203 O 0.45020 0.56906 -0.08846
 O204 O 0.40852 0.53442 -0.04265
 C205 C 0.41685 0.56002 -0.07603
 O206 O 0.55269 0.42954 -0.08440
 O207 O 0.59435 0.46718 -0.04240
 C208 C 0.58603 0.43920 -0.07246
 O209 O 0.45100 0.42665 -0.08025
 O210 O 0.40877 0.46391 -0.03892
 C211 C 0.41740 0.43600 -0.06912
 O212 O 0.55176 0.56694 -0.09355
 O213 O 0.59379 0.53564 -0.04441
 C214 C 0.58516 0.55971 -0.07938
 Zr215 Zr 0.50107 0.54695 -0.06537
 O216 O 0.49998 0.53692 -0.14216
 O217 O 0.50157 0.60736 -0.07647
 Zr218 Zr 0.50169 0.45138 -0.06006
 O219 O 0.50091 0.45630 -0.13762
 O220 O 0.50241 0.39045 -0.06524
 Zr221 Zr 0.55741 0.50191 -0.00080
 Zr222 Zr 0.44574 0.50078 0.00012
 O223 O 0.46829 0.49857 -0.07124
 O224 O 0.53509 0.49909 -0.07250
 O225 O 0.46834 0.55687 -0.00329
 O226 O 0.53387 0.44637 0.00222
 O227 O 0.53302 0.55701 -0.00379
 O228 O 0.46941 0.44520 0.00293
 H229 H 0.45283 0.50401 0.10004
 H230 H 0.54958 0.42302 0.00332
 H231 H 0.45127 0.49736 -0.09975
 H232 H 0.54861 0.58045 -0.00510
 H233 H 0.48812 0.38354 0.04710
 H234 H 0.50781 0.38049 -0.03195
 H235 H 0.49980 0.42955 -0.15048
 H236 H 0.49871 0.56272 -0.15781
 H237 H 0.50334 0.61937 -0.04357
 H238 H 0.48272 0.62152 0.03538
 H239 H 0.52026 0.53684 0.14933
 H240 H 0.50239 0.43790 0.15630
 C241 C 1.16632 0.18931 0.14760
 C242 C 1.20069 0.17244 0.15941
 C243 C 1.22638 0.19264 0.18789
 C244 C 1.21898 0.23012 0.20549
 C245 C 1.18667 0.24838 0.18773
 C246 C 1.16049 0.22819 0.16013
 C247 C 1.13759 0.16450 0.12351
 C248 C 1.10072 0.17640 0.11577
 C249 C 1.07427 0.15036 0.09762
 C250 C 1.08425 0.11216 0.08706
 C251 C 1.12123 0.10108 0.09197
 C252 C 1.14750 0.12630 0.11091
 C253 C 1.20898 0.13487 0.14409
 C254 C 1.18313 0.11250 0.11960
 H255 H 1.23563 0.12223 0.15209
 H256 H 1.19062 0.08326 0.10941
 H257 H 1.25155 0.17793 0.19722
 H258 H 1.18074 0.27807 0.19748
 H259 H 1.04596 0.15964 0.09346
 H260 H 1.12956 0.07192 0.08249
 H261 H 1.13564 0.24322 0.14971
 H262 H 1.09162 0.20516 0.12510
 C263 C 1.17722 0.68807 0.64165
 C264 C 1.16657 0.72436 0.66035
 C265 C 1.19124 0.74564 0.68934
 C266 C 1.22517 0.72955 0.70520
 C267 C 1.23601 0.69437 0.68349
 C268 C 1.21267 0.67415 0.65227
 C269 C 1.14933 0.66447 0.61491
 C270 C 1.15802 0.62848 0.59414
 C271 C 1.13034 0.60452 0.57708
 C272 C 1.09335 0.61591 0.57946
 C273 C 1.08451 0.65342 0.59484
 C274 C 1.11246 0.67783 0.61291
 C275 C 1.13058 0.73793 0.65286
 C276 C 1.10384 0.71478 0.63051
 H277 H 1.12241 0.76593 0.66703
 H278 H 1.07589 0.72560 0.62803
 H279 H 1.18294 0.77397 0.70218
 H280 H 1.26218 0.68112 0.69087
 H281 H 1.13791 0.57635 0.56287
 H282 H 1.05599 0.66272 0.59521
 H283 H 1.22250 0.64671 0.63889
 H284 H 1.18582 0.61774 0.59174
 C285 C 0.68903 0.17252 0.66659
 C286 C 0.67562 0.20909 0.68158
 C287 C 0.69818 0.23443 0.70836
 C288 C 0.73368 0.22337 0.72385
 C289 C 0.74781 0.18831 0.70514
 C290 C 0.72580 0.16304 0.67769
 C291 C 0.66325 0.14563 0.63993
 C292 C 0.67337 0.10834 0.62344
 C293 C 0.64757 0.08406 0.60048
 C294 C 0.61105 0.09624 0.59406
 C295 C 0.60114 0.13359 0.60928
 C296 C 0.62669 0.15819 0.63177
 C297 C 0.63948 0.22009 0.67058
 C298 C 0.61550 0.19514 0.64648
 H299 H 0.62927 0.24820 0.68175
 H300 H 0.58755 0.20480 0.63972
 H301 H 0.68758 0.26276 0.71747
 H302 H 0.77590 0.17987 0.71297
 H303 H 0.65595 0.05548 0.58875
 H304 H 0.57320 0.14374 0.60358
 H305 H 0.73796 0.13613 0.66597
 H306 H 0.70092 0.09732 0.62832
 C307 C 0.68131 0.66851 0.17664
 C308 C 0.68828 0.70517 0.15555
 C309 C 0.70999 0.73250 0.18104
 C310 C 0.72579 0.72343 0.22703
 C311 C 0.71444 0.68879 0.24986
 C312 C 0.69332 0.66154 0.22492
 C313 C 0.65981 0.63930 0.14765
 C314 C 0.65450 0.60089 0.16365
 C315 C 0.63213 0.57552 0.13698
 C316 C 0.61493 0.58775 0.09371
 C317 C 0.62149 0.62517 0.07600
 C318 C 0.64424 0.65083 0.10226
 C319 C 0.67322 0.71428 0.10947
 C320 C 0.65112 0.68798 0.08385
 H321 H 0.67813 0.74240 0.09327
 H322 H 0.63950 0.69675 0.04884
 H323 H 0.71516 0.76049 0.16465
 H324 H 0.72277 0.68205 0.28714
 H325 H 0.62707 0.54677 0.15117
 H326 H 0.60794 0.63464 0.04253
 H327 H 0.68646 0.63533 0.24429
 H328 H 0.66699 0.59007 0.19693
 C329 C 0.84228 -0.19092 0.17779
 C330 C 0.82160 -0.21879 0.15178
 C331 C 0.79157 -0.23723 0.17494
 C332 C 0.77996 -0.22587 0.22259
 C333 C 0.79992 -0.19620 0.24624
 C334 C 0.83025 -0.17905 0.22444
 C335 C 0.87522 -0.17351 0.15374
 C336 C 0.90004 -0.14985 0.17958
 C337 C 0.92675 -0.12911 0.15437
 C338 C 0.92969 -0.13189 0.10310
 C339 C 0.90833 -0.15922 0.07769
 C340 C 0.88116 -0.18046 0.10305
 C341 C 0.83083 -0.22737 0.10271
 C342 C 0.85914 -0.20755 0.07830
 H343 H 0.81495 -0.24847 0.08227
 H344 H 0.86397 -0.21366 0.03967
 H345 H 0.77841 -0.26105 0.15621
 H346 H 0.79286 -0.18719 0.28328
 H347 H 0.94356 -0.10867 0.17460
 H348 H 0.91080 -0.16170 0.03805
 H349 H 0.84383 -0.15641 0.24481
 H350 H 0.89847 -0.14594 0.21895
 C351 C 0.83765 0.30506 0.65697
 C352 C 0.80065 0.31797 0.65868
 C353 C 0.77466 0.29828 0.68743
 C354 C 0.78553 0.26774 0.71822
 C355 C 0.82102 0.25203 0.71092
 C356 C 0.84683 0.27064 0.68135
 C357 C 0.86566 0.32963 0.63135
 C358 C 0.90367 0.32062 0.62986
 C359 C 0.92906 0.34680 0.61007
 C360 C 0.91695 0.38240 0.59218
 C361 C 0.87920 0.39063 0.59096
 C362 C 0.85357 0.36474 0.61031
 C363 C 0.79019 0.35160 0.63390
 C364 C 0.81616 0.37460 0.61033
 H365 H 0.76177 0.36118 0.63454
 H366 H 0.80699 0.40122 0.59332
 H367 H 0.74647 0.30856 0.68876
 H368 H 0.82948 0.22576 0.72924
 H369 H 0.95817 0.33992 0.61049
 H370 H 0.86981 0.41789 0.57577
 H371 H 0.87400 0.25817 0.67920
 H372 H 0.91442 0.29409 0.64483
 C373 C 0.32103 -0.16190 0.67776
 C374 C 0.28858 -0.17359 0.65338
 C375 C 0.26590 -0.20216 0.67428
 C376 C 0.27504 -0.22026 0.71943
 C377 C 0.30774 -0.20811 0.74291
 C378 C 0.33029 -0.17981 0.72254
 C379 C 0.34445 -0.13134 0.65439
 C380 C 0.37678 -0.11739 0.67658
 C381 C 0.39935 -0.09145 0.65189
 C382 C 0.39041 -0.07824 0.60451
 C383 C 0.35682 -0.08951 0.58346
 C384 C 0.33396 -0.11632 0.60791
 C385 C 0.27896 -0.15675 0.60816
 C386 C 0.30124 -0.12891 0.58582
 H387 H 0.25401 -0.16558 0.58939
 H388 H 0.29282 -0.11725 0.55056
 H389 H 0.24104 -0.20968 0.65483
 H390 H 0.31542 -0.21968 0.77848
 H391 H 0.42464 -0.08243 0.66967
 H392 H 0.34931 -0.07887 0.54737
 H393 H 0.35474 -0.17233 0.74289
 H394 H 0.38568 -0.12663 0.71253
 C395 C 0.31834 0.33628 0.17632
 C396 C 0.28729 0.32292 0.15008
 C397 C 0.26372 0.29511 0.17119
 C398 C 0.27037 0.27968 0.21873
 C399 C 0.30226 0.29274 0.24347
 C400 C 0.32563 0.32034 0.22294
 C401 C 0.34255 0.36629 0.15284
 C402 C 0.37343 0.38205 0.17679
 C403 C 0.39659 0.40779 0.15245
 C404 C 0.38962 0.41909 0.10371
 C405 C 0.35770 0.40545 0.08029
 C406 C 0.33425 0.37895 0.10445
 C407 C 0.28002 0.33728 0.10271
 C408 C 0.30311 0.36440 0.08028
 H409 H 0.25628 0.32706 0.08235
 H410 H 0.29652 0.37402 0.04334
 H411 H 0.24025 0.28598 0.14986
 H412 H 0.30865 0.28229 0.28006
 H413 H 0.42077 0.41828 0.17165
 H414 H 0.35209 0.41395 0.04268
 H415 H 0.34921 0.32878 0.24449
 H416 H 0.38068 0.37445 0.21403
 C417 C 0.82562 0.18718 -0.13861
 C418 C 0.79223 0.17074 -0.15554
 C419 C 0.76877 0.19199 -0.18622
 C420 C 0.77908 0.22884 -0.20294
 C421 C 0.80919 0.24696 -0.17959
 C422 C 0.83251 0.22632 -0.14852
 C423 C 0.85277 0.16163 -0.11292
 C424 C 0.88856 0.17384 -0.09956
 C425 C 0.91423 0.14748 -0.08085
 C426 C 0.90472 0.10857 -0.07542
 C427 C 0.86859 0.09679 -0.08594
 C428 C 0.84287 0.12266 -0.10511
 C429 C 0.78326 0.13260 -0.14376
 C430 C 0.80800 0.10910 -0.11871
 H431 H 0.75733 0.12026 -0.15573
 H432 H 0.80036 0.07931 -0.11194
 H433 H 0.74338 0.17890 -0.19877
 H434 H 0.81619 0.27658 -0.18824
 H435 H 0.94185 0.15723 -0.07234
 H436 H 0.86068 0.06688 -0.08062
 H437 H 0.85631 0.24111 -0.13407
 H438 H 0.89764 0.20319 -0.10480
 C439 C 0.83864 0.68679 0.33164
 C440 C 0.81995 0.71634 0.35741
 C441 C 0.79154 0.73721 0.33395
 C442 C 0.77955 0.72691 0.28611
 C443 C 0.79798 0.69631 0.26218
 C444 C 0.82661 0.67655 0.28438
 C445 C 0.86963 0.66626 0.35635
 C446 C 0.89223 0.63985 0.33113
 C447 C 0.91748 0.61750 0.35667
 C448 C 0.92137 0.62134 0.40768
 C449 C 0.90186 0.65039 0.43264
 C450 C 0.87607 0.67324 0.40696
 C451 C 0.82945 0.72422 0.40655
 C452 C 0.85613 0.70230 0.43126
 H453 H 0.81511 0.74666 0.42674
 H454 H 0.86135 0.70832 0.46981
 H455 H 0.77973 0.76180 0.35272
 H456 H 0.79071 0.68812 0.22493
 H457 H 0.93297 0.59572 0.33677
 H458 H 0.90506 0.65357 0.47205
 H459 H 0.83873 0.65314 0.26379
 H460 H 0.89033 0.63531 0.29192
 C461 C 0.30999 0.16180 0.32290
 C462 C 0.32149 0.17708 0.27711
 C463 C 0.30003 0.20488 0.25276
 C464 C 0.26699 0.21936 0.27329
 C465 C 0.25606 0.20389 0.31930
 C466 C 0.27703 0.17574 0.34348
 C467 C 0.33417 0.13237 0.34795
 C468 C 0.32499 0.11399 0.39284
 C469 C 0.34997 0.08887 0.41604
 C470 C 0.38476 0.08199 0.39541
 C471 C 0.39292 0.09818 0.34921
 C472 C 0.36815 0.12298 0.32549
 C473 C 0.35474 0.16504 0.25597
 C474 C 0.37774 0.13894 0.27988
 H475 H 0.36356 0.17665 0.22084
 H476 H 0.40363 0.13135 0.26249
 H477 H 0.30904 0.21520 0.21706
 H478 H 0.23126 0.21313 0.33759
 H479 H 0.34258 0.07592 0.45087
 H480 H 0.41929 0.09223 0.33198
 H481 H 0.26714 0.16554 0.37862
 H482 H 0.29894 0.11908 0.41086
 C483 C 0.31429 0.66146 -0.17590
 C484 C 0.32633 0.67684 -0.22136
 C485 C 0.30536 0.70494 -0.24570
 C486 C 0.27200 0.71916 -0.22590
 C487 C 0.26056 0.70353 -0.18021
 C488 C 0.28120 0.67536 -0.15581
 C489 C 0.33796 0.63186 -0.15068
 C490 C 0.32852 0.61405 -0.10552
 C491 C 0.35311 0.58878 -0.08206
 C492 C 0.38761 0.58103 -0.10294
 C493 C 0.39603 0.59664 -0.14933
 C494 C 0.37180 0.62184 -0.17308
 C495 C 0.35951 0.66444 -0.24230
 C496 C 0.38187 0.63773 -0.21852
 H497 H 0.36869 0.67610 -0.27724
 H498 H 0.40770 0.62970 -0.23577
 H499 H 0.31495 0.71558 -0.28098
 H500 H 0.23563 0.71260 -0.16217
 H501 H 0.34572 0.57647 -0.04685
 H502 H 0.42224 0.59002 -0.16658
 H503 H 0.27083 0.66504 -0.12098
 H504 H 0.30266 0.61979 -0.08736
 C505 C 1.17330 -0.18629 -0.15759
 C506 C 1.16376 -0.22326 -0.17508
 C507 C 1.18924 -0.24447 -0.20302
 C508 C 1.22336 -0.22823 -0.21791
 C509 C 1.23251 -0.19164 -0.19871
 C510 C 1.20815 -0.17123 -0.16915
 C511 C 1.14506 -0.16352 -0.13031
 C512 C 1.15304 -0.12727 -0.10986
 C513 C 1.12516 -0.10472 -0.09051
 C514 C 1.08864 -0.11773 -0.09016
 C515 C 1.08059 -0.15532 -0.10598
 C516 C 1.10879 -0.17836 -0.12637
 C517 C 1.12825 -0.23791 -0.16677
 C518 C 1.10111 -0.21562 -0.14373
 H519 H 1.12087 -0.26635 -0.18020
 H520 H 1.07364 -0.22750 -0.14003
 H521 H 1.18178 -0.27322 -0.21526
 H522 H 1.25820 -0.17754 -0.20668
 H523 H 1.13223 -0.07649 -0.07609
 H524 H 1.05251 -0.16585 -0.10430
 H525 H 1.21689 -0.14295 -0.15744
 H526 H 1.18044 -0.11538 -0.10893
 C527 C 1.16828 0.31431 0.34260
 C528 C 1.15836 0.27775 0.32422
 C529 C 1.18387 0.25635 0.29640
 C530 C 1.21829 0.27227 0.28190
 C531 C 1.22738 0.30894 0.30099
 C532 C 1.20313 0.32932 0.33089
 C533 C 1.14031 0.33702 0.37058
 C534 C 1.14913 0.37198 0.39378
 C535 C 1.12162 0.39494 0.41343
 C536 C 1.08458 0.38368 0.41114
 C537 C 1.07560 0.34693 0.39300
 C538 C 1.10355 0.32334 0.37271
 C539 C 1.12238 0.26389 0.33130
 C540 C 1.09527 0.28666 0.35384
 H541 H 1.11459 0.23582 0.31702
 H542 H 1.06745 0.27550 0.35624
 H543 H 1.17613 0.22777 0.28384
 H544 H 1.25290 0.32322 0.29271
 H545 H 1.12936 0.42234 0.42975
 H546 H 1.04712 0.33755 0.39277
 H547 H 1.21175 0.35767 0.34256
 H548 H 1.17701 0.38247 0.39659
 C549 C 0.68266 -0.16638 0.33571
 C550 C 0.69534 -0.15800 0.28771
 C551 C 0.71646 -0.18520 0.26179
 C552 C 0.72694 -0.22069 0.28325
 C553 C 0.71106 -0.23032 0.32891
 C554 C 0.68988 -0.20340 0.35521
 C555 C 0.66101 -0.13584 0.36262
 C556 C 0.64809 -0.14063 0.41118
 C557 C 0.62602 -0.11241 0.43328
 C558 C 0.61697 -0.07842 0.40815
 C559 C 0.63072 -0.07253 0.36060
 C560 C 0.65279 -0.10085 0.33779
 C561 C 0.68687 -0.12254 0.26560
 C562 C 0.66583 -0.09474 0.28991
 H563 H 0.69648 -0.11623 0.22867
 H564 H 0.65967 -0.06801 0.27088
 H565 H 0.72533 -0.17826 0.22473
 H566 H 0.71566 -0.25852 0.34490
 H567 H 0.61442 -0.11803 0.46933
 H568 H 0.62293 -0.04667 0.34066
 H569 H 0.67929 -0.21219 0.39059
 H570 H 0.65389 -0.16634 0.43218
 C571 C 0.69276 0.33550 -0.16139
 C572 C 0.68239 0.29613 -0.16355
 C573 C 0.70436 0.26935 -0.18880
 C574 C 0.73568 0.28103 -0.21552
 C575 C 0.74731 0.31971 -0.20999
 C576 C 0.72600 0.34659 -0.18400
 C577 C 0.66747 0.36347 -0.13570
 C578 C 0.67495 0.40340 -0.13080
 C579 C 0.64920 0.42833 -0.10879
 C580 C 0.61539 0.41399 -0.09204
 C581 C 0.60843 0.37425 -0.09512
 C582 C 0.63401 0.34904 -0.11635
 C583 C 0.64966 0.28366 -0.14154
 C584 C 0.62584 0.30960 -0.11882
 H585 H 0.64185 0.25348 -0.14299
 H586 H 0.60037 0.29862 -0.10340
 H587 H 0.69631 0.23921 -0.18924
 H588 H 0.77312 0.32952 -0.22534
 H589 H 0.65518 0.45891 -0.10632
 H590 H 0.58264 0.36286 -0.08110
 H591 H 0.73594 0.37591 -0.18225
 H592 H 0.70023 0.41592 -0.14421
 C593 C 1.16526 0.17792 -0.15603
 C594 C 1.16716 0.17526 -0.20788
 C595 C 1.19471 0.19469 -0.23356
 C596 C 1.22014 0.21891 -0.20936
 C597 C 1.22097 0.21782 -0.15749
 C598 C 1.19357 0.19794 -0.13112
 C599 C 1.13334 0.15880 -0.13053
 C600 C 1.12745 0.16054 -0.07913
 C601 C 1.09868 0.13957 -0.05730
 C602 C 1.07523 0.11699 -0.08644
 C603 C 1.07926 0.11733 -0.13756
 C604 C 1.10797 0.13773 -0.15974
 C605 C 1.14086 0.15439 -0.23445
 C606 C 1.11202 0.13581 -0.21086
 H607 H 1.14254 0.15244 -0.27425
 H608 H 1.09254 0.11965 -0.23303
 H609 H 1.19426 0.19384 -0.27345
 H610 H 1.24188 0.23302 -0.13692
 H611 H 1.09633 0.13893 -0.01754
 H612 H 1.06128 0.09944 -0.15994
 H613 H 1.19461 0.19909 -0.09142
 H614 H 1.14545 0.17679 -0.05524
 C615 C 1.17213 0.68975 0.35086
 C616 C 1.20433 0.67086 0.33421
 C617 C 1.22957 0.69005 0.30397
 C618 C 1.22475 0.72922 0.29055
 C619 C 1.19402 0.74858 0.31205
 C620 C 1.16805 0.72920 0.34079
 C621 C 1.14364 0.66645 0.37763
 C622 C 1.10816 0.68054 0.38984
 C623 C 1.08148 0.65592 0.41036
 C624 C 1.08996 0.61709 0.41912
 C625 C 1.12584 0.60387 0.41010
 C626 C 1.15210 0.62754 0.38829
 C627 C 1.21115 0.63243 0.34711
 C628 C 1.18592 0.61149 0.37455
 H629 H 1.23625 0.61814 0.33538
 H630 H 1.19226 0.58163 0.38305
 H631 H 1.25230 0.67313 0.29056
 H632 H 1.18947 0.77903 0.30519
 H633 H 1.05402 0.66678 0.41754
 H634 H 1.13307 0.57413 0.41807
 H635 H 1.14491 0.74553 0.35457
 H636 H 1.10013 0.70990 0.38201
 C637 C 0.68313 0.17822 0.33452
 C638 C 0.71966 0.16655 0.32491
 C639 C 0.74342 0.19119 0.29863
 C640 C 0.73078 0.22672 0.27915
 C641 C 0.69580 0.23964 0.29437
 C642 C 0.67226 0.21576 0.32099
 C643 C 0.65754 0.15013 0.35871
 C644 C 0.61999 0.15817 0.36505
 C645 C 0.59664 0.13096 0.38561
 C646 C 0.60962 0.09461 0.40069
 C647 C 0.64730 0.08623 0.39547
 C648 C 0.67124 0.11362 0.37367
 C649 C 0.73195 0.13026 0.34105
 C650 C 0.70837 0.10454 0.36535
 H651 H 0.76014 0.12142 0.33432
 H652 H 0.71916 0.07675 0.37665
 H653 H 0.77147 0.18203 0.29160
 H654 H 0.68621 0.26840 0.28565
 H655 H 0.56791 0.13876 0.38980
 H656 H 0.65767 0.05828 0.40687
 H657 H 0.64567 0.22743 0.33054
 H658 H 0.60772 0.18502 0.35356
 C659 C 0.67999 0.67228 -0.17197
 C660 C 0.68054 0.67326 -0.22401
 C661 C 0.70210 0.70078 -0.24870
 C662 C 0.72333 0.72811 -0.22264
 C663 C 0.71853 0.73008 -0.17113
 C664 C 0.69797 0.70206 -0.14607
 C665 C 0.65876 0.64059 -0.14699
 C666 C 0.66030 0.63374 -0.09579
 C667 C 0.63843 0.60504 -0.07415
 C668 C 0.61427 0.58299 -0.10296
 C669 C 0.61396 0.58824 -0.15416
 C670 C 0.63662 0.61611 -0.17642
 C671 C 0.65936 0.64695 -0.25112
 C672 C 0.63710 0.61970 -0.22780
 H673 H 0.65939 0.64797 -0.29102
 H674 H 0.62048 0.60068 -0.25042
 H675 H 0.70339 0.70031 -0.28861
 H676 H 0.73089 0.75295 -0.14969
 H677 H 0.63890 0.60151 -0.03452
 H678 H 0.59547 0.57103 -0.17658
 H679 H 0.69602 0.70438 -0.10649
 H680 H 0.67795 0.65053 -0.07199
 C681 C 0.83994 -0.18516 -0.17842
 C682 C 0.82771 -0.22066 -0.15931
 C683 C 0.79809 -0.23985 -0.18206
 C684 C 0.77740 -0.22197 -0.22004
 C685 C 0.78875 -0.18493 -0.23564
 C686 C 0.81936 -0.16697 -0.21537
 C687 C 0.87341 -0.16713 -0.15690
 C688 C 0.89168 -0.13655 -0.18021
 C689 C 0.91916 -0.11659 -0.15565
 C690 C 0.92881 -0.12636 -0.10720
 C691 C 0.91453 -0.16034 -0.08633
 C692 C 0.88712 -0.18134 -0.11170
 C693 C 0.84476 -0.23603 -0.11718
 C694 C 0.87271 -0.21579 -0.09248
 H695 H 0.83515 -0.26306 -0.10176
 H696 H 0.88357 -0.22754 -0.05849
 H697 H 0.79160 -0.26900 -0.17061
 H698 H 0.77547 -0.17024 -0.26591
 H699 H 0.93102 -0.09144 -0.17331
 H700 H 0.92285 -0.16891 -0.04964
 H701 H 0.82650 -0.13869 -0.22910
 H702 H 0.88435 -0.12702 -0.21678
 C703 C 0.83490 0.30691 0.34746
 C704 C 0.79805 0.32015 0.34486
 C705 C 0.77235 0.30066 0.31549
 C706 C 0.78338 0.26984 0.28513
 C707 C 0.81859 0.25378 0.29338
 C708 C 0.84414 0.27228 0.32348
 C709 C 0.86272 0.33135 0.37360
 C710 C 0.90067 0.32217 0.37561
 C711 C 0.92598 0.34828 0.39570
 C712 C 0.91385 0.38396 0.41346
 C713 C 0.87611 0.39232 0.41427
 C714 C 0.85058 0.36654 0.39447
 C715 C 0.78746 0.35387 0.36946
 C716 C 0.81324 0.37666 0.39372
 H717 H 0.75912 0.36366 0.36817
 H718 H 0.80402 0.40335 0.41058
 H719 H 0.74429 0.31124 0.31341
 H720 H 0.82703 0.22727 0.27553
 H721 H 0.95506 0.34128 0.39559
 H722 H 0.86666 0.41961 0.42938
 H723 H 0.87114 0.25952 0.32641
 H724 H 0.91146 0.29561 0.36071
 C725 C 0.32217 -0.16763 0.32596
 C726 C 0.29364 -0.18505 0.35330
 C727 C 0.27068 -0.21284 0.33123
 C728 C 0.27449 -0.22356 0.28081
 C729 C 0.30480 -0.20712 0.25529
 C730 C 0.32786 -0.17981 0.27711
 C731 C 0.34552 -0.13749 0.35064
 C732 C 0.37418 -0.11805 0.32612
 C733 C 0.39657 -0.09205 0.35132
 C734 C 0.39081 -0.08409 0.40139
 C735 C 0.36118 -0.10160 0.42573
 C736 C 0.33871 -0.12849 0.40081
 C737 C 0.28803 -0.17461 0.40273
 C738 C 0.31012 -0.14710 0.42597
 H739 H 0.26621 -0.18801 0.42393
 H740 H 0.30480 -0.14040 0.46430
 H741 H 0.24991 -0.22555 0.35449
 H742 H 0.30979 -0.21432 0.21701
 H743 H 0.41920 -0.07863 0.33172
 H744 H 0.35682 -0.09583 0.46447
 H745 H 0.34978 -0.16836 0.25468
 H746 H 0.38029 -0.12296 0.28777
 C747 C 0.31108 0.33426 -0.16576
 C748 C 0.32483 0.31317 -0.20650
 C749 C 0.30269 0.28588 -0.23060
 C750 C 0.26680 0.27705 -0.21409
 C751 C 0.25243 0.30028 -0.17579
 C752 C 0.27428 0.32782 -0.15142
 C753 C 0.33647 0.36264 -0.14051
 C754 C 0.32638 0.38516 -0.09908
 C755 C 0.35195 0.41008 -0.07634
 C756 C 0.38821 0.41279 -0.09404
 C757 C 0.39783 0.39132 -0.13610
 C758 C 0.37269 0.36655 -0.15908
 C759 C 0.36075 0.31929 -0.22339
 C760 C 0.38413 0.34531 -0.20020
 H761 H 0.37119 0.30334 -0.25482
 H762 H 0.41185 0.34854 -0.21447
 H763 H 0.31380 0.27194 -0.26304
 H764 H 0.22403 0.29704 -0.16440
 H765 H 0.34356 0.42657 -0.04437
 H766 H 0.42545 0.39350 -0.15106
 H767 H 0.26187 0.34394 -0.12168
 H768 H 0.29908 0.38352 -0.08348
 C769 C 1.17314 -0.18687 0.16027
 C770 C 1.16542 -0.22512 0.17398
 C771 C 1.19122 -0.24588 0.20193
 C772 C 1.22389 -0.22824 0.22086
 C773 C 1.22926 -0.18882 0.20876
 C774 C 1.20491 -0.16898 0.17861
 C775 C 1.14555 -0.16550 0.13039
 C776 C 1.15359 -0.12953 0.10950
 C777 C 1.12591 -0.10789 0.08814
 C778 C 1.08956 -0.12152 0.08664
 C779 C 1.08192 -0.15939 0.10188
 C780 C 1.11015 -0.18175 0.12350
 C781 C 1.13115 -0.24151 0.16202
 C782 C 1.10358 -0.21979 0.13883
 H783 H 1.12489 -0.27087 0.17297
 H784 H 1.07691 -0.23295 0.13270
 H785 H 1.18529 -0.27581 0.21058
 H786 H 1.25164 -0.17176 0.22286
 H787 H 1.13283 -0.07959 0.07390
 H788 H 1.05414 -0.17062 0.09894
 H789 H 1.21064 -0.13884 0.17206
 H790 H 1.18095 -0.11737 0.10993
 C791 C 1.16026 0.31403 0.67485
 C792 C 1.19729 0.31306 0.65854
 C793 C 1.22401 0.29266 0.68583
 C794 C 1.21416 0.27248 0.72896
 C795 C 1.17829 0.27883 0.74782
 C796 C 1.15170 0.29829 0.72088
 C797 C 1.13209 0.33431 0.64426
 C798 C 1.09401 0.33317 0.65498
 C799 C 1.06922 0.35596 0.62853
 C800 C 1.08196 0.37982 0.59082
 C801 C 1.11923 0.37882 0.57721
 C802 C 1.14433 0.35581 0.60325
 C803 C 1.20732 0.33309 0.61577
 C804 C 1.18155 0.35478 0.58936
 H805 H 1.23566 0.33281 0.60324
 H806 H 1.19085 0.37084 0.55745
 H807 H 1.25227 0.29173 0.67301
 H808 H 1.17009 0.26832 0.78368
 H809 H 1.04047 0.35654 0.63923
 H810 H 1.12886 0.39725 0.54758
 H811 H 1.12476 0.30132 0.73722
 H812 H 1.08302 0.31553 0.68423
 C813 C 0.68255 -0.15982 0.66983
 C814 C 0.68219 -0.16228 0.72176
 C815 C 0.70322 -0.19061 0.74573
 C816 C 0.72420 -0.21782 0.71901
 C817 C 0.72027 -0.21822 0.66732
 C818 C 0.70060 -0.18908 0.64303
 C819 C 0.66182 -0.12738 0.64579
 C820 C 0.66483 -0.11855 0.59523
 C821 C 0.64290 -0.08963 0.57416
 C822 C 0.61697 -0.06967 0.60276
 C823 C 0.61567 -0.07641 0.65368
 C824 C 0.63856 -0.10426 0.67550
 C825 C 0.66038 -0.13687 0.74944
 C826 C 0.63812 -0.10931 0.72669
 H827 H 0.65970 -0.13904 0.78925
 H828 H 0.62075 -0.09124 0.74960
 H829 H 0.70402 -0.19110 0.78565
 H830 H 0.73258 -0.24069 0.64514
 H831 H 0.64465 -0.08446 0.53494
 H832 H 0.59606 -0.06058 0.67610
 H833 H 0.69921 -0.19019 0.60331
 H834 H 0.68367 -0.13400 0.57153
 C835 C 0.69274 0.33854 0.16351
 C836 C 0.68187 0.29931 0.16545
 C837 C 0.70342 0.27217 0.19066
 C838 C 0.73478 0.28339 0.21755
 C839 C 0.74701 0.32187 0.21208
 C840 C 0.72614 0.34909 0.18612
 C841 C 0.66773 0.36697 0.13820
 C842 C 0.67562 0.40685 0.13362
 C843 C 0.65010 0.43220 0.11195
 C844 C 0.61610 0.41830 0.09530
 C845 C 0.60870 0.37866 0.09812
 C846 C 0.63406 0.35305 0.11892
 C847 C 0.64898 0.28736 0.14343
 C848 C 0.62545 0.31369 0.12104
 H849 H 0.64078 0.25728 0.14467
 H850 H 0.59982 0.30311 0.10564
 H851 H 0.69489 0.24217 0.19118
 H852 H 0.77287 0.33129 0.22770
 H853 H 0.65639 0.46271 0.10963
 H854 H 0.58275 0.36765 0.08413
 H855 H 0.73646 0.37827 0.18450
 H856 H 0.70108 0.41899 0.14702
 C857 C 0.82550 0.18572 0.14777
 C858 C 0.79173 0.16992 0.16428
 C859 C 0.76728 0.19254 0.19189
 C860 C 0.77733 0.22993 0.20698
 C861 C 0.80792 0.24718 0.18376
 C862 C 0.83199 0.22532 0.15508
 C863 C 0.85344 0.15917 0.12544
 C864 C 0.88918 0.17122 0.11178
 C865 C 0.91521 0.14448 0.09503
 C866 C 0.90625 0.10523 0.09211
 C867 C 0.87043 0.09328 0.10407
 C868 C 0.84417 0.11970 0.12076
 C869 C 0.78345 0.13108 0.15562
 C870 C 0.80914 0.10646 0.13418
 H871 H 0.75730 0.11914 0.16742
 H872 H 0.80196 0.07628 0.12976
 H873 H 0.74150 0.18001 0.20390
 H874 H 0.81483 0.27706 0.19109
 H875 H 0.94255 0.15439 0.08527
 H876 H 0.86289 0.06309 0.10071
 H877 H 0.85614 0.23957 0.14081
 H878 H 0.89781 0.20093 0.11463
 C879 C 0.83608 0.68962 0.66998
 C880 C 0.81570 0.67266 0.70875
 C881 C 0.78641 0.69252 0.73058
 C882 C 0.77652 0.73012 0.71568
 C883 C 0.79843 0.74755 0.67880
 C884 C 0.82700 0.72741 0.65545
 C885 C 0.86714 0.66683 0.64759
 C886 C 0.88785 0.67924 0.60634
 C887 C 0.91479 0.65516 0.58520
 C888 C 0.92157 0.61846 0.60496
 C889 C 0.90290 0.60740 0.64798
 C890 C 0.87535 0.63041 0.66832
 C891 C 0.82542 0.63641 0.72723
 C892 C 0.85493 0.61600 0.70793
 H893 H 0.81011 0.62368 0.75742
 H894 H 0.86131 0.58798 0.72354
 H895 H 0.77290 0.67910 0.76168
 H896 H 0.79427 0.77749 0.66891
 H897 H 0.92914 0.66456 0.55241
 H898 H 0.90838 0.57945 0.66445
 H899 H 0.84254 0.74238 0.62747
 H900 H 0.88269 0.70672 0.58896
 C901 C 0.30871 0.16436 0.67154
 C902 C 0.31654 0.17255 0.72151
 C903 C 0.29477 0.19893 0.74793
 C904 C 0.26594 0.21967 0.72531
 C905 C 0.25768 0.21046 0.67581
 C906 C 0.27881 0.18357 0.64933
 C907 C 0.33304 0.13595 0.64465
 C908 C 0.32730 0.12441 0.59526
 C909 C 0.35229 0.09963 0.57140
 C910 C 0.38366 0.08617 0.59601
 C911 C 0.38860 0.09610 0.64570
 C912 C 0.36364 0.12042 0.67013
 C913 C 0.34640 0.15480 0.74493
 C914 C 0.36967 0.12970 0.71967
 H915 H 0.35238 0.16106 0.78323
 H916 H 0.39292 0.11747 0.73925
 H917 H 0.30064 0.20401 0.78656
 H918 H 0.23413 0.22282 0.65740
 H919 H 0.34797 0.09242 0.53313
 H920 H 0.41258 0.08540 0.66523
 H921 H 0.27121 0.17810 0.61155
 H922 H 0.30408 0.13473 0.57427
 C923 C 0.31511 0.66580 0.17255
 C924 C 0.32456 0.67692 0.22099
 C925 C 0.30301 0.70405 0.24658
 C926 C 0.27140 0.72155 0.22523
 C927 C 0.26393 0.71132 0.17541
 C928 C 0.28494 0.68391 0.15010
 C929 C 0.33870 0.63639 0.14660
 C930 C 0.33065 0.62151 0.09926
 C931 C 0.35503 0.59603 0.07565
 C932 C 0.38797 0.58514 0.09852
 C933 C 0.39502 0.59804 0.14668
 C934 C 0.37072 0.62316 0.17085
 C935 C 0.35584 0.66132 0.24361
 C936 C 0.37870 0.63546 0.21884
 H937 H 0.36322 0.66984 0.28075
 H938 H 0.40308 0.62496 0.23757
 H939 H 0.31050 0.71114 0.28419
 H940 H 0.24207 0.72424 0.15435
 H941 H 0.34885 0.58613 0.03881
 H942 H 0.42007 0.58904 0.16517
 H943 H 0.27742 0.67777 0.11245
 H944 H 0.30596 0.62956 0.07970
   
