data_POSCAR
  _audit_creation_date              2014-09-24
  _audit_creation_method            'ToBaCCo'
  _symmetry_space_group_name_H-M    'P1'
  _symmetry_Int_Tables_number       1
  _symmetry_cell_setting            triclinic
  loop_
  _symmetry_equiv_pos_as_xyz
 x,y,z
_cell_length_a 41.7463
_cell_length_b 40.5260
_cell_length_c 42.4340
_cell_angle_alpha 89.998800
_cell_angle_beta 89.994400
_cell_angle_gamma 120.956000
loop_
  _atom_site_label
  _atom_site_type_symbol
  _atom_site_fract_x
  _atom_site_fract_y
  _atom_site_fract_z
C1 C -0.00002 0.49705 1.33713
 C2 C 0.03431 0.51521 1.32106
 C3 C 0.03377 0.51697 1.28792
 C4 C 0.00003 0.49692 1.27068
 C5 C -0.03376 0.47702 1.28790
 C6 C -0.03434 0.47896 1.32104
 C7 C 0.00012 0.49685 1.23502
 C8 C -0.03263 0.48663 1.21762
 C9 C -0.03299 0.48534 1.18455
 C10 C 0.00042 0.49713 1.16833
 C11 C 0.03368 0.50874 1.18472
 C12 C 0.03299 0.50711 1.21779
 H13 H -0.00002 0.49707 1.36260
 H14 H 0.05998 0.53265 1.27567
 H15 H -0.05996 0.46139 1.27561
 H16 H -0.05820 0.48019 1.22922
 H17 H 0.00054 0.49729 1.14280
 H18 H 0.05845 0.51342 1.22952
 C19 C 0.50377 0.50425 1.33411
 C20 C 0.48245 0.51686 1.31811
 C21 C 0.48180 0.51560 1.28491
 C22 C 0.50349 0.50432 1.26751
 C23 C 0.52545 0.49319 1.28467
 C24 C 0.52495 0.49167 1.31784
 C25 C 0.50312 0.50398 1.23179
 C26 C 0.51801 0.48500 1.21447
 C27 C 0.51922 0.48603 1.18142
 C28 C 0.50247 0.50318 1.16510
 C29 C 0.48593 0.52064 1.18133
 C30 C 0.48779 0.52248 1.21438
 H31 H 0.50384 0.50417 1.35951
 H32 H 0.46262 0.52163 1.27298
 H33 H 0.54466 0.48735 1.27257
 H34 H 0.52930 0.46954 1.22607
 H35 H 0.50224 0.50288 1.13955
 H36 H 0.47657 0.53805 1.22591
 C37 C 0.49822 0.99565 1.33364
 C38 C 0.47723 0.96202 1.31603
 C39 C 0.47912 0.96385 1.28312
 C40 C 0.50352 0.99859 1.26741
 C41 C 0.52567 1.03182 1.28585
 C42 C 0.52201 1.03132 1.31899
 C43 C 0.50478 1.00040 1.23198
 C44 C 0.51627 1.03533 1.21598
 C45 C 0.51678 1.03704 1.18297
 C46 C 0.50382 1.00317 1.16557
 C47 C 0.49122 0.96787 1.18070
 C48 C 0.49315 0.96694 1.21371
 H49 H 0.49715 0.99332 1.35907
 H50 H 0.46068 0.93795 1.27013
 H51 H 0.54457 1.05855 1.27424
 H52 H 0.52395 1.06142 1.22877
 H53 H 0.50402 1.00436 1.14006
 H54 H 0.48464 0.93970 1.22487
 C55 C 0.99851 0.49357 0.66493
 C56 C 0.96533 0.48202 0.68142
 C57 C 0.96618 0.48480 0.71435
 C58 C 0.99937 0.49666 0.73146
 C59 C 1.03218 0.50707 0.71415
 C60 C 1.03267 0.50727 0.68088
 C61 C 0.99986 0.49843 0.76703
 C62 C 1.03383 0.51973 0.78383
 C63 C 1.03450 0.52105 0.81689
 C64 C 1.00074 0.50314 0.83350
 C65 C 0.96661 0.48297 0.81762
 C66 C 0.96637 0.47935 0.78472
 H67 H 0.99748 0.49301 0.63947
 H68 H 0.94064 0.47825 0.72606
 H69 H 1.05736 0.51346 0.72636
 H70 H 1.06016 0.53624 0.77172
 H71 H 1.00094 0.50415 0.85902
 H72 H 0.93966 0.46198 0.77340
 C73 C 0.49977 0.49868 0.66526
 C74 C 0.51538 0.48046 0.68181
 C75 C 0.51580 0.48148 0.71487
 C76 C 0.50302 0.50265 0.73173
 C77 C 0.48888 0.52205 0.71414
 C78 C 0.48579 0.51881 0.68122
 C79 C 0.50373 0.50379 0.76726
 C80 C 0.48149 0.51457 0.78439
 C81 C 0.48247 0.51626 0.81744
 C82 C 0.50402 0.50451 0.83388
 C83 C 0.52543 0.49243 0.81765
 C84 C 0.52625 0.49357 0.78458
 H85 H 0.49911 0.49788 0.63973
 H86 H 0.52546 0.46480 0.72698
 H87 H 0.47948 0.53932 0.72561
 H88 H 0.46249 0.52102 0.77254
 H89 H 0.50400 0.50462 0.85940
 H90 H 0.54502 0.48671 0.77283
 C91 C 0.49889 0.00196 0.66642
 C92 C 0.51221 0.03602 0.68356
 C93 C 0.51237 0.03476 0.71651
 C94 C 0.50154 0.00015 0.73276
 C95 C 0.48971 -0.03360 0.71469
 C96 C 0.48636 -0.03361 0.68149
 C97 C 0.50121 -0.00083 0.76833
 C98 C 0.47804 -0.03541 0.78495
 C99 C 0.47619 -0.03647 0.81819
 C100 C 0.49674 -0.00154 0.83469
 C101 C 0.51947 0.03327 0.81894
 C102 C 0.52273 0.03317 0.78605
 H103 H 0.50014 0.00387 0.64096
 H104 H 0.52030 0.06105 0.72904
 H105 H 0.48149 -0.06027 0.72656
 H106 H 0.45948 -0.06138 0.77217
 H107 H 0.49681 -0.00122 0.86019
 H108 H 0.54158 0.06010 0.77455
 O109 O 0.38147 0.66176 0.96069
 O110 O 0.38415 0.72649 0.97119
 C111 C 0.36034 0.73317 0.95873
 O112 O 0.32635 0.71610 0.96710
 O113 O 0.26383 0.65182 0.97724
 C114 C 0.25737 0.62310 0.96036
 O115 O 0.27406 0.60459 0.96436
 O116 O 0.33534 0.60240 0.97135
 C117 C 0.36377 0.62590 0.95545
 O118 O 0.38614 0.65214 1.02324
 O119 O 0.38726 0.71611 1.03373
 C120 C 0.37006 0.73294 1.04191
 O121 O 0.33955 0.72580 1.02934
 O122 O 0.27817 0.66030 1.03969
 C123 C 0.26009 0.62425 1.04409
 O124 O 0.26498 0.60134 1.02724
 O125 O 0.32851 0.60361 1.03410
 C126 C 0.36354 0.62233 1.03896
 Cr127 Cr 0.38258 0.68798 0.99731
 Cr128 Cr 0.30302 0.68738 1.00323
 Cr129 Cr 0.30182 0.60521 0.99929
 O130 O 0.32924 0.66031 0.99995
 O131 O 0.61902 0.34098 0.96212
 O132 O 0.61479 0.27530 0.97219
 C133 C 0.63760 0.26800 0.95863
 O134 O 0.67192 0.28474 0.96587
 O135 O 0.73552 0.34825 0.97566
 C136 C 0.74254 0.37796 0.95990
 O137 O 0.72637 0.39676 0.96498
 O138 O 0.66587 0.39989 0.97322
 C139 C 0.63729 0.37693 0.95718
 O140 O 0.61551 0.35053 1.02475
 O141 O 0.61368 0.28609 1.03465
 C142 C 0.63039 0.26848 1.04207
 O143 O 0.66010 0.27453 1.02851
 O144 O 0.72269 0.33906 1.03836
 C145 C 0.74104 0.37497 1.04351
 O146 O 0.73619 0.39857 1.02762
 O147 O 0.67358 0.39763 1.03585
 C148 C 0.63860 0.37979 1.04070
 Cr149 Cr 0.61791 0.31430 0.99849
 Cr150 Cr 0.69654 0.31280 1.00203
 Cr151 Cr 0.69937 0.39599 1.00041
 O152 O 0.67124 0.34094 1.00031
 O153 O 0.66950 0.39364 0.53521
 O154 O 0.73263 0.39553 0.52743
 C155 C 0.73755 0.37172 0.54289
 O156 O 0.71946 0.33595 0.53719
 O157 O 0.65703 0.27158 0.52648
 C158 C 0.62701 0.26532 0.53968
 O159 O 0.61027 0.28283 0.53197
 O160 O 0.61196 0.34721 0.52203
 C161 C 0.63435 0.37558 0.53912
 O162 O 0.66316 0.39756 0.47246
 O163 O 0.72428 0.39529 0.46480
 C164 C 0.74036 0.37646 0.45935
 O165 O 0.73314 0.34631 0.47456
 O166 O 0.67010 0.28285 0.46391
 C167 C 0.63588 0.26580 0.45643
 O168 O 0.61279 0.27286 0.46969
 O169 O 0.61737 0.33879 0.45951
 C170 C 0.63542 0.37493 0.45543
 Cr171 Cr 0.69627 0.39330 0.49992
 Cr172 Cr 0.69392 0.31031 0.50048
 Cr173 Cr 0.61525 0.31152 0.49588
 O174 O 0.66849 0.33828 0.49875
 O175 O 0.32999 0.60487 0.53611
 O176 O 0.26602 0.60089 0.52741
 C177 C 0.26006 0.62360 0.54347
 O178 O 0.27760 0.65959 0.53869
 O179 O 0.33874 0.72558 0.52839
 C180 C 0.36890 0.73311 0.54199
 O181 O 0.38664 0.71647 0.53483
 O182 O 0.38744 0.65329 0.52489
 C183 C 0.36499 0.62373 0.54091
 O184 O 0.33833 0.60284 0.47360
 O185 O 0.27640 0.60310 0.46496
 C186 C 0.25902 0.62069 0.45996
 O187 O 0.26463 0.64977 0.47593
 O188 O 0.32671 0.71445 0.46597
 C189 C 0.36099 0.73232 0.45852
 O190 O 0.38489 0.72673 0.47218
 O191 O 0.38348 0.66244 0.46217
 C192 C 0.36634 0.62647 0.45733
 Cr193 Cr 0.30375 0.60513 0.50053
 Cr194 Cr 0.30300 0.68630 0.50221
 Cr195 Cr 0.38348 0.68859 0.49860
 O196 O 0.33012 0.66011 0.50045
 C197 C 0.42659 0.56197 0.37078
 C198 C 0.43958 0.57542 0.34025
 C199 C 0.45685 0.55976 0.32248
 C200 C 0.46237 0.53075 0.33511
 C201 C 0.44848 0.51705 0.36568
 C202 C 0.43083 0.53235 0.38311
 C203 C 0.40923 0.57897 0.39030
 C204 C 0.37689 0.55497 0.40777
 C205 C 0.36239 0.57057 0.42864
 C206 C 0.38000 0.61066 0.43272
 C207 C 0.41160 0.63480 0.41433
 C208 C 0.42600 0.61908 0.39321
 H209 H 0.46760 0.57207 0.29949
 H210 H 0.45012 0.49362 0.37614
 H211 H 0.33785 0.55104 0.44219
 H212 H 0.42577 0.66577 0.41683
 H213 H 0.42102 0.52137 0.40662
 H214 H 0.36311 0.52397 0.40564
 H215 H 0.43650 0.59818 0.33015
 H216 H 0.45110 0.63822 0.38010
 C217 C 0.41731 0.85634 0.36807
 C218 C 0.41336 0.88778 0.37577
 C219 C 0.43179 0.92171 0.35819
 C220 C 0.45425 0.92472 0.33240
 C221 C 0.45682 0.89269 0.32381
 C222 C 0.43868 0.85887 0.34159
 C223 C 0.40142 0.82223 0.38899
 C224 C 0.42346 0.80700 0.39843
 C225 C 0.41002 0.77725 0.42050
 C226 C 0.37409 0.76185 0.43342
 C227 C 0.35153 0.77617 0.42311
 C228 C 0.36516 0.80624 0.40125
 H229 H 0.42916 0.94593 0.36512
 H230 H 0.47413 0.89438 0.30413
 H231 H 0.42803 0.76674 0.42783
 H232 H 0.32371 0.76490 0.43258
 H233 H 0.44191 0.83491 0.33503
 H234 H 0.45166 0.81907 0.38960
 H235 H 0.39730 0.88671 0.39619
 H236 H 0.34752 0.81730 0.39418
 C237 C 0.13559 0.56044 0.37298
 C238 C 0.13472 0.57820 0.34488
 C239 C 0.10168 0.56318 0.32739
 C240 C 0.06834 0.53054 0.33808
 C241 C 0.06982 0.51298 0.36639
 C242 C 0.10296 0.52756 0.38338
 C243 C 0.16982 0.57682 0.39241
 C244 C 0.18225 0.55300 0.40436
 C245 C 0.21227 0.56761 0.42538
 C246 C 0.22994 0.60615 0.43525
 C247 C 0.21817 0.63022 0.42252
 C248 C 0.18856 0.61575 0.40110
 H249 H 0.10213 0.57849 0.30635
 H250 H 0.04571 0.48692 0.37509
 H251 H 0.22072 0.54840 0.43480
 H252 H 0.23145 0.66012 0.42954
 H253 H 0.10293 0.51341 0.40505
 H254 H 0.16828 0.52290 0.39782
 H255 H 0.15964 0.60377 0.33651
 H256 H 0.17930 0.63457 0.39235
 C257 C 0.57949 0.44443 0.36963
 C258 C 0.57572 0.47416 0.38240
 C259 C 0.55859 0.49025 0.36524
 C260 C 0.54479 0.47726 0.33452
 C261 C 0.54996 0.44821 0.32144
 C262 C 0.56669 0.43177 0.33891
 C263 C 0.59589 0.42625 0.38893
 C264 C 0.57837 0.38599 0.39098
 C265 C 0.59176 0.36906 0.41187
 C266 C 0.62306 0.39211 0.43092
 C267 C 0.64146 0.43236 0.42770
 C268 C 0.62796 0.44919 0.40705
 H269 H 0.55721 0.51365 0.37606
 H270 H 0.53924 0.43639 0.29833
 H271 H 0.57699 0.33799 0.41371
 H272 H 0.66580 0.45107 0.44180
 H273 H 0.56943 0.40896 0.32847
 H274 H 0.55345 0.36764 0.37738
 H275 H 0.58539 0.48454 0.40606
 H276 H 0.64231 0.48027 0.40559
 C277 C 0.57476 0.13497 0.37273
 C278 C 0.59133 0.13237 0.34483
 C279 C 0.57438 0.09834 0.32714
 C280 C 0.54055 0.06571 0.33717
 C281 C 0.52471 0.06869 0.36569
 C282 C 0.54150 0.10269 0.38305
 C283 C 0.59163 0.17103 0.39133
 C284 C 0.56879 0.18392 0.40373
 C285 C 0.58354 0.21558 0.42386
 C286 C 0.62155 0.23514 0.43217
 C287 C 0.64482 0.22332 0.41863
 C288 C 0.62998 0.19158 0.39832
 H289 H 0.58873 0.09761 0.30618
 H290 H 0.49818 0.04548 0.37419
 H291 H 0.56485 0.22406 0.43357
 H292 H 0.67423 0.23781 0.42448
 H293 H 0.52827 0.10376 0.40468
 H294 H 0.53925 0.16903 0.39824
 H295 H 0.61716 0.15686 0.33645
 H296 H 0.64817 0.18217 0.38912
 C297 C 0.86441 0.43495 0.37293
 C298 C 0.89727 0.46758 0.38330
 C299 C 0.93037 0.48174 0.36633
 C300 C 0.93163 0.46398 0.33806
 C301 C 0.89810 0.43157 0.32740
 C302 C 0.86506 0.41699 0.34487
 C303 C 0.83014 0.41911 0.39229
 C304 C 0.81052 0.38008 0.40073
 C305 C 0.78079 0.36604 0.42200
 C306 C 0.76976 0.39067 0.43488
 C307 C 0.78836 0.42935 0.42530
 C308 C 0.81846 0.44350 0.40440
 H309 H 0.95463 0.50767 0.37501
 H310 H 0.89744 0.41612 0.30639
 H311 H 0.76680 0.33601 0.42877
 H312 H 0.78050 0.44900 0.43481
 H313 H 0.83997 0.39161 0.33648
 H314 H 0.81918 0.36080 0.39186
 H315 H 0.89751 0.48189 0.40494
 H316 H 0.83307 0.47369 0.39805
 C317 C 0.57516 0.43989 1.12829
 C318 C 0.58192 0.47697 1.12208
 C319 C 0.56383 0.49184 1.13950
 C320 C 0.53880 0.47008 1.16367
 C321 C 0.53258 0.43330 1.17040
 C322 C 0.55044 0.41823 1.15272
 C323 C 0.59251 0.42338 1.10819
 C324 C 0.57083 0.38584 1.09633
 C325 C 0.58611 0.37143 1.07500
 C326 C 0.62352 0.39414 1.06524
 C327 C 0.64563 0.43118 1.07804
 C328 C 0.63021 0.44572 1.09918
 H329 H 0.56940 0.52044 1.13408
 H330 H 0.51332 0.41592 1.18885
 H331 H 0.56836 0.34269 1.06572
 H332 H 0.67454 0.44936 1.07105
 H333 H 0.54489 0.38963 1.15808
 H334 H 0.54163 0.36812 1.10265
 H335 H 0.60048 0.49412 1.10318
 H336 H 0.64764 0.47463 1.10823
 C337 C 0.86536 0.43970 1.13068
 C338 C 0.86618 0.42173 1.15874
 C339 C 0.89889 0.43718 1.17668
 C340 C 0.93154 0.47080 1.16684
 C341 C 0.93049 0.48918 1.13913
 C342 C 0.89778 0.47383 1.12128
 C343 C 0.83137 0.42244 1.11061
 C344 C 0.82041 0.44600 1.09568
 C345 C 0.79035 0.43032 1.07473
 C346 C 0.77047 0.39064 1.06813
 C347 C 0.78055 0.36682 1.08394
 C348 C 0.81068 0.38256 1.10496
 H349 H 0.89897 0.42222 1.19780
 H350 H 0.95508 0.51531 1.13112
 H351 H 0.78320 0.44953 1.06321
 H352 H 0.76587 0.33617 1.07939
 H353 H 0.89819 0.48816 1.09962
 H354 H 0.83536 0.47671 1.09997
 H355 H 0.84156 0.39561 1.16674
 H356 H 0.81864 0.36369 1.11591
 C357 C 0.56291 0.14296 1.13113
 C358 C 0.58150 0.14031 1.15774
 C359 C 0.56578 0.10634 1.17534
 C360 C 0.53140 0.07427 1.16642
 C361 C 0.51228 0.07733 1.14041
 C362 C 0.52781 0.11140 1.12302
 C363 C 0.58104 0.17743 1.11061
 C364 C 0.56057 0.19325 1.09842
 C365 C 0.57696 0.22372 1.07694
 C366 C 0.61403 0.23865 1.06693
 C367 C 0.63476 0.22344 1.07981
 C368 C 0.61849 0.19327 1.10151
 H369 H 0.58115 0.10462 1.19520
 H370 H 0.48558 0.05311 1.13323
 H371 H 0.56024 0.23481 1.06749
 H372 H 0.66342 0.23441 1.07270
 H373 H 0.51302 0.11256 1.10248
 H374 H 0.53173 0.18173 1.10526
 H375 H 0.60846 0.16433 1.16462
 H376 H 0.63479 0.18137 1.11030
 C377 C 0.42880 0.56483 1.12735
 C378 C 0.45374 0.58722 1.15143
 C379 C 0.47191 0.57276 1.16946
 C380 C 0.46580 0.53588 1.16343
 C381 C 0.44049 0.51338 1.13967
 C382 C 0.42211 0.52763 1.12191
 C383 C 0.41109 0.58063 1.10685
 C384 C 0.37336 0.55781 1.09807
 C385 C 0.35754 0.57167 1.07668
 C386 C 0.37925 0.60851 1.06340
 C387 C 0.41674 0.63166 1.07286
 C388 C 0.43242 0.61792 1.09443
 H389 H 0.49137 0.59071 1.18759
 H390 H 0.43499 0.48468 1.13479
 H391 H 0.32858 0.55315 1.06997
 H392 H 0.43420 0.66027 1.06324
 H393 H 0.40339 0.50990 1.10331
 H394 H 0.35617 0.52908 1.10754
 H395 H 0.45923 0.61592 1.15623
 H396 H 0.46164 0.63600 1.10055
 C397 C 0.13589 0.55601 1.13138
 C398 C 0.13472 0.57323 1.15977
 C399 C 0.10185 0.55720 1.17755
 C400 C 0.06938 0.52372 1.16724
 C401 C 0.07080 0.50603 1.13924
 C402 C 0.10367 0.52196 1.12154
 C403 C 0.16997 0.57410 1.11137
 C404 C 0.18125 0.55124 1.09568
 C405 C 0.21130 0.56777 1.07470
 C406 C 0.23086 0.60762 1.06886
 C407 C 0.22050 0.63073 1.08547
 C408 C 0.19038 0.61414 1.10650
 H409 H 0.10151 0.57166 1.19889
 H410 H 0.04635 0.48002 1.13086
 H411 H 0.21867 0.54910 1.06255
 H412 H 0.23492 0.66149 1.08151
 H413 H 0.10351 0.50821 1.09962
 H414 H 0.16653 0.52042 1.09936
 H415 H 0.15918 0.59924 1.16813
 H416 H 0.18218 0.63250 1.11803
 C417 C 0.43910 0.86290 1.12663
 C418 C 0.46419 0.86824 1.15097
 C419 C 0.48140 0.90235 1.16856
 C420 C 0.47402 0.93181 1.16195
 C421 C 0.44911 0.92643 1.13749
 C422 C 0.43195 0.89248 1.12004
 C423 C 0.42052 0.82699 1.10771
 C424 C 0.38296 0.81070 1.09879
 C425 C 0.36628 0.77934 1.07832
 C426 C 0.38671 0.76333 1.06635
 C427 C 0.42377 0.77839 1.07647
 C428 C 0.44052 0.80995 1.09694
 H429 H 0.50066 0.90580 1.18715
 H430 H 0.44245 0.94835 1.13210
 H431 H 0.33754 0.76817 1.07134
 H432 H 0.44026 0.76671 1.06769
 H433 H 0.41325 0.88954 1.10111
 H434 H 0.36657 0.82265 1.10726
 H435 H 0.47012 0.84586 1.15665
 H436 H 0.46957 0.82199 1.10330
 C437 C 0.56597 0.42924 0.62778
 C438 C 0.58355 0.45063 0.65506
 C439 C 0.56658 0.46626 0.67320
 C440 C 0.53179 0.46097 0.66432
 C441 C 0.51384 0.43879 0.63750
 C442 C 0.53074 0.42316 0.61943
 C443 C 0.58456 0.41430 0.60735
 C444 C 0.56355 0.37794 0.59321
 C445 C 0.58005 0.36515 0.57170
 C446 C 0.61807 0.38833 0.56386
 C447 C 0.63953 0.42407 0.57893
 C448 C 0.62291 0.43697 0.60043
 H449 H 0.58118 0.48348 0.69363
 H450 H 0.48685 0.43390 0.63027
 H451 H 0.56280 0.33721 0.56088
 H452 H 0.66887 0.44258 0.57341
 H453 H 0.51663 0.40720 0.59837
 H454 H 0.53414 0.35948 0.59854
 H455 H 0.61052 0.45545 0.66226
 H456 H 0.63977 0.46527 0.61076
 C457 C 0.55892 0.14095 0.63011
 C458 C 0.57775 0.13850 0.65663
 C459 C 0.56183 0.10497 0.67484
 C460 C 0.52696 0.07310 0.66664
 C461 C 0.50760 0.07602 0.64075
 C462 C 0.52334 0.10966 0.62275
 C463 C 0.57716 0.17491 0.60896
 C464 C 0.55696 0.19094 0.59657
 C465 C 0.57346 0.22105 0.57475
 C466 C 0.61040 0.23546 0.56457
 C467 C 0.63083 0.21994 0.57753
 C468 C 0.61444 0.19012 0.59957
 H469 H 0.57741 0.10337 0.69459
 H470 H 0.48056 0.05195 0.63408
 H471 H 0.55695 0.23237 0.56526
 H472 H 0.65938 0.23047 0.57031
 H473 H 0.50831 0.11063 0.60230
 H474 H 0.52827 0.17994 0.60360
 H475 H 0.60507 0.16233 0.66298
 H476 H 0.63055 0.17805 0.60848
 C477 C 0.86266 0.43563 0.62901
 C478 C 0.86418 0.41761 0.65679
 C479 C 0.89728 0.43321 0.67422
 C480 C 0.92958 0.46694 0.66407
 C481 C 0.92787 0.48527 0.63659
 C482 C 0.89479 0.46982 0.61927
 C483 C 0.82822 0.41843 0.60953
 C484 C 0.81680 0.44204 0.59542
 C485 C 0.78651 0.42655 0.57473
 C486 C 0.76686 0.38701 0.56760
 C487 C 0.77729 0.36308 0.58274
 C488 C 0.80766 0.37864 0.60351
 H489 H 0.89790 0.41837 0.69523
 H490 H 0.95221 0.51151 0.62838
 H491 H 0.77908 0.44582 0.56374
 H492 H 0.76278 0.33253 0.57777
 H493 H 0.89463 0.48415 0.59779
 H494 H 0.83166 0.47268 0.60005
 H495 H 0.83978 0.39143 0.66501
 H496 H 0.81596 0.35976 0.61388
 C497 C 0.43048 0.56556 0.62808
 C498 C 0.45677 0.58793 0.65135
 C499 C 0.47458 0.57277 0.66896
 C500 C 0.46670 0.53516 0.66332
 C501 C 0.44018 0.51276 0.64026
 C502 C 0.42221 0.52776 0.62290
 C503 C 0.41281 0.58187 0.60818
 C504 C 0.37466 0.55981 0.60057
 C505 C 0.35877 0.57386 0.57949
 C506 C 0.38080 0.61016 0.56541
 C507 C 0.41870 0.63271 0.57385
 C508 C 0.43450 0.61875 0.59508
 H509 H 0.49500 0.59064 0.68654
 H510 H 0.43328 0.48352 0.63572
 H511 H 0.32948 0.55583 0.57359
 H512 H 0.43642 0.66089 0.56357
 H513 H 0.40244 0.51003 0.60487
 H514 H 0.35722 0.53145 0.61064
 H515 H 0.46351 0.61711 0.65590
 H516 H 0.46403 0.63623 0.60033
 C517 C 0.43532 0.86266 0.62755
 C518 C 0.45380 0.86492 0.65581
 C519 C 0.47064 0.89884 0.67374
 C520 C 0.46997 0.93174 0.66355
 C521 C 0.45148 0.92894 0.63487
 C522 C 0.43450 0.89508 0.61730
 C523 C 0.41689 0.82693 0.60837
 C524 C 0.38170 0.81429 0.59491
 C525 C 0.36568 0.78307 0.57424
 C526 C 0.38448 0.76368 0.56643
 C527 C 0.41903 0.77531 0.58093
 C528 C 0.43504 0.80659 0.60177
 H529 H 0.48525 0.89931 0.69492
 H530 H 0.44839 0.95228 0.62629
 H531 H 0.33890 0.77476 0.56380
 H532 H 0.43421 0.76095 0.57552
 H533 H 0.42069 0.89432 0.59547
 H534 H 0.36677 0.82900 0.60001
 H535 H 0.45493 0.84031 0.66422
 H536 H 0.46226 0.81581 0.61173
 C537 C 0.13393 0.55470 0.62845
 C538 C 0.13393 0.56759 0.65909
 C539 C 0.10093 0.55116 0.67673
 C540 C 0.06672 0.52180 0.66393
 C541 C 0.06734 0.50867 0.63322
 C542 C 0.10042 0.52478 0.61588
 C543 C 0.16843 0.57275 0.60913
 C544 C 0.17777 0.54968 0.59140
 C545 C 0.20832 0.56637 0.57102
 C546 C 0.23017 0.60661 0.56765
 C547 C 0.22160 0.62979 0.58623
 C548 C 0.19108 0.61300 0.60687
 H549 H 0.10220 0.56324 0.69976
 H550 H 0.04253 0.48518 0.62255
 H551 H 0.21416 0.54757 0.55725
 H552 H 0.23788 0.66084 0.58424
 H553 H 0.09963 0.51426 0.59226
 H554 H 0.16108 0.51861 0.59303
 H555 H 0.15948 0.59057 0.66937
 H556 H 0.18433 0.63143 0.62018
 C557 C 0.42498 0.56148 0.86977
 C558 C 0.44398 0.57929 0.84176
 C559 C 0.46189 0.56407 0.82442
 C560 C 0.46135 0.53084 0.83481
 C561 C 0.44180 0.51266 0.86252
 C562 C 0.42380 0.52779 0.87978
 C563 C 0.40760 0.57858 0.88922
 C564 C 0.37303 0.55488 0.90399
 C565 C 0.35818 0.57050 0.92454
 C566 C 0.37756 0.61024 0.93086
 C567 C 0.41143 0.63418 0.91509
 C568 C 0.42629 0.61850 0.89448
 H569 H 0.47701 0.57888 0.80328
 H570 H 0.44058 0.48681 0.87093
 H571 H 0.33188 0.55122 0.93608
 H572 H 0.42711 0.66488 0.91943
 H573 H 0.40974 0.51363 0.90145
 H574 H 0.35766 0.52411 0.89997
 H575 H 0.44510 0.60507 0.83331
 H576 H 0.45313 0.63748 0.88363
 C577 C 0.13594 0.57109 0.87125
 C578 C 0.13200 0.54957 0.84402
 C579 C 0.09957 0.53442 0.82571
 C580 C 0.07039 0.54033 0.83438
 C581 C 0.07480 0.56270 0.86112
 C582 C 0.10714 0.57786 0.87935
 C583 C 0.16923 0.58549 0.89189
 C584 C 0.18495 0.62190 0.90602
 C585 C 0.21405 0.63426 0.92765
 C586 C 0.22834 0.61060 0.93565
 C587 C 0.21365 0.57476 0.92063
 C588 C 0.18432 0.56230 0.89900
 H589 H 0.09680 0.51703 0.80535
 H590 H 0.05295 0.56806 0.86819
 H591 H 0.22506 0.66229 0.93842
 H592 H 0.22406 0.55590 0.92626
 H593 H 0.10911 0.59395 0.90036
 H594 H 0.17448 0.64076 0.90056
 H595 H 0.15387 0.54423 0.83700
 H596 H 0.17258 0.53395 0.88869
 C597 C 0.41720 0.85937 0.87047
 C598 C 0.42044 0.89335 0.88199
 C599 C 0.43907 0.92735 0.86457
 C600 C 0.45465 0.92831 0.83477
 C601 C 0.44954 0.89341 0.82269
 C602 C 0.43154 0.85956 0.84054
 C603 C 0.40070 0.82456 0.89058
 C604 C 0.42023 0.80541 0.89602
 C605 C 0.40677 0.77518 0.91772
 C606 C 0.37318 0.76313 0.93401
 C607 C 0.35290 0.78131 0.92755
 C608 C 0.36671 0.81196 0.90626
 H609 H 0.44049 0.95268 0.87446
 H610 H 0.46144 0.89245 0.80029
 H611 H 0.42291 0.76160 0.92208
 H612 H 0.32697 0.77272 0.93975
 H613 H 0.42926 0.83358 0.83116
 H614 H 0.44666 0.81483 0.88439
 H615 H 0.40949 0.89389 0.90501
 H616 H 0.35110 0.82622 0.90234
 C617 C 0.58000 0.44482 0.87097
 C618 C 0.58215 0.47906 0.88074
 C619 C 0.56523 0.49506 0.86309
 C620 C 0.54585 0.47722 0.83524
 C621 C 0.54443 0.44347 0.82508
 C622 C 0.56126 0.42739 0.84279
 C623 C 0.59616 0.42679 0.89080
 C624 C 0.57640 0.38683 0.89604
 C625 C 0.59027 0.37030 0.91680
 C626 C 0.62419 0.39342 0.93274
 C627 C 0.64456 0.43319 0.92654
 C628 C 0.63070 0.44965 0.90584
 H629 H 0.56706 0.52126 0.87136
 H630 H 0.52938 0.42888 0.80386
 H631 H 0.57386 0.33961 0.92106
 H632 H 0.67095 0.45186 0.93819
 H633 H 0.55944 0.40120 0.83452
 H634 H 0.54954 0.36850 0.88499
 H635 H 0.59606 0.49296 0.90252
 H636 H 0.64687 0.48041 0.90185
 C637 C 0.86512 0.43643 0.87152
 C638 C 0.89453 0.47438 0.87631
 C639 C 0.92725 0.48934 0.85863
 C640 C 0.93126 0.46678 0.83564
 C641 C 0.90162 0.42906 0.83034
 C642 C 0.86889 0.41393 0.84826
 C643 C 0.83149 0.42010 0.89185
 C644 C 0.81672 0.38333 0.90507
 C645 C 0.78727 0.36932 0.92660
 C646 C 0.77178 0.39171 0.93526
 C647 C 0.78567 0.42794 0.92112
 C648 C 0.81530 0.44203 0.89973
 H649 H 0.94953 0.51866 0.86293
 H650 H 0.90408 0.41105 0.81282
 H651 H 0.77712 0.34120 0.93691
 H652 H 0.77429 0.44584 0.92717
 H653 H 0.84654 0.38465 0.84398
 H654 H 0.82886 0.36595 0.89965
 H655 H 0.89260 0.49222 0.89432
 H656 H 0.82588 0.47031 0.88959
 C657 C 0.57343 0.13879 0.87262
 C658 C 0.53635 0.10986 0.87885
 C659 C 0.51910 0.07595 0.86131
 C660 C 0.53849 0.06985 0.83714
 C661 C 0.57556 0.09878 0.83069
 C662 C 0.59291 0.13288 0.84834
 C663 C 0.59151 0.17445 0.89202
 C664 C 0.62857 0.19064 0.90249
 C665 C 0.64413 0.22195 0.92328
 C666 C 0.62289 0.23761 0.93409
 C667 C 0.58639 0.22239 0.92254
 C668 C 0.57096 0.19132 0.90171
 H669 H 0.49036 0.05447 0.86659
 H670 H 0.59129 0.09482 0.81233
 H671 H 0.67233 0.23299 0.93172
 H672 H 0.56939 0.23405 0.93004
 H673 H 0.62145 0.15473 0.84285
 H674 H 0.64506 0.17816 0.89563
 H675 H 0.52071 0.11315 0.89769
 H676 H 0.54264 0.18011 0.89351
   
