data_POSCAR
  _audit_creation_date              2014-09-24
  _audit_creation_method            'ToBaCCo'
  _symmetry_space_group_name_H-M    'P1'
  _symmetry_Int_Tables_number       1
  _symmetry_cell_setting            triclinic
  loop_
  _symmetry_equiv_pos_as_xyz
 x,y,z
_cell_length_a 26.6846
_cell_length_b 25.6609
_cell_length_c 15.4568
_cell_angle_alpha 90.278600
_cell_angle_beta 88.815500
_cell_angle_gamma 106.005900
loop_
  _atom_site_label
  _atom_site_type_symbol
  _atom_site_fract_x
  _atom_site_fract_y
  _atom_site_fract_z
C1 C 0.41296 0.84202 0.41695
 C2 C 0.41218 0.83322 0.50421
 C3 C 0.43408 0.88316 0.54245
 N4 N 0.44929 0.92191 0.48121
 C5 C 0.43623 0.89686 0.40438
 C6 C 0.43483 0.89315 0.63253
 C7 C 0.46857 0.94060 0.66937
 C8 C 0.46297 0.95961 0.75230
 C9 C 0.50253 1.00612 0.76287
 C10 C 0.53103 1.01547 0.68573
 N11 N 0.51011 0.97537 0.62878
 C12 C 0.57413 1.06148 0.67004
 C13 C 0.58851 1.08271 0.58582
 C14 C 0.63326 1.12352 0.56433
 C15 C 0.63066 1.13416 0.47797
 C16 C 0.58522 1.09864 0.44890
 N17 N 0.55938 1.06723 0.51472
 C18 C 0.56663 1.09836 0.36422
 C19 C 0.52517 1.05678 0.33116
 C20 C 0.50051 1.05986 0.25395
 C21 C 0.46457 1.01065 0.24253
 C22 C 0.46798 0.97887 0.31331
 N23 N 0.50562 1.00706 0.36636
 C24 C 0.43883 0.92433 0.32500
 H25 H 0.39708 0.81144 0.36904
 H26 H 0.39637 0.79450 0.53599
 H27 H 0.52063 0.99167 0.41895
 H28 H 0.43239 0.94351 0.79976
 H29 H 0.50799 1.03172 0.81971
 H30 H 0.66488 1.14351 0.60591
 H31 H 0.65918 1.16427 0.44058
 H32 H 0.43941 0.99962 0.18754
 H33 H 0.52548 0.97036 0.56781
 H34 H 0.50799 1.09377 0.20960
 C35 C 0.14364 0.61250 0.47992
 C36 C 0.14121 0.60656 0.56811
 C37 C 0.09156 0.57404 0.58893
 N38 N 0.06375 0.56057 0.51610
 C39 C 0.09533 0.58397 0.44961
 C40 C 0.06970 0.56406 0.67351
 C41 C 0.01941 0.52831 0.69087
 C42 C -0.00489 0.52056 0.77195
 C43 C -0.04880 0.47809 0.76502
 C44 C -0.05103 0.46077 0.67963
 N45 N -0.00905 0.49134 0.63516
 C46 C -0.08769 0.41409 0.64730
 C47 C -0.09537 0.40295 0.55792
 C48 C -0.12793 0.35573 0.52454
 C49 C -0.12567 0.36129 0.43631
 C50 C -0.09246 0.41219 0.41810
 N51 N -0.07421 0.43769 0.49274
 C52 C -0.07832 0.43381 0.33388
 C53 C -0.03771 0.48217 0.31862
 C54 C -0.03269 0.51360 0.24436
 C55 C 0.01145 0.55589 0.25275
 C56 C 0.03249 0.54946 0.33190
 N57 N 0.00225 0.50439 0.37187
 C58 C 0.07956 0.58407 0.36316
 H59 H 0.17682 0.63627 0.44273
 H60 H 0.17213 0.62586 0.61134
 H61 H 0.01116 0.48673 0.42776
 H62 H 0.00873 0.54101 0.83185
 H63 H -0.07450 0.46124 0.81875
 H64 H -0.15086 0.32058 0.55967
 H65 H -0.14544 0.33051 0.39120
 H66 H 0.02611 0.58794 0.20588
 H67 H 0.00284 0.48234 0.57394
 H68 H -0.05867 0.50726 0.19008
 C69 C 0.63358 0.44923 0.41341
 C70 C 0.63945 0.44639 0.50091
 C71 C 0.59960 0.46375 0.54070
 N72 N 0.56981 0.47694 0.47926
 C73 C 0.59069 0.46857 0.40171
 C74 C 0.58715 0.45974 0.63104
 C75 C 0.54302 0.47383 0.66795
 C76 C 0.52534 0.46483 0.75328
 C77 C 0.48582 0.48884 0.76488
 C78 C 0.48015 0.51329 0.68719
 N79 N 0.51568 0.50436 0.62897
 C80 C 0.44747 0.54842 0.67625
 C81 C 0.44299 0.57369 0.59609
 C82 C 0.41467 0.61101 0.58282
 C83 C 0.41348 0.61843 0.49538
 C84 C 0.44009 0.58483 0.45716
 N85 N 0.45829 0.55786 0.51856
 C86 C 0.44041 0.57380 0.36762
 C87 C 0.47073 0.54237 0.32876
 C88 C 0.46206 0.51922 0.24723
 C89 C 0.49759 0.49019 0.23440
 C90 C 0.52694 0.49574 0.30869
 N91 N 0.51124 0.52892 0.36515
 C92 C 0.56689 0.47008 0.32152
 H93 H 0.65715 0.43651 0.36430
 H94 H 0.66801 0.42987 0.53078
 H95 H 0.52870 0.54376 0.42313
 H96 H 0.54030 0.44591 0.80502
 H97 H 0.46638 0.49103 0.82629
 H98 H 0.39451 0.62968 0.62946
 H99 H 0.39320 0.64387 0.46346
 H100 H 0.50078 0.46703 0.17687
 H101 H 0.52528 0.52375 0.56993
 H102 H 0.43230 0.52146 0.20208
 O103 O 0.37203 0.66652 -0.09065
 O104 O 0.37066 0.76807 -0.08328
 C105 C 0.33631 0.77896 -0.13092
 O106 O 0.28792 0.76554 -0.11153
 O107 O 0.20079 0.69464 -0.06362
 C108 C 0.19464 0.65014 -0.10374
 O109 O 0.22279 0.61857 -0.09028
 O110 O 0.30883 0.59340 -0.05168
 C111 C 0.34910 0.61641 -0.09670
 O112 O 0.37309 0.66133 0.08501
 O113 O 0.36976 0.76193 0.09213
 C114 C 0.34547 0.79776 0.09833
 O115 O 0.30615 0.79675 0.05318
 O116 O 0.22336 0.72018 0.10233
 C117 C 0.19908 0.67191 0.12334
 O118 O 0.20341 0.63097 0.08013
 O119 O 0.29151 0.61197 0.11571
 C120 C 0.33946 0.62875 0.13349
 Cr121 Cr 0.36874 0.71364 0.00078
 Cr122 Cr 0.25596 0.74256 -0.00479
 Cr123 Cr 0.25802 0.61632 0.01287
 O124 O 0.29454 0.69081 0.00274
 O125 O 0.62909 0.33298 -0.11369
 O126 O 0.63810 0.23456 -0.12011
 C127 C 0.65754 0.19552 -0.11053
 O128 O 0.68978 0.19572 -0.05176
 O129 O 0.77534 0.27555 -0.08791
 C130 C 0.79751 0.32501 -0.10753
 O131 O 0.79040 0.36566 -0.06477
 O132 O 0.70717 0.39268 -0.10283
 C133 C 0.66413 0.37458 -0.13999
 O134 O 0.61023 0.32143 0.05753
 O135 O 0.61764 0.22340 0.05547
 C136 C 0.64607 0.21624 0.11778
 O137 O 0.69573 0.22733 0.11234
 O138 O 0.78885 0.29721 0.07788
 C139 C 0.79353 0.34088 0.11876
 O140 O 0.76241 0.36907 0.10821
 O141 O 0.67862 0.39465 0.06683
 C142 C 0.63250 0.36741 0.08875
 Cr143 Cr 0.62630 0.27878 -0.02955
 Cr144 Cr 0.73601 0.25067 0.01220
 Cr145 Cr 0.73354 0.37791 0.00171
 O146 O 0.69830 0.30320 -0.00563
 N147 N 0.32192 0.80361 -0.27743
 N148 N 0.34765 0.83304 -0.34255
 C149 C 0.39651 0.85693 -0.31562
 C150 C 0.39989 0.84035 -0.23125
 N151 N 0.35257 0.80742 -0.21027
 H152 H 0.43342 0.85025 -0.18980
 N153 N 0.10973 0.65192 -0.15232
 N154 N 0.07483 0.62896 -0.21039
 C155 C 0.09570 0.59576 -0.25807
 C156 C 0.14472 0.59880 -0.22691
 N157 N 0.15170 0.63425 -0.16086
 H158 H 0.17188 0.57672 -0.24853
 N159 N 0.35584 0.52997 -0.15252
 N160 N 0.38228 0.51053 -0.21189
 C161 C 0.41416 0.55342 -0.25385
 C162 C 0.40662 0.60015 -0.21718
 N163 N 0.36984 0.58358 -0.15469
 H164 H 0.42676 0.64190 -0.23248
 N165 N 0.63531 0.09836 -0.13135
 N166 N 0.61194 0.06117 -0.18795
 C167 C 0.60143 0.08773 -0.25748
 C168 C 0.61867 0.14293 -0.24070
 N169 N 0.63954 0.14757 -0.16156
 H170 H 0.61397 0.17614 -0.27970
 N171 N 0.85463 0.30023 -0.21591
 N172 N 0.88514 0.32253 -0.28230
 C173 C 0.88171 0.37384 -0.28942
 C174 C 0.84803 0.38224 -0.22545
 N175 N 0.83261 0.33572 -0.18049
 H176 H 0.83602 0.41860 -0.21264
 N177 N 0.69294 0.44033 -0.25522
 N178 N 0.67348 0.46408 -0.31684
 C179 C 0.62129 0.44227 -0.31456
 C180 C 0.60960 0.40309 -0.24993
 N181 N 0.65534 0.40362 -0.21442
 H182 H 0.57200 0.37639 -0.23112
 N183 N 0.88672 0.37269 0.13240
 N184 N 0.92209 0.39938 0.18722
 C185 C 0.89646 0.40596 0.26086
 C186 C 0.84352 0.38273 0.24863
 N187 N 0.83946 0.36231 0.16781
 H188 H 0.81125 0.38287 0.29219
 N189 N 0.58544 0.21648 0.23591
 N190 N 0.56473 0.18718 0.30452
 C191 C 0.58772 0.14669 0.30959
 C192 C 0.62301 0.15168 0.24134
 N193 N 0.62036 0.19585 0.19736
 H194 H 0.64521 0.12392 0.22197
 N195 N 0.55479 0.36040 0.17483
 N196 N 0.53624 0.38589 0.23671
 C197 C 0.57400 0.43138 0.25423
 C198 C 0.61684 0.43315 0.20071
 N199 N 0.60288 0.38786 0.15208
 H200 H 0.65411 0.46360 0.19809
 N201 N 0.15977 0.70070 0.25256
 N202 N 0.12822 0.67863 0.31795
 C203 C 0.11296 0.62468 0.30339
 C204 C 0.13609 0.61430 0.22731
 N205 N 0.16493 0.66270 0.19764
 H206 H 0.13345 0.57528 0.19789
 N207 N 0.33832 0.87951 0.17088
 N208 N 0.36218 0.91413 0.23059
 C209 C 0.40348 0.89769 0.25555
 C210 C 0.40426 0.85172 0.20935
 N211 N 0.36284 0.84175 0.15747
 H212 H 0.43162 0.82761 0.21388
 N213 N 0.32269 0.58371 0.27265
 N214 N 0.34815 0.56933 0.33673
 C215 C 0.39934 0.58691 0.31576
 C216 C 0.40458 0.61278 0.23645
 N217 N 0.35575 0.60961 0.21187
 H218 H 0.44000 0.63040 0.19929
   
