data_POSCAR
  _audit_creation_date              2014-09-24
  _audit_creation_method            'ToBaCCo'
  _symmetry_space_group_name_H-M    'P1'
  _symmetry_Int_Tables_number       1
  _symmetry_cell_setting            triclinic
  loop_
  _symmetry_equiv_pos_as_xyz
 x,y,z
_cell_length_a 26.7315
_cell_length_b 26.7801
_cell_length_c 29.5437
_cell_angle_alpha 88.058800
_cell_angle_beta 91.808100
_cell_angle_gamma 91.322000
loop_
  _atom_site_label
  _atom_site_type_symbol
  _atom_site_fract_x
  _atom_site_fract_y
  _atom_site_fract_z
C1 C 1.17683 0.27135 0.32932
 H2 H 1.17980 0.23114 0.32905
 C3 C 1.14883 0.29315 0.36222
 H4 H 1.13007 0.26978 0.38739
 C5 C 1.19887 0.35115 0.29763
 H6 H 1.21902 0.37354 0.27282
 C7 C 1.17127 0.37445 0.32992
 H8 H 1.17006 0.41487 0.32984
 N9 N 1.20096 0.30045 0.29784
 C10 C 1.22327 0.20843 0.18292
 H11 H 1.26291 0.21561 0.17899
 C12 C 1.19726 0.17681 0.15365
 H13 H 1.21667 0.15987 0.12662
 C14 C 1.14944 0.22161 0.22316
 H15 H 1.13108 0.23928 0.25025
 C16 C 1.12191 0.19014 0.19448
 H17 H 1.08225 0.18367 0.19931
 Zn18 Zn 1.24000 0.26776 0.25630
 N19 N 1.19935 0.22935 0.21727
 C20 C 1.28085 0.17455 0.28297
 N21 N 1.28315 0.22459 0.28985
 C22 C 1.31468 0.24430 0.32192
 C23 C 1.34630 0.21331 0.34808
 C24 C 1.31174 0.14226 0.30832
 C25 C 1.25202 0.34247 0.18809
 C26 C 1.27806 0.37020 0.15507
 C27 C 1.35545 0.33816 0.18757
 C28 C 1.32808 0.31095 0.21977
 N29 N 1.27724 0.31310 0.21921
 H30 H 1.25455 0.15928 0.25841
 H31 H 1.31502 0.28408 0.32722
 H32 H 1.37103 0.22934 0.37380
 H33 H 1.30916 0.10243 0.30282
 H34 H 1.21154 0.34257 0.18772
 H35 H 1.25768 0.39212 0.12944
 H36 H 1.39578 0.33490 0.18741
 H37 H 1.34746 0.28642 0.24377
 C38 C 1.14633 0.16725 0.15980
 C39 C 1.14615 0.34517 0.36253
 C40 C 1.33022 0.36731 0.15446
 C41 C 1.34475 0.16182 0.34113
 C42 C 0.66080 -0.21702 0.30605
 H43 H 0.65706 -0.25730 0.30538
 C44 C 0.63009 -0.19023 0.33334
 H45 H 0.60264 -0.20991 0.35391
 C46 C 0.70302 -0.14230 0.28206
 H47 H 0.73243 -0.12389 0.26311
 C48 C 0.67312 -0.11409 0.30899
 H49 H 0.67949 -0.07408 0.31056
 N50 N 0.69644 -0.19284 0.28118
 C51 C 0.72953 -0.29794 0.17699
 H52 H 0.76952 -0.30128 0.18261
 C53 C 0.70510 -0.32362 0.14199
 H54 H 0.72618 -0.34741 0.12099
 C55 C 0.65314 -0.26267 0.19723
 H56 H 0.63313 -0.23818 0.21823
 C57 C 0.62727 -0.28769 0.16259
 H58 H 0.58726 -0.28322 0.15771
 Zn59 Zn 0.73976 -0.23272 0.24913
 N60 N 0.70330 -0.26865 0.20412
 C61 C 0.76639 -0.32706 0.29034
 N62 N 0.77149 -0.27647 0.29253
 C63 C 0.79725 -0.25506 0.32760
 C64 C 0.81994 -0.28476 0.36185
 C65 C 0.78855 -0.35816 0.32395
 C66 C 0.76829 -0.16036 0.18543
 C67 C 0.80021 -0.13088 0.15878
 C68 C 0.87093 -0.16658 0.20021
 C69 C 0.83752 -0.19537 0.22639
 N70 N 0.78723 -0.19180 0.21843
 H71 H 0.74485 -0.34339 0.26282
 H72 H 0.80003 -0.21476 0.32893
 H73 H 0.84076 -0.26731 0.38935
 H74 H 0.78470 -0.39837 0.32177
 H75 H 0.72821 -0.15893 0.17937
 H76 H 0.78469 -0.10675 0.13196
 H77 H 0.91091 -0.17047 0.20579
 H78 H 0.85181 -0.22140 0.25211
 C79 C 0.65348 -0.31848 0.13475
 C80 C 0.63661 -0.13838 0.33509
 C81 C 0.85197 -0.13426 0.16594
 C82 C 0.81559 -0.33680 0.36005
 C83 C 0.67593 0.26558 -0.17843
 H84 H 0.67529 0.22515 -0.17737
 C85 C 0.65349 0.29130 -0.14432
 H86 H 0.63487 0.27059 -0.11732
 C87 C 0.70204 0.34195 -0.21419
 H88 H 0.72193 0.36154 -0.24092
 C89 C 0.68002 0.36916 -0.18067
 H90 H 0.68226 0.40962 -0.18219
 N91 N 0.69947 0.29105 -0.21258
 C92 C 0.71203 0.18418 -0.32007
 H93 H 0.75168 0.18956 -0.32537
 C94 C 0.68418 0.15068 -0.34630
 H95 H 0.70230 0.13067 -0.37228
 C96 C 0.63993 0.20441 -0.28024
 H97 H 0.62292 0.22573 -0.25464
 C98 C 0.61046 0.17123 -0.30606
 H99 H 0.57067 0.16732 -0.30057
 Zn100 Zn 0.73380 0.25264 -0.25434
 N101 N 0.68986 0.20991 -0.28755
 C102 C 0.77615 0.16200 -0.22018
 N103 N 0.77978 0.21281 -0.21972
 C104 C 0.81425 0.23625 -0.19247
 C105 C 0.84712 0.20838 -0.16455
 C106 C 0.80828 0.13276 -0.19280
 C107 C 0.74088 0.32442 -0.32650
 C108 C 0.76458 0.35310 -0.36048
 C109 C 0.84356 0.31860 -0.33441
 C110 C 0.81843 0.29072 -0.30104
 N111 N 0.76802 0.29425 -0.29744
 H112 H 0.74764 0.14388 -0.24089
 H113 H 0.81572 0.27664 -0.19207
 H114 H 0.87400 0.22731 -0.14249
 H115 H 0.80458 0.09239 -0.19285
 H116 H 0.70071 0.32583 -0.32351
 H117 H 0.74255 0.37704 -0.38330
 H118 H 0.88375 0.31528 -0.33675
 H119 H 0.83925 0.26560 -0.27862
 C120 C 0.63299 0.14398 -0.33926
 C121 C 0.65572 0.34358 -0.14525
 C122 C 0.81650 0.35006 -0.36455
 C123 C 0.84395 0.15616 -0.16465
 C124 C 1.16225 -0.21367 -0.18182
 H125 H 1.16054 -0.25404 -0.17873
 C126 C 1.13237 -0.18533 -0.15518
 H127 H 1.10757 -0.20387 -0.13131
 C128 C 1.19837 -0.14003 -0.21520
 H129 H 1.22504 -0.12258 -0.23780
 C130 C 1.16921 -0.11023 -0.18901
 H131 H 1.17334 -0.06990 -0.19156
 N132 N 1.19436 -0.19077 -0.21109
 C133 C 1.22206 -0.30413 -0.30898
 H134 H 1.26241 -0.30601 -0.30579
 C135 C 1.19598 -0.33166 -0.34179
 H136 H 1.21622 -0.35543 -0.36347
 C137 C 1.14648 -0.26950 -0.28588
 H138 H 1.12742 -0.24416 -0.26496
 C139 C 1.11894 -0.29641 -0.31830
 H140 H 1.07874 -0.29248 -0.32158
 Zn141 Zn 1.23601 -0.23250 -0.24264
 N142 N 1.19712 -0.27390 -0.28174
 C143 C 1.27551 -0.32049 -0.19814
 N144 N 1.27429 -0.26970 -0.19871
 C145 C 1.30093 -0.24288 -0.16746
 C146 C 1.33167 -0.26698 -0.13486
 C147 C 1.30580 -0.34609 -0.16605
 C148 C 1.25759 -0.16626 -0.31427
 C149 C 1.28735 -0.13954 -0.34497
 C150 C 1.36091 -0.17035 -0.30433
 C151 C 1.32976 -0.19649 -0.27431
 N152 N 1.27911 -0.19392 -0.27978
 H153 H 1.25348 -0.34116 -0.22275
 H154 H 1.29888 -0.20256 -0.16844
 H155 H 1.35339 -0.24523 -0.11068
 H156 H 1.30724 -0.38648 -0.16621
 H157 H 1.21723 -0.16572 -0.31825
 H158 H 1.26997 -0.11818 -0.37277
 H159 H 1.40118 -0.17320 -0.30034
 H160 H 1.34613 -0.21974 -0.24746
 C161 C 1.14399 -0.32751 -0.34671
 C162 C 1.13615 -0.13321 -0.15861
 C163 C 1.33942 -0.14189 -0.34006
 C164 C 1.33446 -0.31903 -0.13437
 C165 C 0.27340 0.16842 0.67747
 H166 H 0.23330 0.16400 0.68044
 C167 C 0.29770 0.14421 0.64357
 H168 H 0.27642 0.12031 0.62080
 C169 C 0.35004 0.20642 0.70229
 H170 H 0.37010 0.23180 0.72435
 C171 C 0.37578 0.18291 0.66886
 H172 H 0.41572 0.18942 0.66591
 N173 N 0.29976 0.19877 0.70599
 C174 C 0.20764 0.22114 0.82271
 H175 H 0.21130 0.26144 0.82300
 C176 C 0.18024 0.19558 0.85585
 H177 H 0.16263 0.21635 0.88165
 C178 C 0.22589 0.14509 0.78842
 H179 H 0.24394 0.12570 0.76214
 C180 C 0.19860 0.11790 0.82104
 H181 H 0.19541 0.07757 0.81959
 Zn182 Zn 0.26363 0.23627 0.74642
 N183 N 0.22916 0.19586 0.78952
 C184 C 0.16843 0.27560 0.72041
 N185 N 0.21804 0.27494 0.71139
 C186 C 0.23758 0.30334 0.67697
 C187 C 0.20722 0.33551 0.65101
 C188 C 0.13665 0.30731 0.69516
 C189 C 0.34148 0.25875 0.80827
 C190 C 0.37134 0.28915 0.83599
 C191 C 0.33007 0.36147 0.80245
 C192 C 0.30099 0.32978 0.77539
 N193 N 0.30705 0.27943 0.77886
 H194 H 0.15351 0.25202 0.74735
 H195 H 0.27709 0.30166 0.67041
 H196 H 0.22315 0.35842 0.62393
 H197 H 0.09725 0.30808 0.70255
 H198 H 0.34474 0.21856 0.81092
 H199 H 0.39774 0.27245 0.86028
 H200 H 0.32402 0.40136 0.80052
 H201 H 0.27247 0.34549 0.75292
 C202 C 0.17530 0.14354 0.85488
 C203 C 0.34927 0.15187 0.63905
 C204 C 0.36513 0.34088 0.83326
 C205 C 0.15649 0.33784 0.66053
 C206 C 0.77470 0.66678 0.68322
 H207 H 0.73462 0.66889 0.67747
 C208 C 0.80298 0.63859 0.65509
 H209 H 0.78468 0.61891 0.62749
 C210 C 0.84780 0.69154 0.72509
 H211 H 0.86513 0.71314 0.75180
 C212 C 0.87762 0.66384 0.69752
 H213 H 0.91787 0.66398 0.70310
 N214 N 0.79731 0.69245 0.71742
 C215 C 0.67535 0.71530 0.80784
 H216 H 0.67657 0.75565 0.80896
 C217 C 0.64194 0.68759 0.83459
 H218 H 0.61744 0.70675 0.85647
 C219 C 0.70781 0.64101 0.77990
 H220 H 0.73452 0.62296 0.75959
 C221 C 0.67506 0.61182 0.80626
 H222 H 0.67664 0.57142 0.80597
 Zn223 Zn 0.75518 0.73242 0.75045
 N224 N 0.70748 0.69179 0.78131
 C225 C 0.67237 0.77465 0.70129
 N226 N 0.72304 0.77654 0.70761
 C227 C 0.75220 0.80705 0.68108
 C228 C 0.73045 0.83774 0.64696
 C229 C 0.64917 0.80467 0.66761
 C230 C 0.81575 0.74057 0.82905
 C231 C 0.84210 0.76439 0.86413
 C232 C 0.81925 0.84399 0.82948
 C233 C 0.79335 0.81871 0.79503
 N234 N 0.79240 0.76787 0.79522
 H235 H 0.64987 0.74923 0.72171
 H236 H 0.79246 0.80709 0.68616
 H237 H 0.75392 0.86190 0.62602
 H238 H 0.60883 0.80281 0.66281
 H239 H 0.81369 0.70019 0.82878
 H240 H 0.86081 0.74237 0.89074
 H241 H 0.82001 0.88448 0.82897
 H242 H 0.77365 0.83973 0.76849
 C243 C 0.64212 0.63536 0.83414
 C244 C 0.85489 0.63735 0.66210
 C245 C 0.84384 0.81661 0.86435
 C246 C 0.67843 0.83640 0.64009
 C247 C 0.77457 0.17194 0.18727
 H248 H 0.73451 0.17019 0.19152
 C249 C 0.79582 0.14450 0.15363
 H250 H 0.77221 0.12120 0.13217
 C251 C 0.85411 0.20620 0.20868
 H252 H 0.87648 0.23126 0.22934
 C253 C 0.87685 0.17938 0.17549
 H254 H 0.91684 0.18342 0.17108
 N255 N 0.80378 0.20212 0.21386
 C256 C 0.71415 0.22937 0.33154
 H257 H 0.71458 0.26981 0.33025
 C258 C 0.68873 0.20309 0.36575
 H259 H 0.66904 0.22328 0.39061
 C260 C 0.73878 0.15357 0.30042
 H261 H 0.75860 0.13444 0.27510
 C262 C 0.71378 0.12583 0.33407
 H263 H 0.71378 0.08537 0.33414
 Zn264 Zn 0.77069 0.24321 0.25389
 N265 N 0.73778 0.20441 0.29932
 C266 C 0.67463 0.28080 0.22604
 N267 N 0.72444 0.28031 0.21779
 C268 C 0.74395 0.30638 0.18194
 C269 C 0.71327 0.33541 0.15321
 C270 C 0.64249 0.30945 0.19798
 C271 C 0.85135 0.26914 0.31270
 C272 C 0.88092 0.30104 0.33944
 C273 C 0.83735 0.37143 0.30508
 C274 C 0.80862 0.33829 0.27900
 N275 N 0.81570 0.28811 0.28351
 H276 H 0.65975 0.25905 0.25419
 H277 H 0.78360 0.30479 0.17596
 H278 H 0.72921 0.35618 0.12482
 H279 H 0.60287 0.30984 0.20458
 H280 H 0.85549 0.22910 0.31639
 H281 H 0.90794 0.28552 0.36381
 H282 H 0.83008 0.41107 0.30253
 H283 H 0.77921 0.35274 0.25675
 C284 C 0.68825 0.15083 0.36684
 C285 C 0.84739 0.14861 0.14745
 C286 C 0.87332 0.35259 0.33601
 C287 C 0.66218 0.33712 0.16139
 C288 C 0.28065 0.66037 0.18103
 H289 H 0.24022 0.65963 0.17778
 C290 C 0.30852 0.63012 0.15420
 H291 H 0.28952 0.60614 0.13001
 C292 C 0.35498 0.69413 0.21503
 H293 H 0.37298 0.71992 0.23804
 C294 C 0.38430 0.66455 0.18871
 H295 H 0.42475 0.66764 0.19153
 N296 N 0.30410 0.69152 0.21076
 C297 C 0.19228 0.72163 0.30944
 H298 H 0.19462 0.76204 0.30806
 C299 C 0.15976 0.69694 0.33907
 H300 H 0.13713 0.71830 0.36088
 C301 C 0.21970 0.64433 0.28330
 H302 H 0.24363 0.62403 0.26199
 C303 C 0.18764 0.61809 0.31260
 H304 H 0.18690 0.57761 0.31378
 Zn305 Zn 0.26342 0.73350 0.24366
 N306 N 0.22106 0.69521 0.28204
 C307 C 0.17245 0.76299 0.19999
 N308 N 0.22299 0.77116 0.20105
 C309 C 0.24488 0.80310 0.17034
 C310 C 0.21549 0.82922 0.13776
 C311 C 0.14183 0.78823 0.16805
 C312 C 0.33008 0.75038 0.31623
 C313 C 0.35796 0.77732 0.34837
 C314 C 0.33120 0.85381 0.31014
 C315 C 0.30378 0.82535 0.27867
 N316 N 0.30371 0.77455 0.28226
 H317 H 0.15561 0.73635 0.22347
 H318 H 0.28516 0.80819 0.17111
 H319 H 0.23315 0.85501 0.11381
 H320 H 0.10168 0.78167 0.16788
 H321 H 0.32870 0.70998 0.31876
 H322 H 0.37814 0.75743 0.37554
 H323 H 0.33031 0.89426 0.30729
 H324 H 0.28176 0.84388 0.25209
 C325 C 0.15736 0.64475 0.34059
 C326 C 0.36081 0.63239 0.15790
 C327 C 0.35836 0.82959 0.34554
 C328 C 0.16342 0.82172 0.13666
 O329 O 1.07706 0.03506 0.06766
 O330 O 0.90760 -0.03967 0.03866
 O331 O 0.96628 0.09697 0.04567
 O332 O 1.04916 -0.10786 0.01774
 O333 O 0.90262 0.05043 0.02109
 O334 O 1.06827 -0.04957 0.06014
 O335 O 0.97635 -0.07446 0.05854
 O336 O 1.05869 0.10268 0.03210
 C337 C 1.07555 0.08095 0.06661
 C338 C 0.93249 -0.06535 0.06683
 C339 C 0.92151 0.08245 0.04789
 C340 C 1.07404 -0.09372 0.05108
 O341 O 1.09062 -0.04089 -0.03135
 O342 O 0.92395 0.03061 -0.06696
 O343 O 1.04231 0.09421 -0.05330
 O344 O 0.95705 -0.12220 -0.01399
 O345 O 0.92696 -0.05649 -0.04984
 O346 O 1.10249 0.04892 -0.02194
 O347 O 1.01826 -0.06867 -0.05712
 O348 O 0.94925 0.10045 -0.04064
 Co349 Co 1.07841 -0.00119 0.01717
 Co350 Co 0.92281 -0.00294 -0.01263
 Co351 Co 1.00388 0.08974 -0.00347
 Co352 Co 0.99579 -0.06843 0.00033
 O353 O 1.00227 0.00728 0.00155
 C354 C 1.06415 -0.06128 -0.06217
 C355 C 0.92666 0.07663 -0.07057
 C356 C 1.08637 0.07917 -0.05270
 C357 C 0.92369 -0.10330 -0.04191
 O358 O 1.08819 0.54279 0.55844
 O359 O 0.88621 0.45074 0.51333
 O360 O 0.95482 0.59505 0.53749
 O361 O 1.02802 0.42622 0.57354
 O362 O 0.91888 0.52525 0.55502
 O363 O 1.09713 0.45096 0.54597
 O364 O 0.94370 0.43309 0.56002
 O365 O 1.04473 0.60366 0.52633
 C366 C 1.07441 0.58709 0.55742
 C367 C 0.89920 0.42743 0.54845
 C368 C 0.92851 0.56928 0.56392
 C369 C 1.07394 0.42760 0.57573
 O370 O 1.09256 0.46639 0.46036
 O371 O 0.87256 0.54161 0.47905
 O372 O 1.02695 0.57759 0.43746
 O373 O 0.95386 0.41120 0.46940
 O374 O 0.92708 0.48187 0.44042
 O375 O 1.09569 0.55947 0.47200
 O376 O 1.04432 0.40370 0.48487
 O377 O 0.93952 0.57302 0.44817
 Co378 Co 1.08449 0.50481 0.50894
 Co379 Co 0.92611 0.50531 0.49776
 Co380 Co 0.99232 0.58007 0.48913
 Co381 Co 0.99285 0.42494 0.52047
 O382 O 1.00182 0.50159 0.50572
 C383 C 1.07740 0.42180 0.45854
 C384 C 0.89273 0.57589 0.45304
 C385 C 1.07307 0.57608 0.43762
 C386 C 0.93444 0.43621 0.43663
 O387 O 0.56823 0.01623 0.55977
 O388 O 0.40015 -0.06126 0.52567
 O389 O 0.45075 0.09508 0.51651
 O390 O 0.55594 -0.07431 0.55053
 O391 O 0.40188 0.03158 0.53853
 O392 O 0.62295 -0.04248 0.52010
 O393 O 0.46869 -0.07836 0.56078
 O394 O 0.54162 0.08757 0.53226
 C395 C 0.56150 0.06191 0.56437
 C396 C 0.42262 -0.07695 0.56046
 C397 C 0.41689 0.07615 0.54163
 C398 C 0.60277 -0.07702 0.54580
 O399 O 0.57677 -0.02466 0.44423
 O400 O 0.39849 0.04846 0.45312
 O401 O 0.55225 0.06851 0.44119
 O402 O 0.45133 -0.10396 0.47153
 O403 O 0.40873 -0.04284 0.43927
 O404 O 0.60930 0.04863 0.48768
 O405 O 0.54100 -0.09479 0.46091
 O406 O 0.46781 0.07593 0.42755
 Co407 Co 0.56933 -0.00605 0.50190
 Co408 Co 0.41116 -0.00594 0.48950
 Co409 Co 0.50273 0.07523 0.48077
 Co410 Co 0.50336 -0.08061 0.50926
 O411 O 0.49374 -0.00201 0.49365
 C412 C 0.56717 -0.06854 0.43474
 C413 C 0.42191 0.07373 0.42471
 C414 C 0.59676 0.07312 0.45314
 C415 C 0.42262 -0.08703 0.43989
 O416 O 0.57561 0.54825 0.05427
 O417 O 0.40019 0.45004 0.01951
 O418 O 0.48000 0.57247 0.05286
 O419 O 0.55086 0.39569 0.04223
 O420 O 0.40983 0.53843 0.03323
 O421 O 0.58459 0.46365 0.06554
 O422 O 0.46006 0.40883 0.05429
 O423 O 0.55366 0.60699 0.01036
 C424 C 0.57886 0.59323 0.04407
 C425 C 0.41636 0.42403 0.05300
 C426 C 0.43554 0.56310 0.06095
 C427 C 0.57833 0.41809 0.06964
 O428 O 0.60115 0.44903 -0.02377
 O429 O 0.43245 0.55631 -0.05530
 O430 O 0.52159 0.56903 -0.06287
 O431 O 0.44377 0.40054 -0.03293
 O432 O 0.42995 0.46966 -0.06807
 O433 O 0.59345 0.54139 -0.03746
 O434 O 0.53689 0.39979 -0.04371
 O435 O 0.46228 0.62174 -0.02167
 Co436 Co 0.58184 0.50035 0.01313
 Co437 Co 0.42533 0.50252 -0.01590
 Co438 Co 0.49904 0.56759 -0.00503
 Co439 Co 0.49801 0.40991 0.00461
 O440 O 0.50372 0.49194 0.00101
 C441 C 0.58177 0.41431 -0.04759
 C442 C 0.42804 0.60233 -0.04817
 C443 C 0.56722 0.56292 -0.06831
 C444 C 0.43067 0.42364 -0.06820
 C445 C 1.11946 0.13521 0.12929
 C446 C 1.09863 0.10936 0.10180
 C447 C 1.11690 0.64466 0.61914
 C448 C 1.09612 0.61972 0.59062
 C449 C 0.60406 0.11217 0.63096
 C450 C 0.58289 0.08740 0.60255
 C451 C 0.62712 0.65311 0.10056
 C452 C 0.60503 0.62727 0.07349
 C453 C 0.88455 -0.10819 0.13483
 C454 C 0.90855 -0.08758 0.10552
 C455 C 0.84028 0.37647 0.60438
 C456 C 0.86509 0.40015 0.57732
 C457 C 0.37036 -0.11782 0.62655
 C458 C 0.39508 -0.09863 0.59715
 C459 C 0.35799 0.39031 0.11808
 C460 C 0.38343 0.40697 0.08792
 C461 C 0.87465 0.12681 -0.13353
 C462 C 0.89913 0.10304 -0.10585
 C463 C 0.84049 0.63198 0.39416
 C464 C 0.86307 0.60622 0.42185
 C465 C 0.37167 0.13186 0.36703
 C466 C 0.39539 0.10458 0.39224
 C467 C 0.36758 0.65531 -0.10241
 C468 C 0.39540 0.63240 -0.07678
 C469 C 1.10941 -0.10419 -0.12779
 C470 C 1.08802 -0.08267 -0.09929
 C471 C 1.11960 0.36898 0.39716
 C472 C 1.09909 0.39135 0.42574
 C473 C 0.60975 -0.11130 0.36736
 C474 C 0.58909 -0.09046 0.39678
 C475 C 0.63216 0.37044 -0.11035
 C476 C 0.61063 0.39144 -0.08131
 C477 C 1.14652 0.11890 -0.11393
 C478 C 1.11976 0.09947 -0.08600
 C479 C 1.12593 0.61905 0.37279
 C480 C 1.10077 0.59880 0.40141
 C481 C 0.65871 0.12311 0.39946
 C482 C 0.63181 0.10014 0.42519
 C483 C 0.61429 0.60814 -0.13567
 C484 C 0.59145 0.58596 -0.10646
 C485 C 0.87147 -0.15761 -0.10046
 C486 C 0.89501 -0.13416 -0.07249
 C487 C 0.89750 0.38501 0.36825
 C488 C 0.91554 0.41017 0.39789
 C489 C 0.38168 -0.14435 0.37689
 C490 C 0.40167 -0.11933 0.40590
 C491 C 0.39047 0.37203 -0.13452
 C492 C 0.40978 0.39683 -0.10541
 C493 C 1.13187 -0.15048 0.10473
 C494 C 1.10516 -0.12587 0.07935
 C495 C 1.12510 0.37045 0.63345
 C496 C 1.10064 0.39731 0.60851
 C497 C 0.65456 -0.13266 0.60523
 C498 C 0.63235 -0.10713 0.57715
 C499 C 0.63044 0.36619 0.13113
 C500 C 0.60568 0.39032 0.10401
 C501 C 0.87023 0.12318 0.11146
 C502 C 0.89181 0.10354 0.08177
 C503 C 0.88427 0.61189 0.63051
 C504 C 0.90615 0.59163 0.60147
 C505 C 0.37471 0.12755 0.60405
 C506 C 0.39488 0.10552 0.57506
 C507 C 0.38978 0.60546 0.12693
 C508 C 0.41210 0.58475 0.09838
   
