data_POSCAR
  _audit_creation_date              2014-09-24
  _audit_creation_method            'ToBaCCo'
  _symmetry_space_group_name_H-M    'P1'
  _symmetry_Int_Tables_number       1
  _symmetry_cell_setting            triclinic
  loop_
  _symmetry_equiv_pos_as_xyz
 x,y,z
_cell_length_a 19.6955
_cell_length_b 19.6955
_cell_length_c 19.6955
_cell_angle_alpha 90.000000
_cell_angle_beta 90.000000
_cell_angle_gamma 90.000000
loop_
  _atom_site_label
  _atom_site_type_symbol
  _atom_site_fract_x
  _atom_site_fract_y
  _atom_site_fract_z
C1 C 0.00003 0.49998 0.25012
 C2 C 0.00003 0.49998 0.75012
 C3 C 0.25003 -0.00002 0.50012
 C4 C 0.75003 -0.00002 0.50012
 C5 C 0.50003 0.24998 1.00012
 C6 C 0.50003 0.74998 1.00012
 B7 B 1.00003 1.06923 0.04286
 B8 B 1.00003 1.06923 -0.04262
 B9 B 1.06927 1.04273 0.00012
 B10 B 1.04277 0.99998 0.06937
 B11 B 0.95729 0.99998 0.06937
 B12 B 0.93078 1.04273 0.00012
 B13 B 1.00003 0.93074 -0.04262
 B14 B 1.00003 0.93074 0.04286
 B15 B 0.93078 0.95724 0.00012
 B16 B 0.95729 0.99998 -0.06912
 B17 B 1.04277 0.99998 -0.06912
 B18 B 1.06927 0.95724 0.00012
 B19 B 0.56927 0.49998 0.45738
 B20 B 0.50003 0.54273 0.43088
 B21 B 0.50003 0.45724 0.43088
 B22 B 0.54277 0.43074 0.50012
 B23 B 0.56927 0.49998 0.54286
 B24 B 0.54277 0.56923 0.50012
 B25 B 0.43078 0.49998 0.54286
 B26 B 0.50003 0.45724 0.56937
 B27 B 0.50003 0.54273 0.56937
 B28 B 0.45729 0.56923 0.50012
 B29 B 0.43078 0.49998 0.45738
 B30 B 0.45729 0.43074 0.50012
 C31 C 1.00003 1.43809 0.20881
 C32 C 1.00003 1.38373 0.18062
 C33 C 1.00003 1.31785 0.15244
 C34 C 1.00003 1.26079 0.13035
 C35 C 1.00003 1.19396 0.10456
 C36 C 1.00003 1.13783 0.08031
 C37 C 1.00003 0.56188 0.20881
 C38 C 1.00003 0.61624 0.18062
 C39 C 1.00003 0.68212 0.15244
 C40 C 1.00003 0.73917 0.13035
 C41 C 1.00003 0.80600 0.10456
 C42 C 1.00003 0.86213 0.08031
 C43 C 1.00003 1.43809 -0.20857
 C44 C 1.00003 1.38373 -0.18038
 C45 C 1.00003 1.31785 -0.15220
 C46 C 1.00003 1.26079 -0.13010
 C47 C 1.00003 1.19396 -0.10432
 C48 C 1.00003 1.13783 -0.08007
 C49 C 1.00003 0.56188 -0.20857
 C50 C 1.00003 0.61624 -0.18038
 C51 C 1.00003 0.68212 -0.15220
 C52 C 1.00003 0.73917 -0.13010
 C53 C 1.00003 0.80600 -0.10432
 C54 C 1.00003 0.86213 -0.08007
 C55 C 1.20872 0.99998 0.43823
 C56 C 1.18053 0.99998 0.38386
 C57 C 1.15234 0.99998 0.31799
 C58 C 1.13025 0.99998 0.26093
 C59 C 1.10447 0.99998 0.19410
 C60 C 1.08022 0.99998 0.13797
 C61 C 1.20872 0.99998 -0.43799
 C62 C 1.18053 0.99998 -0.38362
 C63 C 1.15234 0.99998 -0.31774
 C64 C 1.13025 0.99998 -0.26069
 C65 C 1.10447 0.99998 -0.19386
 C66 C 1.08022 0.99998 -0.13773
 C67 C 0.79134 0.99998 0.43823
 C68 C 0.81952 0.99998 0.38387
 C69 C 0.84771 0.99998 0.31799
 C70 C 0.86980 0.99998 0.26093
 C71 C 0.89559 0.99998 0.19410
 C72 C 0.91984 0.99998 0.13797
 C73 C 0.79134 0.99998 -0.43799
 C74 C 0.81952 0.99998 -0.38362
 C75 C 0.84771 0.99998 -0.31774
 C76 C 0.86980 0.99998 -0.26069
 C77 C 0.89559 0.99998 -0.19386
 C78 C 0.91984 0.99998 -0.13773
 C79 C 1.43814 1.20867 0.00012
 C80 C 1.38377 1.18049 0.00012
 C81 C 1.31789 1.15230 0.00012
 C82 C 1.26084 1.13021 0.00012
 C83 C 1.19401 1.10442 0.00012
 C84 C 1.13788 1.08017 0.00012
 C85 C 0.56192 1.20867 0.00012
 C86 C 0.61628 1.18049 0.00012
 C87 C 0.68216 1.15230 0.00012
 C88 C 0.73922 1.13021 0.00012
 C89 C 0.80605 1.10442 0.00012
 C90 C 0.86218 1.08017 0.00012
 C91 C 1.43814 0.79130 0.00012
 C92 C 1.38377 0.81948 0.00012
 C93 C 1.31789 0.84767 0.00012
 C94 C 1.26084 0.86976 0.00012
 C95 C 1.19401 0.89554 0.00012
 C96 C 1.13788 0.91979 0.00012
 C97 C 0.56192 0.79130 0.00012
 C98 C 0.61628 0.81948 0.00012
 C99 C 0.68216 0.84767 0.00012
 C100 C 0.73922 0.86976 0.00012
 C101 C 0.80605 0.89554 0.00012
 C102 C 0.86218 0.91979 0.00012
 C103 C 0.93814 0.49998 0.29143
 C104 C 0.88377 0.49998 0.31962
 C105 C 0.81789 0.49998 0.34780
 C106 C 0.76084 0.49998 0.36990
 C107 C 0.69401 0.49998 0.39568
 C108 C 0.63788 0.49998 0.41993
 C109 C 0.06192 0.49998 0.29143
 C110 C 0.11628 0.49998 0.31962
 C111 C 0.18216 0.49998 0.34780
 C112 C 0.23922 0.49998 0.36990
 C113 C 0.30605 0.49998 0.39568
 C114 C 0.36218 0.49998 0.41993
 C115 C 0.93814 0.49998 0.70881
 C116 C 0.88377 0.49998 0.68062
 C117 C 0.81789 0.49998 0.65244
 C118 C 0.76084 0.49998 0.63035
 C119 C 0.69401 0.49998 0.60456
 C120 C 0.63788 0.49998 0.58031
 C121 C 0.06192 0.49998 0.70881
 C122 C 0.11628 0.49998 0.68062
 C123 C 0.18216 0.49998 0.65244
 C124 C 0.23922 0.49998 0.63035
 C125 C 0.30605 0.49998 0.60456
 C126 C 0.36218 0.49998 0.58031
 C127 C 0.50003 0.70867 0.06201
 C128 C 0.50003 0.68049 0.11638
 C129 C 0.50003 0.65230 0.18226
 C130 C 0.50003 0.63021 0.23931
 C131 C 0.50003 0.60442 0.30614
 C132 C 0.50003 0.58017 0.36227
 C133 C 0.50003 0.70867 0.93823
 C134 C 0.50003 0.68049 0.88387
 C135 C 0.50003 0.65230 0.81799
 C136 C 0.50003 0.63021 0.76093
 C137 C 0.50003 0.60442 0.69410
 C138 C 0.50003 0.58017 0.63797
 C139 C 0.50003 0.29130 0.06201
 C140 C 0.50003 0.31948 0.11638
 C141 C 0.50003 0.34767 0.18226
 C142 C 0.50003 0.36976 0.23931
 C143 C 0.50003 0.39554 0.30614
 C144 C 0.50003 0.41979 0.36227
 C145 C 0.50003 0.29130 0.93823
 C146 C 0.50003 0.31948 0.88387
 C147 C 0.50003 0.34767 0.81799
 C148 C 0.50003 0.36976 0.76093
 C149 C 0.50003 0.39554 0.69410
 C150 C 0.50003 0.41979 0.63797
 C151 C 0.70871 0.93809 0.50012
 C152 C 0.68053 0.88373 0.50012
 C153 C 0.65234 0.81785 0.50012
 C154 C 0.63025 0.76079 0.50012
 C155 C 0.60447 0.69396 0.50012
 C156 C 0.58022 0.63783 0.50012
 C157 C 0.70871 0.06188 0.50012
 C158 C 0.68053 0.11624 0.50012
 C159 C 0.65234 0.18212 0.50012
 C160 C 0.63025 0.23917 0.50012
 C161 C 0.60447 0.30600 0.50012
 C162 C 0.58022 0.36213 0.50012
 C163 C 0.29134 0.93809 0.50012
 C164 C 0.31952 0.88373 0.50012
 C165 C 0.34771 0.81785 0.50012
 C166 C 0.36980 0.76079 0.50012
 C167 C 0.39559 0.69396 0.50012
 C168 C 0.41984 0.63783 0.50012
 C169 C 0.29134 0.06188 0.50012
 C170 C 0.31952 0.11624 0.50012
 C171 C 0.34771 0.18212 0.50012
 C172 C 0.36980 0.23917 0.50012
 C173 C 0.39559 0.30600 0.50012
 C174 C 0.41984 0.36213 0.50012
   
