data_POSCAR
  _audit_creation_date              2014-09-24
  _audit_creation_method            'ToBaCCo'
  _symmetry_space_group_name_H-M    'P1'
  _symmetry_Int_Tables_number       1
  _symmetry_cell_setting            triclinic
  loop_
  _symmetry_equiv_pos_as_xyz
 x,y,z
_cell_length_a 16.6878
_cell_length_b 16.3805
_cell_length_c 22.7999
_cell_angle_alpha 90.000000
_cell_angle_beta 89.726700
_cell_angle_gamma 90.000000
loop_
  _atom_site_label
  _atom_site_type_symbol
  _atom_site_fract_x
  _atom_site_fract_y
  _atom_site_fract_z
O1 O 0.15262 0.09748 0.03920
 O2 O -0.15284 -0.09300 0.03994
 O3 O -0.09243 0.15737 0.04202
 O4 O 0.09222 -0.15273 0.04137
 O5 O -0.13733 0.04392 0.07327
 O6 O 0.13695 -0.03958 0.07283
 O7 O -0.04241 -0.13707 0.07264
 O8 O 0.04225 0.14193 0.07245
 C9 C 0.11466 0.13205 0.07933
 C10 C -0.11490 -0.12766 0.07978
 C11 C -0.12821 0.11783 0.08117
 C12 C 0.12713 -0.11336 0.08062
 O13 O 0.15285 -0.09300 -0.03995
 O14 O -0.15262 0.09748 -0.03921
 O15 O 0.09244 0.15737 -0.04203
 O16 O -0.09221 -0.15273 -0.04138
 O17 O -0.13695 -0.03958 -0.07284
 O18 O 0.13734 0.04392 -0.07328
 O19 O 0.04241 -0.13707 -0.07264
 O20 O -0.04225 0.14193 -0.07246
 Co21 Co 0.13091 0.00220 -0.00024
 Co22 Co -0.13091 0.00220 0.00024
 Co23 Co 0.00000 0.13546 -0.00000
 Co24 Co 0.00000 -0.13076 -0.00000
 O25 O 0.00000 0.00228 -0.00000
 C26 C 0.11491 -0.12766 -0.07979
 C27 C -0.11465 0.13205 -0.07934
 C28 C 0.12821 0.11783 -0.08118
 C29 C -0.12713 -0.11336 -0.08063
 O30 O 0.45751 0.35854 0.42761
 O31 O 0.54236 0.63752 0.42733
 O32 O 0.36290 0.53997 0.42727
 O33 O 0.63734 0.45661 0.42654
 O34 O 0.40778 0.65313 0.45863
 O35 O 0.59229 0.34323 0.45783
 O36 O 0.65283 0.59353 0.45999
 O37 O 0.34721 0.40294 0.46101
 C38 C 0.38508 0.36837 0.42084
 C39 C 0.61486 0.62818 0.42017
 C40 C 0.37278 0.61373 0.41942
 C41 C 0.62754 0.38288 0.41858
 O42 O 0.54249 0.35854 0.57238
 O43 O 0.45764 0.63752 0.57266
 O44 O 0.36266 0.45661 0.57345
 O45 O 0.63710 0.53997 0.57272
 O46 O 0.59223 0.65313 0.54136
 O47 O 0.40772 0.34323 0.54216
 O48 O 0.65280 0.40294 0.53898
 O49 O 0.34717 0.59353 0.54000
 Co50 Co 0.50000 0.36500 0.50000
 Co51 Co 0.50000 0.63119 0.50000
 Co52 Co 0.36903 0.49827 0.50037
 Co53 Co 0.63097 0.49827 0.49962
 O54 O 0.50000 0.49817 0.50000
 C55 C 0.61492 0.36837 0.57915
 C56 C 0.38514 0.62818 0.57983
 C57 C 0.37246 0.38288 0.58141
 C58 C 0.62722 0.61373 0.58057
 C59 C 0.22965 0.23231 0.22467
 N60 N 0.14920 0.23983 0.21822
 N61 N 0.11262 0.20761 0.17190
 C62 C 0.15517 0.16672 0.13038
 N63 N 0.23561 0.15899 0.13685
 N64 N 0.27220 0.19123 0.18320
 C65 C 0.26993 0.26805 0.27559
 N66 N 0.35039 0.26054 0.28200
 N67 N 0.38700 0.29278 0.32830
 C68 C 0.34449 0.33367 0.36983
 N69 N 0.26404 0.34137 0.36341
 N70 N 0.22741 0.30912 0.31707
 C71 C 0.77007 0.76886 0.22465
 N72 N 0.85063 0.76231 0.21792
 N73 N 0.88721 0.79567 0.17178
 C74 C 0.84455 0.83679 0.13075
 N75 N 0.76400 0.84358 0.13749
 N76 N 0.72740 0.81019 0.18368
 C77 C 0.72983 0.73179 0.27532
 N78 N 0.64926 0.73831 0.28205
 N79 N 0.61270 0.70491 0.32819
 C80 C 0.65538 0.66379 0.36921
 N81 N 0.73593 0.65704 0.36246
 N82 N 0.77251 0.69046 0.31629
 C83 C 0.77035 0.23231 0.77532
 N84 N 0.85081 0.23983 0.78177
 N85 N 0.88738 0.20761 0.82809
 C86 C 0.84483 0.16672 0.86961
 N87 N 0.76440 0.15899 0.86315
 N88 N 0.72781 0.19123 0.81679
 C89 C 0.73007 0.26805 0.72441
 N90 N 0.64961 0.26054 0.71799
 N91 N 0.61300 0.29278 0.67169
 C92 C 0.65552 0.33367 0.63016
 N93 N 0.73596 0.34137 0.63658
 N94 N 0.77259 0.30912 0.68292
 C95 C 0.22994 0.76886 0.77534
 N96 N 0.27261 0.81019 0.81631
 N97 N 0.23601 0.84358 0.86250
 C98 C 0.15546 0.83679 0.86925
 N99 N 0.11279 0.79567 0.82821
 N100 N 0.14937 0.76231 0.78207
 C101 C 0.27018 0.73179 0.72467
 N102 N 0.22749 0.69046 0.68370
 N103 N 0.26407 0.65704 0.63753
 C104 C 0.34463 0.66379 0.63078
 N105 N 0.38731 0.70491 0.67180
 N106 N 0.35074 0.73831 0.71794
 C107 C 0.22935 0.22866 0.77758
 N108 N 0.18761 0.27287 0.81785
 N109 N 0.15394 0.23657 0.86416
 C110 C 0.16072 0.15460 0.87196
 N111 N 0.20220 0.11048 0.83143
 N112 N 0.23583 0.14677 0.78518
 C113 C 0.26710 0.26869 0.72671
 N114 N 0.30898 0.22441 0.68655
 N115 N 0.34298 0.26066 0.64036
 C116 C 0.33639 0.34256 0.63268
 N117 N 0.29471 0.38683 0.67291
 N118 N 0.26073 0.35061 0.71906
 C119 C 0.76879 0.77054 0.77517
 N120 N 0.76203 0.85253 0.78236
 N121 N 0.79562 0.88945 0.82815
 C122 C 0.83725 0.84579 0.86844
 N123 N 0.84424 0.76383 0.86121
 N124 N 0.81064 0.72689 0.81539
 C125 C 0.73133 0.72978 0.72478
 N126 N 0.73811 0.64780 0.71757
 N127 N 0.70452 0.61089 0.67177
 C128 C 0.66285 0.65456 0.63151
 N129 N 0.65584 0.73651 0.63876
 N130 N 0.68945 0.77343 0.68458
 C131 C 0.23122 0.77054 0.22482
 N132 N 0.23797 0.85253 0.21763
 N133 N 0.20439 0.88945 0.17184
 C134 C 0.16275 0.84579 0.13156
 N135 N 0.15577 0.76383 0.13879
 N136 N 0.18937 0.72689 0.18461
 C137 C 0.26868 0.72978 0.27521
 N138 N 0.26190 0.64780 0.28242
 N139 N 0.29549 0.61089 0.32822
 C140 C 0.33715 0.65456 0.36848
 N141 N 0.34416 0.73651 0.36123
 N142 N 0.31056 0.77343 0.31541
 C143 C 0.77066 0.22866 0.22241
 N144 N 0.76417 0.14677 0.21481
 N145 N 0.79780 0.11048 0.16856
 C146 C 0.83929 0.15460 0.12803
 N147 N 0.84607 0.23657 0.13583
 N148 N 0.81239 0.27287 0.18214
 C149 C 0.73290 0.26869 0.27328
 N150 N 0.73927 0.35061 0.28093
 N151 N 0.70530 0.38683 0.32709
 C152 C 0.66362 0.34256 0.36731
 N153 N 0.65702 0.26066 0.35963
 N154 N 0.69102 0.22441 0.31344
   
