data_POSCAR
  _audit_creation_date              2014-09-24
  _audit_creation_method            'ToBaCCo'
  _symmetry_space_group_name_H-M    'P1'
  _symmetry_Int_Tables_number       1
  _symmetry_cell_setting            triclinic
  loop_
  _symmetry_equiv_pos_as_xyz
 x,y,z
_cell_length_a 53.9265
_cell_length_b 53.9147
_cell_length_c 53.9352
_cell_angle_alpha 89.988900
_cell_angle_beta 89.986000
_cell_angle_gamma 89.975300
loop_
  _atom_site_label
  _atom_site_type_symbol
  _atom_site_fract_x
  _atom_site_fract_y
  _atom_site_fract_z
C1 C 0.26759 0.25018 0.23223
 N2 N 0.26755 0.23233 0.24997
 C3 C 0.24972 0.23230 0.26773
 N4 N 0.23193 0.25010 0.26774
 C5 C 0.23197 0.26795 0.24999
 N6 N 0.24980 0.26798 0.23224
 C7 C 0.73170 -0.25049 0.23161
 N8 N 0.73168 -0.23270 0.24941
 C9 C 0.74953 -0.23265 0.26715
 N10 N 0.76739 -0.25039 0.26708
 C11 C 0.76741 -0.26818 0.24928
 N12 N 0.74956 -0.26822 0.23155
 C13 C 0.73296 0.25050 0.76743
 N14 N 0.73302 0.23268 0.74966
 C15 C 0.75082 0.23271 0.73187
 N16 N 0.76856 0.25056 0.73185
 C17 C 0.76850 0.26837 0.74962
 N18 N 0.75070 0.26834 0.76741
 C19 C 0.26846 -0.25021 0.76889
 N20 N 0.25058 -0.26790 0.76898
 C21 C 0.23275 -0.26786 0.75123
 N22 N 0.23281 -0.25011 0.73338
 C23 C 0.25069 -0.23242 0.73328
 N24 N 0.26852 -0.23246 0.75104
 C25 C 0.73170 -0.25033 0.76865
 N26 N 0.73168 -0.23256 0.75082
 C27 C 0.74948 -0.23256 0.73303
 N28 N 0.76730 -0.25034 0.73307
 C29 C 0.76734 -0.26811 0.75089
 N30 N 0.74953 -0.26810 0.76868
 C31 C 0.26764 0.25003 0.76761
 N32 N 0.26763 0.23222 0.74983
 C33 C 0.24981 0.23220 0.73207
 N34 N 0.23200 0.24999 0.73208
 C35 C 0.23201 0.26780 0.74986
 N36 N 0.24983 0.26782 0.76763
 C37 C 0.26791 -0.25090 0.23136
 N38 N 0.25003 -0.26861 0.23129
 C39 C 0.23218 -0.26856 0.24904
 N40 N 0.23223 -0.25080 0.26687
 C41 C 0.25011 -0.23309 0.26694
 N42 N 0.26794 -0.23314 0.24919
 C43 C 0.73315 0.25073 0.23237
 N44 N 0.73320 0.23292 0.25014
 C45 C 0.75099 0.23293 0.26793
 N46 N 0.76874 0.25077 0.26795
 C47 C 0.76869 0.26859 0.25017
 N48 N 0.75090 0.26857 0.23238
 O49 O 0.27056 0.02345 0.47563
 O50 O 0.27079 -0.02481 0.52396
 O51 O 0.27073 -0.02486 0.47566
 O52 O 0.27061 0.02349 0.52392
 O53 O 0.22960 0.02336 0.52397
 O54 O 0.22972 -0.02499 0.47571
 O55 O 0.22978 -0.02495 0.52401
 O56 O 0.22955 0.02332 0.47569
 Cu57 Cu 0.27481 -0.00067 0.49978
 Cu58 Cu 0.22553 -0.00083 0.49985
 C59 C 0.25001 0.03154 0.46751
 C60 C 0.25033 -0.03302 0.53215
 C61 C 0.25025 -0.03308 0.46754
 C62 C 0.25008 0.03158 0.53209
 O63 O 0.77094 0.02366 0.52405
 O64 O 0.77068 -0.02464 0.47577
 O65 O 0.77094 0.02367 0.47577
 O66 O 0.77067 -0.02465 0.52407
 O67 O 0.72966 -0.02441 0.52408
 O68 O 0.72993 0.02391 0.47578
 O69 O 0.72966 -0.02440 0.47578
 O70 O 0.72993 0.02390 0.52405
 Cu71 Cu 0.77494 -0.00052 0.49991
 Cu72 Cu 0.72566 -0.00023 0.49992
 C73 C 0.75048 0.03194 0.53219
 C74 C 0.75013 -0.03267 0.46762
 C75 C 0.75048 0.03196 0.46763
 C76 C 0.75012 -0.03268 0.53223
 O77 O 0.47625 0.27098 0.02408
 O78 O 0.52454 0.27095 -0.02421
 O79 O 0.47624 0.27091 -0.02421
 O80 O 0.52455 0.27101 0.02408
 O81 O 0.52459 0.22999 0.02414
 O82 O 0.47629 0.22989 -0.02415
 O83 O 0.52459 0.22993 -0.02415
 O84 O 0.47630 0.22996 0.02414
 Cu85 Cu 0.50039 0.27510 -0.00007
 Cu86 Cu 0.50045 0.22580 0.00000
 C87 C 0.46812 0.25047 0.03226
 C88 C 0.53271 0.25043 -0.03233
 C89 C 0.46811 0.25039 -0.03233
 C90 C 0.53272 0.25052 0.03226
 O91 O 0.52417 0.76974 0.02445
 O92 O 0.47592 0.76980 -0.02386
 O93 O 0.47587 0.76972 0.02442
 O94 O 0.52422 0.76981 -0.02385
 O95 O 0.52425 0.72879 -0.02390
 O96 O 0.47591 0.72870 0.02437
 O97 O 0.47595 0.72878 -0.02392
 O98 O 0.52421 0.72872 0.02439
 Cu99 Cu 0.50004 0.77391 0.00030
 Cu100 Cu 0.50008 0.72461 0.00023
 C101 C 0.53233 0.74922 0.03257
 C102 C 0.46779 0.74930 -0.03204
 C103 C 0.46773 0.74919 0.03254
 C104 C 0.53239 0.74932 -0.03202
 O105 O 0.02379 0.47674 0.27002
 O106 O -0.02451 0.52505 0.26988
 O107 O -0.02450 0.47674 0.27006
 O108 O 0.02380 0.52504 0.26984
 O109 O 0.02377 0.52490 0.22883
 O110 O -0.02453 0.47660 0.22905
 O111 O -0.02454 0.52491 0.22887
 O112 O 0.02376 0.47660 0.22901
 Cu113 Cu -0.00036 0.50091 0.27408
 Cu114 Cu -0.00039 0.50074 0.22481
 C115 C 0.03192 0.46851 0.24954
 C116 C -0.03268 0.53313 0.24935
 C117 C -0.03266 0.46851 0.24959
 C118 C 0.03195 0.53311 0.24930
 O119 O 0.02347 0.52455 0.77121
 O120 O -0.02481 0.47626 0.77091
 O121 O 0.02348 0.47625 0.77095
 O122 O -0.02484 0.52457 0.77116
 O123 O -0.02479 0.52480 0.73016
 O124 O 0.02353 0.47648 0.72995
 O125 O -0.02476 0.47649 0.72990
 O126 O 0.02351 0.52478 0.73021
 Cu127 Cu -0.00068 0.50039 0.77520
 Cu128 Cu -0.00063 0.50066 0.72592
 C129 C 0.03165 0.53281 0.75076
 C130 C -0.03293 0.46822 0.75036
 C131 C 0.03166 0.46821 0.75041
 C132 C -0.03297 0.53284 0.75070
 C133 C 0.28644 0.25021 0.21346
 C134 C 0.30228 0.25026 0.19768
 C135 C 0.32118 0.25032 0.17885
 C136 C 0.34520 0.24230 0.18449
 C137 C 0.36358 0.24234 0.16620
 C138 C 0.35814 0.25042 0.14199
 C139 C 0.33392 0.25845 0.13651
 C140 C 0.31558 0.25841 0.15484
 C141 C 0.37764 0.25045 0.12254
 C142 C 0.37208 0.24293 0.09818
 C143 C 0.39046 0.24295 0.07989
 C144 C 0.41460 0.25048 0.08568
 C145 C 0.42031 0.25801 0.10984
 C146 C 0.40197 0.25800 0.12817
 C147 C 0.43349 0.25048 0.06684
 C148 C 0.44931 0.25048 0.05105
 H149 H 0.34971 0.23593 0.20300
 H150 H 0.38195 0.23575 0.17091
 H151 H 0.32923 0.26508 0.11815
 H152 H 0.29705 0.26472 0.15029
 H153 H 0.35361 0.23672 0.09335
 H154 H 0.38585 0.23702 0.06126
 H155 H 0.43893 0.26394 0.11450
 H156 H 0.40675 0.26419 0.14665
 C157 C 0.71385 0.74947 0.21386
 C158 C 0.69801 0.74943 0.19810
 C159 C 0.67911 0.74938 0.17927
 C160 C 0.66577 0.77106 0.17416
 C161 C 0.64741 0.77104 0.15586
 C162 C 0.64217 0.74930 0.14241
 C163 C 0.65569 0.72761 0.14769
 C164 C 0.67403 0.72767 0.16601
 C165 C 0.62268 0.74927 0.12295
 C166 C 0.62642 0.73653 0.10048
 C167 C 0.60808 0.73653 0.08217
 C168 C 0.58577 0.74922 0.08606
 C169 C 0.58186 0.76193 0.10834
 C170 C 0.60019 0.76197 0.12667
 C171 C 0.56691 0.74920 0.06719
 C172 C 0.55112 0.74921 0.05138
 H173 H 0.66961 0.78799 0.18427
 H174 H 0.63756 0.78811 0.15201
 H175 H 0.65187 0.71051 0.13789
 H176 H 0.68420 0.71077 0.16986
 H177 H 0.64366 0.72685 0.09693
 H178 H 0.61132 0.72669 0.06495
 H179 H 0.56463 0.77175 0.11156
 H180 H 0.59663 0.77167 0.14388
 C181 C 0.71415 0.25047 -0.21377
 C182 C 0.69834 0.25046 -0.19796
 C183 C 0.67947 0.25046 -0.17910
 C184 C 0.67067 0.27291 -0.16950
 C185 C 0.65233 0.27293 -0.15117
 C186 C 0.64257 0.25045 -0.14218
 C187 C 0.65156 0.22798 -0.15195
 C188 C 0.66989 0.22801 -0.17029
 C189 C 0.62310 0.25045 -0.12270
 C190 C 0.62377 0.23302 -0.10329
 C191 C 0.60543 0.23303 -0.08497
 C192 C 0.58619 0.25044 -0.08580
 C193 C 0.58535 0.26784 -0.10502
 C194 C 0.60367 0.26788 -0.12336
 C195 C 0.56732 0.25042 -0.06694
 C196 C 0.55151 0.25042 -0.05113
 H197 H 0.67802 0.29039 -0.17613
 H198 H 0.64603 0.29051 -0.14379
 H199 H 0.64420 0.21040 -0.14565
 H200 H 0.67652 0.21052 -0.17765
 H201 H 0.63865 0.21958 -0.10209
 H202 H 0.60630 0.21952 -0.07012
 H203 H 0.57049 0.28135 -0.10588
 H204 H 0.60247 0.28132 -0.13823
 C205 C 0.28630 0.74974 -0.21336
 C206 C 0.30213 0.74970 -0.19758
 C207 C 0.32102 0.74967 -0.17874
 C208 C 0.32105 0.76796 -0.16034
 C209 C 0.33938 0.76793 -0.14201
 C210 C 0.35794 0.74957 -0.14186
 C211 C 0.35774 0.73127 -0.16046
 C212 C 0.33939 0.73133 -0.17876
 C213 C 0.37742 0.74952 -0.12240
 C214 C 0.40221 0.74403 -0.12845
 C215 C 0.42053 0.74399 -0.11011
 C216 C 0.41433 0.74941 -0.08551
 C217 C 0.38973 0.75488 -0.07929
 C218 C 0.37139 0.75495 -0.09760
 C219 C 0.43320 0.74936 -0.06665
 C220 C 0.44900 0.74932 -0.05084
 H221 H 0.30696 0.78228 -0.16019
 H222 H 0.33922 0.78245 -0.12814
 H223 H 0.37158 0.71671 -0.16066
 H224 H 0.33948 0.71703 -0.19288
 H225 H 0.40749 0.74009 -0.14741
 H226 H 0.43953 0.73980 -0.11513
 H227 H 0.38473 0.75903 -0.06028
 H228 H 0.35243 0.75893 -0.09230
 C229 C 0.21317 0.28678 0.25000
 C230 C 0.19738 0.30261 0.24999
 C231 C 0.17854 0.32151 0.24997
 C232 C 0.18231 0.34362 0.23690
 C233 C 0.16402 0.36200 0.23686
 C234 C 0.14168 0.35849 0.24990
 C235 C 0.13808 0.33619 0.26297
 C236 C 0.15641 0.31784 0.26300
 C237 C 0.12223 0.37800 0.24985
 C238 C 0.09701 0.37158 0.24784
 C239 C 0.07872 0.38996 0.24777
 C240 C 0.08536 0.41497 0.24972
 C241 C 0.11037 0.42155 0.25174
 C242 C 0.12870 0.40321 0.25179
 C243 C 0.06651 0.43387 0.24965
 C244 C 0.05072 0.44969 0.24959
 H245 H 0.19935 0.34662 0.22669
 H246 H 0.16720 0.37882 0.22636
 H247 H 0.12123 0.33307 0.27344
 H248 H 0.15334 0.30082 0.27323
 H249 H 0.09146 0.35237 0.24599
 H250 H 0.05941 0.38467 0.24613
 H251 H 0.11571 0.44086 0.25333
 H252 H 0.14791 0.40872 0.25369
 C253 C 0.21384 0.71343 0.75131
 C254 C 0.19795 0.69772 0.75136
 C255 C 0.17898 0.67896 0.75138
 C256 C 0.15498 0.68474 0.74341
 C257 C 0.13654 0.66652 0.74338
 C258 C 0.14190 0.64224 0.75133
 C259 C 0.16610 0.63662 0.75932
 C260 C 0.18450 0.65488 0.75935
 C261 C 0.12234 0.62285 0.75125
 C262 C 0.12783 0.59851 0.74360
 C263 C 0.10940 0.58028 0.74351
 C264 C 0.08528 0.58611 0.75107
 C265 C 0.07962 0.61025 0.75873
 C266 C 0.09801 0.62852 0.75882
 C267 C 0.06633 0.56732 0.75097
 C268 C 0.05048 0.55157 0.75088
 H269 H 0.15053 0.70331 0.73714
 H270 H 0.11818 0.67134 0.73682
 H271 H 0.17072 0.61820 0.76585
 H272 H 0.20301 0.65022 0.76562
 H273 H 0.14629 0.59364 0.73736
 H274 H 0.11396 0.56166 0.73748
 H275 H 0.06101 0.61495 0.76469
 H276 H 0.09329 0.64700 0.76512
 C277 C -0.21472 0.71408 0.24922
 C278 C -0.19885 0.69833 0.24918
 C279 C -0.17991 0.67953 0.24915
 C280 C -0.18549 0.65543 0.24129
 C281 C -0.16711 0.63714 0.24129
 C282 C -0.14286 0.64273 0.24913
 C283 C -0.13743 0.66703 0.25698
 C284 C -0.15585 0.68528 0.25699
 C285 C -0.12332 0.62331 0.24915
 C286 C -0.09903 0.62892 0.24144
 C287 C -0.08065 0.61063 0.24147
 C288 C -0.08628 0.58651 0.24922
 C289 C -0.11038 0.58073 0.25693
 C290 C -0.12879 0.59899 0.25690
 C291 C -0.06736 0.56769 0.24926
 C292 C -0.05151 0.55191 0.24930
 H293 H -0.20404 0.65080 0.23512
 H294 H -0.17178 0.61871 0.23484
 H295 H -0.11904 0.67183 0.26343
 H296 H -0.15135 0.70386 0.26317
 H297 H -0.09432 0.64738 0.23507
 H298 H -0.06207 0.61527 0.23540
 H299 H -0.11492 0.56213 0.26303
 H300 H -0.14722 0.59418 0.26325
 C301 C -0.21376 0.28623 0.74960
 C302 C -0.19801 0.30209 0.74962
 C303 C -0.17923 0.32104 0.74967
 C304 C -0.16085 0.32119 0.73136
 C305 C -0.14259 0.33959 0.73140
 C306 C -0.14247 0.35809 0.74980
 C307 C -0.16105 0.35776 0.76814
 C308 C -0.17930 0.33935 0.76804
 C309 C -0.12307 0.37762 0.74989
 C310 C -0.11228 0.38549 0.77231
 C311 C -0.09401 0.40387 0.77237
 C312 C -0.08629 0.41465 0.75006
 C313 C -0.09690 0.40698 0.72767
 C314 C -0.11517 0.38858 0.72756
 C315 C -0.06747 0.43356 0.75015
 C316 C -0.05170 0.44940 0.75024
 H317 H -0.16059 0.30705 0.71709
 H318 H -0.12836 0.33915 0.71723
 H319 H -0.16165 0.37192 0.78235
 H320 H -0.19349 0.33945 0.78227
 H321 H -0.11773 0.37718 0.78976
 H322 H -0.08586 0.40962 0.78980
 H323 H -0.09111 0.41525 0.71031
 H324 H -0.12334 0.38316 0.71005
 C325 C 0.24968 0.21343 0.28649
 C326 C 0.24967 0.19758 0.30225
 C327 C 0.24968 0.17865 0.32106
 C328 C 0.22725 0.16993 0.33075
 C329 C 0.22724 0.15154 0.34903
 C330 C 0.24971 0.14161 0.35785
 C331 C 0.27216 0.15051 0.34797
 C332 C 0.27213 0.16891 0.32970
 C333 C 0.24973 0.12207 0.37726
 C334 C 0.26633 0.10198 0.37585
 C335 C 0.26635 0.08361 0.39415
 C336 C 0.24980 0.08507 0.41408
 C337 C 0.23321 0.10497 0.41566
 C338 C 0.23315 0.12335 0.39738
 C339 C 0.24986 0.06617 0.43292
 C340 C 0.24993 0.05035 0.44871
 H341 H 0.20976 0.17729 0.32413
 H342 H 0.20965 0.14485 0.35603
 H343 H 0.28977 0.14348 0.35460
 H344 H 0.28960 0.17558 0.32237
 H345 H 0.27909 0.10030 0.36044
 H346 H 0.27922 0.06824 0.39271
 H347 H 0.22037 0.10631 0.43105
 H348 H 0.22037 0.13875 0.39915
 C349 C 0.75087 0.21388 0.71309
 C350 C 0.75088 0.19804 0.69731
 C351 C 0.75087 0.17913 0.67849
 C352 C 0.77331 0.17006 0.66912
 C353 C 0.77331 0.15167 0.65086
 C354 C 0.75082 0.14211 0.64170
 C355 C 0.72836 0.15137 0.65125
 C356 C 0.72840 0.16975 0.66953
 C357 C 0.75079 0.12258 0.62229
 C358 C 0.73354 0.12338 0.60273
 C359 C 0.73352 0.10498 0.58447
 C360 C 0.75069 0.08555 0.58552
 C361 C 0.76792 0.08458 0.60489
 C362 C 0.76800 0.10297 0.62316
 C363 C 0.75064 0.06662 0.56672
 C364 C 0.75057 0.05077 0.55096
 H365 H 0.79080 0.17725 0.67589
 H366 H 0.79089 0.14516 0.64366
 H367 H 0.71076 0.14416 0.64482
 H368 H 0.71093 0.17659 0.67671
 H369 H 0.72028 0.13840 0.60137
 H370 H 0.72014 0.10594 0.56951
 H371 H 0.78126 0.06958 0.60591
 H372 H 0.78129 0.10167 0.63814
 C373 C 0.25074 -0.21367 0.71441
 C374 C 0.25076 -0.19793 0.69854
 C375 C 0.25074 -0.17915 0.67957
 C376 C 0.22895 -0.17388 0.66651
 C377 C 0.22891 -0.15566 0.64807
 C378 C 0.25070 -0.14245 0.64245
 C379 C 0.27252 -0.14789 0.65570
 C380 C 0.27252 -0.16613 0.67413
 C381 C 0.25068 -0.12308 0.62287
 C382 C 0.26367 -0.10071 0.62632
 C383 C 0.26360 -0.08247 0.60789
 C384 C 0.25057 -0.08634 0.58579
 C385 C 0.23761 -0.10852 0.58217
 C386 C 0.23764 -0.12678 0.60058
 C387 C 0.25049 -0.06754 0.56684
 C388 C 0.25042 -0.05178 0.55099
 H389 H 0.21197 -0.18380 0.67063
 H390 H 0.21175 -0.15167 0.63843
 H391 H 0.28966 -0.13828 0.65160
 H392 H 0.28951 -0.17012 0.68408
 H393 H 0.27361 -0.09717 0.64339
 H394 H 0.27364 -0.06533 0.61090
 H395 H 0.22752 -0.11173 0.56510
 H396 H 0.22773 -0.14392 0.59724
 C397 C 0.74951 -0.21386 0.28597
 C398 C 0.74952 -0.19807 0.30179
 C399 C 0.74954 -0.17923 0.32068
 C400 C 0.74165 -0.15515 0.31508
 C401 C 0.74169 -0.13683 0.33342
 C402 C 0.74964 -0.14238 0.35764
 C403 C 0.75753 -0.16666 0.36309
 C404 C 0.75748 -0.18495 0.34471
 C405 C 0.74970 -0.12293 0.37714
 C406 C 0.74208 -0.12852 0.40147
 C407 C 0.74216 -0.11020 0.41981
 C408 C 0.74986 -0.08608 0.41410
 C409 C 0.75748 -0.08033 0.38998
 C410 C 0.75740 -0.09862 0.37160
 C411 C 0.74994 -0.06724 0.43300
 C412 C 0.75002 -0.05146 0.44882
 H413 H 0.73540 -0.15055 0.29655
 H414 H 0.73521 -0.11841 0.32873
 H415 H 0.76405 -0.17143 0.38147
 H416 H 0.76370 -0.20352 0.34923
 H417 H 0.73575 -0.14697 0.40623
 H418 H 0.73615 -0.11483 0.43841
 H419 H 0.76355 -0.06173 0.38538
 H420 H 0.76368 -0.09382 0.35314
 C421 C 0.71388 0.74967 -0.21355
 C422 C 0.69807 0.74966 -0.19774
 C423 C 0.67920 0.74963 -0.17886
 C424 C 0.65982 0.76688 -0.17979
 C425 C 0.64148 0.76687 -0.16145
 C426 C 0.64228 0.74956 -0.14193
 C427 C 0.66185 0.73228 -0.14118
 C428 C 0.68017 0.73234 -0.15953
 C429 C 0.62280 0.74951 -0.12245
 C430 C 0.61326 0.72701 -0.11328
 C431 C 0.59492 0.72699 -0.09495
 C432 C 0.58589 0.74942 -0.08552
 C433 C 0.59526 0.77190 -0.09449
 C434 C 0.61358 0.77197 -0.11284
 C435 C 0.56702 0.74938 -0.06663
 C436 C 0.55121 0.74935 -0.05082
 H437 H 0.65885 0.78029 -0.19471
 H438 H 0.62650 0.78018 -0.16273
 H439 H 0.66316 0.71894 -0.12623
 H440 H 0.69513 0.71895 -0.15859
 H441 H 0.61973 0.70943 -0.12053
 H442 H 0.58774 0.70948 -0.08818
 H443 H 0.58845 0.78937 -0.08727
 H444 H 0.62078 0.78958 -0.11927
 C445 C 0.28648 0.25005 -0.21360
 C446 C 0.30230 0.25007 -0.19781
 C447 C 0.32120 0.25012 -0.17897
 C448 C 0.32123 0.26848 -0.16063
 C449 C 0.33957 0.26853 -0.14231
 C450 C 0.35816 0.25020 -0.14210
 C451 C 0.35796 0.23183 -0.16064
 C452 C 0.33959 0.23180 -0.17893
 C453 C 0.37765 0.25024 -0.12265
 C454 C 0.40244 0.24472 -0.12869
 C455 C 0.42078 0.24477 -0.11036
 C456 C 0.41460 0.25030 -0.08577
 C457 C 0.39001 0.25581 -0.07957
 C458 C 0.37165 0.25580 -0.09787
 C459 C 0.43349 0.25032 -0.06692
 C460 C 0.44930 0.25034 -0.05112
 H461 H 0.30711 0.28279 -0.16053
 H462 H 0.33940 0.28311 -0.12850
 H463 H 0.37181 0.21729 -0.16080
 H464 H 0.33970 0.21746 -0.19300
 H465 H 0.40771 0.24069 -0.14764
 H466 H 0.43977 0.24054 -0.11538
 H467 H 0.38502 0.26005 -0.06058
 H468 H 0.35270 0.25980 -0.09257
 C469 C 0.28576 0.74905 0.21359
 C470 C 0.30162 0.74902 0.19783
 C471 C 0.32055 0.74900 0.17901
 C472 C 0.34454 0.75709 0.18467
 C473 C 0.36294 0.75710 0.16640
 C474 C 0.35757 0.74901 0.14218
 C475 C 0.33338 0.74091 0.13668
 C476 C 0.31502 0.74090 0.15499
 C477 C 0.37710 0.74903 0.12275
 C478 C 0.37155 0.75649 0.09837
 C479 C 0.38995 0.75652 0.08010
 C480 C 0.41412 0.74909 0.08593
 C481 C 0.41984 0.74163 0.11011
 C482 C 0.40148 0.74160 0.12842
 C483 C 0.43305 0.74912 0.06710
 C484 C 0.44889 0.74915 0.05132
 H485 H 0.34901 0.76347 0.20319
 H486 H 0.38128 0.76375 0.17114
 H487 H 0.32875 0.73427 0.11832
 H488 H 0.29652 0.73453 0.15042
 H489 H 0.35306 0.76262 0.09350
 H490 H 0.38533 0.76240 0.06145
 H491 H 0.43848 0.73577 0.11481
 H492 H 0.40626 0.73545 0.14692
 C493 C 0.71433 0.25071 0.21355
 C494 C 0.69852 0.25069 0.19776
 C495 C 0.67963 0.25069 0.17891
 C496 C 0.66598 0.22913 0.17419
 C497 C 0.64763 0.22910 0.15587
 C498 C 0.64269 0.25067 0.14203
 C499 C 0.65652 0.27225 0.14693
 C500 C 0.67486 0.27223 0.16524
 C501 C 0.62320 0.25065 0.12256
 C502 C 0.60728 0.27115 0.11969
 C503 C 0.58894 0.27110 0.10138
 C504 C 0.58625 0.25061 0.08569
 C505 C 0.60198 0.23014 0.08838
 C506 C 0.62033 0.23013 0.10669
 C507 C 0.56736 0.25058 0.06684
 C508 C 0.55153 0.25055 0.05105
 H509 H 0.66947 0.21237 0.18471
 H510 H 0.63710 0.21229 0.15277
 H511 H 0.65338 0.28904 0.13637
 H512 H 0.68537 0.28900 0.16869
 H513 H 0.60880 0.28708 0.13182
 H514 H 0.57681 0.28702 0.09950
 H515 H 0.60011 0.21420 0.07629
 H516 H 0.63249 0.21422 0.10822
 C517 C -0.21482 0.71410 0.75092
 C518 C -0.19898 0.69832 0.75096
 C519 C -0.18005 0.67948 0.75099
 C520 C -0.15612 0.68506 0.74266
 C521 C -0.13773 0.66678 0.74267
 C522 C -0.14305 0.64262 0.75099
 C523 C -0.16719 0.63720 0.75932
 C524 C -0.18554 0.65552 0.75932
 C525 C -0.12354 0.62316 0.75097
 C526 C -0.12916 0.59872 0.74374
 C527 C -0.11078 0.58043 0.74370
 C528 C -0.08654 0.58629 0.75089
 C529 C -0.08075 0.61053 0.75812
 C530 C -0.09911 0.62886 0.75816
 C531 C -0.06763 0.56744 0.75083
 C532 C -0.05180 0.55164 0.75078
 H533 H -0.15169 0.70354 0.73611
 H534 H -0.11943 0.67145 0.73584
 H535 H -0.17179 0.61888 0.76614
 H536 H -0.20400 0.65101 0.76587
 H537 H -0.14770 0.59382 0.73780
 H538 H -0.11544 0.56173 0.73800
 H539 H -0.06207 0.61525 0.76379
 H540 H -0.09426 0.64741 0.76413
 C541 C -0.21355 0.28645 0.25017
 C542 C -0.19779 0.30231 0.25016
 C543 C -0.17899 0.32125 0.25011
 C544 C -0.17620 0.33676 0.22949
 C545 C -0.15794 0.35516 0.22941
 C546 C -0.14222 0.35830 0.25000
 C547 C -0.14519 0.34261 0.27064
 C548 C -0.16345 0.32421 0.27067
 C549 C -0.12281 0.37785 0.24993
 C550 C -0.11809 0.39193 0.27139
 C551 C -0.09982 0.41033 0.27130
 C552 C -0.08602 0.41490 0.24980
 C553 C -0.09056 0.40100 0.22837
 C554 C -0.10883 0.38260 0.22841
 C555 C -0.06721 0.43383 0.24974
 C556 C -0.05144 0.44967 0.24967
 H557 H -0.18818 0.33468 0.21350
 H558 H -0.15634 0.36715 0.21338
 H559 H -0.13317 0.34434 0.28663
 H560 H -0.16540 0.31225 0.28670
 H561 H -0.12875 0.38895 0.28814
 H562 H -0.09651 0.42103 0.28797
 H563 H -0.07993 0.40433 0.21165
 H564 H -0.11178 0.37187 0.21171
 C565 C 0.21317 0.28662 0.74988
 C566 C 0.19736 0.30243 0.74990
 C567 C 0.17848 0.32131 0.74995
 C568 C 0.18498 0.34622 0.75325
 C569 C 0.16666 0.36458 0.75329
 C570 C 0.14155 0.35825 0.75004
 C571 C 0.13522 0.33315 0.74674
 C572 C 0.15357 0.31482 0.74669
 C573 C 0.12207 0.37774 0.75010
 C574 C 0.09924 0.37365 0.76206
 C575 C 0.08092 0.39201 0.76211
 C576 C 0.08515 0.41469 0.75021
 C577 C 0.10779 0.41894 0.73826
 C578 C 0.12614 0.40062 0.73820
 C579 C 0.06628 0.43357 0.75027
 C580 C 0.05047 0.44939 0.75033
 H581 H 0.20420 0.35144 0.75586
 H582 H 0.17210 0.38369 0.75620
 H583 H 0.11610 0.32772 0.74387
 H584 H 0.14834 0.29560 0.74405
 H585 H 0.09567 0.35638 0.77166
 H586 H 0.06349 0.38855 0.77148
 H587 H 0.11123 0.43641 0.72893
 H588 H 0.14338 0.40421 0.72856
 C589 C 0.21429 0.71372 0.24898
 C590 C 0.19840 0.69800 0.24894
 C591 C 0.17942 0.67923 0.24891
 C592 C 0.15546 0.68495 0.25708
 C593 C 0.13701 0.66674 0.25708
 C594 C 0.14231 0.64251 0.24893
 C595 C 0.16647 0.63695 0.24075
 C596 C 0.18488 0.65521 0.24074
 C597 C 0.12273 0.62313 0.24897
 C598 C 0.12825 0.59871 0.25636
 C599 C 0.10981 0.58049 0.25642
 C600 C 0.08563 0.58640 0.24908
 C601 C 0.07994 0.61062 0.24169
 C602 C 0.09835 0.62888 0.24163
 C603 C 0.06666 0.56762 0.24915
 C604 C 0.05080 0.55187 0.24922
 H605 H 0.15105 0.70348 0.26350
 H606 H 0.11869 0.67152 0.26379
 H607 H 0.17104 0.61858 0.23406
 H608 H 0.20335 0.65059 0.23432
 H609 H 0.14675 0.59377 0.26242
 H610 H 0.11439 0.56181 0.26225
 H611 H 0.06130 0.61539 0.23590
 H612 H 0.09359 0.64742 0.23553
 C613 C 0.74946 -0.21378 0.71417
 C614 C 0.74946 -0.19800 0.69833
 C615 C 0.74948 -0.17918 0.67940
 C616 C 0.74175 -0.15504 0.68502
 C617 C 0.74180 -0.13673 0.66665
 C618 C 0.74957 -0.14235 0.64238
 C619 C 0.75729 -0.16669 0.63692
 C620 C 0.75724 -0.18495 0.65532
 C621 C 0.74965 -0.12291 0.62285
 C622 C 0.74190 -0.12847 0.59856
 C623 C 0.74198 -0.11016 0.58020
 C624 C 0.74983 -0.08608 0.58583
 C625 C 0.75758 -0.08035 0.60992
 C626 C 0.75749 -0.09862 0.62832
 C627 C 0.74993 -0.06725 0.56691
 C628 C 0.75001 -0.05147 0.55107
 H629 H 0.73564 -0.15038 0.70358
 H630 H 0.73545 -0.11827 0.67135
 H631 H 0.76368 -0.17151 0.61851
 H632 H 0.76333 -0.20356 0.65079
 H633 H 0.73545 -0.14689 0.59384
 H634 H 0.73588 -0.11478 0.56163
 H635 H 0.76375 -0.06178 0.61446
 H636 H 0.76387 -0.09384 0.64674
 C637 C 0.25014 -0.21430 0.28579
 C638 C 0.25018 -0.19852 0.30163
 C639 C 0.25025 -0.17969 0.32054
 C640 C 0.25850 -0.15571 0.31501
 C641 C 0.25854 -0.13739 0.33335
 C642 C 0.25033 -0.14283 0.35752
 C643 C 0.24208 -0.16701 0.36289
 C644 C 0.24204 -0.18529 0.34451
 C645 C 0.25035 -0.12338 0.37703
 C646 C 0.25765 -0.12907 0.40142
 C647 C 0.25765 -0.11075 0.41977
 C648 C 0.25034 -0.08652 0.41400
 C649 C 0.24304 -0.08066 0.38980
 C650 C 0.24305 -0.09895 0.37142
 C651 C 0.25032 -0.06767 0.43290
 C652 C 0.25029 -0.05188 0.44872
 H653 H 0.26496 -0.15119 0.29653
 H654 H 0.26530 -0.11906 0.32872
 H655 H 0.23534 -0.17169 0.38122
 H656 H 0.23554 -0.20378 0.34898
 H657 H 0.26368 -0.14761 0.40625
 H658 H 0.26341 -0.11547 0.43843
 H659 H 0.23728 -0.06198 0.38515
 H660 H 0.23701 -0.09406 0.35291
 C661 C 0.75102 0.21408 0.28673
 C662 C 0.75103 0.19824 0.30250
 C663 C 0.75099 0.17931 0.32133
 C664 C 0.72852 0.17033 0.33070
 C665 C 0.72845 0.15194 0.34898
 C666 C 0.75090 0.14226 0.35812
 C667 C 0.77340 0.15141 0.34856
 C668 C 0.77342 0.16981 0.33029
 C669 C 0.75085 0.12270 0.37753
 C670 C 0.76770 0.10279 0.37637
 C671 C 0.76762 0.08438 0.39463
 C672 C 0.75073 0.08562 0.41430
 C673 C 0.73390 0.10534 0.41563
 C674 C 0.73394 0.12376 0.39738
 C675 C 0.75065 0.06667 0.43310
 C676 C 0.75058 0.05081 0.44886
 H677 H 0.71105 0.17750 0.32384
 H678 H 0.71084 0.14506 0.35572
 H679 H 0.79098 0.14456 0.35543
 H680 H 0.79092 0.17668 0.32321
 H681 H 0.78073 0.10127 0.36116
 H682 H 0.78068 0.06916 0.39338
 H683 H 0.72080 0.10652 0.43082
 H684 H 0.72097 0.13901 0.39898
 C685 C 0.24981 0.21337 0.71327
 C686 C 0.24982 0.19754 0.69748
 C687 C 0.24984 0.17864 0.67864
 C688 C 0.27031 0.16289 0.67601
 C689 C 0.27036 0.14453 0.65771
 C690 C 0.24989 0.14166 0.64178
 C691 C 0.22940 0.15759 0.64459
 C692 C 0.22940 0.17595 0.66289
 C693 C 0.24992 0.12215 0.62234
 C694 C 0.22835 0.10833 0.61739
 C695 C 0.22840 0.08996 0.59909
 C696 C 0.24997 0.08516 0.58549
 C697 C 0.27152 0.09880 0.59025
 C698 C 0.27152 0.11717 0.60855
 C699 C 0.25000 0.06625 0.56665
 C700 C 0.25003 0.05042 0.55087
 H701 H 0.28621 0.16477 0.68815
 H702 H 0.28627 0.13236 0.65623
 H703 H 0.21351 0.15607 0.63242
 H704 H 0.21348 0.18809 0.66472
 H705 H 0.21153 0.11149 0.62789
 H706 H 0.21163 0.07945 0.59560
 H707 H 0.28831 0.09529 0.57978
 H708 H 0.28832 0.12770 0.61169
   
