data_POSCAR
  _audit_creation_date              2014-09-24
  _audit_creation_method            'ToBaCCo'
  _symmetry_space_group_name_H-M    'P1'
  _symmetry_Int_Tables_number       1
  _symmetry_cell_setting            triclinic
  loop_
  _symmetry_equiv_pos_as_xyz
 x,y,z
_cell_length_a 44.9503
_cell_length_b 18.3871
_cell_length_c 17.0926
_cell_angle_alpha 88.170200
_cell_angle_beta 89.941800
_cell_angle_gamma 90.130000
loop_
  _atom_site_label
  _atom_site_type_symbol
  _atom_site_fract_x
  _atom_site_fract_y
  _atom_site_fract_z
C1 C 0.70033 0.37161 0.56077
 C2 C 0.68701 0.38495 0.48732
 C3 C 0.70086 0.36702 0.41759
 C4 C 0.72964 0.33685 0.41897
 C5 C 0.74449 0.32584 0.49151
 C6 C 0.73002 0.34395 0.56257
 C7 C 0.74609 0.33621 0.63278
 C8 C 0.77399 0.30373 0.63487
 C9 C 0.78819 0.28206 0.56600
 C10 C 0.77347 0.29435 0.49312
 C11 C 0.74342 0.31510 0.34987
 C12 C 0.77129 0.28257 0.35155
 C13 C 0.78701 0.27230 0.42215
 C14 C 0.81468 0.23500 0.42475
 C15 C 0.82763 0.21947 0.49784
 C16 C 0.81564 0.24384 0.56812
 H17 H 0.73721 0.35476 0.68743
 H18 H 0.78381 0.29430 0.69189
 H19 H 0.73241 0.32135 0.29377
 H20 H 0.77985 0.26338 0.29684
 H21 H 0.66421 0.40394 0.48363
 H22 H 0.84918 0.19287 0.49955
 C23 C 0.17605 0.70854 0.57007
 C24 C 0.16173 0.70690 0.49773
 C25 C 0.17761 0.70092 0.42802
 C26 C 0.20886 0.69259 0.43071
 C27 C 0.22376 0.69208 0.50405
 C28 C 0.20732 0.70131 0.57382
 C29 C 0.22257 0.70430 0.64521
 C30 C 0.25337 0.69952 0.64812
 C31 C 0.27025 0.68584 0.58072
 C32 C 0.25522 0.68406 0.50742
 C33 C 0.22555 0.68518 0.36214
 C34 C 0.25630 0.67805 0.36521
 C35 C 0.27154 0.67616 0.43717
 C36 C 0.30277 0.66860 0.44038
 C37 C 0.31733 0.67171 0.51251
 C38 C 0.30183 0.67891 0.58345
 H39 H 0.21090 0.71148 0.69977
 H40 H 0.26364 0.70821 0.70411
 H41 H 0.21498 0.68496 0.30528
 H42 H 0.26798 0.67505 0.31011
 H43 H 0.13785 0.71532 0.49518
 H44 H 0.34122 0.66339 0.51351
 C45 C 0.17805 0.28643 -0.43572
 C46 C 0.16434 0.26895 -0.50593
 C47 C 0.17984 0.26789 -0.57691
 C48 C 0.21063 0.28473 -0.57797
 C49 C 0.22522 0.30237 -0.50724
 C50 C 0.20893 0.30256 -0.43569
 C51 C 0.22407 0.31742 -0.36627
 C52 C 0.25472 0.32914 -0.36620
 C53 C 0.27136 0.32981 -0.43611
 C54 C 0.25645 0.31656 -0.50755
 C55 C 0.22779 0.27722 -0.64596
 C56 C 0.25810 0.29100 -0.64619
 C57 C 0.27283 0.31413 -0.57884
 C58 C 0.30399 0.32820 -0.57935
 C59 C 0.31819 0.33941 -0.50749
 C60 C 0.30264 0.34053 -0.43640
 H61 H 0.21244 0.31871 -0.31089
 H62 H 0.26521 0.33652 -0.31017
 H63 H 0.21827 0.25789 -0.69949
 H64 H 0.27000 0.28021 -0.69952
 H65 H 0.14082 0.25527 -0.50520
 H66 H 0.34181 0.35155 -0.50689
 C67 C -0.30257 0.67934 -0.41239
 C68 C -0.31888 0.67328 -0.48170
 C69 C -0.30567 0.67701 -0.55597
 C70 C -0.27451 0.68927 -0.56121
 C71 C -0.25746 0.69664 -0.49159
 C72 C -0.27132 0.68977 -0.41691
 C73 C -0.25370 0.69703 -0.34945
 C74 C -0.22305 0.70700 -0.35473
 C75 C -0.20890 0.71497 -0.42771
 C76 C -0.22633 0.71041 -0.49682
 C77 C -0.25949 0.68929 -0.63342
 C78 C -0.22945 0.70564 -0.63860
 C79 C -0.21267 0.71910 -0.57138
 C80 C -0.18198 0.73518 -0.57678
 C81 C -0.16497 0.73553 -0.50822
 C82 C -0.17775 0.72631 -0.43400
 H83 H -0.26331 0.69530 -0.29149
 H84 H -0.21063 0.70882 -0.30069
 H85 H -0.27053 0.67559 -0.68705
 H86 H -0.21922 0.70510 -0.69593
 H87 H -0.34278 0.66529 -0.47754
 H88 H -0.14145 0.74876 -0.51218
 O89 O -0.03533 0.84998 0.13543
 O90 O -0.07051 0.91711 0.06859
 C91 C -0.06263 0.86640 0.11906
 O92 O 0.04192 1.11360 0.14648
 O93 O 0.07570 1.05657 0.06830
 C94 C 0.06882 1.09748 0.12588
 O95 O -0.04116 1.09686 0.15458
 O96 O -0.07336 1.03622 0.07498
 C97 C -0.06763 1.07587 0.13448
 O98 O 0.04704 0.85449 0.12595
 O99 O 0.07802 0.93327 0.05854
 C100 C 0.07328 0.87913 0.10740
 Zr101 Zr 0.00464 0.89328 0.09132
 O102 O 0.00790 0.87974 0.21451
 O103 O 0.00566 0.77973 0.07572
 Zr104 Zr 0.00078 1.07730 0.10201
 O105 O 0.00243 1.08114 0.22532
 O106 O -0.00432 1.19185 0.09629
 O107 O -0.02333 0.98052 0.11383
 O108 O 0.02826 0.98685 0.11059
 O109 O 0.04503 0.87387 -0.14351
 O110 O 0.07723 0.94333 -0.07283
 C111 C 0.07158 0.89523 -0.12472
 O112 O -0.04194 1.12037 -0.14150
 O113 O -0.07329 1.04714 -0.06729
 C114 C -0.06807 1.09489 -0.12319
 O115 O 0.04134 1.13846 -0.13378
 O116 O 0.07506 1.06882 -0.06482
 C117 C 0.06850 1.12026 -0.11522
 O118 O -0.03892 0.87160 -0.14728
 O119 O -0.07195 0.92916 -0.06796
 C120 C -0.06585 0.88674 -0.12478
 Zr121 Zr 0.00289 0.90875 -0.10474
 O122 O 0.00502 0.92075 -0.22826
 O123 O 0.00220 0.79420 -0.11311
 Zr124 Zr 0.00008 1.09267 -0.09351
 O125 O 0.00186 1.11300 -0.21577
 O126 O -0.00550 1.20544 -0.07661
 Zr127 Zr -0.04228 0.98727 0.00115
 Zr128 Zr 0.04650 0.99772 -0.00261
 O129 O 0.02714 1.00444 -0.11478
 O130 O -0.02483 0.99872 -0.11336
 O131 O 0.03069 0.89012 -0.00861
 O132 O -0.02631 1.09469 0.00582
 O133 O -0.02201 0.88474 -0.00598
 O134 O 0.02720 1.10194 0.00438
 H135 H 0.04134 0.98303 0.15711
 H136 H -0.04134 1.13393 0.00842
 H137 H 0.04019 1.00900 -0.16143
 H138 H -0.03458 0.84048 -0.00777
 H139 H 0.01535 1.21344 0.08344
 H140 H 0.01372 1.22481 -0.05808
 H141 H -0.00261 1.06628 -0.24023
 H142 H -0.01353 0.94489 -0.24615
 H143 H 0.01580 0.77421 -0.07239
 H144 H 0.00645 0.75672 0.12891
 H145 H -0.00754 0.91076 0.23767
 H146 H 0.00486 1.03043 0.24504
 O147 O 0.54167 0.42249 -0.16727
 O148 O 0.57436 0.46897 -0.07873
 C149 C 0.56833 0.43944 -0.14464
 O150 O 0.45716 0.65651 -0.12417
 O151 O 0.42449 0.57745 -0.06267
 C152 C 0.43048 0.63229 -0.11014
 O153 O 0.54055 0.65420 -0.13004
 O154 O 0.57377 0.58321 -0.06049
 C155 C 0.56747 0.63338 -0.11269
 O156 O 0.45886 0.39742 -0.15222
 O157 O 0.42507 0.45351 -0.07358
 C158 C 0.43181 0.41185 -0.13100
 Zr159 Zr 0.50031 0.43284 -0.10842
 O160 O 0.49719 0.43327 -0.23177
 O161 O 0.50633 0.31869 -0.11054
 Zr162 Zr 0.49887 0.61632 -0.08649
 O163 O 0.49646 0.63984 -0.20826
 O164 O 0.50119 0.72894 -0.06475
 O165 O 0.52538 0.52839 -0.11297
 O166 O 0.47401 0.52490 -0.11228
 O167 O 0.45948 0.36299 0.12465
 O168 O 0.42558 0.43791 0.06272
 C169 C 0.43244 0.38450 0.11117
 O170 O 0.53937 0.60626 0.16650
 O171 O 0.57322 0.56328 0.07886
 C172 C 0.56632 0.59229 0.14450
 O173 O 0.45693 0.62226 0.15052
 O174 O 0.42415 0.56205 0.07252
 C175 C 0.43022 0.60506 0.12932
 O176 O 0.54269 0.37502 0.13095
 O177 O 0.57479 0.44922 0.06094
 C178 C 0.56924 0.39912 0.11393
 Zr179 Zr 0.50049 0.40688 0.08553
 O180 O 0.49838 0.38035 0.20669
 O181 O 0.50472 0.29507 0.06162
 Zr182 Zr 0.49872 0.59054 0.10736
 O183 O 0.49509 0.58941 0.23066
 O184 O 0.50292 0.70525 0.10962
 Zr185 Zr 0.54385 0.51421 -0.00020
 Zr186 Zr 0.45483 0.50914 -0.00043
 O187 O 0.47410 0.49559 0.11139
 O188 O 0.52533 0.49787 0.11233
 O189 O 0.47335 0.40456 -0.01297
 O190 O 0.52521 0.61790 0.01248
 O191 O 0.52709 0.40843 -0.01324
 O192 O 0.47156 0.61567 0.01187
 H193 H 0.46118 0.52964 -0.15923
 H194 H 0.53927 0.65901 0.01824
 H195 H 0.46136 0.48993 0.15853
 H196 H 0.54194 0.36914 -0.01874
 H197 H 0.48183 0.74344 -0.04251
 H198 H 0.48329 0.72641 0.09614
 H199 H 0.49741 0.53818 0.24880
 H200 H 0.50860 0.42000 0.23383
 H201 H 0.48519 0.27802 0.04266
 H202 H 0.48693 0.29563 -0.09786
 H203 H 0.49744 0.48488 -0.24974
 H204 H 0.50905 0.60367 -0.23419
 C205 C 0.31161 0.37393 0.28441
 C206 C 0.32142 0.33351 0.35109
 C207 C 0.35007 0.30250 0.34914
 C208 C 0.36876 0.31373 0.28404
 C209 C 0.35910 0.35701 0.21928
 C210 C 0.33001 0.38417 0.21878
 C211 C 0.37919 0.37555 0.15842
 C212 C 0.40886 0.35108 0.16194
 C213 C 0.41717 0.30248 0.22351
 C214 C 0.39742 0.28434 0.28398
 H215 H 0.35796 0.26966 0.39869
 H216 H 0.32193 0.41615 0.16892
 H217 H 0.37224 0.41238 0.11118
 H218 H 0.40502 0.24977 0.33243
 H219 H 0.29019 0.40076 0.28422
 H220 H 0.43965 0.28168 0.22787
 C221 C -0.17897 0.81360 0.30485
 C222 C -0.16783 0.75586 0.35244
 C223 C -0.14026 0.72532 0.33396
 C224 C -0.12321 0.75430 0.27227
 C225 C -0.13340 0.81581 0.22836
 C226 C -0.16176 0.84371 0.24363
 C227 C -0.11438 0.85035 0.17330
 C228 C -0.08537 0.82398 0.16297
 C229 C -0.07666 0.75914 0.20251
 C230 C -0.09535 0.72478 0.25676
 H231 H -0.13171 0.67995 0.36931
 H232 H -0.17008 0.89056 0.21048
 H233 H -0.12142 0.89987 0.14261
 H234 H -0.08748 0.67686 0.28896
 H235 H -0.20000 0.83891 0.31854
 H236 H -0.05471 0.73642 0.19418
 C237 C 0.67591 0.71805 0.31377
 C238 C 0.67548 0.66850 0.37850
 C239 C 0.65386 0.61291 0.38049
 C240 C 0.63300 0.60728 0.32044
 C241 C 0.63382 0.65679 0.25540
 C242 C 0.65559 0.71154 0.25232
 C243 C 0.61234 0.65160 0.19594
 C244 C 0.58974 0.59912 0.20311
 C245 C 0.58918 0.55042 0.26785
 C246 C 0.61086 0.55376 0.32561
 H247 H 0.65323 0.57370 0.42931
 H248 H 0.65633 0.75067 0.20360
 H249 H 0.61268 0.68909 0.14570
 H250 H 0.61003 0.51522 0.37490
 H251 H 0.69122 0.76364 0.31194
 H252 H 0.57200 0.50909 0.27319
 C253 C 0.16227 1.28857 0.28799
 C254 C 0.16414 1.24494 0.35702
 C255 C 0.14837 1.17897 0.36191
 C256 C 0.13084 1.15683 0.29969
 C257 C 0.12810 1.20202 0.23149
 C258 C 0.14424 1.26742 0.22585
 C259 C 0.10858 1.18172 0.17163
 C260 C 0.09236 1.11673 0.18003
 C261 C 0.09634 1.07092 0.24619
 C262 C 0.11542 1.09077 0.30574
 H263 H 0.14993 1.14449 0.41449
 H264 H 0.14250 1.30275 0.17411
 H265 H 0.10533 1.21698 0.12033
 H266 H 0.11755 1.05531 0.35730
 H267 H 0.17381 1.34033 0.28344
 H268 H 0.08385 1.02059 0.25285
 C269 C 0.68094 0.32556 -0.31138
 C270 C 0.68207 0.37971 -0.37186
 C271 C 0.66122 0.43701 -0.36977
 C272 C 0.63892 0.43787 -0.31252
 C273 C 0.63800 0.38300 -0.25272
 C274 C 0.65956 0.32803 -0.25179
 C275 C 0.61500 0.38309 -0.19655
 C276 C 0.59251 0.43582 -0.20213
 C277 C 0.59358 0.48964 -0.26203
 C278 C 0.61681 0.49140 -0.31611
 H279 H 0.66181 0.48036 -0.41433
 H280 H 0.65903 0.28492 -0.20709
 H281 H 0.61422 0.34174 -0.14994
 H282 H 0.61721 0.53395 -0.36147
 H283 H 0.69528 0.27839 -0.31251
 H284 H 0.57657 0.53128 -0.26608
 C285 C 0.13285 0.68116 -0.34219
 C286 C 0.15746 0.72530 -0.36149
 C287 C 0.16179 0.79073 -0.32294
 C288 C 0.14119 0.81313 -0.26720
 C289 C 0.11576 0.76991 -0.25065
 C290 C 0.11216 0.70319 -0.28695
 C291 C 0.09369 0.79568 -0.20094
 C292 C 0.09669 0.86403 -0.16743
 C293 C 0.12282 0.90464 -0.18046
 C294 C 0.14487 0.87956 -0.23036
 H295 H 0.18045 0.82561 -0.33905
 H296 H 0.09285 0.66932 -0.27464
 H297 H 0.07373 0.76358 -0.19029
 H298 H 0.16434 0.91308 -0.24195
 H299 H 0.12913 0.63091 -0.37215
 H300 H 0.12559 0.95731 -0.15498
 C301 C 0.30992 0.63090 -0.28138
 C302 C 0.31862 0.67569 -0.34606
 C303 C 0.34613 0.71246 -0.34203
 C304 C 0.36505 0.70190 -0.27752
 C305 C 0.35652 0.65448 -0.21486
 C306 C 0.32827 0.62233 -0.21564
 C307 C 0.37708 0.63648 -0.15527
 C308 C 0.40619 0.66495 -0.15845
 C309 C 0.41328 0.71744 -0.21747
 C310 C 0.39295 0.73559 -0.27641
 H311 H 0.35315 0.74848 -0.39011
 H312 H 0.32098 0.58765 -0.16691
 H313 H 0.37107 0.59669 -0.10980
 H314 H 0.39964 0.77329 -0.32323
 H315 H 0.28960 0.59921 -0.28300
 H316 H 0.43527 0.74147 -0.22117
 C317 C -0.15921 1.28293 -0.31192
 C318 C -0.16797 1.22796 -0.36280
 C319 C -0.15663 1.15734 -0.34999
 C320 C -0.13624 1.14215 -0.29020
 C321 C -0.12690 1.19792 -0.24061
 C322 C -0.13901 1.26788 -0.25107
 C323 C -0.10494 1.18291 -0.18354
 C324 C -0.09265 1.11285 -0.17644
 C325 C -0.10218 1.05845 -0.22608
 C326 C -0.12405 1.07247 -0.28183
 H327 H -0.16326 1.11418 -0.38824
 H328 H -0.13205 1.31152 -0.21405
 H329 H -0.09710 1.22536 -0.14606
 H330 H -0.13071 1.02943 -0.32005
 H331 H -0.16661 1.33848 -0.32188
 H332 H -0.09172 1.00558 -0.22369
 C333 C 0.68769 0.62102 -0.28373
 C334 C 0.68123 0.67471 -0.34171
 C335 C 0.65534 0.71692 -0.33409
 C336 C 0.63550 0.70363 -0.27232
 C337 C 0.64162 0.64787 -0.21605
 C338 C 0.66814 0.60811 -0.22107
 C339 C 0.62020 0.62956 -0.15905
 C340 C 0.59232 0.66450 -0.15958
 C341 C 0.58724 0.72262 -0.21319
 C342 C 0.60877 0.74241 -0.26872
 H343 H 0.65011 0.75858 -0.37833
 H344 H 0.67300 0.56453 -0.17888
 H345 H 0.62444 0.58437 -0.11832
 H346 H 0.60389 0.78570 -0.31127
 H347 H 0.70681 0.58582 -0.28953
 H348 H 0.56611 0.75081 -0.21450
 C349 C 0.13179 1.31955 -0.36386
 C350 C 0.15886 1.28123 -0.36458
 C351 C 0.16396 1.22666 -0.30683
 C352 C 0.14151 1.20717 -0.25262
 C353 C 0.11353 1.24227 -0.25633
 C354 C 0.10933 1.30025 -0.31038
 C355 C 0.08985 1.21633 -0.20889
 C356 C 0.09394 1.15611 -0.15712
 C357 C 0.12261 1.12559 -0.15001
 C358 C 0.14600 1.15029 -0.19765
 H359 H 0.18448 1.19585 -0.30780
 H360 H 0.08820 1.32844 -0.31377
 H361 H 0.06809 1.24121 -0.21443
 H362 H 0.16737 1.12333 -0.19311
 H363 H 0.12733 1.36140 -0.40832
 H364 H 0.12680 1.08024 -0.10965
 C365 C 0.31399 0.41409 -0.31802
 C366 C 0.32042 0.35468 -0.36479
 C367 C 0.34611 0.31328 -0.34857
 C368 C 0.36577 0.33285 -0.28895
 C369 C 0.35924 0.39315 -0.24275
 C370 C 0.33277 0.43166 -0.25619
 C371 C 0.37997 0.41609 -0.18683
 C372 C 0.40759 0.38075 -0.17859
 C373 C 0.41325 0.31911 -0.22298
 C374 C 0.39246 0.29502 -0.27706
 H375 H 0.35142 0.26772 -0.38481
 H376 H 0.32707 0.47666 -0.22038
 H377 H 0.37539 0.46393 -0.15344
 H378 H 0.39777 0.24841 -0.31165
 H379 H 0.29474 0.44787 -0.33037
 H380 H 0.43420 0.29042 -0.21731
 C381 C -0.13054 0.69522 -0.36347
 C382 C -0.15734 0.73464 -0.36625
 C383 C -0.16167 0.79062 -0.31338
 C384 C -0.13908 0.80884 -0.26069
 C385 C -0.11144 0.77226 -0.26242
 C386 C -0.10774 0.71411 -0.31246
 C387 C -0.08766 0.79630 -0.21641
 C388 C -0.09142 0.85535 -0.16711
 C389 C -0.11979 0.88708 -0.16113
 C390 C -0.14320 0.86507 -0.20851
 H391 H -0.18193 0.82251 -0.31619
 H392 H -0.08687 0.68482 -0.31406
 H393 H -0.06615 0.77012 -0.22026
 H394 H -0.16434 0.89307 -0.20547
 H395 H -0.12668 0.65220 -0.40409
 H396 H -0.12357 0.93182 -0.12264
 C397 C 0.31534 0.59169 0.32646
 C398 C 0.32107 0.65343 0.37039
 C399 C 0.34560 0.69781 0.35095
 C400 C 0.36474 0.67952 0.28978
 C401 C 0.35898 0.61683 0.24633
 C402 C 0.33374 0.57465 0.26386
 C403 C 0.37931 0.59540 0.18895
 C404 C 0.40579 0.63477 0.17647
 C405 C 0.41058 0.69884 0.21762
 C406 C 0.39016 0.72131 0.27331
 H407 H 0.35022 0.74527 0.38505
 H408 H 0.32865 0.52764 0.23032
 H409 H 0.37551 0.54567 0.15804
 H410 H 0.39483 0.76982 0.30556
 H411 H 0.29675 0.55622 0.34125
 H412 H 0.43072 0.73049 0.20849
 C413 C -0.16212 1.26467 0.29699
 C414 C -0.16924 1.21391 0.35772
 C415 C -0.15643 1.14399 0.35615
 C416 C -0.13624 1.12587 0.29742
 C417 C -0.12818 1.17841 0.23896
 C418 C -0.14177 1.24711 0.23835
 C419 C -0.10605 1.16182 0.18389
 C420 C -0.09242 1.09312 0.18662
 C421 C -0.10146 1.04051 0.24285
 C422 C -0.12317 1.05669 0.29795
 H423 H -0.16186 1.10382 0.40186
 H424 H -0.13593 1.28808 0.19398
 H425 H -0.09907 1.20233 0.14016
 H426 H -0.12926 1.01563 0.34201
 H427 H -0.17078 1.31957 0.29758
 H428 H -0.09103 0.98741 0.24543
 C429 C 0.68716 0.43239 0.29233
 C430 C 0.68276 0.37391 0.34568
 C431 C 0.65869 0.32635 0.33600
 C432 C 0.63830 0.33872 0.27519
 C433 C 0.64241 0.39865 0.22244
 C434 C 0.66722 0.44439 0.23057
 C435 C 0.62080 0.41427 0.16538
 C436 C 0.59449 0.37263 0.16231
 C437 C 0.59118 0.31167 0.21324
 C438 C 0.61305 0.29441 0.26871
 H439 H 0.65517 0.28180 0.37815
 H440 H 0.67053 0.49101 0.19111
 H441 H 0.62357 0.46196 0.12710
 H442 H 0.60963 0.24820 0.30866
 H443 H 0.70541 0.47002 0.30018
 H444 H 0.57120 0.27868 0.21197
 C445 C 0.13599 0.66737 0.33952
 C446 C 0.16057 0.71203 0.35444
 C447 C 0.16533 0.77518 0.30765
 C448 C 0.14459 0.79618 0.24994
 C449 C 0.11900 0.75295 0.23839
 C450 C 0.11545 0.68737 0.28154
 C451 C 0.09653 0.77818 0.18757
 C452 C 0.09914 0.84645 0.14867
 C453 C 0.12548 0.88689 0.15691
 C454 C 0.14801 0.86198 0.20715
 H455 H 0.18398 0.81048 0.32007
 H456 H 0.09604 0.65343 0.27320
 H457 H 0.07642 0.74626 0.18123
 H458 H 0.16753 0.89565 0.21504
 H459 H 0.13190 0.61891 0.37569
 H460 H 0.12802 0.93973 0.12778
   
