data_POSCAR
  _audit_creation_date              2014-09-24
  _audit_creation_method            'ToBaCCo'
  _symmetry_space_group_name_H-M    'P1'
  _symmetry_Int_Tables_number       1
  _symmetry_cell_setting            triclinic
  loop_
  _symmetry_equiv_pos_as_xyz
 x,y,z
_cell_length_a 52.2973
_cell_length_b 52.4540
_cell_length_c 52.6243
_cell_angle_alpha 89.987600
_cell_angle_beta 89.965200
_cell_angle_gamma 89.972700
loop_
  _atom_site_label
  _atom_site_type_symbol
  _atom_site_fract_x
  _atom_site_fract_y
  _atom_site_fract_z
C1 C 0.34505 0.34043 1.37479
 C2 C 0.32334 0.35002 1.38726
 C3 C 0.31025 0.37176 1.37809
 C4 C 0.31987 0.38379 1.35598
 C5 C 0.34151 0.37435 1.34333
 C6 C 0.35409 0.35254 1.35271
 C7 C 0.35764 0.31869 1.38405
 C8 C 0.37925 0.30845 1.37146
 C9 C 0.38801 0.32097 1.34929
 C10 C 0.37561 0.34275 1.33991
 C11 C 0.38444 0.35484 1.31780
 C12 C 0.37190 0.37650 1.30816
 C13 C 0.35048 0.38618 1.32112
 H14 H 0.31738 0.34084 1.40470
 H15 H 0.30997 0.39985 1.34764
 H16 H 0.34958 0.30919 1.40044
 H17 H 0.40506 0.31450 1.33958
 H18 H 0.40116 0.34744 1.30811
 H19 H 0.34049 0.40266 1.31364
 C20 C 1.15584 0.66022 0.87480
 C21 C 1.17759 0.65059 0.88714
 C22 C 1.19058 0.62880 0.87790
 C23 C 1.18083 0.61681 0.85586
 C24 C 1.15915 0.62630 0.84333
 C25 C 1.14666 0.64813 0.85278
 C26 C 1.14332 0.68197 0.88413
 C27 C 1.12165 0.69225 0.87169
 C28 C 1.11277 0.67975 0.84957
 C29 C 1.12508 0.65796 0.84011
 C30 C 1.11612 0.64587 0.81806
 C31 C 1.12856 0.62418 0.80836
 C32 C 1.15004 0.61448 0.82119
 H33 H 1.18366 0.65976 0.90454
 H34 H 1.19066 0.60073 0.84746
 H35 H 1.15148 0.69146 0.90048
 H36 H 1.09568 0.68625 0.83997
 H37 H 1.09935 0.65329 0.80847
 H38 H 1.15996 0.59798 0.81366
 C39 C 0.65534 -0.15945 0.12447
 C40 C 0.67708 -0.14988 0.11206
 C41 C 0.69002 -0.12840 0.12156
 C42 C 0.68083 -0.11640 0.14365
 C43 C 0.65916 -0.12578 0.15628
 C44 C 0.64642 -0.14745 0.14670
 C45 C 0.64268 -0.18108 0.11512
 C46 C 0.62106 -0.19129 0.12770
 C47 C 0.61237 -0.17885 0.14994
 C48 C 0.62487 -0.15720 0.15946
 C49 C 0.61613 -0.14521 0.18166
 C50 C 0.62878 -0.12369 0.19144
 C51 C 0.65026 -0.11404 0.17855
 H52 H 0.68385 -0.15905 0.09487
 H53 H 0.69088 -0.10006 0.15133
 H54 H 0.65070 -0.19050 0.09865
 H55 H 0.59530 -0.18529 0.15963
 H56 H 0.59937 -0.15258 0.19131
 H57 H 0.66034 -0.09767 0.18613
 C58 C -0.15683 1.15914 -0.37427
 C59 C -0.17879 1.14968 -0.38634
 C60 C -0.19165 1.12784 -0.37705
 C61 C -0.18146 1.11556 -0.35534
 C62 C -0.15954 1.12484 -0.34312
 C63 C -0.14716 1.14670 -0.35259
 C64 C -0.14463 1.18115 -0.38337
 C65 C -0.12285 1.19092 -0.37108
 C66 C -0.11319 1.17824 -0.34959
 C67 C -0.12520 1.15624 -0.34026
 C68 C -0.11583 1.14385 -0.31855
 C69 C -0.12811 1.12203 -0.30894
 C70 C -0.14989 1.11259 -0.32145
 H71 H -0.18637 1.16030 -0.40228
 H72 H -0.18993 1.09816 -0.34819
 H73 H -0.15200 1.19063 -0.40014
 H74 H -0.09663 1.18581 -0.33979
 H75 H -0.09925 1.15149 -0.30882
 H76 H -0.15929 1.09562 -0.31433
 C77 C 0.65940 0.66134 0.62810
 C78 C 0.68125 0.65117 0.61638
 C79 C 0.69328 0.62935 0.62629
 C80 C 0.68306 0.61759 0.64805
 C81 C 0.66120 0.62751 0.65992
 C82 C 0.64929 0.64946 0.64989
 C83 C 0.64761 0.68326 0.61831
 C84 C 0.62569 0.69390 0.63000
 C85 C 0.61576 0.68156 0.65179
 C86 C 0.62738 0.65959 0.66174
 C87 C 0.61762 0.64785 0.68366
 C88 C 0.62946 0.62606 0.69389
 C89 C 0.65121 0.61597 0.68181
 H90 H 0.68885 0.66018 0.59945
 H91 H 0.69242 0.60098 0.65604
 H92 H 0.65524 0.69133 0.60097
 H93 H 0.59965 0.68951 0.66198
 H94 H 0.60105 0.65595 0.69306
 H95 H 0.66027 0.59900 0.68937
 C96 C 0.84046 0.33949 0.12874
 C97 C 0.81851 0.34975 0.11727
 C98 C 0.80610 0.37145 0.12744
 C99 C 0.81664 0.38272 0.14951
 C100 C 0.83854 0.37262 0.16115
 C101 C 0.85043 0.35088 0.15078
 C102 C 0.85222 0.31765 0.11866
 C103 C 0.87406 0.30674 0.13025
 C104 C 0.88387 0.31868 0.15229
 C105 C 0.87224 0.34046 0.16256
 C106 C 0.88213 0.35195 0.18452
 C107 C 0.87040 0.37365 0.19502
 C108 C 0.84864 0.38392 0.18313
 H109 H 0.81061 0.33987 0.10103
 H110 H 0.80852 0.39998 0.15737
 H111 H 0.84341 0.30864 0.10238
 H112 H 0.90116 0.31173 0.16121
 H113 H 0.89909 0.34408 0.19340
 H114 H 0.83925 0.40042 0.19130
 C115 C 0.34087 0.16118 0.87141
 C116 C 0.31898 0.15103 0.88304
 C117 C 0.30648 0.12934 0.87298
 C118 C 0.31690 0.11796 0.85090
 C119 C 0.33878 0.12793 0.83911
 C120 C 0.35078 0.14964 0.84934
 C121 C 0.35275 0.18301 0.88131
 C122 C 0.37446 0.19345 0.86946
 C123 C 0.38434 0.18169 0.84755
 C124 C 0.37263 0.15992 0.83739
 C125 C 0.38234 0.14838 0.81538
 C126 C 0.37047 0.12670 0.80503
 C127 C 0.34874 0.11654 0.81709
 H128 H 0.31118 0.16100 0.89929
 H129 H 0.30870 0.10070 0.84314
 H130 H 0.34480 0.19217 0.89801
 H131 H 0.40126 0.18942 0.83847
 H132 H 0.39928 0.15617 0.80638
 H133 H 0.33926 0.10006 0.80902
 C134 C 0.15868 0.83830 0.37156
 C135 C 0.18076 0.84838 0.38289
 C136 C 0.19283 0.87002 0.37264
 C137 C 0.18244 0.88167 0.35091
 C138 C 0.16041 0.87180 0.33937
 C139 C 0.14853 0.84997 0.34967
 C140 C 0.14691 0.81647 0.38158
 C141 C 0.12493 0.80577 0.37009
 C142 C 0.11498 0.81792 0.34821
 C143 C 0.12660 0.83974 0.33799
 C144 C 0.11660 0.85145 0.31617
 C145 C 0.12835 0.87317 0.30573
 C146 C 0.15023 0.88327 0.31752
 H147 H 0.18885 0.83908 0.39943
 H148 H 0.19142 0.89855 0.34307
 H149 H 0.15585 0.80730 0.39772
 H150 H 0.09760 0.81111 0.33937
 H151 H 0.09956 0.84372 0.30736
 H152 H 0.15965 0.89977 0.30940
 Zn153 Zn 0.03062 0.98531 0.00430
 Zn154 Zn -0.02063 0.98039 -0.02048
 Zn155 Zn -0.01578 1.00509 0.03055
 Zn156 Zn 0.00418 1.03155 -0.01539
 O157 O -0.00043 1.00055 -0.00029
 O158 O 0.03294 0.95538 -0.01172
 O159 O -0.04969 0.97078 -0.00493
 O160 O 0.00302 0.99334 0.05647
 O161 O -0.00489 0.95147 -0.03006
 O162 O 0.03747 0.97873 0.03697
 O163 O -0.04581 0.98906 0.03272
 O164 O -0.00766 1.05751 0.00334
 O165 O -0.03016 0.99611 -0.04933
 O166 O -0.02238 1.03785 0.03748
 O167 O -0.01175 1.03384 -0.04530
 O168 O 0.03707 1.03849 -0.02178
 O169 O 0.05671 1.00414 -0.00728
 C170 C 0.01736 0.94292 -0.02540
 C171 C -0.05830 0.97541 0.01717
 C172 C 0.02479 0.98266 0.05717
 C173 C -0.01842 1.05816 0.02495
 C174 C -0.02542 1.01829 -0.05781
 C175 C 0.05741 1.02588 -0.01785
 Zn176 Zn 0.49590 -0.03128 0.48410
 Zn177 Zn 0.51541 -0.00461 0.53008
 Zn178 Zn 0.52072 0.01986 0.47898
 Zn179 Zn 0.46925 0.01501 0.50339
 O180 O 0.50035 -0.00023 0.49911
 O181 O 0.50744 -0.05717 0.50312
 O182 O 0.54543 0.01141 0.53242
 O183 O 0.53059 0.00402 0.45032
 O184 O 0.52187 -0.03734 0.53726
 O185 O 0.51223 -0.03373 0.45438
 O186 O 0.54961 0.02958 0.49472
 O187 O 0.46708 0.04488 0.48726
 O188 O 0.49638 0.00725 0.55579
 O189 O 0.50505 0.04873 0.46915
 O190 O 0.46207 0.02170 0.53599
 O191 O 0.44328 -0.00386 0.49166
 O192 O 0.46308 -0.03822 0.47739
 C193 C 0.51795 -0.05771 0.52484
 C194 C 0.55804 0.02504 0.51691
 C195 C 0.52602 -0.01823 0.44193
 C196 C 0.48278 0.05730 0.47364
 C197 C 0.47459 0.01788 0.55629
 C198 C 0.44269 -0.02562 0.48113
 Zn199 Zn 0.97032 0.48385 0.49656
 Zn200 Zn 1.02169 0.47905 0.52117
 Zn201 Zn 1.01652 0.50363 0.47007
 Zn202 Zn 0.99670 0.53014 0.51605
 O203 O 1.00134 0.49913 0.50100
 O204 O 0.96818 0.45396 0.51263
 O205 O 1.05069 0.46943 0.50548
 O206 O 0.99761 0.49184 0.44424
 O207 O 1.00604 0.45012 0.53092
 O208 O 0.96329 0.47723 0.46394
 O209 O 1.04658 0.48765 0.46780
 O210 O 1.00830 0.55608 0.49718
 O211 O 1.03138 0.49488 0.54992
 O212 O 1.02298 0.53640 0.46304
 O213 O 1.01285 0.53255 0.54583
 O214 O 0.96383 0.53700 0.52265
 O215 O 0.94423 0.50261 0.50826
 C216 C 0.98380 0.44154 0.52631
 C217 C 1.05918 0.47404 0.48332
 C218 C 0.97585 0.48116 0.44366
 C219 C 1.01897 0.55672 0.47552
 C220 C 1.02666 0.51710 0.55832
 C221 C 0.94351 0.52435 0.51883
 Zn222 Zn 0.50389 0.46944 1.01543
 Zn223 Zn 0.47891 0.52055 1.02040
 Zn224 Zn 0.53033 0.51568 0.99581
 Zn225 Zn 0.48410 0.49587 0.96939
 O226 O 0.49928 0.50042 1.00029
 O227 O 0.48771 0.46711 1.04522
 O228 O 0.49456 0.54948 1.03005
 O229 O 0.55641 0.49692 1.00755
 O230 O 0.46920 0.50481 1.04919
 O231 O 0.53676 0.46258 1.02204
 O232 O 0.53247 0.54562 1.01180
 O233 O 0.50300 0.50765 0.94355
 O234 O 0.44993 0.53016 1.00472
 O235 O 0.53735 0.52226 0.96315
 O236 O 0.45403 0.51185 0.96709
 O237 O 0.47765 0.46310 0.96244
 O238 O 0.49229 0.44346 0.99662
 C239 C 0.47390 0.48261 1.05766
 C240 C 0.51680 0.55806 1.02543
 C241 C 0.55709 0.47521 1.01819
 C242 C 0.52476 0.51834 0.94291
 C243 C 0.44144 0.52551 0.98258
 C244 C 0.48164 0.44280 0.97496
 C245 C 1.24974 0.37371 0.41655
 C246 C 1.24272 0.39927 0.41407
 C247 C 1.25820 0.41587 0.40016
 C248 C 1.28050 0.40696 0.38852
 C249 C 1.28790 0.38106 0.39050
 C250 C 1.27205 0.36467 0.40499
 C251 C 1.21925 0.40835 0.42517
 C252 C 1.19942 0.41609 0.43397
 C253 C 1.17603 0.42536 0.44364
 C254 C 1.15589 0.43352 0.45129
 C255 C 1.13169 0.44361 0.45960
 C256 C 1.11726 0.45870 0.44303
 C257 C 1.09371 0.46856 0.45077
 C258 C 1.08419 0.46347 0.47528
 C259 C 1.09883 0.44827 0.49185
 C260 C 1.12244 0.43840 0.48403
 H261 H 1.23773 0.36060 0.42708
 H262 H 1.25302 0.43579 0.39828
 H263 H 1.29222 0.42080 0.37872
 H264 H 1.27594 0.34449 0.40654
 H265 H 1.12423 0.46284 0.42407
 H266 H 1.08297 0.48017 0.43753
 H267 H 1.09206 0.44400 0.51083
 H268 H 1.13346 0.42673 0.49702
 C269 C 0.24256 0.58450 0.89972
 C270 C 0.25815 0.60103 0.91356
 C271 C 0.25123 0.62662 0.91607
 C272 C 0.22891 0.63575 0.90462
 C273 C 0.21295 0.61942 0.89020
 C274 C 0.22024 0.59350 0.88819
 C275 C 0.28161 0.59184 0.92456
 C276 C 0.30142 0.58400 0.93329
 C277 C 0.32479 0.57459 0.94291
 C278 C 0.34489 0.56633 0.95053
 C279 C 0.36904 0.55614 0.95884
 C280 C 0.37830 0.56137 0.98325
 C281 C 0.40187 0.55142 0.99108
 C282 C 0.41645 0.53612 0.97454
 C283 C 0.40691 0.53100 0.95006
 C284 C 0.38340 0.54094 0.94231
 H285 H 0.24765 0.56456 0.89782
 H286 H 0.26332 0.63967 0.92656
 H287 H 0.22509 0.65594 0.90620
 H288 H 0.20844 0.57970 0.87844
 H289 H 0.36733 0.57312 0.99621
 H290 H 0.40866 0.55573 1.01003
 H291 H 0.41761 0.51931 0.93684
 H292 H 0.37642 0.53678 0.92337
 C293 C -0.26016 0.91660 0.09431
 C294 C -0.24165 0.89945 0.08553
 C295 C -0.24567 0.87320 0.08809
 C296 C -0.26801 0.86412 0.09957
 C297 C -0.28662 0.88122 0.10869
 C298 C -0.28250 0.90757 0.10581
 C299 C -0.21821 0.90880 0.07463
 C300 C -0.19841 0.91674 0.06597
 C301 C -0.17505 0.92622 0.05643
 C302 C -0.15494 0.93453 0.04887
 C303 C -0.13078 0.94475 0.04063
 C304 C -0.11653 0.95996 0.05722
 C305 C -0.09299 0.96991 0.04956
 C306 C -0.08332 0.96479 0.02512
 C307 C -0.09780 0.94948 0.00852
 C308 C -0.12139 0.93953 0.01626
 H309 H -0.25724 0.93696 0.09243
 H310 H -0.23141 0.85975 0.08149
 H311 H -0.27046 0.84375 0.10180
 H312 H -0.29661 0.92119 0.11236
 H313 H -0.12360 0.96411 0.07613
 H314 H -0.08237 0.98161 0.06282
 H315 H -0.09090 0.94518 -0.01041
 H316 H -0.13227 0.92776 0.00326
 C317 C 0.75825 0.11453 0.57353
 C318 C 0.74031 0.10083 0.58767
 C319 C 0.74486 0.09593 0.61335
 C320 C 0.76721 0.10469 0.62493
 C321 C 0.78568 0.11869 0.61105
 C322 C 0.78066 0.12340 0.58502
 C323 C 0.71711 0.09181 0.57604
 C324 C 0.69747 0.08403 0.56690
 C325 C 0.67426 0.07462 0.55697
 C326 C 0.65427 0.06629 0.54918
 C327 C 0.63021 0.05598 0.54078
 C328 C 0.61586 0.04078 0.55732
 C329 C 0.59243 0.03072 0.54952
 C330 C 0.58296 0.03574 0.52499
 C331 C 0.59753 0.05104 0.50845
 C332 C 0.62103 0.06110 0.51632
 H333 H 0.75500 0.11826 0.55353
 H334 H 0.73096 0.08552 0.62456
 H335 H 0.76919 0.10130 0.64510
 H336 H 0.79434 0.13307 0.57301
 H337 H 0.62279 0.03670 0.57630
 H338 H 0.58174 0.01903 0.56274
 H339 H 0.59079 0.05526 0.48945
 H340 H 0.63198 0.07286 0.50337
 C341 C 0.41659 0.24727 0.37297
 C342 C 0.41480 0.24069 0.39862
 C343 C 0.40176 0.25669 0.41541
 C344 C 0.39027 0.27907 0.40660
 C345 C 0.39154 0.28602 0.38062
 C346 C 0.40518 0.26965 0.36404
 C347 C 0.42568 0.21715 0.40764
 C348 C 0.43430 0.19729 0.41535
 C349 C 0.44376 0.17387 0.42462
 C350 C 0.45125 0.15373 0.43280
 C351 C 0.45940 0.12956 0.44291
 C352 C 0.44256 0.11531 0.45790
 C353 C 0.45018 0.09182 0.46785
 C354 C 0.47483 0.08220 0.46293
 C355 C 0.49165 0.09666 0.44780
 C356 C 0.48396 0.12020 0.43786
 H357 H 0.42645 0.23486 0.35974
 H358 H 0.40042 0.25186 0.43539
 H359 H 0.38117 0.29118 0.42055
 H360 H 0.40615 0.27321 0.34382
 H361 H 0.42351 0.12237 0.46193
 H362 H 0.43675 0.08122 0.47940
 H363 H 0.51074 0.08980 0.44367
 H364 H 0.49714 0.13108 0.42626
 C365 C 0.92786 0.23916 0.60990
 C366 C 0.91275 0.25974 0.60206
 C367 C 0.88608 0.25782 0.60295
 C368 C 0.87452 0.23544 0.61163
 C369 C 0.88951 0.21462 0.61955
 C370 C 0.91633 0.21674 0.61862
 C371 C 0.92444 0.28286 0.59298
 C372 C 0.93365 0.30242 0.58518
 C373 C 0.94369 0.32555 0.57579
 C374 C 0.95155 0.34549 0.56749
 C375 C 0.95998 0.36949 0.55719
 C376 C 0.94337 0.38367 0.54189
 C377 C 0.95117 0.40705 0.53186
 C378 C 0.97576 0.41666 0.53700
 C379 C 0.99237 0.40225 0.55240
 C380 C 0.98450 0.37880 0.56243
 H381 H 0.94852 0.24042 0.60922
 H382 H 0.87420 0.27365 0.59698
 H383 H 0.85385 0.23454 0.61247
 H384 H 0.92836 0.20095 0.62433
 H385 H 0.92435 0.37665 0.53772
 H386 H 0.93789 0.41761 0.52009
 H387 H 1.01141 0.40909 0.55671
 H388 H 0.99751 0.36797 0.57427
 C389 C 0.08424 0.75339 -0.12644
 C390 C 0.08617 0.75993 -0.10079
 C391 C 0.09935 0.74391 -0.08413
 C392 C 0.11082 0.72157 -0.09306
 C393 C 0.10940 0.71466 -0.11903
 C394 C 0.09564 0.73104 -0.13549
 C395 C 0.07524 0.78340 -0.09165
 C396 C 0.06657 0.80320 -0.08383
 C397 C 0.05701 0.82655 -0.07445
 C398 C 0.04942 0.84662 -0.06620
 C399 C 0.04112 0.87072 -0.05603
 C400 C 0.05777 0.88494 -0.04084
 C401 C 0.05002 0.90839 -0.03090
 C402 C 0.02542 0.91801 -0.03602
 C403 C 0.00877 0.90357 -0.05132
 C404 C 0.01659 0.88007 -0.06126
 H405 H 0.07427 0.76580 -0.13959
 H406 H 0.10079 0.74870 -0.06415
 H407 H 0.12002 0.70945 -0.07919
 H408 H 0.09455 0.72752 -0.15570
 H409 H 0.07680 0.87790 -0.03667
 H410 H 0.06332 0.91898 -0.01920
 H411 H -0.01028 0.91042 -0.05563
 H412 H 0.00354 0.86921 -0.07302
 C413 C 0.58350 0.74771 1.12597
 C414 C 0.58522 0.74124 1.10029
 C415 C 0.59830 0.75727 1.08356
 C416 C 0.60988 0.77955 1.09244
 C417 C 0.60867 0.78638 1.11845
 C418 C 0.59500 0.77000 1.13499
 C419 C 0.57424 0.71780 1.09120
 C420 C 0.56554 0.69800 1.08345
 C421 C 0.55599 0.67463 1.07416
 C422 C 0.54844 0.65453 1.06599
 C423 C 0.54024 0.63038 1.05590
 C424 C 0.55699 0.61614 1.04081
 C425 C 0.54935 0.59264 1.03094
 C426 C 0.52475 0.58301 1.03602
 C427 C 0.50799 0.59747 1.05122
 C428 C 0.51572 0.62102 1.06110
 H429 H 0.57361 0.73528 1.13917
 H430 H 0.59959 0.75252 1.06355
 H431 H 0.61901 0.79169 1.07854
 H432 H 0.59408 0.77345 1.15522
 H433 H 0.57602 0.62319 1.03668
 H434 H 0.56273 0.58203 1.01932
 H435 H 0.48894 0.59060 1.05549
 H436 H 0.50259 0.63190 1.07277
 C437 C 0.39047 0.42688 1.25965
 C438 C 0.39812 0.41174 1.23911
 C439 C 0.39717 0.38516 1.24111
 C440 C 0.38865 0.37372 1.26355
 C441 C 0.38096 0.38874 1.28434
 C442 C 0.38191 0.41547 1.28214
 C443 C 0.40714 0.42331 1.21597
 C444 C 0.41491 0.43242 1.19640
 C445 C 0.42430 0.44237 1.17329
 C446 C 0.43261 0.45019 1.15339
 C447 C 0.44291 0.45863 1.12945
 C448 C 0.45830 0.44211 1.11525
 C449 C 0.46835 0.44995 1.09194
 C450 C 0.46316 0.47450 1.08244
 C451 C 0.44767 0.49102 1.09686
 C452 C 0.43761 0.48311 1.12023
 H453 H 0.39120 0.44748 1.25833
 H454 H 0.40299 0.37325 1.22530
 H455 H 0.38778 0.35312 1.26452
 H456 H 0.37638 0.42752 1.29791
 H457 H 0.46252 0.42312 1.12219
 H458 H 0.48019 0.43673 1.08136
 H459 H 0.44331 0.51003 1.09010
 H460 H 0.42570 0.49605 1.13108
 C461 C 0.60344 -0.11537 0.25850
 C462 C 0.60256 -0.08880 0.26066
 C463 C 0.61032 -0.07356 0.24024
 C464 C 0.61891 -0.08485 0.21770
 C465 C 0.61977 -0.11157 0.21533
 C466 C 0.61198 -0.12669 0.23602
 C467 C 0.59347 -0.07735 0.28383
 C468 C 0.58563 -0.06832 0.30341
 C469 C 0.57615 -0.05847 0.32652
 C470 C 0.56776 -0.05070 0.34641
 C471 C 0.55737 -0.04228 0.37032
 C472 C 0.56250 -0.01775 0.37947
 C473 C 0.55233 -0.00983 0.40279
 C474 C 0.53690 -0.02639 0.41722
 C475 C 0.53188 -0.05099 0.40779
 C476 C 0.54205 -0.05884 0.38453
 H477 H 0.59754 -0.12735 0.27422
 H478 H 0.60965 -0.05296 0.24168
 H479 H 0.62452 -0.07272 0.20202
 H480 H 0.61278 -0.14729 0.23491
 H481 H 0.57435 -0.00478 0.36861
 H482 H 0.55655 0.00923 0.40950
 H483 H 0.52009 -0.06423 0.41838
 H484 H 0.53796 -0.07787 0.37763
 C485 C -0.08308 1.09486 -0.25924
 C486 C -0.10032 1.08662 -0.24061
 C487 C -0.12663 1.08957 -0.24448
 C488 C -0.13568 1.10087 -0.26679
 C489 C -0.11850 1.10941 -0.28555
 C490 C -0.09209 1.10618 -0.28156
 C491 C -0.09100 1.07584 -0.21723
 C492 C -0.08314 1.06724 -0.19748
 C493 C -0.07380 1.05775 -0.17417
 C494 C -0.06563 1.05019 -0.15411
 C495 C -0.05560 1.04193 -0.13001
 C496 C -0.06094 1.01748 -0.12075
 C497 C -0.05116 1.00969 -0.09724
 C498 C -0.03592 1.02632 -0.08271
 C499 C -0.03069 1.05085 -0.09224
 C500 C -0.04047 1.05856 -0.11571
 H501 H -0.06268 1.09268 -0.25643
 H502 H -0.14013 1.08340 -0.23012
 H503 H -0.15609 1.10340 -0.26914
 H504 H -0.07842 1.11229 -0.29577
 H505 H -0.07266 1.00446 -0.13168
 H506 H -0.05553 0.99070 -0.09045
 H507 H -0.01903 1.06413 -0.08159
 H508 H -0.03623 1.07753 -0.12269
 C509 C 1.10298 0.61540 0.74147
 C510 C 1.10207 0.58881 0.73951
 C511 C 1.10980 0.57372 0.76005
 C512 C 1.11841 0.58517 0.78248
 C513 C 1.11935 0.61191 0.78463
 C514 C 1.11155 0.62688 0.76385
 C515 C 1.09306 0.57718 0.71641
 C516 C 1.08533 0.56798 0.69688
 C517 C 1.07600 0.55791 0.67380
 C518 C 1.06775 0.54998 0.65393
 C519 C 1.05750 0.54142 0.63003
 C520 C 1.06286 0.51691 0.62092
 C521 C 1.05285 0.50888 0.59757
 C522 C 1.03735 0.52532 0.58307
 C523 C 1.03210 0.54990 0.59247
 C524 C 1.04211 0.55785 0.61575
 H525 H 1.09710 0.62727 0.72566
 H526 H 1.10909 0.55311 0.75877
 H527 H 1.12402 0.57314 0.79824
 H528 H 1.11241 0.64749 0.76478
 H529 H 1.07477 0.50403 0.63182
 H530 H 1.05725 0.48985 0.59089
 H531 H 1.02026 0.56305 0.58183
 H532 H 1.03784 0.57686 0.62260
 C533 C 0.74261 0.58307 0.60025
 C534 C 0.76175 0.59976 0.59196
 C535 C 0.75842 0.62609 0.59463
 C536 C 0.73609 0.63572 0.60564
 C537 C 0.71679 0.61911 0.61416
 C538 C 0.72026 0.59266 0.61129
 C539 C 0.78501 0.58988 0.58114
 C540 C 0.80463 0.58171 0.57230
 C541 C 0.82776 0.57220 0.56225
 C542 C 0.84766 0.56412 0.55395
 C543 C 0.87156 0.55447 0.54440
 C544 C 0.89403 0.56854 0.54777
 C545 C 0.91741 0.55889 0.53920
 C546 C 0.91862 0.53497 0.52713
 C547 C 0.89587 0.52109 0.52360
 C548 C 0.87251 0.53079 0.53220
 H549 H 0.74499 0.56265 0.59826
 H550 H 0.77317 0.63917 0.58838
 H551 H 0.73413 0.65615 0.60791
 H552 H 0.70562 0.57942 0.61739
 H553 H 0.89351 0.58688 0.55722
 H554 H 0.93454 0.57006 0.54223
 H555 H 0.89613 0.50263 0.51440
 H556 H 0.85523 0.51973 0.52951
 C557 C 0.75608 0.38742 1.07874
 C558 C 0.73838 0.40085 1.09342
 C559 C 0.74310 0.40481 1.11923
 C560 C 0.76538 0.39531 1.13041
 C561 C 0.78357 0.38149 1.11598
 C562 C 0.77840 0.37783 1.08982
 C563 C 0.71520 0.41039 1.08212
 C564 C 0.69566 0.41835 1.07294
 C565 C 0.67260 0.42766 1.06254
 C566 C 0.65278 0.43563 1.05397
 C567 C 0.62894 0.44518 1.04416
 C568 C 0.60646 0.43111 1.04747
 C569 C 0.58312 0.44071 1.03874
 C570 C 0.58196 0.46459 1.02658
 C571 C 0.60473 0.47847 1.02308
 C572 C 0.62805 0.46881 1.03184
 H573 H 0.75271 0.38443 1.05865
 H574 H 0.72937 0.41501 1.13084
 H575 H 0.76751 0.39797 1.15067
 H576 H 0.79189 0.36840 1.07741
 H577 H 0.60693 0.41281 1.05702
 H578 H 0.56597 0.42955 1.04175
 H579 H 0.60451 0.49690 1.01381
 H580 H 0.64533 0.47988 1.02921
 C581 C 0.25658 1.11368 -0.07806
 C582 C 0.23879 1.10027 -0.09264
 C583 C 0.24342 1.09625 -0.11846
 C584 C 0.26568 1.10565 -0.12976
 C585 C 0.28395 1.11943 -0.11544
 C586 C 0.27888 1.12317 -0.08926
 C587 C 0.21564 1.09082 -0.08123
 C588 C 0.19610 1.08290 -0.07201
 C589 C 0.17304 1.07361 -0.06161
 C590 C 0.15320 1.06565 -0.05308
 C591 C 0.12934 1.05608 -0.04335
 C592 C 0.10685 1.07013 -0.04674
 C593 C 0.08348 1.06047 -0.03816
 C594 C 0.08230 1.03656 -0.02607
 C595 C 0.10508 1.02271 -0.02248
 C596 C 0.12843 1.03242 -0.03110
 H597 H 0.25327 1.11672 -0.05796
 H598 H 0.22963 1.08607 -0.12999
 H599 H 0.26773 1.10294 -0.15002
 H600 H 0.29244 1.13259 -0.07693
 H601 H 0.10734 1.08845 -0.05625
 H602 H 0.06633 1.07162 -0.04122
 H603 H 0.10485 1.00425 -0.01326
 H604 H 0.14572 1.02136 -0.02841
 C605 C 0.24131 -0.10878 0.42200
 C606 C 0.26161 -0.10080 0.40659
 C607 C 0.25940 -0.10224 0.38013
 C608 C 0.23701 -0.11165 0.36910
 C609 C 0.21651 -0.11977 0.38441
 C610 C 0.21890 -0.11822 0.41100
 C611 C 0.28477 -0.09122 0.41783
 C612 C 0.30431 -0.08320 0.42694
 C613 C 0.32735 -0.07378 0.43724
 C614 C 0.34716 -0.06571 0.44570
 C615 C 0.37097 -0.05602 0.45540
 C616 C 0.39351 -0.07003 0.45213
 C617 C 0.41681 -0.06029 0.46076
 C618 C 0.41788 -0.03634 0.47278
 C619 C 0.39506 -0.02253 0.47622
 C620 C 0.37177 -0.03232 0.46756
 H621 H 0.24280 -0.10769 0.44251
 H622 H 0.27502 -0.09619 0.36803
 H623 H 0.23589 -0.11294 0.34859
 H624 H 0.20333 -0.12405 0.42327
 H625 H 0.39311 -0.08839 0.44270
 H626 H 0.43401 -0.07142 0.45780
 H627 H 0.39520 -0.00404 0.48538
 H628 H 0.35444 -0.02130 0.47016
 C629 C 0.61732 -0.24325 0.59688
 C630 C 0.59144 -0.23837 0.60118
 C631 C 0.57677 -0.25585 0.61489
 C632 C 0.58793 -0.27815 0.62436
 C633 C 0.61416 -0.28351 0.62026
 C634 C 0.62859 -0.26550 0.60625
 C635 C 0.58009 -0.21528 0.59163
 C636 C 0.57097 -0.19580 0.58355
 C637 C 0.56075 -0.17281 0.57400
 C638 C 0.55241 -0.15304 0.56578
 C639 C 0.54292 -0.12927 0.55589
 C640 C 0.54639 -0.10673 0.56966
 C641 C 0.53801 -0.08348 0.55971
 C642 C 0.52606 -0.08246 0.53577
 C643 C 0.52242 -0.10529 0.52218
 C644 C 0.53082 -0.12852 0.53219
 H645 H 0.62894 -0.22970 0.58648
 H646 H 0.55662 -0.25233 0.61817
 H647 H 0.57552 -0.29148 0.63401
 H648 H 0.64892 -0.26777 0.60329
 H649 H 0.55578 -0.10709 0.58801
 H650 H 0.54111 -0.06628 0.57066
 H651 H 0.51329 -0.10518 0.50372
 H652 H 0.52808 -0.14586 0.52134
 C653 C 1.10487 0.75440 0.41564
 C654 C 1.09118 0.73814 0.39965
 C655 C 1.08832 0.74433 0.37401
 C656 C 1.09921 0.76662 0.36428
 C657 C 1.11338 0.78331 0.38006
 C658 C 1.11584 0.77671 0.40603
 C659 C 1.08047 0.71487 0.40946
 C660 C 1.07173 0.69525 0.41762
 C661 C 1.06181 0.67213 0.42715
 C662 C 1.05361 0.65227 0.43529
 C663 C 1.04418 0.62843 0.44504
 C664 C 1.04780 0.60596 0.43118
 C665 C 1.03935 0.58265 0.44094
 C666 C 1.02716 0.58151 0.46477
 C667 C 1.02338 0.60427 0.47846
 C668 C 1.03186 0.62755 0.46864
 H669 H 1.10703 0.74988 0.43562
 H670 H 1.07794 0.73172 0.36138
 H671 H 1.09737 0.76989 0.34408
 H672 H 1.12545 0.78906 0.41941
 H673 H 1.05734 0.60642 0.41290
 H674 H 1.04256 0.56551 0.42993
 H675 H 1.01408 0.60407 0.49685
 H676 H 1.02899 0.64484 0.47954
 C677 C -0.08943 1.24521 0.12618
 C678 C -0.09206 1.23924 0.10046
 C679 C -0.10561 1.25565 0.08449
 C680 C -0.11665 1.27790 0.09417
 C681 C -0.11438 1.28431 0.12021
 C682 C -0.10038 1.26745 0.13598
 C683 C -0.08123 1.21604 0.09057
 C684 C -0.07237 1.19648 0.08238
 C685 C -0.06227 1.17343 0.07286
 C686 C -0.05390 1.15361 0.06476
 C687 C -0.04427 1.12980 0.05510
 C688 C -0.03185 1.12894 0.03156
 C689 C -0.02316 1.10568 0.02185
 C690 C -0.02682 1.08294 0.03559
 C691 C -0.03911 1.08407 0.05937
 C692 C -0.04777 1.10735 0.06902
 H693 H -0.07916 1.23249 0.13879
 H694 H -0.10760 1.25130 0.06446
 H695 H -0.12612 1.29038 0.08080
 H696 H -0.09870 1.27054 0.15622
 H697 H -0.02906 1.14622 0.02061
 H698 H -0.01379 1.10549 0.00349
 H699 H -0.04224 1.06694 0.07043
 H700 H -0.05739 1.10780 0.08726
 C701 C 0.40588 0.25856 0.87292
 C702 C 0.40876 0.26169 0.89917
 C703 C 0.40069 0.24242 0.91573
 C704 C 0.38967 0.22015 0.90610
 C705 C 0.38657 0.21688 0.87974
 C706 C 0.39487 0.23631 0.86325
 C707 C 0.41958 0.28486 0.90909
 C708 C 0.42841 0.30441 0.91730
 C709 C 0.43844 0.32745 0.92686
 C710 C 0.44673 0.34727 0.93498
 C711 C 0.45625 0.37110 0.94467
 C712 C 0.46854 0.37198 0.96827
 C713 C 0.47709 0.39526 0.97802
 C714 C 0.47341 0.41800 0.96428
 C715 C 0.46125 0.41685 0.94045
 C716 C 0.45273 0.39355 0.93074
 H717 H 0.41195 0.27341 0.85994
 H718 H 0.40286 0.24464 0.93609
 H719 H 0.38374 0.20541 0.91925
 H720 H 0.39243 0.23451 0.84290
 H721 H 0.47134 0.35471 0.97922
 H722 H 0.48636 0.39547 0.99642
 H723 H 0.45811 0.43397 0.92938
 H724 H 0.44321 0.39308 0.91247
 C725 C 0.62658 0.59460 0.75878
 C726 C 0.60019 0.59198 0.76228
 C727 C 0.58333 0.60028 0.74336
 C728 C 0.59282 0.61126 0.72105
 C729 C 0.61933 0.61407 0.71739
 C730 C 0.63611 0.60555 0.73649
 C731 C 0.59042 0.58114 0.78546
 C732 C 0.58231 0.57228 0.80500
 C733 C 0.57285 0.56217 0.82801
 C734 C 0.56477 0.55379 0.84777
 C735 C 0.55509 0.54414 0.87151
 C736 C 0.53142 0.53174 0.87237
 C737 C 0.52166 0.52306 0.89555
 C738 C 0.53548 0.52671 0.91821
 C739 C 0.55939 0.53897 0.91709
 C740 C 0.56910 0.54763 0.89388
 H741 H 0.63979 0.58833 0.77336
 H742 H 0.56286 0.59832 0.74587
 H743 H 0.57944 0.61736 0.70657
 H744 H 0.65658 0.60776 0.73438
 H745 H 0.52041 0.52897 0.85516
 H746 H 0.50321 0.51371 0.89574
 H747 H 0.57051 0.54209 0.93416
 H748 H 0.58743 0.55723 0.89343
 C749 C 0.39794 0.11925 0.73869
 C750 C 0.39920 0.09270 0.73638
 C751 C 0.39118 0.07722 0.75652
 C752 C 0.38188 0.08824 0.77889
 C753 C 0.38052 0.11491 0.78139
 C754 C 0.38867 0.13030 0.76103
 C755 C 0.40867 0.08145 0.71328
 C756 C 0.41664 0.07232 0.69380
 C757 C 0.42602 0.06199 0.67086
 C758 C 0.43410 0.05349 0.65116
 C759 C 0.44386 0.04375 0.62750
 C760 C 0.46757 0.03140 0.62677
 C761 C 0.47746 0.02269 0.60365
 C762 C 0.46373 0.02628 0.58092
 C763 C 0.43978 0.03848 0.58192
 C764 C 0.42994 0.04716 0.60506
 H765 H 0.40403 0.13141 0.72318
 H766 H 0.39213 0.05664 0.75494
 H767 H 0.37602 0.07591 0.79434
 H768 H 0.38752 0.15087 0.76224
 H769 H 0.47852 0.02869 0.64403
 H770 H 0.49594 0.01339 0.60356
 H771 H 0.42872 0.04155 0.56479
 H772 H 0.41158 0.05674 0.60541
 C773 C 0.10024 0.88089 0.23972
 C774 C 0.09905 0.90745 0.23748
 C775 C 0.10726 0.92285 0.25759
 C776 C 0.11670 0.91174 0.27985
 C777 C 0.11803 0.88504 0.28226
 C778 C 0.10965 0.86975 0.26195
 C779 C 0.08955 0.91880 0.21445
 C780 C 0.08161 0.92801 0.19501
 C781 C 0.07233 0.93843 0.17208
 C782 C 0.06438 0.94700 0.15235
 C783 C 0.05484 0.95679 0.12864
 C784 C 0.06897 0.95338 0.10631
 C785 C 0.05936 0.96208 0.08309
 C786 C 0.03542 0.97430 0.08190
 C787 C 0.02149 0.97790 0.10452
 C788 C 0.03116 0.96918 0.12772
 H789 H 0.09401 0.86880 0.22423
 H790 H 0.10637 0.94343 0.25607
 H791 H 0.12274 0.92400 0.29527
 H792 H 0.11077 0.84916 0.26309
 H793 H 0.08731 0.94379 0.10680
 H794 H 0.07056 0.95900 0.06605
 H795 H 0.00301 0.98722 0.10428
 H796 H 0.02005 0.97188 0.14489
 C797 C 0.89164 0.42293 0.24348
 C798 C 0.89979 0.40736 0.26350
 C799 C 0.89842 0.38083 0.26113
 C800 C 0.88892 0.36988 0.23885
 C801 C 0.88065 0.38534 0.21861
 C802 C 0.88211 0.41201 0.22117
 C803 C 0.90950 0.41851 0.28655
 C804 C 0.91764 0.42753 0.30599
 C805 C 0.92719 0.43772 0.32892
 C806 C 0.93538 0.44608 0.34863
 C807 C 0.94518 0.45565 0.37233
 C808 C 0.93125 0.45216 0.39477
 C809 C 0.94108 0.46070 0.41794
 C810 C 0.96505 0.47285 0.41899
 C811 C 0.97880 0.47650 0.39627
 C812 C 0.96892 0.46793 0.37311
 H813 H 0.89268 0.44350 0.24509
 H814 H 0.90459 0.36860 0.27655
 H815 H 0.88769 0.34931 0.23761
 H816 H 0.87617 0.42440 0.20580
 H817 H 0.91287 0.44264 0.39438
 H818 H 0.93000 0.45759 0.43506
 H819 H 0.99730 0.48577 0.39640
 H820 H 0.97988 0.47070 0.35586
   
