data_POSCAR
  _audit_creation_date              2014-09-24
  _audit_creation_method            'ToBaCCo'
  _symmetry_space_group_name_H-M    'P1'
  _symmetry_Int_Tables_number       1
  _symmetry_cell_setting            triclinic
  loop_
  _symmetry_equiv_pos_as_xyz
 x,y,z
_cell_length_a 17.9631
_cell_length_b 18.0693
_cell_length_c 18.0046
_cell_angle_alpha 90.271400
_cell_angle_beta 90.119800
_cell_angle_gamma 90.195100
loop_
  _atom_site_label
  _atom_site_type_symbol
  _atom_site_fract_x
  _atom_site_fract_y
  _atom_site_fract_z
C1 C 0.53805 1.02286 -0.50018
 C2 C 0.46249 1.02615 -0.50299
 C3 C 0.41908 1.02191 -0.57365
 C4 C 0.41661 1.03210 -0.43465
 C5 C 0.58002 1.01840 -0.42918
 C6 C 0.58553 1.02349 -0.56734
 C7 C 0.43425 1.06711 -0.63515
 C8 C 0.38728 1.06567 -0.69743
 C9 C 0.32139 1.02302 -0.69742
 C10 C 0.30764 0.97665 -0.63611
 C11 C 0.35633 0.97548 -0.57601
 C12 C 0.36408 1.08921 -0.42983
 C13 C 0.31095 1.08941 -0.37360
 C14 C 0.30999 1.03323 -0.32030
 C15 C 0.36440 0.97740 -0.32311
 C16 C 0.41702 0.97652 -0.38036
 C17 C 0.63193 0.96118 -0.42047
 C18 C 0.67961 0.96020 -0.35944
 C19 C 0.67612 1.01642 -0.30554
 C20 C 0.62213 1.07202 -0.31230
 C21 C 0.57508 1.07376 -0.37438
 C22 C 0.58315 0.96609 -0.62016
 C23 C 0.63675 0.96280 -0.67653
 C24 C 0.69382 1.01632 -0.67969
 C25 C 0.69480 1.07419 -0.62773
 C26 C 0.64097 1.07804 -0.57249
 H27 H 0.48096 1.10507 -0.63441
 H28 H 0.40031 1.10155 -0.74375
 H29 H 0.26063 0.93914 -0.63455
 H30 H 0.34384 0.93909 -0.53000
 H31 H 0.36233 1.13205 -0.47169
 H32 H 0.26932 1.13266 -0.37272
 H33 H 0.45566 0.93081 -0.38429
 H34 H 0.63663 0.91796 -0.46209
 H35 H 0.71930 0.91552 -0.35450
 H36 H 0.61828 1.11554 -0.27092
 H37 H 0.53650 1.11922 -0.38070
 H38 H 0.54183 0.92254 -0.61595
 H39 H 0.63562 0.91666 -0.71508
 H40 H 0.73833 1.11583 -0.62901
 H41 H 0.64410 1.12232 -0.53179
 H42 H 0.36384 0.93235 -0.28371
 C43 C -0.49938 1.45785 -0.00420
 C44 C -0.50425 1.53270 0.00230
 C45 C -0.43875 1.58293 0.00655
 C46 C -0.57722 1.57093 0.00275
 C47 C -0.56782 1.41145 -0.00515
 C48 C -0.42723 1.41762 -0.00746
 C49 C -0.43761 1.63798 0.06192
 C50 C -0.38562 1.69528 0.05968
 C51 C -0.33266 1.69809 0.00290
 C52 C -0.33175 1.64160 -0.05133
 C53 C -0.38488 1.58467 -0.04980
 C54 C -0.62954 1.55923 0.05947
 C55 C -0.69432 1.60196 0.06251
 C56 C -0.70608 1.65810 0.01031
 C57 C -0.65489 1.66790 -0.04766
 C58 C -0.59110 1.62467 -0.05135
 C59 C -0.62110 1.41748 -0.06189
 C60 C -0.68672 1.37551 -0.05947
 C61 C -0.70013 1.32582 -0.00086
 C62 C -0.64620 1.32111 0.05641
 C63 C -0.58083 1.36288 0.05363
 C64 C -0.41653 1.36426 -0.06330
 C65 C -0.35241 1.32081 -0.06443
 C66 C -0.29759 1.32922 -0.00909
 C67 C -0.30696 1.38436 0.04536
 C68 C -0.37160 1.42765 0.04675
 H69 H -0.47916 1.63818 0.10545
 H70 H -0.38732 1.73810 0.10198
 H71 H -0.29233 1.64321 -0.09669
 H72 H -0.38607 1.54417 -0.09431
 H73 H -0.61916 1.51876 0.10238
 H74 H -0.73347 1.59355 0.10738
 H75 H -0.55142 1.63431 -0.09553
 H76 H -0.61192 1.45489 -0.10781
 H77 H -0.72652 1.38108 -0.10440
 H78 H -0.65334 1.28646 0.10448
 H79 H -0.54077 1.35844 0.09845
 H80 H -0.45844 1.35571 -0.10587
 H81 H -0.34605 1.28048 -0.10858
 H82 H -0.26542 1.39210 0.08843
 H83 H -0.37905 1.46745 0.09124
 H84 H -0.66374 1.70985 -0.08951
 C85 C -0.00035 0.49207 0.53785
 C86 C 0.00974 0.49073 0.46295
 C87 C 0.00780 0.41970 0.42132
 C88 C 0.01626 0.55745 0.41539
 C89 C -0.00667 0.56078 0.58341
 C90 C -0.00143 0.42209 0.58106
 C91 C 0.06286 0.36552 0.43016
 C92 C 0.05974 0.29993 0.38844
 C93 C 0.00281 0.28846 0.33567
 C94 C -0.05389 0.34219 0.32985
 C95 C -0.05084 0.40702 0.37167
 C96 C 0.07551 0.56094 0.36466
 C97 C 0.07425 0.61070 0.30555
 C98 C 0.01399 0.65878 0.29584
 C99 C -0.04427 0.65744 0.34844
 C100 C -0.04308 0.60713 0.40767
 C101 C -0.06383 0.56458 0.63634
 C102 C -0.06264 0.61802 0.69248
 C103 C -0.00471 0.67030 0.69721
 C104 C 0.05099 0.66887 0.64153
 C105 C 0.05008 0.61431 0.58556
 C106 C -0.05618 0.36744 0.56987
 C107 C -0.05599 0.30290 0.61267
 C108 C -0.00314 0.29335 0.66961
 C109 C 0.05267 0.34795 0.67900
 C110 C 0.05316 0.41135 0.63541
 H111 H 0.10847 0.37444 0.46864
 H112 H 0.10370 0.25958 0.39525
 H113 H -0.10173 0.33474 0.29409
 H114 H -0.09472 0.44755 0.36551
 H115 H 0.12119 0.52214 0.36863
 H116 H 0.11984 0.61047 0.26625
 H117 H -0.09057 0.60377 0.44447
 H118 H -0.10791 0.52350 0.63636
 H119 H -0.10682 0.61732 0.73340
 H120 H 0.09747 0.70691 0.64233
 H121 H 0.09590 0.61139 0.54668
 H122 H -0.09934 0.37506 0.52857
 H123 H -0.09927 0.26195 0.60334
 H124 H 0.09742 0.34186 0.71870
 H125 H 0.09650 0.45238 0.64405
 H126 H -0.09259 0.69242 0.34209
 O127 O -0.17788 0.99225 -0.11993
 O128 O 0.20335 1.00165 -0.07764
 O129 O 0.01626 1.10049 -0.18820
 O130 O 0.03107 0.90108 -0.19198
 O131 O 0.02194 0.80778 -0.10496
 O132 O 0.00616 1.18817 -0.09515
 O133 O 0.12302 1.00228 -0.17785
 O134 O -0.07826 0.99756 -0.20047
 Zr135 Zr 0.01597 0.99867 -0.12974
 O136 O 0.07855 0.93243 -0.06055
 O137 O -0.06077 1.06119 -0.07301
 C138 C -0.14897 0.99623 -0.18570
 C139 C 0.18905 1.00232 -0.14822
 C140 C 0.01307 1.16827 -0.16385
 C141 C 0.03089 0.83220 -0.17245
 H142 H 0.10790 1.09959 -0.08445
 O143 O 0.07357 1.06629 -0.05762
 H144 H -0.08147 0.89500 -0.11082
 O145 O -0.05445 0.92701 -0.07508
 O146 O 0.18095 1.00529 0.12131
 O147 O -0.19961 0.98267 0.07817
 O148 O 0.09577 1.18955 0.01792
 O149 O 0.10993 0.80862 0.00510
 O150 O -0.08865 0.79935 -0.01287
 O151 O -0.10607 1.18160 -0.01066
 O152 O -0.01886 1.09415 0.19184
 O153 O -0.02018 0.89475 0.18876
 O154 O -0.01637 1.18466 0.10180
 O155 O -0.00332 0.80416 0.09938
 O156 O 0.18776 1.10120 0.02835
 O157 O -0.19184 1.08667 -0.02229
 O158 O -0.18320 0.88532 -0.01929
 O159 O 0.19591 0.90317 0.01620
 O160 O 0.08105 0.99709 0.20101
 O161 O -0.11909 0.98830 0.17804
 Zr162 Zr 0.13147 1.00031 0.01493
 Zr163 Zr -0.12789 0.98932 -0.01423
 Zr164 Zr -0.00303 1.12583 0.00225
 Zr165 Zr 0.00749 0.86470 -0.00192
 Zr166 Zr -0.01229 0.99417 0.12982
 O167 O -0.06936 0.92427 0.05870
 O168 O 0.05908 1.06457 0.07574
 C169 C 0.15163 1.00303 0.18709
 C170 C -0.18510 0.98392 0.14870
 C171 C 0.16431 1.16874 0.02830
 C172 C 0.17734 0.83402 0.01070
 C173 C -0.15794 0.81788 -0.01769
 C174 C -0.17335 1.15611 -0.01970
 C175 C -0.02057 1.16255 0.16984
 C176 C -0.01484 0.82654 0.16749
 H177 H -0.11112 1.08819 0.08836
 O178 O -0.07473 1.05846 0.06005
 H179 H 0.09343 0.89929 0.10791
 O180 O 0.06392 0.93004 0.07349
 C181 C 0.27368 1.02739 0.24462
 C182 C 0.19879 1.00513 0.24845
 H183 H 0.29206 1.05478 0.19432
 H184 H 0.17379 0.99388 0.30191
 C185 C -0.24347 1.01107 0.26789
 C186 C -0.24917 0.98271 0.19940
 H187 H -0.19117 1.03591 0.28529
 H188 H -0.30241 0.96335 0.17854
 C189 C -0.27194 1.01726 -0.24198
 C190 C -0.20036 0.99773 -0.24924
 H191 H -0.29235 1.03719 -0.18894
 H192 H -0.17828 0.98409 -0.30355
 C193 C 0.24753 1.03097 -0.26727
 C194 C 0.25341 1.00403 -0.19850
 H195 H 0.19518 1.05492 -0.28502
 H196 H 0.30683 0.98575 -0.17760
 C197 C 0.23496 1.28127 -0.00333
 C198 C 0.22230 1.22423 0.04240
 H199 H 0.19576 1.28974 -0.04843
 H200 H 0.26210 1.20881 0.08443
 C201 C 0.22996 0.70830 0.01780
 C202 C 0.23900 0.78124 0.00898
 H203 H 0.17625 0.68562 0.03311
 H204 H 0.29432 0.80351 -0.00031
 C205 C -0.28137 0.76212 0.00042
 C206 C -0.21101 0.75599 -0.02231
 H207 H -0.30031 0.81426 0.02356
 H208 H -0.18970 0.70242 -0.03902
 C209 C -0.23156 1.28000 -0.00617
 C210 C -0.23543 1.20874 -0.02709
 H211 H -0.18082 1.30114 0.01889
 H212 H -0.28806 1.18607 -0.04609
 C213 C 0.00566 1.22574 0.28885
 C214 C -0.03160 1.22162 0.22438
 H215 H 0.04500 1.18215 0.30163
 H216 H -0.06371 1.26793 0.20444
 C217 C -0.00840 1.23106 -0.28377
 C218 C 0.02252 1.22942 -0.21601
 H219 H -0.04408 1.18530 -0.30037
 H220 H 0.04950 1.27801 -0.19309
 C221 C -0.00491 0.72005 -0.24178
 C222 C 0.04060 0.77854 -0.23360
 H223 H -0.04729 0.71235 -0.19956
 H224 H 0.07944 0.79372 -0.27667
 C225 C 0.01320 0.70749 0.22928
 C226 C -0.02236 0.77232 0.22804
 H227 H 0.04786 0.69244 0.18238
 H228 H -0.05142 0.79100 0.27726
   
