data_POSCAR
  _audit_creation_date              2014-09-24
  _audit_creation_method            'ToBaCCo'
  _symmetry_space_group_name_H-M    'P1'
  _symmetry_Int_Tables_number       1
  _symmetry_cell_setting            triclinic
  loop_
  _symmetry_equiv_pos_as_xyz
 x,y,z
_cell_length_a 45.9135
_cell_length_b 52.2206
_cell_length_c 9.1110
_cell_angle_alpha 89.884500
_cell_angle_beta 90.187500
_cell_angle_gamma 90.082200
loop_
  _atom_site_label
  _atom_site_type_symbol
  _atom_site_fract_x
  _atom_site_fract_y
  _atom_site_fract_z
C1 C 0.17417 0.25035 0.16257
 C2 C 0.18762 0.22758 0.20976
 C3 C 0.21733 0.22833 0.24826
 C4 C 0.23398 0.25085 0.23192
 C5 C 0.21996 0.27321 0.18149
 C6 C 0.18997 0.27330 0.15013
 C7 C 0.26588 0.25087 0.26719
 C8 C 0.27990 0.27320 0.31806
 C9 C 0.30987 0.27330 0.34982
 C10 C 0.32565 0.25039 0.33733
 C11 C 0.31220 0.22764 0.28970
 C12 C 0.28252 0.22839 0.25073
 H13 H 0.15118 0.25032 0.13571
 H14 H 0.22749 0.21126 0.29202
 H15 H 0.23236 0.29060 0.16508
 H16 H 0.26752 0.29055 0.33452
 H17 H 0.34862 0.25036 0.36455
 H18 H 0.27235 0.21136 0.20663
 C19 C 0.82531 0.25075 0.16316
 C20 C 0.80959 0.27371 0.15063
 C21 C 0.77963 0.27363 0.18230
 C22 C 0.76560 0.25126 0.23278
 C23 C 0.78222 0.22873 0.24895
 C24 C 0.81180 0.22811 0.21067
 C25 C 0.73375 0.25124 0.26821
 C26 C 0.71706 0.22873 0.25220
 C27 C 0.68744 0.22796 0.29123
 C28 C 0.67409 0.25070 0.33880
 C29 C 0.68992 0.27364 0.35079
 C30 C 0.71984 0.27357 0.31875
 H31 H 0.84825 0.25052 0.13620
 H32 H 0.76728 0.29103 0.16602
 H33 H 0.77225 0.21156 0.29231
 H34 H 0.72714 0.21169 0.20836
 H35 H 0.65116 0.25065 0.36614
 H36 H 0.73226 0.29095 0.33486
 C37 C 0.67460 0.75139 0.66525
 C38 C 0.68820 0.72878 0.71249
 C39 C 0.71788 0.72946 0.74976
 C40 C 0.73450 0.75199 0.73274
 C41 C 0.72038 0.77433 0.68248
 C42 C 0.69034 0.77436 0.65193
 C43 C 0.76645 0.75200 0.76681
 C44 C 0.78063 0.77435 0.81648
 C45 C 0.81075 0.77449 0.84717
 C46 C 0.82632 0.75138 0.83474
 C47 C 0.81263 0.72878 0.78794
 C48 C 0.78298 0.72948 0.75039
 H49 H 0.65159 0.75113 0.63905
 H50 H 0.72794 0.71231 0.79290
 H51 H 0.73272 0.79173 0.66545
 H52 H 0.76815 0.79166 0.83275
 H53 H 0.84932 0.75090 0.86120
 H54 H 0.77286 0.71233 0.70758
 C55 C 0.32534 0.75081 0.66326
 C56 C 0.30957 0.77374 0.65040
 C57 C 0.27961 0.77363 0.68182
 C58 C 0.26560 0.75125 0.73232
 C59 C 0.28226 0.72876 0.74888
 C60 C 0.31185 0.72816 0.71086
 C61 C 0.23373 0.75120 0.76730
 C62 C 0.21710 0.72865 0.75135
 C63 C 0.18745 0.72784 0.78996
 C64 C 0.17402 0.75058 0.83686
 C65 C 0.18980 0.77355 0.84890
 C66 C 0.21973 0.77352 0.81736
 H67 H 0.34829 0.75061 0.63649
 H68 H 0.26723 0.79100 0.66521
 H69 H 0.27230 0.71158 0.79233
 H70 H 0.22724 0.71160 0.70788
 H71 H 0.15107 0.75051 0.86380
 H72 H 0.23212 0.79093 0.83347
 O73 O 1.02857 -0.02957 0.20688
 O74 O 0.97200 0.01986 0.25087
 O75 O 0.97181 -0.02962 0.20628
 O76 O 1.02844 0.01994 0.25109
 O77 O 1.02830 0.02629 0.01126
 O78 O 0.97177 -0.02308 -0.03333
 O79 O 0.97195 0.02622 0.01106
 O80 O 1.02841 -0.02305 -0.03274
 Cu81 Cu 1.00022 -0.00558 0.25271
 Cu82 Cu 1.00011 0.00221 -0.03481
 C83 C 1.03800 -0.03480 0.07953
 C84 C 0.96265 0.03169 0.13827
 C85 C 0.96226 -0.03485 0.07879
 C86 C 1.03769 0.03179 0.13858
 O87 O 0.52856 0.47043 0.70748
 O88 O 0.47199 0.51987 0.75159
 O89 O 0.47180 0.47037 0.70791
 O90 O 0.52841 0.51992 0.75216
 O91 O 0.52824 0.52626 0.51233
 O92 O 0.47171 0.47685 0.46825
 O93 O 0.47189 0.52619 0.51174
 O94 O 0.52836 0.47693 0.46784
 Cu95 Cu 0.50021 0.49441 0.75370
 Cu96 Cu 0.50004 0.50216 0.46615
 C97 C 0.53797 0.46520 0.58010
 C98 C 0.46262 0.53168 0.63896
 C99 C 0.46223 0.46510 0.58054
 C100 C 0.53764 0.53177 0.63964
 O101 O -0.02785 0.52626 -0.01220
 O102 O 0.02859 0.47690 0.03216
 O103 O 0.02850 0.52627 -0.01174
 O104 O -0.02806 0.47692 0.03198
 O105 O -0.02822 0.47059 -0.20766
 O106 O 0.02845 0.52012 -0.25158
 O107 O 0.02855 0.47058 -0.20748
 O108 O -0.02799 0.52011 -0.25204
 Cu109 Cu 0.00031 0.50218 0.03392
 Cu110 Cu 0.00019 0.49463 -0.25361
 C111 C -0.03723 0.53185 -0.13951
 C112 C 0.03807 0.46523 -0.08004
 C113 C 0.03780 0.53187 -0.13891
 C114 C -0.03768 0.46526 -0.08033
 O115 O 0.47156 1.02663 0.48859
 O116 O 0.52812 0.97739 0.53272
 O117 O 0.52792 1.02673 0.48833
 O118 O 0.47147 0.97726 0.53213
 O119 O 0.47129 0.97095 0.29247
 O120 O 0.52784 1.02058 0.24849
 O121 O 0.52806 0.97106 0.29308
 O122 O 0.47139 1.02049 0.24873
 Cu123 Cu 0.49978 1.00259 0.53430
 Cu124 Cu 0.49963 0.99505 0.24678
 C125 C 0.46214 1.03221 0.36134
 C126 C 0.53762 0.96574 0.42051
 C127 C 0.53719 1.03233 0.36111
 C128 C 0.46187 0.96559 0.41980
 N129 N 1.17001 0.16014 0.25704
 C130 C 1.14158 0.15964 0.21673
 N131 N 1.12837 0.18176 0.17678
 N132 N 1.14315 0.20372 0.17646
 C133 C 1.17175 0.20445 0.21591
 N134 N 1.18479 0.18213 0.25675
 C135 C 1.12578 0.13594 0.21077
 C136 C 1.11189 0.11640 0.20166
 C137 C 1.09454 0.09369 0.18607
 N138 N 1.08579 0.08599 0.05098
 N139 N 1.06821 0.06586 0.03592
 C140 C 1.05877 0.05273 0.15547
 N141 N 1.06772 0.06038 0.29075
 N142 N 1.08532 0.08055 0.30580
 N143 N 0.67014 0.66001 0.75556
 C144 C 0.64147 0.65962 0.71964
 N145 N 0.62800 0.68187 0.68431
 N146 N 0.64275 0.70384 0.68430
 C147 C 0.67153 0.70441 0.71957
 N148 N 0.68489 0.68202 0.75557
 C149 C 0.62569 0.63592 0.71312
 C150 C 0.61181 0.61638 0.70365
 C151 C 0.59446 0.59368 0.68778
 N152 N 0.58577 0.58598 0.55256
 N153 N 0.56819 0.56585 0.53725
 C154 C 0.55871 0.55272 0.65668
 N155 N 0.56761 0.56036 0.79207
 N156 N 0.58519 0.58052 0.80737
 N157 N -0.13240 0.31882 0.03885
 C158 C -0.14634 0.34164 0.04248
 N159 N -0.17498 0.34226 0.07829
 N160 N -0.18918 0.32066 0.11012
 C161 C -0.17524 0.29770 0.10752
 N162 N -0.14658 0.29728 0.07071
 C163 C -0.13040 0.36483 0.01551
 C164 C -0.11593 0.38379 -0.00458
 C165 C -0.09755 0.40574 -0.02557
 N166 N -0.08789 0.41205 -0.16144
 N167 N -0.06921 0.43136 -0.17939
 C168 C -0.05950 0.44494 -0.06198
 N169 N -0.06934 0.43865 0.07381
 N170 N -0.08801 0.41935 0.09170
 N171 N 0.32499 0.84233 0.57950
 C172 C 0.35354 0.84171 0.54203
 N173 N 0.36742 0.81888 0.53675
 N174 N 0.35327 0.79732 0.56866
 C175 C 0.32470 0.79774 0.60715
 N176 N 0.31082 0.82072 0.61135
 C177 C 0.36947 0.86491 0.51518
 C178 C 0.38390 0.88390 0.49521
 C179 C 0.40223 0.90589 0.47436
 N180 N 0.41177 0.91947 0.59174
 N181 N 0.43038 0.93882 0.57393
 C182 C 0.44012 0.94521 0.43812
 N183 N 0.43040 0.93166 0.32060
 N184 N 0.41179 0.91229 0.33847
 N185 N -0.12739 0.68179 -0.18264
 C186 C -0.14092 0.65959 -0.21851
 N187 N -0.16955 0.66003 -0.25502
 N188 N -0.18422 0.68204 -0.25512
 C189 C -0.17081 0.70439 -0.21863
 N190 N -0.14206 0.70377 -0.18273
 C191 C -0.12521 0.63588 -0.21220
 C192 C -0.11136 0.61635 -0.20292
 C193 C -0.09404 0.59366 -0.18725
 N194 N -0.08476 0.58065 -0.30695
 N195 N -0.06717 0.56052 -0.29180
 C196 C -0.05828 0.55277 -0.15647
 N197 N -0.06778 0.56576 -0.03694
 N198 N -0.08536 0.58586 -0.05210
 N199 N 0.37135 1.18189 0.32388
 C200 C 0.35815 1.15978 0.28344
 N201 N 0.32977 1.16028 0.24235
 N202 N 0.31502 1.18224 0.24239
 C203 C 0.32804 1.20455 0.28372
 N204 N 0.35660 1.20382 0.32394
 C205 C 0.37392 1.13611 0.28955
 C206 C 0.38781 1.11660 0.29871
 C207 C 0.40519 1.09394 0.31422
 N208 N 0.41442 1.08092 0.19444
 N209 N 0.43205 1.06081 0.20938
 C210 C 0.44104 1.05310 0.34461
 N211 N 0.43159 1.06609 0.46423
 N212 N 0.41397 1.08616 0.44927
 N213 N 1.17452 -0.15788 -0.08102
 C214 C 1.14597 -0.15853 -0.04363
 N215 N 1.13202 -0.18138 -0.03827
 N216 N 1.14612 -0.20292 -0.06998
 C217 C 1.17469 -0.20246 -0.10835
 N218 N 1.18864 -0.17947 -0.11268
 C219 C 1.13011 -0.13535 -0.01673
 C220 C 1.11574 -0.11638 0.00338
 C221 C 1.09750 -0.09441 0.02445
 N222 N 1.08794 -0.08815 0.16040
 N223 N 1.06939 -0.06881 0.17845
 C224 C 1.05972 -0.05513 0.06107
 N225 N 1.06946 -0.06138 -0.07479
 N226 N 1.08801 -0.08071 -0.09279
 N227 N 0.63229 0.31874 0.46493
 C228 C 0.64617 0.34160 0.45802
 N229 N 0.67466 0.34225 0.41937
 N230 N 0.68877 0.32065 0.38793
 C231 C 0.67488 0.29764 0.39373
 N232 N 0.64637 0.29719 0.43342
 C233 C 0.63030 0.36478 0.48450
 C234 C 0.61590 0.38374 0.50432
 C235 C 0.59761 0.40569 0.52522
 N236 N 0.58804 0.41932 0.40788
 N237 N 0.56944 0.43862 0.42579
 C238 C 0.55973 0.44490 0.56166
 N239 N 0.56948 0.43129 0.67913
 N240 N 0.58808 0.41198 0.66116
 N241 N 0.86853 -0.18129 -0.05241
 C242 C 0.85412 -0.15871 -0.04716
 N243 N 0.82507 -0.15836 -0.07418
 N244 N 0.81091 -0.17997 -0.10616
 C245 C 0.82528 -0.20274 -0.11275
 N246 N 0.85439 -0.20284 -0.08445
 C247 C 0.86991 -0.13547 -0.01949
 C248 C 0.88427 -0.11647 0.00111
 C249 C 0.90255 -0.09447 0.02264
 N250 N 0.91229 -0.08827 0.15870
 N251 N 0.93091 -0.06893 0.17712
 C252 C 0.94048 -0.05519 0.05998
 N253 N 0.93055 -0.06137 -0.07600
 N254 N 0.91193 -0.08070 -0.09435
 N255 N 0.36784 0.31850 0.46215
 C256 C 0.35382 0.34128 0.45835
 N257 N 0.32514 0.34185 0.42231
 N258 N 0.31099 0.32023 0.39040
 C259 C 0.32501 0.29730 0.39313
 N260 N 0.35370 0.29694 0.43021
 C261 C 0.36971 0.36450 0.48519
 C262 C 0.38414 0.38349 0.50512
 C263 C 0.40247 0.40548 0.52594
 N264 N 0.41216 0.41182 0.66186
 N265 N 0.43081 0.43116 0.67972
 C266 C 0.44043 0.44475 0.56217
 N267 N 0.43055 0.43843 0.42633
 N268 N 0.41191 0.41910 0.40852
 N269 N 0.12835 0.68192 -0.17612
 C270 C 0.14153 0.65984 -0.21604
 N271 N 0.16989 0.66040 -0.25658
 N272 N 0.18463 0.68241 -0.25655
 C273 C 0.17162 0.70469 -0.21578
 N274 N 0.14309 0.70390 -0.17607
 C275 C 0.12577 0.63611 -0.21001
 C276 C 0.11192 0.61655 -0.20096
 C277 C 0.09460 0.59382 -0.18557
 N278 N 0.08532 0.58074 -0.30542
 N279 N 0.06774 0.56056 -0.29061
 C280 C 0.05886 0.55283 -0.15547
 N281 N 0.06836 0.56589 -0.03579
 N282 N 0.08592 0.58604 -0.05061
 N283 N 0.66960 1.16060 0.24306
 C284 C 0.64127 1.16009 0.28419
 N285 N 0.62820 1.18217 0.32505
 N286 N 0.64302 1.20410 0.32544
 C287 C 0.67152 1.20485 0.28517
 N288 N 0.68442 1.18257 0.24344
 C289 C 0.62543 1.13640 0.28988
 C290 C 0.61150 1.11688 0.29878
 C291 C 0.59410 1.09420 0.31414
 N292 N 0.58552 1.08638 0.44918
 N293 N 0.56790 1.06627 0.46407
 C294 C 0.55826 1.05329 0.34440
 N295 N 0.56704 1.06106 0.20918
 N296 N 0.58467 1.08120 0.19430
 N297 N 0.13207 0.31852 0.03813
 C298 C 0.14609 0.34134 0.04285
 N299 N 0.17474 0.34191 0.07944
 N300 N 0.18887 0.32029 0.11099
 C301 C 0.17485 0.29732 0.10732
 N302 N 0.14618 0.29694 0.06972
 C303 C 0.13023 0.36456 0.01613
 C304 C 0.11585 0.38356 -0.00383
 C305 C 0.09760 0.40556 -0.02483
 N306 N 0.08818 0.41912 0.09247
 N307 N 0.06962 0.43847 0.07446
 C308 C 0.05979 0.44487 -0.06147
 N309 N 0.06938 0.43134 -0.17889
 N310 N 0.08795 0.41197 -0.16083
 N311 N 0.67490 0.84286 0.57859
 C312 C 0.64614 0.84222 0.54427
 N313 N 0.63211 0.81940 0.54200
 N314 N 0.64632 0.79788 0.57373
 C315 C 0.67510 0.79832 0.60903
 N316 N 0.68912 0.82128 0.61028
 C317 C 0.63020 0.86538 0.51727
 C318 C 0.61575 0.88433 0.49710
 C319 C 0.59740 0.90627 0.47592
 N320 N 0.58766 0.91259 0.33994
 N321 N 0.56901 0.93188 0.32178
 C322 C 0.55942 0.94544 0.43910
 N323 N 0.56934 0.93914 0.57501
 N324 N 0.58798 0.91986 0.59311
 N325 N 0.82997 0.15938 0.25317
 C326 C 0.85857 0.15908 0.21688
 N327 N 0.87196 0.18136 0.18138
 N328 N 0.85720 0.20329 0.18157
 C329 C 0.82848 0.20378 0.21724
 N330 N 0.81520 0.18134 0.25338
 C331 C 0.87437 0.13543 0.21047
 C332 C 0.88829 0.11595 0.20117
 C333 C 0.90569 0.09333 0.18557
 N334 N 0.91510 0.08023 0.30532
 N335 N 0.93274 0.06015 0.29030
 C336 C 0.94156 0.05255 0.15505
 N337 N 0.93195 0.06563 0.03547
 N338 N 0.91432 0.08568 0.05050
 N339 N 0.37209 0.68147 0.68274
 C340 C 0.35867 0.65916 0.71748
 N341 N 0.33003 0.65944 0.75292
 N342 N 0.31525 0.68139 0.75306
 C343 C 0.32855 0.70385 0.71767
 N344 N 0.35731 0.70339 0.68285
 C345 C 0.37449 0.63552 0.71104
 C346 C 0.38839 0.61604 0.70174
 C347 C 0.40576 0.59340 0.68617
 N348 N 0.41436 0.58571 0.55109
 N349 N 0.43195 0.56564 0.53610
 C350 C 0.44156 0.55257 0.65570
 N351 N 0.43276 0.56019 0.79095
 N352 N 0.41515 0.58029 0.80593
   
