data_POSCAR
  _audit_creation_date              2014-09-24
  _audit_creation_method            'ToBaCCo'
  _symmetry_space_group_name_H-M    'P1'
  _symmetry_Int_Tables_number       1
  _symmetry_cell_setting            triclinic
  loop_
  _symmetry_equiv_pos_as_xyz
 x,y,z
_cell_length_a 15.6592
_cell_length_b 15.7943
_cell_length_c 16.0410
_cell_angle_alpha 89.938900
_cell_angle_beta 90.455900
_cell_angle_gamma 120.138300
loop_
  _atom_site_label
  _atom_site_type_symbol
  _atom_site_fract_x
  _atom_site_fract_y
  _atom_site_fract_z
O1 O 0.30942 0.49683 0.31648
 O2 O 0.17390 0.54435 0.33991
 C3 C 0.14957 0.60806 0.35570
 O4 O 0.18302 0.68788 0.31584
 O5 O 0.36707 0.82255 0.34174
 C6 C 0.45605 0.84722 0.35785
 O7 O 0.50287 0.81399 0.31816
 O8 O 0.45436 0.63157 0.34213
 C9 C 0.38997 0.54332 0.35714
 O10 O 0.28944 0.50914 0.15017
 O11 O 0.14924 0.54871 0.17336
 C12 C 0.15532 0.61998 0.13153
 O13 O 0.21563 0.70851 0.14988
 O14 O 0.39611 0.84782 0.17589
 C15 C 0.46211 0.84223 0.13471
 O16 O 0.49088 0.78228 0.15193
 O17 O 0.45067 0.60330 0.17602
 C18 C 0.37880 0.53777 0.13387
 Cr19 Cr 0.23437 0.53015 0.24518
 Cr20 Cr 0.29195 0.76280 0.24600
 Cr21 Cr 0.46927 0.70627 0.24717
 O22 O 0.33187 0.66640 0.24657
 O23 O 0.54603 0.36915 0.65775
 O24 O 0.49688 0.18649 0.68135
 C25 C 0.54358 0.15321 0.64153
 O26 O 0.63249 0.17766 0.65764
 O27 O 0.81665 0.31179 0.68391
 C28 C 0.85041 0.39177 0.64425
 O29 O 0.82633 0.45563 0.66018
 O30 O 0.69114 0.50360 0.68365
 C31 C 0.61061 0.45737 0.64290
 O32 O 0.54954 0.39701 0.82390
 O33 O 0.50877 0.21780 0.84765
 C34 C 0.53723 0.15757 0.86468
 O35 O 0.60306 0.15181 0.82341
 O36 O 0.78364 0.29063 0.84979
 C37 C 0.84410 0.37904 0.86825
 O38 O 0.85066 0.45069 0.82676
 O39 O 0.71077 0.49074 0.84995
 C40 C 0.62143 0.46231 0.86618
 Cr41 Cr 0.53073 0.29412 0.75255
 Cr42 Cr 0.70749 0.23688 0.75353
 Cr43 Cr 0.76584 0.46978 0.75492
 O44 O 0.66802 0.33361 0.75323
 C45 C 0.50985 -0.08124 0.42476
 C46 C 0.47098 -0.03594 0.46696
 C47 C 0.52854 0.03651 0.53227
 C48 C 0.48972 0.08183 0.57453
 H49 H 0.39646 -0.05187 0.45306
 H50 H 0.60303 0.05239 0.54617
 H51 H 0.58471 -0.06417 0.43881
 H52 H 0.41488 0.06484 0.56049
 C53 C 1.07840 0.58995 0.42256
 C54 C 1.03577 0.50745 0.46713
 C55 C 0.96436 0.49243 0.53293
 C56 C 0.92164 0.40988 0.57744
 H57 H 1.05336 0.45041 0.45499
 H58 H 0.94683 0.54950 0.54509
 H59 H 1.06001 0.64636 0.43511
 H60 H 0.93994 0.35343 0.56483
 C61 C 0.40823 0.49005 0.42388
 C62 C 0.49271 0.52899 0.46746
 C63 C 0.50811 0.47206 0.53261
 C64 C 0.59256 0.51088 0.57622
 H65 H 0.55116 0.60311 0.45483
 H66 H 0.44963 0.39794 0.54520
 H67 H 0.35056 0.41563 0.43674
 H68 H 0.65031 0.58528 0.56344
 C69 C 0.50833 -0.09136 1.06375
 C70 C 0.47660 -0.03198 1.03589
 C71 C 0.52247 0.03156 0.96335
 C72 C 0.49085 0.09104 0.93555
 H73 H 0.41571 -0.03063 1.06634
 H74 H 0.58334 0.03017 0.93289
 H75 H 0.56850 -0.09307 1.03232
 H76 H 0.43074 0.09283 0.96701
 C77 C 1.09591 0.60193 1.06518
 C78 C 1.02939 0.50721 1.03686
 C79 C 0.97177 0.49199 0.96573
 C80 C 0.90579 0.39740 0.93726
 H81 H 1.02279 0.44422 1.06986
 H82 H 0.97802 0.55474 0.93262
 H83 H 1.10156 0.66372 1.03071
 H84 H 0.89997 0.33530 0.97125
 C85 C 0.39938 0.49190 1.06286
 C86 C 0.49116 0.52286 1.03633
 C87 C 0.50913 0.47723 0.96376
 C88 C 0.60091 0.50814 0.93725
 H89 H 0.55372 0.58290 1.06791
 H90 H 0.44656 0.41724 0.93215
 H91 H 0.33719 0.43251 1.03035
 H92 H 0.66311 0.56746 0.96980
   
