data_POSCAR
  _audit_creation_date              2014-09-24
  _audit_creation_method            'ToBaCCo'
  _symmetry_space_group_name_H-M    'P1'
  _symmetry_Int_Tables_number       1
  _symmetry_cell_setting            triclinic
  loop_
  _symmetry_equiv_pos_as_xyz
 x,y,z
_cell_length_a 33.3903
_cell_length_b 35.1566
_cell_length_c 31.0765
_cell_angle_alpha 92.715900
_cell_angle_beta 87.225800
_cell_angle_gamma 94.210900
loop_
  _atom_site_label
  _atom_site_type_symbol
  _atom_site_fract_x
  _atom_site_fract_y
  _atom_site_fract_z
N1 N 0.17566 0.18543 0.14212
 N2 N -0.19925 0.82393 0.15517
 N3 N -0.25234 0.25326 -0.25928
 N4 N 0.23290 0.76320 -0.26695
 N5 N 0.19048 1.20223 0.84043
 N6 N 0.82466 0.79943 0.84249
 N7 N 0.25078 0.75234 1.26307
 N8 N 0.81683 1.19401 1.20879
 O9 O 0.53651 0.96395 0.91353
 O10 O 0.45488 0.98632 1.08948
 O11 O 0.57281 0.98018 1.02615
 O12 O 0.43991 0.93706 0.96491
 O13 O 0.51795 0.95794 1.05768
 O14 O 0.46180 0.96283 0.90643
 O15 O 0.44461 0.94703 1.03841
 O16 O 0.58062 0.99790 0.95111
 C17 C 0.57114 0.96911 0.92712
 C18 C 0.43810 0.95563 1.07695
 C19 C 0.55385 0.95454 1.04697
 C20 C 0.44349 0.93594 0.92522
 O21 O 0.46377 1.03609 0.91392
 O22 O 0.52510 1.01964 1.10327
 O23 O 0.55091 1.06607 0.97437
 O24 O 0.42095 1.02121 1.03374
 O25 O 0.47570 1.05043 1.05824
 O26 O 0.53965 1.03914 0.91223
 O27 O 0.41588 1.00841 0.95564
 O28 O 0.54818 1.05096 1.04836
 Co29 Co 0.50035 1.00046 0.91896
 Co30 Co 0.49803 1.00441 1.05555
 Co31 Co 0.55757 1.02164 0.99931
 Co32 Co 0.43549 0.98031 0.99797
 O33 O 0.49617 1.00023 0.98999
 C34 C 0.42783 1.03267 0.92804
 C35 C 0.55271 1.04313 1.08702
 C36 C 0.55111 1.06791 0.93469
 C37 C 0.43902 1.05034 1.05142
 O38 O 0.03351 0.47153 0.08874
 O39 O 0.01997 0.52959 -0.10042
 O40 O 0.01833 0.43058 -0.03097
 O41 O 0.06629 0.55419 0.02973
 O42 O 0.05038 0.48219 -0.05491
 O43 O 0.03639 0.54380 0.09112
 O44 O 0.05280 0.55146 -0.04513
 O45 O 0.00392 0.42646 0.04688
 C46 C 0.02928 0.43740 0.07478
 C47 C 0.04570 0.55493 -0.08434
 C48 C 0.04952 0.44724 -0.04827
 C49 C 0.06694 0.55539 0.06953
 O50 O -0.04213 0.54069 0.08842
 O51 O -0.01667 0.46355 -0.08744
 O52 O -0.07062 0.45064 0.03658
 O53 O -0.02187 0.57574 -0.02560
 O54 O -0.04620 0.52387 -0.05645
 O55 O -0.04339 0.46932 0.09537
 O56 O -0.00624 0.58255 0.05024
 O57 O -0.05906 0.45429 -0.03709
 Co58 Co -0.00389 0.50627 0.08338
 Co59 Co 0.00233 0.50419 -0.05318
 Co60 Co -0.02487 0.44530 0.00409
 Co61 Co 0.02041 0.56063 0.00302
 O62 O -0.00309 0.50256 0.01216
 C63 C -0.03619 0.57366 0.07498
 C64 C -0.04928 0.44786 -0.07543
 C65 C -0.07129 0.45164 0.07627
 C66 C -0.04888 0.55827 -0.04677
 O67 O 1.07486 0.04065 0.46251
 O68 O 0.91373 0.00909 0.55393
 O69 O 0.96982 0.01991 0.42630
 O70 O 1.02928 0.06218 0.56868
 O71 O 0.94153 0.03985 0.48582
 O72 O 1.08398 0.04065 0.54234
 O73 O 0.96098 0.04981 0.56490
 O74 O 1.04001 0.00553 0.41622
 C75 C 1.06286 0.03456 0.42532
 C76 C 0.92503 0.03998 0.57141
 C77 C 0.95013 0.04423 0.44698
 C78 C 1.06619 0.06517 0.56424
 O79 O 1.07917 -0.03244 0.54018
 O80 O 0.90004 -0.02329 0.47925
 O81 O 1.02095 -0.06400 0.44926
 O82 O 0.96689 -0.02481 0.58961
 O83 O 0.94361 -0.05343 0.53130
 O84 O 1.07841 -0.03421 0.45929
 O85 O 1.04021 -0.00950 0.59327
 O86 O 0.95146 -0.05195 0.45369
 Co87 Co 1.07209 0.00337 0.50136
 Co88 Co 0.94488 -0.00687 0.50724
 Co89 Co 0.99634 -0.02063 0.44232
 Co90 Co 0.99946 0.01761 0.57349
 O91 O 1.00598 -0.00006 0.50792
 C92 C 1.06738 -0.03092 0.57917
 C93 C 0.91525 -0.04528 0.44926
 C94 C 1.05808 -0.06401 0.44843
 C95 C 0.94995 -0.05387 0.57066
 C96 C 1.16210 0.16990 0.18079
 C97 C 1.15012 0.15591 0.21410
 C98 C 1.13567 0.13829 0.25322
 C99 C 1.16190 0.11920 0.27705
 C100 C 1.14738 0.10003 0.31364
 C101 C 1.10659 0.09990 0.32654
 C102 C 1.08047 0.11953 0.30313
 C103 C 1.09500 0.13870 0.26652
 C104 C 1.09121 0.07795 0.36234
 C105 C 1.07830 0.05861 0.39155
 H106 H 1.19337 0.11859 0.26692
 H107 H 1.16777 0.08477 0.33140
 H108 H 1.04883 0.11943 0.31272
 H109 H 1.07445 0.15326 0.24821
 C110 C 0.80774 -0.16178 0.19667
 C111 C 0.81492 -0.14901 0.23237
 C112 C 0.82545 -0.13322 0.27418
 C113 C 0.84591 -0.15474 0.30167
 C114 C 0.86032 -0.13800 0.34014
 C115 C 0.85430 -0.09969 0.35126
 C116 C 0.83278 -0.07851 0.32439
 C117 C 0.81837 -0.09525 0.28592
 C118 C 0.87363 -0.08111 0.38773
 C119 C 0.89167 -0.06502 0.41676
 H120 H 0.85184 -0.18402 0.29271
 H121 H 0.87728 -0.15451 0.36046
 H122 H 0.82833 -0.04875 0.33247
 H123 H 0.80287 -0.07827 0.26471
 C124 C 0.76833 0.22563 0.71746
 C125 C 0.78624 0.20127 0.69775
 C126 C 0.80776 0.17193 0.67497
 C127 C 0.81088 0.13687 0.69380
 C128 C 0.83284 0.10874 0.67234
 C129 C 0.85173 0.11553 0.63191
 C130 C 0.84825 0.15043 0.61289
 C131 C 0.82631 0.17856 0.63436
 C132 C 0.87619 0.08756 0.61074
 C133 C 0.89780 0.06512 0.59290
 H134 H 0.79670 0.13146 0.72523
 H135 H 0.83549 0.08195 0.68745
 H136 H 0.86291 0.15607 0.58174
 H137 H 0.82416 0.20557 0.61952
 C138 C 1.20967 -0.20958 0.71794
 C139 C 1.18959 -0.18581 0.70480
 C140 C 1.16602 -0.15737 0.68867
 C141 C 1.12671 -0.16724 0.67620
 C142 C 1.10471 -0.14014 0.65810
 C143 C 1.12192 -0.10303 0.65249
 C144 C 1.16092 -0.09295 0.66582
 C145 C 1.18290 -0.12005 0.68391
 C146 C 1.10120 -0.07650 0.62939
 C147 C 1.08501 -0.05508 0.60780
 H148 H 1.11340 -0.19604 0.67965
 H149 H 1.07474 -0.14836 0.64750
 H150 H 1.17468 -0.06447 0.66122
 H151 H 1.21331 -0.11213 0.69335
 C152 C 0.21601 1.18093 1.13228
 C153 C 0.25069 1.17524 1.12358
 C154 C 0.29104 1.16512 1.11303
 C155 C 0.31339 1.15070 1.14480
 C156 C 0.34911 1.13365 1.13326
 C157 C 0.36264 1.13104 1.08992
 C158 C 0.34150 1.14740 1.05849
 C159 C 0.30571 1.16439 1.07001
 C160 C 0.39340 1.10580 1.07691
 C161 C 0.41610 1.08182 1.06555
 H162 H 0.30206 1.15068 1.17807
 H163 H 0.36484 1.12053 1.15772
 H164 H 0.35139 1.14506 1.02481
 H165 H 0.28843 1.17501 1.04509
 C166 C 0.26388 0.77958 0.75745
 C167 C 0.29052 0.79437 0.77871
 C168 C 0.32156 0.81324 0.80418
 C169 C 0.31823 0.81257 0.84925
 C170 C 0.34628 0.83400 0.87418
 C171 C 0.37779 0.85614 0.85412
 C172 C 0.38176 0.85594 0.80902
 C173 C 0.35371 0.83451 0.78409
 C174 C 0.40323 0.88218 0.87960
 C175 C 0.42276 0.90576 0.90067
 H176 H 0.29334 0.79640 0.86511
 H177 H 0.34265 0.83430 0.90903
 H178 H 0.40572 0.87330 0.79317
 H179 H 0.35642 0.83542 0.74927
 C180 C 0.76218 0.82795 1.14230
 C181 C 0.72917 0.83306 1.13067
 C182 C 0.69093 0.84235 1.11634
 C183 C 0.66286 0.85764 1.14603
 C184 C 0.62935 0.87392 1.13144
 C185 C 0.62377 0.87492 1.08713
 C186 C 0.65060 0.85767 1.05755
 C187 C 0.68416 0.84141 1.07214
 C188 C 0.59543 0.89956 1.07214
 C189 C 0.57466 0.92322 1.06022
 H190 H 0.66807 0.85895 1.18023
 H191 H 0.60918 0.88776 1.15455
 H192 H 0.64690 0.85877 1.02321
 H193 H 0.70593 0.83008 1.04887
 C194 C 0.71824 1.23691 0.76854
 C195 C 0.69304 1.22172 0.79243
 C196 C 0.66386 1.20174 0.82033
 C197 C 0.62808 1.18508 0.80377
 C198 C 0.60200 1.16167 0.82933
 C199 C 0.61158 1.15484 0.87155
 C200 C 0.64671 1.17252 0.88857
 C201 C 0.67279 1.19594 0.86302
 C202 C 0.58809 1.12631 0.89540
 C203 C 0.57013 1.10059 0.91413
 H204 H 0.62106 1.18910 0.77069
 H205 H 0.57519 1.14777 0.81565
 H206 H 0.65467 1.16706 0.92098
 H207 H 0.70054 1.20839 0.87602
 C208 C 0.16404 0.22201 0.13775
 C209 C 0.15247 0.25324 0.13370
 C210 C 0.13631 0.28937 0.12828
 C211 C 0.10561 0.30153 0.15686
 C212 C 0.08624 0.33421 0.14881
 C213 C 0.09757 0.35483 0.11219
 C214 C 0.12914 0.34337 0.08435
 C215 C 0.14847 0.31064 0.09235
 C216 C 0.07441 0.38543 0.10092
 C217 C 0.05410 0.40983 0.08992
 H218 H 0.09574 0.28505 0.18450
 H219 H 0.06162 0.34264 0.17030
 H220 H 0.13790 0.35899 0.05578
 H221 H 0.17191 0.30126 0.06983
 C222 C -0.22658 0.28000 -0.23831
 C223 C -0.20399 0.30303 -0.22002
 C224 C -0.17680 0.33004 -0.19785
 C225 C -0.19184 0.35903 -0.17055
 C226 C -0.16546 0.38432 -0.14769
 C227 C -0.12392 0.38076 -0.15205
 C228 C -0.10884 0.35205 -0.17975
 C229 C -0.13523 0.32676 -0.20262
 C230 C -0.09703 0.40528 -0.12646
 C231 C -0.07492 0.42515 -0.10387
 H232 H -0.22393 0.36177 -0.16653
 H233 H -0.17746 0.40627 -0.12617
 H234 H -0.07680 0.34889 -0.18318
 H235 H -0.12327 0.30439 -0.22356
 C236 C 0.20982 0.73500 -0.24549
 C237 C 0.18959 0.71066 -0.22670
 C238 C 0.16524 0.68203 -0.20391
 C239 C 0.18073 0.66460 -0.16931
 C240 C 0.15663 0.63768 -0.14622
 C241 C 0.11697 0.62809 -0.15765
 C242 C 0.10158 0.64528 -0.19249
 C243 C 0.12569 0.67220 -0.21559
 C244 C 0.09175 0.60159 -0.13271
 C245 C 0.07067 0.57994 -0.11107
 H246 H 0.21125 0.67207 -0.15995
 H247 H 0.16876 0.62466 -0.11922
 H248 H 0.07089 0.63817 -0.20148
 H249 H 0.11340 0.68560 -0.24223
 C250 C -0.18530 0.78812 0.14634
 C251 C -0.17174 0.75760 0.13861
 C252 C -0.15335 0.72231 0.12917
 C253 C -0.13783 0.70308 0.16244
 C254 C -0.11608 0.67102 0.15276
 C255 C -0.10976 0.65817 0.10979
 C256 C -0.12606 0.67689 0.07663
 C257 C -0.14783 0.70890 0.08629
 C258 C -0.08454 0.62738 0.09923
 C259 C -0.06268 0.60242 0.08904
 H260 H -0.14160 0.71347 0.19567
 H261 H -0.10337 0.65687 0.17860
 H262 H -0.12103 0.66735 0.04329
 H263 H -0.15936 0.72378 0.06030
 C264 C 1.18099 0.19426 0.80032
 C265 C 1.17138 0.18587 0.76396
 C266 C 1.15830 0.17364 0.72176
 C267 C 1.12104 0.18354 0.70860
 C268 C 1.10501 0.16648 0.67103
 C269 C 1.12622 0.13949 0.64645
 C270 C 1.16435 0.13097 0.65851
 C271 C 1.18037 0.14802 0.69609
 C272 C 1.10628 0.11610 0.61356
 C273 C 1.08846 0.09411 0.58908
 H274 H 1.10351 0.20298 0.72846
 H275 H 1.07522 0.17281 0.66244
 H276 H 1.18072 0.10967 0.64017
 H277 H 1.20900 0.13983 0.70620
 C278 C 0.84017 -0.19251 0.80144
 C279 C 0.85403 -0.18400 0.76632
 C280 C 0.87095 -0.17113 0.72559
 C281 C 0.84587 -0.15857 0.69513
 C282 C 0.86254 -0.14025 0.65876
 C283 C 0.90437 -0.13444 0.65266
 C284 C 0.92946 -0.14850 0.68215
 C285 C 0.91278 -0.16682 0.71852
 C286 C 0.92116 -0.10914 0.62031
 C287 C 0.93471 -0.08531 0.59590
 H288 H 0.81350 -0.16134 0.70049
 H289 H 0.84283 -0.12898 0.63656
 H290 H 0.96182 -0.14364 0.67816
 H291 H 0.93248 -0.17602 0.74209
 C292 C 1.22456 -0.23063 0.28880
 C293 C 1.20064 -0.21449 0.31222
 C294 C 1.17259 -0.19403 0.33942
 C295 C 1.13487 -0.18750 0.32446
 C296 C 1.10907 -0.16461 0.34914
 C297 C 1.12084 -0.14817 0.38894
 C298 C 1.15811 -0.15555 0.40442
 C299 C 1.18391 -0.17844 0.37973
 C300 C 1.09675 -0.12066 0.41163
 C301 C 1.07808 -0.09582 0.42930
 H302 H 1.12589 -0.19922 0.29322
 H303 H 1.08054 -0.15876 0.33662
 H304 H 1.16774 -0.14265 0.43491
 H305 H 1.21309 -0.18310 0.39152
 C306 C 0.83276 0.18482 0.24438
 C307 C 0.84809 0.17507 0.27613
 C308 C 0.86712 0.16099 0.31224
 C309 C 0.84368 0.14464 0.34613
 C310 C 0.86192 0.12577 0.37780
 C311 C 0.90367 0.12315 0.37574
 C312 C 0.92725 0.14077 0.34278
 C313 C 0.90902 0.15967 0.31113
 C314 C 0.92141 0.09814 0.40366
 C315 C 0.93527 0.07482 0.42482
 H316 H 0.81124 0.14508 0.34707
 H317 H 0.84331 0.11179 0.40276
 H318 H 0.95948 0.13847 0.34046
 H319 H 0.92742 0.17181 0.28483
 C320 C 0.18650 0.23786 -0.14641
 C321 C 0.18063 0.27015 -0.13407
 C322 C 0.16971 0.30755 -0.11915
 C323 C 0.15827 0.33313 -0.14876
 C324 C 0.14001 0.36621 -0.13413
 C325 C 0.13314 0.37386 -0.08983
 C326 C 0.14644 0.34927 -0.06020
 C327 C 0.16469 0.31619 -0.07482
 C328 C 0.10690 0.40298 -0.07513
 C329 C 0.08211 0.42480 -0.06285
 H330 H 0.16145 0.32649 -0.18310
 H331 H 0.12930 0.38467 -0.15736
 H332 H 0.14071 0.35454 -0.02592
 H333 H 0.17285 0.29637 -0.05161
 C334 C -0.17885 0.23040 0.20046
 C335 C -0.17406 0.26341 0.19105
 C336 C -0.16643 0.30182 0.17702
 C337 C -0.18105 0.31172 0.13783
 C338 C -0.16796 0.34656 0.12006
 C339 C -0.14027 0.37169 0.14147
 C340 C -0.12720 0.36260 0.18169
 C341 C -0.14025 0.32775 0.19943
 C342 C -0.11999 0.40306 0.11915
 C343 C -0.09966 0.42690 0.09970
 H344 H -0.20094 0.29172 0.11996
 H345 H -0.17772 0.35292 0.08861
 H346 H -0.10524 0.38148 0.19819
 H347 H -0.12837 0.32024 0.22949
 C348 C -0.17228 0.76218 -0.14581
 C349 C -0.16770 0.73034 -0.13494
 C350 C -0.15887 0.69345 -0.12109
 C351 C -0.16346 0.68533 -0.07732
 C352 C -0.14786 0.65273 -0.06247
 C353 C -0.12757 0.62813 -0.09131
 C354 C -0.12481 0.63524 -0.13539
 C355 C -0.14044 0.66780 -0.15025
 C356 C -0.10369 0.59995 -0.07509
 C357 C -0.08040 0.57911 -0.06183
 H358 H -0.17718 0.70518 -0.05436
 H359 H -0.14968 0.64786 -0.02826
 H360 H -0.10859 0.61682 -0.15791
 H361 H -0.13623 0.67401 -0.18405
 C362 C 0.23365 0.72557 0.23772
 C363 C 0.21762 0.70107 0.21450
 C364 C 0.19751 0.67232 0.18705
 C365 C 0.18034 0.63849 0.20435
 C366 C 0.15784 0.61202 0.17857
 C367 C 0.15246 0.61921 0.13533
 C368 C 0.17052 0.65258 0.11773
 C369 C 0.19302 0.67906 0.14351
 C370 C 0.12487 0.59466 0.11059
 C371 C 0.09965 0.57565 0.09103
 H372 H 0.18344 0.63306 0.23802
 H373 H 0.14360 0.58656 0.19269
 H374 H 0.16615 0.65870 0.08450
 H375 H 0.20599 0.70521 0.12983
 C376 C 0.22356 1.18766 0.85101
 C377 C 0.25299 1.17256 0.86069
 C378 C 0.28644 1.15208 0.87212
 C379 C 0.31357 1.13885 0.83997
 C380 C 0.34351 1.11547 0.85049
 C381 C 0.34632 1.10512 0.89318
 C382 C 0.31964 1.11891 0.92542
 C383 C 0.28977 1.14232 0.91493
 C384 C 0.37567 1.07950 0.90394
 C385 C 0.39970 1.05795 0.91411
 H386 H 0.31099 1.14586 0.80669
 H387 H 0.36392 1.10490 0.82529
 H388 H 0.32141 1.11094 0.95848
 H389 H 0.26871 1.15201 0.93998
 C390 C 0.27464 0.77690 1.24159
 C391 C 0.29635 0.79966 1.22186
 C392 C 0.32169 0.82698 1.19803
 C393 C 0.31918 0.82783 1.15323
 C394 C 0.34329 0.85464 1.12999
 C395 C 0.37004 0.88078 1.15138
 C396 C 0.37263 0.87994 1.19620
 C397 C 0.34848 0.85309 1.21949
 C398 C 0.39474 0.90818 1.12698
 C399 C 0.41489 0.93039 1.10508
 H400 H 0.29853 0.80785 1.13631
 H401 H 0.34104 0.85500 1.09535
 H402 H 0.39323 0.89999 1.21308
 H403 H 0.35061 0.85274 1.25414
 C404 C 0.78080 1.17773 1.20242
 C405 C 0.74821 1.16219 1.19519
 C406 C 0.71034 1.14285 1.18414
 C407 C 0.70323 1.10367 1.19036
 C408 C 0.66867 1.08380 1.17477
 C409 C 0.64106 1.10305 1.15293
 C410 C 0.64758 1.14245 1.14789
 C411 C 0.68215 1.16231 1.16344
 C412 C 0.60831 1.08188 1.13210
 C413 C 0.58215 1.06413 1.11263
 H414 H 0.72501 1.08826 1.20595
 H415 H 0.66416 1.05328 1.17847
 H416 H 0.62664 1.15756 1.13069
 H417 H 0.68753 1.19252 1.15807
 C418 C 0.78818 0.81480 0.85309
 C419 C 0.75736 0.82981 0.86229
 C420 C 0.72201 0.85001 0.87325
 C421 C 0.69764 0.86010 0.84072
 C422 C 0.66566 0.88304 0.85089
 C423 C 0.65801 0.89607 0.89360
 C424 C 0.68194 0.88540 0.92620
 C425 C 0.71383 0.86243 0.91607
 C426 C 0.62669 0.92150 0.90399
 C427 C 0.60106 0.94319 0.91377
 H428 H 0.70392 0.85098 0.80744
 H429 H 0.64745 0.89121 0.82540
 H430 H 0.67645 0.89550 0.95929
 H431 H 0.73269 0.85515 0.94143
   
