data_POSCAR
  _audit_creation_date              2014-09-24
  _audit_creation_method            'ToBaCCo'
  _symmetry_space_group_name_H-M    'P1'
  _symmetry_Int_Tables_number       1
  _symmetry_cell_setting            triclinic
  loop_
  _symmetry_equiv_pos_as_xyz
 x,y,z
_cell_length_a 17.1924
_cell_length_b 17.8889
_cell_length_c 17.5341
_cell_angle_alpha 84.491300
_cell_angle_beta 94.098000
_cell_angle_gamma 94.584600
loop_
  _atom_site_label
  _atom_site_type_symbol
  _atom_site_fract_x
  _atom_site_fract_y
  _atom_site_fract_z
C1 C 0.18831 0.29817 0.30392
 C2 C 0.23371 0.34824 0.24372
 C3 C 0.27956 0.31067 0.20257
 C4 C 0.27541 0.22537 0.22462
 C5 C 0.14258 0.23773 0.25812
 C6 C 0.18808 0.20020 0.21656
 C7 C 0.25077 0.25502 0.35257
 C8 C 0.29642 0.21695 0.31156
 H9 H 0.23192 0.40893 0.23678
 H10 H 0.31198 0.19442 0.19052
 H11 H 0.07998 0.22608 0.25571
 H12 H 0.25504 0.25149 0.41472
 C13 C 0.68929 0.79939 0.30351
 C14 C 0.73464 0.84917 0.24307
 C15 C 0.78012 0.81132 0.20179
 C16 C 0.77567 0.72600 0.22405
 C17 C 0.64312 0.73904 0.25792
 C18 C 0.68825 0.70119 0.21632
 C19 C 0.75172 0.75609 0.35203
 C20 C 0.79687 0.71762 0.31093
 H21 H 0.73302 0.90987 0.23598
 H22 H 0.81197 0.69469 0.19000
 H23 H 0.58047 0.72777 0.25552
 H24 H 0.75619 0.75254 0.41419
 C25 C 0.69007 0.30098 0.80303
 C26 C 0.73212 0.34918 0.74594
 C27 C 0.78128 0.31116 0.70199
 C28 C 0.77745 0.22984 0.72297
 C29 C 0.64450 0.24017 0.75759
 C30 C 0.69015 0.20347 0.71540
 C31 C 0.75291 0.25794 0.85146
 C32 C 0.79873 0.22045 0.81001
 H33 H 0.73129 0.40984 0.74242
 H34 H 0.81259 0.19751 0.68908
 H35 H 0.58211 0.22714 0.75651
 H36 H 0.75679 0.25340 0.91365
 C37 C 0.18870 0.79922 0.80265
 C38 C 0.23442 0.84923 0.74266
 C39 C 0.28039 0.81161 0.70169
 C40 C 0.27597 0.72628 0.72366
 C41 C 0.14302 0.73884 0.75674
 C42 C 0.18861 0.70124 0.71537
 C43 C 0.25090 0.75591 0.85151
 C44 C 0.29661 0.71775 0.81067
 H45 H 0.23286 0.90993 0.73584
 H46 H 0.31258 0.69527 0.68966
 H47 H 0.08045 0.72689 0.75458
 H48 H 0.25480 0.75217 0.91367
 C49 C 0.13217 0.10159 0.03813
 H50 H 0.14244 0.10900 -0.02237
 C51 C 0.17333 0.14895 0.08845
 H52 H 0.21594 0.19218 0.06665
 C53 C 0.05947 0.04087 0.13935
 H54 H 0.01363 0.00028 0.15889
 C55 C 0.09801 0.08795 0.19107
 H56 H 0.08226 0.08246 0.25018
 N57 N 0.07587 0.04929 0.06408
 C58 C 0.02330 -0.11467 -0.10601
 H59 H -0.03972 -0.12042 -0.10509
 C60 C 0.06081 -0.16050 -0.14968
 H61 H 0.02459 -0.19927 -0.18265
 C62 C 0.14471 -0.05750 -0.06143
 H63 H 0.17753 -0.01828 -0.02617
 C64 C 0.18464 -0.10199 -0.10438
 H65 H 0.24792 -0.09546 -0.10234
 Zn66 Zn 0.00896 -0.00361 -0.00696
 N67 N 0.06527 -0.06354 -0.06405
 C68 C -0.08515 0.04992 -0.13897
 N69 N -0.04565 0.06846 -0.07252
 C70 C -0.05107 0.13687 -0.04620
 C71 C -0.09917 0.18872 -0.08573
 C72 C -0.13385 0.10043 -0.18058
 C73 C -0.04142 -0.13018 0.09047
 C74 C -0.09252 -0.17282 0.13905
 C75 C -0.19139 -0.08622 0.09790
 C76 C -0.13872 -0.04558 0.04989
 N77 N -0.06484 -0.06714 0.04828
 H78 H -0.08129 -0.00493 -0.15854
 H79 H -0.02085 0.15023 0.00747
 H80 H -0.10388 0.24216 -0.06281
 H81 H -0.16729 0.08349 -0.23156
 H82 H 0.01790 -0.14566 0.08846
 H83 H -0.07201 -0.22107 0.17462
 H84 H -0.24945 -0.06729 0.09968
 H85 H -0.15606 0.00481 0.01613
 C86 C 0.14300 -0.15448 -0.14973
 C87 C 0.15452 0.14361 0.16531
 C88 C -0.16790 -0.14976 0.14446
 C89 C -0.14262 0.17009 -0.15291
 C90 C 0.13141 0.60198 0.53768
 H91 H 0.14057 0.60953 0.47695
 C92 C 0.17269 0.64986 0.58740
 H93 H 0.21426 0.69373 0.56492
 C94 C 0.06165 0.53977 0.64029
 H95 H 0.01734 0.49786 0.66065
 C96 C 0.10025 0.58744 0.69145
 H97 H 0.08578 0.58153 0.75095
 N98 N 0.07625 0.54895 0.56457
 C99 C 0.02293 0.38373 0.39584
 H100 H -0.04004 0.37764 0.39706
 C101 C 0.06047 0.33796 0.35216
 H102 H 0.02426 0.29893 0.31951
 C103 C 0.14427 0.44151 0.43981
 H104 H 0.17703 0.48107 0.47474
 C105 C 0.18423 0.39712 0.39677
 H106 H 0.24748 0.40395 0.39847
 Zn107 Zn 0.00875 0.49538 0.49464
 N108 N 0.06484 0.43507 0.43761
 C109 C -0.08820 0.54672 0.36389
 N110 N -0.04674 0.56668 0.42884
 C111 C -0.05077 0.63604 0.45355
 C112 C -0.09937 0.68742 0.41398
 C113 C -0.13722 0.59682 0.32211
 C114 C -0.04941 0.36204 0.57960
 C115 C -0.10086 0.31921 0.62778
 C116 C -0.18342 0.42331 0.61573
 C117 C -0.13085 0.46361 0.56751
 N118 N -0.06495 0.43301 0.55115
 H119 H -0.08551 0.49118 0.34561
 H120 H -0.01917 0.65053 0.50618
 H121 H -0.10306 0.74161 0.43568
 H122 H -0.17197 0.57897 0.27223
 H123 H 0.00426 0.33950 0.56685
 H124 H -0.08421 0.26451 0.65197
 H125 H -0.23558 0.44970 0.62618
 H126 H -0.14186 0.52029 0.54450
 C127 C 0.14263 0.34436 0.35170
 C128 C 0.15523 0.64415 0.66465
 C129 C -0.16862 0.35019 0.64827
 C130 C -0.14452 0.66744 0.34826
 C131 C 0.63360 0.10339 0.53800
 H132 H 0.64316 0.11064 0.47734
 C133 C 0.67485 0.15133 0.58770
 H134 H 0.71677 0.19489 0.56525
 C135 C 0.56260 0.04236 0.64028
 H136 H 0.51739 0.00139 0.66045
 C137 C 0.60127 0.08998 0.69141
 H138 H 0.58622 0.08453 0.75073
 N139 N 0.57806 0.05070 0.56476
 C140 C 0.52477 -0.11516 0.39689
 H141 H 0.46186 -0.12145 0.39890
 C142 C 0.56194 -0.16113 0.35311
 H143 H 0.52551 -0.20077 0.32141
 C144 C 0.64633 -0.05631 0.43881
 H145 H 0.67934 -0.01633 0.47306
 C146 C 0.68593 -0.10090 0.39565
 H147 H 0.74914 -0.09380 0.39659
 Zn148 Zn 0.51088 -0.00296 0.49457
 N149 N 0.56695 -0.06313 0.43756
 C150 C 0.41613 0.04892 0.36267
 N151 N 0.45559 0.06832 0.42883
 C152 C 0.44888 0.13654 0.45504
 C153 C 0.39943 0.18729 0.41571
 C154 C 0.36610 0.09829 0.32128
 C155 C 0.46040 -0.12918 0.59285
 C156 C 0.40879 -0.17199 0.64081
 C157 C 0.31001 -0.08561 0.59855
 C158 C 0.36317 -0.04483 0.55119
 N159 N 0.43722 -0.06623 0.55035
 H160 H 0.42098 -0.00583 0.34326
 H161 H 0.47911 0.15049 0.50853
 H162 H 0.39380 0.24063 0.43849
 H163 H 0.33279 0.08064 0.27052
 H164 H 0.51981 -0.14462 0.59138
 H165 H 0.42902 -0.22026 0.67654
 H166 H 0.25179 -0.06685 0.59962
 H167 H 0.34592 0.00543 0.51716
 C168 C 0.64402 -0.15420 0.35145
 C169 C 0.65690 0.14614 0.66480
 C170 C 0.33314 -0.14917 0.64525
 C171 C 0.35595 0.16768 0.34888
 C172 C 0.63155 0.60168 0.03863
 H173 H 0.64172 0.60862 -0.02189
 C174 C 0.67286 0.64935 0.08854
 H175 H 0.71545 0.69241 0.06640
 C176 C 0.55915 0.54154 0.14036
 H177 H 0.51340 0.50101 0.16022
 C178 C 0.59783 0.58896 0.19167
 H179 H 0.58228 0.58381 0.25083
 N180 N 0.57540 0.54948 0.06505
 C181 C 0.52377 0.38541 -0.10508
 H182 H 0.46072 0.37965 -0.10474
 C183 C 0.56169 0.34034 -0.14920
 H184 H 0.52567 0.30248 -0.18338
 C185 C 0.64483 0.44176 -0.05859
 H186 H 0.67733 0.48044 -0.02251
 C187 C 0.68519 0.39778 -0.10167
 H188 H 0.74848 0.40422 -0.09893
 Zn189 Zn 0.50870 0.49599 -0.00555
 N190 N 0.56537 0.43601 -0.06220
 C191 C 0.41457 0.54862 -0.13786
 N192 N 0.45375 0.56753 -0.07138
 C193 C 0.44740 0.63577 -0.04505
 C194 C 0.39866 0.68704 -0.08459
 C195 C 0.36524 0.59850 -0.17944
 C196 C 0.45858 0.36976 0.09237
 C197 C 0.40738 0.32705 0.14077
 C198 C 0.30826 0.41320 0.09889
 C199 C 0.36104 0.45390 0.05106
 N200 N 0.43506 0.43256 0.04986
 H201 H 0.41912 0.49394 -0.15748
 H202 H 0.47741 0.64940 0.00864
 H203 H 0.39332 0.74039 -0.06173
 H204 H 0.33213 0.58124 -0.23047
 H205 H 0.51801 0.35446 0.09066
 H206 H 0.42791 0.27893 0.17654
 H207 H 0.25006 0.43190 0.10032
 H208 H 0.34360 0.50412 0.01705
 C209 C 0.64395 0.34621 -0.14842
 C210 C 0.65430 0.64445 0.16544
 C211 C 0.33180 0.34983 0.14566
 C212 C 0.35551 0.66794 -0.15177
   
