data_POSCAR
  _audit_creation_date              2014-09-24
  _audit_creation_method            'ToBaCCo'
  _symmetry_space_group_name_H-M    'P1'
  _symmetry_Int_Tables_number       1
  _symmetry_cell_setting            triclinic
  loop_
  _symmetry_equiv_pos_as_xyz
 x,y,z
_cell_length_a 59.5069
_cell_length_b 31.9640
_cell_length_c 19.1516
_cell_angle_alpha 90.110600
_cell_angle_beta 89.884100
_cell_angle_gamma 90.101000
loop_
  _atom_site_label
  _atom_site_type_symbol
  _atom_site_fract_x
  _atom_site_fract_y
  _atom_site_fract_z
C1 C 0.74784 0.24439 0.46574
 C2 C 0.74853 0.24598 0.53697
 C3 C 0.72887 0.26018 0.57848
 C4 C 0.76886 0.23322 0.57646
 C5 C 0.76613 0.22439 0.42460
 C6 C 0.72886 0.26293 0.42605
 C7 C 0.73098 0.29402 0.62428
 C8 C 0.71229 0.30918 0.66050
 C9 C 0.69075 0.29052 0.65288
 C10 C 0.68929 0.25507 0.60825
 C11 C 0.70802 0.24037 0.57168
 C12 C 0.79005 0.25002 0.56010
 C13 C 0.80931 0.23536 0.59358
 C14 C 0.80769 0.20421 0.64503
 C15 C 0.78636 0.18883 0.66361
 C16 C 0.76712 0.20325 0.62964
 C17 C 0.77324 0.18354 0.43979
 C18 C 0.79177 0.16640 0.40535
 C19 C 0.80328 0.18947 0.35410
 C20 C 0.79543 0.22952 0.33644
 C21 C 0.77700 0.24681 0.37139
 C22 C 0.71738 0.23894 0.37613
 C23 C 0.69894 0.25560 0.34073
 C24 C 0.69166 0.29667 0.35446
 C25 C 0.70363 0.32100 0.40311
 C26 C 0.72216 0.30443 0.43800
 H27 H 0.74711 0.30923 0.63116
 H28 H 0.71533 0.33461 0.69651
 H29 H 0.67352 0.23972 0.59702
 H30 H 0.70613 0.21390 0.53676
 H31 H 0.79170 0.27392 0.52040
 H32 H 0.82549 0.24831 0.57918
 H33 H 0.75092 0.19006 0.64330
 H34 H 0.76473 0.16531 0.47950
 H35 H 0.79720 0.13516 0.41905
 H36 H 0.80404 0.24804 0.29735
 H37 H 0.77169 0.27827 0.35860
 H38 H 0.72245 0.20702 0.36551
 H39 H 0.69039 0.23631 0.30257
 H40 H 0.69841 0.35258 0.41544
 H41 H 0.73110 0.32383 0.47515
 H42 H 0.78464 0.16467 0.70282
 C43 C 0.25292 0.75788 0.46338
 C44 C 0.25220 0.75411 0.53424
 C45 C 0.23313 0.77144 0.57461
 C46 C 0.27053 0.73387 0.57440
 C47 C 0.27322 0.74629 0.42253
 C48 C 0.23323 0.77353 0.42380
 C49 C 0.23005 0.81479 0.57905
 C50 C 0.21143 0.83116 0.61410
 C51 C 0.19524 0.80443 0.64414
 C52 C 0.19870 0.76087 0.64021
 C53 C 0.21764 0.74460 0.60660
 C54 C 0.28072 0.75529 0.62998
 C55 C 0.29900 0.73778 0.66497
 C56 C 0.30741 0.69838 0.64525
 C57 C 0.29662 0.67631 0.59121
 C58 C 0.27826 0.69376 0.55651
 C59 C 0.27147 0.71762 0.36725
 C60 C 0.29071 0.70393 0.33215
 C61 C 0.31205 0.71882 0.35162
 C62 C 0.31365 0.74889 0.40503
 C63 C 0.29439 0.76275 0.43977
 C64 C 0.21241 0.75306 0.42854
 C65 C 0.19370 0.76870 0.39340
 C66 C 0.19550 0.80487 0.35206
 C67 C 0.21655 0.82467 0.34596
 C68 C 0.23527 0.80902 0.38133
 H69 H 0.24206 0.83588 0.55508
 H70 H 0.20978 0.86480 0.61752
 H71 H 0.18651 0.73916 0.66138
 H72 H 0.21980 0.71101 0.60326
 H73 H 0.27490 0.78609 0.64511
 H74 H 0.30663 0.75520 0.70729
 H75 H 0.27038 0.67635 0.51461
 H76 H 0.25527 0.70474 0.35291
 H77 H 0.28899 0.68057 0.29149
 H78 H 0.32983 0.76147 0.42022
 H79 H 0.29604 0.78567 0.48118
 H80 H 0.21062 0.72513 0.45997
 H81 H 0.17771 0.75291 0.39970
 H82 H 0.21856 0.85218 0.31364
 H83 H 0.25127 0.82496 0.37652
 H84 H 0.30274 0.64605 0.57440
 C85 C 0.24715 0.25750 -0.46478
 C86 C 0.24670 0.25901 -0.53603
 C87 C 0.26668 0.27291 -0.57654
 C88 C 0.22646 0.24634 -0.57640
 C89 C 0.22870 0.23778 -0.42401
 C90 C 0.26618 0.27551 -0.42449
 C91 C 0.26511 0.30714 -0.62166
 C92 C 0.28420 0.32229 -0.65602
 C93 C 0.30542 0.30313 -0.64698
 C94 C 0.30648 0.26754 -0.60329
 C95 C 0.28739 0.25275 -0.56865
 C96 C 0.20516 0.26205 -0.55927
 C97 C 0.18601 0.24723 -0.59328
 C98 C 0.18762 0.21697 -0.64696
 C99 C 0.20933 0.20336 -0.66663
 C100 C 0.22842 0.21774 -0.63157
 C101 C 0.22186 0.19664 -0.43783
 C102 C 0.20363 0.17918 -0.40220
 C103 C 0.19172 0.20235 -0.35113
 C104 C 0.19944 0.24327 -0.33598
 C105 C 0.21770 0.26056 -0.37173
 C106 C 0.27753 0.25097 -0.37521
 C107 C 0.29627 0.26692 -0.34014
 C108 C 0.30395 0.30768 -0.35386
 C109 C 0.29207 0.33270 -0.40136
 C110 C 0.27322 0.31690 -0.43580
 H111 H 0.24916 0.32276 -0.62909
 H112 H 0.28197 0.34841 -0.69109
 H113 H 0.32221 0.25206 -0.59228
 H114 H 0.28887 0.22601 -0.53429
 H115 H 0.20332 0.28542 -0.51865
 H116 H 0.17002 0.26059 -0.57829
 H117 H 0.24472 0.20536 -0.64596
 H118 H 0.23035 0.17833 -0.47752
 H119 H 0.19836 0.14821 -0.41801
 H120 H 0.19188 0.26202 -0.29523
 H121 H 0.22299 0.29217 -0.35946
 H122 H 0.27225 0.21907 -0.36538
 H123 H 0.30517 0.24697 -0.30394
 H124 H 0.29740 0.36449 -0.41187
 H125 H 0.26432 0.33676 -0.47215
 H126 H 0.21174 0.17958 -0.70616
 C127 C -0.24774 0.74125 -0.46646
 C128 C -0.24873 0.74450 -0.53754
 C129 C -0.22907 0.75934 -0.57854
 C130 C -0.26929 0.73293 -0.57736
 C131 C -0.26585 0.72033 -0.42571
 C132 C -0.22862 0.75916 -0.42625
 C133 C -0.23112 0.79397 -0.62262
 C134 C -0.21236 0.80978 -0.65781
 C135 C -0.19098 0.79096 -0.65061
 C136 C -0.18943 0.75496 -0.60801
 C137 C -0.20820 0.73948 -0.57259
 C138 C -0.29043 0.74833 -0.55775
 C139 C -0.30986 0.73443 -0.59143
 C140 C -0.30869 0.70544 -0.64716
 C141 C -0.28714 0.69214 -0.66907
 C142 C -0.26778 0.70561 -0.63444
 C143 C -0.27368 0.68048 -0.44446
 C144 C -0.29201 0.66268 -0.40986
 C145 C -0.30270 0.68377 -0.35404
 C146 C -0.29372 0.72276 -0.33291
 C147 C -0.27563 0.74077 -0.36850
 C148 C -0.21702 0.73440 -0.37788
 C149 C -0.19870 0.75075 -0.34123
 C150 C -0.19164 0.79227 -0.35212
 C151 C -0.20365 0.81725 -0.39950
 C152 C -0.22206 0.80100 -0.43560
 H153 H -0.24721 0.80934 -0.62866
 H154 H -0.21497 0.83617 -0.69206
 H155 H -0.17355 0.73967 -0.59843
 H156 H -0.20635 0.71239 -0.53918
 H157 H -0.29194 0.77067 -0.51542
 H158 H -0.32571 0.74754 -0.57449
 H159 H -0.25161 0.69346 -0.65071
 H160 H -0.26584 0.66342 -0.48687
 H161 H -0.29730 0.63179 -0.42618
 H162 H -0.30140 0.74098 -0.29167
 H163 H -0.26976 0.77149 -0.35288
 H164 H -0.22198 0.70220 -0.36924
 H165 H -0.19011 0.73090 -0.30417
 H166 H -0.19858 0.84920 -0.40976
 H167 H -0.23109 0.82097 -0.47148
 H168 H -0.28504 0.66927 -0.71022
 N169 N -0.02289 0.92386 -0.07380
 N170 N -0.04004 0.89792 -0.08089
 N171 N 0.02366 0.95517 -0.12391
 N172 N 0.04079 0.95105 -0.16724
 N173 N 0.02448 0.92666 -0.07475
 N174 N 0.04234 0.90266 -0.08279
 N175 N -0.02355 0.95310 -0.12180
 N176 N -0.04116 0.94796 -0.16263
 C177 C -0.05127 0.91332 -0.13669
 C178 C 0.05229 0.91816 -0.14091
 N179 N 0.02240 1.07432 -0.07521
 N180 N 0.03982 1.09958 -0.08266
 N181 N -0.02469 1.04312 -0.12215
 N182 N -0.04190 1.04762 -0.16484
 N183 N -0.02493 1.07220 -0.07368
 N184 N -0.04235 1.09720 -0.08194
 N185 N 0.02257 1.04520 -0.12366
 N186 N 0.04006 1.04988 -0.16535
 Mn187 Mn -0.00052 0.99914 -0.12373
 C188 C 0.05064 1.08404 -0.13935
 C189 C -0.05278 1.08150 -0.13908
 N190 N 0.02480 0.92681 0.07540
 N191 N 0.04272 0.90290 0.08243
 N192 N -0.02292 0.95330 0.12482
 N193 N -0.04042 0.94826 0.16641
 N194 N -0.02251 0.92408 0.07658
 N195 N -0.03970 0.89831 0.08416
 N196 N 0.02440 0.95587 0.12391
 N197 N 0.04200 0.95248 0.16530
 Mn198 Mn 0.00099 0.92480 0.00086
 C199 C 0.05327 0.91921 0.13890
 C200 C -0.05070 0.91372 0.14059
 N201 N -0.02465 1.07239 0.07659
 N202 N -0.04261 1.09621 0.08426
 N203 N 0.02305 1.04591 0.12398
 N204 N 0.04012 1.05211 0.16667
 N205 N 0.02271 1.07463 0.07509
 N206 N 0.03962 1.10098 0.08290
 N207 N -0.02420 1.04323 0.12473
 N208 N -0.04182 1.04633 0.16630
 Mn209 Mn -0.00112 1.07393 0.00070
 Mn210 Mn 0.00008 0.99957 0.12523
 Cl211 Cl -0.00014 0.99936 0.00077
 C212 C -0.05313 1.07962 0.14064
 C213 C 0.05032 1.08659 0.14036
 N214 N 0.52496 0.57063 -0.07916
 N215 N 0.54303 0.59426 -0.08675
 N216 N 0.47738 0.54282 -0.12713
 N217 N 0.45980 0.54675 -0.16847
 N218 N 0.47762 0.57265 -0.07996
 N219 N 0.46022 0.59775 -0.08802
 N220 N 0.52471 0.54062 -0.12600
 N221 N 0.54264 0.54281 -0.16644
 C222 C 0.55386 0.57654 -0.14161
 C223 C 0.44929 0.58128 -0.14367
 N224 N 0.47560 0.42446 -0.07464
 N225 N 0.45763 0.40050 -0.08164
 N226 N 0.52347 0.45090 -0.12271
 N227 N 0.54107 0.44546 -0.16367
 N228 N 0.52292 0.42232 -0.07361
 N229 N 0.54012 0.39652 -0.08007
 N230 N 0.47619 0.45305 -0.12372
 N231 N 0.45864 0.44947 -0.16520
 Mn232 Mn 0.50044 0.49684 -0.12572
 C233 C 0.44724 0.41647 -0.13856
 C234 C 0.55127 0.41133 -0.13664
 N235 N 0.47727 0.57485 0.07032
 N236 N 0.46050 0.60148 0.07790
 N237 N 0.52399 0.54457 0.12089
 N238 N 0.54096 0.54985 0.16432
 N239 N 0.52459 0.57275 0.07113
 N240 N 0.54205 0.59781 0.07913
 N241 N 0.47678 0.54651 0.11982
 N242 N 0.45971 0.55313 0.16249
 Mn243 Mn 0.50112 0.57327 -0.00445
 C244 C 0.44969 0.58753 0.13570
 C245 C 0.55210 0.58319 0.13757
 N246 N 0.52250 0.42455 0.07680
 N247 N 0.53969 0.39903 0.08539
 N248 N 0.47545 0.45643 0.12298
 N249 N 0.45789 0.45305 0.16487
 N250 N 0.47526 0.42659 0.07578
 N251 N 0.45762 0.40204 0.08441
 N252 N 0.52283 0.45444 0.12391
 N253 N 0.54029 0.45016 0.16563
 Mn254 Mn 0.49906 0.42393 0.00112
 Mn255 Mn 0.49976 0.50047 0.12279
 Cl256 Cl 0.50009 0.49863 -0.00152
 C257 C 0.55061 0.41534 0.14116
 C258 C 0.44694 0.41888 0.14027
 C259 C 0.36477 0.35257 0.25859
 C260 C 0.36322 0.30993 0.27499
 C261 C 0.34376 0.29362 0.30560
 C262 C 0.32506 0.31945 0.32035
 C263 C 0.32675 0.36227 0.30255
 C264 C 0.34633 0.37853 0.27257
 C265 C 0.38567 0.36994 0.22756
 C266 C 0.39468 0.40791 0.25199
 C267 C 0.41461 0.42382 0.22369
 C268 C 0.42583 0.40223 0.17008
 C269 C 0.41671 0.36450 0.14516
 C270 C 0.39688 0.34843 0.17380
 H271 H 0.34334 0.26032 0.31529
 H272 H 0.31342 0.38411 0.31443
 H273 H 0.42124 0.45302 0.24382
 H274 H 0.42497 0.34726 0.10370
 H275 H 0.34704 0.41155 0.26018
 H276 H 0.38650 0.42494 0.29383
 H277 H 0.37721 0.28916 0.26486
 H278 H 0.39019 0.31935 0.15343
 C279 C -0.13235 0.84295 0.25461
 C280 C -0.13356 0.80006 0.26940
 C281 C -0.15282 0.78288 0.29989
 C282 C -0.17163 0.80807 0.31619
 C283 C -0.17034 0.85112 0.29968
 C284 C -0.15097 0.86823 0.26974
 C285 C -0.11158 0.86136 0.22458
 C286 C -0.10300 0.89927 0.25066
 C287 C -0.08319 0.91624 0.22343
 C288 C -0.07164 0.89576 0.16929
 C289 C -0.08030 0.85807 0.14273
 C290 C -0.10004 0.84095 0.17029
 H291 H -0.15297 0.74946 0.30845
 H292 H -0.18377 0.87249 0.31271
 H293 H -0.07692 0.94540 0.24479
 H294 H -0.07177 0.84171 0.10081
 H295 H -0.15055 0.90142 0.25852
 H296 H -0.11142 0.91545 0.29298
 H297 H -0.11943 0.77979 0.25830
 H298 H -0.10640 0.81193 0.14869
 C299 C 0.63216 0.65518 0.25935
 C300 C 0.65213 0.65846 0.22078
 C301 C 0.67154 0.67505 0.25118
 C302 C 0.67148 0.68949 0.32102
 C303 C 0.65110 0.68668 0.35883
 C304 C 0.63183 0.66950 0.32855
 C305 C 0.61174 0.63653 0.22776
 C306 C 0.59911 0.60663 0.26461
 C307 C 0.57984 0.58900 0.23499
 C308 C 0.57267 0.60133 0.16834
 C309 C 0.58528 0.63125 0.13147
 C310 C 0.60472 0.64849 0.16074
 H311 H 0.68633 0.67767 0.21858
 H312 H 0.65005 0.69580 0.41314
 H313 H 0.57046 0.56595 0.26450
 H314 H 0.58016 0.64123 0.07989
 H315 H 0.61659 0.66742 0.35939
 H316 H 0.60431 0.59656 0.31606
 H317 H 0.65280 0.64766 0.16718
 H318 H 0.61409 0.67166 0.13145
 C319 C 0.12927 1.16357 0.25994
 C320 C 0.14938 1.16649 0.22201
 C321 C 0.16855 1.18412 0.25229
 C322 C 0.16805 1.20005 0.32120
 C323 C 0.14750 1.19767 0.35822
 C324 C 0.12850 1.17938 0.32817
 C325 C 0.10917 1.14361 0.22882
 C326 C 0.09696 1.11354 0.26657
 C327 C 0.07796 1.09467 0.23747
 C328 C 0.07062 1.10601 0.17050
 C329 C 0.08281 1.13612 0.13273
 C330 C 0.10202 1.15454 0.16145
 H331 H 0.18349 1.18633 0.22028
 H332 H 0.14615 1.20795 0.41189
 H333 H 0.06888 1.07151 0.26764
 H334 H 0.07755 1.14529 0.08087
 H335 H 0.11313 1.17756 0.35843
 H336 H 0.10228 1.10432 0.31835
 H337 H 0.15035 1.15455 0.16912
 H338 H 0.11111 1.17780 0.13151
 C339 C 0.63290 0.34053 -0.24989
 C340 C 0.65214 0.36516 -0.25920
 C341 C 0.67145 0.34848 -0.29004
 C342 C 0.67214 0.30641 -0.31389
 C343 C 0.65254 0.28188 -0.30296
 C344 C 0.63338 0.29865 -0.27126
 C345 C 0.61218 0.35884 -0.21967
 C346 C 0.59986 0.33729 -0.16837
 C347 C 0.58015 0.35449 -0.14077
 C348 C 0.57226 0.39328 -0.16467
 C349 C 0.58458 0.41482 -0.21590
 C350 C 0.60440 0.39787 -0.24288
 H351 H 0.68515 0.37008 -0.29861
 H352 H 0.65189 0.24899 -0.31583
 H353 H 0.57099 0.33729 -0.10120
 H354 H 0.57892 0.44485 -0.23512
 H355 H 0.61874 0.27888 -0.26440
 H356 H 0.60561 0.30731 -0.14921
 H357 H 0.65222 0.39764 -0.24296
 H358 H 0.61345 0.41494 -0.28285
 C359 C 0.13479 0.85405 -0.26089
 C360 C 0.14543 0.87513 -0.31628
 C361 C 0.16488 0.85901 -0.34703
 C362 C 0.17464 0.82185 -0.32222
 C363 C 0.16427 0.80121 -0.26585
 C364 C 0.14451 0.81682 -0.23614
 C365 C 0.11357 0.87058 -0.22973
 C366 C 0.10856 0.86443 -0.15854
 C367 C 0.08850 0.87942 -0.12986
 C368 C 0.07327 0.90174 -0.17125
 C369 C 0.07825 0.90845 -0.24190
 C370 C 0.09802 0.89260 -0.27106
 H371 H 0.17203 0.87554 -0.39107
 H372 H 0.17141 0.77294 -0.24429
 H373 H 0.08509 0.87423 -0.07496
 H374 H 0.06665 0.92531 -0.27498
 H375 H 0.13672 0.79923 -0.19437
 H376 H 0.12024 0.84853 -0.12451
 H377 H 0.13883 0.90430 -0.33606
 H378 H 0.10089 0.89716 -0.32633
 C379 C 0.36702 0.64776 -0.25910
 C380 C 0.34884 0.62151 -0.27596
 C381 C 0.32940 0.63793 -0.30620
 C382 C 0.32774 0.68094 -0.32050
 C383 C 0.34590 0.70718 -0.30325
 C384 C 0.36528 0.69079 -0.27276
 C385 C 0.38788 0.63030 -0.22847
 C386 C 0.39901 0.65131 -0.17399
 C387 C 0.41891 0.63529 -0.14616
 C388 C 0.42815 0.59806 -0.17253
 C389 C 0.41699 0.57691 -0.22670
 C390 C 0.39703 0.59282 -0.25428
 H391 H 0.31559 0.61697 -0.31788
 H392 H 0.34535 0.74031 -0.31478
 H393 H 0.42710 0.65212 -0.10417
 H394 H 0.42370 0.54808 -0.24792
 H395 H 0.37915 0.71169 -0.26136
 H396 H 0.39221 0.67999 -0.15250
 H397 H 0.34958 0.58830 -0.26514
 H398 H 0.38897 0.57618 -0.29672
 C399 C -0.13292 1.15227 -0.26112
 C400 C -0.15165 1.16257 -0.21972
 C401 C -0.17092 1.17957 -0.25006
 C402 C -0.17177 1.18694 -0.32230
 C403 C -0.15299 1.17693 -0.36360
 C404 C -0.13379 1.15967 -0.33335
 C405 C -0.11255 1.13377 -0.22921
 C406 C -0.10147 1.10018 -0.26180
 C407 C -0.08214 1.08299 -0.23220
 C408 C -0.07343 1.09921 -0.16966
 C409 C -0.08454 1.13265 -0.13684
 C410 C -0.10396 1.14968 -0.16622
 H411 H -0.18512 1.18722 -0.21699
 H412 H -0.15328 1.18184 -0.41953
 H413 H -0.07397 1.05711 -0.25847
 H414 H -0.07820 1.14572 -0.08851
 H415 H -0.11953 1.15241 -0.36642
 H416 H -0.10789 1.08694 -0.30990
 H417 H -0.15150 1.15689 -0.16399
 H418 H -0.11204 1.17577 -0.14029
 C419 C 0.63787 0.63544 -0.25872
 C420 C 0.64333 0.62533 -0.32809
 C421 C 0.66302 0.64046 -0.35883
 C422 C 0.67781 0.66688 -0.32155
 C423 C 0.67224 0.67672 -0.25169
 C424 C 0.65268 0.66102 -0.22075
 C425 C 0.61663 0.61986 -0.22673
 C426 C 0.60433 0.64501 -0.17993
 C427 C 0.58406 0.63074 -0.15147
 C428 C 0.57554 0.59130 -0.16992
 C429 C 0.58783 0.56599 -0.21611
 C430 C 0.60822 0.57998 -0.24383
 H431 H 0.66580 0.63306 -0.41329
 H432 H 0.68330 0.69536 -0.21940
 H433 H 0.57486 0.65090 -0.11604
 H434 H 0.58176 0.53521 -0.23056
 H435 H 0.64932 0.66858 -0.16661
 H436 H 0.61008 0.67611 -0.16637
 H437 H 0.63206 0.60659 -0.35961
 H438 H 0.61744 0.55937 -0.27842
 C439 C 0.13302 1.15168 -0.25431
 C440 C 0.14985 1.12522 -0.28043
 C441 C 0.16920 1.14171 -0.31138
 C442 C 0.17242 1.18541 -0.31727
 C443 C 0.15550 1.21172 -0.28955
 C444 C 0.13615 1.19508 -0.25875
 C445 C 0.11205 1.13407 -0.22396
 C446 C 0.10214 1.15221 -0.16447
 C447 C 0.08219 1.13597 -0.13684
 C448 C 0.07174 1.10130 -0.16820
 C449 C 0.08167 1.08303 -0.22740
 C450 C 0.10160 1.09925 -0.25500
 H451 H 0.18188 1.11973 -0.32839
 H452 H 0.15637 1.24536 -0.29453
 H453 H 0.07497 1.15051 -0.09089
 H454 H 0.07398 1.05628 -0.25269
 H455 H 0.12328 1.21633 -0.24029
 H456 H 0.10994 1.17873 -0.13886
 H457 H 0.14818 1.09157 -0.27624
 H458 H 0.10862 1.08493 -0.30143
 C459 C 0.36447 0.35417 -0.25811
 C460 C 0.36058 0.35966 -0.32992
 C461 C 0.34088 0.34478 -0.36067
 C462 C 0.32468 0.32372 -0.32052
 C463 C 0.32858 0.31778 -0.24893
 C464 C 0.34823 0.33301 -0.21795
 C465 C 0.38540 0.37052 -0.22564
 C466 C 0.39653 0.34783 -0.17319
 C467 C 0.41653 0.36292 -0.14417
 C468 C 0.42586 0.40077 -0.16746
 C469 C 0.41466 0.42366 -0.21922
 C470 C 0.39461 0.40882 -0.24773
 H471 H 0.33848 0.34909 -0.41624
 H472 H 0.31625 0.30193 -0.21675
 H473 H 0.42486 0.34466 -0.10432
 H474 H 0.42135 0.45320 -0.23759
 H475 H 0.35054 0.32876 -0.16236
 H476 H 0.39004 0.31800 -0.15553
 H477 H 0.37293 0.37496 -0.36273
 H478 H 0.38624 0.42755 -0.28687
 C479 C -0.13282 0.84287 -0.25110
 C480 C -0.15191 0.86786 -0.26138
 C481 C -0.17112 0.85125 -0.29283
 C482 C -0.17162 0.80934 -0.31531
 C483 C -0.15259 0.78420 -0.30403
 C484 C -0.13344 0.80075 -0.27200
 C485 C -0.11211 0.86105 -0.22061
 C486 C -0.09995 0.83938 -0.16931
 C487 C -0.08025 0.85648 -0.14146
 C488 C -0.07222 0.89532 -0.16505
 C489 C -0.08437 0.91696 -0.21630
 C490 C -0.10416 0.90009 -0.24357
 H491 H -0.18562 0.87125 -0.29936
 H492 H -0.15224 0.75201 -0.32166
 H493 H -0.07123 0.83920 -0.10188
 H494 H -0.07860 0.94701 -0.23534
 H495 H -0.11885 0.78094 -0.26542
 H496 H -0.10582 0.80938 -0.15033
 H497 H -0.15199 0.90027 -0.24481
 H498 H -0.11307 0.91725 -0.28357
 C499 C 0.37117 0.66560 0.25693
 C500 C 0.35269 0.67694 0.21554
 C501 C 0.33356 0.69465 0.24605
 C502 C 0.33261 0.70167 0.31846
 C503 C 0.35124 0.69092 0.35963
 C504 C 0.37028 0.67301 0.32922
 C505 C 0.39118 0.64547 0.22520
 C506 C 0.40142 0.61122 0.25815
 C507 C 0.42035 0.59228 0.22877
 C508 C 0.42949 0.60733 0.16601
 C509 C 0.41923 0.64143 0.13277
 C510 C 0.40020 0.66025 0.16200
 H511 H 0.31950 0.70289 0.21303
 H512 H 0.35089 0.69553 0.41566
 H513 H 0.42786 0.56592 0.25536
 H514 H 0.42592 0.65361 0.08426
 H515 H 0.38437 0.66500 0.36229
 H516 H 0.39464 0.59877 0.30636
 H517 H 0.35284 0.67132 0.15977
 H518 H 0.39275 0.68679 0.13576
 C519 C -0.13627 1.14121 0.25961
 C520 C -0.15274 1.16080 0.21849
 C521 C -0.17241 1.17636 0.24898
 C522 C -0.17610 1.17240 0.32113
 C523 C -0.15972 1.15272 0.36220
 C524 C -0.14001 1.13743 0.33186
 C525 C -0.11521 1.12500 0.22765
 C526 C -0.10560 1.08751 0.25155
 C527 C -0.08547 1.07282 0.22313
 C528 C -0.07455 1.09512 0.16984
 C529 C -0.08423 1.13224 0.14505
 C530 C -0.10433 1.14710 0.17380
 H531 H -0.18487 1.19105 0.21603
 H532 H -0.16193 1.14995 0.41816
 H533 H -0.07850 1.04388 0.24279
 H534 H -0.07615 1.15006 0.10401
 H535 H -0.12751 1.12331 0.36531
 H536 H -0.11374 1.06928 0.29197
 H537 H -0.15055 1.16367 0.16257
 H538 H -0.11110 1.17634 0.15477
 C539 C 0.63223 0.34706 0.25753
 C540 C 0.65112 0.37255 0.26897
 C541 C 0.67051 0.35609 0.29930
 C542 C 0.67139 0.31382 0.31942
 C543 C 0.65251 0.28829 0.30738
 C544 C 0.63318 0.30469 0.27654
 C545 C 0.61145 0.36476 0.22698
 C546 C 0.59964 0.34290 0.17493
 C547 C 0.57992 0.35945 0.14673
 C548 C 0.57153 0.39797 0.17054
 C549 C 0.58332 0.41984 0.22257
 C550 C 0.60314 0.40347 0.25031
 H551 H 0.68488 0.37644 0.30662
 H552 H 0.65245 0.25581 0.32334
 H553 H 0.57119 0.34200 0.10652
 H554 H 0.57725 0.44964 0.24179
 H555 H 0.61876 0.28448 0.26912
 H556 H 0.60579 0.31320 0.15555
 H557 H 0.65094 0.40519 0.25388
 H558 H 0.61178 0.42077 0.29087
 C559 C 0.13616 0.85493 0.25404
 C560 C 0.15228 0.88176 0.28376
 C561 C 0.17166 0.86557 0.31469
 C562 C 0.17538 0.82218 0.31658
 C563 C 0.15942 0.79540 0.28593
 C564 C 0.14004 0.81157 0.25508
 C565 C 0.11515 0.87199 0.22347
 C566 C 0.10601 0.85465 0.16222
 C567 C 0.08593 0.87006 0.13459
 C568 C 0.07460 0.90316 0.16758
 C569 C 0.08380 0.92080 0.22835
 C570 C 0.10383 0.90534 0.25607
 H571 H 0.18350 0.88702 0.33844
 H572 H 0.16192 0.76185 0.28578
 H573 H 0.07930 0.85607 0.08736
 H574 H 0.07541 0.94633 0.25492
 H575 H 0.12786 0.79002 0.23329
 H576 H 0.11447 0.82935 0.13529
 H577 H 0.14993 0.91534 0.28307
 H578 H 0.11024 0.91901 0.30383
   
