data_POSCAR
  _audit_creation_date              2014-09-24
  _audit_creation_method            'ToBaCCo'
  _symmetry_space_group_name_H-M    'P1'
  _symmetry_Int_Tables_number       1
  _symmetry_cell_setting            triclinic
  loop_
  _symmetry_equiv_pos_as_xyz
 x,y,z
_cell_length_a 21.1358
_cell_length_b 20.0356
_cell_length_c 20.0987
_cell_angle_alpha 89.348500
_cell_angle_beta 90.706600
_cell_angle_gamma 91.643900
loop_
  _atom_site_label
  _atom_site_type_symbol
  _atom_site_fract_x
  _atom_site_fract_y
  _atom_site_fract_z
C1 C 0.19285 0.15678 0.24411
 C2 C 0.25404 0.14125 0.22289
 C3 C 0.28147 0.17495 0.16726
 C4 C 0.24763 0.22617 0.13582
 C5 C 0.18921 0.24473 0.15969
 C6 C 0.16255 0.21080 0.21379
 H7 H 0.27722 0.09984 0.24680
 H8 H 0.26647 0.25183 0.09221
 H9 H 0.11727 0.22674 0.23134
 C10 C -0.18726 0.82832 0.25293
 C11 C -0.22633 0.86453 0.21013
 C12 C -0.22725 0.85283 0.14172
 C13 C -0.19027 0.80355 0.11551
 C14 C -0.15443 0.76379 0.15801
 C15 C -0.15282 0.77588 0.22673
 H16 H -0.25274 0.90570 0.22923
 H17 H -0.19038 0.79526 0.06225
 H18 H -0.12178 0.74697 0.25802
 C19 C -0.16589 0.17813 -0.27468
 C20 C -0.22817 0.15278 -0.26570
 C21 C -0.26193 0.16492 -0.20756
 C22 C -0.23317 0.20615 -0.15828
 C23 C -0.17135 0.23287 -0.16673
 C24 C -0.13831 0.21820 -0.22479
 H25 H -0.24971 0.11896 -0.30141
 H26 H -0.25659 0.21498 -0.11180
 H27 H -0.08950 0.23546 -0.22980
 C28 C 0.16331 0.80671 -0.27671
 C29 C 0.14056 0.75449 -0.23578
 C30 C 0.17514 0.73344 -0.17935
 C31 C 0.23186 0.76880 -0.16235
 C32 C 0.25584 0.82131 -0.20362
 C33 C 0.22237 0.83727 -0.26198
 H34 H 0.09406 0.73301 -0.24647
 H35 H 0.25734 0.75457 -0.11758
 H36 H 0.23935 0.87927 -0.29171
 C37 C 0.16612 1.18618 0.74263
 C38 C 0.22140 1.16702 0.77571
 C39 C 0.25073 1.20790 0.82408
 C40 C 0.22235 1.26808 0.84079
 C41 C 0.16542 1.28787 0.80914
 C42 C 0.13895 1.24707 0.75852
 H43 H 0.23980 1.11827 0.76568
 H44 H 0.24451 1.29802 0.87940
 H45 H 0.09441 1.26001 0.73510
 C46 C 0.81882 0.83897 0.78171
 C47 C 0.76113 0.85274 0.81151
 C48 C 0.73653 0.81260 0.86358
 C49 C 0.77229 0.75879 0.88821
 C50 C 0.83167 0.74496 0.86007
 C51 C 0.85342 0.78494 0.80643
 H52 H 0.73566 0.89617 0.79477
 H53 H 0.75499 0.73029 0.93063
 H54 H 0.89958 0.77565 0.78628
 C55 C 0.20249 0.83558 1.27763
 C56 C 0.17536 0.77812 1.24645
 C57 C 0.20216 0.75314 1.18792
 C58 C 0.25543 0.78497 1.16100
 C59 C 0.28329 0.84077 1.19160
 C60 C 0.25789 0.86455 1.25046
 H61 H 0.13252 0.75433 1.26503
 H62 H 0.27270 0.76811 1.11373
 H63 H 0.27891 0.90943 1.27223
 C64 C 0.80938 1.17382 1.26607
 C65 C 0.74997 1.14646 1.24528
 C66 C 0.71934 1.16985 1.18681
 C67 C 0.74861 1.22159 1.14928
 C68 C 0.80538 1.25229 1.17050
 C69 C 0.83536 1.22778 1.22886
 H70 H 0.72861 1.10448 1.27174
 H71 H 0.72785 1.23897 1.10315
 H72 H 0.88166 1.24764 1.24327
 O73 O 0.55209 0.94410 0.85602
 O74 O 0.46413 0.90596 1.07199
 O75 O 0.65792 0.98763 1.02640
 O76 O 0.36061 0.97161 0.93196
 O77 O 0.57719 0.93092 1.06885
 O78 O 0.42971 0.93126 0.86132
 O79 O 0.37920 0.96110 1.05065
 O80 O 0.58789 0.91977 0.95348
 C81 C 0.58567 0.90813 0.89299
 C82 C 0.40554 0.90915 1.07169
 C83 C 0.63564 0.94669 1.07257
 C84 C 0.37602 0.92892 0.88902
 O85 O 0.42160 1.05774 0.84904
 O86 O 0.55733 1.05621 1.10632
 O87 O 0.61961 1.03738 0.90787
 O88 O 0.42082 1.09347 1.05242
 O89 O 0.44506 1.02344 1.12537
 O90 O 0.53971 1.07780 0.85521
 O91 O 0.39329 1.10423 0.93876
 O92 O 0.59287 1.09154 1.01307
 Co93 Co 0.48722 1.00305 0.86676
 Co94 Co 0.50931 0.98253 1.08221
 Co95 Co 0.58505 1.00607 0.98450
 Co96 Co 0.39653 1.03081 0.99284
 O97 O 0.49064 1.00842 0.97640
 C98 C 0.39117 1.10122 0.87737
 C99 C 0.58816 1.09929 1.07379
 C100 C 0.59723 1.08144 0.87106
 C101 C 0.41912 1.07639 1.11120
 O102 O 0.07832 0.44601 0.14382
 O103 O 0.01836 0.56423 -0.11471
 O104 O 0.07728 0.39693 -0.01536
 O105 O 0.10360 0.60280 0.07142
 O106 O 0.04502 0.44388 -0.10488
 O107 O 0.06110 0.56704 0.16061
 O108 O 0.08860 0.58821 -0.04357
 O109 O 0.03626 0.36194 0.09021
 C110 C 0.07822 0.38586 0.12868
 C111 C 0.07066 0.59134 -0.10173
 C112 C 0.08513 0.40899 -0.07506
 C113 C 0.10193 0.60206 0.13284
 O114 O -0.05731 0.55197 0.15314
 O115 O -0.07436 0.41829 -0.06129
 O116 O -0.08059 0.39559 0.05639
 O117 O -0.03579 0.62760 -0.03336
 O118 O -0.09296 0.53945 -0.05888
 O119 O -0.04471 0.42678 0.15153
 O120 O -0.01982 0.63298 0.08706
 O121 O -0.02535 0.32884 -0.02768
 Co122 Co 0.00909 0.49738 0.14016
 Co123 Co -0.02253 0.49208 -0.07473
 Co124 Co -0.00099 0.40245 0.01860
 Co125 Co 0.03186 0.60406 0.02037
 O126 O 0.00743 0.50242 0.03038
 C127 C -0.05760 0.61131 0.13184
 C128 C -0.06294 0.35722 -0.07164
 C129 C -0.08464 0.39466 0.11822
 C130 C -0.08815 0.60139 -0.05162
 O131 O 1.07422 0.07824 0.40803
 O132 O 0.86669 0.02609 0.55756
 O133 O 0.93513 0.06957 0.39238
 O134 O 1.05722 0.04464 0.62630
 O135 O 0.85929 0.01086 0.43820
 O136 O 1.08501 0.09569 0.53496
 O137 O 0.94952 0.07429 0.59735
 O138 O 1.02206 0.02790 0.32302
 C139 C 1.06638 0.06889 0.34502
 C140 C 0.89164 0.07367 0.58841
 C141 C 0.87714 0.06017 0.40197
 C142 C 1.08413 0.09353 0.59755
 O143 O 1.11859 -0.03275 0.55048
 O144 O 0.91019 -0.11311 0.45576
 O145 O 1.02468 -0.08205 0.38112
 O146 O 0.94882 -0.03368 0.66526
 O147 O 0.91568 -0.09530 0.57912
 O148 O 1.11213 -0.04721 0.42583
 O149 O 1.03750 -0.07899 0.60330
 O150 O 0.91741 -0.05714 0.36387
 Co151 Co 1.08835 0.02110 0.48125
 Co152 Co 0.89591 -0.04042 0.50625
 Co153 Co 0.98303 -0.00484 0.39410
 Co154 Co 0.99002 -0.00406 0.59318
 O155 O 0.99016 -0.00621 0.49320
 C156 C 1.09582 -0.07689 0.59031
 C157 C 0.90038 -0.10951 0.39447
 C158 C 1.08262 -0.08757 0.38848
 C159 C 0.91391 -0.08336 0.64191
 C160 C 1.16191 0.11705 0.29277
 C161 C 1.09845 0.11299 0.29733
 H162 H 1.18975 0.08416 0.32396
 H163 H 1.06819 0.13583 0.26032
 C164 C 0.82284 -0.14610 0.31666
 C165 C 0.86970 -0.16351 0.35774
 H166 H 0.79891 -0.10038 0.32837
 H167 H 0.89472 -0.20950 0.35387
 C168 C 0.87265 0.15686 0.67333
 C169 C 0.85124 0.12119 0.62119
 H170 H 0.92347 0.16432 0.67929
 H171 H 0.80136 0.11702 0.60910
 C172 C 1.11977 -0.16371 0.67336
 C173 C 1.13925 -0.12189 0.62480
 H174 H 1.06942 -0.17156 0.68120
 H175 H 1.18899 -0.11568 0.61359
 C176 C 0.33782 1.15596 1.13689
 C177 C 0.37515 1.10665 1.15765
 H178 H 0.34953 1.18023 1.08988
 H179 H 0.36859 1.08195 1.20521
 C180 C 0.30934 0.86232 0.81236
 C181 C 0.32980 0.87424 0.87444
 H182 H 0.32988 0.89342 0.77315
 H183 H 0.30531 0.85168 0.91639
 C184 C 0.73407 0.89328 1.09747
 C185 C 0.67637 0.90903 1.11582
 H186 H 0.75135 0.90659 1.04835
 H187 H 0.65645 0.88948 1.16177
 C188 C 0.68073 1.12808 0.80166
 C189 C 0.63946 1.13706 0.85036
 H190 H 0.67058 1.08647 0.76863
 H191 H 0.64409 1.17907 0.88350
 C192 C 0.15265 0.29594 0.12518
 C193 C 0.12447 0.34279 0.15966
 H194 H 0.14664 0.29335 0.07160
 H195 H 0.13487 0.34898 0.21223
 C196 C -0.13905 0.27069 -0.11215
 C197 C -0.09653 0.32004 -0.12450
 H198 H -0.15130 0.25865 -0.06110
 H199 H -0.08868 0.33709 -0.17511
 C200 C 0.14954 0.67994 -0.13372
 C201 C 0.10387 0.63470 -0.15111
 H202 H 0.16734 0.67974 -0.08291
 H203 H 0.08637 0.63249 -0.20182
 C204 C -0.11447 0.71402 0.12881
 C205 C -0.10201 0.65684 0.15998
 H206 H -0.09552 0.72457 0.07975
 H207 H -0.12475 0.64318 0.20640
 C208 C 1.13236 0.13626 0.70062
 C209 C 1.11463 0.14749 0.63734
 H210 H 1.12628 0.08642 0.72161
 H211 H 1.12519 0.19541 0.61392
 C212 C 0.84233 -0.11748 0.73155
 C213 C 0.88715 -0.13331 0.68824
 H214 H 0.82171 -0.06866 0.72626
 H215 H 0.90352 -0.18376 0.68452
 C216 C 1.17424 -0.12972 0.33004
 C217 C 1.11456 -0.13947 0.35074
 H218 H 1.20011 -0.08655 0.34971
 H219 H 1.08457 -0.17893 0.33037
 C220 C 0.84719 0.14641 0.31824
 C221 C 0.82987 0.09682 0.36090
 H222 H 0.89564 0.16541 0.32251
 H223 H 0.78146 0.07803 0.36226
 C224 C 0.12777 0.34538 -0.16777
 C225 C 0.13688 0.37539 -0.10881
 H226 H 0.08492 0.35627 -0.19557
 H227 H 0.17655 0.36246 -0.07737
 C228 C -0.16692 0.30357 0.13064
 C229 C -0.12702 0.34958 0.15622
 H230 H -0.17932 0.30684 0.07820
 H231 H -0.12073 0.35202 0.20974
 C232 C -0.12656 0.69640 -0.11500
 C233 C -0.14006 0.64540 -0.07299
 H234 H -0.07839 0.69932 -0.13334
 H235 H -0.18803 0.63374 -0.05763
 C236 C 0.17126 0.70026 0.14756
 C237 C 0.14131 0.64729 0.17391
 H238 H 0.17333 0.70560 0.09385
 H239 H 0.13995 0.64090 0.22749
 C240 C 0.30569 1.18326 0.86347
 C241 C 0.34834 1.14301 0.83715
 H242 H 0.30810 1.19441 0.91609
 H243 H 0.34728 1.13438 0.78402
 C244 C 0.33108 0.88222 1.15689
 C245 C 0.36812 0.86004 1.10891
 H246 H 0.33361 0.93490 1.16917
 H247 H 0.37227 0.80748 1.09862
 C248 C 0.66089 1.13386 1.16252
 C249 C 0.62772 1.15038 1.10729
 H250 H 0.64880 1.08694 1.18738
 H251 H 0.63829 1.19544 1.07928
 C252 C 0.67779 0.83337 0.89717
 C253 C 0.62991 0.86139 0.86290
 H254 H 0.67778 0.83319 0.95108
 H255 H 0.62948 0.85911 0.80906
   
