data_POSCAR
  _audit_creation_date              2014-09-24
  _audit_creation_method            'ToBaCCo'
  _symmetry_space_group_name_H-M    'P1'
  _symmetry_Int_Tables_number       1
  _symmetry_cell_setting            triclinic
  loop_
  _symmetry_equiv_pos_as_xyz
 x,y,z
_cell_length_a 56.2443
_cell_length_b 54.8907
_cell_length_c 55.6483
_cell_angle_alpha 89.930100
_cell_angle_beta 90.086000
_cell_angle_gamma 89.987200
loop_
  _atom_site_label
  _atom_site_type_symbol
  _atom_site_fract_x
  _atom_site_fract_y
  _atom_site_fract_z
O1 O 0.32040 0.34913 0.01583
 O2 O 0.35471 0.32007 -0.03225
 O3 O 0.32053 0.35181 -0.03084
 O4 O 0.35399 0.31648 0.01411
 O5 O 0.32725 0.28702 0.01204
 O6 O 0.29376 0.32239 -0.03308
 O7 O 0.32812 0.29048 -0.03455
 O8 O 0.29349 0.31983 0.01382
 Cu9 Cu 0.34005 0.33736 -0.00802
 Cu10 Cu 0.30790 0.30198 -0.01062
 C11 C 0.30116 0.33952 0.02293
 C12 C 0.34736 0.30034 -0.04143
 C13 C 0.30154 0.34305 -0.03961
 C14 C 0.34643 0.29568 0.02048
 O15 O 0.68917 0.65833 0.02846
 O16 O 0.65364 0.69073 -0.01696
 O17 O 0.68699 0.65797 -0.01811
 O18 O 0.65496 0.69067 0.02937
 O19 O 0.68167 0.72022 0.02834
 O20 O 0.71403 0.68717 -0.01939
 O21 O 0.68051 0.72013 -0.01820
 O22 O 0.71611 0.68764 0.02746
 Cu23 Cu 0.66855 0.67144 0.00588
 Cu24 Cu 0.70087 0.70672 0.00453
 C25 C 0.70876 0.66733 0.03543
 C26 C 0.66092 0.71100 -0.02507
 C27 C 0.70589 0.66694 -0.02678
 C28 C 0.66252 0.71119 0.03649
 O29 O 0.68879 0.35023 0.97646
 O30 O 0.65407 0.31808 1.02246
 O31 O 0.68589 0.35214 1.02284
 O32 O 0.65648 0.31587 0.97598
 O33 O 0.68463 0.28788 0.97877
 O34 O 0.71422 0.32435 1.02587
 O35 O 0.68224 0.29012 1.02549
 O36 O 0.71715 0.32246 0.97926
 Cu37 Cu 0.66846 0.33685 0.99901
 Cu38 Cu 0.70243 0.30335 1.00251
 C39 C 0.70900 0.34208 0.97040
 C40 C 0.66228 0.29875 1.03181
 C41 C 0.70498 0.34441 1.03229
 C42 C 0.66532 0.29560 0.96971
 O43 O 0.34449 0.67958 1.02706
 O44 O 0.30955 0.64911 0.98004
 O45 O 0.34462 0.68006 0.98032
 O46 O 0.30962 0.64832 1.02639
 O47 O 0.28363 0.67855 1.02679
 O48 O 0.31890 0.71053 0.98049
 O49 O 0.28363 0.67941 0.98024
 O50 O 0.31871 0.71000 1.02747
 Cu51 Cu 0.32972 0.66128 1.00344
 Cu52 Cu 0.29867 0.69778 1.00380
 C53 C 0.33758 0.69996 1.03517
 C54 C 0.29055 0.65889 0.97244
 C55 C 0.33775 0.70064 0.97262
 C56 C 0.29054 0.65780 1.03409
 O57 O 0.01992 0.30024 0.33774
 O58 O -0.02489 0.33377 0.30293
 O59 O -0.02595 0.30117 0.33710
 O60 O 0.02104 0.33258 0.30339
 O61 O 0.02082 0.30327 0.27616
 O62 O -0.02644 0.27169 0.31006
 O63 O -0.02538 0.30453 0.27563
 O64 O 0.01969 0.27068 0.31076
 Cu65 Cu -0.00244 0.31989 0.32299
 Cu66 Cu -0.00287 0.28457 0.29038
 C67 C 0.02713 0.27968 0.33039
 C68 C -0.03247 0.32506 0.28328
 C69 C -0.03387 0.28096 0.32954
 C70 C 0.02868 0.32344 0.28396
 O71 O 0.02358 0.69791 0.65766
 O72 O -0.02067 0.66398 0.69283
 O73 O -0.02220 0.69802 0.66003
 O74 O 0.02530 0.66344 0.68961
 O75 O 0.02739 0.69115 0.71836
 O76 O -0.02039 0.72617 0.68838
 O77 O -0.01890 0.69184 0.72144
 O78 O 0.02564 0.72585 0.68620
 Cu79 Cu 0.00124 0.67800 0.67221
 Cu80 Cu 0.00356 0.71154 0.70656
 C81 C 0.03193 0.71770 0.66585
 C82 C -0.02710 0.67202 0.71316
 C83 C -0.02900 0.71813 0.66882
 C84 C 0.03436 0.67134 0.70894
 O85 O 0.98604 0.67285 0.35986
 O86 O 1.03161 0.63807 0.32738
 O87 O 1.03225 0.67229 0.35972
 O88 O 0.98542 0.63891 0.32734
 O89 O 0.98568 0.66687 0.29869
 O90 O 1.03264 0.70033 0.33116
 O91 O 1.03203 0.66597 0.29868
 O92 O 0.98626 0.70093 0.33133
 Cu93 Cu 1.00882 0.65272 0.34645
 Cu94 Cu 1.00921 0.68636 0.31207
 C95 C 0.97844 0.69273 0.35114
 C96 C 1.03945 0.64604 0.30752
 C97 C 1.04031 0.69198 0.35098
 C98 C 0.97766 0.64721 0.30754
 O99 O 0.96900 0.32390 0.64416
 O100 O 1.01425 0.35602 0.67991
 O101 O 1.01521 0.32356 0.64574
 O102 O 0.96824 0.35685 0.67770
 O103 O 0.96675 0.32781 0.70524
 O104 O 1.01394 0.29428 0.67302
 O105 O 1.01295 0.32688 0.70735
 O106 O 0.96755 0.29471 0.67154
 Cu107 Cu 0.99184 0.34298 0.65910
 Cu108 Cu 0.99018 0.30794 0.69203
 C109 C 0.96063 0.30388 0.65180
 C110 C 1.02107 0.34703 0.69977
 C111 C 1.02245 0.30328 0.65384
 C112 C 0.95967 0.34810 0.69691
 O113 O 0.31554 -0.01654 0.34894
 O114 O 0.34945 0.03146 0.31829
 O115 O 0.31733 0.03051 0.35165
 O116 O 0.34820 -0.01570 0.31551
 O117 O 0.32025 -0.01319 0.28764
 O118 O 0.28918 0.03325 0.32399
 O119 O 0.32146 0.03418 0.29045
 O120 O 0.28739 -0.01403 0.32126
 Cu121 Cu 0.33546 0.00707 0.33636
 Cu122 Cu 0.30173 0.01022 0.30300
 C123 C 0.29558 -0.02312 0.34055
 C124 C 0.34121 0.04095 0.29923
 C125 C 0.29806 0.03966 0.34399
 C126 C 0.33968 -0.02204 0.29537
 O127 O 0.67804 -0.03248 0.64445
 O128 O 0.64800 0.01734 0.67619
 O129 O 0.68149 0.01461 0.64393
 O130 O 0.64509 -0.02991 0.67694
 O131 O 0.67230 -0.03155 0.70563
 O132 O 0.70879 0.01315 0.67253
 O133 O 0.67514 0.01591 0.70496
 O134 O 0.70541 -0.03415 0.67299
 Cu135 Cu 0.66041 -0.00739 0.65752
 Cu136 Cu 0.69316 -0.00926 0.69195
 C137 C 0.69680 -0.04168 0.65326
 C138 C 0.65634 0.02496 0.69598
 C139 C 0.70138 0.02123 0.65250
 C140 C 0.65255 -0.03829 0.69683
 O141 O 0.34604 0.98088 0.69141
 O142 O 0.31258 1.02774 0.65829
 O143 O 0.34548 1.02790 0.69160
 O144 O 0.31445 0.98057 0.65728
 O145 O 0.28605 0.97926 0.68470
 O146 O 0.31753 1.02683 0.71948
 O147 O 0.28439 1.02671 0.68593
 O148 O 0.31781 0.97961 0.71902
 Cu149 Cu 0.33243 1.00447 0.67185
 Cu150 Cu 0.29854 1.00308 0.70504
 C151 C 0.33768 0.97248 0.71090
 C152 C 0.29268 1.03491 0.66635
 C153 C 0.33714 1.03499 0.71153
 C154 C 0.29504 0.97194 0.66506
 O155 O 0.68292 1.02137 0.34595
 O156 O 0.65126 0.97132 0.31649
 O157 O 0.68564 0.97426 0.34775
 O158 O 0.64973 1.01836 0.31348
 O159 O 0.67660 1.01826 0.28450
 O160 O 0.71244 0.97394 0.31871
 O161 O 0.67785 0.97095 0.28725
 O162 O 0.70999 1.02133 0.31717
 Cu163 Cu 0.66472 0.99634 0.33383
 Cu164 Cu 0.69696 0.99608 0.29898
 C165 C 0.70182 1.02973 0.33675
 C166 C 0.65896 0.96283 0.29682
 C167 C 0.70517 0.96676 0.33909
 C168 C 0.65703 1.02564 0.29313
 C169 C 0.87904 0.78250 0.50351
 C170 C 0.86813 0.78641 0.48129
 C171 C 0.84822 0.80169 0.47959
 C172 C 0.83961 0.81412 0.50005
 C173 C 0.85142 0.81040 0.52222
 C174 C 0.87058 0.79426 0.52399
 C175 C 0.81858 0.83085 0.49842
 C176 C 0.80456 0.83575 0.51893
 C177 C 0.78581 0.85243 0.51785
 C178 C 0.77987 0.86347 0.49608
 C179 C 0.79297 0.85838 0.47541
 C180 C 0.81250 0.84256 0.47658
 H181 H 0.89417 0.77030 0.50485
 H182 H 0.83957 0.80359 0.46232
 H183 H 0.84604 0.82004 0.53825
 H184 H 0.80810 0.82688 0.53592
 H185 H 0.76524 0.87634 0.49530
 H186 H 0.82301 0.83990 0.46054
 C187 C 0.11912 0.21614 0.50001
 C188 C 0.12700 0.20429 0.47934
 C189 C 0.14586 0.18771 0.48071
 C190 C 0.15800 0.18365 0.50265
 C191 C 0.15000 0.19627 0.52328
 C192 C 0.13034 0.21192 0.52202
 C193 C 0.17867 0.16629 0.50391
 C194 C 0.18538 0.15517 0.52587
 C195 C 0.20464 0.13900 0.52686
 C196 C 0.21679 0.13284 0.50589
 C197 C 0.21021 0.14317 0.48397
 C198 C 0.19177 0.16027 0.48304
 H199 H 0.10419 0.22861 0.49898
 H200 H 0.15067 0.17802 0.46455
 H201 H 0.15888 0.19423 0.54041
 H202 H 0.17563 0.15858 0.54225
 H203 H 0.23124 0.11976 0.50660
 H204 H 0.18785 0.16863 0.46589
 C205 C 0.13173 0.78471 0.50273
 C206 C 0.13751 0.79750 0.52356
 C207 C 0.15490 0.81570 0.52290
 C208 C 0.16765 0.82059 0.50153
 C209 C 0.16180 0.80705 0.48071
 C210 C 0.14357 0.78965 0.48126
 C211 C 0.18662 0.83984 0.50102
 C212 C 0.19296 0.85160 0.47933
 C213 C 0.21062 0.86960 0.47903
 C214 C 0.22145 0.87688 0.50044
 C215 C 0.21515 0.86586 0.52212
 C216 C 0.19838 0.84703 0.52236
 H217 H 0.11786 0.77098 0.50320
 H218 H 0.15806 0.82604 0.53911
 H219 H 0.17123 0.80976 0.46401
 H220 H 0.18412 0.84725 0.46261
 H221 H 0.23465 0.89129 0.50025
 H222 H 0.19467 0.83824 0.53934
 C223 C 0.86920 0.21545 0.49416
 C224 C 0.85779 0.21000 0.51576
 C225 C 0.83952 0.19264 0.51629
 C226 C 0.83317 0.17966 0.49528
 C227 C 0.84552 0.18502 0.47378
 C228 C 0.86294 0.20319 0.47315
 C229 C 0.81396 0.16065 0.49568
 C230 C 0.80171 0.15430 0.47437
 C231 C 0.78472 0.13572 0.47436
 C232 C 0.77867 0.12409 0.49579
 C233 C 0.78994 0.13053 0.51722
 C234 C 0.80783 0.14832 0.51716
 H235 H 0.88308 0.22916 0.49372
 H236 H 0.83041 0.18952 0.53311
 H237 H 0.84199 0.17508 0.45740
 H238 H 0.80521 0.16358 0.45760
 H239 H 0.76530 0.10984 0.49575
 H240 H 0.81699 0.15208 0.53384
 C241 C 0.49534 0.86908 0.78323
 C242 C 0.47444 0.86302 0.79527
 C243 C 0.47488 0.84575 0.81379
 C244 C 0.49616 0.83339 0.81980
 C245 C 0.51704 0.83944 0.80690
 C246 C 0.51667 0.85761 0.78920
 C247 C 0.49661 0.81471 0.83958
 C248 C 0.51801 0.80905 0.85176
 C249 C 0.51843 0.79154 0.87006
 C250 C 0.49741 0.78025 0.87730
 C251 C 0.47597 0.78593 0.86596
 C252 C 0.47561 0.80253 0.84683
 H253 H 0.49504 0.88294 0.76931
 H254 H 0.45857 0.84244 0.82352
 H255 H 0.53369 0.83026 0.81038
 H256 H 0.53444 0.81829 0.84747
 H257 H 0.49771 0.76713 0.89190
 H258 H 0.45886 0.80573 0.83782
 C259 C 0.50012 0.13156 0.21863
 C260 C 0.47938 0.14392 0.21226
 C261 C 0.47998 0.16188 0.19439
 C262 C 0.50123 0.16689 0.18178
 C263 C 0.52194 0.15373 0.18818
 C264 C 0.52142 0.13659 0.20683
 C265 C 0.50171 0.18542 0.16194
 C266 C 0.52311 0.19726 0.15553
 C267 C 0.52365 0.21392 0.13648
 C268 C 0.50274 0.21990 0.12432
 C269 C 0.48132 0.20888 0.13068
 C270 C 0.48082 0.19137 0.14899
 H271 H 0.49964 0.11781 0.23265
 H272 H 0.46377 0.17173 0.19053
 H273 H 0.53848 0.15635 0.17864
 H274 H 0.53946 0.19375 0.16517
 H275 H 0.50318 0.23306 0.10976
 H276 H 0.46413 0.18236 0.15272
 C277 C 0.50347 0.12622 0.78008
 C278 C 0.52538 0.13698 0.78525
 C279 C 0.52676 0.15614 0.80179
 C280 C 0.50631 0.16407 0.81430
 C281 C 0.48443 0.15237 0.80927
 C282 C 0.48297 0.13406 0.79185
 C283 C 0.50771 0.18425 0.83247
 C284 C 0.48727 0.19798 0.83840
 C285 C 0.48816 0.21593 0.85618
 C286 C 0.50968 0.22149 0.86737
 C287 C 0.53030 0.20876 0.86131
 C288 C 0.52929 0.18989 0.84437
 H289 H 0.50240 0.11166 0.76696
 H290 H 0.54384 0.16472 0.80463
 H291 H 0.46839 0.15712 0.81884
 H292 H 0.47047 0.19489 0.82945
 H293 H 0.51033 0.23559 0.88101
 H294 H 0.54532 0.17960 0.84095
 C295 C 0.49518 0.87298 0.22087
 C296 C 0.51627 0.86097 0.21512
 C297 C 0.51624 0.84244 0.19791
 C298 C 0.49530 0.83653 0.18509
 C299 C 0.47417 0.84924 0.19090
 C300 C 0.47407 0.86696 0.20905
 C301 C 0.49573 0.81752 0.16567
 C302 C 0.47479 0.80511 0.15869
 C303 C 0.47532 0.78776 0.14025
 C304 C 0.49683 0.78169 0.12929
 C305 C 0.51779 0.79335 0.13618
 C306 C 0.51718 0.81156 0.15375
 H307 H 0.49523 0.88717 0.23442
 H308 H 0.53273 0.83287 0.19470
 H309 H 0.45778 0.84584 0.18131
 H310 H 0.45800 0.80866 0.16745
 H311 H 0.49724 0.76796 0.11529
 H312 H 0.53356 0.82103 0.15775
 C313 C 0.78412 0.50725 0.87668
 C314 C 0.79493 0.48566 0.86929
 C315 C 0.81239 0.48615 0.85139
 C316 C 0.81848 0.50822 0.83975
 C317 C 0.80684 0.52979 0.84716
 C318 C 0.79025 0.52933 0.86590
 C319 C 0.83695 0.50873 0.82025
 C320 C 0.84955 0.53037 0.81484
 C321 C 0.86658 0.53081 0.79651
 C322 C 0.87210 0.50950 0.78408
 C323 C 0.86032 0.48781 0.78945
 C324 C 0.84245 0.48750 0.80694
 H325 H 0.77100 0.50690 0.89095
 H326 H 0.82120 0.46925 0.84696
 H327 H 0.81042 0.54707 0.83855
 H328 H 0.84656 0.54694 0.82487
 H329 H 0.88573 0.50975 0.77030
 H330 H 0.83303 0.47061 0.80994
 C331 C 0.21728 0.49354 0.12518
 C332 C 0.21169 0.47102 0.13534
 C333 C 0.19515 0.46961 0.15407
 C334 C 0.18301 0.49066 0.16209
 C335 C 0.18857 0.51321 0.15109
 C336 C 0.20599 0.51465 0.13319
 C337 C 0.16456 0.48908 0.18154
 C338 C 0.15849 0.50975 0.19543
 C339 C 0.14063 0.50843 0.21289
 C340 C 0.12944 0.48628 0.21765
 C341 C 0.13553 0.46551 0.20462
 C342 C 0.15253 0.46696 0.18632
 H343 H 0.23036 0.49463 0.11091
 H344 H 0.19200 0.45200 0.16219
 H345 H 0.17938 0.52976 0.15601
 H346 H 0.16744 0.52699 0.19291
 H347 H 0.11581 0.48525 0.23140
 H348 H 0.15593 0.45078 0.17581
 C349 C 0.78380 0.50496 0.13026
 C350 C 0.79610 0.52579 0.13746
 C351 C 0.81457 0.52394 0.15432
 C352 C 0.82025 0.50124 0.16503
 C353 C 0.80698 0.48056 0.15792
 C354 C 0.78940 0.48236 0.14020
 C355 C 0.84001 0.49899 0.18315
 C356 C 0.85138 0.47634 0.18727
 C357 C 0.86931 0.47408 0.20459
 C358 C 0.87708 0.49454 0.21717
 C359 C 0.86667 0.51721 0.21295
 C360 C 0.84788 0.51939 0.19651
 H361 H 0.76998 0.50632 0.11669
 H362 H 0.82449 0.54023 0.15860
 H363 H 0.81009 0.46289 0.16591
 H364 H 0.84667 0.46031 0.17707
 H365 H 0.89135 0.49283 0.23021
 H366 H 0.83958 0.53703 0.19443
 C367 C 0.21535 0.50034 0.86952
 C368 C 0.20385 0.52207 0.86379
 C369 C 0.18597 0.52234 0.84631
 C370 C 0.18013 0.50098 0.83335
 C371 C 0.19236 0.47921 0.83917
 C372 C 0.20944 0.47887 0.85753
 C373 C 0.16136 0.50150 0.81413
 C374 C 0.14888 0.48015 0.80748
 C375 C 0.13132 0.48091 0.78961
 C376 C 0.12523 0.50305 0.77889
 C377 C 0.13699 0.52438 0.78547
 C378 C 0.15536 0.52356 0.80242
 H379 H 0.22886 0.50010 0.88347
 H380 H 0.17665 0.53928 0.84322
 H381 H 0.18887 0.46246 0.82959
 H382 H 0.15235 0.46292 0.81625
 H383 H 0.11114 0.50372 0.76556
 H384 H 0.16472 0.54029 0.80632
 C385 C 0.28776 0.35167 0.04126
 C386 C 0.27703 0.36307 0.05624
 C387 C 0.26477 0.37803 0.07346
 C388 C 0.24037 0.38248 0.07087
 C389 C 0.22909 0.39949 0.08568
 C390 C 0.24216 0.41212 0.10314
 C391 C 0.26639 0.40709 0.10624
 C392 C 0.27767 0.39008 0.09144
 C393 C 0.23131 0.43194 0.11599
 C394 C 0.22234 0.44936 0.12554
 H395 H 0.23027 0.37346 0.05688
 H396 H 0.21040 0.40341 0.08295
 H397 H 0.27673 0.41693 0.11950
 H398 H 0.29659 0.38696 0.09344
 C399 C 0.72319 0.65368 0.05194
 C400 C 0.73509 0.64113 0.06509
 C401 C 0.74885 0.62490 0.07996
 C402 C 0.76956 0.61416 0.07083
 C403 C 0.78130 0.59600 0.08393
 C404 C 0.77239 0.58851 0.10625
 C405 C 0.75214 0.59982 0.11574
 C406 C 0.74039 0.61798 0.10263
 C407 C 0.78228 0.56745 0.11804
 C408 C 0.78935 0.54891 0.12726
 H409 H 0.77614 0.61920 0.05322
 H410 H 0.79677 0.58719 0.07627
 H411 H 0.74492 0.59398 0.13284
 H412 H 0.72427 0.62597 0.10978
 C413 C 0.72319 0.35606 0.95403
 C414 C 0.73480 0.36906 0.94109
 C415 C 0.74811 0.38593 0.92656
 C416 C 0.76862 0.39693 0.93591
 C417 C 0.77989 0.41563 0.92318
 C418 C 0.77070 0.42341 0.90105
 C419 C 0.75062 0.41190 0.89136
 C420 C 0.73934 0.39321 0.90409
 C421 C 0.78044 0.44459 0.88940
 C422 C 0.78762 0.46300 0.88006
 H423 H 0.77541 0.39163 0.95338
 H424 H 0.79527 0.42454 0.93095
 H425 H 0.74324 0.41792 0.87437
 H426 H 0.72337 0.38501 0.89681
 C427 C 0.27627 0.64589 0.95540
 C428 C 0.26450 0.63378 0.94181
 C429 C 0.25093 0.61799 0.92642
 C430 C 0.23063 0.60630 0.93536
 C431 C 0.21913 0.58853 0.92162
 C432 C 0.22790 0.58239 0.89887
 C433 C 0.24774 0.59464 0.88961
 C434 C 0.25924 0.61240 0.90336
 C435 C 0.21811 0.56196 0.88609
 C436 C 0.21097 0.54411 0.87577
 H437 H 0.22420 0.61031 0.95327
 H438 H 0.20395 0.57901 0.92905
 H439 H 0.25480 0.58986 0.87213
 H440 H 0.27506 0.62114 0.89637
 C441 C 0.04319 0.26609 0.34531
 C442 C 0.05584 0.25523 0.35916
 C443 C 0.07002 0.24305 0.37707
 C444 C 0.06023 0.22385 0.39040
 C445 C 0.07269 0.21407 0.40994
 C446 C 0.09500 0.22347 0.41622
 C447 C 0.10511 0.24216 0.40243
 C448 C 0.09265 0.25194 0.38291
 C449 C 0.10657 0.21549 0.43794
 C450 C 0.11597 0.20982 0.45661
 H451 H 0.04264 0.21701 0.38622
 H452 H 0.06461 0.19977 0.42058
 H453 H 0.12227 0.24970 0.40725
 H454 H 0.10028 0.26696 0.37290
 C455 C 0.04819 0.73135 0.65134
 C456 C 0.06122 0.74251 0.63815
 C457 C 0.07606 0.75525 0.62129
 C458 C 0.09915 0.74695 0.61668
 C459 C 0.11254 0.75754 0.59827
 C460 C 0.10288 0.77645 0.58442
 C461 C 0.08005 0.78523 0.58950
 C462 C 0.06667 0.77465 0.60791
 C463 C 0.11546 0.78518 0.56365
 C464 C 0.12565 0.79142 0.54565
 H465 H 0.10650 0.73182 0.62677
 H466 H 0.13009 0.75046 0.59433
 H467 H 0.07233 0.79968 0.57875
 H468 H 0.04874 0.78106 0.61120
 C469 C 0.96090 0.70623 0.36424
 C470 C 0.94648 0.71720 0.37603
 C471 C 0.92980 0.72989 0.39109
 C472 C 0.93196 0.75508 0.39451
 C473 C 0.91735 0.76699 0.41108
 C474 C 0.90051 0.75376 0.42429
 C475 C 0.89791 0.72870 0.42037
 C476 C 0.91251 0.71679 0.40380
 C477 C 0.88767 0.76542 0.44343
 C478 C 0.87806 0.77505 0.46028
 H479 H 0.94538 0.76536 0.38491
 H480 H 0.91968 0.78633 0.41414
 H481 H 0.88513 0.71825 0.43066
 H482 H 0.91081 0.69728 0.40142
 C483 C 0.94336 0.29122 0.63751
 C484 C 0.92930 0.28067 0.62489
 C485 C 0.91321 0.26817 0.60900
 C486 C 0.91333 0.24267 0.60791
 C487 C 0.89957 0.23060 0.59068
 C488 C 0.88560 0.24398 0.57450
 C489 C 0.88494 0.26944 0.57605
 C490 C 0.89870 0.28151 0.59327
 C491 C 0.87411 0.23182 0.55474
 C492 C 0.86584 0.22177 0.53739
 H493 H 0.92461 0.23218 0.61986
 H494 H 0.90043 0.21092 0.58947
 H495 H 0.87443 0.27999 0.56345
 H496 H 0.89860 0.30124 0.59384
 C497 C 0.35491 0.05926 0.28722
 C498 C 0.36735 0.07406 0.27735
 C499 C 0.38335 0.09079 0.26581
 C500 C 0.38518 0.09111 0.24071
 C501 C 0.40297 0.10489 0.22962
 C502 C 0.41896 0.11840 0.24359
 C503 C 0.41658 0.11878 0.26864
 C504 C 0.39879 0.10501 0.27973
 C505 C 0.43944 0.12928 0.23251
 C506 C 0.45733 0.13685 0.22327
 H507 H 0.37348 0.08000 0.22980
 H508 H 0.40484 0.10423 0.21026
 H509 H 0.42904 0.12892 0.27963
 H510 H 0.39766 0.10471 0.29916
 C511 C 0.64374 0.04368 0.70860
 C512 C 0.63208 0.05885 0.71889
 C513 C 0.61693 0.07613 0.73084
 C514 C 0.61436 0.07529 0.75586
 C515 C 0.59743 0.08998 0.76718
 C516 C 0.58302 0.10557 0.75352
 C517 C 0.58611 0.10697 0.72858
 C518 C 0.60304 0.09228 0.71726
 C519 C 0.56352 0.11813 0.76474
 C520 C 0.54648 0.12743 0.77408
 H521 H 0.62484 0.06270 0.76651
 H522 H 0.59502 0.08857 0.78644
 H523 H 0.57489 0.11877 0.71781
 H524 H 0.60473 0.09291 0.69788
 C525 C 0.35147 0.95526 0.72436
 C526 C 0.36391 0.94147 0.73560
 C527 C 0.37980 0.92580 0.74870
 C528 C 0.38621 0.90309 0.73924
 C529 C 0.40373 0.88911 0.75057
 C530 C 0.41491 0.89778 0.77140
 C531 C 0.40800 0.92015 0.78126
 C532 C 0.39047 0.93413 0.76993
 C533 C 0.43502 0.88494 0.78114
 C534 C 0.45263 0.87470 0.78823
 H535 H 0.37821 0.89658 0.72273
 H536 H 0.40912 0.87195 0.74267
 H537 H 0.41670 0.92714 0.79720
 H538 H 0.38579 0.95175 0.77728
 C539 C 0.64526 0.94439 0.28497
 C540 C 0.63229 0.92977 0.27554
 C541 C 0.61529 0.91349 0.26481
 C542 C 0.60030 0.89959 0.27953
 C543 C 0.58143 0.88651 0.26945
 C544 C 0.57749 0.88730 0.24460
 C545 C 0.59297 0.90052 0.22980
 C546 C 0.61182 0.91361 0.23988
 C547 C 0.55636 0.87660 0.23455
 C548 C 0.53823 0.86884 0.22591
 H549 H 0.60265 0.89961 0.29886
 H550 H 0.56945 0.87653 0.28108
 H551 H 0.58994 0.90143 0.21058
 H552 H 0.62312 0.92453 0.22837
 C553 C 0.36164 0.28880 0.94057
 C554 C 0.37475 0.27950 0.92616
 C555 C 0.39162 0.26873 0.90995
 C556 C 0.39333 0.24335 0.90810
 C557 C 0.41171 0.23286 0.89475
 C558 C 0.42846 0.24772 0.88323
 C559 C 0.42631 0.27310 0.88446
 C560 C 0.40792 0.28359 0.89780
 C561 C 0.44903 0.23692 0.87224
 C562 C 0.46671 0.22758 0.86425
 H563 H 0.38096 0.23169 0.91762
 H564 H 0.41335 0.21320 0.89410
 H565 H 0.43930 0.28475 0.87582
 H566 H 0.40690 0.30324 0.89931
 C567 C 0.64618 0.72416 0.95837
 C568 C 0.63285 0.73500 0.94517
 C569 C 0.61589 0.74751 0.93025
 C570 C 0.60940 0.73777 0.90793
 C571 C 0.59099 0.74843 0.89465
 C572 C 0.57901 0.76885 0.90365
 C573 C 0.58594 0.77899 0.92566
 C574 C 0.60434 0.76834 0.93893
 C575 C 0.55834 0.77801 0.89136
 C576 C 0.54043 0.78474 0.88147
 H577 H 0.61806 0.72155 0.90114
 H578 H 0.58563 0.74032 0.87775
 H579 H 0.57665 0.79464 0.93289
 H580 H 0.60908 0.77589 0.95627
 C581 C 0.35182 0.71206 0.05291
 C582 C 0.36462 0.72203 0.06725
 C583 C 0.38087 0.73374 0.08355
 C584 C 0.39578 0.71963 0.09821
 C585 C 0.41344 0.73082 0.11205
 C586 C 0.41625 0.75617 0.11131
 C587 C 0.40089 0.77034 0.09720
 C588 C 0.38324 0.75915 0.08335
 C589 C 0.43628 0.76737 0.12303
 C590 C 0.45374 0.77669 0.13161
 H591 H 0.39424 0.69996 0.09835
 H592 H 0.42537 0.71967 0.12270
 H593 H 0.40307 0.78993 0.09630
 H594 H 0.37195 0.77022 0.07194
 C595 C 0.64838 0.28637 0.04959
 C596 C 0.63581 0.27638 0.06407
 C597 C 0.61971 0.26488 0.08061
 C598 C 0.60609 0.27918 0.09624
 C599 C 0.58828 0.26843 0.11018
 C600 C 0.58406 0.24334 0.10855
 C601 C 0.59822 0.22892 0.09352
 C602 C 0.61602 0.23967 0.07957
 C603 C 0.56360 0.23288 0.12008
 C604 C 0.54573 0.22422 0.12836
 H605 H 0.60866 0.29873 0.09701
 H606 H 0.57725 0.27979 0.12152
 H607 H 0.59491 0.20954 0.09192
 H608 H 0.62631 0.22848 0.06739
 C609 C 0.27894 0.05184 0.65242
 C610 C 0.26742 0.06526 0.63979
 C611 C 0.25392 0.08037 0.62360
 C612 C 0.23231 0.07189 0.61423
 C613 C 0.22050 0.08516 0.59636
 C614 C 0.23025 0.10698 0.58779
 C615 C 0.25149 0.11584 0.59767
 C616 C 0.26330 0.10256 0.61554
 C617 C 0.21988 0.11895 0.56727
 C618 C 0.21226 0.12839 0.54926
 H619 H 0.22500 0.05465 0.62018
 H620 H 0.20423 0.07801 0.58868
 H621 H 0.25932 0.13255 0.59100
 H622 H 0.28010 0.10919 0.62249
 C623 C 0.71371 0.04748 0.34870
 C624 C 0.72372 0.06260 0.36070
 C625 C 0.73505 0.07962 0.37667
 C626 C 0.75954 0.07803 0.38097
 C627 C 0.76994 0.09198 0.39918
 C628 C 0.75588 0.10754 0.41318
 C629 C 0.73154 0.10979 0.40829
 C630 C 0.72115 0.09585 0.39007
 C631 C 0.76592 0.11904 0.43406
 C632 C 0.77438 0.12737 0.45219
 H633 H 0.77041 0.06533 0.37093
 H634 H 0.78874 0.08992 0.40297
 H635 H 0.72046 0.12156 0.41916
 H636 H 0.70214 0.09700 0.38708
 C637 C 0.70869 0.93948 0.64014
 C638 C 0.71842 0.92429 0.62804
 C639 C 0.72983 0.90716 0.61231
 C640 C 0.71623 0.89405 0.59563
 C641 C 0.72745 0.88000 0.57805
 C642 C 0.75232 0.87899 0.57710
 C643 C 0.76590 0.89137 0.59432
 C644 C 0.75468 0.90544 0.61190
 C645 C 0.76387 0.86780 0.55692
 C646 C 0.77374 0.85993 0.53937
 H647 H 0.69702 0.89546 0.59565
 H648 H 0.71680 0.87074 0.56465
 H649 H 0.78514 0.89095 0.59357
 H650 H 0.76536 0.91569 0.62455
 C651 C 0.28171 0.95957 0.35382
 C652 C 0.27033 0.94581 0.36617
 C653 C 0.25722 0.93028 0.38225
 C654 C 0.26683 0.90791 0.38954
 C655 C 0.25564 0.89430 0.40753
 C656 C 0.23480 0.90301 0.41830
 C657 C 0.22479 0.92501 0.41048
 C658 C 0.23597 0.93862 0.39249
 C659 C 0.22510 0.89063 0.43888
 C660 C 0.21793 0.88079 0.45684
 H661 H 0.28338 0.90142 0.38194
 H662 H 0.26366 0.87743 0.41360
 H663 H 0.20881 0.93203 0.41884
 H664 H 0.22852 0.95601 0.38716
 C665 C 0.03780 0.36034 0.71413
 C666 C 0.05135 0.37238 0.72600
 C667 C 0.06693 0.38779 0.73979
 C668 C 0.05853 0.39918 0.76064
 C669 C 0.07271 0.41623 0.77263
 C670 C 0.09535 0.42195 0.76383
 C671 C 0.10402 0.41004 0.74337
 C672 C 0.08985 0.39299 0.73138
 C673 C 0.10865 0.44171 0.77424
 C674 C 0.11927 0.45913 0.78190
 H675 H 0.04077 0.39544 0.76720
 H676 H 0.06572 0.42551 0.78828
 H677 H 0.12140 0.41451 0.73625
 H678 H 0.09645 0.38445 0.71517
 C679 C 0.05665 0.63184 0.29468
 C680 C 0.07058 0.61906 0.28412
 C681 C 0.08644 0.60281 0.27172
 C682 C 0.10034 0.58625 0.28481
 C683 C 0.11375 0.56860 0.27281
 C684 C 0.11334 0.56746 0.24767
 C685 C 0.10000 0.58447 0.23455
 C686 C 0.08658 0.60212 0.24656
 C687 C 0.12453 0.54742 0.23546
 C688 C 0.13264 0.52996 0.22521
 H689 H 0.10022 0.58649 0.30428
 H690 H 0.12379 0.55538 0.28314
 H691 H 0.09935 0.58359 0.21512
 H692 H 0.07575 0.61470 0.23626
 C693 C 0.95142 0.33944 0.26914
 C694 C 0.93874 0.35292 0.25777
 C695 C 0.92454 0.37049 0.24497
 C696 C 0.90199 0.37688 0.25355
 C697 C 0.88963 0.39638 0.24321
 C698 C 0.89979 0.40960 0.22426
 C699 C 0.92199 0.40269 0.21515
 C700 C 0.93434 0.38318 0.22548
 C701 C 0.88858 0.43163 0.21593
 C702 C 0.87962 0.45070 0.21009
 H703 H 0.89435 0.36739 0.26878
 H704 H 0.87258 0.40171 0.25055
 H705 H 0.93013 0.41293 0.20067
 H706 H 0.95189 0.37859 0.21888
 C707 C 0.95666 0.65784 0.72727
 C708 C 0.94360 0.64491 0.73877
 C709 C 0.92866 0.62830 0.75192
 C710 C 0.90541 0.62371 0.74409
 C711 C 0.89187 0.60550 0.75514
 C712 C 0.90153 0.59182 0.77407
 C713 C 0.92453 0.59690 0.78235
 C714 C 0.93806 0.61511 0.77131
 C715 C 0.88876 0.57112 0.78332
 C716 C 0.87846 0.55308 0.78999
 H717 H 0.89804 0.63364 0.72898
 H718 H 0.87419 0.60157 0.74843
 H719 H 0.93226 0.58627 0.79681
 H720 H 0.95610 0.61836 0.77737
 C721 C 0.71777 0.65419 0.95614
 C722 C 0.72790 0.64183 0.94146
 C723 C 0.73952 0.62579 0.92473
 C724 C 0.72599 0.61274 0.90794
 C725 C 0.73673 0.59487 0.89372
 C726 C 0.76106 0.58998 0.89621
 C727 C 0.77473 0.60355 0.91246
 C728 C 0.76399 0.62142 0.92669
 C729 C 0.77146 0.56946 0.88403
 C730 C 0.78005 0.55153 0.87504
 H731 H 0.70701 0.61580 0.90644
 H732 H 0.72593 0.58432 0.88140
 H733 H 0.79351 0.59975 0.91472
 H734 H 0.77458 0.63122 0.93977
 C735 C 0.28924 0.35625 0.94390
 C736 C 0.27850 0.36855 0.92959
 C737 C 0.26588 0.38413 0.91312
 C738 C 0.27852 0.39871 0.89688
 C739 C 0.26654 0.41590 0.88280
 C740 C 0.24185 0.41856 0.88487
 C741 C 0.22911 0.40342 0.90054
 C742 C 0.24110 0.38623 0.91463
 C743 C 0.23008 0.43869 0.87332
 C744 C 0.22050 0.45652 0.86517
 H745 H 0.29770 0.39736 0.89570
 H746 H 0.27660 0.42773 0.87099
 H747 H 0.21006 0.40554 0.90252
 H748 H 0.23116 0.37518 0.92725
 C749 C 0.27696 0.64488 0.04968
 C750 C 0.26519 0.63217 0.06275
 C751 C 0.25173 0.61552 0.07738
 C752 C 0.23108 0.60474 0.06812
 C753 C 0.21981 0.58599 0.08077
 C754 C 0.22916 0.57793 0.10273
 C755 C 0.24934 0.58928 0.11239
 C756 C 0.26061 0.60803 0.09974
 C757 C 0.21966 0.55646 0.11407
 C758 C 0.21279 0.53774 0.12303
 H759 H 0.22421 0.61019 0.05072
 H760 H 0.20437 0.57718 0.07301
 H761 H 0.25686 0.58303 0.12924
 H762 H 0.27672 0.61603 0.10694
 C763 C 0.71585 0.35821 0.04928
 C764 C 0.72525 0.37121 0.06392
 C765 C 0.73622 0.38768 0.08068
 C766 C 0.76104 0.38891 0.08240
 C767 C 0.77173 0.40670 0.09679
 C768 C 0.75764 0.42332 0.10951
 C769 C 0.73282 0.42165 0.10831
 C770 C 0.72213 0.40386 0.09393
 C771 C 0.76863 0.44341 0.12182
 C772 C 0.77798 0.46088 0.13092
 H773 H 0.77211 0.37662 0.07209
 H774 H 0.79095 0.40798 0.09740
 H775 H 0.72175 0.43456 0.11787
 H776 H 0.70292 0.40319 0.09259
 C777 C 0.95508 0.73163 0.65621
 C778 C 0.94182 0.74306 0.64344
 C779 C 0.92707 0.75576 0.62640
 C780 C 0.93627 0.77578 0.61382
 C781 C 0.92365 0.78571 0.59447
 C782 C 0.90178 0.77566 0.58763
 C783 C 0.89216 0.75624 0.60078
 C784 C 0.90479 0.74629 0.62011
 C785 C 0.89041 0.78352 0.56578
 C786 C 0.88126 0.78901 0.54694
 H787 H 0.95363 0.78304 0.61831
 H788 H 0.93136 0.80058 0.58430
 H789 H 0.87537 0.74817 0.59550
 H790 H 0.89765 0.73061 0.62949
 C791 C 0.95021 0.26865 0.34325
 C792 C 0.93691 0.25796 0.35656
 C793 C 0.92204 0.24570 0.37377
 C794 C 0.93030 0.22459 0.38526
 C795 C 0.91731 0.21431 0.40413
 C796 C 0.89599 0.22510 0.41158
 C797 C 0.88738 0.24579 0.39963
 C798 C 0.90038 0.25608 0.38077
 C799 C 0.88400 0.21625 0.43269
 C800 C 0.87429 0.20975 0.45090
 H801 H 0.94715 0.21655 0.38016
 H802 H 0.92423 0.19842 0.41336
 H803 H 0.87101 0.25440 0.40538
 H804 H 0.89395 0.27254 0.37219
 C805 C 0.03924 0.29085 0.64133
 C806 C 0.05372 0.28014 0.62934
 C807 C 0.07032 0.26773 0.61393
 C808 C 0.06876 0.24246 0.61083
 C809 C 0.08311 0.23078 0.59385
 C810 C 0.09909 0.24432 0.57990
 C811 C 0.10113 0.26950 0.58348
 C812 C 0.08679 0.28117 0.60046
 C813 C 0.11158 0.23281 0.56039
 C814 C 0.12086 0.22326 0.54329
 H815 H 0.05596 0.23190 0.62098
 H816 H 0.08119 0.21135 0.59107
 H817 H 0.11324 0.28020 0.57263
 H818 H 0.08802 0.30075 0.60256
 C819 C 0.05709 0.70452 0.36341
 C820 C 0.07156 0.71557 0.37512
 C821 C 0.08808 0.72868 0.39006
 C822 C 0.10321 0.71593 0.40566
 C823 C 0.11724 0.72861 0.42223
 C824 C 0.11622 0.75409 0.42325
 C825 C 0.10168 0.76688 0.40711
 C826 C 0.08765 0.75420 0.39054
 C827 C 0.12773 0.76685 0.44263
 C828 C 0.13587 0.77736 0.45978
 H829 H 0.10355 0.69620 0.40558
 H830 H 0.12817 0.71852 0.43483
 H831 H 0.10051 0.78656 0.40795
 H832 H 0.07588 0.76424 0.37870
 C833 C 0.63813 0.94450 0.70965
 C834 C 0.62544 0.93039 0.72019
 C835 C 0.60951 0.91414 0.73256
 C836 C 0.59459 0.89863 0.71941
 C837 C 0.57743 0.88461 0.73123
 C838 C 0.57515 0.88599 0.75626
 C839 C 0.59052 0.90098 0.76948
 C840 C 0.60767 0.91501 0.75766
 C841 C 0.55549 0.87421 0.76805
 C842 C 0.53821 0.86576 0.77778
 H843 H 0.59574 0.89793 0.69999
 H844 H 0.56547 0.87332 0.72080
 H845 H 0.58873 0.90242 0.78881
 H846 H 0.61900 0.92704 0.76800
 C847 C 0.35282 0.96104 0.28086
 C848 C 0.36493 0.94741 0.26908
 C849 C 0.38058 0.93176 0.25561
 C850 C 0.39287 0.94097 0.23567
 C851 C 0.41015 0.92678 0.22425
 C852 C 0.41524 0.90328 0.23270
 C853 C 0.40246 0.89381 0.25219
 C854 C 0.38518 0.90800 0.26362
 C855 C 0.43507 0.88990 0.22299
 C856 C 0.45245 0.87918 0.21596
 H857 H 0.38963 0.95939 0.22944
 H858 H 0.42008 0.93441 0.20936
 H859 H 0.40640 0.87577 0.25905
 H860 H 0.37596 0.90075 0.27914
 C861 C 0.64253 0.04208 0.27944
 C862 C 0.62973 0.05544 0.26807
 C863 C 0.61369 0.07087 0.25483
 C864 C 0.60114 0.06149 0.23514
 C865 C 0.58394 0.07571 0.22358
 C866 C 0.57924 0.09939 0.23165
 C867 C 0.59221 0.10899 0.25096
 C868 C 0.60940 0.09476 0.26253
 C869 C 0.55972 0.11298 0.22162
 C870 C 0.54264 0.12396 0.21424
 H871 H 0.60420 0.04298 0.22913
 H872 H 0.57386 0.06802 0.20881
 H873 H 0.58855 0.12719 0.25750
 H874 H 0.61890 0.10214 0.27783
 C875 C 0.35103 0.05157 0.72569
 C876 C 0.36426 0.06448 0.73703
 C877 C 0.38164 0.07879 0.74977
 C878 C 0.39333 0.06887 0.76979
 C879 C 0.41260 0.08112 0.78013
 C880 C 0.42029 0.10335 0.77049
 C881 C 0.40813 0.11365 0.75096
 C882 C 0.38886 0.10139 0.74061
 C883 C 0.44183 0.11449 0.77917
 C884 C 0.46037 0.12351 0.78549
 H885 H 0.38810 0.05126 0.77684
 H886 H 0.42198 0.07288 0.79509
 H887 H 0.41403 0.13072 0.74323
 H888 H 0.38017 0.10909 0.72497
 C889 C 0.64825 0.72482 0.05308
 C890 C 0.63487 0.73590 0.06599
 C891 C 0.61749 0.74855 0.08029
 C892 C 0.60942 0.73832 0.10186
 C893 C 0.59039 0.74895 0.11417
 C894 C 0.57931 0.76985 0.10494
 C895 C 0.58780 0.78047 0.08372
 C896 C 0.60684 0.76984 0.07142
 C897 C 0.55816 0.77918 0.11622
 C898 C 0.53997 0.78614 0.12539
 H899 H 0.61733 0.72171 0.10876
 H900 H 0.58387 0.74048 0.13046
 H901 H 0.57927 0.79651 0.07631
 H902 H 0.61274 0.77776 0.05461
 C903 C 0.36026 0.28152 0.03706
 C904 C 0.37268 0.26986 0.05049
 C905 C 0.38847 0.25639 0.06594
 C906 C 0.40082 0.23619 0.05695
 C907 C 0.41805 0.22462 0.07107
 C908 C 0.42298 0.23319 0.09425
 C909 C 0.41016 0.25296 0.10349
 C910 C 0.39294 0.26454 0.08937
 C911 C 0.44267 0.22329 0.10761
 C912 C 0.45991 0.21607 0.11837
 H913 H 0.39764 0.22986 0.03880
 H914 H 0.42802 0.20951 0.06366
 H915 H 0.41400 0.25989 0.12130
 H916 H 0.38363 0.28025 0.09644
 C917 C 0.65259 0.28089 0.95269
 C918 C 0.64070 0.26890 0.93906
 C919 C 0.62518 0.25519 0.92353
 C920 C 0.61364 0.23437 0.93230
 C921 C 0.59620 0.22283 0.91844
 C922 C 0.59023 0.23203 0.89572
 C923 C 0.60233 0.25236 0.88662
 C924 C 0.61976 0.26392 0.90049
 C925 C 0.57006 0.22235 0.88292
 C926 C 0.55234 0.21543 0.87277
 H927 H 0.61750 0.22760 0.95018
 H928 H 0.58679 0.20729 0.92578
 H929 H 0.59768 0.25981 0.86919
 H930 H 0.62838 0.28013 0.89361
 C931 C 0.35198 0.71301 0.95505
 C932 C 0.36482 0.72297 0.94074
 C933 C 0.38117 0.73443 0.92435
 C934 C 0.39477 0.72012 0.90870
 C935 C 0.41250 0.73087 0.89461
 C936 C 0.41668 0.75598 0.89609
 C937 C 0.40263 0.77040 0.91124
 C938 C 0.38491 0.75965 0.92534
 C939 C 0.43678 0.76657 0.88396
 C940 C 0.45431 0.77539 0.87501
 H941 H 0.39217 0.70058 0.90792
 H942 H 0.42341 0.71951 0.88316
 H943 H 0.40586 0.78979 0.91272
 H944 H 0.37463 0.77087 0.93751
 C945 C 0.71950 0.95030 0.35295
 C946 C 0.73137 0.93693 0.36529
 C947 C 0.74514 0.92152 0.38096
 C948 C 0.76508 0.93096 0.39287
 C949 C 0.77696 0.91693 0.41011
 C950 C 0.76897 0.89337 0.41549
 C951 C 0.74947 0.88366 0.40305
 C952 C 0.73759 0.89770 0.38582
 C953 C 0.77896 0.88031 0.43553
 C954 C 0.78611 0.86996 0.45324
 H955 H 0.77096 0.94942 0.38938
 H956 H 0.79182 0.92473 0.41981
 H957 H 0.74296 0.86558 0.40727
 H958 H 0.72209 0.89028 0.37685
 C959 C 0.28293 0.95405 0.65080
 C960 C 0.27338 0.93963 0.63761
 C961 C 0.26260 0.92327 0.62058
 C962 C 0.27685 0.90712 0.60746
 C963 C 0.26697 0.89335 0.58882
 C964 C 0.24278 0.89567 0.58322
 C965 C 0.22838 0.91128 0.59681
 C966 C 0.23827 0.92506 0.61544
 C967 C 0.23318 0.88380 0.56229
 C968 C 0.22507 0.87497 0.54422
 H969 H 0.29573 0.90577 0.61112
 H970 H 0.27831 0.88151 0.57830
 H971 H 0.20970 0.91338 0.59250
 H972 H 0.22712 0.93766 0.62530
 C973 C 0.28593 0.05720 0.35864
 C974 C 0.27603 0.07138 0.37178
 C975 C 0.26447 0.08752 0.38846
 C976 C 0.27812 0.10167 0.40425
 C977 C 0.26702 0.11534 0.42222
 C978 C 0.24222 0.11495 0.42446
 C979 C 0.22853 0.10136 0.40824
 C980 C 0.23963 0.08767 0.39027
 C981 C 0.23101 0.12647 0.44472
 C982 C 0.22158 0.13484 0.46231
 H983 H 0.29735 0.10153 0.40313
 H984 H 0.27780 0.12558 0.43481
 H985 H 0.20935 0.10072 0.40996
 H986 H 0.22891 0.07666 0.37829
 C987 C 0.71590 0.03771 0.63888
 C988 C 0.72781 0.05109 0.62660
 C989 C 0.74155 0.06653 0.61094
 C990 C 0.73408 0.09042 0.60625
 C991 C 0.74592 0.10452 0.58905
 C992 C 0.76529 0.09479 0.57647
 C993 C 0.77317 0.07114 0.58166
 C994 C 0.76134 0.05705 0.59886
 C995 C 0.77539 0.10805 0.55661
 C996 C 0.78272 0.11862 0.53911
 H997 H 0.71869 0.09788 0.61534
 H998 H 0.73949 0.12268 0.58501
 H999 H 0.78795 0.06333 0.57187
 H1000 H 0.76716 0.03854 0.60220
 C1001 C 0.95973 0.63381 0.29482
 C1002 C 0.94505 0.62191 0.28426
 C1003 C 0.92810 0.60688 0.27177
 C1004 C 0.92796 0.60622 0.24660
 C1005 C 0.91316 0.58981 0.23451
 C1006 C 0.89844 0.57400 0.24752
 C1007 C 0.89810 0.57514 0.27267
 C1008 C 0.91289 0.59155 0.28477
 C1009 C 0.88566 0.55500 0.23525
 C1010 C 0.87622 0.53823 0.22504
 H1011 H 0.93976 0.61787 0.23637
 H1012 H 0.91377 0.58890 0.21507
 H1013 H 0.88699 0.56282 0.28293
 H1014 H 0.91297 0.59179 0.30424
 C1015 C 0.94215 0.36195 0.70969
 C1016 C 0.92811 0.37466 0.72019
 C1017 C 0.91227 0.39103 0.73248
 C1018 C 0.91283 0.39262 0.75760
 C1019 C 0.89972 0.41068 0.76936
 C1020 C 0.88600 0.42722 0.75605
 C1021 C 0.88484 0.42513 0.73099
 C1022 C 0.89794 0.40707 0.71923
 C1023 C 0.87531 0.44781 0.76784
 C1024 C 0.86769 0.46573 0.77768
 H1025 H 0.92402 0.38048 0.76800
 H1026 H 0.90097 0.41229 0.78872
 H1027 H 0.87451 0.43798 0.72050
 H1028 H 0.89755 0.40616 0.69978
 C1029 C 0.05236 0.65700 0.72049
 C1030 C 0.06682 0.64365 0.72959
 C1031 C 0.08312 0.62631 0.73984
 C1032 C 0.08265 0.62150 0.76456
 C1033 C 0.09606 0.60228 0.77402
 C1034 C 0.10997 0.58780 0.75880
 C1035 C 0.11106 0.59314 0.73420
 C1036 C 0.09767 0.61237 0.72475
 C1037 C 0.12102 0.56608 0.76801
 C1038 C 0.12901 0.54731 0.77583
 H1039 H 0.07127 0.63199 0.77635
 H1040 H 0.09490 0.59816 0.79303
 H1041 H 0.12156 0.58191 0.72224
 H1042 H 0.09796 0.61577 0.70557
 C1043 C 0.04578 0.33689 0.27023
 C1044 C 0.05939 0.34950 0.25904
 C1045 C 0.07476 0.36598 0.24628
 C1046 C 0.06630 0.37822 0.22587
 C1047 C 0.07985 0.39673 0.21535
 C1048 C 0.10193 0.40308 0.22521
 C1049 C 0.11075 0.39028 0.24513
 C1050 C 0.09719 0.37178 0.25565
 C1051 C 0.11432 0.42427 0.21657
 C1052 C 0.12422 0.44274 0.21046
 H1053 H 0.04887 0.37407 0.21863
 H1054 H 0.07275 0.40667 0.20012
 H1055 H 0.12768 0.39521 0.25305
 H1056 H 0.10380 0.36263 0.27158
   
