data_POSCAR
  _audit_creation_date              2014-09-24
  _audit_creation_method            'ToBaCCo'
  _symmetry_space_group_name_H-M    'P1'
  _symmetry_Int_Tables_number       1
  _symmetry_cell_setting            triclinic
  loop_
  _symmetry_equiv_pos_as_xyz
 x,y,z
_cell_length_a 45.0601
_cell_length_b 45.0804
_cell_length_c 45.0877
_cell_angle_alpha 90.089100
_cell_angle_beta 90.106800
_cell_angle_gamma 89.920300
loop_
  _atom_site_label
  _atom_site_type_symbol
  _atom_site_fract_x
  _atom_site_fract_y
  _atom_site_fract_z
N1 N 0.18402 0.18515 0.18310
 N2 N -0.18067 0.81757 0.18421
 N3 N -0.18481 0.18136 -0.18315
 N4 N 0.18322 0.81590 -0.18261
 N5 N 0.18378 1.18214 0.81947
 N6 N 0.81713 0.81831 0.81507
 N7 N 0.18230 0.81528 1.18296
 N8 N 0.81640 1.18420 1.18446
 O9 O 0.54166 0.94699 0.94720
 O10 O 0.57417 0.97390 0.97568
 C11 C 0.56835 0.95480 0.95493
 O12 O 0.45801 1.05250 0.95055
 O13 O 0.42574 1.02368 0.97716
 C14 C 0.43141 1.04449 0.95816
 O15 O 0.54146 1.05013 0.94802
 O16 O 0.57411 1.02287 0.97602
 C17 C 0.56817 1.04224 0.95560
 O18 O 0.45815 0.94442 0.95008
 O19 O 0.42576 0.97254 0.97750
 C20 C 0.43151 0.95208 0.95808
 Zr21 Zr 0.49997 0.96097 0.96405
 O22 O 0.49647 0.96138 0.91722
 O23 O 0.50331 0.91412 0.96375
 Zr24 Zr 0.49980 1.03600 0.96466
 O25 O 0.49642 1.03637 0.91782
 O26 O 0.50290 1.08286 0.96535
 O27 O 0.52629 0.99854 0.95846
 O28 O 0.47413 0.99848 0.95904
 O29 O 0.45865 0.94378 1.05323
 O30 O 0.42605 0.97232 1.02649
 C31 C 0.43193 0.95160 1.04554
 O32 O 0.54199 1.04936 1.05646
 O33 O 0.57428 1.02331 1.02701
 C34 C 0.56862 1.04209 1.04806
 O35 O 0.45845 1.05202 1.05400
 O36 O 0.42592 1.02388 1.02677
 C37 C 0.43177 1.04435 1.04614
 O38 O 0.54226 0.94648 1.05552
 O39 O 0.57449 0.97389 1.02738
 C40 C 0.56885 0.95457 1.04786
 Zr41 Zr 0.50035 0.96040 1.03904
 O42 O 0.49735 0.95979 1.08588
 O43 O 0.50374 0.91356 1.03816
 Zr44 Zr 0.50017 1.03551 1.03971
 O45 O 0.49707 1.03518 1.08656
 O46 O 0.50338 1.08236 1.03994
 Zr47 Zr 0.54409 0.99827 1.00174
 Zr48 Zr 0.45603 0.99824 1.00204
 O49 O 0.47455 0.99791 1.04491
 O50 O 0.52671 0.99795 1.04512
 O51 O 0.47371 0.95489 1.00159
 O52 O 0.52569 1.04120 1.00214
 O53 O 0.52596 0.95529 1.00143
 O54 O 0.47351 1.04158 1.00231
 H55 H 0.46063 0.99849 0.94167
 H56 H 0.53910 1.05860 1.00218
 H57 H 0.46114 0.99781 1.06230
 H58 H 0.53955 0.93799 1.00128
 H59 H 0.48599 1.09045 0.97709
 H60 H 0.48671 1.09016 1.02796
 H61 H 0.51369 1.02300 1.09417
 H62 H 0.51359 0.97232 1.09370
 H63 H 0.48663 0.90592 1.02670
 H64 H 0.48681 0.90631 0.97588
 H65 H 0.51311 0.97339 0.90953
 H66 H 0.51286 1.02413 0.90996
 O67 O 0.05250 0.45740 -0.05314
 O68 O 0.02311 0.42524 -0.02705
 C69 C 0.04410 0.43083 -0.04584
 O70 O 0.04978 0.54118 0.05225
 O71 O 0.02277 0.57371 0.02389
 C72 C 0.04195 0.56785 0.04455
 O73 O 0.05218 0.45774 0.04964
 O74 O 0.02302 0.42540 0.02330
 C75 C 0.04390 0.43113 0.04228
 O76 O 0.05005 0.54090 -0.05593
 O77 O 0.02290 0.57357 -0.02786
 C78 C 0.04217 0.56760 -0.04834
 Zr79 Zr 0.03579 0.49925 -0.03938
 O80 O 0.08267 0.50234 -0.03925
 O81 O 0.03567 0.49580 -0.08622
 Zr82 Zr 0.03557 0.49947 0.03565
 O83 O 0.08244 0.50256 0.03594
 O84 O 0.03520 0.49626 0.08249
 O85 O 0.04139 0.47285 -0.00181
 O86 O 0.04125 0.52509 -0.00187
 O87 O -0.05296 0.54151 -0.05664
 O88 O -0.02659 0.57375 -0.02739
 C89 C -0.04548 0.56813 -0.04837
 O90 O -0.05641 0.45821 0.04926
 O91 O -0.02742 0.42563 0.02303
 C92 C -0.04827 0.43150 0.04193
 O93 O -0.05318 0.54173 0.05205
 O94 O -0.02674 0.57387 0.02295
 C95 C -0.04566 0.56830 0.04384
 O96 O -0.05603 0.45793 -0.05375
 O97 O -0.02803 0.42542 -0.02632
 C98 C -0.04852 0.43127 -0.04568
 Zr99 Zr -0.03935 0.49970 -0.03970
 O100 O -0.08621 0.50329 -0.03958
 O101 O -0.03948 0.49628 -0.08653
 Zr102 Zr -0.03956 0.49987 0.03526
 O103 O -0.08641 0.50352 0.03463
 O104 O -0.04000 0.49665 0.08209
 Zr105 Zr -0.00205 0.45555 -0.00202
 Zr106 Zr -0.00163 0.54357 -0.00208
 O107 O -0.04471 0.52554 -0.00226
 O108 O -0.04536 0.47335 -0.00222
 O109 O -0.00164 0.52588 -0.04539
 O110 O -0.00211 0.47402 0.04089
 O111 O -0.00189 0.47375 -0.04497
 O112 O -0.00189 0.52610 0.04127
 H113 H 0.05864 0.53852 -0.00180
 H114 H -0.00220 0.46073 0.05838
 H115 H -0.06210 0.53901 -0.00235
 H116 H -0.00196 0.46026 -0.06234
 H117 H 0.02352 0.51320 0.09017
 H118 H -0.02724 0.51269 0.08993
 H119 H -0.09418 0.48662 0.02298
 H120 H -0.09404 0.48648 -0.02791
 H121 H -0.02679 0.51238 -0.09426
 H122 H 0.02399 0.51267 -0.09403
 H123 H 0.09036 0.48591 -0.02692
 H124 H 0.09020 0.48605 0.02372
 O125 O 1.05709 -0.05005 0.54200
 O126 O 1.02908 -0.02269 0.57449
 C127 C 1.04948 -0.04214 0.56867
 O128 O 1.05429 0.05602 0.45846
 O129 O 1.02736 0.02728 0.42620
 C130 C 1.04652 0.04796 0.43186
 O131 O 1.05749 0.05349 0.54199
 O132 O 1.02941 0.02634 0.57448
 C133 C 1.04992 0.04561 0.56866
 O134 O 1.05390 -0.05299 0.45859
 O135 O 1.02726 -0.02408 0.42629
 C136 C 1.04623 -0.04497 0.43197
 Zr137 Zr 1.04045 -0.03581 0.50033
 O138 O 1.08730 -0.03550 0.49685
 O139 O 1.04066 -0.08264 0.50365
 Zr140 Zr 1.04075 0.03925 0.50026
 O141 O 1.08760 0.03846 0.49677
 O142 O 1.04133 0.08609 0.50350
 O143 O 1.04656 0.00175 0.52671
 O144 O 1.04591 0.00163 0.47452
 O145 O 0.95103 -0.05197 0.45890
 O146 O 0.97829 -0.02406 0.42635
 C147 C 0.95895 -0.04447 0.43223
 O148 O 0.94911 0.05367 0.54227
 O149 O 0.97836 0.02739 0.57459
 C150 C 0.95745 0.04634 0.56888
 O151 O 0.95148 0.05629 0.45878
 O152 O 0.97760 0.02701 0.42638
 C153 C 0.95870 0.04794 0.43214
 O154 O 0.94856 -0.04892 0.54240
 O155 O 0.97764 -0.02240 0.57470
 C156 C 0.95676 -0.04135 0.56901
 Zr157 Zr 0.96534 -0.03539 0.50062
 O158 O 0.91846 -0.03535 0.49740
 O159 O 0.96546 -0.08223 0.50407
 Zr160 Zr 0.96567 0.03964 0.50051
 O161 O 0.91879 0.03995 0.49728
 O162 O 0.96610 0.08649 0.50386
 Zr163 Zr 1.00330 0.00200 0.54445
 Zr164 Zr 1.00284 0.00180 0.45643
 O165 O 0.95996 0.00206 0.47486
 O166 O 0.95983 0.00224 0.52704
 O167 O 1.00273 -0.04148 0.47409
 O168 O 1.00337 0.04491 0.52610
 O169 O 1.00300 -0.04098 0.52621
 O170 O 1.00308 0.04519 0.47393
 H171 H 1.06316 0.00150 0.46093
 H172 H 1.00354 0.06235 0.53949
 H173 H 0.94248 0.00205 0.46150
 H174 H 1.00294 -0.05832 0.53969
 H175 H 1.02839 0.09392 0.48759
 H176 H 0.97768 0.09417 0.48692
 H177 H 0.91101 0.02787 0.51381
 H178 H 0.91078 -0.02275 0.51364
 H179 H 0.97684 -0.09011 0.48705
 H180 H 1.02756 -0.09039 0.48783
 H181 H 1.09512 -0.02400 0.51385
 H182 H 1.09533 0.02701 0.51382
 C183 C 1.14488 0.14461 0.25889
 C184 C 1.15452 0.12725 0.23482
 C185 C 1.16772 0.14051 0.21018
 C186 C 1.17129 0.17140 0.20898
 C187 C 1.16178 0.18880 0.23299
 C188 C 1.14885 0.17553 0.25781
 C189 C 1.13042 0.13053 0.28475
 N190 N 1.12653 0.14573 0.31050
 N191 N 1.11334 0.13303 0.33365
 C192 C 1.10335 0.10466 0.33194
 N193 N 1.10722 0.08950 0.30619
 N194 N 1.12053 0.10214 0.28311
 C195 C 1.08853 0.09048 0.35754
 C196 C 1.07241 0.06409 0.35369
 C197 C 1.05852 0.05054 0.37777
 C198 C 1.06070 0.06287 0.40634
 C199 C 1.07680 0.08927 0.41023
 C200 C 1.09042 0.10304 0.38605
 H201 H 1.15189 0.10338 0.23498
 H202 H 1.17472 0.12672 0.19179
 H203 H 1.16445 0.21266 0.23249
 H204 H 1.14161 0.18953 0.27594
 H205 H 1.07039 0.05391 0.33202
 H206 H 1.04634 0.03019 0.37400
 H207 H 1.07881 0.09938 0.43195
 H208 H 1.10272 0.12333 0.38976
 C209 C 0.86170 -0.14392 0.25960
 C210 C 0.83075 -0.14784 0.25906
 C211 C 0.81688 -0.16048 0.23435
 C212 C 0.83369 -0.16976 0.20987
 C213 C 0.86462 -0.16617 0.21048
 C214 C 0.87849 -0.15325 0.23502
 C215 C 0.87638 -0.12989 0.28546
 N216 N 0.90483 -0.12016 0.28360
 N217 N 0.91793 -0.10717 0.30671
 C218 C 0.90318 -0.10348 0.33270
 N219 N 0.87477 -0.11333 0.33461
 N220 N 0.86162 -0.12619 0.31145
 C221 C 0.91766 -0.08876 0.35829
 C222 C 0.90512 -0.09044 0.38676
 C223 C 0.91869 -0.07634 0.41085
 C224 C 0.94489 -0.05995 0.40691
 C225 C 0.95744 -0.05828 0.37845
 C226 C 0.94406 -0.07266 0.35444
 H227 H 0.81717 -0.14083 0.27758
 H228 H 0.79300 -0.16318 0.23432
 H229 H 0.87796 -0.17300 0.19171
 H230 H 0.90237 -0.15064 0.23475
 H231 H 0.88486 -0.10276 0.39049
 H232 H 0.90844 -0.07799 0.43249
 H233 H 0.97771 -0.04596 0.37471
 H234 H 0.95426 -0.07087 0.33279
 C235 C 0.85767 0.14280 0.74163
 C236 C 0.87448 0.15271 0.76601
 C237 C 0.86057 0.16565 0.79049
 C238 C 0.82958 0.16869 0.79124
 C239 C 0.81274 0.15883 0.76695
 C240 C 0.82664 0.14615 0.74230
 C241 C 0.87242 0.12878 0.71583
 N242 N 0.85750 0.12445 0.68997
 N243 N 0.87077 0.11169 0.66685
 C244 C 0.89947 0.10258 0.66867
 N245 N 0.91436 0.10688 0.69453
 N246 N 0.90114 0.11976 0.71760
 C247 C 0.91421 0.08818 0.64308
 C248 C 0.94127 0.07309 0.64687
 C249 C 0.95516 0.05936 0.62282
 C250 C 0.94250 0.06069 0.59434
 C251 C 0.91552 0.07590 0.59048
 C252 C 0.90144 0.08935 0.61463
 H253 H 0.89841 0.15054 0.76618
 H254 H 0.87394 0.17292 0.80910
 H255 H 0.78881 0.16108 0.76708
 H256 H 0.81304 0.13868 0.72394
 H257 H 0.95165 0.07168 0.66850
 H258 H 0.97600 0.04793 0.62653
 H259 H 0.90515 0.07723 0.56884
 H260 H 0.88066 0.10087 0.61094
 C261 C 1.14640 -0.14105 0.74166
 C262 C 1.15052 -0.17198 0.74182
 C263 C 1.16258 -0.18609 0.76667
 C264 C 1.17111 -0.16952 0.79163
 C265 C 1.16738 -0.13861 0.79137
 C266 C 1.15499 -0.12452 0.76672
 C267 C 1.13287 -0.12612 0.71572
 N268 N 1.12188 -0.09815 0.71813
 N269 N 1.10926 -0.08485 0.69497
 C270 C 1.10726 -0.09887 0.66836
 N271 N 1.11840 -0.12678 0.66589
 N272 N 1.13087 -0.14016 0.68911
 C273 C 1.09287 -0.08417 0.64275
 C274 C 1.09708 -0.09496 0.61380
 C275 C 1.08329 -0.08113 0.58968
 C276 C 1.06469 -0.05645 0.59405
 C277 C 1.06042 -0.04577 0.62305
 C278 C 1.07451 -0.05933 0.64708
 H279 H 1.14405 -0.18534 0.72292
 H280 H 1.16540 -0.20994 0.76645
 H281 H 1.17367 -0.12548 0.81050
 H282 H 1.15221 -0.10066 0.76726
 H283 H 1.11117 -0.11400 0.60972
 H284 H 1.08698 -0.08999 0.56766
 H285 H 1.04612 -0.02693 0.62725
 H286 H 1.07067 -0.05058 0.66912
 C287 C 0.25936 1.14550 1.14189
 C288 C 0.23467 1.15419 1.12487
 C289 C 0.21016 1.16752 1.13834
 C290 C 0.20969 1.17213 1.16912
 C291 C 0.23428 1.16348 1.18619
 C292 C 0.25898 1.15046 1.17269
 C293 C 0.28516 1.13102 1.12760
 N294 N 0.31153 1.12861 1.14206
 N295 N 0.33465 1.11539 1.12922
 C296 C 0.33230 1.10388 1.10145
 N297 N 0.30592 1.10626 1.08702
 N298 N 0.28287 1.11963 1.09979
 C299 C 0.35782 1.08882 1.08728
 C300 C 0.35350 1.07051 1.06240
 C301 C 0.37747 1.05597 1.04920
 C302 C 0.40640 1.05974 1.06029
 C303 C 0.41076 1.07821 1.08506
 C304 C 0.38671 1.09245 1.09852
 H305 H 0.23430 1.15077 1.10109
 H306 H 0.19130 1.17386 1.12483
 H307 H 0.23432 1.16694 1.20996
 H308 H 0.27760 1.14393 1.18643
 H309 H 0.33151 1.06711 1.05329
 H310 H 0.37329 1.04182 1.03024
 H311 H 0.43274 1.08151 1.09423
 H312 H 0.39078 1.10649 1.11760
 C313 C 0.25876 0.85329 0.86039
 C314 C 0.23389 0.84447 0.87695
 C315 C 0.20930 0.83183 0.86290
 C316 C 0.20896 0.82808 0.83200
 C317 C 0.23375 0.83683 0.81541
 C318 C 0.25851 0.84914 0.82947
 C319 C 0.28462 0.86712 0.87522
 N320 N 0.31104 0.86959 0.86098
 N321 N 0.33420 0.88235 0.87421
 C322 C 0.33186 0.89333 0.90218
 N323 N 0.30544 0.89087 0.91642
 N324 N 0.28233 0.87796 0.90325
 C325 C 0.35743 0.90800 0.91670
 C326 C 0.35321 0.92594 0.94186
 C327 C 0.37723 0.94031 0.95521
 C328 C 0.40610 0.93672 0.94397
 C329 C 0.41036 0.91854 0.91898
 C330 C 0.38626 0.90448 0.90539
 H331 H 0.23342 0.84728 0.90080
 H332 H 0.19029 0.82539 0.87604
 H333 H 0.23390 0.83401 0.79155
 H334 H 0.27726 0.85578 0.81607
 H335 H 0.33126 0.92923 0.95105
 H336 H 0.37314 0.95422 0.97435
 H337 H 0.43228 0.91537 0.90969
 H338 H 0.39027 0.89073 0.88609
 C339 C 0.74315 0.85916 1.14633
 C340 C 0.74409 0.82821 1.15010
 C341 C 0.76905 0.81460 1.16254
 C342 C 0.79341 0.83166 1.17175
 C343 C 0.79241 0.86259 1.16831
 C344 C 0.76760 0.87620 1.15560
 C345 C 0.71701 0.87357 1.13251
 N346 N 0.71845 0.90209 1.12297
 N347 N 0.69510 0.91495 1.11015
 C348 C 0.66928 0.89988 1.10646
 N349 N 0.66779 0.87139 1.11612
 N350 N 0.69118 0.85849 1.12881
 C351 C 0.64344 0.91409 1.09189
 C352 C 0.61512 0.90113 1.09349
 C353 C 0.59082 0.91444 1.07949
 C354 C 0.59437 0.94078 1.06328
 C355 C 0.62267 0.95376 1.06171
 C356 C 0.64689 0.94066 1.07599
 H357 H 0.72568 0.81444 1.14313
 H358 H 0.76938 0.79072 1.16512
 H359 H 0.81106 0.87613 1.17508
 H360 H 0.76757 0.90008 1.15309
 H361 H 0.61169 0.88074 1.10566
 H362 H 0.56931 0.90387 1.08105
 H363 H 0.62611 0.97417 1.04954
 H364 H 0.66840 0.95119 1.07427
 C365 C 0.74003 1.13909 0.85537
 C366 C 0.74010 1.16992 0.85061
 C367 C 0.76473 1.18375 0.83794
 C368 C 0.78957 1.16700 0.82942
 C369 C 0.78941 1.13619 0.83377
 C370 C 0.76495 1.12238 0.84678
 C371 C 0.71431 1.12450 0.86957
 N372 N 0.71683 1.09671 0.88089
 N373 N 0.69385 1.08372 0.89408
 C374 C 0.66734 1.09791 0.89636
 N375 N 0.66478 1.12565 0.88490
 N376 N 0.68781 1.13870 0.87186
 C377 C 0.64190 1.08355 0.91127
 C378 C 0.61296 1.09461 0.90754
 C379 C 0.58898 1.08106 0.92171
 C380 C 0.59347 1.05638 0.94021
 C381 C 0.62245 1.04544 0.94405
 C382 C 0.64636 1.05874 0.92957
 H383 H 0.72130 1.18343 0.85707
 H384 H 0.76446 1.20754 0.83465
 H385 H 0.80845 1.12293 0.82752
 H386 H 0.76556 1.09859 0.85004
 H387 H 0.60878 1.11363 0.89350
 H388 H 0.56696 1.09012 0.91835
 H389 H 0.62673 1.02655 0.95822
 H390 H 0.66839 1.04977 0.93304
 C391 C 0.14225 0.25973 0.14260
 C392 C 0.17318 0.25914 0.14677
 C393 C 0.18685 0.23473 0.16014
 C394 C 0.16984 0.21061 0.16991
 C395 C 0.13893 0.21130 0.16611
 C396 C 0.12527 0.23554 0.15246
 C397 C 0.12779 0.28524 0.12777
 N398 N 0.09938 0.28323 0.11788
 N399 N 0.08642 0.30606 0.10429
 C400 C 0.10129 0.33190 0.10014
 N401 N 0.12968 0.33395 0.11012
 N402 N 0.14268 0.31107 0.12358
 C403 C 0.08682 0.35727 0.08509
 C404 C 0.09930 0.38579 0.08656
 C405 C 0.08537 0.40979 0.07269
 C406 C 0.05885 0.40572 0.05675
 C407 C 0.04656 0.37713 0.05500
 C408 C 0.06029 0.35322 0.06915
 H409 H 0.18691 0.27737 0.13936
 H410 H 0.21071 0.23461 0.16296
 H411 H 0.12545 0.19280 0.17329
 H412 H 0.10140 0.23533 0.14968
 H413 H 0.11968 0.38967 0.09871
 H414 H 0.09547 0.43152 0.07437
 H415 H 0.02613 0.37323 0.04294
 H416 H 0.05017 0.33151 0.06746
 C417 C -0.14742 0.25764 -0.14145
 C418 C -0.15112 0.25666 -0.17242
 C419 C -0.16343 0.23168 -0.18607
 C420 C -0.17257 0.20734 -0.16903
 C421 C -0.16925 0.20841 -0.13809
 C422 C -0.15667 0.23323 -0.12444
 C423 C -0.13363 0.28373 -0.12699
 N424 N -0.12404 0.28224 -0.09845
 N425 N -0.11120 0.30552 -0.08555
 C426 C -0.10753 0.33134 -0.10059
 N427 N -0.11726 0.33289 -0.12908
 N428 N -0.12998 0.30955 -0.14203
 C429 C -0.09287 0.35707 -0.08633
 C430 C -0.09456 0.38542 -0.09916
 C431 C -0.08046 0.40962 -0.08580
 C432 C -0.06408 0.40590 -0.05952
 C433 C -0.06242 0.37755 -0.04667
 C434 C -0.07680 0.35345 -0.05983
 H435 H -0.14416 0.27505 -0.18617
 H436 H -0.16593 0.23130 -0.20996
 H437 H -0.17599 0.18978 -0.12456
 H438 H -0.15422 0.23330 -0.10054
 H439 H -0.10687 0.38897 -0.11950
 H440 H -0.08209 0.43116 -0.09627
 H441 H -0.05011 0.37397 -0.02633
 H442 H -0.07500 0.33191 -0.04940
 C443 C 0.14023 0.74027 -0.14578
 C444 C 0.17127 0.74086 -0.14891
 C445 C 0.18534 0.76564 -0.16102
 C446 C 0.16865 0.79016 -0.17053
 C447 C 0.13764 0.78949 -0.16775
 C448 C 0.12357 0.76486 -0.15536
 C449 C 0.12534 0.71435 -0.13225
 N450 N 0.09668 0.71616 -0.12314
 N451 N 0.08341 0.69302 -0.11054
 C452 C 0.09819 0.66703 -0.10665
 N453 N 0.12681 0.66517 -0.11589
 N454 N 0.14013 0.68836 -0.12837
 C455 C 0.08356 0.64144 -0.09225
 C456 C 0.09627 0.61298 -0.09372
 C457 C 0.08265 0.58891 -0.07979
 C458 C 0.05621 0.59286 -0.06378
 C459 C 0.04344 0.62129 -0.06238
 C460 C 0.05687 0.64527 -0.07660
 H461 H 0.18476 0.72233 -0.14168
 H462 H 0.20927 0.76571 -0.16310
 H463 H 0.12438 0.80826 -0.17478
 H464 H 0.09963 0.76509 -0.15335
 H465 H 0.11675 0.60925 -0.10570
 H466 H 0.09306 0.56729 -0.08122
 H467 H 0.02296 0.62502 -0.05038
 H468 H 0.04651 0.66690 -0.07500
 C469 C -0.14221 0.74183 0.14246
 C470 C -0.14615 0.74258 0.17339
 C471 C -0.15882 0.76739 0.18705
 C472 C -0.16812 0.79175 0.17005
 C473 C -0.16457 0.79090 0.13915
 C474 C -0.15161 0.76626 0.12549
 C475 C -0.12809 0.71592 0.12799
 N476 N -0.11813 0.71773 0.09964
 N477 N -0.10512 0.69457 0.08667
 C478 C -0.10163 0.66857 0.10145
 N479 N -0.11169 0.66670 0.12977
 N480 N -0.12457 0.68992 0.14280
 C481 C -0.08713 0.64287 0.08695
 C482 C -0.08947 0.61427 0.09910
 C483 C -0.07608 0.59001 0.08511
 C484 C -0.05977 0.59390 0.05886
 C485 C -0.05718 0.62256 0.04692
 C486 C -0.07084 0.64673 0.06070
 H487 H -0.13909 0.72417 0.18710
 H488 H -0.16148 0.76762 0.21091
 H489 H -0.17142 0.80956 0.12567
 H490 H -0.14900 0.76636 0.10162
 H491 H -0.10192 0.61055 0.11927
 H492 H -0.07841 0.56824 0.09494
 H493 H -0.04478 0.62636 0.02673
 H494 H -0.06847 0.66848 0.05084
 C495 C 1.14738 0.14165 0.74322
 C496 C 1.14814 0.17268 0.74582
 C497 C 1.16013 0.18614 0.77110
 C498 C 1.17215 0.16892 0.79435
 C499 C 1.17169 0.13775 0.79130
 C500 C 1.15929 0.12435 0.76623
 C501 C 1.13384 0.12730 0.71691
 N502 N 1.12540 0.09841 0.71786
 N503 N 1.11276 0.08556 0.69442
 C504 C 1.10820 0.10099 0.66897
 N505 N 1.11680 0.12984 0.66793
 N506 N 1.12927 0.14276 0.69145
 C507 C 1.09373 0.08671 0.64312
 C508 C 1.09613 0.09905 0.61461
 C509 C 1.08226 0.08552 0.59031
 C510 C 1.06533 0.05964 0.59411
 C511 C 1.06287 0.04742 0.62266
 C512 C 1.07709 0.06065 0.64682
 H513 H 1.13913 0.18663 0.72846
 H514 H 1.16053 0.21013 0.77223
 H515 H 1.18012 0.12362 0.80880
 H516 H 1.15908 0.10037 0.76489
 H517 H 1.10888 0.11906 0.61103
 H518 H 1.08449 0.09557 0.56862
 H519 H 1.04996 0.02756 0.62639
 H520 H 1.07467 0.05066 0.66851
 C521 C 0.85859 -0.14097 0.74056
 C522 C 0.82765 -0.14499 0.74121
 C523 C 0.81410 -0.15843 0.76560
 C524 C 0.83121 -0.16843 0.78963
 C525 C 0.86213 -0.16478 0.78887
 C526 C 0.87568 -0.15106 0.76466
 C527 C 0.87295 -0.12611 0.71505
 N528 N 0.90145 -0.11652 0.71697
 N529 N 0.91433 -0.10295 0.69416
 C530 C 0.89929 -0.09849 0.66840
 N531 N 0.87081 -0.10816 0.66645
 N532 N 0.85788 -0.12160 0.68932
 C533 C 0.91372 -0.08351 0.64300
 C534 C 0.90097 -0.08463 0.61454
 C535 C 0.91490 -0.07093 0.59050
 C536 C 0.94171 -0.05552 0.59447
 C537 C 0.95427 -0.05410 0.62300
 C538 C 0.94052 -0.06807 0.64695
 H539 H 0.81384 -0.13742 0.72306
 H540 H 0.79023 -0.16114 0.76574
 H541 H 0.87571 -0.17213 0.80729
 H542 H 0.89955 -0.14840 0.76484
 H543 H 0.88037 -0.09639 0.61073
 H544 H 0.90460 -0.07235 0.56883
 H545 H 0.97497 -0.04251 0.62680
 H546 H 0.95088 -0.06668 0.66859
 C547 C 1.14382 -0.14332 0.25887
 C548 C 1.15337 -0.12621 0.23465
 C549 C 1.16640 -0.13974 0.20999
 C550 C 1.16985 -0.17067 0.20889
 C551 C 1.16045 -0.18780 0.23307
 C552 C 1.14772 -0.17426 0.25791
 C553 C 1.12949 -0.12897 0.28475
 N554 N 1.12586 -0.14390 0.31065
 N555 N 1.11276 -0.13100 0.33380
 C556 C 1.10258 -0.10267 0.33197
 N557 N 1.10619 -0.08777 0.30606
 N558 N 1.11942 -0.10062 0.28298
 C559 C 1.08785 -0.08827 0.35759
 C560 C 1.07138 -0.06208 0.35364
 C561 C 1.05761 -0.04830 0.37773
 C562 C 1.06025 -0.06017 0.40643
 C563 C 1.07667 -0.08641 0.41040
 C564 C 1.09018 -0.10041 0.38621
 H565 H 1.15080 -0.10233 0.23472
 H566 H 1.17333 -0.12615 0.19149
 H567 H 1.16303 -0.21168 0.23267
 H568 H 1.14055 -0.18808 0.27615
 H569 H 1.06899 -0.05223 0.33188
 H570 H 1.04514 -0.02812 0.37386
 H571 H 1.07905 -0.09619 0.43220
 H572 H 1.10274 -0.12055 0.39000
 C573 C 0.85765 0.14406 0.25965
 C574 C 0.84785 0.12662 0.23568
 C575 C 0.83402 0.13975 0.21123
 C576 C 0.82994 0.17059 0.21009
 C577 C 0.83967 0.18807 0.23398
 C578 C 0.85324 0.17494 0.25861
 C579 C 0.87262 0.13009 0.28540
 N580 N 0.87694 0.14541 0.31102
 N581 N 0.89049 0.13278 0.33408
 C582 C 0.90043 0.10436 0.33243
 N583 N 0.89615 0.08908 0.30679
 N584 N 0.88249 0.10165 0.28380
 C585 C 0.91561 0.09023 0.35798
 C586 C 0.93129 0.06353 0.35420
 C587 C 0.94550 0.05003 0.37821
 C588 C 0.94411 0.06274 0.40667
 C589 C 0.92842 0.08945 0.41049
 C590 C 0.91447 0.10314 0.38637
 H591 H 0.85081 0.10278 0.23578
 H592 H 0.82689 0.12588 0.19294
 H593 H 0.83664 0.21190 0.23355
 H594 H 0.86059 0.18901 0.27665
 H595 H 0.93271 0.05304 0.33262
 H596 H 0.95729 0.02941 0.37450
 H597 H 0.92702 0.09985 0.43211
 H598 H 0.90253 0.12367 0.39004
 C599 C 0.14265 0.25740 -0.14283
 C600 C 0.12555 0.23484 -0.15586
 C601 C 0.13915 0.21013 -0.16874
 C602 C 0.17033 0.20700 -0.16861
 C603 C 0.18735 0.22984 -0.15553
 C604 C 0.17370 0.25474 -0.14302
 C605 C 0.12813 0.28336 -0.12877
 N606 N 0.14384 0.30825 -0.12230
 N607 N 0.13078 0.33148 -0.10944
 C608 C 0.10150 0.33070 -0.10234
 N609 N 0.08582 0.30579 -0.10878
 N610 N 0.09883 0.28265 -0.12178
 C611 C 0.08697 0.35637 -0.08779
 C612 C 0.05935 0.35300 -0.07377
 C613 C 0.04562 0.37712 -0.05993
 C614 C 0.05900 0.40527 -0.06013
 C615 C 0.08655 0.40870 -0.07426
 C616 C 0.10049 0.38446 -0.08776
 H617 H 0.10156 0.23624 -0.15611
 H618 H 0.12515 0.19292 -0.17798
 H619 H 0.21135 0.22868 -0.15545
 H620 H 0.18752 0.27176 -0.13318
 H621 H 0.04839 0.33165 -0.07329
 H622 H 0.02432 0.37376 -0.04936
 H623 H 0.09746 0.43009 -0.07470
 H624 H 0.12173 0.38780 -0.09844
 C625 C -0.14384 0.25944 0.14334
 C626 C -0.17466 0.25850 0.14814
 C627 C -0.18767 0.23387 0.16171
 C628 C -0.17010 0.20989 0.17107
 C629 C -0.13930 0.21096 0.16665
 C630 C -0.12631 0.23540 0.15280
 C631 C -0.13003 0.28512 0.12824
 N632 N -0.10196 0.28323 0.11751
 N633 N -0.08955 0.30616 0.10371
 C634 C -0.10463 0.33202 0.10016
 N635 N -0.13269 0.33397 0.11098
 N636 N -0.14517 0.31097 0.12465
 C637 C -0.09066 0.35750 0.08486
 C638 C -0.10281 0.38616 0.08715
 C639 C -0.08913 0.41023 0.07320
 C640 C -0.06321 0.40609 0.05637
 C641 C -0.05136 0.37733 0.05375
 C642 C -0.06481 0.35338 0.06796
 H643 H -0.18879 0.27660 0.14106
 H644 H -0.21146 0.23347 0.16500
 H645 H -0.12539 0.19260 0.17350
 H646 H -0.10251 0.23545 0.14953
 H647 H -0.12268 0.39008 0.10004
 H648 H -0.09889 0.43206 0.07557
 H649 H -0.03144 0.37331 0.04095
 H650 H -0.05497 0.33158 0.06559
 C651 C -0.14365 0.74208 -0.14475
 C652 C -0.15318 0.76615 -0.12729
 C653 C -0.16639 0.79092 -0.14043
 C654 C -0.17008 0.79230 -0.17131
 C655 C -0.16066 0.76831 -0.18881
 C656 C -0.14774 0.74334 -0.17566
 C657 C -0.12920 0.71605 -0.13077
 N658 N -0.12561 0.69026 -0.14599
 N659 N -0.11247 0.66696 -0.13337
 C660 C -0.10220 0.66856 -0.10506
 N661 N -0.10576 0.69436 -0.08988
 N662 N -0.11903 0.71758 -0.10244
 C663 C -0.08740 0.64280 -0.09095
 C664 C -0.07087 0.64657 -0.06476
 C665 C -0.05703 0.62239 -0.05122
 C666 C -0.05966 0.59374 -0.06332
 C667 C -0.07616 0.58994 -0.08955
 C668 C -0.08973 0.61424 -0.10331
 H669 H -0.15046 0.76586 -0.10343
 H670 H -0.17332 0.80928 -0.12656
 H671 H -0.16342 0.76893 -0.21266
 H672 H -0.14059 0.72523 -0.18974
 H673 H -0.06847 0.66828 -0.05474
 H674 H -0.04449 0.62615 -0.03105
 H675 H -0.07852 0.56819 -0.09950
 H676 H -0.10235 0.61059 -0.12344
 C677 C 0.13964 0.74029 0.14397
 C678 C 0.12293 0.76487 0.15352
 C679 C 0.13689 0.78929 0.16657
 C680 C 0.16784 0.78978 0.17008
 C681 C 0.18459 0.76531 0.16054
 C682 C 0.17063 0.74072 0.14777
 C683 C 0.12486 0.71450 0.12989
 N684 N 0.13960 0.68847 0.12609
 N685 N 0.12636 0.66536 0.11325
 C686 C 0.09787 0.66735 0.10353
 N687 N 0.08314 0.69339 0.10732
 N688 N 0.09633 0.71645 0.12029
 C689 C 0.08329 0.64178 0.08886
 C690 C 0.05676 0.64565 0.07286
 C691 C 0.04335 0.62166 0.05849
 C692 C 0.05599 0.59317 0.06007
 C693 C 0.08229 0.58921 0.07639
 C694 C 0.09589 0.61328 0.09047
 H695 H 0.09903 0.76523 0.15099
 H696 H 0.12359 0.80804 0.17359
 H697 H 0.20848 0.76524 0.16315
 H698 H 0.18416 0.72220 0.14058
 H699 H 0.04649 0.66731 0.07114
 H700 H 0.02299 0.62541 0.04624
 H701 H 0.09261 0.56756 0.07797
 H702 H 0.11624 0.60951 0.10271
 C703 C 0.25853 1.14397 0.86109
 C704 C 0.23539 1.15608 0.87806
 C705 C 0.21083 1.16913 0.86431
 C706 C 0.20844 1.17002 0.83310
 C707 C 0.23183 1.15779 0.81622
 C708 C 0.25659 1.14518 0.83003
 C709 C 0.28439 1.12985 0.87570
 N710 N 0.31006 1.12527 0.86061
 N711 N 0.33322 1.11234 0.87371
 C712 C 0.33161 1.10326 0.90237
 N713 N 0.30593 1.10780 0.91745
 N714 N 0.28283 1.12091 0.90441
 C715 C 0.35720 1.08849 0.91680
 C716 C 0.35320 1.07150 0.94258
 C717 C 0.37725 1.05709 0.95589
 C718 C 0.40594 1.05976 0.94402
 C719 C 0.40999 1.07700 0.91840
 C720 C 0.38586 1.09102 0.90481
 H721 H 0.23625 1.15552 0.90206
 H722 H 0.19317 1.17771 0.87816
 H723 H 0.23118 1.15849 0.79222
 H724 H 0.27406 1.13603 0.81632
 H725 H 0.33138 1.06898 0.95228
 H726 H 0.37335 1.04395 0.97556
 H727 H 0.43179 1.07941 0.90862
 H728 H 0.38968 1.10404 0.88502
 C729 C 0.25834 0.85311 1.14145
 C730 C 0.23358 0.84450 1.12448
 C731 C 0.20883 0.83180 1.13806
 C732 C 0.20816 0.82775 1.16890
 C733 C 0.23281 0.83633 1.18592
 C734 C 0.25775 0.84871 1.17233
 C735 C 0.28441 0.86692 1.12705
 N736 N 0.31075 0.86922 1.14158
 N737 N 0.33408 0.88190 1.12865
 C738 C 0.33199 0.89296 1.10071
 N739 N 0.30564 0.89065 1.08620
 N740 N 0.28238 0.87784 1.09905
 C741 C 0.35770 0.90758 1.08646
 C742 C 0.35358 0.92559 1.06138
 C743 C 0.37766 0.93989 1.04822
 C744 C 0.40653 0.93619 1.05953
 C745 C 0.41071 0.91793 1.08444
 C746 C 0.38653 0.90393 1.09788
 H747 H 0.23335 0.84749 1.10066
 H748 H 0.18995 0.82550 1.12456
 H749 H 0.23273 0.83329 1.20974
 H750 H 0.27640 0.85519 1.18605
 H751 H 0.33166 0.92900 1.05211
 H752 H 0.37360 0.95385 1.02913
 H753 H 0.43264 0.91468 1.09377
 H754 H 0.39046 0.89011 1.11711
 C755 C 0.74119 1.14295 1.14430
 C756 C 0.76513 1.15267 1.12688
 C757 C 0.78956 1.16655 1.14000
 C758 C 0.79072 1.17075 1.17083
 C759 C 0.76685 1.16113 1.18829
 C760 C 0.74224 1.14751 1.17516
 C761 C 0.71549 1.12787 1.13035
 N762 N 0.68984 1.12375 1.14559
 N763 N 0.66680 1.11013 1.13299
 C764 C 0.66850 1.09991 1.10468
 N765 N 0.69417 1.10398 1.08949
 N766 N 0.71714 1.11772 1.10203
 C767 C 0.64295 1.08472 1.09057
 C768 C 0.64675 1.06872 1.06407
 C769 C 0.62269 1.05462 1.05052
 C770 C 0.59416 1.05645 1.06297
 C771 C 0.59034 1.07239 1.08951
 C772 C 0.61450 1.08624 1.10325
 H773 H 0.76500 1.14959 1.10306
 H774 H 0.80783 1.17361 1.12616
 H775 H 0.76731 1.16425 1.21210
 H776 H 0.72422 1.14024 1.18922
 H777 H 0.66838 1.06699 1.05377
 H778 H 0.62642 1.04258 1.03005
 H779 H 0.56867 1.07413 1.09973
 H780 H 0.61081 1.09843 1.12363
 C781 C 0.74153 0.85946 0.85447
 C782 C 0.74211 0.82864 0.84958
 C783 C 0.76691 0.81516 0.83669
 C784 C 0.79142 0.83225 0.82810
 C785 C 0.79078 0.86304 0.83267
 C786 C 0.76617 0.87650 0.84587
 C787 C 0.71558 0.87376 0.86873
 N788 N 0.71762 0.90169 0.87989
 N789 N 0.69444 0.91446 0.89304
 C790 C 0.66818 0.89992 0.89545
 N791 N 0.66608 0.87204 0.88417
 N792 N 0.68932 0.85919 0.87116
 C793 C 0.64252 0.91409 0.91035
 C794 C 0.61375 0.90254 0.90694
 C795 C 0.58960 0.91591 0.92114
 C796 C 0.59375 0.94089 0.93938
 C797 C 0.62256 0.95235 0.94284
 C798 C 0.64661 0.93924 0.92834
 H799 H 0.72355 0.81487 0.85604
 H800 H 0.76698 0.79138 0.83326
 H801 H 0.80956 0.87659 0.82639
 H802 H 0.76642 0.90029 0.84924
 H803 H 0.60983 0.88325 0.89315
 H804 H 0.56772 0.90646 0.91807
 H805 H 0.62657 0.97152 0.95675
 H806 H 0.66849 0.94862 0.93156
   
