data_POSCAR
  _audit_creation_date              2014-09-24
  _audit_creation_method            'ToBaCCo'
  _symmetry_space_group_name_H-M    'P1'
  _symmetry_Int_Tables_number       1
  _symmetry_cell_setting            triclinic
  loop_
  _symmetry_equiv_pos_as_xyz
 x,y,z
_cell_length_a 41.7062
_cell_length_b 41.7243
_cell_length_c 41.7519
_cell_angle_alpha 89.963100
_cell_angle_beta 89.985200
_cell_angle_gamma 89.966000
loop_
  _atom_site_label
  _atom_site_type_symbol
  _atom_site_fract_x
  _atom_site_fract_y
  _atom_site_fract_z
C1 C 0.27263 0.25007 0.22697
 N2 N 0.27255 0.22702 0.24991
 C3 C 0.24950 0.22700 0.27286
 N4 N 0.22653 0.25004 0.27286
 C5 C 0.22660 0.27310 0.24992
 N6 N 0.24965 0.27311 0.22698
 C7 C 0.72624 -0.25054 0.22642
 N8 N 0.74934 -0.27345 0.22635
 C9 C 0.77240 -0.27342 0.24928
 N10 N 0.77234 -0.25045 0.27229
 C11 C 0.74924 -0.22754 0.27236
 N12 N 0.72619 -0.22758 0.24942
 C13 C 0.72791 0.25051 0.77246
 N14 N 0.75081 0.27360 0.77239
 C15 C 0.77381 0.27365 0.74940
 N16 N 0.77392 0.25060 0.72648
 C17 C 0.75103 0.22751 0.72656
 N18 N 0.72802 0.22746 0.74955
 C19 C 0.27384 -0.25036 0.77437
 N20 N 0.27400 -0.22744 0.75129
 C21 C 0.25102 -0.22737 0.72829
 N22 N 0.22788 -0.25021 0.72837
 C23 C 0.22771 -0.27312 0.75144
 N24 N 0.25069 -0.27320 0.77444
 C25 C 0.72632 -0.25030 0.77412
 N26 N 0.72628 -0.22734 0.75107
 C27 C 0.74927 -0.22736 0.72806
 N28 N 0.77230 -0.25036 0.72809
 C29 C 0.77235 -0.27332 0.75113
 N30 N 0.74936 -0.27329 0.77414
 C31 C 0.27276 0.24995 0.77273
 N32 N 0.27276 0.22695 0.74976
 C33 C 0.24975 0.22694 0.72679
 N34 N 0.22672 0.24994 0.72679
 C35 C 0.22672 0.27295 0.74976
 N36 N 0.24974 0.27295 0.77272
 C37 C 0.27322 -0.25102 0.22610
 N38 N 0.27334 -0.22811 0.24916
 C39 C 0.25030 -0.22803 0.27213
 N40 N 0.22715 -0.25087 0.27203
 C41 C 0.22701 -0.27378 0.24898
 N42 N 0.25006 -0.27386 0.22601
 C43 C 0.72823 0.25099 0.22723
 N44 N 0.75114 0.27407 0.22727
 C45 C 0.77417 0.27410 0.25023
 N46 N 0.77428 0.25103 0.27316
 C47 C 0.75137 0.22794 0.27313
 N48 N 0.72835 0.22792 0.25016
 O49 O 0.22362 0.03014 0.46868
 O50 O 0.22409 -0.03221 0.53114
 O51 O 0.22373 0.03020 0.53104
 O52 O 0.22396 -0.03228 0.46874
 O53 O 0.27699 -0.03202 0.46863
 O54 O 0.27676 0.03046 0.53093
 O55 O 0.27712 -0.03195 0.53102
 O56 O 0.27665 0.03040 0.46857
 Cu57 Cu 0.21850 -0.00107 0.49991
 Cu58 Cu 0.28223 -0.00076 0.49977
 C59 C 0.25006 0.04081 0.45809
 C60 C 0.25068 -0.04259 0.54164
 C61 C 0.25020 0.04088 0.54150
 C62 C 0.25051 -0.04269 0.45816
 O63 O 0.72409 0.03101 0.53103
 O64 O 0.72362 -0.03140 0.46871
 O65 O 0.72361 -0.03140 0.53110
 O66 O 0.72413 0.03103 0.46867
 O67 O 0.77716 0.03058 0.46868
 O68 O 0.77663 -0.03185 0.53111
 O69 O 0.77665 -0.03185 0.46871
 O70 O 0.77712 0.03057 0.53104
 Cu71 Cu 0.71851 -0.00015 0.49987
 Cu72 Cu 0.78224 -0.00069 0.49988
 C73 C 0.75068 0.04133 0.54155
 C74 C 0.75006 -0.04215 0.45818
 C75 C 0.75003 -0.04215 0.54166
 C76 C 0.75073 0.04136 0.45815
 O77 O 0.46935 0.22382 0.03119
 O78 O 0.53179 0.22385 -0.03118
 O79 O 0.53180 0.22393 0.03120
 O80 O 0.46935 0.22376 -0.03118
 O81 O 0.46923 0.27677 -0.03127
 O82 O 0.53169 0.27694 0.03111
 O83 O 0.53168 0.27686 -0.03127
 O84 O 0.46923 0.27683 0.03110
 Cu85 Cu 0.50058 0.21849 0.00002
 Cu86 Cu 0.50045 0.28220 -0.00009
 C87 C 0.45875 0.25032 0.04167
 C88 C 0.54227 0.25036 -0.04176
 C89 C 0.54228 0.25046 0.04168
 C90 C 0.45875 0.25024 -0.04175
 O91 O 0.53129 0.72273 0.03156
 O92 O 0.46890 0.72274 -0.03085
 O93 O 0.53135 0.72284 -0.03083
 O94 O 0.46883 0.72263 0.03153
 O95 O 0.46872 0.77563 0.03159
 O96 O 0.53124 0.77584 -0.03077
 O97 O 0.46879 0.77575 -0.03079
 O98 O 0.53117 0.77574 0.03162
 Cu99 Cu 0.50011 0.71739 0.00035
 Cu100 Cu 0.49997 0.78109 0.00042
 C101 C 0.54176 0.74923 0.04213
 C102 C 0.45832 0.74925 -0.04135
 C103 C 0.54184 0.74937 -0.04133
 C104 C 0.45822 0.74909 0.04208
 O105 O 0.03075 0.46988 0.22298
 O106 O -0.03171 0.53231 0.22281
 O107 O 0.03077 0.53230 0.22274
 O108 O -0.03168 0.46988 0.22306
 O109 O -0.03163 0.47005 0.27603
 O110 O 0.03081 0.53247 0.27571
 O111 O -0.03166 0.53247 0.27578
 O112 O 0.03080 0.47005 0.27595
 Cu113 Cu -0.00047 0.50109 0.21755
 Cu114 Cu -0.00042 0.50129 0.28121
 C115 C 0.04130 0.45942 0.24950
 C116 C -0.04224 0.54291 0.24927
 C117 C 0.04135 0.54290 0.24918
 C118 C -0.04217 0.45941 0.24960
 O119 O 0.03035 0.53201 0.72418
 O120 O -0.03206 0.46962 0.72368
 O121 O -0.03212 0.53205 0.72408
 O122 O 0.03037 0.46960 0.72379
 O123 O 0.03026 0.46924 0.77676
 O124 O -0.03223 0.53168 0.77704
 O125 O -0.03217 0.46925 0.77665
 O126 O 0.03024 0.53165 0.77715
 Cu127 Cu -0.00086 0.50086 0.71859
 Cu128 Cu -0.00099 0.50043 0.78225
 C129 C 0.04084 0.54234 0.75075
 C130 C -0.04263 0.45889 0.75008
 C131 C -0.04273 0.54240 0.75061
 C132 C 0.04086 0.45888 0.75023
 C133 C 0.29699 0.25008 0.20272
 C134 C 0.31747 0.25011 0.18235
 C135 C 0.34191 0.25016 0.15803
 C136 C 0.33377 0.24415 0.12603
 C137 C 0.35753 0.24420 0.10239
 C138 C 0.38952 0.25025 0.11065
 C139 C 0.39766 0.25626 0.14264
 C140 C 0.37390 0.25621 0.16629
 C141 C 0.41396 0.25028 0.08632
 C142 C 0.43442 0.25031 0.06593
 H143 H 0.30911 0.23944 0.11939
 H144 H 0.35098 0.23952 0.07772
 H145 H 0.42232 0.26096 0.14928
 H146 H 0.38045 0.26089 0.19095
 C147 C 0.70319 0.74943 0.20346
 C148 C 0.68274 0.74940 0.18306
 C149 C 0.65834 0.74937 0.15870
 C150 C 0.66035 0.77072 0.13287
 C151 C 0.63665 0.77068 0.10918
 C152 C 0.61084 0.74929 0.11123
 C153 C 0.60883 0.72794 0.13707
 C154 C 0.63254 0.72798 0.16076
 C155 C 0.58646 0.74925 0.08685
 C156 C 0.56604 0.74924 0.06643
 H157 H 0.68020 0.78736 0.13105
 H158 H 0.63843 0.78729 0.08930
 H159 H 0.58898 0.71130 0.13889
 H160 H 0.63075 0.71137 0.18064
 C161 C 0.70360 0.25046 -0.20323
 C162 C 0.68318 0.25044 -0.18281
 C163 C 0.65881 0.25043 -0.15841
 C164 C 0.63239 0.22987 -0.16100
 C165 C 0.60870 0.22986 -0.13729
 C166 C 0.61134 0.25040 -0.11089
 C167 C 0.63776 0.27096 -0.10830
 C168 C 0.66145 0.27097 -0.13202
 C169 C 0.58698 0.25037 -0.08649
 C170 C 0.56657 0.25037 -0.06605
 H171 H 0.63011 0.21389 -0.18132
 H172 H 0.58837 0.21386 -0.13952
 H173 H 0.64004 0.28694 -0.08798
 H174 H 0.68179 0.28696 -0.12978
 C175 C 0.29684 0.74956 -0.20263
 C176 C 0.31727 0.74950 -0.18222
 C177 C 0.34167 0.74945 -0.15786
 C178 C 0.33692 0.73235 -0.12935
 C179 C 0.36064 0.73229 -0.10567
 C180 C 0.38919 0.74933 -0.11041
 C181 C 0.39393 0.76643 -0.13891
 C182 C 0.37022 0.76649 -0.16259
 C183 C 0.41358 0.74929 -0.08604
 C184 C 0.43402 0.74926 -0.06563
 H185 H 0.31493 0.71909 -0.12545
 H186 H 0.35673 0.71900 -0.08372
 H187 H 0.41592 0.77969 -0.14281
 H188 H 0.37413 0.77978 -0.18454
 C189 C 0.20232 0.29746 0.24992
 C190 C 0.18194 0.31794 0.24989
 C191 C 0.15761 0.34241 0.24984
 C192 C 0.15530 0.36390 0.27551
 C193 C 0.13167 0.38769 0.27544
 C194 C 0.11026 0.39010 0.24969
 C195 C 0.11257 0.36861 0.22402
 C196 C 0.13620 0.34481 0.22409
 C197 C 0.08595 0.41457 0.24962
 C198 C 0.06557 0.43507 0.24956
 H199 H 0.17174 0.36225 0.29553
 H200 H 0.13010 0.40419 0.29541
 H201 H 0.09613 0.37026 0.20400
 H202 H 0.13778 0.32832 0.20412
 C203 C 0.20324 0.70273 0.75149
 C204 C 0.18267 0.68245 0.75147
 C205 C 0.15811 0.65826 0.75139
 C206 C 0.14652 0.64590 0.78037
 C207 C 0.12265 0.62237 0.78027
 C208 C 0.11026 0.61112 0.75118
 C209 C 0.12184 0.62349 0.72220
 C210 C 0.14572 0.64701 0.72230
 C211 C 0.08574 0.58689 0.75107
 C212 C 0.06522 0.56656 0.75094
 H213 H 0.15594 0.65443 0.80299
 H214 H 0.11386 0.61296 0.80282
 H215 H 0.11243 0.61496 0.69958
 H216 H 0.15450 0.65641 0.69975
 C217 C -0.20449 0.70367 0.24922
 C218 C -0.18395 0.68333 0.24918
 C219 C -0.15942 0.65907 0.24917
 C220 C -0.14480 0.64989 0.27797
 C221 C -0.12096 0.62631 0.27797
 C222 C -0.11164 0.61181 0.24917
 C223 C -0.12625 0.62099 0.22038
 C224 C -0.15009 0.64457 0.22038
 C225 C -0.08713 0.58752 0.24918
 C226 C -0.06662 0.56716 0.24921
 H227 H -0.15183 0.66095 0.30037
 H228 H -0.10982 0.61939 0.30037
 H229 H -0.11922 0.60992 0.19798
 H230 H -0.16124 0.65149 0.19798
 C231 C -0.20329 0.29676 0.74934
 C232 C -0.18297 0.31729 0.74933
 C233 C -0.15873 0.34181 0.74937
 C234 C -0.12781 0.33496 0.73816
 C235 C -0.10424 0.35878 0.73826
 C236 C -0.11149 0.38955 0.74957
 C237 C -0.14241 0.39641 0.76077
 C238 C -0.16599 0.37259 0.76067
 C239 C -0.08722 0.41404 0.74973
 C240 C -0.06687 0.43454 0.74989
 H241 H -0.12195 0.31124 0.72938
 H242 H -0.08040 0.35322 0.72955
 H243 H -0.14827 0.42013 0.76957
 H244 H -0.18982 0.37814 0.76939
 C245 C 0.24944 0.20264 0.29711
 C246 C 0.24943 0.18215 0.31747
 C247 C 0.24945 0.15769 0.34178
 C248 C 0.25026 0.12528 0.33306
 C249 C 0.25034 0.10151 0.35669
 C250 C 0.24962 0.11005 0.38913
 C251 C 0.24880 0.14247 0.39785
 C252 C 0.24871 0.16624 0.37422
 C253 C 0.24975 0.08560 0.41344
 C254 C 0.24989 0.06513 0.43382
 H255 H 0.25084 0.11841 0.30805
 H256 H 0.25098 0.07652 0.34969
 H257 H 0.24824 0.14933 0.42286
 H258 H 0.24809 0.19123 0.38122
 C259 C 0.75113 0.20315 0.70233
 C260 C 0.75118 0.18267 0.68199
 C261 C 0.75120 0.15822 0.65771
 C262 C 0.75110 0.16677 0.62525
 C263 C 0.75105 0.14300 0.60165
 C264 C 0.75109 0.11058 0.61041
 C265 C 0.75121 0.10202 0.64287
 C266 C 0.75126 0.12579 0.66647
 C267 C 0.75098 0.08613 0.58613
 C268 C 0.75085 0.06566 0.56577
 H269 H 0.75105 0.19177 0.61822
 H270 H 0.75096 0.14988 0.57662
 H271 H 0.75124 0.07702 0.64990
 H272 H 0.75133 0.11892 0.69150
 C273 C 0.25117 -0.20315 0.70389
 C274 C 0.25125 -0.18283 0.68336
 C275 C 0.25128 -0.15858 0.65884
 C276 C 0.24913 -0.12614 0.66723
 C277 C 0.24906 -0.10258 0.64339
 C278 C 0.25114 -0.11137 0.61107
 C279 C 0.25331 -0.14380 0.60268
 C280 C 0.25338 -0.16737 0.62653
 C281 C 0.25100 -0.08713 0.58654
 C282 C 0.25086 -0.06680 0.56602
 H283 H 0.24748 -0.11909 0.69214
 H284 H 0.24736 -0.07756 0.65013
 H285 H 0.25492 -0.15086 0.57777
 H286 H 0.25504 -0.19238 0.61978
 C287 C 0.74921 -0.20326 0.29667
 C288 C 0.74923 -0.18287 0.31711
 C289 C 0.74929 -0.15855 0.34152
 C290 C 0.75232 -0.16717 0.37382
 C291 C 0.75245 -0.14352 0.39754
 C292 C 0.74955 -0.11115 0.38906
 C293 C 0.74651 -0.10253 0.35676
 C294 C 0.74639 -0.12618 0.33304
 C295 C 0.74972 -0.08682 0.41346
 C296 C 0.74987 -0.06642 0.43389
 H297 H 0.75459 -0.19213 0.38064
 H298 H 0.75481 -0.15045 0.42244
 H299 H 0.74426 -0.07757 0.34995
 H300 H 0.74404 -0.11925 0.30814
 C301 C 0.70330 0.74971 -0.20286
 C302 C 0.68287 0.74971 -0.18242
 C303 C 0.65848 0.74967 -0.15802
 C304 C 0.63206 0.72911 -0.16063
 C305 C 0.60836 0.72906 -0.13691
 C306 C 0.61098 0.74957 -0.11048
 C307 C 0.63740 0.77014 -0.10788
 C308 C 0.66110 0.77019 -0.13160
 C309 C 0.58660 0.74951 -0.08607
 C310 C 0.56617 0.74945 -0.06563
 H311 H 0.62979 0.71315 -0.18096
 H312 H 0.58803 0.71306 -0.13917
 H313 H 0.63967 0.78610 -0.08754
 H314 H 0.68142 0.78619 -0.12934
 C315 C 0.29711 0.24996 -0.20298
 C316 C 0.31756 0.24998 -0.18258
 C317 C 0.34198 0.25002 -0.15823
 C318 C 0.33719 0.23318 -0.12958
 C319 C 0.36092 0.23322 -0.10591
 C320 C 0.38955 0.25010 -0.11079
 C321 C 0.39434 0.26694 -0.13944
 C322 C 0.37060 0.26690 -0.16311
 C323 C 0.41397 0.25013 -0.08644
 C324 C 0.43442 0.25017 -0.06604
 H325 H 0.31515 0.22005 -0.12555
 H326 H 0.35697 0.22012 -0.08385
 H327 H 0.41638 0.28006 -0.14347
 H328 H 0.37456 0.28000 -0.18517
 C329 C 0.29628 0.74891 0.20313
 C330 C 0.31677 0.74887 0.18274
 C331 C 0.34124 0.74886 0.15842
 C332 C 0.33324 0.74214 0.12653
 C333 C 0.35702 0.74217 0.10289
 C334 C 0.38890 0.74891 0.11104
 C335 C 0.39690 0.75562 0.14293
 C336 C 0.37312 0.75559 0.16657
 C337 C 0.41336 0.74896 0.08671
 C338 C 0.43385 0.74901 0.06633
 H339 H 0.30867 0.73691 0.11996
 H340 H 0.35056 0.73695 0.07831
 H341 H 0.42147 0.76086 0.14950
 H342 H 0.37957 0.76082 0.19115
 C343 C 0.70389 0.25096 0.20294
 C344 C 0.68344 0.25092 0.18255
 C345 C 0.65901 0.25086 0.15820
 C346 C 0.66100 0.27214 0.13230
 C347 C 0.63727 0.27206 0.10863
 C348 C 0.61145 0.25070 0.11075
 C349 C 0.60945 0.22941 0.13665
 C350 C 0.63318 0.22950 0.16032
 C351 C 0.58704 0.25059 0.08638
 C352 C 0.56660 0.25052 0.06597
 H353 H 0.68087 0.28876 0.13042
 H354 H 0.63905 0.28862 0.08871
 H355 H 0.58959 0.21279 0.13853
 H356 H 0.63141 0.21293 0.18024
 C357 C -0.20460 0.70367 0.75113
 C358 C -0.18413 0.68324 0.75111
 C359 C -0.15968 0.65888 0.75104
 C360 C -0.14562 0.64902 0.77989
 C361 C -0.12184 0.62535 0.77981
 C362 C -0.11203 0.61145 0.75088
 C363 C -0.12609 0.62130 0.72204
 C364 C -0.14987 0.64497 0.72211
 C365 C -0.08756 0.58709 0.75080
 C366 C -0.06708 0.56669 0.75072
 H367 H -0.15302 0.65962 0.80240
 H368 H -0.11113 0.61792 0.80226
 H369 H -0.11869 0.61071 0.69953
 H370 H -0.16057 0.65241 0.69967
 C371 C -0.20291 0.29721 0.25025
 C372 C -0.18256 0.31773 0.25023
 C373 C -0.15829 0.34224 0.25017
 C374 C -0.12725 0.33519 0.23942
 C375 C -0.10367 0.35902 0.23931
 C376 C -0.11103 0.39001 0.24995
 C377 C -0.14207 0.39706 0.26070
 C378 C -0.16565 0.37323 0.26081
 C379 C -0.08677 0.41453 0.24983
 C380 C -0.06642 0.43504 0.24972
 H381 H -0.12130 0.31131 0.23113
 H382 H -0.07975 0.35330 0.23094
 H383 H -0.14803 0.42094 0.26898
 H384 H -0.18957 0.37895 0.26917
 C385 C 0.20237 0.29727 0.74976
 C386 C 0.18193 0.31771 0.74979
 C387 C 0.15753 0.34213 0.74985
 C388 C 0.15548 0.36380 0.77539
 C389 C 0.13177 0.38753 0.77545
 C390 C 0.11001 0.38969 0.74997
 C391 C 0.11206 0.36801 0.72443
 C392 C 0.13577 0.34428 0.72437
 C393 C 0.08562 0.41410 0.75004
 C394 C 0.06518 0.43455 0.75012
 H395 H 0.17218 0.36235 0.79521
 H396 H 0.13041 0.40416 0.79532
 H397 H 0.09536 0.36946 0.70461
 H398 H 0.13714 0.32765 0.70450
 C399 C 0.20384 0.70336 0.24890
 C400 C 0.18325 0.68308 0.24888
 C401 C 0.15866 0.65888 0.24889
 C402 C 0.14656 0.64719 0.27795
 C403 C 0.12268 0.62366 0.27798
 C404 C 0.11080 0.61172 0.24895
 C405 C 0.12289 0.62342 0.21990
 C406 C 0.14677 0.64695 0.21987
 C407 C 0.08626 0.58747 0.24900
 C408 C 0.06573 0.56714 0.24906
 H409 H 0.15558 0.65624 0.30053
 H410 H 0.11351 0.61478 0.30058
 H411 H 0.11388 0.61436 0.19732
 H412 H 0.15596 0.65583 0.19727
 C413 C 0.74924 -0.20309 0.70369
 C414 C 0.74925 -0.18272 0.68319
 C415 C 0.74930 -0.15842 0.65870
 C416 C 0.74648 -0.12603 0.66709
 C417 C 0.74659 -0.10241 0.64329
 C418 C 0.74952 -0.11109 0.61100
 C419 C 0.75233 -0.14348 0.60262
 C420 C 0.75222 -0.16710 0.62641
 C421 C 0.74968 -0.08678 0.58652
 C422 C 0.74983 -0.06641 0.56602
 H423 H 0.74421 -0.11905 0.69198
 H424 H 0.74441 -0.07744 0.65004
 H425 H 0.75461 -0.15046 0.57773
 H426 H 0.75442 -0.19207 0.61966
 C427 C 0.25043 -0.20379 0.29650
 C428 C 0.25051 -0.18342 0.31698
 C429 C 0.25059 -0.15910 0.34141
 C430 C 0.25284 -0.16777 0.37376
 C431 C 0.25287 -0.14413 0.39750
 C432 C 0.25066 -0.11171 0.38899
 C433 C 0.24842 -0.10304 0.35664
 C434 C 0.24839 -0.12668 0.33290
 C435 C 0.25064 -0.08738 0.41342
 C436 C 0.25059 -0.06698 0.43386
 H437 H 0.25455 -0.19276 0.38061
 H438 H 0.25461 -0.15111 0.42244
 H439 H 0.24669 -0.07805 0.34979
 H440 H 0.24664 -0.11970 0.30796
 C441 C 0.75147 0.20353 0.29737
 C442 C 0.75150 0.18302 0.31771
 C443 C 0.75148 0.15850 0.34199
 C444 C 0.75145 0.12609 0.33322
 C445 C 0.75135 0.10227 0.35680
 C446 C 0.75126 0.11075 0.38927
 C447 C 0.75131 0.14316 0.39805
 C448 C 0.75142 0.16699 0.37446
 C449 C 0.75109 0.08624 0.41355
 C450 C 0.75093 0.06573 0.43390
 H451 H 0.75149 0.11926 0.30818
 H452 H 0.75131 0.07728 0.34975
 H453 H 0.75124 0.14999 0.42308
 H454 H 0.75143 0.19197 0.38151
 C455 C 0.24976 0.20260 0.70252
 C456 C 0.24978 0.18215 0.68214
 C457 C 0.24983 0.15771 0.65781
 C458 C 0.24903 0.16629 0.62537
 C459 C 0.24909 0.14255 0.60173
 C460 C 0.24997 0.11012 0.61044
 C461 C 0.25077 0.10154 0.64288
 C462 C 0.25071 0.12529 0.66652
 C463 C 0.25003 0.08568 0.58612
 C464 C 0.25011 0.06522 0.56575
 H465 H 0.24835 0.19129 0.61837
 H466 H 0.24847 0.14945 0.57672
 H467 H 0.25145 0.07654 0.64988
 H468 H 0.25134 0.11838 0.69153
   
