data_POSCAR
  _audit_creation_date              2014-09-24
  _audit_creation_method            'ToBaCCo'
  _symmetry_space_group_name_H-M    'P1'
  _symmetry_Int_Tables_number       1
  _symmetry_cell_setting            triclinic
  loop_
  _symmetry_equiv_pos_as_xyz
 x,y,z
_cell_length_a 42.9390
_cell_length_b 33.3294
_cell_length_c 17.3513
_cell_angle_alpha 90.167500
_cell_angle_beta 90.093200
_cell_angle_gamma 89.976800
loop_
  _atom_site_label
  _atom_site_type_symbol
  _atom_site_fract_x
  _atom_site_fract_y
  _atom_site_fract_z
C1 C 0.72616 0.27117 0.53941
 C2 C 0.72968 0.27506 0.45813
 C3 C 0.75358 0.25458 0.42013
 C4 C 0.77456 0.22939 0.45908
 C5 C 0.77310 0.22759 0.54148
 C6 C 0.74811 0.24723 0.57904
 H7 H 0.74656 0.24528 0.64119
 H8 H 0.75457 0.25677 0.35776
 C9 C 0.22666 0.77118 0.54000
 C10 C 0.22728 0.77079 0.45820
 C11 C 0.24974 0.74788 0.41993
 C12 C 0.27241 0.72606 0.45985
 C13 C 0.27338 0.72757 0.54212
 C14 C 0.24993 0.74988 0.58022
 H15 H 0.24953 0.75060 0.64259
 H16 H 0.24977 0.74728 0.35736
 C17 C 0.27071 0.27466 -0.53757
 C18 C 0.27113 0.27170 -0.45611
 C19 C 0.24936 0.24716 -0.41891
 C20 C 0.22578 0.22639 -0.45938
 C21 C 0.22586 0.22846 -0.54196
 C22 C 0.24752 0.25385 -0.57852
 H23 H 0.24784 0.25509 -0.64093
 H24 H 0.24988 0.24650 -0.35644
 C25 C -0.22813 0.77278 -0.53785
 C26 C -0.22764 0.76974 -0.45641
 C27 C -0.24923 0.74492 -0.41931
 C28 C -0.27275 0.72404 -0.45987
 C29 C -0.27276 0.72624 -0.54244
 C30 C -0.25122 0.75182 -0.57889
 H31 H -0.25093 0.75316 -0.64129
 H32 H -0.24869 0.74417 -0.35685
 N33 N -0.03408 1.04509 -0.13145
 N34 N -0.05527 1.05381 -0.18391
 N35 N 0.03189 1.07187 -0.08035
 N36 N 0.05356 1.09890 -0.09495
 N37 N 0.03099 1.04461 -0.13518
 N38 N 0.05162 1.05277 -0.18922
 N39 N -0.03382 1.07233 -0.07659
 N40 N -0.05524 1.09998 -0.08965
 C41 C -0.06855 1.08774 -0.15646
 C42 C 0.06575 1.08639 -0.16277
 N43 N 0.03379 1.04296 0.13828
 N44 N 0.05719 1.04835 0.18656
 N45 N -0.03214 1.07138 0.08927
 N46 N -0.05509 1.09687 0.10215
 N47 N -0.03174 1.04319 0.14196
 N48 N -0.05441 1.04871 0.19221
 N49 N 0.03344 1.07112 0.08559
 N50 N 0.05660 1.09658 0.09665
 Mn51 Mn -0.00015 1.07213 0.00453
 C52 C 0.07125 1.08179 0.15966
 C53 C -0.06880 1.08223 0.16639
 N54 N 0.03066 0.95766 -0.13719
 N55 N 0.05165 0.95013 -0.19084
 N56 N -0.03405 0.93012 -0.08057
 N57 N -0.05629 0.90358 -0.09341
 N58 N -0.03473 0.95850 -0.13292
 N59 N -0.05754 0.95215 -0.18258
 N60 N 0.03151 0.93002 -0.08339
 N61 N 0.05342 0.90332 -0.09831
 Mn62 Mn -0.00179 1.00143 -0.13493
 C63 C 0.06585 0.91642 -0.16526
 C64 C -0.07087 0.91793 -0.15685
 N65 N -0.03162 0.95672 0.14040
 N66 N -0.05257 0.94913 0.19390
 N67 N 0.03293 0.92898 0.08276
 N68 N 0.05528 0.90240 0.09444
 N69 N 0.03364 0.95693 0.13618
 N70 N 0.05651 0.95036 0.18536
 N71 N -0.03271 0.92952 0.08555
 N72 N -0.05481 0.90300 0.09962
 Mn73 Mn 0.00101 0.99998 0.13997
 Mn74 Mn -0.00058 0.92920 0.00105
 Cl75 Cl -0.00038 1.00068 0.00258
 C76 C -0.06705 0.91584 0.16720
 C77 C 0.06988 0.91641 0.15835
 N78 N 0.53316 0.57010 -0.08156
 N79 N 0.55503 0.59683 -0.09617
 N80 N 0.46701 0.54375 -0.13276
 N81 N 0.44547 0.55188 -0.18464
 N82 N 0.46747 0.57139 -0.07865
 N83 N 0.44596 0.59892 -0.09196
 N84 N 0.53214 0.54272 -0.13614
 N85 N 0.55291 0.55050 -0.19006
 C86 C 0.56723 0.58401 -0.16374
 C87 C 0.43231 0.58606 -0.15800
 N88 N 0.46623 0.42904 -0.08108
 N89 N 0.44367 0.40291 -0.09364
 N90 N 0.53132 0.45583 -0.13723
 N91 N 0.55233 0.44804 -0.19068
 N92 N 0.53171 0.42802 -0.08371
 N93 N 0.55317 0.40075 -0.09900
 N94 N 0.46587 0.45730 -0.13366
 N95 N 0.44297 0.45130 -0.18320
 Mn96 Mn 0.49909 0.49987 -0.13569
 C97 C 0.42926 0.41740 -0.15718
 C98 C 0.56594 0.41383 -0.16562
 N99 N 0.46903 0.57092 0.08755
 N100 N 0.44662 0.59714 0.10081
 N101 N 0.53455 0.54173 0.13721
 N102 N 0.55786 0.54703 0.18580
 N103 N 0.53450 0.56977 0.08427
 N104 N 0.55777 0.59505 0.09548
 N105 N 0.46894 0.54263 0.14006
 N106 N 0.44631 0.54863 0.19020
 Mn107 Mn 0.50104 0.57100 0.00293
 C108 C 0.43259 0.58269 0.16475
 C109 C 0.57219 0.58028 0.15883
 N110 N 0.53296 0.42754 0.08264
 N111 N 0.55551 0.40121 0.09385
 N112 N 0.46853 0.45616 0.13955
 N113 N 0.44749 0.44891 0.19305
 N114 N 0.46733 0.42881 0.08500
 N115 N 0.44506 0.40252 0.09930
 N116 N 0.53383 0.45571 0.13565
 N117 N 0.55710 0.44961 0.18391
 Mn118 Mn 0.49955 0.42789 0.00071
 Mn119 Mn 0.50145 0.49908 0.13890
 Cl120 Cl 0.50028 0.49946 0.00165
 C121 C 0.57043 0.41563 0.15695
 C122 C 0.43284 0.41567 0.16668
 C123 C 0.33977 0.33430 0.33376
 N124 N 0.31214 0.32426 0.30098
 N125 N 0.29025 0.30580 0.34208
 C126 C 0.29512 0.29636 0.41740
 N127 N 0.32319 0.30554 0.44905
 N128 N 0.34491 0.32457 0.40850
 C129 C 0.36367 0.35563 0.28969
 N130 N 0.38445 0.37969 0.32645
 N131 N 0.40622 0.39920 0.28688
 C132 C 0.40830 0.39486 0.20930
 N133 N 0.38767 0.37060 0.17246
 N134 N 0.36555 0.35158 0.21192
 C135 C -0.15950 0.83321 0.33373
 N136 N -0.18717 0.82327 0.30112
 N137 N -0.20895 0.80455 0.34216
 C138 C -0.20388 0.79475 0.41722
 N139 N -0.17576 0.80382 0.44867
 N140 N -0.15416 0.82311 0.40820
 C141 C -0.13576 0.85486 0.28981
 N142 N -0.11504 0.87890 0.32677
 N143 N -0.09341 0.89871 0.28732
 C144 C -0.09143 0.89470 0.20967
 N145 N -0.11200 0.87046 0.17262
 N146 N -0.13399 0.85112 0.21198
 C147 C 0.66976 0.65826 0.31737
 N148 N 0.67946 0.69516 0.29500
 N149 N 0.69847 0.71663 0.33966
 C150 C 0.70813 0.70245 0.40920
 N151 N 0.69967 0.66459 0.42928
 N152 N 0.68064 0.64309 0.38470
 C153 C 0.64616 0.63644 0.27250
 N154 N 0.63454 0.60114 0.29862
 N155 N 0.61136 0.58288 0.26142
 C156 C 0.59892 0.59927 0.19681
 N157 N 0.61074 0.63433 0.17012
 N158 N 0.63392 0.65262 0.20739
 C159 C 0.16858 1.16026 0.31791
 N160 N 0.17823 1.19716 0.29543
 N161 N 0.19717 1.21872 0.34012
 C162 C 0.20677 1.20464 0.40977
 N163 N 0.19834 1.16680 0.42998
 N164 N 0.17940 1.14519 0.38538
 C165 C 0.14508 1.13832 0.27302
 N166 N 0.13364 1.10291 0.29906
 N167 N 0.11051 1.08453 0.26190
 C168 C 0.09795 1.10091 0.19745
 N169 N 0.10958 1.13609 0.17082
 N170 N 0.13272 1.15450 0.20804
 C171 C 0.65735 0.32908 -0.33419
 N172 N 0.67765 0.30377 -0.29926
 N173 N 0.69955 0.28497 -0.34012
 C174 C 0.70207 0.29039 -0.41771
 N175 N 0.68118 0.31525 -0.45197
 N176 N 0.65945 0.33433 -0.41137
 C177 C 0.63376 0.35108 -0.28962
 N178 N 0.61807 0.38210 -0.32219
 N179 N 0.59672 0.40233 -0.28227
 C180 C 0.59012 0.39213 -0.20846
 N181 N 0.60573 0.36106 -0.17581
 N182 N 0.62730 0.34102 -0.21556
 C183 C 0.15762 0.83140 -0.33134
 N184 N 0.18442 0.81910 -0.29728
 N185 N 0.20619 0.80007 -0.33811
 C186 C 0.20198 0.79228 -0.41445
 N187 N 0.17465 0.80358 -0.44738
 N188 N 0.15307 0.82315 -0.40706
 C189 C 0.13406 0.85376 -0.28766
 N190 N 0.11429 0.87911 -0.32447
 N191 N 0.09288 0.89958 -0.28518
 C192 C 0.09019 0.89501 -0.20781
 N193 N 0.10983 0.86951 -0.17096
 N194 N 0.13158 0.84949 -0.21011
 C195 C 0.34116 0.67086 -0.32652
 N196 N 0.31832 0.69257 -0.29210
 N197 N 0.29663 0.71088 -0.33445
 C198 C 0.29687 0.70850 -0.41293
 N199 N 0.32033 0.68747 -0.44639
 N200 N 0.34181 0.66881 -0.40443
 C201 C 0.36450 0.64895 -0.28126
 N202 N 0.38119 0.61915 -0.31498
 N203 N 0.40250 0.59894 -0.27509
 C204 C 0.40815 0.60803 -0.20015
 N205 N 0.39156 0.63794 -0.16620
 N206 N 0.36994 0.65791 -0.20597
 C207 C -0.15836 1.17528 -0.32350
 N208 N -0.15264 1.18484 -0.39793
 N209 N -0.17443 1.20243 -0.44065
 C210 C -0.20326 1.21007 -0.41200
 N211 N -0.20841 1.20182 -0.33618
 N212 N -0.18646 1.18474 -0.29281
 C213 C -0.13503 1.15307 -0.27903
 N214 N -0.13343 1.15622 -0.20105
 N215 N -0.11211 1.13557 -0.16159
 C216 C -0.09215 1.11052 -0.19871
 N217 N -0.09398 1.10716 -0.27647
 N218 N -0.11489 1.12826 -0.31595
 C219 C 0.65832 0.66894 -0.33079
 N220 N 0.65346 0.67754 -0.40611
 N221 N 0.67538 0.69584 -0.44720
 C222 C 0.70347 0.70524 -0.41584
 N223 N 0.70772 0.69769 -0.33938
 N224 N 0.68565 0.67993 -0.29771
 C225 C 0.63470 0.64705 -0.28686
 N226 N 0.63283 0.65084 -0.20907
 N227 N 0.61127 0.63077 -0.16964
 C228 C 0.59126 0.60567 -0.20651
 N229 N 0.59332 0.60162 -0.28413
 N230 N 0.61453 0.62214 -0.32366
 C231 C 0.15664 1.17170 -0.33013
 N232 N 0.18393 1.18282 -0.29699
 N233 N 0.20605 1.20045 -0.33870
 C234 C 0.20192 1.20775 -0.41529
 N235 N 0.17387 1.19821 -0.44677
 N236 N 0.15190 1.18005 -0.40561
 C237 C 0.13298 1.14986 -0.28611
 N238 N 0.11285 1.12487 -0.32284
 N239 N 0.09169 1.10428 -0.28325
 C240 C 0.08963 1.10835 -0.20562
 N241 N 0.10959 1.13355 -0.16882
 N242 N 0.13110 1.15368 -0.20832
 C243 C 0.33363 0.33660 -0.31800
 N244 N 0.32887 0.29686 -0.30588
 N245 N 0.30881 0.27637 -0.34942
 C246 C 0.29286 0.29483 -0.40692
 N247 N 0.29691 0.33486 -0.41744
 N248 N 0.31711 0.35530 -0.37419
 C249 C 0.35727 0.35850 -0.27345
 N250 N 0.36604 0.39604 -0.29446
 N251 N 0.38873 0.41505 -0.25670
 C252 C 0.40332 0.39728 -0.19634
 N253 N 0.39435 0.35993 -0.17477
 N254 N 0.37179 0.34083 -0.21281
 C255 C -0.16559 0.83551 -0.31836
 N256 N -0.17014 0.79574 -0.30599
 N257 N -0.19005 0.77498 -0.34948
 C258 C -0.20607 0.79317 -0.40719
 N259 N -0.20223 0.83322 -0.41797
 N260 N -0.18218 0.85394 -0.37476
 C261 C -0.14215 0.85778 -0.27373
 N262 N -0.13373 0.89547 -0.29466
 N263 N -0.11128 0.91486 -0.25673
 C264 C -0.09656 0.89734 -0.19627
 N265 N -0.10517 0.85983 -0.17482
 N266 N -0.12750 0.84035 -0.21301
 C267 C 0.33625 0.66256 0.32396
 N268 N 0.33366 0.70302 0.31807
 N269 N 0.31323 0.72307 0.36111
 C270 C 0.29469 0.70340 0.41176
 N271 N 0.29650 0.66276 0.41576
 N272 N 0.31715 0.64274 0.37318
 C273 C 0.36018 0.64097 0.28004
 N274 N 0.36809 0.60275 0.29869
 N275 N 0.39100 0.58398 0.26145
 C276 C 0.40665 0.60267 0.20391
 N277 N 0.39853 0.64070 0.18471
 N278 N 0.37580 0.65958 0.22236
 C279 C -0.16582 1.16121 0.32498
 N280 N -0.17593 1.19757 0.30055
 N281 N -0.19548 1.21914 0.34340
 C282 C -0.20536 1.20561 0.41313
 N283 N -0.19635 1.16827 0.43546
 N284 N -0.17675 1.14666 0.39269
 C285 C -0.14205 1.13919 0.28112
 N286 N -0.13007 1.10427 0.30835
 N287 N -0.10703 1.08575 0.27111
 C288 C -0.09514 1.10151 0.20539
 N289 N -0.10729 1.13620 0.17778
 N290 N -0.13031 1.15473 0.21502
 C291 C 0.66699 0.33694 0.31686
 N292 N 0.66897 0.29634 0.31394
 N293 N 0.68905 0.27681 0.35878
 C294 C 0.70780 0.29717 0.40828
 N295 N 0.70657 0.33788 0.40946
 N296 N 0.68628 0.35739 0.36507
 C297 C 0.64327 0.35813 0.27165
 N298 N 0.63592 0.39678 0.28834
 N299 N 0.61297 0.41525 0.25080
 C300 C 0.59674 0.39584 0.19484
 N301 N 0.60434 0.35736 0.17737
 N302 N 0.62712 0.33876 0.21539
 C303 C 0.16484 0.83533 0.32016
 N304 N 0.18109 0.85412 0.37695
 N305 N 0.20120 0.83379 0.42050
 C306 C 0.20537 0.79378 0.40964
 N307 N 0.18967 0.77523 0.35165
 N308 N 0.16971 0.79560 0.30785
 C309 C 0.14140 0.85717 0.27511
 N310 N 0.12692 0.83938 0.21432
 N311 N 0.10452 0.85854 0.17589
 C312 C 0.09571 0.89606 0.19725
 N313 N 0.11030 0.91391 0.25772
 N314 N 0.13280 0.89487 0.29584
   
