data_POSCAR
  _audit_creation_date              2014-09-24
  _audit_creation_method            'ToBaCCo'
  _symmetry_space_group_name_H-M    'P1'
  _symmetry_Int_Tables_number       1
  _symmetry_cell_setting            triclinic
  loop_
  _symmetry_equiv_pos_as_xyz
 x,y,z
_cell_length_a 36.4182
_cell_length_b 35.9590
_cell_length_c 35.4117
_cell_angle_alpha 89.857000
_cell_angle_beta 90.083800
_cell_angle_gamma 89.950300
loop_
  _atom_site_label
  _atom_site_type_symbol
  _atom_site_fract_x
  _atom_site_fract_y
  _atom_site_fract_z
N1 N 0.13995 0.16801 0.24129
 N2 N 0.16172 0.13895 0.23941
 C3 C 0.15609 0.11726 0.26986
 C4 C 0.13026 0.13424 0.29287
 C5 C 0.12045 0.16637 0.27354
 H6 H 0.17007 0.09123 0.27522
 H7 H 0.09878 0.18558 0.28096
 Cu8 Cu 0.19551 0.13223 0.19756
 Cu9 Cu 0.13572 0.20319 0.19969
 Cu10 Cu 0.19613 0.19291 0.12460
 N11 N 0.23437 0.13223 0.16007
 N12 N 0.23281 0.15364 0.12999
 C13 C 0.26179 0.14615 0.10769
 C14 C 0.28371 0.11988 0.12561
 C15 C 0.26503 0.11135 0.15861
 H16 H 0.26761 0.16020 0.08132
 H17 H 0.27239 0.09043 0.17928
 N18 N 0.15844 0.23244 0.12662
 N19 N 0.13533 0.23590 0.15508
 C20 C 0.11441 0.26622 0.14942
 C21 C 0.12575 0.28362 0.11664
 C22 C 0.15315 0.26098 0.10239
 H23 H 0.09308 0.27571 0.16830
 H24 H 0.16899 0.26588 0.07707
 H25 H 0.15513 0.16926 0.15687
 H26 H 0.19005 0.19801 0.18206
 N27 N -0.14035 0.83817 0.24025
 N28 N -0.16616 0.86379 0.24065
 C29 C -0.15846 0.88849 0.26826
 C30 C -0.12589 0.87780 0.28542
 C31 C -0.11555 0.84556 0.26731
 H32 H -0.17442 0.91309 0.27453
 H33 H -0.09108 0.82936 0.27279
 Cu34 Cu -0.20566 0.86299 0.20310
 Cu35 Cu -0.13877 0.79833 0.20337
 Cu36 Cu -0.20818 0.79616 0.13666
 N37 N -0.24568 0.86022 0.16628
 N38 N -0.24550 0.83472 0.13980
 C39 C -0.27514 0.83914 0.11761
 C40 C -0.29616 0.86836 0.13132
 C41 C -0.27586 0.88159 0.16190
 H42 H -0.27991 0.82315 0.09230
 H43 H -0.28292 0.90455 0.18014
 N44 N -0.16815 0.75942 0.13832
 N45 N -0.14172 0.76018 0.16384
 C46 C -0.11911 0.73107 0.15816
 C47 C -0.13243 0.71070 0.12818
 C48 C -0.16321 0.72965 0.11590
 H49 H -0.09499 0.72473 0.17481
 H50 H -0.18061 0.72215 0.09237
 H51 H -0.16654 0.82655 0.16126
 H52 H -0.19483 0.79684 0.19336
 N53 N -0.13990 0.15787 -0.23734
 N54 N -0.16577 0.13238 -0.23645
 C55 C -0.16102 0.10898 -0.26570
 C56 C -0.13098 0.12079 -0.28636
 C57 C -0.11794 0.15156 -0.26722
 H58 H -0.17770 0.08473 -0.27131
 H59 H -0.09414 0.16804 -0.27451
 Cu60 Cu -0.20289 0.13204 -0.19693
 Cu61 Cu -0.13647 0.19710 -0.19953
 Cu62 Cu -0.20241 0.19717 -0.12912
 N63 N -0.23972 0.13230 -0.15710
 N64 N -0.23917 0.15802 -0.13086
 C65 C -0.26656 0.15173 -0.10637
 C66 C -0.28494 0.11956 -0.11687
 C67 C -0.26764 0.10865 -0.15003
 H68 H -0.27322 0.17008 -0.08323
 H69 H -0.27401 0.08443 -0.16687
 N70 N -0.16308 0.23450 -0.13205
 N71 N -0.13781 0.23437 -0.15874
 C72 C -0.11554 0.26383 -0.15372
 C73 C -0.12783 0.28379 -0.12288
 C74 C -0.15758 0.26406 -0.10942
 H75 H -0.09226 0.27060 -0.17134
 H76 H -0.17438 0.27126 -0.08537
 H77 H -0.16163 0.16768 -0.15677
 H78 H -0.19169 0.19799 -0.18648
 N79 N 0.14324 0.83657 -0.23713
 N80 N 0.17319 0.85648 -0.24119
 C81 C 0.16909 0.87932 -0.27105
 C82 C 0.13415 0.87445 -0.28559
 C83 C 0.11877 0.84658 -0.26379
 H84 H 0.18948 0.89892 -0.28082
 H85 H 0.09134 0.83541 -0.26640
 Cu86 Cu 0.21087 0.85628 -0.20246
 Cu87 Cu 0.13749 0.80153 -0.19573
 Cu88 Cu 0.21520 0.78512 -0.14084
 N89 N 0.24758 0.85453 -0.16292
 N90 N 0.24940 0.82711 -0.13840
 C91 C 0.27632 0.83451 -0.11325
 C92 C 0.29106 0.86926 -0.12170
 C93 C 0.27273 0.88033 -0.15409
 H94 H 0.28297 0.81703 -0.08934
 H95 H 0.27786 0.90520 -0.17043
 N96 N 0.17181 0.75208 -0.14080
 N97 N 0.14234 0.75875 -0.16156
 C98 C 0.11684 0.73272 -0.15428
 C99 C 0.13058 0.70886 -0.12722
 C100 C 0.16557 0.72169 -0.11936
 H101 H 0.08973 0.73182 -0.16676
 H102 H 0.18414 0.71115 -0.09803
 H103 H 0.17576 0.82129 -0.15612
 H104 H 0.19284 0.79148 -0.19559
 N105 N 0.16887 1.14186 0.76289
 N106 N 0.14743 1.17097 0.75824
 C107 C 0.12389 1.16447 0.72969
 C108 C 0.13102 1.12946 0.71581
 C109 C 0.15970 1.11577 0.73735
 H110 H 0.10240 1.18318 0.72047
 H111 H 0.17245 1.08871 0.73491
 Cu112 Cu 0.15089 1.21365 0.79115
 Cu113 Cu 0.20677 1.14006 0.80199
 Cu114 Cu 0.21151 1.21601 0.86232
 N115 N 0.14834 1.25142 0.82983
 N116 N 0.17185 1.25203 0.85799
 C117 C 0.16215 1.27904 0.88226
 C118 C 0.13053 1.29578 0.86885
 C119 C 0.12298 1.27808 0.83507
 H120 H 0.17622 1.28517 0.90841
 H121 H 0.10019 1.28351 0.81622
 N122 N 0.24691 1.17476 0.86358
 N123 N 0.24331 1.14440 0.84307
 C124 C 0.26966 1.12004 0.85325
 C125 C 0.29102 1.13591 0.88139
 C126 C 0.27637 1.17110 0.88619
 H127 H 0.27329 1.09279 0.84094
 H128 H 0.28665 1.19281 0.90438
 H129 H 0.17952 1.17454 0.83885
 H130 H 0.21399 1.19672 0.80702
 N131 N 0.83181 0.86209 0.75736
 N132 N 0.85495 0.83401 0.75691
 C133 C 0.87856 0.83864 0.72813
 C134 C 0.87028 0.87169 0.71007
 C135 C 0.84002 0.88559 0.72887
 H136 H 0.90110 0.82016 0.72161
 H137 H 0.82610 0.91160 0.72324
 Cu138 Cu 0.85487 0.79554 0.79558
 Cu139 Cu 0.79439 0.86693 0.79620
 Cu140 Cu 0.79678 0.80262 0.86910
 N141 N 0.85606 0.76043 0.83746
 N142 N 0.83408 0.76401 0.86661
 C143 C 0.84037 0.73601 0.89107
 C144 C 0.86727 0.71326 0.87613
 C145 C 0.87710 0.72995 0.84241
 H146 H 0.82616 0.73215 0.91759
 H147 H 0.89761 0.72015 0.82275
 N148 N 0.76077 0.84329 0.86652
 N149 N 0.75894 0.86709 0.83814
 C150 C 0.72941 0.88921 0.84299
 C151 C 0.71164 0.87838 0.87567
 C152 C 0.73268 0.84977 0.89023
 H153 H 0.72082 0.91091 0.82371
 H154 H 0.72727 0.83432 0.91584
 H155 H 0.82594 0.84091 0.83696
 H156 H 0.79164 0.81147 0.81140
 N157 N 0.16934 0.85872 1.24053
 N158 N 0.13881 0.83978 1.23618
 C159 C 0.11459 0.85041 1.26280
 C160 C 0.13089 0.87751 1.28505
 C161 C 0.16612 0.88095 1.27075
 H162 H 0.08705 0.83955 1.26560
 H163 H 0.18787 0.89859 1.28119
 Cu164 Cu 0.13567 0.80194 1.19724
 Cu165 Cu 0.20831 0.85889 1.20292
 Cu166 Cu 0.19810 0.79737 1.12809
 N167 N 0.13253 0.76411 1.15830
 N168 N 0.15633 0.76380 1.13042
 C169 C 0.14959 0.73444 1.10812
 C170 C 0.12098 0.71433 1.12356
 C171 C 0.11022 0.73439 1.15500
 H172 H 0.16513 0.72753 1.08311
 H173 H 0.08872 0.72703 1.17466
 N174 N 0.23874 0.83308 1.13170
 N175 N 0.24345 0.85544 1.16082
 C176 C 0.27388 0.87591 1.15513
 C177 C 0.28932 0.86541 1.12122
 C178 C 0.26613 0.83860 1.10686
 H179 H 0.28391 0.89733 1.17389
 H180 H 0.26883 0.82462 1.08001
 H181 H 0.17567 0.84096 1.15887
 H182 H 0.20153 0.80461 1.18562
 N183 N 0.83490 1.13658 1.24114
 N184 N 0.85663 1.16566 1.24288
 C185 C 0.88122 1.16049 1.27071
 C186 C 0.87502 1.12596 1.28679
 C187 C 0.84494 1.11184 1.26782
 H188 H 0.90242 1.18014 1.27833
 H189 H 0.83189 1.08525 1.27259
 Cu190 Cu 0.85259 1.20661 1.20738
 Cu191 Cu 0.79598 1.13288 1.20397
 Cu192 Cu 0.79465 1.20013 1.13350
 N193 N 0.85592 1.23982 1.16431
 N194 N 0.83337 1.23743 1.13541
 C195 C 0.84236 1.26360 1.10971
 C196 C 0.87263 1.28286 1.12307
 C197 C 0.88006 1.26737 1.15800
 H198 H 0.82826 1.26798 1.08315
 H199 H 0.90160 1.27552 1.17731
 N200 N 0.75821 1.15978 1.13705
 N201 N 0.75884 1.13423 1.16390
 C202 C 0.72990 1.11143 1.15953
 C203 C 0.70994 1.12353 1.12885
 C204 C 0.72882 1.15384 1.11482
 H205 H 0.72315 1.08830 1.17779
 H206 H 0.72128 1.17055 1.09059
 H207 H 0.82530 1.16240 1.16386
 H208 H 0.78992 1.18909 1.19087
 O209 O 0.44750 0.93466 0.93341
 O210 O 0.40700 0.97022 0.96743
 C211 C 0.41443 0.94476 0.94278
 O212 O 0.54779 0.92925 1.06786
 O213 O 0.58938 0.96602 1.03653
 C214 C 0.58106 0.93955 1.05997
 O215 O 0.44538 0.92716 1.06070
 O216 O 0.40601 0.96627 1.02915
 C217 C 0.41274 0.93802 1.05088
 O218 O 0.55123 0.93689 0.93283
 O219 O 0.59095 0.96918 0.97104
 C220 C 0.58401 0.94558 0.94440
 Zr221 Zr 0.49921 0.95549 0.95217
 O222 O 0.50174 0.89696 0.94657
 O223 O 0.49650 0.96124 0.89268
 Zr224 Zr 0.49705 0.95068 1.04793
 O225 O 0.49861 0.89202 1.05101
 O226 O 0.49142 0.95238 1.10746
 O227 O 0.46572 0.94611 0.99876
 O228 O 0.52971 0.94590 1.00056
 O229 O 0.55313 1.06691 0.93780
 O230 O 0.59173 1.03178 0.97478
 C231 C 0.58561 1.05685 0.94919
 O232 O 0.44489 1.06355 1.07070
 O233 O 0.40562 1.03028 1.03304
 C234 C 0.41206 1.05360 1.06007
 O235 O 0.54867 1.06262 1.07408
 O236 O 0.58963 1.02872 1.03915
 C237 C 0.58184 1.05347 1.06445
 O238 O 0.45082 1.07262 0.93818
 O239 O 0.40893 1.03705 0.97052
 C240 C 0.41762 1.06388 0.94755
 Zr241 Zr 0.50065 1.04903 0.95705
 O242 O 0.50568 1.10765 0.95967
 O243 O 0.49788 1.05095 0.89735
 Zr244 Zr 0.49735 1.04382 1.05297
 O245 O 0.49639 1.10190 1.06140
 O246 O 0.49429 1.03605 1.11217
 Zr247 Zr 0.44392 1.00049 1.00079
 Zr248 Zr 0.55327 0.99921 1.00411
 O249 O 0.53058 1.05313 1.00628
 O250 O 0.46655 1.05435 1.00436
 O251 O 0.53311 1.00212 0.94827
 O252 O 0.46481 0.99705 1.05618
 O253 O 0.46790 1.00306 0.94690
 O254 O 0.53020 0.99662 1.05867
 H255 H 0.54580 0.92376 0.99982
 H256 H 0.44735 0.99544 1.07754
 H257 H 0.54686 1.07513 1.00735
 H258 H 0.45147 1.00436 0.92461
 H259 H 0.51546 0.95950 1.11827
 H260 H 0.51801 1.02573 1.12101
 H261 H 0.49936 1.11336 1.03624
 H262 H 0.48461 1.11722 0.97436
 H263 H 0.51887 1.03652 0.88741
 H264 H 0.52004 0.97196 0.88401
 H265 H 0.48325 0.88623 0.96389
 H266 H 0.50036 0.88285 1.02481
 O267 O 0.06263 0.45130 -0.06898
 O268 O 0.02876 0.40884 -0.03536
 C269 C 0.05334 0.41750 -0.06033
 O270 O 0.06193 0.55211 0.06673
 O271 O 0.02538 0.59292 0.03378
 C272 C 0.05137 0.58546 0.05773
 O273 O 0.06659 0.44793 0.06173
 O274 O 0.03126 0.40692 0.02785
 C275 C 0.05714 0.41445 0.05190
 O276 O 0.05681 0.55589 -0.06900
 O277 O 0.02375 0.59436 -0.03091
 C278 C 0.04734 0.58893 -0.05753
 Zr279 Zr 0.04094 0.50237 -0.04907
 O280 O 0.09881 0.50786 -0.05124
 O281 O 0.03858 0.49979 -0.10875
 Zr282 Zr 0.04323 0.49998 0.04666
 O283 O 0.10114 0.50362 0.04906
 O284 O 0.04148 0.49608 0.10634
 O285 O 0.05026 0.46830 -0.00213
 O286 O 0.04803 0.53335 -0.00063
 O287 O -0.07253 0.55201 -0.06487
 O288 O -0.03809 0.59292 -0.02996
 C289 C -0.06331 0.58539 -0.05465
 O290 O -0.06799 0.44422 0.06634
 O291 O -0.03257 0.40538 0.03022
 C292 C -0.05733 0.41139 0.05572
 O293 O -0.06956 0.54916 0.06985
 O294 O -0.03690 0.59142 0.03482
 C295 C -0.06165 0.58306 0.05973
 O296 O -0.07216 0.44727 -0.06415
 O297 O -0.03497 0.40657 -0.03179
 C298 C -0.06116 0.41390 -0.05552
 Zr299 Zr -0.05159 0.49978 -0.04688
 O300 O -0.10956 0.50101 -0.04941
 O301 O -0.04962 0.49842 -0.10661
 Zr302 Zr -0.04930 0.49758 0.04888
 O303 O -0.10731 0.49769 0.05164
 O304 O -0.04597 0.49326 0.10840
 Zr305 Zr -0.00273 0.44471 -0.00138
 Zr306 Zr -0.00560 0.55524 0.00113
 O307 O -0.05808 0.53056 0.00181
 O308 O -0.05682 0.46550 0.00044
 O309 O -0.00638 0.53459 -0.05452
 O310 O -0.00197 0.46617 0.05386
 O311 O -0.00469 0.46879 -0.05553
 O312 O -0.00375 0.53209 0.05583
 H313 H 0.06945 0.55026 -0.00110
 H314 H -0.00074 0.44875 0.07555
 H315 H -0.08046 0.54622 0.00260
 H316 H -0.00509 0.45231 -0.07791
 H317 H 0.02976 0.51892 0.11616
 H318 H -0.03436 0.51626 0.11795
 H319 H -0.11641 0.47747 0.03524
 H320 H -0.11858 0.48702 -0.02726
 H321 H -0.03982 0.52253 -0.11555
 H322 H 0.02390 0.52125 -0.11767
 H323 H 0.10941 0.48694 -0.03669
 H324 H 0.11081 0.48990 0.02705
 O325 O 1.07281 -0.06389 0.44897
 O326 O 1.04065 -0.02700 0.40739
 C327 C 1.06470 -0.05264 0.41522
 O328 O 0.93859 -0.06908 0.55034
 O329 O 0.97146 -0.03537 0.59370
 C330 C 0.94742 -0.06040 0.58484
 O331 O 0.94413 -0.06772 0.44371
 O332 O 0.97719 -0.02939 0.40467
 C333 C 0.95397 -0.05618 0.41037
 O334 O 1.07354 -0.06368 0.55349
 O335 O 1.03691 -0.03158 0.59488
 C336 C 1.06353 -0.05444 0.58721
 Zr337 Zr 1.05244 -0.04496 0.50136
 O338 O 1.05318 -0.10381 0.50410
 O339 O 1.11049 -0.04269 0.49902
 Zr340 Zr 0.95990 -0.04868 0.49816
 O341 O 0.96329 -0.10746 0.50037
 O342 O 0.90207 -0.05164 0.49236
 O343 O 1.00751 -0.05287 0.46562
 O344 O 1.00550 -0.05462 0.53253
 O345 O 1.06557 0.06649 0.55950
 O346 O 1.03017 0.03037 0.59761
 C347 C 1.05473 0.05567 0.59280
 O348 O 0.93814 0.06610 0.44773
 O349 O 0.97565 0.03478 0.40652
 C350 C 0.94989 0.05865 0.41398
 O351 O 0.93221 0.05886 0.55374
 O352 O 0.96800 0.02614 0.59572
 C353 C 0.94124 0.04870 0.58780
 O354 O 1.06668 0.07325 0.45319
 O355 O 1.03706 0.03708 0.40941
 C356 C 1.05894 0.06410 0.41858
 Zr357 Zr 1.04890 0.04891 0.50468
 O358 O 1.05006 0.10737 0.51029
 O359 O 1.10703 0.04831 0.50288
 Zr360 Zr 0.95619 0.04547 0.50087
 O361 O 0.95645 0.10409 0.50673
 O362 O 0.89843 0.04731 0.49569
 Zr363 Zr 1.00614 0.00224 0.44506
 Zr364 Zr 1.00245 -0.00164 0.55735
 O365 O 1.00098 0.05294 0.53565
 O366 O 1.00336 0.05571 0.46933
 O367 O 1.05671 0.00114 0.53696
 O368 O 0.95237 -0.00077 0.46666
 O369 O 1.05837 0.00347 0.47054
 O370 O 0.94962 -0.00304 0.53274
 H371 H 1.00619 -0.07682 0.54916
 H372 H 0.93111 -0.00099 0.44918
 H373 H 0.99915 0.07420 0.55330
 H374 H 1.08043 0.00503 0.45435
 H375 H 0.89101 -0.03924 0.51452
 H376 H 0.88936 0.02249 0.50309
 H377 H 0.96623 0.11487 0.48305
 H378 H 1.02694 0.11678 0.49925
 H379 H 1.11602 0.03785 0.52706
 H380 H 1.11879 -0.02594 0.51942
 H381 H 1.04011 -0.11329 0.48159
 H382 H 0.97679 -0.11583 0.47771
 C383 C 1.08727 0.06447 0.35532
 C384 C 1.10650 0.08087 0.32585
 C385 C 1.11385 0.11917 0.32553
 C386 C 1.10233 0.14097 0.35695
 C387 C 1.08294 0.12388 0.38731
 C388 C 1.07668 0.08487 0.38707
 C389 C 1.06937 0.14685 0.41622
 N390 N 1.07756 0.18360 0.41654
 N391 N 1.09827 0.19902 0.38985
 C392 C 1.11112 0.17900 0.36030
 H393 H 1.08048 0.03530 0.35314
 H394 H 1.11379 0.06354 0.30201
 H395 H 1.05165 0.13632 0.43809
 H396 H 1.12870 0.19300 0.34030
 C397 C 0.89803 -0.08196 0.38032
 C398 C 0.87822 -0.09642 0.35001
 C399 C 0.89516 -0.10278 0.31522
 C400 C 0.93269 -0.09340 0.31058
 C401 C 0.95319 -0.07948 0.34167
 C402 C 0.93551 -0.07326 0.37698
 C403 C 0.99093 -0.07322 0.33628
 N404 N 1.00640 -0.07830 0.30188
 N405 N 0.98675 -0.08950 0.27234
 C406 C 0.95047 -0.09714 0.27547
 H407 H 0.88373 -0.07726 0.40669
 H408 H 0.84960 -0.10355 0.35404
 H409 H 1.00854 -0.06510 0.35902
 H410 H 0.93591 -0.10570 0.25035
 C411 C 0.94091 0.07846 0.65059
 C412 C 0.92370 0.09678 0.68032
 C413 C 0.88564 0.10260 0.68022
 C414 C 0.86456 0.08979 0.64909
 C415 C 0.88195 0.06985 0.61946
 C416 C 0.92066 0.06509 0.61979
 C417 C 0.85971 0.05484 0.59077
 N418 N 0.82315 0.06188 0.59029
 N419 N 0.80725 0.08264 0.61670
 C420 C 0.82665 0.09690 0.64597
 H421 H 0.97050 0.07529 0.65137
 H422 H 0.94029 0.10627 0.70381
 H423 H 0.87080 0.03709 0.56907
 H424 H 0.81225 0.11404 0.66608
 C425 C 1.07956 -0.10945 0.62551
 C426 C 1.09582 -0.12623 0.65683
 C427 C 1.11653 -0.10538 0.68263
 C428 C 1.12070 -0.06651 0.67658
 C429 C 1.10576 -0.04999 0.64356
 C430 C 1.08366 -0.07133 0.61898
 C431 C 1.11399 -0.01261 0.63586
 N432 N 1.13325 0.00771 0.66126
 N433 N 1.14447 -0.00684 0.69389
 C434 C 1.13853 -0.04307 0.70262
 H435 H 1.06320 -0.12627 0.60651
 H436 H 1.09228 -0.15587 0.66083
 H437 H 1.10556 0.00047 0.60976
 H438 H 1.14731 -0.05280 0.73002
 C439 C 0.34852 1.07775 1.05780
 C440 C 0.31825 1.09577 1.07315
 C441 C 0.31647 1.10401 1.11181
 C442 C 0.34707 1.09458 1.13517
 C443 C 0.37810 1.07626 1.11923
 C444 C 0.37948 1.06942 1.07973
 C445 C 0.40631 1.06462 1.14375
 N446 N 0.40533 1.07393 1.18077
 N447 N 0.37794 1.09392 1.19503
 C448 C 0.34900 1.10476 1.17356
 H449 H 0.34784 1.07078 1.02808
 H450 H 0.29525 1.10179 1.05466
 H451 H 0.42875 1.04756 1.13423
 H452 H 0.32845 1.12200 1.18669
 C453 C 0.37952 0.88745 0.92728
 C454 C 0.34823 0.86914 0.91391
 C455 C 0.31915 0.88903 0.89716
 C456 C 0.32074 0.92867 0.89717
 C457 C 0.35326 0.94695 0.90898
 C458 C 0.38267 0.92621 0.92463
 C459 C 0.35516 0.98582 0.90498
 N460 N 0.32517 1.00534 0.89393
 N461 N 0.29346 0.98857 0.88650
 C462 C 0.29009 0.95108 0.88814
 H463 H 0.40134 0.87124 0.94008
 H464 H 0.34772 0.83905 0.91504
 H465 H 0.38018 1.00085 0.91055
 H466 H 0.26315 0.93942 0.88356
 C467 C 0.63364 0.93856 1.10403
 C468 C 0.66288 0.92102 1.12222
 C469 C 0.67085 0.88319 1.11601
 C470 C 0.64603 0.86228 1.09297
 C471 C 0.61755 0.88087 1.07283
 C472 C 0.61149 0.91932 1.07850
 C473 C 0.59557 0.86008 1.04791
 N474 N 0.59965 0.82271 1.04582
 N475 N 0.62393 0.80477 1.06727
 C476 C 0.64670 0.82310 1.09113
 H477 H 0.62826 0.96752 1.11001
 H478 H 0.68022 0.93800 1.14001
 H479 H 0.57492 0.87304 1.03037
 H480 H 0.66377 0.80656 1.10955
 C481 C 0.62643 1.06948 0.89472
 C482 C 0.65908 1.08290 0.87916
 C483 C 0.68471 1.10265 0.90122
 C484 C 0.67779 1.10632 0.94069
 C485 C 0.64356 1.09473 0.95570
 C486 C 0.61816 1.07537 0.93277
 C487 C 0.63591 1.10260 0.99369
 N488 N 0.66226 1.11722 1.01619
 N489 N 0.69581 1.12423 1.00327
 C490 C 0.70464 1.11875 0.96655
 H491 H 0.60761 1.05406 0.87697
 H492 H 0.66346 1.07881 0.84923
 H493 H 0.60918 1.09732 1.00554
 H494 H 0.73290 1.12287 0.95851
 C495 C 0.08696 0.35264 0.04688
 C496 C 0.10421 0.32143 0.06229
 C497 C 0.11194 0.31933 0.10101
 C498 C 0.10345 0.35021 0.12435
 C499 C 0.08389 0.38094 0.10915
 C500 C 0.07645 0.38259 0.06978
 C501 C 0.07128 0.40829 0.13439
 N502 N 0.08112 0.40697 0.17129
 N503 N 0.10238 0.37993 0.18480
 C504 C 0.11397 0.35162 0.16261
 H505 H 0.08131 0.35318 0.01682
 H506 H 0.11064 0.29825 0.04395
 H507 H 0.05307 0.43022 0.12556
 H508 H 0.13177 0.33092 0.17504
 C509 C -0.08969 0.35158 -0.05205
 C510 C -0.10596 0.32039 -0.06825
 C511 C -0.11240 0.31862 -0.10724
 C512 C -0.10292 0.34950 -0.13026
 C513 C -0.08498 0.38066 -0.11400
 C514 C -0.07910 0.38198 -0.07435
 C515 C -0.07246 0.40889 -0.13843
 N516 N -0.08023 0.40741 -0.17582
 N517 N -0.09941 0.37951 -0.19056
 C518 C -0.11111 0.35062 -0.16911
 H519 H -0.08507 0.35188 -0.02181
 H520 H -0.11300 0.29711 -0.05018
 H521 H -0.05602 0.43176 -0.12854
 H522 H -0.12699 0.32915 -0.18267
 C523 C 0.09780 0.61454 -0.09682
 C524 C 0.11875 0.64290 -0.11264
 C525 C 0.10953 0.68001 -0.10687
 C526 C 0.07890 0.68896 -0.08407
 C527 C 0.05661 0.66021 -0.06840
 C528 C 0.06645 0.62197 -0.07472
 C529 C 0.02540 0.67157 -0.04753
 N530 N 0.01854 0.70813 -0.04160
 N531 N 0.04030 0.73459 -0.05514
 C532 C 0.07014 0.72628 -0.07616
 H533 H 0.10668 0.58627 -0.10196
 H534 H 0.14212 0.63573 -0.13010
 H535 H 0.00545 0.65281 -0.03624
 H536 H 0.08692 0.74900 -0.08616
 C537 C -0.06305 0.64799 0.08286
 C538 C -0.07953 0.67829 0.10030
 C539 C -0.11618 0.67677 0.11175
 C540 C -0.13671 0.64392 0.10543
 C541 C -0.12011 0.61321 0.08681
 C542 C -0.08218 0.61464 0.07701
 C543 C -0.14272 0.58294 0.07732
 N544 N -0.17824 0.58209 0.08873
 N545 N -0.19296 0.60972 0.10854
 C546 C -0.17346 0.64059 0.11727
 H547 H -0.03505 0.65089 0.07352
 H548 H -0.06370 0.70351 0.10418
 H549 H -0.13309 0.56054 0.05995
 H550 H -0.18690 0.66208 0.13346
 C551 C 1.09559 0.10367 0.62011
 C552 C 1.11427 0.12135 0.64917
 C553 C 1.11002 0.10982 0.68643
 C554 C 1.08547 0.08065 0.69509
 C555 C 1.06577 0.06232 0.66565
 C556 C 1.07156 0.07371 0.62699
 C557 C 1.04184 0.03321 0.67687
 N558 N 1.03819 0.02394 0.71380
 N559 N 1.05651 0.04147 0.74086
 C560 C 1.07991 0.06951 0.73280
 H561 H 1.10043 0.11374 0.59170
 H562 H 1.13273 0.14404 0.64244
 H563 H 1.02561 0.01709 0.65785
 H564 H 1.09382 0.08288 0.75607
 C565 C 0.89080 -0.08313 0.61623
 C566 C 0.87211 -0.09815 0.64709
 C567 C 0.89121 -0.11044 0.67918
 C568 C 0.92997 -0.10687 0.68043
 C569 C 0.94904 -0.09325 0.64840
 C570 C 0.92918 -0.08019 0.61645
 C571 C 0.98764 -0.09365 0.64933
 N572 N 1.00567 -0.10371 0.68127
 N573 N 0.98768 -0.11382 0.71230
 C574 C 0.95052 -0.11565 0.71303
 H575 H 0.87511 -0.07307 0.59227
 H576 H 0.84247 -0.10043 0.64582
 H577 H 1.00360 -0.08684 0.62476
 H578 H 0.93757 -0.12340 0.73929
 C579 C 1.07347 -0.10556 0.37208
 C580 C 1.08861 -0.12177 0.33997
 C581 C 1.11433 -0.10257 0.31770
 C582 C 1.12467 -0.06587 0.32847
 C583 C 1.11155 -0.05095 0.36293
 C584 C 1.08428 -0.07007 0.38353
 C585 C 1.12636 -0.01721 0.37576
 N586 N 1.15004 0.00206 0.35366
 N587 N 1.15928 -0.00991 0.31943
 C588 C 1.14685 -0.04279 0.30581
 H589 H 1.05277 -0.12064 0.38785
 H590 H 1.08011 -0.14967 0.33261
 H591 H 1.11909 -0.00584 0.40293
 H592 H 1.15374 -0.04983 0.27712
 C593 C 0.89371 0.07596 0.37848
 C594 C 0.87582 0.09115 0.34716
 C595 C 0.89572 0.10816 0.31796
 C596 C 0.93458 0.10948 0.32031
 C597 C 0.95239 0.09619 0.35326
 C598 C 0.93199 0.07791 0.38183
 C599 C 0.99018 0.10245 0.35693
 N600 N 1.00954 0.11725 0.32790
 N601 N 0.99337 0.12659 0.29552
 C602 C 0.95660 0.12312 0.29066
 H603 H 0.87753 0.06219 0.40003
 H604 H 0.84612 0.08988 0.34589
 H605 H 1.00403 0.09662 0.38304
 H606 H 0.94521 0.13049 0.26350
 C607 C 0.10997 0.38589 -0.08147
 C608 C 0.12848 0.35594 -0.09755
 C609 C 0.10919 0.32570 -0.11272
 C610 C 0.07025 0.32555 -0.11117
 C611 C 0.05147 0.35696 -0.09672
 C612 C 0.07156 0.38668 -0.08047
 C613 C 0.01299 0.35783 -0.09970
 N614 N -0.00549 0.32782 -0.11281
 N615 N 0.01199 0.29709 -0.12345
 C616 C 0.04915 0.29484 -0.12292
 H617 H 0.12579 0.40833 -0.06916
 H618 H 0.15820 0.35649 -0.09835
 H619 H -0.00243 0.38231 -0.09247
 H620 H 0.06157 0.26881 -0.13101
 C621 C -0.11208 0.37510 0.07470
 C622 C -0.12888 0.34357 0.08987
 C623 C -0.10789 0.31438 0.10496
 C624 C -0.06898 0.31698 0.10423
 C625 C -0.05203 0.34978 0.09037
 C626 C -0.07380 0.37854 0.07436
 C627 C -0.01369 0.35297 0.09377
 N628 N 0.00650 0.32393 0.10671
 N629 N -0.00916 0.29205 0.11695
 C630 C -0.04613 0.28757 0.11616
 H631 H -0.12913 0.39696 0.06297
 H632 H -0.15860 0.34214 0.09016
 H633 H 0.00027 0.37841 0.08676
 H634 H -0.05712 0.26086 0.12426
 C635 C -0.06197 0.64468 -0.08965
 C636 C -0.07866 0.67531 -0.10658
 C637 C -0.11696 0.67900 -0.10705
 C638 C -0.13889 0.65056 -0.09067
 C639 C -0.12175 0.62005 -0.07212
 C640 C -0.08291 0.61703 -0.07209
 C641 C -0.14422 0.59380 -0.05382
 N642 N -0.18127 0.59660 -0.05628
 N643 N -0.19734 0.62397 -0.07554
 C644 C -0.17749 0.65092 -0.09287
 H645 H -0.03238 0.64229 -0.09070
 H646 H -0.06141 0.69653 -0.11911
 H647 H -0.13285 0.57116 -0.03750
 H648 H -0.19217 0.67181 -0.10880
 C649 C 0.05016 0.64441 0.09324
 C650 C 0.06691 0.67524 0.10950
 C651 C 0.10518 0.67909 0.10929
 C652 C 0.12700 0.65029 0.09349
 C653 C 0.10975 0.62012 0.07479
 C654 C 0.07093 0.61703 0.07518
 C655 C 0.13215 0.59438 0.05574
 N656 N 0.16920 0.59696 0.05812
 N657 N 0.18538 0.62358 0.07816
 C658 C 0.16561 0.65012 0.09613
 H659 H 0.02073 0.64185 0.09487
 H660 H 0.04970 0.69664 0.12168
 H661 H 0.12072 0.57250 0.03864
 H662 H 0.18038 0.67027 0.11279
 C663 C 0.37719 1.07879 0.89371
 C664 C 0.34599 1.09543 0.87842
 C665 C 0.32384 1.11926 0.90006
 C666 C 0.33463 1.12731 0.93790
 C667 C 0.36796 1.11240 0.95220
 C668 C 0.38765 1.08595 0.93091
 C669 C 0.38079 1.12475 0.98743
 N670 N 0.35993 1.14812 1.00837
 N671 N 0.32689 1.15913 0.99674
 C672 C 0.31322 1.14891 0.96266
 H673 H 0.39294 1.05966 0.87655
 H674 H 0.33906 1.08936 0.84934
 H675 H 0.40704 1.11583 0.99859
 H676 H 0.28555 1.15719 0.95595
 C677 C 0.35265 0.93840 1.08253
 C678 C 0.32343 0.92087 1.10041
 C679 C 0.32169 0.88202 1.10268
 C680 C 0.35012 0.86034 1.08645
 C681 C 0.37945 0.87821 1.06734
 C682 C 0.38109 0.91760 1.06639
 C683 C 0.40587 0.85588 1.04930
 N684 N 0.40416 0.81834 1.05237
 N685 N 0.37777 0.80163 1.07205
 C686 C 0.35081 0.82128 1.08928
 H687 H 0.35343 0.96854 1.08200
 H688 H 0.30180 0.93783 1.11239
 H689 H 0.42755 0.86773 1.03234
 H690 H 0.33053 0.80609 1.10528
 C691 C 0.64449 1.05239 1.09101
 C692 C 0.67520 1.06906 1.10696
 C693 C 0.67562 1.10723 1.11439
 C694 C 0.64408 1.12895 1.10646
 C695 C 0.61309 1.11219 1.08915
 C696 C 0.61301 1.07316 1.08238
 C697 C 0.58428 1.13569 1.07738
 N698 N 0.58514 1.17250 1.08550
 N699 N 0.61303 1.18761 1.10425
 C700 C 0.64245 1.16712 1.11509
 H701 H 0.64563 1.02300 1.08483
 H702 H 0.69924 1.05212 1.11270
 H703 H 0.56169 1.12572 1.06074
 H704 H 0.66413 1.18095 1.13040
 C705 C 0.64387 0.94888 0.91189
 C706 C 0.67428 0.93265 0.89464
 C707 C 0.67737 0.89391 0.89169
 C708 C 0.64854 0.87107 0.90552
 C709 C 0.61817 0.88756 0.92415
 C710 C 0.61559 0.92683 0.92662
 C711 C 0.59171 0.86395 0.94043
 N712 N 0.59424 0.82663 0.93592
 N713 N 0.62146 0.81129 0.91635
 C714 C 0.64851 0.83218 0.90083
 H715 H 0.64239 0.97893 0.91376
 H716 H 0.69593 0.95053 0.88412
 H717 H 0.56932 0.87460 0.95710
 H718 H 0.66932 0.81809 0.88460
   
