data_POSCAR
  _audit_creation_date              2014-09-24
  _audit_creation_method            'ToBaCCo'
  _symmetry_space_group_name_H-M    'P1'
  _symmetry_Int_Tables_number       1
  _symmetry_cell_setting            triclinic
  loop_
  _symmetry_equiv_pos_as_xyz
 x,y,z
_cell_length_a 23.3051
_cell_length_b 23.4651
_cell_length_c 23.2424
_cell_angle_alpha 90.008700
_cell_angle_beta 89.792700
_cell_angle_gamma 90.130700
loop_
  _atom_site_label
  _atom_site_type_symbol
  _atom_site_fract_x
  _atom_site_fract_y
  _atom_site_fract_z
O1 O 0.35426 0.38354 0.06940
 O2 O 0.42348 0.35713 -0.06697
 O3 O 0.34936 0.43155 -0.03648
 O4 O 0.42811 0.31679 0.02885
 O5 O 0.35206 0.26103 0.02069
 O6 O 0.28446 0.37407 -0.07303
 O7 O 0.35726 0.29339 -0.08852
 O8 O 0.27254 0.35589 0.03319
 Cu9 Cu 0.39372 0.38001 0.00173
 Cu10 Cu 0.30878 0.31278 -0.02593
 C11 C 0.30041 0.38675 0.06842
 C12 C 0.40593 0.31654 -0.09844
 C13 C 0.30554 0.42410 -0.06779
 C14 C 0.40454 0.26853 0.03489
 O15 O 0.66071 0.57018 0.03564
 O16 O 0.58213 0.68336 -0.03205
 O17 O 0.65453 0.61283 -0.06950
 O18 O 0.58672 0.64413 0.06577
 O19 O 0.65233 0.70916 0.08486
 O20 O 0.73643 0.64628 -0.03877
 O21 O 0.65742 0.74017 -0.02405
 O22 O 0.72667 0.62843 0.06914
 Cu23 Cu 0.61579 0.62064 -0.00252
 Cu24 Cu 0.70109 0.68895 0.02205
 C25 C 0.70523 0.57849 0.06548
 C26 C 0.60510 0.73189 -0.03811
 C27 C 0.70856 0.61161 -0.07042
 C28 C 0.60421 0.68535 0.09627
 O29 O 0.65633 0.41947 0.96211
 O30 O 0.57005 0.31252 1.03054
 O31 O 0.65202 0.37456 1.07022
 O32 O 0.57961 0.34966 0.93602
 O33 O 0.64196 0.28227 0.91443
 O34 O 0.73167 0.33932 1.03642
 O35 O 0.64196 0.25156 1.02417
 O36 O 0.71974 0.35797 0.92960
 Cu37 Cu 0.61102 0.37199 1.00396
 Cu38 Cu 0.69093 0.29889 0.97766
 C39 C 0.70033 0.40876 0.93194
 C40 C 0.58966 0.26276 1.03690
 C41 C 0.70607 0.37439 1.06942
 C42 C 0.59476 0.30813 0.90452
 O43 O 0.43151 0.64911 1.06469
 O44 O 0.35946 0.62987 0.92894
 O45 O 0.44041 0.68869 0.97191
 O46 O 0.35306 0.58047 1.03711
 O47 O 0.29090 0.64122 1.07300
 O48 O 0.36801 0.74897 0.97924
 O49 O 0.27967 0.65990 0.96710
 O50 O 0.36863 0.71532 1.08860
 Cu51 Cu 0.39940 0.62846 0.99639
 Cu52 Cu 0.31963 0.70058 1.02548
 C53 C 0.41600 0.68953 1.09751
 C54 C 0.30558 0.62852 0.93084
 C55 C 0.42030 0.73830 0.96590
 C56 C 0.30965 0.59031 1.06860
 O57 O -0.04723 0.41396 0.34926
 O58 O 0.07826 0.34837 0.40814
 O59 O 0.05570 0.41881 0.33170
 O60 O -0.03418 0.33930 0.42758
 O61 O -0.05842 0.27325 0.36509
 O62 O 0.04471 0.35089 0.26704
 O63 O 0.05356 0.26795 0.36756
 O64 O -0.06405 0.34436 0.28785
 Cu65 Cu 0.01392 0.38484 0.38663
 Cu66 Cu -0.00071 0.30100 0.31471
 C67 C -0.07560 0.39390 0.30743
 C68 C 0.08170 0.29494 0.40607
 C69 C 0.06094 0.40126 0.28070
 C70 C -0.06407 0.29584 0.41467
 O71 O 0.05505 0.66933 0.57923
 O72 O -0.04819 0.58126 0.65285
 O73 O -0.05360 0.65324 0.57398
 O74 O 0.05854 0.59866 0.66626
 O75 O 0.03145 0.65924 0.73333
 O76 O -0.07913 0.72095 0.63452
 O77 O -0.07684 0.64979 0.71123
 O78 O 0.02953 0.74228 0.63309
 Cu79 Cu 0.00597 0.61990 0.61259
 Cu80 Cu -0.01951 0.70122 0.68512
 C81 C 0.05458 0.72222 0.58849
 C82 C -0.08048 0.59848 0.69328
 C83 C -0.08546 0.69545 0.58651
 C84 C 0.05825 0.61425 0.71834
 O85 O 1.05817 0.58762 0.32352
 O86 O 0.94524 0.64745 0.41094
 O87 O 0.95183 0.56928 0.33853
 O88 O 1.05222 0.66443 0.40543
 O89 O 1.03278 0.73170 0.34256
 O90 O 0.92425 0.63242 0.27403
 O91 O 0.92041 0.71082 0.34572
 O92 O 1.02995 0.64112 0.25113
 Cu93 Cu 1.00497 0.61190 0.37550
 Cu94 Cu 0.98024 0.68738 0.29633
 C95 C 1.05669 0.59773 0.27011
 C96 C 0.91362 0.68854 0.39528
 C97 C 0.92032 0.58278 0.29636
 C98 C 1.05479 0.71600 0.39037
 O99 O 0.96941 0.34322 0.58761
 O100 O 1.05837 0.43120 0.67506
 O101 O 1.08076 0.35438 0.60359
 O102 O 0.95556 0.42440 0.65767
 O103 O 0.94158 0.36231 0.72751
 O104 O 1.05844 0.27771 0.65206
 O105 O 1.04898 0.36888 0.74552
 O106 O 0.94438 0.28441 0.65700
 Cu107 Cu 1.01721 0.39247 0.62341
 Cu108 Cu 1.00378 0.31525 0.70291
 C109 C 0.93864 0.30227 0.60561
 C110 C 1.06377 0.41824 0.72735
 C111 C 1.08462 0.30126 0.60971
 C112 C 0.92883 0.40922 0.70272
 O113 O 0.40388 0.07395 0.36120
 O114 O 0.36639 -0.07156 0.39391
 O115 O 0.43255 -0.02319 0.32421
 O116 O 0.32799 0.02767 0.42788
 O117 O 0.26520 0.04471 0.35948
 O118 O 0.36280 -0.04188 0.26305
 O119 O 0.28488 -0.06231 0.34817
 O120 O 0.35377 0.06834 0.28168
 Cu121 Cu 0.38788 0.00209 0.38392
 Cu122 Cu 0.30945 0.00309 0.30504
 C123 C 0.39399 0.09149 0.31088
 C124 C 0.31516 -0.08737 0.38624
 C125 C 0.41598 -0.04257 0.27607
 C126 C 0.27887 0.04506 0.41258
 O127 O 0.67481 -0.02518 0.57295
 O128 O 0.57135 0.02459 0.67751
 O129 O 0.64298 0.07580 0.61553
 O130 O 0.59866 -0.06973 0.63958
 O131 O 0.65082 -0.07046 0.71822
 O132 O 0.72604 0.05706 0.65404
 O133 O 0.64152 0.03771 0.73975
 O134 O 0.73415 -0.05176 0.64154
 Cu135 Cu 0.61689 0.00252 0.61816
 Cu136 Cu 0.69575 -0.00591 0.69667
 C137 C 0.72124 -0.04874 0.58832
 C138 C 0.58834 0.04058 0.72662
 C139 C 0.69612 0.08551 0.61844
 C140 C 0.60948 -0.09069 0.68852
 O141 O 0.42776 0.94115 0.65211
 O142 O 0.32766 1.04622 0.59732
 O143 O 0.40912 1.04685 0.67386
 O144 O 0.35316 0.94321 0.57271
 O145 O 0.29104 0.90785 0.63515
 O146 O 0.35231 1.01203 0.74127
 O147 O 0.25968 1.01052 0.65282
 O148 O 0.36377 0.90523 0.71233
 Cu149 Cu 0.38508 0.99798 0.61861
 Cu150 Cu 0.30941 0.96103 0.69355
 C151 C 0.41423 0.90544 0.69103
 C152 C 0.27510 1.04106 0.61016
 C153 C 0.39507 1.04278 0.72617
 C154 C 0.31298 0.90850 0.58474
 O155 O 0.65080 1.05725 0.42757
 O156 O 0.59262 0.95507 0.32763
 O157 O 0.67105 0.95250 0.40592
 O158 O 0.57463 1.05967 0.34985
 O159 O 0.64004 1.09250 0.28945
 O160 O 0.74068 0.98291 0.34908
 O161 O 0.65348 0.98436 0.26098
 O162 O 0.71827 1.08604 0.36767
 Cu163 Cu 0.61658 1.00301 0.38326
 Cu164 Cu 0.69469 1.03621 0.30841
 C165 C 0.69479 1.08766 0.41729
 C166 C 0.60871 0.95660 0.27579
 C167 C 0.72353 0.95355 0.39204
 C168 C 0.58925 1.09387 0.31009
 C169 C 0.87416 0.68356 0.49252
 C170 C 0.87439 0.71202 0.43983
 C171 C 0.85244 0.76759 0.43807
 C172 C 0.83581 0.79551 0.48995
 C173 C 0.85427 0.77054 0.54270
 C174 C 0.87729 0.71528 0.54324
 C175 C 0.80518 0.85211 0.48925
 C176 C 0.78567 0.87732 0.54159
 C177 C 0.75890 0.93056 0.54125
 C178 C 0.75569 0.96038 0.48955
 C179 C 0.76286 0.93262 0.43704
 C180 C 0.78851 0.87864 0.43657
 H181 H 0.88624 0.63895 0.49346
 H182 H 0.85186 0.78912 0.39708
 H183 H 0.85522 0.79479 0.58215
 H184 H 0.78683 0.85465 0.58195
 H185 H 0.73554 1.00184 0.48975
 H186 H 0.79172 0.85706 0.39572
 C187 C 0.10650 0.29764 0.50873
 C188 C 0.10851 0.26692 0.45711
 C189 C 0.12734 0.21047 0.45907
 C190 C 0.14499 0.18570 0.51221
 C191 C 0.12822 0.21394 0.56427
 C192 C 0.10905 0.27074 0.56279
 C193 C 0.18130 0.13220 0.51252
 C194 C 0.20096 0.10748 0.56510
 C195 C 0.23486 0.05815 0.56421
 C196 C 0.24657 0.03226 0.51157
 C197 C 0.23902 0.06131 0.45998
 C198 C 0.20464 0.11017 0.45996
 H199 H 0.09309 0.34172 0.50663
 H200 H 0.12849 0.18708 0.41912
 H201 H 0.13160 0.19363 0.60573
 H202 H 0.19365 0.12739 0.60626
 H203 H 0.27222 -0.00615 0.51124
 H204 H 0.20050 0.13245 0.41963
 C205 C 0.04556 0.74495 0.48738
 C206 C 0.07274 0.75785 0.53902
 C207 C 0.12367 0.78904 0.53751
 C208 C 0.14841 0.80710 0.48412
 C209 C 0.12228 0.78737 0.43200
 C210 C 0.07190 0.75422 0.43391
 C211 C 0.20543 0.83835 0.48359
 C212 C 0.23292 0.85530 0.43135
 C213 C 0.28985 0.87549 0.43191
 C214 C 0.31942 0.87526 0.48442
 C215 C 0.28932 0.87421 0.53632
 C216 C 0.23273 0.85425 0.53601
 H217 H 0.00678 0.71918 0.48912
 H218 H 0.14497 0.79461 0.57814
 H219 H 0.14316 0.79251 0.39080
 H220 H 0.21041 0.85516 0.39087
 H221 H 0.36402 0.88831 0.48558
 H222 H 0.21008 0.85472 0.57646
 C223 C 0.89819 0.30512 0.50967
 C224 C 0.90001 0.27653 0.56200
 C225 C 0.87466 0.22237 0.56459
 C226 C 0.85326 0.19724 0.51290
 C227 C 0.87479 0.21953 0.45963
 C228 C 0.90078 0.27362 0.45892
 C229 C 0.80317 0.15649 0.51432
 C230 C 0.77441 0.14137 0.46253
 C231 C 0.71935 0.11716 0.46415
 C232 C 0.69157 0.11353 0.51743
 C233 C 0.72208 0.11691 0.56907
 C234 C 0.77834 0.13834 0.56748
 H235 H 0.90868 0.35019 0.50866
 H236 H 0.87073 0.20186 0.60596
 H237 H 0.87144 0.19623 0.41974
 H238 H 0.79403 0.14780 0.42095
 H239 H 0.64753 0.09873 0.51848
 H240 H 0.80112 0.14177 0.60765
 C241 C 0.51263 0.86849 0.68378
 C242 C 0.46101 0.86936 0.71433
 C243 C 0.46112 0.85166 0.77183
 C244 C 0.51342 0.83859 0.80016
 C245 C 0.56537 0.85377 0.77144
 C246 C 0.56490 0.87082 0.71346
 C247 C 0.51364 0.81561 0.86086
 C248 C 0.56571 0.79819 0.88733
 C249 C 0.56575 0.77776 0.94398
 C250 C 0.51469 0.77980 0.97570
 C251 C 0.46225 0.78176 0.94680
 C252 C 0.46150 0.80240 0.89031
 H253 H 0.51148 0.87979 0.63859
 H254 H 0.42081 0.85288 0.79465
 H255 H 0.60547 0.85640 0.79442
 H256 H 0.60504 0.79457 0.86289
 H257 H 0.51494 0.76229 1.01901
 H258 H 0.42074 0.80182 0.86856
 C259 C 0.49106 0.13201 0.31501
 C260 C 0.43902 0.12898 0.28479
 C261 C 0.43929 0.14503 0.22646
 C262 C 0.49177 0.15976 0.19834
 C263 C 0.54365 0.14613 0.22729
 C264 C 0.54308 0.12986 0.28517
 C265 C 0.49291 0.18350 0.13791
 C266 C 0.54586 0.19818 0.11073
 C267 C 0.54695 0.21942 0.05453
 C268 C 0.49560 0.22120 0.02372
 C269 C 0.44336 0.22231 0.05353
 C270 C 0.44152 0.20064 0.10980
 H271 H 0.49173 0.12214 0.36055
 H272 H 0.39941 0.14265 0.20307
 H273 H 0.58407 0.14367 0.20475
 H274 H 0.58572 0.19933 0.13410
 H275 H 0.49680 0.23919 -0.01937
 H276 H 0.40126 0.20303 0.13280
 C277 C 0.49055 0.03263 0.76335
 C278 C 0.54315 0.06113 0.76624
 C279 C 0.54482 0.11608 0.78925
 C280 C 0.49338 0.14479 0.80480
 C281 C 0.44033 0.11864 0.78894
 C282 C 0.43906 0.06277 0.76729
 C283 C 0.49579 0.20449 0.82906
 C284 C 0.44497 0.23533 0.84225
 C285 C 0.44815 0.29240 0.86007
 C286 C 0.50148 0.31981 0.85714
 C287 C 0.55136 0.28717 0.86252
 C288 C 0.54892 0.22980 0.84561
 H289 H 0.48980 -0.00964 0.74442
 H290 H 0.58577 0.13762 0.78905
 H291 H 0.40057 0.14209 0.78882
 H292 H 0.40366 0.21456 0.84384
 H293 H 0.50362 0.36480 0.86761
 H294 H 0.58731 0.20464 0.85031
 C295 C 0.51357 0.96581 0.23851
 C296 C 0.56555 0.93655 0.23428
 C297 C 0.56543 0.88087 0.21263
 C298 C 0.51292 0.85363 0.19753
 C299 C 0.46090 0.88099 0.21428
 C300 C 0.46162 0.93618 0.23706
 C301 C 0.51230 0.79425 0.17264
 C302 C 0.45976 0.76717 0.15776
 C303 C 0.45905 0.71022 0.13973
 C304 C 0.51006 0.67925 0.14340
 C305 C 0.56232 0.70855 0.13878
 C306 C 0.56390 0.76566 0.15687
 H307 H 0.51380 1.00836 0.25684
 H308 H 0.60567 0.85821 0.21243
 H309 H 0.42045 0.85856 0.21504
 H310 H 0.42028 0.79090 0.15478
 H311 H 0.50891 0.63430 0.13256
 H312 H 0.60424 0.78814 0.15378
 C313 C 0.70314 0.51178 0.91167
 C314 C 0.72887 0.45858 0.90416
 C315 C 0.78176 0.45632 0.87569
 C316 C 0.80997 0.50750 0.85859
 C317 C 0.78915 0.56015 0.88117
 C318 C 0.73393 0.56280 0.90515
 C319 C 0.85121 0.50658 0.80869
 C320 C 0.86467 0.55752 0.77823
 C321 C 0.88296 0.55444 0.72094
 C322 C 0.88125 0.50147 0.69380
 C323 C 0.88849 0.45223 0.72684
 C324 C 0.87122 0.45423 0.78477
 H325 H 0.66045 0.51322 0.93018
 H326 H 0.79862 0.41485 0.86499
 H327 H 0.81253 0.59956 0.87577
 H328 H 0.86132 0.59906 0.79780
 H329 H 0.88976 0.49973 0.64793
 H330 H 0.87404 0.41592 0.81036
 C331 C 0.30600 0.48890 0.08427
 C332 C 0.27539 0.43872 0.09422
 C333 C 0.22195 0.44185 0.12110
 C334 C 0.20104 0.49495 0.14221
 C335 C 0.23078 0.54568 0.12557
 C336 C 0.28244 0.54277 0.09445
 C337 C 0.14853 0.49668 0.18033
 C338 C 0.12319 0.54937 0.19782
 C339 C 0.07426 0.54958 0.23280
 C340 C 0.04818 0.49775 0.24641
 C341 C 0.07672 0.44609 0.23865
 C342 C 0.12655 0.44535 0.20518
 H343 H 0.34731 0.48571 0.06306
 H344 H 0.19796 0.40271 0.12554
 H345 H 0.21449 0.58746 0.13536
 H346 H 0.14180 0.59018 0.18768
 H347 H 0.00996 0.49818 0.27315
 H348 H 0.14947 0.40553 0.20262
 C349 C 0.70550 0.47478 0.08234
 C350 C 0.73200 0.52726 0.09158
 C351 C 0.78358 0.52838 0.12165
 C352 C 0.80934 0.47701 0.14120
 C353 C 0.78701 0.42415 0.12012
 C354 C 0.73349 0.42294 0.09232
 C355 C 0.84998 0.47934 0.19146
 C356 C 0.86559 0.42935 0.22237
 C357 C 0.88380 0.43413 0.27972
 C358 C 0.87883 0.48735 0.30634
 C359 C 0.88385 0.53637 0.27277
 C360 C 0.86794 0.53267 0.21487
 H361 H 0.66415 0.47431 0.06128
 H362 H 0.80099 0.56975 0.13166
 H363 H 0.80750 0.38402 0.12950
 H364 H 0.86465 0.38768 0.20273
 H365 H 0.88698 0.49068 0.35214
 H366 H 0.87071 0.57075 0.18897
 C367 C 0.30582 0.52597 0.91784
 C368 C 0.27825 0.57729 0.90569
 C369 C 0.22625 0.57622 0.87586
 C370 C 0.20282 0.52345 0.85642
 C371 C 0.22923 0.47201 0.87586
 C372 C 0.28047 0.47303 0.90719
 C373 C 0.15078 0.52177 0.81770
 C374 C 0.12771 0.46856 0.79887
 C375 C 0.07858 0.46667 0.76512
 C376 C 0.05025 0.51742 0.75254
 C377 C 0.07695 0.57010 0.76008
 C378 C 0.12675 0.57271 0.79381
 H379 H 0.34633 0.52764 0.94035
 H380 H 0.20545 0.61646 0.86806
 H381 H 0.21050 0.43076 0.86851
 H382 H 0.14869 0.42844 0.80606
 H383 H 0.01183 0.51536 0.72637
 H384 H 0.14752 0.61360 0.79793
   
