data_POSCAR
  _audit_creation_date              2014-09-24
  _audit_creation_method            'ToBaCCo'
  _symmetry_space_group_name_H-M    'P1'
  _symmetry_Int_Tables_number       1
  _symmetry_cell_setting            triclinic
  loop_
  _symmetry_equiv_pos_as_xyz
 x,y,z
_cell_length_a 26.9374
_cell_length_b 26.9535
_cell_length_c 26.9801
_cell_angle_alpha 90.107700
_cell_angle_beta 90.070000
_cell_angle_gamma 90.054900
loop_
  _atom_site_label
  _atom_site_type_symbol
  _atom_site_fract_x
  _atom_site_fract_y
  _atom_site_fract_z
C1 C 0.52372 1.00156 -0.50197
 C2 C 0.47339 1.00101 -0.50101
 C3 C 0.44270 0.99800 -0.54671
 C4 C 0.44505 1.00312 -0.45398
 C5 C 0.55418 1.00024 -0.45616
 C6 C 0.55231 1.00343 -0.54881
 C7 C 0.44554 1.03381 -0.58414
 C8 C 0.41191 1.03308 -0.62380
 C9 C 0.37331 0.99718 -0.62639
 C10 C 0.37258 0.96035 -0.58896
 C11 C 0.40654 0.96091 -0.55005
 C12 C 0.41076 1.04162 -0.44729
 C13 C 0.37818 1.04105 -0.40727
 C14 C 0.37898 1.00174 -0.37321
 C15 C 0.41485 0.96422 -0.37858
 C16 C 0.44755 0.96475 -0.41893
 C17 C 0.58939 0.96235 -0.45079
 C18 C 0.62310 0.96322 -0.41162
 C19 C 0.62246 1.00216 -0.37701
 C20 C 0.58600 1.03926 -0.38124
 C21 C 0.55224 1.03849 -0.42079
 C22 C 0.55102 0.96432 -0.58323
 C23 C 0.58397 0.96391 -0.62339
 C24 C 0.61884 1.00236 -0.62920
 C25 C 0.61841 1.04233 -0.59577
 C26 C 0.58562 1.04275 -0.55593
 H27 H 0.47248 1.06356 -0.58167
 H28 H 0.41438 1.06341 -0.64980
 H29 H 0.34694 0.92949 -0.58991
 H30 H 0.40414 0.93244 -0.52185
 H31 H 0.40828 1.07145 -0.47404
 H32 H 0.35147 1.07084 -0.40355
 H33 H 0.47325 0.93430 -0.42397
 H34 H 0.59149 0.93259 -0.47776
 H35 H 0.65027 0.93376 -0.40879
 H36 H 0.58497 1.06986 -0.35520
 H37 H 0.52591 1.06855 -0.42482
 H38 H 0.52605 0.93329 -0.57785
 H39 H 0.58377 0.93254 -0.64851
 H40 H 0.64429 1.07282 -0.59985
 H41 H 0.58714 1.07318 -0.52968
 H42 H 0.41599 0.93335 -0.35297
 C43 C -0.47505 1.50023 0.00085
 C44 C -0.52530 1.50019 0.00136
 C45 C -0.55462 1.45383 0.00428
 C46 C -0.55491 1.54635 -0.00095
 C47 C -0.44538 1.54636 0.00467
 C48 C -0.44580 1.45394 -0.00320
 C49 C -0.55451 1.41882 -0.03429
 C50 C -0.58766 1.37879 -0.03331
 C51 C -0.62158 1.37370 0.00598
 C52 C -0.62015 1.40788 0.04527
 C53 C -0.58711 1.44760 0.04432
 C54 C -0.58888 1.55194 -0.03992
 C55 C -0.62219 1.59137 -0.04013
 C56 C -0.62236 1.62596 -0.00120
 C57 C -0.58701 1.62157 0.03696
 C58 C -0.55362 1.58176 0.03726
 C59 C -0.41062 1.55037 0.04302
 C60 C -0.37737 1.58986 0.04454
 C61 C -0.37767 1.62672 0.00744
 C62 C -0.41461 1.62365 -0.02983
 C63 C -0.44770 1.58357 -0.03145
 C64 C -0.44597 1.41820 0.03455
 C65 C -0.41279 1.37829 0.03273
 C66 C -0.37879 1.37400 -0.00660
 C67 C -0.38015 1.40894 -0.04510
 C68 C -0.41321 1.44857 -0.04329
 H69 H -0.53020 1.42356 -0.06587
 H70 H -0.58830 1.35311 -0.06421
 H71 H -0.64531 1.40437 0.07635
 H72 H -0.58770 1.47436 0.07433
 H73 H -0.59041 1.52489 -0.06964
 H74 H -0.64852 1.59436 -0.07035
 H75 H -0.52817 1.57753 0.06805
 H76 H -0.40863 1.52218 0.07154
 H77 H -0.35197 1.59152 0.07558
 H78 H -0.41611 1.65008 -0.05989
 H79 H -0.47373 1.58058 -0.06193
 H80 H -0.47032 1.42228 0.06620
 H81 H -0.41221 1.35204 0.06306
 H82 H -0.35494 1.40608 -0.07621
 H83 H -0.41255 1.47594 -0.07265
 H84 H -0.58665 1.64765 0.06754
 C85 C 0.00568 0.52548 0.50082
 C86 C 0.00279 0.47519 0.50002
 C87 C -0.00204 0.44617 0.45333
 C88 C 0.00634 0.44517 0.54604
 C89 C 0.00784 0.55358 0.54803
 C90 C 0.00488 0.55597 0.45506
 C91 C 0.03352 0.44907 0.41551
 C92 C 0.03199 0.41597 0.37537
 C93 C -0.00463 0.37832 0.37264
 C94 C -0.04137 0.37754 0.40997
 C95 C -0.03992 0.41078 0.44959
 C96 C -0.03162 0.44534 0.58150
 C97 C -0.03076 0.41178 0.62107
 C98 C 0.00749 0.37608 0.62539
 C99 C 0.04610 0.37738 0.58998
 C100 C 0.04541 0.41135 0.55102
 C101 C 0.05338 0.56882 0.56799
 C102 C 0.05478 0.60195 0.60799
 C103 C 0.01050 0.61936 0.63004
 C104 C -0.03507 0.60153 0.61106
 C105 C -0.03627 0.57003 0.56990
 C106 C 0.04495 0.58759 0.44486
 C107 C 0.04259 0.62113 0.40567
 C108 C 0.00001 0.62393 0.37573
 C109 C -0.03942 0.59083 0.38456
 C110 C -0.03710 0.55723 0.42414
 H111 H 0.06380 0.47540 0.41818
 H112 H 0.06180 0.41803 0.34866
 H113 H -0.07207 0.35168 0.40871
 H114 H -0.06802 0.40816 0.47816
 H115 H -0.06319 0.46976 0.57732
 H116 H -0.06219 0.41185 0.64597
 H117 H 0.07503 0.41055 0.52390
 H118 H 0.08786 0.55624 0.55167
 H119 H 0.09074 0.61303 0.62212
 H120 H -0.07019 0.61462 0.62543
 H121 H -0.07178 0.55947 0.55420
 H122 H 0.07795 0.58694 0.46774
 H123 H 0.07392 0.64545 0.39912
 H124 H -0.07276 0.59233 0.36215
 H125 H -0.06862 0.53347 0.43169
 H126 H 0.07768 0.35275 0.59243
 O127 O -0.12743 1.00220 -0.06906
 O128 O 0.12767 0.99694 -0.06621
 O129 O -0.00007 1.06615 -0.12873
 O130 O 0.00350 0.93141 -0.12773
 O131 O 0.00017 0.87148 -0.06672
 O132 O -0.00179 1.12709 -0.06856
 O133 O 0.06789 0.99718 -0.12737
 O134 O -0.06659 1.00083 -0.12902
 Zr135 Zr 0.00031 0.99916 -0.08805
 O136 O 0.04460 0.95436 -0.04492
 O137 O -0.04495 1.04467 -0.04657
 C138 C -0.11263 1.00255 -0.11480
 C139 C 0.11365 0.99609 -0.11225
 C140 C -0.00144 1.11218 -0.11435
 C141 C 0.00285 0.88569 -0.11256
 H142 H 0.06624 1.06523 -0.06635
 O143 O 0.04470 1.04431 -0.04534
 H144 H -0.06623 0.93363 -0.06723
 O145 O -0.04513 0.95481 -0.04589
 O146 O 0.12626 1.00263 0.06748
 O147 O -0.12892 0.99841 0.06464
 O148 O 0.06705 1.12726 0.00099
 O149 O 0.06623 0.87232 -0.00091
 O150 O -0.06852 0.87275 0.00155
 O151 O -0.06762 1.12753 -0.00394
 O152 O -0.00043 1.06820 0.12629
 O153 O -0.00372 0.93370 0.12712
 O154 O 0.00120 1.12827 0.06550
 O155 O -0.00404 0.87271 0.06706
 O156 O 0.12715 1.06645 0.00147
 O157 O -0.12801 1.06691 -0.00375
 O158 O -0.12863 0.93352 -0.00091
 O159 O 0.12671 0.93287 -0.00004
 O160 O 0.06529 1.00199 0.12743
 O161 O -0.06915 0.99932 0.12583
 Zr162 Zr 0.08640 0.99975 0.00020
 Zr163 Zr -0.08768 1.00011 -0.00177
 Zr164 Zr -0.00039 1.08725 -0.00127
 Zr165 Zr -0.00105 0.91262 -0.00015
 Zr166 Zr -0.00153 1.00061 0.08646
 O167 O -0.04628 0.95536 0.04405
 O168 O 0.04401 1.04524 0.04449
 C169 C 0.11130 1.00312 0.11318
 C170 C -0.11492 0.99813 0.11069
 C171 C 0.11289 1.11240 0.00206
 C172 C 0.11221 0.88697 -0.00083
 C173 C -0.11434 0.88764 0.00105
 C174 C -0.11355 1.11280 -0.00477
 C175 C 0.00099 1.11402 0.11146
 C176 C -0.00494 0.88764 0.11284
 H177 H -0.06710 1.06652 0.06410
 O178 O -0.04572 1.04521 0.04328
 H179 H 0.06436 0.93430 0.06636
 O180 O 0.04347 0.95534 0.04482
 C181 C 0.26270 1.00115 0.26368
 C182 C 0.30885 1.02327 0.25435
 C183 C 0.34574 1.02232 0.29119
 C184 C 0.33751 0.99842 0.33740
 C185 C 0.29018 0.97630 0.34521
 C186 C 0.25300 0.97785 0.30896
 C187 C 0.22369 1.00236 0.22527
 C188 C 0.17715 0.98103 0.23515
 C189 C 0.14019 0.98228 0.19861
 C190 C 0.14985 1.00379 0.15210
 C191 C 0.19680 1.02485 0.14267
 C192 C 0.23375 1.02460 0.17936
 C193 C 0.20598 0.95683 0.31747
 C194 C 0.16865 0.95851 0.28124
 C195 C 0.31741 1.04555 0.20803
 C196 C 0.28059 1.04603 0.17112
 H197 H 0.19795 0.93889 0.35247
 H198 H 0.13294 0.94183 0.28928
 H199 H 0.35295 1.06264 0.20016
 H200 H 0.28882 1.06341 0.13588
 H201 H 0.38156 1.03798 0.28207
 H202 H 0.28033 0.96025 0.38057
 H203 H 0.10432 0.96555 0.20595
 H204 H 0.20436 1.04175 0.10703
 C205 C -0.26775 0.99747 0.25976
 C206 C -0.31680 0.98549 0.24653
 C207 C -0.35396 0.98642 0.28301
 C208 C -0.34222 0.99978 0.33214
 C209 C -0.29272 1.01122 0.34469
 C210 C -0.25538 1.01017 0.30871
 C211 C -0.22860 0.99705 0.22162
 C212 C -0.17963 1.00901 0.23500
 C213 C -0.14258 1.00885 0.19863
 C214 C -0.15422 0.99723 0.14901
 C215 C -0.20363 0.98530 0.13625
 C216 C -0.24095 0.98502 0.17249
 C217 C -0.20595 1.02179 0.32070
 C218 C -0.16869 1.02120 0.28446
 C219 C -0.32765 0.97328 0.19702
 C220 C -0.29039 0.97312 0.16062
 H221 H -0.19602 1.03159 0.35840
 H222 H -0.13104 1.03054 0.29520
 H223 H -0.36530 0.96399 0.18626
 H224 H -0.30038 0.96369 0.12284
 H225 H -0.39202 0.97779 0.27310
 H226 H -0.28326 1.02068 0.38262
 H227 H -0.10485 1.01841 0.20892
 H228 H -0.21305 0.97604 0.09827
 C229 C -0.26441 1.00648 -0.26540
 C230 C -0.25149 0.99657 -0.31480
 C231 C -0.28871 0.99581 -0.35104
 C232 C -0.33860 1.00484 -0.33826
 C233 C -0.35088 1.01555 -0.28866
 C234 C -0.31387 1.01611 -0.25195
 C235 C -0.22545 1.00628 -0.22696
 C236 C -0.23840 1.01538 -0.17742
 C237 C -0.20132 1.01433 -0.14091
 C238 C -0.15150 1.00441 -0.15369
 C239 C -0.13921 0.99587 -0.20374
 C240 C -0.17606 0.99655 -0.24047
 C241 C -0.32530 1.02551 -0.20201
 C242 C -0.28822 1.02510 -0.16537
 C243 C -0.20165 0.98727 -0.32694
 C244 C -0.16455 0.98732 -0.29040
 H245 H -0.36327 1.03298 -0.19111
 H246 H -0.29866 1.03228 -0.12726
 H247 H -0.19127 0.97968 -0.36499
 H248 H -0.12659 0.97979 -0.30130
 H249 H -0.27891 0.98834 -0.38929
 H250 H -0.38924 1.02226 -0.27859
 H251 H -0.21133 1.02130 -0.10262
 H252 H -0.10115 0.98806 -0.21413
 C253 C 0.26602 0.99551 -0.26181
 C254 C 0.31544 0.98546 -0.24848
 C255 C 0.35249 0.98681 -0.28507
 C256 C 0.34024 0.99871 -0.33440
 C257 C 0.29039 1.00819 -0.34704
 C258 C 0.25317 1.00667 -0.31096
 C259 C 0.22699 0.99475 -0.22356
 C260 C 0.17767 1.00487 -0.23704
 C261 C 0.14077 1.00463 -0.20055
 C262 C 0.15286 0.99481 -0.15068
 C263 C 0.20259 0.98455 -0.13784
 C264 C 0.23980 0.98438 -0.17421
 C265 C 0.20339 1.01637 -0.32306
 C266 C 0.16625 1.01546 -0.28670
 C267 C 0.32676 0.97478 -0.19876
 C268 C 0.28960 0.97432 -0.16225
 H269 H 0.19308 1.02496 -0.36091
 H270 H 0.12832 1.02336 -0.29752
 H271 H 0.36469 0.96698 -0.18793
 H272 H 0.29996 0.96616 -0.12432
 H273 H 0.39082 0.97968 -0.27511
 H274 H 0.28057 1.01649 -0.38511
 H275 H 0.10278 1.01285 -0.21096
 H276 H 0.21238 0.97668 -0.09968
 C277 C 0.26555 1.26184 0.00440
 C278 C 0.31447 1.24883 -0.00816
 C279 C 0.35143 1.28556 -0.00799
 C280 C 0.33966 1.33475 0.00505
 C281 C 0.29036 1.34706 0.01739
 C282 C 0.25317 1.31079 0.01710
 C283 C 0.22652 1.22351 0.00418
 C284 C 0.17755 1.23667 0.01629
 C285 C 0.14048 1.20018 0.01558
 C286 C 0.15216 1.15076 0.00320
 C287 C 0.20162 1.13819 -0.00843
 C288 C 0.23889 1.17448 -0.00822
 C289 C 0.20384 1.32252 0.02921
 C290 C 0.16663 1.28607 0.02878
 C291 C 0.32539 1.19936 -0.02042
 C292 C 0.28824 1.16278 -0.02038
 H293 H 0.19389 1.36021 0.03907
 H294 H 0.12903 1.29664 0.03831
 H295 H 0.36295 1.18881 -0.03010
 H296 H 0.29821 1.12505 -0.03006
 H297 H 0.38936 1.27585 -0.01722
 H298 H 0.28090 1.38503 0.02668
 H299 H 0.10267 1.21024 0.02494
 H300 H 0.21106 1.10034 -0.01827
 C301 C 0.26459 0.73736 0.00078
 C302 C 0.25182 0.68789 -0.00939
 C303 C 0.28906 0.65174 -0.00952
 C304 C 0.33877 0.66468 0.00045
 C305 C 0.35092 0.71433 0.01128
 C306 C 0.31390 0.75096 0.01119
 C307 C 0.22557 0.77564 0.00031
 C308 C 0.23835 0.82521 0.00994
 C309 C 0.20114 0.86150 0.00921
 C310 C 0.15136 0.84846 -0.00073
 C311 C 0.13928 0.79846 -0.01020
 C312 C 0.17627 0.76194 -0.00987
 C313 C 0.32518 0.80095 0.02088
 C314 C 0.28805 0.83746 0.02019
 C315 C 0.20212 0.67557 -0.01940
 C316 C 0.16495 0.71198 -0.01957
 H317 H 0.36305 0.81196 0.02890
 H318 H 0.29833 0.87561 0.02775
 H319 H 0.19188 0.63746 -0.02724
 H320 H 0.12707 0.70095 -0.02749
 H321 H 0.27939 0.61341 -0.01711
 H322 H 0.38916 0.72448 0.01870
 H323 H 0.21098 0.89977 0.01682
 H324 H 0.10123 0.78794 -0.01811
 C325 C -0.26659 0.73809 0.00531
 C326 C -0.31352 0.74844 -0.01474
 C327 C -0.35030 0.71152 -0.01423
 C328 C -0.34084 0.66442 0.00694
 C329 C -0.29307 0.65531 0.02704
 C330 C -0.25602 0.69170 0.02609
 C331 C -0.22762 0.77650 0.00434
 C332 C -0.18034 0.76567 0.02348
 C333 C -0.14327 0.80210 0.02199
 C334 C -0.15346 0.84929 0.00220
 C335 C -0.20122 0.85969 -0.01645
 C336 C -0.23836 0.82324 -0.01582
 C337 C -0.20836 0.68231 0.04516
 C338 C -0.17111 0.71865 0.04378
 C339 C -0.32283 0.79566 -0.03472
 C340 C -0.28592 0.83248 -0.03511
 H341 H -0.19974 0.64651 0.06120
 H342 H -0.13483 0.70991 0.05879
 H343 H -0.35895 0.80424 -0.05017
 H344 H -0.29464 0.86840 -0.05083
 H345 H -0.38673 0.72050 -0.02862
 H346 H -0.28343 0.61912 0.04146
 H347 H -0.10675 0.79393 0.03677
 H348 H -0.20927 0.89583 -0.03208
 C349 C -0.26606 1.26215 -0.00664
 C350 C -0.25361 1.31119 -0.01884
 C351 C -0.29077 1.34745 -0.01873
 C352 C -0.34008 1.33503 -0.00647
 C353 C -0.35192 1.28573 0.00596
 C354 C -0.31500 1.24904 0.00574
 C355 C -0.22705 1.22386 -0.00669
 C356 C -0.23949 1.17479 0.00533
 C357 C -0.20225 1.13856 0.00542
 C358 C -0.15273 1.15120 -0.00598
 C359 C -0.14097 1.20067 -0.01802
 C360 C -0.17804 1.23712 -0.01857
 C361 C -0.32599 1.19949 0.01755
 C362 C -0.28887 1.16297 0.01728
 C363 C -0.20425 1.32302 -0.03079
 C364 C -0.16707 1.28660 -0.03063
 H365 H -0.36357 1.18886 0.02709
 H366 H -0.29889 1.12519 0.02665
 H367 H -0.19425 1.36077 -0.04027
 H368 H -0.12944 1.29726 -0.03998
 H369 H -0.28123 1.38551 -0.02754
 H370 H -0.38985 1.27591 0.01509
 H371 H -0.21179 1.10069 0.01500
 H372 H -0.10312 1.21079 -0.02715
 C373 C -0.00137 1.26656 0.26140
 C374 C -0.02233 1.25617 0.30773
 C375 C -0.02363 1.29339 0.34402
 C376 C -0.00375 1.34126 0.33492
 C377 C 0.01766 1.35050 0.28784
 C378 C 0.01856 1.31350 0.25102
 C379 C -0.00024 1.22743 0.22304
 C380 C 0.01994 1.23798 0.17628
 C381 C 0.02029 1.20078 0.13975
 C382 C 0.00126 1.15313 0.15007
 C383 C -0.01830 1.14314 0.19742
 C384 C -0.01949 1.18024 0.23388
 C385 C 0.03876 1.32257 0.20384
 C386 C 0.03931 1.28552 0.16709
 C387 C -0.04131 1.20851 0.31716
 C388 C -0.03983 1.17116 0.28090
 H389 H 0.05419 1.35865 0.19519
 H390 H 0.05513 1.29416 0.13121
 H391 H -0.05746 1.19997 0.35291
 H392 H -0.05489 1.13494 0.28970
 H393 H -0.03817 1.28376 0.38012
 H394 H 0.03196 1.38690 0.27873
 H395 H 0.03572 1.20874 0.10353
 H396 H -0.03344 1.10678 0.20562
 C397 C 0.00294 1.26418 -0.26406
 C398 C -0.01896 1.31041 -0.25451
 C399 C -0.01753 1.34740 -0.29112
 C400 C 0.00638 1.33896 -0.33715
 C401 C 0.02846 1.29191 -0.34538
 C402 C 0.02652 1.25457 -0.30933
 C403 C 0.00114 1.22501 -0.22592
 C404 C 0.02228 1.17844 -0.23593
 C405 C 0.02046 1.14132 -0.19961
 C406 C -0.00145 1.15085 -0.15318
 C407 C -0.02237 1.19785 -0.14370
 C408 C -0.02152 1.23495 -0.18013
 C409 C 0.04738 1.20754 -0.31794
 C410 C 0.04517 1.17009 -0.28193
 C411 C -0.04166 1.31882 -0.20834
 C412 C -0.04276 1.28182 -0.17173
 H413 H 0.06555 1.19957 -0.35287
 H414 H 0.06173 1.13437 -0.29009
 H415 H -0.05861 1.35438 -0.20035
 H416 H -0.06048 1.28994 -0.13661
 H417 H -0.03346 1.38327 -0.28261
 H418 H 0.04522 1.28299 -0.38073
 H419 H 0.03705 1.10544 -0.20705
 H420 H -0.03961 1.20537 -0.10818
 C421 C 0.00972 0.73031 -0.25849
 C422 C -0.02664 0.69304 -0.25791
 C423 C -0.02607 0.65617 -0.29468
 C424 C 0.01142 0.65526 -0.33140
 C425 C 0.04872 0.69234 -0.32995
 C426 C 0.04736 0.73040 -0.29435
 C427 C 0.00804 0.77031 -0.22108
 C428 C 0.04307 0.80893 -0.22302
 C429 C 0.04056 0.84746 -0.18799
 C430 C 0.00443 0.84638 -0.15041
 C431 C -0.02984 0.80704 -0.14842
 C432 C -0.02875 0.76929 -0.18424
 C433 C 0.08230 0.76921 -0.29458
 C434 C 0.07995 0.80800 -0.25979
 C435 C -0.06306 0.69346 -0.22063
 C436 C -0.06384 0.73070 -0.18418
 H437 H 0.11143 0.76990 -0.32223
 H438 H 0.10735 0.83740 -0.26158
 H439 H -0.09119 0.66473 -0.21959
 H440 H -0.09247 0.72955 -0.15602
 H441 H -0.05410 0.62735 -0.29354
 H442 H 0.07714 0.69370 -0.35829
 H443 H 0.06725 0.87759 -0.18915
 H444 H -0.05781 0.80643 -0.11954
 C445 C -0.00665 0.73696 0.26415
 C446 C -0.02261 0.68869 0.25241
 C447 C -0.02131 0.65180 0.28917
 C448 C -0.00357 0.66295 0.33708
 C449 C 0.01174 0.71175 0.34818
 C450 C 0.01030 0.74886 0.31193
 C451 C -0.00717 0.77572 0.22557
 C452 C 0.00883 0.82392 0.23744
 C453 C 0.00875 0.86051 0.20058
 C454 C -0.00653 0.84908 0.15190
 C455 C -0.02255 0.80047 0.14068
 C456 C -0.02316 0.76370 0.17748
 C457 C 0.02583 0.79754 0.32243
 C458 C 0.02505 0.83445 0.28583
 C459 C -0.03894 0.67826 0.20398
 C460 C -0.03914 0.71509 0.16715
 H461 H 0.03891 0.80715 0.35921
 H462 H 0.03755 0.87148 0.29542
 H463 H -0.05137 0.64123 0.19437
 H464 H -0.05175 0.70537 0.13023
 H465 H -0.03290 0.61430 0.28029
 H466 H 0.02467 0.72084 0.38517
 H467 H 0.02149 0.89762 0.20960
 H468 H -0.03468 0.79130 0.10346
   
