data_POSCAR
  _audit_creation_date              2014-09-24
  _audit_creation_method            'ToBaCCo'
  _symmetry_space_group_name_H-M    'P1'
  _symmetry_Int_Tables_number       1
  _symmetry_cell_setting            triclinic
  loop_
  _symmetry_equiv_pos_as_xyz
 x,y,z
_cell_length_a 34.5070
_cell_length_b 49.1548
_cell_length_c 40.7209
_cell_angle_alpha 90.091800
_cell_angle_beta 89.968000
_cell_angle_gamma 90.175900
loop_
  _atom_site_label
  _atom_site_type_symbol
  _atom_site_fract_x
  _atom_site_fract_y
  _atom_site_fract_z
O1 O 0.29840 0.22327 0.25649
 O2 O 0.24981 0.27561 0.20689
 O3 O 0.29742 0.27634 0.25626
 O4 O 0.25018 0.22258 0.20730
 O5 O 0.20154 0.22166 0.24236
 O6 O 0.24762 0.27645 0.29023
 O7 O 0.19968 0.27445 0.24055
 O8 O 0.24955 0.22353 0.29144
 Cu9 Cu 0.27891 0.24947 0.22830
 Cu10 Cu 0.21968 0.24905 0.26961
 C11 C 0.28239 0.21450 0.28252
 C12 C 0.21630 0.28380 0.21508
 C13 C 0.28050 0.28568 0.28158
 C14 C 0.21780 0.21276 0.21648
 O15 O 0.79672 0.27731 0.24290
 O16 O 0.75287 0.22168 0.29079
 O17 O 0.79903 0.22464 0.24003
 O18 O 0.75072 0.27479 0.29326
 O19 O 0.70031 0.27495 0.25991
 O20 O 0.74757 0.22348 0.20790
 O21 O 0.70148 0.22256 0.25871
 O22 O 0.74670 0.27660 0.20921
 Cu23 Cu 0.77989 0.24956 0.27009
 Cu24 Cu 0.71902 0.24938 0.23052
 C25 C 0.77935 0.28635 0.21770
 C26 C 0.71931 0.21287 0.28334
 C27 C 0.78154 0.21547 0.21489
 C28 C 0.71725 0.28345 0.28566
 O29 O 0.75455 0.77685 0.70491
 O30 O 0.80307 0.72397 0.75390
 O31 O 0.75512 0.72397 0.70423
 O32 O 0.80222 0.77713 0.75411
 O33 O 0.75226 0.77712 0.78783
 O34 O 0.70682 0.72215 0.73974
 O35 O 0.75436 0.72423 0.78899
 O36 O 0.70419 0.77500 0.73829
 Cu37 Cu 0.78375 0.75049 0.72589
 Cu38 Cu 0.72448 0.74962 0.76718
 C39 C 0.72086 0.78472 0.71305
 C40 C 0.78711 0.71516 0.77996
 C41 C 0.72302 0.71388 0.71356
 C42 C 0.78518 0.78649 0.77939
 O43 O 0.25302 0.72362 0.79335
 O44 O 0.29921 0.77764 0.74435
 O45 O 0.25211 0.77673 0.79412
 O46 O 0.29997 0.72463 0.74340
 O47 O 0.25018 0.72460 0.70945
 O48 O 0.20186 0.77610 0.76075
 O49 O 0.24920 0.77759 0.71065
 O50 O 0.20295 0.72364 0.75962
 Cu51 Cu 0.28109 0.75066 0.77217
 Cu52 Cu 0.22112 0.75047 0.73165
 C53 C 0.21994 0.71456 0.78498
 C54 C 0.28212 0.78688 0.71912
 C55 C 0.21857 0.78521 0.78633
 C56 C 0.28332 0.71573 0.71770
 C57 C 1.01994 0.01801 0.01956
 C58 C 0.97915 0.02035 0.01672
 C59 C 0.95907 0.00244 -0.00413
 C60 C 0.97854 -0.01745 -0.02252
 C61 C 1.01933 -0.01986 -0.01958
 C62 C 1.03939 -0.00194 0.00128
 H63 H 1.07050 -0.00398 0.00397
 H64 H 0.92794 0.00448 -0.00676
 C65 C 0.52032 0.51654 0.52217
 C66 C 0.47948 0.51826 0.52070
 C67 C 0.45901 0.50040 0.50010
 C68 C 0.47830 0.48065 0.48130
 C69 C 0.51918 0.47833 0.48373
 C70 C 0.53959 0.49645 0.50409
 H71 H 0.57088 0.49504 0.50579
 H72 H 0.42771 0.50190 0.49867
 C73 C -0.02188 0.48038 0.01820
 C74 C 0.01919 0.47952 0.01799
 C75 C 0.03978 0.49846 -0.00108
 C76 C 0.02056 0.51778 -0.02045
 C77 C -0.02050 0.51757 -0.02160
 C78 C -0.04110 0.49909 -0.00197
 H79 H -0.07252 0.49936 -0.00228
 H80 H 0.07120 0.49823 -0.00075
 C81 C 0.47975 0.98220 0.52035
 C82 C 0.52081 0.98144 0.51970
 C83 C 0.54105 1.00042 0.50044
 C84 C 0.52150 1.01965 0.48115
 C85 C 0.48039 1.01940 0.48053
 C86 C 0.46018 1.00092 0.50045
 H87 H 0.42876 1.00112 0.50048
 H88 H 0.57246 1.00022 0.50047
 C89 C 1.16304 0.15092 0.16036
 C90 C 1.14633 0.16026 0.18974
 C91 C 1.16439 0.18062 0.20825
 C92 C 1.19984 0.19209 0.19798
 C93 C 1.21673 0.18248 0.16869
 C94 C 1.19849 0.16223 0.15009
 C95 C 1.14332 0.12982 0.14030
 N96 N 1.15650 0.12342 0.10983
 N97 N 1.13827 0.10492 0.09150
 C98 C 1.10615 0.09196 0.10289
 N99 N 1.09310 0.09824 0.13345
 N100 N 1.11128 0.11679 0.15174
 C101 C 1.08521 0.07198 0.08208
 C102 C 1.05453 0.05640 0.09501
 C103 C 1.03389 0.03836 0.07498
 C104 C 1.04312 0.03585 0.04153
 C105 C 1.07431 0.05084 0.02877
 C106 C 1.09517 0.06871 0.04881
 H107 H 1.11901 0.15204 0.19835
 H108 H 1.15038 0.18734 0.23064
 H109 H 1.24398 0.19069 0.15989
 H110 H 1.21223 0.15546 0.12763
 H111 H 1.04630 0.05824 0.12058
 H112 H 1.01033 0.02662 0.08545
 H113 H 1.08196 0.04916 0.00304
 H114 H 1.11863 0.08034 0.03804
 C115 C 0.66678 0.65229 0.65547
 C116 C 0.69308 0.67053 0.64094
 C117 C 0.71194 0.69023 0.65995
 C118 C 0.70417 0.69245 0.69370
 C119 C 0.67779 0.67428 0.70823
 C120 C 0.65960 0.65419 0.68936
 C121 C 0.64646 0.63170 0.63532
 N122 N 0.63300 0.60833 0.64904
 N123 N 0.61424 0.58994 0.63093
 C124 C 0.60785 0.59431 0.59845
 N125 N 0.62124 0.61769 0.58476
 N126 N 0.64033 0.63596 0.60280
 C127 C 0.58621 0.57423 0.57853
 C128 C 0.56574 0.58256 0.55048
 C129 C 0.54434 0.56375 0.53216
 C130 C 0.54363 0.53625 0.54125
 C131 C 0.56468 0.52773 0.56878
 C132 C 0.58544 0.54663 0.58755
 H133 H 0.69928 0.66945 0.61489
 H134 H 0.73205 0.70406 0.64812
 H135 H 0.67141 0.67549 0.73423
 H136 H 0.63933 0.64047 0.70118
 H137 H 0.56567 0.60370 0.54307
 H138 H 0.52825 0.57060 0.51091
 H139 H 0.56436 0.50655 0.57608
 H140 H 0.60112 0.53965 0.60895
 C141 C -0.16635 0.34899 0.15969
 C142 C -0.20040 0.33610 0.14867
 C143 C -0.21832 0.31600 0.16767
 C144 C -0.20245 0.30821 0.19799
 C145 C -0.16859 0.32123 0.20911
 C146 C -0.15083 0.34144 0.19025
 C147 C -0.14670 0.36980 0.13923
 N148 N -0.11628 0.38430 0.15126
 N149 N -0.09801 0.40254 0.13266
 C150 C -0.10932 0.40704 0.10120
 N151 N -0.13984 0.39262 0.08919
 N152 N -0.15818 0.37442 0.10783
 C153 C -0.08817 0.42674 0.08021
 C154 C -0.09604 0.42843 0.04639
 C155 C -0.07488 0.44615 0.02637
 C156 C -0.04546 0.46251 0.03976
 C157 C -0.03835 0.46149 0.07367
 C158 C -0.05928 0.44365 0.09367
 H159 H -0.21320 0.34147 0.12530
 H160 H -0.24437 0.30635 0.15841
 H161 H -0.15569 0.31575 0.23241
 H162 H -0.12463 0.35090 0.19948
 H163 H -0.11809 0.41573 0.03522
 H164 H -0.08088 0.44666 0.00028
 H165 H -0.01622 0.47429 0.08459
 H166 H -0.05268 0.44305 0.11964
 C167 C 0.33728 0.84922 0.66119
 C168 C 0.35304 0.84127 0.69151
 C169 C 0.33509 0.82108 0.71033
 C170 C 0.30082 0.80851 0.69937
 C171 C 0.28481 0.81664 0.66923
 C172 C 0.30291 0.83670 0.65030
 C173 C 0.35688 0.87013 0.64086
 N174 N 0.34495 0.87517 0.60967
 N175 N 0.36308 0.89356 0.59117
 C176 C 0.39384 0.90777 0.60309
 N177 N 0.40564 0.90284 0.63433
 N178 N 0.38758 0.88440 0.65280
 C179 C 0.41465 0.92773 0.58223
 C180 C 0.44364 0.94457 0.59565
 C181 C 0.46417 0.96270 0.57573
 C182 C 0.45655 0.96408 0.54191
 C183 C 0.42704 0.94777 0.52858
 C184 C 0.40628 0.92978 0.54852
 H185 H 0.37950 0.85043 0.70063
 H186 H 0.34811 0.81533 0.73348
 H187 H 0.25845 0.80733 0.66009
 H188 H 0.28992 0.84237 0.62711
 H189 H 0.45061 0.94369 0.62154
 H190 H 0.48638 0.97544 0.58662
 H191 H 0.42067 0.94854 0.50255
 H192 H 0.38414 0.91714 0.53736
 C193 C -0.15665 0.65381 -0.16168
 C194 C -0.19069 0.66648 -0.15054
 C195 C -0.20888 0.68635 -0.16951
 C196 C -0.19338 0.69415 -0.20000
 C197 C -0.15927 0.68158 -0.21114
 C198 C -0.14118 0.66156 -0.19223
 C199 C -0.13743 0.63274 -0.14142
 N200 N -0.10711 0.61822 -0.15342
 N201 N -0.08978 0.59942 -0.13508
 C202 C -0.10197 0.59437 -0.10394
 N203 N -0.13229 0.60889 -0.09197
 N204 N -0.14968 0.62763 -0.11033
 C205 C -0.08222 0.57386 -0.08324
 C206 C -0.09125 0.57152 -0.04966
 C207 C -0.07164 0.55291 -0.02984
 C208 C -0.04265 0.53626 -0.04315
 C209 C -0.03438 0.53795 -0.07685
 C210 C -0.05375 0.55670 -0.09666
 H211 H -0.20346 0.66100 -0.12717
 H212 H -0.23510 0.69565 -0.16019
 H213 H -0.14664 0.68711 -0.23455
 H214 H -0.11495 0.65227 -0.20153
 H215 H -0.11301 0.58438 -0.03851
 H216 H -0.07848 0.55195 -0.00390
 H217 H -0.01252 0.52498 -0.08773
 H218 H -0.04630 0.55779 -0.12245
 C219 C 0.33958 1.15362 0.34093
 C220 C 0.35466 1.16130 0.31022
 C221 C 0.33619 1.18113 0.29132
 C222 C 0.30207 1.19359 0.30259
 C223 C 0.28688 1.18583 0.33321
 C224 C 0.30548 1.16614 0.35220
 C225 C 0.35939 1.13282 0.36117
 N226 N 0.34781 1.12787 0.39249
 N227 N 0.36586 1.10942 0.41083
 C228 C 0.39620 1.09505 0.39861
 N229 N 0.40769 1.09991 0.36724
 N230 N 0.38970 1.11842 0.34893
 C231 C 0.41673 1.07488 0.41925
 C232 C 0.44511 1.05778 0.40558
 C233 C 0.46520 1.03933 0.42529
 C234 C 0.45773 1.03790 0.45914
 C235 C 0.42886 1.05452 0.47273
 C236 C 0.40855 1.07281 0.45300
 H237 H 0.38092 1.15213 0.30080
 H238 H 0.34859 1.18661 0.26780
 H239 H 0.26066 1.19505 0.34262
 H240 H 0.29301 1.16068 0.37570
 H241 H 0.45193 1.05867 0.37965
 H242 H 0.48694 1.02638 0.41421
 H243 H 0.42263 1.05374 0.49878
 H244 H 0.38688 1.08565 0.46435
 C245 C 1.16136 -0.15730 -0.15332
 C246 C 1.14175 -0.16985 -0.17946
 C247 C 1.16083 -0.18842 -0.19977
 C248 C 1.19976 -0.19547 -0.19383
 C249 C 1.21920 -0.18296 -0.16735
 C250 C 1.20034 -0.16382 -0.14763
 C251 C 1.14117 -0.13749 -0.13213
 N252 N 1.16083 -0.11655 -0.11802
 N253 N 1.14243 -0.09841 -0.09937
 C254 C 1.10376 -0.10073 -0.09376
 N255 N 1.08417 -0.12181 -0.10764
 N256 N 1.10248 -0.13975 -0.12660
 C257 C 1.08317 -0.08040 -0.07360
 C258 C 1.05027 -0.08785 -0.05538
 C259 C 1.03022 -0.06844 -0.03697
 C260 C 1.04181 -0.04100 -0.03747
 C261 C 1.07514 -0.03367 -0.05526
 C262 C 1.09582 -0.05323 -0.07293
 H263 H 1.11173 -0.16502 -0.18449
 H264 H 1.14475 -0.19758 -0.21980
 H265 H 1.24916 -0.18772 -0.16196
 H266 H 1.21605 -0.15446 -0.12753
 H267 H 1.04025 -0.10876 -0.05515
 H268 H 1.00536 -0.07479 -0.02266
 H269 H 1.08476 -0.01269 -0.05597
 H270 H 1.12106 -0.04696 -0.08684
 C271 C 0.65978 0.34106 0.34836
 C272 C 0.70039 0.33902 0.34854
 C273 C 0.71911 0.32013 0.32835
 C274 C 0.69762 0.30338 0.30709
 C275 C 0.65706 0.30564 0.30665
 C276 C 0.63830 0.32410 0.32733
 C277 C 0.63988 0.36088 0.36983
 N278 N 0.60244 0.35686 0.37897
 N279 N 0.58434 0.37484 0.39802
 C280 C 0.60284 0.39769 0.40847
 N281 N 0.64027 0.40173 0.39929
 N282 N 0.65848 0.38362 0.38048
 C283 C 0.58235 0.41803 0.42877
 C284 C 0.59425 0.44538 0.42865
 C285 C 0.57381 0.46486 0.44664
 C286 C 0.54140 0.45732 0.46545
 C287 C 0.53039 0.42979 0.46656
 C288 C 0.55029 0.41040 0.44799
 H289 H 0.71766 0.35178 0.36460
 H290 H 0.75043 0.31884 0.32911
 H291 H 0.63977 0.29287 0.29061
 H292 H 0.60699 0.32533 0.32655
 H293 H 0.61878 0.45186 0.41399
 H294 H 0.58291 0.48594 0.44541
 H295 H 0.50613 0.42334 0.48155
 H296 H 0.54078 0.38940 0.44886
 C297 C 0.83860 -0.15125 -0.16422
 C298 C 0.85632 -0.16110 -0.19293
 C299 C 0.83875 -0.18164 -0.21151
 C300 C 0.80280 -0.19277 -0.20198
 C301 C 0.78496 -0.18268 -0.17333
 C302 C 0.80271 -0.16227 -0.15466
 C303 C 0.85771 -0.12991 -0.14411
 N304 N 0.84370 -0.12322 -0.11399
 N305 N 0.86135 -0.10449 -0.09561
 C306 C 0.89369 -0.09156 -0.10659
 N307 N 0.90756 -0.09811 -0.13680
 N308 N 0.88998 -0.11691 -0.15515
 C309 C 0.91404 -0.07137 -0.08566
 C310 C 0.94471 -0.05565 -0.09834
 C311 C 0.96499 -0.03753 -0.07813
 C312 C 0.95543 -0.03511 -0.04474
 C313 C 0.92414 -0.05017 -0.03225
 C314 C 0.90363 -0.06811 -0.05249
 H315 H 0.88402 -0.15312 -0.20097
 H316 H 0.85349 -0.18874 -0.23338
 H317 H 0.75730 -0.19062 -0.16510
 H318 H 0.78820 -0.15511 -0.13272
 H319 H 0.95326 -0.05746 -0.12383
 H320 H 0.98862 -0.02574 -0.08840
 H321 H 0.91623 -0.04856 -0.00658
 H322 H 0.88015 -0.07984 -0.04191
 C323 C 0.33582 0.34830 0.33924
 C324 C 0.35188 0.33990 0.30916
 C325 C 0.33389 0.31963 0.29042
 C326 C 0.29931 0.30740 0.30122
 C327 C 0.28303 0.31598 0.33112
 C328 C 0.30112 0.33613 0.34996
 C329 C 0.35541 0.36930 0.35956
 N330 N 0.34266 0.37502 0.39036
 N331 N 0.36073 0.39344 0.40890
 C332 C 0.39228 0.40702 0.39740
 N333 N 0.40491 0.40142 0.36652
 N334 N 0.38688 0.38294 0.34801
 C335 C 0.41306 0.42695 0.41841
 C336 C 0.44337 0.44290 0.40554
 C337 C 0.46393 0.46087 0.42572
 C338 C 0.45499 0.46296 0.45927
 C339 C 0.42413 0.44761 0.47200
 C340 C 0.40335 0.42979 0.45180
 H341 H 0.37859 0.34880 0.30017
 H342 H 0.34714 0.31353 0.26745
 H343 H 0.25641 0.30696 0.34015
 H344 H 0.28788 0.34213 0.37295
 H345 H 0.45140 0.44141 0.37989
 H346 H 0.48725 0.47287 0.41529
 H347 H 0.41671 0.44895 0.49780
 H348 H 0.38017 0.41787 0.46254
 C349 C 0.16333 0.65446 -0.15517
 C350 C 0.20393 0.65666 -0.15520
 C351 C 0.22243 0.67627 -0.17458
 C352 C 0.20069 0.69357 -0.19484
 C353 C 0.16015 0.69101 -0.19525
 C354 C 0.14163 0.67185 -0.17535
 C355 C 0.14352 0.63436 -0.13404
 N356 N 0.10664 0.63874 -0.12370
 N357 N 0.08861 0.62068 -0.10471
 C358 C 0.10660 0.59738 -0.09550
 N359 N 0.14345 0.59292 -0.10591
 N360 N 0.16164 0.61113 -0.12467
 C361 C 0.08608 0.57715 -0.07504
 C362 C 0.09593 0.54946 -0.07661
 C363 C 0.07491 0.53021 -0.05863
 C364 C 0.04400 0.53834 -0.03845
 C365 C 0.03535 0.56616 -0.03575
 C366 C 0.05576 0.58532 -0.05427
 H367 H 0.22133 0.64357 -0.13979
 H368 H 0.25374 0.67779 -0.17389
 H369 H 0.14269 0.70418 -0.21052
 H370 H 0.11031 0.67050 -0.17594
 H371 H 0.11916 0.54261 -0.09246
 H372 H 0.08222 0.50888 -0.06102
 H373 H 0.01239 0.57303 -0.01965
 H374 H 0.04791 0.60657 -0.05222
 C375 C 0.66440 1.15368 0.34288
 C376 C 0.70362 1.16012 0.34774
 C377 C 0.72187 1.17969 0.32813
 C378 C 0.70151 1.19269 0.30261
 C379 C 0.66244 1.18548 0.29729
 C380 C 0.64401 1.16651 0.31750
 C381 C 0.64447 1.13403 0.36446
 N382 N 0.60632 1.13714 0.37166
 N383 N 0.58817 1.11951 0.39116
 C384 C 0.60734 1.09790 0.40393
 N385 N 0.64547 1.09469 0.39662
 N386 N 0.66377 1.11253 0.37743
 C387 C 0.58679 1.07811 0.42490
 C388 C 0.59700 1.05048 0.42437
 C389 C 0.57592 1.03154 0.44276
 C390 C 0.54472 1.03996 0.46248
 C391 C 0.53579 1.06781 0.46416
 C392 C 0.55612 1.08662 0.44506
 H393 H 0.71991 1.15051 0.36724
 H394 H 0.75198 1.18454 0.33297
 H395 H 0.64566 1.19496 0.27799
 H396 H 0.61378 1.16173 0.31313
 H397 H 0.62051 1.04343 0.40895
 H398 H 0.58348 1.01022 0.44109
 H399 H 0.51270 1.07497 0.47994
 H400 H 0.54807 1.10788 0.44625
 C401 C 0.15839 0.34295 0.15506
 C402 C 0.13697 0.32519 0.17513
 C403 C 0.15582 0.30624 0.19503
 C404 C 0.19642 0.30429 0.19469
 C405 C 0.21784 0.32191 0.17446
 C406 C 0.19903 0.34126 0.15510
 C407 C 0.13845 0.36306 0.13410
 N408 N 0.15671 0.38627 0.12462
 N409 N 0.13864 0.40445 0.10587
 C410 C 0.10172 0.39999 0.09557
 N411 N 0.08354 0.37671 0.10492
 N412 N 0.10148 0.35866 0.12392
 C413 C 0.08154 0.42017 0.07490
 C414 C 0.05108 0.41206 0.05419
 C415 C 0.03157 0.43118 0.03504
 C416 C 0.04128 0.45892 0.03700
 C417 C 0.07214 0.46697 0.05734
 C418 C 0.09226 0.44776 0.07594
 H419 H 0.10562 0.32614 0.17570
 H420 H 0.13861 0.29283 0.21031
 H421 H 0.24918 0.32089 0.17382
 H422 H 0.21626 0.35462 0.13977
 H423 H 0.04255 0.39088 0.05256
 H424 H 0.00859 0.42434 0.01889
 H425 H 0.08023 0.48822 0.05927
 H426 H 0.11559 0.45458 0.09173
 C427 C 0.66233 0.84411 0.65382
 C428 C 0.64111 0.82603 0.67363
 C429 C 0.66018 0.80699 0.69325
 C430 C 0.70079 0.80526 0.69289
 C431 C 0.72202 0.82319 0.67290
 C432 C 0.70299 0.84263 0.65382
 C433 C 0.64213 0.86432 0.63321
 N434 N 0.66012 0.88772 0.62400
 N435 N 0.64176 0.90600 0.60563
 C436 C 0.60481 0.90149 0.59545
 N437 N 0.58691 0.87803 0.60452
 N438 N 0.60514 0.85987 0.62314
 C439 C 0.58428 0.92180 0.57523
 C440 C 0.55361 0.91378 0.55469
 C441 C 0.53371 0.93301 0.53600
 C442 C 0.54326 0.96076 0.53827
 C443 C 0.57433 0.96873 0.55841
 C444 C 0.59482 0.94942 0.57655
 H445 H 0.60976 0.82680 0.67423
 H446 H 0.64311 0.79334 0.70834
 H447 H 0.75337 0.82235 0.67226
 H448 H 0.72006 0.85624 0.63869
 H449 H 0.54520 0.89259 0.55284
 H450 H 0.51058 0.92624 0.51997
 H451 H 0.58230 0.98999 0.56054
 H452 H 0.61830 0.95617 0.59223
 C453 C 0.83868 0.15770 0.15210
 C454 C 0.79804 0.15943 0.15251
 C455 C 0.77943 0.17834 0.17274
 C456 C 0.80108 0.19547 0.19345
 C457 C 0.84168 0.19353 0.19331
 C458 C 0.86031 0.17503 0.17260
 C459 C 0.85846 0.13786 0.13055
 N460 N 0.89577 0.14196 0.12109
 N461 N 0.91376 0.12398 0.10195
 C462 C 0.89527 0.10106 0.09172
 N463 N 0.85797 0.09694 0.10122
 N464 N 0.83986 0.11505 0.12012
 C465 C 0.91567 0.08072 0.07132
 C466 C 0.90366 0.05338 0.07131
 C467 C 0.92414 0.03390 0.05335
 C468 C 0.95672 0.04141 0.03474
 C469 C 0.96776 0.06893 0.03367
 C470 C 0.94781 0.08833 0.05218
 H471 H 0.78064 0.14639 0.13689
 H472 H 0.74808 0.17937 0.17243
 H473 H 0.85909 0.20659 0.20891
 H474 H 0.89166 0.17405 0.17293
 H475 H 0.87904 0.04692 0.08587
 H476 H 0.91498 0.01282 0.05448
 H477 H 0.99214 0.07536 0.01881
 H478 H 0.95740 0.10931 0.05139
 C479 C 0.34030 0.65538 0.65810
 C480 C 0.35520 0.66261 0.68905
 C481 C 0.33674 0.68223 0.70832
 C482 C 0.30277 0.69493 0.69723
 C483 C 0.28771 0.68762 0.66637
 C484 C 0.30636 0.66815 0.64697
 C485 C 0.36016 0.63470 0.63763
 N486 N 0.34965 0.63052 0.60586
 N487 N 0.36775 0.61204 0.58748
 C488 C 0.39701 0.59689 0.60013
 N489 N 0.40742 0.60104 0.63191
 N490 N 0.38943 0.61957 0.65025
 C491 C 0.41738 0.57640 0.57976
 C492 C 0.44348 0.55810 0.59429
 C493 C 0.46313 0.53901 0.57516
 C494 C 0.45763 0.53805 0.54104
 C495 C 0.43117 0.55598 0.52647
 C496 C 0.41120 0.57498 0.54565
 H497 H 0.38133 0.65325 0.69837
 H498 H 0.34905 0.68736 0.73200
 H499 H 0.26162 0.69708 0.65710
 H500 H 0.29405 0.66301 0.62329
 H501 H 0.44864 0.55842 0.62051
 H502 H 0.48269 0.52494 0.58704
 H503 H 0.42641 0.55552 0.50019
 H504 H 0.39130 0.58875 0.53367
   
