data_POSCAR
  _audit_creation_date              2014-09-24
  _audit_creation_method            'ToBaCCo'
  _symmetry_space_group_name_H-M    'P1'
  _symmetry_Int_Tables_number       1
  _symmetry_cell_setting            triclinic
  loop_
  _symmetry_equiv_pos_as_xyz
 x,y,z
_cell_length_a 59.0853
_cell_length_b 58.9769
_cell_length_c 21.3496
_cell_angle_alpha 89.790200
_cell_angle_beta 90.064900
_cell_angle_gamma 119.558600
loop_
  _atom_site_label
  _atom_site_type_symbol
  _atom_site_fract_x
  _atom_site_fract_y
  _atom_site_fract_z
C1 C 0.16308 0.44392 0.50565
 C2 C 0.16861 0.45325 0.44562
 C3 C 0.19552 0.46536 0.43833
 N4 N 0.20637 0.46410 0.49335
 C5 C 0.18662 0.45110 0.53440
 C6 C 0.21001 0.48078 0.38582
 C7 C 0.23764 0.49295 0.38320
 C8 C 0.25364 0.51221 0.34072
 C9 C 0.27845 0.51614 0.34858
 C10 C 0.27706 0.49918 0.39523
 N11 N 0.25224 0.48514 0.41599
 C12 C 0.29793 0.49562 0.41491
 C13 C 0.29714 0.48263 0.47100
 C14 C 0.31424 0.47378 0.48618
 C15 C 0.30831 0.46429 0.54607
 C16 C 0.28814 0.46819 0.56599
 N17 N 0.28107 0.47909 0.51963
 C18 C 0.27782 0.46351 0.62754
 C19 C 0.25252 0.45937 0.63994
 C20 C 0.24292 0.45979 0.69902
 C21 C 0.21810 0.45554 0.69079
 C22 C 0.21316 0.45277 0.62694
 N23 N 0.23410 0.45482 0.59626
 C24 C 0.18960 0.44830 0.59929
 H25 H 0.14389 0.43395 0.52650
 H26 H 0.15409 0.45219 0.41329
 H27 H 0.23512 0.45154 0.54875
 H28 H 0.24820 0.52213 0.30625
 H29 H 0.29546 0.52963 0.32212
 H30 H 0.32940 0.47412 0.45709
 H31 H 0.31793 0.45572 0.57224
 H32 H 0.20538 0.45513 0.72776
 H33 H 0.24527 0.46889 0.44514
 H34 H 0.25286 0.46344 0.74354
 C35 C 0.53667 -0.15204 0.47116
 C36 C 0.54580 -0.14800 0.53137
 C37 C 0.54035 -0.17214 0.55497
 N38 N 0.52896 -0.19064 0.51050
 C39 C 0.52659 -0.17835 0.45944
 C40 C 0.54374 -0.17733 0.61811
 C41 C 0.54609 -0.19935 0.63473
 C42 C 0.54411 -0.20891 0.69522
 C43 C 0.54666 -0.23076 0.69099
 C44 C 0.55001 -0.23411 0.62809
 N45 N 0.55001 -0.21470 0.59414
 C46 C 0.55306 -0.25473 0.60417
 C47 C 0.55116 -0.26108 0.53984
 C48 C 0.55753 -0.27878 0.51485
 C49 C 0.54928 -0.28264 0.45399
 C50 C 0.53858 -0.26661 0.44253
 N51 N 0.53967 -0.25361 0.49575
 C52 C 0.52434 -0.26713 0.38792
 C53 C 0.51334 -0.25055 0.38135
 C54 C 0.49479 -0.25328 0.33719
 C55 C 0.49193 -0.23154 0.34156
 C56 C 0.50885 -0.21602 0.38778
 N57 N 0.52182 -0.22764 0.41161
 C58 C 0.51336 -0.19099 0.40437
 H59 H 0.53731 -0.13733 0.43959
 H60 H 0.55500 -0.12948 0.55547
 H61 H 0.53786 -0.21878 0.44120
 H62 H 0.54044 -0.20152 0.73805
 H63 H 0.54556 -0.24309 0.72988
 H64 H 0.56622 -0.28882 0.53876
 H65 H 0.54997 -0.29694 0.42391
 H66 H 0.47920 -0.22744 0.31310
 H67 H 0.55408 -0.21122 0.54655
 H68 H 0.48464 -0.26889 0.30400
 C69 C 1.30574 0.80518 0.55660
 C70 C 1.31174 0.80338 0.49561
 C71 C 1.28832 0.79088 0.46343
 N72 N 1.26820 0.78492 0.50271
 C73 C 1.27891 0.79417 0.55945
 C74 C 1.28569 0.78727 0.39792
 C75 C 1.26219 0.76693 0.37274
 C76 C 1.25290 0.76512 0.31213
 C77 C 1.23060 0.74125 0.30748
 C78 C 1.22620 0.72968 0.36606
 N79 N 1.24538 0.74544 0.40554
 C80 C 1.20578 0.70457 0.38113
 C81 C 1.19636 0.69668 0.44270
 C82 C 1.17595 0.67235 0.45814
 C83 C 1.17040 0.67338 0.51988
 C84 C 1.18814 0.69815 0.54146
 N85 N 1.20356 0.71250 0.49326
 C86 C 1.18776 0.70842 0.60166
 C87 C 1.20383 0.73530 0.61502
 C88 C 1.19922 0.74928 0.66077
 C89 C 1.22110 0.77342 0.66421
 C90 C 1.23864 0.77357 0.62097
 N91 N 1.22787 0.75044 0.59074
 C92 C 1.26453 0.79389 0.61264
 H93 H 1.31957 0.81364 0.59452
 H94 H 1.33112 0.81031 0.47714
 H95 H 1.23770 0.74421 0.56112
 H96 H 1.26059 0.77960 0.27531
 H97 H 1.21863 0.73365 0.26609
 H98 H 1.16508 0.65598 0.42724
 H99 H 1.15379 0.65799 0.54373
 H100 H 1.22375 0.78894 0.69548
 H101 H 1.24827 0.74061 0.45075
 H102 H 1.18200 0.74307 0.68913
 C103 C 0.86368 0.57640 0.51602
 C104 C 0.85963 0.57088 0.45335
 C105 C 0.83294 0.55773 0.44436
 N106 N 0.82052 0.55520 0.49943
 C107 C 0.83933 0.56632 0.54345
 C108 C 0.82036 0.54651 0.38710
 C109 C 0.79395 0.53877 0.37626
 C110 C 0.77885 0.52275 0.32798
 C111 C 0.75467 0.52075 0.33315
 C112 C 0.75582 0.53582 0.38404
 N113 N 0.77986 0.54683 0.40971
 C114 C 0.73554 0.54015 0.40434
 C115 C 0.73651 0.55230 0.46160
 C116 C 0.72126 0.56337 0.47612
 C117 C 0.72618 0.57077 0.53754
 C118 C 0.74367 0.56322 0.55899
 N119 N 0.75034 0.55233 0.51210
 C120 C 0.75117 0.56388 0.62225
 C121 C 0.77406 0.56321 0.63863
 C122 C 0.77937 0.55728 0.69786
 C123 C 0.80268 0.55762 0.69393
 C124 C 0.81123 0.56389 0.63237
 N125 N 0.79368 0.56739 0.59900
 C126 C 0.83463 0.56601 0.60865
 H127 H 0.88243 0.58662 0.53890
 H128 H 0.87465 0.57593 0.41842
 H129 H 0.79572 0.57379 0.55274
 H130 H 0.78459 0.51335 0.29292
 H131 H 0.73821 0.50960 0.30271
 H132 H 0.70795 0.56576 0.44557
 H133 H 0.71739 0.58007 0.56389
 H134 H 0.81167 0.55284 0.73206
 H135 H 0.78703 0.56099 0.44451
 H136 H 0.76733 0.55221 0.73936
 C137 C 0.45884 0.17144 0.56480
 C138 C 0.46725 0.17451 0.50398
 C139 C 0.45877 0.18999 0.47486
 N140 N 0.44501 0.19603 0.51551
 C141 C 0.44477 0.18448 0.57052
 C142 C 0.46201 0.19660 0.41065
 C143 C 0.45813 0.21664 0.38543
 C144 C 0.45744 0.22164 0.32218
 C145 C 0.45576 0.24407 0.31792
 C146 C 0.45573 0.25238 0.37868
 N147 N 0.45731 0.23557 0.41936
 C148 C 0.45615 0.27593 0.39452
 C149 C 0.45337 0.28292 0.45650
 C150 C 0.45329 0.30564 0.47255
 C151 C 0.44944 0.30475 0.53592
 C152 C 0.44730 0.28151 0.55726
 N153 N 0.44899 0.26795 0.50818
 C154 C 0.44084 0.27186 0.61965
 C155 C 0.43063 0.24506 0.63303
 C156 C 0.41327 0.23143 0.68089
 C157 C 0.41057 0.20693 0.68216
 C158 C 0.42669 0.20630 0.63573
 N159 N 0.43855 0.22954 0.60547
 C160 C 0.43160 0.18539 0.62525
 H161 H 0.46306 0.16111 0.60079
 H162 H 0.47856 0.16647 0.48388
 H163 H 0.45385 0.23569 0.57374
 H164 H 0.45864 0.21073 0.28297
 H165 H 0.45534 0.25351 0.27472
 H166 H 0.45485 0.32098 0.44188
 H167 H 0.44687 0.31895 0.56221
 H168 H 0.39826 0.19149 0.71425
 H169 H 0.46076 0.23831 0.46708
 H170 H 0.40331 0.23820 0.71157
 C171 C 0.70146 0.14372 0.53115
 C172 C 0.70128 0.14379 0.46695
 C173 C 0.71783 0.16924 0.44834
 N174 N 0.72809 0.18479 0.49897
 C175 C 0.71777 0.16925 0.54982
 C176 C 0.72206 0.17809 0.38556
 C177 C 0.74408 0.20162 0.36691
 C178 C 0.74717 0.21356 0.30902
 C179 C 0.77175 0.23497 0.30827
 C180 C 0.78299 0.23550 0.36572
 N181 N 0.76603 0.21503 0.40102
 C182 C 0.80862 0.25403 0.38330
 C183 C 0.81755 0.25691 0.44577
 C184 C 0.84335 0.27129 0.46419
 C185 C 0.84336 0.27151 0.52841
 C186 C 0.81761 0.25707 0.54702
 N187 N 0.80186 0.24809 0.49653
 C188 C 0.80878 0.25467 0.60932
 C189 C 0.78343 0.23596 0.62824
 C190 C 0.77229 0.23636 0.68499
 C191 C 0.74787 0.21487 0.68606
 C192 C 0.74473 0.20173 0.62996
 N193 N 0.76660 0.21472 0.59507
 C194 C 0.72222 0.17818 0.61270
 H195 H 0.69092 0.12671 0.56064
 H196 H 0.69045 0.12697 0.43734
 H197 H 0.77061 0.20831 0.55337
 H198 H 0.73322 0.20748 0.27113
 H199 H 0.78034 0.24856 0.26974
 H200 H 0.86037 0.28095 0.43452
 H201 H 0.86034 0.28144 0.55806
 H202 H 0.73392 0.20989 0.72364
 H203 H 0.77008 0.20899 0.44334
 H204 H 0.78072 0.25081 0.72162
 N205 N 0.98077 0.45273 0.11890
 N206 N 0.96447 0.44238 0.16623
 N207 N 1.03079 0.46128 0.05226
 N208 N 1.04922 0.45491 0.05672
 N209 N 1.03456 0.47941 0.09317
 N210 N 1.05576 0.48589 0.12644
 N211 N 0.97708 0.43481 0.07744
 N212 N 0.95816 0.41174 0.09558
 C213 C 0.95055 0.41686 0.15114
 C214 C 1.06480 0.47060 0.10257
 N215 N 1.01667 0.46919 -0.12291
 N216 N 1.03274 0.47448 -0.17033
 N217 N 0.96646 0.42829 -0.05570
 N218 N 0.94874 0.40341 -0.06181
 N219 N 0.96306 0.44243 -0.09835
 N220 N 0.94298 0.42770 -0.13415
 N221 N 1.02031 0.45518 -0.08042
 N222 N 1.03909 0.45048 -0.09801
 Mn223 Mn 0.99863 0.44460 -0.00147
 C224 C 1.04655 0.46273 -0.15434
 C225 C 0.93401 0.40348 -0.11045
 N226 N 1.03394 0.52826 0.09033
 N227 N 1.05474 0.54359 0.12387
 N228 N 0.97607 0.51465 0.07240
 N229 N 0.95771 0.51987 0.09031
 N230 N 0.98020 0.50127 0.11591
 N231 N 0.96476 0.49699 0.16436
 N232 N 1.02980 0.54183 0.04748
 N233 N 1.04760 0.56671 0.05076
 Mn234 Mn 1.00750 0.49047 0.10524
 C235 C 1.06319 0.56747 0.09803
 C236 C 0.95082 0.50860 0.14776
 N237 N 0.96252 0.49065 -0.10152
 N238 N 0.94387 0.48627 -0.14162
 N239 N 1.01952 0.53547 -0.08490
 N240 N 1.03939 0.55830 -0.10102
 N241 N 1.01630 0.51754 -0.12577
 N242 N 1.03384 0.52758 -0.17066
 N243 N 0.96575 0.50891 -0.06158
 N244 N 0.94956 0.51774 -0.07463
 Mn245 Mn 0.98960 0.47994 -0.11245
 Mn246 Mn 0.99771 0.52543 -0.00656
 Cl247 Cl 0.99832 0.48509 -0.00371
 C248 C 0.93568 0.50292 -0.12385
 C249 C 1.04794 0.55297 -0.15489
 N250 N 0.48993 0.46288 0.08091
 N251 N 0.48546 0.43938 0.09709
 N252 N 0.47683 0.50660 0.11245
 N253 N 0.46355 0.51402 0.14883
 N254 N 0.46123 0.48911 0.07192
 N255 N 0.43711 0.48427 0.07933
 N256 N 0.50586 0.48041 0.12091
 N257 N 0.51274 0.46931 0.16514
 C258 C 0.49994 0.44376 0.14956
 C259 C 0.43879 0.49988 0.12729
 N260 N 0.53994 0.57007 0.05610
 N261 N 0.54551 0.59457 0.06095
 N262 N 0.55395 0.52969 0.11084
 N263 N 0.56799 0.52444 0.15058
 N264 N 0.56850 0.54387 0.06394
 N265 N 0.59263 0.54866 0.07034
 N266 N 0.52487 0.55602 0.10247
 N267 N 0.51961 0.57065 0.13989
 Mn268 Mn 0.51538 0.51823 0.11264
 C269 C 0.53249 0.59459 0.11289
 C270 C 0.59209 0.53650 0.12442
 N271 N 0.45969 0.48413 -0.06238
 N272 N 0.43578 0.48005 -0.07109
 N273 N 0.50378 0.47245 -0.09914
 N274 N 0.50969 0.45873 -0.13749
 N275 N 0.48835 0.45769 -0.05421
 N276 N 0.48295 0.43324 -0.06151
 N277 N 0.47508 0.49865 -0.10762
 N278 N 0.46233 0.50506 -0.14795
 Mn279 Mn 0.47453 0.47315 0.00923
 C280 C 0.43792 0.49328 -0.12489
 C281 C 0.49673 0.43442 -0.11343
 N282 N 0.56709 0.53879 -0.07002
 N283 N 0.59122 0.54404 -0.08125
 N284 N 0.52226 0.54731 -0.11755
 N285 N 0.51509 0.55801 -0.16195
 N286 N 0.53829 0.56504 -0.07829
 N287 N 0.54262 0.58844 -0.09516
 N288 N 0.55087 0.52102 -0.10888
 N289 N 0.56328 0.51349 -0.14722
 Mn290 Mn 0.55368 0.55470 -0.00699
 Mn291 Mn 0.51297 0.50982 -0.10871
 Cl292 Cl 0.51413 0.51396 0.00172
 C293 C 0.58833 0.52787 -0.12936
 C294 C 0.52784 0.58359 -0.14732
 N295 N 0.42746 -0.03380 0.05883
 N296 N 0.40545 -0.05622 0.06111
 N297 N 0.46501 0.02179 0.11104
 N298 N 0.46925 0.04025 0.15199
 N299 N 0.44868 0.02057 0.06758
 N300 N 0.44129 0.03799 0.07781
 N301 N 0.44351 -0.03283 0.10271
 N302 N 0.43283 -0.05451 0.13613
 C303 C 0.40907 -0.06885 0.10975
 C304 C 0.45425 0.05012 0.13046
 N305 N 0.53400 0.03086 0.06953
 N306 N 0.55734 0.04966 0.08603
 N307 N 0.49504 -0.02671 0.10362
 N308 N 0.48996 -0.04702 0.13938
 N309 N 0.51216 -0.02350 0.06032
 N310 N 0.51917 -0.04149 0.06539
 N311 N 0.51665 0.02774 0.11216
 N312 N 0.52768 0.04438 0.15849
 Mn313 Mn 0.48003 -0.00248 0.10821
 C314 C 0.55296 0.05807 0.14130
 C315 C 0.50517 -0.05602 0.11481
 N316 N 0.45030 0.02455 -0.06729
 N317 N 0.43937 0.03883 -0.08169
 N318 N 0.44648 -0.02622 -0.11825
 N319 N 0.43571 -0.04241 -0.16537
 N320 N 0.42901 -0.02981 -0.07569
 N321 N 0.40578 -0.04868 -0.09275
 N322 N 0.46790 0.02785 -0.10931
 N323 N 0.46937 0.04425 -0.15319
 Mn324 Mn 0.43859 -0.00467 -0.00390
 C325 C 0.45192 0.05131 -0.13489
 C326 C 0.41046 -0.05651 -0.14849
 N327 N 0.51386 -0.01967 -0.07451
 N328 N 0.52056 -0.03755 -0.08677
 N329 N 0.51925 0.03413 -0.10828
 N330 N 0.53125 0.05251 -0.15070
 N331 N 0.53580 0.03477 -0.06620
 N332 N 0.55964 0.05355 -0.07953
 N333 N 0.49758 -0.02011 -0.11699
 N334 N 0.49260 -0.03824 -0.15895
 Mn335 Mn 0.52426 0.00567 -0.00263
 Mn336 Mn 0.48287 0.00397 -0.11345
 Cl337 Cl 0.48148 0.00071 -0.00288
 C338 C 0.50703 -0.04890 -0.13973
 C339 C 0.55629 0.06467 -0.13186
 C340 C 1.19707 0.48622 0.33727
 C341 C 1.17494 0.46690 0.30743
 C342 C 1.15835 0.47293 0.26723
 N343 N 1.13931 0.45377 0.23259
 N344 N 1.12257 0.45823 0.20038
 C345 C 1.12406 0.48196 0.20210
 N346 N 1.14315 0.50116 0.23666
 N347 N 1.16003 0.49675 0.26852
 C348 C 1.10440 0.48642 0.17057
 C349 C 1.08701 0.46872 0.12747
 H350 H 1.16894 0.44657 0.31585
 H351 H 1.10313 0.50357 0.18279
 H352 H 1.20567 0.50572 0.31800
 H353 H 1.08926 0.45243 0.11241
 C354 C 0.51892 0.71394 0.34127
 C355 C 0.53814 0.70978 0.31489
 C356 C 0.53199 0.68671 0.27697
 N357 N 0.55098 0.68608 0.24275
 N358 N 0.54638 0.66453 0.21243
 C359 C 0.52270 0.64267 0.21586
 N360 N 0.50369 0.64326 0.25023
 N361 N 0.50822 0.66491 0.28010
 C362 C 0.51807 0.61835 0.18565
 C363 C 0.53464 0.61851 0.13919
 H364 H 0.55844 0.72341 0.32433
 H365 H 0.50154 0.60009 0.20040
 H366 H 0.49976 0.70379 0.32043
 H367 H 0.54995 0.63693 0.12121
 C368 C 0.30667 -0.19424 0.36100
 C369 C 0.31201 -0.19628 0.29813
 C370 C 0.33398 -0.17394 0.26698
 N371 N 0.33280 -0.16906 0.20522
 N372 N 0.35175 -0.14757 0.17852
 C373 C 0.37264 -0.13036 0.21257
 N374 N 0.37410 -0.13563 0.27379
 N375 N 0.35508 -0.15691 0.30055
 C376 C 0.39310 -0.10582 0.18554
 C377 C 0.38945 -0.09499 0.13108
 H378 H 0.30055 -0.21375 0.27124
 H379 H 0.41081 -0.09486 0.21236
 H380 H 0.32057 -0.17640 0.38408
 H381 H 0.37137 -0.10521 0.10530
 C382 C 0.83517 0.54225 0.33657
 C383 C 0.84995 0.53020 0.34884
 C384 C 0.86647 0.52727 0.30167
 N385 N 0.87996 0.51503 0.31771
 N386 N 0.89585 0.51298 0.27682
 C387 C 0.89895 0.52316 0.21824
 N388 N 0.88539 0.53536 0.20203
 N389 N 0.86944 0.53739 0.24299
 C390 C 0.91716 0.52163 0.17345
 C391 C 0.93132 0.50927 0.18926
 H392 H 0.84990 0.52312 0.39579
 H393 H 0.91984 0.53078 0.12792
 H394 H 0.83334 0.54752 0.28894
 H395 H 0.92846 0.49998 0.23464
 C396 C 0.45906 0.29404 0.34258
 C397 C 0.48014 0.31934 0.34037
 C398 C 0.48192 0.33904 0.29508
 N399 N 0.50083 0.36424 0.30182
 N400 N 0.50201 0.38266 0.26347
 C401 C 0.48434 0.37657 0.21675
 N402 N 0.46558 0.35131 0.20953
 N403 N 0.46434 0.33288 0.24809
 C404 C 0.48481 0.39691 0.17553
 C405 C 0.50101 0.42339 0.18723
 H406 H 0.49497 0.32546 0.37627
 H407 H 0.47119 0.39090 0.13687
 H408 H 0.44455 0.28720 0.30585
 H409 H 0.51411 0.42949 0.22693
 C410 C 0.70281 0.16215 0.33675
 C411 C 0.67617 0.15221 0.34557
 C412 C 0.65659 0.13639 0.29829
 N413 N 0.63102 0.12731 0.31050
 N414 N 0.61289 0.11245 0.26910
 C415 C 0.61964 0.10611 0.21378
 N416 N 0.64525 0.11530 0.20139
 N417 N 0.66340 0.13017 0.24286
 C418 C 0.59966 0.08886 0.16871
 C419 C 0.57318 0.07783 0.18165
 H420 H 0.66935 0.15611 0.38913
 H421 H 0.60591 0.08382 0.12584
 H422 H 0.70989 0.15981 0.29182
 H423 H 0.56692 0.08267 0.22478
 C424 C 0.42437 0.16614 -0.32740
 C425 C 0.41819 0.14046 -0.33933
 C426 C 0.41798 0.12289 -0.29018
 N427 N 0.41898 0.10130 -0.30723
 N428 N 0.42188 0.08654 -0.26434
 C429 C 0.42374 0.09268 -0.20263
 N430 N 0.42196 0.11386 -0.18518
 N431 N 0.41930 0.12882 -0.22829
 C432 C 0.42974 0.07780 -0.15661
 C433 C 0.44501 0.06709 -0.17516
 H434 H 0.41581 0.13361 -0.38717
 H435 H 0.42384 0.07673 -0.10821
 H436 H 0.42273 0.17111 -0.27947
 H437 H 0.45283 0.07072 -0.22231
 C438 C 0.73468 0.56334 -0.32910
 C439 C 0.70762 0.54887 -0.33400
 C440 C 0.68973 0.54737 -0.28468
 N441 N 0.66413 0.52985 -0.29067
 N442 N 0.64708 0.52864 -0.24841
 C443 C 0.65492 0.54495 -0.19852
 N444 N 0.68062 0.56250 -0.19223
 N445 N 0.69778 0.56366 -0.23457
 C446 C 0.63559 0.54451 -0.15434
 C447 C 0.60932 0.52664 -0.16252
 H448 H 0.69887 0.53681 -0.37483
 H449 H 0.64175 0.55920 -0.11816
 H450 H 0.74283 0.57143 -0.28374
 H451 H 0.60342 0.51200 -0.19876
 C452 C 0.82605 0.27417 -0.34406
 C453 C 0.83570 0.30063 -0.35542
 C454 C 0.85172 0.32117 -0.31058
 N455 N 0.86082 0.31603 -0.25694
 N456 N 0.87597 0.33531 -0.21812
 C457 C 0.88240 0.36033 -0.23157
 N458 N 0.87315 0.36532 -0.28490
 N459 N 0.85812 0.34613 -0.32368
 C460 C 0.90005 0.38228 -0.19189
 C461 C 0.91298 0.37993 -0.13974
 H462 H 0.83083 0.30659 -0.39917
 H463 H 0.90431 0.40153 -0.20719
 H464 H 0.82880 0.26761 -0.29871
 H465 H 0.90890 0.36093 -0.12300
 C466 C 0.54339 -0.16111 -0.33364
 C467 C 0.52750 -0.14979 -0.33693
 C468 C 0.52648 -0.13265 -0.28889
 N469 N 0.50861 -0.12477 -0.29498
 N470 N 0.50773 -0.10829 -0.25418
 C471 C 0.52471 -0.09893 -0.20563
 N472 N 0.54257 -0.10694 -0.19908
 N473 N 0.54344 -0.12355 -0.24007
 C474 C 0.52433 -0.07956 -0.16286
 C475 C 0.50725 -0.07014 -0.17428
 H476 H 0.51414 -0.15446 -0.37582
 H477 H 0.53816 -0.07183 -0.12470
 H478 H 0.55318 -0.15969 -0.28973
 H479 H 0.49383 -0.07777 -0.21325
 C480 C 0.29333 0.46391 -0.32149
 C481 C 0.32010 0.48105 -0.31986
 C482 C 0.33731 0.48124 -0.27020
 N483 N 0.36264 0.49999 -0.27148
 N484 N 0.37936 0.49978 -0.23021
 C485 C 0.37148 0.48077 -0.18602
 N486 N 0.34598 0.46214 -0.18398
 N487 N 0.32915 0.46236 -0.22543
 C488 C 0.39073 0.47947 -0.14441
 C489 C 0.41714 0.49564 -0.15600
 H490 H 0.32911 0.49552 -0.35658
 H491 H 0.38432 0.46458 -0.10840
 H492 H 0.28417 0.45285 -0.27944
 H493 H 0.42323 0.50973 -0.19384
 C494 C 1.17055 0.69237 -0.35079
 C495 C 1.16465 0.66665 -0.34017
 C496 C 1.14458 0.64947 -0.29539
 N497 N 1.13676 0.62367 -0.29482
 N498 N 1.11751 0.60743 -0.25741
 C499 C 1.10540 0.61641 -0.21895
 N500 N 1.11348 0.64230 -0.21873
 N501 N 1.13266 0.65854 -0.25650
 C502 C 1.08336 0.59836 -0.17967
 C503 C 1.07054 0.57169 -0.19116
 H504 H 1.17469 0.65851 -0.36611
 H505 H 1.07635 0.60619 -0.14351
 H506 H 1.16373 0.70075 -0.31578
 H507 H 1.07677 0.56410 -0.22952
 C508 C 0.85289 0.56656 -0.34756
 C509 C 0.86707 0.55369 -0.35738
 C510 C 0.88050 0.54848 -0.30603
 N511 N 0.88672 0.52938 -0.31282
 N512 N 0.89767 0.52332 -0.26600
 C513 C 0.90287 0.53613 -0.21052
 N514 N 0.89698 0.55552 -0.20390
 N515 N 0.88582 0.56147 -0.25070
 C516 C 0.91552 0.52968 -0.15940
 C517 C 0.91763 0.50723 -0.16248
 H518 H 0.86514 0.54365 -0.40112
 H519 H 0.92446 0.54330 -0.12126
 H520 H 0.85298 0.57340 -0.30055
 H521 H 0.90806 0.49351 -0.20014
 C522 C 0.44362 0.28866 -0.33008
 C523 C 0.46399 0.31438 -0.32727
 C524 C 0.46748 0.33209 -0.27536
 N525 N 0.48910 0.35590 -0.27414
 N526 N 0.49225 0.37295 -0.22971
 C527 C 0.47392 0.36691 -0.18467
 N528 N 0.45235 0.34295 -0.18542
 N529 N 0.44920 0.32581 -0.22996
 C530 C 0.47644 0.38674 -0.13906
 C531 C 0.49664 0.41233 -0.14465
 H532 H 0.47882 0.32176 -0.36334
 H533 H 0.46101 0.38191 -0.10537
 H534 H 0.43253 0.28081 -0.28751
 H535 H 0.51148 0.41713 -0.17999
 C536 C 0.70400 0.16383 -0.33968
 C537 C 0.67716 0.14969 -0.34976
 C538 C 0.65842 0.13575 -0.29928
 N539 N 0.63272 0.12637 -0.30987
 N540 N 0.61530 0.11328 -0.26539
 C541 C 0.62287 0.10899 -0.20855
 N542 N 0.64862 0.11833 -0.19789
 N543 N 0.66611 0.13156 -0.24240
 C544 C 0.60342 0.09332 -0.16056
 C545 C 0.57713 0.08480 -0.17024
 H546 H 0.66929 0.15020 -0.39524
 H547 H 0.60961 0.08717 -0.11919
 H548 H 0.71060 0.16606 -0.29159
 H549 H 0.57118 0.09133 -0.21135
 C550 C 1.16757 0.44257 -0.35793
 C551 C 1.15653 0.45868 -0.35710
 C552 C 1.13666 0.45587 -0.31169
 N553 N 1.12631 0.47181 -0.31641
 N554 N 1.10839 0.46991 -0.27586
 C555 C 1.10013 0.45205 -0.22878
 N556 N 1.11057 0.43612 -0.22377
 N557 N 1.12852 0.43799 -0.26456
 C558 C 1.08002 0.44988 -0.18448
 C559 C 1.06726 0.46409 -0.19456
 H560 H 1.16314 0.47447 -0.39080
 H561 H 1.07479 0.43669 -0.14492
 H562 H 1.16230 0.42770 -0.32222
 H563 H 1.07208 0.47656 -0.23544
 C564 C 0.55617 0.72801 -0.34995
 C565 C 0.53841 0.70140 -0.34865
 C566 C 0.53951 0.68333 -0.30290
 N567 N 0.52191 0.65760 -0.30677
 N568 N 0.52260 0.64067 -0.26656
 C569 C 0.54090 0.64883 -0.22077
 N570 N 0.55845 0.67463 -0.21658
 N571 N 0.55779 0.69161 -0.25697
 C572 C 0.54210 0.62997 -0.17742
 C573 C 0.52605 0.60327 -0.18579
 H574 H 0.52290 0.69339 -0.38299
 H575 H 0.55640 0.63708 -0.14019
 H576 H 0.57076 0.73665 -0.31361
 H577 H 0.51225 0.59624 -0.22410
 C578 C 0.27610 -0.18657 -0.34092
 C579 C 0.29629 -0.16143 -0.35414
 C580 C 0.31259 -0.14284 -0.30595
 N581 N 0.33467 -0.12119 -0.32395
 N582 N 0.35104 -0.10485 -0.28160
 C583 C 0.34595 -0.10947 -0.21947
 N584 N 0.32357 -0.13089 -0.20125
 N585 N 0.30723 -0.14741 -0.24378
 C586 C 0.36481 -0.09185 -0.17305
 C587 C 0.39066 -0.07568 -0.19028
 H588 H 0.30165 -0.15543 -0.40236
 H589 H 0.35864 -0.09212 -0.12517
 H590 H 0.26852 -0.19068 -0.29359
 H591 H 0.39692 -0.07698 -0.23716
 C592 C 0.50230 -0.17775 0.36624
 C593 C 0.50991 -0.17002 0.30454
 C594 C 0.50414 -0.15115 0.27297
 N595 N 0.51587 -0.14010 0.21781
 N596 N 0.51212 -0.12174 0.19104
 C597 C 0.49648 -0.11377 0.21841
 N598 N 0.48450 -0.12507 0.27310
 N599 N 0.48829 -0.14336 0.29992
 C600 C 0.49306 -0.09265 0.19120
 C601 C 0.50698 -0.07848 0.13885
 H602 H 0.52237 -0.17600 0.28119
 H603 H 0.48002 -0.08743 0.21459
 H604 H 0.49143 -0.17017 0.39085
 H605 H 0.52019 -0.08346 0.11552
 C606 C 0.32250 0.50700 0.37836
 C607 C 0.32323 0.50012 0.31635
 C608 C 0.34780 0.50544 0.28593
 N609 N 0.34724 0.49482 0.22931
 N610 N 0.36908 0.49792 0.20323
 C611 C 0.39235 0.51178 0.23271
 N612 N 0.39297 0.52271 0.28897
 N613 N 0.37111 0.51956 0.31513
 C614 C 0.41643 0.51410 0.20584
 C615 C 0.41586 0.50035 0.15239
 H616 H 0.30512 0.48834 0.29162
 H617 H 0.43466 0.52574 0.23020
 H618 H 0.34058 0.51736 0.40409
 H619 H 0.39751 0.48836 0.12887
 C620 C 1.19357 0.68513 0.33064
 C621 C 1.17385 0.68426 0.29321
 C622 C 1.15628 0.66075 0.25732
 N623 N 1.13836 0.66105 0.21803
 N624 N 1.12130 0.63942 0.18845
 C625 C 1.12141 0.61664 0.19741
 N626 N 1.13935 0.61637 0.23661
 N627 N 1.15649 0.63801 0.26588
 C628 C 1.10170 0.59223 0.16813
 C629 C 1.08488 0.59188 0.12196
 H630 H 1.17009 0.70047 0.29375
 H631 H 1.10008 0.57405 0.18422
 H632 H 1.19695 0.66868 0.33121
 H633 H 1.08723 0.61006 0.10356
 C634 C 0.46968 0.18152 0.36885
 C635 C 0.45203 0.16347 0.32670
 C636 C 0.45681 0.14415 0.29463
 N637 N 0.43956 0.12805 0.25147
 N638 N 0.44296 0.10973 0.22385
 C639 C 0.46368 0.10669 0.23860
 N640 N 0.48095 0.12278 0.28182
 N641 N 0.47761 0.14119 0.30928
 C642 C 0.46726 0.08605 0.20934
 C643 C 0.45159 0.07115 0.16002
 H644 H 0.43351 0.16266 0.31926
 H645 H 0.48261 0.08268 0.22653
 H646 H 0.48791 0.18192 0.37793
 H647 H 0.43692 0.07523 0.14126
 C648 C 0.71099 0.52989 0.36836
 C649 C 0.71000 0.53800 0.30762
 C650 C 0.68518 0.53311 0.27946
 N651 N 0.68511 0.54384 0.22323
 N652 N 0.66300 0.54091 0.19919
 C653 C 0.64010 0.52717 0.23047
 N654 N 0.64013 0.51623 0.28642
 N655 N 0.66224 0.51917 0.31047
 C656 C 0.61571 0.52477 0.20550
 C657 C 0.61543 0.53699 0.14987
 H658 H 0.72795 0.55008 0.28248
 H659 H 0.59790 0.51384 0.23205
 H660 H 0.69302 0.51915 0.39447
 H661 H 0.63330 0.54789 0.12354
 C662 C 0.82643 0.27186 0.33432
 C663 C 0.83961 0.29880 0.34289
 C664 C 0.85865 0.31729 0.29793
 N665 N 0.87123 0.34310 0.31137
 N666 N 0.88919 0.36024 0.27259
 C667 C 0.89530 0.35225 0.21881
 N668 N 0.88262 0.32642 0.20513
 N669 N 0.86463 0.30923 0.24402
 C670 C 0.91558 0.37113 0.17643
 C671 C 0.92973 0.39754 0.19119
 H672 H 0.83634 0.30667 0.38555
 H673 H 0.91973 0.36410 0.13356
 H674 H 0.82800 0.26376 0.29015
 H675 H 0.92567 0.40451 0.23425
   
