data_POSCAR
  _audit_creation_date              2014-09-24
  _audit_creation_method            'ToBaCCo'
  _symmetry_space_group_name_H-M    'P1'
  _symmetry_Int_Tables_number       1
  _symmetry_cell_setting            triclinic
  loop_
  _symmetry_equiv_pos_as_xyz
 x,y,z
_cell_length_a 52.2155
_cell_length_b 51.5931
_cell_length_c 52.2274
_cell_angle_alpha 89.956300
_cell_angle_beta 90.014000
_cell_angle_gamma 90.006600
loop_
  _atom_site_label
  _atom_site_type_symbol
  _atom_site_fract_x
  _atom_site_fract_y
  _atom_site_fract_z
N1 N 0.59565 0.66588 0.61368
 N2 N 0.58563 0.65529 0.63430
 C3 C 0.56482 0.66901 0.64134
 C4 C 0.56184 0.68911 0.62420
 C5 C 0.58160 0.68667 0.60690
 H6 H 0.55275 0.66478 0.65763
 H7 H 0.58545 0.69907 0.59064
 Cu8 Cu 0.60080 0.62464 0.64984
 Cu9 Cu 0.62613 0.65197 0.59718
 Cu10 Cu 0.65347 0.59731 0.62460
 N11 N 0.61629 0.59399 0.66506
 N12 N 0.63692 0.58339 0.65506
 C13 C 0.64368 0.56259 0.66912
 C14 C 0.62633 0.56019 0.68885
 C15 C 0.60919 0.58027 0.68586
 H16 H 0.65993 0.55019 0.66529
 H17 H 0.59287 0.58451 0.69790
 N18 N 0.66740 0.61422 0.59374
 N19 N 0.65698 0.63504 0.58330
 C20 C 0.67080 0.64193 0.56259
 C21 C 0.69070 0.62463 0.56003
 C22 C 0.68811 0.60733 0.57995
 H23 H 0.66675 0.65827 0.55027
 H24 H 0.70042 0.59098 0.58402
 H25 H 0.62105 0.61410 0.60908
 H26 H 0.64159 0.63517 0.62962
 N27 N 0.90527 0.33372 0.11320
 N28 N 0.91528 0.34430 0.13383
 C29 C 0.93603 0.33054 0.14097
 C30 C 0.93898 0.31045 0.12386
 C31 C 0.91927 0.31289 0.10649
 H32 H 0.94807 0.33476 0.15730
 H33 H 0.91542 0.30050 0.09024
 Cu34 Cu 0.90013 0.37500 0.14926
 Cu35 Cu 0.87486 0.34770 0.09659
 Cu36 Cu 0.84758 0.40244 0.12382
 N37 N 0.88467 0.40569 0.16438
 N38 N 0.86410 0.41633 0.15431
 C39 C 0.85736 0.43714 0.16833
 C40 C 0.87463 0.43953 0.18812
 C41 C 0.89172 0.41940 0.18518
 H42 H 0.84113 0.44957 0.16444
 H43 H 0.90798 0.41512 0.19730
 N44 N 0.83368 0.38554 0.09297
 N45 N 0.84407 0.36469 0.08260
 C46 C 0.83026 0.35780 0.06189
 C47 C 0.81040 0.37514 0.05925
 C48 C 0.81299 0.39246 0.07912
 H49 H 0.83429 0.34143 0.04962
 H50 H 0.80071 0.40883 0.08314
 H51 H 0.88000 0.38557 0.10844
 H52 H 0.85936 0.36455 0.12897
 N53 N 0.40440 0.16645 -0.11347
 N54 N 0.41444 0.15582 -0.13404
 C55 C 0.43527 0.16951 -0.14110
 C56 C 0.43825 0.18964 -0.12402
 C57 C 0.41846 0.18725 -0.10674
 H58 H 0.44735 0.16525 -0.15737
 H59 H 0.41460 0.19968 -0.09053
 Cu60 Cu 0.39925 0.12516 -0.14950
 Cu61 Cu 0.37389 0.15259 -0.09695
 Cu62 Cu 0.34652 0.09791 -0.12424
 N63 N 0.38375 0.09449 -0.16464
 N64 N 0.36310 0.08394 -0.15464
 C65 C 0.35634 0.06313 -0.16865
 C66 C 0.37369 0.06065 -0.18837
 C67 C 0.39083 0.08073 -0.18539
 H68 H 0.34007 0.05075 -0.16482
 H69 H 0.40716 0.08493 -0.19743
 N70 N 0.33258 0.11489 -0.09346
 N71 N 0.34300 0.13572 -0.08306
 C72 C 0.32917 0.14264 -0.06239
 C73 C 0.30925 0.12535 -0.05980
 C74 C 0.31185 0.10802 -0.07966
 H75 H 0.33323 0.15900 -0.05010
 H76 H 0.29954 0.09167 -0.08369
 H77 H 0.37894 0.11470 -0.10874
 H78 H 0.35845 0.13576 -0.12937
 N79 N 0.09463 0.83341 0.38674
 N80 N 0.08462 0.84401 0.36611
 C81 C 0.06381 0.83029 0.35903
 C82 C 0.06084 0.81021 0.37618
 C83 C 0.08059 0.81261 0.39351
 H84 H 0.05176 0.83453 0.34271
 H85 H 0.08444 0.80020 0.40977
 Cu86 Cu 0.09982 0.87466 0.35059
 Cu87 Cu 0.12512 0.84730 0.40326
 Cu88 Cu 0.15252 0.90195 0.37587
 N89 N 0.11534 0.90530 0.33539
 N90 N 0.13597 0.91588 0.34540
 C91 C 0.14273 0.93668 0.33134
 C92 C 0.12540 0.93913 0.31160
 C93 C 0.10827 0.91904 0.31460
 H94 H 0.15899 0.94907 0.33518
 H95 H 0.09195 0.91483 0.30255
 N96 N 0.16642 0.88501 0.40672
 N97 N 0.15599 0.86420 0.41716
 C98 C 0.16980 0.85729 0.43787
 C99 C 0.18973 0.87458 0.44043
 C100 C 0.18715 0.89188 0.42052
 H101 H 0.16574 0.84095 0.45018
 H102 H 0.19948 0.90822 0.41645
 H103 H 0.12008 0.88518 0.39136
 H104 H 0.14060 0.86409 0.37082
 C105 C 0.10503 0.12531 0.14439
 C106 C 0.08602 0.14452 0.14415
 C107 C 0.08598 0.16362 0.12507
 C108 C 0.10493 0.16367 0.10608
 C109 C 0.12408 0.14461 0.10603
 C110 C 0.12417 0.12532 0.12526
 C111 C 0.10527 0.10609 0.16340
 C112 C 0.12435 0.08700 0.16345
 C113 C 0.14334 0.08696 0.14451
 C114 C 0.14339 0.10603 0.12535
 C115 C 0.16231 0.10619 0.10628
 C116 C 0.16218 0.12533 0.08725
 C117 C 0.14315 0.14447 0.08711
 H118 H 0.07126 0.14464 0.15876
 H119 H 0.10472 0.17855 0.09139
 H120 H 0.09065 0.10594 0.17816
 H121 H 0.15802 0.07209 0.14472
 H122 H 0.17713 0.09146 0.10622
 H123 H 0.14322 0.15921 0.07229
 C124 C 0.39419 0.87472 0.64448
 C125 C 0.41327 0.85558 0.64421
 C126 C 0.41335 0.83652 0.62512
 C127 C 0.39438 0.83644 0.60615
 C128 C 0.37515 0.85543 0.60612
 C129 C 0.37502 0.87468 0.62536
 C130 C 0.39391 0.89390 0.66350
 C131 C 0.37476 0.91292 0.66358
 C132 C 0.35574 0.91292 0.64466
 C133 C 0.35572 0.89389 0.62549
 C134 C 0.33677 0.89370 0.60644
 C135 C 0.33695 0.87460 0.58739
 C136 C 0.35606 0.85554 0.58723
 H137 H 0.42805 0.85548 0.65880
 H138 H 0.39462 0.82160 0.59145
 H139 H 0.40855 0.89407 0.67824
 H140 H 0.34100 0.92773 0.64489
 H141 H 0.32190 0.90837 0.60640
 H142 H 0.35602 0.84083 0.57239
 C143 C 0.89482 0.62507 0.35574
 C144 C 0.91382 0.64430 0.35601
 C145 C 0.91386 0.66333 0.37513
 C146 C 0.89494 0.66329 0.39414
 C147 C 0.87579 0.64421 0.39416
 C148 C 0.87570 0.62499 0.37489
 C149 C 0.89458 0.60593 0.33668
 C150 C 0.87551 0.58683 0.33660
 C151 C 0.85654 0.58670 0.35556
 C152 C 0.85649 0.60569 0.37477
 C153 C 0.83758 0.60576 0.39385
 C154 C 0.83772 0.62484 0.41293
 C155 C 0.85674 0.64398 0.41310
 H156 H 0.92856 0.64450 0.34138
 H157 H 0.89515 0.67811 0.40886
 H158 H 0.90918 0.60586 0.32191
 H159 H 0.84186 0.57182 0.35533
 H160 H 0.82276 0.59103 0.39389
 H161 H 0.85667 0.65866 0.42795
 C162 C 0.60586 0.37532 -0.14472
 C163 C 0.58679 0.35616 -0.14442
 C164 C 0.58674 0.33709 -0.12531
 C165 C 0.60573 0.33701 -0.10636
 C166 C 0.62494 0.35602 -0.10637
 C167 C 0.62504 0.37528 -0.12563
 C168 C 0.60610 0.39451 -0.16376
 C169 C 0.62524 0.41355 -0.16388
 C170 C 0.64427 0.41356 -0.14497
 C171 C 0.64432 0.39451 -0.12578
 C172 C 0.66329 0.39433 -0.10675
 C173 C 0.66314 0.37522 -0.08769
 C174 C 0.64406 0.35613 -0.08749
 H175 H 0.57200 0.35605 -0.15900
 H176 H 0.60552 0.32216 -0.09165
 H177 H 0.59145 0.39467 -0.17849
 H178 H 0.65900 0.42838 -0.14523
 H179 H 0.67815 0.40902 -0.10673
 H180 H 0.64412 0.34142 -0.07264
 C181 C -0.00646 0.25604 0.12444
 N182 N 0.01863 0.26282 0.12390
 N183 N 0.03679 0.24467 0.12404
 C184 C 0.03041 0.21920 0.12473
 N185 N 0.00532 0.21242 0.12527
 N186 N -0.01284 0.23056 0.12513
 C187 C -0.02602 0.27557 0.12425
 C188 C -0.04247 0.29197 0.12408
 C189 C 0.04996 0.19966 0.12486
 C190 C 0.06638 0.18324 0.12495
 C191 C 0.50608 0.74440 0.62457
 N192 N 0.48101 0.73754 0.62396
 N193 N 0.46279 0.75563 0.62406
 C194 C 0.46909 0.78112 0.62478
 N195 N 0.49416 0.78798 0.62539
 N196 N 0.51238 0.76990 0.62528
 C197 C 0.52570 0.72493 0.62445
 C198 C 0.54219 0.70858 0.62434
 C199 C 0.44948 0.80060 0.62489
 C200 C 0.43301 0.81697 0.62499
 C201 C 1.00622 0.75586 0.37573
 N202 N 0.99330 0.75000 0.39750
 N203 N 0.97514 0.73184 0.39738
 C204 C 0.96936 0.71900 0.37548
 N205 N 0.98228 0.72486 0.35370
 N206 N 1.00043 0.74301 0.35383
 C207 C 1.02580 0.77537 0.37587
 C208 C 1.04226 0.79175 0.37600
 C209 C 0.94983 0.69943 0.37535
 C210 C 0.93343 0.68298 0.37525
 C211 C 0.49402 0.24493 -0.12452
 N212 N 0.51731 0.23983 -0.13486
 N213 N 0.53553 0.25792 -0.13502
 C214 C 0.53101 0.28166 -0.12483
 N215 N 0.50773 0.28676 -0.11449
 N216 N 0.48951 0.26866 -0.11433
 C217 C 0.47441 0.22545 -0.12435
 C218 C 0.45791 0.20910 -0.12421
 C219 C 0.55062 0.30114 -0.12500
 C220 C 0.56709 0.31752 -0.12514
 C221 C 0.12492 -0.00547 0.25590
 N222 N 0.14351 -0.00499 0.23778
 N223 N 0.14338 0.01316 0.21960
 C224 C 0.12466 0.03137 0.21901
 N225 N 0.10607 0.03089 0.23713
 N226 N 0.10619 0.01274 0.25531
 C227 C 0.12507 -0.02499 0.27549
 C228 C 0.12522 -0.04137 0.29196
 C229 C 0.12454 0.05092 0.19946
 C230 C 0.12445 0.06736 0.18304
 C231 C 0.62583 0.50589 -0.25645
 N232 N 0.64215 0.50751 -0.23632
 N233 N 0.64202 0.48938 -0.21812
 C234 C 0.62556 0.46909 -0.21951
 N235 N 0.60923 0.46747 -0.23965
 N236 N 0.60937 0.48560 -0.25785
 C237 C 0.62599 0.52538 -0.27607
 C238 C 0.62614 0.54174 -0.29255
 C239 C 0.62544 0.44957 -0.19994
 C240 C 0.62534 0.43315 -0.18350
 C241 C 0.37414 1.00524 0.75603
 N242 N 0.35786 0.98480 0.75738
 N243 N 0.35798 0.96667 0.73921
 C244 C 0.37439 0.96844 0.71916
 N245 N 0.39066 0.98888 0.71781
 N246 N 0.39054 1.00701 0.73598
 C247 C 0.37400 1.02475 0.77559
 C248 C 0.37387 1.04114 0.79203
 C249 C 0.37451 0.94892 0.69960
 C250 C 0.37462 0.93252 0.68318
 C251 C 0.87500 0.49477 0.24389
 N252 N 0.89400 0.49538 0.26159
 N253 N 0.89410 0.51345 0.27981
 C254 C 0.87520 0.53145 0.28088
 N255 N 0.85620 0.53084 0.26318
 N256 N 0.85610 0.51277 0.24495
 C257 C 0.87489 0.47532 0.22427
 C258 C 0.87478 0.45898 0.20778
 C259 C 0.87531 0.55091 0.30049
 C260 C 0.87540 0.56728 0.31695
 C261 C 0.25405 0.12536 -0.00462
 N262 N 0.24418 0.14801 0.00409
 N263 N 0.22614 0.14801 0.02213
 C264 C 0.21742 0.12535 0.03201
 N265 N 0.22729 0.10269 0.02331
 N266 N 0.24533 0.10270 0.00527
 C267 C 0.27348 0.12536 -0.02404
 C268 C 0.28980 0.12536 -0.04036
 C269 C 0.19799 0.12534 0.05144
 C270 C 0.18167 0.12533 0.06776
 C271 C 0.74588 0.62465 0.50483
 N272 N 0.76355 0.60541 0.50389
 N273 N 0.78159 0.60543 0.48584
 C274 C 0.78250 0.62470 0.46818
 N275 N 0.76483 0.64394 0.46912
 N276 N 0.74679 0.64392 0.48717
 C277 C 0.72647 0.62463 0.52427
 C278 C 0.71015 0.62462 0.54059
 C279 C 0.80192 0.62473 0.44875
 C280 C 0.81823 0.62477 0.43242
 C281 C 0.75516 0.37515 0.00407
 N282 N 0.74605 0.39782 -0.00542
 N283 N 0.72799 0.39783 -0.02345
 C284 C 0.71848 0.37516 -0.03253
 N285 N 0.72759 0.35249 -0.02304
 N286 N 0.74566 0.35248 -0.00501
 C287 C 0.77461 0.37514 0.02348
 C288 C 0.79095 0.37514 0.03980
 C289 C 0.69903 0.37517 -0.05193
 C290 C 0.68268 0.37519 -0.06823
 C291 C 0.24498 0.87454 0.49559
 N292 N 0.23957 0.86618 0.51962
 N293 N 0.25763 0.86618 0.53765
 C294 C 0.28165 0.87454 0.53220
 N295 N 0.28706 0.88291 0.50817
 N296 N 0.26899 0.88291 0.49014
 C297 C 0.22553 0.87454 0.47618
 C298 C 0.20919 0.87455 0.45987
 C299 C 0.30110 0.87455 0.55161
 C300 C 0.31744 0.87456 0.56792
   
