data_POSCAR
  _audit_creation_date              2014-09-24
  _audit_creation_method            'ToBaCCo'
  _symmetry_space_group_name_H-M    'P1'
  _symmetry_Int_Tables_number       1
  _symmetry_cell_setting            triclinic
  loop_
  _symmetry_equiv_pos_as_xyz
 x,y,z
_cell_length_a 27.6190
_cell_length_b 31.2113
_cell_length_c 43.4806
_cell_angle_alpha 91.549200
_cell_angle_beta 89.457800
_cell_angle_gamma 124.015900
loop_
  _atom_site_label
  _atom_site_type_symbol
  _atom_site_fract_x
  _atom_site_fract_y
  _atom_site_fract_z
C1 C 0.04256 0.46607 1.27475
 C2 C -0.01954 0.44119 1.27518
 C3 C -0.04854 0.43737 1.24743
 C4 C -0.01748 0.45618 1.21974
 C5 C 0.04423 0.48751 1.22111
 C6 C 0.07314 0.48990 1.24771
 H7 H 0.12056 0.51371 1.24787
 H8 H -0.09589 0.41429 1.24671
 C9 C 0.54781 0.52064 1.22235
 C10 C 0.52890 0.55405 1.22168
 C11 C 0.50651 0.56278 1.24811
 C12 C 0.50226 0.53916 1.27608
 C13 C 0.52294 0.50636 1.27690
 C14 C 0.54491 0.49727 1.24995
 H15 H 0.55920 0.47123 1.25038
 H16 H 0.49439 0.59028 1.24682
 C17 C 0.45061 0.96236 1.28332
 C18 C 0.44342 1.00367 1.28949
 C19 C 0.44501 1.03274 1.26483
 C20 C 0.45186 1.02155 1.23441
 C21 C 0.45185 0.97697 1.22770
 C22 C 0.45417 0.94965 1.25218
 H23 H 0.45363 0.91528 1.24676
 H24 H 0.44421 1.06667 1.26955
 C25 C 1.01451 0.46634 0.78218
 C26 C 0.95342 0.43575 0.77724
 C27 C 0.93100 0.43339 0.74802
 C28 C 0.96834 0.45697 0.72286
 C29 C 1.02923 0.47919 0.72653
 C30 C 1.05140 0.48476 0.75658
 H31 H 1.09824 0.50617 0.76015
 H32 H 0.88411 0.41242 0.74474
 C33 C 0.56583 0.52921 0.72236
 C34 C 0.55509 0.56812 0.72775
 C35 C 0.54622 0.57930 0.75787
 C36 C 0.54578 0.55129 0.78257
 C37 C 0.55246 0.51014 0.77711
 C38 C 0.56301 0.49969 0.74707
 H39 H 0.56977 0.46898 0.74300
 H40 H 0.53973 0.61015 0.76215
 C41 C 0.45205 0.02716 0.72419
 C42 C 0.44139 -0.02228 0.71734
 C43 C 0.44536 -0.04937 0.74141
 C44 C 0.45905 -0.02903 0.77142
 C45 C 0.46958 0.02001 0.77819
 C46 C 0.46481 0.04703 0.75458
 H47 H 0.47545 0.08566 0.75947
 H48 H 0.43558 -0.08788 0.73724
 O49 O 0.46937 0.71508 0.96850
 O50 O 0.45394 0.79048 0.97013
 C51 C 0.41452 0.78260 0.95122
 O52 O 0.36019 0.75234 0.95635
 O53 O 0.26723 0.66428 0.97331
 C54 C 0.26170 0.62489 0.96063
 O55 O 0.29592 0.61132 0.96649
 O56 O 0.39963 0.63131 0.97630
 C57 C 0.44547 0.66706 0.96291
 O58 O 0.47015 0.71433 1.02969
 O59 O 0.45029 0.78608 1.03340
 C60 C 0.41687 0.80181 1.03442
 O61 O 0.37811 0.78794 1.01407
 O62 O 0.29123 0.69642 1.03146
 C63 C 0.27136 0.65139 1.04116
 O64 O 0.28254 0.62028 1.02854
 O65 O 0.38608 0.63915 1.03764
 C66 C 0.43881 0.67341 1.04463
 Cr67 Cr 0.45792 0.74990 1.00031
 Cr68 Cr 0.32604 0.72432 0.99397
 Cr69 Cr 0.34226 0.62818 1.00210
 O70 O 0.37554 0.70027 0.99857
 O71 O 0.55268 0.32422 0.97437
 O72 O 0.53505 0.23271 0.97303
 C73 C 0.55543 0.20492 0.97246
 O74 O 0.58583 0.20655 0.99459
 O75 O 0.68861 0.27750 0.97181
 C76 C 0.72205 0.32121 0.95954
 O77 O 0.73009 0.36302 0.97064
 O78 O 0.64445 0.37221 0.95831
 C79 C 0.59063 0.35360 0.95479
 O80 O 0.56165 0.32889 1.03623
 O81 O 0.53536 0.23415 1.03644
 C82 C 0.56857 0.23218 1.05576
 O83 O 0.62184 0.25019 1.05016
 O84 O 0.72648 0.31741 1.02839
 C85 C 0.74561 0.36223 1.03932
 O86 O 0.72641 0.38863 1.03089
 O87 O 0.64200 0.39934 1.01758
 C88 C 0.60076 0.37736 1.03708
 Cr89 Cr 0.54844 0.28057 1.00502
 Cr90 Cr 0.65500 0.26433 1.01094
 Cr91 Cr 0.68401 0.37852 0.99470
 O92 O 0.62951 0.30840 1.00376
 O93 O 0.67466 0.41793 0.52012
 O94 O 0.75346 0.39819 0.51191
 C95 C 0.75236 0.37082 0.53353
 O96 O 0.71634 0.32209 0.53404
 O97 O 0.60863 0.24044 0.53459
 C98 C 0.57445 0.24736 0.55033
 O99 O 0.55930 0.27648 0.54186
 O100 O 0.57805 0.36141 0.52269
 C101 C 0.62531 0.40301 0.53140
 O102 O 0.64199 0.39553 0.46032
 O103 O 0.71814 0.37171 0.45218
 C104 C 0.73486 0.34132 0.45153
 O105 O 0.72247 0.30946 0.47274
 O106 O 0.61182 0.23216 0.47282
 C107 C 0.55823 0.21526 0.46936
 O108 O 0.53381 0.23417 0.48411
 O109 O 0.55531 0.32100 0.46459
 C110 C 0.58929 0.36359 0.45171
 Cr111 Cr 0.69502 0.39320 0.48645
 Cr112 Cr 0.66401 0.27777 0.50329
 Cr113 Cr 0.55962 0.29909 0.50303
 O114 O 0.63932 0.32338 0.49738
 O115 O 0.38665 0.62634 0.54411
 O116 O 0.27780 0.57957 0.52673
 C117 C 0.25638 0.60015 0.54235
 O118 O 0.26224 0.64183 0.53460
 O119 O 0.33099 0.74041 0.52212
 C120 C 0.37509 0.76487 0.54019
 O121 O 0.41762 0.75971 0.53892
 O122 O 0.46327 0.70523 0.53332
 C123 C 0.43731 0.66574 0.55032
 O124 O 0.42017 0.63079 0.48573
 O125 O 0.31198 0.58823 0.46791
 C126 C 0.26972 0.59019 0.45902
 O127 O 0.25397 0.61650 0.47350
 O128 O 0.32739 0.71471 0.46170
 C129 C 0.37934 0.75326 0.45759
 O130 O 0.41946 0.76918 0.47765
 O131 O 0.45668 0.71027 0.47059
 C132 C 0.44363 0.66490 0.46543
 Cr133 Cr 0.34929 0.60810 0.50600
 Cr134 Cr 0.29552 0.67820 0.49821
 Cr135 Cr 0.43725 0.73415 0.50524
 O136 O 0.36044 0.67359 0.50366
 C137 C 0.48409 0.57810 0.35522
 C138 C 0.44247 0.58783 0.34909
 C139 C 0.41556 0.57791 0.32068
 C140 C 0.43360 0.55867 0.29713
 C141 C 0.47921 0.55086 0.30183
 C142 C 0.50372 0.55982 0.33188
 O143 O 0.50423 0.59083 0.38397
 C144 C 0.47492 0.60943 0.39602
 C145 C 0.43727 0.60905 0.37534
 C146 C 0.40476 0.62948 0.38212
 C147 C 0.41037 0.65032 0.41173
 C148 C 0.44694 0.64934 0.43391
 C149 C 0.47976 0.62857 0.42611
 H150 H 0.38216 0.58517 0.31668
 H151 H 0.41193 0.55016 0.27501
 H152 H 0.54010 0.55694 0.33666
 H153 H 0.37605 0.62928 0.36526
 H154 H 0.38439 0.66540 0.41784
 H155 H 0.50778 0.62736 0.44281
 C156 C 0.40901 0.88041 0.35282
 C157 C 0.44775 0.86612 0.35024
 C158 C 0.48783 0.88202 0.32652
 C159 C 0.48806 0.91396 0.30439
 C160 C 0.44952 0.93066 0.30652
 C161 C 0.40915 0.91308 0.33132
 O162 O 0.37391 0.86015 0.37698
 C163 C 0.39132 0.83282 0.39002
 C164 C 0.43668 0.83561 0.37454
 C165 C 0.46340 0.81173 0.38454
 C166 C 0.44311 0.78436 0.41185
 C167 C 0.39607 0.78025 0.42819
 C168 C 0.36923 0.80438 0.41698
 H169 H 0.51781 0.87009 0.32502
 H170 H 0.51968 0.92692 0.28602
 H171 H 0.37708 0.92257 0.33325
 H172 H 0.49939 0.81495 0.37211
 H173 H 0.46425 0.76645 0.42040
 H174 H 0.33396 0.80257 0.42936
 C175 C 0.11050 0.50360 0.35291
 C176 C 0.15291 0.49379 0.34888
 C177 C 0.15971 0.47361 0.32164
 C178 C 0.12164 0.46361 0.29733
 C179 C 0.07676 0.47273 0.30068
 C180 C 0.07086 0.49252 0.32924
 O181 O 0.11493 0.52685 0.37980
 C182 C 0.16103 0.53161 0.39296
 C183 C 0.18544 0.51159 0.37502
 C184 C 0.23528 0.51410 0.38360
 C185 C 0.26135 0.53852 0.41185
 C186 C 0.23807 0.56074 0.43065
 C187 C 0.18668 0.55669 0.42108
 H188 H 0.19418 0.46717 0.31890
 H189 H 0.12695 0.44847 0.27577
 H190 H 0.03895 0.50206 0.33230
 H191 H 0.25397 0.49850 0.36887
 H192 H 0.30064 0.54125 0.41859
 H193 H 0.16805 0.57357 0.43466
 C194 C 0.56196 0.45692 0.34384
 C195 C 0.50734 0.42103 0.35501
 C196 C 0.45624 0.41141 0.34192
 C197 C 0.46173 0.44001 0.31620
 C198 C 0.51757 0.47697 0.30423
 C199 C 0.56833 0.48524 0.31809
 O200 O 0.60488 0.46067 0.35991
 C201 C 0.57673 0.42624 0.38168
 C202 C 0.51700 0.40077 0.37956
 C203 C 0.47899 0.36273 0.39973
 C204 C 0.50351 0.35049 0.42313
 C205 C 0.56511 0.37662 0.42618
 C206 C 0.60220 0.41516 0.40505
 H207 H 0.41377 0.38306 0.35121
 H208 H 0.42276 0.43339 0.30549
 H209 H 0.61138 0.51336 0.30928
 H210 H 0.43214 0.34314 0.39754
 H211 H 0.47436 0.32109 0.43915
 H212 H 0.64926 0.43563 0.40663
 C213 C 0.48629 0.06340 0.36801
 C214 C 0.44194 0.07026 0.37377
 C215 C 0.39571 0.05332 0.35351
 C216 C 0.39573 0.02932 0.32585
 C217 C 0.44052 0.02112 0.31924
 C218 C 0.48577 0.03733 0.34116
 O219 O 0.52982 0.08846 0.38834
 C220 C 0.51243 0.11147 0.40726
 C221 C 0.45862 0.10098 0.39949
 C222 C 0.43368 0.12373 0.41471
 C223 C 0.46579 0.15938 0.43869
 C224 C 0.52238 0.17244 0.44671
 C225 C 0.54547 0.14724 0.43097
 H226 H 0.36234 0.06064 0.35812
 H227 H 0.36117 0.01766 0.30925
 H228 H 0.52204 0.03398 0.33621
 H229 H 0.39164 0.11543 0.40779
 H230 H 0.44734 0.17831 0.45015
 H231 H 0.58881 0.15682 0.43606
 C232 C 0.87061 0.39852 0.33762
 C233 C 0.88260 0.36862 0.35424
 C234 C 0.92476 0.35968 0.34541
 C235 C 0.95660 0.38325 0.31867
 C236 C 0.94616 0.41536 0.30125
 C237 C 0.90084 0.42142 0.31055
 O238 O 0.83099 0.40432 0.35085
 C239 C 0.81764 0.37740 0.37633
 C240 C 0.84769 0.35447 0.37937
 C241 C 0.84139 0.32546 0.40467
 C242 C 0.80292 0.32022 0.42792
 C243 C 0.77219 0.34439 0.42575
 C244 C 0.77952 0.37307 0.39930
 H245 H 0.93342 0.33596 0.35886
 H246 H 0.98895 0.37590 0.31139
 H247 H 0.89175 0.44582 0.29812
 H248 H 0.86576 0.30800 0.40662
 H249 H 0.79821 0.29832 0.44794
 H250 H 0.75700 0.39216 0.39687
 C251 C 0.55767 0.45239 1.15224
 C252 C 0.60581 0.49322 1.13828
 C253 C 0.63895 0.54268 1.15148
 C254 C 0.62090 0.55073 1.18000
 C255 C 0.57016 0.50980 1.19433
 C256 C 0.53870 0.45966 1.18056
 O257 O 0.53295 0.40843 1.13581
 C258 C 0.56616 0.42196 1.11090
 C259 C 0.61100 0.47350 1.11130
 C260 C 0.65091 0.49627 1.08763
 C261 C 0.64527 0.46444 1.06272
 C262 C 0.60045 0.41061 1.06192
 C263 C 0.55978 0.38929 1.08633
 H264 H 0.67703 0.57400 1.14013
 H265 H 0.64568 0.58896 1.19071
 H266 H 0.49976 0.42790 1.19113
 H267 H 0.68563 0.53701 1.08847
 H268 H 0.67699 0.48176 1.04444
 H269 H 0.52541 0.34847 1.08664
 C270 C 0.87989 0.42497 1.15399
 C271 C 0.90836 0.41584 1.13134
 C272 C 0.95733 0.41550 1.13681
 C273 C 0.97953 0.42692 1.16671
 C274 C 0.95391 0.43984 1.19070
 C275 C 0.90138 0.43648 1.18439
 O276 O 0.83263 0.42151 1.14342
 C277 C 0.83176 0.41000 1.11358
 C278 C 0.87746 0.40632 1.10523
 C279 C 0.88475 0.39299 1.07566
 C280 C 0.84215 0.38144 1.05375
 C281 C 0.79386 0.38387 1.06160
 C282 C 0.78896 0.39935 1.09181
 H283 H 0.97771 0.40653 1.11869
 H284 H 1.01683 0.42514 1.17123
 H285 H 0.87985 0.44514 1.20197
 H286 H 0.92103 0.39007 1.06990
 H287 H 0.84567 0.36899 1.03081
 H288 H 0.75151 0.40001 1.09849
 C289 C 0.51240 0.10902 1.16597
 C290 C 0.47286 0.12237 1.16354
 C291 C 0.42651 0.10521 1.18377
 C292 C 0.42052 0.07276 1.20739
 C293 C 0.46017 0.05772 1.21009
 C294 C 0.50706 0.07658 1.18915
 O295 O 0.55275 0.12885 1.14416
 C296 C 0.53825 0.15515 1.12750
 C297 C 0.48956 0.15227 1.13833
 C298 C 0.46553 0.17539 1.12373
 C299 C 0.49244 0.20217 1.09673
 C300 C 0.54278 0.20579 1.08503
 C301 C 0.56630 0.18231 1.10094
 H302 H 0.39579 0.11607 1.18132
 H303 H 0.38427 0.05832 1.22313
 H304 H 0.53806 0.06586 1.19074
 H305 H 0.42694 0.17229 1.13255
 H306 H 0.47398 0.22001 1.08489
 H307 H 0.60413 0.18375 1.09240
 C308 C 0.48708 0.58625 1.14817
 C309 C 0.53335 0.63686 1.14524
 C310 C 0.58032 0.66170 1.16568
 C311 C 0.57916 0.63334 1.19044
 C312 C 0.53208 0.58118 1.19383
 C313 C 0.48556 0.55709 1.17235
 O314 O 0.44558 0.57095 1.12714
 C315 C 0.46612 0.61283 1.11058
 C316 C 0.51972 0.65409 1.12070
 C317 C 0.54870 0.70213 1.10729
 C318 C 0.52148 0.70790 1.08226
 C319 C 0.46602 0.66602 1.07127
 C320 C 0.43798 0.61775 1.08580
 H321 H 0.61575 0.70179 1.16311
 H322 H 0.61421 0.65201 1.20729
 H323 H 0.44855 0.51765 1.17510
 H324 H 0.59065 0.73409 1.11586
 H325 H 0.54362 0.74524 1.07162
 H326 H 0.39570 0.58508 1.07809
 C327 C 0.14641 0.55083 1.15406
 C328 C 0.13220 0.58476 1.14574
 C329 C 0.09234 0.59044 1.16181
 C330 C 0.06509 0.55914 1.18720
 C331 C 0.07849 0.52350 1.19611
 C332 C 0.12083 0.52015 1.17976
 O333 O 0.18338 0.54988 1.13476
 C334 C 0.19271 0.58400 1.11389
 C335 C 0.16263 0.60657 1.11972
 C336 C 0.16562 0.64314 1.10083
 C337 C 0.20151 0.65742 1.07492
 C338 C 0.23279 0.63454 1.06817
 C339 C 0.22801 0.59704 1.08794
 H340 H 0.08153 0.61707 1.15461
 H341 H 0.03264 0.56176 1.19964
 H342 H 0.13102 0.49263 1.18589
 H343 H 0.14137 0.66021 1.10591
 H344 H 0.20460 0.68607 1.06000
 H345 H 0.25169 0.57921 1.08352
 C346 C 0.45814 0.91379 1.15268
 C347 C 0.41741 0.91531 1.13574
 C348 C 0.38553 0.93393 1.14745
 C349 C 0.39660 0.95267 1.17785
 C350 C 0.44073 0.95470 1.19569
 C351 C 0.47130 0.93394 1.18298
 O352 O 0.48012 0.89078 1.13743
 C353 C 0.45267 0.87786 1.11029
 C354 C 0.41445 0.89273 1.10823
 C355 C 0.38015 0.88280 1.08251
 C356 C 0.38418 0.85527 1.05794
 C357 C 0.42141 0.83728 1.05944
 C358 C 0.45708 0.84965 1.08597
 H359 H 0.35224 0.93293 1.13388
 H360 H 0.37037 0.96545 1.18757
 H361 H 0.50409 0.93356 1.19619
 H362 H 0.35049 0.89506 1.08158
 H363 H 0.35655 0.84663 1.03805
 H364 H 0.48538 0.83610 1.08809
 C365 C 0.57286 0.46964 0.64675
 C366 C 0.62132 0.51198 0.63395
 C367 C 0.65348 0.56015 0.64881
 C368 C 0.63473 0.56503 0.67798
 C369 C 0.58468 0.52215 0.69166
 C370 C 0.55354 0.47359 0.67589
 O371 O 0.54951 0.42717 0.62898
 C372 C 0.58410 0.44309 0.60453
 C373 C 0.62872 0.49465 0.60650
 C374 C 0.67150 0.51894 0.58414
 C375 C 0.66879 0.48867 0.55891
 C376 C 0.62347 0.43526 0.55631
 C377 C 0.57998 0.41240 0.57933
 H378 H 0.69179 0.59275 0.63839
 H379 H 0.65929 0.60215 0.69006
 H380 H 0.51538 0.44025 0.68591
 H381 H 0.70652 0.55947 0.58639
 H382 H 0.70255 0.50668 0.54163
 H383 H 0.54568 0.37152 0.57840
 C384 C 0.50771 0.10952 0.65400
 C385 C 0.47821 0.13322 0.65635
 C386 C 0.43892 0.12336 0.67980
 C387 C 0.42985 0.08765 0.70186
 C388 C 0.45985 0.06280 0.69994
 C389 C 0.49957 0.07417 0.67572
 O390 O 0.54300 0.12431 0.62993
 C391 C 0.53566 0.15818 0.61679
 C392 C 0.49662 0.16508 0.63216
 C393 C 0.48252 0.19886 0.62259
 C394 C 0.50931 0.22634 0.59589
 C395 C 0.54926 0.21952 0.57923
 C396 C 0.56280 0.18504 0.59008
 H397 H 0.41626 0.14256 0.68111
 H398 H 0.39962 0.07930 0.72044
 H399 H 0.52382 0.05642 0.67408
 H400 H 0.45181 0.20373 0.63515
 H401 H 0.49829 0.25256 0.58811
 H402 H 0.59297 0.17887 0.57801
 C403 C 0.89033 0.41464 0.64581
 C404 C 0.88956 0.45724 0.63949
 C405 C 0.91238 0.49980 0.65954
 C406 C 0.93758 0.49867 0.68710
 C407 C 0.94152 0.45643 0.69346
 C408 C 0.91684 0.41340 0.67275
 O409 O 0.86274 0.37697 0.62456
 C410 C 0.84459 0.39641 0.60435
 C411 C 0.86056 0.44566 0.61228
 C412 C 0.84587 0.47328 0.59460
 C413 C 0.81261 0.44892 0.56783
 C414 C 0.79372 0.39745 0.55957
 C415 C 0.81042 0.37099 0.57808
 H416 H 0.90995 0.53229 0.65441
 H417 H 0.95506 0.53104 0.70332
 H418 H 0.91766 0.38001 0.67770
 H419 H 0.85887 0.51196 0.60138
 H420 H 0.79958 0.46946 0.55423
 H421 H 0.79632 0.33158 0.57254
 C422 C 0.50346 0.59621 0.65583
 C423 C 0.54078 0.64922 0.65515
 C424 C 0.58387 0.67798 0.67743
 C425 C 0.58845 0.65097 0.70134
 C426 C 0.55079 0.59631 0.70222
 C427 C 0.50782 0.56865 0.67908
 O428 O 0.46452 0.57624 0.63311
 C429 C 0.47753 0.61744 0.61767
 C430 C 0.52401 0.66308 0.63003
 C431 C 0.54474 0.71081 0.61730
 C432 C 0.51637 0.71145 0.59079
 C433 C 0.46782 0.66486 0.57785
 C434 C 0.44834 0.61724 0.59165
 H435 H 0.61249 0.71969 0.67660
 H436 H 0.62135 0.67237 0.71908
 H437 H 0.47807 0.52696 0.67952
 H438 H 0.58139 0.74627 0.62741
 H439 H 0.53173 0.74824 0.58063
 H440 H 0.41162 0.58093 0.58236
 C441 C 0.42961 0.89916 0.64858
 C442 C 0.39030 0.90164 0.63095
 C443 C 0.36767 0.93010 0.64003
 C444 C 0.38591 0.95664 0.66862
 C445 C 0.42593 0.95408 0.68762
 C446 C 0.44802 0.92482 0.67697
 O447 O 0.44528 0.86943 0.63620
 C448 C 0.41483 0.85235 0.61020
 C449 C 0.38026 0.87067 0.60589
 C450 C 0.34311 0.85593 0.58068
 C451 C 0.34160 0.82090 0.55910
 C452 C 0.37728 0.80180 0.56299
 C453 C 0.41460 0.81813 0.58892
 H454 H 0.33624 0.93104 0.62591
 H455 H 0.36645 0.97689 0.67650
 H456 H 0.47941 0.92243 0.69022
 H457 H 0.31589 0.87045 0.57788
 H458 H 0.31285 0.80889 0.53933
 H459 H 0.44182 0.80385 0.59277
 C460 C 0.10888 0.53196 0.65244
 C461 C 0.14228 0.51198 0.65239
 C462 C 0.14187 0.48311 0.67622
 C463 C 0.10480 0.47375 0.70104
 C464 C 0.06765 0.49198 0.70144
 C465 C 0.07074 0.52231 0.67671
 O466 O 0.11802 0.56037 0.62803
 C467 C 0.15769 0.55773 0.61214
 C468 C 0.17347 0.52816 0.62605
 C469 C 0.21388 0.51965 0.61359
 C470 C 0.23939 0.54266 0.58562
 C471 C 0.22496 0.57422 0.57082
 C472 C 0.18344 0.58194 0.58439
 H473 H 0.16927 0.46840 0.67578
 H474 H 0.10352 0.45052 0.71951
 H475 H 0.04695 0.54032 0.67689
 H476 H 0.22552 0.49622 0.62505
 H477 H 0.27160 0.53683 0.57589
 H478 H 0.17167 0.60590 0.57375
 C479 C 0.49041 0.57989 0.85455
 C480 C 0.54193 0.61034 0.87078
 C481 C 0.59492 0.62032 0.86022
 C482 C 0.59497 0.59864 0.83154
 C483 C 0.54281 0.56844 0.81405
 C484 C 0.48967 0.55852 0.82578
 O485 O 0.44525 0.57638 0.86835
 C486 C 0.46885 0.60557 0.89370
 C487 C 0.52799 0.62760 0.89612
 C488 C 0.56219 0.66241 0.91971
 C489 C 0.53431 0.67511 0.94168
 C490 C 0.47328 0.65219 0.93998
 C491 C 0.43996 0.61654 0.91581
 H492 H 0.63491 0.64459 0.87334
 H493 H 0.63579 0.60656 0.82245
 H494 H 0.44952 0.53600 0.81255
 H495 H 0.60882 0.67998 0.92080
 H496 H 0.56006 0.70262 0.96008
 H497 H 0.39349 0.59943 0.91372
 C498 C 0.11357 0.51037 0.85300
 C499 C 0.08621 0.52673 0.87167
 C500 C 0.03688 0.52465 0.86277
 C501 C 0.01435 0.50463 0.83338
 C502 C 0.03956 0.48514 0.81376
 C503 C 0.09057 0.48859 0.82371
 O504 O 0.16324 0.52064 0.86519
 C505 C 0.16697 0.54395 0.89207
 C506 C 0.12047 0.54809 0.89699
 C507 C 0.11609 0.57330 0.92248
 C508 C 0.16212 0.59628 0.94369
 C509 C 0.21178 0.59420 0.93914
 C510 C 0.21370 0.56654 0.91320
 H511 H 0.01775 0.53988 0.87747
 H512 H -0.02168 0.50609 0.82550
 H513 H 0.11219 0.47585 0.80894
 H514 H 0.07913 0.57628 0.92558
 H515 H 0.15959 0.61684 0.96345
 H516 H 0.25141 0.56507 0.90884
 C517 C 0.42923 0.89500 0.84289
 C518 C 0.47282 0.88624 0.84114
 C519 C 0.51161 0.90232 0.81672
 C520 C 0.50551 0.92899 0.79329
 C521 C 0.46213 0.93987 0.79521
 C522 C 0.42315 0.92229 0.82020
 O523 O 0.39646 0.87580 0.86775
 C524 C 0.42009 0.85476 0.88212
 C525 C 0.46731 0.86055 0.86697
 C526 C 0.49971 0.84284 0.87847
 C527 C 0.48249 0.81793 0.90673
 C528 C 0.43311 0.81049 0.92233
 C529 C 0.40141 0.82907 0.90981
 H530 H 0.54531 0.89469 0.81577
 H531 H 0.53541 0.94249 0.77409
 H532 H 0.38957 0.93003 0.82194
 H533 H 0.53698 0.84823 0.86624
 H534 H 0.50681 0.80356 0.91617
 H535 H 0.36389 0.82424 0.92147
 C536 C 0.58174 0.45002 0.84256
 C537 C 0.52552 0.41539 0.85233
 C538 C 0.47695 0.40901 0.83807
 C539 C 0.48668 0.43982 0.81281
 C540 C 0.54408 0.47582 0.80230
 C541 C 0.59238 0.48084 0.81722
 O542 O 0.62167 0.45118 0.86011
 C543 C 0.58992 0.41655 0.88136
 C544 C 0.53089 0.39359 0.87754
 C545 C 0.48963 0.35720 0.89751
 C546 C 0.50991 0.34398 0.92257
 C547 C 0.57067 0.36721 0.92737
 C548 C 0.61119 0.40388 0.90618
 H549 H 0.43321 0.38190 0.84641
 H550 H 0.44971 0.43636 0.80163
 H551 H 0.63663 0.50883 0.80988
 H552 H 0.44340 0.33988 0.89406
 H553 H 0.47806 0.31584 0.93834
 H554 H 0.65779 0.42261 0.90915
 C555 C 0.84517 0.38790 0.84240
 C556 C 0.84937 0.34889 0.85299
 C557 C 0.88428 0.33499 0.83893
 C558 C 0.91700 0.36308 0.81335
 C559 C 0.91335 0.40339 0.80204
 C560 C 0.87556 0.41495 0.81624
 O561 O 0.81359 0.39796 0.86054
 C562 C 0.79736 0.36452 0.88295
 C563 C 0.81746 0.33314 0.87926
 C564 C 0.80631 0.29598 0.90044
 C565 C 0.77340 0.29122 0.92656
 C566 C 0.75390 0.32434 0.93134
 C567 C 0.76580 0.36123 0.90904
 H568 H 0.88787 0.30491 0.84801
 H569 H 0.94620 0.35434 0.80266
 H570 H 0.87301 0.44626 0.80837
 H571 H 0.82269 0.27179 0.89708
 H572 H 0.76449 0.26282 0.94345
 H573 H 0.75115 0.38683 0.91199
 C574 C 0.48786 0.09140 0.85369
 C575 C 0.53288 0.09097 0.86647
 C576 C 0.56051 0.07061 0.85144
 C577 C 0.54024 0.04881 0.82205
 C578 C 0.49170 0.04589 0.80879
 C579 C 0.46584 0.06852 0.82463
 O580 O 0.47010 0.11530 0.87158
 C581 C 0.50459 0.12989 0.89624
 C582 C 0.54315 0.11524 0.89416
 C583 C 0.58324 0.12587 0.91698
 C584 C 0.58441 0.15343 0.94306
 C585 C 0.54654 0.17075 0.94580
 C586 C 0.50566 0.15851 0.92198
 H587 H 0.59699 0.07218 0.86178
 H588 H 0.56243 0.03422 0.80957
 H589 H 0.42960 0.06787 0.81474
 H590 H 0.61300 0.11378 0.91469
 H591 H 0.61653 0.16270 0.96069
 H592 H 0.47660 0.17147 0.92322
   
