data_POSCAR
  _audit_creation_date              2014-09-24
  _audit_creation_method            'ToBaCCo'
  _symmetry_space_group_name_H-M    'P1'
  _symmetry_Int_Tables_number       1
  _symmetry_cell_setting            triclinic
  loop_
  _symmetry_equiv_pos_as_xyz
 x,y,z
_cell_length_a 50.1707
_cell_length_b 50.3504
_cell_length_c 18.1503
_cell_angle_alpha 90.074200
_cell_angle_beta 90.047900
_cell_angle_gamma 120.556900
loop_
  _atom_site_label
  _atom_site_type_symbol
  _atom_site_fract_x
  _atom_site_fract_y
  _atom_site_fract_z
C1 C 0.16864 0.47561 0.43977
 C2 C 0.15833 0.47933 0.50888
 C3 C 0.16652 0.47095 0.57504
 C4 C 0.18747 0.45988 0.57289
 C5 C 0.20014 0.45806 0.50424
 C6 C 0.19066 0.46577 0.43751
 C7 C 0.20545 0.46594 0.37138
 C8 C 0.22786 0.45745 0.36992
 C9 C 0.23702 0.44915 0.43476
 C10 C 0.22336 0.44972 0.50266
 C11 C 0.19788 0.45278 0.63783
 C12 C 0.21982 0.44380 0.63582
 C13 C 0.23388 0.44332 0.56937
 C14 C 0.25764 0.43582 0.56770
 C15 C 0.26895 0.43310 0.49917
 C16 C 0.26009 0.44099 0.43369
 H17 H 0.20063 0.47361 0.32015
 H18 H 0.23825 0.45778 0.31742
 H19 H 0.18980 0.45473 0.69157
 H20 H 0.22586 0.43748 0.68747
 H21 H 0.14104 0.48620 0.51112
 H22 H 0.28784 0.42847 0.49700
 C23 C 0.52448 -0.31332 0.43167
 C24 C 0.52015 -0.32873 0.49831
 C25 C 0.52281 -0.31459 0.56675
 C26 C 0.53006 -0.28333 0.56811
 C27 C 0.53446 -0.26724 0.50050
 C28 C 0.53175 -0.28230 0.43214
 C29 C 0.53479 -0.26653 0.36606
 C30 C 0.53987 -0.23672 0.36651
 C31 C 0.54191 -0.22156 0.43305
 C32 C 0.53960 -0.23668 0.50093
 C33 C 0.53005 -0.26869 0.63418
 C34 C 0.53517 -0.23883 0.63461
 C35 C 0.54027 -0.22216 0.56891
 C36 C 0.54284 -0.19269 0.56831
 C37 C 0.54478 -0.17858 0.50034
 C38 C 0.54448 -0.19233 0.43339
 H39 H 0.53238 -0.27738 0.31307
 H40 H 0.54129 -0.22600 0.31389
 H41 H 0.52466 -0.28057 0.68639
 H42 H 0.53364 -0.22958 0.68715
 H43 H 0.51528 -0.35235 0.49654
 H44 H 0.54666 -0.15612 0.49927
 C45 C 1.28963 0.84934 0.43336
 C46 C 1.30500 0.85891 0.50118
 C47 C 1.28969 0.84920 0.56892
 C48 C 1.25734 0.82787 0.56917
 C49 C 1.24121 0.81693 0.50100
 C50 C 1.25726 0.82809 0.43289
 C51 C 1.24117 0.81524 0.36663
 C52 C 1.21035 0.79188 0.36666
 C53 C 1.19437 0.77985 0.43288
 C54 C 1.20958 0.79279 0.50087
 C55 C 1.24138 0.81468 0.63515
 C56 C 1.21057 0.79127 0.63489
 C57 C 1.19421 0.77960 0.56860
 C58 C 1.16407 0.75306 0.56753
 C59 C 1.14966 0.74101 0.49960
 C60 C 1.16429 0.75372 0.43286
 H61 H 1.25253 0.82189 0.31374
 H62 H 1.19947 0.78246 0.31398
 H63 H 1.25289 0.82102 0.68800
 H64 H 1.20020 0.78152 0.68755
 H65 H 1.32961 0.87581 0.50125
 H66 H 1.12706 0.72010 0.49851
 C67 C 0.69693 0.54225 0.56504
 C68 C 0.68279 0.53934 0.49645
 C69 C 0.69758 0.54099 0.43017
 C70 C 0.72764 0.54532 0.43124
 C71 C 0.74273 0.54856 0.49988
 C72 C 0.72762 0.54761 0.56712
 C73 C 0.74242 0.54896 0.63408
 C74 C 0.77126 0.55134 0.63548
 C75 C 0.78650 0.55194 0.57002
 C76 C 0.77193 0.55028 0.50137
 C77 C 0.74217 0.54466 0.36574
 C78 C 0.77039 0.54573 0.36733
 C79 C 0.78532 0.54793 0.43440
 C80 C 0.81248 0.54619 0.43668
 C81 C 0.82649 0.54796 0.50418
 C82 C 0.81428 0.55092 0.57105
 H83 H 0.73145 0.54698 0.68656
 H84 H 0.78067 0.55108 0.68888
 H85 H 0.73133 0.54218 0.31263
 H86 H 0.78006 0.54407 0.31543
 H87 H 0.65938 0.53533 0.49445
 H88 H 0.84756 0.54686 0.50442
 C89 C 0.54100 0.20075 0.56712
 C90 C 0.54726 0.19172 0.49966
 C91 C 0.54311 0.20275 0.43258
 C92 C 0.53323 0.22454 0.43262
 C93 C 0.52670 0.23404 0.50071
 C94 C 0.53065 0.22215 0.56817
 C95 C 0.52407 0.23190 0.63469
 C96 C 0.51262 0.25189 0.63516
 C97 C 0.50859 0.26415 0.56927
 C98 C 0.51562 0.25499 0.50126
 C99 C 0.52992 0.23722 0.36673
 C100 C 0.51932 0.25798 0.36729
 C101 C 0.51154 0.26670 0.43376
 C102 C 0.49973 0.28682 0.43463
 C103 C 0.49104 0.29405 0.50129
 C104 C 0.49613 0.28397 0.56902
 H105 H 0.52744 0.22393 0.68727
 H106 H 0.50645 0.25715 0.68800
 H107 H 0.53561 0.23124 0.31410
 H108 H 0.51681 0.26683 0.31502
 H109 H 0.55367 0.17412 0.49920
 H110 H 0.48260 0.31008 0.50050
 C111 C 0.72532 0.18242 0.43592
 C112 C 0.71226 0.16852 0.50314
 C113 C 0.72539 0.18289 0.57007
 C114 C 0.75318 0.21172 0.57050
 C115 C 0.76720 0.22595 0.50261
 C116 C 0.75314 0.21121 0.43493
 C117 C 0.76651 0.22614 0.36831
 C118 C 0.79283 0.25540 0.36787
 C119 C 0.80683 0.27072 0.43407
 C120 C 0.79419 0.25576 0.50233
 C121 C 0.76645 0.22726 0.63670
 C122 C 0.79282 0.25649 0.63657
 C123 C 0.80736 0.27120 0.57021
 C124 C 0.83294 0.30193 0.56911
 C125 C 0.84454 0.31623 0.50080
 C126 C 0.83222 0.30122 0.43394
 H127 H 0.75637 0.21551 0.31587
 H128 H 0.80168 0.26617 0.31498
 H129 H 0.75610 0.21718 0.68929
 H130 H 0.80092 0.26775 0.68931
 H131 H 0.69039 0.14681 0.50335
 H132 H 0.86422 0.33961 0.49934
 N133 N 0.96547 0.55821 0.07057
 N134 N 0.94380 0.56541 0.08063
 N135 N 1.02904 0.57213 0.13086
 N136 N 1.05039 0.58706 0.18137
 N137 N 1.03028 0.59113 0.07961
 N138 N 1.05234 0.61973 0.09478
 N139 N 0.96390 0.53907 0.12176
 N140 N 0.94091 0.53240 0.16739
 C141 C 0.92841 0.54877 0.14078
 C142 C 1.06484 0.61665 0.15824
 N143 N 1.03050 0.49616 0.09021
 N144 N 1.05260 0.49047 0.10929
 N145 N 0.96404 0.48208 0.12821
 N146 N 0.94140 0.46708 0.17566
 N147 N 0.96551 0.46285 0.08168
 N148 N 0.94403 0.43409 0.09721
 N149 N 1.02909 0.51520 0.13744
 N150 N 1.05026 0.52321 0.18914
 Mn151 Mn 0.99647 0.52710 0.13019
 C152 C 1.06490 0.50781 0.17097
 C153 C 0.92890 0.43723 0.15549
 N154 N 1.03397 0.59078 -0.08018
 N155 N 1.05473 0.61953 -0.09845
 N156 N 0.97027 0.53820 -0.13483
 N157 N 0.94731 0.52759 -0.18226
 N158 N 0.96877 0.55729 -0.08808
 N159 N 0.94458 0.56032 -0.10305
 N160 N 1.03510 0.57130 -0.12631
 N161 N 1.05667 0.58599 -0.17612
 Mn162 Mn 0.99967 0.57477 -0.00454
 C163 C 1.06906 0.61599 -0.15799
 C164 C 0.93144 0.54148 -0.16219
 N165 N 0.96908 0.46242 -0.07813
 N166 N 0.94682 0.43390 -0.09397
 N167 N 1.03530 0.51490 -0.11983
 N168 N 1.05819 0.52238 -0.16595
 N169 N 1.03419 0.49559 -0.06971
 N170 N 1.05624 0.48895 -0.08161
 N171 N 0.97044 0.48166 -0.12875
 N172 N 0.94920 0.46709 -0.17951
 Mn173 Mn 0.99983 0.47883 0.00610
 Mn174 Mn 1.00280 0.52652 -0.12775
 Cl175 Cl 0.99971 0.52680 0.00113
 C176 C 0.93447 0.43741 -0.15736
 C177 C 1.07127 0.50634 -0.14148
 N178 N 0.47574 0.50514 -0.13118
 N179 N 0.46804 0.51856 -0.18229
 N180 N 0.53116 0.49785 -0.08240
 N181 N 0.56036 0.50752 -0.09965
 N182 N 0.51240 0.47764 -0.13105
 N183 N 0.52807 0.47261 -0.18159
 N184 N 0.49464 0.52550 -0.08291
 N185 N 0.50053 0.55347 -0.10061
 C186 C 0.48334 0.54862 -0.16233
 C187 C 0.55790 0.49110 -0.16134
 N188 N 0.51325 0.47929 0.12824
 N189 N 0.52928 0.47384 0.17708
 N190 N 0.49520 0.52651 0.07671
 N191 N 0.50115 0.55470 0.09203
 N192 N 0.47651 0.50686 0.12622
 N193 N 0.46891 0.52101 0.17576
 N194 N 0.53159 0.49877 0.07802
 N195 N 0.56081 0.50755 0.09239
 Mn196 Mn 0.51354 0.51252 -0.00261
 C197 C 0.55884 0.49141 0.15406
 C198 C 0.48416 0.55075 0.15345
 N199 N 0.45807 0.41783 -0.12912
 N200 N 0.46672 0.40425 -0.17775
 N201 N 0.40303 0.42489 -0.07952
 N202 N 0.37352 0.41389 -0.09530
 N203 N 0.42083 0.44493 -0.12944
 N204 N 0.40398 0.44839 -0.18007
 N205 N 0.44023 0.39813 -0.07871
 N206 N 0.43579 0.37037 -0.09243
 Mn207 Mn 0.46672 0.46142 -0.13073
 C208 C 0.45296 0.37483 -0.15371
 C209 C 0.37463 0.42928 -0.15736
 N210 N 0.42154 0.44669 0.12782
 N211 N 0.40507 0.45278 0.17407
 N212 N 0.44079 0.39917 0.08054
 N213 N 0.43885 0.37230 0.09191
 N214 N 0.45883 0.41947 0.12990
 N215 N 0.47008 0.40721 0.17538
 N216 N 0.40350 0.42598 0.07916
 N217 N 0.37419 0.41710 0.09154
 Mn218 Mn 0.46747 0.46310 0.12876
 Mn219 Mn 0.42161 0.41168 0.00046
 Cl220 Cl 0.46735 0.46223 -0.00104
 C221 C 0.37560 0.43424 0.15062
 C222 C 0.45742 0.37782 0.15121
 N223 N 0.45674 -0.03198 0.08199
 N224 N 0.42735 -0.05158 0.09800
 N225 N 0.51343 0.03133 0.13073
 N226 N 0.52442 0.05523 0.17577
 N227 N 0.49465 0.03248 0.08215
 N228 N 0.49211 0.05702 0.09312
 N229 N 0.47497 -0.03344 0.13169
 N230 N 0.45870 -0.05437 0.18169
 C231 C 0.42909 -0.06569 0.16000
 C232 C 0.51096 0.07107 0.15145
 N233 N 0.58454 0.02118 0.08115
 N234 N 0.61400 0.04213 0.09188
 N235 N 0.52803 -0.04025 0.13072
 N236 N 0.51776 -0.06283 0.17890
 N237 N 0.54523 -0.04324 0.08063
 N238 N 0.54765 -0.06774 0.09466
 N239 N 0.56702 0.02433 0.12992
 N240 N 0.58393 0.04757 0.17463
 Mn241 Mn 0.52096 -0.00438 0.13149
 C242 C 0.61315 0.05848 0.15030
 C243 C 0.53000 -0.07988 0.15588
 N244 N 0.49463 0.03306 -0.07566
 N245 N 0.49136 0.05716 -0.08690
 N246 N 0.47507 -0.03238 -0.12873
 N247 N 0.45889 -0.05318 -0.17927
 N248 N 0.45679 -0.03139 -0.07851
 N249 N 0.42743 -0.05120 -0.09464
 N250 N 0.51352 0.03226 -0.12434
 N251 N 0.52390 0.05591 -0.16962
 Mn252 Mn 0.47526 0.00039 0.00252
 C253 C 0.51001 0.07131 -0.14534
 C254 C 0.42928 -0.06491 -0.15737
 N255 N 0.54517 -0.04268 -0.08048
 N256 N 0.54740 -0.06716 -0.09705
 N257 N 0.56709 0.02546 -0.12527
 N258 N 0.58402 0.04896 -0.16905
 N259 N 0.58459 0.02185 -0.07730
 N260 N 0.61408 0.04276 -0.08763
 N261 N 0.52816 -0.03897 -0.12973
 N262 N 0.51799 -0.06079 -0.17988
 Mn263 Mn 0.56517 -0.01096 0.00100
 Mn264 Mn 0.52106 -0.00326 -0.12762
 Cl265 Cl 0.52057 -0.00465 0.00188
 C266 C 0.52989 -0.07837 -0.15913
 C267 C 0.61325 0.05957 -0.14494
 C268 C 1.14275 0.45848 0.31891
 C269 C 1.15505 0.48046 0.37629
 C270 C 1.14973 0.50539 0.37428
 C271 C 1.13129 0.50748 0.31929
 C272 C 1.11810 0.48467 0.26376
 C273 C 1.12465 0.46069 0.26306
 C274 C 1.09753 0.48556 0.21221
 C275 C 1.08965 0.50864 0.21706
 C276 C 1.10398 0.53182 0.27085
 C277 C 1.12473 0.53137 0.32115
 H278 H 1.15940 0.52293 0.41697
 H279 H 1.11468 0.44289 0.22115
 H280 H 1.08658 0.46757 0.17095
 H281 H 1.13482 0.54914 0.36312
 H282 H 1.14534 0.43840 0.31969
 H283 H 1.09858 0.55004 0.27521
 C284 C 0.54452 0.67606 0.31505
 C285 C 0.51986 0.66849 0.36346
 C286 C 0.49167 0.64085 0.35304
 C287 C 0.48861 0.62004 0.29780
 C288 C 0.51375 0.62736 0.25027
 C289 C 0.54134 0.65583 0.25814
 C290 C 0.51142 0.60536 0.19882
 C291 C 0.48480 0.57582 0.19688
 C292 C 0.45971 0.56919 0.24290
 C293 C 0.46141 0.59125 0.29226
 H294 H 0.47271 0.63481 0.39090
 H295 H 0.56091 0.66181 0.22250
 H296 H 0.53100 0.61047 0.16395
 H297 H 0.44196 0.58530 0.32828
 H298 H 0.56657 0.69705 0.32313
 H299 H 0.43896 0.54659 0.24190
 C300 C 0.30139 -0.12395 0.31356
 C301 C 0.30800 -0.13927 0.36914
 C302 C 0.33568 -0.13990 0.36458
 C303 C 0.35696 -0.12452 0.30816
 C304 C 0.35081 -0.10808 0.25429
 C305 C 0.32257 -0.10858 0.25650
 C306 C 0.37368 -0.09027 0.20180
 C307 C 0.40263 -0.08838 0.20433
 C308 C 0.40767 -0.10613 0.25596
 C309 C 0.38501 -0.12416 0.30712
 H310 H 0.34100 -0.15190 0.40645
 H311 H 0.31740 -0.09609 0.21585
 H312 H 0.36966 -0.07657 0.16222
 H313 H 0.38991 -0.13688 0.34773
 H314 H 0.28071 -0.12230 0.31654
 H315 H 0.42966 -0.10529 0.25835
 C316 C 0.82512 0.51114 0.36939
 C317 C 0.82579 0.53933 0.37169
 C318 C 0.84335 0.56227 0.31966
 C319 C 0.86169 0.55769 0.26848
 C320 C 0.86227 0.52988 0.26978
 C321 C 0.84315 0.50639 0.31874
 C322 C 0.88313 0.52661 0.22494
 C323 C 0.90342 0.55068 0.17845
 C324 C 0.90139 0.57743 0.17371
 C325 C 0.88075 0.58099 0.21871
 H326 H 0.84412 0.58416 0.32200
 H327 H 0.84316 0.48487 0.32005
 H328 H 0.88438 0.50576 0.22819
 H329 H 0.88048 0.60235 0.21643
 H330 H 0.81180 0.49337 0.40960
 H331 H 0.91682 0.59621 0.13796
 C332 C 0.52416 0.33448 0.36008
 C333 C 0.49954 0.30419 0.36935
 C334 C 0.47293 0.29310 0.32535
 C335 C 0.47026 0.31287 0.27513
 C336 C 0.49449 0.34395 0.26954
 C337 C 0.52172 0.35424 0.31040
 C338 C 0.49051 0.36466 0.22615
 C339 C 0.46276 0.35479 0.18762
 C340 C 0.43958 0.32353 0.18939
 C341 C 0.44321 0.30272 0.23328
 H342 H 0.45378 0.26979 0.33334
 H343 H 0.54056 0.37792 0.30636
 H344 H 0.50865 0.38873 0.22418
 H345 H 0.42449 0.27896 0.23634
 H346 H 0.54461 0.34331 0.39445
 H347 H 0.41806 0.31554 0.15977
 C348 C 0.67955 0.16936 0.35904
 C349 C 0.70636 0.16771 0.36965
 C350 C 0.71161 0.14786 0.32570
 C351 C 0.68905 0.12821 0.27458
 C352 C 0.66119 0.12870 0.26782
 C353 C 0.65715 0.15007 0.30833
 C354 C 0.63711 0.10669 0.22389
 C355 C 0.64040 0.08420 0.18619
 C356 C 0.66878 0.08505 0.18890
 C357 C 0.69294 0.10683 0.23319
 H358 H 0.73220 0.14640 0.33462
 H359 H 0.63605 0.15085 0.30334
 H360 H 0.61533 0.10634 0.22118
 H361 H 0.71418 0.10625 0.23712
 H362 H 0.67521 0.18442 0.39319
 H363 H 0.67170 0.06789 0.15989
 C364 C 0.56951 0.18306 -0.35315
 C365 C 0.54264 0.18442 -0.36658
 C366 C 0.51586 0.16584 -0.32503
 C367 C 0.51545 0.14498 -0.27325
 C368 C 0.54201 0.14234 -0.26390
 C369 C 0.56920 0.16216 -0.30230
 C370 C 0.54043 0.11892 -0.21922
 C371 C 0.51284 0.09846 -0.18285
 C372 C 0.48726 0.10256 -0.18809
 C373 C 0.48845 0.12552 -0.23355
 H374 H 0.49487 0.16630 -0.33621
 H375 H 0.58982 0.16064 -0.29522
 H376 H 0.56034 0.11598 -0.21453
 H377 H 0.46799 0.12741 -0.23950
 H378 H 0.59028 0.19710 -0.38503
 H379 H 0.46582 0.08696 -0.16017
 C380 C 0.68626 0.55773 -0.31455
 C381 C 0.67822 0.53611 -0.37192
 C382 C 0.64927 0.50873 -0.36969
 C383 C 0.62833 0.50325 -0.31295
 C384 C 0.63591 0.52553 -0.25697
 C385 C 0.66524 0.55248 -0.25754
 C386 C 0.61350 0.52092 -0.20370
 C387 C 0.58375 0.49449 -0.20716
 C388 C 0.57734 0.47190 -0.26093
 C389 C 0.59940 0.47620 -0.31320
 H390 H 0.64289 0.49171 -0.41318
 H391 H 0.67155 0.56988 -0.21523
 H392 H 0.61863 0.53845 -0.16239
 H393 H 0.59343 0.45878 -0.35534
 H394 H 0.70812 0.57933 -0.31573
 H395 H 0.55476 0.45118 -0.26414
 C396 C 0.85907 0.30991 -0.31076
 C397 C 0.84676 0.31984 -0.36698
 C398 C 0.85147 0.34981 -0.36299
 C399 C 0.86899 0.36993 -0.30622
 C400 C 0.88252 0.36040 -0.25177
 C401 C 0.87680 0.33004 -0.25366
 C402 C 0.90261 0.38189 -0.19896
 C403 C 0.90942 0.41266 -0.20160
 C404 C 0.89431 0.42109 -0.25366
 C405 C 0.87425 0.39996 -0.30527
 H406 H 0.84181 0.35770 -0.40532
 H407 H 0.88692 0.32221 -0.21256
 H408 H 0.91418 0.37520 -0.15901
 H409 H 0.86375 0.40747 -0.34619
 H410 H 0.85650 0.28722 -0.31323
 H411 H 0.89886 0.44452 -0.25620
 C412 C 0.56249 -0.16933 -0.30941
 C413 C 0.54121 -0.17747 -0.36786
 C414 C 0.51991 -0.16719 -0.36605
 C415 C 0.52046 -0.14820 -0.30919
 C416 C 0.54292 -0.13863 -0.25268
 C417 C 0.56341 -0.14995 -0.25244
 C418 C 0.54519 -0.11696 -0.19980
 C419 C 0.52531 -0.10491 -0.20405
 C420 C 0.50193 -0.11631 -0.25802
 C421 C 0.49953 -0.13768 -0.31001
 H422 H 0.50308 -0.17364 -0.41015
 H423 H 0.58076 -0.14304 -0.20960
 H424 H 0.56322 -0.10840 -0.15824
 H425 H 0.48192 -0.14517 -0.35244
 H426 H 0.57955 -0.17646 -0.30999
 H427 H 0.48597 -0.10786 -0.26182
 C428 C 0.28589 0.46020 -0.31853
 C429 C 0.27375 0.43535 -0.36876
 C430 C 0.28190 0.41255 -0.36043
 C431 C 0.30235 0.41492 -0.30462
 C432 C 0.31549 0.44079 -0.25706
 C433 C 0.30656 0.46290 -0.26340
 C434 C 0.33832 0.44475 -0.20620
 C435 C 0.34759 0.42285 -0.20160
 C436 C 0.33333 0.39642 -0.24604
 C437 C 0.31089 0.39249 -0.29751
 H438 H 0.27269 0.39319 -0.39833
 H439 H 0.31642 0.48287 -0.22744
 H440 H 0.34956 0.46524 -0.17190
 H441 H 0.30091 0.37242 -0.33317
 H442 H 0.28111 0.47877 -0.32491
 H443 H 0.34058 0.37952 -0.24315
 C444 C 1.13986 0.74428 -0.30994
 C445 C 1.15036 0.73444 -0.37009
 C446 C 1.14513 0.70428 -0.37054
 C447 C 1.12911 0.68391 -0.31322
 C448 C 1.11723 0.69323 -0.25441
 C449 C 1.12323 0.72373 -0.25268
 C450 C 1.09875 0.67153 -0.20033
 C451 C 1.09225 0.64088 -0.20534
 C452 C 1.10592 0.63274 -0.26187
 C453 C 1.12405 0.65397 -0.31534
 H454 H 1.15347 0.69661 -0.41633
 H455 H 1.11450 0.73145 -0.20802
 H456 H 1.08843 0.67807 -0.15678
 H457 H 1.13341 0.64668 -0.35958
 H458 H 1.14342 0.76738 -0.30881
 H459 H 1.10170 0.60946 -0.26645
 C460 C 0.84109 0.57460 -0.31235
 C461 C 0.82944 0.55033 -0.36399
 C462 C 0.83686 0.52709 -0.35573
 C463 C 0.85714 0.52894 -0.30066
 C464 C 0.87047 0.55437 -0.25181
 C465 C 0.86150 0.57661 -0.25668
 C466 C 0.89364 0.55778 -0.20210
 C467 C 0.90364 0.53623 -0.20253
 C468 C 0.88865 0.51016 -0.24837
 C469 C 0.86556 0.50647 -0.29674
 H470 H 0.82760 0.50797 -0.39442
 H471 H 0.87130 0.59622 -0.21962
 H472 H 0.90504 0.57790 -0.16671
 H473 H 0.85523 0.48667 -0.33330
 H474 H 0.83612 0.59307 -0.31803
 H475 H 0.89557 0.49299 -0.24875
 C476 C 0.51468 0.31276 -0.31527
 C477 C 0.49071 0.29622 -0.36654
 C478 C 0.46261 0.29583 -0.35804
 C479 C 0.45875 0.31226 -0.30079
 C480 C 0.48362 0.33021 -0.25230
 C481 C 0.51121 0.32972 -0.25891
 C482 C 0.48096 0.34947 -0.20054
 C483 C 0.45354 0.35036 -0.19593
 C484 C 0.42828 0.33108 -0.24095
 C485 C 0.43088 0.31218 -0.29334
 H486 H 0.44390 0.28309 -0.39697
 H487 H 0.53049 0.34329 -0.22212
 H488 H 0.50054 0.36466 -0.16600
 H489 H 0.41152 0.29838 -0.32972
 H490 H 0.53688 0.31427 -0.32167
 H491 H 0.40716 0.33194 -0.23832
 C492 C 0.67987 0.17035 -0.35284
 C493 C 0.70658 0.16853 -0.36346
 C494 C 0.71178 0.14868 -0.31949
 C495 C 0.68923 0.12916 -0.26843
 C496 C 0.66146 0.12980 -0.26166
 C497 C 0.65750 0.15121 -0.30210
 C498 C 0.63737 0.10787 -0.21787
 C499 C 0.64055 0.08530 -0.18041
 C500 C 0.66887 0.08602 -0.18311
 C501 C 0.69305 0.10774 -0.22718
 H502 H 0.73227 0.14708 -0.32845
 H503 H 0.63645 0.15211 -0.29713
 H504 H 0.61564 0.10762 -0.21519
 H505 H 0.71423 0.10704 -0.23113
 H506 H 0.67556 0.18541 -0.38704
 H507 H 0.67173 0.06880 -0.15429
 C508 C 1.13573 0.44856 -0.31237
 C509 C 1.15293 0.47387 -0.35952
 C510 C 1.15339 0.50156 -0.34540
 C511 C 1.13636 0.50381 -0.28726
 C512 C 1.11817 0.47795 -0.24193
 C513 C 1.11861 0.45063 -0.25397
 C514 C 1.09855 0.47943 -0.18859
 C515 C 1.09662 0.50624 -0.18210
 C516 C 1.11624 0.53226 -0.22457
 C517 C 1.13607 0.53114 -0.27634
 H518 H 1.16662 0.52131 -0.38100
 H519 H 1.10475 0.43050 -0.22012
 H520 H 1.08328 0.45921 -0.15639
 H521 H 1.15011 0.55124 -0.31019
 H522 H 1.13412 0.42662 -0.32314
 H523 H 1.11523 0.55319 -0.21999
 C524 C 0.53866 0.67665 -0.31115
 C525 C 0.51723 0.66703 -0.36968
 C526 C 0.49151 0.63681 -0.36848
 C527 C 0.48790 0.61620 -0.31253
 C528 C 0.51013 0.62563 -0.25559
 C529 C 0.53505 0.65617 -0.25449
 C530 C 0.50772 0.60393 -0.20310
 C531 C 0.48371 0.57295 -0.20844
 C532 C 0.46108 0.56438 -0.26347
 C533 C 0.46304 0.58581 -0.31478
 H534 H 0.47451 0.62908 -0.41249
 H535 H 0.55241 0.66385 -0.21144
 H536 H 0.52531 0.61073 -0.16086
 H537 H 0.44570 0.57833 -0.35785
 H538 H 0.55919 0.69940 -0.31142
 H539 H 0.44221 0.54075 -0.26820
 C540 C 0.30126 -0.12440 -0.31065
 C541 C 0.30809 -0.13940 -0.36673
 C542 C 0.33596 -0.13967 -0.36244
 C543 C 0.35725 -0.12417 -0.30591
 C544 C 0.35089 -0.10803 -0.25157
 C545 C 0.32244 -0.10894 -0.25345
 C546 C 0.37374 -0.09008 -0.19896
 C547 C 0.40289 -0.08775 -0.20186
 C548 C 0.40815 -0.10522 -0.25397
 C549 C 0.38550 -0.12340 -0.30523
 H550 H 0.34143 -0.15145 -0.40464
 H551 H 0.31711 -0.09669 -0.21243
 H552 H 0.36956 -0.07660 -0.15900
 H553 H 0.39057 -0.13589 -0.34620
 H554 H 0.28040 -0.12305 -0.31336
 H555 H 0.43030 -0.10406 -0.25664
 C556 C 0.57010 -0.16160 0.31937
 C557 C 0.54414 -0.17612 0.36558
 C558 C 0.51897 -0.17190 0.35298
 C559 C 0.52029 -0.15197 0.29753
 C560 C 0.54691 -0.13644 0.25254
 C561 C 0.57138 -0.14208 0.26271
 C562 C 0.54923 -0.11432 0.20141
 C563 C 0.52571 -0.10699 0.19717
 C564 C 0.49894 -0.12351 0.24015
 C565 C 0.49609 -0.14602 0.28930
 H566 H 0.49904 -0.18293 0.38916
 H567 H 0.59198 -0.13043 0.22895
 H568 H 0.57007 -0.10144 0.16886
 H569 H 0.47551 -0.15780 0.32317
 H570 H 0.58980 -0.16446 0.32902
 H571 H 0.48048 -0.11832 0.23730
 C572 C 0.30627 0.47514 0.35907
 C573 C 0.27991 0.44595 0.36897
 C574 C 0.27595 0.42093 0.32630
 C575 C 0.29908 0.42479 0.27646
 C576 C 0.32649 0.45392 0.27026
 C577 C 0.32943 0.47913 0.31008
 C578 C 0.35104 0.45704 0.22695
 C579 C 0.34843 0.43160 0.18866
 C580 C 0.32048 0.40325 0.19121
 C581 C 0.29605 0.39978 0.23533
 H582 H 0.25572 0.39832 0.33475
 H583 H 0.35016 0.50163 0.30557
 H584 H 0.37248 0.47907 0.22439
 H585 H 0.27515 0.37737 0.23885
 H586 H 0.30969 0.49447 0.39250
 H587 H 0.31806 0.38341 0.16179
 C588 C 1.13314 0.74300 0.31657
 C589 C 1.14952 0.73514 0.36598
 C590 C 1.14899 0.70724 0.35713
 C591 C 1.13086 0.68639 0.30200
 C592 C 1.11351 0.69379 0.25345
 C593 C 1.11543 0.72254 0.26009
 C594 C 1.09335 0.67164 0.20210
 C595 C 1.08971 0.64204 0.20114
 C596 C 1.10790 0.63548 0.24798
 C597 C 1.12855 0.65755 0.29740
 H598 H 1.16150 0.70115 0.39587
 H599 H 1.10232 0.72866 0.22355
 H600 H 1.07915 0.67672 0.16651
 H601 H 1.14176 0.65160 0.33411
 H602 H 1.13325 0.76443 0.32331
 H603 H 1.10555 0.61286 0.24768
 C604 C 0.57209 0.18491 0.35496
 C605 C 0.54570 0.18744 0.36522
 C606 C 0.51941 0.16965 0.32125
 C607 C 0.51861 0.14776 0.27189
 C608 C 0.54443 0.14366 0.26654
 C609 C 0.57147 0.16319 0.30604
 C610 C 0.54217 0.11910 0.22492
 C611 C 0.51463 0.09893 0.18763
 C612 C 0.48989 0.10446 0.18893
 C613 C 0.49175 0.12855 0.23127
 H614 H 0.49879 0.17109 0.32976
 H615 H 0.59159 0.16064 0.30191
 H616 H 0.56150 0.11514 0.22317
 H617 H 0.47184 0.13152 0.23415
 H618 H 0.59250 0.19834 0.38868
 H619 H 0.46853 0.08921 0.16008
 C620 C 0.68553 0.55865 0.31201
 C621 C 0.67906 0.53489 0.36201
 C622 C 0.65225 0.50599 0.35285
 C623 C 0.63096 0.50126 0.29714
 C624 C 0.63687 0.52557 0.24841
 C625 C 0.66468 0.55394 0.25506
 C626 C 0.61406 0.52161 0.19707
 C627 C 0.58522 0.49406 0.19620
 C628 C 0.58026 0.46971 0.24280
 C629 C 0.60303 0.47315 0.29230
 H630 H 0.64718 0.48773 0.39194
 H631 H 0.66966 0.57286 0.21835
 H632 H 0.61792 0.54054 0.16160
 H633 H 0.59824 0.45428 0.32902
 H634 H 0.70605 0.58116 0.31897
 H635 H 0.55827 0.44822 0.24249
 C636 C 0.86336 0.31203 0.31794
 C637 C 0.84606 0.31935 0.36588
 C638 C 0.84547 0.34661 0.35492
 C639 C 0.86333 0.36733 0.29939
 C640 C 0.88160 0.36045 0.25266
 C641 C 0.88078 0.33231 0.26119
 C642 C 0.90159 0.38256 0.20129
 C643 C 0.90416 0.41169 0.19829
 C644 C 0.88498 0.41767 0.24308
 C645 C 0.86454 0.39560 0.29266
 H646 H 0.83234 0.35239 0.39242
 H647 H 0.89462 0.32660 0.22608
 H648 H 0.91649 0.37787 0.16728
 H649 H 0.85061 0.40116 0.32787
 H650 H 0.86432 0.29124 0.32634
 H651 H 0.88644 0.43988 0.24123
   
