data_POSCAR
  _audit_creation_date              2014-09-24
  _audit_creation_method            'ToBaCCo'
  _symmetry_space_group_name_H-M    'P1'
  _symmetry_Int_Tables_number       1
  _symmetry_cell_setting            triclinic
  loop_
  _symmetry_equiv_pos_as_xyz
 x,y,z
_cell_length_a 57.1991
_cell_length_b 55.2132
_cell_length_c 53.1081
_cell_angle_alpha 89.083200
_cell_angle_beta 89.718700
_cell_angle_gamma 92.448700
loop_
  _atom_site_label
  _atom_site_type_symbol
  _atom_site_fract_x
  _atom_site_fract_y
  _atom_site_fract_z
N1 N 0.59536 0.66903 0.61303
 N2 N 0.58176 0.65439 0.62697
 C3 C 0.56230 0.66585 0.63323
 C4 C 0.56393 0.68901 0.62284
 C5 C 0.58516 0.69042 0.61019
 H6 H 0.54819 0.65806 0.64477
 H7 H 0.59232 0.70563 0.59916
 Cu8 Cu 0.59092 0.62204 0.63652
 Cu9 Cu 0.62423 0.65858 0.59789
 Cu10 Cu 0.64476 0.60473 0.62065
 N11 N 0.60557 0.59542 0.65386
 N12 N 0.62681 0.58920 0.64809
 C13 C 0.63311 0.57137 0.66385
 C14 C 0.61476 0.56589 0.68054
 C15 C 0.59750 0.58158 0.67339
 H16 H 0.64986 0.56308 0.66300
 H17 H 0.58060 0.58351 0.68214
 N18 N 0.66026 0.62349 0.59305
 N19 N 0.65284 0.64447 0.58483
 C20 C 0.66674 0.65265 0.56570
 C21 C 0.68359 0.63587 0.56154
 C22 C 0.67894 0.61764 0.57926
 H23 H 0.66421 0.66907 0.55489
 H24 H 0.68836 0.60122 0.58179
 H25 H 0.61810 0.62147 0.60122
 H26 H 0.63064 0.63753 0.62938
 N27 N 0.90655 0.33214 0.11371
 N28 N 0.91205 0.33867 0.13666
 C29 C 0.93020 0.32595 0.14467
 C30 C 0.93672 0.31065 0.12557
 C31 C 0.92123 0.31526 0.10614
 H32 H 0.93826 0.32815 0.16290
 H33 H 0.92014 0.30654 0.08809
 Cu34 Cu 0.89545 0.36354 0.15391
 Cu35 Cu 0.87986 0.34498 0.09608
 Cu36 Cu 0.85440 0.39413 0.12296
 N37 N 0.88453 0.39408 0.16605
 N38 N 0.86816 0.40572 0.15424
 C39 C 0.86355 0.42581 0.16708
 C40 C 0.87796 0.42693 0.18793
 C41 C 0.89110 0.40650 0.18662
 H42 H 0.85090 0.43883 0.16145
 H43 H 0.90423 0.40091 0.19982
 N44 N 0.84313 0.37954 0.09140
 N45 N 0.85259 0.36053 0.08136
 C46 C 0.84035 0.35405 0.06076
 C47 C 0.82246 0.36988 0.05754
 C48 C 0.82481 0.38584 0.07727
 H49 H 0.84411 0.33890 0.04898
 H50 H 0.81352 0.40048 0.08145
 H51 H 0.88511 0.37853 0.11242
 H52 H 0.86163 0.35780 0.12656
 N53 N 0.40351 0.16286 -0.11683
 N54 N 0.41644 0.14823 -0.12967
 C55 C 0.43714 0.15964 -0.13522
 C56 C 0.43713 0.18274 -0.12546
 C57 C 0.41547 0.18416 -0.11396
 H58 H 0.45110 0.15176 -0.14570
 H59 H 0.40919 0.19928 -0.10356
 Cu60 Cu 0.40522 0.11569 -0.13812
 Cu61 Cu 0.37303 0.15248 -0.10297
 Cu62 Cu 0.34997 0.09732 -0.12298
 N63 N 0.38973 0.08791 -0.15398
 N64 N 0.36815 0.08091 -0.14802
 C65 C 0.36137 0.06211 -0.16241
 C66 C 0.37967 0.05697 -0.17836
 C67 C 0.39746 0.07371 -0.17238
 H68 H 0.34425 0.05306 -0.16148
 H69 H 0.41446 0.07597 -0.18132
 N70 N 0.33431 0.11695 -0.09796
 N71 N 0.34263 0.13844 -0.09094
 C72 C 0.32795 0.14731 -0.07378
 C73 C 0.30965 0.13045 -0.06967
 C74 C 0.31428 0.11146 -0.08534
 H75 H 0.33077 0.16433 -0.06426
 H76 H 0.30382 0.09484 -0.08736
 H77 H 0.37689 0.11553 -0.10370
 H78 H 0.36615 0.13038 -0.13322
 N79 N 0.09892 0.83300 0.38511
 N80 N 0.08478 0.84795 0.37409
 C81 C 0.06447 0.83596 0.36880
 C82 C 0.06594 0.81196 0.37674
 C83 C 0.08823 0.81086 0.38692
 H84 H 0.05001 0.84412 0.35936
 H85 H 0.09587 0.79543 0.39595
 Cu86 Cu 0.09449 0.88136 0.36644
 Cu87 Cu 0.12904 0.84390 0.39886
 Cu88 Cu 0.14657 0.90357 0.38591
 N89 N 0.10984 0.90968 0.35026
 N90 N 0.13058 0.91785 0.35754
 C91 C 0.13761 0.93682 0.34280
 C92 C 0.12033 0.94081 0.32526
 C93 C 0.10287 0.92328 0.33062
 H94 H 0.15408 0.94697 0.34479
 H95 H 0.08663 0.92021 0.32059
 N96 N 0.16464 0.88203 0.40727
 N97 N 0.15850 0.85903 0.41158
 C98 C 0.17412 0.84945 0.42740
 C99 C 0.19081 0.86736 0.43337
 C100 C 0.18424 0.88772 0.42012
 H101 H 0.17283 0.83117 0.43501
 H102 H 0.19290 0.90551 0.42004
 H103 H 0.12128 0.87938 0.40234
 H104 H 0.13500 0.87091 0.37192
 N105 N 0.09097 0.16607 0.11183
 N106 N 0.08270 0.15615 0.13290
 C107 C 0.06444 0.16868 0.14083
 C108 C 0.06091 0.18722 0.12364
 C109 C 0.07801 0.18498 0.10542
 H110 H 0.05423 0.16450 0.15765
 H111 H 0.08109 0.19659 0.08904
 Cu112 Cu 0.09629 0.12754 0.14763
 Cu113 Cu 0.11857 0.15445 0.09493
 Cu114 Cu 0.14352 0.10393 0.12137
 N115 N 0.11022 0.09892 0.16199
 N116 N 0.12899 0.09012 0.15184
 C117 C 0.13557 0.07101 0.16571
 C118 C 0.11999 0.06748 0.18556
 C119 C 0.10406 0.08548 0.18258
 H120 H 0.15049 0.06035 0.16155
 H121 H 0.08943 0.08882 0.19482
 N122 N 0.15573 0.12041 0.09060
 N123 N 0.14659 0.13993 0.08075
 C124 C 0.15939 0.14733 0.06045
 C125 C 0.17727 0.13152 0.05725
 C126 C 0.17437 0.11470 0.07667
 H127 H 0.15589 0.16291 0.04870
 H128 H 0.18538 0.09969 0.08064
 H129 H 0.11374 0.11889 0.10694
 H130 H 0.13313 0.13902 0.12649
 N131 N 0.40850 0.83344 0.61566
 N132 N 0.42086 0.84790 0.63043
 C133 C 0.44073 0.83720 0.63684
 C134 C 0.44072 0.81473 0.62567
 C135 C 0.41996 0.81292 0.61242
 H136 H 0.45410 0.84508 0.64890
 H137 H 0.41403 0.79811 0.60066
 Cu138 Cu 0.40988 0.87918 0.64042
 Cu139 Cu 0.37954 0.84315 0.60002
 Cu140 Cu 0.35607 0.89496 0.62287
 N141 N 0.39373 0.90473 0.65724
 N142 N 0.37261 0.91053 0.65047
 C143 C 0.36521 0.92795 0.66559
 C144 C 0.38260 0.93346 0.68286
 C145 C 0.40055 0.91839 0.67692
 H146 H 0.34836 0.93600 0.66409
 H147 H 0.41704 0.91696 0.68659
 N148 N 0.34199 0.87656 0.59504
 N149 N 0.35058 0.85642 0.58659
 C150 C 0.33727 0.84835 0.56732
 C151 C 0.31958 0.86435 0.56338
 C152 C 0.32314 0.88194 0.58137
 H153 H 0.34066 0.83252 0.55639
 H154 H 0.31280 0.89760 0.58423
 H155 H 0.38412 0.88008 0.60410
 H156 H 0.37111 0.86223 0.63152
 N157 N 0.90331 0.66330 0.37983
 N158 N 0.91652 0.64775 0.36864
 C159 C 0.93764 0.65847 0.36364
 C160 C 0.93756 0.68210 0.37192
 C161 C 0.91548 0.68455 0.38204
 H162 H 0.95192 0.64981 0.35446
 H163 H 0.90906 0.70037 0.39114
 Cu164 Cu 0.90491 0.61513 0.36098
 Cu165 Cu 0.87233 0.65400 0.39300
 Cu166 Cu 0.84828 0.59941 0.37290
 N167 N 0.88903 0.58793 0.34452
 N168 N 0.86677 0.58231 0.34863
 C169 C 0.86008 0.56371 0.33387
 C170 C 0.87922 0.55723 0.31983
 C171 C 0.89733 0.57296 0.32715
 H172 H 0.84260 0.55546 0.33346
 H173 H 0.91504 0.57395 0.31985
 N174 N 0.83258 0.61970 0.39736
 N175 N 0.84144 0.64094 0.40448
 C176 C 0.82724 0.64999 0.42197
 C177 C 0.80866 0.63353 0.42624
 C178 C 0.81262 0.61456 0.41025
 H179 H 0.83080 0.66668 0.43189
 H180 H 0.80200 0.59801 0.40852
 H181 H 0.87494 0.61671 0.39342
 H182 H 0.86639 0.63143 0.36284
 N183 N 0.59803 0.33588 -0.11375
 N184 N 0.58413 0.35038 -0.12583
 C185 C 0.56392 0.33815 -0.13107
 C186 C 0.56529 0.31464 -0.12191
 C187 C 0.58721 0.31385 -0.11106
 H188 H 0.54948 0.34570 -0.14116
 H189 H 0.59452 0.29855 -0.10143
 Cu190 Cu 0.59386 0.38361 -0.13447
 Cu191 Cu 0.62840 0.34714 -0.10098
 Cu192 Cu 0.64925 0.40328 -0.12258
 N193 N 0.60815 0.41187 -0.15166
 N194 N 0.62994 0.41910 -0.14744
 C195 C 0.63581 0.43784 -0.16304
 C196 C 0.61662 0.44271 -0.17778
 C197 C 0.59932 0.42591 -0.16995
 H198 H 0.65285 0.44711 -0.16374
 H199 H 0.58194 0.42342 -0.17768
 N200 N 0.66602 0.38394 -0.09763
 N201 N 0.65849 0.36210 -0.09005
 C202 C 0.67361 0.35354 -0.07306
 C203 C 0.69137 0.37095 -0.06959
 C204 C 0.68598 0.38999 -0.08547
 H205 H 0.67139 0.33633 -0.06315
 H206 H 0.69582 0.40703 -0.08791
 H207 H 0.62346 0.38405 -0.10171
 H208 H 0.63351 0.37016 -0.13173
 C209 C -0.00982 0.25942 0.12723
 C210 C -0.02043 0.26580 0.10421
 C211 C -0.03830 0.28249 0.10381
 C212 C -0.04529 0.29393 0.12598
 C213 C -0.03381 0.28830 0.14858
 C214 C -0.01651 0.27122 0.14925
 C215 C 0.00842 0.24072 0.12702
 C216 C 0.01812 0.23114 0.14920
 C217 C 0.03501 0.21367 0.14801
 C218 C 0.04291 0.20558 0.12472
 C219 C 0.03327 0.21482 0.10251
 C220 C 0.01575 0.23186 0.10352
 C221 C -0.01286 0.25583 0.08164
 C222 C 0.00517 0.23961 0.08125
 H223 H -0.02077 0.26091 0.06392
 H224 H 0.01060 0.23268 0.06326
 H225 H -0.04622 0.28694 0.08595
 H226 H -0.03843 0.29659 0.16612
 H227 H 0.04215 0.20670 0.16539
 H228 H 0.03893 0.20821 0.08446
 H229 H -0.00846 0.26769 0.16719
 H230 H 0.01267 0.23661 0.16765
 C231 C 0.51330 0.74441 0.62612
 C232 C 0.50593 0.71960 0.62607
 C233 C 0.52256 0.70162 0.62571
 C234 C 0.54654 0.70797 0.62428
 C235 C 0.55379 0.73253 0.62356
 C236 C 0.53744 0.75056 0.62466
 C237 C 0.49499 0.76304 0.62690
 C238 C 0.50044 0.78804 0.62924
 C239 C 0.48275 0.80470 0.62929
 C240 C 0.45926 0.79692 0.62671
 C241 C 0.45358 0.77206 0.62492
 C242 C 0.47118 0.75508 0.62548
 C243 C 0.48204 0.71290 0.62569
 C244 C 0.46506 0.73026 0.62492
 H245 H 0.47639 0.69391 0.62546
 H246 H 0.44682 0.72415 0.62413
 H247 H 0.51681 0.68265 0.62570
 H248 H 0.57222 0.73784 0.62239
 H249 H 0.48754 0.82381 0.63081
 H250 H 0.43539 0.76587 0.62351
 H251 H 0.54406 0.76914 0.62392
 H252 H 0.51820 0.79508 0.63120
 C253 C 1.01362 0.75503 0.37318
 C254 C 1.00786 0.77936 0.36859
 C255 C 1.02534 0.79800 0.36908
 C256 C 1.04859 0.79308 0.37535
 C257 C 1.05397 0.76891 0.38067
 C258 C 1.03686 0.75017 0.37942
 C259 C 0.99452 0.73563 0.37203
 C260 C 0.99877 0.71070 0.37390
 C261 C 0.98028 0.69336 0.37336
 C262 C 0.95713 0.70044 0.37127
 C263 C 0.95272 0.72514 0.36880
 C264 C 0.97123 0.74270 0.36864
 C265 C 0.98456 0.78505 0.36426
 C266 C 0.96659 0.76717 0.36480
 H267 H 0.98007 0.80370 0.36095
 H268 H 0.94879 0.77258 0.36189
 H269 H 1.02043 0.81645 0.36550
 H270 H 1.07155 0.76413 0.38549
 H271 H 0.98408 0.67437 0.37515
 H272 H 0.93488 0.73069 0.36657
 H273 H 1.04213 0.73207 0.38381
 H274 H 1.01621 0.70421 0.37564
 C275 C 0.49351 0.23710 -0.12580
 C276 C 0.46995 0.24393 -0.12479
 C277 C 0.45167 0.22611 -0.12460
 C278 C 0.45643 0.20146 -0.12611
 C279 C 0.47973 0.19479 -0.12805
 C280 C 0.49806 0.21231 -0.12779
 C281 C 0.51253 0.25664 -0.12493
 C282 C 0.53647 0.25169 -0.12370
 C283 C 0.55350 0.27053 -0.12266
 C284 C 0.54716 0.29477 -0.12310
 C285 C 0.52338 0.29992 -0.12427
 C286 C 0.50608 0.28111 -0.12476
 C287 C 0.46475 0.26847 -0.12421
 C288 C 0.48241 0.28666 -0.12456
 H289 H 0.44671 0.27372 -0.12366
 H290 H 0.47746 0.30539 -0.12428
 H291 H 0.43368 0.23148 -0.12364
 H292 H 0.48388 0.17589 -0.12926
 H293 H 0.57173 0.26608 -0.12178
 H294 H 0.51827 0.31860 -0.12411
 H295 H 0.51561 0.20606 -0.12925
 H296 H 0.54243 0.23342 -0.12322
 C297 C 0.12248 -0.00534 0.26556
 C298 C 0.10076 -0.01392 0.27592
 C299 C 0.10012 -0.03176 0.29512
 C300 C 0.12090 -0.04070 0.30478
 C301 C 0.14239 -0.03170 0.29493
 C302 C 0.14323 -0.01436 0.27553
 C303 C 0.12242 0.01329 0.24470
 C304 C 0.14293 0.02163 0.23191
 C305 C 0.14199 0.03907 0.21269
 C306 C 0.12068 0.04884 0.20583
 C307 C 0.10010 0.04055 0.21828
 C308 C 0.10077 0.02263 0.23734
 C309 C 0.07989 -0.00436 0.26736
 C310 C 0.07992 0.01376 0.24875
 H311 H 0.06326 -0.01077 0.27540
 H312 H 0.06331 0.02075 0.24299
 H313 H 0.08343 -0.03829 0.30294
 H314 H 0.15869 -0.03833 0.30200
 H315 H 0.15813 0.04518 0.20340
 H316 H 0.08348 0.04765 0.21278
 H317 H 0.16030 -0.00815 0.26881
 H318 H 0.15985 0.01482 0.23626
 C319 C 0.61275 0.51411 -0.25911
 C320 C 0.63383 0.51969 -0.27240
 C321 C 0.63427 0.53649 -0.29253
 C322 C 0.61408 0.54868 -0.29946
 C323 C 0.59331 0.54344 -0.28572
 C324 C 0.59261 0.52638 -0.26599
 C325 C 0.61299 0.49567 -0.23805
 C326 C 0.59266 0.48755 -0.22474
 C327 C 0.59387 0.47031 -0.20528
 C328 C 0.61536 0.46094 -0.19840
 C329 C 0.63565 0.46877 -0.21161
 C330 C 0.63458 0.48571 -0.23151
 C331 C 0.65451 0.50877 -0.26531
 C332 C 0.65494 0.49240 -0.24511
 H333 H 0.67071 0.51315 -0.27537
 H334 H 0.67144 0.48465 -0.24023
 H335 H 0.65068 0.54035 -0.30229
 H336 H 0.57730 0.55223 -0.29026
 H337 H 0.57795 0.46453 -0.19539
 H338 H 0.65228 0.46125 -0.20681
 H339 H 0.57615 0.52324 -0.25623
 H340 H 0.57565 0.49409 -0.22919
 C341 C 0.37876 1.00356 0.76315
 C342 C 0.40032 1.01311 0.77251
 C343 C 0.40056 1.03055 0.79153
 C344 C 0.37955 1.03850 0.80168
 C345 C 0.35827 1.02874 0.79254
 C346 C 0.35782 1.01157 0.77357
 C347 C 0.37920 0.98529 0.74257
 C348 C 0.35871 0.97539 0.73145
 C349 C 0.35998 0.95862 0.71222
 C350 C 0.38165 0.95112 0.70352
 C351 C 0.40221 0.96076 0.71453
 C352 C 0.40115 0.97789 0.73379
 C353 C 0.42146 1.00512 0.76291
 C354 C 0.42186 0.98780 0.74408
 H355 H 0.43798 1.01234 0.77012
 H356 H 0.43869 0.98221 0.73735
 H357 H 0.41715 1.03771 0.79861
 H358 H 0.34176 1.03460 0.79976
 H359 H 0.34380 0.95134 0.70433
 H360 H 0.41908 0.95531 0.70781
 H361 H 0.34086 1.00487 0.76741
 H362 H 0.34149 0.98037 0.73719
 C363 C 0.88113 0.48197 0.24466
 C364 C 0.86018 0.47704 0.23125
 C365 C 0.85938 0.45931 0.21257
 C366 C 0.87902 0.44580 0.20743
 C367 C 0.89957 0.45026 0.22117
 C368 C 0.90071 0.46817 0.23946
 C369 C 0.88137 0.50143 0.26408
 C370 C 0.90171 0.50894 0.27722
 C371 C 0.90098 0.52712 0.29516
 C372 C 0.87995 0.53811 0.30066
 C373 C 0.85965 0.53093 0.28756
 C374 C 0.86028 0.51300 0.26914
 C375 C 0.84004 0.48954 0.23679
 C376 C 0.84001 0.50690 0.25555
 H377 H 0.82395 0.48565 0.22665
 H378 H 0.82389 0.51588 0.25929
 H379 H 0.84326 0.45567 0.20241
 H380 H 0.91497 0.44009 0.21757
 H381 H 0.91689 0.53235 0.30500
 H382 H 0.84341 0.53967 0.29128
 H383 H 0.91698 0.47075 0.24941
 H384 H 0.91839 0.50117 0.27381
 C385 C 0.25245 0.13395 -0.01684
 C386 C 0.26098 0.11133 -0.02391
 C387 C 0.27936 0.11040 -0.04140
 C388 C 0.29001 0.13174 -0.05157
 C389 C 0.28199 0.15417 -0.04409
 C390 C 0.26336 0.15532 -0.02706
 C391 C 0.23253 0.13407 0.00167
 C392 C 0.22166 0.15540 0.00875
 C393 C 0.20345 0.15451 0.02645
 C394 C 0.19581 0.13242 0.03770
 C395 C 0.20618 0.11105 0.03041
 C396 C 0.22417 0.11166 0.01235
 C397 C 0.25144 0.08977 -0.01317
 C398 C 0.23367 0.08995 0.00482
 H399 H 0.25807 0.07246 -0.01848
 H400 H 0.22712 0.07279 0.01284
 H401 H 0.28576 0.09296 -0.04661
 H402 H 0.28995 0.17090 -0.05164
 H403 H 0.19568 0.17125 0.03172
 H404 H 0.20002 0.09381 0.03857
 H405 H 0.25796 0.17308 -0.02197
 H406 H 0.22689 0.17291 0.00081
 C407 C 0.73640 0.63786 0.50320
 C408 C 0.72760 0.61545 0.51348
 C409 C 0.71064 0.61500 0.53269
 C410 C 0.70176 0.63658 0.54157
 C411 C 0.71008 0.65874 0.53099
 C412 C 0.72724 0.65944 0.51214
 C413 C 0.75490 0.63751 0.48308
 C414 C 0.76586 0.65876 0.47266
 C415 C 0.78320 0.65741 0.45418
 C416 C 0.78990 0.63491 0.44540
 C417 C 0.77907 0.61366 0.45559
 C418 C 0.76194 0.61478 0.47450
 C419 C 0.73556 0.59360 0.50437
 C420 C 0.75216 0.59326 0.48512
 H421 H 0.72871 0.57644 0.51213
 H422 H 0.75763 0.57586 0.47865
 H423 H 0.70400 0.59772 0.54035
 H424 H 0.70352 0.67566 0.53751
 H425 H 0.79128 0.67408 0.44660
 H426 H 0.78443 0.59614 0.44933
 H427 H 0.73296 0.67702 0.50476
 H428 H 0.76151 0.67658 0.47869
 C429 C 0.76800 0.36779 0.00168
 C430 C 0.77550 0.39004 0.01253
 C431 C 0.79321 0.39056 0.03077
 C432 C 0.80411 0.36927 0.03798
 C433 C 0.79726 0.34740 0.02656
 C434 C 0.77938 0.34659 0.00874
 C435 C 0.74837 0.36790 -0.01697
 C436 C 0.73828 0.34654 -0.02726
 C437 C 0.71981 0.34761 -0.04431
 C438 C 0.71112 0.36995 -0.05176
 C439 C 0.72102 0.39131 -0.04163
 C440 C 0.73924 0.39043 -0.02405
 C441 C 0.76546 0.41166 0.00498
 C442 C 0.74796 0.41189 -0.01317
 H443 H 0.77135 0.42872 0.01311
 H444 H 0.74087 0.42913 -0.01848
 H445 H 0.79873 0.40765 0.03910
 H446 H 0.80541 0.33072 0.03178
 H447 H 0.71246 0.33086 -0.05185
 H448 H 0.71410 0.40864 -0.04686
 H449 H 0.77482 0.32924 0.00068
 H450 H 0.74416 0.32883 -0.02219
 C451 C 0.24677 0.86295 0.48729
 C452 C 0.23763 0.88559 0.48059
 C453 C 0.21971 0.88683 0.46275
 C454 C 0.21025 0.86577 0.45159
 C455 C 0.21913 0.84331 0.45839
 C456 C 0.23720 0.84188 0.47593
 C457 C 0.26592 0.86252 0.50651
 C458 C 0.27686 0.84115 0.51397
 C459 C 0.29441 0.84178 0.53224
 C460 C 0.30138 0.86363 0.54363
 C461 C 0.29082 0.88501 0.53607
 C462 C 0.27338 0.88466 0.51761
 C463 C 0.24614 0.90687 0.49196
 C464 C 0.26350 0.90639 0.51020
 H465 H 0.23909 0.92418 0.48687
 H466 H 0.26932 0.92335 0.51861
 H467 H 0.21276 0.90427 0.45807
 H468 H 0.21220 0.82678 0.45003
 H469 H 0.30227 0.82501 0.53772
 H470 H 0.29638 0.90212 0.54430
 H471 H 0.24327 0.82411 0.48045
 H472 H 0.27215 0.82381 0.50596
   
