data_POSCAR
  _audit_creation_date              2014-09-24
  _audit_creation_method            'ToBaCCo'
  _symmetry_space_group_name_H-M    'P1'
  _symmetry_Int_Tables_number       1
  _symmetry_cell_setting            triclinic
  loop_
  _symmetry_equiv_pos_as_xyz
 x,y,z
_cell_length_a 32.7441
_cell_length_b 32.8433
_cell_length_c 32.8251
_cell_angle_alpha 102.887300
_cell_angle_beta 76.719400
_cell_angle_gamma 77.075700
loop_
  _atom_site_label
  _atom_site_type_symbol
  _atom_site_fract_x
  _atom_site_fract_y
  _atom_site_fract_z
C1 C 0.50792 0.47848 0.00303
 C2 C 0.47661 0.50963 -0.00313
 C3 C 0.43277 0.50438 -0.00371
 C4 C 0.48427 0.55121 -0.00894
 C5 C 0.54977 0.48603 0.00836
 C6 C 0.50262 0.43487 0.00398
 C7 C 0.41637 0.51140 -0.03831
 C8 C 0.37414 0.50938 -0.03804
 C9 C 0.34759 0.50056 -0.00299
 C10 C 0.36384 0.49327 0.03157
 C11 C 0.40614 0.49531 0.03128
 C12 C 0.52005 0.55125 -0.04219
 C13 C 0.52649 0.59070 -0.04744
 C14 C 0.49704 0.63041 -0.01978
 C15 C 0.46111 0.63051 0.01304
 C16 C 0.45466 0.59116 0.01835
 C17 C 0.54996 0.52164 0.04127
 C18 C 0.58967 0.52788 0.04616
 C19 C 0.62950 0.49839 0.01847
 C20 C 0.62945 0.46266 -0.01405
 C21 C 0.58985 0.45642 -0.01899
 C22 C 0.50969 0.41855 0.03864
 C23 C 0.50772 0.37649 0.03862
 C24 C 0.49892 0.35013 0.00383
 C25 C 0.49156 0.36624 -0.03075
 C26 C 0.49353 0.40836 -0.03078
 H27 H 0.43624 0.51874 -0.06542
 H28 H 0.36211 0.51527 -0.06497
 H29 H 0.34369 0.48669 0.05910
 H30 H 0.41778 0.49071 0.05873
 H31 H 0.54279 0.52079 -0.06411
 H32 H 0.55428 0.59024 -0.07309
 H33 H 0.42675 0.59182 0.04398
 H34 H 0.51941 0.54438 0.06323
 H35 H 0.58932 0.55552 0.07158
 H36 H 0.66005 0.43959 -0.03558
 H37 H 0.59041 0.42864 -0.04437
 H38 H 0.51706 0.43832 0.06557
 H39 H 0.51366 0.36431 0.06544
 H40 H 0.48503 0.34601 -0.05800
 H41 H 0.48891 0.41993 -0.05829
 H42 H 0.43806 0.66103 0.03455
 C43 C -0.00176 0.52587 0.52896
 C44 C -0.00749 0.49448 0.49770
 C45 C -0.00887 0.45118 0.50345
 C46 C -0.01224 0.50138 0.45564
 C47 C 0.00312 0.56780 0.52169
 C48 C -0.00056 0.52023 0.57236
 C49 C 0.02600 0.42432 0.51216
 C50 C 0.02518 0.38266 0.51510
 C51 C -0.01031 0.36741 0.50908
 C52 C -0.04515 0.39408 0.50053
 C53 C -0.04439 0.43568 0.49760
 C54 C 0.01571 0.47138 0.41616
 C55 C 0.01087 0.47639 0.37627
 C56 C -0.02214 0.51126 0.37536
 C57 C -0.05029 0.54130 0.41459
 C58 C -0.04548 0.53630 0.45462
 C59 C -0.02483 0.60732 0.55152
 C60 C -0.02046 0.64707 0.54554
 C61 C 0.01209 0.64781 0.50987
 C62 C 0.04041 0.60854 0.48018
 C63 C 0.03609 0.56867 0.48615
 C64 C -0.03533 0.51096 0.59912
 C65 C -0.03423 0.50699 0.64042
 C66 C 0.00143 0.51257 0.65546
 C67 C 0.03604 0.52202 0.62904
 C68 C 0.03499 0.52597 0.58777
 H69 H 0.05409 0.43532 0.51590
 H70 H 0.05247 0.36213 0.52141
 H71 H -0.07266 0.38252 0.49561
 H72 H -0.07142 0.45578 0.49055
 H73 H 0.04134 0.44411 0.41629
 H74 H 0.03275 0.45292 0.34611
 H75 H -0.06789 0.55931 0.48475
 H76 H -0.05026 0.60732 0.57925
 H77 H -0.04246 0.67726 0.56877
 H78 H 0.06585 0.60876 0.45258
 H79 H 0.05851 0.53855 0.46326
 H80 H -0.06346 0.50730 0.58821
 H81 H -0.06134 0.50001 0.66077
 H82 H 0.06367 0.52663 0.64045
 H83 H 0.06195 0.53343 0.56774
 H84 H -0.07607 0.56829 0.41423
 C85 C 0.52712 -0.00265 0.47106
 C86 C 0.49542 -0.00781 0.50286
 C87 C 0.50198 -0.01161 0.54535
 C88 C 0.45201 -0.00936 0.49731
 C89 C 0.52174 -0.00219 0.42738
 C90 C 0.56907 0.00259 0.47811
 C91 C 0.53697 -0.04426 0.54717
 C92 C 0.54150 -0.04831 0.58759
 C93 C 0.51091 -0.01997 0.62651
 C94 C 0.47598 0.01253 0.62478
 C95 C 0.47147 0.01658 0.58448
 C96 C 0.43631 -0.04451 0.50401
 C97 C 0.39463 -0.04543 0.50115
 C98 C 0.36809 -0.01111 0.49183
 C99 C 0.38353 0.02403 0.48500
 C100 C 0.42527 0.02500 0.48787
 C101 C 0.52791 0.03270 0.41097
 C102 C 0.52419 0.03310 0.36948
 C103 C 0.51454 -0.00151 0.34378
 C104 C 0.50854 -0.03654 0.35981
 C105 C 0.51228 -0.03699 0.40134
 C106 C 0.56965 0.03601 0.51302
 C107 C 0.60954 0.04064 0.51888
 C108 C 0.64917 0.01214 0.48965
 C109 C 0.64871 -0.02087 0.45455
 C110 C 0.60891 -0.02552 0.44873
 H111 H 0.56037 -0.06686 0.51736
 H112 H 0.56859 -0.07375 0.58841
 H113 H 0.45201 0.03463 0.65457
 H114 H 0.44413 0.04177 0.58377
 H115 H 0.45633 -0.07113 0.51164
 H116 H 0.38290 -0.07265 0.50670
 H117 H 0.43643 0.05281 0.48348
 H118 H 0.53552 0.05968 0.43038
 H119 H 0.52911 0.06026 0.35735
 H120 H 0.50137 -0.06366 0.34008
 H121 H 0.50828 -0.06463 0.41299
 H122 H 0.53926 0.05854 0.53554
 H123 H 0.60940 0.06647 0.54606
 H124 H 0.67910 -0.04308 0.43162
 H125 H 0.60913 -0.05129 0.42147
 H126 H 0.36309 0.05091 0.47809
 O127 O 0.47762 -0.01258 -0.06529
 O128 O 0.47389 0.00037 0.05015
 O129 O 0.47319 0.05175 -0.00031
 O130 O 0.47716 -0.06357 -0.01460
 O131 O 0.54960 -0.08224 -0.03353
 O132 O 0.54562 0.03337 -0.01935
 O133 O 0.54632 -0.01808 0.03109
 O134 O 0.55005 -0.03115 -0.08422
 Cu135 Cu 0.46818 -0.00414 -0.00560
 Cu136 Cu 0.55520 -0.02636 -0.02839
 C137 C 0.51446 -0.02376 -0.09419
 C138 C 0.50956 -0.00705 0.06003
 C139 C 0.50871 0.06202 -0.00778
 C140 C 0.51394 -0.09233 -0.02614
 O141 O -0.08183 0.54952 1.03209
 O142 O 0.03408 0.54563 1.01913
 O143 O -0.01634 0.54566 0.96782
 O144 O -0.03178 0.55055 1.08362
 O145 O -0.01322 0.47846 1.06567
 O146 O 0.00212 0.47358 0.94976
 O147 O 0.05247 0.47356 1.00109
 O148 O -0.06317 0.47743 1.01415
 Cu149 Cu -0.02580 0.55511 1.02745
 Cu150 Cu -0.00357 0.46849 1.00586
 C151 C -0.09198 0.51403 1.02499
 C152 C 0.06278 0.50892 1.00825
 C153 C -0.00492 0.50888 0.93931
 C154 C -0.02482 0.51532 1.09416
 O155 O 0.02023 -0.06226 0.46182
 O156 O 0.00671 0.05331 0.46653
 O157 O 0.07130 -0.01158 0.46166
 O158 O -0.04444 0.00268 0.46608
 O159 O -0.06316 0.02065 0.53830
 O160 O 0.05277 0.00647 0.53389
 O161 O -0.01196 0.07123 0.53876
 O162 O 0.00165 -0.04416 0.53405
 Cu163 Cu 0.01527 -0.00630 0.45672
 Cu164 Cu -0.00708 0.01532 0.54355
 C165 C 0.01303 -0.07266 0.49722
 C166 C -0.00449 0.08169 0.50343
 C167 C 0.08152 -0.00455 0.49704
 C168 C -0.07330 0.01384 0.50285
 C169 C -0.32942 0.50435 1.02327
 C170 C -0.29441 0.50830 1.02632
 C171 C -0.25275 0.51176 1.02871
 C172 C -0.21665 0.51374 1.02969
 C173 C -0.17376 0.51495 1.02952
 C174 C -0.13667 0.51504 1.02816
 C175 C 0.30742 0.50051 0.99799
 C176 C 0.27025 0.50108 0.99882
 C177 C 0.22659 0.50240 0.99986
 C178 C 0.18920 0.50385 1.00099
 C179 C 0.14527 0.50574 1.00277
 C180 C 0.10766 0.50731 1.00485
 C181 C 0.01620 -0.31095 0.50418
 C182 C 0.01854 -0.27576 0.50056
 C183 C 0.02000 -0.23388 0.49760
 C184 C 0.02013 -0.19759 0.49609
 C185 C 0.01899 -0.15453 0.49545
 C186 C 0.01689 -0.11735 0.49580
 C187 C -0.01043 0.32388 0.51008
 C188 C -0.01061 0.28724 0.51013
 C189 C -0.01067 0.24416 0.50943
 C190 C -0.01037 0.20720 0.50838
 C191 C -0.00935 0.16369 0.50676
 C192 C -0.00768 0.12634 0.50524
 C193 C 0.51445 -0.02405 -0.33393
 C194 C 0.51640 -0.02670 -0.29833
 C195 C 0.51744 -0.02860 -0.25601
 C196 C 0.51749 -0.02918 -0.21943
 C197 C 0.51682 -0.02860 -0.17613
 C198 C 0.51586 -0.02702 -0.13885
 C199 C 0.51184 -0.00142 0.30061
 C200 C 0.51015 -0.00124 0.26433
 C201 C 0.50879 -0.00115 0.22164
 C202 C 0.50816 -0.00140 0.18500
 C203 C 0.50803 -0.00234 0.14179
 C204 C 0.50844 -0.00393 0.10463
 C205 C 0.50329 -0.32879 -0.02486
 C206 C 0.50750 -0.29399 -0.02807
 C207 C 0.51123 -0.25256 -0.03056
 C208 C 0.51341 -0.21662 -0.03154
 C209 C 0.51479 -0.17389 -0.03124
 C210 C 0.51496 -0.13691 -0.02968
 C211 C 0.49904 0.30608 0.00299
 C212 C 0.49989 0.26902 0.00229
 C213 C 0.50150 0.22547 0.00130
 C214 C 0.50319 0.18816 0.00014
 C215 C 0.50531 0.14432 -0.00177
 C216 C 0.50702 0.10679 -0.00406
 C217 C -0.31179 0.01629 0.49501
 C218 C -0.27664 0.01892 0.49875
 C219 C -0.23478 0.02066 0.50189
 C220 C -0.19848 0.02096 0.50355
 C221 C -0.15537 0.01991 0.50436
 C222 C -0.11811 0.01781 0.50414
 C223 C 0.32448 -0.01137 0.49082
 C224 C 0.28776 -0.01157 0.49074
 C225 C 0.24456 -0.01157 0.49137
 C226 C 0.20747 -0.01114 0.49237
 C227 C 0.16381 -0.00991 0.49391
 C228 C 0.12632 -0.00803 0.49535
 C229 C -0.02704 0.51553 1.33396
 C230 C -0.02992 0.51775 1.29854
 C231 C -0.03184 0.51898 1.25634
 C232 C -0.03221 0.51908 1.21976
 C233 C -0.03115 0.51830 1.17639
 C234 C -0.02896 0.51711 1.13899
 C235 C 0.00207 0.50981 0.69845
 C236 C 0.00252 0.50812 0.73464
 C237 C 0.00271 0.50687 0.77728
 C238 C 0.00234 0.50642 0.81396
 C239 C 0.00105 0.50659 0.85725
 C240 C -0.00103 0.50732 0.89455
   
