data_POSCAR
  _audit_creation_date              2014-09-24
  _audit_creation_method            'ToBaCCo'
  _symmetry_space_group_name_H-M    'P1'
  _symmetry_Int_Tables_number       1
  _symmetry_cell_setting            triclinic
  loop_
  _symmetry_equiv_pos_as_xyz
 x,y,z
_cell_length_a 24.9965
_cell_length_b 24.9814
_cell_length_c 24.9390
_cell_angle_alpha 90.000000
_cell_angle_beta 89.999900
_cell_angle_gamma 90.000000
loop_
  _atom_site_label
  _atom_site_type_symbol
  _atom_site_fract_x
  _atom_site_fract_y
  _atom_site_fract_z
Zn1 Zn 0.79246 0.70736 0.79162
 Zn2 Zn 0.79246 0.79264 0.70838
 Zn3 Zn 0.70727 0.70815 0.70750
 Zn4 Zn 0.70727 0.79185 0.79250
 O5 O 0.74987 0.75000 0.75000
 O6 O 0.86249 0.71722 0.77984
 O7 O 0.78216 0.78150 0.63812
 O8 O 0.71918 0.63803 0.71673
 O9 O 0.86249 0.78278 0.72016
 O10 O 0.78097 0.63757 0.78037
 O11 O 0.71666 0.72157 0.63751
 O12 O 0.63736 0.78257 0.78007
 O13 O 0.78097 0.86242 0.71963
 O14 O 0.63737 0.71742 0.71993
 O15 O 0.71918 0.86197 0.78327
 O16 O 0.71666 0.77843 0.86249
 O17 O 0.78215 0.71850 0.86188
 C18 C 0.88722 0.75000 0.75000
 C19 C 0.74918 0.75202 0.61310
 C20 C 0.75018 0.61302 0.74828
 C21 C 0.61267 0.75000 0.75000
 C22 C 0.75018 0.88698 0.75172
 C23 C 0.74918 0.74798 0.88690
 Zn24 Zn 0.20755 0.70736 0.70838
 Zn25 Zn 0.20755 0.79264 0.79162
 Zn26 Zn 0.29274 0.70815 0.79251
 Zn27 Zn 0.29274 0.79185 0.70750
 O28 O 0.25014 0.75000 0.75000
 O29 O 0.13752 0.71722 0.72016
 O30 O 0.21785 0.78150 0.86188
 O31 O 0.28083 0.63803 0.78328
 O32 O 0.13752 0.78278 0.77984
 O33 O 0.21904 0.63757 0.71963
 O34 O 0.28335 0.72157 0.86249
 O35 O 0.36264 0.78257 0.71992
 O36 O 0.21904 0.86242 0.78037
 O37 O 0.36264 0.71743 0.78008
 O38 O 0.28083 0.86197 0.71672
 O39 O 0.28335 0.77843 0.63751
 O40 O 0.21785 0.71850 0.63812
 C41 C 0.11278 0.75000 0.75000
 C42 C 0.25083 0.75202 0.88690
 C43 C 0.24983 0.61302 0.75172
 C44 C 0.38734 0.75000 0.75000
 C45 C 0.24983 0.88698 0.74828
 C46 C 0.25083 0.74798 0.61310
 Zn47 Zn 0.70727 0.20815 0.79250
 Zn48 Zn 0.79246 0.20736 0.70838
 Zn49 Zn 0.70727 0.29185 0.70750
 Zn50 Zn 0.79246 0.29264 0.79162
 O51 O 0.74987 0.25000 0.75000
 O52 O 0.71918 0.13803 0.78327
 O53 O 0.78216 0.21850 0.63812
 O54 O 0.63737 0.28257 0.71993
 O55 O 0.78097 0.13757 0.71963
 O56 O 0.63736 0.21743 0.78007
 O57 O 0.71666 0.27843 0.63751
 O58 O 0.78097 0.36242 0.78037
 O59 O 0.86249 0.21722 0.72016
 O60 O 0.71918 0.36197 0.71673
 O61 O 0.86249 0.28278 0.77984
 O62 O 0.78216 0.28150 0.86188
 O63 O 0.71666 0.22157 0.86249
 C64 C 0.75018 0.11302 0.75172
 C65 C 0.74918 0.24798 0.61310
 C66 C 0.61267 0.25000 0.75000
 C67 C 0.75018 0.38698 0.74828
 C68 C 0.88722 0.25000 0.75000
 C69 C 0.74918 0.25202 0.88690
 Zn70 Zn 0.29274 0.20815 0.70750
 Zn71 Zn 0.20755 0.20736 0.79162
 Zn72 Zn 0.29274 0.29185 0.79251
 Zn73 Zn 0.20755 0.29264 0.70838
 O74 O 0.25014 0.25000 0.75000
 O75 O 0.28083 0.13803 0.71672
 O76 O 0.21785 0.21850 0.86188
 O77 O 0.36264 0.28257 0.78008
 O78 O 0.21904 0.13757 0.78037
 O79 O 0.36264 0.21743 0.71992
 O80 O 0.28335 0.27843 0.86249
 O81 O 0.21904 0.36242 0.71963
 O82 O 0.13752 0.21722 0.77984
 O83 O 0.28083 0.36197 0.78328
 O84 O 0.13752 0.28278 0.72016
 O85 O 0.21785 0.28150 0.63812
 O86 O 0.28335 0.22157 0.63751
 C87 C 0.24983 0.11302 0.74828
 C88 C 0.25083 0.24798 0.88690
 C89 C 0.38734 0.25000 0.75000
 C90 C 0.24983 0.38698 0.75172
 C91 C 0.11278 0.25000 0.75000
 C92 C 0.25083 0.25202 0.61310
 Zn93 Zn 0.70753 0.70651 0.20925
 Zn94 Zn 0.79270 0.79052 0.20615
 Zn95 Zn 0.70753 0.79349 0.29075
 Zn96 Zn 0.79270 0.70948 0.29385
 O97 O 0.75012 0.75000 0.25000
 O98 O 0.71635 0.71707 0.13849
 O99 O 0.78275 0.86123 0.21562
 O100 O 0.63754 0.78414 0.27829
 O101 O 0.78132 0.77741 0.13669
 O102 O 0.63754 0.71586 0.22171
 O103 O 0.72042 0.86289 0.27885
 O104 O 0.78132 0.72259 0.36331
 O105 O 0.86261 0.77882 0.21629
 O106 O 0.71635 0.78294 0.36151
 O107 O 0.86261 0.72118 0.28370
 O108 O 0.78275 0.63877 0.28438
 O109 O 0.72042 0.63711 0.22115
 C110 C 0.74854 0.74687 0.11285
 C111 C 0.75199 0.88686 0.24702
 C112 C 0.61280 0.75000 0.25000
 C113 C 0.74854 0.75313 0.38715
 C114 C 0.88731 0.75000 0.25000
 C115 C 0.75199 0.61314 0.25298
 Zn116 Zn 0.29246 0.79349 0.20925
 Zn117 Zn 0.20729 0.70948 0.20615
 Zn118 Zn 0.29246 0.70651 0.29075
 Zn119 Zn 0.20729 0.79052 0.29385
 O120 O 0.24987 0.75000 0.25000
 O121 O 0.28365 0.78294 0.13849
 O122 O 0.21724 0.63877 0.21562
 O123 O 0.36245 0.71586 0.27829
 O124 O 0.21868 0.72259 0.13669
 O125 O 0.36245 0.78414 0.22171
 O126 O 0.27957 0.63711 0.27884
 O127 O 0.21868 0.77741 0.36331
 O128 O 0.13738 0.72118 0.21629
 O129 O 0.28365 0.71706 0.36151
 O130 O 0.13738 0.77882 0.28371
 O131 O 0.21724 0.86123 0.28438
 O132 O 0.27956 0.86289 0.22115
 C133 C 0.25145 0.75313 0.11285
 C134 C 0.24800 0.61314 0.24702
 C135 C 0.38719 0.75000 0.25000
 C136 C 0.25145 0.74687 0.38715
 C137 C 0.11268 0.75000 0.25000
 C138 C 0.24800 0.88686 0.25298
 Zn139 Zn 0.70753 0.29349 0.20925
 Zn140 Zn 0.79270 0.20948 0.20615
 Zn141 Zn 0.79270 0.29052 0.29385
 Zn142 Zn 0.70753 0.20651 0.29075
 O143 O 0.75012 0.25000 0.25000
 O144 O 0.71635 0.28294 0.13849
 O145 O 0.86261 0.22118 0.21629
 O146 O 0.78275 0.36123 0.28438
 O147 O 0.78132 0.22259 0.13669
 O148 O 0.72042 0.36289 0.22115
 O149 O 0.86261 0.27882 0.28370
 O150 O 0.71635 0.21707 0.36151
 O151 O 0.78275 0.13877 0.21562
 O152 O 0.78132 0.27741 0.36331
 O153 O 0.72042 0.13712 0.27885
 O154 O 0.63754 0.21586 0.27829
 O155 O 0.63754 0.28414 0.22171
 C156 C 0.74854 0.25313 0.11285
 C157 C 0.88731 0.25000 0.25000
 C158 C 0.75199 0.38686 0.25298
 C159 C 0.74854 0.24687 0.38715
 C160 C 0.75199 0.11314 0.24702
 C161 C 0.61280 0.25000 0.25000
 Zn162 Zn 0.20729 0.29052 0.20615
 Zn163 Zn 0.29246 0.20651 0.20925
 Zn164 Zn 0.29246 0.29349 0.29075
 Zn165 Zn 0.20729 0.20948 0.29385
 O166 O 0.24987 0.25000 0.25000
 O167 O 0.21868 0.27741 0.13669
 O168 O 0.36245 0.21586 0.22171
 O169 O 0.27957 0.36289 0.27884
 O170 O 0.28365 0.21706 0.13849
 O171 O 0.21724 0.36123 0.21562
 O172 O 0.36245 0.28414 0.27829
 O173 O 0.21868 0.22259 0.36331
 O174 O 0.27956 0.13711 0.22116
 O175 O 0.28365 0.28294 0.36151
 O176 O 0.21724 0.13877 0.28438
 O177 O 0.13738 0.22118 0.28371
 O178 O 0.13738 0.27882 0.21629
 C179 C 0.25145 0.24687 0.11285
 C180 C 0.38719 0.25000 0.25000
 C181 C 0.24800 0.38686 0.24702
 C182 C 0.25145 0.25313 0.38715
 C183 C 0.24800 0.11314 0.25298
 C184 C 0.11268 0.25000 0.25000
 N185 N -0.02665 0.70318 0.75028
 C186 C -0.05421 0.75000 0.75000
 N187 N -0.02665 0.79682 0.74972
 N188 N 0.02666 0.79682 0.75028
 C189 C 0.05422 0.75000 0.75000
 N190 N 0.02666 0.70318 0.74972
 N191 N 0.78304 -0.02666 0.71859
 C192 C 0.75038 -0.05429 0.75213
 N193 N 0.71774 -0.02667 0.78573
 N194 N 0.71774 0.02667 0.78573
 C195 C 0.75038 0.05429 0.75213
 N196 N 0.78304 0.02666 0.71859
 N197 N 0.79549 0.74583 -0.02668
 C198 C 0.74882 0.74697 -0.05444
 N199 N 0.70192 0.74750 -0.02697
 N200 N 0.70171 0.74650 0.02647
 C201 C 0.74842 0.74601 0.05420
 N202 N 0.79529 0.74595 0.02673
 N203 N 0.52665 0.79682 0.75028
 C204 C 0.55418 0.75000 0.75000
 N205 N 0.52665 0.70318 0.74972
 N206 N 0.47335 0.70318 0.75028
 C207 C 0.44583 0.75000 0.75000
 N208 N 0.47335 0.79682 0.74972
 N209 N 0.28227 -0.02667 0.71427
 C210 C 0.24963 -0.05429 0.74787
 N211 N 0.21697 -0.02666 0.78141
 N212 N 0.21697 0.02666 0.78141
 C213 C 0.24963 0.05429 0.74787
 N214 N 0.28227 0.02667 0.71427
 N215 N 0.29808 0.75251 -0.02697
 C216 C 0.25118 0.75303 -0.05444
 N217 N 0.20451 0.75417 -0.02669
 N218 N 0.20471 0.75404 0.02672
 C219 C 0.25158 0.75399 0.05420
 N220 N 0.29829 0.75350 0.02647
 N221 N -0.02665 0.20318 0.74972
 C222 C -0.05421 0.25000 0.75000
 N223 N -0.02665 0.29682 0.75028
 N224 N 0.02666 0.29682 0.74972
 C225 C 0.05422 0.25000 0.75000
 N226 N 0.02666 0.20318 0.75028
 N227 N 0.71774 0.52667 0.71427
 C228 C 0.75038 0.55429 0.74787
 N229 N 0.78304 0.52666 0.78141
 N230 N 0.78304 0.47334 0.78141
 C231 C 0.75038 0.44571 0.74787
 N232 N 0.71774 0.47333 0.71427
 N233 N 0.79549 0.25417 -0.02668
 C234 C 0.74882 0.25303 -0.05444
 N235 N 0.70192 0.25250 -0.02697
 N236 N 0.70171 0.25350 0.02647
 C237 C 0.74842 0.25399 0.05420
 N238 N 0.79529 0.25405 0.02673
 N239 N 0.52665 0.29682 0.74972
 C240 C 0.55418 0.25000 0.75000
 N241 N 0.52665 0.20318 0.75028
 N242 N 0.47335 0.20318 0.74972
 C243 C 0.44583 0.25000 0.75000
 N244 N 0.47335 0.29682 0.75028
 N245 N 0.21697 0.52666 0.71859
 C246 C 0.24963 0.55429 0.75213
 N247 N 0.28227 0.52667 0.78573
 N248 N 0.28227 0.47333 0.78573
 C249 C 0.24963 0.44571 0.75213
 N250 N 0.21697 0.47334 0.71859
 N251 N 0.29808 0.24749 -0.02697
 C252 C 0.25118 0.24697 -0.05444
 N253 N 0.20451 0.24583 -0.02669
 N254 N 0.20471 0.24596 0.02672
 C255 C 0.25158 0.24601 0.05420
 N256 N 0.29829 0.24650 0.02647
 N257 N -0.02665 0.74974 0.29690
 C258 C -0.05419 0.75000 0.25000
 N259 N -0.02665 0.75027 0.20310
 N260 N 0.02664 0.74971 0.20310
 C261 C 0.05418 0.75000 0.25000
 N262 N 0.02664 0.75029 0.29690
 N263 N 0.78537 -0.02670 0.21333
 C264 C 0.75248 -0.05433 0.24672
 N265 N 0.71967 -0.02665 0.28006
 N266 N 0.71967 0.02665 0.28006
 C267 C 0.75248 0.05433 0.24672
 N268 N 0.78537 0.02670 0.21333
 N269 N 0.79549 0.75417 0.52668
 C270 C 0.74882 0.75303 0.55444
 N271 N 0.70192 0.75250 0.52697
 N272 N 0.70171 0.75350 0.47353
 C273 C 0.74842 0.75399 0.44580
 N274 N 0.79529 0.75405 0.47327
 N275 N 0.52665 0.79681 0.25028
 C276 C 0.55422 0.75000 0.25000
 N277 N 0.52665 0.70319 0.24972
 N278 N 0.47334 0.70319 0.25027
 C279 C 0.44578 0.75000 0.25000
 N280 N 0.47334 0.79681 0.24973
 N281 N 0.28031 -0.02665 0.21994
 C282 C 0.24751 -0.05433 0.25328
 N283 N 0.21462 -0.02670 0.28667
 N284 N 0.21462 0.02670 0.28667
 C285 C 0.24751 0.05433 0.25328
 N286 N 0.28031 0.02665 0.21994
 N287 N 0.29808 0.74749 0.52697
 C288 C 0.25118 0.74697 0.55444
 N289 N 0.20451 0.74583 0.52669
 N290 N 0.20471 0.74596 0.47328
 C291 C 0.25158 0.74601 0.44580
 N292 N 0.29829 0.74650 0.47353
 N293 N -0.02665 0.24973 0.20310
 C294 C -0.05419 0.25000 0.25000
 N295 N -0.02665 0.25027 0.29690
 N296 N 0.02664 0.24971 0.29690
 C297 C 0.05418 0.25000 0.25000
 N298 N 0.02664 0.25029 0.20310
 N299 N 0.71967 0.52665 0.21994
 C300 C 0.75248 0.55433 0.25328
 N301 N 0.78537 0.52670 0.28667
 N302 N 0.78537 0.47330 0.28667
 C303 C 0.75248 0.44567 0.25328
 N304 N 0.71967 0.47335 0.21994
 N305 N 0.79549 0.24583 0.52668
 C306 C 0.74882 0.24697 0.55444
 N307 N 0.70192 0.24750 0.52697
 N308 N 0.70171 0.24650 0.47353
 C309 C 0.74842 0.24601 0.44580
 N310 N 0.79529 0.24595 0.47327
 N311 N 0.52665 0.29681 0.24972
 C312 C 0.55422 0.25000 0.25000
 N313 N 0.52665 0.20319 0.25028
 N314 N 0.47334 0.20319 0.24973
 C315 C 0.44578 0.25000 0.25000
 N316 N 0.47334 0.29681 0.25027
 N317 N 0.21462 0.52670 0.21333
 C318 C 0.24751 0.55433 0.24672
 N319 N 0.28032 0.52665 0.28005
 N320 N 0.28032 0.47335 0.28005
 C321 C 0.24751 0.44567 0.24672
 N322 N 0.21462 0.47330 0.21333
 N323 N 0.29808 0.25251 0.52697
 C324 C 0.25118 0.25303 0.55444
 N325 N 0.20451 0.25417 0.52669
 N326 N 0.20471 0.25404 0.47328
 C327 C 0.25158 0.25399 0.44580
 N328 N 0.29829 0.25350 0.47353
   
