data_POSCAR
  _audit_creation_date              2014-09-24
  _audit_creation_method            'ToBaCCo'
  _symmetry_space_group_name_H-M    'P1'
  _symmetry_Int_Tables_number       1
  _symmetry_cell_setting            triclinic
  loop_
  _symmetry_equiv_pos_as_xyz
 x,y,z
_cell_length_a 51.9583
_cell_length_b 51.7982
_cell_length_c 51.7904
_cell_angle_alpha 90.033500
_cell_angle_beta 89.993800
_cell_angle_gamma 89.971900
loop_
  _atom_site_label
  _atom_site_type_symbol
  _atom_site_fract_x
  _atom_site_fract_y
  _atom_site_fract_z
C1 C 0.18183 1.21528 0.21528
 C2 C 0.17133 1.23721 0.20338
 C3 C 0.18247 1.24764 0.18083
 C4 C 0.20477 1.23585 0.17067
 C5 C 0.21558 1.21403 0.18251
 C6 C 0.20404 1.20366 0.20485
 C7 C 0.17014 1.20454 0.23721
 C8 C 0.18030 1.18222 0.24904
 C9 C 0.20279 1.17104 0.23860
 C10 C 0.21455 1.18147 0.21657
 C11 C 0.23642 1.16975 0.20582
 C12 C 0.24799 1.17986 0.18345
 C13 C 0.23752 1.20217 0.17205
 H14 H 0.15416 1.24584 0.21157
 H15 H 0.21376 1.24346 0.15339
 H16 H 0.15293 1.21358 0.24486
 H17 H 0.21102 1.15388 0.24728
 H18 H 0.24429 1.15259 0.21483
 H19 H 0.24616 1.21010 0.15473
 C20 C 0.82414 0.78492 0.21210
 C21 C 0.83635 0.76391 0.20014
 C22 C 0.82553 0.75202 0.17815
 C23 C 0.80205 0.76163 0.16840
 C24 C 0.78977 0.78275 0.18007
 C25 C 0.80077 0.79437 0.20207
 C26 C 0.83521 0.79683 0.23376
 C27 C 0.82326 0.81819 0.24571
 C28 C 0.79970 0.82726 0.23562
 C29 C 0.78854 0.81564 0.21385
 C30 C 0.76557 0.82532 0.20338
 C31 C 0.75474 0.81421 0.18109
 C32 C 0.76688 0.79273 0.16974
 H33 H 0.85438 0.75695 0.20803
 H34 H 0.79337 0.75296 0.15146
 H35 H 0.85329 0.78943 0.24113
 H36 H 0.79012 0.84368 0.24437
 H37 H 0.75645 0.84190 0.21231
 H38 H 0.75869 0.78389 0.15264
 C39 C 0.81636 1.21448 -0.21218
 C40 C 0.82771 1.23637 -0.20098
 C41 C 0.81834 1.24650 -0.17758
 C42 C 0.79704 1.23466 -0.16568
 C43 C 0.78540 1.21287 -0.17674
 C44 C 0.79514 1.20268 -0.20003
 C45 C 0.82628 1.20392 -0.23507
 C46 C 0.81553 1.18139 -0.24596
 C47 C 0.79405 1.17003 -0.23377
 C48 C 0.78383 1.18050 -0.21098
 C49 C 0.76275 1.16882 -0.19874
 C50 C 0.75294 1.17881 -0.17546
 C51 C 0.76442 1.20090 -0.16463
 H52 H 0.84418 1.24521 -0.21030
 H53 H 0.78957 1.24227 -0.14768
 H54 H 0.84276 1.21309 -0.24405
 H55 H 0.78531 1.15279 -0.24179
 H56 H 0.75423 1.15169 -0.20719
 H57 H 0.75709 1.20881 -0.14669
 C58 C 0.18026 0.78880 -0.21643
 C59 C 0.16986 0.76608 -0.20605
 C60 C 0.18136 0.75391 -0.18457
 C61 C 0.20395 0.76474 -0.17401
 C62 C 0.21444 0.78756 -0.18410
 C63 C 0.20251 0.79970 -0.20531
 C64 C 0.16845 0.80104 -0.23750
 C65 C 0.17838 0.82426 -0.24747
 C66 C 0.20054 0.83503 -0.23617
 C67 C 0.21264 0.82293 -0.21521
 C68 C 0.23450 0.83393 -0.20375
 C69 C 0.24647 0.82205 -0.18247
 C70 C 0.23640 0.79871 -0.17293
 H71 H 0.15258 0.75811 -0.21464
 H72 H 0.21322 0.75577 -0.15754
 H73 H 0.15127 0.79263 -0.24587
 H74 H 0.20840 0.85292 -0.24362
 H75 H 0.24206 0.85188 -0.21135
 H76 H 0.24534 0.78940 -0.15648
 C77 C 0.53898 1.03234 -0.00267
 H78 H 0.53839 1.03305 0.01820
 C79 C 0.55673 1.04741 -0.01613
 H80 H 0.56969 1.05976 -0.00539
 C81 C 0.52312 1.01474 -0.04179
 H82 H 0.51036 1.00159 -0.05169
 C83 C 0.54071 1.02935 -0.05603
 H84 H 0.54099 1.02749 -0.07685
 N85 N 0.52248 1.01661 -0.01560
 C86 C 0.46217 1.00408 0.04161
 H87 H 0.46231 0.98320 0.04242
 C88 C 0.44488 1.01803 0.05681
 H89 H 0.43183 1.00766 0.06937
 C90 C 0.47862 1.04271 0.02356
 H91 H 0.49142 1.05223 0.01017
 C92 C 0.46150 1.05743 0.03827
 H93 H 0.46161 1.07824 0.03626
 Zn94 Zn 0.50020 0.99585 0.00449
 N95 N 0.47873 1.01653 0.02557
 C96 C 0.52193 0.97612 0.05102
 N97 N 0.52141 0.97421 0.02483
 C98 C 0.53740 0.95782 0.01205
 C99 C 0.55451 0.94215 0.02567
 C100 C 0.53891 0.96093 0.06542
 C101 C 0.47715 0.94990 -0.01514
 C102 C 0.45975 0.93595 -0.03025
 C103 C 0.44472 0.97612 -0.04854
 C104 C 0.46226 0.98928 -0.03296
 N105 N 0.47819 0.97608 -0.01687
 H106 H 0.50960 0.98978 0.06079
 H107 H 0.53695 0.95709 -0.00882
 H108 H 0.56711 0.92932 0.01504
 H109 H 0.53915 0.96286 0.08623
 H110 H 0.48944 0.93979 -0.00170
 H111 H 0.45914 0.91513 -0.02849
 H112 H 0.43221 0.98708 -0.06116
 H113 H 0.46314 1.01014 -0.03357
 C114 C 0.44428 1.04509 0.05516
 C115 C 0.55784 1.04596 -0.04319
 C116 C 0.44321 0.94907 -0.04724
 C117 C 0.55553 0.94368 0.05273
 C118 C -0.00152 0.53848 1.03349
 H119 H 0.01927 0.53777 1.03458
 C120 C -0.01513 0.55622 1.04850
 H121 H -0.00460 0.56906 1.06117
 C122 C -0.04025 0.52295 1.01502
 H123 H -0.04993 0.51033 1.00155
 C124 C -0.05463 0.54057 1.02951
 H125 H -0.07534 0.54099 1.02727
 N126 N -0.01419 0.52213 1.01737
 C127 C 0.04339 0.46201 1.00534
 H128 H 0.04464 0.46234 0.98449
 C129 C 0.05845 0.44472 1.01943
 H130 H 0.07134 0.43185 1.00921
 C131 C 0.02437 0.47795 1.04376
 H132 H 0.01066 0.49053 1.05312
 C133 C 0.03889 0.46078 1.05861
 H134 H 0.03643 0.46066 1.07937
 Zn135 Zn 0.00607 0.49981 0.99676
 N136 N 0.02695 0.47833 1.01762
 C137 C 0.05252 0.52196 0.97761
 N138 N 0.02645 0.52112 0.97528
 C139 C 0.01381 0.53687 0.95856
 C140 C 0.02746 0.55402 0.94294
 C141 C 0.06693 0.53902 0.96252
 C142 C -0.03124 0.46182 0.99003
 C143 C -0.04676 0.44424 0.97683
 C144 C -0.02813 0.45899 0.93672
 C145 C -0.01308 0.47645 0.95071
 N146 N -0.01503 0.47765 0.97687
 H147 H 0.06216 0.50984 0.99154
 H148 H -0.00697 0.53620 0.95750
 H149 H 0.01695 0.56643 0.92984
 H150 H 0.08763 0.53951 0.96479
 H151 H -0.03202 0.46284 1.01088
 H152 H -0.05950 0.43184 0.98776
 H153 H -0.02623 0.45827 0.91591
 H154 H 0.00045 0.48865 0.94064
 C155 C 0.05620 0.44383 1.04644
 C156 C -0.04207 0.55751 1.04654
 C157 C -0.04527 0.44259 0.94980
 C158 C 0.05438 0.55537 0.94491
 C159 C 1.03161 -0.00268 0.53857
 H160 H 1.03251 0.01818 0.53789
 C161 C 1.04656 -0.01620 0.55640
 H162 H 1.05899 -0.00552 0.56934
 C163 C 1.01372 -0.04170 0.52283
 H164 H 1.00050 -0.05152 0.51008
 C165 C 1.02819 -0.05600 0.54051
 H166 H 1.02618 -0.07680 0.54086
 N167 N 1.01581 -0.01553 0.52207
 C168 C 1.00419 0.04209 0.46185
 H169 H 0.98341 0.04335 0.46203
 C170 C 1.01837 0.05723 0.44470
 H171 H 1.00827 0.07017 0.43177
 C172 C 1.04238 0.02304 0.47805
 H173 H 1.05162 0.00930 0.49070
 C174 C 1.05731 0.03763 0.46102
 H175 H 1.07800 0.03518 0.46106
 Zn176 Zn 0.99538 0.00473 0.49962
 N177 N 1.01632 0.02561 0.47825
 C178 C 0.97632 0.05139 0.52168
 N179 N 0.97388 0.02526 0.52081
 C180 C 0.95708 0.01267 0.53648
 C181 C 0.94150 0.02643 0.55359
 C182 C 0.96127 0.06592 0.53869
 C183 C 0.94959 -0.01423 0.47592
 C184 C 0.93569 -0.02921 0.45834
 C185 C 0.97562 -0.04835 0.44401
 C186 C 0.98876 -0.03286 0.46168
 N187 N 0.97564 -0.01643 0.47737
 H188 H 0.99032 0.06100 0.50963
 H189 H 0.95594 -0.00818 0.53578
 H190 H 0.92834 0.01596 0.56594
 H191 H 0.96364 0.08668 0.53923
 H192 H 0.93957 -0.00052 0.48800
 H193 H 0.91498 -0.02708 0.45741
 H194 H 0.98651 -0.06126 0.43171
 H195 H 1.00953 -0.03383 0.46287
 C196 C 1.04530 0.05500 0.44402
 C197 C 1.04491 -0.04324 0.55761
 C198 C 0.94872 -0.04657 0.44208
 C199 C 0.94360 0.05343 0.55498
 C200 C 0.14869 0.30954 1.14367
 N201 N 0.16992 0.29801 1.13367
 N202 N 0.18098 0.27824 1.14581
 C203 C 0.17122 0.26906 1.16839
 N204 N 0.14999 0.28080 1.17836
 N205 N 0.13898 0.30063 1.16629
 C206 C 0.13601 0.33078 1.12987
 N207 N 0.11573 0.34339 1.14059
 N208 N 0.10375 0.36216 1.12775
 C209 C 0.11155 0.36894 1.10367
 N210 N 0.13187 0.35639 1.09298
 N211 N 0.14391 0.33769 1.10586
 C212 C 0.09776 0.38897 1.08912
 N213 N 0.10363 0.39360 1.06402
 N214 N 0.09058 0.41116 1.05055
 C215 C 0.07121 0.42486 1.06167
 N216 N 0.06551 0.42032 1.08687
 N217 N 0.07849 0.40268 1.10032
 C218 C -0.13708 0.69170 1.14180
 N219 N -0.16034 0.69997 1.13325
 N220 N -0.17245 0.71934 1.14505
 C221 C -0.16186 0.73122 1.16593
 N222 N -0.13860 0.72271 1.17450
 N223 N -0.12644 0.70340 1.16266
 C224 C -0.12341 0.67079 1.12840
 N225 N -0.09908 0.66427 1.13538
 N226 N -0.08642 0.64573 1.12284
 C227 C -0.09766 0.63297 1.10291
 N228 N -0.12205 0.63940 1.09601
 N229 N -0.13467 0.65800 1.10849
 C230 C -0.08347 0.61296 1.08872
 N231 N -0.09514 0.59906 1.06983
 N232 N -0.08207 0.58129 1.05662
 C233 C -0.05680 0.57679 1.06169
 N234 N -0.04520 0.59070 1.08065
 N235 N -0.05828 0.60840 1.09394
 C236 C -0.14427 0.30888 0.85824
 N237 N -0.16354 0.29613 0.87047
 N238 N -0.17559 0.27656 0.85898
 C239 C -0.16882 0.26889 0.83481
 N240 N -0.14957 0.28177 0.82257
 N241 N -0.13756 0.30140 0.83404
 C242 C -0.13047 0.32991 0.87128
 N243 N -0.11164 0.34320 0.85890
 N244 N -0.09868 0.36180 0.87103
 C245 C -0.10404 0.36772 0.89601
 N246 N -0.12292 0.35448 0.90835
 N247 N -0.13592 0.33594 0.89620
 C248 C -0.08925 0.38763 0.90970
 N249 N -0.09328 0.39198 0.93522
 N250 N -0.07944 0.40954 0.94787
 C251 C -0.06105 0.42350 0.93551
 N252 N -0.05716 0.41921 0.90991
 N253 N -0.07096 0.40160 0.89725
 C254 C 0.14728 0.69029 0.84920
 N255 N 0.13629 0.70194 0.82850
 N256 N 0.14749 0.72221 0.81738
 C257 C 0.17009 0.73179 0.82655
 N258 N 0.18111 0.71990 0.84719
 N259 N 0.16996 0.69956 0.85827
 C260 C 0.13434 0.66868 0.86214
 N261 N 0.14575 0.65629 0.88221
 N262 N 0.13356 0.63733 0.89456
 C263 C 0.10948 0.63014 0.88735
 N264 N 0.09812 0.64246 0.86721
 N265 N 0.11035 0.66135 0.85481
 C266 C 0.09555 0.61005 0.90164
 N267 N 0.07049 0.60500 0.89627
 N268 N 0.05752 0.58747 0.90984
 C269 C 0.06910 0.57423 0.92928
 N270 N 0.09426 0.57917 0.93448
 N271 N 0.10722 0.59678 0.92097
 C272 C 1.14315 0.14834 0.31086
 N273 N 1.13321 0.16965 0.29934
 N274 N 1.14537 0.18076 0.27962
 C275 C 1.16791 0.17098 0.27048
 N276 N 1.17783 0.14969 0.28221
 N277 N 1.16574 0.13863 0.30200
 C278 C 1.12929 0.13556 0.33199
 N279 N 1.13991 0.11517 0.34456
 N280 N 1.12698 0.10307 0.36319
 C281 C 1.10292 0.11086 0.36985
 N282 N 1.09234 0.13130 0.35734
 N283 N 1.10531 0.14346 0.33879
 C284 C 1.08827 0.09694 0.38970
 N285 N 1.06320 0.10279 0.39416
 N286 N 1.04964 0.08961 0.41155
 C287 C 1.06062 0.07013 0.42524
 N288 N 1.08579 0.06445 0.42086
 N289 N 1.09933 0.07755 0.40339
 C290 C 1.14089 -0.13777 0.69151
 N291 N 1.16052 -0.12619 0.70433
 N292 N 1.17253 -0.13833 0.72353
 C293 C 1.16535 -0.16250 0.73075
 N294 N 1.14572 -0.17406 0.71783
 N295 N 1.13374 -0.16196 0.69857
 C296 C 1.12731 -0.12414 0.67071
 N297 N 1.10841 -0.13605 0.65708
 N298 N 1.09579 -0.12347 0.63855
 C299 C 1.10156 -0.09851 0.63303
 N300 N 1.12050 -0.08663 0.64663
 N301 N 1.13316 -0.09923 0.66511
 C302 C 1.08726 -0.08439 0.61306
 N303 N 1.09164 -0.05888 0.60912
 N304 N 1.07830 -0.04589 0.59142
 C305 C 1.06009 -0.05789 0.57691
 N306 N 1.05584 -0.08348 0.58081
 N307 N 1.06913 -0.09647 0.59857
 C308 C 0.85800 -0.14489 0.30724
 N309 N 0.83467 -0.13700 0.29851
 N310 N 0.82337 -0.14902 0.27879
 C311 C 0.83489 -0.16947 0.26699
 N312 N 0.85819 -0.17739 0.27598
 N313 N 0.86953 -0.16534 0.29565
 C314 C 0.87088 -0.13115 0.32841
 N315 N 0.89522 -0.13759 0.33546
 N316 N 0.90723 -0.12467 0.35415
 C317 C 0.89533 -0.10489 0.36655
 N318 N 0.87094 -0.09854 0.35961
 N319 N 0.85894 -0.11141 0.34085
 C320 C 0.90890 -0.09022 0.38664
 N321 N 0.89671 -0.07128 0.40002
 N322 N 0.90926 -0.05760 0.41780
 C323 C 0.93451 -0.06224 0.42284
 N324 N 0.94663 -0.08127 0.40945
 N325 N 0.93407 -0.09501 0.39174
 C326 C 0.84880 0.14708 0.69021
 N327 N 0.82810 0.13619 0.70187
 N328 N 0.81714 0.14747 0.72222
 C329 C 0.82648 0.17004 0.73185
 N330 N 0.84712 0.18095 0.71994
 N331 N 0.85804 0.16973 0.69954
 C332 C 0.86157 0.13404 0.66852
 N333 N 0.88163 0.14536 0.65612
 N334 N 0.89384 0.13307 0.63711
 C335 C 0.88649 0.10898 0.62987
 N336 N 0.86636 0.09772 0.64219
 N337 N 0.85409 0.11003 0.66114
 C338 C 0.90064 0.09494 0.60972
 N339 N 0.89514 0.06985 0.60463
 N340 N 0.90861 0.05677 0.58707
 C341 C 0.92806 0.06828 0.57385
 N342 N 0.93338 0.09348 0.57884
 N343 N 0.91998 0.10655 0.59647
 C344 C 0.31064 1.14193 0.14889
 N345 N 0.29764 1.13081 0.16870
 N346 N 0.27798 1.14299 0.17986
 C347 C 0.27047 1.16673 0.17161
 N348 N 0.28361 1.17785 0.15183
 N349 N 0.30333 1.16571 0.14071
 C350 C 0.33176 1.12811 0.13605
 N351 N 0.34550 1.13957 0.11693
 N352 N 0.36416 1.12673 0.10478
 C353 C 0.36969 1.10195 0.11126
 N354 N 0.35601 1.09053 0.13044
 N355 N 0.33742 1.10339 0.14264
 C356 C 0.38962 1.08747 0.09728
 N357 N 0.39335 1.06199 0.10209
 N358 N 0.41085 1.04861 0.08886
 C359 C 0.42536 1.06019 0.07037
 N360 N 0.42170 1.08575 0.06573
 N361 N 0.40414 1.09912 0.07889
 C362 C 0.69183 1.14168 -0.13750
 N363 N 0.70483 1.16118 -0.12585
 N364 N 0.72406 1.17308 -0.13798
 C365 C 0.73113 1.16592 -0.16221
 N366 N 0.71802 1.14641 -0.17385
 N367 N 0.69874 1.13454 -0.16175
 C368 C 0.67099 1.12820 -0.12389
 N369 N 0.65720 1.10944 -0.13587
 N370 N 0.63864 1.09689 -0.12332
 C371 C 0.63326 1.10260 -0.09830
 N372 N 0.64702 1.12140 -0.08634
 N373 N 0.66552 1.13399 -0.09891
 C374 C 0.61327 1.08834 -0.08422
 N375 N 0.60944 1.09260 -0.05865
 N376 N 0.59174 1.07926 -0.04569
 C377 C 0.57712 1.06118 -0.05779
 N378 N 0.58090 1.05706 -0.08343
 N379 N 0.59866 1.07035 -0.09639
 C380 C 0.30909 0.85773 -0.14560
 N381 N 0.29618 0.86999 -0.16478
 N382 N 0.27653 0.85854 -0.17667
 C383 C 0.26894 0.83439 -0.16981
 N384 N 0.28199 0.82212 -0.15066
 N385 N 0.30169 0.83355 -0.13880
 C386 C 0.33021 0.87074 -0.13196
 N387 N 0.34367 0.85833 -0.11323
 N388 N 0.36234 0.87043 -0.10040
 C389 C 0.36817 0.89540 -0.10577
 N390 N 0.35476 0.90778 -0.12455
 N391 N 0.33615 0.89567 -0.13743
 C392 C 0.38815 0.90906 -0.09109
 N393 N 0.39239 0.93460 -0.09506
 N394 N 0.40999 0.94722 -0.08128
 C395 C 0.42411 0.93482 -0.06301
 N396 N 0.41993 0.90920 -0.05918
 N397 N 0.40227 0.89657 -0.07292
 C398 C 0.69005 0.84794 0.14602
 N399 N 0.70297 0.82847 0.13420
 N400 N 0.72322 0.81750 0.14554
 C401 C 0.73141 0.82559 0.16911
 N402 N 0.71832 0.84500 0.18096
 N403 N 0.69803 0.85594 0.16966
 C404 C 0.66849 0.86080 0.13295
 N405 N 0.65510 0.87990 0.14491
 N406 N 0.63620 0.89223 0.13263
 C407 C 0.63007 0.88596 0.10792
 N408 N 0.64337 0.86678 0.09603
 N409 N 0.66221 0.85441 0.10832
 C410 C 0.61003 0.90026 0.09394
 N411 N 0.60578 0.89566 0.06851
 N412 N 0.58830 0.90927 0.05552
 C413 C 0.57433 0.92798 0.06745
 N414 N 0.57850 0.93241 0.09298
 N415 N 0.59604 0.91885 0.10597
   
