data_POSCAR
  _audit_creation_date              2014-09-24
  _audit_creation_method            'ToBaCCo'
  _symmetry_space_group_name_H-M    'P1'
  _symmetry_Int_Tables_number       1
  _symmetry_cell_setting            triclinic
  loop_
  _symmetry_equiv_pos_as_xyz
 x,y,z
_cell_length_a 45.4426
_cell_length_b 46.4762
_cell_length_c 44.7289
_cell_angle_alpha 89.994900
_cell_angle_beta 89.504000
_cell_angle_gamma 90.317300
loop_
  _atom_site_label
  _atom_site_type_symbol
  _atom_site_fract_x
  _atom_site_fract_y
  _atom_site_fract_z
N1 N 0.15410 0.16602 0.22319
 N2 N 0.17669 0.14843 0.22305
 C3 C 0.17310 0.12900 0.24520
 C4 C 0.14697 0.13500 0.25974
 C5 C 0.13540 0.15849 0.24538
 H6 H 0.18824 0.11186 0.25036
 H7 H 0.11496 0.16927 0.25064
 Cu8 Cu 0.20849 0.15263 0.19387
 Cu9 Cu 0.15050 0.19734 0.19470
 Cu10 Cu 0.20580 0.20450 0.14137
 N11 N 0.23892 0.15656 0.16319
 N12 N 0.23771 0.17684 0.14271
 C13 C 0.26098 0.17439 0.12403
 C14 C 0.27751 0.15143 0.13349
 C15 C 0.26304 0.14045 0.15822
 H16 H 0.26526 0.18796 0.10482
 H17 H 0.26937 0.12189 0.17123
 N18 N 0.17174 0.23043 0.14368
 N19 N 0.15069 0.22769 0.16405
 C20 C 0.13067 0.24856 0.15997
 C21 C 0.13966 0.26502 0.13599
 C22 C 0.16565 0.25313 0.12608
 H23 H 0.11105 0.25164 0.17341
 H24 H 0.17908 0.26054 0.10751
 H25 H 0.17467 0.17777 0.16105
 H26 H 0.19500 0.20284 0.18630
 N27 N -0.15911 0.83398 0.22799
 N28 N -0.18186 0.85136 0.22761
 C29 C -0.17981 0.86993 0.25065
 C30 C -0.15453 0.86366 0.26607
 C31 C -0.14185 0.84083 0.25127
 H32 H -0.19549 0.88661 0.25594
 H33 H -0.12170 0.82996 0.25711
 Cu34 Cu -0.21195 0.84768 0.19720
 Cu35 Cu -0.15376 0.80341 0.19872
 Cu36 Cu -0.20731 0.79653 0.14431
 N37 N -0.24181 0.84363 0.16658
 N38 N -0.23982 0.82359 0.14588
 C39 C -0.26279 0.82582 0.12720
 C40 C -0.27994 0.84835 0.13692
 C41 C -0.26614 0.85934 0.16176
 H42 H -0.26642 0.81245 0.10775
 H43 H -0.27301 0.87766 0.17493
 N44 N -0.17278 0.77122 0.14648
 N45 N -0.15238 0.77384 0.16719
 C46 C -0.13205 0.75318 0.16303
 C47 C -0.14017 0.73704 0.13863
 C48 C -0.16596 0.74886 0.12859
 H49 H -0.11294 0.74991 0.17684
 H50 H -0.17885 0.74153 0.10985
 H51 H -0.17678 0.82301 0.16475
 H52 H -0.19782 0.79764 0.18945
 N53 N -0.15629 0.16906 -0.23231
 N54 N -0.17679 0.14929 -0.22845
 C55 C -0.17576 0.13057 -0.25141
 C56 C -0.15347 0.13929 -0.27048
 C57 C -0.14147 0.16363 -0.25783
 H58 H -0.19004 0.11205 -0.25397
 H59 H -0.12329 0.17633 -0.26650
 Cu60 Cu -0.20290 0.14990 -0.19396
 Cu61 Cu -0.15046 0.20037 -0.20414
 Cu62 Cu -0.20299 0.20737 -0.14814
 N63 N -0.23523 0.15722 -0.16653
 N64 N -0.23520 0.17958 -0.14848
 C65 C -0.26017 0.17934 -0.13201
 C66 C -0.27649 0.15568 -0.14049
 C67 C -0.26018 0.14199 -0.16227
 H68 H -0.26591 0.19508 -0.11515
 H69 H -0.26592 0.12242 -0.17400
 N70 N -0.16864 0.23322 -0.15196
 N71 N -0.14864 0.23057 -0.17339
 C72 C -0.12866 0.25193 -0.17079
 C73 C -0.13660 0.26861 -0.14666
 C74 C -0.16191 0.25634 -0.13515
 H75 H -0.11008 0.25545 -0.18563
 H76 H -0.17472 0.26405 -0.11634
 H77 H -0.17014 0.18213 -0.16668
 H78 H -0.19472 0.20155 -0.19320
 N79 N 0.15032 0.83343 -0.22258
 N80 N 0.17234 0.85191 -0.22188
 C81 C 0.16822 0.87212 -0.24303
 C82 C 0.14232 0.86576 -0.25746
 C83 C 0.13147 0.84120 -0.24411
 H84 H 0.18304 0.88983 -0.24789
 H85 H 0.11161 0.82963 -0.24993
 Cu86 Cu 0.20453 0.84692 -0.19404
 Cu87 Cu 0.14814 0.80014 -0.19637
 Cu88 Cu 0.20505 0.79136 -0.14599
 N89 N 0.23626 0.84198 -0.16568
 N90 N 0.23631 0.82023 -0.14683
 C91 C 0.26075 0.82164 -0.13005
 C92 C 0.27667 0.84546 -0.13907
 C93 C 0.26068 0.85801 -0.16154
 H94 H 0.26650 0.80649 -0.11271
 H95 H 0.26643 0.87728 -0.17387
 N96 N 0.17147 0.76448 -0.14881
 N97 N 0.14987 0.76785 -0.16806
 C98 C 0.13081 0.74571 -0.16523
 C99 C 0.14101 0.72773 -0.14327
 C100 C 0.16670 0.74007 -0.13320
 H101 H 0.11115 0.74266 -0.17833
 H102 H 0.18095 0.73167 -0.11609
 H103 H 0.17249 0.81787 -0.16209
 H104 H 0.19299 0.79579 -0.19013
 N105 N 0.16846 1.16151 0.76684
 N106 N 0.15068 1.18377 0.76693
 C107 C 0.13323 1.18229 0.74271
 C108 C 0.14072 1.15793 0.72681
 C109 C 0.16303 1.14521 0.74263
 H110 H 0.11637 1.19764 0.73705
 H111 H 0.17443 1.12556 0.73691
 Cu112 Cu 0.15269 1.21248 0.79860
 Cu113 Cu 0.19763 1.15539 0.79782
 Cu114 Cu 0.20113 1.20617 0.85456
 N115 N 0.15456 1.24078 0.83075
 N116 N 0.17364 1.23818 0.85255
 C117 C 0.17046 1.26039 0.87165
 C118 C 0.14829 1.27771 0.86117
 C119 C 0.13855 1.26475 0.83531
 H120 H 0.18313 1.26361 0.89172
 H121 H 0.12100 1.27214 0.82109
 N122 N 0.22709 1.17231 0.85269
 N123 N 0.22571 1.15297 0.83108
 C124 C 0.24654 1.13294 0.83561
 C125 C 0.26153 1.14007 0.86120
 C126 C 0.24882 1.16504 0.87154
 H127 H 0.25080 1.11472 0.82120
 H128 H 0.25520 1.17713 0.89111
 H129 H 0.17546 1.17716 0.83126
 H130 H 0.20318 1.19816 0.80908
 N131 N 0.83802 0.83957 0.76662
 N132 N 0.85652 0.81793 0.76805
 C133 C 0.87573 0.81982 0.74492
 C134 C 0.86868 0.84383 0.72834
 C135 C 0.84478 0.85589 0.74265
 H136 H 0.89358 0.80507 0.74056
 H137 H 0.83335 0.87525 0.73620
 Cu138 Cu 0.85366 0.78970 0.80026
 Cu139 Cu 0.80676 0.84530 0.79607
 Cu140 Cu 0.80047 0.79485 0.85287
 N141 N 0.84935 0.76109 0.83197
 N142 N 0.82852 0.76327 0.85246
 C143 C 0.83056 0.74105 0.87169
 C144 C 0.85382 0.72414 0.86266
 C145 C 0.86535 0.73735 0.83751
 H146 H 0.81638 0.73757 0.89090
 H147 H 0.88409 0.73028 0.82444
 N148 N 0.77413 0.82827 0.84953
 N149 N 0.77652 0.84750 0.82787
 C150 C 0.75547 0.86754 0.83162
 C151 C 0.73922 0.86047 0.85673
 C152 C 0.75149 0.83559 0.86761
 H153 H 0.75211 0.88589 0.81720
 H154 H 0.74436 0.82373 0.88721
 H155 H 0.82706 0.82447 0.83105
 H156 H 0.80203 0.80234 0.80733
 N157 N 0.16963 0.83970 1.23538
 N158 N 0.14931 0.81962 1.23267
 C159 C 0.13095 0.82079 1.25650
 C160 C 0.14055 0.84270 1.27489
 C161 C 0.16497 0.85431 1.26092
 H162 H 0.11205 0.80693 1.26008
 H163 H 0.17824 0.87214 1.26871
 Cu164 Cu 0.14874 0.79412 1.19818
 Cu165 Cu 0.20075 0.84536 1.20587
 Cu166 Cu 0.20559 0.79500 1.14912
 N167 N 0.15461 0.76339 1.16927
 N168 N 0.17667 0.76385 1.15002
 C169 C 0.17543 0.74003 1.13288
 C170 C 0.15141 0.72394 1.14206
 C171 C 0.13861 0.73927 1.16507
 H172 H 0.19084 0.73478 1.11516
 H173 H 0.11917 0.73329 1.17779
 N174 N 0.23272 0.82817 1.15231
 N175 N 0.23076 0.84741 1.17396
 C176 C 0.25284 0.86667 1.17087
 C177 C 0.26935 0.85909 1.14620
 C178 C 0.25617 0.83470 1.13485
 H179 H 0.25701 0.88454 1.18575
 H180 H 0.26349 0.82237 1.11571
 H181 H 0.18049 0.82661 1.16926
 H182 H 0.20154 0.80220 1.19445
 N183 N 0.83443 1.15745 1.23725
 N184 N 0.85252 1.17964 1.23605
 C185 C 0.87169 1.17784 1.25885
 C186 C 0.86499 1.15331 1.27497
 C187 C 0.84140 1.14085 1.26075
 H188 H 0.88914 1.19309 1.26341
 H189 H 0.83017 1.12115 1.26706
 Cu190 Cu 0.84860 1.20862 1.20488
 Cu191 Cu 0.80293 1.15174 1.20855
 Cu192 Cu 0.79615 1.20300 1.15265
 N193 N 0.84475 1.23733 1.17345
 N194 N 0.82421 1.23497 1.15301
 C195 C 0.82592 1.25777 1.13444
 C196 C 0.84865 1.27521 1.14388
 C197 C 0.86023 1.26173 1.16855
 H198 H 0.81158 1.26151 1.11568
 H199 H 0.87838 1.26929 1.18196
 N200 N 0.76989 1.16915 1.15617
 N201 N 0.77244 1.14968 1.17751
 C202 C 0.75082 1.12991 1.17457
 C203 C 0.73405 1.13740 1.15032
 C204 C 0.74658 1.16226 1.13910
 H205 H 0.74720 1.11169 1.18921
 H206 H 0.73892 1.17461 1.12024
 H207 H 0.82297 1.17372 1.17369
 H208 H 0.79729 1.19469 1.19796
 O209 O 0.52917 0.97343 0.94195
 O210 O 0.47273 0.98914 1.06486
 O211 O 0.55847 0.98508 1.02153
 O212 O 0.46431 0.95125 0.98009
 O213 O 0.52038 0.96828 1.04442
 O214 O 0.47359 0.97196 0.93851
 O215 O 0.46788 0.95946 1.03074
 O216 O 0.56129 0.99742 0.96859
 C217 C 0.55510 0.97780 0.95008
 C218 C 0.46140 0.96638 1.05659
 C219 C 0.54677 0.96606 1.03746
 C220 C 0.46304 0.95125 0.95264
 O221 O 0.47147 1.02729 0.94215
 O222 O 0.52292 1.01507 1.07336
 O223 O 0.53682 1.04921 0.98183
 O224 O 0.44452 1.01426 1.02410
 O225 O 0.48309 1.03730 1.04078
 O226 O 0.52730 1.02953 0.93961
 O227 O 0.43977 1.00401 0.97080
 O228 O 0.53633 1.03799 1.03369
 Co229 Co 0.50047 1.00044 0.94580
 Co230 Co 0.50261 1.00302 1.04085
 Co231 Co 0.54430 1.01593 1.00100
 Co232 Co 0.45756 0.98358 1.00119
 O233 O 0.50015 0.99970 0.99524
 C234 C 0.44569 1.02318 0.95151
 C235 C 0.54173 1.03217 1.06066
 C236 C 0.53758 1.05009 0.95426
 C237 C 0.45592 1.03636 1.03597
 O238 O 0.02598 0.47214 0.05717
 O239 O 0.01082 0.52746 -0.06480
 O240 O 0.01320 0.44344 -0.02287
 O241 O 0.04911 0.53481 0.02013
 O242 O 0.03117 0.48042 -0.04530
 O243 O 0.02736 0.52659 0.06155
 O244 O 0.04106 0.53170 -0.03065
 O245 O 0.00132 0.44086 0.03022
 C246 C 0.02148 0.44685 0.04856
 C247 C 0.03421 0.53815 -0.05643
 C248 C 0.03283 0.45448 -0.03889
 C249 C 0.04870 0.53682 0.04752
 O250 O -0.02907 0.52849 0.05798
 O251 O -0.01686 0.47895 -0.07369
 O252 O -0.05175 0.46520 0.01836
 O253 O -0.01454 0.55546 -0.02369
 O254 O -0.03881 0.51833 -0.04071
 O255 O -0.03120 0.47373 0.06027
 O256 O -0.00477 0.55944 0.02967
 O257 O -0.04043 0.46622 -0.03379
 Co258 Co -0.00161 0.50018 0.05398
 Co259 Co -0.00410 0.49849 -0.04116
 Co260 Co -0.01791 0.45771 -0.00158
 Co261 Co 0.01633 0.54203 -0.00091
 O262 O -0.00076 0.50063 0.00448
 C263 C -0.02461 0.55369 0.04886
 C264 C -0.03457 0.46084 -0.06086
 C265 C -0.05218 0.46344 0.04587
 C266 C -0.03726 0.54490 -0.03577
 O267 O 1.05582 0.02774 0.47128
 O268 O 0.93505 0.01007 0.52834
 O269 O 0.97774 0.01495 0.44142
 O270 O 1.01812 0.04924 0.53734
 O271 O 0.95509 0.03141 0.48001
 O272 O 1.05925 0.02923 0.52773
 O273 O 0.96822 0.04039 0.53353
 O274 O 1.02990 0.00333 0.43876
 C275 C 1.04803 0.02311 0.44495
 C276 C 0.94274 0.03303 0.53965
 C277 C 0.96197 0.03380 0.45320
 C278 C 1.04515 0.04956 0.53877
 O279 O 1.05623 -0.02609 0.53003
 O280 O 0.92700 -0.01575 0.47780
 O281 O 1.01736 -0.04863 0.46387
 O282 O 0.97519 -0.01443 0.55741
 O283 O 0.95925 -0.03770 0.51827
 O284 O 1.05875 -0.02837 0.47333
 O285 O 1.02760 -0.00348 0.56215
 O286 O 0.96618 -0.03820 0.46413
 Co287 Co 1.05234 0.00066 0.50049
 Co288 Co 0.95891 -0.00335 0.49824
 Co289 Co 0.99818 -0.01563 0.45604
 Co290 Co 0.99753 0.01659 0.54408
 O291 O 1.00368 0.00066 0.50082
 C292 C 1.04700 -0.02211 0.55618
 C293 C 0.93955 -0.03271 0.45878
 C294 C 1.04451 -0.04909 0.46291
 C295 C 0.96385 -0.03675 0.54591
 C296 C 1.11033 0.09348 0.32999
 C297 C 1.11319 0.06063 0.32859
 C298 C 1.10046 0.04681 0.35229
 C299 C 1.08612 0.06721 0.37508
 C300 C 1.06445 0.08524 0.35692
 C301 C 1.07718 0.09906 0.33320
 C302 C 1.12341 0.10208 0.36026
 C303 C 1.11068 0.08826 0.38398
 C304 C 1.12396 0.10837 0.30445
 C305 C 1.13494 0.12076 0.28344
 C306 C 1.07245 0.05215 0.40049
 C307 C 1.06127 0.03924 0.42104
 H308 H 1.12428 0.04921 0.31060
 H309 H 1.10064 0.02356 0.35461
 H310 H 1.04116 0.08702 0.36221
 H311 H 1.06479 0.11266 0.31817
 H312 H 1.14115 0.11760 0.36283
 H313 H 1.11749 0.09196 0.40687
 C314 C 0.87779 -0.09684 0.34111
 C315 C 0.90823 -0.10817 0.34967
 C316 C 0.91960 -0.09531 0.37439
 C317 C 0.89943 -0.07238 0.38816
 C318 C 0.87005 -0.08789 0.39409
 C319 C 0.85866 -0.10077 0.36932
 C320 C 0.88186 -0.06418 0.33781
 C321 C 0.89324 -0.05132 0.36255
 C322 C 0.86577 -0.11073 0.31442
 C323 C 0.85631 -0.12230 0.29237
 C324 C 0.91219 -0.05851 0.41448
 C325 C 0.92394 -0.04689 0.43530
 H326 H 0.91985 -0.12481 0.33739
 H327 H 0.94097 -0.10095 0.38329
 H328 H 0.85916 -0.08865 0.41577
 H329 H 0.83800 -0.11260 0.36979
 H330 H 0.87630 -0.05222 0.31781
 H331 H 0.89739 -0.02833 0.36377
 C332 C 0.87714 0.09976 0.65359
 C333 C 0.86421 0.11046 0.62399
 C334 C 0.87586 0.09727 0.59937
 C335 C 0.89923 0.07475 0.60689
 C336 C 0.88401 0.05388 0.62875
 C337 C 0.87239 0.06705 0.65333
 C338 C 0.91050 0.10401 0.65021
 C339 C 0.92210 0.09086 0.62568
 C340 C 0.86515 0.11384 0.68027
 C341 C 0.85622 0.12540 0.70262
 C342 C 0.91251 0.06043 0.58102
 C343 C 0.92531 0.04818 0.56116
 H344 H 0.84742 0.12691 0.62252
 H345 H 0.86904 0.10236 0.57679
 H346 H 0.88247 0.03081 0.62524
 H347 H 0.86091 0.05526 0.67089
 H348 H 0.92387 0.11626 0.66574
 H349 H 0.94541 0.09185 0.62020
 C350 C 1.10610 -0.09220 0.67128
 C351 C 1.10600 -0.11023 0.64251
 C352 C 1.09386 -0.09647 0.61875
 C353 C 1.08302 -0.06606 0.62614
 C354 C 1.10987 -0.05037 0.63906
 C355 C 1.12201 -0.06412 0.66280
 C356 C 1.07386 -0.08367 0.67643
 C357 C 1.06172 -0.06992 0.65268
 C358 C 1.11915 -0.10697 0.69680
 C359 C 1.12981 -0.11925 0.71774
 C360 C 1.07004 -0.05106 0.60075
 C361 C 1.05946 -0.03817 0.58017
 H362 H 1.11473 -0.13188 0.64094
 H363 H 1.09217 -0.10631 0.59682
 H364 H 1.11859 -0.03023 0.63031
 H365 H 1.14113 -0.05578 0.67440
 H366 H 1.06166 -0.08802 0.69692
 H367 H 1.03910 -0.06250 0.65280
 C368 C 0.34896 1.11608 1.09457
 C369 C 0.36500 1.09608 1.11622
 C370 C 0.38839 1.08236 1.10363
 C371 C 0.39353 1.08994 1.07059
 C372 C 0.39638 1.12286 1.06986
 C373 C 0.37287 1.13665 1.08250
 C374 C 0.34075 1.09701 1.06789
 C375 C 0.36414 1.08328 1.05530
 C376 C 0.32343 1.13015 1.10839
 C377 C 0.30199 1.14055 1.12009
 C378 C 0.41814 1.07399 1.05731
 C379 C 0.43665 1.05825 1.04709
 H380 H 0.35867 1.09311 1.13948
 H381 H 0.40209 1.06763 1.11614
 H382 H 0.41510 1.13429 1.06030
 H383 H 0.37146 1.15993 1.08376
 H384 H 0.31852 1.09466 1.05947
 H385 H 0.36194 1.06918 1.03609
 C386 C 0.35215 0.87772 0.89379
 C387 C 0.34674 0.89455 0.92277
 C388 C 0.37140 0.90724 0.93379
 C389 C 0.39913 0.90191 0.91478
 C390 C 0.39118 0.91219 0.88329
 C391 C 0.36649 0.89947 0.87225
 C392 C 0.37667 0.85629 0.90128
 C393 C 0.40144 0.86905 0.91235
 C394 C 0.32521 0.86471 0.88196
 C395 C 0.30253 0.85520 0.87218
 C396 C 0.42493 0.91664 0.92703
 C397 C 0.44393 0.93117 0.93814
 H398 H 0.32539 0.89641 0.93366
 H399 H 0.37114 0.91997 0.95416
 H400 H 0.40381 0.92810 0.87078
 H401 H 0.35795 0.90451 0.85028
 H402 H 0.37473 0.83320 0.89816
 H403 H 0.42074 0.85692 0.91873
 C404 C 0.64980 0.88418 1.09771
 C405 C 0.65925 0.91107 1.08018
 C406 C 0.63646 0.92520 1.06743
 C407 C 0.60635 0.91112 1.07341
 C408 C 0.60388 0.90896 1.10757
 C409 C 0.62672 0.89479 1.12035
 C410 C 0.63249 0.86576 1.07529
 C411 C 0.60958 0.87997 1.06247
 C412 C 0.67475 0.86973 1.11167
 C413 C 0.69586 0.85920 1.12346
 C414 C 0.58247 0.92752 1.05987
 C415 C 0.56479 0.94370 1.04926
 H416 H 0.68190 0.91839 1.07794
 H417 H 0.63961 0.94465 1.05429
 H418 H 0.58575 0.91774 1.12058
 H419 H 0.62816 0.89143 1.14431
 H420 H 0.63773 0.84357 1.07000
 H421 H 0.59517 0.86998 1.04620
 C422 C 0.64762 1.12461 0.89372
 C423 C 0.64630 1.09202 0.88859
 C424 C 0.62172 1.07933 0.90013
 C425 C 0.60075 1.10042 0.91573
 C426 C 0.59416 1.12345 0.89216
 C427 C 0.61888 1.13622 0.88056
 C428 C 0.64430 1.12845 0.92766
 C429 C 0.61964 1.11572 0.93923
 C430 C 0.67457 1.13748 0.88134
 C431 C 0.69739 1.14661 0.87115
 C432 C 0.57507 1.08560 0.92850
 C433 C 0.55629 1.07076 0.93984
 H434 H 0.66323 1.07994 0.87687
 H435 H 0.61760 1.05636 0.89828
 H436 H 0.57213 1.12922 0.88525
 H437 H 0.61804 1.15296 0.86367
 H438 H 0.65990 1.14016 0.94138
 H439 H 0.61412 1.11653 0.96288
 C440 C 0.09656 0.33518 0.10250
 C441 C 0.06318 0.33358 0.10781
 C442 C 0.04843 0.35675 0.09704
 C443 C 0.06850 0.37925 0.08201
 C444 C 0.08559 0.36263 0.05787
 C445 C 0.10035 0.33944 0.06865
 C446 C 0.10621 0.36385 0.11647
 C447 C 0.09145 0.38705 0.10569
 C448 C 0.11228 0.31021 0.11417
 C449 C 0.12493 0.28960 0.12399
 C450 C 0.05238 0.40400 0.07039
 C451 C 0.03857 0.42388 0.06061
 H452 H 0.05210 0.31584 0.11909
 H453 H 0.02472 0.35887 0.09911
 H454 H 0.08613 0.36859 0.03440
 H455 H 0.11349 0.32552 0.05442
 H456 H 0.12313 0.36576 0.13335
 H457 H 0.09573 0.40884 0.11332
 C458 C -0.09725 0.34313 -0.11780
 C459 C -0.11956 0.36670 -0.10996
 C460 C -0.10692 0.39149 -0.09994
 C461 C -0.07323 0.39026 -0.09876
 C462 C -0.06336 0.38193 -0.13048
 C463 C -0.07602 0.35711 -0.14051
 C464 C -0.07905 0.33911 -0.08940
 C465 C -0.06643 0.36388 -0.07939
 C466 C -0.11097 0.31645 -0.12834
 C467 C -0.12252 0.29455 -0.13673
 C468 C -0.05966 0.41664 -0.08734
 C469 C -0.04834 0.43748 -0.07626
 H470 H -0.14322 0.36410 -0.11197
 H471 H -0.11973 0.41014 -0.09339
 H472 H -0.04781 0.39437 -0.14383
 H473 H -0.07129 0.34825 -0.16248
 H474 H -0.07635 0.31863 -0.07811
 H475 H -0.05290 0.36462 -0.05951
 C476 C 0.10218 0.65264 -0.11473
 C477 C 0.11169 0.62554 -0.13188
 C478 C 0.09831 0.60095 -0.12193
 C479 C 0.07680 0.60596 -0.09585
 C480 C 0.05516 0.62867 -0.10717
 C481 C 0.06851 0.65321 -0.11710
 C482 C 0.10830 0.64597 -0.08180
 C483 C 0.09496 0.62144 -0.07188
 C484 C 0.11639 0.67920 -0.12514
 C485 C 0.12778 0.70128 -0.13341
 C486 C 0.06225 0.58001 -0.08437
 C487 C 0.04975 0.55994 -0.07283
 H488 H 0.12765 0.62565 -0.15009
 H489 H 0.10275 0.57998 -0.13161
 H490 H 0.03143 0.62577 -0.10725
 H491 H 0.05622 0.67137 -0.12565
 H492 H 0.12193 0.65931 -0.06752
 H493 H 0.09716 0.61378 -0.04908
 C494 C -0.09760 0.66649 0.10451
 C495 C -0.09391 0.66706 0.07037
 C496 C -0.07970 0.64362 0.05917
 C497 C -0.07057 0.62194 0.08322
 C498 C -0.09910 0.61443 0.10017
 C499 C -0.11333 0.63788 0.11137
 C500 C -0.06637 0.66283 0.11665
 C501 C -0.05216 0.63941 0.10546
 C502 C -0.11282 0.69171 0.11660
 C503 C -0.12528 0.71243 0.12662
 C504 C -0.05499 0.59693 0.07116
 C505 C -0.04150 0.57685 0.06111
 H506 H -0.10184 0.68429 0.05622
 H507 H -0.07549 0.64076 0.03542
 H508 H -0.10737 0.59265 0.10317
 H509 H -0.13379 0.63619 0.12397
 H510 H -0.05635 0.67727 0.13276
 H511 H -0.02996 0.63378 0.11200
 C512 C 1.10505 0.12405 0.65022
 C513 C 1.11753 0.13571 0.62050
 C514 C 1.10598 0.12263 0.59585
 C515 C 1.08313 0.09923 0.60340
 C516 C 1.06005 0.11427 0.62313
 C517 C 1.07157 0.12731 0.64773
 C518 C 1.11046 0.09153 0.64905
 C519 C 1.09897 0.07852 0.62452
 C520 C 1.11745 0.13746 0.67709
 C521 C 1.12784 0.14734 0.69964
 C522 C 1.07047 0.08420 0.57758
 C523 C 1.05935 0.06962 0.55839
 H524 H 1.13391 0.15274 0.61895
 H525 H 1.11242 0.12847 0.57321
 H526 H 1.03671 0.11471 0.61818
 H527 H 1.05812 0.13890 0.66382
 H528 H 1.12231 0.07971 0.66604
 H529 H 1.10097 0.05555 0.62055
 C530 C 0.90851 -0.11948 0.65465
 C531 C 0.89246 -0.09149 0.64711
 C532 C 0.90436 -0.07705 0.62346
 C533 C 0.93123 -0.09191 0.60947
 C534 C 0.92052 -0.12236 0.60162
 C535 C 0.90856 -0.13688 0.62541
 C536 C 0.94073 -0.11052 0.65920
 C537 C 0.95267 -0.09603 0.63547
 C538 C 0.89522 -0.13429 0.68054
 C539 C 0.88351 -0.14497 0.70223
 C540 C 0.94375 -0.07520 0.58446
 C541 C 0.95334 -0.05901 0.56561
 H542 H 0.87330 -0.08372 0.65926
 H543 H 0.89536 -0.05692 0.61539
 H544 H 0.92228 -0.13171 0.57945
 H545 H 0.90008 -0.15869 0.62360
 H546 H 0.95315 -0.11533 0.67920
 H547 H 0.97531 -0.08844 0.63518
 C548 C 1.10447 -0.12424 0.35191
 C549 C 1.10194 -0.09150 0.34885
 C550 C 1.09048 -0.07847 0.37351
 C551 C 1.08263 -0.09941 0.39894
 C552 C 1.11114 -0.11583 0.40508
 C553 C 1.12265 -0.12892 0.38031
 C554 C 1.07330 -0.13466 0.36004
 C555 C 1.06180 -0.12159 0.38478
 C556 C 1.11687 -0.13764 0.32494
 C557 C 1.12738 -0.14729 0.30225
 C558 C 1.06999 -0.08432 0.42478
 C559 C 1.05881 -0.06952 0.44380
 H560 H 1.10858 -0.07954 0.32903
 H561 H 1.08732 -0.05536 0.37477
 H562 H 1.12143 -0.11700 0.42685
 H563 H 1.14284 -0.14127 0.38087
 H564 H 1.06128 -0.15076 0.34741
 H565 H 1.03993 -0.12652 0.39336
 C566 C 0.90455 0.11681 0.34782
 C567 C 0.89310 0.12669 0.37857
 C568 C 0.90522 0.11220 0.40196
 C569 C 0.92756 0.08931 0.39224
 C570 C 0.95027 0.10545 0.37281
 C571 C 0.93816 0.11993 0.34944
 C572 C 0.89878 0.08429 0.34710
 C573 C 0.91084 0.06988 0.37037
 C574 C 0.89123 0.13160 0.32232
 C575 C 0.87964 0.14224 0.30086
 C576 C 0.94038 0.07259 0.41668
 C577 C 0.95050 0.05625 0.43477
 H578 H 0.87692 0.14355 0.38169
 H579 H 0.89946 0.11666 0.42510
 H580 H 0.97377 0.10548 0.37700
 H581 H 0.95128 0.13234 0.33362
 H582 H 0.88633 0.07347 0.32976
 H583 H 0.90870 0.04672 0.37292
 C584 C 0.11244 0.34983 -0.10000
 C585 C 0.11325 0.37692 -0.11970
 C586 C 0.09965 0.40008 -0.10703
 C587 C 0.08661 0.39387 -0.07591
 C588 C 0.11237 0.38241 -0.05748
 C589 C 0.12598 0.35924 -0.07017
 C590 C 0.07975 0.34473 -0.09299
 C591 C 0.06621 0.36779 -0.08038
 C592 C 0.12637 0.32453 -0.11369
 C593 C 0.13673 0.30330 -0.12511
 C594 C 0.07082 0.41815 -0.06234
 C595 C 0.05505 0.43618 -0.05141
 H596 H 0.12355 0.37782 -0.14167
 H597 H 0.09829 0.42079 -0.11812
 H598 H 0.11940 0.39173 -0.03644
 H599 H 0.14467 0.34874 -0.05998
 H600 H 0.06817 0.32476 -0.09771
 H601 H 0.04302 0.36752 -0.07431
 C602 C -0.12100 0.35112 0.10735
 C603 C -0.13150 0.35724 0.07544
 C604 C -0.12003 0.38190 0.06346
 C605 C -0.09919 0.39803 0.08456
 C606 C -0.07588 0.37578 0.09318
 C607 C -0.08732 0.35120 0.10512
 C608 C -0.12867 0.37834 0.12525
 C609 C -0.11719 0.40303 0.11326
 C610 C -0.13282 0.32431 0.12024
 C611 C -0.14162 0.30198 0.13091
 C612 C -0.08575 0.42400 0.07146
 C613 C -0.07199 0.44346 0.06010
 H614 H -0.14653 0.34337 0.06329
 H615 H -0.12525 0.38914 0.04105
 H616 H -0.05236 0.37905 0.09010
 H617 H -0.07360 0.33346 0.11227
 H618 H -0.14188 0.37822 0.14559
 H619 H -0.12058 0.42403 0.12328
 C620 C -0.11270 0.65212 -0.09657
 C621 C -0.11737 0.65077 -0.06253
 C622 C -0.10469 0.62743 -0.04945
 C623 C -0.08861 0.60772 -0.07170
 C624 C -0.06664 0.62753 -0.08810
 C625 C -0.07927 0.65078 -0.10112
 C626 C -0.12437 0.62318 -0.10829
 C627 C -0.11169 0.59983 -0.09522
 C628 C -0.12570 0.67750 -0.11087
 C629 C -0.13539 0.69866 -0.12288
 C630 C -0.07378 0.58308 -0.05791
 C631 C -0.05875 0.56442 -0.04730
 H632 H -0.12960 0.66670 -0.04983
 H633 H -0.10607 0.62337 -0.02557
 H634 H -0.04311 0.62365 -0.08932
 H635 H -0.06656 0.66676 -0.11345
 H636 H -0.14120 0.62121 -0.12526
 H637 H -0.11766 0.57788 -0.10096
 C638 C 0.11950 0.64811 0.10741
 C639 C 0.12601 0.64382 0.07397
 C640 C 0.11389 0.61934 0.06250
 C641 C 0.09646 0.60153 0.08559
 C642 C 0.07378 0.62248 0.09874
 C643 C 0.08586 0.64690 0.11019
 C644 C 0.13026 0.62042 0.12252
 C645 C 0.11813 0.59590 0.11103
 C646 C 0.13199 0.67477 0.11972
 C647 C 0.14126 0.69707 0.12985
 C648 C 0.08242 0.57578 0.07300
 C649 C 0.06841 0.55654 0.06186
 H650 H 0.13886 0.65878 0.06045
 H651 H 0.11638 0.61334 0.03915
 H652 H 0.05020 0.61852 0.09892
 H653 H 0.07264 0.66381 0.12016
 H654 H 0.14598 0.62012 0.14065
 H655 H 0.12345 0.57460 0.11928
 C656 C 0.33196 1.09677 0.89629
 C657 C 0.35206 1.08381 0.87210
 C658 C 0.37552 1.06932 0.88327
 C659 C 0.37662 1.06917 0.91755
 C660 C 0.34673 1.05684 0.92763
 C661 C 0.32326 1.07133 0.91646
 C662 C 0.35235 1.11552 0.91545
 C663 C 0.37583 1.10102 0.92663
 C664 C 0.30671 1.11235 0.88411
 C665 C 0.28605 1.12505 0.87381
 C666 C 0.40177 1.05334 0.92957
 C667 C 0.42207 1.03985 0.93950
 H668 H 0.34823 1.08590 0.84827
 H669 H 0.39181 1.05904 0.86901
 H670 H 0.34422 1.03829 0.94222
 H671 H 0.30067 1.06518 0.92148
 H672 H 0.34875 1.13823 0.91973
 H673 H 0.39236 1.11132 0.94044
 C674 C 0.34494 0.89901 1.11613
 C675 C 0.33988 0.93009 1.10591
 C676 C 0.36475 0.94349 1.09574
 C677 C 0.39227 0.92451 1.09676
 C678 C 0.38407 0.89742 1.07897
 C679 C 0.35921 0.88402 1.08915
 C680 C 0.36942 0.90107 1.13956
 C681 C 0.39433 0.91450 1.12936
 C682 C 0.31803 0.88463 1.12690
 C683 C 0.29582 0.87292 1.13562
 C684 C 0.41863 0.93906 1.08501
 C685 C 0.43908 0.95136 1.07328
 H686 H 0.31862 0.94062 1.10645
 H687 H 0.36478 0.96552 1.08763
 H688 H 0.39665 0.88952 1.05996
 H689 H 0.35048 0.86467 1.07883
 H690 H 0.36735 0.89272 1.16215
 H691 H 0.41359 0.91767 1.14319
 C692 C 0.65943 1.09693 1.11976
 C693 C 0.63263 1.09961 1.14075
 C694 C 0.60791 1.08641 1.13023
 C695 C 0.61243 1.07184 1.09976
 C696 C 0.63838 1.05129 1.10412
 C697 C 0.66308 1.06448 1.11462
 C698 C 0.64910 1.10884 1.08965
 C699 C 0.62442 1.09566 1.07915
 C700 C 0.68609 1.11120 1.13089
 C701 C 0.70801 1.12307 1.13978
 C702 C 0.58608 1.05770 1.08779
 C703 C 0.56523 1.04608 1.07636
 H704 H 0.63300 1.11103 1.16192
 H705 H 0.58713 1.08648 1.14239
 H706 H 0.63750 1.02843 1.09920
 H707 H 0.68337 1.05291 1.11864
 H708 H 0.66021 1.12608 1.07759
 H709 H 0.61440 1.10163 1.05811
 C710 C 0.66843 0.90430 0.89173
 C711 C 0.66582 0.90212 0.92590
 C712 C 0.64242 0.91667 0.93755
 C713 C 0.62389 0.93201 0.91390
 C714 C 0.61517 0.90837 0.89165
 C715 C 0.63858 0.89381 0.88000
 C716 C 0.66919 0.93670 0.88507
 C717 C 0.64580 0.95126 0.89672
 C718 C 0.69369 0.88864 0.87920
 C719 C 0.71446 0.87579 0.86894
 C720 C 0.59881 0.94786 0.92654
 C721 C 0.57859 0.96127 0.93713
 H722 H 0.68099 0.89015 0.93972
 H723 H 0.63756 0.91716 0.96135
 H724 H 0.59260 0.90348 0.88561
 H725 H 0.63605 0.87645 0.86396
 H726 H 0.68656 0.94728 0.87231
 H727 H 0.64315 0.97431 0.89393
   
