data_POSCAR
  _audit_creation_date              2014-09-24
  _audit_creation_method            'ToBaCCo'
  _symmetry_space_group_name_H-M    'P1'
  _symmetry_Int_Tables_number       1
  _symmetry_cell_setting            triclinic
  loop_
  _symmetry_equiv_pos_as_xyz
 x,y,z
_cell_length_a 34.1481
_cell_length_b 33.4832
_cell_length_c 84.4319
_cell_angle_alpha 86.537800
_cell_angle_beta 92.488800
_cell_angle_gamma 120.626900
loop_
  _atom_site_label
  _atom_site_type_symbol
  _atom_site_fract_x
  _atom_site_fract_y
  _atom_site_fract_z
C1 C 0.00422 0.10502 0.51610
 H2 H 0.03826 0.11331 0.51334
 C3 C -0.00186 0.13523 0.52490
 H4 H 0.02780 0.16669 0.52886
 C5 C -0.07551 0.05341 0.51445
 H6 H -0.10398 0.02146 0.51030
 C7 C -0.08316 0.08237 0.52355
 H8 H -0.11769 0.07252 0.52632
 N9 N -0.03227 0.06522 0.51097
 C10 C 0.00166 -0.04263 0.50727
 H11 H 0.00256 -0.04473 0.49456
 C12 C 0.00491 -0.07526 0.51752
 H13 H 0.00871 -0.10218 0.51258
 C14 C -0.00708 -0.00651 0.52904
 H15 H -0.01276 0.01968 0.53349
 C16 C -0.00425 -0.03847 0.53968
 H17 H -0.00732 -0.03604 0.55225
 Zn18 Zn -0.01844 0.02800 0.49908
 N19 N -0.00488 -0.00958 0.51316
 C20 C 0.07088 0.06739 0.48616
 N21 N 0.03189 0.06904 0.48625
 C22 C 0.02755 0.10190 0.47740
 C23 C 0.06240 0.13364 0.46749
 C24 C 0.10698 0.09894 0.47647
 C25 C -0.10316 -0.05171 0.49287
 C26 C -0.13749 -0.08534 0.48344
 C27 C -0.10079 -0.03608 0.46027
 C28 C -0.06690 -0.00403 0.47011
 N29 N -0.06842 -0.01230 0.48609
 H30 H 0.07401 0.04163 0.49355
 H31 H -0.00341 0.10312 0.47799
 H32 H 0.05779 0.15908 0.46044
 H33 H 0.13759 0.09685 0.47639
 H34 H -0.10332 -0.05782 0.50560
 H35 H -0.16401 -0.11683 0.48921
 H36 H -0.09779 -0.02824 0.44759
 H37 H -0.03880 0.02685 0.46481
 C38 C 0.00083 -0.07408 0.53395
 C39 C -0.04594 0.12404 0.52879
 C40 C -0.13641 -0.07827 0.46677
 C41 C 0.10271 0.13229 0.46684
 C42 C 1.09975 0.03158 0.14104
 H43 H 1.09614 0.06189 0.14078
 C44 C 1.12937 0.02979 0.13069
 H45 H 1.14836 0.05906 0.12247
 C46 C 1.07945 -0.04285 0.15239
 H47 H 1.06023 -0.07073 0.16102
 C48 C 1.10913 -0.04599 0.14226
 H49 H 1.11221 -0.07666 0.14310
 N50 N 1.07531 -0.00446 0.15152
 C51 C 0.96583 0.02274 0.15955
 H52 H 0.97052 0.03100 0.17193
 C53 C 0.92992 0.02237 0.15077
 H54 H 0.90750 0.03110 0.15638
 C55 C 0.98740 -0.00159 0.13741
 H56 H 1.00888 -0.01233 0.13233
 C57 C 0.95150 -0.00340 0.12836
 H58 H 0.94651 -0.01444 0.11627
 Zn59 Zn 1.03843 0.00503 0.16506
 N60 N 0.99396 0.01126 0.15272
 C61 C 1.07403 0.09660 0.17720
 N62 N 1.07870 0.05881 0.17620
 C63 C 1.11451 0.05726 0.18321
 C64 C 1.14717 0.09427 0.19182
 C65 C 1.10565 0.13426 0.18600
 C66 C 0.97505 -0.08762 0.17409
 C67 C 0.94591 -0.12381 0.18455
 C68 C 0.98313 -0.07330 0.20632
 C69 C 1.01151 -0.03823 0.19548
 N70 N 1.00660 -0.04569 0.17968
 H71 H 1.04594 0.09769 0.17125
 H72 H 1.11751 0.02690 0.18215
 H73 H 1.17513 0.09195 0.19740
 H74 H 1.10138 0.16396 0.18684
 H75 H 0.97132 -0.09233 0.16143
 H76 H 0.92006 -0.15645 0.17982
 H77 H 0.98690 -0.06602 0.21879
 H78 H 1.03606 -0.00443 0.19969
 C79 C 0.92208 0.00840 0.13504
 C80 C 1.13456 -0.00926 0.13122
 C81 C 0.94907 -0.11647 0.20089
 C82 C 1.14283 0.13328 0.19341
 C83 C 0.04751 0.95508 0.85688
 H84 H 0.01658 0.92150 0.85672
 C85 C 0.08561 0.95999 0.86527
 H86 H 0.08359 0.93000 0.87169
 C87 C 0.08751 1.03468 0.84846
 H88 H 0.08824 1.06337 0.84162
 C89 C 0.12635 1.04138 0.85699
 H90 H 0.15681 1.07542 0.85673
 N91 N 0.04911 0.99199 0.84863
 C92 C -0.09221 0.95819 0.84440
 H93 H -0.09833 0.95522 0.83173
 C94 C -0.12565 0.95506 0.85425
 H95 H -0.15755 0.94905 0.84895
 C96 C -0.04212 0.97200 0.86638
 H97 H -0.00917 0.97969 0.87104
 C98 C -0.07426 0.96962 0.87662
 H99 H -0.06538 0.97488 0.88910
 Zn100 Zn -0.00423 0.97814 0.83672
 N101 N -0.05135 0.96672 0.85057
 C102 C -0.06139 0.88803 0.82375
 N103 N -0.01876 0.92566 0.82505
 C104 C 0.01729 0.92777 0.81798
 C105 C 0.01147 0.89112 0.80925
 C106 C -0.06897 0.85086 0.81475
 C107 C 0.01291 1.06842 0.82824
 C108 C 0.01385 1.10331 0.81798
 C109 C -0.00162 1.05399 0.79603
 C110 C -0.00201 1.02028 0.80666
 N111 N 0.00470 1.02776 0.82246
 H112 H -0.08953 0.88681 0.82957
 H113 H 0.05079 0.95814 0.81917
 H114 H 0.04071 0.89365 0.80371
 H115 H -0.10307 0.82125 0.81368
 H116 H 0.01725 1.07312 0.84089
 H117 H 0.01934 1.13498 0.82285
 H118 H -0.00798 1.04678 0.78356
 H119 H -0.00927 0.98749 0.80230
 C120 C -0.11660 0.96182 0.87061
 C121 C 0.12572 1.00351 0.86537
 C122 C 0.00563 1.09588 0.80166
 C123 C -0.03211 0.85216 0.80746
 C124 C 0.39106 -0.01685 0.00472
 C125 C 0.39380 -0.01303 -0.01150
 C126 C 0.43771 -0.00142 -0.01507
 N127 N 0.46198 0.00234 -0.00158
 C128 C 0.43347 -0.00716 0.01054
 C129 C 0.45517 0.00753 -0.03055
 C130 C 0.49711 0.01156 -0.03410
 C131 C 0.51924 0.02896 -0.04844
 C132 C 0.55725 0.02470 -0.04750
 C133 C 0.55730 0.00472 -0.03262
 N134 N 0.52043 -0.00327 -0.02454
 C135 C 0.58992 -0.00725 -0.02715
 C136 C 0.59577 -0.01668 -0.01092
 C137 C 0.62389 -0.03306 -0.00516
 C138 C 0.62311 -0.03359 0.01105
 C139 C 0.59365 -0.01861 0.01478
 N140 N 0.57730 -0.00792 0.00131
 C141 C 0.58508 -0.01157 0.03032
 C142 C 0.55018 -0.00269 0.03393
 C143 C 0.54447 0.01014 0.04860
 C144 C 0.50502 0.01175 0.04762
 C145 C 0.48744 -0.00039 0.03242
 N146 N 0.51499 -0.00939 0.02419
 C147 C 0.44583 -0.00488 0.02680
 H148 H 0.36116 -0.02578 0.01143
 H149 H 0.36647 -0.01842 -0.01971
 H150 H 0.50744 -0.02431 0.01322
 H151 H 0.50905 0.04323 -0.05855
 H152 H 0.58209 0.03532 -0.05673
 H153 H 0.64335 -0.04332 -0.01187
 H154 H 0.64242 -0.04368 0.01907
 H155 H 0.49078 0.02054 0.05709
 H156 H 0.50920 -0.02240 -0.01387
 H157 H 0.56583 0.01681 0.05910
 C158 C -0.02956 0.37527 0.65674
 C159 C -0.02613 0.37244 0.67295
 C160 C -0.04057 0.40062 0.67875
 N161 N -0.05226 0.42090 0.66660
 C162 C -0.04541 0.40552 0.65314
 C163 C -0.04527 0.40530 0.69499
 C164 C -0.05450 0.43892 0.70026
 C165 C -0.07117 0.43771 0.71508
 C166 C -0.07314 0.47757 0.71580
 C167 C -0.05748 0.50212 0.70142
 N168 N -0.04622 0.47830 0.69201
 C169 C -0.05111 0.54675 0.69774
 C170 C -0.04272 0.56739 0.68225
 C171 C -0.02666 0.61405 0.67864
 C172 C -0.02467 0.61964 0.66243
 C173 C -0.04026 0.57605 0.65663
 N174 N -0.05119 0.54416 0.66880
 C175 C -0.04667 0.56566 0.64039
 C176 C -0.05714 0.52192 0.63515
 C177 C -0.07558 0.50510 0.62039
 C178 C -0.07828 0.46284 0.61967
 C179 C -0.06129 0.45505 0.63400
 N180 N -0.04852 0.49121 0.64338
 C181 C -0.05519 0.41680 0.63767
 H182 H -0.02082 0.35752 0.64852
 H183 H -0.01415 0.35205 0.67964
 H184 H -0.03021 0.49711 0.65400
 H185 H -0.08100 0.41088 0.72442
 H186 H -0.08448 0.48749 0.72583
 H187 H -0.01683 0.64135 0.68685
 H188 H -0.01282 0.65226 0.65575
 H189 H -0.09102 0.44057 0.60968
 H190 H -0.02902 0.49064 0.68134
 H191 H -0.08612 0.52149 0.61109
 C192 C 0.65729 0.60941 0.32875
 C193 C 0.65170 0.61057 0.34466
 C194 C 0.60527 0.58558 0.34726
 N195 N 0.58227 0.56940 0.33348
 C196 C 0.61403 0.58421 0.32211
 C197 C 0.58471 0.58105 0.36193
 C198 C 0.53934 0.54592 0.36521
 C199 C 0.51478 0.54383 0.37823
 C200 C 0.47366 0.50296 0.37759
 C201 C 0.47391 0.48161 0.36407
 N202 N 0.51407 0.50780 0.35664
 C203 C 0.43811 0.43826 0.35919
 C204 C 0.43257 0.42442 0.34340
 C205 C 0.40039 0.38088 0.33828
 C206 C 0.40369 0.38296 0.32209
 C207 C 0.43802 0.42758 0.31786
 N208 N 0.45559 0.45292 0.33090
 C209 C 0.45086 0.44496 0.30213
 C210 C 0.49139 0.48696 0.29832
 C211 C 0.50121 0.50970 0.28348
 C212 C 0.54462 0.54740 0.28445
 C213 C 0.56015 0.54664 0.29985
 N214 N 0.52752 0.50966 0.30822
 C215 C 0.60408 0.57846 0.30569
 H216 H 0.68959 0.62550 0.32279
 H217 H 0.67876 0.62771 0.35334
 H218 H 0.53156 0.49793 0.31952
 H219 H 0.52516 0.56898 0.38728
 H220 H 0.44641 0.49069 0.38600
 H221 H 0.37678 0.35078 0.34543
 H222 H 0.38324 0.35478 0.31432
 H223 H 0.56246 0.57263 0.27490
 H224 H 0.52517 0.49784 0.34716
 H225 H 0.47939 0.50017 0.27302
 C226 C -0.06086 0.21347 0.55738
 N227 N -0.09437 0.16827 0.55658
 N228 N -0.09024 0.13993 0.54723
 C229 C -0.05227 0.15568 0.53846
 N230 N -0.01902 0.20097 0.53922
 N231 N -0.02328 0.22933 0.54846
 C232 C -0.06379 0.24440 0.56828
 N233 N -0.03209 0.29040 0.56786
 N234 N -0.03291 0.31827 0.57828
 C235 C -0.06530 0.30112 0.58958
 N236 N -0.09720 0.25515 0.58995
 N237 N -0.09653 0.22730 0.57946
 C238 C -0.06436 0.33142 0.60165
 N239 N -0.09155 0.31316 0.61450
 N240 N -0.08899 0.34039 0.62585
 C241 C -0.05931 0.38691 0.62472
 N242 N -0.03240 0.40525 0.61180
 N243 N -0.03480 0.37797 0.60049
 C244 C 0.84995 0.78588 0.23228
 N245 N 0.88198 0.82848 0.23711
 N246 N 0.91400 0.85889 0.22723
 C247 C 0.91528 0.84806 0.21209
 N248 N 0.88337 0.80519 0.20730
 N249 N 0.85137 0.77462 0.21722
 C250 C 0.81347 0.75365 0.24308
 N251 N 0.78304 0.70947 0.23907
 N252 N 0.74945 0.68100 0.24886
 C253 C 0.74495 0.69584 0.26293
 N254 N 0.77539 0.73997 0.26689
 N255 N 0.80904 0.76829 0.25717
 C256 C 0.70784 0.66516 0.27375
 N257 N 0.70059 0.68255 0.28668
 N258 N 0.66740 0.65509 0.29669
 C259 C 0.64034 0.60905 0.29423
 N260 N 0.64742 0.59167 0.28122
 N261 N 0.68051 0.61925 0.27114
 C262 C 0.23876 0.01606 -0.10876
 N263 N 0.20731 -0.02502 -0.11481
 N264 N 0.17174 -0.02870 -0.12316
 C265 C 0.16635 0.00861 -0.12588
 N266 N 0.19821 0.04996 -0.12002
 N267 N 0.23364 0.05355 -0.11153
 C268 C 0.27617 0.01883 -0.09871
 N269 N 0.30121 0.05557 -0.08943
 N270 N 0.33286 0.05620 -0.07946
 C271 C 0.34082 0.02030 -0.07850
 N272 N 0.31625 -0.01607 -0.08794
 N273 N 0.28440 -0.01686 -0.09782
 C274 C 0.37326 0.01923 -0.06674
 N275 N 0.38452 -0.01423 -0.06688
 N276 N 0.41155 -0.01719 -0.05560
 C277 C 0.42798 0.01299 -0.04370
 N278 N 0.41703 0.04668 -0.04361
 N279 N 0.39025 0.04983 -0.05496
 C280 C -0.00962 0.81837 0.56507
 N281 N -0.01933 0.85016 0.56997
 N282 N -0.01510 0.88472 0.56015
 C283 C -0.00112 0.88888 0.54502
 N284 N 0.00878 0.85709 0.54013
 N285 N 0.00476 0.82257 0.54999
 C286 C -0.01577 0.77963 0.57589
 N287 N -0.00165 0.75029 0.57194
 N288 N -0.00762 0.71514 0.58185
 C289 C -0.02825 0.70789 0.59600
 N290 N -0.04246 0.73715 0.59990
 N291 N -0.03626 0.77239 0.59004
 C292 C -0.03447 0.66968 0.60711
 N293 N -0.05938 0.65987 0.62039
 N294 N -0.06392 0.62634 0.63080
 C295 C -0.04343 0.60154 0.62840
 N296 N -0.01894 0.61102 0.61501
 N297 N -0.01460 0.64442 0.60454
 C298 C 0.23842 0.23991 0.22171
 N299 N 0.24909 0.21115 0.21484
 N300 N 0.21886 0.17780 0.20569
 C301 C 0.17684 0.17202 0.20293
 N302 N 0.16634 0.20124 0.20963
 N303 N 0.19652 0.23446 0.21891
 C304 C 0.27117 0.27477 0.23252
 N305 N 0.25824 0.29725 0.24200
 N306 N 0.28750 0.32679 0.25245
 C307 C 0.33080 0.33511 0.25373
 N308 N 0.34382 0.31301 0.24413
 N309 N 0.31451 0.28329 0.23376
 C310 C 0.36247 0.36567 0.26580
 N311 N 0.40679 0.37716 0.26610
 N312 N 0.43510 0.40302 0.27748
 C313 C 0.42000 0.41807 0.28905
 N314 N 0.37573 0.40679 0.28872
 N315 N 0.34750 0.38114 0.27728
 C316 C 0.79317 -0.03169 -0.10014
 N317 N 0.78163 -0.04318 -0.11548
 N318 N 0.81052 -0.04577 -0.12491
 C319 C 0.85196 -0.03731 -0.11936
 N320 N 0.86301 -0.02637 -0.10392
 N321 N 0.83432 -0.02348 -0.09453
 C322 C 0.76236 -0.02713 -0.08976
 N323 N 0.77754 -0.00795 -0.07545
 N324 N 0.75009 -0.00331 -0.06597
 C325 C 0.70634 -0.01786 -0.07040
 N326 N 0.69103 -0.03720 -0.08470
 N327 N 0.71862 -0.04156 -0.09425
 C328 C 0.67616 -0.01349 -0.05965
 N329 N 0.63063 -0.03472 -0.06255
 N330 N 0.60330 -0.03226 -0.05235
 C331 C 0.62050 -0.00833 -0.03890
 N332 N 0.66614 0.01356 -0.03619
 N333 N 0.69339 0.01087 -0.04633
 C334 C 0.22744 -0.01132 0.10074
 N335 N 0.21735 0.02301 0.09929
 N336 N 0.18773 0.02332 0.10893
 C337 C 0.16682 -0.01072 0.12040
 N338 N 0.17678 -0.04528 0.12180
 N339 N 0.20657 -0.04556 0.11216
 C340 C 0.26059 -0.01076 0.09008
 N341 N 0.27315 -0.04333 0.09170
 N342 N 0.30341 -0.04221 0.08194
 C343 C 0.32212 -0.00853 0.07021
 N344 N 0.30951 0.02394 0.06861
 N345 N 0.27939 0.02289 0.07837
 C346 C 0.35497 -0.00726 0.05923
 N347 N 0.37106 0.02499 0.04701
 N348 N 0.40018 0.02594 0.03680
 C349 C 0.41438 -0.00529 0.03845
 N350 N 0.39860 -0.03736 0.05074
 N351 N 0.36936 -0.03837 0.06095
 C352 C 0.77306 0.82151 0.43765
 N353 N 0.80491 0.86376 0.43163
 N354 N 0.83404 0.89654 0.44118
 C355 C 0.83257 0.88873 0.45720
 N356 N 0.80006 0.84640 0.46320
 N357 N 0.77101 0.81341 0.45363
 C358 C 0.74248 0.78515 0.42687
 N359 N 0.71490 0.74059 0.43230
 N360 N 0.68866 0.70763 0.42225
 C361 C 0.68900 0.71814 0.40644
 N362 N 0.71634 0.76272 0.40107
 N363 N 0.74266 0.79555 0.41108
 C364 C 0.66109 0.68217 0.39515
 N365 N 0.65972 0.69431 0.37961
 N366 N 0.63527 0.66212 0.36917
 C367 C 0.61137 0.61645 0.37383
 N368 N 0.61274 0.60423 0.38940
 N369 N 0.63712 0.63653 0.39988
 C370 C -0.00815 0.19099 0.77065
 N371 N 0.01003 0.20333 0.78542
 N372 N 0.01488 0.17339 0.79526
 C373 C 0.00205 0.13011 0.79065
 N374 N -0.01583 0.11808 0.77583
 N375 N -0.02089 0.14786 0.76604
 C376 C -0.01457 0.22325 0.75981
 N377 N -0.03793 0.20831 0.74594
 N378 N -0.04395 0.23722 0.73600
 C379 C -0.02670 0.28222 0.73954
 N380 N -0.00328 0.29724 0.75342
 N381 N 0.00256 0.26823 0.76341
 C382 C -0.03267 0.31407 0.72834
 N383 N -0.01104 0.36030 0.73075
 N384 N -0.01541 0.38919 0.72024
 C385 C -0.04164 0.37291 0.70696
 N386 N -0.06375 0.32657 0.70469
 N387 N -0.05924 0.29774 0.71515
 C388 C 0.81105 -0.00330 0.10805
 N389 N 0.82838 -0.03089 0.10556
 N390 N 0.86358 -0.02709 0.11419
 C391 C 0.88262 0.00418 0.12573
 N392 N 0.86493 0.03146 0.12836
 N393 N 0.82996 0.02800 0.11960
 C394 C 0.77358 -0.00643 0.09795
 N395 N 0.76394 0.02830 0.09712
 N396 N 0.73170 0.02649 0.08719
 C397 C 0.70766 -0.01033 0.07785
 N398 N 0.71691 -0.04531 0.07884
 N399 N 0.74941 -0.04329 0.08865
 C400 C 0.67392 -0.01134 0.06625
 N401 N 0.64524 -0.05087 0.05871
 N402 N 0.61629 -0.05124 0.04754
 C403 C 0.61530 -0.01196 0.04339
 N404 N 0.64380 0.02752 0.05099
 N405 N 0.67248 0.02779 0.06226
 C406 C 0.20571 0.22548 0.43577
 N407 N 0.16318 0.21905 0.43441
 N408 N 0.13073 0.18961 0.44434
 C409 C 0.13935 0.16520 0.45598
 N410 N 0.18197 0.17158 0.45732
 N411 N 0.21459 0.20127 0.44743
 C412 C 0.24106 0.25785 0.42466
 N413 N 0.28504 0.26885 0.42679
 N414 N 0.31679 0.29825 0.41658
 C415 C 0.30563 0.31748 0.40385
 N416 N 0.26166 0.30638 0.40173
 N417 N 0.23001 0.27723 0.41196
 C418 C 0.34021 0.34932 0.39242
 N419 N 0.32770 0.36362 0.37874
 N420 N 0.35880 0.39198 0.36821
 C421 C 0.40358 0.40721 0.37099
 N422 N 0.41617 0.39327 0.38473
 N423 N 0.38502 0.36470 0.39524
 C424 C -0.04781 0.74697 0.77876
 N425 N -0.00797 0.77371 0.78656
 N426 N -0.00335 0.80660 0.79586
 C427 C -0.03850 0.81382 0.79783
 N428 N -0.07865 0.78656 0.79021
 N429 N -0.08315 0.75387 0.78078
 C430 C -0.05151 0.71289 0.76774
 N431 N -0.08661 0.69380 0.75713
 N432 N -0.08823 0.66512 0.74649
 C433 C -0.05499 0.65429 0.74616
 N434 N -0.02021 0.67295 0.75690
 N435 N -0.01841 0.70187 0.76745
 C436 C -0.05541 0.62460 0.73397
 N437 N -0.02533 0.60936 0.73478
 N438 N -0.02440 0.58402 0.72339
 C439 C -0.05330 0.57332 0.71071
 N440 N -0.08345 0.58847 0.70991
 N441 N -0.08457 0.61355 0.72136
   
