data_POSCAR
  _audit_creation_date              2014-09-24
  _audit_creation_method            'ToBaCCo'
  _symmetry_space_group_name_H-M    'P1'
  _symmetry_Int_Tables_number       1
  _symmetry_cell_setting            triclinic
  loop_
  _symmetry_equiv_pos_as_xyz
 x,y,z
_cell_length_a 41.7223
_cell_length_b 49.0819
_cell_length_c 25.6803
_cell_angle_alpha 89.276700
_cell_angle_beta 90.036100
_cell_angle_gamma 89.958600
loop_
  _atom_site_label
  _atom_site_type_symbol
  _atom_site_fract_x
  _atom_site_fract_y
  _atom_site_fract_z
C1 C 0.18952 0.25265 0.16590
 C2 C 0.19797 0.22764 0.19048
 C3 C 0.22308 0.22834 0.22769
 C4 C 0.24132 0.25207 0.23626
 C5 C 0.23271 0.27604 0.20914
 C6 C 0.20581 0.27691 0.17667
 C7 C 0.26878 0.25213 0.27425
 C8 C 0.27835 0.27649 0.29820
 C9 C 0.30510 0.27730 0.33107
 C10 C 0.32082 0.25293 0.34415
 C11 C 0.31111 0.22781 0.32322
 C12 C 0.28582 0.22801 0.28653
 H13 H 0.17025 0.25392 0.13811
 H14 H 0.22759 0.21076 0.25214
 H15 H 0.24653 0.29449 0.21337
 H16 H 0.26518 0.29518 0.29163
 H17 H 0.34208 0.25398 0.36820
 H18 H 0.27864 0.20920 0.26873
 C19 C 0.80974 0.24506 0.16753
 C20 C 0.79527 0.27026 0.17739
 C21 C 0.77014 0.27153 0.21367
 C22 C 0.76025 0.24811 0.24166
 C23 C 0.77585 0.22319 0.23205
 C24 C 0.80011 0.22144 0.19446
 C25 C 0.73410 0.24960 0.28131
 C26 C 0.71371 0.22711 0.29030
 C27 C 0.68953 0.22757 0.32887
 C28 C 0.68585 0.25183 0.35728
 C29 C 0.70471 0.27487 0.34706
 C30 C 0.72916 0.27348 0.30993
 H31 H 0.82952 0.24397 0.14030
 H32 H 0.75824 0.29085 0.21951
 H33 H 0.76924 0.20501 0.25377
 H34 H 0.71583 0.20983 0.26495
 H35 H 0.66829 0.25326 0.38800
 H36 H 0.74437 0.29109 0.30396
 C37 C 0.69863 0.75549 0.64862
 C38 C 0.70393 0.73121 0.67696
 C39 C 0.72427 0.73191 0.72063
 C40 C 0.74075 0.75587 0.73429
 C41 C 0.73491 0.77982 0.70486
 C42 C 0.71283 0.78006 0.66359
 C43 C 0.76332 0.75589 0.77981
 C44 C 0.76945 0.77994 0.80747
 C45 C 0.79154 0.78052 0.84908
 C46 C 0.80453 0.75547 0.86657
 C47 C 0.79898 0.73111 0.83973
 C48 C 0.77924 0.73186 0.79543
 H49 H 0.68261 0.75558 0.61557
 H50 H 0.72655 0.71384 0.74482
 H51 H 0.74726 0.79854 0.71378
 H52 H 0.75630 0.79824 0.79756
 H53 H 0.82049 0.75492 0.89955
 H54 H 0.77684 0.71367 0.77245
 C55 C 0.30571 0.74826 0.64441
 C56 C 0.28945 0.77279 0.65311
 C57 C 0.26396 0.77305 0.68873
 C58 C 0.25607 0.74965 0.71841
 C59 C 0.27392 0.72562 0.71076
 C60 C 0.29836 0.72453 0.67319
 C61 C 0.23003 0.75047 0.75846
 C62 C 0.21225 0.72687 0.77088
 C63 C 0.18860 0.72665 0.81041
 C64 C 0.18187 0.75172 0.83486
 C65 C 0.19789 0.77583 0.82076
 C66 C 0.22265 0.77480 0.78410
 H67 H 0.32480 0.74793 0.61595
 H68 H 0.25044 0.79169 0.69313
 H69 H 0.26952 0.70789 0.73514
 H70 H 0.21611 0.70903 0.74760
 H71 H 0.16426 0.75309 0.86538
 H72 H 0.23614 0.79318 0.77599
 O73 O 0.97172 -0.02518 -0.02363
 O74 O 1.03019 0.02904 0.00100
 O75 O 1.03430 -0.02238 -0.02728
 O76 O 0.96913 0.02530 0.00250
 O77 O 0.97206 0.01357 0.08560
 O78 O 1.03604 -0.03568 0.05499
 O79 O 1.03409 0.01568 0.08321
 O80 O 0.97362 -0.03760 0.05917
 Cu81 Cu 1.00144 0.00272 -0.02030
 Cu82 Cu 1.00436 -0.01239 0.07898
 C83 C 0.96218 -0.04036 0.01366
 C84 C 1.04129 0.03220 0.04658
 C85 C 1.04593 -0.03759 0.00839
 C86 C 0.95980 0.02800 0.04921
 O87 O 0.54171 0.47148 0.52126
 O88 O 0.47927 0.51958 0.56449
 O89 O 0.47944 0.46885 0.53226
 O90 O 0.54069 0.52153 0.55427
 O91 O 0.53416 0.53656 0.47346
 O92 O 0.47334 0.48377 0.45152
 O93 O 0.47407 0.53451 0.48331
 O94 O 0.53577 0.48657 0.44060
 Cu95 Cu 0.51075 0.49361 0.55106
 Cu96 Cu 0.50359 0.51142 0.45381
 C97 C 0.54959 0.47100 0.47347
 C98 C 0.46737 0.53616 0.53134
 C99 C 0.46603 0.46719 0.48800
 C100 C 0.54694 0.53864 0.51814
 O101 O -0.03180 0.53335 0.04509
 O102 O 0.03059 0.48114 0.06334
 O103 O 0.02819 0.53239 0.03347
 O104 O -0.03166 0.48263 0.07743
 O105 O -0.03842 0.46885 -0.00321
 O106 O 0.02196 0.51912 -0.04785
 O107 O 0.02364 0.46771 -0.01748
 O108 O -0.03937 0.51963 -0.03563
 Cu109 Cu -0.00041 0.50830 0.06324
 Cu110 Cu -0.00866 0.49223 -0.03404
 C111 C -0.04528 0.53607 0.00096
 C112 C 0.03783 0.46547 0.02612
 C113 C 0.03411 0.53518 -0.01475
 C114 C -0.04546 0.46731 0.04490
 O115 O 0.46865 0.95045 0.41160
 O116 O 0.53051 1.00176 0.37928
 O117 O 0.53136 0.95166 0.41441
 O118 O 0.46835 1.00103 0.37676
 O119 O 0.46633 1.01526 0.45782
 O120 O 0.53007 0.96715 0.49461
 O121 O 0.52749 1.01720 0.45957
 O122 O 0.46738 0.96526 0.49228
 Cu123 Cu 0.49982 0.97456 0.38748
 Cu124 Cu 0.49768 0.99246 0.48431
 C125 C 0.45746 0.94910 0.45759
 C126 C 0.53883 1.01870 0.41376
 C127 C 0.54173 0.95121 0.46095
 C128 C 0.45707 1.01701 0.41079
 C129 C 1.18011 0.15267 0.17834
 C130 C 1.15056 0.15261 0.15160
 C131 C 1.13724 0.17812 0.13727
 C132 C 1.15197 0.20251 0.15225
 C133 C 1.18177 0.20270 0.17853
 C134 C 1.19548 0.17704 0.19076
 C135 C 1.10923 0.17931 0.10759
 C136 C 1.09480 0.15569 0.09007
 C137 C 1.10703 0.12975 0.10366
 C138 C 1.13415 0.12817 0.13756
 C139 C 1.14327 0.10235 0.15750
 C140 C 1.12662 0.07886 0.14423
 C141 C 1.10137 0.07997 0.10859
 C142 C 1.09216 0.10534 0.08612
 C143 C 1.06861 0.10521 0.04649
 C144 C 1.05342 0.08113 0.03240
 C145 C 1.06077 0.05650 0.05769
 C146 C 1.08502 0.05593 0.09544
 H147 H 1.19276 0.13411 0.18798
 H148 H 1.13923 0.22115 0.14358
 H149 H 1.21899 0.17518 0.20806
 H150 H 1.09869 0.19878 0.09678
 H151 H 1.07316 0.15836 0.06760
 H152 H 1.16238 0.09983 0.18543
 H153 H 1.13387 0.05957 0.16158
 H154 H 1.06183 0.12335 0.02504
 H155 H 1.03496 0.08198 0.00272
 H156 H 1.09123 0.03677 0.11440
 C157 C 0.68753 0.65581 0.65504
 C158 C 0.65750 0.65623 0.62945
 C159 C 0.64334 0.68197 0.61898
 C160 C 0.65773 0.70593 0.63665
 C161 C 0.68771 0.70536 0.66157
 C162 C 0.70247 0.67995 0.67010
 C163 C 0.61497 0.68377 0.59045
 C164 C 0.60079 0.66059 0.57045
 C165 C 0.61370 0.63447 0.58042
 C166 C 0.64135 0.63213 0.61304
 C167 C 0.65118 0.60586 0.62955
 C168 C 0.63457 0.58268 0.61446
 C169 C 0.60869 0.58464 0.58016
 C170 C 0.59890 0.61051 0.56074
 C171 C 0.57477 0.61135 0.52207
 C172 C 0.55937 0.58765 0.50647
 C173 C 0.56711 0.56247 0.52931
 C174 C 0.59216 0.56096 0.56558
 H175 H 0.70069 0.63719 0.66199
 H176 H 0.64532 0.72509 0.63060
 H177 H 0.72604 0.67862 0.68758
 H178 H 0.60390 0.70338 0.58257
 H179 H 0.57878 0.66368 0.54915
 H180 H 0.67078 0.60270 0.65633
 H181 H 0.64228 0.56299 0.62940
 H182 H 0.56761 0.63000 0.50267
 H183 H 0.54036 0.58922 0.47783
 H184 H 0.59867 0.54138 0.58253
 C185 C -0.16768 0.31803 0.07725
 C186 C -0.16004 0.34120 0.10722
 C187 C -0.16987 0.34112 0.16011
 C188 C -0.18592 0.31856 0.18184
 C189 C -0.19195 0.29537 0.15217
 C190 C -0.18320 0.29555 0.09955
 C191 C -0.16282 0.36320 0.19165
 C192 C -0.14481 0.38492 0.17282
 C193 C -0.13313 0.38552 0.12120
 C194 C -0.14205 0.36389 0.08719
 C195 C -0.13227 0.36551 0.03460
 C196 C -0.11310 0.38669 0.01640
 C197 C -0.10257 0.40700 0.04978
 C198 C -0.11254 0.40686 0.10259
 C199 C -0.10058 0.42768 0.13497
 C200 C -0.07940 0.44735 0.11580
 C201 C -0.06941 0.44721 0.06375
 C202 C -0.08154 0.42716 0.03073
 H203 H -0.16117 0.31618 0.03689
 H204 H -0.19229 0.31850 0.22278
 H205 H -0.18792 0.27797 0.07565
 H206 H -0.17074 0.36346 0.23185
 H207 H -0.14047 0.40102 0.20000
 H208 H -0.13905 0.35065 0.00616
 H209 H -0.10590 0.38686 -0.02417
 H210 H -0.10636 0.42903 0.17569
 H211 H -0.07048 0.46259 0.14228
 H212 H -0.07392 0.42676 -0.00962
 C213 C 0.32033 0.84496 0.63988
 C214 C 0.33415 0.84532 0.58948
 C215 C 0.32942 0.82209 0.55808
 C216 C 0.31300 0.79916 0.57768
 C217 C 0.30141 0.79854 0.62893
 C218 C 0.30448 0.82194 0.65914
 C219 C 0.34203 0.82144 0.50787
 C220 C 0.36058 0.84278 0.48869
 C221 C 0.36747 0.86579 0.51922
 C222 C 0.35335 0.86740 0.56997
 C223 C 0.35968 0.89065 0.60012
 C224 C 0.38019 0.91099 0.58263
 C225 C 0.39513 0.90922 0.53432
 C226 C 0.38861 0.88695 0.50129
 C227 C 0.40422 0.88660 0.45225
 C228 C 0.42597 0.90698 0.43775
 C229 C 0.43299 0.92838 0.47143
 C230 C 0.41705 0.92953 0.51934
 H231 H 0.32211 0.86175 0.66627
 H232 H 0.31016 0.78138 0.55349
 H233 H 0.29594 0.82206 0.69896
 H234 H 0.33811 0.80390 0.48343
 H235 H 0.36966 0.84031 0.44981
 H236 H 0.34954 0.89369 0.63812
 H237 H 0.38478 0.92817 0.60770
 H238 H 0.40059 0.87072 0.42434
 H239 H 0.43781 0.90565 0.40034
 H240 H 0.42197 0.94617 0.54554
 C241 C -0.18634 0.65551 -0.13383
 C242 C -0.15616 0.65543 -0.10871
 C243 C -0.14147 0.68093 -0.09946
 C244 C -0.15544 0.70514 -0.11811
 C245 C -0.18546 0.70505 -0.14291
 C246 C -0.20081 0.67989 -0.14993
 C247 C -0.11293 0.68223 -0.07137
 C248 C -0.09898 0.65879 -0.05088
 C249 C -0.11231 0.63286 -0.05989
 C250 C -0.14029 0.63103 -0.09178
 C251 C -0.15068 0.60497 -0.10727
 C252 C -0.13421 0.58151 -0.09210
 C253 C -0.10788 0.58297 -0.05872
 C254 C -0.09758 0.60860 -0.04013
 C255 C -0.07290 0.60891 -0.00238
 C256 C -0.05743 0.58495 0.01293
 C257 C -0.06571 0.56003 -0.00922
 C258 C -0.09135 0.55903 -0.04439
 H259 H -0.19991 0.63711 -0.13976
 H260 H -0.14258 0.72409 -0.11315
 H261 H -0.22445 0.67895 -0.16721
 H262 H -0.10149 0.70168 -0.06434
 H263 H -0.07679 0.66151 -0.03006
 H264 H -0.17061 0.60218 -0.13340
 H265 H -0.14234 0.56200 -0.10635
 H266 H -0.06526 0.62733 0.01641
 H267 H -0.03788 0.58614 0.04060
 H268 H -0.09823 0.53965 -0.06086
 C269 C 0.35487 1.17658 0.40561
 C270 C 0.35731 1.15388 0.37257
 C271 C 0.34444 1.15649 0.32171
 C272 C 0.32885 1.18063 0.30568
 C273 C 0.32650 1.20318 0.33898
 C274 C 0.33993 1.20057 0.38912
 C275 C 0.34761 1.13514 0.28670
 C276 C 0.36406 1.11149 0.30050
 C277 C 0.37749 1.10794 0.35062
 C278 C 0.37281 1.12902 0.38791
 C279 C 0.38362 1.12451 0.43940
 C280 C 0.40008 1.10101 0.45339
 C281 C 0.40677 1.08114 0.41672
 C282 C 0.39552 1.08410 0.36484
 C283 C 0.40369 1.06338 0.32918
 C284 C 0.42280 1.04122 0.34438
 C285 C 0.43414 1.03877 0.39557
 C286 C 0.42539 1.05858 0.43170
 H287 H 0.36472 1.17678 0.44435
 H288 H 0.32013 1.18209 0.26603
 H289 H 0.33799 1.21677 0.41714
 H290 H 0.33768 1.13689 0.24777
 H291 H 0.36546 1.09612 0.27102
 H292 H 0.37939 1.13866 0.47035
 H293 H 0.40819 1.09862 0.49331
 H294 H 0.39662 1.06409 0.28885
 H295 H 0.42926 1.02626 0.31557
 H296 H 0.43410 1.05704 0.47143
 C297 C 1.16881 -0.15119 -0.17495
 C298 C 1.15817 -0.14860 -0.12285
 C299 C 1.16399 -0.17079 -0.08819
 C300 C 1.17837 -0.19487 -0.10596
 C301 C 1.18704 -0.19757 -0.15838
 C302 C 1.18282 -0.17527 -0.19221
 C303 C 1.15463 -0.16920 -0.03624
 C304 C 1.13837 -0.14653 -0.01808
 C305 C 1.13054 -0.12440 -0.05144
 C306 C 1.14117 -0.12521 -0.10446
 C307 C 1.13359 -0.10299 -0.13773
 C308 C 1.11504 -0.08138 -0.12078
 C309 C 1.10346 -0.08078 -0.06996
 C310 C 1.11161 -0.10186 -0.03403
 C311 C 1.09966 -0.09975 0.01743
 C312 C 1.07933 -0.07842 0.03147
 C313 C 1.07024 -0.05841 -0.00498
 C314 C 1.08307 -0.05942 -0.05533
 H315 H 1.16605 -0.13532 -0.20390
 H316 H 1.18216 -0.21180 -0.07914
 H317 H 1.18920 -0.17679 -0.23296
 H318 H 1.15937 -0.18595 -0.00940
 H319 H 1.13171 -0.14731 0.02238
 H320 H 1.14108 -0.10180 -0.17777
 H321 H 1.10924 -0.06513 -0.14820
 H322 H 1.10501 -0.11442 0.04769
 H323 H 1.07000 -0.07808 0.07081
 H324 H 1.07653 -0.04388 -0.08380
 C325 C 0.67598 0.32477 0.44770
 C326 C 0.66810 0.34790 0.41665
 C327 C 0.67677 0.34746 0.36324
 C328 C 0.69129 0.32434 0.34185
 C329 C 0.69657 0.30095 0.37238
 C330 C 0.68974 0.30169 0.42569
 C331 C 0.66955 0.36957 0.33076
 C332 C 0.65186 0.39139 0.34900
 C333 C 0.64070 0.39203 0.40088
 C334 C 0.65048 0.37070 0.43599
 C335 C 0.64151 0.37254 0.48886
 C336 C 0.62185 0.39337 0.50617
 C337 C 0.61004 0.41308 0.47161
 C338 C 0.61956 0.41296 0.41859
 C339 C 0.60638 0.43317 0.38506
 C340 C 0.58429 0.45214 0.40329
 C341 C 0.57459 0.45185 0.45549
 C342 C 0.58809 0.43253 0.48967
 H343 H 0.67055 0.32328 0.48861
 H344 H 0.69634 0.32384 0.30044
 H345 H 0.69401 0.28390 0.45015
 H346 H 0.67676 0.36961 0.29020
 H347 H 0.64714 0.40745 0.32110
 H348 H 0.64918 0.35804 0.51810
 H349 H 0.61512 0.39363 0.54693
 H350 H 0.61179 0.43447 0.34412
 H351 H 0.57437 0.46687 0.37595
 H352 H 0.58080 0.43207 0.53020
 C353 C 0.81903 -0.14709 -0.14534
 C354 C 0.83547 -0.14638 -0.09720
 C355 C 0.83256 -0.16939 -0.06377
 C356 C 0.81607 -0.19277 -0.08000
 C357 C 0.80255 -0.19433 -0.13023
 C358 C 0.80307 -0.17050 -0.16143
 C359 C 0.84699 -0.16939 -0.01479
 C360 C 0.86576 -0.14763 0.00085
 C361 C 0.87122 -0.12493 -0.03231
 C362 C 0.85533 -0.12407 -0.08181
 C363 C 0.86084 -0.10144 -0.11512
 C364 C 0.88194 -0.08089 -0.10162
 C365 C 0.89828 -0.08181 -0.05433
 C366 C 0.89274 -0.10345 -0.01835
 C367 C 0.90963 -0.10288 0.02958
 C368 C 0.93166 -0.08223 0.04019
 C369 C 0.93774 -0.06151 0.00359
 C370 C 0.92057 -0.06127 -0.04331
 H371 H 0.81874 -0.13019 -0.17247
 H372 H 0.81409 -0.20978 -0.05297
 H373 H 0.79332 -0.17016 -0.20046
 H374 H 0.84438 -0.18674 0.01141
 H375 H 0.87635 -0.14964 0.03893
 H376 H 0.84982 -0.09920 -0.15282
 H377 H 0.88587 -0.06424 -0.12903
 H378 H 0.90666 -0.11813 0.05966
 H379 H 0.94441 -0.08280 0.07695
 H380 H 0.92472 -0.04510 -0.07168
 C381 C 0.33565 0.34993 0.32741
 C382 C 0.34963 0.35292 0.37732
 C383 C 0.34628 0.33094 0.41331
 C384 C 0.33064 0.30681 0.39890
 C385 C 0.31822 0.30383 0.34857
 C386 C 0.32039 0.32581 0.31346
 C387 C 0.35920 0.33283 0.46317
 C388 C 0.37644 0.35566 0.47784
 C389 C 0.38164 0.37769 0.44295
 C390 C 0.36746 0.37655 0.39218
 C391 C 0.37220 0.39877 0.35757
 C392 C 0.39116 0.42079 0.37101
 C393 C 0.40607 0.42179 0.41948
 C394 C 0.40114 0.40058 0.45665
 C395 C 0.41661 0.40298 0.50553
 C396 C 0.43687 0.42489 0.51596
 C397 C 0.44245 0.44524 0.47834
 C398 C 0.42644 0.44376 0.43048
 H399 H 0.33661 0.36552 0.29763
 H400 H 0.32862 0.29009 0.42670
 H401 H 0.31126 0.32404 0.27415
 H402 H 0.35641 0.31622 0.49103
 H403 H 0.38579 0.35515 0.51690
 H404 H 0.36193 0.39974 0.31916
 H405 H 0.39455 0.43711 0.34268
 H406 H 0.41406 0.38813 0.53644
 H407 H 0.44876 0.42555 0.55343
 H408 H 0.43032 0.45949 0.40113
 C409 C 0.16913 0.65211 -0.17170
 C410 C 0.14024 0.65278 -0.14320
 C411 C 0.12790 0.67863 -0.12993
 C412 C 0.14297 0.70263 -0.14725
 C413 C 0.17216 0.70207 -0.17507
 C414 C 0.18486 0.67612 -0.18660
 C415 C 0.10057 0.68055 -0.09894
 C416 C 0.08604 0.65733 -0.07873
 C417 C 0.09752 0.63110 -0.09069
 C418 C 0.12365 0.62875 -0.12623
 C419 C 0.13169 0.60259 -0.14453
 C420 C 0.11510 0.57948 -0.12775
 C421 C 0.09110 0.58133 -0.09010
 C422 C 0.08292 0.60713 -0.06958
 C423 C 0.06088 0.60789 -0.02789
 C424 C 0.04630 0.58419 -0.00942
 C425 C 0.05268 0.55905 -0.03228
 C426 C 0.07517 0.55762 -0.07262
 H427 H 0.18102 0.63326 -0.18089
 H428 H 0.13097 0.72162 -0.13926
 H429 H 0.20788 0.67376 -0.20523
 H430 H 0.09071 0.70027 -0.08910
 H431 H 0.06496 0.66054 -0.05534
 H432 H 0.14992 0.59950 -0.17361
 H433 H 0.12154 0.55988 -0.14372
 H434 H 0.05501 0.62642 -0.00787
 H435 H 0.02912 0.58567 0.02207
 H436 H 0.08056 0.53806 -0.08975
 C437 C 0.62013 1.18546 0.37597
 C438 C 0.63007 1.15867 0.36521
 C439 C 0.65899 1.15527 0.33734
 C440 C 0.67856 1.17785 0.32544
 C441 C 0.66933 1.20460 0.33882
 C442 C 0.63913 1.20778 0.36272
 C443 C 0.66834 1.12928 0.32177
 C444 C 0.64923 1.10666 0.33245
 C445 C 0.62063 1.10901 0.36143
 C446 C 0.61187 1.13526 0.38034
 C447 C 0.58590 1.13718 0.41528
 C448 C 0.56829 1.11441 0.42981
 C449 C 0.57512 1.08902 0.40888
 C450 C 0.60090 1.08594 0.37345
 C451 C 0.60530 1.06000 0.35080
 C452 C 0.58518 1.03813 0.36368
 C453 C 0.56070 1.04125 0.40031
 C454 C 0.55595 1.06670 0.42292
 H455 H 0.59713 1.18994 0.39298
 H456 H 0.70154 1.17400 0.30754
 H457 H 0.62903 1.22765 0.36999
 H458 H 0.69047 1.12642 0.30043
 H459 H 0.65814 1.08733 0.31920
 H460 H 0.57934 1.15597 0.43376
 H461 H 0.54876 1.11681 0.45723
 H462 H 0.62340 1.05623 0.32184
 H463 H 0.58889 1.01866 0.34519
 H464 H 0.53645 1.06938 0.45033
 C465 C 0.17566 0.34959 0.17880
 C466 C 0.16050 0.35272 0.12974
 C467 C 0.16328 0.33096 0.09417
 C468 C 0.17950 0.30683 0.10834
 C469 C 0.19287 0.30361 0.15815
 C470 C 0.19132 0.32546 0.19261
 C471 C 0.14909 0.33302 0.04514
 C472 C 0.13096 0.35570 0.03116
 C473 C 0.12617 0.37741 0.06591
 C474 C 0.14189 0.37622 0.11551
 C475 C 0.13781 0.39825 0.14977
 C476 C 0.11790 0.42001 0.13735
 C477 C 0.10133 0.42092 0.09027
 C478 C 0.10562 0.40000 0.05329
 C479 C 0.08843 0.40233 0.00581
 C480 C 0.06720 0.42390 -0.00336
 C481 C 0.06230 0.44392 0.03419
 C482 C 0.07996 0.44252 0.08055
 H483 H 0.17518 0.36499 0.20822
 H484 H 0.18105 0.29028 0.08090
 H485 H 0.20114 0.32354 0.23155
 H486 H 0.15146 0.31661 0.01752
 H487 H 0.12059 0.35533 -0.00721
 H488 H 0.14936 0.39926 0.18715
 H489 H 0.11505 0.43614 0.16543
 H490 H 0.09032 0.38766 -0.02482
 H491 H 0.05401 0.42451 -0.03971
 H492 H 0.07664 0.45803 0.10977
 C493 C 0.67846 0.85116 0.65238
 C494 C 0.66800 0.85247 0.59990
 C495 C 0.67672 0.83068 0.56702
 C496 C 0.69369 0.80808 0.58690
 C497 C 0.70159 0.80621 0.63991
 C498 C 0.69471 0.82836 0.67189
 C499 C 0.66732 0.83094 0.51493
 C500 C 0.64780 0.85153 0.49521
 C501 C 0.63681 0.87287 0.52698
 C502 C 0.64812 0.87394 0.57962
 C503 C 0.63841 0.89601 0.61065
 C504 C 0.61700 0.91548 0.59216
 C505 C 0.60434 0.91387 0.54210
 C506 C 0.61437 0.89288 0.50831
 C507 C 0.60067 0.89241 0.45778
 C508 C 0.57762 0.91154 0.44232
 C509 C 0.56734 0.93178 0.47644
 C510 C 0.58121 0.93301 0.52605
 H511 H 0.67335 0.86680 0.68016
 H512 H 0.69954 0.79135 0.56143
 H513 H 0.70032 0.82750 0.71307
 H514 H 0.67440 0.81458 0.48937
 H515 H 0.64141 0.84988 0.45476
 H516 H 0.64666 0.89880 0.64993
 H517 H 0.60980 0.93174 0.61785
 H518 H 0.60670 0.87727 0.42945
 H519 H 0.56740 0.91014 0.40366
 H520 H 0.57367 0.94871 0.55274
 C521 C 0.84306 0.15398 0.21397
 C522 C 0.84971 0.14608 0.16214
 C523 C 0.83804 0.16311 0.12129
 C524 C 0.82149 0.18725 0.13224
 C525 C 0.81601 0.19509 0.18366
 C526 C 0.82649 0.17807 0.22434
 C527 C 0.84325 0.15625 0.06956
 C528 C 0.86058 0.13316 0.05700
 C529 C 0.87374 0.11591 0.09593
 C530 C 0.86791 0.12229 0.14942
 C531 C 0.88104 0.10498 0.18829
 C532 C 0.90006 0.08281 0.17565
 C533 C 0.90669 0.07677 0.12389
 C534 C 0.89319 0.09288 0.08317
 C535 C 0.90038 0.08552 0.03132
 C536 C 0.92115 0.06404 0.02072
 C537 C 0.93535 0.04889 0.06113
 C538 C 0.92741 0.05501 0.11270
 H539 H 0.85056 0.14225 0.24751
 H540 H 0.81290 0.20012 0.10053
 H541 H 0.82258 0.18375 0.26446
 H542 H 0.83410 0.16908 0.03824
 H543 H 0.86358 0.12971 0.01601
 H544 H 0.87753 0.10821 0.22926
 H545 H 0.91008 0.07043 0.20693
 H546 H 0.89084 0.09611 -0.00220
 H547 H 0.92653 0.05963 -0.01956
 H548 H 0.93812 0.04335 0.14436
 C549 C 0.31873 0.64941 0.65726
 C550 C 0.35119 0.65033 0.64137
 C551 C 0.36599 0.67626 0.63737
 C552 C 0.34921 0.69993 0.65052
 C553 C 0.31675 0.69888 0.66453
 C554 C 0.30180 0.67331 0.66806
 C555 C 0.39736 0.67862 0.61928
 C556 C 0.41388 0.65595 0.60212
 C557 C 0.39999 0.62976 0.60424
 C558 C 0.36915 0.62662 0.62765
 C559 C 0.35765 0.59994 0.63715
 C560 C 0.37535 0.57716 0.62273
 C561 C 0.40426 0.58007 0.59588
 C562 C 0.41637 0.60652 0.58474
 C563 C 0.44393 0.60875 0.55303
 C564 C 0.45950 0.58565 0.53510
 C565 C 0.44864 0.55963 0.54886
 C566 C 0.42107 0.55678 0.57946
 H567 H 0.30536 0.63064 0.65937
 H568 H 0.36156 0.71934 0.64896
 H569 H 0.27662 0.67172 0.67778
 H570 H 0.40899 0.69835 0.61696
 H571 H 0.43806 0.65944 0.58885
 H572 H 0.33545 0.59605 0.65736
 H573 H 0.36589 0.55706 0.63156
 H574 H 0.45343 0.62808 0.53999
 H575 H 0.48064 0.58812 0.51099
 H576 H 0.41235 0.53655 0.58928
   
