data_POSCAR
  _audit_creation_date              2014-09-24
  _audit_creation_method            'ToBaCCo'
  _symmetry_space_group_name_H-M    'P1'
  _symmetry_Int_Tables_number       1
  _symmetry_cell_setting            triclinic
  loop_
  _symmetry_equiv_pos_as_xyz
 x,y,z
_cell_length_a 37.7329
_cell_length_b 36.9316
_cell_length_c 46.2998
_cell_angle_alpha 90.204800
_cell_angle_beta 89.714100
_cell_angle_gamma 121.422100
loop_
  _atom_site_label
  _atom_site_type_symbol
  _atom_site_fract_x
  _atom_site_fract_y
  _atom_site_fract_z
C1 C -0.00141 0.46719 1.33356
 C2 C 0.04047 0.49572 1.33117
 C3 C 0.04617 0.52063 1.30713
 N4 N 0.00922 0.50713 1.29424
 C5 C -0.01978 0.47449 1.31033
 C6 C 0.08443 0.55610 1.29763
 C7 C 0.08812 0.57265 1.26936
 C8 C 0.11775 0.61351 1.26061
 C9 C 0.11398 0.61511 1.23124
 C10 C 0.08121 0.57573 1.22293
 N11 N 0.06534 0.55010 1.24628
 C12 C 0.06866 0.56333 1.19414
 C13 C 0.02860 0.52976 1.18688
 C14 C 0.01475 0.51617 1.15904
 C15 C -0.02714 0.48755 1.16110
 C16 C -0.03749 0.48417 1.19025
 N17 N -0.00325 0.51031 1.20581
 C18 C -0.07837 0.46255 1.20175
 C19 C -0.08673 0.45823 1.23193
 C20 C -0.12575 0.44219 1.24435
 C21 C -0.12134 0.43967 1.27359
 C22 C -0.07981 0.45416 1.27836
 N23 N -0.05905 0.46497 1.25291
 C24 C -0.06286 0.45320 1.30525
 H25 H -0.01650 0.44343 1.35024
 H26 H 0.06392 0.49755 1.34549
 H27 H -0.02887 0.47175 1.24990
 H28 H 0.14031 0.63938 1.27393
 H29 H 0.13323 0.64223 1.21762
 H30 H 0.03252 0.52713 1.13920
 H31 H -0.04758 0.47246 1.14293
 H32 H -0.14617 0.42745 1.28938
 H33 H 0.04377 0.51758 1.24591
 H34 H -0.15481 0.43193 1.23349
 C35 C 0.44670 0.46619 1.33883
 C36 C 0.47974 0.46039 1.33973
 C37 C 0.49670 0.46844 1.31211
 N38 N 0.47545 0.47979 1.29467
 C39 C 0.44487 0.47835 1.31088
 C40 C 0.53399 0.47041 1.30403
 C41 C 0.54769 0.47575 1.27482
 C42 C 0.58657 0.48456 1.26567
 C43 C 0.58532 0.48138 1.23609
 C44 C 0.54560 0.47000 1.22780
 N45 N 0.52300 0.46699 1.25143
 C46 C 0.52974 0.45787 1.19945
 C47 C 0.49408 0.45791 1.19022
 C48 C 0.47420 0.44277 1.16391
 C49 C 0.44318 0.45175 1.16290
 C50 C 0.44454 0.47113 1.18887
 N51 N 0.47578 0.47515 1.20543
 C52 C 0.41867 0.48673 1.19639
 C53 C 0.41460 0.49755 1.22502
 C54 C 0.39599 0.52015 1.23271
 C55 C 0.39560 0.52136 1.26240
 C56 C 0.41395 0.49944 1.27205
 N57 N 0.42537 0.48496 1.24912
 C58 C 0.41777 0.49151 1.30140
 H59 H 0.42695 0.46284 1.35693
 H60 H 0.49050 0.45237 1.35887
 H61 H 0.43564 0.46376 1.24990
 H62 H 0.61285 0.49091 1.27874
 H63 H 0.61040 0.48542 1.22233
 H64 H 0.48117 0.42696 1.14712
 H65 H 0.42176 0.44444 1.14525
 H66 H 0.38305 0.53653 1.27539
 H67 H 0.49096 0.45341 1.25177
 H68 H 0.38364 0.53402 1.21843
 C69 C 0.51306 0.98567 1.15864
 C70 C 0.52440 1.02746 1.16027
 C71 C 0.53145 1.03888 1.18926
 N72 N 0.52553 1.00550 1.20512
 C73 C 0.51421 0.97302 1.18655
 C74 C 0.54891 1.08058 1.20039
 C75 C 0.55252 1.08939 1.23059
 C76 C 0.57381 1.12984 1.24265
 C77 C 0.56781 1.12521 1.27189
 C78 C 0.54209 1.08217 1.27719
 N79 N 0.53286 1.06050 1.25197
 C80 C 0.52595 1.06442 1.30473
 C81 C 0.50858 1.02086 1.31069
 C82 C 0.48251 0.99963 1.33377
 C83 C 0.47189 0.95816 1.33154
 C84 C 0.49290 0.95558 1.30765
 N85 N 0.51484 0.99397 1.29465
 C86 C 0.49223 0.91861 1.29807
 C87 C 0.50523 0.91663 1.26954
 C88 C 0.51828 0.88957 1.26035
 C89 C 0.52197 0.89296 1.23082
 C90 C 0.51265 0.92317 1.22283
 N91 N 0.50293 0.93783 1.24655
 C92 C 0.51003 0.93403 1.19407
 H93 H 0.50676 0.96741 1.13897
 H94 H 0.52849 1.04721 1.14188
 H95 H 0.49004 0.95685 1.24662
 H96 H 0.59109 1.16005 1.23172
 H97 H 0.58041 1.15086 1.28745
 H98 H 0.47118 1.01244 1.34993
 H99 H 0.45033 0.93276 1.34561
 H100 H 0.53037 0.87501 1.21691
 H101 H 0.51080 1.02844 1.24949
 H102 H 0.52352 0.86863 1.27349
 C103 C 0.97660 0.53993 0.66198
 C104 C 1.01822 0.57002 0.66098
 C105 C 1.03543 0.56580 0.68622
 N106 N 1.00577 0.53409 0.70252
 C107 C 0.96979 0.51815 0.68769
 C108 C 1.07806 0.59015 0.69350
 C109 C 1.09236 0.59147 0.72203
 C110 C 1.13267 0.60301 0.72896
 C111 C 1.13460 0.60190 0.75849
 C112 C 1.09546 0.58985 0.76901
 N113 N 1.06965 0.58300 0.74658
 C114 C 1.08482 0.58607 0.79881
 C115 C 1.04306 0.56091 0.80819
 C116 C 1.02853 0.56144 0.83570
 C117 C 0.98729 0.53035 0.83627
 C118 C 0.97775 0.51258 0.80891
 N119 N 1.01182 0.53120 0.79179
 C120 C 0.93917 0.47730 0.80077
 C121 C 0.92882 0.46401 0.77185
 C122 C 0.89514 0.42537 0.76317
 C123 C 0.89324 0.42686 0.73359
 C124 C 0.92554 0.46652 0.72509
 N125 N 0.94733 0.48879 0.74851
 C126 C 0.93134 0.48313 0.69684
 H127 H 0.95402 0.53499 0.64570
 H128 H 1.03395 0.59281 0.64382
 H129 H 0.96968 0.52104 0.74893
 H130 H 1.15805 0.61090 0.71422
 H131 H 1.16170 0.60868 0.77079
 H132 H 1.04579 0.58195 0.85360
 H133 H 0.96680 0.52178 0.85475
 H134 H 0.86993 0.40206 0.71997
 H135 H 1.03945 0.57689 0.74798
 H136 H 0.87345 0.39925 0.77672
 C137 C 0.43704 0.45077 0.83677
 C138 C 0.46863 0.44276 0.83654
 C139 C 0.48477 0.45100 0.80872
 N140 N 0.46432 0.46416 0.79208
 C141 C 0.43514 0.46406 0.80917
 C142 C 0.52044 0.45048 0.80002
 C143 C 0.53483 0.45598 0.77112
 C144 C 0.57283 0.46175 0.76286
 C145 C 0.57485 0.46488 0.73328
 C146 C 0.53808 0.46108 0.72413
 N147 N 0.51355 0.45481 0.74734
 C148 C 0.52747 0.46142 0.69485
 C149 C 0.49265 0.46333 0.68598
 C150 C 0.47954 0.45986 0.65762
 C151 C 0.44679 0.46610 0.65796
 C152 C 0.44125 0.47380 0.68644
 N153 N 0.46938 0.47222 0.70350
 C154 C 0.41274 0.48531 0.69578
 C155 C 0.40633 0.49131 0.72506
 C156 C 0.38680 0.51234 0.73436
 C157 C 0.38604 0.51086 0.76400
 C158 C 0.40488 0.48871 0.77205
 N159 N 0.41690 0.47663 0.74815
 C160 C 0.40914 0.47913 0.80092
 H161 H 0.41819 0.44795 0.85531
 H162 H 0.47898 0.43281 0.85496
 H163 H 0.42780 0.45597 0.74745
 H164 H 0.59662 0.46321 0.77665
 H165 H 0.60048 0.46907 0.72011
 H166 H 0.49245 0.45403 0.63851
 H167 H 0.42958 0.46584 0.63924
 H168 H 0.37313 0.52467 0.77801
 H169 H 0.48268 0.44631 0.74682
 H170 H 0.37464 0.52752 0.72116
 C171 C 0.53742 0.02523 0.66152
 C172 C 0.53111 -0.01476 0.66087
 C173 C 0.51808 -0.03164 0.68831
 N174 N 0.51723 -0.00277 0.70588
 C175 C 0.52927 0.03216 0.68956
 C176 C 0.50530 -0.07375 0.69637
 C177 C 0.49771 -0.08743 0.72556
 C178 C 0.47233 -0.12936 0.73406
 C179 C 0.47312 -0.12985 0.76362
 C180 C 0.49923 -0.08823 0.77260
 N181 N 0.51381 -0.06238 0.74920
 C182 C 0.50897 -0.07544 0.80191
 C183 C 0.52437 -0.03303 0.81072
 C184 C 0.54139 -0.01634 0.83755
 C185 C 0.54918 0.02424 0.83815
 C186 C 0.53758 0.03143 0.81144
 N187 N 0.52238 -0.00362 0.79470
 C188 C 0.53763 0.06845 0.80394
 C189 C 0.53125 0.07772 0.77554
 C190 C 0.52514 0.11044 0.76820
 C191 C 0.52308 0.11067 0.73858
 C192 C 0.52782 0.07796 0.72857
 N193 N 0.53327 0.05840 0.75126
 C194 C 0.53022 0.06909 0.69910
 H195 H 0.54685 0.04652 0.64327
 H196 H 0.53538 -0.02974 0.64215
 H197 H 0.54235 0.03629 0.75016
 H198 H 0.45430 -0.15678 0.72036
 H199 H 0.45573 -0.15776 0.77698
 H200 H 0.54733 -0.03185 0.85502
 H201 H 0.56174 0.04582 0.85628
 H202 H 0.51937 0.13306 0.72595
 H203 H 0.53634 -0.03015 0.74920
 H204 H 0.52321 0.13248 0.78262
 O205 O 0.36743 0.61676 0.97482
 O206 O 0.40314 0.69778 0.96586
 C207 C 0.40196 0.73068 0.96043
 O208 O 0.38109 0.74185 0.97571
 O209 O 0.30185 0.69595 0.96595
 C210 C 0.26981 0.66083 0.95935
 O211 O 0.25747 0.62704 0.97396
 O212 O 0.30049 0.59123 0.96609
 C213 C 0.33443 0.59355 0.96045
 O214 O 0.37240 0.63159 1.03227
 O215 O 0.41203 0.71354 1.02336
 C216 C 0.39902 0.73355 1.03811
 O217 O 0.36474 0.73082 1.03308
 O218 O 0.28495 0.68869 1.02314
 C219 C 0.26394 0.65438 1.03733
 O220 O 0.26533 0.62156 1.03191
 O221 O 0.30581 0.58311 1.02377
 C222 C 0.33931 0.59677 1.03799
 Cr223 Cr 0.38681 0.66483 0.99913
 Cr224 Cr 0.33319 0.71240 0.99951
 Cr225 Cr 0.28416 0.60777 0.99897
 O226 O 0.33467 0.66157 0.99930
 O227 O 0.61400 0.34651 0.96713
 O228 O 0.60065 0.27132 0.98071
 C229 C 0.62181 0.26151 0.96447
 O230 O 0.66063 0.27725 0.96778
 O231 O 0.73667 0.34108 0.97609
 C232 C 0.74501 0.37129 0.95885
 O233 O 0.73082 0.39559 0.96249
 O234 O 0.67102 0.40982 0.97500
 C235 C 0.63805 0.38550 0.96087
 O236 O 0.61970 0.36705 1.02353
 O237 O 0.61060 0.29423 1.03746
 C238 C 0.62674 0.27237 1.04312
 O239 O 0.64898 0.26704 1.02507
 O240 O 0.72254 0.33343 1.03374
 C241 C 0.74512 0.37312 1.03780
 O242 O 0.74900 0.39984 1.01897
 O243 O 0.68736 0.40933 1.03184
 C244 C 0.64974 0.39346 1.03916
 Cr245 Cr 0.61293 0.32025 1.00206
 Cr246 Cr 0.69173 0.30590 1.00055
 Cr247 Cr 0.70828 0.40195 0.99706
 O248 O 0.67090 0.34267 0.99931
 O249 O 0.68684 0.40764 0.53024
 O250 O 0.74334 0.38757 0.52326
 C251 C 0.73602 0.35842 0.54107
 O252 O 0.70972 0.31958 0.53644
 O253 O 0.63421 0.25887 0.52696
 C254 C 0.60689 0.26263 0.54032
 O255 O 0.59690 0.28910 0.53305
 O256 O 0.61849 0.36683 0.52256
 C257 C 0.64950 0.39582 0.53634
 O258 O 0.67861 0.40914 0.47260
 O259 O 0.73199 0.38491 0.46566
 C260 C 0.74131 0.35672 0.46251
 O261 O 0.72698 0.32444 0.47891
 O262 O 0.64878 0.26633 0.46962
 C263 C 0.61269 0.25791 0.46257
 O264 O 0.59349 0.27303 0.47568
 O265 O 0.61656 0.35133 0.46519
 C266 C 0.64466 0.38892 0.45881
 Cr267 Cr 0.70853 0.39506 0.49797
 Cr268 Cr 0.67958 0.29396 0.50280
 Cr269 Cr 0.60853 0.32065 0.49912
 O270 O 0.66536 0.33648 0.49974
 O271 O 0.30334 0.58648 0.52445
 O272 O 0.26495 0.62771 0.53183
 C273 C 0.26472 0.66160 0.53547
 O274 O 0.28512 0.69411 0.51943
 O275 O 0.36454 0.73514 0.53028
 C276 C 0.39789 0.73623 0.53617
 O277 O 0.41082 0.71588 0.52164
 O278 O 0.36994 0.63489 0.53313
 C279 C 0.33658 0.60041 0.53906
 O280 O 0.29736 0.59282 0.46653
 O281 O 0.25619 0.63093 0.47438
 C282 C 0.27138 0.66193 0.45683
 O283 O 0.30381 0.69740 0.46217
 O284 O 0.38268 0.74315 0.47369
 C285 C 0.39919 0.72813 0.45753
 O286 O 0.40000 0.69541 0.46411
 O287 O 0.36349 0.61582 0.47642
 C288 C 0.33103 0.59426 0.46122
 Cr289 Cr 0.28224 0.61125 0.49932
 Cr290 Cr 0.33380 0.71565 0.49648
 Cr291 Cr 0.38450 0.66567 0.49888
 O292 O 0.33349 0.66409 0.49876
 C293 C 0.39163 0.53643 0.36590
 C294 C 0.34893 0.51364 0.36484
 C295 C 0.32686 0.48345 0.34357
 C296 C 0.34978 0.47636 0.32270
 C297 C 0.39382 0.49952 0.32344
 C298 C 0.41494 0.53020 0.34527
 O299 O 0.40668 0.56348 0.38782
 C300 C 0.37279 0.55774 0.40092
 C301 C 0.33660 0.52771 0.38773
 C302 C 0.29759 0.51738 0.39774
 C303 C 0.29588 0.53905 0.42222
 C304 C 0.33285 0.57010 0.43627
 C305 C 0.37181 0.57928 0.42538
 H306 H 0.29326 0.46587 0.34314
 H307 H 0.33341 0.45281 0.30604
 H308 H 0.44854 0.54845 0.34618
 H309 H 0.26951 0.49379 0.38694
 H310 H 0.26579 0.53172 0.43014
 H311 H 0.40066 0.60315 0.43525
 C312 C 0.46999 0.85205 0.36436
 C313 C 0.44823 0.81213 0.35251
 C314 C 0.43949 0.80514 0.32326
 C315 C 0.45378 0.84077 0.30545
 C316 C 0.47786 0.88286 0.31672
 C317 C 0.48629 0.88796 0.34688
 O318 O 0.47166 0.85174 0.39300
 C319 C 0.45063 0.81066 0.39931
 C320 C 0.43632 0.78507 0.37523
 C321 C 0.41318 0.74102 0.37681
 C322 C 0.40369 0.72261 0.40436
 C323 C 0.41616 0.74837 0.42948
 C324 C 0.44035 0.79302 0.42695
 H325 H 0.42100 0.77336 0.31458
 H326 H 0.44484 0.83531 0.28294
 H327 H 0.50518 0.91895 0.35664
 H328 H 0.40222 0.72157 0.35755
 H329 H 0.38470 0.68838 0.40617
 H330 H 0.44978 0.81330 0.44583
 C331 C 0.15006 0.60067 0.36378
 C332 C 0.18889 0.61669 0.35199
 C333 C 0.19529 0.61255 0.32295
 C334 C 0.16020 0.59132 0.30525
 C335 C 0.11942 0.57586 0.31638
 C336 C 0.11483 0.58104 0.34637
 O337 O 0.15061 0.60541 0.39224
 C338 C 0.19076 0.62509 0.39850
 C339 C 0.21554 0.63341 0.37452
 C340 C 0.25856 0.65397 0.37601
 C341 C 0.27672 0.66567 0.40343
 C342 C 0.25168 0.65556 0.42855
 C343 C 0.20809 0.63527 0.42607
 H344 H 0.22613 0.62430 0.31434
 H345 H 0.16491 0.58634 0.28284
 H346 H 0.08488 0.57100 0.35596
 H347 H 0.27740 0.66025 0.35682
 H348 H 0.31010 0.68073 0.40526
 H349 H 0.18838 0.62691 0.44500
 C350 C 0.56963 0.42957 0.36334
 C351 C 0.60811 0.46469 0.36876
 C352 C 0.62368 0.50255 0.35366
 C353 C 0.59861 0.50423 0.33204
 C354 C 0.55886 0.46830 0.32583
 C355 C 0.54424 0.43049 0.34191
 O356 O 0.56051 0.39690 0.38032
 C357 C 0.59397 0.41172 0.39682
 C358 C 0.62401 0.45301 0.39059
 C359 C 0.66145 0.47481 0.40537
 C360 C 0.66812 0.45326 0.42758
 C361 C 0.63750 0.41066 0.43467
 C362 C 0.59992 0.38966 0.41882
 H363 H 0.65395 0.52988 0.35845
 H364 H 0.60990 0.53359 0.32029
 H365 H 0.51411 0.40254 0.33766
 H366 H 0.68464 0.50732 0.40009
 H367 H 0.69707 0.46999 0.43936
 H368 H 0.57583 0.35725 0.42356
 C369 C 0.55517 0.12713 0.37266
 C370 C 0.53862 0.15200 0.36753
 C371 C 0.51599 0.14805 0.34289
 C372 C 0.51094 0.11780 0.32232
 C373 C 0.52764 0.09156 0.32696
 C374 C 0.54909 0.09561 0.35300
 O375 O 0.57841 0.13842 0.39632
 C376 C 0.57631 0.17102 0.40637
 C377 C 0.55195 0.18021 0.38965
 C378 C 0.54590 0.21344 0.39577
 C379 C 0.56567 0.23822 0.42019
 C380 C 0.59164 0.23005 0.43758
 C381 C 0.59712 0.19594 0.43049
 H382 H 0.50388 0.16850 0.33917
 H383 H 0.49437 0.11500 0.30259
 H384 H 0.56314 0.07690 0.35682
 H385 H 0.52678 0.22017 0.38217
 H386 H 0.56147 0.26443 0.42521
 H387 H 0.61678 0.18904 0.44334
 C388 C 0.86278 0.42438 0.36786
 C389 C 0.85271 0.38344 0.37317
 C390 C 0.86939 0.36366 0.35731
 C391 C 0.89746 0.38702 0.33501
 C392 C 0.90833 0.42926 0.32929
 C393 C 0.89087 0.44824 0.34600
 O394 O 0.84301 0.43702 0.38505
 C395 C 0.81998 0.40337 0.40163
 C396 C 0.82485 0.36979 0.39530
 C397 C 0.80364 0.33144 0.41003
 C398 C 0.77634 0.32754 0.43221
 C399 C 0.77053 0.36166 0.43914
 C400 C 0.79281 0.40013 0.42346
 H401 H 0.86086 0.33135 0.36179
 H402 H 0.91068 0.37239 0.32212
 H403 H 0.89858 0.48039 0.34178
 H404 H 0.80792 0.30542 0.40466
 H405 H 0.75954 0.29779 0.44382
 H406 H 0.78927 0.42683 0.42813
 C407 C 0.58374 0.44625 1.13360
 C408 C 0.59230 0.41665 1.14369
 C409 C 0.58058 0.39875 1.17102
 C410 C 0.55933 0.41207 1.18878
 C411 C 0.55118 0.44360 1.17937
 C412 C 0.56391 0.46111 1.15133
 O413 O 0.59499 0.45690 1.10621
 C414 C 0.61120 0.43366 1.09896
 C415 C 0.61080 0.40897 1.12132
 C416 C 0.62564 0.38168 1.11854
 C417 C 0.64078 0.37908 1.09141
 C418 C 0.64006 0.40292 1.06779
 C419 C 0.62543 0.43091 1.07155
 H420 H 0.58685 0.37479 1.17820
 H421 H 0.54927 0.39796 1.20998
 H422 H 0.55815 0.48517 1.14350
 H423 H 0.62486 0.36251 1.13644
 H424 H 0.65152 0.35721 1.08843
 H425 H 0.62396 0.44878 1.05359
 C426 C 0.84712 0.41142 1.14138
 C427 C 0.82987 0.43628 1.14123
 C428 C 0.83979 0.46815 1.16134
 C429 C 0.86932 0.47528 1.18231
 C430 C 0.88858 0.45097 1.18259
 C431 C 0.87687 0.41816 1.16199
 O432 O 0.83450 0.38409 1.11948
 C433 C 0.80904 0.39225 1.10508
 C434 C 0.80553 0.42417 1.11750
 C435 C 0.78332 0.44038 1.10508
 C436 C 0.76399 0.42314 1.07867
 C437 C 0.76644 0.38976 1.06550
 C438 C 0.78883 0.37357 1.07907
 H439 H 0.82602 0.48753 1.16049
 H440 H 0.87850 0.50087 1.19766
 H441 H 0.89144 0.39948 1.16154
 H442 H 0.78173 0.46606 1.11503
 H443 H 0.74697 0.43580 1.06852
 H444 H 0.79161 0.34853 1.06922
 C445 C 0.56612 0.15627 1.14120
 C446 C 0.60834 0.18327 1.14353
 C447 C 0.63238 0.17770 1.16353
 C448 C 0.61203 0.14299 1.18220
 C449 C 0.56826 0.11500 1.18096
 C450 C 0.54501 0.12177 1.15996
 O451 O 0.54981 0.16593 1.11930
 C452 C 0.58256 0.19978 1.10762
 C453 C 0.61897 0.21165 1.12190
 C454 C 0.65742 0.24468 1.11281
 C455 C 0.65868 0.26572 1.08747
 C456 C 0.62194 0.25357 1.07180
 C457 C 0.58306 0.22072 1.08228
 H458 H 0.66573 0.19890 1.16438
 H459 H 0.63036 0.13762 1.19758
 H460 H 0.51167 0.10081 1.15829
 H461 H 0.68561 0.25310 1.12432
 H462 H 0.68854 0.29073 1.07959
 H463 H 0.55478 0.21027 1.07027
 C464 C 0.39572 0.53298 1.13171
 C465 C 0.35307 0.50805 1.13066
 C466 C 0.33007 0.47531 1.15021
 C467 C 0.35195 0.46819 1.17172
 C468 C 0.39587 0.49349 1.17307
 C469 C 0.41802 0.52618 1.15269
 O470 O 0.41167 0.56305 1.11170
 C471 C 0.37845 0.55701 1.09764
 C472 C 0.34180 0.52370 1.10826
 C473 C 0.30333 0.51222 1.09667
 C474 C 0.30267 0.53610 1.07329
 C475 C 0.34012 0.57092 1.06213
 C476 C 0.37851 0.58124 1.07462
 H477 H 0.29653 0.45626 1.14913
 H478 H 0.33487 0.44323 1.18740
 H479 H 0.45154 0.54614 1.15353
 H480 H 0.27483 0.48594 1.10539
 H481 H 0.27299 0.52776 1.06415
 H482 H 0.40773 0.60749 1.06673
 C483 C 0.14796 0.59415 1.13483
 C484 C 0.15289 0.63200 1.12579
 C485 C 0.13113 0.64916 1.13820
 C486 C 0.10330 0.62638 1.16080
 C487 C 0.09824 0.58760 1.17053
 C488 C 0.12084 0.57130 1.15734
 O489 O 0.17063 0.58275 1.11989
 C490 C 0.19040 0.61403 1.10100
 C491 C 0.18087 0.64511 1.10369
 C492 C 0.19815 0.68061 1.08582
 C493 C 0.22613 0.68398 1.06424
 C494 C 0.23592 0.65191 1.06081
 C495 C 0.21779 0.61661 1.07972
 H496 H 0.13519 0.67880 1.13064
 H497 H 0.08571 0.63874 1.17076
 H498 H 0.11707 0.54151 1.16429
 H499 H 0.19023 0.70471 1.08829
 H500 H 0.23959 0.71118 1.04998
 H501 H 0.22455 0.59156 1.07787
 C502 C 0.45853 0.85116 1.13594
 C503 C 0.49137 0.84820 1.12597
 C504 C 0.53120 0.87240 1.13740
 C505 C 0.53729 0.90068 1.15996
 C506 C 0.50366 0.90369 1.17069
 C507 C 0.46381 0.87861 1.15848
 O508 O 0.42355 0.82657 1.12168
 C509 C 0.43441 0.80757 1.10229
 C510 C 0.47547 0.81945 1.10401
 C511 C 0.49320 0.80348 1.08541
 C512 C 0.46763 0.77441 1.06409
 C513 C 0.42531 0.76226 1.06159
 C514 C 0.40862 0.77905 1.08124
 H515 H 0.55671 0.86994 1.12905
 H516 H 0.56800 0.92026 1.16908
 H517 H 0.43787 0.88090 1.16611
 H518 H 0.52561 0.81330 1.08710
 H519 H 0.48104 0.76206 1.04923
 H520 H 0.37652 0.77055 1.08007
 C521 C 0.56959 0.42707 0.63346
 C522 C 0.60762 0.46346 0.62901
 C523 C 0.62127 0.50011 0.64532
 C524 C 0.59457 0.49916 0.66697
 C525 C 0.55553 0.46176 0.67212
 C526 C 0.54301 0.42517 0.65521
 O527 O 0.56191 0.39617 0.61513
 C528 C 0.59583 0.41331 0.59881
 C529 C 0.62496 0.45430 0.60649
 C530 C 0.66299 0.47784 0.59233
 C531 C 0.67122 0.45831 0.56930
 C532 C 0.64121 0.41634 0.56067
 C533 C 0.60303 0.39364 0.57577
 H534 H 0.65113 0.52851 0.64130
 H535 H 0.60413 0.52736 0.67978
 H536 H 0.51319 0.39642 0.65863
 H537 H 0.68555 0.51000 0.59883
 H538 H 0.70061 0.47600 0.55798
 H539 H 0.57971 0.36138 0.56996
 C540 C 0.57000 0.15102 0.63961
 C541 C 0.53513 0.15274 0.63395
 C542 C 0.49802 0.12851 0.64903
 C543 C 0.49679 0.10122 0.67063
 C544 C 0.53252 0.09931 0.67698
 C545 C 0.56977 0.12500 0.66145
 O546 O 0.60145 0.17489 0.62195
 C547 C 0.58621 0.19219 0.60480
 C548 C 0.54590 0.18005 0.61135
 C549 C 0.52408 0.19454 0.59597
 C550 C 0.54463 0.22250 0.57284
 C551 C 0.58587 0.23457 0.56527
 C552 C 0.60687 0.21922 0.58165
 H553 H 0.47079 0.12991 0.64397
 H554 H 0.46808 0.08134 0.68231
 H555 H 0.59727 0.12370 0.66573
 H556 H 0.49239 0.18462 0.60151
 H557 H 0.52819 0.23400 0.56048
 H558 H 0.63845 0.22811 0.57656
 C559 C 0.86132 0.43038 0.63194
 C560 C 0.82462 0.42468 0.64250
 C561 C 0.82111 0.43857 0.66968
 C562 C 0.85680 0.45878 0.68686
 C563 C 0.89485 0.46381 0.67704
 C564 C 0.89706 0.44943 0.64903
 O565 O 0.85822 0.41653 0.60497
 C566 C 0.81863 0.40155 0.59851
 C567 C 0.79669 0.40536 0.62093
 C568 C 0.75481 0.39182 0.61902
 C569 C 0.73481 0.37423 0.59275
 C570 C 0.75697 0.37114 0.56906
 C571 C 0.79945 0.38480 0.57191
 H572 H 0.79202 0.43437 0.67728
 H573 H 0.85480 0.47014 0.70805
 H574 H 0.92562 0.45285 0.64092
 H575 H 0.73828 0.39522 0.63698
 H576 H 0.70243 0.36440 0.59044
 H577 H 0.81704 0.38332 0.55388
 C578 C 0.39042 0.53794 0.63488
 C579 C 0.34827 0.51078 0.63172
 C580 C 0.32534 0.47503 0.64897
 C581 C 0.34683 0.46696 0.67021
 C582 C 0.39029 0.49441 0.67356
 C583 C 0.41231 0.53050 0.65575
 O584 O 0.40649 0.56988 0.61629
 C585 C 0.37384 0.56277 0.60100
 C586 C 0.33745 0.52703 0.60950
 C587 C 0.29968 0.51359 0.59601
 C588 C 0.29951 0.53795 0.57281
 C589 C 0.33675 0.57501 0.56366
 C590 C 0.37437 0.58746 0.57818
 H591 H 0.29221 0.45409 0.64612
 H592 H 0.32990 0.43933 0.68391
 H593 H 0.44549 0.55191 0.65805
 H594 H 0.27142 0.48529 0.60301
 H595 H 0.27039 0.52789 0.56204
 H596 H 0.40342 0.61538 0.57180
 C597 C 0.46302 0.85962 0.63035
 C598 C 0.48040 0.83499 0.63256
 C599 C 0.50600 0.83881 0.65535
 C600 C 0.51408 0.86934 0.67665
 C601 C 0.49723 0.89590 0.67458
 C602 C 0.47118 0.89059 0.65093
 O603 O 0.43810 0.84978 0.60780
 C604 C 0.43992 0.81839 0.59538
 C605 C 0.46560 0.80826 0.60950
 C606 C 0.47170 0.77605 0.60014
 C607 C 0.45018 0.75318 0.57536
 C608 C 0.42278 0.76247 0.56084
 C609 C 0.41789 0.79578 0.57102
 H610 H 0.51895 0.81874 0.65684
 H611 H 0.53403 0.87284 0.69454
 H612 H 0.45655 0.90909 0.64910
 H613 H 0.49200 0.76857 0.61161
 H614 H 0.45400 0.72756 0.56797
 H615 H 0.39723 0.80368 0.56048
 C616 C 0.13939 0.61246 0.62583
 C617 C 0.16933 0.65448 0.62990
 C618 C 0.17028 0.67719 0.65421
 C619 C 0.13936 0.65559 0.67527
 C620 C 0.10768 0.61227 0.67144
 C621 C 0.10758 0.59079 0.64597
 O622 O 0.14589 0.59572 0.60250
 C623 C 0.18055 0.62791 0.59150
 C624 C 0.19593 0.66477 0.60721
 C625 C 0.23244 0.70212 0.59973
 C626 C 0.25415 0.70126 0.57524
 C627 C 0.23958 0.66319 0.55933
 C628 C 0.20205 0.62612 0.56751
 H629 H 0.19457 0.71002 0.65722
 H630 H 0.13992 0.67259 0.69455
 H631 H 0.08482 0.55745 0.64273
 H632 H 0.24406 0.73071 0.61248
 H633 H 0.28303 0.72973 0.56930
 H634 H 0.19029 0.59660 0.55580
 C635 C 0.38866 0.52772 0.86590
 C636 C 0.34595 0.50490 0.86653
 C637 C 0.32208 0.47320 0.84656
 C638 C 0.34316 0.46468 0.82507
 C639 C 0.38716 0.48791 0.82399
 C640 C 0.41018 0.51989 0.84470
 O641 O 0.40546 0.55672 0.88664
 C642 C 0.37264 0.55218 0.90067
 C643 C 0.33550 0.52096 0.88921
 C644 C 0.29728 0.51151 0.90019
 C645 C 0.29732 0.53535 0.92386
 C646 C 0.33523 0.56784 0.93615
 C647 C 0.37344 0.57608 0.92436
 H648 H 0.28849 0.45575 0.84745
 H649 H 0.32544 0.44021 0.80922
 H650 H 0.44381 0.53819 0.84414
 H651 H 0.26846 0.48692 0.89073
 H652 H 0.26775 0.52850 0.93254
 H653 H 0.40289 0.60087 0.93295
 C654 C 0.14979 0.60626 0.86446
 C655 C 0.18003 0.64802 0.86012
 C656 C 0.18086 0.67085 0.83605
 C657 C 0.14908 0.64982 0.81563
 C658 C 0.11692 0.60670 0.81960
 C659 C 0.11775 0.58478 0.84455
 O660 O 0.15523 0.59015 0.88847
 C661 C 0.18961 0.62256 0.89960
 C662 C 0.20588 0.65871 0.88309
 C663 C 0.24185 0.69633 0.89053
 C664 C 0.26208 0.69671 0.91595
 C665 C 0.24633 0.65974 0.93339
 C666 C 0.20932 0.62212 0.92499
 H667 H 0.20512 0.70371 0.83309
 H668 H 0.14897 0.66747 0.79703
 H669 H 0.09466 0.55161 0.84804
 H670 H 0.25409 0.72436 0.87715
 H671 H 0.29039 0.72582 0.92175
 H672 H 0.19648 0.59331 0.93761
 C673 C 0.46905 0.85799 0.86828
 C674 C 0.48232 0.83019 0.86345
 C675 C 0.50487 0.83218 0.83904
 C676 C 0.51400 0.86405 0.81872
 C677 C 0.50078 0.89342 0.82311
 C678 C 0.47806 0.89012 0.84854
 O679 O 0.44666 0.84965 0.89226
 C680 C 0.44583 0.81587 0.90284
 C681 C 0.46729 0.80277 0.88607
 C682 C 0.46958 0.76741 0.89276
 C683 C 0.44869 0.74443 0.91765
 C684 C 0.42586 0.75694 0.93525
 C685 C 0.42479 0.79350 0.92767
 H686 H 0.51476 0.80975 0.83561
 H687 H 0.53173 0.86615 0.79965
 H688 H 0.46628 0.91093 0.85232
 H689 H 0.48645 0.75755 0.87914
 H690 H 0.44984 0.71652 0.92290
 H691 H 0.40745 0.80381 0.94036
 C692 C 0.56138 0.41355 0.86022
 C693 C 0.59526 0.45175 0.86851
 C694 C 0.60686 0.48991 0.85495
 C695 C 0.58225 0.48875 0.83201
 C696 C 0.54715 0.44986 0.82308
 C697 C 0.53666 0.41161 0.83720
 O698 O 0.55530 0.38130 0.87662
 C699 C 0.58604 0.39962 0.89564
 C700 C 0.61128 0.44265 0.89150
 C701 C 0.64498 0.46839 0.90900
 C702 C 0.65321 0.44903 0.93174
 C703 C 0.62777 0.40460 0.93672
 C704 C 0.59357 0.37956 0.91828
 H705 H 0.63351 0.51956 0.86207
 H706 H 0.59005 0.51808 0.82136
 H707 H 0.50961 0.38171 0.83090
 H708 H 0.66424 0.50222 0.90532
 H709 H 0.67951 0.46892 0.94549
 H710 H 0.57357 0.34567 0.92140
 C711 C 0.85764 0.44108 0.85924
 C712 C 0.85595 0.40473 0.86817
 C713 C 0.87998 0.39020 0.85586
 C714 C 0.90709 0.41429 0.83343
 C715 C 0.90927 0.45173 0.82379
 C716 C 0.88409 0.46527 0.83673
 O717 O 0.83317 0.44990 0.87456
 C718 C 0.81566 0.41839 0.89357
 C719 C 0.82856 0.38995 0.89043
 C720 C 0.81499 0.35501 0.90822
 C721 C 0.78711 0.34915 0.93033
 C722 C 0.77342 0.37818 0.93447
 C723 C 0.78780 0.41323 0.91554
 H724 H 0.87831 0.36169 0.86350
 H725 H 0.92660 0.40411 0.82363
 H726 H 0.88576 0.49410 0.82982
 H727 H 0.82572 0.33317 0.90532
 H728 H 0.77650 0.32199 0.94437
 H729 H 0.77818 0.43603 0.91808
 C730 C 0.58074 0.15035 0.86352
 C731 C 0.54452 0.14529 0.87461
 C732 C 0.50563 0.11696 0.86311
 C733 C 0.50395 0.09245 0.83937
 C734 C 0.54079 0.09696 0.82766
 C735 C 0.57979 0.12657 0.83971
 O736 O 0.61426 0.17823 0.87816
 C737 C 0.59883 0.19100 0.89894
 C738 C 0.55635 0.17180 0.89766
 C739 C 0.53363 0.18003 0.91742
 C740 C 0.55559 0.20943 0.93939
 C741 C 0.59954 0.22990 0.94133
 C742 C 0.62138 0.22033 0.92071
 H743 H 0.47758 0.11339 0.87236
 H744 H 0.47405 0.06953 0.83027
 H745 H 0.60820 0.13002 0.83125
 H746 H 0.50018 0.16437 0.91599
 H747 H 0.53817 0.21617 0.95487
 H748 H 0.65483 0.23533 0.92146
   
