data_POSCAR
  _audit_creation_date              2014-09-24
  _audit_creation_method            'ToBaCCo'
  _symmetry_space_group_name_H-M    'P1'
  _symmetry_Int_Tables_number       1
  _symmetry_cell_setting            triclinic
  loop_
  _symmetry_equiv_pos_as_xyz
 x,y,z
_cell_length_a 13.7337
_cell_length_b 13.7335
_cell_length_c 17.9122
_cell_angle_alpha 90.000000
_cell_angle_beta 89.632100
_cell_angle_gamma 89.999800
loop_
  _atom_site_label
  _atom_site_type_symbol
  _atom_site_fract_x
  _atom_site_fract_y
  _atom_site_fract_z
O1 O 0.18570 0.11617 0.04932
 O2 O -0.18578 -0.11066 0.05132
 O3 O -0.11208 0.18795 0.05360
 O4 O 0.11209 -0.18225 0.05221
 O5 O -0.16701 0.05289 0.09391
 O6 O 0.16695 -0.04748 0.09229
 O7 O -0.05153 -0.16360 0.09264
 O8 O 0.05179 0.16954 0.09213
 C9 C 0.13957 0.15655 0.10067
 C10 C -0.13945 -0.15162 0.10186
 C11 C -0.15423 0.14073 0.10383
 C12 C 0.15404 -0.13531 0.10219
 O13 O 0.18577 -0.11066 -0.05131
 O14 O -0.18571 0.11617 -0.04931
 O15 O 0.11207 0.18795 -0.05360
 O16 O -0.11210 -0.18226 -0.05221
 O17 O -0.16696 -0.04748 -0.09229
 O18 O 0.16699 0.05289 -0.09391
 O19 O 0.05152 -0.16359 -0.09264
 O20 O -0.05180 0.16955 -0.09213
 Co21 Co 0.15932 0.00272 -0.00079
 Co22 Co -0.15933 0.00272 0.00080
 Co23 Co -0.00001 0.16188 0.00000
 Co24 Co -0.00001 -0.15602 0.00000
 O25 O -0.00000 0.00284 0.00000
 C26 C 0.13944 -0.15162 -0.10186
 C27 C -0.13958 0.15655 -0.10067
 C28 C 0.15422 0.14073 -0.10383
 C29 C -0.15406 -0.13532 -0.10219
 O30 O 0.38689 0.31195 0.44966
 O31 O 0.61352 0.68326 0.44939
 O32 O 0.31504 0.60985 0.44766
 O33 O 0.68539 0.38547 0.44686
 O34 O 0.45017 0.66445 0.40706
 O35 O 0.55083 0.33055 0.40681
 O36 O 0.66693 0.54926 0.40711
 O37 O 0.33374 0.44620 0.40803
 C38 C 0.34633 0.35839 0.39892
 C39 C 0.65434 0.63711 0.39830
 C40 C 0.36231 0.65201 0.39750
 C41 C 0.63867 0.34363 0.39669
 O42 O 0.61309 0.31195 0.55035
 O43 O 0.38647 0.68326 0.55061
 O44 O 0.31460 0.38547 0.55314
 O45 O 0.68495 0.60985 0.55234
 O46 O 0.54981 0.66445 0.59294
 O47 O 0.44916 0.33055 0.59319
 O48 O 0.66624 0.44620 0.59197
 O49 O 0.33306 0.54926 0.59289
 Co50 Co 0.49999 0.33825 0.50000
 Co51 Co 0.49999 0.65683 0.50000
 Co52 Co 0.34101 0.49770 0.50042
 Co53 Co 0.65898 0.49770 0.49959
 O54 O 0.49999 0.49760 0.50000
 C55 C 0.65365 0.35839 0.60108
 C56 C 0.34564 0.63711 0.60171
 C57 C 0.36131 0.34363 0.60331
 C58 C 0.63767 0.65201 0.60251
 C59 C 0.18804 0.19583 0.16439
 C60 C 0.22699 0.23016 0.21830
 C61 C 0.27050 0.27229 0.28151
 C62 C 0.30599 0.31034 0.33537
 C63 C 0.81217 0.80668 0.16511
 C64 C 0.77345 0.77005 0.21856
 C65 C 0.73025 0.72541 0.28123
 C66 C 0.69488 0.68581 0.33478
 C67 C 0.81194 0.19583 0.83562
 C68 C 0.77300 0.23016 0.78170
 C69 C 0.72949 0.27229 0.71850
 C70 C 0.69400 0.31035 0.66464
 C71 C 0.18781 0.80668 0.83489
 C72 C 0.22654 0.77006 0.78144
 C73 C 0.26974 0.72542 0.71877
 C74 C 0.30511 0.68581 0.66522
 C75 C 0.19250 0.18416 0.83819
 C76 C 0.22915 0.22288 0.78437
 C77 C 0.27368 0.26649 0.72123
 C78 C 0.31297 0.30237 0.66736
 C79 C 0.80420 0.81647 0.83441
 C80 C 0.76797 0.77697 0.78119
 C81 C 0.72410 0.73193 0.71887
 C82 C 0.68539 0.69470 0.66573
 C83 C 0.19579 0.81648 0.16560
 C84 C 0.23202 0.77697 0.21882
 C85 C 0.27588 0.73193 0.28113
 C86 C 0.31459 0.69471 0.33428
 C87 C 0.80749 0.18416 0.16181
 C88 C 0.77084 0.22288 0.21563
 C89 C 0.72631 0.26649 0.27877
 C90 C 0.68702 0.30237 0.33264
   
