data_POSCAR
  _audit_creation_date              2014-09-24
  _audit_creation_method            'ToBaCCo'
  _symmetry_space_group_name_H-M    'P1'
  _symmetry_Int_Tables_number       1
  _symmetry_cell_setting            triclinic
  loop_
  _symmetry_equiv_pos_as_xyz
 x,y,z
_cell_length_a 29.1236
_cell_length_b 33.6356
_cell_length_c 9.1818
_cell_angle_alpha 88.143600
_cell_angle_beta 90.703200
_cell_angle_gamma 89.543200
loop_
  _atom_site_label
  _atom_site_type_symbol
  _atom_site_fract_x
  _atom_site_fract_y
  _atom_site_fract_z
O1 O 0.18808 0.21742 0.43511
 O2 O 0.28023 0.29067 0.47941
 O3 O 0.19334 0.29419 0.40857
 O4 O 0.27495 0.21334 0.50749
 O5 O 0.29313 0.20857 0.27603
 O6 O 0.21031 0.28861 0.17636
 O7 O 0.29731 0.28592 0.24699
 O8 O 0.20646 0.21145 0.20411
 Cu9 Cu 0.23248 0.25441 0.48096
 Cu10 Cu 0.25368 0.24814 0.20268
 C11 C 0.18150 0.20204 0.31220
 C12 C 0.30434 0.30093 0.37047
 C13 C 0.18751 0.30490 0.27558
 C14 C 0.29806 0.19716 0.40877
 O15 O 0.71010 0.21489 0.29523
 O16 O 0.79531 0.29561 0.28077
 O17 O 0.70580 0.29215 0.28656
 O18 O 0.79978 0.21890 0.30317
 O19 O 0.79902 0.21715 0.06295
 O20 O 0.70399 0.29072 0.04639
 O21 O 0.79377 0.29440 0.04061
 O22 O 0.70943 0.21398 0.05484
 Cu23 Cu 0.75274 0.25553 0.31507
 Cu24 Cu 0.75159 0.25394 0.02755
 C25 C 0.69488 0.20109 0.17679
 C26 C 0.80949 0.30841 0.15754
 C27 C 0.68846 0.30365 0.16471
 C28 C 0.81581 0.20585 0.18616
 O29 O 0.79432 0.70778 0.66149
 O30 O 0.70741 0.78602 0.58885
 O31 O 0.79718 0.78350 0.60944
 O32 O 0.70485 0.70973 0.64619
 O33 O 0.70113 0.72018 0.88199
 O34 O 0.79244 0.79458 0.84442
 O35 O 0.70263 0.79594 0.82479
 O36 O 0.79069 0.71827 0.89729
 Cu37 Cu 0.75115 0.74574 0.60282
 Cu38 Cu 0.74639 0.75840 0.88567
 C39 C 0.80784 0.70010 0.79143
 C40 C 0.68965 0.80385 0.69435
 C41 C 0.81106 0.80121 0.72156
 C42 C 0.68717 0.70250 0.77009
 O43 O 0.20421 0.78728 0.71084
 O44 O 0.29009 0.71016 0.63985
 O45 O 0.20263 0.71028 0.69678
 O46 O 0.29280 0.78708 0.67032
 O47 O 0.30644 0.77874 0.90654
 O48 O 0.21643 0.70343 0.93324
 O49 O 0.30387 0.70218 0.87608
 O50 O 0.21784 0.78050 0.94741
 Cu51 Cu 0.24612 0.74948 0.65580
 Cu52 Cu 0.26257 0.74050 0.93933
 C53 C 0.19597 0.79689 0.84054
 C54 C 0.31163 0.69298 0.74522
 C55 C 0.19400 0.69399 0.82050
 C56 C 0.31513 0.79572 0.78490
 C57 C 1.04902 0.08103 0.02488
 C58 C 1.00741 0.10223 0.02757
 C59 C 0.96535 0.08380 0.00160
 C60 C 0.96434 0.04255 -0.02223
 C61 C 1.00609 0.02060 -0.02673
 C62 C 1.04866 0.04003 -0.00614
 C63 C 1.08955 0.01773 -0.01457
 C64 C 1.08871 -0.02264 -0.04424
 C65 C 1.04690 -0.04268 -0.06208
 C66 C 1.00519 -0.02087 -0.05188
 C67 C 0.92251 0.02256 -0.03885
 C68 C 0.92160 -0.01814 -0.05966
 C69 C 0.96248 -0.04044 -0.06643
 C70 C 0.96162 -0.08170 -0.08974
 C71 C 1.00293 -0.10254 -0.10517
 C72 C 1.04554 -0.08372 -0.09247
 H73 H 1.12274 0.03123 0.00122
 H74 H 1.12134 -0.03790 -0.05241
 H75 H 0.88990 0.03805 -0.03375
 H76 H 0.88835 -0.03183 -0.07248
 H77 H 1.00792 0.13399 0.04440
 H78 H 1.00192 -0.13432 -0.12136
 C79 C 0.45667 0.41741 0.41938
 C80 C 0.49882 0.39908 0.38933
 C81 C 0.54053 0.41868 0.40821
 C82 C 0.54049 0.45836 0.45367
 C83 C 0.49838 0.47746 0.48573
 C84 C 0.45633 0.45680 0.47058
 C85 C 0.41520 0.47634 0.50557
 C86 C 0.41540 0.51486 0.55721
 C87 C 0.45659 0.53600 0.57165
 C88 C 0.49844 0.51722 0.53415
 C89 C 0.58165 0.47955 0.46656
 C90 C 0.58162 0.51863 0.51072
 C91 C 0.54044 0.53813 0.54459
 C92 C 0.54040 0.57781 0.59055
 C93 C 0.49909 0.59542 0.63201
 C94 C 0.45727 0.57519 0.62424
 H95 H 0.38225 0.46216 0.49373
 H96 H 0.38273 0.52782 0.58545
 H97 H 0.61443 0.46631 0.44086
 H98 H 0.61449 0.53314 0.52007
 H99 H 0.49943 0.36823 0.35861
 H100 H 0.49912 0.62619 0.66373
 C101 C -0.04363 0.42531 0.12399
 C102 C -0.00206 0.40607 0.16037
 C103 C 0.04039 0.42422 0.13534
 C104 C 0.04147 0.46299 0.07045
 C105 C -0.00036 0.48332 0.03570
 C106 C -0.04299 0.46443 0.06276
 C107 C -0.08394 0.48534 0.02937
 C108 C -0.08321 0.52377 -0.03065
 C109 C -0.04149 0.54314 -0.05852
 C110 C 0.00039 0.52263 -0.02646
 C111 C 0.08319 0.48221 0.04099
 C112 C 0.08393 0.52035 -0.02244
 C113 C 0.04298 0.54139 -0.05565
 C114 C 0.04342 0.58048 -0.11834
 C115 C 0.00162 0.60018 -0.14872
 C116 C -0.04064 0.58232 -0.11903
 H117 H -0.11719 0.47247 0.05067
 H118 H -0.11594 0.53792 -0.05590
 H119 H 0.11588 0.46806 0.06673
 H120 H 0.11718 0.53299 -0.04536
 H121 H -0.00265 0.37557 0.20228
 H122 H 0.00194 0.63084 -0.18892
 C123 C 0.45595 0.92145 0.55120
 C124 C 0.49697 0.90193 0.59327
 C125 C 0.53926 0.92142 0.59047
 C126 C 0.54080 0.96205 0.54658
 C127 C 0.49975 0.98230 0.50238
 C128 C 0.45723 0.96190 0.50342
 C129 C 0.41711 0.98273 0.45870
 C130 C 0.41880 1.02244 0.41117
 C131 C 0.46052 1.04314 0.40903
 C132 C 0.50132 1.02302 0.45620
 C133 C 0.58232 0.98311 0.54760
 C134 C 0.58380 1.02296 0.50312
 C135 C 0.54379 1.04347 0.45639
 C136 C 0.54535 1.08363 0.40644
 C137 C 0.50501 1.10264 0.35604
 C138 C 0.46280 1.08328 0.35871
 H139 H 0.38389 0.96860 0.45983
 H140 H 0.38700 1.03676 0.37571
 H141 H 0.61422 0.96914 0.58380
 H142 H 0.61688 1.03737 0.50429
 H143 H 0.49625 0.87046 0.62269
 H144 H 0.50619 1.13355 0.31873
 C145 C 1.14358 0.17382 0.29591
 C146 C 1.13779 0.15242 0.17695
 C147 C 1.09689 0.12748 0.16017
 C148 C 1.09219 0.10313 0.04875
 H149 H 1.16262 0.15409 0.08998
 H150 H 1.06956 0.12963 0.23882
 H151 H 1.11916 0.17112 0.38382
 H152 H 1.12011 0.09973 -0.02690
 C153 C 0.64922 0.67413 0.78544
 C154 C 0.63469 0.65240 0.67508
 C155 C 0.59443 0.62653 0.69041
 C156 C 0.58231 0.60251 0.58383
 H157 H 0.65209 0.65422 0.57135
 H158 H 0.57429 0.62734 0.78885
 H159 H 0.63220 0.67166 0.88966
 H160 H 0.60362 0.60089 0.48819
 C161 C -0.15653 0.33732 0.14777
 C162 C -0.13522 0.35185 0.26493
 C163 C -0.09525 0.37856 0.25442
 C164 C -0.08685 0.40247 0.13827
 H165 H -0.14433 0.34116 0.37328
 H166 H -0.07185 0.37841 0.34709
 H167 H -0.14558 0.34632 0.03947
 H168 H -0.11171 0.40517 0.04999
 C169 C 0.35245 0.82492 0.77994
 C170 C 0.36240 0.84727 0.66174
 C171 C 0.40268 0.87349 0.66406
 C172 C 0.41288 0.89803 0.55185
 H173 H 0.34175 0.84552 0.56317
 H174 H 0.42511 0.87221 0.75933
 H175 H 0.37309 0.82766 0.87818
 H176 H 0.38974 0.90054 0.45864
 C177 C -0.15535 0.67060 -0.17925
 C178 C -0.13079 0.65530 -0.28701
 C179 C -0.09036 0.62906 -0.26261
 C180 C -0.08318 0.60643 -0.14164
 H181 H -0.13818 0.66469 -0.39887
 H182 H -0.06596 0.62779 -0.35050
 H183 H -0.14655 0.66358 -0.06645
 H184 H -0.10885 0.60512 -0.05756
 C185 C 0.32937 1.16696 0.44875
 C186 C 0.35590 1.14894 0.35225
 C187 C 0.39117 1.11961 0.40049
 C188 C 0.42230 1.10661 0.30732
 H189 H 0.35318 1.15709 0.23716
 H190 H 0.39366 1.11041 0.51467
 H191 H 0.33291 1.15861 0.56348
 H192 H 0.42175 1.11779 0.19524
 C193 C 1.15999 -0.17325 -0.13198
 C194 C 1.13199 -0.15938 -0.23940
 C195 C 1.09219 -0.13286 -0.21814
 C196 C 1.08779 -0.10820 -0.10734
 H197 H 1.13590 -0.17028 -0.34832
 H198 H 1.06560 -0.13300 -0.30174
 H199 H 1.15497 -0.16452 -0.02085
 H200 H 1.11537 -0.10537 -0.02847
 C201 C 0.64899 0.33131 0.16040
 C202 C 0.63519 0.34939 0.27992
 C203 C 0.59313 0.37388 0.28062
 C204 C 0.58380 0.39575 0.39556
 H205 H 0.65476 0.34545 0.38071
 H206 H 0.56944 0.37365 0.18863
 H207 H 0.63031 0.33611 0.05843
 H208 H 0.60867 0.39707 0.48411
 C209 C 0.84804 -0.17281 -0.29120
 C210 C 0.86430 -0.15267 -0.17855
 C211 C 0.90630 -0.12886 -0.19119
 C212 C 0.91822 -0.10425 -0.08630
 H213 H 0.84721 -0.15436 -0.07422
 H214 H 0.92793 -0.13172 -0.28565
 H215 H 0.86478 -0.16977 -0.39582
 H216 H 0.89541 -0.10006 0.00449
 C217 C 0.34105 0.33030 0.38973
 C218 C 0.36771 0.34252 0.27924
 C219 C 0.40723 0.36949 0.29434
 C220 C 0.41412 0.39353 0.40630
 H221 H 0.36238 0.33041 0.17251
 H222 H 0.43166 0.36972 0.20627
 H223 H 0.34684 0.34080 0.49844
 H224 H 0.38865 0.39569 0.49029
 C225 C 0.15927 0.66589 -0.16361
 C226 C 0.13264 0.65440 -0.27471
 C227 C 0.09280 0.62770 -0.25617
 C228 C 0.08671 0.60293 -0.14043
 H229 H 0.13771 0.66720 -0.38308
 H230 H 0.06727 0.62878 -0.34301
 H231 H 0.15307 0.65441 -0.05425
 H232 H 0.11334 0.59946 -0.05799
 C233 C 0.65859 1.17099 0.17741
 C234 C 0.64257 1.15384 0.29946
 C235 C 0.60224 1.12787 0.29323
 C236 C 0.58821 1.10701 0.41024
 H237 H 0.65808 1.16002 0.40416
 H238 H 0.58303 1.12631 0.19161
 H239 H 0.64327 1.16383 0.07332
 H240 H 0.60829 1.10702 0.51040
 C241 C 0.15327 0.33585 0.23413
 C242 C 0.12595 0.35219 0.33275
 C243 C 0.08719 0.37940 0.29561
 C244 C 0.08277 0.40076 0.17024
 H245 H 0.12941 0.34283 0.44638
 H246 H 0.06088 0.38188 0.37735
 H247 H 0.14894 0.34335 0.11930
 H248 H 0.11005 0.40091 0.09144
 C249 C 0.65287 0.83324 0.66326
 C250 C 0.62547 0.84648 0.76781
 C251 C 0.58498 0.87230 0.73741
 C252 C 0.58163 0.89782 0.62266
 H253 H 0.63028 0.83539 0.87907
 H254 H 0.55729 0.87072 0.81505
 H255 H 0.64620 0.84169 0.55017
 H256 H 0.61051 0.90193 0.55082
 C257 C 0.85519 0.17825 0.19605
 C258 C 0.87072 0.15897 0.08162
 C259 C 0.91209 0.13369 0.09549
 C260 C 0.92321 0.10870 -0.00852
 H261 H 0.85306 0.16197 -0.02286
 H262 H 0.93361 0.13526 0.19237
 H263 H 0.87225 0.17399 0.30111
 H264 H 0.90050 0.10566 -0.10184
 C265 C 0.34639 0.66265 0.71222
 C266 C 0.37394 0.64571 0.81474
 C267 C 0.41282 0.61919 0.78083
 C268 C 0.41477 0.59708 0.66191
 H269 H 0.37091 0.65437 0.92684
 H270 H 0.44125 0.61804 0.85813
 H271 H 0.35100 0.65606 0.59869
 H272 H 0.38534 0.59553 0.58936
   
