data_POSCAR
  _audit_creation_date              2014-09-24
  _audit_creation_method            'ToBaCCo'
  _symmetry_space_group_name_H-M    'P1'
  _symmetry_Int_Tables_number       1
  _symmetry_cell_setting            triclinic
  loop_
  _symmetry_equiv_pos_as_xyz
 x,y,z
_cell_length_a 51.2147
_cell_length_b 51.6878
_cell_length_c 51.5468
_cell_angle_alpha 89.968900
_cell_angle_beta 90.046800
_cell_angle_gamma 90.027900
loop_
  _atom_site_label
  _atom_site_type_symbol
  _atom_site_fract_x
  _atom_site_fract_y
  _atom_site_fract_z
N1 N 0.29119 0.23944 0.21964
 N2 N 0.28085 0.26059 0.20980
 C3 C 0.29472 0.26776 0.18876
 C4 C 0.31464 0.25016 0.18545
 C5 C 0.31196 0.23245 0.20525
 H6 H 0.29070 0.28445 0.17676
 H7 H 0.32419 0.21579 0.20891
 Cu8 Cu 0.25032 0.27664 0.22545
 Cu9 Cu 0.27701 0.22259 0.25036
 Cu10 Cu 0.22204 0.25026 0.27808
 N11 N 0.21913 0.29162 0.24089
 N12 N 0.20816 0.28119 0.26148
 C13 C 0.18705 0.29522 0.26814
 C14 C 0.18479 0.31538 0.25079
 C15 C 0.20532 0.31265 0.23375
 H16 H 0.17431 0.29108 0.28434
 H17 H 0.20979 0.32505 0.21744
 N18 N 0.23892 0.21895 0.29207
 N19 N 0.25985 0.20839 0.28149
 C20 C 0.26670 0.18737 0.29541
 C21 C 0.24926 0.18473 0.31555
 C22 C 0.23192 0.20493 0.31299
 H23 H 0.28313 0.17490 0.29128
 H24 H 0.21549 0.20904 0.32548
 H25 H 0.23906 0.23516 0.24503
 H26 H 0.26034 0.25524 0.26648
 N27 N 0.70941 -0.23860 0.21853
 N28 N 0.72028 -0.25921 0.20815
 C29 C 0.70639 -0.26638 0.18712
 C30 C 0.68592 -0.24930 0.18437
 C31 C 0.68827 -0.23192 0.20448
 H32 H 0.71076 -0.28273 0.17477
 H33 H 0.67560 -0.21569 0.20858
 Cu34 Cu 0.75148 -0.27465 0.22319
 Cu35 Cu 0.72344 -0.22198 0.24945
 Cu36 Cu 0.77846 -0.24967 0.27718
 N37 N 0.78206 -0.29028 0.23927
 N38 N 0.79252 -0.28039 0.26038
 C39 C 0.81331 -0.29474 0.26740
 C40 C 0.81584 -0.31456 0.24972
 C41 C 0.79584 -0.31132 0.23212
 H42 H 0.82563 -0.29104 0.28405
 H43 H 0.79170 -0.32333 0.21544
 N44 N 0.76142 -0.21855 0.29133
 N45 N 0.74047 -0.20798 0.28075
 C46 C 0.73354 -0.18708 0.29477
 C47 C 0.75094 -0.18453 0.31498
 C48 C 0.76835 -0.20465 0.31236
 H49 H 0.71710 -0.17461 0.29065
 H50 H 0.78479 -0.20878 0.32486
 H51 H 0.76169 -0.23368 0.24442
 H52 H 0.74043 -0.25493 0.26472
 N53 N 0.70913 0.23968 0.77996
 N54 N 0.71934 0.26090 0.78974
 C55 C 0.70542 0.26803 0.81074
 C56 C 0.68558 0.25033 0.81409
 C57 C 0.68838 0.23260 0.79434
 H58 H 0.70936 0.28477 0.82270
 H59 H 0.67624 0.21585 0.79074
 Cu60 Cu 0.74985 0.27709 0.77412
 Cu61 Cu 0.72344 0.22283 0.74932
 Cu62 Cu 0.77840 0.25067 0.72168
 N63 N 0.78104 0.29215 0.75872
 N64 N 0.79213 0.28170 0.73822
 C65 C 0.81324 0.29577 0.73158
 C66 C 0.81534 0.31598 0.74887
 C67 C 0.79475 0.31326 0.76584
 H68 H 0.82607 0.29161 0.71546
 H69 H 0.79017 0.32568 0.78210
 N70 N 0.76167 0.21926 0.70774
 N71 N 0.74073 0.20865 0.71828
 C72 C 0.73396 0.18760 0.70439
 C73 C 0.75147 0.18499 0.68430
 C74 C 0.76876 0.20524 0.68686
 H75 H 0.71755 0.17509 0.70849
 H76 H 0.78521 0.20940 0.67441
 H77 H 0.76133 0.23559 0.75475
 H78 H 0.74005 0.25551 0.73314
 N79 N 0.29124 -0.24015 0.78048
 N80 N 0.28088 -0.26127 0.79036
 C81 C 0.29481 -0.26845 0.81137
 C82 C 0.31480 -0.25089 0.81463
 C83 C 0.31209 -0.23320 0.79482
 H84 H 0.29078 -0.28513 0.82339
 H85 H 0.32435 -0.21655 0.79113
 Cu86 Cu 0.25023 -0.27726 0.77477
 Cu87 Cu 0.27699 -0.22328 0.74978
 Cu88 Cu 0.22182 -0.25084 0.72220
 N89 N 0.21896 -0.29222 0.75938
 N90 N 0.20793 -0.28176 0.73882
 C91 C 0.18676 -0.29575 0.73218
 C92 C 0.18456 -0.31592 0.74952
 C93 C 0.20515 -0.31326 0.76654
 H94 H 0.17397 -0.29157 0.71600
 H95 H 0.20967 -0.32567 0.78284
 N96 N 0.23873 -0.21956 0.70818
 N97 N 0.25975 -0.20905 0.71869
 C98 C 0.26662 -0.18805 0.70475
 C99 C 0.24909 -0.18537 0.68466
 C100 C 0.23169 -0.20552 0.68727
 H101 H 0.28311 -0.17563 0.70883
 H102 H 0.21518 -0.20959 0.67483
 H103 H 0.23903 -0.23575 0.75520
 H104 H 0.26015 -0.25589 0.73371
 N105 N 0.70899 -0.24025 0.77989
 N106 N 0.71923 -0.26148 0.78962
 C107 C 0.70537 -0.26870 0.81062
 C108 C 0.68553 -0.25104 0.81402
 C109 C 0.68826 -0.23324 0.79432
 H110 H 0.70933 -0.28546 0.82255
 H111 H 0.67611 -0.21650 0.79078
 Cu112 Cu 0.74969 -0.27758 0.77394
 Cu113 Cu 0.72321 -0.22328 0.74931
 Cu114 Cu 0.77819 -0.25085 0.72159
 N115 N 0.78092 -0.29242 0.75851
 N116 N 0.79198 -0.28185 0.73805
 C117 C 0.81316 -0.29578 0.73141
 C118 C 0.81531 -0.31601 0.74867
 C119 C 0.79470 -0.31346 0.76563
 H120 H 0.82600 -0.29151 0.71532
 H121 H 0.79018 -0.32593 0.78188
 N122 N 0.76137 -0.21949 0.70774
 N123 N 0.74043 -0.20897 0.71832
 C124 C 0.73362 -0.18790 0.70449
 C125 C 0.75110 -0.18520 0.68441
 C126 C 0.76843 -0.20539 0.68690
 H127 H 0.71718 -0.17544 0.70863
 H128 H 0.78488 -0.20947 0.67442
 H129 H 0.73984 -0.25587 0.73304
 H130 H 0.76110 -0.23598 0.75473
 N131 N 0.29009 0.23811 0.78109
 N132 N 0.27927 0.25873 0.79147
 C133 C 0.29327 0.26595 0.81239
 C134 C 0.31377 0.24891 0.81508
 C135 C 0.31130 0.23149 0.79503
 H136 H 0.28898 0.28232 0.82473
 H137 H 0.32398 0.21528 0.79090
 Cu138 Cu 0.24803 0.27414 0.77659
 Cu139 Cu 0.27596 0.22143 0.75030
 Cu140 Cu 0.22087 0.24911 0.72273
 N141 N 0.21748 0.28977 0.76055
 N142 N 0.20695 0.27987 0.73949
 C143 C 0.18621 0.29427 0.73249
 C144 C 0.18377 0.31414 0.75011
 C145 C 0.20379 0.31086 0.76766
 H146 H 0.17384 0.29059 0.71588
 H147 H 0.20799 0.32292 0.78428
 N148 N 0.23781 0.21796 0.70861
 N149 N 0.25879 0.20740 0.71913
 C150 C 0.26567 0.18648 0.70513
 C151 C 0.24819 0.18392 0.68500
 C152 C 0.23080 0.20403 0.68763
 H153 H 0.28213 0.17402 0.70920
 H154 H 0.21431 0.20816 0.67518
 H155 H 0.25896 0.25439 0.73505
 H156 H 0.23777 0.23316 0.75546
 N157 N 0.29175 -0.23857 0.21932
 N158 N 0.28114 -0.25941 0.20914
 C159 C 0.29509 -0.26658 0.18819
 C160 C 0.31536 -0.24929 0.18529
 C161 C 0.31280 -0.23177 0.20524
 H162 H 0.29091 -0.28307 0.17596
 H163 H 0.32528 -0.21535 0.20919
 Cu164 Cu 0.25015 -0.27505 0.22429
 Cu165 Cu 0.27756 -0.22182 0.25003
 Cu166 Cu 0.22229 -0.24939 0.27738
 N167 N 0.21916 -0.29033 0.23980
 N168 N 0.20836 -0.28015 0.26058
 C169 C 0.18732 -0.29428 0.26727
 C170 C 0.18496 -0.31425 0.24975
 C171 C 0.20534 -0.31132 0.23257
 H172 H 0.17470 -0.29034 0.28361
 H173 H 0.20968 -0.32353 0.21611
 N174 N 0.23928 -0.21824 0.29153
 N175 N 0.26033 -0.20773 0.28110
 C176 C 0.26720 -0.18679 0.29510
 C177 C 0.24965 -0.18416 0.31512
 C178 C 0.23222 -0.20426 0.31244
 H179 H 0.28370 -0.17436 0.29109
 H180 H 0.21568 -0.20834 0.32481
 H181 H 0.26052 -0.25457 0.26563
 H182 H 0.23945 -0.23382 0.24461
 N183 N 0.70817 0.23952 0.22032
 N184 N 0.71836 0.26080 0.21062
 C185 C 0.70449 0.26795 0.18958
 C186 C 0.68472 0.25021 0.18612
 C187 C 0.68748 0.23243 0.20584
 H188 H 0.70842 0.28473 0.17765
 H189 H 0.67538 0.21564 0.20935
 Cu190 Cu 0.74875 0.27703 0.22635
 Cu191 Cu 0.72242 0.22263 0.25094
 Cu192 Cu 0.77730 0.25041 0.27877
 N193 N 0.77995 0.29195 0.24182
 N194 N 0.79103 0.28144 0.26231
 C195 C 0.81216 0.29546 0.26897
 C196 C 0.81430 0.31569 0.25171
 C197 C 0.79369 0.31303 0.23473
 H198 H 0.82501 0.29125 0.28509
 H199 H 0.78916 0.32548 0.21848
 N200 N 0.76055 0.21901 0.29261
 N201 N 0.73965 0.20841 0.28198
 C202 C 0.73288 0.18731 0.29581
 C203 C 0.75036 0.18469 0.31593
 C204 C 0.76763 0.20495 0.31348
 H205 H 0.71648 0.17480 0.29163
 H206 H 0.78406 0.20909 0.32600
 H207 H 0.73895 0.25529 0.26724
 H208 H 0.76028 0.23549 0.24560
 O209 O 0.22731 0.02494 0.47486
 O210 O 0.22726 -0.02556 0.52530
 O211 O 0.22711 0.02480 0.52535
 O212 O 0.22743 -0.02542 0.47481
 O213 O 0.27062 -0.02529 0.47500
 O214 O 0.27030 0.02494 0.52555
 O215 O 0.27044 -0.02542 0.52549
 O216 O 0.27050 0.02507 0.47506
 Cu217 Cu 0.22291 -0.00032 0.50006
 Cu218 Cu 0.27483 -0.00016 0.50029
 C219 C 0.24891 0.03353 0.46645
 C220 C 0.24885 -0.03401 0.53391
 C221 C 0.24865 0.03335 0.53397
 C222 C 0.24908 -0.03383 0.46638
 O223 O 0.72983 0.02490 0.52546
 O224 O 0.72963 -0.02545 0.47493
 O225 O 0.72977 -0.02546 0.52541
 O226 O 0.72971 0.02491 0.47496
 O227 O 0.77290 0.02489 0.47488
 O228 O 0.77296 -0.02549 0.52534
 O229 O 0.77282 -0.02548 0.47485
 O230 O 0.77302 0.02487 0.52538
 Cu231 Cu 0.72537 -0.00027 0.50020
 Cu232 Cu 0.77729 -0.00030 0.50011
 C233 C 0.75146 0.03339 0.53395
 C234 C 0.75119 -0.03396 0.46637
 C235 C 0.75138 -0.03398 0.53388
 C236 C 0.75129 0.03340 0.46641
 O237 O 0.47464 0.27183 0.02497
 O238 O 0.52554 0.27181 -0.02551
 O239 O 0.47469 0.27178 -0.02554
 O240 O 0.52549 0.27187 0.02501
 O241 O 0.52549 0.22908 0.02508
 O242 O 0.47470 0.22899 -0.02547
 O243 O 0.52555 0.22902 -0.02544
 O244 O 0.47466 0.22904 0.02504
 Cu245 Cu 0.50009 0.27614 -0.00028
 Cu246 Cu 0.50010 0.22471 -0.00019
 C247 C 0.46606 0.25044 0.03352
 C248 C 0.53413 0.25041 -0.03400
 C249 C 0.46612 0.25036 -0.03402
 C250 C 0.53405 0.25049 0.03359
 O251 O 0.52634 0.72793 0.02543
 O252 O 0.47533 0.72769 -0.02505
 O253 O 0.52619 0.72764 -0.02510
 O254 O 0.47549 0.72791 0.02548
 O255 O 0.47553 0.77070 0.02524
 O256 O 0.52622 0.77043 -0.02533
 O257 O 0.47537 0.77048 -0.02528
 O258 O 0.52636 0.77072 0.02519
 Cu259 Cu 0.50084 0.72347 0.00021
 Cu260 Cu 0.50087 0.77490 -0.00007
 C261 C 0.53495 0.74937 0.03383
 C262 C 0.46674 0.74905 -0.03368
 C263 C 0.53476 0.74899 -0.03375
 C264 C 0.46696 0.74935 0.03389
 O265 O 0.02506 0.47566 0.27112
 O266 O -0.02570 0.52610 0.27095
 O267 O -0.02575 0.47573 0.27129
 O268 O 0.02511 0.52602 0.27079
 O269 O 0.02494 0.52577 0.22788
 O270 O -0.02592 0.47547 0.22838
 O271 O -0.02587 0.52584 0.22804
 O272 O 0.02489 0.47541 0.22822
 Cu273 Cu -0.00030 0.50090 0.27538
 Cu274 Cu -0.00051 0.50060 0.22379
 C275 C 0.03353 0.46702 0.24970
 C276 C -0.03434 0.53449 0.24947
 C277 C -0.03440 0.46711 0.24992
 C278 C 0.03359 0.53439 0.24926
 O279 O 0.02521 0.52542 0.72883
 O280 O -0.02570 0.47508 0.72872
 O281 O -0.02561 0.52544 0.72863
 O282 O 0.02511 0.47505 0.72888
 O283 O 0.02499 0.47508 0.77179
 O284 O -0.02572 0.52548 0.77154
 O285 O -0.02582 0.47512 0.77162
 O286 O 0.02510 0.52546 0.77173
 Cu287 Cu -0.00023 0.50025 0.72442
 Cu288 Cu -0.00037 0.50029 0.77601
 C289 C 0.03374 0.53395 0.75030
 C290 C -0.03434 0.46659 0.75015
 C291 C -0.03422 0.53396 0.75004
 C292 C 0.03358 0.46654 0.75037
 C293 C 0.40963 0.25037 0.08972
 C294 C 0.38998 0.26964 0.08968
 C295 C 0.37044 0.26963 0.10928
 C296 C 0.37066 0.25034 0.12879
 C297 C 0.39028 0.23104 0.12881
 C298 C 0.40982 0.23106 0.10922
 C299 C 0.42923 0.21158 0.10966
 C300 C 0.42934 0.19262 0.12889
 C301 C 0.41025 0.19260 0.14803
 C302 C 0.39090 0.21154 0.14809
 C303 C 0.35102 0.28910 0.10883
 C304 C 0.35089 0.30804 0.08958
 C305 C 0.36997 0.30805 0.07043
 C306 C 0.38934 0.28912 0.07038
 C307 C 0.35073 0.25033 0.14885
 C308 C 0.33424 0.25028 0.16553
 C309 C 0.42963 0.25042 0.06975
 C310 C 0.44626 0.25044 0.05319
 H311 H 0.44450 0.21078 0.09519
 H312 H 0.44433 0.17786 0.12893
 H313 H 0.41042 0.17782 0.16292
 H314 H 0.37646 0.21071 0.16339
 H315 H 0.33576 0.28990 0.12332
 H316 H 0.33589 0.32279 0.08954
 H317 H 0.36978 0.32281 0.05552
 H318 H 0.40376 0.28994 0.05507
 C319 C 0.59148 0.74977 0.09004
 C320 C 0.59052 0.76834 0.11022
 C321 C 0.61012 0.76850 0.12977
 C322 C 0.63058 0.75009 0.12905
 C323 C 0.63155 0.73153 0.10888
 C324 C 0.61195 0.73138 0.08931
 C325 C 0.61336 0.71265 0.06934
 C326 C 0.63354 0.69458 0.06871
 C327 C 0.65268 0.69472 0.08784
 C328 C 0.65180 0.71294 0.10774
 C329 C 0.60873 0.78725 0.14973
 C330 C 0.58857 0.80533 0.15035
 C331 C 0.56941 0.80518 0.13124
 C332 C 0.57027 0.78694 0.11136
 C333 C 0.65061 0.75027 0.14904
 C334 C 0.66721 0.75045 0.16564
 C335 C 0.57143 0.74960 0.07007
 C336 C 0.55478 0.74948 0.05351
 H337 H 0.59893 0.71176 0.05403
 H338 H 0.63432 0.68040 0.05329
 H339 H 0.66831 0.68064 0.08726
 H340 H 0.66713 0.71227 0.12217
 H341 H 0.62318 0.78815 0.16503
 H342 H 0.58781 0.81954 0.16575
 H343 H 0.55379 0.81927 0.13181
 H344 H 0.55492 0.78760 0.09694
 C345 C 0.59056 0.25035 -0.09021
 C346 C 0.61013 0.26973 -0.09027
 C347 C 0.62965 0.26974 -0.10986
 C348 C 0.62953 0.25037 -0.12928
 C349 C 0.60998 0.23098 -0.12921
 C350 C 0.59045 0.23097 -0.10962
 C351 C 0.57112 0.21138 -0.10996
 C352 C 0.57109 0.19235 -0.12910
 C353 C 0.59018 0.19236 -0.14824
 C354 C 0.60945 0.21141 -0.14840
 C355 C 0.64898 0.28933 -0.10952
 C356 C 0.64904 0.30834 -0.09037
 C357 C 0.62996 0.30832 -0.07121
 C358 C 0.61068 0.28928 -0.07106
 C359 C 0.64946 0.25040 -0.14933
 C360 C 0.66597 0.25038 -0.16601
 C361 C 0.57055 0.25038 -0.07023
 C362 C 0.55393 0.25040 -0.05367
 H363 H 0.55587 0.21055 -0.09548
 H364 H 0.55617 0.17751 -0.12906
 H365 H 0.59007 0.17754 -0.16307
 H366 H 0.62388 0.21060 -0.16370
 H367 H 0.66423 0.29016 -0.12402
 H368 H 0.66397 0.32317 -0.09040
 H369 H 0.63009 0.32313 -0.05637
 H370 H 0.59626 0.29008 -0.05575
 C371 C 0.41014 0.74896 -0.08982
 C372 C 0.41025 0.76828 -0.10931
 C373 C 0.39064 0.76827 -0.12886
 C374 C 0.37103 0.74895 -0.12881
 C375 C 0.37090 0.72964 -0.10931
 C376 C 0.39051 0.72965 -0.08975
 C377 C 0.38996 0.71016 -0.07046
 C378 C 0.37061 0.69120 -0.07048
 C379 C 0.35146 0.69118 -0.08960
 C380 C 0.35150 0.71013 -0.10884
 C381 C 0.39116 0.78779 -0.14813
 C382 C 0.41050 0.80677 -0.14810
 C383 C 0.42967 0.80677 -0.12900
 C384 C 0.42964 0.78780 -0.10978
 C385 C 0.35102 0.74893 -0.14883
 C386 C 0.33446 0.74897 -0.16548
 C387 C 0.43021 0.74895 -0.06987
 C388 C 0.44689 0.74897 -0.05333
 H389 H 0.40444 0.70936 -0.05518
 H390 H 0.37049 0.67643 -0.05558
 H391 H 0.33648 0.67640 -0.08953
 H392 H 0.33619 0.70931 -0.12329
 H393 H 0.37667 0.78861 -0.16340
 H394 H 0.41061 0.82155 -0.16298
 H395 H 0.44465 0.82155 -0.12906
 H396 H 0.44496 0.78862 -0.09533
 C397 C 0.08973 0.41079 0.24992
 C398 C 0.08239 0.38439 0.25111
 C399 C 0.10189 0.36483 0.25124
 C400 C 0.12863 0.37176 0.25018
 C401 C 0.13597 0.39816 0.24897
 C402 C 0.11646 0.41773 0.24885
 C403 C 0.12427 0.44398 0.24766
 C404 C 0.15060 0.45072 0.24661
 C405 C 0.16967 0.43160 0.24672
 C406 C 0.16255 0.40559 0.24788
 C407 C 0.09406 0.33859 0.25245
 C408 C 0.06773 0.33186 0.25350
 C409 C 0.04866 0.35099 0.25336
 C410 C 0.05579 0.37698 0.25218
 C411 C 0.14857 0.35177 0.25037
 C412 C 0.16510 0.33516 0.25055
 C413 C 0.06981 0.43077 0.24983
 C414 C 0.05325 0.44734 0.24977
 H415 H 0.11016 0.45956 0.24752
 H416 H 0.15622 0.47090 0.24571
 H417 H 0.19009 0.43693 0.24590
 H418 H 0.17810 0.39142 0.24792
 H419 H 0.10817 0.32301 0.25261
 H420 H 0.06209 0.31170 0.25442
 H421 H 0.02823 0.34567 0.25417
 H422 H 0.04025 0.39116 0.25212
 C423 C 0.09014 0.59004 0.75035
 C424 C 0.11684 0.58299 0.75146
 C425 C 0.13644 0.60248 0.75137
 C426 C 0.12924 0.62891 0.75016
 C427 C 0.10253 0.63595 0.74909
 C428 C 0.08293 0.61646 0.74919
 C429 C 0.05637 0.62397 0.74812
 C430 C 0.04937 0.65000 0.74698
 C431 C 0.06853 0.66905 0.74687
 C432 C 0.09483 0.66222 0.74791
 C433 C 0.16299 0.59496 0.75250
 C434 C 0.16998 0.56893 0.75368
 C435 C 0.15082 0.54987 0.75376
 C436 C 0.12452 0.55671 0.75266
 C437 C 0.14927 0.64884 0.74997
 C438 C 0.16587 0.66539 0.74978
 C439 C 0.07013 0.57012 0.75035
 C440 C 0.05351 0.55359 0.75034
 H441 H 0.04076 0.60986 0.74816
 H442 H 0.02896 0.65540 0.74618
 H443 H 0.06299 0.68924 0.74599
 H444 H 0.10901 0.67775 0.74778
 H445 H 0.17860 0.60907 0.75250
 H446 H 0.19038 0.56351 0.75454
 H447 H 0.15634 0.52968 0.75468
 H448 H 0.11034 0.54119 0.75278
 C449 C -0.09044 0.59082 0.24935
 C450 C -0.08304 0.61720 0.25027
 C451 C -0.10251 0.63681 0.25031
 C452 C -0.12927 0.62991 0.24941
 C453 C -0.13666 0.60352 0.24845
 C454 C -0.11719 0.58392 0.24842
 C455 C -0.12506 0.55767 0.24747
 C456 C -0.15140 0.55098 0.24656
 C457 C -0.17043 0.57014 0.24658
 C458 C -0.16326 0.59614 0.24751
 C459 C -0.09462 0.66304 0.25127
 C460 C -0.06827 0.66972 0.25214
 C461 C -0.04924 0.65056 0.25209
 C462 C -0.05643 0.62457 0.25117
 C463 C -0.14915 0.64995 0.24950
 C464 C -0.16563 0.66662 0.24960
 C465 C -0.07056 0.57079 0.24937
 C466 C -0.05403 0.55419 0.24941
 H467 H -0.11098 0.54207 0.24741
 H468 H -0.15707 0.53081 0.24584
 H469 H -0.19087 0.56484 0.24587
 H470 H -0.17878 0.61034 0.24748
 H471 H -0.10870 0.67865 0.25134
 H472 H -0.06259 0.68989 0.25286
 H473 H -0.02879 0.65585 0.25277
 H474 H -0.04091 0.61037 0.25117
 C475 C -0.09063 0.41039 0.74996
 C476 C -0.11735 0.41733 0.75098
 C477 C -0.13688 0.39776 0.75080
 C478 C -0.12957 0.37137 0.74960
 C479 C -0.10283 0.36443 0.74860
 C480 C -0.08331 0.38400 0.74879
 C481 C -0.05672 0.37659 0.74780
 C482 C -0.04961 0.35059 0.74663
 C483 C -0.06870 0.33147 0.74642
 C484 C -0.09503 0.33819 0.74739
 C485 C -0.16346 0.40519 0.75183
 C486 C -0.17055 0.43119 0.75300
 C487 C -0.15146 0.45032 0.75318
 C488 C -0.12514 0.44358 0.75219
 C489 C -0.14952 0.35137 0.74936
 C490 C -0.16605 0.33474 0.74914
 C491 C -0.07068 0.43038 0.75005
 C492 C -0.05410 0.44694 0.75011
 H493 H -0.04116 0.39075 0.74792
 H494 H -0.02918 0.34527 0.74588
 H495 H -0.06308 0.31130 0.74551
 H496 H -0.10915 0.32261 0.74719
 H497 H -0.17902 0.39102 0.75174
 H498 H -0.19097 0.43652 0.75377
 H499 H -0.15707 0.47049 0.75409
 H500 H -0.11101 0.45915 0.75238
 C501 C 0.24903 0.08967 0.41045
 C502 C 0.25022 0.08263 0.38393
 C503 C 0.25028 0.10213 0.36446
 C504 C 0.24913 0.12856 0.37162
 C505 C 0.24794 0.13559 0.39815
 C506 C 0.24789 0.11609 0.41762
 C507 C 0.24669 0.12359 0.44400
 C508 C 0.24557 0.14961 0.45096
 C509 C 0.24561 0.16868 0.43193
 C510 C 0.24678 0.16186 0.40580
 C511 C 0.25150 0.09461 0.33809
 C512 C 0.25262 0.06858 0.33114
 C513 C 0.25255 0.04952 0.35017
 C514 C 0.25137 0.05635 0.37629
 C515 C 0.24916 0.14849 0.35172
 C516 C 0.24920 0.16503 0.33521
 C517 C 0.24897 0.06974 0.43033
 C518 C 0.24894 0.05320 0.44683
 H519 H 0.24661 0.10948 0.45951
 H520 H 0.24466 0.15501 0.47123
 H521 H 0.24473 0.18887 0.43744
 H522 H 0.24676 0.17739 0.39172
 H523 H 0.25161 0.10873 0.32258
 H524 H 0.25354 0.06317 0.31088
 H525 H 0.25341 0.02932 0.34468
 H526 H 0.25137 0.04082 0.39038
 C527 C 0.75168 0.08958 0.58984
 C528 C 0.75080 0.08266 0.61641
 C529 C 0.75083 0.10225 0.63577
 C530 C 0.75174 0.12865 0.62845
 C531 C 0.75267 0.13557 0.60188
 C532 C 0.75263 0.11598 0.58252
 C533 C 0.75354 0.12337 0.55608
 C534 C 0.75448 0.14937 0.54897
 C535 C 0.75453 0.16852 0.56789
 C536 C 0.75364 0.16181 0.59407
 C537 C 0.74992 0.09484 0.66220
 C538 C 0.74903 0.06883 0.66930
 C539 C 0.74900 0.04969 0.65037
 C540 C 0.74987 0.05641 0.62420
 C541 C 0.75169 0.14867 0.64824
 C542 C 0.75160 0.16526 0.66469
 C543 C 0.75161 0.06958 0.57005
 C544 C 0.75154 0.05303 0.55358
 H545 H 0.75355 0.10919 0.54065
 H546 H 0.75517 0.15467 0.52866
 H547 H 0.75527 0.18868 0.56226
 H548 H 0.75372 0.17740 0.60807
 H549 H 0.74990 0.10902 0.67763
 H550 H 0.74835 0.06351 0.68960
 H551 H 0.74831 0.02951 0.65599
 H552 H 0.74982 0.04082 0.61020
 C553 C 0.24885 -0.09018 0.58988
 C554 C 0.24788 -0.11659 0.58265
 C555 C 0.24793 -0.13613 0.60208
 C556 C 0.24894 -0.12915 0.62863
 C557 C 0.24991 -0.10272 0.63585
 C558 C 0.24985 -0.08319 0.61642
 C559 C 0.25081 -0.05691 0.62412
 C560 C 0.25182 -0.05013 0.65026
 C561 C 0.25189 -0.06923 0.66925
 C562 C 0.25095 -0.09525 0.66225
 C563 C 0.24696 -0.16239 0.59437
 C564 C 0.24597 -0.16916 0.56822
 C565 C 0.24593 -0.15007 0.54923
 C566 C 0.24687 -0.12405 0.55625
 C567 C 0.24899 -0.14911 0.64850
 C568 C 0.24903 -0.16566 0.66500
 C569 C 0.24883 -0.07022 0.57003
 C570 C 0.24883 -0.05367 0.55353
 H571 H 0.25080 -0.04136 0.61006
 H572 H 0.25255 -0.02994 0.65580
 H573 H 0.25268 -0.06386 0.68953
 H574 H 0.25105 -0.10939 0.67773
 H575 H 0.24695 -0.17795 0.60842
 H576 H 0.24524 -0.18935 0.56267
 H577 H 0.24516 -0.15542 0.52894
 H578 H 0.24679 -0.10990 0.54077
 C579 C 0.75103 -0.08991 0.41023
 C580 C 0.75199 -0.11636 0.41732
 C581 C 0.75197 -0.13578 0.39779
 C582 C 0.75098 -0.12862 0.37127
 C583 C 0.75001 -0.10216 0.36419
 C584 C 0.75004 -0.08275 0.38373
 C585 C 0.74907 -0.05643 0.37617
 C586 C 0.74810 -0.04947 0.35007
 C587 C 0.74807 -0.06845 0.33097
 C588 C 0.74901 -0.09451 0.33784
 C589 C 0.75296 -0.16209 0.40536
 C590 C 0.75392 -0.16903 0.43147
 C591 C 0.75392 -0.15005 0.45057
 C592 C 0.75297 -0.12399 0.44369
 C593 C 0.75095 -0.14846 0.35130
 C594 C 0.75094 -0.16492 0.33473
 C595 C 0.75107 -0.07007 0.43018
 C596 C 0.75112 -0.05358 0.44672
 H597 H 0.74905 -0.04096 0.39031
 H598 H 0.74737 -0.02925 0.34464
 H599 H 0.74731 -0.06295 0.31072
 H600 H 0.74895 -0.10856 0.32228
 H601 H 0.75300 -0.17756 0.39122
 H602 H 0.75466 -0.18925 0.43692
 H603 H 0.75466 -0.15554 0.47083
 H604 H 0.75302 -0.10994 0.45924
 C605 C 0.59093 0.74886 -0.09008
 C606 C 0.59059 0.76808 -0.10966
 C607 C 0.61005 0.76806 -0.12931
 C608 C 0.62973 0.74882 -0.12924
 C609 C 0.63008 0.72962 -0.10965
 C610 C 0.61062 0.72964 -0.09000
 C611 C 0.61138 0.71025 -0.07061
 C612 C 0.63079 0.69137 -0.07063
 C613 C 0.64981 0.69134 -0.08985
 C614 C 0.64956 0.71020 -0.10918
 C615 C 0.60931 0.78746 -0.14869
 C616 C 0.58989 0.80634 -0.14867
 C617 C 0.57086 0.80635 -0.12946
 C618 C 0.57111 0.78749 -0.11013
 C619 C 0.64957 0.74880 -0.14933
 C620 C 0.66601 0.74884 -0.16604
 C621 C 0.57103 0.74886 -0.07005
 C622 C 0.55447 0.74890 -0.05345
 H623 H 0.59701 0.70947 -0.05524
 H624 H 0.63107 0.67668 -0.05566
 H625 H 0.66484 0.67663 -0.08979
 H626 H 0.66477 0.70938 -0.12372
 H627 H 0.62369 0.78827 -0.16404
 H628 H 0.58962 0.82103 -0.16364
 H629 H 0.55581 0.82106 -0.12953
 H630 H 0.55589 0.78832 -0.09561
 C631 C 0.40964 0.25008 -0.09012
 C632 C 0.38966 0.26901 -0.08980
 C633 C 0.37001 0.26884 -0.10929
 C634 C 0.37045 0.24974 -0.12896
 C635 C 0.39045 0.23083 -0.12930
 C636 C 0.41010 0.23100 -0.10982
 C637 C 0.42988 0.21190 -0.11054
 C638 C 0.43024 0.19316 -0.12997
 C639 C 0.41103 0.19300 -0.14902
 C640 C 0.39131 0.21156 -0.14879
 C641 C 0.35024 0.28796 -0.10858
 C642 C 0.34989 0.30671 -0.08916
 C643 C 0.36909 0.30686 -0.07010
 C644 C 0.38880 0.28827 -0.07031
 C645 C 0.35033 0.24950 -0.14881
 C646 C 0.33364 0.24925 -0.16529
 C647 C 0.42968 0.25023 -0.07021
 C648 C 0.44633 0.25031 -0.05368
 H649 H 0.44525 0.21122 -0.09614
 H650 H 0.44551 0.17869 -0.13023
 H651 H 0.41139 0.17840 -0.16407
 H652 H 0.37680 0.21064 -0.16403
 H653 H 0.33488 0.28865 -0.12299
 H654 H 0.33463 0.32119 -0.08892
 H655 H 0.36873 0.32145 -0.05505
 H656 H 0.40330 0.28919 -0.05507
 C657 C 0.41068 0.74975 0.09011
 C658 C 0.41124 0.76886 0.10978
 C659 C 0.39165 0.76907 0.12930
 C660 C 0.37165 0.75015 0.12904
 C661 C 0.37110 0.73103 0.10938
 C662 C 0.39068 0.73083 0.08986
 C663 C 0.38973 0.71152 0.07041
 C664 C 0.37000 0.69295 0.07025
 C665 C 0.35085 0.69315 0.08934
 C666 C 0.35129 0.71192 0.10873
 C667 C 0.39259 0.78837 0.14874
 C668 C 0.41233 0.80694 0.14891
 C669 C 0.43149 0.80672 0.12984
 C670 C 0.43105 0.78795 0.11045
 C671 C 0.35167 0.75034 0.14899
 C672 C 0.33509 0.75050 0.16556
 C673 C 0.43065 0.74957 0.07015
 C674 C 0.44724 0.74946 0.05358
 H675 H 0.40419 0.71057 0.05514
 H676 H 0.36957 0.67833 0.05523
 H677 H 0.33556 0.67868 0.08913
 H678 H 0.33597 0.71128 0.12315
 H679 H 0.37812 0.78934 0.16399
 H680 H 0.41275 0.82157 0.16392
 H681 H 0.44679 0.82119 0.13005
 H682 H 0.44638 0.78859 0.09603
 C683 C 0.59020 0.25042 0.09001
 C684 C 0.60984 0.26972 0.09011
 C685 C 0.62928 0.26967 0.10980
 C686 C 0.62898 0.25032 0.12925
 C687 C 0.60936 0.23100 0.12913
 C688 C 0.58991 0.23106 0.10945
 C689 C 0.57048 0.21156 0.10974
 C690 C 0.57029 0.19256 0.12892
 C691 C 0.58932 0.19250 0.14816
 C692 C 0.60868 0.21145 0.14836
 C693 C 0.64871 0.28916 0.10952
 C694 C 0.64891 0.30816 0.09033
 C695 C 0.62990 0.30821 0.07108
 C696 C 0.61054 0.28926 0.07087
 C697 C 0.64879 0.25030 0.14939
 C698 C 0.66521 0.25027 0.16615
 C699 C 0.57031 0.25049 0.06994
 C700 C 0.55376 0.25051 0.05331
 H701 H 0.55527 0.21079 0.09518
 H702 H 0.55529 0.17779 0.12885
 H703 H 0.58909 0.17769 0.16301
 H704 H 0.62306 0.21059 0.16373
 H705 H 0.66391 0.28994 0.12408
 H706 H 0.66391 0.32293 0.09040
 H707 H 0.63014 0.32301 0.05621
 H708 H 0.59617 0.29010 0.05549
 C709 C -0.09048 0.59001 0.74974
 C710 C -0.08320 0.61642 0.74857
 C711 C -0.10275 0.63592 0.74840
 C712 C -0.12946 0.62889 0.74942
 C713 C -0.13674 0.60248 0.75063
 C714 C -0.11719 0.58298 0.75078
 C715 C -0.12492 0.55670 0.75198
 C716 C -0.15123 0.54989 0.75302
 C717 C -0.17035 0.56896 0.75289
 C718 C -0.16331 0.59498 0.75171
 C719 C -0.09500 0.66219 0.74722
 C720 C -0.06868 0.66899 0.74623
 C721 C -0.04956 0.64992 0.74640
 C722 C -0.05662 0.62390 0.74755
 C723 C -0.14944 0.64881 0.74917
 C724 C -0.16601 0.66535 0.74895
 C725 C -0.07052 0.57011 0.74985
 C726 C -0.05394 0.55358 0.74994
 H727 H -0.11076 0.54117 0.75214
 H728 H -0.15679 0.52970 0.75394
 H729 H -0.19076 0.56357 0.75370
 H730 H -0.17889 0.60911 0.75166
 H731 H -0.10915 0.67772 0.74704
 H732 H -0.06310 0.68917 0.74534
 H733 H -0.02914 0.65529 0.74563
 H734 H -0.04104 0.60977 0.74763
 C735 C -0.09062 0.41097 0.25051
 C736 C -0.11734 0.41794 0.24955
 C737 C -0.13686 0.39838 0.24975
 C738 C -0.12953 0.37199 0.25094
 C739 C -0.10281 0.36503 0.25189
 C740 C -0.08329 0.38459 0.25168
 C741 C -0.05669 0.37717 0.25264
 C742 C -0.04958 0.35118 0.25379
 C743 C -0.06867 0.33206 0.25399
 C744 C -0.09500 0.33879 0.25306
 C745 C -0.16344 0.40581 0.24875
 C746 C -0.17054 0.43182 0.24761
 C747 C -0.15145 0.45094 0.24743
 C748 C -0.12512 0.44419 0.24838
 C749 C -0.14947 0.35202 0.25120
 C750 C -0.16601 0.33544 0.25143
 C751 C -0.07070 0.43093 0.25029
 C752 C -0.05413 0.44748 0.25012
 H753 H -0.04113 0.39134 0.25253
 H754 H -0.02915 0.34586 0.25452
 H755 H -0.06305 0.31189 0.25488
 H756 H -0.10913 0.32321 0.25326
 H757 H -0.17901 0.39164 0.24884
 H758 H -0.19096 0.43715 0.24685
 H759 H -0.15705 0.47111 0.24655
 H760 H -0.11100 0.45976 0.24820
 C761 C 0.08949 0.41013 0.75050
 C762 C 0.08198 0.38379 0.74935
 C763 C 0.10136 0.36412 0.74926
 C764 C 0.12813 0.37092 0.75036
 C765 C 0.13563 0.39727 0.75154
 C766 C 0.11625 0.41694 0.75161
 C767 C 0.12421 0.44315 0.75280
 C768 C 0.15057 0.44974 0.75388
 C769 C 0.16953 0.43051 0.75381
 C770 C 0.16226 0.40454 0.75265
 C771 C 0.09338 0.33792 0.74807
 C772 C 0.06701 0.33134 0.74702
 C773 C 0.04805 0.35058 0.74712
 C774 C 0.05534 0.37653 0.74827
 C775 C 0.14792 0.35082 0.75028
 C776 C 0.16430 0.33410 0.75020
 C777 C 0.06970 0.43021 0.75050
 C778 C 0.05322 0.44684 0.75046
 H779 H 0.11018 0.45880 0.75291
 H780 H 0.15631 0.46988 0.75478
 H781 H 0.18998 0.43572 0.75465
 H782 H 0.17772 0.39028 0.75264
 H783 H 0.10740 0.32226 0.74794
 H784 H 0.06125 0.31121 0.74612
 H785 H 0.02759 0.34537 0.74631
 H786 H 0.03987 0.39079 0.74830
 C787 C 0.08985 0.59049 0.24891
 C788 C 0.11656 0.58349 0.24791
 C789 C 0.13610 0.60303 0.24799
 C790 C 0.12881 0.62943 0.24907
 C791 C 0.10209 0.63642 0.25003
 C792 C 0.08255 0.61689 0.24994
 C793 C 0.05597 0.62433 0.25091
 C794 C 0.04889 0.65034 0.25195
 C795 C 0.06800 0.66944 0.25206
 C796 C 0.09432 0.66268 0.25112
 C797 C 0.16267 0.59557 0.24700
 C798 C 0.16973 0.56955 0.24596
 C799 C 0.15062 0.55045 0.24588
 C800 C 0.12431 0.55723 0.24683
 C801 C 0.14876 0.64938 0.24926
 C802 C 0.16530 0.66597 0.24946
 C803 C 0.06991 0.57055 0.24897
 C804 C 0.05333 0.55401 0.24908
 H805 H 0.04039 0.61018 0.25086
 H806 H 0.02847 0.65568 0.25268
 H807 H 0.06240 0.68962 0.25288
 H808 H 0.10846 0.67824 0.25124
 H809 H 0.17825 0.60972 0.24701
 H810 H 0.19015 0.56419 0.24521
 H811 H 0.15620 0.53026 0.24507
 H812 H 0.11016 0.54167 0.24672
 C813 C 0.75139 -0.09007 0.58979
 C814 C 0.75235 -0.11648 0.58256
 C815 C 0.75232 -0.13599 0.60199
 C816 C 0.75131 -0.12897 0.62853
 C817 C 0.75036 -0.10255 0.63574
 C818 C 0.75040 -0.08304 0.61631
 C819 C 0.74946 -0.05676 0.62398
 C820 C 0.74850 -0.04995 0.65012
 C821 C 0.74845 -0.06903 0.66912
 C822 C 0.74935 -0.09506 0.66214
 C823 C 0.75331 -0.16226 0.59430
 C824 C 0.75431 -0.16905 0.56816
 C825 C 0.75434 -0.14997 0.54915
 C826 C 0.75337 -0.12395 0.55616
 C827 C 0.75125 -0.14890 0.64837
 C828 C 0.75118 -0.16546 0.66483
 C829 C 0.75140 -0.07015 0.56995
 C830 C 0.75140 -0.05362 0.55347
 H831 H 0.74947 -0.04122 0.60991
 H832 H 0.74780 -0.02976 0.65564
 H833 H 0.74770 -0.06365 0.68940
 H834 H 0.74926 -0.10920 0.67763
 H835 H 0.75333 -0.17781 0.60837
 H836 H 0.75507 -0.18924 0.56262
 H837 H 0.75512 -0.15534 0.52887
 H838 H 0.75344 -0.10981 0.54067
 C839 C 0.24936 -0.08962 0.41022
 C840 C 0.24837 -0.11607 0.41731
 C841 C 0.24841 -0.13546 0.39778
 C842 C 0.24946 -0.12827 0.37128
 C843 C 0.25047 -0.10182 0.36420
 C844 C 0.25042 -0.08242 0.38373
 C845 C 0.25143 -0.05610 0.37620
 C846 C 0.25247 -0.04913 0.35010
 C847 C 0.25252 -0.06809 0.33100
 C848 C 0.25154 -0.09416 0.33785
 C849 C 0.24739 -0.16178 0.40533
 C850 C 0.24636 -0.16873 0.43143
 C851 C 0.24633 -0.14977 0.45054
 C852 C 0.24732 -0.12371 0.44367
 C853 C 0.24952 -0.14808 0.35133
 C854 C 0.24957 -0.16455 0.33479
 C855 C 0.24928 -0.06982 0.43016
 C856 C 0.24920 -0.05337 0.44671
 H857 H 0.25144 -0.04064 0.39035
 H858 H 0.25323 -0.02890 0.34468
 H859 H 0.25333 -0.06258 0.31075
 H860 H 0.25163 -0.10820 0.32228
 H861 H 0.24736 -0.17724 0.39118
 H862 H 0.24559 -0.18895 0.43686
 H863 H 0.24554 -0.15527 0.47079
 H864 H 0.24726 -0.10966 0.45923
 C865 C 0.75108 0.08948 0.41048
 C866 C 0.74995 0.08247 0.38395
 C867 C 0.74978 0.10200 0.36453
 C868 C 0.75076 0.12841 0.37177
 C869 C 0.75189 0.13541 0.39831
 C870 C 0.75206 0.11588 0.41772
 C871 C 0.75320 0.12333 0.44413
 C872 C 0.75414 0.14935 0.45115
 C873 C 0.75398 0.16845 0.43216
 C874 C 0.75287 0.16168 0.40601
 C875 C 0.74860 0.09453 0.33814
 C876 C 0.74765 0.06851 0.33113
 C877 C 0.74785 0.04941 0.35012
 C878 C 0.74898 0.05620 0.37626
 C879 C 0.75061 0.14836 0.35194
 C880 C 0.75049 0.16494 0.33549
 C881 C 0.75119 0.06955 0.43031
 C882 C 0.75125 0.05302 0.44679
 H883 H 0.75338 0.10918 0.45960
 H884 H 0.75500 0.15470 0.47143
 H885 H 0.75471 0.18863 0.43771
 H886 H 0.75278 0.17724 0.39196
 H887 H 0.74841 0.10868 0.32266
 H888 H 0.74676 0.06314 0.31085
 H889 H 0.74711 0.02922 0.34458
 H890 H 0.74909 0.04064 0.39031
 C891 C 0.24826 0.08922 0.59004
 C892 C 0.24919 0.08210 0.61655
 C893 C 0.24911 0.10155 0.63604
 C894 C 0.24810 0.12799 0.62888
 C895 C 0.24711 0.13510 0.60236
 C896 C 0.24720 0.11565 0.58288
 C897 C 0.24622 0.12321 0.55649
 C898 C 0.24518 0.14925 0.54955
 C899 C 0.24508 0.16827 0.56860
 C900 C 0.24604 0.16139 0.59473
 C901 C 0.25006 0.09397 0.66241
 C902 C 0.25105 0.06792 0.66934
 C903 C 0.25112 0.04890 0.65029
 C904 C 0.25020 0.05580 0.62417
 C905 C 0.24810 0.14784 0.64878
 C906 C 0.24813 0.16432 0.66531
 C907 C 0.24840 0.06938 0.57015
 C908 C 0.24852 0.05291 0.55363
 H909 H 0.24625 0.10913 0.54096
 H910 H 0.24444 0.15469 0.52927
 H911 H 0.24426 0.18847 0.56311
 H912 H 0.24592 0.17688 0.60884
 H913 H 0.25005 0.10805 0.67794
 H914 H 0.25176 0.06246 0.68961
 H915 H 0.25188 0.02869 0.65577
 H916 H 0.25030 0.04030 0.61006
   
