data_POSCAR
  _audit_creation_date              2014-09-24
  _audit_creation_method            'ToBaCCo'
  _symmetry_space_group_name_H-M    'P1'
  _symmetry_Int_Tables_number       1
  _symmetry_cell_setting            triclinic
  loop_
  _symmetry_equiv_pos_as_xyz
 x,y,z
_cell_length_a 51.9276
_cell_length_b 50.1615
_cell_length_c 20.0436
_cell_angle_alpha 90.498800
_cell_angle_beta 89.430000
_cell_angle_gamma 120.275400
loop_
  _atom_site_label
  _atom_site_type_symbol
  _atom_site_fract_x
  _atom_site_fract_y
  _atom_site_fract_z
C1 C 0.17416 0.49700 0.52511
 C2 C 0.19286 0.50838 0.46853
 C3 C 0.22118 0.51127 0.47115
 C4 C 0.22996 0.50057 0.52649
 C5 C 0.21030 0.48845 0.58148
 C6 C 0.18243 0.48663 0.58156
 C7 C 0.25878 0.50044 0.52547
 C8 C 0.27348 0.50170 0.58531
 C9 C 0.29883 0.49856 0.58488
 C10 C 0.31094 0.49633 0.52355
 C11 C 0.29732 0.49605 0.46324
 C12 C 0.27118 0.49769 0.46463
 H13 H 0.15403 0.49815 0.52720
 H14 H 0.23616 0.52140 0.42903
 H15 H 0.21605 0.47929 0.62383
 H16 H 0.26516 0.50473 0.63278
 H17 H 0.33161 0.49597 0.52270
 H18 H 0.26027 0.49597 0.41778
 C19 C 0.57710 -0.28692 0.50941
 C20 C 0.57988 -0.27350 0.44635
 C21 C 0.57548 -0.24820 0.44155
 C22 C 0.56690 -0.23716 0.49745
 C23 C 0.56301 -0.25196 0.55927
 C24 C 0.56891 -0.27622 0.56642
 C25 C 0.56212 -0.21023 0.49103
 C26 C 0.56741 -0.19001 0.54541
 C27 C 0.56389 -0.16421 0.53888
 C28 C 0.55569 -0.15814 0.47685
 C29 C 0.55071 -0.17760 0.42201
 C30 C 0.55286 -0.20409 0.42990
 H31 H 0.57846 -0.30756 0.51309
 H32 H 0.57894 -0.23706 0.39363
 H33 H 0.55526 -0.24472 0.60229
 H34 H 0.57478 -0.19381 0.59284
 H35 H 0.55194 -0.13892 0.47146
 H36 H 0.54759 -0.21959 0.38777
 C37 C 1.29483 0.84279 0.51572
 C38 C 1.28852 0.83167 0.44993
 C39 C 1.26346 0.80220 0.43809
 C40 C 1.24470 0.78448 0.49142
 C41 C 1.25181 0.79669 0.55679
 C42 C 1.27695 0.82542 0.56924
 C43 C 1.21769 0.75337 0.47993
 C44 C 1.20702 0.73097 0.53084
 C45 C 1.17960 0.70336 0.52533
 C46 C 1.16412 0.69677 0.46465
 C47 C 1.17515 0.71785 0.41156
 C48 C 1.20163 0.74619 0.41977
 H49 H 1.31478 0.86473 0.52581
 H50 H 1.25880 0.79274 0.38822
 H51 H 1.23776 0.78418 0.59878
 H52 H 1.21969 0.73526 0.57621
 H53 H 1.14432 0.67459 0.45680
 H54 H 1.20914 0.76273 0.37952
 C55 C 0.82284 0.52147 0.54342
 C56 C 0.81241 0.51807 0.47783
 C57 C 0.78609 0.51866 0.46633
 C58 C 0.77111 0.52471 0.51834
 C59 C 0.78236 0.52836 0.58364
 C60 C 0.80782 0.52639 0.59635
 C61 C 0.74433 0.52774 0.50401
 C62 C 0.72282 0.52248 0.55410
 C63 C 0.69793 0.52572 0.54026
 C64 C 0.69427 0.53322 0.47518
 C65 C 0.71498 0.53816 0.42478
 C66 C 0.74002 0.53589 0.43948
 H67 H 0.84196 0.51918 0.55443
 H68 H 0.77743 0.51424 0.41614
 H69 H 0.77199 0.53345 0.62501
 H70 H 0.72490 0.51483 0.60279
 H71 H 0.67459 0.53444 0.46299
 H72 H 0.75612 0.54093 0.39997
 C73 C 0.43591 0.28325 0.51991
 C74 C 0.43095 0.26808 0.45812
 C75 C 0.43081 0.24014 0.45480
 C76 C 0.43795 0.22823 0.51066
 C77 C 0.44383 0.24446 0.57167
 C78 C 0.44152 0.27116 0.57769
 C79 C 0.43931 0.19910 0.50441
 C80 C 0.43427 0.17973 0.55987
 C81 C 0.43433 0.15177 0.55282
 C82 C 0.43859 0.14292 0.48864
 C83 C 0.44373 0.16179 0.43330
 C84 C 0.44529 0.19019 0.44188
 H85 H 0.43741 0.30547 0.52203
 H86 H 0.42531 0.22798 0.40759
 H87 H 0.45005 0.23634 0.61506
 H88 H 0.42967 0.18585 0.60860
 H89 H 0.44020 0.12245 0.48133
 H90 H 0.45109 0.20511 0.39897
 C91 C 0.69985 0.17253 0.50571
 C92 C 0.70990 0.18449 0.44163
 C93 C 0.73845 0.21016 0.43399
 C94 C 0.75814 0.22266 0.48836
 C95 C 0.74752 0.21060 0.55253
 C96 C 0.71840 0.18565 0.56142
 C97 C 0.78989 0.24709 0.47635
 C98 C 0.80644 0.27043 0.52388
 C99 C 0.83602 0.29406 0.50958
 C100 C 0.84841 0.29401 0.44699
 C101 C 0.83228 0.27102 0.39954
 C102 C 0.80356 0.24745 0.41508
 H103 H 0.67724 0.15370 0.51273
 H104 H 0.74544 0.21992 0.38464
 H105 H 0.76203 0.21976 0.59534
 H106 H 0.79575 0.27064 0.57016
 H107 H 0.87042 0.31283 0.43405
 H108 H 0.79180 0.22953 0.37818
 O109 O 0.97298 0.53042 -0.08296
 O110 O 1.02270 0.52998 0.12817
 O111 O 0.94475 0.49678 0.08349
 O112 O 1.05980 0.54401 -0.07301
 O113 O 0.97223 0.48740 0.14804
 O114 O 1.02374 0.55054 -0.08231
 O115 O 1.04242 0.55548 0.03774
 O116 O 0.93371 0.49293 -0.03808
 C117 C 0.94615 0.51779 -0.06936
 C118 C 1.03651 0.55530 0.09826
 C119 C 0.95407 0.49667 0.14022
 C120 C 1.04938 0.55840 -0.10018
 O121 O 1.01676 0.49471 -0.12815
 O122 O 0.98686 0.44897 0.08495
 O123 O 0.93695 0.44317 -0.04672
 O124 O 1.07419 0.53025 0.04030
 O125 O 1.03674 0.48857 0.07557
 O126 O 0.96202 0.47481 -0.12873
 O127 O 1.03927 0.48865 -0.04300
 O128 O 0.94290 0.44258 0.07583
 Co129 Co 0.99416 0.51151 -0.09721
 Co130 Co 1.00383 0.48966 0.10069
 Co131 Co 0.94469 0.47170 0.01772
 Co132 Co 1.03918 0.52097 -0.00021
 O133 O 0.99317 0.49819 0.00260
 C134 C 1.03165 0.48360 -0.10314
 C135 C 0.95951 0.43158 0.08575
 C136 C 0.94229 0.44842 -0.10765
 C137 C 1.06355 0.50886 0.08503
 O138 O 0.46843 0.45266 -0.08593
 O139 O 0.45956 0.48046 0.13578
 O140 O 0.48580 0.43932 0.07541
 O141 O 0.44410 0.49684 -0.02729
 O142 O 0.49930 0.46961 0.15695
 O143 O 0.46785 0.49905 -0.11474
 O144 O 0.45374 0.51445 0.08410
 O145 O 0.49784 0.44051 -0.03837
 C146 C 0.47479 0.43275 -0.07198
 C147 C 0.44372 0.49164 0.12280
 C148 C 0.48409 0.44296 0.13571
 C149 C 0.44363 0.49120 -0.08728
 O150 O 0.52674 0.53186 -0.10325
 O151 O 0.53935 0.52782 0.12872
 O152 O 0.55146 0.49555 -0.01546
 O153 O 0.51076 0.56130 0.04354
 O154 O 0.49983 0.54011 0.13699
 O155 O 0.52742 0.48360 -0.10470
 O156 O 0.49762 0.54797 -0.06813
 O157 O 0.54379 0.48922 0.09867
 Co158 Co 0.49770 0.49241 -0.08955
 Co159 Co 0.49941 0.50383 0.12764
 Co160 Co 0.51767 0.46900 0.02916
 Co161 Co 0.47853 0.52718 0.00923
 O162 O 0.49829 0.49806 0.01910
 C163 C 0.52066 0.55278 -0.09961
 C164 C 0.55518 0.51606 0.12236
 C165 C 0.55181 0.49426 -0.07654
 C166 C 0.51460 0.56389 0.10406
 O167 O 0.54448 0.01425 -0.12099
 O168 O 0.52167 -0.02265 0.10058
 O169 O 0.55506 0.04715 0.04306
 O170 O 0.50907 -0.05462 -0.05960
 O171 O 0.52602 0.02669 0.12459
 O172 O 0.50293 -0.03645 -0.14783
 O173 O 0.49146 -0.06461 0.05009
 O174 O 0.55202 0.05591 -0.07191
 C175 C 0.56169 0.04164 -0.10637
 C176 C 0.51397 -0.04962 0.08620
 C177 C 0.55189 0.04156 0.10324
 C178 C 0.51411 -0.05004 -0.11959
 O179 O 0.46586 -0.01433 -0.13429
 O180 O 0.46868 0.00344 0.09810
 O181 O 0.49615 0.04986 -0.04723
 O182 O 0.44256 -0.05911 0.01079
 O183 O 0.46249 -0.04790 0.10489
 O184 O 0.50883 0.03739 -0.13636
 O185 O 0.45556 -0.05902 -0.10052
 O186 O 0.50281 0.04885 0.06743
 Co187 Co 0.50495 -0.00036 -0.12280
 Co188 Co 0.49526 -0.00965 0.09458
 Co189 Co 0.52417 0.04537 -0.00331
 Co190 Co 0.47702 -0.05436 -0.02381
 O191 O 0.50037 -0.00474 -0.01389
 C192 C 0.44757 -0.04213 -0.12867
 C193 C 0.47771 0.03144 0.09370
 C194 C 0.49504 0.04858 -0.10833
 C195 C 0.43934 -0.06024 0.07154
 C196 C 1.18391 0.51653 0.40940
 C197 C 1.15424 0.50772 0.39602
 C198 C 1.14390 0.51351 0.33277
 N199 N 1.11424 0.49814 0.32073
 N200 N 1.10368 0.50237 0.26421
 C201 C 1.12231 0.52228 0.21731
 N202 N 1.15210 0.53808 0.22950
 N203 N 1.16276 0.53367 0.28622
 C204 C 1.10990 0.52658 0.15505
 C205 C 1.08067 0.50503 0.13786
 H206 H 1.13665 0.49321 0.43041
 H207 H 1.12311 0.54668 0.12430
 H208 H 1.20025 0.52800 0.37005
 H209 H 1.06846 0.48444 0.16789
 C210 C 0.58414 0.71360 0.38738
 C211 C 0.59187 0.69062 0.38651
 C212 C 0.58393 0.66838 0.33137
 N213 N 0.56963 0.66971 0.27612
 N214 N 0.55895 0.64684 0.23133
 C215 C 0.56205 0.62180 0.24051
 N216 N 0.57675 0.62079 0.29507
 N217 N 0.58754 0.64367 0.33955
 C218 C 0.54698 0.59436 0.19762
 C219 C 0.53394 0.59369 0.13679
 H220 H 0.60129 0.68636 0.43019
 H221 H 0.54491 0.57320 0.21658
 H222 H 0.57958 0.72062 0.34001
 H223 H 0.53787 0.61484 0.11353
 C224 C 0.30857 -0.14938 0.40016
 C225 C 0.30785 -0.15600 0.33196
 C226 C 0.33262 -0.13441 0.28812
 N227 N 0.33313 -0.14053 0.22208
 N228 N 0.35635 -0.12154 0.18381
 C229 C 0.37981 -0.09578 0.21039
 N230 N 0.37913 -0.08964 0.27603
 N231 N 0.35602 -0.10850 0.31401
 C232 C 0.40683 -0.07554 0.17177
 C233 C 0.40987 -0.07828 0.10339
 H234 H 0.29013 -0.17708 0.31060
 H235 H 0.42577 -0.05813 0.19948
 H236 H 0.32697 -0.12744 0.41681
 H237 H 0.39091 -0.09425 0.07372
 C238 C 0.82802 0.51351 0.42006
 C239 C 0.85731 0.51922 0.42183
 C240 C 0.87243 0.51588 0.36245
 N241 N 0.89978 0.51886 0.36840
 N242 N 0.91383 0.51599 0.31523
 C243 C 0.90111 0.51023 0.25397
 N244 N 0.87384 0.50744 0.24795
 N245 N 0.85974 0.51017 0.30116
 C246 C 0.91599 0.50644 0.19475
 C247 C 0.94165 0.50420 0.19893
 H248 H 0.87008 0.52689 0.46727
 H249 H 0.90546 0.50363 0.14679
 H250 H 0.81630 0.50660 0.37298
 H251 H 0.95162 0.50577 0.24708
 C252 C 0.42885 0.28211 0.39483
 C253 C 0.42346 0.30666 0.39179
 C254 C 0.42960 0.32551 0.33135
 N255 N 0.42830 0.35180 0.33483
 N256 N 0.43660 0.37087 0.28302
 C257 C 0.44646 0.36440 0.22552
 N258 N 0.44713 0.33772 0.22139
 N259 N 0.43894 0.31867 0.27343
 C260 C 0.45853 0.38705 0.17072
 C261 C 0.46680 0.41773 0.18268
 H262 H 0.41663 0.31399 0.43610
 H263 H 0.46385 0.38043 0.12325
 H264 H 0.43361 0.27391 0.34877
 H265 H 0.46317 0.42441 0.23187
 C266 C 0.69136 0.17063 0.38150
 C267 C 0.67055 0.13920 0.37639
 C268 C 0.65366 0.12490 0.31502
 N269 N 0.63368 0.09421 0.31411
 N270 N 0.61765 0.08079 0.25980
 C271 C 0.62104 0.09749 0.20402
 N272 N 0.64129 0.12818 0.20459
 N273 N 0.65734 0.14165 0.25908
 C274 C 0.60160 0.08308 0.14572
 C275 C 0.57663 0.05365 0.15054
 H276 H 0.66697 0.12414 0.41812
 H277 H 0.60490 0.09687 0.10173
 H278 H 0.69605 0.18509 0.33800
 H279 H 0.57248 0.04090 0.19656
 C280 C 0.43223 0.13445 -0.39012
 C281 C 0.42696 0.10420 -0.39361
 C282 C 0.43554 0.08982 -0.34140
 N283 N 0.44812 0.10446 -0.28309
 N284 N 0.45856 0.09203 -0.24015
 C285 C 0.45700 0.06469 -0.25438
 N286 N 0.44421 0.05006 -0.31227
 N287 N 0.43364 0.06234 -0.35483
 C288 C 0.47067 0.05168 -0.21146
 C289 C 0.47997 0.06162 -0.14647
 H290 H 0.41827 0.09080 -0.43883
 H291 H 0.47342 0.03323 -0.23217
 H292 H 0.43580 0.14532 -0.34148
 H293 H 0.47527 0.07820 -0.12276
 C294 C 0.67576 0.52103 -0.41259
 C295 C 0.67619 0.51618 -0.34403
 C296 C 0.65100 0.51169 -0.30117
 N297 N 0.65307 0.51225 -0.23359
 N298 N 0.63031 0.50855 -0.19528
 C299 C 0.60469 0.50412 -0.22329
 N300 N 0.60261 0.50336 -0.29065
 N301 N 0.62530 0.50713 -0.32877
 C302 C 0.57891 0.49938 -0.18302
 C303 C 0.57918 0.50164 -0.11369
 H304 H 0.69514 0.51675 -0.32072
 H305 H 0.55864 0.49357 -0.20953
 H306 H 0.65677 0.52217 -0.43092
 H307 H 0.59941 0.50815 -0.08632
 C308 C 0.85370 0.31865 -0.44672
 C309 C 0.84636 0.32216 -0.38126
 C310 C 0.86701 0.34910 -0.34049
 N311 N 0.86232 0.34928 -0.27389
 N312 N 0.88110 0.37323 -0.23643
 C313 C 0.90523 0.39801 -0.26406
 N314 N 0.90975 0.39800 -0.33081
 N315 N 0.89105 0.37396 -0.36825
 C316 C 0.92609 0.42452 -0.22255
 C317 C 0.92425 0.42268 -0.15329
 H318 H 0.82603 0.30469 -0.35782
 H319 H 0.94291 0.44549 -0.24649
 H320 H 0.87536 0.33631 -0.46499
 H321 H 0.90782 0.40117 -0.13042
 C322 C 0.56682 -0.14495 -0.40197
 C323 C 0.57459 -0.11407 -0.40782
 C324 C 0.56860 -0.09724 -0.35528
 N325 N 0.55670 -0.11025 -0.29525
 N326 N 0.54865 -0.09567 -0.25119
 C327 C 0.55208 -0.06764 -0.26576
 N328 N 0.56427 -0.05456 -0.32536
 N329 N 0.57242 -0.06905 -0.36920
 C330 C 0.54063 -0.05248 -0.22131
 C331 C 0.52982 -0.06290 -0.15723
 H332 H 0.58286 -0.10244 -0.45512
 H333 H 0.53961 -0.03297 -0.24096
 H334 H 0.56104 -0.15585 -0.35343
 H335 H 0.53243 -0.08098 -0.13492
 C336 C 0.31265 0.49809 -0.35114
 C337 C 0.32677 0.48089 -0.34350
 C338 C 0.34257 0.48135 -0.28259
 N339 N 0.35644 0.46461 -0.28100
 N340 N 0.37258 0.46607 -0.22847
 C341 C 0.37543 0.48427 -0.17524
 N342 N 0.36111 0.50065 -0.17623
 N343 N 0.34496 0.49923 -0.22897
 C344 C 0.39591 0.48846 -0.12037
 C345 C 0.41669 0.47882 -0.12794
 H346 H 0.32673 0.46665 -0.38446
 H347 H 0.39745 0.50279 -0.07809
 H348 H 0.31053 0.51035 -0.30864
 H349 H 0.41638 0.46650 -0.17285
 C350 C 1.16858 0.68360 -0.41903
 C351 C 1.13889 0.66005 -0.41146
 C352 C 1.12759 0.64214 -0.34957
 N353 N 1.09794 0.62736 -0.33612
 N354 N 1.08714 0.61124 -0.28019
 C355 C 1.10555 0.60909 -0.23568
 N356 N 1.13521 0.62356 -0.24944
 N357 N 1.14609 0.63997 -0.30520
 C358 C 1.09339 0.59044 -0.17485
 C359 C 1.06478 0.58168 -0.15213
 H360 H 1.12242 0.65643 -0.44843
 H361 H 1.10672 0.58286 -0.14875
 H362 H 1.18324 0.68856 -0.37678
 H363 H 1.05224 0.59072 -0.17637
 C364 C 0.81792 0.52792 -0.33445
 C365 C 0.84812 0.54366 -0.31903
 C366 C 0.85983 0.53864 -0.25701
 N367 N 0.88928 0.55648 -0.24372
 N368 N 0.90132 0.54994 -0.19271
 C369 C 0.88443 0.52517 -0.15319
 N370 N 0.85481 0.50757 -0.16577
 N371 N 0.84270 0.51422 -0.21671
 C372 C 0.89859 0.51530 -0.10340
 C373 C 0.92939 0.53182 -0.09496
 H374 H 0.86411 0.55850 -0.35626
 H375 H 0.88539 0.49285 -0.08047
 H376 H 0.80144 0.51561 -0.29588
 H377 H 0.94231 0.55431 -0.11792
 C378 C 0.44598 0.28566 -0.35949
 C379 C 0.43688 0.30695 -0.34424
 C380 C 0.44387 0.32423 -0.28104
 N381 N 0.43029 0.34063 -0.26646
 N382 N 0.43785 0.35855 -0.21245
 C383 C 0.45939 0.36088 -0.17089
 N384 N 0.47282 0.34421 -0.18506
 N385 N 0.46513 0.32612 -0.23907
 C386 C 0.47032 0.38365 -0.11597
 C387 C 0.45804 0.40241 -0.10433
 H388 H 0.42326 0.31082 -0.37883
 H389 H 0.49057 0.38847 -0.09069
 H390 H 0.45545 0.27885 -0.31972
 H391 H 0.43777 0.39738 -0.12983
 C392 C 0.70702 0.17372 -0.37095
 C393 C 0.68868 0.14218 -0.35978
 C394 C 0.67096 0.12934 -0.29856
 N395 N 0.65569 0.09832 -0.29007
 N396 N 0.63682 0.08570 -0.23911
 C397 C 0.63231 0.10358 -0.19472
 N398 N 0.64788 0.13470 -0.20265
 N399 N 0.66692 0.14738 -0.25360
 C400 C 0.60865 0.08935 -0.14344
 C401 C 0.59134 0.05735 -0.13790
 H402 H 0.68581 0.12609 -0.39941
 H403 H 0.60258 0.10396 -0.11542
 H404 H 0.71271 0.18993 -0.33000
 H405 H 0.59773 0.04298 -0.16588
 C406 C 1.16402 0.47561 -0.36125
 C407 C 1.13363 0.46608 -0.36150
 C408 C 1.11617 0.46244 -0.30063
 N409 N 1.08689 0.45338 -0.30627
 N410 N 1.07128 0.45361 -0.25346
 C411 C 1.08434 0.46292 -0.19282
 N412 N 1.11350 0.47132 -0.18674
 N413 N 1.12917 0.47111 -0.23971
 C414 C 1.06843 0.46762 -0.13680
 C415 C 1.04165 0.46707 -0.14720
 H416 H 1.12197 0.46218 -0.40821
 H417 H 1.08010 0.47639 -0.09005
 H418 H 1.17372 0.47412 -0.31477
 H419 H 1.03071 0.45955 -0.19505
 C420 C 0.56457 0.70953 -0.37086
 C421 C 0.57503 0.68951 -0.35517
 C422 C 0.56506 0.66950 -0.29617
 N423 N 0.57635 0.65075 -0.28519
 N424 N 0.56580 0.63028 -0.23588
 C425 C 0.54350 0.62774 -0.19564
 N426 N 0.53245 0.64679 -0.20599
 N427 N 0.54301 0.66731 -0.25541
 C428 C 0.52982 0.60324 -0.14514
 C429 C 0.53822 0.58099 -0.13883
 H430 H 0.59071 0.68753 -0.38775
 H431 H 0.51116 0.60119 -0.11630
 H432 H 0.55278 0.71451 -0.33231
 H433 H 0.55687 0.58301 -0.16768
 C434 C 0.28643 -0.16432 -0.36138
 C435 C 0.30280 -0.13310 -0.34463
 C436 C 0.32431 -0.12148 -0.28969
 N437 N 0.34215 -0.09058 -0.28167
 N438 N 0.36473 -0.07930 -0.23897
 C439 C 0.37044 -0.09849 -0.20281
 N440 N 0.35221 -0.12943 -0.20971
 N441 N 0.32959 -0.14074 -0.25254
 C442 C 0.39725 -0.08615 -0.16103
 C443 C 0.41853 -0.05481 -0.16124
 H444 H 0.30320 -0.11623 -0.37867
 H445 H 0.40134 -0.10216 -0.13361
 H446 H 0.28337 -0.18153 -0.32498
 H447 H 0.41436 -0.03887 -0.18872
 C448 C 0.54294 -0.17033 0.35660
 C449 C 0.55708 -0.13995 0.33410
 C450 C 0.54763 -0.12992 0.27532
 N451 N 0.56334 -0.09983 0.25743
 N452 N 0.55388 -0.08922 0.20852
 C453 C 0.52828 -0.10827 0.17555
 N454 N 0.51276 -0.13857 0.19263
 N455 N 0.52226 -0.14924 0.24170
 C456 C 0.51614 -0.09573 0.12678
 C457 C 0.52913 -0.06393 0.11865
 H458 H 0.57536 -0.12220 0.36280
 H459 H 0.49511 -0.11126 0.10294
 H460 H 0.52664 -0.18887 0.32563
 H461 H 0.54969 -0.04854 0.14432
 C462 C 0.31074 0.49540 0.39818
 C463 C 0.32684 0.48025 0.38916
 C464 C 0.34387 0.48310 0.32790
 N465 N 0.35692 0.46569 0.32056
 N466 N 0.37432 0.46947 0.26804
 C467 C 0.37945 0.49090 0.22084
 N468 N 0.36618 0.50818 0.22785
 N469 N 0.34864 0.50430 0.28035
 C470 C 0.40114 0.49731 0.16645
 C471 C 0.41580 0.48056 0.16051
 H472 H 0.32755 0.46620 0.42901
 H473 H 0.40780 0.51731 0.13526
 H474 H 0.30760 0.50690 0.35620
 H475 H 0.40885 0.46051 0.19175
 C476 C 1.15998 0.70956 0.34614
 C477 C 1.12912 0.69063 0.34133
 C478 C 1.11417 0.67341 0.28044
 N479 N 1.12974 0.67481 0.22436
 N480 N 1.11614 0.65587 0.17304
 C481 C 1.08655 0.63477 0.17606
 N482 N 1.07094 0.63394 0.23153
 N483 N 1.08448 0.65289 0.28265
 C484 C 1.07258 0.61091 0.12373
 C485 C 1.04576 0.58378 0.13627
 H486 H 1.11554 0.68564 0.38596
 H487 H 1.08552 0.61250 0.07967
 H488 H 1.17353 0.71705 0.30122
 H489 H 1.03393 0.58154 0.18261
 C490 C 0.44898 0.15257 0.36668
 C491 C 0.43379 0.12178 0.34625
 C492 C 0.44221 0.11075 0.28657
 N493 N 0.42724 0.08017 0.27195
 N494 N 0.43625 0.06909 0.22206
 C495 C 0.46058 0.08821 0.18488
 N496 N 0.47526 0.11890 0.19873
 N497 N 0.46625 0.13000 0.24871
 C498 C 0.47275 0.07578 0.13509
 C499 C 0.46099 0.04410 0.12733
 H500 H 0.41608 0.10467 0.37738
 H501 H 0.49328 0.09177 0.10965
 H502 H 0.46484 0.17023 0.33332
 H503 H 0.44045 0.02807 0.15267
 C504 C 0.70879 0.54264 0.35534
 C505 C 0.69462 0.55922 0.34123
 C506 C 0.67475 0.55186 0.28390
 N507 N 0.65959 0.56710 0.27664
 N508 N 0.63785 0.55764 0.23207
 C509 C 0.63031 0.53246 0.19327
 N510 N 0.64594 0.51760 0.19940
 N511 N 0.66775 0.52711 0.24399
 C512 C 0.60371 0.51943 0.15075
 C513 C 0.58529 0.53217 0.15036
 H514 H 0.69416 0.57458 0.37897
 H515 H 0.59700 0.49794 0.12460
 H516 H 0.71212 0.52963 0.31621
 H517 H 0.59226 0.55389 0.17577
 C518 C 0.84319 0.27391 0.33025
 C519 C 0.87340 0.28991 0.31429
 C520 C 0.88427 0.30845 0.25338
 N521 N 0.91403 0.32616 0.24267
 N522 N 0.92452 0.34749 0.19509
 C523 C 0.90565 0.35203 0.15671
 N524 N 0.87586 0.33373 0.16618
 N525 N 0.86535 0.31231 0.21364
 C526 C 0.91706 0.37901 0.11292
 C527 C 0.94751 0.39964 0.10727
 H528 H 0.88960 0.29360 0.35224
 H529 H 0.90134 0.38481 0.09208
 H530 H 0.82698 0.26720 0.29066
 H531 H 0.96320 0.39325 0.12569
   
