data_POSCAR
  _audit_creation_date              2014-09-24
  _audit_creation_method            'ToBaCCo'
  _symmetry_space_group_name_H-M    'P1'
  _symmetry_Int_Tables_number       1
  _symmetry_cell_setting            triclinic
  loop_
  _symmetry_equiv_pos_as_xyz
 x,y,z
_cell_length_a 34.1664
_cell_length_b 34.4042
_cell_length_c 34.4913
_cell_angle_alpha 89.921700
_cell_angle_beta 90.836200
_cell_angle_gamma 89.853800
loop_
  _atom_site_label
  _atom_site_type_symbol
  _atom_site_fract_x
  _atom_site_fract_y
  _atom_site_fract_z
N1 N 0.28608 0.39855 1.36552
 N2 N 0.27800 0.36485 1.38155
 C3 C 0.24675 0.36928 1.40468
 C4 C 0.23523 0.40804 1.40316
 C5 C 0.26102 0.42561 1.37834
 H6 H 0.23380 0.34622 1.42149
 H7 H 0.26062 0.45571 1.36920
 Cu8 Cu 0.30987 0.31866 1.37146
 Cu9 Cu 0.32509 0.40445 1.32577
 Cu10 Cu 0.39060 0.32950 1.31674
 N11 N 0.35228 0.28022 1.37154
 N12 N 0.38449 0.28603 1.35196
 C13 C 0.40941 0.25633 1.35832
 C14 C 0.39183 0.23001 1.38265
 C15 C 0.35541 0.24602 1.39059
 H16 H 0.43794 0.25350 1.34539
 H17 H 0.33321 0.23421 1.40924
 N18 N 0.39148 0.37574 1.28338
 N19 N 0.36635 0.40461 1.28682
 C20 C 0.37210 0.43039 1.25806
 C21 C 0.40217 0.41696 1.23533
 C22 C 0.41392 0.38227 1.25233
 H23 H 0.35459 0.45616 1.25288
 H24 H 0.43598 0.36238 1.24209
 H25 H 0.33222 0.34640 1.31085
 H26 H 0.36020 0.36460 1.35472
 N27 N 1.21550 0.61981 0.86112
 N28 N 1.20728 0.63988 0.89235
 C29 C 1.23659 0.63544 0.91859
 C30 C 1.26452 0.61118 0.90289
 C31 C 1.25013 0.60187 0.86634
 H32 H 1.23748 0.64862 0.94704
 H33 H 1.26342 0.58311 0.84515
 Cu34 Cu 1.15884 0.66923 0.89565
 Cu35 Cu 1.18017 0.61686 0.81658
 Cu36 Cu 1.09892 0.67695 0.81730
 N37 N 1.11806 0.70851 0.89222
 N38 N 1.09465 0.71153 0.86175
 C39 C 1.07037 0.74201 0.86661
 C40 C 1.07932 0.75901 0.90207
 C41 C 1.10957 0.73692 0.91749
 H42 H 1.04872 0.75150 0.84546
 H43 H 1.12497 0.74187 0.94467
 N44 N 1.10929 0.63983 0.77512
 N45 N 1.14093 0.61776 0.77439
 C46 C 1.13976 0.59557 0.74227
 C47 C 1.10567 0.60403 0.72193
 C48 C 1.08697 0.63202 0.74359
 H49 H 1.16137 0.57390 0.73496
 H50 H 1.05891 0.64527 0.73703
 H51 H 1.15856 0.67254 0.82537
 H52 H 1.12828 0.63133 0.84376
 N53 N 0.72280 -0.11121 0.14032
 N54 N 0.72049 -0.13861 0.11384
 C55 C 0.75113 -0.13544 0.08989
 C56 C 0.77392 -0.10454 0.10196
 C57 C 0.75503 -0.08973 0.13410
 H58 H 0.75671 -0.15420 0.06543
 H59 H 0.76392 -0.06525 0.15170
 Cu60 Cu 0.67775 -0.17583 0.11361
 Cu61 Cu 0.68351 -0.10523 0.18069
 Cu62 Cu 0.60605 -0.17053 0.17862
 N63 N 0.63498 -0.21308 0.11340
 N64 N 0.60678 -0.21062 0.13879
 C65 C 0.58161 -0.24020 0.13317
 C66 C 0.59478 -0.26255 0.10273
 C67 C 0.62873 -0.24434 0.09070
 H68 H 0.55609 -0.24567 0.15053
 H69 H 0.64780 -0.25333 0.06765
 N70 N 0.61054 -0.12825 0.21689
 N71 N 0.64057 -0.10417 0.21869
 C72 C 0.63599 -0.08029 0.24933
 C73 C 0.60133 -0.08981 0.26738
 C74 C 0.58597 -0.12007 0.24595
 H75 H 0.65623 -0.05763 0.25779
 H76 H 0.55916 -0.13550 0.25179
 H77 H 0.66612 -0.16238 0.18185
 H78 H 0.63815 -0.12904 0.14889
 N79 N -0.22840 1.11377 -0.35368
 N80 N -0.22874 1.14309 -0.37815
 C81 C -0.25946 1.13940 -0.40270
 C82 C -0.27930 1.10586 -0.39319
 C83 C -0.25870 1.09013 -0.36216
 H84 H -0.26684 1.15956 -0.42574
 H85 H -0.26586 1.06398 -0.34637
 Cu86 Cu -0.18961 1.18370 -0.37572
 Cu87 Cu -0.19019 1.10998 -0.31137
 Cu88 Cu -0.12259 1.18480 -0.30342
 N89 N -0.15137 1.22496 -0.37097
 N90 N -0.12581 1.22598 -0.34215
 C91 C -0.10340 1.25792 -0.34573
 C92 C -0.11561 1.27772 -0.37883
 C93 C -0.14598 1.25598 -0.39404
 H94 H -0.07964 1.26556 -0.32617
 H95 H -0.16286 1.26245 -0.42004
 N96 N -0.12393 1.14044 -0.26723
 N97 N -0.14930 1.11171 -0.27048
 C98 C -0.14254 1.08598 -0.24163
 C99 C -0.11149 1.09910 -0.21921
 C100 C -0.10036 1.13372 -0.23631
 H101 H -0.15908 1.05967 -0.23698
 H102 H -0.07691 1.15268 -0.22701
 H103 H -0.18114 1.16916 -0.30687
 H104 H -0.14642 1.14131 -0.33764
 N105 N 0.72185 0.62373 0.64087
 N106 N 0.71990 0.65141 0.61463
 C107 C 0.75077 0.64800 0.59090
 C108 C 0.77315 0.61662 0.60314
 C109 C 0.75383 0.60189 0.63491
 H110 H 0.75657 0.66672 0.56645
 H111 H 0.76191 0.57683 0.65216
 Cu112 Cu 0.67690 0.68870 0.61459
 Cu113 Cu 0.68238 0.61684 0.68016
 Cu114 Cu 0.60397 0.68100 0.67896
 N115 N 0.63298 0.72484 0.61434
 N116 N 0.60455 0.72174 0.63945
 C117 C 0.57875 0.75090 0.63349
 C118 C 0.59168 0.77348 0.60309
 C119 C 0.62620 0.75602 0.59157
 H120 H 0.55279 0.75579 0.65041
 H121 H 0.64528 0.76555 0.56876
 N122 N 0.60919 0.63782 0.71661
 N123 N 0.63968 0.61416 0.71750
 C124 C 0.63578 0.58884 0.74693
 C125 C 0.60112 0.59654 0.76526
 C126 C 0.58486 0.62783 0.74541
 H127 H 0.65656 0.56625 0.75460
 H128 H 0.55782 0.64267 0.75193
 H129 H 0.63661 0.64152 0.64833
 H130 H 0.66370 0.67430 0.68241
 N131 N 0.78496 0.38655 0.13083
 N132 N 0.78448 0.35932 0.10409
 C133 C 0.75544 0.36653 0.07840
 C134 C 0.73666 0.40012 0.08928
 C135 C 0.75606 0.41226 0.12278
 H136 H 0.74821 0.34849 0.05367
 H137 H 0.74902 0.43714 0.14051
 Cu138 Cu 0.82088 0.31632 0.10484
 Cu139 Cu 0.82163 0.38452 0.17515
 Cu140 Cu 0.89288 0.31271 0.17153
 N141 N 0.86595 0.28298 0.09843
 N142 N 0.89347 0.28065 0.12532
 C143 C 0.91996 0.25385 0.11483
 C144 C 0.90838 0.23879 0.07932
 C145 C 0.87417 0.25807 0.06961
 H146 H 0.94565 0.24594 0.13176
 H147 H 0.85602 0.25342 0.04409
 N148 N 0.88766 0.34817 0.21560
 N149 N 0.86154 0.37650 0.21688
 C150 C 0.86650 0.39595 0.25061
 C151 C 0.89704 0.37862 0.27126
 C152 C 0.90949 0.34852 0.24830
 H153 H 0.84885 0.42031 0.25973
 H154 H 0.93302 0.32843 0.25505
 H155 H 0.86391 0.35799 0.14272
 H156 H 0.83319 0.32605 0.17391
 N157 N 0.28596 0.11253 0.86351
 N158 N 0.28614 0.14152 0.88833
 C159 C 0.25496 0.13798 0.91169
 C160 C 0.23452 0.10485 0.90087
 C161 C 0.25512 0.08946 0.87043
 H162 H 0.24783 0.15773 0.93492
 H163 H 0.24779 0.06357 0.85415
 Cu164 Cu 0.32764 0.18053 0.88749
 Cu165 Cu 0.32452 0.10732 0.82285
 Cu166 Cu 0.39700 0.17732 0.81931
 N167 N 0.36954 0.21908 0.88587
 N168 N 0.39583 0.21808 0.85840
 C169 C 0.42055 0.24819 0.86297
 C170 C 0.40963 0.26895 0.89526
 C171 C 0.37705 0.24974 0.90918
 H172 H 0.44497 0.25441 0.84438
 H173 H 0.35985 0.25782 0.93397
 N174 N 0.39347 0.13377 0.78233
 N175 N 0.36595 0.10697 0.78370
 C176 C 0.37102 0.08173 0.75429
 C177 C 0.40337 0.09327 0.73357
 C178 C 0.41683 0.12623 0.75215
 H179 H 0.35230 0.05717 0.74815
 H180 H 0.44159 0.14368 0.74376
 H181 H 0.36931 0.13559 0.85209
 H182 H 0.33768 0.16576 0.81918
 N183 N 0.21896 0.87621 0.36761
 N184 N 0.21856 0.84882 0.39421
 C185 C 0.24478 0.85778 0.42244
 C186 C 0.26216 0.89276 0.41280
 C187 C 0.24501 0.90356 0.37803
 H188 H 0.25098 0.84011 0.44773
 H189 H 0.25186 0.92906 0.36108
 Cu190 Cu 0.18402 0.80405 0.38902
 Cu191 Cu 0.18739 0.87397 0.32051
 Cu192 Cu 0.12156 0.79840 0.31230
 N193 N 0.14533 0.76278 0.38420
 N194 N 0.12078 0.76114 0.35454
 C195 C 0.09731 0.73012 0.35859
 C196 C 0.10768 0.71120 0.39246
 C197 C 0.13826 0.73272 0.40816
 H198 H 0.07449 0.72169 0.33826
 H199 H 0.15405 0.72708 0.43496
 N200 N 0.12693 0.83881 0.27242
 N201 N 0.15299 0.86695 0.27499
 C202 C 0.15017 0.88940 0.24305
 C203 C 0.12069 0.87475 0.21951
 C204 C 0.10644 0.84290 0.23901
 H205 H 0.16738 0.91515 0.23785
 H206 H 0.08277 0.82424 0.22950
 H207 H 0.14253 0.84334 0.34626
 H208 H 0.17947 0.81425 0.31906
 Zn209 Zn 0.05751 0.97220 0.00693
 Zn210 Zn 0.01471 1.04418 -0.01561
 Zn211 Zn -0.02429 0.96647 -0.02597
 Zn212 Zn -0.01000 0.99870 0.05337
 O213 O 0.00941 0.99533 0.00452
 O214 O 0.09597 1.00235 -0.01096
 O215 O -0.01306 1.05045 -0.05940
 O216 O -0.00147 0.92298 -0.04441
 O217 O 0.06438 1.05629 -0.02719
 O218 O 0.05893 0.92868 -0.02074
 O219 O -0.04178 0.99333 -0.06772
 O220 O -0.05651 0.97596 0.05788
 O221 O -0.00145 1.08136 0.01668
 O222 O -0.06753 0.95114 -0.00038
 O223 O -0.01704 1.04759 0.06889
 O224 O 0.02072 0.97630 0.08911
 O225 O 0.07192 0.95796 0.05509
 C226 C 0.09586 1.03672 -0.02427
 C227 C -0.03534 1.02796 -0.07874
 C228 C 0.03340 0.91040 -0.04047
 C229 C -0.07803 0.95710 0.03432
 C230 C -0.01353 1.07968 0.05126
 C231 C 0.05407 0.96040 0.08700
 Zn232 Zn 0.46953 0.01161 0.44838
 Zn233 Zn 0.46488 -0.02427 0.52761
 Zn234 Zn 0.54220 -0.01624 0.48823
 Zn235 Zn 0.50122 0.05434 0.51642
 O236 O 0.49437 0.00625 0.49525
 O237 O 0.42625 -0.01670 0.44542
 O238 O 0.49085 -0.06711 0.54373
 O239 O 0.55297 -0.02463 0.43819
 O240 O 0.42098 -0.04220 0.50414
 O241 O 0.49903 -0.00378 0.40842
 O242 O 0.54669 -0.06200 0.51236
 O243 O 0.55139 0.06560 0.52653
 O244 O 0.44990 0.00129 0.57071
 O245 O 0.58168 0.01230 0.50717
 O246 O 0.47730 0.05885 0.56167
 O247 O 0.48134 0.09291 0.48715
 O248 O 0.45404 0.06061 0.43838
 C249 C 0.40837 -0.03770 0.46957
 C250 C 0.52435 -0.08030 0.53509
 C251 C 0.53315 -0.01839 0.40736
 C252 C 0.58241 0.04574 0.52249
 C253 C 0.45689 0.03589 0.58175
 C254 C 0.46081 0.09217 0.45626
 Zn255 Zn 0.99291 0.44373 0.48186
 Zn256 Zn 1.04630 0.50706 0.50894
 Zn257 Zn 0.96695 0.52679 0.47597
 Zn258 Zn 0.97489 0.48826 0.55328
 O259 O 0.99527 0.49148 0.50490
 O260 O 1.04031 0.42496 0.47013
 O261 O 1.05501 0.55093 0.48292
 O262 O 0.94566 0.50574 0.43313
 O263 O 1.07996 0.47173 0.49054
 O264 O 0.96468 0.44428 0.43753
 O265 O 0.99629 0.56669 0.45974
 O266 O 0.93218 0.51737 0.55840
 O267 O 1.06138 0.51794 0.55781
 O268 O 0.92664 0.54751 0.50190
 O269 O 1.00763 0.50484 0.59027
 O270 O 0.96108 0.44003 0.56645
 O271 O 0.97162 0.40748 0.51228
 C272 C 1.07445 0.43869 0.47498
 C273 C 1.03253 0.57376 0.46408
 C274 C 0.94637 0.47139 0.41987
 C275 C 0.91460 0.54108 0.53593
 C276 C 1.04256 0.51693 0.58926
 C277 C 0.96035 0.40870 0.54712
 Zn278 Zn 0.47795 0.50010 0.95059
 Zn279 Zn 0.46984 0.53664 1.02909
 Zn280 Zn 0.50522 0.45708 1.02042
 Zn281 Zn 0.54889 0.52675 0.99380
 O282 O 0.50040 0.50522 0.99857
 O283 O 0.43288 0.52574 0.94674
 O284 O 0.45484 0.51269 1.07284
 O285 O 0.48476 0.41879 0.99106
 O286 O 0.42568 0.55253 1.00452
 O287 O 0.46629 0.45072 0.93814
 O288 O 0.48097 0.45423 1.06559
 O289 O 0.58718 0.49707 1.01403
 O290 O 0.49476 0.58028 1.04437
 O291 O 0.55501 0.44427 1.03165
 O292 O 0.55293 0.57218 1.01819
 O293 O 0.56119 0.53720 0.94450
 O294 O 0.50749 0.51923 0.91271
 C295 C 0.41346 0.54635 0.97014
 C296 C 0.46137 0.47845 1.08515
 C297 C 0.46924 0.41936 0.95737
 C298 C 0.58655 0.46344 1.02917
 C299 C 0.52925 0.59212 1.03806
 C300 C 0.54142 0.53418 0.91324
 C301 C 1.20416 0.42701 0.42102
 C302 C 1.17573 0.40880 0.44004
 C303 C 1.14311 0.43153 0.45601
 C304 C 1.10810 0.41555 0.46188
 H305 H 1.17518 0.37737 0.44203
 H306 H 1.14720 0.46241 0.46087
 H307 H 1.20228 0.45832 0.41752
 H308 H 1.10341 0.38520 0.45483
 C309 C 0.30103 0.59763 0.92198
 C310 C 0.32580 0.57360 0.90401
 C311 C 0.36277 0.55819 0.92054
 C312 C 0.37596 0.56353 0.95699
 H313 H 0.31927 0.56432 0.87470
 H314 H 0.37996 0.54089 0.90080
 H315 H 0.30707 0.60772 0.95110
 H316 H 0.35949 0.58042 0.97754
 C317 C -0.18933 0.90835 0.08391
 C318 C -0.16749 0.93718 0.09870
 C319 C -0.12968 0.95036 0.08292
 C320 C -0.11604 0.94187 0.04753
 H321 H -0.17668 0.95145 0.12499
 H322 H -0.11273 0.96927 0.10176
 H323 H -0.17990 0.89275 0.05850
 H324 H -0.13302 0.92439 0.02746
 C325 C 0.68491 0.09012 0.58866
 C326 C 0.66106 0.11209 0.56652
 C327 C 0.62418 0.09735 0.54958
 C328 C 0.62009 0.06082 0.53691
 H329 H 0.66695 0.14277 0.56296
 H330 H 0.60016 0.11776 0.54644
 H331 H 0.67718 0.06034 0.59524
 H332 H 0.64490 0.04114 0.53754
 C333 C 0.40873 0.19511 0.39534
 C334 C 0.38912 0.16754 0.41437
 C335 C 0.40779 0.13057 0.42640
 C336 C 0.44410 0.12886 0.44154
 H337 H 0.35798 0.17052 0.41895
 H338 H 0.38995 0.10458 0.42561
 H339 H 0.43899 0.18975 0.38790
 H340 H 0.46044 0.15538 0.44650
 C341 C 0.89902 0.31171 0.60481
 C342 C 0.92707 0.33335 0.62158
 C343 C 0.94195 0.36912 0.60342
 C344 C 0.94582 0.37284 0.56499
 H345 H 0.93807 0.32632 0.65033
 H346 H 0.95171 0.39221 0.62254
 H347 H 0.88617 0.32109 0.57744
 H348 H 0.93927 0.34856 0.54603
 C349 C 0.06392 0.79242 -0.08099
 C350 C 0.03526 0.81413 -0.09711
 C351 C 0.02180 0.85107 -0.07971
 C352 C 0.04563 0.87369 -0.05842
 H353 H 0.02048 0.80464 -0.12338
 H354 H -0.00782 0.86058 -0.08622
 H355 H 0.07647 0.80092 -0.05328
 H356 H 0.07596 0.86540 -0.05397
 C357 C 0.57755 0.70311 1.08908
 C358 C 0.59298 0.68199 1.06037
 C359 C 0.57735 0.64456 1.04602
 C360 C 0.54205 0.62981 1.05415
 H361 H 0.61976 0.69137 1.04694
 H362 H 0.59641 0.62869 1.02678
 H363 H 0.55135 0.69334 1.10331
 H364 H 0.52178 0.64551 1.07215
 C365 C 0.41546 0.43466 1.19887
 C366 C 0.44217 0.41739 1.17659
 C367 C 0.45542 0.43202 1.13873
 C368 C 0.44612 0.46666 1.12314
 H369 H 0.45481 0.38995 1.18567
 H370 H 0.47462 0.41263 1.12313
 H371 H 0.40179 0.46167 1.19006
 H372 H 0.42792 0.48717 1.13833
 C373 C 0.58368 -0.07303 0.30240
 C374 C 0.60386 -0.05122 0.32783
 C375 C 0.58728 -0.03785 0.36491
 C376 C 0.54930 -0.02926 0.36944
 H377 H 0.63466 -0.04587 0.32327
 H378 H 0.60754 -0.03419 0.38906
 H379 H 0.55382 -0.08120 0.30854
 H380 H 0.52938 -0.02996 0.34474
 C381 C -0.09488 1.07979 -0.18439
 C382 C -0.06532 1.09533 -0.16372
 C383 C -0.04783 1.07836 -0.12803
 C384 C -0.05433 1.04228 -0.11474
 H385 H -0.05336 1.12302 -0.17242
 H386 H -0.02770 1.09706 -0.11230
 H387 H -0.10806 1.05270 -0.17564
 H388 H -0.07339 1.02252 -0.13033
 C389 C 1.09042 0.58575 0.68627
 C390 C 1.11258 0.56348 0.66340
 C391 C 1.09685 0.54523 0.62777
 C392 C 1.06028 0.53150 0.62547
 H393 H 1.14359 0.56029 0.66944
 H394 H 1.11619 0.54244 0.60331
 H395 H 1.06021 0.59165 0.67826
 H396 H 1.04191 0.53219 0.65081
 C397 C 0.80920 0.60182 0.58518
 C398 C 0.83004 0.57283 0.60139
 C399 C 0.86591 0.55554 0.58541
 C400 C 0.87938 0.56147 0.54955
 H401 H 0.82103 0.56077 0.62879
 H402 H 0.88124 0.53543 0.60451
 H403 H 0.81850 0.61543 0.55861
 H404 H 0.86428 0.58067 0.52947
 C405 C 0.70187 0.41654 1.06956
 C406 C 0.68829 0.45228 1.07660
 C407 C 0.65310 0.46833 1.05687
 C408 C 0.62275 0.44630 1.04533
 H409 H 0.70422 0.47123 1.09622
 H410 H 0.65104 0.49968 1.05456
 H411 H 0.68774 0.39869 1.04765
 H412 H 0.62294 0.41531 1.05085
 C413 C 0.19869 1.08803 -0.08275
 C414 C 0.17467 1.10781 -0.05956
 C415 C 0.13762 1.09125 -0.04521
 C416 C 0.13320 1.05337 -0.03717
 H417 H 0.18060 1.13802 -0.05309
 H418 H 0.11380 1.11129 -0.03993
 H419 H 0.19100 1.05891 -0.09192
 H420 H 0.15790 1.03376 -0.03951
 C421 C 0.29415 -0.08598 0.43219
 C422 C 0.31517 -0.10010 0.46219
 C423 C 0.35045 -0.08021 0.47779
 C424 C 0.37240 -0.05686 0.45586
 H425 H 0.30675 -0.12714 0.47573
 H426 H 0.35968 -0.08686 0.50723
 H427 H 0.30125 -0.05798 0.41989
 H428 H 0.36473 -0.05220 0.42566
 C429 C 0.57288 -0.19073 0.58797
 C430 C 0.58841 -0.17000 0.55907
 C431 C 0.57237 -0.13314 0.54333
 C432 C 0.53753 -0.11758 0.55210
 H433 H 0.61544 -0.17965 0.54626
 H434 H 0.59082 -0.11827 0.52280
 H435 H 0.54631 -0.18131 0.60175
 H436 H 0.51802 -0.13207 0.57179
 C437 C 1.08922 0.67569 0.40741
 C438 C 1.10284 0.65691 0.43885
 C439 C 1.08546 0.62087 0.45422
 C440 C 1.04852 0.60950 0.44705
 H441 H 1.12903 0.66719 0.45350
 H442 H 1.10385 0.60390 0.47373
 H443 H 1.06442 0.66448 0.39115
 H444 H 1.02892 0.62717 0.42950
 C445 C -0.07345 1.20726 0.05720
 C446 C -0.04979 1.18126 0.07423
 C447 C -0.03534 1.14752 0.05272
 C448 C -0.02432 1.11539 0.07167
 H449 H -0.04324 1.18326 0.10500
 H450 H -0.03618 1.14802 0.02127
 H451 H -0.08202 1.20367 0.02704
 H452 H -0.02604 1.11434 0.10303
 C453 C 0.42898 0.30439 0.91010
 C454 C 0.42373 0.31763 0.94617
 C455 C 0.44331 0.35270 0.96191
 C456 C 0.45337 0.38334 0.94014
 H457 H 0.40586 0.30117 0.96596
 H458 H 0.44670 0.35435 0.99314
 H459 H 0.44933 0.31886 0.89117
 H460 H 0.44697 0.38339 0.90930
 C461 C 0.58672 0.57591 0.79962
 C462 C 0.54992 0.57934 0.81189
 C463 C 0.53523 0.55934 0.84670
 C464 C 0.55799 0.54972 0.87728
 H465 H 0.52899 0.59641 0.79521
 H466 H 0.50384 0.55537 0.84828
 H467 H 0.60701 0.55653 0.81442
 H468 H 0.58891 0.55652 0.87747
 C469 C 0.42007 0.07640 0.69818
 C470 C 0.40487 0.04538 0.67987
 C471 C 0.42051 0.02961 0.64318
 C472 C 0.44153 0.05090 0.61848
 H473 H 0.38036 0.03020 0.69230
 H474 H 0.41292 -0.00002 0.63571
 H475 H 0.44587 0.09052 0.68716
 H476 H 0.44753 0.08112 0.62467
 C477 C 0.10509 0.89079 0.18293
 C478 C 0.12541 0.91557 0.16110
 C479 C 0.10889 0.93268 0.12524
 C480 C 0.07140 0.94382 0.12254
 H481 H 0.15551 0.92230 0.16858
 H482 H 0.12855 0.93805 0.10148
 H483 H 0.07626 0.88135 0.17348
 H484 H 0.05267 0.94123 0.14751
 C485 C 0.91389 0.38802 0.30962
 C486 C 0.90699 0.42114 0.32845
 C487 C 0.92691 0.42859 0.36591
 C488 C 0.92535 0.46331 0.38311
 H489 H 0.88781 0.44304 0.31586
 H490 H 0.94402 0.40539 0.37917
 H491 H 0.93423 0.36711 0.32218
 H492 H 0.90884 0.48671 0.36952
   
