data_POSCAR
  _audit_creation_date              2014-09-24
  _audit_creation_method            'ToBaCCo'
  _symmetry_space_group_name_H-M    'P1'
  _symmetry_Int_Tables_number       1
  _symmetry_cell_setting            triclinic
  loop_
  _symmetry_equiv_pos_as_xyz
 x,y,z
_cell_length_a 37.3757
_cell_length_b 37.3437
_cell_length_c 37.3646
_cell_angle_alpha 89.884900
_cell_angle_beta 89.793800
_cell_angle_gamma 89.723800
loop_
  _atom_site_label
  _atom_site_type_symbol
  _atom_site_fract_x
  _atom_site_fract_y
  _atom_site_fract_z
N1 N 0.17911 0.18101 0.18055
 N2 N 0.73320 0.73384 0.73111
 N3 N 0.31149 0.81538 0.67861
 N4 N 0.75761 0.26218 0.23576
 N5 N 0.81683 0.68011 0.31108
 N6 N 0.31924 0.17738 -0.18801
 N7 N 0.68100 0.31441 -0.18403
 N8 N 0.17992 0.81366 0.31658
 N9 N 0.48164 0.48473 0.48282
 N10 N -0.01922 -0.01500 0.98422
 N11 N 1.06921 0.56349 0.92925
 N12 N 0.56795 0.06523 0.42683
 N13 N -0.07120 0.06663 0.56623
 N14 N 0.48414 0.51331 0.01137
 N15 N 0.50897 -0.01985 0.01325
 N16 N 1.06296 0.42648 0.56657
 C17 C 0.42381 0.01336 0.19959
 H18 H 0.42730 0.03656 0.21650
 C19 C 0.44384 0.00990 0.16824
 H20 H 0.46281 0.03052 0.16092
 C21 C 0.39414 -0.04138 0.18802
 H22 H 0.37464 -0.06120 0.19582
 C23 C 0.41373 -0.04593 0.15639
 H24 H 0.40898 -0.06920 0.13992
 N25 N 0.39897 -0.01166 0.20843
 C26 C 0.31526 0.04549 0.26619
 H27 H 0.31487 0.03116 0.29138
 C28 C 0.28928 0.07160 0.25910
 H29 H 0.26907 0.07743 0.27907
 C30 C 0.34101 0.05396 0.20874
 H31 H 0.36042 0.04636 0.18867
 C32 C 0.31572 0.08031 0.20068
 H33 H 0.31611 0.09307 0.17462
 Zn34 Zn 0.37109 -0.00254 0.24975
 N35 N 0.34026 0.03698 0.24100
 C36 C 0.40201 0.03917 0.30508
 N37 N 0.40311 0.00730 0.28752
 C38 C 0.42915 -0.01733 0.29435
 C39 C 0.45569 -0.01023 0.31952
 C40 C 0.42808 0.04736 0.33045
 C41 C 0.31369 -0.04821 0.23829
 C42 C 0.28853 -0.07452 0.24635
 C43 C 0.32149 -0.08851 0.30013
 C44 C 0.34586 -0.06160 0.29127
 N45 N 0.34151 -0.04207 0.26078
 H46 H 0.38155 0.05868 0.29876
 H47 H 0.42975 -0.04218 0.27951
 H48 H 0.47654 -0.02987 0.32407
 H49 H 0.42744 0.07309 0.34377
 H50 H 0.31053 -0.03187 0.21455
 H51 H 0.26595 -0.07849 0.22873
 H52 H 0.32484 -0.10330 0.32483
 H53 H 0.36765 -0.05580 0.30921
 C54 C 0.28915 0.08888 0.22576
 C55 C 0.43847 -0.01973 0.14605
 C56 C 0.29226 -0.09485 0.27765
 C57 C 0.45549 0.02265 0.33753
 C58 C 0.06463 -0.01492 0.70356
 H59 H 0.06405 -0.03967 0.71865
 C60 C 0.03860 -0.00813 0.67768
 H61 H 0.01811 -0.02787 0.67286
 C62 C 0.09131 0.04157 0.69271
 H63 H 0.11137 0.06120 0.69925
 C64 C 0.06577 0.04944 0.66664
 H65 H 0.06641 0.07504 0.65298
 N66 N 0.09019 0.00985 0.71064
 C67 C 0.17711 -0.04740 0.76346
 H68 H 0.17866 -0.03207 0.78794
 C69 C 0.20267 -0.07379 0.75625
 H70 H 0.22369 -0.07882 0.77546
 C71 C 0.14882 -0.05793 0.70779
 H72 H 0.12846 -0.05094 0.68853
 C73 C 0.17388 -0.08456 0.69952
 H74 H 0.17251 -0.09822 0.67402
 Zn75 Zn 0.12167 0.00034 0.74897
 N76 N 0.15104 -0.03982 0.73925
 C77 C 0.09653 -0.03745 0.81044
 N78 N 0.09332 -0.00722 0.79030
 C79 C 0.06957 0.01903 0.79917
 C80 C 0.04904 0.01623 0.83030
 C81 C 0.07648 -0.04134 0.84183
 C82 C 0.17776 0.04641 0.73063
 C83 C 0.20457 0.07163 0.73666
 C84 C 0.17977 0.08194 0.79556
 C85 C 0.15354 0.05649 0.78850
 N86 N 0.15314 0.03914 0.75652
 H87 H 0.11497 -0.05836 0.80253
 H88 H 0.06724 0.04258 0.78240
 H89 H 0.03088 0.03772 0.83761
 H90 H 0.07994 -0.06516 0.85797
 H91 H 0.17724 0.03172 0.70572
 H92 H 0.22450 0.07646 0.71617
 H93 H 0.18040 0.09495 0.82143
 H94 H 0.13443 0.04976 0.80912
 C95 C 0.20147 -0.09225 0.72369
 C96 C 0.03886 0.02457 0.65924
 C97 C 0.20596 0.08922 0.76970
 C98 C 0.05283 -0.01398 0.85222
 C99 C 0.56719 0.48439 0.19892
 H100 H 0.56339 0.46171 0.21657
 C101 C 0.54706 0.48739 0.16771
 H102 H 0.52772 0.46691 0.16123
 C103 C 0.59790 0.53815 0.18524
 H104 H 0.61793 0.55771 0.19210
 C105 C 0.57814 0.54230 0.15379
 H106 H 0.58331 0.56498 0.13651
 N107 N 0.59268 0.50905 0.20658
 C108 C 0.67384 0.45013 0.26584
 H109 H 0.67658 0.46715 0.28906
 C110 C 0.69371 0.41851 0.26332
 H111 H 0.71181 0.41109 0.28469
 C112 C 0.64633 0.43856 0.21000
 H113 H 0.62799 0.44647 0.18916
 C114 C 0.66574 0.40672 0.20639
 H115 H 0.66183 0.39029 0.18294
 Zn116 Zn 0.62129 0.50032 0.24727
 N117 N 0.64991 0.45898 0.23989
 C118 C 0.59290 0.46215 0.30654
 N119 N 0.59061 0.49296 0.28714
 C120 C 0.56702 0.51929 0.29624
 C121 C 0.54646 0.51627 0.32739
 C122 C 0.57283 0.45802 0.33781
 C123 C 0.68002 0.54470 0.23272
 C124 C 0.70599 0.57049 0.23997
 C125 C 0.67499 0.58452 0.29503
 C126 C 0.64989 0.55824 0.28698
 N127 N 0.65275 0.53895 0.25623
 H128 H 0.61078 0.44093 0.29832
 H129 H 0.56519 0.54322 0.27998
 H130 H 0.52877 0.53796 0.33519
 H131 H 0.57588 0.43382 0.35346
 H132 H 0.68214 0.52850 0.20883
 H133 H 0.72812 0.57420 0.22157
 H134 H 0.67269 0.59894 0.32002
 H135 H 0.62880 0.55269 0.30594
 C136 C 0.68918 0.39617 0.23365
 C137 C 0.55288 0.51630 0.14454
 C138 C 0.70358 0.59060 0.27151
 C139 C 0.54997 0.48569 0.34890
 C140 C 0.92885 0.51160 0.70349
 H141 H 0.93057 0.53625 0.71854
 C142 C 0.95434 0.50389 0.67723
 H143 H 0.97546 0.52291 0.67206
 C144 C 0.90006 0.45610 0.69342
 H145 H 0.87939 0.43720 0.70047
 C146 C 0.92508 0.44731 0.66692
 H147 H 0.92345 0.42172 0.65345
 N148 N 0.90257 0.48772 0.71124
 C149 C 0.81927 0.54797 0.76711
 H150 H 0.81623 0.53145 0.79074
 C151 C 0.79886 0.57912 0.76335
 H152 H 0.78009 0.58669 0.78418
 C153 C 0.84806 0.55877 0.71151
 H154 H 0.86727 0.55075 0.69138
 C155 C 0.82811 0.59014 0.70665
 H156 H 0.83238 0.60615 0.68288
 Zn157 Zn 0.87298 0.49822 0.75098
 N158 N 0.84398 0.53894 0.74184
 C159 C 0.90152 0.53881 0.80842
 N160 N 0.90400 0.50756 0.78986
 C161 C 0.93089 0.48373 0.79628
 C162 C 0.95695 0.49119 0.82189
 C163 C 0.92675 0.54709 0.83453
 C164 C 0.81495 0.45317 0.73857
 C165 C 0.78967 0.42686 0.74636
 C166 C 0.82186 0.41309 0.80067
 C167 C 0.84633 0.43996 0.79207
 N168 N 0.84241 0.45939 0.76148
 H169 H 0.88067 0.55793 0.80237
 H170 H 0.93269 0.45943 0.78064
 H171 H 0.97882 0.47254 0.82605
 H172 H 0.92485 0.57247 0.84834
 H173 H 0.81223 0.46935 0.71467
 H174 H 0.76739 0.42275 0.72841
 H175 H 0.82492 0.39837 0.82544
 H176 H 0.86798 0.44571 0.81020
 C177 C 0.80368 0.60084 0.73314
 C178 C 0.95287 0.47115 0.65904
 C179 C 0.79297 0.40663 0.77779
 C180 C 0.95502 0.52327 0.84118
 C181 C 0.20659 0.42800 0.00864
 H182 H 0.22235 0.43028 0.03275
 C183 C 0.18044 0.45367 0.00089
 H184 H 0.17606 0.47580 0.01909
 C185 C 0.19439 0.39745 -0.04549
 H186 H 0.20057 0.37610 -0.06399
 C187 C 0.16771 0.42231 -0.05406
 H188 H 0.15355 0.41979 -0.07912
 N189 N 0.21320 0.40073 -0.01457
 C190 C 0.26575 0.31469 0.04448
 H191 H 0.29065 0.31291 0.02971
 C192 C 0.25799 0.28944 0.07095
 H193 H 0.27719 0.26845 0.07655
 C194 C 0.20968 0.34326 0.05358
 H195 H 0.19056 0.36369 0.04605
 C196 C 0.20082 0.31850 0.08024
 H197 H 0.17497 0.32011 0.09335
 Zn198 Zn 0.25202 0.36982 -0.00402
 N199 N 0.24160 0.34072 0.03613
 C200 C 0.31234 0.39577 0.03461
 N201 N 0.29246 0.39883 0.00431
 C202 C 0.30108 0.42280 -0.02174
 C203 C 0.33174 0.44368 -0.01870
 C204 C 0.34328 0.41622 0.03875
 C205 C 0.23671 0.31302 -0.05045
 C206 C 0.24379 0.28704 -0.07641
 C207 C 0.30181 0.31363 -0.08608
 C208 C 0.29370 0.33904 -0.05991
 N209 N 0.26157 0.33831 -0.04266
 H210 H 0.30465 0.37707 0.05530
 H211 H 0.28454 0.42497 -0.04535
 H212 H 0.33892 0.46195 -0.04007
 H213 H 0.35933 0.41286 0.06256
 H214 H 0.21167 0.31258 -0.03584
 H215 H 0.22395 0.26679 -0.08181
 H216 H 0.32770 0.31408 -0.09920
 H217 H 0.31355 0.35864 -0.05279
 C218 C 0.22492 0.29091 0.08870
 C219 C 0.16077 0.45093 -0.03080
 C220 C 0.27687 0.28705 -0.09422
 C221 C 0.35345 0.44005 0.01156
 C222 C 0.69523 0.06636 -0.01831
 H223 H 0.71188 0.06483 -0.04200
 C224 C 0.66440 0.04549 -0.01572
 H225 H 0.65724 0.02787 -0.03752
 C226 C 0.68358 0.09184 0.03861
 H227 H 0.69112 0.10977 0.05986
 C228 C 0.65260 0.07143 0.04230
 H229 H 0.63648 0.07425 0.06623
 N230 N 0.70352 0.08989 0.00812
 C231 C 0.75700 0.18012 -0.04323
 H232 H 0.78059 0.18239 -0.02671
 C233 C 0.74996 0.20587 -0.06951
 H234 H 0.76820 0.22802 -0.07327
 C235 C 0.70341 0.14963 -0.05731
 H236 H 0.68467 0.12843 -0.05185
 C237 C 0.69559 0.17452 -0.08409
 H238 H 0.67097 0.17198 -0.09898
 Zn239 Zn 0.74296 0.12102 0.00110
 N240 N 0.73378 0.15271 -0.03758
 C241 C 0.80511 0.09838 -0.03712
 N242 N 0.78421 0.09280 -0.00776
 C243 C 0.79264 0.06724 0.01683
 C244 C 0.82416 0.04736 0.01338
 C245 C 0.83685 0.07893 -0.04169
 C246 C 0.72354 0.17324 0.05139
 C247 C 0.72630 0.19369 0.08249
 C248 C 0.78393 0.16645 0.09368
 C249 C 0.78008 0.14647 0.06239
 N250 N 0.74981 0.14953 0.04244
 H251 H 0.79764 0.11840 -0.05664
 H252 H 0.77534 0.06312 0.03972
 H253 H 0.83122 0.02790 0.03373
 H254 H 0.85369 0.08436 -0.06465
 H255 H 0.70003 0.17562 0.03472
 H256 H 0.70479 0.21178 0.08989
 H257 H 0.80781 0.16308 0.10962
 H258 H 0.80115 0.12830 0.05439
 C259 C 0.71894 0.20311 -0.09024
 C260 C 0.64234 0.04860 0.01452
 C261 C 0.75654 0.18994 0.10422
 C262 C 0.84686 0.05356 -0.01586
 C263 C 0.19921 0.56309 0.48497
 H264 H 0.21424 0.56252 0.46018
 C265 C 0.17368 0.53681 0.49195
 H266 H 0.16902 0.51617 0.47227
 C267 C 0.18830 0.58992 0.54146
 H268 H 0.19469 0.61014 0.56102
 C269 C 0.16258 0.56411 0.54953
 H270 H 0.14904 0.56472 0.57520
 N271 N 0.20607 0.58887 0.50964
 C272 C 0.25673 0.67815 0.45464
 H273 H 0.28025 0.68088 0.47119
 C274 C 0.24927 0.70373 0.42843
 H275 H 0.26713 0.72620 0.42473
 C276 C 0.20365 0.64665 0.44069
 H277 H 0.18541 0.62499 0.44628
 C278 C 0.19539 0.67146 0.41387
 H279 H 0.17083 0.66856 0.39894
 Zn280 Zn 0.24405 0.62064 0.50002
 N281 N 0.23389 0.65048 0.46045
 C282 C 0.30571 0.59733 0.46151
 N283 N 0.28534 0.59268 0.49139
 C284 C 0.29428 0.56810 0.51676
 C285 C 0.32578 0.54823 0.51352
 C286 C 0.33745 0.57790 0.45715
 C287 C 0.22675 0.67631 0.54734
 C288 C 0.23350 0.70268 0.57288
 C289 C 0.29215 0.67681 0.58193
 C290 C 0.28440 0.65108 0.55617
 N291 N 0.25222 0.65142 0.53926
 H292 H 0.29780 0.61659 0.44140
 H293 H 0.27735 0.56475 0.54007
 H294 H 0.33323 0.52950 0.53440
 H295 H 0.35388 0.58255 0.43373
 H296 H 0.20166 0.67638 0.53299
 H297 H 0.21337 0.72286 0.57832
 H298 H 0.31820 0.67687 0.59455
 H299 H 0.30469 0.63178 0.54883
 C300 C 0.21822 0.70055 0.40788
 C301 C 0.15539 0.53701 0.52474
 C302 C 0.26680 0.70332 0.58997
 C303 C 0.34795 0.55350 0.48372
 C304 C 0.70335 0.92813 0.50971
 H305 H 0.71838 0.92926 0.53437
 C306 C 0.67733 0.95405 0.50255
 H307 H 0.67232 0.97489 0.52200
 C308 C 0.69315 0.90046 0.45363
 H309 H 0.70009 0.88007 0.43429
 C310 C 0.66688 0.92593 0.44539
 H311 H 0.65345 0.92491 0.41977
 N312 N 0.71094 0.90221 0.48528
 C313 C 0.76738 0.81881 0.54471
 H314 H 0.79109 0.81619 0.52821
 C315 C 0.76398 0.79843 0.57585
 H316 H 0.78517 0.78006 0.58342
 C317 C 0.71127 0.84671 0.55554
 H318 H 0.69082 0.86560 0.54755
 C319 C 0.70678 0.82679 0.58693
 H320 H 0.68296 0.83076 0.60298
 Zn321 Zn 0.75062 0.87228 0.49526
 N322 N 0.74167 0.84307 0.53571
 C323 C 0.80621 0.90223 0.53720
 N324 N 0.78939 0.90327 0.50496
 C325 C 0.79727 0.92892 0.48029
 C326 C 0.82268 0.95514 0.48780
 C327 C 0.83183 0.92786 0.54573
 C328 C 0.73777 0.81489 0.44923
 C329 C 0.74557 0.78953 0.42288
 C330 C 0.80090 0.82044 0.41056
 C331 C 0.79227 0.84499 0.43744
 N332 N 0.76115 0.84178 0.45617
 H333 H 0.79899 0.88235 0.55690
 H334 H 0.78297 0.92961 0.45517
 H335 H 0.82802 0.97578 0.46818
 H336 H 0.84445 0.92727 0.57178
 H337 H 0.71349 0.81264 0.46491
 H338 H 0.72723 0.76767 0.41824
 H339 H 0.82611 0.82290 0.39647
 H340 H 0.81088 0.86603 0.44385
 C341 C 0.73373 0.80287 0.59762
 C342 C 0.65922 0.95340 0.46980
 C343 C 0.77749 0.79218 0.40331
 C344 C 0.83983 0.95496 0.52109
 C345 C 0.01140 0.20124 0.42781
 H346 H 0.03627 0.21596 0.42779
 C347 C 0.00492 0.17550 0.45420
 H348 H 0.02503 0.17030 0.47432
 C349 C -0.04590 0.19157 0.40267
 H350 H -0.06616 0.19865 0.38339
 C351 C -0.05337 0.16557 0.42843
 H352 H -0.07917 0.15248 0.42851
 N353 N -0.01399 0.20895 0.40290
 C354 C 0.04069 0.26387 0.31530
 H355 H 0.02578 0.28876 0.31467
 C356 C 0.06691 0.25705 0.28945
 H357 H 0.07219 0.27690 0.26901
 C358 C 0.05075 0.20703 0.34194
 H359 H 0.04377 0.18726 0.36188
 C360 C 0.07717 0.19916 0.31662
 H361 H 0.09064 0.17342 0.31734
 Zn362 Zn -0.00575 0.24824 0.37194
 N363 N 0.03302 0.23890 0.34072
 C364 C 0.03544 0.30534 0.40045
 N365 N 0.00371 0.28770 0.40191
 C366 C -0.02092 0.29496 0.42781
 C367 C -0.01387 0.32049 0.45403
 C368 C 0.04359 0.33107 0.42622
 C369 C -0.05533 0.23053 0.31958
 C370 C -0.08665 0.23329 0.29957
 C371 C -0.09859 0.29046 0.32747
 C372 C -0.06703 0.28658 0.34706
 N373 N -0.04666 0.25650 0.34346
 H374 H 0.05501 0.29856 0.38019
 H375 H -0.04559 0.27996 0.42877
 H376 H -0.03341 0.32522 0.47493
 H377 H 0.06931 0.34430 0.42549
 H378 H -0.03839 0.20710 0.31697
 H379 H -0.09392 0.21191 0.28150
 H380 H -0.11504 0.31404 0.33136
 H381 H -0.05928 0.30725 0.36562
 C382 C 0.08511 0.22416 0.28979
 C383 C -0.02804 0.15781 0.45487
 C384 C -0.10891 0.26323 0.30393
 C385 C 0.01899 0.33836 0.45368
 C386 C -0.00960 0.70373 0.06150
 H387 H -0.03321 0.72025 0.05816
 C388 C -0.00128 0.67746 0.03622
 H389 H -0.01856 0.67373 0.01334
 C390 C 0.04268 0.68952 0.09448
 H391 H 0.06014 0.69483 0.11679
 C392 C 0.05176 0.66268 0.07004
 H393 H 0.07622 0.64754 0.07379
 N394 N 0.01244 0.70940 0.08979
 C395 C -0.04462 0.75954 0.17811
 H396 H -0.02819 0.78303 0.18166
 C397 C -0.07111 0.75141 0.20318
 H398 H -0.07512 0.76871 0.22609
 C399 C -0.05808 0.70722 0.14500
 H400 H -0.05226 0.68964 0.12278
 C401 C -0.08517 0.69830 0.16928
 H402 H -0.10006 0.67383 0.16552
 Zn403 Zn 0.00148 0.74805 0.12063
 N404 N -0.03838 0.73735 0.14994
 C405 C -0.03801 0.80899 0.09720
 N406 N -0.00794 0.78891 0.09213
 C407 C 0.01684 0.79795 0.06700
 C408 C 0.01285 0.82934 0.04710
 C409 C -0.04313 0.84057 0.07771
 C410 C 0.04659 0.73399 0.17885
 C411 C 0.07222 0.74162 0.20481
 C412 C 0.08514 0.79701 0.17399
 C413 C 0.05899 0.78857 0.14887
 N414 N 0.04028 0.75750 0.15170
 H415 H -0.05764 0.80104 0.11691
 H416 H 0.04030 0.78126 0.06326
 H417 H 0.03334 0.83693 0.02800
 H418 H -0.06664 0.85682 0.08277
 H419 H 0.03084 0.70983 0.18092
 H420 H 0.07629 0.72325 0.22690
 H421 H 0.09910 0.82223 0.17180
 H422 H 0.05307 0.80742 0.12778
 C423 C -0.09153 0.72038 0.19896
 C424 C 0.02976 0.65672 0.04037
 C425 C 0.09167 0.77352 0.20251
 C426 C -0.01712 0.85125 0.05283
 C427 C 0.48730 0.20249 0.56376
 H428 H 0.46236 0.21731 0.56346
 C429 C 0.49411 0.17659 0.53767
 H430 H 0.47417 0.17151 0.51744
 C431 C 0.54419 0.19229 0.58983
 H432 H 0.56393 0.19906 0.60973
 C433 C 0.55207 0.16617 0.56423
 H434 H 0.57781 0.15273 0.56463
 N435 N 0.51227 0.20994 0.58904
 C436 C 0.45573 0.26185 0.67724
 H437 H 0.47069 0.28653 0.67870
 C438 C 0.42963 0.25437 0.70295
 H439 H 0.42452 0.27357 0.72401
 C440 C 0.44561 0.20611 0.64884
 H441 H 0.45257 0.18700 0.62827
 C442 C 0.41927 0.19757 0.67405
 H443 H 0.40584 0.17198 0.67263
 Zn444 Zn 0.50251 0.24836 0.62058
 N445 N 0.46333 0.23778 0.65098
 C446 C 0.46260 0.30919 0.59658
 N447 N 0.49291 0.28932 0.59218
 C448 C 0.51806 0.29844 0.56744
 C449 C 0.51419 0.32968 0.54727
 C450 C 0.45763 0.34068 0.57687
 C451 C 0.55041 0.23259 0.67621
 C452 C 0.57642 0.23988 0.70196
 C453 C 0.58544 0.29778 0.67459
 C454 C 0.55910 0.28957 0.64958
 N455 N 0.54208 0.25744 0.65086
 H456 H 0.44257 0.30111 0.61582
 H457 H 0.54169 0.28189 0.56419
 H458 H 0.53493 0.33728 0.52846
 H459 H 0.43389 0.35673 0.58137
 H460 H 0.53593 0.20759 0.67715
 H461 H 0.58199 0.22040 0.72273
 H462 H 0.59786 0.32389 0.67385
 H463 H 0.55146 0.30947 0.63005
 C464 C 0.41145 0.22168 0.70173
 C465 C 0.52701 0.15845 0.53755
 C466 C 0.59408 0.27288 0.70130
 C467 C 0.48400 0.35142 0.55238
 C468 C 0.51308 0.69910 0.92345
 H469 H 0.53577 0.71665 0.92672
 C470 C 0.51036 0.66809 0.94410
 H471 H 0.53107 0.66166 0.96331
 C472 C 0.45884 0.68560 0.89377
 H473 H 0.43885 0.69254 0.87411
 C474 C 0.45502 0.65430 0.91400
 H475 H 0.43220 0.63722 0.90950
 N476 N 0.48801 0.70677 0.89824
 C477 C 0.54657 0.76685 0.81720
 H478 H 0.52974 0.79039 0.81488
 C479 C 0.57794 0.76418 0.79697
 H480 H 0.58537 0.78576 0.77906
 C481 C 0.55782 0.71025 0.84380
 H482 H 0.54983 0.68913 0.86186
 C483 C 0.58939 0.70649 0.82405
 H484 H 0.60555 0.68263 0.82747
 Zn485 Zn 0.49627 0.74761 0.86942
 N486 N 0.53765 0.74054 0.84079
 C487 C 0.53360 0.80668 0.89875
 N488 N 0.50295 0.78721 0.90024
 C489 C 0.47612 0.79590 0.92340
 C490 C 0.47862 0.82655 0.94458
 C491 C 0.53720 0.83749 0.91946
 C492 C 0.45027 0.73215 0.81221
 C493 C 0.42414 0.73920 0.78644
 C494 C 0.41349 0.79669 0.81409
 C495 C 0.43978 0.78860 0.83928
 N496 N 0.45760 0.75674 0.83795
 H497 H 0.55512 0.79879 0.88108
 H498 H 0.45228 0.77962 0.92450
 H499 H 0.45660 0.83397 0.96202
 H500 H 0.56135 0.85316 0.91713
 H501 H 0.46535 0.70736 0.81126
 H502 H 0.41908 0.71960 0.76582
 H503 H 0.39996 0.82239 0.81502
 H504 H 0.44660 0.80832 0.85915
 C505 C 0.59997 0.73399 0.80082
 C506 C 0.48137 0.64508 0.93904
 C507 C 0.40574 0.77200 0.78712
 C508 C 0.50914 0.84804 0.94209
 C509 C 0.15024 0.20283 0.26717
 C510 C 0.14440 0.16998 0.24256
 C511 C 0.15582 0.19301 0.21028
 C512 C 0.16206 0.22563 0.23440
 C513 C 0.11683 0.20434 0.20373
 C514 C 0.10524 0.18177 0.23644
 C515 C 0.11123 0.21439 0.26074
 C516 C 0.12260 0.23722 0.22829
 H517 H 0.16379 0.20225 0.29354
 H518 H 0.15222 0.14230 0.24986
 H519 H 0.18561 0.24358 0.23365
 H520 H 0.10303 0.20438 0.17747
 H521 H 0.08162 0.16388 0.23740
 H522 H 0.11378 0.26493 0.22200
 C523 C 0.63984 0.73512 0.74061
 C524 C 0.66932 0.76369 0.74608
 C525 C 0.69733 0.73334 0.74790
 C526 C 0.66845 0.70484 0.74212
 C527 C 0.69286 0.73088 0.78871
 C528 C 0.66428 0.76088 0.78704
 C529 C 0.63522 0.73241 0.78145
 C530 C 0.66345 0.70228 0.78329
 H531 H 0.61772 0.73691 0.72095
 H532 H 0.67031 0.78948 0.73145
 H533 H 0.67007 0.68182 0.72345
 H534 H 0.71492 0.72972 0.80849
 H535 H 0.66233 0.78387 0.80575
 H536 H 0.66157 0.67684 0.79854
 C537 C 0.36822 0.75937 0.72599
 C538 C 0.32874 0.77078 0.73247
 C539 C 0.33480 0.80354 0.70830
 C540 C 0.37384 0.79240 0.70142
 C541 C 0.34616 0.82647 0.74049
 C542 C 0.34052 0.79347 0.76514
 C543 C 0.37957 0.78205 0.75835
 C544 C 0.38539 0.81485 0.73405
 H545 H 0.37712 0.73173 0.71957
 H546 H 0.30528 0.75271 0.73204
 H547 H 0.38763 0.79258 0.67507
 H548 H 0.33813 0.85410 0.74773
 H549 H 0.32700 0.79385 0.79163
 H550 H 0.40895 0.83281 0.73484
 C551 C -0.17238 0.29477 0.28631
 C552 C -0.17752 0.29130 0.24527
 C553 C -0.20643 0.26296 0.25209
 C554 C -0.20180 0.26633 0.29278
 C555 C -0.17846 0.23256 0.25076
 C556 C -0.14898 0.26096 0.24424
 C557 C -0.14420 0.26458 0.28494
 C558 C -0.17327 0.23627 0.29158
 H559 H -0.17033 0.32054 0.30086
 H560 H -0.17907 0.31389 0.22601
 H561 H -0.22380 0.26797 0.31275
 H562 H -0.17954 0.20645 0.23682
 H563 H -0.12692 0.25872 0.22439
 H564 H -0.17128 0.21371 0.31088
 C565 C -0.14597 0.68006 0.22608
 C566 C -0.13336 0.66656 0.26325
 C567 C -0.16036 0.69214 0.28103
 C568 C -0.17338 0.70554 0.24440
 C569 C -0.13198 0.72183 0.28284
 C570 C -0.10491 0.69643 0.26444
 C571 C -0.11767 0.70984 0.22766
 C572 C -0.14464 0.73540 0.24569
 H573 H -0.15193 0.66274 0.20279
 H574 H -0.12862 0.63823 0.27100
 H575 H -0.20164 0.70951 0.23627
 H576 H -0.12495 0.73960 0.30541
 H577 H -0.07655 0.69266 0.27239
 H578 H -0.14911 0.76386 0.23825
 C579 C 0.37519 0.23338 0.76403
 C580 C 0.33550 0.22281 0.75852
 C581 C 0.34186 0.18947 0.78182
 C582 C 0.38113 0.19977 0.78771
 C583 C 0.35227 0.16702 0.74880
 C584 C 0.34634 0.20063 0.72501
 C585 C 0.38563 0.21120 0.73082
 C586 C 0.39174 0.17781 0.75427
 H587 H 0.38437 0.26072 0.77088
 H588 H 0.31220 0.24126 0.76016
 H589 H 0.39550 0.19885 0.81364
 H590 H 0.34379 0.13971 0.74124
 H591 H 0.33221 0.20103 0.69894
 H592 H 0.41511 0.15945 0.75239
 C593 C 0.60470 0.29661 0.76720
 C594 C 0.63131 0.27170 0.78684
 C595 C 0.65944 0.30171 0.78546
 C596 C 0.63287 0.32676 0.76646
 C597 C 0.67400 0.28799 0.74949
 C598 C 0.64551 0.25783 0.75030
 C599 C 0.61901 0.28292 0.73106
 C600 C 0.64708 0.31298 0.72996
 H601 H 0.57601 0.30014 0.77421
 H602 H 0.62360 0.25413 0.80946
 H603 H 0.62747 0.35512 0.77361
 H604 H 0.70261 0.28431 0.74232
 H605 H 0.65058 0.22934 0.74346
 H606 H 0.65379 0.33003 0.70655
 C607 C 0.14491 0.81370 0.23096
 C608 C 0.13117 0.82702 0.26782
 C609 C 0.15788 0.80162 0.28615
 C610 C 0.17198 0.78837 0.24983
 C611 C 0.12967 0.77169 0.28745
 C612 C 0.10291 0.79693 0.26847
 C613 C 0.11678 0.78370 0.23200
 C614 C 0.14343 0.75829 0.25058
 H615 H 0.15147 0.83111 0.20778
 H616 H 0.12597 0.85529 0.27542
 H617 H 0.20048 0.78466 0.24225
 H618 H 0.12209 0.75383 0.30988
 H619 H 0.07431 0.80045 0.27584
 H620 H 0.14830 0.72988 0.24328
 C621 C 0.22680 0.12552 0.23769
 C622 C 0.23244 0.16504 0.22606
 C623 C 0.20903 0.15822 0.19308
 C624 C 0.20297 0.11914 0.20443
 C625 C 0.24191 0.14717 0.17065
 C626 C 0.26580 0.15360 0.20386
 C627 C 0.25985 0.11453 0.21548
 C628 C 0.23626 0.10795 0.18248
 H629 H 0.22018 0.11672 0.26530
 H630 H 0.23099 0.18869 0.24393
 H631 H 0.17702 0.10482 0.20399
 H632 H 0.24946 0.15497 0.14305
 H633 H 0.29193 0.16760 0.20369
 H634 H 0.23795 0.08421 0.16470
 C635 C 0.78954 0.66558 0.75879
 C636 C 0.79108 0.69372 0.72846
 C637 C 0.75025 0.69803 0.73090
 C638 C 0.74857 0.67043 0.76155
 C639 C 0.74471 0.66866 0.70275
 C640 C 0.78591 0.66380 0.70025
 C641 C 0.78419 0.63601 0.73072
 C642 C 0.74333 0.64049 0.73336
 H643 H 0.80822 0.66408 0.78178
 H644 H 0.81070 0.71590 0.72698
 H645 H 0.73396 0.67164 0.78734
 H646 H 0.72606 0.66985 0.67974
 H647 H 0.80124 0.66148 0.67487
 H648 H 0.72380 0.61828 0.73543
 C649 C 0.76517 0.35260 0.81828
 C650 C 0.72729 0.36503 0.83003
 C651 C 0.71106 0.33737 0.80449
 C652 C 0.74842 0.32452 0.79283
 C653 C 0.70991 0.36522 0.77406
 C654 C 0.72676 0.39297 0.79945
 C655 C 0.76426 0.38039 0.78777
 C656 C 0.74780 0.35275 0.76224
 H657 H 0.78782 0.34715 0.83665
 H658 H 0.71834 0.37018 0.85792
 H659 H 0.75722 0.29626 0.78989
 H660 H 0.68803 0.37174 0.75521
 H661 H 0.71812 0.42132 0.80220
 H662 H 0.75645 0.34788 0.73422
 C663 C 0.26466 -0.14917 0.31806
 C664 C 0.22712 -0.13649 0.33067
 C665 C 0.21011 -0.16358 0.30503
 C666 C 0.24711 -0.17669 0.29252
 C667 C 0.20876 -0.13528 0.27501
 C668 C 0.22639 -0.10811 0.30049
 C669 C 0.26353 -0.12095 0.28796
 C670 C 0.24628 -0.14803 0.26235
 H671 H 0.28761 -0.15509 0.33591
 H672 H 0.21873 -0.13166 0.35878
 H673 H 0.25553 -0.20500 0.28904
 H674 H 0.18661 -0.12823 0.25668
 H675 H 0.21814 -0.07970 0.30380
 H676 H 0.25437 -0.15262 0.23412
 C677 C 0.26377 -0.12872 0.73533
 C678 C 0.25820 -0.16837 0.72437
 C679 C 0.28152 -0.16183 0.69108
 C680 C 0.28750 -0.12263 0.70177
 C681 C 0.24854 -0.15114 0.66879
 C682 C 0.22474 -0.15726 0.70233
 C683 C 0.23062 -0.11805 0.71326
 C684 C 0.25411 -0.11176 0.67996
 H685 H 0.27053 -0.11971 0.76275
 H686 H 0.25981 -0.19181 0.74258
 H687 H 0.31345 -0.10832 0.70095
 H688 H 0.24088 -0.15926 0.64141
 H689 H 0.19865 -0.17133 0.70261
 H690 H 0.25228 -0.08824 0.66184
 C691 C 0.70603 0.33206 0.20287
 C692 C 0.74713 0.32665 0.20548
 C693 C 0.74096 0.29814 0.23452
 C694 C 0.70022 0.30299 0.23200
 C695 C 0.74289 0.32651 0.26431
 C696 C 0.74878 0.35559 0.23522
 C697 C 0.70803 0.36062 0.23247
 C698 C 0.70201 0.33193 0.26145
 H699 H 0.69090 0.33388 0.17744
 H700 H 0.76586 0.32460 0.18247
 H701 H 0.68025 0.28111 0.23127
 H702 H 0.75730 0.32572 0.29014
 H703 H 0.76864 0.37754 0.23658
 H704 H 0.68322 0.33435 0.28440
 C705 C 0.75105 0.64293 0.25586
 C706 C 0.75014 0.67149 0.28603
 C707 C 0.78668 0.65778 0.29897
 C708 C 0.78818 0.62959 0.26894
 C709 C 0.76883 0.63082 0.32438
 C710 C 0.73176 0.64418 0.31138
 C711 C 0.73295 0.61604 0.28131
 C712 C 0.76967 0.60256 0.29421
 H713 H 0.74353 0.64772 0.22754
 H714 H 0.74221 0.69994 0.28249
 H715 H 0.81066 0.62240 0.25092
 H716 H 0.77664 0.62570 0.35257
 H717 H 0.70866 0.65056 0.32902
 H718 H 0.77742 0.57402 0.29758
 C719 C 0.26093 0.10585 0.81086
 C720 C 0.29362 0.11655 0.78785
 C721 C 0.28866 0.15555 0.80001
 C722 C 0.25642 0.14495 0.82345
 C723 C 0.26421 0.16366 0.76801
 C724 C 0.26866 0.12421 0.75561
 C725 C 0.23626 0.11374 0.77891
 C726 C 0.23148 0.15273 0.79127
 H727 H 0.25945 0.08182 0.82835
 H728 H 0.31932 0.10155 0.78709
 H729 H 0.24989 0.15227 0.85142
 H730 H 0.26550 0.18761 0.75045
 H731 H 0.27402 0.11575 0.72765
 H732 H 0.20564 0.16745 0.79263
 C733 C 0.20195 0.26805 0.15347
 C734 C 0.16896 0.24391 0.14680
 C735 C 0.19149 0.21114 0.15803
 C736 C 0.22421 0.23478 0.16513
 C737 C 0.20325 0.20502 0.11909
 C738 C 0.18122 0.23821 0.10767
 C739 C 0.21399 0.26199 0.11452
 C740 C 0.23626 0.22903 0.12576
 H741 H 0.20147 0.29425 0.16743
 H742 H 0.14125 0.25131 0.15445
 H743 H 0.24185 0.23352 0.18892
 H744 H 0.20320 0.17898 0.10483
 H745 H 0.16367 0.23976 0.08380
 H746 H 0.26400 0.22232 0.11739
 C747 C 0.73486 0.74282 0.63770
 C748 C 0.76316 0.74864 0.66738
 C749 C 0.73266 0.75041 0.69516
 C750 C 0.70441 0.74428 0.66608
 C751 C 0.72982 0.79120 0.69051
 C752 C 0.75998 0.78958 0.66218
 C753 C 0.73179 0.78364 0.63290
 C754 C 0.70149 0.78544 0.66089
 H755 H 0.73697 0.72304 0.61566
 H756 H 0.78906 0.73419 0.66863
 H757 H 0.68159 0.72543 0.66760
 H758 H 0.72830 0.81109 0.71251
 H759 H 0.78278 0.80845 0.66034
 H760 H 0.67594 0.80052 0.65866
 C761 C 0.80031 0.72617 0.38968
 C762 C 0.77496 0.70850 0.36243
 C763 C 0.80496 0.71012 0.33410
 C764 C 0.83047 0.72716 0.36127
 C765 C 0.79221 0.74713 0.32127
 C766 C 0.76206 0.74605 0.34997
 C767 C 0.78756 0.76333 0.37711
 C768 C 0.81763 0.76470 0.34884
 H769 H 0.80366 0.71782 0.41800
 H770 H 0.75678 0.68619 0.36934
 H771 H 0.85862 0.71889 0.36602
 H772 H 0.78868 0.75565 0.29304
 H773 H 0.73378 0.75401 0.34548
 H774 H 0.83533 0.78777 0.34300
 C775 C 0.31950 0.23349 -0.11438
 C776 C 0.29686 0.20092 -0.12562
 C777 C 0.30778 0.20738 -0.16477
 C778 C 0.33092 0.23951 -0.15372
 C779 C 0.27514 0.23178 -0.17084
 C780 C 0.26394 0.22570 -0.13127
 C781 C 0.28682 0.25801 -0.12023
 C782 C 0.29804 0.26438 -0.15937
 H783 H 0.33759 0.23433 -0.09091
 H784 H 0.29703 0.17469 -0.11160
 H785 H 0.35853 0.24647 -0.16190
 H786 H 0.25693 0.23132 -0.19421
 H787 H 0.23635 0.21949 -0.12222
 H788 H 0.29847 0.29078 -0.17308
 C789 C 0.69565 0.26890 -0.10468
 C790 C 0.72162 0.28709 -0.13128
 C791 C 0.69273 0.28479 -0.16047
 C792 C 0.66659 0.26727 -0.13398
 C793 C 0.70672 0.24806 -0.17270
 C794 C 0.73575 0.24977 -0.14312
 C795 C 0.70959 0.23200 -0.11669
 C796 C 0.68064 0.23002 -0.14585
 H797 H 0.69108 0.27719 -0.07651
 H798 H 0.73902 0.30986 -0.12407
 H799 H 0.63812 0.27497 -0.13009
 H800 H 0.71148 0.23956 -0.20076
 H801 H 0.76434 0.24238 -0.14669
 H802 H 0.66360 0.20665 -0.15222
 C803 C 0.23440 0.74758 0.35538
 C804 C 0.20482 0.74675 0.32632
 C805 C 0.19161 0.78349 0.33942
 C806 C 0.22104 0.78487 0.36811
 C807 C 0.16567 0.76589 0.36607
 C808 C 0.17895 0.72862 0.35334
 C809 C 0.20844 0.72972 0.38197
 C810 C 0.19527 0.76661 0.39484
 H811 H 0.26280 0.73981 0.35117
 H812 H 0.20902 0.73865 0.29806
 H813 H 0.23889 0.80727 0.37536
 H814 H 0.13739 0.77395 0.37058
 H815 H 0.16149 0.70556 0.34700
 H816 H 0.19131 0.77447 0.42322
 C817 C 0.28941 0.72796 0.65349
 C818 C 0.32193 0.75242 0.64567
 C819 C 0.29906 0.78501 0.65669
 C820 C 0.26675 0.76104 0.66487
 C821 C 0.28674 0.79039 0.61787
 C822 C 0.30915 0.75735 0.60672
 C823 C 0.27684 0.73319 0.61468
 C824 C 0.25416 0.76595 0.62561
 H825 H 0.29043 0.70199 0.66796
 H826 H 0.34985 0.74547 0.65278
 H827 H 0.24937 0.76243 0.68896
 H828 H 0.28633 0.81618 0.60307
 H829 H 0.32642 0.75569 0.58254
 H830 H 0.22624 0.77189 0.61745
 C831 C 0.75547 0.25080 0.14270
 C832 C 0.72728 0.24581 0.17285
 C833 C 0.75790 0.24464 0.20032
 C834 C 0.78603 0.24995 0.17075
 C835 C 0.76059 0.20374 0.19683
 C836 C 0.73030 0.20474 0.16879
 C837 C 0.75838 0.20987 0.13903
 C838 C 0.78880 0.20868 0.16672
 H839 H 0.75331 0.27004 0.12012
 H840 H 0.70143 0.26038 0.17394
 H841 H 0.80893 0.26873 0.17145
 H842 H 0.76217 0.18441 0.21938
 H843 H 0.70744 0.18591 0.16775
 H844 H 0.81430 0.19347 0.16471
 C845 C 0.45104 0.41453 0.53514
 C846 C 0.47925 0.44436 0.54039
 C847 C 0.48152 0.44882 0.49957
 C848 C 0.45336 0.41955 0.49395
 C849 C 0.51216 0.42116 0.49757
 C850 C 0.50958 0.41615 0.53854
 C851 C 0.48150 0.38667 0.53310
 C852 C 0.48397 0.39130 0.49225
 H853 H 0.42573 0.41220 0.55056
 H854 H 0.47783 0.46647 0.56016
 H855 H 0.43028 0.42085 0.47540
 H856 H 0.53786 0.42237 0.48281
 H857 H 0.53264 0.41453 0.55712
 H858 H 0.48595 0.36917 0.47256
 C859 C -0.05030 0.91433 0.03571
 C860 C -0.02233 0.94427 0.04161
 C861 C -0.01947 0.94904 0.00085
 C862 C -0.04739 0.91968 -0.00541
 C863 C 0.01133 0.92153 -0.00088
 C864 C 0.00816 0.91621 0.03999
 C865 C -0.01967 0.88665 0.03390
 C866 C -0.01663 0.89160 -0.00687
 H867 H -0.07582 0.91170 0.05073
 H868 H -0.02415 0.96622 0.06152
 H869 H -0.07019 0.92104 -0.02430
 H870 H 0.03731 0.92289 -0.01513
 H871 H 0.03095 0.91455 0.05890
 H872 H -0.01424 0.86963 -0.02671
 C873 C 0.07026 0.60196 0.01354
 C874 C 0.04480 0.57430 -0.00384
 C875 C 0.05756 0.58681 -0.04092
 C876 C 0.08312 0.61405 -0.02407
 C877 C 0.02761 0.61522 -0.04279
 C878 C 0.01469 0.60308 -0.00520
 C879 C 0.04022 0.63030 0.01189
 C880 C 0.05300 0.64255 -0.02532
 H881 H 0.08798 0.59625 0.03663
 H882 H 0.04124 0.54613 0.00489
 H883 H 0.11128 0.61866 -0.03234
 H884 H 0.00943 0.62208 -0.06514
 H885 H -0.01360 0.59874 0.00275
 H886 H 0.05640 0.67082 -0.03389
 C887 C 0.54767 0.09324 0.51417
 C888 C 0.52438 0.08215 0.48169
 C889 C 0.55677 0.08827 0.45706
 C890 C 0.58029 0.09894 0.48905
 C891 C 0.54592 0.12755 0.45103
 C892 C 0.51327 0.12186 0.47607
 C893 C 0.53656 0.13252 0.50825
 C894 C 0.56898 0.13841 0.48346
 H895 H 0.54835 0.07930 0.54043
 H896 H 0.50609 0.05886 0.48109
 H897 H 0.60794 0.09057 0.49571
 H898 H 0.54579 0.14174 0.42490
 H899 H 0.48565 0.13107 0.47019
 H900 H 0.58718 0.16178 0.48432
 C901 C -0.04878 0.09336 0.47914
 C902 C -0.02620 0.08245 0.51228
 C903 C -0.05911 0.08930 0.53609
 C904 C -0.08190 0.09985 0.50343
 C905 C -0.04826 0.12851 0.54172
 C906 C -0.01509 0.12210 0.51744
 C907 C -0.03769 0.13256 0.48462
 C908 C -0.07058 0.13920 0.50862
 H909 H -0.04894 0.07908 0.45312
 H910 H -0.00799 0.05895 0.51367
 H911 H -0.10943 0.09187 0.49624
 H912 H -0.04871 0.14308 0.56757
 H913 H 0.01244 0.13117 0.52359
 H914 H -0.08868 0.16279 0.50698
 C915 C 0.45095 0.58131 0.95759
 C916 C 0.48043 0.55231 0.95292
 C917 C 0.48262 0.54879 0.99382
 C918 C 0.45322 0.57724 0.99888
 C919 C 0.51207 0.57744 0.99519
 C920 C 0.50954 0.58151 0.95413
 C921 C 0.48021 0.61016 0.95899
 C922 C 0.48262 0.60647 0.99993
 H923 H 0.42566 0.58252 0.94216
 H924 H 0.48007 0.52976 0.93362
 H925 H 0.43011 0.57556 1.01750
 H926 H 0.53771 0.57722 1.00994
 H927 H 0.53264 0.58350 0.93549
 H928 H 0.48355 0.62907 1.01916
 C929 C 0.48241 0.91257 0.95620
 C930 C 0.47884 0.91703 0.99716
 C931 C 0.50943 0.94451 0.99615
 C932 C 0.51264 0.94063 0.95536
 C933 C 0.53753 0.91499 1.00216
 C934 C 0.50700 0.88690 1.00283
 C935 C 0.51049 0.88287 0.96201
 C936 C 0.54085 0.91061 0.96100
 H937 H 0.45980 0.91133 0.93706
 H938 H 0.45282 0.91835 1.01137
 H939 H 0.51436 0.96299 0.93583
 H940 H 0.56017 0.91588 1.02124
 H941 H 0.50464 0.86448 1.02222
 H942 H 0.56657 0.90858 0.94622
 C943 C 0.04132 0.40206 0.47878
 C944 C 0.01853 0.41290 0.51193
 C945 C 0.05089 0.40479 0.53589
 C946 C 0.07392 0.39433 0.50324
 C947 C 0.03903 0.36577 0.54082
 C948 C 0.00640 0.37346 0.51643
 C949 C 0.02920 0.36304 0.48359
 C950 C 0.06158 0.35516 0.50773
 H951 H 0.04221 0.41681 0.45298
 H952 H 0.00085 0.43679 0.51354
 H953 H 0.10175 0.40184 0.49645
 H954 H 0.03868 0.35076 0.56648
 H955 H -0.02144 0.36509 0.52237
 H956 H 0.07914 0.33117 0.50583
 C957 C 0.41136 0.53651 0.45162
 C958 C 0.44087 0.54208 0.48010
 C959 C 0.44565 0.50127 0.48252
 C960 C 0.41666 0.49534 0.45413
 C961 C 0.41783 0.49925 0.51295
 C962 C 0.41247 0.54021 0.51019
 C963 C 0.38332 0.53446 0.48183
 C964 C 0.38825 0.49362 0.48450
 H965 H 0.40915 0.55177 0.42621
 H966 H 0.46280 0.56199 0.47886
 H967 H 0.41819 0.47667 0.43112
 H968 H 0.41909 0.48460 0.53870
 H969 H 0.41049 0.55891 0.53317
 H970 H 0.36627 0.47382 0.48635
 C971 C 0.88736 -0.00629 -0.01541
 C972 C 0.91615 -0.00427 -0.04543
 C973 C 0.94477 0.00151 -0.01664
 C974 C 0.91657 -0.00081 0.01343
 C975 C 0.93991 0.04232 -0.01882
 C976 C 0.91072 0.03692 -0.04767
 C977 C 0.88233 0.03456 -0.01778
 C978 C 0.91116 0.04014 0.01093
 H979 H 0.86543 -0.02619 -0.01398
 H980 H 0.91813 -0.02276 -0.06857
 H981 H 0.91754 -0.01566 0.03908
 H982 H 0.96181 0.06227 -0.01972
 H983 H 0.90869 0.05240 -0.07296
 H984 H 0.90889 0.05864 0.03405
 C985 C 0.57811 0.03585 -0.01268
 C986 C 0.57296 -0.00501 -0.01619
 C987 C 0.54492 -0.00350 0.01411
 C988 C 0.54952 0.03721 0.01726
 C989 C 0.57378 -0.01021 0.04254
 C990 C 0.60242 -0.01141 0.01231
 C991 C 0.60716 0.02933 0.01572
 C992 C 0.57889 0.03086 0.04580
 H993 H 0.58012 0.05502 -0.03533
 H994 H 0.57203 -0.01904 -0.04223
 H995 H 0.52752 0.05724 0.01873
 H996 H 0.57208 -0.02934 0.06523
 H997 H 0.62449 -0.03129 0.01022
 H998 H 0.58075 0.04553 0.07151
 C999 C 0.09072 0.51370 0.54607
 C1000 C 0.07939 0.48122 0.52288
 C1001 C 0.08593 0.45659 0.55520
 C1002 C 0.09687 0.48859 0.57863
 C1003 C 0.12503 0.45045 0.54391
 C1004 C 0.11892 0.47548 0.51132
 C1005 C 0.12982 0.50767 0.53451
 C1006 C 0.13615 0.48291 0.56685
 H1007 H 0.07679 0.54000 0.54691
 H1008 H 0.05591 0.48075 0.50482
 H1009 H 0.08892 0.49533 0.60639
 H1010 H 0.13923 0.42428 0.54363
 H1011 H 0.12778 0.46959 0.48357
 H1012 H 0.15975 0.48376 0.58478
 C1013 C 0.14754 0.51666 -0.05465
 C1014 C 0.11877 0.51538 -0.08423
 C1015 C 0.09208 0.53348 -0.05858
 C1016 C 0.12076 0.53541 -0.02917
 C1017 C 0.07907 0.49701 -0.04477
 C1018 C 0.10614 0.47838 -0.07034
 C1019 C 0.13478 0.48003 -0.04086
 C1020 C 0.10813 0.49838 -0.01520
 H1021 H 0.17589 0.52445 -0.05872
 H1022 H 0.12323 0.52288 -0.11265
 H1023 H 0.12796 0.55812 -0.01165
 H1024 H 0.05083 0.48903 -0.04049
 H1025 H 0.09987 0.45498 -0.08741
 H1026 H 0.10392 0.49117 0.01333
 C1027 C 0.62356 1.01596 0.48224
 C1028 C 0.62975 1.04006 0.44899
 C1029 C 0.59043 1.03472 0.43854
 C1030 C 0.58382 1.01101 0.47151
 C1031 C 0.60057 1.00188 0.41567
 C1032 C 0.64007 1.00679 0.42662
 C1033 C 0.63370 0.98293 0.45964
 C1034 C 0.59438 0.97768 0.44891
 H1035 H 0.63275 1.02237 0.50968
 H1036 H 0.64440 1.06583 0.44841
 H1037 H 0.56054 1.01263 0.48995
 H1038 H 0.59215 0.99478 0.38822
 H1039 H 0.66344 1.00491 0.40829
 H1040 H 0.58000 0.95174 0.44892
 C1041 C 0.90369 0.97915 0.54372
 C1042 C 0.91470 1.01244 0.52131
 C1043 C 0.90692 1.03615 0.55400
 C1044 C 0.89631 1.00336 0.57667
 C1045 C 0.86791 1.04161 0.54231
 C1046 C 0.87529 1.01751 0.50933
 C1047 C 0.86470 0.98454 0.53172
 C1048 C 0.85715 1.00838 0.56447
 H1049 H 0.91822 0.95317 0.54423
 H1050 H 0.93852 1.01388 0.50359
 H1051 H 0.90398 0.99627 0.60439
 H1052 H 0.85306 1.06741 0.54238
 H1053 H 0.86682 1.02385 0.48159
 H1054 H 0.83322 1.00656 0.58206
 C1055 C 0.41771 0.45491 -0.01478
 C1056 C 0.42133 0.49594 -0.01843
 C1057 C 0.44889 0.49553 0.01210
 C1058 C 0.44584 0.45465 0.01543
 C1059 C 0.41937 0.50111 0.04028
 C1060 C 0.39123 0.50120 0.00979
 C1061 C 0.38800 0.46029 0.01333
 C1062 C 0.41577 0.45984 0.04368
 H1063 H 0.41681 0.43566 -0.03736
 H1064 H 0.42221 0.51004 -0.04451
 H1065 H 0.46859 0.43552 0.01721
 H1066 H 0.42001 0.52033 0.06286
 H1067 H 0.36845 0.52023 0.00743
 H1068 H 0.41388 0.44504 0.06938
 C1069 C 0.53704 0.51198 0.41368
 C1070 C 0.49617 0.51506 0.41922
 C1071 C 0.49815 0.48441 0.44682
 C1072 C 0.53888 0.48168 0.44185
 C1073 C 0.49188 0.45627 0.41762
 C1074 C 0.49020 0.48687 0.38943
 C1075 C 0.53093 0.48389 0.38429
 C1076 C 0.53296 0.45344 0.41212
 H1077 H 0.55583 0.53484 0.41181
 H1078 H 0.48177 0.54099 0.42069
 H1079 H 0.55891 0.48014 0.46366
 H1080 H 0.47315 0.43336 0.41917
 H1081 H 0.47029 0.48906 0.36755
 H1082 H 0.54803 0.42788 0.40976
 C1083 C -0.00809 -0.01319 0.89100
 C1084 C -0.00689 -0.04359 0.91942
 C1085 C -0.00186 -0.01518 0.94861
 C1086 C -0.00340 0.01528 0.92080
 C1087 C 0.03903 -0.01744 0.94487
 C1088 C 0.03437 -0.04595 0.91516
 C1089 C 0.03284 -0.01572 0.88711
 C1090 C 0.03767 0.01267 0.91648
 H1091 H -0.02734 -0.01139 0.86851
 H1092 H -0.02543 -0.06667 0.92051
 H1093 H -0.01829 0.04096 0.92183
 H1094 H 0.05840 -0.01861 0.96730
 H1095 H 0.04984 -0.07131 0.91337
 H1096 H 0.05624 0.03574 0.91504
 C1097 C 0.01583 0.04562 0.59428
 C1098 C -0.01665 0.02255 0.58284
 C1099 C -0.04119 0.05503 0.58923
 C1100 C -0.00920 0.07834 0.60027
 C1101 C -0.04748 0.04387 0.62833
 C1102 C -0.02251 0.01113 0.62238
 C1103 C 0.00967 0.03423 0.63339
 C1104 C -0.01504 0.06672 0.63955
 H1105 H 0.04215 0.04629 0.58045
 H1106 H -0.01717 0.00443 0.55936
 H1107 H -0.00234 0.10603 0.59225
 H1108 H -0.07369 0.04372 0.64239
 H1109 H -0.02845 -0.01657 0.63130
 H1110 H -0.01424 0.08474 0.66312
 C1111 C 0.53515 0.54718 0.08062
 C1112 C 0.54137 0.51814 0.05161
 C1113 C 0.50066 0.51492 0.04722
 C1114 C 0.49406 0.54390 0.07566
 C1115 C 0.49934 0.48510 0.07572
 C1116 C 0.54017 0.48864 0.08065
 C1117 C 0.53377 0.51753 0.10929
 C1118 C 0.49303 0.51413 0.10473
 H1119 H 0.54983 0.57287 0.08232
 H1120 H 0.56121 0.51930 0.02947
 H1121 H 0.47486 0.56656 0.07368
 H1122 H 0.48536 0.45904 0.07524
 H1123 H 0.55937 0.46599 0.08293
 H1124 H 0.47326 0.51245 0.12690
 C1125 C 0.45264 0.00704 0.08179
 C1126 C 0.49363 0.00939 0.07709
 C1127 C 0.49187 -0.02065 0.04898
 C1128 C 0.45102 -0.02268 0.05313
 C1129 C 0.49725 -0.04952 0.07783
 C1130 C 0.49872 -0.01952 0.10652
 C1131 C 0.45784 -0.02175 0.11085
 C1132 C 0.45602 -0.05161 0.08255
 H1133 H 0.43404 0.03023 0.08364
 H1134 H 0.50835 0.03503 0.07638
 H1135 H 0.43143 -0.02343 0.03089
 H1136 H 0.51581 -0.07274 0.07633
 H1137 H 0.51823 -0.01819 0.12879
 H1138 H 0.44057 -0.07684 0.08444
 C1139 C 1.01502 0.48249 0.62274
 C1140 C 1.03872 0.44884 0.62862
 C1141 C 1.03279 0.43851 0.58933
 C1142 C 1.00944 0.47187 0.58305
 C1143 C 0.99983 0.41612 0.59975
 C1144 C 1.00533 0.42697 0.63924
 C1145 C 0.98186 0.46039 0.63319
 C1146 C 0.97599 0.44976 0.59390
 H1147 H 1.02191 0.50983 0.63190
 H1148 H 1.06465 0.44786 0.64298
 H1149 H 1.01096 0.49032 0.55979
 H1150 H 0.99234 0.38878 0.59126
 H1151 H 1.00348 0.40865 0.66260
 H1152 H 0.94990 0.45019 0.57981
 C1153 C 1.00295 0.50805 0.89326
 C1154 C 1.03999 0.52083 0.87946
 C1155 C 1.03884 0.55121 0.90728
 C1156 C 1.00238 0.53857 0.92144
 C1157 C 1.02079 0.57639 0.88018
 C1158 C 1.02128 0.54586 0.85230
 C1159 C 0.98466 0.53326 0.86624
 C1160 C 0.98381 0.56369 0.89400
 H1161 H 0.99540 0.47980 0.89846
 H1162 H 1.06234 0.50263 0.87228
 H1163 H 0.99468 0.53536 0.94996
 H1164 H 1.02864 0.60449 0.87463
 H1165 H 1.02876 0.54886 0.82368
 H1166 H 0.96080 0.58149 0.90032
 C1167 C 0.48020 0.04429 0.40163
 C1168 C 0.51320 0.02124 0.41232
 C1169 C 0.53729 0.05364 0.40487
 C1170 C 0.50478 0.07694 0.39457
 C1171 C 0.54247 0.04225 0.36571
 C1172 C 0.51798 0.00958 0.37274
 C1173 C 0.48528 0.03263 0.36246
 C1174 C 0.50951 0.06506 0.35524
 H1175 H 0.45429 0.04509 0.41623
 H1176 H 0.51457 0.00327 0.43596
 H1177 H 0.49801 0.10470 0.40253
 H1178 H 0.56823 0.04199 0.35084
 H1179 H 0.52394 -0.01819 0.36398
 H1180 H 0.50785 0.08293 0.33153
   
