data_POSCAR
  _audit_creation_date              2014-09-24
  _audit_creation_method            'ToBaCCo'
  _symmetry_space_group_name_H-M    'P1'
  _symmetry_Int_Tables_number       1
  _symmetry_cell_setting            triclinic
  loop_
  _symmetry_equiv_pos_as_xyz
 x,y,z
_cell_length_a 35.9427
_cell_length_b 38.0130
_cell_length_c 35.4615
_cell_angle_alpha 88.927000
_cell_angle_beta 88.787500
_cell_angle_gamma 88.851800
loop_
  _atom_site_label
  _atom_site_type_symbol
  _atom_site_fract_x
  _atom_site_fract_y
  _atom_site_fract_z
C1 C 0.19131 0.53793 1.05812
 H2 H 0.18903 0.55587 1.03420
 C3 C 0.16456 0.53899 1.08717
 H4 H 0.14231 0.55853 1.08537
 C5 C 0.22358 0.49115 1.08894
 H6 H 0.24558 0.47148 1.08900
 C7 C 0.19829 0.49216 1.11931
 H8 H 0.20156 0.47287 1.14190
 N9 N 0.21994 0.51410 1.05932
 C10 C 0.30600 0.55923 0.98634
 H11 H 0.30645 0.54088 0.96337
 C12 C 0.33088 0.58692 0.98600
 H13 H 0.35049 0.58997 0.96260
 C14 C 0.28129 0.57642 1.04592
 H15 H 0.26246 0.57168 1.06955
 C16 C 0.30634 0.60397 1.04713
 H17 H 0.30648 0.62064 1.07156
 Zn18 Zn 0.25275 0.51383 1.01685
 N19 N 0.28182 0.55458 1.01595
 C20 C 0.22173 0.53922 0.94809
 N21 N 0.22289 0.51203 0.97356
 C22 C 0.20022 0.48405 0.97064
 C23 C 0.17502 0.48268 0.94128
 C24 C 0.19702 0.53890 0.91824
 C25 C 0.30849 0.47270 1.04996
 C26 C 0.33431 0.44511 1.05376
 C27 C 0.31715 0.42482 0.99252
 C28 C 0.29052 0.45208 0.99063
 N29 N 0.28654 0.47517 1.01929
 H30 H 0.23918 0.56170 0.95138
 H31 H 0.20116 0.46314 0.99175
 H32 H 0.15653 0.46062 0.94011
 H33 H 0.19654 0.56081 0.89829
 H34 H 0.30565 0.49212 1.07180
 H35 H 0.34992 0.44313 1.07945
 H36 H 0.32063 0.40778 0.96858
 H37 H 0.27375 0.45530 0.96581
 C38 C 0.33160 0.60923 1.01697
 C39 C 0.16765 0.51586 1.11855
 C40 C 0.33944 0.42073 1.02462
 C41 C 0.17292 0.51055 0.91477
 C42 C 0.80317 0.52979 -0.04453
 H43 H 0.80276 0.54744 -0.02093
 C44 C 0.83131 0.53214 -0.07216
 H45 H 0.85261 0.55163 -0.06950
 C46 C 0.77685 0.48176 -0.07541
 H47 H 0.75596 0.46177 -0.07621
 C48 C 0.80452 0.48315 -0.10364
 H49 H 0.80418 0.46454 -0.12637
 N50 N 0.77669 0.50489 -0.04659
 C51 C 0.68494 0.54401 0.02483
 H52 H 0.68174 0.52192 0.04422
 C53 C 0.66187 0.57376 0.02856
 H54 H 0.64088 0.57461 0.05091
 C55 C 0.71544 0.56945 -0.02868
 H56 H 0.73606 0.56749 -0.05118
 C57 C 0.69229 0.59935 -0.02654
 H58 H 0.69532 0.62043 -0.04728
 Zn59 Zn 0.74183 0.50136 -0.00598
 N60 N 0.71162 0.54268 -0.00294
 C61 C 0.76391 0.51532 0.06913
 N62 N 0.76933 0.49452 0.03862
 C63 C 0.79624 0.46890 0.03816
 C64 C 0.81920 0.46358 0.06907
 C65 C 0.78571 0.51042 0.10097
 C66 C 0.68543 0.46628 -0.04152
 C67 C 0.65836 0.44099 -0.04595
 C68 C 0.68241 0.40934 0.00831
 C69 C 0.70900 0.43536 0.01180
 N70 N 0.70976 0.46329 -0.01276
 H71 H 0.74303 0.53608 0.06887
 H72 H 0.80038 0.45310 0.01330
 H73 H 0.84131 0.44390 0.06730
 H74 H 0.78037 0.52695 0.12507
 H75 H 0.68649 0.48893 -0.06043
 H76 H 0.63879 0.44416 -0.06862
 H77 H 0.68129 0.38796 0.02890
 H78 H 0.72819 0.43377 0.03483
 C79 C 0.66545 0.60175 0.00260
 C80 C 0.83242 0.50842 -0.10209
 C81 C 0.65618 0.41239 -0.02041
 C82 C 0.81420 0.48455 0.10113
 C83 C -0.03697 0.29588 0.46081
 H84 H -0.05366 0.29447 0.48653
 C85 C -0.04470 0.32186 0.43373
 H86 H -0.06670 0.34056 0.44054
 C87 C 0.01388 0.27431 0.42415
 H88 H 0.03699 0.25601 0.42069
 C89 C 0.00676 0.29947 0.39585
 H90 H 0.02409 0.29839 0.37065
 N91 N -0.00808 0.27286 0.45574
 C92 C -0.03931 0.18211 0.52522
 H93 H -0.01828 0.18184 0.54662
 C94 C -0.06572 0.15560 0.52506
 H95 H -0.06497 0.13495 0.54650
 C96 C -0.06463 0.20829 0.47000
 H97 H -0.06366 0.22838 0.44808
 C98 C -0.09117 0.18211 0.46852
 H99 H -0.11084 0.18265 0.44578
 Zn100 Zn -0.00024 0.24050 0.49607
 N101 N -0.03924 0.20774 0.49793
 C102 C -0.02444 0.26329 0.56921
 N103 N 0.00057 0.26762 0.54027
 C104 C 0.02503 0.29444 0.53980
 C105 C 0.02446 0.31875 0.56880
 C106 C -0.02575 0.28686 0.59905
 C107 C 0.04830 0.19398 0.45863
 C108 C 0.07940 0.17188 0.45373
 C109 C 0.10260 0.19180 0.51291
 C110 C 0.07133 0.21409 0.51631
 N111 N 0.04482 0.21454 0.48949
 H112 H -0.04415 0.24223 0.56873
 H113 H 0.04411 0.29766 0.51603
 H114 H 0.04319 0.34068 0.56687
 H115 H -0.04594 0.28302 0.62176
 H116 H 0.02645 0.19429 0.43810
 H117 H 0.08155 0.15605 0.42870
 H118 H 0.12243 0.19072 0.53547
 H119 H 0.06758 0.22999 0.54110
 C120 C -0.09168 0.15515 0.49606
 C121 C -0.02277 0.32440 0.40022
 C122 C 0.10675 0.16987 0.48151
 C123 C -0.00149 0.31546 0.59880
 C124 C 0.97647 0.68603 0.54695
 H125 H 0.95687 0.68885 0.52429
 C126 C 0.97198 0.65940 0.57421
 H127 H 0.94888 0.64177 0.57205
 C128 C 1.03175 0.70425 0.57536
 H129 H 1.05549 0.72121 0.57522
 C130 C 1.02812 0.67818 0.60346
 H131 H 1.04877 0.67610 0.62521
 N132 N 1.00608 0.70767 0.54782
 C133 C 0.97896 0.80166 0.48097
 H134 H 1.00249 0.80103 0.46144
 C135 C 0.95407 0.83024 0.48038
 H136 H 0.95838 0.85142 0.46001
 C137 C 0.94527 0.77496 0.53169
 H138 H 0.94244 0.75367 0.55210
 C139 C 0.91942 0.80300 0.53186
 H140 H 0.89680 0.80312 0.55252
 Zn141 Zn 1.01220 0.73957 0.50653
 N142 N 0.97434 0.77487 0.50646
 C143 C 0.98518 0.72039 0.43493
 N144 N 1.01031 0.71289 0.46226
 C145 C 1.03341 0.68422 0.46021
 C146 C 1.03132 0.66130 0.43013
 C147 C 0.98240 0.69829 0.40410
 C148 C 1.06309 0.78501 0.53752
 C149 C 1.09350 0.80727 0.53738
 C150 C 1.11346 0.78373 0.47730
 C151 C 1.08281 0.76164 0.47877
 N152 N 1.05804 0.76313 0.50828
 H153 H 0.96663 0.74296 0.43743
 H154 H 1.05288 0.67876 0.48253
 H155 H 1.04959 0.63831 0.42919
 H156 H 0.96166 0.70405 0.38304
 H157 H 1.04263 0.78613 0.56031
 H158 H 1.09663 0.82486 0.56070
 H159 H 1.13168 0.78347 0.45261
 H160 H 1.07783 0.74471 0.45536
 C161 C 0.92402 0.83132 0.50627
 C162 C 0.99818 0.65494 0.60288
 C163 C 1.11859 0.80762 0.50641
 C164 C 1.00524 0.66801 0.40185
 C165 C 0.46548 -0.02958 0.28910
 H166 H 0.48304 -0.05302 0.28843
 C167 C 0.43387 -0.02849 0.31276
 H168 H 0.42721 -0.05118 0.33036
 C169 C 0.45404 0.02932 0.26870
 H170 H 0.46245 0.05209 0.25221
 C171 C 0.42259 0.03170 0.29235
 H172 H 0.40677 0.05622 0.29354
 N173 N 0.47501 -0.00087 0.26780
 C174 C 0.55490 -0.04349 0.18484
 H175 H 0.57835 -0.02683 0.18958
 C176 C 0.55781 -0.06974 0.15787
 H177 H 0.58448 -0.07325 0.14374
 C178 C 0.49292 -0.05890 0.19979
 H179 H 0.46731 -0.05395 0.21547
 C180 C 0.49426 -0.08505 0.17259
 H181 H 0.46880 -0.09877 0.16796
 Zn182 Zn 0.52091 -0.00162 0.24043
 N183 N 0.52306 -0.03890 0.20557
 C184 C 0.58257 -0.03552 0.27621
 N185 N 0.55910 -0.00697 0.27637
 C186 C 0.56054 0.01737 0.30390
 C187 C 0.58673 0.01386 0.33235
 C188 C 0.60917 -0.04006 0.30412
 C189 C 0.50183 0.04452 0.18266
 C190 C 0.50211 0.07480 0.15991
 C191 C 0.55108 0.09731 0.19773
 C192 C 0.55021 0.06623 0.21954
 N193 N 0.52542 0.04083 0.21195
 H194 H 0.58033 -0.05524 0.25493
 H195 H 0.54088 0.03930 0.30404
 H196 H 0.58696 0.03323 0.35433
 H197 H 0.62774 -0.06283 0.30330
 H198 H 0.48270 0.02375 0.17699
 H199 H 0.48352 0.07657 0.13631
 H200 H 0.57035 0.11756 0.20480
 H201 H 0.56910 0.06265 0.24264
 C202 C 0.52714 -0.09126 0.15077
 C203 C 0.41249 0.00272 0.31512
 C204 C 0.52662 0.10203 0.16750
 C205 C 0.61145 -0.01524 0.33277
 C206 C 0.52986 -0.01281 0.69525
 H207 H 0.51211 -0.03542 0.69780
 C208 C 0.56061 -0.01341 0.67051
 H209 H 0.56641 -0.03656 0.65387
 C210 C 0.54309 0.04542 0.71287
 H211 H 0.53574 0.06849 0.72898
 C212 C 0.57374 0.04615 0.68804
 H213 H 0.59018 0.06968 0.68557
 N214 N 0.52188 0.01623 0.71597
 C215 C 0.44456 -0.03122 0.79691
 H216 H 0.42015 -0.01497 0.79143
 C217 C 0.44249 -0.05880 0.82329
 H218 H 0.41592 -0.06415 0.83688
 C219 C 0.50865 -0.04342 0.78560
 H220 H 0.53462 -0.03654 0.77168
 C221 C 0.50810 -0.07066 0.81259
 H222 H 0.53394 -0.08435 0.81899
 Zn223 Zn 0.47863 0.01647 0.74715
 N224 N 0.47714 -0.02434 0.77835
 C225 C 0.41888 -0.01170 0.70853
 N226 N 0.43704 0.01856 0.71515
 C227 C 0.42822 0.04903 0.69632
 C228 C 0.39931 0.05004 0.67051
 C229 C 0.39027 -0.01199 0.68262
 C230 C 0.50954 0.05260 0.80405
 C231 C 0.51256 0.07645 0.83303
 C232 C 0.45494 0.10432 0.81337
 C233 C 0.45275 0.07949 0.78485
 N234 N 0.47991 0.05427 0.78086
 H235 H 0.42738 -0.03601 0.72237
 H236 H 0.44412 0.07238 0.70079
 H237 H 0.39283 0.07433 0.65537
 H238 H 0.37639 -0.03640 0.67738
 H239 H 0.53049 0.03204 0.80048
 H240 H 0.53609 0.07436 0.85158
 H241 H 0.43284 0.12383 0.81696
 H242 H 0.42883 0.07974 0.76693
 C243 C 0.47469 -0.07866 0.83208
 C244 C 0.58272 0.01648 0.66646
 C245 C 0.48484 0.10243 0.83823
 C246 C 0.38029 0.01912 0.66318
 Si247 Si 0.24374 -0.01013 0.47904
 Si248 Si 0.75874 -0.01015 0.51220
 Si249 Si 0.49573 0.25696 1.00148
 Si250 Si 0.49857 0.75637 -0.01048
 Si251 Si 0.98075 0.49901 0.25777
 Si252 Si 0.01441 0.48067 0.75000
 C253 C 0.17294 0.14983 0.49383
 C254 C 0.13769 0.14321 0.47918
 C255 C 0.13141 0.11003 0.46383
 C256 C 0.15919 0.08367 0.46414
 C257 C 0.19397 0.09011 0.48027
 C258 C 0.20080 0.12354 0.49440
 C259 C 0.22073 0.06269 0.48296
 C260 C 0.21239 0.02886 0.47080
 C261 C 0.17896 0.02363 0.45217
 C262 C 0.15237 0.05064 0.44924
 H263 H 0.10436 0.10403 0.45298
 H264 H 0.22740 0.12914 0.50653
 H265 H 0.24750 0.06760 0.49500
 H266 H 0.12617 0.04546 0.43605
 H267 H 0.17896 0.17529 0.50516
 H268 H 0.17273 -0.00188 0.44103
 C269 C 0.63837 0.65313 0.03739
 C270 C 0.63999 0.63256 0.00492
 C271 C 0.61610 0.64054 -0.02491
 C272 C 0.59008 0.66837 -0.02204
 C273 C 0.58879 0.68935 0.01056
 C274 C 0.61327 0.68163 0.04002
 C275 C 0.56239 0.71700 0.01348
 C276 C 0.53679 0.72311 -0.01532
 C277 C 0.53773 0.70164 -0.04705
 C278 C 0.56458 0.67490 -0.05077
 H279 H 0.61699 0.62431 -0.04975
 H280 H 0.61256 0.69721 0.06530
 H281 H 0.56105 0.73290 0.03852
 H282 H 0.56484 0.65880 -0.07567
 H283 H 0.65664 0.64713 0.06065
 H284 H 0.51743 0.70545 -0.06898
 C285 C 0.91363 -0.10348 0.50547
 C286 C 0.89872 -0.13739 0.50741
 C287 C 0.85987 -0.14103 0.51025
 C288 C 0.83622 -0.11111 0.51064
 C289 C 0.85167 -0.07721 0.50874
 C290 C 0.89036 -0.07369 0.50626
 C291 C 0.82824 -0.04730 0.50932
 C292 C 0.78941 -0.05057 0.51129
 C293 C 0.77425 -0.08433 0.51313
 C294 C 0.79743 -0.11436 0.51287
 H295 H 0.84810 -0.16708 0.51149
 H296 H 0.90265 -0.04788 0.50485
 H297 H 0.84057 -0.02160 0.50824
 H298 H 0.78501 -0.14010 0.51453
 H299 H 0.94345 -0.10002 0.50377
 H300 H 0.74449 -0.08762 0.51563
 C301 C 0.40059 0.39670 1.04885
 C302 C 0.36858 0.39216 1.02725
 C303 C 0.36525 0.36051 1.00753
 C304 C 0.39385 0.33481 1.00812
 C305 C 0.42533 0.33971 1.03046
 C306 C 0.42820 0.37050 1.05105
 C307 C 0.45425 0.31448 1.03050
 C308 C 0.45366 0.28604 1.00598
 C309 C 0.42207 0.28079 0.98441
 C310 C 0.39206 0.30474 0.98591
 H311 H 0.34075 0.35583 0.99128
 H312 H 0.45249 0.37491 1.06780
 H313 H 0.47841 0.31822 1.04768
 H314 H 0.36807 0.30040 0.96872
 H315 H 0.40508 0.42088 1.06350
 H316 H 0.42060 0.25838 0.96618
 C317 C 0.87793 0.10912 0.45864
 C318 C 0.88211 0.12578 0.49330
 C319 C 0.86161 0.11395 0.52511
 C320 C 0.83710 0.08584 0.52227
 C321 C 0.83352 0.06903 0.48733
 C322 C 0.85399 0.08089 0.45571
 C323 C 0.80968 0.04050 0.48461
 C324 C 0.78886 0.02890 0.51616
 C325 C 0.79220 0.04585 0.55067
 C326 C 0.81621 0.07411 0.55375
 H327 H 0.86450 0.12685 0.55187
 H328 H 0.85155 0.06830 0.42873
 H329 H 0.80744 0.02715 0.45803
 H330 H 0.81858 0.08664 0.58076
 H331 H 0.89375 0.11759 0.43389
 H332 H 0.77676 0.03695 0.57546
 C333 C 0.38509 0.63516 0.04929
 C334 C 0.36063 0.63596 0.01896
 C335 C 0.36545 0.66088 -0.01038
 C336 C 0.39490 0.68454 -0.00970
 C337 C 0.42023 0.68262 0.02029
 C338 C 0.41487 0.65813 0.04983
 C339 C 0.45085 0.70483 0.01993
 C340 C 0.45581 0.72978 -0.00923
 C341 C 0.43017 0.73221 -0.03846
 C342 C 0.39995 0.70962 -0.03879
 H343 H 0.34645 0.66160 -0.03375
 H344 H 0.43392 0.65647 0.07310
 H345 H 0.47106 0.70251 0.04216
 H346 H 0.38081 0.71150 -0.06197
 H347 H 0.38183 0.61591 0.07198
 H348 H 0.43391 0.75088 -0.06156
 C349 C 0.18257 -0.17224 0.48597
 C350 C 0.14746 -0.16492 0.50269
 C351 C 0.13893 -0.13036 0.51387
 C352 C 0.16441 -0.10339 0.50762
 C353 C 0.19925 -0.11073 0.48993
 C354 C 0.20829 -0.14541 0.47976
 C355 C 0.22397 -0.08313 0.48214
 C356 C 0.21350 -0.04834 0.49074
 C357 C 0.17981 -0.04186 0.51035
 C358 C 0.15529 -0.06902 0.51835
 H359 H 0.11180 -0.12403 0.52615
 H360 H 0.23493 -0.15167 0.46641
 H361 H 0.25096 -0.08872 0.46928
 H362 H 0.12902 -0.06305 0.53262
 H363 H 0.19006 -0.19869 0.47745
 H364 H 0.17207 -0.01558 0.51921
 C365 C 0.58847 0.40117 0.97298
 C366 C 0.62474 0.38776 0.97831
 C367 C 0.63025 0.35128 0.98417
 C368 C 0.59972 0.32868 0.98556
 C369 C 0.56339 0.34282 0.98123
 C370 C 0.55811 0.37894 0.97438
 C371 C 0.53275 0.32079 0.98455
 C372 C 0.53754 0.28485 0.99325
 C373 C 0.57373 0.27043 0.99462
 C374 C 0.60465 0.29225 0.99137
 H375 H 0.65816 0.34061 0.98788
 H376 H 0.53039 0.39013 0.97093
 H377 H 0.50523 0.33195 0.98035
 H378 H 0.63233 0.28070 0.99370
 H379 H 0.58342 0.42916 0.96890
 H380 H 0.57816 0.24238 0.99852
 C381 C 0.56017 0.15186 1.13431
 C382 C 0.52676 0.13465 1.14344
 C383 C 0.49344 0.14779 1.12788
 C384 C 0.49372 0.17598 1.10184
 C385 C 0.52755 0.19252 1.09214
 C386 C 0.56050 0.18073 1.10919
 C387 C 0.52804 0.21943 1.06436
 C388 C 0.49547 0.22860 1.04501
 C389 C 0.46190 0.21264 1.05565
 C390 C 0.46088 0.18692 1.08418
 H391 H 0.46725 0.13555 1.13530
 H392 H 0.58674 0.19299 1.10206
 H393 H 0.55398 0.23184 1.05692
 H394 H 0.43470 0.17453 1.09127
 H395 H 0.58634 0.14232 1.14551
 H396 H 0.43651 0.21918 1.04095
 C397 C -0.04011 0.61431 0.64424
 C398 C -0.00499 0.62540 0.63095
 C399 C 0.02708 0.60735 0.64377
 C400 C 0.02413 0.57862 0.66903
 C401 C -0.01137 0.56737 0.68153
 C402 C -0.04328 0.58551 0.66911
 C403 C -0.01433 0.53802 0.70598
 C404 C 0.01778 0.52042 0.71884
 C405 C 0.05289 0.53167 0.70628
 C406 C 0.05609 0.56057 0.68158
 H407 H 0.05436 0.61505 0.63341
 H408 H -0.07071 0.57743 0.67861
 H409 H -0.04156 0.52872 0.71460
 H410 H 0.08354 0.56870 0.67219
 H411 H -0.06528 0.62798 0.63548
 H412 H 0.07791 0.51794 0.71538
 C413 C 0.44922 0.89690 -0.10630
 C414 C 0.47371 0.89354 -0.13767
 C415 C 0.49780 0.86389 -0.13935
 C416 C 0.49791 0.83855 -0.11007
 C417 C 0.47272 0.84206 -0.07917
 C418 C 0.44842 0.87124 -0.07764
 C419 C 0.47270 0.81663 -0.05003
 C420 C 0.49822 0.78828 -0.05085
 C421 C 0.52377 0.78539 -0.08112
 C422 C 0.52324 0.81003 -0.11083
 H423 H 0.51652 0.86038 -0.16337
 H424 H 0.42925 0.87457 -0.05392
 H425 H 0.45330 0.81920 -0.02635
 H426 H 0.54309 0.80714 -0.13405
 H427 H 0.43102 0.91973 -0.10337
 H428 H 0.54441 0.76438 -0.08193
 C429 C 0.93608 0.37047 0.37212
 C430 C 0.97061 0.35184 0.37296
 C431 C 0.99869 0.36244 0.34671
 C432 C 0.99328 0.39169 0.32257
 C433 C 0.95949 0.41113 0.32435
 C434 C 0.93080 0.39981 0.34849
 C435 C 0.95540 0.44223 0.30287
 C436 C 0.98479 0.45422 0.27974
 C437 C 1.01731 0.43350 0.27598
 C438 C 1.02169 0.40260 0.29752
 H439 H 1.02588 0.34981 0.34621
 H440 H 0.90430 0.41391 0.34946
 H441 H 0.92999 0.45795 0.30542
 H442 H 1.04762 0.38768 0.29520
 H443 H 0.91243 0.36252 0.38930
 H444 H 1.03987 0.44143 0.25738
 C445 C 0.55605 0.88366 0.09271
 C446 C 0.52894 0.88253 0.12232
 C447 C 0.50317 0.85479 0.12212
 C448 C 0.50343 0.83037 0.09291
 C449 C 0.53059 0.83235 0.06371
 C450 C 0.55700 0.85881 0.06415
 C451 C 0.53017 0.80848 0.03396
 C452 C 0.50214 0.78343 0.03249
 C453 C 0.47523 0.78161 0.06164
 C454 C 0.47623 0.80449 0.09194
 H455 H 0.48295 0.85135 0.14481
 H456 H 0.57784 0.86096 0.04173
 H457 H 0.55069 0.81030 0.01118
 H458 H 0.45496 0.80269 0.11397
 H459 H 0.57585 0.90457 0.08998
 H460 H 0.45280 0.76320 0.06083
 C461 C -0.03945 0.35350 0.64303
 C462 C -0.00441 0.34276 0.62838
 C463 C 0.02759 0.35948 0.64083
 C464 C 0.02461 0.38697 0.66667
 C465 C -0.01078 0.39761 0.68096
 C466 C -0.04258 0.38054 0.66915
 C467 C -0.01379 0.42546 0.70637
 C468 C 0.01816 0.44259 0.71783
 C469 C 0.05307 0.43240 0.70291
 C470 C 0.05638 0.40453 0.67787
 H471 H 0.05485 0.35128 0.63027
 H472 H -0.06995 0.38846 0.67967
 H473 H -0.04099 0.43414 0.71662
 H474 H 0.08370 0.39701 0.66690
 H475 H -0.06466 0.34167 0.63355
 H476 H 0.07788 0.44602 0.71064
 C477 C 0.49279 0.11147 0.90692
 C478 C 0.48644 0.12595 0.87084
 C479 C 0.48258 0.16262 0.86617
 C480 C 0.48579 0.18467 0.89726
 C481 C 0.49211 0.16970 0.93345
 C482 C 0.49542 0.13312 0.93799
 C483 C 0.49521 0.19152 0.96455
 C484 C 0.49222 0.22815 0.96005
 C485 C 0.48672 0.24299 0.92407
 C486 C 0.48323 0.22140 0.89286
 H487 H 0.47798 0.17391 0.83831
 H488 H 0.50024 0.12126 0.96553
 H489 H 0.50017 0.17980 0.99208
 H490 H 0.47865 0.23340 0.86536
 H491 H 0.49553 0.08324 0.91108
 H492 H 0.48469 0.27129 0.92021
 C493 C 0.99728 0.65360 0.33367
 C494 C 1.00052 0.64238 0.37146
 C495 C 0.99873 0.60633 0.38049
 C496 C 0.99392 0.58170 0.35224
 C497 C 0.99114 0.59306 0.31420
 C498 C 0.99286 0.62911 0.30520
 C499 C 0.98685 0.56814 0.28592
 C500 C 0.98459 0.53221 0.29539
 C501 C 0.98752 0.52130 0.33327
 C502 C 0.99203 0.54582 0.36145
 H503 H 1.00058 0.59750 0.40966
 H504 H 0.99075 0.63834 0.27622
 H505 H 0.98581 0.57664 0.25662
 H506 H 0.99428 0.53667 0.39046
 H507 H 0.99867 0.68129 0.32613
 H508 H 0.98679 0.49382 0.34142
 C509 C 1.14899 0.50607 0.18509
 C510 C 1.14000 0.51525 0.14754
 C511 C 1.10237 0.52231 0.13917
 C512 C 1.07440 0.51863 0.16698
 C513 C 1.08391 0.50974 0.20445
 C514 C 1.12134 0.50404 0.21331
 C515 C 1.05572 0.50559 0.23208
 C516 C 1.01821 0.50774 0.22202
 C517 C 1.00905 0.51673 0.18475
 C518 C 1.03690 0.52258 0.15755
 H519 H 1.09424 0.52815 0.11044
 H520 H 1.12917 0.49719 0.24190
 H521 H 1.06290 0.49949 0.26104
 H522 H 1.02907 0.52933 0.12893
 H523 H 1.17758 0.50140 0.19310
 H524 H 0.98040 0.51921 0.17628
 C525 C 0.61705 0.04588 0.61304
 C526 C 0.61389 0.01731 0.63853
 C527 C 0.63996 -0.01070 0.63654
 C528 C 0.66871 -0.01032 0.60909
 C529 C 0.67103 0.01818 0.58301
 C530 C 0.64527 0.04625 0.58540
 C531 C 0.69879 0.01796 0.55469
 C532 C 0.72442 -0.01021 0.55215
 C533 C 0.72292 -0.03780 0.57890
 C534 C 0.69507 -0.03800 0.60705
 H535 H 0.63788 -0.03265 0.65639
 H536 H 0.64674 0.06833 0.56568
 H537 H 0.70021 0.03956 0.53433
 H538 H 0.69403 -0.05984 0.62709
 H539 H 0.59708 0.06758 0.61396
 H540 H 0.74300 -0.05931 0.57808
 C541 C -0.12300 0.54152 0.85553
 C542 C -0.13672 0.50926 0.86935
 C543 C -0.12003 0.47773 0.85662
 C544 C -0.08983 0.47838 0.83089
 C545 C -0.07611 0.51098 0.81745
 C546 C -0.09300 0.54238 0.82982
 C547 C -0.04535 0.51160 0.79238
 C548 C -0.02859 0.48006 0.78013
 C549 C -0.04188 0.44788 0.79423
 C550 C -0.07252 0.44698 0.81908
 H551 H -0.12986 0.45268 0.86751
 H552 H -0.08290 0.56760 0.81975
 H553 H -0.03404 0.53659 0.78313
 H554 H -0.08232 0.42176 0.82949
 H555 H -0.13559 0.56615 0.86454
 H556 H -0.02825 0.42334 0.78642
 C557 C 0.38137 0.03477 0.36812
 C558 C 0.38198 0.00614 0.34363
 C559 C 0.35442 -0.01952 0.34763
 C560 C 0.32681 -0.01676 0.37620
 C561 C 0.32728 0.01166 0.40133
 C562 C 0.35439 0.03744 0.39682
 C563 C 0.30110 0.01352 0.43106
 C564 C 0.27435 -0.01254 0.43616
 C565 C 0.27260 -0.03967 0.41006
 C566 C 0.29891 -0.04198 0.38044
 H567 H 0.35458 -0.04154 0.32863
 H568 H 0.35503 0.05942 0.41579
 H569 H 0.30214 0.03486 0.45088
 H570 H 0.29762 -0.06358 0.36104
 H571 H 0.40252 0.05463 0.36571
 H572 H 0.25117 -0.05914 0.41247
 C573 C 0.12543 0.54211 0.87499
 C574 C 0.14471 0.51076 0.88469
 C575 C 0.13616 0.47958 0.86620
 C576 C 0.10860 0.47966 0.83872
 C577 C 0.08936 0.51134 0.82940
 C578 C 0.09808 0.54241 0.84760
 C579 C 0.06148 0.51135 0.80232
 C580 C 0.05279 0.48018 0.78426
 C581 C 0.07167 0.44875 0.79382
 C582 C 0.09958 0.44851 0.82069
 H583 H 0.15104 0.45530 0.87308
 H584 H 0.08351 0.56690 0.84090
 H585 H 0.04640 0.53553 0.79543
 H586 H 0.11380 0.42392 0.82768
 H587 H 0.13096 0.56637 0.88919
 H588 H 0.06455 0.42426 0.78098
 C589 C 0.64516 -0.05383 0.37963
 C590 C 0.63860 -0.02022 0.36355
 C591 C 0.65753 0.00865 0.37759
 C592 C 0.68220 0.00412 0.40754
 C593 C 0.68827 -0.02973 0.42367
 C594 C 0.66976 -0.05855 0.40937
 C595 C 0.71221 -0.03410 0.45426
 C596 C 0.73029 -0.00514 0.46887
 C597 C 0.72401 0.02840 0.45269
 C598 C 0.70043 0.03298 0.42211
 H599 H 0.65308 0.03464 0.36519
 H600 H 0.67398 -0.08467 0.42146
 H601 H 0.71608 -0.05992 0.46691
 H602 H 0.69589 0.05918 0.41033
 H603 H 0.63061 -0.07644 0.36975
 H604 H 0.73652 0.05138 0.46421
 C605 C 0.85550 0.44752 0.14312
 C606 C 0.83979 0.48062 0.13352
 C607 C 0.85020 0.51026 0.15383
 C608 C 0.87700 0.50715 0.18195
 C609 C 0.89396 0.47406 0.18975
 C610 C 0.88248 0.44431 0.17078
 C611 C 0.92326 0.47154 0.21515
 C612 C 0.93564 0.50161 0.23305
 C613 C 0.91742 0.53405 0.22671
 C614 C 0.88827 0.53684 0.20130
 H615 H 0.83887 0.53609 0.14669
 H616 H 0.89487 0.41865 0.17681
 H617 H 0.93761 0.44648 0.21944
 H618 H 0.87540 0.56240 0.19586
 H619 H 0.84733 0.42404 0.12889
 H620 H 0.92660 0.55758 0.24001
 C621 C 0.32256 0.04352 0.63286
 C622 C 0.35188 0.01854 0.63363
 C623 C 0.35433 -0.00720 0.60578
 C624 C 0.32802 -0.00795 0.57726
 C625 C 0.29825 0.01697 0.57683
 C626 C 0.29571 0.04253 0.60489
 C627 C 0.27188 0.01603 0.54816
 C628 C 0.27600 -0.00852 0.51921
 C629 C 0.30535 -0.03334 0.52024
 C630 C 0.33111 -0.03316 0.54904
 H631 H 0.37719 -0.02626 0.60595
 H632 H 0.27319 0.06191 0.60499
 H633 H 0.24832 0.03415 0.54869
 H634 H 0.35366 -0.05251 0.54903
 H635 H 0.32022 0.06350 0.65420
 H636 H 0.30857 -0.05285 0.49847
   
