data_POSCAR
  _audit_creation_date              2014-09-24
  _audit_creation_method            'ToBaCCo'
  _symmetry_space_group_name_H-M    'P1'
  _symmetry_Int_Tables_number       1
  _symmetry_cell_setting            triclinic
  loop_
  _symmetry_equiv_pos_as_xyz
 x,y,z
_cell_length_a 42.0929
_cell_length_b 31.2811
_cell_length_c 27.8854
_cell_angle_alpha 89.971300
_cell_angle_beta 90.021600
_cell_angle_gamma 90.050300
loop_
  _atom_site_label
  _atom_site_type_symbol
  _atom_site_fract_x
  _atom_site_fract_y
  _atom_site_fract_z
C1 C 0.22487 0.22627 0.22753
 C2 C 0.22522 0.27175 0.22741
 C3 C 0.24998 0.29356 0.25048
 C4 C 0.27475 0.27184 0.27355
 C5 C 0.27515 0.22636 0.27343
 C6 C 0.25002 0.20461 0.25048
 H7 H 0.25004 0.16998 0.25048
 H8 H 0.24996 0.32825 0.25048
 C9 C 0.77612 0.27425 0.22985
 C10 C 0.77765 0.22889 0.23424
 C11 C 0.75413 0.20711 0.26026
 C12 C 0.72861 0.22880 0.28126
 C13 C 0.72669 0.27371 0.27681
 C14 C 0.75006 0.29566 0.25071
 H15 H 0.74879 0.33026 0.24941
 H16 H 0.75493 0.17250 0.26236
 C17 C 0.72801 0.72817 0.72182
 C18 C 0.72606 0.77308 0.72621
 C19 C 0.74938 0.79506 0.75236
 C20 C 0.77547 0.77369 0.77326
 C21 C 0.77705 0.72833 0.76889
 C22 C 0.75355 0.70652 0.74288
 H23 H 0.75438 0.67191 0.74078
 H24 H 0.74809 0.82965 0.75361
 C25 C 0.27123 0.77315 0.72091
 C26 C 0.27233 0.72807 0.72319
 C27 C 0.24841 0.70590 0.74785
 C28 C 0.22298 0.72733 0.77034
 C29 C 0.22244 0.77288 0.76863
 C30 C 0.24643 0.79487 0.74381
 H31 H 0.24603 0.82954 0.74282
 H32 H 0.24927 0.67127 0.74793
 O33 O 0.96946 -0.00735 -0.05924
 O34 O 1.03035 0.05424 0.00581
 O35 O 1.03136 -0.00708 -0.05739
 O36 O 0.96856 0.05382 0.00404
 O37 O 0.96798 0.00591 0.06240
 O38 O 1.03078 -0.05498 0.00096
 O39 O 1.02978 0.00635 0.06417
 O40 O 0.96886 -0.05526 -0.00090
 Cu41 Cu 1.00001 0.02821 -0.03261
 Cu42 Cu 0.99930 -0.02935 0.03752
 C43 C 0.95884 -0.04166 -0.04101
 C44 C 1.04029 0.04075 0.04601
 C45 C 1.04168 -0.04130 -0.03859
 C46 C 0.95771 0.04017 0.04363
 O47 O 0.46781 0.49240 0.44187
 O48 O 0.53081 0.55453 0.50154
 O49 O 0.52974 0.49212 0.43984
 O50 O 0.46899 0.55505 0.50333
 O51 O 0.46957 0.50839 0.56293
 O52 O 0.53034 0.44544 0.49942
 O53 O 0.53140 0.50785 0.56113
 O54 O 0.46840 0.44573 0.50146
 Cu55 Cu 0.49927 0.52821 0.46561
 Cu56 Cu 0.49998 0.47212 0.53723
 C57 C 0.45744 0.45861 0.46161
 C58 C 0.54173 0.54168 0.54142
 C59 C 0.54035 0.45822 0.45896
 C60 C 0.45905 0.54237 0.54385
 O61 O -0.03084 0.55314 -0.00238
 O62 O 0.03226 0.49172 0.05789
 O63 O 0.03094 0.55336 -0.00492
 O64 O -0.02966 0.49179 0.06074
 O65 O -0.03077 0.44411 0.00223
 O66 O 0.02987 0.50572 -0.06348
 O67 O 0.03116 0.44407 -0.00065
 O68 O -0.03193 0.50546 -0.06091
 Cu69 Cu 0.00079 0.52728 0.03377
 Cu70 Cu -0.00053 0.47000 -0.03657
 C71 C -0.04199 0.53969 -0.04187
 C72 C 0.04239 0.45756 0.03876
 C73 C 0.04059 0.54000 -0.04530
 C74 C -0.04049 0.45761 0.04253
 O75 O 0.53217 1.00669 0.43929
 O76 O 0.46888 0.94427 0.49789
 O77 O 0.47039 1.00673 0.43606
 O78 O 0.53080 0.94435 0.50113
 O79 O 0.52951 0.99115 0.56051
 O80 O 0.46910 1.05353 0.49545
 O81 O 0.46760 0.99108 0.55726
 O82 O 0.53087 1.05349 0.49868
 Cu83 Cu 0.50068 0.97076 0.46263
 Cu84 Cu 0.49912 1.02700 0.53399
 C85 C 0.54218 1.04064 0.45907
 C86 C 0.45753 0.95717 0.53745
 C87 C 0.45959 1.04071 0.45474
 C88 C 0.54041 0.95727 0.54174
 C89 C 1.14412 0.19000 0.18788
 C90 C 1.15184 0.15354 0.16136
 C91 C 1.18352 0.14066 0.15773
 C92 C 1.20749 0.16438 0.17995
 C93 C 1.20027 0.20192 0.20587
 C94 C 1.16804 0.21384 0.21018
 C95 C 1.12738 0.12944 0.13747
 C96 C 1.10717 0.10913 0.11698
 C97 C 1.08376 0.08527 0.09254
 C98 C 1.06388 0.06491 0.07139
 H99 H 1.11959 0.19993 0.19149
 H100 H 1.18977 0.11247 0.13724
 H101 H 1.23184 0.15416 0.17501
 H102 H 1.16109 0.24089 0.23192
 C103 C 0.64741 0.68299 0.68820
 C104 C 0.65555 0.65483 0.65119
 C105 C 0.68738 0.65040 0.63753
 C106 C 0.71099 0.67417 0.66066
 C107 C 0.70295 0.70279 0.69751
 C108 C 0.67099 0.70674 0.71137
 C109 C 0.63122 0.63043 0.62736
 C110 C 0.61078 0.61005 0.60752
 C111 C 0.58677 0.58622 0.58439
 C112 C 0.56622 0.56588 0.56473
 H113 H 0.62287 0.68653 0.69919
 H114 H 0.69394 0.62865 0.60899
 H115 H 0.73550 0.67062 0.64951
 H116 H 0.66434 0.72812 0.74020
 C117 C -0.18431 0.35838 0.15531
 C118 C -0.15236 0.34693 0.15987
 C119 C -0.14394 0.31206 0.18851
 C120 C -0.16738 0.28833 0.21200
 C121 C -0.19986 0.29866 0.20679
 C122 C -0.20784 0.33473 0.17876
 C123 C -0.12822 0.37085 0.13501
 C124 C -0.10801 0.39075 0.11399
 C125 C -0.08441 0.41398 0.08921
 C126 C -0.06431 0.43385 0.06793
 H127 H -0.19109 0.38539 0.13324
 H128 H -0.11921 0.30331 0.19291
 H129 H -0.15985 0.26267 0.23539
 H130 H -0.23239 0.34378 0.17321
 C131 C 0.33637 0.85351 0.69530
 C132 C 0.34270 0.84552 0.64684
 C133 C 0.32527 0.81429 0.62227
 C134 C 0.30174 0.79095 0.64614
 C135 C 0.29559 0.79844 0.69496
 C136 C 0.31289 0.83018 0.71921
 C137 C 0.36719 0.86925 0.62255
 C138 C 0.38782 0.88923 0.60260
 C139 C 0.41208 0.91276 0.57963
 C140 C 0.43282 0.93297 0.56027
 H141 H 0.34969 0.87762 0.71465
 H142 H 0.32990 0.80793 0.58473
 H143 H 0.28838 0.76699 0.62664
 H144 H 0.30850 0.83642 0.75684
 C145 C -0.17319 0.68178 -0.13039
 C146 C -0.15409 0.65278 -0.15545
 C147 C -0.15788 0.64795 -0.20504
 C148 C -0.18048 0.67230 -0.22958
 C149 C -0.19936 0.70197 -0.20478
 C150 C -0.19583 0.70613 -0.15487
 C151 C -0.13038 0.62826 -0.13043
 C152 C -0.11034 0.60784 -0.10974
 C153 C -0.08670 0.58402 -0.08581
 C154 C -0.06636 0.56375 -0.06561
 H155 H -0.17053 0.68566 -0.09199
 H156 H -0.14325 0.62555 -0.22475
 H157 H -0.18292 0.66853 -0.26801
 H158 H -0.21047 0.72839 -0.13501
 C159 C 0.35594 1.19038 0.31306
 C160 C 0.34825 1.15387 0.33958
 C161 C 0.31659 1.14086 0.34323
 C162 C 0.29260 1.16450 0.32101
 C163 C 0.29978 1.20209 0.29509
 C164 C 0.33200 1.21414 0.29076
 C165 C 0.37274 1.12982 0.36344
 C166 C 0.39294 1.10950 0.38390
 C167 C 0.41632 1.08558 0.40829
 C168 C 0.43612 1.06509 0.42940
 H169 H 0.38047 1.20040 0.30943
 H170 H 0.31036 1.11262 0.36372
 H171 H 0.26825 1.15419 0.32596
 H172 H 0.33892 1.24124 0.26901
 C173 C 1.17273 -0.18272 -0.12946
 C174 C 1.15403 -0.15262 -0.15366
 C175 C 1.15819 -0.14628 -0.20296
 C176 C 1.18070 -0.17023 -0.22811
 C177 C 1.19914 -0.20103 -0.20423
 C178 C 1.19528 -0.20668 -0.15456
 C179 C 1.13030 -0.12858 -0.12815
 C180 C 1.11020 -0.10851 -0.10718
 C181 C 1.08647 -0.08506 -0.08301
 C182 C 1.06607 -0.06507 -0.06262
 H183 H 1.16977 -0.18778 -0.09128
 H184 H 1.14388 -0.12304 -0.22203
 H185 H 1.18338 -0.16533 -0.26634
 H186 H 1.20957 -0.22986 -0.13539
 C187 C 0.65859 0.35072 0.29752
 C188 C 0.65353 0.34602 0.34688
 C189 C 0.67258 0.31798 0.37340
 C190 C 0.69650 0.29460 0.35068
 C191 C 0.70149 0.29879 0.30107
 C192 C 0.68251 0.32731 0.27472
 C193 C 0.62894 0.37008 0.37042
 C194 C 0.60844 0.39020 0.39041
 C195 C 0.58456 0.41378 0.41408
 C196 C 0.56430 0.43400 0.43449
 H197 H 0.64403 0.37240 0.27667
 H198 H 0.66898 0.31425 0.41165
 H199 H 0.71119 0.27329 0.37179
 H200 H 0.68601 0.33105 0.23647
 C201 C 0.85538 -0.18813 -0.18569
 C202 C 0.84693 -0.15323 -0.15717
 C203 C 0.81496 -0.14194 -0.15251
 C204 C 0.79145 -0.16576 -0.17577
 C205 C 0.79946 -0.20183 -0.20373
 C206 C 0.83196 -0.21204 -0.20899
 C207 C 0.87107 -0.12908 -0.13258
 C208 C 0.89126 -0.10897 -0.11179
 C209 C 0.91486 -0.08552 -0.08727
 C210 C 0.93498 -0.06551 -0.06620
 H211 H 0.88013 -0.19676 -0.19017
 H212 H 0.80815 -0.11491 -0.13052
 H213 H 0.76689 -0.15682 -0.17018
 H214 H 0.83951 -0.23770 -0.23234
 C215 C 0.33867 0.35351 0.30104
 C216 C 0.34381 0.34648 0.35002
 C217 C 0.32581 0.31569 0.37439
 C218 C 0.30299 0.29170 0.34974
 C219 C 0.29820 0.29804 0.30036
 C220 C 0.31591 0.32954 0.27636
 C221 C 0.36785 0.37052 0.37495
 C222 C 0.38821 0.39067 0.39532
 C223 C 0.41224 0.41428 0.41871
 C224 C 0.43285 0.43449 0.43839
 H225 H 0.35243 0.37728 0.28186
 H226 H 0.32952 0.31008 0.41232
 H227 H 0.28928 0.26793 0.36899
 H228 H 0.31250 0.33496 0.23834
 C229 C 0.14294 0.68975 -0.18838
 C230 C 0.15122 0.65366 -0.16160
 C231 C 0.18308 0.64150 -0.15816
 C232 C 0.20664 0.66556 -0.18091
 C233 C 0.19884 0.70274 -0.20716
 C234 C 0.16644 0.71393 -0.21120
 C235 C 0.12712 0.62917 -0.13738
 C236 C 0.10712 0.60862 -0.11672
 C237 C 0.08387 0.58460 -0.09214
 C238 C 0.06409 0.56416 -0.07088
 H239 H 0.11827 0.69911 -0.19187
 H240 H 0.18976 0.61358 -0.13749
 H241 H 0.23114 0.65587 -0.17621
 H242 H 0.15902 0.74059 -0.23322
 C243 C 0.68788 1.15072 0.36508
 C244 C 0.65607 1.15508 0.35119
 C245 C 0.64798 1.18340 0.31428
 C246 C 0.67158 1.20733 0.29139
 C247 C 0.70351 1.20341 0.30545
 C248 C 0.71150 1.17467 0.34225
 C249 C 0.63175 1.13038 0.37462
 C250 C 0.61131 1.10973 0.39412
 C251 C 0.58729 1.08560 0.41684
 C252 C 0.56673 1.06504 0.43615
 H253 H 0.69440 1.12884 0.39356
 H254 H 0.62347 1.18689 0.30311
 H255 H 0.66496 1.22880 0.26259
 H256 H 0.73598 1.17113 0.35354
 C257 C 0.16124 0.35321 0.19986
 C258 C 0.15613 0.34619 0.15088
 C259 C 0.17416 0.31549 0.12653
 C260 C 0.19699 0.29157 0.15120
 C261 C 0.20176 0.29788 0.20058
 C262 C 0.18401 0.32930 0.22456
 C263 C 0.13207 0.37015 0.12592
 C264 C 0.11170 0.39020 0.10549
 C265 C 0.08765 0.41367 0.08200
 C266 C 0.06702 0.43371 0.06219
 H267 H 0.14746 0.37691 0.21903
 H268 H 0.17046 0.30989 0.08860
 H269 H 0.21072 0.26786 0.13196
 H270 H 0.18741 0.33471 0.26258
 C271 C 0.65799 0.85007 0.70500
 C272 C 0.65309 0.84541 0.65560
 C273 C 0.67220 0.81739 0.62923
 C274 C 0.69606 0.79399 0.65213
 C275 C 0.70090 0.79815 0.70179
 C276 C 0.68184 0.82664 0.72798
 C277 C 0.62858 0.86950 0.63184
 C278 C 0.60816 0.88960 0.61161
 C279 C 0.58439 0.91312 0.58757
 C280 C 0.56423 0.93324 0.56677
 H281 H 0.64338 0.87175 0.72573
 H282 H 0.66871 0.81369 0.59096
 H283 H 0.71081 0.77270 0.63114
 H284 H 0.68524 0.83036 0.76626
 C285 C 0.82709 0.18221 0.13338
 C286 C 0.84619 0.15312 0.15838
 C287 C 0.84251 0.14829 0.20799
 C288 C 0.82002 0.17272 0.23260
 C289 C 0.80114 0.20248 0.20787
 C290 C 0.80457 0.20664 0.15794
 C291 C 0.86978 0.12853 0.13326
 C292 C 0.88971 0.10807 0.11243
 C293 C 0.91323 0.08427 0.08826
 C294 C 0.93346 0.06407 0.06779
 H295 H 0.82967 0.18609 0.09497
 H296 H 0.85714 0.12583 0.22766
 H297 H 0.81766 0.16895 0.27105
 H298 H 0.78992 0.22896 0.13812
 C299 C 0.31470 0.64805 0.64413
 C300 C 0.34654 0.65589 0.65569
 C301 C 0.35419 0.68714 0.68976
 C302 C 0.33007 0.71056 0.71206
 C303 C 0.29809 0.70310 0.70022
 C304 C 0.29059 0.67145 0.66634
 C305 C 0.37126 0.63184 0.63244
 C306 C 0.39168 0.61149 0.61258
 C307 C 0.41533 0.58748 0.58894
 C308 C 0.43535 0.56690 0.56848
 H309 H 0.30852 0.62393 0.61785
 H310 H 0.37875 0.69338 0.69907
 H311 H 0.33631 0.73447 0.73852
 H312 H 0.26608 0.66525 0.65672
   
