data_POSCAR
  _audit_creation_date              2014-09-24
  _audit_creation_method            'ToBaCCo'
  _symmetry_space_group_name_H-M    'P1'
  _symmetry_Int_Tables_number       1
  _symmetry_cell_setting            triclinic
  loop_
  _symmetry_equiv_pos_as_xyz
 x,y,z
_cell_length_a 40.4632
_cell_length_b 40.4789
_cell_length_c 22.8081
_cell_angle_alpha 89.849500
_cell_angle_beta 90.078200
_cell_angle_gamma 120.178600
loop_
  _atom_site_label
  _atom_site_type_symbol
  _atom_site_fract_x
  _atom_site_fract_y
  _atom_site_fract_z
O1 O 0.45421 0.96338 0.55562
 O2 O 0.49127 1.03775 0.44113
 O3 O 0.45436 0.96336 0.44140
 O4 O 0.49136 1.03778 0.55541
 O5 O 0.54620 1.03814 0.55557
 O6 O 0.50922 0.96375 0.44163
 O7 O 0.54612 1.03814 0.44129
 O8 O 0.50905 0.96374 0.55585
 Cu9 Cu 0.46727 1.00054 0.49837
 Cu10 Cu 0.53318 1.00099 0.49861
 C11 C 0.47537 0.95103 0.57510
 C12 C 0.52492 1.05045 0.42179
 C13 C 0.47557 0.95102 0.42224
 C14 C 0.52501 1.05047 0.57480
 O15 O 0.03682 0.49090 0.55935
 O16 O -0.03752 0.45402 0.44502
 O17 O 0.03690 0.49106 0.44509
 O18 O -0.03759 0.45413 0.55930
 O19 O -0.03709 0.50901 0.55899
 O20 O 0.03736 0.54592 0.44485
 O21 O -0.03705 0.50889 0.44472
 O22 O 0.03732 0.54578 0.55912
 Cu23 Cu -0.00040 0.46699 0.50222
 Cu24 Cu 0.00018 0.53294 0.50189
 C25 C 0.04958 0.52454 0.57862
 C26 C -0.04978 0.47525 0.42549
 C27 C 0.04965 0.52471 0.42563
 C28 C -0.04987 0.47537 0.57850
 O29 O 0.54637 0.50866 0.44383
 O30 O 0.50909 0.54551 0.55788
 O31 O 0.54625 0.50845 0.55808
 O32 O 0.50904 0.54553 0.44363
 O33 O 0.45431 0.49067 0.44367
 O34 O 0.49151 0.45362 0.55807
 O35 O 0.45434 0.49067 0.55791
 O36 O 0.49164 0.45380 0.44381
 Cu37 Cu 0.53321 0.53257 0.50086
 Cu38 Cu 0.46743 0.46666 0.50088
 C39 C 0.52528 0.47504 0.42449
 C40 C 0.47544 0.52431 0.57719
 C41 C 0.52514 0.47478 0.57745
 C42 C 0.47541 0.52433 0.42427
 O43 O 0.38901 0.66788 -0.06749
 O44 O 0.39073 0.73240 -0.05024
 C45 C 0.36680 0.73767 -0.07878
 O46 O 0.33137 0.72042 -0.06775
 O47 O 0.26675 0.65742 -0.04974
 C48 C 0.26130 0.62813 -0.07808
 O49 O 0.27848 0.60996 -0.06706
 O50 O 0.34144 0.60852 -0.04958
 C51 C 0.37071 0.63243 -0.07822
 O52 O 0.39077 0.65774 0.04928
 O53 O 0.38928 0.72064 0.06656
 C54 C 0.37110 0.73780 0.07743
 O55 O 0.34183 0.73241 0.04892
 O56 O 0.27883 0.66782 0.06692
 C57 C 0.26163 0.63241 0.07814
 O58 O 0.26685 0.60848 0.04972
 O59 O 0.33140 0.61020 0.06717
 C60 C 0.36686 0.62849 0.07797
 Cr61 Cr 0.38780 0.69359 -0.00047
 Cr62 Cr 0.30576 0.69344 -0.00041
 Cr63 Cr 0.30562 0.61144 0.00004
 O64 O 0.33306 0.66616 -0.00028
 O65 O 0.61071 0.33215 -0.06751
 O66 O 0.60900 0.26764 -0.04999
 C67 C 0.63292 0.26241 -0.07849
 O68 O 0.66836 0.27961 -0.06743
 O69 O 0.73300 0.34257 -0.04969
 C70 C 0.73842 0.37185 -0.07826
 O71 O 0.72124 0.39001 -0.06743
 O72 O 0.65832 0.39150 -0.05001
 C73 C 0.62903 0.36759 -0.07852
 O74 O 0.60909 0.34219 0.04925
 O75 O 0.61054 0.27925 0.06679
 C76 C 0.62870 0.26206 0.07774
 O77 O 0.65797 0.26750 0.04927
 O78 O 0.72099 0.33209 0.06701
 C79 C 0.73823 0.36751 0.07798
 O80 O 0.73300 0.39145 0.04936
 O81 O 0.66849 0.38975 0.06676
 C82 C 0.63305 0.37143 0.07776
 Cr83 Cr 0.61198 0.30639 -0.00036
 Cr84 Cr 0.69401 0.30651 -0.00021
 Cr85 Cr 0.69418 0.38853 -0.00033
 O86 O 0.66672 0.33381 -0.00030
 C87 C 0.43452 0.86974 -0.29671
 N88 N 0.45804 0.87058 -0.25358
 N89 N 0.44463 0.84438 -0.21109
 C90 C 0.40731 0.81655 -0.21044
 N91 N 0.38379 0.81570 -0.25358
 N92 N 0.39720 0.84190 -0.29608
 C93 C 0.44889 0.89820 -0.34211
 C94 C 0.46098 0.92225 -0.38003
 C95 C 0.39286 0.78856 -0.16438
 C96 C 0.38086 0.76522 -0.12542
 C97 C 0.12887 0.56347 -0.29516
 N98 N 0.16652 0.58559 -0.30826
 N99 N 0.19271 0.59832 -0.26581
 C100 C 0.18203 0.58931 -0.20899
 N101 N 0.14439 0.56719 -0.19590
 N102 N 0.11821 0.55446 -0.23834
 C103 C 0.10063 0.54969 -0.34078
 C104 C 0.07671 0.53795 -0.37884
 C105 C 0.21016 0.60304 -0.16320
 C106 C 0.23361 0.61452 -0.12447
 C107 C 0.43504 0.56483 -0.29495
 N108 N 0.42152 0.54515 -0.24408
 N109 N 0.40872 0.55849 -0.20178
 C110 C 0.40905 0.59192 -0.20907
 N111 N 0.42256 0.61160 -0.25996
 N112 N 0.43537 0.59826 -0.30226
 C113 C 0.44911 0.55059 -0.34025
 C114 C 0.46106 0.53860 -0.37808
 C115 C 0.39549 0.60635 -0.16332
 C116 C 0.38416 0.61835 -0.12460
 C117 C 0.56566 0.13140 -0.29703
 N118 N 0.54121 0.13422 -0.25954
 N119 N 0.55450 0.16021 -0.21692
 C120 C 0.59265 0.18416 -0.21049
 N121 N 0.61711 0.18135 -0.24799
 N122 N 0.60381 0.15536 -0.29062
 C123 C 0.55136 0.10310 -0.34247
 C124 C 0.53933 0.07916 -0.38039
 C125 C 0.60696 0.21188 -0.16423
 C126 C 0.61888 0.23503 -0.12517
 C127 C 0.87080 0.43645 -0.29536
 N128 N 0.88158 0.44383 -0.23836
 N129 N 0.85540 0.43112 -0.19592
 C130 C 0.81765 0.41066 -0.20920
 N131 N 0.80686 0.40327 -0.26620
 N132 N 0.83304 0.41599 -0.30866
 C133 C 0.89905 0.45022 -0.34097
 C134 C 0.92298 0.46196 -0.37900
 C135 C 0.78952 0.39694 -0.16341
 C136 C 0.76609 0.38547 -0.12467
 C137 C 0.56466 0.43474 -0.29679
 N138 N 0.54542 0.39710 -0.28253
 N139 N 0.55823 0.38381 -0.23997
 C140 C 0.59067 0.40777 -0.21040
 N141 N 0.60992 0.44542 -0.22468
 N142 N 0.59710 0.45871 -0.26723
 C143 C 0.55063 0.44911 -0.34217
 C144 C 0.53871 0.46119 -0.38009
 C145 C 0.60426 0.39354 -0.16418
 C146 C 0.61560 0.38165 -0.12516
 C147 C 0.86950 0.43483 0.29669
 N148 N 0.87456 0.45607 0.24787
 N149 N 0.84857 0.44278 0.20515
 C150 C 0.81674 0.40783 0.20994
 N151 N 0.81166 0.38659 0.25876
 N152 N 0.83766 0.39989 0.30149
 C153 C 0.89769 0.44902 0.34238
 C154 C 0.92157 0.46099 0.38049
 C155 C 0.78891 0.39346 0.16372
 C156 C 0.76569 0.38152 0.12467
 C157 C 0.56404 0.12971 0.29529
 N158 N 0.55843 0.11890 0.23823
 N159 N 0.57118 0.14506 0.19568
 C160 C 0.58992 0.18283 0.20891
 N161 N 0.59553 0.19365 0.26598
 N162 N 0.58278 0.16748 0.30854
 C163 C 0.55019 0.10148 0.34102
 C164 C 0.53839 0.07757 0.37916
 C165 C 0.60363 0.21094 0.16302
 C166 C 0.61510 0.23438 0.12422
 C167 C 0.56625 0.43531 0.29629
 N168 N 0.54480 0.39916 0.27577
 N169 N 0.55805 0.38648 0.23314
 C170 C 0.59314 0.40958 0.20976
 N171 N 0.61460 0.44573 0.23030
 N172 N 0.60135 0.45840 0.27292
 C173 C 0.55183 0.44912 0.34173
 C174 C 0.53971 0.46087 0.37966
 C175 C 0.60726 0.39607 0.16347
 C176 C 0.61907 0.38479 0.12442
 C177 C 0.13064 0.56532 0.29723
 N178 N 0.15303 0.60349 0.28840
 N179 N 0.17902 0.61675 0.24567
 C180 C 0.18339 0.59226 0.21048
 N181 N 0.16101 0.55409 0.21933
 N182 N 0.13502 0.54083 0.26206
 C183 C 0.10233 0.55102 0.34276
 C184 C 0.07837 0.53900 0.38075
 C185 C 0.21110 0.60651 0.16409
 C186 C 0.23424 0.61839 0.12493
 C187 C 0.43553 0.86970 0.29467
 N188 N 0.40167 0.85899 0.26792
 N189 N 0.38891 0.83281 0.22558
 C190 C 0.40962 0.81655 0.20872
 N191 N 0.44347 0.82725 0.23549
 N192 N 0.45624 0.85344 0.27783
 C193 C 0.44947 0.89818 0.33983
 C194 C 0.46131 0.92224 0.37757
 C195 C 0.39605 0.78865 0.16272
 C196 C 0.38466 0.76535 0.12388
 C197 C 0.43466 0.56437 0.29564
 N198 N 0.45084 0.57209 0.24161
 N199 N 0.43746 0.58481 0.19908
 C200 C 0.40748 0.59018 0.20929
 N201 N 0.39129 0.58247 0.26332
 N202 N 0.40468 0.56974 0.30586
 C203 C 0.44896 0.55043 0.34125
 C204 C 0.46102 0.53859 0.37931
 C205 C 0.39300 0.60372 0.16335
 C206 C 0.38098 0.61504 0.12450
   
