data_POSCAR
  _audit_creation_date              2014-09-24
  _audit_creation_method            'ToBaCCo'
  _symmetry_space_group_name_H-M    'P1'
  _symmetry_Int_Tables_number       1
  _symmetry_cell_setting            triclinic
  loop_
  _symmetry_equiv_pos_as_xyz
 x,y,z
_cell_length_a 24.1738
_cell_length_b 24.1784
_cell_length_c 24.1529
_cell_angle_alpha 90.244300
_cell_angle_beta 90.034500
_cell_angle_gamma 89.921000
loop_
  _atom_site_label
  _atom_site_type_symbol
  _atom_site_fract_x
  _atom_site_fract_y
  _atom_site_fract_z
C1 C 0.49866 1.01020 -0.64323
 C2 C 0.44808 1.01305 -0.61489
 C3 C 0.44864 1.00545 -0.55720
 C4 C 0.49796 0.99244 -0.52833
 C5 C 0.54785 0.98904 -0.55905
 C6 C 0.54923 1.00098 -0.61611
 C7 C 0.49728 0.98480 -0.46624
 C8 C 0.54627 0.98934 -0.43422
 C9 C 0.54533 0.98291 -0.37642
 C10 C 0.49439 0.97600 -0.34990
 C11 C 0.44525 0.97087 -0.38002
 C12 C 0.44718 0.97363 -0.43799
 H13 H 0.49838 1.01086 -0.68799
 H14 H 0.41069 1.01260 -0.53484
 H15 H 0.58610 0.97931 -0.53852
 H16 H 0.58560 0.99767 -0.45335
 H17 H 0.49289 0.97552 -0.30508
 H18 H 0.40917 0.96636 -0.46032
 C19 C -0.64944 1.50733 -0.01762
 C20 C -0.62389 1.45584 -0.00905
 C21 C -0.56611 1.45522 -0.00093
 C22 C -0.53371 1.50364 -0.00720
 C23 C -0.56138 1.55399 -0.01867
 C24 C -0.61931 1.55657 -0.02317
 C25 C -0.47131 1.50118 -0.00410
 C26 C -0.43932 1.54974 0.00404
 C27 C -0.38123 1.54791 0.00298
 C28 C -0.35482 1.49656 -0.00083
 C29 C -0.38482 1.44791 -0.00909
 C30 C -0.44268 1.45047 -0.01170
 H31 H -0.69406 1.50979 -0.01564
 H32 H -0.54626 1.41650 0.00820
 H33 H -0.53822 1.59106 -0.02720
 H34 H -0.45876 1.58950 0.00990
 H35 H -0.31011 1.49451 0.00183
 H36 H -0.46429 1.41270 -0.02168
 C37 C -0.00913 0.35520 0.50972
 C38 C -0.00081 0.38050 0.45810
 C39 C 0.00813 0.43821 0.45754
 C40 C 0.00248 0.47082 0.50626
 C41 C -0.01116 0.44359 0.55619
 C42 C -0.01535 0.38592 0.55844
 C43 C 0.00990 0.53284 0.50521
 C44 C 0.02105 0.56266 0.55464
 C45 C 0.02674 0.62068 0.55502
 C46 C 0.02385 0.64843 0.50410
 C47 C 0.01588 0.62014 0.45413
 C48 C 0.00681 0.56289 0.45511
 H49 H -0.00885 0.31056 0.51273
 H50 H 0.01755 0.45772 0.41879
 H51 H -0.01944 0.46656 0.59371
 H52 H 0.02808 0.54078 0.59282
 H53 H 0.02497 0.69314 0.50289
 H54 H -0.00216 0.54257 0.41633
 O55 O -0.14367 0.99732 -0.06891
 O56 O 0.14006 0.99929 -0.07238
 O57 O -0.00788 1.07691 -0.13718
 O58 O 0.00408 0.92708 -0.13807
 O59 O 0.00520 0.85904 -0.07134
 O60 O -0.00606 1.14449 -0.06951
 O61 O 0.07220 1.00047 -0.13971
 O62 O -0.07762 1.00070 -0.13782
 Zr63 Zr -0.00198 1.00180 -0.09336
 O64 O 0.04948 0.95321 -0.04632
 O65 O -0.05252 1.05041 -0.04514
 C66 C -0.12841 0.99823 -0.12037
 C67 C 0.12328 0.99705 -0.12340
 C68 C -0.00939 1.12805 -0.12059
 C69 C 0.00765 0.87597 -0.12222
 H70 H 0.07062 1.07629 -0.07089
 O71 O 0.04788 1.05261 -0.04659
 H72 H -0.07252 0.92575 -0.06939
 O73 O -0.04980 0.95028 -0.04574
 O74 O 0.14177 1.00808 0.07778
 O75 O -0.14153 0.99841 0.08042
 O76 O 0.07110 1.14485 0.00439
 O77 O 0.07752 0.86192 -0.00224
 O78 O -0.07188 0.85766 0.00438
 O79 O -0.07835 1.14124 0.00102
 O80 O -0.00037 1.07566 0.14646
 O81 O 0.00294 0.92631 0.14582
 O82 O -0.00113 1.14389 0.07990
 O83 O 0.00211 0.85855 0.07822
 O84 O 0.14073 1.07954 0.00359
 O85 O -0.14486 1.07282 0.00232
 O86 O -0.14132 0.92313 0.00819
 O87 O 0.14408 0.93021 -0.00066
 O88 O 0.07543 1.00539 0.14632
 O89 O -0.07383 0.99756 0.14782
 Zr90 Zr 0.09676 1.00382 0.00316
 Zr91 Zr -0.09782 0.99895 0.00519
 Zr92 Zr -0.00252 1.09856 0.00456
 Zr93 Zr 0.00164 0.90424 0.00371
 Zr94 Zr 0.00046 1.00104 0.10146
 O95 O -0.04932 0.94964 0.05496
 O96 O 0.04906 1.05269 0.05429
 C97 C 0.12617 1.00900 0.12920
 C98 C -0.12504 0.99811 0.13152
 C99 C 0.12272 1.13017 0.00367
 C100 C 0.12830 0.87905 -0.00483
 C101 C -0.12343 0.87250 0.00647
 C102 C -0.12915 1.12407 -0.00065
 C103 C -0.00097 1.12693 0.13089
 C104 C 0.00324 0.87519 0.12938
 H105 H -0.07506 1.07355 0.07801
 O106 O -0.05098 1.05008 0.05460
 H107 H 0.07637 0.92940 0.07615
 O108 O 0.05145 0.95243 0.05332
 C109 C 0.30460 1.02577 0.28575
 C110 C 0.30086 0.99929 0.33721
 C111 C 0.34752 0.99798 0.37209
 C112 C 0.39825 1.02181 0.35505
 C113 C 0.39924 1.05140 0.30458
 C114 C 0.35327 1.05261 0.26958
 C115 C 0.25739 1.02369 0.24709
 C116 C 0.26243 1.04821 0.19475
 C117 C 0.21895 1.04345 0.15692
 C118 C 0.17027 1.01504 0.17107
 C119 C 0.16494 0.99211 0.22438
 C120 C 0.20889 0.99573 0.26242
 C121 C 0.35590 1.07851 0.21771
 C122 C 0.31128 1.07612 0.18077
 C123 C 0.25123 0.97262 0.35159
 C124 C 0.20601 0.97098 0.31491
 H125 H 0.39328 1.09959 0.20496
 H126 H 0.31539 1.09552 0.14063
 H127 H 0.24762 0.95203 0.39118
 H128 H 0.16887 0.94931 0.32736
 H129 H 0.34511 0.97469 0.41021
 H130 H 0.43608 1.07342 0.29186
 H131 H 0.22309 1.06167 0.11624
 H132 H 0.12755 0.97010 0.23550
 C133 C -0.30568 1.00730 0.28544
 C134 C -0.30548 0.97425 0.33307
 C135 C -0.35281 0.97310 0.36715
 C136 C -0.40058 1.00425 0.35321
 C137 C -0.39792 1.03919 0.30632
 C138 C -0.35148 1.04020 0.27217
 C139 C -0.25757 1.00664 0.24792
 C140 C -0.25911 1.03846 0.19946
 C141 C -0.21490 1.03565 0.16248
 C142 C -0.16893 1.00182 0.17360
 C143 C -0.16673 0.97153 0.22326
 C144 C -0.21162 0.97326 0.26041
 C145 C -0.35064 1.07286 0.22423
 C146 C -0.30528 1.07181 0.18830
 C147 C -0.25845 0.94192 0.34468
 C148 C -0.21231 0.94155 0.30910
 H149 H -0.38582 1.09863 0.21381
 H150 H -0.30662 1.09679 0.15118
 H151 H -0.25750 0.91621 0.38130
 H152 H -0.17723 0.91561 0.31938
 H153 H -0.35308 0.94546 0.40226
 H154 H -0.43192 1.06663 0.29627
 H155 H -0.21629 1.05968 0.12469
 H156 H -0.13129 0.94541 0.23185
 C157 C -0.30961 0.98396 -0.27365
 C158 C -0.31156 1.01909 -0.31979
 C159 C -0.35856 1.01837 -0.35418
 C160 C -0.40299 0.98237 -0.34277
 C161 C -0.39895 0.94603 -0.29739
 C162 C -0.35302 0.94732 -0.26225
 C163 C -0.26175 0.98632 -0.23583
 C164 C -0.26123 0.95282 -0.18848
 C165 C -0.21702 0.95696 -0.15134
 C166 C -0.17297 0.99340 -0.16171
 C167 C -0.17299 1.02541 -0.21026
 C168 C -0.21798 1.02272 -0.24712
 C169 C -0.35024 0.91334 -0.21531
 C170 C -0.30525 0.91631 -0.17881
 C171 C -0.26688 1.05482 -0.32990
 C172 C -0.22076 1.05634 -0.29440
 H173 H -0.38356 0.88488 -0.20620
 H174 H -0.30506 0.89005 -0.14256
 H175 H -0.26766 1.08203 -0.36541
 H176 H -0.18739 1.08464 -0.30363
 H177 H -0.36111 1.04677 -0.38866
 H178 H -0.43202 0.91704 -0.28894
 H179 H -0.21673 0.93172 -0.11431
 H180 H -0.13916 1.05347 -0.21827
 C181 C 0.29864 0.96768 -0.28107
 C182 C 0.34368 0.93386 -0.26690
 C183 C 0.38980 0.93192 -0.30183
 C184 C 0.39208 0.96491 -0.34974
 C185 C 0.34551 0.99674 -0.36470
 C186 C 0.29863 0.99837 -0.33032
 C187 C 0.25180 0.97303 -0.24232
 C188 C 0.20716 1.00783 -0.25569
 C189 C 0.16384 1.01459 -0.21741
 C190 C 0.16632 0.98818 -0.16564
 C191 C 0.21089 0.95279 -0.15342
 C192 C 0.25357 0.94480 -0.19167
 C193 C 0.25272 1.03183 -0.34287
 C194 C 0.20765 1.03626 -0.30634
 C195 C 0.34283 0.90453 -0.21684
 C196 C 0.29859 0.91007 -0.17972
 H197 H 0.25204 1.05555 -0.38083
 H198 H 0.17347 1.06312 -0.31728
 H199 H 0.37731 0.87818 -0.20559
 H200 H 0.30007 0.88772 -0.14094
 H201 H 0.42498 0.90649 -0.29053
 H202 H 0.34695 1.02251 -0.40128
 H203 H 0.12943 1.04175 -0.22691
 H204 H 0.21235 0.93156 -0.11396
 C205 C 0.27399 1.31294 -0.00831
 C206 C 0.25829 1.35963 -0.03860
 C207 C 0.29324 1.40546 -0.03982
 C208 C 0.34344 1.40672 -0.00941
 C209 C 0.35910 1.35828 0.01974
 C210 C 0.32445 1.31145 0.02038
 C211 C 0.23645 1.26496 -0.00622
 C212 C 0.25190 1.21776 0.02381
 C213 C 0.21537 1.17252 0.02612
 C214 C 0.16334 1.17546 -0.00008
 C215 C 0.14896 1.22302 -0.03018
 C216 C 0.18539 1.26758 -0.03381
 C217 C 0.33866 1.26341 0.04993
 C218 C 0.30315 1.21732 0.05141
 C219 C 0.20748 1.36007 -0.06684
 C220 C 0.17144 1.31491 -0.06418
 H221 H 0.37747 1.26148 0.07228
 H222 H 0.31569 1.18130 0.07481
 H223 H 0.19506 1.39599 -0.09051
 H224 H 0.13225 1.31717 -0.08585
 H225 H 0.28127 1.43976 -0.06593
 H226 H 0.39656 1.35732 0.04423
 H227 H 0.22664 1.13595 0.04928
 H228 H 0.10933 1.22519 -0.05109
 C229 C 0.28450 0.70203 -0.03352
 C230 C 0.26689 0.65384 -0.06065
 C231 C 0.30090 0.60715 -0.06030
 C232 C 0.35200 0.60714 -0.03168
 C233 C 0.37086 0.65750 -0.00818
 C234 C 0.33670 0.70476 -0.00816
 C235 C 0.24639 0.74957 -0.02940
 C236 C 0.26277 0.79724 -0.00026
 C237 C 0.22479 0.84097 0.00645
 C238 C 0.17064 0.83611 -0.01469
 C239 C 0.15581 0.78873 -0.04528
 C240 C 0.19335 0.74541 -0.05271
 C241 C 0.35240 0.75385 0.01910
 C242 C 0.31611 0.79929 0.02292
 C243 C 0.21444 0.65226 -0.08563
 C244 C 0.17820 0.69731 -0.08165
 H245 H 0.39259 0.75674 0.03875
 H246 H 0.32948 0.83584 0.04529
 H247 H 0.20065 0.61530 -0.10707
 H248 H 0.13752 0.69397 -0.10025
 H249 H 0.28685 0.57034 -0.08185
 H250 H 0.40968 0.65898 0.01419
 H251 H 0.23651 0.87755 0.02973
 H252 H 0.11461 0.78525 -0.06277
 C253 C -0.27706 0.69156 0.00019
 C254 C -0.32412 0.69206 0.03433
 C255 C -0.35909 0.64550 0.03498
 C256 C -0.34702 0.59905 0.00152
 C257 C -0.30065 0.60059 -0.03384
 C258 C -0.26518 0.64610 -0.03405
 C259 C -0.23891 0.73910 0.00086
 C260 C -0.19096 0.73732 -0.03191
 C261 C -0.15375 0.78143 -0.02966
 C262 C -0.16448 0.82761 0.00425
 C263 C -0.21345 0.82974 0.03580
 C264 C -0.25058 0.78496 0.03484
 C265 C -0.21753 0.64650 -0.06727
 C266 C -0.18083 0.69126 -0.06598
 C267 C -0.33459 0.73879 0.06763
 C268 C -0.29861 0.78452 0.06768
 H269 H -0.20809 0.61155 -0.09389
 H270 H -0.14410 0.68967 -0.09166
 H271 H -0.37076 0.73993 0.09407
 H272 H -0.30815 0.81955 0.09413
 H273 H -0.39460 0.64489 0.06231
 H274 H -0.29178 0.56593 -0.06106
 H275 H -0.11644 0.78005 -0.05456
 H276 H -0.22168 0.86527 0.06207
 C277 C -0.28623 1.30129 -0.01896
 C278 C -0.27212 1.34761 -0.05078
 C279 C -0.30669 1.39399 -0.04997
 C280 C -0.35436 1.39508 -0.01650
 C281 C -0.36932 1.34746 0.01342
 C282 C -0.33508 1.30037 0.01253
 C283 C -0.24789 1.25387 -0.01675
 C284 C -0.26104 1.20790 0.01614
 C285 C -0.22303 1.16397 0.01996
 C286 C -0.17179 1.16706 -0.00756
 C287 C -0.15990 1.21296 -0.04110
 C288 C -0.19780 1.25634 -0.04603
 C289 C -0.34743 1.25320 0.04406
 C290 C -0.31115 1.20769 0.04568
 C291 C -0.22258 1.34760 -0.08111
 C292 C -0.18592 1.30275 -0.07864
 H293 H -0.38503 1.25181 0.06841
 H294 H -0.32191 1.17252 0.07113
 H295 H -0.21143 1.38311 -0.10592
 H296 H -0.14754 1.30482 -0.10170
 H297 H -0.29547 1.43016 -0.07384
 H298 H -0.40588 1.34813 0.03939
 H299 H -0.23224 1.12866 0.04584
 H300 H -0.12080 1.21504 -0.06303
 C301 C -0.00617 1.27899 0.31421
 C302 C 0.02449 1.32818 0.31264
 C303 C 0.02595 1.36264 0.35985
 C304 C -0.00279 1.34785 0.40883
 C305 C -0.03487 1.29880 0.40786
 C306 C -0.03610 1.26424 0.36149
 C307 C -0.00648 1.24167 0.26573
 C308 C -0.03621 1.19192 0.26835
 C309 C -0.03464 1.15547 0.22342
 C310 C -0.00405 1.16839 0.17570
 C311 C 0.02425 1.21921 0.17267
 C312 C 0.02367 1.25588 0.21816
 C313 C -0.06651 1.21479 0.36194
 C314 C -0.06636 1.17908 0.31619
 C315 C 0.05384 1.34131 0.26413
 C316 C 0.05333 1.30588 0.21770
 H317 H -0.08997 1.20318 0.39828
 H318 H -0.08968 1.14091 0.31847
 H319 H 0.07771 1.37914 0.26214
 H320 H 0.07683 1.31746 0.18138
 H321 H 0.05167 1.39919 0.35874
 H322 H -0.06059 1.28762 0.44276
 H323 H -0.05713 1.11674 0.22561
 H324 H 0.04798 1.22918 0.13598
 C325 C -0.02799 1.28708 -0.29575
 C326 C -0.05924 1.27332 -0.34280
 C327 C -0.05860 1.30865 -0.38844
 C328 C -0.02487 1.35616 -0.38862
 C329 C 0.00434 1.37078 -0.34014
 C330 C 0.00287 1.33622 -0.29344
 C331 C -0.02548 1.24794 -0.24915
 C332 C 0.00637 1.26103 -0.20223
 C333 C 0.01022 1.22248 -0.15896
 C334 C -0.01581 1.17056 -0.16374
 C335 C -0.04773 1.15847 -0.21091
 C336 C -0.05324 1.19714 -0.25343
 C337 C 0.03349 1.34842 -0.24540
 C338 C 0.03488 1.31167 -0.20042
 C339 C -0.08836 1.22312 -0.34447
 C340 C -0.08503 1.18544 -0.30068
 H341 H 0.05729 1.38629 -0.24288
 H342 H 0.05953 1.32239 -0.16449
 H343 H -0.11259 1.21213 -0.38062
 H344 H -0.10678 1.14648 -0.30421
 H345 H -0.08226 1.29770 -0.42502
 H346 H 0.03052 1.40713 -0.33984
 H347 H 0.03497 1.23193 -0.12273
 H348 H -0.06811 1.11880 -0.21453
 C349 C 0.03362 0.72046 -0.30085
 C350 C 0.00889 0.66810 -0.29778
 C351 C 0.00950 0.63334 -0.34465
 C352 C 0.03347 0.65130 -0.39503
 C353 C 0.06110 0.70292 -0.39543
 C354 C 0.06055 0.73774 -0.34912
 C355 C 0.02950 0.75884 -0.25340
 C356 C 0.05240 0.81198 -0.25771
 C357 C 0.04551 0.84951 -0.21410
 C358 C 0.01619 0.83435 -0.16621
 C359 C -0.00483 0.78025 -0.16145
 C360 C 0.00116 0.74242 -0.20544
 C361 C 0.08487 0.79044 -0.35098
 C362 C 0.08072 0.82703 -0.30605
 C363 C -0.01801 0.65258 -0.24860
 C364 C -0.02173 0.68905 -0.20320
 H365 H 0.10609 0.80404 -0.38799
 H366 H 0.09898 0.86777 -0.30956
 H367 H -0.03723 0.61226 -0.24550
 H368 H -0.04359 0.67573 -0.16646
 H369 H -0.01249 0.59441 -0.34269
 H370 H 0.08313 0.71656 -0.43194
 H371 H 0.06277 0.89075 -0.21753
 H372 H -0.02728 0.76835 -0.12454
 C373 C 0.01721 0.72012 0.30787
 C374 C 0.05623 0.72942 0.34989
 C375 C 0.05701 0.69458 0.39585
 C376 C 0.01785 0.65179 0.40143
 C377 C -0.02023 0.64204 0.35820
 C378 C -0.02058 0.67616 0.31112
 C379 C 0.01496 0.75818 0.26038
 C380 C -0.02410 0.74925 0.21815
 C381 C -0.02684 0.78660 0.17374
 C382 C 0.00792 0.83324 0.17293
 C383 C 0.04691 0.84130 0.21535
 C384 C 0.05103 0.80365 0.25889
 C385 C -0.05877 0.66823 0.26785
 C386 C -0.06028 0.70394 0.22203
 C387 C 0.09276 0.77435 0.34599
 C388 C 0.08996 0.81110 0.30140
 H389 H -0.08806 0.63441 0.26964
 H390 H -0.09064 0.69655 0.18982
 H391 H 0.12304 0.78181 0.37826
 H392 H 0.11817 0.84588 0.30042
 H393 H 0.08741 0.70164 0.42813
 H394 H -0.05067 0.60943 0.36203
 H395 H -0.05708 0.78067 0.14108
 H396 H 0.07402 0.87699 0.21431
   
