data_POSCAR
  _audit_creation_date              2014-09-24
  _audit_creation_method            'ToBaCCo'
  _symmetry_space_group_name_H-M    'P1'
  _symmetry_Int_Tables_number       1
  _symmetry_cell_setting            triclinic
  loop_
  _symmetry_equiv_pos_as_xyz
 x,y,z
_cell_length_a 34.1018
_cell_length_b 33.7998
_cell_length_c 34.4718
_cell_angle_alpha 89.842700
_cell_angle_beta 89.852900
_cell_angle_gamma 89.971400
loop_
  _atom_site_label
  _atom_site_type_symbol
  _atom_site_fract_x
  _atom_site_fract_y
  _atom_site_fract_z
N1 N 0.57864 0.68584 0.62029
 N2 N 0.56625 0.67219 0.65390
 C3 C 0.54124 0.69848 0.66967
 C4 C 0.53734 0.72994 0.64431
 C5 C 0.56146 0.72096 0.61317
 H6 H 0.52633 0.69470 0.69716
 H7 H 0.56646 0.73860 0.58741
 Cu8 Cu 0.58194 0.62015 0.67235
 Cu9 Cu 0.61567 0.65648 0.58830
 Cu10 Cu 0.66777 0.58522 0.63960
 N11 N 0.60399 0.57118 0.69230
 N12 N 0.63831 0.55831 0.68030
 C13 C 0.64786 0.52536 0.70017
 C14 C 0.61743 0.51684 0.72565
 C15 C 0.59009 0.54645 0.71975
 H16 H 0.67459 0.50875 0.69575
 H17 H 0.56244 0.55000 0.73479
 N18 N 0.68461 0.60590 0.58870
 N19 N 0.66474 0.63288 0.56915
 C20 C 0.68322 0.64013 0.53531
 C21 C 0.71601 0.61611 0.53334
 C22 C 0.71586 0.59467 0.56747
 H23 H 0.67300 0.66061 0.51340
 H24 H 0.73674 0.57217 0.57596
 H25 H 0.61634 0.59959 0.61349
 H26 H 0.64140 0.64129 0.63870
 N27 N 0.91939 0.31178 0.12244
 N28 N 0.92842 0.32231 0.15800
 C29 C 0.95346 0.29563 0.17308
 C30 C 0.96094 0.26717 0.14530
 C31 C 0.93883 0.27838 0.11337
 H32 H 0.96606 0.29721 0.20181
 H33 H 0.93671 0.26354 0.08571
 Cu34 Cu 0.90866 0.37125 0.18008
 Cu35 Cu 0.88365 0.34273 0.09047
 Cu36 Cu 0.83047 0.41458 0.13976
 N37 N 0.89140 0.42352 0.19618
 N38 N 0.85981 0.43980 0.18128
 C39 C 0.85293 0.47455 0.19901
 C40 C 0.88220 0.48053 0.22613
 C41 C 0.90620 0.44772 0.22341
 H42 H 0.82886 0.49417 0.19212
 H43 H 0.93215 0.44171 0.24042
 N44 N 0.81601 0.39525 0.08796
 N45 N 0.83625 0.36804 0.06915
 C46 C 0.81900 0.36128 0.03470
 C47 C 0.78670 0.38587 0.03160
 C48 C 0.78584 0.40715 0.06569
 H49 H 0.82950 0.34046 0.01328
 H50 H 0.76479 0.42968 0.07364
 H51 H 0.88317 0.39733 0.11914
 H52 H 0.85239 0.35623 0.13878
 N53 N 0.42188 0.18828 -0.09873
 N54 N 0.44062 0.16813 -0.12558
 C55 C 0.47664 0.18367 -0.13049
 C56 C 0.48063 0.21509 -0.10512
 C57 C 0.44543 0.21709 -0.08534
 H58 H 0.49836 0.17281 -0.15074
 H59 H 0.43730 0.23835 -0.06333
 Cu60 Cu 0.41585 0.12380 -0.15167
 Cu61 Cu 0.36751 0.17727 -0.08511
 Cu62 Cu 0.33389 0.08511 -0.11375
 N63 N 0.38619 0.08347 -0.17903
 N64 N 0.35377 0.06870 -0.16422
 C65 C 0.33929 0.04131 -0.18853
 C66 C 0.36406 0.03863 -0.22016
 C67 C 0.39358 0.06583 -0.21326
 H68 H 0.31288 0.02433 -0.18340
 H69 H 0.41833 0.07253 -0.23182
 N70 N 0.30807 0.11677 -0.07329
 N71 N 0.31979 0.15263 -0.06369
 C72 C 0.29499 0.16744 -0.03696
 C73 C 0.26651 0.13947 -0.02925
 C74 C 0.27563 0.10766 -0.05282
 H75 H 0.29761 0.19631 -0.02377
 H76 H 0.25940 0.08036 -0.05568
 H77 H 0.37987 0.11899 -0.09032
 H78 H 0.34957 0.14018 -0.13031
 N79 N 0.07673 0.81518 0.40272
 N80 N 0.06443 0.82675 0.36841
 C81 C 0.02989 0.80924 0.36068
 C82 C 0.01980 0.78578 0.39226
 C83 C 0.05008 0.79048 0.41843
 H84 H 0.01355 0.81358 0.33417
 H85 H 0.05293 0.77614 0.44638
 Cu86 Cu 0.09468 0.86321 0.33626
 Cu87 Cu 0.12795 0.83099 0.42182
 Cu88 Cu 0.16568 0.91536 0.38716
 N89 N 0.11908 0.91210 0.31657
 N90 N 0.14594 0.93196 0.33597
 C91 C 0.15750 0.96325 0.31456
 C92 C 0.13638 0.96346 0.28047
 C93 C 0.11223 0.93065 0.28264
 H94 H 0.17983 0.98422 0.32300
 H95 H 0.09176 0.92059 0.26089
 N96 N 0.19118 0.88565 0.42851
 N97 N 0.17698 0.85200 0.44158
 C98 C 0.20094 0.83772 0.46926
 C99 C 0.23143 0.86412 0.47411
 C100 C 0.22431 0.89432 0.44783
 H101 H 0.19651 0.81032 0.48495
 H102 H 0.24215 0.92023 0.44251
 H103 H 0.10931 0.89043 0.38613
 H104 H 0.15045 0.86327 0.36230
 C105 C 0.06798 0.12599 0.10259
 C106 C 0.06443 0.09833 0.13292
 C107 C 0.09239 0.06829 0.13761
 C108 C 0.12369 0.06545 0.11118
 C109 C 0.12752 0.09270 0.08066
 C110 C 0.09925 0.12267 0.07629
 H111 H 0.03987 0.09997 0.15285
 H112 H 0.14498 0.04182 0.11412
 H113 H 0.10132 0.14337 0.05232
 C114 C 0.43102 0.87459 0.60291
 C115 C 0.43493 0.90206 0.63321
 C116 C 0.40770 0.93282 0.63770
 C117 C 0.37682 0.93662 0.61099
 C118 C 0.37257 0.90946 0.58063
 C119 C 0.40008 0.87876 0.57651
 H120 H 0.45922 0.89971 0.65328
 H121 H 0.35612 0.96080 0.61363
 H122 H 0.39763 0.85813 0.55264
 C123 C 0.87496 0.68393 0.35286
 C124 C 0.84822 0.68779 0.38373
 C125 C 0.81797 0.66019 0.38884
 C126 C 0.81396 0.62898 0.36230
 C127 C 0.84032 0.62485 0.33130
 C128 C 0.87055 0.65271 0.32652
 H129 H 0.85081 0.71230 0.40375
 H130 H 0.79017 0.60798 0.36558
 H131 H 0.89062 0.65030 0.30222
 C132 C 0.62773 0.31632 -0.14651
 C133 C 0.65470 0.31297 -0.11592
 C134 C 0.68514 0.34051 -0.11190
 C135 C 0.68900 0.37122 -0.13923
 C136 C 0.66229 0.37489 -0.16987
 C137 C 0.63195 0.34704 -0.17359
 H138 H 0.65215 0.28886 -0.09527
 H139 H 0.71288 0.39220 -0.13680
 H140 H 0.61163 0.34912 -0.19763
 C141 C -0.01386 0.23487 0.14970
 C142 C -0.00478 0.21016 0.12076
 C143 C 0.02260 0.17709 0.12715
 C144 C 0.03904 0.15813 0.09725
 H145 H -0.01649 0.21473 0.09192
 H146 H 0.03056 0.16926 0.15661
 H147 H -0.00040 0.23043 0.17786
 H148 H 0.03309 0.16819 0.06795
 C149 C 0.51209 0.76482 0.65000
 C150 C 0.50221 0.78899 0.62089
 C151 C 0.47577 0.82276 0.62746
 C152 C 0.45921 0.84176 0.59763
 H153 H 0.51262 0.78320 0.59173
 H154 H 0.46858 0.83104 0.65699
 H155 H 0.50008 0.76980 0.67872
 H156 H 0.46452 0.83127 0.56838
 C157 C 0.98705 0.76151 0.39750
 C158 C 0.96070 0.75464 0.36961
 C159 C 0.92740 0.72784 0.37660
 C160 C 0.90725 0.71249 0.34703
 H161 H 0.96417 0.76756 0.34102
 H162 H 0.92043 0.71922 0.40614
 H163 H 0.98371 0.74671 0.42528
 H164 H 0.91645 0.71894 0.31754
 C165 C 0.51457 0.24135 -0.09968
 C166 C 0.54186 0.24640 -0.12712
 C167 C 0.57487 0.27371 -0.12116
 C168 C 0.59547 0.28762 -0.15128
 H169 H 0.53916 0.23140 -0.15473
 H170 H 0.58136 0.28376 -0.09204
 H171 H 0.51618 0.25829 -0.07307
 H172 H 0.58674 0.27983 -0.18050
 C173 C 0.14071 -0.00806 0.24838
 C174 C 0.11270 -0.00241 0.22194
 C175 C 0.11825 0.02605 0.19002
 C176 C 0.08773 0.03952 0.16963
 H177 H 0.08515 -0.01824 0.22421
 H178 H 0.14753 0.03687 0.18381
 H179 H 0.16725 0.00955 0.24720
 H180 H 0.05826 0.03088 0.17798
 C181 C 0.61374 0.48548 -0.24811
 C182 C 0.64259 0.45965 -0.24089
 C183 C 0.63672 0.42699 -0.21316
 C184 C 0.66724 0.40740 -0.19821
 H185 H 0.67100 0.46281 -0.25469
 H186 H 0.60716 0.41967 -0.20401
 H187 H 0.58628 0.48264 -0.23240
 H188 H 0.69678 0.41692 -0.20524
 C189 C 0.35901 1.01223 0.74632
 C190 C 0.38834 1.00366 0.72199
 C191 C 0.38223 0.97660 0.68918
 C192 C 0.41267 0.96106 0.67000
 H193 H 0.41732 1.01579 0.72680
 H194 H 0.35256 0.96827 0.68155
 H195 H 0.33062 0.99842 0.74238
 H196 H 0.44221 0.96738 0.67977
 C197 C 0.88776 0.51438 0.25233
 C198 C 0.85870 0.53933 0.26113
 C199 C 0.86521 0.57262 0.28778
 C200 C 0.83499 0.59186 0.30376
 H201 H 0.82961 0.53468 0.24942
 H202 H 0.89501 0.58059 0.29533
 H203 H 0.91624 0.51801 0.26577
 H204 H 0.80538 0.58167 0.29821
 C205 C 0.23324 0.14406 -0.00230
 C206 C 0.21133 0.11348 0.00939
 C207 C 0.17820 0.11926 0.03624
 C208 C 0.16059 0.08834 0.05315
 H209 H 0.21816 0.08382 -0.00037
 H210 H 0.16886 0.14913 0.04294
 H211 H 0.22717 0.17339 0.00886
 H212 H 0.17205 0.05885 0.04816
 C213 C 0.74411 0.61182 0.50115
 C214 C 0.74937 0.64006 0.47447
 C215 C 0.77706 0.63436 0.44216
 C216 C 0.79019 0.66510 0.42142
 H217 H 0.73366 0.66784 0.47673
 H218 H 0.78751 0.60476 0.43585
 H219 H 0.76160 0.58505 0.49997
 H220 H 0.78198 0.69488 0.42980
 C221 C 0.75945 0.39022 -0.00117
 C222 C 0.75423 0.36166 -0.02735
 C223 C 0.72677 0.36708 -0.05979
 C224 C 0.71317 0.33605 -0.07959
 H225 H 0.76955 0.33372 -0.02440
 H226 H 0.71666 0.39666 -0.06679
 H227 H 0.74226 0.41714 -0.00299
 H228 H 0.72103 0.30637 -0.07043
 C229 C 0.26457 0.85949 0.50103
 C230 C 0.28806 0.88954 0.51055
 C231 C 0.32099 0.88358 0.53745
 C232 C 0.33975 0.91436 0.55308
 H233 H 0.28266 0.91889 0.49902
 H234 H 0.32923 0.85365 0.54534
 H235 H 0.26914 0.83065 0.51410
 H236 H 0.32939 0.94410 0.54712
   
