data_POSCAR
  _audit_creation_date              2014-09-24
  _audit_creation_method            'ToBaCCo'
  _symmetry_space_group_name_H-M    'P1'
  _symmetry_Int_Tables_number       1
  _symmetry_cell_setting            triclinic
  loop_
  _symmetry_equiv_pos_as_xyz
 x,y,z
_cell_length_a 35.1144
_cell_length_b 40.2001
_cell_length_c 37.9387
_cell_angle_alpha 87.242500
_cell_angle_beta 88.764100
_cell_angle_gamma 87.890400
loop_
  _atom_site_label
  _atom_site_type_symbol
  _atom_site_fract_x
  _atom_site_fract_y
  _atom_site_fract_z
C1 C 0.20550 0.26979 0.26099
 C2 C 0.23343 0.28955 0.23757
 C3 C 0.25823 0.27051 0.21850
 C4 C 0.25295 0.23288 0.22448
 C5 C 0.18616 0.24698 0.23580
 C6 C 0.21081 0.22748 0.21668
 C7 C 0.23075 0.24553 0.28357
 C8 C 0.25575 0.22639 0.26463
 H9 H 0.23318 0.31654 0.23599
 H10 H 0.27388 0.21758 0.20940
 H11 H 0.15567 0.24537 0.23421
 H12 H 0.22773 0.24266 0.31201
 C13 C 0.71935 0.76959 0.26977
 C14 C 0.74467 0.79080 0.24463
 C15 C 0.76972 0.77279 0.22447
 C16 C 0.76684 0.73492 0.23101
 C17 C 0.70003 0.74639 0.24513
 C18 C 0.72480 0.72821 0.22507
 C19 C 0.74721 0.74680 0.29093
 C20 C 0.77220 0.72854 0.27098
 H21 H 0.74249 0.81770 0.24255
 H22 H 0.78652 0.72011 0.21418
 H23 H 0.66949 0.74583 0.24205
 H24 H 0.74563 0.74430 0.31946
 C25 C 0.71042 0.26919 0.76174
 C26 C 0.73370 0.28932 0.73751
 C27 C 0.75979 0.27072 0.71554
 C28 C 0.75651 0.23460 0.72188
 C29 C 0.69009 0.24629 0.73746
 C30 C 0.71407 0.22781 0.71677
 C31 C 0.73863 0.24613 0.78225
 C32 C 0.76275 0.22788 0.76163
 H33 H 0.73146 0.31616 0.73684
 H34 H 0.77539 0.21876 0.70560
 H35 H 0.65949 0.24664 0.73473
 H36 H 0.73820 0.24352 0.81081
 C37 C 0.22408 0.76504 0.77083
 C38 C 0.24937 0.78546 0.74515
 C39 C 0.27445 0.76689 0.72554
 C40 C 0.27189 0.72904 0.73376
 C41 C 0.20504 0.74103 0.74690
 C42 C 0.22982 0.72176 0.72781
 C43 C 0.25194 0.74322 0.79293
 C44 C 0.27689 0.72407 0.77395
 H45 H 0.24694 0.81232 0.74224
 H46 H 0.29194 0.71346 0.71819
 H47 H 0.17455 0.74110 0.74346
 H48 H 0.25202 0.74367 0.82143
 C49 C 0.04966 0.04915 0.01853
 H50 H 0.05520 0.05366 -0.00943
 C51 C 0.06599 0.06914 0.04283
 H52 H 0.08389 0.08911 0.03323
 C53 C 0.01744 0.01906 0.06457
 H54 H -0.00239 0.00033 0.07308
 C55 C 0.03342 0.03820 0.08977
 H56 H 0.02647 0.03305 0.11739
 N57 N 0.02586 0.02469 0.02968
 C58 C 0.02336 -0.04173 -0.05815
 H59 H -0.00701 -0.04162 -0.06245
 C60 C 0.04825 -0.06046 -0.07921
 H61 H 0.03680 -0.07439 -0.10003
 C62 C 0.07502 -0.02313 -0.02605
 H63 H 0.08528 -0.00889 -0.00501
 C64 C 0.10094 -0.04153 -0.04648
 H65 H 0.13102 -0.04130 -0.04085
 Zn66 Zn 0.00135 0.00161 -0.00546
 N67 N 0.03707 -0.02325 -0.03249
 C68 C -0.01776 0.03852 -0.06958
 N69 N -0.02438 0.03462 -0.03418
 C70 C -0.04899 0.05551 -0.01708
 C71 C -0.06854 0.08130 -0.03567
 C72 C -0.03685 0.06403 -0.08929
 C73 C -0.02198 -0.05209 0.03950
 C74 C -0.04811 -0.07192 0.05821
 C75 C -0.09862 -0.04467 0.02422
 C76 C -0.07164 -0.02487 0.00677
 N77 N -0.03428 -0.02812 0.01547
 H78 H 0.00256 0.02215 -0.08257
 H79 H -0.05340 0.05202 0.01114
 H80 H -0.08843 0.09732 -0.02158
 H81 H -0.03105 0.06702 -0.11739
 H82 H 0.00803 -0.05469 0.04536
 H83 H -0.03777 -0.08925 0.07884
 H84 H -0.12818 -0.04144 0.01687
 H85 H -0.08073 -0.00662 -0.01343
 C86 C 0.08766 -0.06041 -0.07360
 C87 C 0.05768 0.06397 0.07904
 C88 C -0.08724 -0.06786 0.05124
 C89 C -0.06254 0.08588 -0.07227
 C90 C 0.06826 0.54179 0.53173
 H91 H 0.07576 0.54484 0.50398
 C92 C 0.08653 0.56018 0.55633
 H93 H 0.10761 0.57759 0.54687
 C94 C 0.02937 0.51726 0.57682
 H95 H 0.00651 0.50111 0.58475
 C96 C 0.04771 0.53424 0.60239
 H97 H 0.03925 0.52990 0.62977
 N98 N 0.03925 0.52184 0.54215
 C99 C 0.06898 0.45363 0.49657
 H100 H 0.06980 0.45249 0.52505
 C101 C 0.09339 0.43264 0.47747
 H102 H 0.11205 0.41482 0.49156
 C103 C 0.04417 0.47856 0.44370
 H104 H 0.02548 0.49678 0.43048
 C105 C 0.06804 0.45803 0.42356
 H106 H 0.06733 0.46076 0.39505
 Zn107 Zn 0.01059 0.50199 0.50738
 N108 N 0.04436 0.47552 0.47958
 C109 C -0.03841 0.52765 0.45309
 N110 N -0.01444 0.53620 0.47863
 C111 C -0.00970 0.56875 0.48519
 C112 C -0.02938 0.59403 0.46592
 C113 C -0.05930 0.55217 0.43362
 C114 C -0.01647 0.44706 0.55005
 C115 C -0.04373 0.42840 0.56877
 C116 C -0.09268 0.46642 0.54541
 C117 C -0.06450 0.48462 0.52768
 N118 N -0.02711 0.47483 0.53019
 H119 H -0.04233 0.50161 0.44867
 H120 H 0.00875 0.57539 0.50587
 H121 H -0.02460 0.61967 0.47151
 H122 H -0.07934 0.54458 0.41455
 H123 H 0.01330 0.43989 0.55244
 H124 H -0.03433 0.40722 0.58545
 H125 H -0.12218 0.47471 0.54256
 H126 H -0.07272 0.50709 0.51265
 C127 C 0.09275 0.43438 0.44044
 C128 C 0.07579 0.55711 0.59228
 C129 C -0.08251 0.43817 0.56686
 C130 C -0.05522 0.58598 0.44014
 C131 C 0.54593 0.05181 0.52110
 H132 H 0.54949 0.05724 0.49304
 C133 C 0.56303 0.07165 0.54507
 H134 H 0.57939 0.09249 0.53506
 C135 C 0.51806 0.01934 0.56786
 H136 H 0.49970 -0.00036 0.57684
 C137 C 0.53508 0.03819 0.59273
 H138 H 0.53039 0.03184 0.62049
 N139 N 0.52387 0.02628 0.53276
 C140 C 0.52026 -0.03915 0.44432
 H141 H 0.48984 -0.03925 0.44038
 C142 C 0.54503 -0.05762 0.42290
 H143 H 0.53342 -0.07150 0.40213
 C144 C 0.57216 -0.02041 0.47599
 H145 H 0.58255 -0.00623 0.49703
 C146 C 0.59796 -0.03860 0.45525
 H147 H 0.62809 -0.03828 0.46067
 Zn148 Zn 0.49867 0.00323 0.49802
 N149 N 0.53414 -0.02077 0.46998
 C150 C 0.47716 0.04048 0.43481
 N151 N 0.47149 0.03613 0.47029
 C152 C 0.44659 0.05623 0.48808
 C153 C 0.42561 0.08154 0.47010
 C154 C 0.45668 0.06555 0.41572
 C155 C 0.47718 -0.05165 0.54256
 C156 C 0.45170 -0.07253 0.56077
 C157 C 0.40040 -0.04562 0.52753
 C158 C 0.42671 -0.02483 0.51059
 N159 N 0.46413 -0.02742 0.51915
 H160 H 0.49773 0.02477 0.42126
 H161 H 0.44293 0.05239 0.51635
 H162 H 0.40542 0.09682 0.48473
 H163 H 0.46172 0.06889 0.38754
 H164 H 0.50727 -0.05386 0.54817
 H165 H 0.46254 -0.09018 0.58087
 H166 H 0.37077 -0.04292 0.52025
 H167 H 0.41704 -0.00644 0.49077
 C168 C 0.58450 -0.05747 0.42819
 C169 C 0.55754 0.06510 0.58152
 C170 C 0.41249 -0.06919 0.55391
 C171 C 0.43049 0.08648 0.43341
 C172 C 0.54199 0.55751 0.03667
 H173 H 0.52645 0.57018 0.01550
 C174 C 0.56137 0.57622 0.06016
 H175 H 0.56077 0.60314 0.05673
 C176 C 0.56044 0.50742 0.06832
 H177 H 0.55958 0.48057 0.07149
 C178 C 0.57939 0.52521 0.09287
 H179 H 0.59329 0.51202 0.11488
 N180 N 0.54192 0.52370 0.04108
 C181 C 0.52905 0.45563 -0.04343
 H182 H 0.49836 0.45657 -0.04566
 C183 C 0.55164 0.43772 -0.06717
 H184 H 0.53798 0.42525 -0.08790
 C185 C 0.58391 0.47209 -0.01443
 H186 H 0.59635 0.48571 0.00604
 C187 C 0.60756 0.45420 -0.03736
 H188 H 0.63808 0.45381 -0.03378
 Zn189 Zn 0.51308 0.49702 0.01244
 N190 N 0.54543 0.47234 -0.01776
 C191 C 0.44032 0.51796 -0.01189
 N192 N 0.47822 0.52338 -0.01566
 C193 C 0.49130 0.54677 -0.03959
 C194 C 0.46569 0.56741 -0.05906
 C195 C 0.41383 0.53762 -0.03112
 C196 C 0.48893 0.43443 0.04241
 C197 C 0.46900 0.41419 0.06692
 C198 C 0.44351 0.46381 0.09375
 C199 C 0.46396 0.48300 0.06892
 N200 N 0.48582 0.46817 0.04375
 H201 H 0.43041 0.49833 0.00602
 H202 H 0.52164 0.54989 -0.04299
 H203 H 0.47668 0.58685 -0.07676
 H204 H 0.38385 0.53269 -0.02763
 H205 H 0.50705 0.42317 0.02256
 H206 H 0.47208 0.38737 0.06575
 H207 H 0.42562 0.47625 0.11303
 H208 H 0.46232 0.50990 0.06951
 C209 C 0.59152 0.43677 -0.06432
 C210 C 0.57980 0.56002 0.08891
 C211 C 0.44591 0.42890 0.09307
 C212 C 0.42626 0.56333 -0.05449
 C213 C 0.20626 -0.18351 -0.19439
 C214 C 0.18139 -0.16555 -0.17222
 C215 C 0.14673 -0.17945 -0.16041
 C216 C 0.13785 -0.21124 -0.17050
 C217 C 0.16269 -0.22892 -0.19258
 C218 C 0.19662 -0.21492 -0.20591
 C219 C 0.12171 -0.16155 -0.13839
 C220 C 0.13087 -0.12982 -0.12805
 C221 C 0.16566 -0.11597 -0.13966
 C222 C 0.19073 -0.13394 -0.16160
 C223 C 0.17471 -0.08428 -0.12921
 C224 C 0.14948 -0.06638 -0.10762
 C225 C 0.11471 -0.07981 -0.09603
 C226 C 0.10572 -0.11170 -0.10631
 H227 H 0.23330 -0.17306 -0.20220
 H228 H 0.11178 -0.22258 -0.16109
 H229 H 0.15536 -0.25383 -0.19882
 H230 H 0.09511 -0.17226 -0.12937
 H231 H 0.21738 -0.12326 -0.17054
 H232 H 0.20120 -0.07325 -0.13791
 H233 H 0.15691 -0.04172 -0.10047
 H234 H 0.07928 -0.12256 -0.09715
 C235 C 0.19421 0.30802 0.31178
 C236 C 0.17156 0.33023 0.33139
 C237 C 0.13368 0.33807 0.32128
 C238 C 0.11933 0.32390 0.29154
 C239 C 0.14206 0.30188 0.27211
 C240 C 0.17953 0.29286 0.28243
 C241 C 0.11090 0.36026 0.34075
 C242 C 0.12555 0.37477 0.37025
 C243 C 0.16348 0.36701 0.38037
 C244 C 0.18627 0.34482 0.36086
 C245 C 0.17795 0.38155 0.40991
 C246 C 0.15504 0.40351 0.42933
 C247 C 0.11727 0.41139 0.41954
 C248 C 0.10277 0.39688 0.38985
 H249 H 0.22351 0.30268 0.31924
 H250 H 0.09058 0.33016 0.28301
 H251 H 0.13015 0.29279 0.24858
 H252 H 0.08183 0.36627 0.33291
 H253 H 0.21537 0.33886 0.36863
 H254 H 0.20698 0.37596 0.41800
 H255 H 0.16704 0.41462 0.45184
 H256 H 0.07351 0.40237 0.38232
 C257 C 0.70231 -0.17991 0.30616
 C258 C 0.67760 -0.16215 0.32862
 C259 C 0.64278 -0.17593 0.34012
 C260 C 0.63357 -0.20743 0.32937
 C261 C 0.65819 -0.22486 0.30685
 C262 C 0.69228 -0.21091 0.29386
 C263 C 0.61790 -0.15816 0.36238
 C264 C 0.62731 -0.12663 0.37313
 C265 C 0.66222 -0.11289 0.36176
 C266 C 0.68722 -0.13078 0.33971
 C267 C 0.67147 -0.08135 0.37249
 C268 C 0.64629 -0.06347 0.39414
 C269 C 0.61142 -0.07680 0.40557
 C270 C 0.60225 -0.10857 0.39501
 H271 H 0.72948 -0.16956 0.29863
 H272 H 0.60735 -0.21870 0.33851
 H273 H 0.65054 -0.24950 0.29994
 H274 H 0.59117 -0.16878 0.37119
 H275 H 0.71397 -0.12018 0.33095
 H276 H 0.69805 -0.07039 0.36394
 H277 H 0.65387 -0.03890 0.40146
 H278 H 0.57574 -0.11938 0.40405
 C279 C 0.69710 0.31800 -0.19853
 C280 C 0.67407 0.33552 -0.17451
 C281 C 0.63844 0.32307 -0.16350
 C282 C 0.62654 0.29328 -0.17661
 C283 C 0.64942 0.27619 -0.20083
 C284 C 0.68451 0.28878 -0.21310
 C285 C 0.61548 0.34037 -0.13925
 C286 C 0.62753 0.37023 -0.12621
 C287 C 0.66306 0.38283 -0.13746
 C288 C 0.68623 0.36529 -0.16134
 C289 C 0.67477 0.41288 -0.12474
 C290 C 0.65151 0.43036 -0.10113
 C291 C 0.61621 0.41800 -0.08945
 C292 C 0.60453 0.38773 -0.10213
 H293 H 0.72504 0.32709 -0.20554
 H294 H 0.59963 0.28301 -0.16792
 H295 H 0.63972 0.25269 -0.20924
 H296 H 0.58820 0.33068 -0.13067
 H297 H 0.71355 0.37493 -0.16985
 H298 H 0.70180 0.42302 -0.13327
 H299 H 0.66100 0.45387 -0.09241
 H300 H 0.57771 0.37756 -0.09304
 C301 C -0.19042 0.20888 -0.19219
 C302 C -0.16618 0.18433 -0.17631
 C303 C -0.16033 0.15331 -0.19199
 C304 C -0.17824 0.14774 -0.22378
 C305 C -0.20253 0.17232 -0.23935
 C306 C -0.20927 0.20287 -0.22344
 C307 C -0.13731 0.12821 -0.17531
 C308 C -0.12042 0.13369 -0.14297
 C309 C -0.12582 0.16497 -0.12769
 C310 C -0.14844 0.19013 -0.14455
 C311 C -0.10910 0.17041 -0.09538
 C312 C -0.08800 0.14487 -0.07783
 C313 C -0.08308 0.11340 -0.09227
 C314 C -0.09890 0.10816 -0.12523
 H315 H -0.19493 0.23259 -0.18001
 H316 H -0.17407 0.12414 -0.23622
 H317 H -0.21703 0.16693 -0.26320
 H318 H -0.13315 0.10428 -0.18713
 H319 H -0.15287 0.21397 -0.13258
 H320 H -0.11275 0.19430 -0.08343
 H321 H -0.07553 0.14973 -0.05282
 H322 H -0.09555 0.08393 -0.13649
 C323 C -0.18529 0.70818 0.32049
 C324 C -0.16077 0.68399 0.33657
 C325 C -0.14920 0.65540 0.31831
 C326 C -0.16263 0.65150 0.28426
 C327 C -0.18785 0.67537 0.26874
 C328 C -0.19965 0.70388 0.28672
 C329 C -0.12496 0.63098 0.33462
 C330 C -0.11298 0.63445 0.36931
 C331 C -0.12499 0.66296 0.38758
 C332 C -0.14834 0.68771 0.37096
 C333 C -0.11396 0.66604 0.42245
 C334 C -0.09149 0.64105 0.43932
 C335 C -0.07885 0.61263 0.42150
 C336 C -0.08966 0.60967 0.38625
 H337 H -0.19333 0.73029 0.33452
 H338 H -0.15426 0.62965 0.26991
 H339 H -0.19882 0.67089 0.24304
 H340 H -0.11603 0.60904 0.32060
 H341 H -0.15747 0.70956 0.38506
 H342 H -0.12324 0.68758 0.43693
 H343 H -0.08465 0.64379 0.46668
 H344 H -0.07994 0.58819 0.37192
 C345 C 0.29923 0.20689 0.31342
 C346 C 0.32327 0.18252 0.32991
 C347 C 0.33023 0.15165 0.31416
 C348 C 0.31340 0.14594 0.28190
 C349 C 0.28953 0.17040 0.26562
 C350 C 0.28199 0.20094 0.28135
 C351 C 0.35359 0.12694 0.33104
 C352 C 0.36998 0.13271 0.36353
 C353 C 0.36334 0.16377 0.37899
 C354 C 0.34013 0.18848 0.36206
 C355 C 0.37970 0.16951 0.41139
 C356 C 0.40191 0.14455 0.42869
 C357 C 0.40827 0.11335 0.41395
 C358 C 0.39249 0.10775 0.38107
 H359 H 0.29407 0.23058 0.32550
 H360 H 0.31840 0.12244 0.26944
 H361 H 0.27625 0.16509 0.24112
 H362 H 0.35871 0.10317 0.31909
 H363 H 0.33487 0.21220 0.37408
 H364 H 0.37509 0.19324 0.42350
 H365 H 0.41426 0.14972 0.45367
 H366 H 0.39687 0.08370 0.36958
 C367 C 0.29752 0.68567 -0.17519
 C368 C 0.32426 0.66386 -0.15849
 C369 C 0.35890 0.65545 -0.17607
 C370 C 0.36620 0.66929 -0.21006
 C371 C 0.33964 0.69149 -0.22631
 C372 C 0.30506 0.70010 -0.20907
 C373 C 0.38566 0.63356 -0.15931
 C374 C 0.37839 0.62041 -0.12494
 C375 C 0.34384 0.62921 -0.10733
 C376 C 0.31690 0.65061 -0.12429
 C377 C 0.33683 0.61666 -0.07285
 C378 C 0.36372 0.59553 -0.05586
 C379 C 0.39805 0.58609 -0.07309
 C380 C 0.40516 0.59875 -0.10780
 H381 H 0.27069 0.69114 -0.16170
 H382 H 0.39266 0.66325 -0.22394
 H383 H 0.34669 0.70224 -0.25212
 H384 H 0.41221 0.62700 -0.17285
 H385 H 0.29038 0.65722 -0.11072
 H386 H 0.31065 0.62340 -0.05887
 H387 H 0.35776 0.58694 -0.02889
 H388 H 0.43127 0.59152 -0.12162
 C389 C -0.21300 -0.18099 0.18071
 C390 C -0.18716 -0.16573 0.15692
 C391 C -0.15144 -0.18163 0.14983
 C392 C -0.14217 -0.21250 0.16685
 C393 C -0.16782 -0.22727 0.19100
 C394 C -0.20343 -0.21168 0.19829
 C395 C -0.12541 -0.16619 0.12627
 C396 C -0.13435 -0.13467 0.11038
 C397 C -0.17001 -0.11876 0.11774
 C398 C -0.19634 -0.13453 0.14059
 C399 C -0.17854 -0.08698 0.10264
 C400 C -0.15180 -0.07078 0.08092
 C401 C -0.11614 -0.08622 0.07317
 C402 C -0.10790 -0.11851 0.08779
 H403 H -0.24059 -0.16889 0.18538
 H404 H -0.11484 -0.22499 0.16191
 H405 H -0.15928 -0.25058 0.20452
 H406 H -0.09799 -0.17839 0.12085
 H407 H -0.22368 -0.12224 0.14619
 H408 H -0.20562 -0.07432 0.10824
 H409 H -0.15885 -0.04569 0.07094
 H410 H -0.08088 -0.13108 0.08183
 C411 C -0.21808 0.32042 0.68133
 C412 C -0.19118 0.33642 0.65929
 C413 C -0.15969 0.31807 0.64563
 C414 C -0.15568 0.28393 0.65444
 C415 C -0.18215 0.26820 0.67708
 C416 C -0.21387 0.28612 0.69133
 C417 C -0.13256 0.33424 0.62380
 C418 C -0.13626 0.36874 0.61611
 C419 C -0.16776 0.38705 0.63008
 C420 C -0.19519 0.37075 0.65119
 C421 C -0.17110 0.42153 0.62316
 C422 C -0.14341 0.43789 0.60276
 C423 C -0.11202 0.42011 0.58827
 C424 C -0.10879 0.38534 0.59503
 H425 H -0.24250 0.33521 0.68994
 H426 H -0.13153 0.26943 0.64440
 H427 H -0.17619 0.24226 0.68414
 H428 H -0.10835 0.32011 0.61328
 H429 H -0.21932 0.38492 0.66184
 H430 H -0.19489 0.43595 0.63396
 H431 H -0.14633 0.46471 0.59892
 H432 H -0.08505 0.37114 0.58385
 C433 C 0.28982 -0.18729 0.68062
 C434 C 0.31503 -0.17141 0.65675
 C435 C 0.35090 -0.18670 0.64903
 C436 C 0.36073 -0.21781 0.66528
 C437 C 0.33571 -0.23315 0.68968
 C438 C 0.30022 -0.21788 0.69807
 C439 C 0.37652 -0.17034 0.62574
 C440 C 0.36699 -0.13850 0.61087
 C441 C 0.33105 -0.12333 0.61878
 C442 C 0.30514 -0.14004 0.64122
 C443 C 0.32185 -0.09129 0.60475
 C444 C 0.34820 -0.07406 0.58358
 C445 C 0.38414 -0.08868 0.57531
 C446 C 0.39310 -0.12126 0.58884
 H447 H 0.26213 -0.17552 0.68566
 H448 H 0.38811 -0.22996 0.65971
 H449 H 0.34477 -0.25654 0.70257
 H450 H 0.40412 -0.18202 0.61988
 H451 H 0.27765 -0.12826 0.64731
 H452 H 0.29454 -0.07922 0.61080
 H453 H 0.34061 -0.04881 0.57446
 H454 H 0.42039 -0.13316 0.58247
 C455 C 0.30814 0.31227 0.20533
 C456 C 0.33403 0.32805 0.18202
 C457 C 0.33951 0.31673 0.14750
 C458 C 0.31981 0.28913 0.13733
 C459 C 0.29413 0.27350 0.16081
 C460 C 0.28761 0.28527 0.19469
 C461 C 0.36398 0.33357 0.12356
 C462 C 0.38293 0.36161 0.13373
 C463 C 0.37820 0.37228 0.16860
 C464 C 0.35389 0.35539 0.19253
 C465 C 0.39733 0.40010 0.17881
 C466 C 0.42006 0.41786 0.15448
 C467 C 0.42406 0.40825 0.11939
 C468 C 0.40587 0.37964 0.10939
 H469 H 0.30364 0.32118 0.23167
 H470 H 0.32371 0.28004 0.11102
 H471 H 0.27838 0.25298 0.15198
 H472 H 0.36774 0.32521 0.09691
 H473 H 0.34987 0.36392 0.21910
 H474 H 0.39433 0.40840 0.20552
 H475 H 0.43442 0.43931 0.16314
 H476 H 0.40845 0.37207 0.08238
 C477 C 0.16217 0.18776 0.19755
 C478 C 0.14930 0.16503 0.17395
 C479 C 0.17275 0.15584 0.14504
 C480 C 0.20873 0.16951 0.14037
 C481 C 0.22113 0.19249 0.16373
 C482 C 0.19792 0.20226 0.19238
 C483 C 0.15972 0.13339 0.12117
 C484 C 0.12327 0.12041 0.12560
 C485 C 0.09985 0.12968 0.15455
 C486 C 0.11311 0.15169 0.17868
 C487 C 0.06329 0.11708 0.15870
 C488 C 0.04982 0.09572 0.13426
 C489 C 0.07275 0.08617 0.10533
 C490 C 0.10967 0.09857 0.10134
 H491 H 0.14420 0.19386 0.22003
 H492 H 0.22715 0.16273 0.11838
 H493 H 0.24872 0.20288 0.15876
 H494 H 0.17773 0.12638 0.09895
 H495 H 0.09505 0.15880 0.20083
 H496 H 0.04489 0.12410 0.18062
 H497 H 0.02103 0.08720 0.13770
 H498 H 0.12787 0.09117 0.07944
 C499 C 0.18197 0.68133 0.70944
 C500 C 0.16900 0.65852 0.68602
 C501 C 0.19174 0.65004 0.65639
 C502 C 0.22688 0.66504 0.65048
 C503 C 0.23920 0.68842 0.67349
 C504 C 0.21695 0.69683 0.70327
 C505 C 0.17871 0.62712 0.63298
 C506 C 0.14268 0.61339 0.63831
 C507 C 0.11977 0.62247 0.66765
 C508 C 0.13329 0.64451 0.69158
 C509 C 0.08333 0.60985 0.67228
 C510 C 0.06934 0.58875 0.64789
 C511 C 0.09184 0.57891 0.61871
 C512 C 0.12886 0.59123 0.61443
 H513 H 0.16468 0.68689 0.73255
 H514 H 0.24458 0.65910 0.62772
 H515 H 0.26584 0.70032 0.66741
 H516 H 0.19622 0.62050 0.61031
 H517 H 0.11567 0.65130 0.71415
 H518 H 0.06523 0.61691 0.69439
 H519 H 0.04036 0.58084 0.65164
 H520 H 0.14697 0.58380 0.59251
 C521 C 0.66596 0.18766 0.69858
 C522 C 0.65203 0.16589 0.67454
 C523 C 0.67291 0.15975 0.64311
 C524 C 0.70727 0.17579 0.63623
 C525 C 0.72066 0.19790 0.66010
 C526 C 0.70016 0.20411 0.69148
 C527 C 0.65890 0.13798 0.61901
 C528 C 0.62393 0.12275 0.62570
 C529 C 0.60298 0.12922 0.65702
 C530 C 0.61731 0.15047 0.68136
 C531 C 0.56776 0.11462 0.66336
 C532 C 0.55318 0.09391 0.63886
 C533 C 0.57375 0.08691 0.60766
 C534 C 0.60935 0.10141 0.60141
 H535 H 0.65012 0.19162 0.72293
 H536 H 0.72357 0.17157 0.61218
 H537 H 0.74670 0.21058 0.65351
 H538 H 0.67495 0.13321 0.59491
 H539 H 0.60120 0.15534 0.70540
 H540 H 0.55120 0.11955 0.68710
 H541 H 0.52535 0.08387 0.64414
 H542 H 0.62584 0.09604 0.57776
 C543 C 0.68353 0.68268 0.20817
 C544 C 0.66995 0.66181 0.18307
 C545 C 0.68442 0.66410 0.14798
 C546 C 0.71330 0.68640 0.13902
 C547 C 0.72718 0.70667 0.16442
 C548 C 0.71192 0.70535 0.19891
 C549 C 0.66962 0.64428 0.12245
 C550 C 0.64102 0.62180 0.13174
 C551 C 0.62768 0.61863 0.16718
 C552 C 0.64200 0.63884 0.19252
 C553 C 0.60000 0.59541 0.17666
 C554 C 0.58519 0.57583 0.15121
 C555 C 0.59736 0.57952 0.11581
 C556 C 0.62538 0.60247 0.10618
 H557 H 0.67212 0.68131 0.23498
 H558 H 0.72493 0.68834 0.11235
 H559 H 0.74907 0.72409 0.15689
 H560 H 0.68025 0.64641 0.09541
 H561 H 0.63129 0.63678 0.21954
 H562 H 0.58964 0.59254 0.20371
 H563 H 0.56350 0.55829 0.15897
 H564 H 0.63499 0.60511 0.07887
   
