data_POSCAR
  _audit_creation_date              2014-09-24
  _audit_creation_method            'ToBaCCo'
  _symmetry_space_group_name_H-M    'P1'
  _symmetry_Int_Tables_number       1
  _symmetry_cell_setting            triclinic
  loop_
  _symmetry_equiv_pos_as_xyz
 x,y,z
_cell_length_a 38.8349
_cell_length_b 38.7864
_cell_length_c 38.7170
_cell_angle_alpha 90.232500
_cell_angle_beta 90.050700
_cell_angle_gamma 89.776000
loop_
  _atom_site_label
  _atom_site_type_symbol
  _atom_site_fract_x
  _atom_site_fract_y
  _atom_site_fract_z
C1 C 0.18771 1.23748 0.18785
 C2 C 0.21704 1.22086 0.17408
 C3 C 0.23144 1.19179 0.18996
 C4 C 0.21674 1.17914 0.22038
 C5 C 0.18744 1.19488 0.23523
 C6 C 0.17348 1.22422 0.21865
 H7 H 0.22819 1.22941 0.15002
 H8 H 0.22881 1.15714 0.23254
 H9 H 0.15108 1.23660 0.22955
 C10 C 0.81683 0.77040 0.19105
 C11 C 0.83081 0.78805 0.21986
 C12 C 0.81693 0.81947 0.23139
 C13 C 0.78791 0.83317 0.21493
 C14 C 0.77268 0.81590 0.18701
 C15 C 0.78717 0.78472 0.17527
 H16 H 0.85262 0.77771 0.23380
 H17 H 0.77697 0.85724 0.22419
 H18 H 0.77635 0.77326 0.15223
 C19 C 0.80468 1.23231 -0.18859
 C20 C 0.77379 1.21886 -0.17485
 C21 C 0.75924 1.18836 -0.18792
 C22 C 0.77559 1.17103 -0.21521
 C23 C 0.80618 1.18364 -0.22942
 C24 C 0.82033 1.21423 -0.21626
 H25 H 0.75999 1.23256 -0.15479
 H26 H 0.76481 1.14722 -0.22507
 H27 H 0.84501 1.22226 -0.22628
 C28 C 0.18952 0.75974 -0.19118
 C29 C 0.22004 0.77343 -0.17679
 C30 C 0.23564 0.80290 -0.19067
 C31 C 0.22113 0.81851 -0.21986
 C32 C 0.19114 0.80530 -0.23498
 C33 C 0.17554 0.77609 -0.22060
 H34 H 0.23107 0.76238 -0.15367
 H35 H 0.23287 0.84142 -0.23052
 H36 H 0.15266 0.76603 -0.23293
 C37 C 0.52366 1.06045 -0.02421
 H38 H 0.50607 1.07285 -0.00645
 C39 C 0.54589 1.08056 -0.04403
 H40 H 0.54473 1.10837 -0.04180
 C41 C 0.54735 1.00924 -0.04808
 H42 H 0.54811 0.98137 -0.04898
 C43 C 0.56984 1.02832 -0.06849
 H44 H 0.58800 1.01489 -0.08499
 N45 N 0.52466 1.02546 -0.02673
 C46 C 0.46783 1.02251 0.06435
 H47 H 0.48606 1.00578 0.07716
 C48 C 0.44424 1.04156 0.08398
 H49 H 0.44463 1.03925 0.11184
 C50 C 0.44382 1.04430 0.01252
 H51 H 0.44367 1.04489 -0.01542
 C52 C 0.41989 1.06381 0.03109
 H53 H 0.40177 1.07987 0.01717
 Zn54 Zn 0.49686 0.99719 0.00142
 N55 N 0.46726 1.02433 0.02927
 C56 C 0.54972 0.98790 0.04929
 N57 N 0.52721 0.97053 0.02878
 C58 C 0.52837 0.93557 0.02604
 C59 C 0.55289 0.91669 0.04452
 C60 C 0.57459 0.97006 0.06824
 C61 C 0.46798 0.97084 -0.06096
 C62 C 0.44530 0.95071 -0.08040
 C63 C 0.42370 0.92626 -0.02742
 C64 C 0.44670 0.94692 -0.00900
 N65 N 0.46837 0.96849 -0.02591
 H66 H 0.54856 1.01575 0.05056
 H67 H 0.51095 0.92228 0.00883
 H68 H 0.55394 0.88896 0.04134
 H69 H 0.59210 0.98441 0.08457
 H70 H 0.48464 0.98888 -0.07389
 H71 H 0.44485 0.95353 -0.10821
 H72 H 0.40697 0.90900 -0.01342
 H73 H 0.44722 0.94594 0.01892
 C74 C 0.41971 1.06245 0.06735
 C75 C 0.56936 1.06447 -0.06654
 C76 C 0.42263 0.92814 -0.06363
 C77 C 0.57662 0.93396 0.06577
 C78 C -0.01423 0.55175 1.04610
 H79 H 0.01357 0.55220 1.04440
 C80 C -0.03133 0.57514 1.06753
 H81 H -0.01639 0.59376 1.08202
 C82 C -0.06728 0.52780 1.02781
 H83 H -0.08117 0.50962 1.01190
 C84 C -0.08548 0.55080 1.04898
 H85 H -0.11332 0.54964 1.04958
 N86 N -0.03227 0.52860 1.02693
 C87 C 0.04186 0.44666 1.00611
 H88 H 0.04115 0.44635 0.97818
 C89 C 0.06255 0.42308 1.02377
 H90 H 0.07751 0.40448 1.00917
 C91 C 0.02198 0.47051 1.05893
 H92 H 0.00576 0.48869 1.07254
 C93 C 0.04229 0.44735 1.07765
 H94 H 0.04194 0.44846 1.10559
 Zn95 Zn -0.00608 0.49965 0.99754
 N96 N 0.02230 0.46988 1.02380
 C97 C 0.05614 0.52839 0.97226
 N98 N 0.02121 0.52884 0.96971
 C99 C 0.00477 0.55175 0.94889
 C100 C 0.02357 0.57489 0.92891
 C101 C 0.07594 0.55141 0.95311
 C102 C -0.05444 0.44756 0.98646
 C103 C -0.07408 0.42401 0.96756
 C104 C -0.05309 0.44984 0.91501
 C105 C -0.03375 0.47279 0.93491
 N106 N -0.03479 0.47131 0.96999
 H107 H 0.06872 0.51077 0.98978
 H108 H -0.02307 0.55200 0.94783
 H109 H 0.00984 0.59231 0.91197
 H110 H 0.10363 0.55116 0.95632
 H111 H -0.05421 0.44646 1.01438
 H112 H -0.08876 0.40473 0.98123
 H113 H -0.05195 0.45155 0.88713
 H114 H -0.01736 0.49119 0.92219
 C115 C 0.06292 0.42319 1.06005
 C116 C -0.06745 0.57492 1.06920
 C117 C -0.07334 0.42475 0.93129
 C118 C 0.05972 0.57514 0.93099
 C119 C 1.05521 -0.00798 0.55364
 H120 H 1.05489 0.01986 0.55546
 C121 C 1.07497 -0.02722 0.57672
 H122 H 1.09041 -0.01385 0.59578
 C123 C 1.03503 -0.05896 0.52659
 H124 H 1.01874 -0.07119 0.50754
 C125 C 1.05422 -0.07927 0.54938
 H126 H 1.05239 -0.10706 0.54758
 N127 N 1.03574 -0.02400 0.52926
 C128 C 1.01444 0.05605 0.45342
 H129 H 0.98659 0.05529 0.45324
 C130 C 1.03183 0.07753 0.43053
 H131 H 1.01710 0.09316 0.41268
 C132 C 1.06730 0.03485 0.47556
 H133 H 1.08104 0.01759 0.49255
 C134 C 1.08575 0.05592 0.45306
 H135 H 1.11362 0.05517 0.45355
 Zn136 Zn 1.00648 0.00406 0.50227
 N137 N 1.03228 0.03526 0.47530
 C138 C 0.97707 0.06284 0.53565
 N139 N 0.97741 0.02782 0.53352
 C140 C 0.95882 0.00826 0.55573
 C141 C 0.93863 0.02379 0.58121
 C142 C 0.95731 0.07948 0.56091
 C143 C 0.99836 -0.03799 0.44465
 C144 C 0.98101 -0.05597 0.41871
 C145 C 0.92738 -0.04403 0.44812
 C146 C 0.94572 -0.02575 0.47325
 N147 N 0.98059 -0.02310 0.47106
 H148 H 0.99277 0.07791 0.51840
 H149 H 0.96004 -0.01956 0.55384
 H150 H 0.92381 0.00766 0.59839
 H151 H 0.95806 0.10733 0.56275
 H152 H 1.02603 -0.03516 0.44338
 H153 H 0.99547 -0.06727 0.39758
 H154 H 0.89959 -0.04546 0.44981
 H155 H 0.93196 -0.01312 0.49397
 C156 C 1.06799 0.07740 0.42989
 C157 C 1.07424 -0.06342 0.57518
 C158 C 0.94506 -0.05894 0.42019
 C159 C 0.93793 0.05989 0.58431
 C160 C 0.14095 0.32054 1.13422
 C161 C 0.17654 0.31504 1.13132
 C162 C 0.19200 0.28790 1.14919
 C163 C 0.17240 0.26602 1.17052
 C164 C 0.13685 0.27335 1.17335
 N165 N 0.12244 0.29972 1.15534
 C166 C 0.12259 0.34810 1.11508
 N167 N 0.09060 0.35772 1.12592
 C168 C 0.07145 0.38188 1.10923
 C169 C 0.08413 0.39775 1.07933
 C170 C 0.11704 0.38825 1.06763
 C171 C 0.13627 0.36347 1.08529
 H172 H 0.21964 0.28514 1.14706
 H173 H 0.11982 0.25726 1.18824
 H174 H 0.04600 0.38799 1.11889
 H175 H 0.12794 0.39997 1.04481
 H176 H 0.19265 0.33168 1.11597
 H177 H 0.16111 0.35608 1.07504
 C178 C -0.13463 0.68212 1.14762
 C179 C -0.11561 0.70471 1.16844
 C180 C -0.13166 0.73339 1.18315
 C181 C -0.16700 0.74017 1.17745
 C182 C -0.18507 0.71624 1.15663
 N183 N -0.16865 0.68861 1.14238
 C184 C -0.11811 0.65275 1.12948
 N185 N -0.13136 0.64193 1.09874
 C186 C -0.11637 0.61650 1.07963
 C187 C -0.08593 0.60052 1.09111
 C188 C -0.07258 0.61046 1.12334
 C189 C -0.08856 0.63642 1.14258
 H190 H -0.11538 0.75107 1.19724
 H191 H -0.21241 0.71868 1.15208
 H192 H -0.12757 0.60972 1.05493
 H193 H -0.04970 0.59821 1.13366
 H194 H -0.08821 0.70127 1.17220
 H195 H -0.07784 0.64349 1.16741
 C196 C -0.14565 0.31898 0.85575
 C197 C -0.14029 0.31100 0.82083
 C198 C -0.15710 0.28288 0.80604
 C199 C -0.17969 0.26233 0.82568
 C200 C -0.18530 0.27242 0.86035
 N201 N -0.16827 0.29975 0.87418
 C202 C -0.12709 0.34734 0.87340
 N203 N -0.14085 0.36136 0.90261
 C204 C -0.12462 0.38639 0.92108
 C205 C -0.09226 0.39856 0.91060
 C206 C -0.07760 0.38440 0.88057
 C207 C -0.09483 0.35888 0.86197
 H208 H -0.15296 0.27816 0.77881
 H209 H -0.20158 0.25770 0.87737
 H210 H -0.13706 0.39674 0.94388
 H211 H -0.05232 0.39228 0.87197
 H212 H -0.12364 0.32646 0.80478
 H213 H -0.08231 0.34764 0.83965
 C214 C 0.13844 0.67656 0.85689
 C215 C 0.17436 0.67892 0.85920
 C216 C 0.19132 0.70617 0.84316
 C217 C 0.17278 0.73117 0.82427
 C218 C 0.13670 0.72718 0.82224
 N219 N 0.12081 0.70080 0.83873
 C220 C 0.11899 0.64955 0.87517
 N221 N 0.08687 0.65710 0.88707
 C222 C 0.06757 0.63390 0.90464
 C223 C 0.08030 0.60053 0.91101
 C224 C 0.11320 0.59205 0.89835
 C225 C 0.13262 0.61645 0.88058
 H226 H 0.21911 0.70684 0.84494
 H227 H 0.12063 0.74593 0.80931
 H228 H 0.04262 0.64191 0.91420
 H229 H 0.12383 0.56646 0.90181
 H230 H 0.18922 0.66044 0.87392
 H231 H 0.15771 0.60925 0.87072
 C232 C 1.13873 0.15222 0.32317
 C233 C 1.13619 0.18775 0.31704
 C234 C 1.15250 0.20193 0.28832
 C235 C 1.17184 0.18107 0.26543
 C236 C 1.17449 0.14567 0.27348
 N237 N 1.15802 0.13253 0.30139
 C238 C 1.12096 0.13507 0.35228
 N239 N 1.13157 0.10294 0.36166
 C240 C 1.11574 0.08459 0.38684
 C241 C 1.08692 0.09823 0.40405
 C242 C 1.07558 0.13139 0.39498
 C243 C 1.09242 0.14985 0.36917
 H244 H 1.15079 0.22957 0.28511
 H245 H 1.18795 0.12775 0.25681
 H246 H 1.12506 0.05891 0.39257
 H247 H 1.05355 0.14298 0.40770
 H248 H 1.12230 0.20474 0.33433
 H249 H 1.08238 0.17487 0.36207
 C250 C 1.14428 -0.14305 0.67946
 C251 C 1.14791 -0.17911 0.67857
 C252 C 1.16336 -0.19603 0.70637
 C253 C 1.17534 -0.17717 0.73492
 C254 C 1.17132 -0.14121 0.73472
 N255 N 1.15590 -0.12536 0.70755
 C256 C 1.12683 -0.12364 0.65162
 N257 N 1.11197 -0.09280 0.65958
 C258 C 1.09534 -0.07328 0.63574
 C259 C 1.09304 -0.08440 0.60124
 C260 C 1.10853 -0.11599 0.59233
 C261 C 1.12543 -0.13565 0.61736
 H262 H 1.16603 -0.22383 0.70556
 H263 H 1.17975 -0.12577 0.75647
 H264 H 1.08339 -0.04940 0.64403
 H265 H 1.10801 -0.12530 0.56593
 H266 H 1.13823 -0.19426 0.65717
 H267 H 1.13773 -0.15956 0.60972
 C268 C 0.86953 -0.12553 0.31120
 C269 C 0.86011 -0.10840 0.28073
 C270 C 0.84225 -0.12620 0.25505
 C271 C 0.83400 -0.16105 0.25951
 C272 C 0.84335 -0.17711 0.29056
 N273 N 0.86050 -0.15915 0.31540
 C274 C 0.88917 -0.10788 0.33869
 N275 N 0.88311 -0.11592 0.37234
 C276 C 0.90045 -0.10058 0.39877
 C277 C 0.92601 -0.07609 0.39186
 C278 C 0.93303 -0.06786 0.35736
 C279 C 0.91459 -0.08355 0.33074
 H280 H 0.83553 -0.11297 0.23138
 H281 H 0.83706 -0.20389 0.29503
 H282 H 0.89458 -0.10778 0.42509
 H283 H 0.95251 -0.04900 0.35105
 H284 H 0.86628 -0.08150 0.27686
 H285 H 0.92059 -0.07712 0.30425
 C286 C 0.86071 0.12718 0.69256
 C287 C 0.84581 0.10949 0.72035
 C288 C 0.82782 0.12787 0.74559
 C289 C 0.82443 0.16381 0.74326
 C290 C 0.83921 0.18047 0.71480
 N291 N 0.85661 0.16200 0.69047
 C292 C 0.88050 0.10899 0.66532
 N293 N 0.88268 0.12328 0.63333
 C294 C 0.90065 0.10818 0.60716
 C295 C 0.91801 0.07680 0.61248
 C296 C 0.91647 0.06191 0.64543
 C297 C 0.89785 0.07786 0.67183
 H298 H 0.81700 0.11401 0.76722
 H299 H 0.83677 0.20811 0.71181
 H300 H 0.90098 0.12052 0.58215
 H301 H 0.93023 0.03826 0.65106
 H302 H 0.84760 0.08175 0.72252
 H303 H 0.89785 0.06624 0.69717
 C304 C 0.31591 1.13831 0.14264
 C305 C 0.31659 1.14481 0.17839
 C306 C 0.28920 1.16247 0.19386
 C307 C 0.26117 1.17370 0.17390
 C308 C 0.26148 1.16665 0.13833
 N309 N 0.28830 1.14926 0.12390
 C310 C 0.34352 1.11888 0.12463
 N311 N 0.33594 1.10347 0.09392
 C312 C 0.35965 1.08540 0.07542
 C313 C 0.39360 1.08210 0.08753
 C314 C 0.40209 1.09794 0.11907
 C315 C 0.37723 1.11637 0.13764
 H316 H 0.28994 1.16742 0.22140
 H317 H 0.24011 1.17433 0.12209
 H318 H 0.35175 1.07327 0.05149
 H319 H 0.42811 1.09664 0.12907
 H320 H 0.33751 1.13581 0.19448
 H321 H 0.38471 1.12903 0.16140
 C322 C 0.67125 1.14097 -0.14183
 C323 C 0.67387 1.14238 -0.17799
 C324 C 0.70209 1.15859 -0.19305
 C325 C 0.72764 1.17365 -0.17230
 C326 C 0.72331 1.17294 -0.13631
 N327 N 0.69575 1.15672 -0.12222
 C328 C 0.64322 1.12214 -0.12425
 N329 N 0.63540 1.13053 -0.09097
 C330 C 0.61134 1.11321 -0.07245
 C331 C 0.59397 1.08506 -0.08716
 C332 C 0.60151 1.07602 -0.12145
 C333 C 0.62603 1.09442 -0.14005
 H334 H 0.70400 1.15927 -0.22094
 H335 H 0.74242 1.18415 -0.11933
 H336 H 0.60662 1.12076 -0.04593
 H337 H 0.58859 1.05457 -0.13381
 H338 H 0.65444 1.13123 -0.19460
 H339 H 0.63209 1.08615 -0.16605
 C340 C 0.32094 0.85153 -0.14037
 C341 C 0.32125 0.84754 -0.17647
 C342 C 0.29374 0.83114 -0.19288
 C343 C 0.26597 0.81865 -0.17351
 C344 C 0.26681 0.82288 -0.13751
 N345 N 0.29371 0.83918 -0.12215
 C346 C 0.34827 0.87037 -0.12149
 N347 N 0.34057 0.88423 -0.09007
 C348 C 0.36381 0.90236 -0.07117
 C349 C 0.39732 0.90751 -0.08370
 C350 C 0.40602 0.89301 -0.11584
 C351 C 0.38168 0.87439 -0.13475
 H352 H 0.29407 0.82838 -0.22073
 H353 H 0.24565 0.81416 -0.12165
 H354 H 0.35579 0.91333 -0.04672
 H355 H 0.43176 0.89570 -0.12617
 H356 H 0.34184 0.85776 -0.19212
 H357 H 0.38927 0.86297 -0.15911
 C358 C 0.68563 0.86112 0.13607
 C359 C 0.68632 0.82537 0.14198
 C360 C 0.71468 0.81058 0.15857
 C361 C 0.74237 0.83118 0.16925
 C362 C 0.74081 0.86669 0.16255
 N363 N 0.71301 0.88047 0.14630
 C364 C 0.65669 0.87856 0.11821
 N365 N 0.66246 0.90994 0.10374
 C366 C 0.63744 0.92797 0.08711
 C367 C 0.60401 0.91460 0.08433
 C368 C 0.59733 0.88240 0.09929
 C369 C 0.62349 0.86437 0.11630
 H370 H 0.71485 0.78307 0.16328
 H371 H 0.76186 0.88344 0.16976
 H372 H 0.64393 0.95249 0.07562
 H373 H 0.57177 0.87140 0.09833
 H374 H 0.66565 0.80878 0.13349
 H375 H 0.61737 0.84004 0.12831
   
