data_POSCAR
  _audit_creation_date              2014-09-24
  _audit_creation_method            'ToBaCCo'
  _symmetry_space_group_name_H-M    'P1'
  _symmetry_Int_Tables_number       1
  _symmetry_cell_setting            triclinic
  loop_
  _symmetry_equiv_pos_as_xyz
 x,y,z
_cell_length_a 27.2394
_cell_length_b 27.2344
_cell_length_c 27.2517
_cell_angle_alpha 89.975000
_cell_angle_beta 90.028200
_cell_angle_gamma 89.951700
loop_
  _atom_site_label
  _atom_site_type_symbol
  _atom_site_fract_x
  _atom_site_fract_y
  _atom_site_fract_z
O1 O 0.28547 1.04721 0.44698
 O2 O 0.29109 0.95428 0.54482
 O3 O 0.28775 0.95183 0.44983
 O4 O 0.28829 1.05139 0.54097
 O5 O 0.20798 1.04479 0.54894
 O6 O 0.20668 0.95186 0.45070
 O7 O 0.21000 0.95075 0.54648
 O8 O 0.20442 1.04730 0.45211
 Cu9 Cu 0.29634 1.00125 0.49561
 Cu10 Cu 0.19906 0.99863 0.49968
 C11 C 0.24396 1.06325 0.43328
 C12 C 0.25156 0.93642 0.56190
 C13 C 0.24706 0.93544 0.43409
 C14 C 0.24837 1.06466 0.56114
 O15 O 0.70808 -0.04737 0.45619
 O16 O 0.70868 0.04788 0.55188
 O17 O 0.70733 0.04846 0.45671
 O18 O 0.70952 -0.04864 0.55063
 O19 O 0.79039 -0.04549 0.55219
 O20 O 0.78837 0.04790 0.45468
 O21 O 0.78976 0.04900 0.55049
 O22 O 0.78919 -0.04714 0.45580
 Cu23 Cu 0.70023 0.00011 0.50406
 Cu24 Cu 0.79758 0.00106 0.50313
 C25 C 0.74859 -0.06353 0.43976
 C26 C 0.74929 0.06471 0.56743
 C27 C 0.74753 0.06435 0.43929
 C28 C 0.75030 -0.06347 0.56785
 O29 O 0.29333 0.45099 0.95059
 O30 O 0.29155 0.54673 1.04608
 O31 O 0.29119 0.45199 1.04714
 O32 O 0.29326 0.54615 0.95003
 O33 O 0.21218 0.54746 0.94974
 O34 O 0.21039 0.44969 1.04302
 O35 O 0.21037 0.54614 1.04488
 O36 O 0.21223 0.45136 0.94863
 Cu37 Cu 0.30049 0.49890 0.99858
 Cu38 Cu 0.20316 0.49877 0.99645
 C39 C 0.25309 0.43493 0.93337
 C40 C 0.25061 0.56252 1.06173
 C41 C 0.25044 0.43429 1.06142
 C42 C 0.25302 0.56313 0.93364
 O43 O 0.44889 0.28909 1.04635
 O44 O 0.54744 0.29146 0.95417
 O45 O 0.45253 0.29046 0.95043
 O46 O 0.54354 0.29034 1.05039
 O47 O 0.54774 0.20957 1.04657
 O48 O 0.45154 0.20931 0.95167
 O49 O 0.54762 0.21036 0.95221
 O50 O 0.45153 0.20791 1.04682
 Cu51 Cu 0.49800 0.29852 1.00040
 Cu52 Cu 0.49961 0.20110 0.99924
 C53 C 0.43384 0.24807 1.06246
 C54 C 0.56420 0.25131 0.93739
 C55 C 0.43619 0.24985 0.93450
 C56 C 0.56182 0.24998 1.06517
 O57 O 0.45424 0.70916 -0.04911
 O58 O 0.54801 0.70875 0.04809
 O59 O 0.45289 0.70846 0.04688
 O60 O 0.54870 0.70932 -0.04832
 O61 O 0.55077 0.79021 -0.04547
 O62 O 0.45189 0.78954 0.04658
 O63 O 0.54765 0.78987 0.04891
 O64 O 0.45420 0.79034 -0.04845
 Cu65 Cu 0.50102 0.70075 -0.00059
 Cu66 Cu 0.50103 0.79816 0.00034
 C67 C 0.43837 0.74988 -0.06528
 C68 C 0.56378 0.74922 0.06504
 C69 C 0.43584 0.74887 0.06276
 C70 C 0.56650 0.74989 -0.06296
 O71 O 1.04612 0.45070 0.28861
 O72 O 0.95151 0.54708 0.29167
 O73 O 0.95029 0.45191 0.29052
 O74 O 1.04794 0.54518 0.28937
 O75 O 1.04369 0.54868 0.20863
 O76 O 0.94968 0.45170 0.20948
 O77 O 0.94922 0.54767 0.21062
 O78 O 1.04480 0.45235 0.20747
 Cu79 Cu 0.99906 0.49869 0.29821
 Cu80 Cu 0.99670 0.50012 0.20088
 C81 C 1.06158 0.43537 0.24748
 C82 C 0.93424 0.56375 0.25168
 C83 C 0.93367 0.43555 0.25017
 C84 C 1.06233 0.56325 0.24884
 O85 O -0.04517 0.45340 0.70926
 O86 O 0.05030 0.54887 0.70719
 O87 O 0.05080 0.45388 0.70722
 O88 O -0.04632 0.54804 0.70941
 O89 O -0.04216 0.55057 0.79018
 O90 O 0.05095 0.45250 0.78830
 O91 O 0.05238 0.54866 0.78830
 O92 O -0.04401 0.45416 0.79032
 Cu93 Cu 0.00227 0.50114 0.70011
 Cu94 Cu 0.00444 0.50143 0.79742
 C95 C -0.06092 0.43760 0.75016
 C96 C 0.06760 0.56485 0.74739
 C97 C 0.06699 0.43680 0.74746
 C98 C -0.06066 0.56578 0.75012
 O99 O 0.44844 0.95166 0.29081
 O100 O 0.54407 1.04719 0.29192
 O101 O 0.44929 1.04813 0.29023
 O102 O 0.54342 0.95106 0.29214
 O103 O 0.54633 0.95265 0.21109
 O104 O 0.44760 1.04498 0.20940
 O105 O 0.54408 1.04776 0.21077
 O106 O 0.45029 0.95049 0.20969
 Cu107 Cu 0.49615 0.99953 0.29944
 Cu108 Cu 0.49727 0.99901 0.20208
 C109 C 0.43330 0.93480 0.25010
 C110 C 0.56013 1.06376 0.25148
 C111 C 0.43177 1.06276 0.24951
 C112 C 0.56118 0.93574 0.25190
 O113 O 1.04756 0.29166 0.54566
 O114 O 0.94908 0.29085 0.45291
 O115 O 0.95119 0.29149 0.54775
 O116 O 1.04503 0.29090 0.45063
 O117 O 1.04513 0.20980 0.45122
 O118 O 0.95180 0.21031 0.54879
 O119 O 0.95020 0.20966 0.45264
 O120 O 1.04666 0.21053 0.54735
 Cu121 Cu 0.99823 0.29940 0.49924
 Cu122 Cu 0.99847 0.20191 0.50007
 C123 C 1.06364 0.25121 0.56244
 C124 C 0.93320 0.25011 0.43684
 C125 C 0.93559 0.25099 0.56471
 C126 C 1.06094 0.25024 0.43424
 O127 O -0.04644 0.71044 0.54929
 O128 O 0.04702 0.70956 0.45179
 O129 O 0.04959 0.70986 0.54669
 O130 O -0.04903 0.71003 0.45445
 O131 O -0.04727 0.79119 0.45264
 O132 O 0.04883 0.79098 0.54751
 O133 O 0.04757 0.79078 0.45151
 O134 O -0.04633 0.79165 0.54865
 Cu135 Cu 0.00025 0.70178 0.50060
 Cu136 Cu 0.00074 0.79934 0.50010
 C137 C -0.06229 0.75120 0.56537
 C138 C 0.06313 0.75000 0.43518
 C139 C 0.06584 0.75039 0.56298
 C140 C -0.06462 0.75063 0.43767
 O141 O 0.70960 0.45297 1.04948
 O142 O 0.71189 0.54948 0.95497
 O143 O 0.71149 0.45462 0.95352
 O144 O 0.70981 0.54797 1.05101
 O145 O 0.79098 0.54914 1.05116
 O146 O 0.79259 0.45266 0.95669
 O147 O 0.79308 0.54868 0.95618
 O148 O 0.79078 0.45294 1.05153
 Cu149 Cu 0.70250 0.50131 1.00210
 Cu150 Cu 0.80006 0.50084 1.00410
 C151 C 0.74980 0.43665 1.06650
 C152 C 0.75287 0.56524 0.93945
 C153 C 0.75229 0.43758 0.93883
 C154 C 0.75012 0.56464 1.06734
 O155 O 0.45849 1.05142 0.71056
 O156 O 0.55168 0.95352 0.71230
 O157 O 0.45644 0.95445 0.70944
 O158 O 0.55248 1.04930 0.71294
 O159 O 0.54870 1.04957 0.79401
 O160 O 0.45500 0.95239 0.79049
 O161 O 0.55064 0.95413 0.79343
 O162 O 0.45169 1.04649 0.79108
 Cu163 Cu 0.50486 1.00209 0.70313
 Cu164 Cu 0.50143 1.00075 0.80045
 C165 C 0.43863 1.06529 0.75042
 C166 C 0.56736 0.93767 0.75321
 C167 C 0.43956 0.93709 0.74930
 C168 C 0.56660 1.06574 0.75412
 C169 C 0.24458 0.21091 0.28247
 C170 C 0.20851 0.24824 0.28207
 C171 C 0.20953 0.28492 0.24540
 C172 C 0.24660 0.28457 0.20902
 C173 C 0.28276 0.24711 0.20958
 C174 C 0.28194 0.21024 0.24634
 C175 C 0.74760 0.78678 0.29023
 C176 C 0.71090 0.78656 0.25360
 C177 C 0.71099 0.74980 0.21704
 C178 C 0.74779 0.71325 0.21718
 C179 C 0.78443 0.71336 0.25383
 C180 C 0.78432 0.75015 0.29029
 C181 C 0.75173 0.21487 0.71658
 C182 C 0.78849 0.25144 0.71606
 C183 C 0.78907 0.28826 0.75255
 C184 C 0.75271 0.28857 0.78947
 C185 C 0.71588 0.25213 0.79000
 C186 C 0.71554 0.21519 0.75367
 C187 C 0.25505 0.78587 0.70990
 C188 C 0.29165 0.78579 0.74658
 C189 C 0.29141 0.74914 0.78328
 C190 C 0.25476 0.71249 0.78325
 C191 C 0.21821 0.71265 0.74647
 C192 C 0.21826 0.74937 0.70985
 C193 C 0.21591 0.25001 0.70933
 C194 C 0.25287 0.21343 0.70860
 C195 C 0.28984 0.21320 0.74535
 C196 C 0.28942 0.24955 0.78245
 C197 C 0.25257 0.28603 0.78293
 C198 C 0.21581 0.28624 0.74637
 C199 C 0.79005 0.75149 0.71639
 C200 C 0.75323 0.78828 0.71668
 C201 C 0.71685 0.78810 0.75383
 C202 C 0.71709 0.75122 0.79052
 C203 C 0.75408 0.71457 0.79007
 C204 C 0.79058 0.71454 0.75302
 C205 C 0.21090 0.74849 0.28442
 C206 C 0.24752 0.78526 0.28448
 C207 C 0.28435 0.78515 0.24800
 C208 C 0.28463 0.74844 0.21137
 C209 C 0.24802 0.71162 0.21132
 C210 C 0.21102 0.71150 0.24787
 C211 C 0.78278 0.24988 0.28842
 C212 C 0.78296 0.28648 0.25170
 C213 C 0.74623 0.28657 0.21499
 C214 C 0.70919 0.25007 0.21494
 C215 C 0.70919 0.21345 0.25190
 C216 C 0.74600 0.21333 0.28853
 C217 C 0.25544 0.14940 0.40651
 C218 C 0.24201 0.10107 0.39523
 C219 C 0.22895 0.08871 0.34704
 C220 C 0.23000 0.12440 0.31017
 C221 C 0.24340 0.17284 0.32143
 C222 C 0.25561 0.18526 0.36989
 H223 H 0.26580 0.15925 0.44361
 H224 H 0.21886 0.05134 0.33790
 H225 H 0.22036 0.11442 0.27293
 H226 H 0.26600 0.22253 0.37904
 C227 C 0.71151 0.86230 0.40108
 C228 C 0.74839 0.89827 0.40161
 C229 C 0.78488 0.89761 0.36527
 C230 C 0.78405 0.86190 0.32851
 C231 C 0.74769 0.82547 0.32852
 C232 C 0.71163 0.82569 0.36521
 H233 H 0.68319 0.86198 0.42896
 H234 H 0.81342 0.92528 0.36478
 H235 H 0.81179 0.86258 0.30008
 H236 H 0.68366 0.79748 0.36605
 C237 C 0.71219 0.13827 0.60754
 C238 C 0.74963 0.10288 0.60563
 C239 C 0.78770 0.10439 0.64035
 C240 C 0.78795 0.14035 0.67685
 C241 C 0.75103 0.17623 0.67819
 C242 C 0.71332 0.17515 0.64313
 H243 H 0.68268 0.13797 0.58089
 H244 H 0.81675 0.07721 0.63976
 H245 H 0.81691 0.14024 0.70407
 H246 H 0.68482 0.20288 0.64338
 C247 C 0.28009 0.85505 0.59213
 C248 C 0.25367 0.89855 0.60006
 C249 C 0.22806 0.90512 0.64420
 C250 C 0.22940 0.86881 0.68037
 C251 C 0.25477 0.82482 0.67197
 C252 C 0.27992 0.81797 0.62761
 H253 H 0.29974 0.84938 0.55805
 H254 H 0.20759 0.93859 0.65081
 H255 H 0.21014 0.87462 0.71464
 H256 H 0.29956 0.78408 0.62071
 C257 C 0.34713 0.23540 0.08706
 C258 C 0.39551 0.24715 0.09992
 C259 C 0.40706 0.25854 0.14870
 C260 C 0.37045 0.25791 0.18454
 C261 C 0.32183 0.24674 0.17169
 C262 C 0.31033 0.23561 0.12273
 H263 H 0.33786 0.22667 0.04939
 H264 H 0.44438 0.26765 0.15896
 H265 H 0.37976 0.26667 0.22218
 H266 H 0.27294 0.22689 0.11238
 C267 C 0.40925 0.72421 0.85222
 C268 C 0.40110 0.75007 0.89596
 C269 C 0.35693 0.77567 0.90263
 C270 C 0.32082 0.77460 0.86625
 C271 C 0.32934 0.74949 0.82217
 C272 C 0.37387 0.72468 0.81510
 H273 H 0.44328 0.70440 0.84657
 H274 H 0.35006 0.79553 0.93637
 H275 H 0.28641 0.79366 0.87216
 H276 H 0.38088 0.70531 0.78112
 C277 C 0.63709 0.78623 0.10520
 C278 C 0.60133 0.74918 0.10383
 C279 C 0.60160 0.71238 0.13991
 C280 C 0.63668 0.71314 0.17730
 C281 C 0.67283 0.74979 0.17820
 C282 C 0.67308 0.78605 0.14168
 H283 H 0.63775 0.81474 0.07749
 H284 H 0.57411 0.68367 0.13968
 H285 H 0.63579 0.68512 0.20548
 H286 H 0.70121 0.81410 0.14141
 C287 C 0.60504 0.28960 0.86499
 C288 C 0.60337 0.25210 0.90029
 C289 C 0.63920 0.21503 0.89964
 C290 C 0.67644 0.21572 0.86448
 C291 C 0.67748 0.25260 0.82859
 C292 C 0.64141 0.28938 0.82889
 H293 H 0.57751 0.31833 0.86464
 H294 H 0.63876 0.18595 0.92677
 H295 H 0.70429 0.18733 0.86499
 H296 H 0.64128 0.31769 0.80099
 C297 C 0.08756 0.34974 0.23078
 C298 C 0.09941 0.39731 0.24628
 C299 C 0.14739 0.40815 0.26134
 C300 C 0.18351 0.37172 0.26035
 C301 C 0.17156 0.32392 0.24543
 C302 C 0.12334 0.31301 0.23099
 H303 H 0.05050 0.34096 0.21931
 H304 H 0.15687 0.44483 0.27342
 H305 H 0.22058 0.38050 0.27173
 H306 H 0.11371 0.27619 0.21949
 C307 C 0.89991 0.36413 0.78833
 C308 C 0.90071 0.39959 0.75094
 C309 C 0.86467 0.39834 0.71412
 C310 C 0.82795 0.36260 0.71510
 C311 C 0.82766 0.32670 0.75200
 C312 C 0.86406 0.32748 0.78841
 H313 H 0.92759 0.36421 0.81688
 H314 H 0.86441 0.42556 0.68513
 H315 H 0.79974 0.36289 0.68710
 H316 H 0.86467 0.29969 0.81683
 C317 C 0.14957 0.59479 0.72074
 C318 C 0.10582 0.60267 0.74667
 C319 C 0.09897 0.64671 0.77241
 C320 C 0.13525 0.68291 0.77156
 C321 C 0.17943 0.67461 0.74655
 C322 C 0.18660 0.63027 0.72141
 H323 H 0.15540 0.56081 0.70091
 H324 H 0.06526 0.65331 0.79243
 H325 H 0.12920 0.71717 0.79080
 H326 H 0.22063 0.62346 0.70203
 C327 C 0.89534 0.63860 0.21624
 C328 C 0.89637 0.60226 0.25277
 C329 C 0.86074 0.60278 0.28995
 C330 C 0.82395 0.63856 0.28995
 C331 C 0.82328 0.67514 0.25371
 C332 C 0.85951 0.67526 0.21720
 H333 H 0.92274 0.63907 0.18745
 H334 H 0.86071 0.57487 0.31827
 H335 H 0.79593 0.63769 0.31809
 H336 H 0.85988 0.70364 0.18937
 C337 C 0.14497 0.27953 0.59342
 C338 C 0.10236 0.25137 0.60000
 C339 C 0.09702 0.22305 0.64267
 C340 C 0.13358 0.22339 0.67864
 C341 C 0.17681 0.25036 0.67141
 C342 C 0.18237 0.27839 0.62860
 H343 H 0.14968 0.30153 0.56063
 H344 H 0.06415 0.20146 0.64850
 H345 H 0.12844 0.20232 0.71195
 H346 H 0.21546 0.29960 0.62272
 C347 C 0.91271 0.76402 0.65204
 C348 C 0.90017 0.75151 0.60376
 C349 C 0.85158 0.73909 0.59235
 C350 C 0.81562 0.73962 0.62890
 C351 C 0.82817 0.75159 0.67740
 C352 C 0.87697 0.76357 0.68882
 H353 H 0.95019 0.77359 0.66125
 H354 H 0.84150 0.72942 0.55513
 H355 H 0.77812 0.73024 0.61961
 H356 H 0.88712 0.77293 0.72608
 C357 C 0.08876 0.76449 0.34888
 C358 C 0.10059 0.74960 0.39670
 C359 C 0.14850 0.73438 0.40767
 C360 C 0.18452 0.73459 0.37120
 C361 C 0.17261 0.74875 0.32313
 C362 C 0.12450 0.76352 0.31208
 H363 H 0.05181 0.77628 0.34001
 H364 H 0.15808 0.72296 0.44454
 H365 H 0.22156 0.72322 0.38019
 H366 H 0.11492 0.77469 0.27515
 C367 C 0.90420 0.22945 0.35290
 C368 C 0.89474 0.24977 0.39921
 C369 C 0.84847 0.27001 0.40920
 C370 C 0.81170 0.26924 0.37340
 C371 C 0.82142 0.24971 0.32679
 C372 C 0.86796 0.23016 0.31658
 H373 H 0.93987 0.21388 0.34467
 H374 H 0.84068 0.28571 0.44488
 H375 H 0.77589 0.28442 0.38169
 H376 H 0.87590 0.21504 0.28070
 C377 C 0.21963 0.35797 0.89716
 C378 C 0.25358 0.39665 0.89529
 C379 C 0.28757 0.39864 0.85665
 C380 C 0.28670 0.36308 0.81965
 C381 C 0.25287 0.32432 0.82169
 C382 C 0.21998 0.32150 0.86114
 H383 H 0.19349 0.35552 0.92700
 H384 H 0.31397 0.42828 0.85455
 H385 H 0.31246 0.36562 0.78950
 H386 H 0.19455 0.29111 0.86395
 C387 C 0.73358 0.40977 0.15194
 C388 C 0.74886 0.39839 0.10420
 C389 C 0.76320 0.35032 0.09268
 C390 C 0.76169 0.31368 0.12858
 C391 C 0.74687 0.32512 0.17653
 C392 C 0.73318 0.37343 0.18812
 H393 H 0.72255 0.44685 0.16125
 H394 H 0.77501 0.34115 0.05585
 H395 H 0.77252 0.27657 0.11926
 H396 H 0.72178 0.38271 0.22504
 C397 C 0.76670 0.65145 0.91333
 C398 C 0.75371 0.60314 0.90140
 C399 C 0.74125 0.59121 0.85296
 C400 C 0.74212 0.62733 0.81654
 C401 C 0.75440 0.67592 0.82851
 C402 C 0.76654 0.68781 0.87714
 H403 H 0.77630 0.66104 0.95070
 H404 H 0.73123 0.55394 0.84336
 H405 H 0.73259 0.61770 0.77918
 H406 H 0.77613 0.72516 0.88684
 C407 C 0.23410 0.64808 0.08856
 C408 C 0.24983 0.60039 0.09987
 C409 C 0.26510 0.58918 0.14771
 C410 C 0.26393 0.62523 0.18420
 C411 C 0.24865 0.67311 0.17282
 C412 C 0.23416 0.68445 0.12471
 H413 H 0.22241 0.65721 0.05165
 H414 H 0.27733 0.55243 0.15686
 H415 H 0.27535 0.61606 0.22117
 H416 H 0.22239 0.72131 0.11546
 C417 C 0.40145 0.13685 0.71168
 C418 C 0.40219 0.10158 0.74940
 C419 C 0.36588 0.10366 0.78608
 C420 C 0.32818 0.13847 0.78335
 C421 C 0.32825 0.17426 0.74629
 C422 C 0.36634 0.17425 0.71173
 H423 H 0.42965 0.13720 0.68365
 H424 H 0.36525 0.07697 0.81556
 H425 H 0.29924 0.13789 0.81054
 H426 H 0.36919 0.20336 0.68494
 C427 C 0.34884 0.90688 0.23024
 C428 C 0.39541 0.89667 0.24966
 C429 C 0.40563 0.84979 0.26834
 C430 C 0.36972 0.81318 0.26699
 C431 C 0.32286 0.82360 0.24829
 C432 C 0.31248 0.87071 0.23023
 H433 H 0.34052 0.94299 0.21577
 H434 H 0.44155 0.84143 0.28326
 H435 H 0.37812 0.77693 0.28104
 H436 H 0.27641 0.87918 0.21576
 C437 C 0.64600 0.09056 0.23710
 C438 C 0.59803 0.10188 0.25182
 C439 C 0.58655 0.14970 0.26703
 C440 C 0.62264 0.18618 0.26671
 C441 C 0.67076 0.17484 0.25226
 C442 C 0.68237 0.12671 0.23795
 H443 H 0.65533 0.05367 0.22548
 H444 H 0.54959 0.15884 0.27850
 H445 H 0.61327 0.22315 0.27797
 H446 H 0.71940 0.11748 0.22679
 C447 C 0.65376 0.91157 0.76634
 C448 C 0.60530 0.89958 0.75392
 C449 C 0.59332 0.85106 0.74174
 C450 C 0.62948 0.81464 0.74236
 C451 C 0.67819 0.82664 0.75415
 C452 C 0.69016 0.87536 0.76598
 H453 H 0.66343 0.94899 0.77568
 H454 H 0.55596 0.84141 0.73211
 H455 H 0.61977 0.77723 0.73308
 H456 H 0.72758 0.88510 0.77519
 C457 C 0.70975 0.87025 0.61246
 C458 C 0.75107 0.90017 0.60429
 C459 C 0.79317 0.89284 0.63339
 C460 C 0.79324 0.85772 0.67075
 C461 C 0.75255 0.82693 0.67778
 C462 C 0.71115 0.83301 0.64767
 H463 H 0.67687 0.87434 0.59044
 H464 H 0.82551 0.91547 0.62858
 H465 H 0.82524 0.85440 0.69409
 H466 H 0.67973 0.80904 0.65160
 C467 C 0.29073 0.38921 0.12777
 C468 C 0.24959 0.39760 0.09759
 C469 C 0.20751 0.36838 0.10442
 C470 C 0.20723 0.33085 0.13938
 C471 C 0.24767 0.32365 0.17050
 C472 C 0.28913 0.35373 0.16480
 H473 H 0.32361 0.41124 0.12402
 H474 H 0.17532 0.37326 0.08156
 H475 H 0.17527 0.30744 0.14221
 H476 H 0.32044 0.34958 0.18893
 C477 C 0.21323 0.10261 0.63423
 C478 C 0.24900 0.10142 0.59700
 C479 C 0.28544 0.13797 0.59631
 C480 C 0.28505 0.17565 0.63105
 C481 C 0.25164 0.17470 0.67014
 C482 C 0.21583 0.13774 0.67156
 H483 H 0.18475 0.07491 0.63596
 H484 H 0.31269 0.13896 0.56737
 H485 H 0.31085 0.20555 0.62736
 H486 H 0.18961 0.13639 0.70136
 C487 C 0.28565 0.86307 0.39328
 C488 C 0.24687 0.89696 0.39609
 C489 C 0.20820 0.89394 0.36213
 C490 C 0.20877 0.85812 0.32543
 C491 C 0.24732 0.82398 0.32297
 C492 C 0.28548 0.82643 0.35746
 H493 H 0.31567 0.86443 0.41932
 H494 H 0.17805 0.91986 0.36342
 H495 H 0.17916 0.85693 0.29894
 H496 H 0.31510 0.79990 0.35661
 C497 C 0.70807 0.13613 0.39788
 C498 C 0.74685 0.10223 0.40068
 C499 C 0.78507 0.10475 0.36622
 C500 C 0.78430 0.14030 0.32931
 C501 C 0.74610 0.17480 0.32716
 C502 C 0.70804 0.17256 0.36175
 H503 H 0.67829 0.13501 0.42418
 H504 H 0.81511 0.07869 0.36734
 H505 H 0.81351 0.14097 0.30240
 H506 H 0.67838 0.19905 0.36073
 C507 C 0.63324 0.79192 0.89440
 C508 C 0.60364 0.75013 0.90138
 C509 C 0.61202 0.70859 0.87180
 C510 C 0.64776 0.70955 0.83508
 C511 C 0.67818 0.75071 0.82918
 C512 C 0.67109 0.79154 0.85982
 H513 H 0.62833 0.82440 0.91681
 H514 H 0.58968 0.67592 0.87566
 H515 H 0.65170 0.67803 0.81123
 H516 H 0.69466 0.82336 0.85669
 C517 C 0.13186 0.28880 0.39089
 C518 C 0.09821 0.24999 0.39506
 C519 C 0.10055 0.21089 0.36156
 C520 C 0.13568 0.21085 0.32423
 C521 C 0.16986 0.24920 0.32065
 C522 C 0.16784 0.28805 0.35440
 H523 H 0.13097 0.31919 0.41651
 H524 H 0.07476 0.18073 0.36384
 H525 H 0.13648 0.18075 0.29829
 H526 H 0.19432 0.31762 0.35260
 C527 C 0.60493 0.29157 0.13192
 C528 C 0.59778 0.25000 0.10205
 C529 C 0.62761 0.20845 0.10980
 C530 C 0.66457 0.20913 0.14532
 C531 C 0.67060 0.25004 0.17602
 C532 C 0.63991 0.29095 0.16943
 H533 H 0.58239 0.32406 0.12747
 H534 H 0.62367 0.17596 0.08722
 H535 H 0.68850 0.17759 0.14887
 H536 H 0.64316 0.32256 0.19325
 C537 C 0.40704 0.27535 0.85174
 C538 C 0.39887 0.24976 0.89567
 C539 C 0.35473 0.22418 0.90237
 C540 C 0.31878 0.22482 0.86579
 C541 C 0.32744 0.24936 0.82139
 C542 C 0.37181 0.27446 0.81443
 H543 H 0.44101 0.29521 0.84606
 H544 H 0.34777 0.20459 0.93626
 H545 H 0.28439 0.20584 0.87182
 H546 H 0.37879 0.29373 0.78037
 C547 C 0.39386 0.70974 0.13427
 C548 C 0.39708 0.74859 0.10051
 C549 C 0.36311 0.78730 0.10327
 C550 C 0.32618 0.78687 0.13882
 C551 C 0.32350 0.74847 0.17305
 C552 C 0.35775 0.71003 0.17067
 H553 H 0.41984 0.67964 0.13307
 H554 H 0.36462 0.81747 0.07741
 H555 H 0.29965 0.81647 0.13968
 H556 H 0.35646 0.68030 0.19703
 C557 C 0.89570 0.63153 0.79283
 C558 C 0.90288 0.60223 0.75087
 C559 C 0.87261 0.61014 0.70971
 C560 C 0.83526 0.64529 0.71113
 C561 C 0.82929 0.67559 0.75238
 C562 C 0.86038 0.66877 0.79293
 H563 H 0.91855 0.62693 0.82506
 H564 H 0.87655 0.58798 0.67694
 H565 H 0.81109 0.64903 0.67982
 H566 H 0.85719 0.69223 0.82483
 C567 C 0.38606 0.12823 0.29029
 C568 C 0.39481 0.09866 0.24884
 C569 C 0.36576 0.10588 0.20668
 C570 C 0.32809 0.14072 0.20658
 C571 C 0.32059 0.17130 0.24736
 C572 C 0.35045 0.16514 0.28891
 H573 H 0.40797 0.12420 0.32323
 H574 H 0.37097 0.08350 0.17424
 H575 H 0.30500 0.14412 0.17442
 H576 H 0.34624 0.18899 0.32039
 C577 C 0.12908 0.60680 0.28982
 C578 C 0.09894 0.59944 0.24849
 C579 C 0.10626 0.62914 0.20683
 C580 C 0.14158 0.66629 0.20722
 C581 C 0.17247 0.67261 0.24796
 C582 C 0.16640 0.64192 0.28889
 H583 H 0.12503 0.58430 0.32236
 H584 H 0.08349 0.62498 0.17449
 H585 H 0.14481 0.69016 0.17563
 H586 H 0.19047 0.64529 0.32031
 C587 C 0.86149 0.39498 0.28939
 C588 C 0.89531 0.39742 0.25059
 C589 C 0.89214 0.36318 0.21221
 C590 C 0.85615 0.32666 0.21299
 C591 C 0.82197 0.32466 0.25145
 C592 C 0.82466 0.35933 0.28941
 H593 H 0.86298 0.42125 0.31918
 H594 H 0.91800 0.36417 0.18205
 H595 H 0.85480 0.30000 0.18356
 H596 H 0.79812 0.35883 0.31897
 C597 C 0.10091 0.35766 0.77832
 C598 C 0.10476 0.39823 0.74681
 C599 C 0.14489 0.40161 0.71471
 C600 C 0.18140 0.36549 0.71508
 C601 C 0.17737 0.32485 0.74642
 C602 C 0.13648 0.32069 0.77737
 H603 H 0.06989 0.35417 0.80293
 H604 H 0.14847 0.43271 0.69018
 H605 H 0.21269 0.36906 0.69085
 H606 H 0.13230 0.28894 0.80091
 C607 C 0.90423 0.77499 0.35551
 C608 C 0.89676 0.75069 0.40025
 C609 C 0.85227 0.72633 0.40895
 C610 C 0.81522 0.72700 0.37348
 C611 C 0.82305 0.75052 0.32840
 C612 C 0.86786 0.77414 0.31938
 H613 H 0.93854 0.79373 0.34826
 H614 H 0.84599 0.70759 0.44344
 H615 H 0.78070 0.70873 0.38084
 H616 H 0.87435 0.79221 0.28458
 C617 C 0.90740 0.22804 0.64836
 C618 C 0.89817 0.25120 0.60332
 C619 C 0.85290 0.27442 0.59531
 C620 C 0.81683 0.27372 0.63175
 C621 C 0.82637 0.25131 0.67709
 C622 C 0.87197 0.22887 0.68541
 H623 H 0.94230 0.21013 0.65505
 H624 H 0.84525 0.29224 0.56059
 H625 H 0.78169 0.29107 0.62491
 H626 H 0.87977 0.21158 0.72036
 C627 C 0.10550 0.78610 0.63730
 C628 C 0.10490 0.75030 0.60028
 C629 C 0.14184 0.71434 0.59922
 C630 C 0.17925 0.71463 0.63430
 C631 C 0.17934 0.74991 0.67176
 C632 C 0.14203 0.78539 0.67328
 H633 H 0.07711 0.81392 0.63899
 H634 H 0.14221 0.68659 0.57075
 H635 H 0.20804 0.68726 0.63241
 H636 H 0.14121 0.81242 0.70238
 C637 C 0.72536 0.59379 0.15012
 C638 C 0.74947 0.60250 0.10551
 C639 C 0.77289 0.64762 0.09754
 C640 C 0.77152 0.68405 0.13359
 C641 C 0.74823 0.67501 0.17856
 C642 C 0.72549 0.62959 0.18684
 H643 H 0.70728 0.55901 0.15678
 H644 H 0.79143 0.65488 0.06313
 H645 H 0.78904 0.71908 0.12676
 H646 H 0.70750 0.62219 0.22149
 C647 C 0.29016 0.60123 0.85905
 C648 C 0.25367 0.60140 0.89543
 C649 C 0.21767 0.63832 0.89490
 C650 C 0.21856 0.67489 0.85892
 C651 C 0.25444 0.67413 0.82203
 C652 C 0.29006 0.63691 0.82216
 H653 H 0.31808 0.57290 0.85859
 H654 H 0.18943 0.63937 0.92285
 H655 H 0.19125 0.70377 0.85978
 H656 H 0.31773 0.63554 0.79369
 C657 C 0.77666 0.35491 0.90893
 C658 C 0.75285 0.39981 0.90058
 C659 C 0.72933 0.40831 0.85559
 C660 C 0.73023 0.37245 0.81897
 C661 C 0.75312 0.32716 0.82770
 C662 C 0.77604 0.31839 0.87294
 H663 H 0.79478 0.34782 0.94362
 H664 H 0.71099 0.44293 0.84863
 H665 H 0.71254 0.37962 0.78409
 H666 H 0.79369 0.28347 0.88010
 C667 C 0.64410 0.90572 0.22822
 C668 C 0.59944 0.89783 0.25256
 C669 C 0.59149 0.85343 0.27739
 C670 C 0.62751 0.81685 0.27704
 C671 C 0.67244 0.82505 0.25337
 C672 C 0.68078 0.86984 0.22940
 H673 H 0.65080 0.93994 0.20909
 H674 H 0.55708 0.84678 0.29616
 H675 H 0.62063 0.78234 0.29556
 H676 H 0.71545 0.87665 0.21118
 C677 C 0.64992 0.09503 0.77701
 C678 C 0.60414 0.10417 0.75534
 C679 C 0.59485 0.14982 0.73340
 C680 C 0.63086 0.18629 0.73366
 C681 C 0.67702 0.17684 0.75439
 C682 C 0.68650 0.13099 0.77586
 H683 H 0.65763 0.05977 0.79375
 H684 H 0.55961 0.15727 0.71651
 H685 H 0.62311 0.22163 0.71711
 H686 H 0.72205 0.12332 0.79196
 C687 C 0.36438 0.89812 0.78366
 C688 C 0.40156 0.89877 0.74801
 C689 C 0.40244 0.86223 0.71172
 C690 C 0.36717 0.82498 0.71173
 C691 C 0.32972 0.82473 0.74706
 C692 C 0.32824 0.86182 0.78266
 H693 H 0.36286 0.92620 0.81177
 H694 H 0.43103 0.86189 0.68412
 H695 H 0.36901 0.79636 0.68424
 H696 H 0.29914 0.86257 0.80969
   
