data_POSCAR
  _audit_creation_date              2014-09-24
  _audit_creation_method            'ToBaCCo'
  _symmetry_space_group_name_H-M    'P1'
  _symmetry_Int_Tables_number       1
  _symmetry_cell_setting            triclinic
  loop_
  _symmetry_equiv_pos_as_xyz
 x,y,z
_cell_length_a 33.1486
_cell_length_b 44.1982
_cell_length_c 24.4079
_cell_angle_alpha 89.885600
_cell_angle_beta 90.358300
_cell_angle_gamma 90.377000
loop_
  _atom_site_label
  _atom_site_type_symbol
  _atom_site_fract_x
  _atom_site_fract_y
  _atom_site_fract_z
C1 C 0.18797 0.25060 0.12947
 C2 C 0.20176 0.22211 0.14741
 C3 C 0.22798 0.22159 0.19348
 C4 C 0.23600 0.24794 0.22465
 C5 C 0.21714 0.27508 0.20862
 C6 C 0.19432 0.27686 0.16035
 C7 C 0.26310 0.24738 0.27441
 C8 C 0.28191 0.27418 0.29296
 C9 C 0.30487 0.27473 0.34127
 C10 C 0.31149 0.24777 0.37006
 C11 C 0.29618 0.21998 0.35035
 C12 C 0.27071 0.22039 0.30370
 H13 H 0.17254 0.25281 0.09057
 H14 H 0.24110 0.20059 0.20646
 H15 H 0.21937 0.29502 0.23402
 H16 H 0.27882 0.29505 0.27023
 H17 H 0.33153 0.24845 0.40524
 H18 H 0.25574 0.19965 0.29183
 C19 C 0.81443 0.24636 0.13360
 C20 C 0.80648 0.27370 0.16020
 C21 C 0.78149 0.27371 0.20635
 C22 C 0.76204 0.24703 0.22458
 C23 C 0.77060 0.21978 0.19691
 C24 C 0.79772 0.21919 0.15292
 C25 C 0.73375 0.24792 0.27263
 C26 C 0.72486 0.22171 0.30382
 C27 C 0.69784 0.22248 0.34852
 C28 C 0.68384 0.25108 0.36511
 C29 C 0.69103 0.27722 0.33415
 C30 C 0.71484 0.27522 0.28718
 H31 H 0.83532 0.24606 0.09963
 H32 H 0.77751 0.29486 0.22768
 H33 H 0.75646 0.19870 0.20871
 H34 H 0.73802 0.20060 0.29199
 H35 H 0.66772 0.25348 0.40316
 H36 H 0.71782 0.29509 0.26169
 C37 C 0.68821 0.75154 0.62717
 C38 C 0.70176 0.72337 0.64594
 C39 C 0.72775 0.72243 0.69173
 C40 C 0.73719 0.74893 0.72178
 C41 C 0.71929 0.77636 0.70480
 C42 C 0.69575 0.77802 0.65696
 C43 C 0.76456 0.74811 0.77132
 C44 C 0.78443 0.77463 0.78971
 C45 C 0.80802 0.77499 0.83807
 C46 C 0.81409 0.74742 0.86590
 C47 C 0.79747 0.72034 0.84597
 C48 C 0.77157 0.72102 0.80037
 H49 H 0.67090 0.75277 0.58949
 H50 H 0.73966 0.70085 0.70418
 H51 H 0.72237 0.79654 0.72937
 H52 H 0.78050 0.79543 0.76730
 H53 H 0.83456 0.74642 0.90061
 H54 H 0.75724 0.70006 0.78825
 C55 C 0.31531 0.74694 0.63692
 C56 C 0.30766 0.77412 0.66418
 C57 C 0.28319 0.77388 0.71083
 C58 C 0.26387 0.74711 0.72891
 C59 C 0.27214 0.72001 0.70059
 C60 C 0.29880 0.71966 0.65606
 C61 C 0.23595 0.74777 0.77737
 C62 C 0.22713 0.72139 0.80816
 C63 C 0.20034 0.72198 0.85315
 C64 C 0.18661 0.75051 0.87047
 C65 C 0.19371 0.77681 0.83989
 C66 C 0.21721 0.77501 0.79262
 H67 H 0.33582 0.74683 0.60252
 H68 H 0.27946 0.79492 0.73262
 H69 H 0.25809 0.69888 0.71225
 H70 H 0.24010 0.70032 0.79578
 H71 H 0.17071 0.75273 0.90874
 H72 H 0.22006 0.79501 0.76741
 O73 O 1.04130 -0.03361 0.01494
 O74 O 0.96257 0.02098 0.05149
 O75 O 0.96427 -0.03528 0.01719
 O76 O 1.04154 0.02203 0.05025
 O77 O 1.04017 0.03810 -0.03535
 O78 O 0.96131 -0.01835 -0.06788
 O79 O 0.96192 0.03807 -0.03351
 O80 O 1.03926 -0.01756 -0.07071
 Cu81 Cu 1.00248 -0.00787 0.04222
 Cu82 Cu 1.00035 0.01181 -0.06035
 C83 C 1.05290 -0.03551 -0.03444
 C84 C 0.94927 0.03921 0.01544
 C85 C 0.95054 -0.03724 -0.03136
 C86 C 1.05418 0.03983 0.01312
 O87 O 0.46222 0.52197 0.54873
 O88 O 0.53979 0.46689 0.51034
 O89 O 0.54113 0.52248 0.54632
 O90 O 0.46257 0.46597 0.51387
 O91 O 0.45984 0.48286 0.42881
 O92 O 0.53886 0.53912 0.46109
 O93 O 0.53774 0.48350 0.42505
 O94 O 0.46074 0.53913 0.46378
 Cu95 Cu 0.50161 0.49286 0.53851
 Cu96 Cu 0.49898 0.51291 0.43620
 C97 C 0.44860 0.54025 0.51298
 C98 C 0.55124 0.46522 0.46086
 C99 C 0.55331 0.54057 0.50934
 C100 C 0.44865 0.46414 0.46538
 O101 O -0.03949 0.53839 0.03560
 O102 O 0.03838 0.48262 0.07197
 O103 O 0.03878 0.53836 0.03655
 O104 O -0.03955 0.48192 0.07013
 O105 O -0.03841 0.46533 -0.01505
 O106 O 0.03897 0.52231 -0.04895
 O107 O 0.03882 0.46657 -0.01358
 O108 O -0.03997 0.52154 -0.04944
 Cu109 Cu -0.00064 0.51205 0.06206
 Cu110 Cu -0.00020 0.49253 -0.04047
 C111 C -0.05278 0.53968 -0.01326
 C112 C 0.05129 0.46463 0.03562
 C113 C 0.05213 0.54010 -0.01204
 C114 C -0.05130 0.46326 0.03371
 O115 O 0.46060 1.03928 0.53805
 O116 O 0.53873 0.98330 0.57167
 O117 O 0.53866 1.03904 0.53671
 O118 O 0.46074 0.98267 0.57236
 O119 O 0.46047 0.96617 0.48709
 O120 O 0.53715 1.02326 0.45104
 O121 O 0.53772 0.96743 0.48599
 O122 O 0.45818 1.02243 0.45300
 Cu123 Cu 0.49962 1.01276 0.56323
 Cu124 Cu 0.49817 0.99342 0.46056
 C125 C 0.44638 1.04063 0.48969
 C126 C 0.55107 0.96543 0.53477
 C127 C 0.55106 1.04092 0.48767
 C128 C 0.44839 0.96405 0.53622
 C129 C 1.15416 0.14083 0.07688
 C130 C 1.19067 0.14019 0.10613
 C131 C 1.20741 0.16688 0.12765
 C132 C 1.18759 0.19502 0.12145
 C133 C 1.15101 0.19504 0.09103
 C134 C 1.13493 0.16855 0.06891
 C135 C 1.13412 0.11274 0.05764
 C136 C 1.11690 0.11147 0.00498
 C137 C 1.09241 0.08705 -0.01036
 C138 C 1.08429 0.06355 0.02691
 C139 C 1.10314 0.06411 0.07869
 C140 C 1.12801 0.08842 0.09381
 H141 H 1.23618 0.16501 0.14829
 H142 H 1.13267 0.21502 0.08669
 H143 H 1.07850 0.08725 -0.05062
 H144 H 1.09766 0.04623 0.10819
 H145 H 1.10618 0.16957 0.04766
 H146 H 1.12139 0.12988 -0.02374
 H147 H 1.20626 0.11899 0.11234
 H148 H 1.14070 0.08900 0.13480
 C149 C 0.65160 0.64160 0.57605
 C150 C 0.69144 0.64178 0.59591
 C151 C 0.70849 0.66841 0.61730
 C152 C 0.68560 0.69512 0.62024
 C153 C 0.64554 0.69446 0.60063
 C154 C 0.62900 0.66820 0.57828
 C155 C 0.63218 0.61370 0.55522
 C156 C 0.61195 0.61407 0.50455
 C157 C 0.58797 0.58956 0.48842
 C158 C 0.58320 0.56440 0.52312
 C159 C 0.60493 0.56347 0.57278
 C160 C 0.62949 0.58786 0.58850
 H161 H 0.73948 0.66803 0.63143
 H162 H 0.62630 0.71406 0.60385
 H163 H 0.57164 0.59096 0.44993
 H164 H 0.60199 0.54430 0.60021
 H165 H 0.59792 0.66840 0.56424
 H166 H 0.61367 0.63382 0.47829
 H167 H 0.70933 0.62138 0.59456
 H168 H 0.64461 0.58726 0.62796
 C169 C -0.14062 0.35721 0.10317
 C170 C -0.16094 0.33769 0.06660
 C171 C -0.17770 0.31043 0.08504
 C172 C -0.17507 0.30230 0.14054
 C173 C -0.15522 0.32182 0.17727
 C174 C -0.13796 0.34886 0.15876
 C175 C -0.12106 0.38560 0.08328
 C176 C -0.11922 0.41156 0.11657
 C177 C -0.09781 0.43728 0.09972
 C178 C -0.07824 0.43780 0.04886
 C179 C -0.08158 0.41242 0.01452
 C180 C -0.10249 0.38658 0.03164
 H181 H -0.19331 0.29587 0.05610
 H182 H -0.15243 0.31587 0.22019
 H183 H -0.09594 0.45656 0.12697
 H184 H -0.06650 0.41199 -0.02471
 H185 H -0.12179 0.36290 0.18792
 H186 H -0.13393 0.41191 0.15603
 H187 H -0.16421 0.34355 0.02374
 H188 H -0.10268 0.36696 0.00518
 C189 C 0.35984 0.85789 0.60714
 C190 C 0.36328 0.84928 0.66253
 C191 C 0.34622 0.82216 0.68107
 C192 C 0.32583 0.80283 0.64456
 C193 C 0.32238 0.81125 0.58928
 C194 C 0.33892 0.83858 0.57083
 C195 C 0.37926 0.88631 0.58711
 C196 C 0.39697 0.88745 0.53492
 C197 C 0.41768 0.91331 0.51747
 C198 C 0.42169 0.93856 0.55202
 C199 C 0.40304 0.93787 0.60351
 C200 C 0.38181 0.91213 0.62070
 H201 H 0.34961 0.81599 0.72381
 H202 H 0.30633 0.79685 0.56052
 H203 H 0.43205 0.91300 0.47776
 H204 H 0.40546 0.95704 0.63094
 H205 H 0.33501 0.84465 0.52816
 H206 H 0.39626 0.86794 0.50820
 H207 H 0.37990 0.86316 0.69148
 H208 H 0.36779 0.91235 0.66063
 C209 C -0.15431 0.63778 -0.08735
 C210 C -0.15705 0.64237 -0.14434
 C211 C -0.17458 0.66852 -0.16570
 C212 C -0.18927 0.69101 -0.13073
 C213 C -0.18771 0.68625 -0.07388
 C214 C -0.17078 0.65978 -0.05242
 C215 C -0.13191 0.61126 -0.06488
 C216 C -0.10864 0.61401 -0.01666
 C217 C -0.08436 0.59020 0.00141
 C218 C -0.08216 0.56327 -0.02879
 C219 C -0.10628 0.56002 -0.07590
 C220 C -0.13120 0.58359 -0.09340
 H221 H -0.17483 0.67187 -0.20968
 H222 H -0.19908 0.70321 -0.04610
 H223 H -0.06585 0.59342 0.03769
 H224 H -0.10549 0.53935 -0.09964
 H225 H -0.17006 0.65682 -0.00840
 H226 H -0.10771 0.63502 0.00601
 H227 H -0.14404 0.62643 -0.17269
 H228 H -0.14942 0.58024 -0.12985
 C229 C 0.34360 1.13900 0.41942
 C230 C 0.33521 1.16406 0.45285
 C231 C 0.31852 1.19039 0.43072
 C232 C 0.30839 1.19226 0.37461
 C233 C 0.31382 1.16622 0.34218
 C234 C 0.33178 1.14028 0.36399
 C235 C 0.36703 1.11268 0.44112
 C236 C 0.36285 1.08362 0.41791
 C237 C 0.38814 1.05997 0.43424
 C238 C 0.41726 1.06453 0.47538
 C239 C 0.42026 1.09295 0.50052
 C240 C 0.39591 1.11683 0.48314
 H241 H 0.31313 1.20915 0.45810
 H242 H 0.30746 1.16649 0.29863
 H243 H 0.38505 1.03812 0.41457
 H244 H 0.44286 1.09714 0.53190
 H245 H 0.33819 1.12188 0.33631
 H246 H 0.34040 1.07909 0.38660
 H247 H 0.34207 1.16366 0.49624
 H248 H 0.40106 1.13881 0.50136
 C249 C 1.14177 -0.13933 -0.10595
 C250 C 1.12046 -0.16668 -0.10061
 C251 C 1.13699 -0.19364 -0.11926
 C252 C 1.17560 -0.19401 -0.14282
 C253 C 1.19674 -0.16647 -0.14879
 C254 C 1.17980 -0.13932 -0.13088
 C255 C 1.12372 -0.11106 -0.08556
 C256 C 1.11985 -0.08575 -0.11994
 C257 C 1.09815 -0.06049 -0.10262
 C258 C 1.08057 -0.06002 -0.05033
 C259 C 1.08652 -0.08474 -0.01497
 C260 C 1.10762 -0.11009 -0.03258
 H261 H 1.11934 -0.21423 -0.11540
 H262 H 1.22667 -0.16596 -0.16626
 H263 H 1.09411 -0.04174 -0.13071
 H264 H 1.07330 -0.08512 0.02550
 H265 H 1.19671 -0.11842 -0.13534
 H266 H 1.13196 -0.08610 -0.16104
 H267 H 1.09071 -0.16710 -0.08249
 H268 H 1.11059 -0.12930 -0.00525
 C269 C 0.63904 0.36124 0.38746
 C270 C 0.61761 0.33393 0.39262
 C271 C 0.63411 0.30693 0.37409
 C272 C 0.67282 0.30647 0.35085
 C273 C 0.69404 0.33399 0.34489
 C274 C 0.67712 0.36118 0.36268
 C275 C 0.62118 0.38949 0.40819
 C276 C 0.61733 0.41494 0.37412
 C277 C 0.59590 0.44024 0.39191
 C278 C 0.57858 0.44061 0.44437
 C279 C 0.58448 0.41573 0.47938
 C280 C 0.60531 0.39035 0.46131
 H281 H 0.61640 0.28637 0.37792
 H282 H 0.72404 0.33443 0.32764
 H283 H 0.59189 0.45910 0.36407
 H284 H 0.57147 0.41528 0.51997
 H285 H 0.69414 0.38205 0.35835
 H286 H 0.62929 0.41468 0.33293
 H287 H 0.58782 0.33356 0.41063
 H288 H 0.60826 0.37104 0.48841
 C289 C 0.86076 -0.14305 -0.10213
 C290 C 0.84819 -0.16595 -0.06587
 C291 C 0.83149 -0.19298 -0.08552
 C292 C 0.82566 -0.19773 -0.14219
 C293 C 0.83764 -0.17441 -0.17833
 C294 C 0.85529 -0.14774 -0.15865
 C295 C 0.88085 -0.11494 -0.08137
 C296 C 0.87720 -0.08727 -0.10973
 C297 C 0.89889 -0.06165 -0.09272
 C298 C 0.92390 -0.06291 -0.04619
 C299 C 0.92621 -0.09005 -0.01641
 C300 C 0.90533 -0.11581 -0.03407
 H301 H 0.82155 -0.20957 -0.05575
 H302 H 0.83555 -0.17717 -0.22229
 H303 H 0.89646 -0.04095 -0.11629
 H304 H 0.94574 -0.09180 0.01918
 H305 H 0.86567 -0.13116 -0.18813
 H306 H 0.85792 -0.08539 -0.14549
 H307 H 0.85080 -0.16298 -0.02199
 H308 H 0.90973 -0.13667 -0.01162
 C309 C 0.35763 0.35856 0.39745
 C310 C 0.33625 0.33967 0.43375
 C311 C 0.31938 0.31236 0.41561
 C312 C 0.32310 0.30352 0.36068
 C313 C 0.34408 0.32243 0.32424
 C314 C 0.36132 0.34955 0.34245
 C315 C 0.37734 0.38694 0.41705
 C316 C 0.37986 0.41257 0.38288
 C317 C 0.40169 0.43819 0.39937
 C318 C 0.42110 0.43891 0.45067
 C319 C 0.41701 0.41390 0.48589
 C320 C 0.39558 0.38817 0.46918
 H321 H 0.30295 0.29829 0.44433
 H322 H 0.34781 0.31592 0.28183
 H323 H 0.40410 0.45718 0.37144
 H324 H 0.43188 0.41364 0.52552
 H325 H 0.37833 0.36311 0.31361
 H326 H 0.36542 0.41270 0.34298
 H327 H 0.33229 0.34607 0.47615
 H328 H 0.39478 0.36879 0.49633
 C329 C 0.15175 0.64091 -0.07695
 C330 C 0.18848 0.64013 -0.10501
 C331 C 0.20549 0.66674 -0.12639
 C332 C 0.18570 0.69493 -0.12127
 C333 C 0.14880 0.69507 -0.09222
 C334 C 0.13247 0.66867 -0.07019
 C335 C 0.13166 0.61293 -0.05746
 C336 C 0.11462 0.61189 -0.00496
 C337 C 0.09026 0.58751 0.01067
 C338 C 0.08206 0.56382 -0.02616
 C339 C 0.10066 0.56419 -0.07780
 C340 C 0.12544 0.58847 -0.09319
 H341 H 0.23446 0.66477 -0.14597
 H342 H 0.13048 0.71509 -0.08885
 H343 H 0.07653 0.58786 0.05080
 H344 H 0.09509 0.54618 -0.10695
 H345 H 0.10355 0.66977 -0.04988
 H346 H 0.11920 0.63043 0.02340
 H347 H 0.20409 0.61889 -0.11029
 H348 H 0.13801 0.58888 -0.13404
 C349 C 0.64966 1.14169 0.41993
 C350 C 0.68646 1.14087 0.39206
 C351 C 0.70331 1.16741 0.37019
 C352 C 0.68329 1.19555 0.37457
 C353 C 0.64630 1.19572 0.40341
 C354 C 0.63013 1.16940 0.42597
 C355 C 0.62980 1.11377 0.44007
 C356 C 0.61311 1.11294 0.49278
 C357 C 0.58903 1.08856 0.50911
 C358 C 0.58071 1.06467 0.47275
 C359 C 0.59891 1.06486 0.42085
 C360 C 0.62346 1.08913 0.40478
 H361 H 0.73237 1.16542 0.35085
 H362 H 0.62781 1.21568 0.40623
 H363 H 0.57556 1.08906 0.54940
 H364 H 0.59323 1.04669 0.39206
 H365 H 0.60115 1.17050 0.44616
 H366 H 0.61777 1.13165 0.52077
 H367 H 0.70224 1.11966 0.38736
 H368 H 0.63577 1.08940 0.36378
 C369 C 0.14153 0.36062 0.10559
 C370 C 0.17939 0.36077 0.13165
 C371 C 0.19664 0.33364 0.14958
 C372 C 0.17601 0.30596 0.14249
 C373 C 0.13764 0.30614 0.11757
 C374 C 0.12079 0.33310 0.09895
 C375 C 0.12301 0.38894 0.08565
 C376 C 0.10653 0.39026 0.03262
 C377 C 0.08507 0.41564 0.01541
 C378 C 0.07919 0.44007 0.05119
 C379 C 0.09714 0.43926 0.10354
 C380 C 0.11915 0.41397 0.12048
 H381 H 0.22640 0.33430 0.16810
 H382 H 0.12038 0.28542 0.11277
 H383 H 0.07161 0.41553 -0.02513
 H384 H 0.09317 0.45777 0.13196
 H385 H 0.09117 0.33253 0.07994
 H386 H 0.10950 0.37130 0.00491
 H387 H 0.19590 0.38179 0.13711
 H388 H 0.13154 0.41337 0.16163
 C389 C 0.64281 0.86170 0.60211
 C390 C 0.62166 0.83427 0.59691
 C391 C 0.63859 0.80735 0.61554
 C392 C 0.67746 0.80710 0.63899
 C393 C 0.69853 0.83470 0.64462
 C394 C 0.68120 0.86181 0.62670
 C395 C 0.62406 0.88999 0.58247
 C396 C 0.62098 0.91514 0.61716
 C397 C 0.59856 0.94035 0.60088
 C398 C 0.57939 0.94095 0.54932
 C399 C 0.58450 0.91642 0.51355
 C400 C 0.60638 0.89112 0.53013
 H401 H 0.62095 0.78673 0.61199
 H402 H 0.72864 0.83529 0.66202
 H403 H 0.59521 0.95896 0.62926
 H404 H 0.57009 0.91617 0.47361
 H405 H 0.69802 0.88276 0.63107
 H406 H 0.63428 0.91468 0.65780
 H407 H 0.59164 0.83375 0.57912
 H408 H 0.60870 0.87205 0.50254
 C409 C 0.84749 0.13699 0.08845
 C410 C 0.83079 0.15881 0.05292
 C411 C 0.81346 0.18517 0.07368
 C412 C 0.81163 0.18998 0.13041
 C413 C 0.82649 0.16766 0.16601
 C414 C 0.84450 0.14162 0.14535
 C415 C 0.87027 0.11061 0.06667
 C416 C 0.87148 0.08297 0.09551
 C417 C 0.89645 0.05948 0.07827
 C418 C 0.92008 0.06278 0.03109
 C419 C 0.91751 0.08972 0.00074
 C420 C 0.89323 0.11344 0.01856
 H421 H 0.80194 0.20202 0.04546
 H422 H 0.82595 0.17107 0.20994
 H423 H 0.89756 0.03882 0.10216
 H424 H 0.93566 0.09299 -0.03556
 H425 H 0.85763 0.12582 0.17417
 H426 H 0.85355 0.07956 0.13192
 H427 H 0.83160 0.15580 0.00895
 H428 H 0.89385 0.13443 -0.00433
 C429 C 0.34779 0.63781 0.58910
 C430 C 0.33090 0.65990 0.55426
 C431 C 0.31381 0.68615 0.57585
 C432 C 0.31243 0.69058 0.63272
 C433 C 0.32750 0.66801 0.66761
 C434 C 0.34526 0.64208 0.64613
 C435 C 0.37026 0.61152 0.56644
 C436 C 0.37149 0.58370 0.59469
 C437 C 0.39624 0.56026 0.57669
 C438 C 0.41961 0.56380 0.52933
 C439 C 0.41698 0.59091 0.49953
 C440 C 0.39292 0.61459 0.51811
 H441 H 0.30212 0.70319 0.54816
 H442 H 0.32732 0.67114 0.71163
 H443 H 0.39738 0.53946 0.60015
 H444 H 0.43494 0.59435 0.46310
 H445 H 0.35856 0.62607 0.67443
 H446 H 0.35376 0.58011 0.63123
 H447 H 0.33138 0.65717 0.51023
 H448 H 0.39350 0.63572 0.49565
   
