data_POSCAR
  _audit_creation_date              2014-09-24
  _audit_creation_method            'ToBaCCo'
  _symmetry_space_group_name_H-M    'P1'
  _symmetry_Int_Tables_number       1
  _symmetry_cell_setting            triclinic
  loop_
  _symmetry_equiv_pos_as_xyz
 x,y,z
_cell_length_a 36.6613
_cell_length_b 37.9240
_cell_length_c 11.8210
_cell_angle_alpha 91.772700
_cell_angle_beta 89.546100
_cell_angle_gamma 120.589800
loop_
  _atom_site_label
  _atom_site_type_symbol
  _atom_site_fract_x
  _atom_site_fract_y
  _atom_site_fract_z
C1 C 0.19838 0.46194 0.39471
 C2 C 0.18627 0.46504 0.50806
 C3 C 0.20621 0.45783 0.59867
 C4 C 0.24304 0.45537 0.58375
 C5 C 0.25875 0.45889 0.47151
 C6 C 0.23512 0.45953 0.37977
 H7 H 0.24661 0.45902 0.29563
 H8 H 0.19426 0.45684 0.68294
 C9 C 0.49357 -0.29411 0.46243
 C10 C 0.48547 -0.29017 0.57872
 C11 C 0.48597 -0.25466 0.61788
 C12 C 0.49378 -0.22324 0.54486
 C13 C 0.50495 -0.22552 0.43080
 C14 C 0.50566 -0.26070 0.39242
 H15 H 0.51257 -0.26331 0.30425
 H16 H 0.47928 -0.25175 0.70614
 C17 C 1.27046 0.80517 0.43297
 C18 C 1.27659 0.81505 0.55058
 C19 C 1.25164 0.78541 0.62917
 C20 C 1.22080 0.74529 0.59556
 C21 C 1.21530 0.73502 0.47829
 C22 C 1.23902 0.76510 0.39919
 H23 H 1.23455 0.75611 0.31013
 H24 H 1.25529 0.79469 0.71790
 C25 C 0.80351 0.54495 0.49160
 C26 C 0.79153 0.54793 0.60504
 C27 C 0.75374 0.54888 0.62087
 C28 C 0.72981 0.54996 0.52934
 C29 C 0.74421 0.54970 0.41744
 C30 C 0.78089 0.54778 0.40095
 H31 H 0.79009 0.54518 0.31500
 H32 H 0.74406 0.55176 0.70554
 C33 C 0.49599 0.27560 0.44982
 C34 C 0.48277 0.26727 0.56404
 C35 C 0.48552 0.23587 0.61699
 C36 C 0.49744 0.21112 0.55671
 C37 C 0.51408 0.22183 0.44675
 C38 C 0.51332 0.25406 0.39448
 H39 H 0.52347 0.26048 0.30734
 H40 H 0.47505 0.22827 0.70346
 C41 C 0.74639 0.19628 0.45035
 C42 C 0.75127 0.20616 0.56708
 C43 C 0.77546 0.24743 0.60304
 C44 C 0.79225 0.27918 0.52454
 C45 C 0.78725 0.26878 0.40664
 C46 C 0.76440 0.22738 0.37220
 H47 H 0.76178 0.21881 0.28299
 H48 H 0.77880 0.25484 0.69312
 N49 N 0.96277 0.54615 0.17506
 N50 N 0.93495 0.55504 0.21841
 N51 N 1.05053 0.55419 0.21362
 N52 N 1.08249 0.56818 0.28583
 N53 N 1.05136 0.58444 0.16008
 N54 N 1.08386 0.61995 0.19527
 N55 N 0.96219 0.51622 0.22966
 N56 N 0.93410 0.50394 0.31137
 C57 C 0.91733 0.52827 0.30309
 C58 C 1.10312 0.60915 0.27284
 N59 N 1.03893 0.45729 0.05444
 N60 N 1.06762 0.44601 0.04794
 N61 N 0.95414 0.43857 0.16666
 N62 N 0.92306 0.41578 0.23590
 N63 N 0.94967 0.41894 0.06964
 N64 N 0.91480 0.38254 0.06905
 N65 N 1.04212 0.47634 0.15168
 N66 N 1.07227 0.47778 0.21512
 Mn67 Mn 1.00228 0.49632 0.19139
 C68 C 1.08798 0.45896 0.14917
 C69 C 0.89884 0.38100 0.17359
 N70 N 1.04705 0.60004 -0.07598
 N71 N 1.08270 0.63587 -0.07451
 N72 N 0.95426 0.54227 -0.15783
 N73 N 0.92279 0.53889 -0.21946
 N74 N 0.95736 0.56145 -0.06077
 N75 N 0.92719 0.57081 -0.05275
 N76 N 1.04242 0.58037 -0.17319
 N77 N 1.07426 0.60265 -0.24128
 Mn78 Mn 1.00464 0.57353 0.04983
 C79 C 1.09902 0.63724 -0.17864
 C80 C 0.90615 0.55669 -0.15300
 N81 N 0.94516 0.43437 -0.16421
 N82 N 0.91233 0.39861 -0.19548
 N83 N 1.03428 0.50253 -0.23566
 N84 N 1.06285 0.51493 -0.31626
 N85 N 1.03369 0.47280 -0.18004
 N86 N 1.06196 0.46420 -0.22108
 N87 N 0.94564 0.46411 -0.21951
 N88 N 0.91300 0.44928 -0.29011
 Mn89 Mn 0.99189 0.44547 -0.05539
 Mn90 Mn 0.99411 0.52237 -0.19771
 Cl91 Cl 0.99825 0.50948 -0.00294
 C92 C 0.89237 0.40842 -0.27316
 C93 C 1.07989 0.49087 -0.30565
 N94 N 0.45635 0.40498 0.11439
 N95 N 0.44584 0.36686 0.13214
 N96 N 0.44177 0.46890 0.23285
 N97 N 0.42712 0.48005 0.32022
 N98 N 0.41104 0.44506 0.16192
 N99 N 0.37432 0.43907 0.19989
 N100 N 0.48801 0.43048 0.18087
 N101 N 0.49963 0.41021 0.24643
 C102 C 0.47341 0.37062 0.21326
 C103 C 0.38519 0.46117 0.29902
 N104 N 0.53127 0.57277 0.13002
 N105 N 0.52773 0.60546 0.15219
 N106 N 0.56353 0.51028 0.16031
 N107 N 0.59148 0.50454 0.21366
 N108 N 0.58186 0.53726 0.08129
 N109 N 0.62275 0.55022 0.07748
 N110 N 0.51546 0.54707 0.21302
 N111 N 0.50065 0.56121 0.29258
 Mn112 Mn 0.50259 0.48908 0.19725
 C113 C 0.50889 0.59768 0.25520
 C114 C 0.62816 0.52927 0.15987
 N115 N 0.39368 0.44270 -0.07894
 N116 N 0.35320 0.43175 -0.07726
 N117 N 0.46097 0.42660 -0.20531
 N118 N 0.46804 0.40520 -0.28468
 N119 N 0.43955 0.40295 -0.12149
 N120 N 0.43159 0.36541 -0.14082
 N121 N 0.41240 0.46441 -0.16808
 N122 N 0.38504 0.46850 -0.23002
 Mn123 Mn 0.42462 0.42379 0.01912
 C124 C 0.34839 0.44813 -0.17207
 C125 C 0.44929 0.36691 -0.24220
 N126 N 0.56529 0.53537 -0.15390
 N127 N 0.60398 0.54971 -0.19245
 N128 N 0.48725 0.54431 -0.18627
 N129 N 0.47049 0.56175 -0.24494
 N130 N 0.51499 0.57068 -0.11192
 N131 N 0.51797 0.60676 -0.11844
 N132 N 0.53701 0.50846 -0.22619
 N133 N 0.55593 0.50482 -0.31782
 Mn134 Mn 0.54858 0.55463 -0.01354
 Mn135 Mn 0.47453 0.48578 -0.19833
 Cl136 Cl 0.48756 0.48830 0.00071
 C137 C 0.59768 0.53010 -0.29378
 C138 C 0.49001 0.60059 -0.20158
 N139 N 0.42875 -0.02982 0.12298
 N140 N 0.38773 -0.05623 0.12943
 N141 N 0.50958 0.04732 0.22300
 N142 N 0.53064 0.07920 0.29352
 N143 N 0.48768 0.05483 0.15007
 N144 N 0.49288 0.09159 0.16953
 N145 N 0.44984 -0.03781 0.19723
 N146 N 0.42352 -0.06959 0.25761
 C147 C 0.38488 -0.08069 0.21402
 C148 C 0.51957 0.10639 0.25950
 N149 N 0.60029 0.02716 0.12613
 N150 N 0.64108 0.05074 0.14925
 N151 N 0.51932 -0.05459 0.18070
 N152 N 0.50933 -0.08495 0.25015
 N153 N 0.54210 -0.05633 0.09641
 N154 N 0.54823 -0.08740 0.10635
 N155 N 0.57743 0.02994 0.20821
 N156 N 0.60197 0.05595 0.28858
 Mn157 Mn 0.51387 -0.00393 0.20401
 C158 C 0.64145 0.06848 0.25060
 C159 C 0.52719 -0.10538 0.20111
 N160 N 0.48897 0.06293 -0.09135
 N161 N 0.47849 0.09045 -0.11593
 N162 N 0.45350 -0.02406 -0.19927
 N163 N 0.42888 -0.04996 -0.27984
 N164 N 0.43069 -0.02086 -0.11797
 N165 N 0.38991 -0.04375 -0.14188
 N166 N 0.51231 0.06023 -0.17234
 N167 N 0.51830 0.08585 -0.25252
 Mn168 Mn 0.45874 0.01680 0.01656
 C169 C 0.49828 0.10539 -0.21496
 C170 C 0.38943 -0.06189 -0.24254
 N171 N 0.54345 -0.04820 -0.14514
 N172 N 0.53844 -0.08467 -0.17086
 N173 N 0.58081 0.04438 -0.18811
 N174 N 0.60631 0.07643 -0.24816
 N175 N 0.60254 0.03666 -0.11548
 N176 N 0.64350 0.06340 -0.12368
 N177 N 0.52153 -0.03986 -0.21529
 N178 N 0.50073 -0.07021 -0.28944
 Mn179 Mn 0.57246 -0.01022 -0.00975
 Mn180 Mn 0.51714 0.01021 -0.19447
 Cl181 Cl 0.51556 0.00318 0.00436
 C182 C 0.51181 -0.09771 -0.26168
 C183 C 0.64529 0.08795 -0.20701
 N184 N 1.15768 0.46424 0.11953
 N185 N 1.18945 0.46703 0.19023
 C186 C 1.17434 0.45941 0.29725
 C187 C 1.13226 0.44992 0.29423
 C188 C 1.12379 0.45471 0.18396
 H189 H 1.11019 0.44163 0.36337
 H190 H 1.16183 0.47291 0.03525
 H191 H 1.22038 0.47752 0.16339
 N192 N 0.45850 0.60190 0.38394
 N193 N 0.45483 0.63169 0.44548
 C194 C 0.48636 0.66853 0.41343
 C195 C 0.50965 0.66296 0.32737
 C196 C 0.49183 0.62072 0.31470
 H197 H 0.53811 0.68635 0.28768
 H198 H 0.43952 0.57047 0.39454
 H199 H 0.43071 0.62552 0.50309
 N200 N 0.30967 -0.13504 0.18419
 N201 N 0.27819 -0.16733 0.24461
 C202 C 0.29388 -0.16640 0.34845
 C203 C 0.33603 -0.13433 0.35419
 C204 C 0.34447 -0.11573 0.25040
 H205 H 0.35875 -0.12644 0.42163
 H206 H 0.30643 -0.12815 0.10134
 H207 H 0.24740 -0.18695 0.21441
 N208 N 0.86747 0.49852 0.46176
 N209 N 0.83726 0.50241 0.51123
 C210 C 0.83494 0.53279 0.46193
 C211 C 0.86422 0.54809 0.37503
 C212 C 0.88413 0.52546 0.37841
 H213 H 0.86990 0.57193 0.31729
 H214 H 0.87663 0.47782 0.48460
 H215 H 0.81853 0.48435 0.57701
 N216 N 0.43735 0.29689 0.25239
 N217 N 0.44276 0.27228 0.31733
 C218 C 0.47919 0.29454 0.37607
 C219 C 0.49827 0.33524 0.34693
 C220 C 0.47030 0.33525 0.26863
 H221 H 0.52804 0.36085 0.37751
 H222 H 0.41131 0.28745 0.19862
 H223 H 0.42202 0.24067 0.32043
 N224 N 0.71884 0.10516 0.29022
 N225 N 0.74662 0.13847 0.34772
 C226 C 0.72571 0.15390 0.40526
 C227 C 0.68283 0.12960 0.38281
 C228 C 0.67991 0.09911 0.30994
 H229 H 0.65791 0.13578 0.40533
 H230 H 0.72670 0.08815 0.23464
 H231 H 0.77945 0.15186 0.34161
 N232 N 0.46850 0.10813 -0.39574
 N233 N 0.46960 0.13821 -0.46186
 C234 C 0.48763 0.17345 -0.39952
 C235 C 0.49666 0.16648 -0.29119
 C236 C 0.48526 0.12552 -0.29419
 H237 H 0.51364 0.18909 -0.22422
 H238 H 0.45941 0.07843 -0.42447
 H239 H 0.45688 0.13308 -0.54342
 N240 N 0.63863 0.56193 -0.46588
 N241 N 0.67711 0.56981 -0.51178
 C242 C 0.69267 0.55148 -0.44751
 C243 C 0.66567 0.53375 -0.35642
 C244 C 0.63206 0.53999 -0.37311
 H245 H 0.66912 0.51721 -0.28829
 H246 H 0.61999 0.57333 -0.49555
 H247 H 0.69201 0.58939 -0.57856
 N248 N 0.83804 0.38695 -0.42507
 N249 N 0.81075 0.35061 -0.48443
 C250 C 0.81252 0.32002 -0.43444
 C251 C 0.83964 0.33584 -0.34122
 C252 C 0.85595 0.37781 -0.34090
 H253 H 0.84956 0.31953 -0.28765
 H254 H 0.84451 0.41592 -0.44698
 H255 H 0.79237 0.34838 -0.55434
 N256 N 0.45817 -0.15441 -0.38251
 N257 N 0.45350 -0.18931 -0.43844
 C258 C 0.48774 -0.19190 -0.41332
 C259 C 0.51350 -0.16085 -0.33578
 C260 C 0.49437 -0.13749 -0.32149
 H261 H 0.54338 -0.15468 -0.30028
 H262 H 0.43760 -0.14317 -0.39059
 H263 H 0.42803 -0.20918 -0.49113
 N264 N 0.28646 0.45702 -0.14161
 N265 N 0.25791 0.46043 -0.21136
 C266 C 0.26341 0.45103 -0.31942
 C267 C 0.29420 0.43967 -0.31774
 C268 C 0.30871 0.44539 -0.20736
 H269 H 0.30598 0.42927 -0.38726
 H270 H 0.29250 0.46669 -0.05662
 H271 H 0.23971 0.47289 -0.18303
 N272 N 1.17354 0.69308 -0.14561
 N273 N 1.20573 0.72031 -0.20513
 C274 C 1.19376 0.71649 -0.31487
 C275 C 1.15169 0.68471 -0.32460
 C276 C 1.14032 0.67084 -0.21553
 H277 H 1.13130 0.67425 -0.39862
 H278 H 1.17458 0.68964 -0.05856
 H279 H 1.23539 0.74105 -0.17008
 N280 N 0.83529 0.54913 -0.12084
 N281 N 0.80250 0.54475 -0.19048
 C282 C 0.81655 0.55143 -0.29860
 C283 C 0.85888 0.56157 -0.29745
 C284 C 0.86879 0.55865 -0.18696
 H285 H 0.88068 0.56995 -0.36712
 H286 H 0.83224 0.54183 -0.03550
 H287 H 0.77179 0.53437 -0.16186
 N288 N 0.42272 0.29309 -0.24755
 N289 N 0.43259 0.26558 -0.29843
 C290 C 0.46276 0.28564 -0.37627
 C291 C 0.47238 0.32653 -0.37719
 C292 C 0.44717 0.32988 -0.29324
 H293 H 0.49736 0.35139 -0.42316
 H294 H 0.40169 0.28620 -0.18037
 H295 H 0.41790 0.23467 -0.27880
 N296 N 0.72349 0.13719 -0.20328
 N297 N 0.75137 0.16852 -0.26257
 C298 C 0.73083 0.17418 -0.34767
 C299 C 0.68795 0.14581 -0.34086
 C300 C 0.68468 0.12278 -0.24884
 H301 H 0.66254 0.14268 -0.39399
 H302 H 0.73103 0.12607 -0.13288
 H303 H 0.78390 0.18536 -0.24561
 N304 N 1.12722 0.51645 -0.47063
 N305 N 1.15689 0.50906 -0.52335
 C306 C 1.15907 0.48011 -0.46497
 C307 C 1.13232 0.46986 -0.37209
 C308 C 1.11278 0.49274 -0.38010
 H309 H 1.12642 0.44747 -0.30910
 H310 H 1.11699 0.53566 -0.49988
 H311 H 1.17505 0.52489 -0.59271
 N312 N 0.45300 0.64014 -0.19106
 N313 N 0.45154 0.66859 -0.24934
 C314 C 0.47885 0.67897 -0.33630
 C315 C 0.49904 0.65641 -0.33178
 C316 C 0.48141 0.63207 -0.23924
 H317 H 0.52273 0.65715 -0.38846
 H318 H 0.43434 0.62610 -0.12070
 H319 H 0.43139 0.67989 -0.23098
 N320 N 0.31545 -0.08821 -0.30656
 N321 N 0.28625 -0.11990 -0.36659
 C322 C 0.30267 -0.14282 -0.40372
 C323 C 0.34388 -0.12536 -0.36430
 C324 C 0.35079 -0.09060 -0.30460
 H325 H 0.36489 -0.13752 -0.37206
 H326 H 0.31086 -0.06591 -0.26606
 H327 H 0.25504 -0.12673 -0.37721
 N328 N 0.55679 -0.15101 0.21563
 N329 N 0.55123 -0.18194 0.27642
 C330 C 0.51986 -0.19108 0.35119
 C331 C 0.50485 -0.16428 0.33613
 C332 C 0.52925 -0.13948 0.25005
 H333 H 0.47899 -0.16324 0.37620
 H334 H 0.57944 -0.13789 0.15224
 H335 H 0.56915 -0.19616 0.26716
 N336 N 0.36984 0.49481 0.45952
 N337 N 0.33693 0.49547 0.50268
 C338 C 0.30186 0.46739 0.44585
 C339 C 0.31315 0.44942 0.35914
 C340 C 0.35653 0.46766 0.37147
 H341 H 0.29277 0.42640 0.29665
 H342 H 0.40077 0.51256 0.49071
 H343 H 0.33859 0.51453 0.57062
 N344 N 1.16014 0.62717 0.41440
 N345 N 1.18908 0.66016 0.47067
 C346 C 1.18757 0.69275 0.43501
 C347 C 1.15681 0.68018 0.35133
 C348 C 1.13979 0.63823 0.34220
 H349 H 1.14724 0.69870 0.30670
 H350 H 1.15465 0.59772 0.42540
 H351 H 1.20945 0.66023 0.53206
 N352 N 0.56376 0.16317 0.39724
 N353 N 0.56353 0.19522 0.44338
 C354 C 0.53416 0.20040 0.39052
 C355 C 0.51564 0.17067 0.30428
 C356 C 0.53449 0.14701 0.31391
 H357 H 0.48773 0.16319 0.25494
 H358 H 0.58143 0.15089 0.42822
 H359 H 0.58027 0.21079 0.51703
 N360 N 0.70683 0.56730 0.15821
 N361 N 0.73751 0.57313 0.22800
 C362 C 0.72037 0.54732 0.31412
 C363 C 0.67712 0.52260 0.29546
 C364 C 0.66972 0.53738 0.19813
 H365 H 0.65384 0.50037 0.35156
 H366 H 0.71105 0.58545 0.08901
 H367 H 0.76916 0.59625 0.22057
 N368 N 0.82532 0.32262 0.14682
 N369 N 0.79541 0.29408 0.20913
 C370 C 0.80985 0.29884 0.31657
 C371 C 0.85096 0.33217 0.32225
 C372 C 0.85925 0.34630 0.21325
 H373 H 0.87266 0.34334 0.39369
 H374 H 0.82238 0.32571 0.06039
 H375 H 0.76581 0.27150 0.17762
   
