data_POSCAR
  _audit_creation_date              2014-09-24
  _audit_creation_method            'ToBaCCo'
  _symmetry_space_group_name_H-M    'P1'
  _symmetry_Int_Tables_number       1
  _symmetry_cell_setting            triclinic
  loop_
  _symmetry_equiv_pos_as_xyz
 x,y,z
_cell_length_a 44.0694
_cell_length_b 44.2639
_cell_length_c 62.0182
_cell_angle_alpha 89.969300
_cell_angle_beta 90.046600
_cell_angle_gamma 120.338500
loop_
  _atom_site_label
  _atom_site_type_symbol
  _atom_site_fract_x
  _atom_site_fract_y
  _atom_site_fract_z
C1 C -0.01661 0.49292 1.24603
 C2 C 0.01918 0.50969 1.24611
 C3 C 0.03956 0.51855 1.26654
 C4 C 0.03997 0.52042 1.22586
 C5 C -0.03728 0.48227 1.22570
 C6 C -0.03713 0.48399 1.26636
 C7 C 0.06514 0.55338 1.27076
 C8 C 0.08420 0.56243 1.28999
 C9 C 0.07834 0.53670 1.30556
 C10 C 0.05291 0.50153 1.30095
 C11 C 0.03392 0.49261 1.28163
 C12 C 0.03643 0.54210 1.21078
 C13 C 0.05672 0.55241 1.19198
 C14 C 0.08114 0.54145 1.18802
 C15 C 0.08471 0.51994 1.20329
 C16 C 0.06444 0.50967 1.22204
 C17 C -0.03370 0.46060 1.21063
 C18 C -0.05409 0.45014 1.19185
 C19 C -0.07864 0.46095 1.18788
 C20 C -0.08217 0.48253 1.20309
 C21 C -0.06181 0.49293 1.22182
 C22 C -0.06271 0.44910 1.27051
 C23 C -0.08188 0.44003 1.28968
 C24 C -0.07603 0.46578 1.30507
 C25 C -0.05078 0.50089 1.30067
 C26 C -0.03163 0.50993 1.28144
 H27 H 0.07001 0.57373 1.25922
 H28 H 0.10345 0.58978 1.29255
 H29 H 0.04745 0.48066 1.31220
 H30 H 0.01471 0.46544 1.27847
 H31 H 0.01815 0.55122 1.21364
 H32 H 0.05341 0.56911 1.18063
 H33 H 0.06769 0.49311 1.23356
 H34 H -0.01538 0.45153 1.21353
 H35 H -0.05079 0.43340 1.18054
 H36 H -0.10083 0.49130 1.20062
 H37 H -0.06510 0.50948 1.23331
 H38 H -0.06746 0.42876 1.25900
 H39 H -0.10118 0.41278 1.29246
 H40 H -0.04576 0.52140 1.31209
 H41 H -0.01243 0.53712 1.27833
 H42 H 0.10329 0.51107 1.20084
 C43 C 0.50855 0.49109 1.25238
 C44 C 0.49134 0.50943 1.25240
 C45 C 0.48010 0.51868 1.27273
 C46 C 0.48274 0.52118 1.23205
 C47 C 0.51723 0.47944 1.23201
 C48 C 0.51982 0.48184 1.27270
 C49 C 0.45860 0.49284 1.28768
 C50 C 0.44786 0.50199 1.30658
 C51 C 0.45818 0.53714 1.31079
 C52 C 0.47949 0.56286 1.29566
 C53 C 0.49020 0.55368 1.27681
 C54 C 0.44784 0.51186 1.22774
 C55 C 0.43924 0.52253 1.20864
 C56 C 0.46545 0.54301 1.19352
 C57 C 0.50052 0.55274 1.19804
 C58 C 0.50910 0.54205 1.21717
 C59 C 0.55213 0.48868 1.22780
 C60 C 0.56080 0.47803 1.20874
 C61 C 0.53467 0.45764 1.19353
 C62 C 0.49960 0.44803 1.19793
 C63 C 0.49095 0.45869 1.21704
 C64 C 0.54138 0.50771 1.28762
 C65 C 0.55208 0.49857 1.30655
 C66 C 0.54165 0.46341 1.31081
 C67 C 0.52030 0.43767 1.29570
 C68 C 0.50964 0.44683 1.27682
 H69 H 0.44996 0.46558 1.28464
 H70 H 0.43132 0.48148 1.31781
 H71 H 0.48787 0.59015 1.29831
 H72 H 0.50661 0.57398 1.26541
 H73 H 0.42718 0.49595 1.23909
 H74 H 0.41199 0.51467 1.20576
 H75 H 0.53630 0.55007 1.22040
 H76 H 0.57274 0.50449 1.23921
 H77 H 0.58805 0.48582 1.20594
 H78 H 0.47878 0.43219 1.18666
 H79 H 0.46375 0.45073 1.22019
 H80 H 0.55008 0.53498 1.28454
 H81 H 0.56865 0.51909 1.31776
 H82 H 0.51185 0.41037 1.29840
 H83 H 0.49318 0.42653 1.26543
 H84 H 0.52140 0.56865 1.18682
 C85 C 0.50820 1.01814 1.25218
 C86 C 0.49129 0.98249 1.25223
 C87 C 0.48010 0.96190 1.27256
 C88 C 0.48293 0.96211 1.23188
 C89 C 0.51674 1.03849 1.23178
 C90 C 0.51935 1.03877 1.27248
 C91 C 0.49029 0.93714 1.27664
 C92 C 0.47950 0.91702 1.29543
 C93 C 0.45792 0.92096 1.31059
 C94 C 0.44759 0.94581 1.30632
 C95 C 0.45845 0.96591 1.28747
 C96 C 0.50940 0.96804 1.21702
 C97 C 0.50102 0.94879 1.19787
 C98 C 0.46604 0.92303 1.19332
 C99 C 0.43973 0.91684 1.20845
 C100 C 0.44814 0.93610 1.22755
 C101 C 0.49045 1.03253 1.21677
 C102 C 0.49897 1.05180 1.19761
 C103 C 0.53402 1.07774 1.19312
 C104 C 0.56014 1.08385 1.20848
 C105 C 0.55153 1.06454 1.22758
 C106 C 0.50908 1.06347 1.27649
 C107 C 0.51980 1.08359 1.29527
 C108 C 0.54139 1.07969 1.31048
 C109 C 0.55181 1.05492 1.30626
 C110 C 0.54102 1.03482 1.28742
 H111 H 0.50683 0.93352 1.26527
 H112 H 0.48809 0.89828 1.29793
 H113 H 0.43092 0.94968 1.31743
 H114 H 0.44973 0.98443 1.28443
 H115 H 0.53653 0.98756 1.22027
 H116 H 0.52196 0.95410 1.18666
 H117 H 0.42739 0.93101 1.23888
 H118 H 0.46330 1.01296 1.21991
 H119 H 0.47797 1.04629 1.18637
 H120 H 0.58741 1.10355 1.20583
 H121 H 0.57217 1.06967 1.23903
 H122 H 0.49253 1.06704 1.26508
 H123 H 0.51115 1.10229 1.29774
 H124 H 0.56849 1.05108 1.31741
 H125 H 0.54980 1.01635 1.28441
 H126 H 0.41256 0.89715 1.20554
 C127 C 1.01899 0.50940 0.75429
 C128 C 0.98319 0.49023 0.75440
 C129 C 0.96258 0.47857 0.73408
 C130 C 0.96258 0.48012 0.77475
 C131 C 1.03987 0.51958 0.77453
 C132 C 1.03930 0.52097 0.73385
 C133 C 0.93705 0.48782 0.72997
 C134 C 0.91780 0.47766 0.71081
 C135 C 0.92353 0.45778 0.69538
 C136 C 0.94874 0.44798 0.69973
 C137 C 0.96796 0.45814 0.71895
 C138 C 0.96626 0.50538 0.78985
 C139 C 0.94587 0.49535 0.80862
 C140 C 0.92121 0.45988 0.81255
 C141 C 0.91759 0.43474 0.79730
 C142 C 0.93795 0.44479 0.77859
 C143 C 1.03637 0.49437 0.78961
 C144 C 1.05683 0.50444 0.80836
 C145 C 1.08151 0.53999 0.81234
 C146 C 1.08491 0.56506 0.79700
 C147 C 1.06445 0.55490 0.77832
 C148 C 1.06483 0.51180 0.72962
 C149 C 1.08385 0.52191 0.71038
 C150 C 1.07795 0.54174 0.69489
 C151 C 1.05264 0.55141 0.69944
 C152 C 1.03366 0.54127 0.71875
 H153 H 0.93238 0.50339 0.74151
 H154 H 0.89854 0.48556 0.70807
 H155 H 0.95368 0.43250 0.68829
 H156 H 0.98712 0.45019 0.72202
 H157 H 0.98466 0.53287 0.78699
 H158 H 0.94924 0.51542 0.81995
 H159 H 0.93457 0.42493 0.76707
 H160 H 1.01799 0.46687 0.78677
 H161 H 1.05337 0.48423 0.81961
 H162 H 1.10350 0.59266 0.79929
 H163 H 1.06766 0.57472 0.76680
 H164 H 1.06971 0.49633 0.74114
 H165 H 1.10310 0.51396 0.70770
 H166 H 1.04733 0.56682 0.68812
 H167 H 1.01450 0.54917 0.72191
 H168 H 0.89885 0.40723 0.79973
 C169 C 0.49130 0.50905 0.74793
 C170 C 0.50803 0.49024 0.74799
 C171 C 0.51909 0.48074 0.72770
 C172 C 0.51647 0.47838 0.76838
 C173 C 0.48299 0.52105 0.76827
 C174 C 0.48025 0.51853 0.72759
 C175 C 0.50859 0.44564 0.72366
 C176 C 0.51924 0.43626 0.70487
 C177 C 0.54089 0.46186 0.68978
 C178 C 0.55160 0.49711 0.69395
 C179 C 0.54091 0.50647 0.71278
 C180 C 0.49011 0.45794 0.78337
 C181 C 0.49856 0.44711 0.80251
 C182 C 0.53351 0.45626 0.80693
 C183 C 0.55971 0.47632 0.79169
 C184 C 0.55123 0.48713 0.77260
 C185 C 0.50946 0.54165 0.78317
 C186 C 0.50112 0.55255 0.80230
 C187 C 0.46618 0.54332 0.80677
 C188 C 0.43987 0.52313 0.79161
 C189 C 0.44824 0.51224 0.77254
 C190 C 0.49069 0.55362 0.72354
 C191 C 0.48000 0.56300 0.70475
 C192 C 0.45837 0.53740 0.68964
 C193 C 0.44776 0.50216 0.69380
 C194 C 0.45848 0.49281 0.71265
 H195 H 0.49194 0.42544 0.73504
 H196 H 0.51056 0.40889 0.70225
 H197 H 0.56840 0.51753 0.68275
 H198 H 0.54987 0.53381 0.71581
 H199 H 0.46299 0.45035 0.78023
 H200 H 0.47770 0.43154 0.81381
 H201 H 0.57191 0.50270 0.76118
 H202 H 0.53657 0.54928 0.77997
 H203 H 0.52207 0.56823 0.81354
 H204 H 0.41272 0.51563 0.79446
 H205 H 0.42749 0.49655 0.76117
 H206 H 0.50730 0.57382 0.73493
 H207 H 0.48862 0.59035 0.70213
 H208 H 0.43098 0.48175 0.68259
 H209 H 0.44958 0.46548 0.71567
 H210 H 0.58686 0.48376 0.79448
 C211 C 0.49045 -0.01903 0.74753
 C212 C 0.50768 0.01663 0.74758
 C213 C 0.51897 0.03721 0.72728
 C214 C 0.51634 0.03698 0.76797
 C215 C 0.48194 -0.03944 0.76787
 C216 C 0.47915 -0.03955 0.72718
 C217 C 0.54051 0.03298 0.71238
 C218 C 0.55116 0.05280 0.69343
 C219 C 0.54072 0.07746 0.68913
 C220 C 0.51943 0.08181 0.70423
 C221 C 0.50880 0.06198 0.72313
 C222 C 0.55123 0.06282 0.77222
 C223 C 0.55990 0.08211 0.79133
 C224 C 0.53377 0.07613 0.80653
 C225 C 0.49870 0.05050 0.80207
 C226 C 0.49005 0.03122 0.78292
 C227 C 0.44709 -0.06519 0.77221
 C228 C 0.43854 -0.08447 0.79131
 C229 C 0.46478 -0.07861 0.80651
 C230 C 0.49989 -0.05300 0.80186
 C231 C 0.50835 -0.03377 0.78271
 C232 C 0.45767 -0.03524 0.71227
 C233 C 0.44696 -0.05502 0.69330
 C234 C 0.45726 -0.07984 0.68892
 C235 C 0.47859 -0.08416 0.70412
 C236 C 0.48924 -0.06435 0.72303
 H237 H 0.54920 0.01446 0.71549
 H238 H 0.56770 0.04890 0.68223
 H239 H 0.51098 0.10060 0.70150
 H240 H 0.49236 0.06577 0.73450
 H241 H 0.57186 0.06779 0.76082
 H242 H 0.58714 0.10170 0.79416
 H243 H 0.46285 0.01184 0.77975
 H244 H 0.42638 -0.07008 0.76087
 H245 H 0.41123 -0.10393 0.79409
 H246 H 0.52099 -0.04770 0.81297
 H247 H 0.53553 -0.01444 0.77944
 H248 H 0.44904 -0.01668 0.71537
 H249 H 0.43046 -0.05088 0.68217
 H250 H 0.48712 -0.10292 0.70153
 H251 H 0.50565 -0.06819 0.73441
 H252 H 0.47787 0.04533 0.81335
 O253 O 0.39779 0.66481 0.98182
 O254 O 0.39637 0.72205 0.97487
 C255 C 0.37961 0.73754 0.97044
 O256 O 0.35302 0.73307 0.98111
 O257 O 0.29526 0.67374 0.97462
 C258 C 0.27927 0.64120 0.97073
 O259 O 0.28377 0.61952 0.98172
 O260 O 0.34308 0.62136 0.97537
 C261 C 0.37564 0.63820 0.97113
 O262 O 0.39618 0.67497 1.02472
 O263 O 0.39779 0.73374 1.01778
 C264 C 0.37562 0.73809 1.02841
 O265 O 0.34309 0.72228 1.02406
 O266 O 0.28375 0.66457 1.01754
 C267 C 0.27914 0.63832 1.02853
 O268 O 0.29507 0.62180 1.02468
 O269 O 0.35278 0.62041 1.01835
 C270 C 0.37935 0.64261 1.02908
 Cr271 Cr 0.39511 0.69793 0.99979
 Cr272 Cr 0.31976 0.69748 0.99935
 Cr273 Cr 0.31965 0.62269 1.00002
 O274 O 0.34484 0.67270 0.99972
 O275 O 0.60249 0.33498 0.98216
 O276 O 0.60383 0.27764 0.97545
 C277 C 0.62062 0.26219 0.97105
 O278 O 0.64729 0.26676 0.98170
 O279 O 0.70512 0.32605 0.97525
 C280 C 0.72108 0.35856 0.97126
 O281 O 0.71649 0.38029 0.98213
 O282 O 0.65718 0.37849 0.97577
 C283 C 0.62463 0.36160 0.97147
 O284 O 0.60414 0.32514 1.02513
 O285 O 0.60247 0.26629 1.01843
 C286 C 0.62462 0.26188 1.02907
 O287 O 0.65713 0.27757 1.02469
 O288 O 0.71652 0.33526 1.01820
 C289 C 0.72128 0.36168 1.02906
 O290 O 0.70542 0.37824 1.02510
 O291 O 0.64769 0.37963 1.01878
 C292 C 0.62106 0.35750 1.02948
 Cr293 Cr 0.60517 0.30198 1.00029
 Cr294 Cr 0.68053 0.30235 0.99997
 Cr295 Cr 0.68071 0.37723 1.00044
 O296 O 0.65547 0.32719 1.00023
 O297 O 0.66772 0.38979 0.51866
 O298 O 0.72527 0.38819 0.52513
 C299 C 0.74093 0.37144 0.52911
 O300 O 0.73662 0.34546 0.51796
 O301 O 0.67724 0.28769 0.52419
 C302 C 0.64464 0.27174 0.52832
 O303 O 0.62264 0.27639 0.51768
 O304 O 0.62430 0.33517 0.52487
 C305 C 0.64102 0.36754 0.52926
 O306 O 0.67769 0.38928 0.47571
 O307 O 0.73688 0.39090 0.48217
 C308 C 0.74114 0.36921 0.47103
 O309 O 0.72532 0.33669 0.47496
 O310 O 0.66756 0.27733 0.48120
 C311 C 0.64098 0.27290 0.47051
 O312 O 0.62435 0.28856 0.47486
 O313 O 0.62296 0.34581 0.48204
 C314 C 0.64511 0.37259 0.47148
 Cr315 Cr 0.70094 0.38763 0.50040
 Cr316 Cr 0.70074 0.31276 0.49959
 Cr317 Cr 0.62549 0.31245 0.49986
 O318 O 0.67571 0.33760 0.49995
 O319 O 0.33127 0.61001 0.51850
 O320 O 0.27363 0.61145 0.52485
 C321 C 0.25805 0.62823 0.52896
 O322 O 0.26240 0.65435 0.51793
 O323 O 0.32175 0.71215 0.52421
 C324 C 0.35432 0.72801 0.52844
 O325 O 0.37634 0.72339 0.51785
 O326 O 0.37477 0.66457 0.52476
 C327 C 0.35800 0.63219 0.52912
 O328 O 0.32154 0.61084 0.47550
 O329 O 0.26228 0.60910 0.48183
 C330 C 0.25795 0.63087 0.47080
 O331 O 0.27361 0.66332 0.47490
 O332 O 0.33135 0.72268 0.48121
 C333 C 0.35803 0.72730 0.47058
 O334 O 0.37476 0.71174 0.47494
 O335 O 0.37620 0.65443 0.48186
 C336 C 0.35411 0.62765 0.47128
 Cr337 Cr 0.29813 0.61228 0.50016
 Cr338 Cr 0.29823 0.68715 0.49957
 Cr339 Cr 0.37358 0.68756 0.49985
 O340 O 0.32332 0.66234 0.49986
 N341 N 0.41466 0.53123 0.36295
 C342 C 0.42465 0.56517 0.36673
 N343 N 0.44572 0.58989 0.35229
 N344 N 0.45646 0.58097 0.33460
 C345 C 0.44652 0.54699 0.33067
 N346 N 0.42542 0.52231 0.34524
 C347 C 0.41261 0.57486 0.38555
 C348 C 0.40246 0.58344 0.40116
 C349 C 0.39030 0.59410 0.41950
 N350 N 0.41305 0.62234 0.43132
 N351 N 0.40158 0.63286 0.44796
 C352 C 0.36696 0.61551 0.45332
 N353 N 0.34426 0.58719 0.44147
 N354 N 0.35574 0.57668 0.42483
 N355 N 0.44588 0.85642 0.35100
 C356 C 0.42484 0.85989 0.36547
 N357 N 0.41488 0.88382 0.36176
 N358 N 0.42565 0.90366 0.34407
 C359 C 0.44675 0.90031 0.32942
 N360 N 0.45662 0.87623 0.33334
 C361 C 0.41302 0.83812 0.38434
 C362 C 0.40335 0.81935 0.39998
 C363 C 0.39212 0.79647 0.41834
 N364 N 0.36381 0.79097 0.43006
 N365 N 0.35305 0.76911 0.44682
 C366 C 0.37025 0.75200 0.45241
 N367 N 0.39862 0.75763 0.44064
 N368 N 0.40936 0.77948 0.42390
 N369 N 0.10911 0.52992 0.35791
 C370 C 0.13332 0.56381 0.36199
 N371 N 0.13901 0.58848 0.34709
 N372 N 0.12102 0.57957 0.32866
 C373 C 0.09661 0.54562 0.32434
 N374 N 0.09111 0.52101 0.33946
 C375 C 0.15305 0.57363 0.38173
 C376 C 0.17023 0.58276 0.39806
 C377 C 0.19146 0.59462 0.41719
 N378 N 0.20791 0.62891 0.42276
 N379 N 0.22869 0.64034 0.44004
 C380 C 0.23374 0.61786 0.45234
 N381 N 0.21712 0.58348 0.44676
 N382 N 0.19632 0.57205 0.42947
 N383 N 0.55384 0.41067 0.35248
 C384 C 0.57493 0.43542 0.36690
 N385 N 0.58503 0.46937 0.36306
 N386 N 0.57434 0.47828 0.34530
 C387 C 0.55322 0.45357 0.33074
 N388 N 0.54317 0.41959 0.33474
 C389 C 0.58690 0.42574 0.38577
 C390 C 0.59699 0.41716 0.40140
 C391 C 0.60909 0.40646 0.41975
 N392 N 0.64366 0.42377 0.42509
 N393 N 0.65509 0.41317 0.44172
 C394 C 0.63233 0.38486 0.45356
 N395 N 0.59770 0.36763 0.44819
 N396 N 0.58628 0.37825 0.43156
 N397 N 0.55317 0.14409 0.35087
 C398 C 0.57421 0.14064 0.36537
 N399 N 0.58424 0.11677 0.36169
 N400 N 0.57356 0.09697 0.34400
 C401 C 0.55246 0.10031 0.32931
 N402 N 0.54251 0.12431 0.33320
 C403 C 0.58596 0.16237 0.38423
 C404 C 0.59561 0.18110 0.39987
 C405 C 0.60684 0.20393 0.41824
 N406 N 0.63506 0.20925 0.43002
 N407 N 0.64584 0.23106 0.44680
 C408 C 0.62876 0.24829 0.45232
 N409 N 0.60048 0.24285 0.44049
 N410 N 0.58972 0.22104 0.42373
 N411 N 0.86145 0.41283 0.34802
 C412 C 0.86690 0.43741 0.36294
 N413 N 0.89104 0.47138 0.35895
 N414 N 0.90920 0.48045 0.34057
 C415 C 0.90383 0.45589 0.32553
 N416 N 0.87959 0.42190 0.32966
 C417 C 0.84700 0.42741 0.38256
 C418 C 0.82964 0.41811 0.39881
 C419 C 0.80820 0.40603 0.41779
 N420 N 0.80337 0.42850 0.43017
 N421 N 0.78236 0.41687 0.44735
 C422 C 0.76550 0.38239 0.45270
 N423 N 0.77052 0.36001 0.44030
 N424 N 0.79152 0.37165 0.42314
 N425 N 0.52745 0.41614 1.14048
 C426 C 0.56133 0.42551 1.13647
 N427 N 0.58643 0.44544 1.15107
 N428 N 0.57794 0.45569 1.16914
 C429 C 0.54403 0.44637 1.17330
 N430 N 0.51897 0.42641 1.15857
 C431 C 0.57053 0.41404 1.11720
 C432 C 0.57868 0.40434 1.10121
 C433 C 0.58878 0.39261 1.08242
 N434 N 0.61679 0.41549 1.07044
 N435 N 0.62687 0.40439 1.05341
 C436 C 0.60928 0.37002 1.04780
 N437 N 0.58118 0.34720 1.05981
 N438 N 0.57111 0.35831 1.07683
 N439 N 0.85510 0.44941 1.14707
 C440 C 0.85768 0.42794 1.13257
 N441 N 0.88128 0.41738 1.13607
 N442 N 0.90166 0.42797 1.15357
 C443 C 0.89915 0.44948 1.16820
 N444 N 0.87546 0.45998 1.16454
 C445 C 0.83525 0.41624 1.11395
 C446 C 0.81590 0.40665 1.09855
 C447 C 0.79232 0.39550 1.08048
 N448 N 0.78657 0.36745 1.06852
 N449 N 0.76408 0.35676 1.05203
 C450 C 0.74657 0.37377 1.04697
 N451 N 0.75244 0.40188 1.05897
 N452 N 0.77492 0.41255 1.07545
 N453 N 0.52632 0.11008 1.14069
 C454 C 0.56014 0.13493 1.13670
 N455 N 0.58519 0.14070 1.15144
 N456 N 0.57671 0.12219 1.16963
 C457 C 0.54285 0.09719 1.17382
 N458 N 0.51785 0.09156 1.15890
 C459 C 0.56950 0.15521 1.11722
 C460 C 0.57823 0.17284 1.10108
 C461 C 0.58965 0.19455 1.08219
 N462 N 0.62396 0.21119 1.07632
 N463 N 0.63498 0.23229 1.05922
 C464 C 0.61205 0.23749 1.04739
 N465 N 0.57765 0.22068 1.05327
 N466 N 0.56663 0.19957 1.07039
 N467 N 0.41383 0.55501 1.15083
 C468 C 0.43901 0.57500 1.13630
 N469 N 0.47289 0.58449 1.14044
 N470 N 0.48131 0.57427 1.15858
 C471 C 0.45617 0.55424 1.17324
 N472 N 0.42226 0.54481 1.16895
 C473 C 0.42988 0.58641 1.11698
 C474 C 0.42178 0.59606 1.10094
 C475 C 0.41170 0.60771 1.08211
 N476 N 0.42928 0.64201 1.07653
 N477 N 0.41919 0.65306 1.05946
 C478 C 0.39116 0.63017 1.04742
 N479 N 0.37366 0.59580 1.05303
 N480 N 0.38376 0.58476 1.07010
 N481 N 0.14677 0.55223 1.14705
 C482 C 0.14405 0.57353 1.13246
 N483 N 0.12058 0.58424 1.13597
 N484 N 0.10046 0.57396 1.15356
 C485 C 0.10311 0.55263 1.16828
 N486 N 0.12667 0.54197 1.16462
 C487 C 0.16618 0.58489 1.11375
 C488 C 0.18529 0.59421 1.09826
 C489 C 0.20861 0.60507 1.08010
 N490 N 0.21415 0.63292 1.06799
 N491 N 0.23646 0.64340 1.05144
 C492 C 0.25398 0.62639 1.04647
 N493 N 0.24830 0.59848 1.05862
 N494 N 0.22600 0.58801 1.07516
 N495 N 0.41468 0.85937 1.15050
 C496 C 0.43986 0.86508 1.13588
 N497 N 0.47370 0.88979 1.14002
 N498 N 0.48206 0.90824 1.15825
 C499 C 0.45690 0.90262 1.17300
 N500 N 0.42305 0.87781 1.16870
 C501 C 0.43063 0.84487 1.11640
 C502 C 0.42196 0.82728 1.10028
 C503 C 0.41057 0.80558 1.08140
 N504 N 0.43362 0.80062 1.06963
 N505 N 0.42261 0.77945 1.05254
 C506 C 0.38818 0.76255 1.04668
 N507 N 0.36523 0.76768 1.05848
 N508 N 0.37624 0.78884 1.07555
 N509 N 0.55279 0.40852 0.64848
 C510 C 0.57415 0.43309 0.63406
 N511 N 0.58455 0.46714 0.63779
 N512 N 0.57389 0.47631 0.65544
 C513 C 0.55249 0.45177 0.66999
 N514 N 0.54215 0.41769 0.66610
 C515 C 0.58588 0.42306 0.61526
 C516 C 0.59554 0.41395 0.59967
 C517 C 0.60680 0.40235 0.58137
 N518 N 0.63513 0.42534 0.56967
 N519 N 0.64594 0.41431 0.55295
 C520 C 0.62877 0.37991 0.54739
 N521 N 0.60037 0.35698 0.55914
 N522 N 0.58958 0.36802 0.57584
 N523 N 0.55277 0.14222 0.64734
 C524 C 0.57380 0.13858 0.63293
 N525 N 0.58389 0.11480 0.63683
 N526 N 0.57327 0.09525 0.65462
 C527 C 0.55222 0.09881 0.66917
 N528 N 0.54217 0.12268 0.66512
 C529 C 0.58576 0.16021 0.61404
 C530 C 0.59590 0.17888 0.59839
 C531 C 0.60813 0.20169 0.58003
 N532 N 0.64271 0.21898 0.57476
 N533 N 0.65428 0.24105 0.55813
 C534 C 0.63167 0.24660 0.54622
 N535 N 0.59702 0.22917 0.55152
 N536 N 0.58545 0.20710 0.56815
 N537 N 0.86092 0.44804 0.65249
 C538 C 0.86630 0.42897 0.63752
 N539 N 0.89041 0.41922 0.64145
 N540 N 0.90861 0.42833 0.65983
 C541 C 0.90333 0.44748 0.67493
 N542 N 0.87910 0.45714 0.67084
 C543 C 0.84638 0.41906 0.61787
 C544 C 0.82904 0.41100 0.60161
 C545 C 0.80765 0.40162 0.58257
 N546 N 0.80277 0.37429 0.57017
 N547 N 0.78187 0.36493 0.55293
 C548 C 0.76515 0.38259 0.54754
 N549 N 0.77022 0.41001 0.55997
 N550 N 0.79111 0.41936 0.57719
 N551 N 0.44625 0.59076 0.64837
 C552 C 0.42489 0.56620 0.63393
 N553 N 0.41457 0.53216 0.63763
 N554 N 0.42529 0.52298 0.65527
 C555 C 0.44669 0.54750 0.66984
 N556 N 0.45695 0.58157 0.66598
 C557 C 0.41310 0.57627 0.61512
 C558 C 0.40342 0.58542 0.59954
 C559 C 0.39217 0.59711 0.58123
 N560 N 0.36380 0.57418 0.56950
 N561 N 0.35301 0.58530 0.55278
 C562 C 0.37023 0.61971 0.54725
 N563 N 0.39866 0.64257 0.55902
 N564 N 0.40943 0.63145 0.57572
 N565 N 0.41485 0.88422 0.63743
 C566 C 0.42473 0.86028 0.63357
 N567 N 0.44554 0.85640 0.64805
 N568 N 0.45613 0.87585 0.66587
 C569 C 0.44631 0.89991 0.66993
 N570 N 0.42546 0.90368 0.65526
 C571 C 0.41281 0.83876 0.61461
 C572 C 0.40274 0.82020 0.59890
 C573 C 0.39059 0.79754 0.58045
 N574 N 0.41331 0.79220 0.56861
 N575 N 0.40182 0.77029 0.55188
 C576 C 0.36722 0.75298 0.54646
 N577 N 0.34455 0.75847 0.55833
 N578 N 0.35604 0.78037 0.57505
 N579 N 0.10945 0.57982 0.64186
 C580 C 0.13362 0.57022 0.63780
 N581 N 0.13926 0.55122 0.65271
 N582 N 0.12127 0.54206 0.67112
 C583 C 0.09693 0.55155 0.67539
 N584 N 0.09144 0.57064 0.66030
 C585 C 0.15335 0.58021 0.61807
 C586 C 0.17053 0.58834 0.60174
 C587 C 0.19173 0.59780 0.58262
 N588 N 0.20810 0.57999 0.57703
 N589 N 0.22884 0.58941 0.55975
 C590 C 0.23390 0.61697 0.54744
 N591 N 0.21735 0.63469 0.55303
 N592 N 0.19661 0.62526 0.57034
 N593 N 0.47391 0.58446 0.86001
 C594 C 0.44011 0.57532 0.86407
 N595 N 0.41493 0.55575 0.84942
 N596 N 0.42327 0.54560 0.83126
 C597 C 0.45708 0.55466 0.82705
 N598 N 0.48224 0.57430 0.84182
 C599 C 0.43091 0.58638 0.88349
 C600 C 0.42222 0.59535 0.89956
 C601 C 0.41078 0.60567 0.91836
 N602 N 0.37641 0.58798 0.92410
 N603 N 0.36533 0.59813 0.94110
 C604 C 0.38826 0.62633 0.95294
 N605 N 0.42273 0.64396 0.94719
 N606 N 0.43380 0.63380 0.93017
 N607 N 0.14669 0.59454 0.85219
 C608 C 0.14380 0.57050 0.86682
 N609 N 0.12003 0.53625 0.86340
 N610 N 0.09978 0.52635 0.84585
 C611 C 0.10255 0.55033 0.83104
 N612 N 0.12646 0.58465 0.83466
 C613 C 0.16606 0.58134 0.88550
 C614 C 0.18527 0.59120 0.90097
 C615 C 0.20868 0.60372 0.91911
 N616 N 0.21414 0.58139 0.93121
 N617 N 0.23649 0.59328 0.94777
 C618 C 0.25412 0.62791 0.95276
 N619 N 0.24853 0.65018 0.94061
 N620 N 0.22619 0.63828 0.92406
 N621 N 0.41387 0.85878 0.84839
 C622 C 0.43912 0.86433 0.86292
 N623 N 0.47295 0.88891 0.85873
 N624 N 0.48126 0.90741 0.84053
 C625 C 0.45608 0.90200 0.82581
 N626 N 0.42219 0.87727 0.83020
 C627 C 0.43010 0.84394 0.88232
 C628 C 0.42206 0.82631 0.89842
 C629 C 0.41203 0.80470 0.91732
 N630 N 0.42959 0.78809 0.92299
 N631 N 0.41950 0.76700 0.94009
 C632 C 0.39149 0.76180 0.95209
 N633 N 0.37402 0.77857 0.94640
 N634 N 0.38412 0.79966 0.92929
 N635 N 0.52612 0.41528 0.86022
 C636 C 0.55993 0.42432 0.86421
 N637 N 0.58500 0.44378 0.84949
 N638 N 0.57656 0.45391 0.83134
 C639 C 0.54273 0.44496 0.82721
 N640 N 0.51768 0.42543 0.84205
 C641 C 0.56925 0.41328 0.88363
 C642 C 0.57800 0.40432 0.89972
 C643 C 0.58948 0.39400 0.91854
 N644 N 0.62384 0.41173 0.92433
 N645 N 0.63492 0.40162 0.94136
 C646 C 0.61201 0.37342 0.95321
 N647 N 0.57755 0.35575 0.94742
 N648 N 0.56647 0.36588 0.93036
 N649 N 0.88111 0.46321 0.86431
 C650 C 0.85738 0.42893 0.86775
 N651 N 0.85473 0.40486 0.85324
 N652 N 0.87513 0.41473 0.83579
 C653 C 0.89895 0.44904 0.83219
 N654 N 0.90154 0.47308 0.84685
 C655 C 0.83490 0.41811 0.88634
 C656 C 0.81553 0.40829 0.90173
 C657 C 0.79195 0.39582 0.91979
 N658 N 0.77442 0.36129 0.92483
 N659 N 0.75199 0.34946 0.94131
 C660 C 0.74629 0.37177 0.95332
 N661 N 0.76392 0.40637 0.94825
 N662 N 0.78637 0.41820 0.93175
 N663 N 0.58553 0.14007 0.84917
 C664 C 0.56042 0.13463 0.86378
 N665 N 0.52654 0.10998 0.85971
 N666 N 0.51806 0.09132 0.84156
 C667 C 0.54312 0.09667 0.82682
 N668 N 0.57703 0.12142 0.83104
 C669 C 0.56963 0.15521 0.88312
 C670 C 0.57780 0.17298 0.89917
 C671 C 0.58797 0.19475 0.91802
 N672 N 0.57040 0.21133 0.92368
 N673 N 0.58057 0.23251 0.94075
 C674 C 0.60868 0.23783 0.95272
 N675 N 0.62617 0.22109 0.94704
 N676 N 0.61599 0.19991 0.92997
   
