data_POSCAR
  _audit_creation_date              2014-09-24
  _audit_creation_method            'ToBaCCo'
  _symmetry_space_group_name_H-M    'P1'
  _symmetry_Int_Tables_number       1
  _symmetry_cell_setting            triclinic
  loop_
  _symmetry_equiv_pos_as_xyz
 x,y,z
_cell_length_a 17.9953
_cell_length_b 17.9384
_cell_length_c 22.2692
_cell_angle_alpha 97.567100
_cell_angle_beta 91.934300
_cell_angle_gamma 88.735400
loop_
  _atom_site_label
  _atom_site_type_symbol
  _atom_site_fract_x
  _atom_site_fract_y
  _atom_site_fract_z
C1 C 0.02180 0.58506 1.00951
 C2 C 0.01521 0.54262 0.95075
 C3 C 0.00117 0.46508 0.94731
 C4 C -0.00996 0.42975 0.99882
 C5 C -0.00437 0.47213 1.05728
 C6 C 0.00802 0.54995 1.06088
 H7 H 0.01478 0.58314 1.10486
 H8 H -0.00642 0.43136 0.90373
 C9 C 0.46611 -0.03305 0.54804
 C10 C 0.42994 -0.03234 0.49056
 C11 C 0.47231 -0.02435 0.44018
 C12 C 0.55067 -0.02214 0.44370
 C13 C 0.58672 -0.03678 0.49910
 C14 C 0.54411 -0.03871 0.55055
 H15 H 0.57248 -0.04581 0.59317
 H16 H 0.44265 -0.02067 0.39764
 C17 C 0.14388 0.04552 0.30675
 H18 H 0.15762 0.06348 0.26415
 C19 C 0.20084 0.03011 0.34774
 H20 H 0.25824 0.03511 0.33589
 C21 C 0.05288 0.01755 0.37438
 H22 H -0.00450 0.01459 0.38584
 C23 C 0.10805 -0.00028 0.41598
 H24 H 0.09228 -0.01806 0.45834
 N25 N 0.07150 0.03612 0.31951
 C26 C -0.03774 -0.09022 0.18003
 H27 H -0.08974 -0.08511 0.20299
 C28 C -0.02444 -0.15341 0.13796
 H29 H -0.06643 -0.19617 0.12938
 C30 C 0.07966 -0.04139 0.16274
 H31 H 0.12004 0.00252 0.17233
 C32 C 0.09485 -0.10332 0.11957
 H33 H 0.14744 -0.10670 0.09715
 Zn34 Zn -0.00140 0.04395 0.25629
 N35 N 0.01472 -0.03647 0.19281
 C36 C 0.00676 0.14390 0.16747
 N37 N 0.00815 0.13774 0.22772
 C38 C 0.01119 0.19949 0.27012
 C39 C 0.01124 0.27133 0.25260
 C40 C 0.00677 0.21482 0.14788
 C41 C -0.11898 -0.02017 0.31388
 C42 C -0.19095 -0.02444 0.33446
 C43 C -0.22381 0.08888 0.29122
 C44 C -0.15055 0.09238 0.27318
 N45 N -0.09961 0.03843 0.28484
 H46 H 0.00331 0.09400 0.13457
 H47 H 0.01184 0.19281 0.31771
 H48 H 0.01300 0.31932 0.28744
 H49 H 0.00410 0.21881 0.09975
 H50 H -0.07869 -0.06421 0.32050
 H51 H -0.20543 -0.07119 0.35772
 H52 H -0.26381 0.13193 0.28132
 H53 H -0.13492 0.13763 0.24889
 C54 C 0.04279 -0.16094 0.10757
 C55 C 0.18302 0.00394 0.40193
 C56 C -0.24427 0.03017 0.32260
 C57 C 0.00776 0.27978 0.19069
 C58 C 0.00672 0.12093 0.79698
 H59 H 0.02753 0.12812 0.75312
 C60 C -0.00491 0.18355 0.84003
 H61 H 0.00695 0.23904 0.82904
 C62 C -0.03410 0.03974 0.86445
 H63 H -0.04613 -0.01634 0.87355
 C64 C -0.04816 0.10111 0.90844
 H65 H -0.06962 0.09150 0.95155
 N66 N -0.00584 0.05060 0.81038
 C67 C 0.13956 -0.07525 0.67808
 H68 H 0.10198 -0.11708 0.65569
 C69 C 0.21201 -0.07230 0.65804
 H70 H 0.22952 -0.11125 0.61955
 C71 C 0.16327 0.02481 0.75646
 H72 H 0.14476 0.06162 0.79559
 C73 C 0.23671 0.02852 0.73884
 H74 H 0.27314 0.06972 0.76368
 Zn75 Zn 0.01606 -0.03076 0.74981
 N76 N 0.11577 -0.02540 0.72521
 C77 C -0.03561 -0.03021 0.62573
 N78 N -0.05428 -0.02630 0.68484
 C79 C -0.12668 -0.02349 0.70080
 C80 C -0.18370 -0.02786 0.65653
 C81 C -0.09096 -0.03692 0.57983
 C82 C 0.04430 -0.13570 0.83161
 C83 C 0.04183 -0.20547 0.85275
 C84 C -0.03349 -0.25138 0.76427
 C85 C -0.03131 -0.18017 0.74565
 N86 N 0.00724 -0.12411 0.77932
 H87 H 0.02194 -0.03012 0.61374
 H88 H -0.14002 -0.02006 0.74810
 H89 H -0.24101 -0.02753 0.66997
 H90 H -0.07538 -0.04242 0.53287
 H91 H 0.07613 -0.09077 0.85670
 H92 H 0.07168 -0.21397 0.89435
 H93 H -0.06374 -0.29565 0.73668
 H94 H -0.05881 -0.17039 0.70344
 C95 C 0.26144 -0.01981 0.68852
 C96 C -0.03247 0.17396 0.89657
 C97 C 0.00346 -0.26447 0.81842
 C98 C -0.16593 -0.03700 0.59523
 C99 C 0.04561 -0.33989 0.02069
 C100 C 0.10224 -0.30933 -0.00820
 C101 C 0.10950 -0.23753 0.02023
 C102 C 0.05746 -0.22967 0.06488
 O103 O 0.01994 -0.29198 0.06584
 H104 H 0.13568 -0.33666 -0.04451
 H105 H 0.14800 -0.19619 0.00937
 C106 C -0.00496 0.43818 0.11133
 C107 C -0.01366 0.47586 0.16925
 C108 C -0.00909 0.42215 0.20709
 C109 C 0.00258 0.35517 0.17019
 O110 O 0.00542 0.36501 0.11246
 H111 H -0.02465 0.53501 0.18306
 H112 H -0.01545 0.43136 0.25561
 C113 C 0.42531 -0.02277 0.60597
 C114 C 0.45575 0.00612 0.66192
 C115 C 0.39867 0.01117 0.70113
 C116 C 0.33750 -0.01516 0.66649
 O117 O 0.35361 -0.03529 0.60919
 H118 H 0.51225 0.02375 0.67284
 H119 H 0.40150 0.03169 0.74904
 C120 C -0.33206 -0.05011 0.50687
 C121 C -0.28977 -0.10000 0.46894
 C122 C -0.22013 -0.09834 0.49511
 C123 C -0.22576 -0.04986 0.54831
 O124 O -0.29377 -0.02153 0.55596
 H125 H -0.30796 -0.13430 0.42763
 H126 H -0.17208 -0.13139 0.47896
 C127 C 0.01309 -0.42327 0.89651
 C128 C 0.01246 -0.46084 0.83773
 C129 C 0.00663 -0.40646 0.80044
 C130 C 0.00445 -0.33959 0.83848
 O131 O 0.00768 -0.34957 0.89620
 H132 H 0.01730 -0.52045 0.82262
 H133 H 0.00645 -0.41458 0.75142
 C134 C -0.03302 0.35000 0.98731
 C135 C -0.09039 0.31908 1.01495
 C136 C -0.09629 0.24717 0.98649
 C137 C -0.04376 0.24033 0.94227
 O138 O -0.00606 0.30272 0.94238
 H139 H -0.12499 0.34630 1.05050
 H140 H -0.13624 0.20599 0.99519
 C141 C -0.40996 -0.00182 0.39416
 C142 C -0.44163 0.02197 0.34189
 C143 C -0.38376 0.03920 0.30859
 C144 C -0.32098 0.02440 0.34215
 O145 O -0.33657 0.00056 0.39378
 H146 H -0.49963 0.02795 0.32896
 H147 H -0.38694 0.05877 0.26462
 C148 C 0.34854 -0.03844 0.47993
 C149 C 0.30605 -0.09524 0.49622
 C150 C 0.23655 -0.08378 0.47264
 C151 C 0.24248 -0.02272 0.44146
 O152 O 0.31057 0.00404 0.44498
 H153 H 0.32421 -0.14089 0.52082
 H154 H 0.18855 -0.11852 0.47477
   
