data_POSCAR
  _audit_creation_date              2014-09-24
  _audit_creation_method            'ToBaCCo'
  _symmetry_space_group_name_H-M    'P1'
  _symmetry_Int_Tables_number       1
  _symmetry_cell_setting            triclinic
  loop_
  _symmetry_equiv_pos_as_xyz
 x,y,z
_cell_length_a 58.6671
_cell_length_b 58.5887
_cell_length_c 58.6776
_cell_angle_alpha 89.995300
_cell_angle_beta 89.999400
_cell_angle_gamma 89.999800
loop_
  _atom_site_label
  _atom_site_type_symbol
  _atom_site_fract_x
  _atom_site_fract_y
  _atom_site_fract_z
C1 C 0.61518 0.64425 0.61586
 C2 C 0.63471 0.63449 0.60610
 C3 C 0.64431 0.61526 0.61569
 C4 C 0.63453 0.60546 0.63520
 C5 C 0.61535 0.61504 0.64478
 C6 C 0.60558 0.63461 0.63503
 C7 C 0.60219 0.66294 0.61020
 N8 N 0.58478 0.66504 0.62547
 C9 C 0.58690 0.64759 0.64072
 C10 C 0.60965 0.60203 0.66342
 N11 N 0.62492 0.58453 0.66562
 C12 C 0.64020 0.58676 0.64816
 C13 C 0.66298 0.60959 0.60271
 N14 N 0.66512 0.62491 0.58532
 C15 C 0.64771 0.64020 0.58746
 H16 H 0.60548 0.67404 0.59588
 H17 H 0.57584 0.64428 0.65505
 H18 H 0.59525 0.60546 0.67435
 H19 H 0.65459 0.57580 0.64472
 H20 H 0.67404 0.59523 0.60598
 H21 H 0.64443 0.65457 0.57641
 C22 C 0.88539 0.35525 0.11561
 C23 C 0.86589 0.36505 0.10582
 C24 C 0.85632 0.38430 0.11538
 C25 C 0.86609 0.39407 0.13490
 C26 C 0.88525 0.38443 0.14452
 C27 C 0.89498 0.36484 0.13478
 C28 C 0.89834 0.33653 0.10996
 N29 N 0.91579 0.33430 0.12525
 C30 C 0.91361 0.35182 0.14049
 C31 C 0.89095 0.39742 0.16317
 N32 N 0.87572 0.41489 0.16528
 C33 C 0.86045 0.41278 0.14787
 C34 C 0.83768 0.39001 0.10237
 N35 N 0.83554 0.37470 0.08499
 C36 C 0.85291 0.35937 0.08715
 H37 H 0.89489 0.32556 0.09559
 H38 H 0.92455 0.35525 0.15488
 H39 H 0.90528 0.39411 0.17424
 H40 H 0.84614 0.42390 0.14456
 H41 H 0.82665 0.40440 0.10563
 H42 H 0.85618 0.34499 0.07611
 C43 C 0.38479 0.14415 -0.11591
 C44 C 0.36527 0.13436 -0.10613
 C45 C 0.35568 0.11514 -0.11572
 C46 C 0.36543 0.10537 -0.13525
 C47 C 0.38459 0.11497 -0.14485
 C48 C 0.39436 0.13453 -0.13510
 C49 C 0.39778 0.16284 -0.11026
 N50 N 0.41517 0.16497 -0.12555
 C51 C 0.41302 0.14753 -0.14081
 C52 C 0.39027 0.10198 -0.16351
 N53 N 0.37500 0.08448 -0.16570
 C54 C 0.35975 0.08668 -0.14822
 C55 C 0.33703 0.10943 -0.10273
 N56 N 0.33489 0.12472 -0.08532
 C57 C 0.35228 0.14003 -0.08746
 H58 H 0.39451 0.17393 -0.09592
 H59 H 0.42406 0.14424 -0.15517
 H60 H 0.40464 0.10543 -0.17446
 H61 H 0.34537 0.07570 -0.14476
 H62 H 0.32598 0.09506 -0.10601
 H63 H 0.35556 0.15439 -0.07640
 C64 C 0.11470 0.85580 0.38417
 C65 C 0.13422 0.86559 0.39394
 C66 C 0.14379 0.88482 0.38435
 C67 C 0.13402 0.89458 0.36482
 C68 C 0.11486 0.88495 0.35524
 C69 C 0.10512 0.86539 0.36500
 C70 C 0.10174 0.83710 0.38985
 N71 N 0.08428 0.83488 0.37458
 C72 C 0.08647 0.85238 0.35931
 C73 C 0.10916 0.89793 0.33658
 N74 N 0.12440 0.91545 0.33437
 C75 C 0.13967 0.91327 0.35183
 C76 C 0.16245 0.89052 0.39734
 N77 N 0.16458 0.87522 0.41474
 C78 C 0.14719 0.85991 0.41260
 H79 H 0.10519 0.82614 0.40423
 H80 H 0.07552 0.85581 0.34493
 H81 H 0.09477 0.89446 0.32564
 H82 H 0.15404 0.92426 0.35527
 H83 H 0.17350 0.90489 0.39406
 H84 H 0.14391 0.84554 0.42365
 N85 N 0.09766 0.16114 0.11579
 N86 N 0.08866 0.15179 0.13404
 C87 C 0.07030 0.16404 0.14041
 C88 C 0.06758 0.18205 0.12528
 C89 C 0.08536 0.17957 0.10990
 H90 H 0.05976 0.16012 0.15499
 H91 H 0.08919 0.19033 0.09545
 Cu92 Cu 0.10216 0.12466 0.14757
 Cu93 Cu 0.12473 0.14885 0.10094
 Cu94 Cu 0.14883 0.10046 0.12507
 N95 N 0.11567 0.09753 0.16109
 N96 N 0.13397 0.08822 0.15215
 C97 C 0.13996 0.06990 0.16459
 C98 C 0.12460 0.06749 0.18240
 C99 C 0.10942 0.08545 0.17959
 H100 H 0.15447 0.05920 0.16085
 H101 H 0.09493 0.08948 0.19020
 N102 N 0.16125 0.11542 0.09766
 N103 N 0.15208 0.13382 0.08849
 C104 C 0.16438 0.13988 0.07009
 C105 C 0.18223 0.12459 0.06746
 C106 C 0.17961 0.10932 0.08532
 H107 H 0.16057 0.15441 0.05942
 H108 H 0.19028 0.09479 0.08914
 H109 H 0.12018 0.11551 0.11130
 H110 H 0.13851 0.13387 0.12972
 N111 N 0.40170 0.83860 0.61600
 N112 N 0.41031 0.84759 0.63461
 C113 C 0.42878 0.83546 0.64090
 C114 C 0.43191 0.81784 0.62540
 C115 C 0.41432 0.82047 0.60983
 H116 H 0.43917 0.83926 0.65562
 H117 H 0.41086 0.81006 0.59505
 Cu118 Cu 0.39646 0.87451 0.64818
 Cu119 Cu 0.37475 0.85099 0.60095
 Cu120 Cu 0.35059 0.89941 0.62508
 N121 N 0.38326 0.90181 0.66163
 N122 N 0.36533 0.91149 0.65232
 C123 C 0.35963 0.93009 0.66447
 C124 C 0.37479 0.93233 0.68246
 C125 C 0.38960 0.91401 0.68004
 H126 H 0.34546 0.94112 0.66037
 H127 H 0.40396 0.90985 0.69079
 N128 N 0.33828 0.88450 0.59757
 N129 N 0.34746 0.86611 0.58840
 C130 C 0.33513 0.86001 0.57004
 C131 C 0.31726 0.87528 0.56744
 C132 C 0.31988 0.89056 0.58528
 H133 H 0.33891 0.84545 0.55941
 H134 H 0.30917 0.90504 0.58913
 H135 H 0.37944 0.88430 0.61160
 H136 H 0.36048 0.86595 0.62934
 N137 N 0.90258 0.66161 0.38441
 N138 N 0.91190 0.65194 0.36648
 C139 C 0.93028 0.66416 0.36012
 C140 C 0.93268 0.68250 0.37491
 C141 C 0.91470 0.68024 0.39009
 H142 H 0.94102 0.66002 0.34576
 H143 H 0.91060 0.69128 0.40424
 Cu144 Cu 0.89849 0.62460 0.35333
 Cu145 Cu 0.87537 0.64949 0.39919
 Cu146 Cu 0.85132 0.60101 0.37510
 N147 N 0.88495 0.59765 0.33950
 N148 N 0.86636 0.58863 0.34814
 C149 C 0.86020 0.57049 0.33554
 C150 C 0.87574 0.56788 0.31792
 C151 C 0.89122 0.58553 0.32102
 H152 H 0.84544 0.56005 0.33903
 H153 H 0.90591 0.58936 0.31060
 N154 N 0.83877 0.61612 0.40239
 N155 N 0.84791 0.63454 0.41154
 C156 C 0.83561 0.64059 0.42994
 C157 C 0.81781 0.62525 0.43260
 C158 C 0.82043 0.60998 0.41474
 H159 H 0.83943 0.65509 0.44064
 H160 H 0.80984 0.59539 0.41099
 H161 H 0.87970 0.61606 0.38933
 H162 H 0.86191 0.63435 0.37038
 N163 N 0.59829 0.33854 -0.11612
 N164 N 0.58930 0.34787 -0.13438
 C165 C 0.57090 0.33566 -0.14069
 C166 C 0.56815 0.31767 -0.12554
 C167 C 0.58595 0.32013 -0.11019
 H168 H 0.56030 0.33966 -0.15520
 H169 H 0.58974 0.30940 -0.09571
 Cu170 Cu 0.60240 0.37526 -0.14782
 Cu171 Cu 0.62530 0.35088 -0.10127
 Cu172 Cu 0.64940 0.39919 -0.12531
 N173 N 0.61638 0.40214 -0.16140
 N174 N 0.63466 0.41144 -0.15241
 C175 C 0.64066 0.42979 -0.16480
 C176 C 0.62533 0.43225 -0.18261
 C177 C 0.61014 0.41430 -0.17985
 H178 H 0.65515 0.44052 -0.16100
 H179 H 0.59559 0.41035 -0.19042
 N180 N 0.66179 0.38426 -0.09790
 N181 N 0.65262 0.36587 -0.08875
 C182 C 0.66493 0.35976 -0.07037
 C183 C 0.68280 0.37502 -0.06775
 C184 C 0.68018 0.39033 -0.08558
 H185 H 0.66112 0.34521 -0.05974
 H186 H 0.69087 0.40484 -0.08940
 H187 H 0.62058 0.38430 -0.11157
 H188 H 0.63879 0.36592 -0.13016
 C189 C -0.03358 0.28328 0.12543
 C190 C -0.03360 0.30019 0.14217
 C191 C -0.05035 0.31715 0.14217
 C192 C -0.06763 0.31762 0.12529
 C193 C -0.06720 0.30028 0.10846
 C194 C -0.05038 0.28337 0.10859
 C195 C -0.01631 0.26584 0.12550
 C196 C -0.00181 0.25125 0.12553
 C197 C 0.01554 0.23389 0.12550
 C198 C 0.03237 0.23391 0.10864
 C199 C 0.04928 0.21711 0.10856
 C200 C 0.04961 0.19996 0.12540
 C201 C 0.03255 0.20013 0.14229
 C202 C 0.01565 0.21697 0.14231
 H203 H -0.02061 0.30028 0.15531
 H204 H -0.04943 0.32971 0.15556
 H205 H -0.07969 0.29941 0.09502
 H206 H -0.05051 0.27034 0.09549
 H207 H 0.03243 0.24693 0.09552
 H208 H 0.06201 0.21767 0.09526
 H209 H 0.03212 0.18731 0.15554
 H210 H 0.00268 0.21679 0.15545
 C211 C 0.53320 0.71672 0.62556
 C212 C 0.53324 0.69980 0.64234
 C213 C 0.55007 0.68290 0.64235
 C214 C 0.56726 0.68257 0.62549
 C215 C 0.56689 0.69981 0.60865
 C216 C 0.55003 0.71667 0.60873
 C217 C 0.51588 0.73412 0.62562
 C218 C 0.50138 0.74870 0.62563
 C219 C 0.48404 0.76607 0.62557
 C220 C 0.48369 0.78277 0.64260
 C221 C 0.46682 0.79963 0.64255
 C222 C 0.44999 0.80003 0.62543
 C223 C 0.45057 0.78313 0.60836
 C224 C 0.46746 0.76630 0.60846
 H225 H 0.52025 0.69967 0.65547
 H226 H 0.54938 0.67023 0.65567
 H227 H 0.57952 0.70052 0.59531
 H228 H 0.55014 0.72970 0.59562
 H229 H 0.49646 0.78275 0.65594
 H230 H 0.46705 0.81226 0.65597
 H231 H 0.43804 0.78275 0.59487
 H232 H 0.46757 0.75345 0.59518
 C233 C 1.03359 0.78394 0.37450
 C234 C 1.03361 0.80083 0.35773
 C235 C 1.05040 0.81776 0.35770
 C236 C 1.06768 0.81822 0.37457
 C237 C 1.06725 0.80089 0.39141
 C238 C 1.05040 0.78402 0.39133
 C239 C 1.01630 0.76653 0.37445
 C240 C 1.00180 0.75195 0.37443
 C241 C 0.98446 0.73458 0.37447
 C242 C 0.96740 0.73482 0.39110
 C243 C 0.95056 0.71795 0.39122
 C244 C 0.95052 0.70053 0.37467
 C245 C 0.96779 0.70050 0.35799
 C246 C 0.98462 0.71741 0.35792
 H247 H 1.02062 0.80092 0.34461
 H248 H 1.04949 0.83030 0.34429
 H249 H 1.07975 0.80001 0.40485
 H250 H 1.05052 0.77099 0.40444
 H251 H 0.96712 0.74804 0.40401
 H252 H 0.93766 0.71868 0.40435
 H253 H 0.96843 0.68748 0.34496
 H254 H 0.99777 0.71707 0.34495
 C255 C 0.46670 0.21670 -0.12576
 C256 C 0.46664 0.19978 -0.14253
 C257 C 0.44984 0.18286 -0.14249
 C258 C 0.43267 0.18251 -0.12561
 C259 C 0.43305 0.19975 -0.10878
 C260 C 0.44990 0.21663 -0.10889
 C261 C 0.48403 0.23410 -0.12581
 C262 C 0.49856 0.24865 -0.12582
 C263 C 0.51596 0.26597 -0.12575
 C264 C 0.51611 0.28292 -0.14254
 C265 C 0.53304 0.29972 -0.14250
 C266 C 0.55012 0.29982 -0.12563
 C267 C 0.54975 0.28266 -0.10880
 C268 C 0.53280 0.26589 -0.10889
 H269 H 0.47962 0.19965 -0.15567
 H270 H 0.45053 0.17018 -0.15581
 H271 H 0.42046 0.20044 -0.09540
 H272 H 0.44980 0.22966 -0.09578
 H273 H 0.50313 0.28315 -0.15567
 H274 H 0.53263 0.31255 -0.15573
 H275 H 0.56248 0.28206 -0.09551
 H276 H 0.53283 0.25285 -0.09579
 C277 C 0.12421 -0.03367 0.28361
 C278 C 0.14104 -0.03370 0.30042
 C279 C 0.14117 -0.05056 0.31729
 C280 C 0.12435 -0.06792 0.31775
 C281 C 0.10748 -0.06750 0.30047
 C282 C 0.10747 -0.05059 0.28367
 C283 C 0.12414 -0.01628 0.26629
 C284 C 0.12413 -0.00173 0.25176
 C285 C 0.12420 0.01561 0.23440
 C286 C 0.14108 0.01556 0.21758
 C287 C 0.14124 0.03240 0.20071
 C288 C 0.12446 0.04961 0.20039
 C289 C 0.10754 0.04946 0.21743
 C290 C 0.10743 0.03258 0.23428
 H291 H 0.15414 -0.02065 0.30052
 H292 H 0.15461 -0.04964 0.32978
 H293 H 0.09409 -0.08008 0.29957
 H294 H 0.09435 -0.05073 0.27067
 H295 H 0.15413 0.00248 0.21750
 H296 H 0.15455 0.03181 0.18800
 H297 H 0.09433 0.06231 0.21785
 H298 H 0.09426 0.03277 0.24723
 C299 C 0.62480 0.53356 -0.28370
 C300 C 0.64164 0.53365 -0.30050
 C301 C 0.64174 0.55054 -0.31734
 C302 C 0.62490 0.56787 -0.31779
 C303 C 0.60802 0.56740 -0.30051
 C304 C 0.60803 0.55045 -0.28374
 C305 C 0.62476 0.51616 -0.26638
 C306 C 0.62477 0.50160 -0.25186
 C307 C 0.62486 0.48425 -0.23450
 C308 C 0.64177 0.48428 -0.21770
 C309 C 0.64194 0.46741 -0.20085
 C310 C 0.62516 0.45021 -0.20054
 C311 C 0.60821 0.45039 -0.21754
 C312 C 0.60809 0.46729 -0.23438
 H313 H 0.65475 0.52063 -0.30061
 H314 H 0.65520 0.54967 -0.32983
 H315 H 0.59461 0.57995 -0.29960
 H316 H 0.59489 0.55055 -0.27075
 H317 H 0.65483 0.49735 -0.21763
 H318 H 0.65527 0.46797 -0.18815
 H319 H 0.59499 0.43756 -0.21797
 H320 H 0.59490 0.46712 -0.24730
 C321 C 0.37505 1.03358 0.78356
 C322 C 0.35825 1.03364 0.80040
 C323 C 0.35817 1.05050 0.81726
 C324 C 0.37501 1.06783 0.81769
 C325 C 0.39185 1.06740 0.80039
 C326 C 0.39182 1.05048 0.78359
 C327 C 0.37510 1.01619 0.76625
 C328 C 0.37514 1.00164 0.75172
 C329 C 0.37513 0.98430 0.73435
 C330 C 0.35853 0.98458 0.71727
 C331 C 0.35844 0.96775 0.70039
 C332 C 0.37500 0.95032 0.70033
 C333 C 0.39166 0.95028 0.71762
 C334 C 0.39170 0.96714 0.73448
 H335 H 0.34514 1.02060 0.80051
 H336 H 0.34475 1.04959 0.82978
 H337 H 0.40526 1.07995 0.79947
 H338 H 0.40493 1.05060 0.77058
 H339 H 0.34561 0.99779 0.71700
 H340 H 0.34533 0.96850 0.68747
 H341 H 0.40471 0.93726 0.71824
 H342 H 0.40465 0.96678 0.74764
 C343 C 0.87587 0.46662 0.21679
 C344 C 0.85903 0.46657 0.19995
 C345 C 0.85894 0.44969 0.18311
 C346 C 0.87575 0.43244 0.18277
 C347 C 0.89261 0.43277 0.19996
 C348 C 0.89263 0.44969 0.21676
 C349 C 0.87594 0.48405 0.23407
 C350 C 0.87597 0.49865 0.24856
 C351 C 0.87592 0.51604 0.26587
 C352 C 0.85882 0.51627 0.28247
 C353 C 0.85872 0.53312 0.29933
 C354 C 0.87578 0.55005 0.29987
 C355 C 0.89288 0.54966 0.28302
 C356 C 0.89293 0.53277 0.26617
 H357 H 0.84593 0.47962 0.19983
 H358 H 0.84559 0.45040 0.17049
 H359 H 0.90592 0.42009 0.20067
 H360 H 0.90576 0.44956 0.22975
 H361 H 0.84556 0.50340 0.28240
 H362 H 0.84525 0.53274 0.31188
 H363 H 0.90628 0.56231 0.28275
 H364 H 0.90625 0.53275 0.25338
 C365 C 0.28332 0.12464 -0.03372
 C366 C 0.28339 0.10781 -0.05057
 C367 C 0.30021 0.10779 -0.06745
 C368 C 0.31739 0.12469 -0.06781
 C369 C 0.31702 0.14157 -0.05061
 C370 C 0.30016 0.14150 -0.03378
 C371 C 0.26599 0.12462 -0.01636
 C372 C 0.25147 0.12461 -0.00182
 C373 C 0.23414 0.12461 0.01554
 C374 C 0.23409 0.10774 0.03240
 C375 C 0.21726 0.10771 0.04927
 C376 C 0.20016 0.12460 0.04954
 C377 C 0.20043 0.14151 0.03246
 C378 C 0.21728 0.14148 0.01561
 H379 H 0.27040 0.09465 -0.05069
 H380 H 0.29953 0.09444 -0.08008
 H381 H 0.32964 0.15494 -0.04993
 H382 H 0.30026 0.15464 -0.02078
 H383 H 0.24708 0.09459 0.03251
 H384 H 0.21776 0.09441 0.06203
 H385 H 0.18768 0.15481 0.03197
 H386 H 0.21716 0.15464 0.00263
 C387 C 0.71675 0.62498 0.53379
 C388 C 0.71669 0.60812 0.55062
 C389 C 0.69984 0.60806 0.56747
 C390 C 0.68264 0.62493 0.56783
 C391 C 0.68301 0.64183 0.55066
 C392 C 0.69989 0.64181 0.53384
 C393 C 0.73412 0.62500 0.51647
 C394 C 0.74866 0.62503 0.50195
 C395 C 0.76600 0.62506 0.48461
 C396 C 0.76608 0.60820 0.46775
 C397 C 0.78290 0.60822 0.45087
 C398 C 0.79994 0.62517 0.45058
 C399 C 0.79966 0.64205 0.46768
 C400 C 0.78282 0.64197 0.48454
 H401 H 0.72968 0.59498 0.55074
 H402 H 0.70053 0.59468 0.58009
 H403 H 0.67037 0.65519 0.54996
 H404 H 0.69979 0.65497 0.52086
 H405 H 0.75313 0.59502 0.46765
 H406 H 0.78242 0.59493 0.43811
 H407 H 0.81239 0.65538 0.46817
 H408 H 0.78292 0.65512 0.49753
 C409 C 0.78400 0.37475 0.03335
 C410 C 0.80082 0.35787 0.03345
 C411 C 0.81767 0.35781 0.05029
 C412 C 0.81805 0.37471 0.06746
 C413 C 0.80089 0.39163 0.06706
 C414 C 0.78408 0.39161 0.05018
 C415 C 0.76667 0.37477 0.01598
 C416 C 0.75215 0.37480 0.00144
 C417 C 0.73480 0.37484 -0.01591
 C418 C 0.73476 0.39173 -0.03274
 C419 C 0.71789 0.39181 -0.04959
 C420 C 0.70077 0.37495 -0.04985
 C421 C 0.70103 0.35802 -0.03279
 C422 C 0.71791 0.35799 -0.01597
 H423 H 0.80092 0.34471 0.02047
 H424 H 0.83027 0.34442 0.04964
 H425 H 0.80022 0.40501 0.07967
 H426 H 0.77111 0.40478 0.05026
 H427 H 0.74776 0.40486 -0.03285
 H428 H 0.71840 0.40513 -0.06232
 H429 H 0.68825 0.34474 -0.03230
 H430 H 0.71779 0.34482 -0.00301
 C431 C 0.21613 0.87522 0.46634
 C432 C 0.19930 0.85837 0.46627
 C433 C 0.18244 0.85833 0.44943
 C434 C 0.18208 0.87522 0.43225
 C435 C 0.19926 0.89211 0.43263
 C436 C 0.21608 0.89207 0.44950
 C437 C 0.23346 0.87522 0.48370
 C438 C 0.24797 0.87521 0.49824
 C439 C 0.26530 0.87521 0.51559
 C440 C 0.28216 0.85834 0.51565
 C441 C 0.29903 0.85832 0.53248
 C442 C 0.29929 0.87523 0.54955
 C443 C 0.28219 0.89211 0.54930
 C444 C 0.26534 0.89207 0.53245
 H445 H 0.19918 0.84522 0.47926
 H446 H 0.16982 0.84496 0.45011
 H447 H 0.19995 0.90548 0.42000
 H448 H 0.22907 0.90523 0.44940
 H449 H 0.28228 0.84519 0.50267
 H450 H 0.31178 0.84503 0.53199
 H451 H 0.28169 0.90541 0.56205
 H452 H 0.25235 0.90522 0.53256
   
