data_POSCAR
  _audit_creation_date              2014-09-24
  _audit_creation_method            'ToBaCCo'
  _symmetry_space_group_name_H-M    'P1'
  _symmetry_Int_Tables_number       1
  _symmetry_cell_setting            triclinic
  loop_
  _symmetry_equiv_pos_as_xyz
 x,y,z
_cell_length_a 42.7799
_cell_length_b 39.4971
_cell_length_c 32.0243
_cell_angle_alpha 90.434500
_cell_angle_beta 90.022100
_cell_angle_gamma 89.976900
loop_
  _atom_site_label
  _atom_site_type_symbol
  _atom_site_fract_x
  _atom_site_fract_y
  _atom_site_fract_z
C1 C 0.29849 0.29599 0.23393
 H2 H 0.30008 0.29622 0.26765
 C3 C 0.31817 0.31661 0.21045
 H4 H 0.33494 0.33290 0.22607
 C5 C 0.27460 0.27462 0.17229
 H6 H 0.25780 0.25802 0.15751
 C7 C 0.29386 0.29487 0.14761
 H8 H 0.29161 0.29406 0.11392
 N9 N 0.27686 0.27600 0.21468
 C10 C 0.20297 0.26394 0.30739
 H11 H 0.20145 0.23664 0.30904
 C12 C 0.18302 0.28410 0.33160
 H13 H 0.16614 0.27236 0.35212
 C14 C 0.22649 0.31274 0.27828
 H15 H 0.24306 0.32388 0.25701
 C16 C 0.20700 0.33378 0.30189
 H17 H 0.20890 0.36102 0.29903
 Zn18 Zn 0.25058 0.24982 0.24938
 N19 N 0.22445 0.27848 0.28181
 C20 C 0.27462 0.22499 0.32646
 N21 N 0.27681 0.22352 0.28407
 C22 C 0.29835 0.20340 0.26484
 C23 C 0.31801 0.18274 0.28835
 C24 C 0.29386 0.20471 0.35117
 C25 C 0.20285 0.23591 0.19142
 C26 C 0.18277 0.21584 0.16729
 C27 C 0.20662 0.16605 0.19700
 C28 C 0.22624 0.18701 0.22053
 N29 N 0.22432 0.22127 0.21697
 H30 H 0.25791 0.24170 0.34123
 H31 H 0.29989 0.20310 0.23112
 H32 H 0.33470 0.16635 0.27275
 H33 H 0.29167 0.20561 0.38486
 H34 H 0.20143 0.26322 0.18976
 H35 H 0.16590 0.22766 0.14680
 H36 H 0.20841 0.13881 0.19989
 H37 H 0.24279 0.17580 0.24178
 C38 C 0.18517 0.31935 0.32889
 C39 C 0.31565 0.31624 0.16692
 C40 C 0.18478 0.18059 0.17004
 C41 C 0.31556 0.18321 0.33188
 C42 C 0.79925 0.79704 0.23344
 H43 H 0.80087 0.79728 0.26716
 C44 C 0.81877 0.81783 0.20994
 H45 H 0.83543 0.83422 0.22564
 C46 C 0.77541 0.77552 0.17185
 H47 H 0.75870 0.75880 0.15710
 C48 C 0.79450 0.79592 0.14712
 H49 H 0.79214 0.79504 0.11343
 N50 N 0.77771 0.77691 0.21423
 C51 C 0.70378 0.76458 0.30683
 H52 H 0.70233 0.73728 0.30846
 C53 C 0.68374 0.78467 0.33101
 H54 H 0.66688 0.77287 0.35149
 C55 C 0.72721 0.81347 0.27781
 H56 H 0.74376 0.82467 0.25658
 C57 C 0.70763 0.83444 0.30139
 H58 H 0.70946 0.86169 0.29856
 Zn59 Zn 0.75151 0.75063 0.24895
 N60 N 0.72526 0.77921 0.28132
 C61 C 0.77544 0.72583 0.32611
 N62 N 0.77778 0.72442 0.28372
 C63 C 0.79938 0.70433 0.26458
 C64 C 0.81892 0.68358 0.28817
 C65 C 0.79455 0.70547 0.35088
 C66 C 0.70385 0.73648 0.19096
 C67 C 0.68384 0.71630 0.16685
 C68 C 0.70787 0.66664 0.19664
 C69 C 0.72740 0.68770 0.22015
 N70 N 0.72537 0.72195 0.21654
 H71 H 0.75867 0.74251 0.34081
 H72 H 0.80103 0.70407 0.23087
 H73 H 0.83564 0.66718 0.27263
 H74 H 0.79221 0.70628 0.38455
 H75 H 0.70232 0.76377 0.18926
 H76 H 0.66693 0.72802 0.14634
 H77 H 0.70976 0.63940 0.19957
 H78 H 0.74399 0.67658 0.24143
 C79 C 0.68581 0.81993 0.32834
 C80 C 0.81619 0.81749 0.16638
 C81 C 0.68599 0.68105 0.16965
 C82 C 0.81628 0.68395 0.33169
 C83 C 0.79959 0.29540 0.73556
 H84 H 0.80127 0.29562 0.76927
 C85 C 0.81911 0.31615 0.71200
 H86 H 0.83584 0.33253 0.72756
 C87 C 0.77562 0.27396 0.67401
 H88 H 0.75885 0.25730 0.65929
 C89 C 0.79471 0.29433 0.64926
 H90 H 0.79236 0.29355 0.61559
 N91 N 0.77799 0.27533 0.71640
 C92 C 0.70412 0.26321 0.80914
 H93 H 0.70262 0.23591 0.81082
 C94 C 0.68410 0.28337 0.83326
 H95 H 0.66720 0.27163 0.85375
 C96 C 0.72763 0.31201 0.78001
 H97 H 0.74420 0.32315 0.75875
 C98 C 0.70808 0.33305 0.80353
 H99 H 0.70994 0.36029 0.80061
 Zn100 Zn 0.75176 0.24910 0.75114
 N101 N 0.72562 0.27775 0.78359
 C102 C 0.77573 0.22413 0.82819
 N103 N 0.77800 0.22278 0.78581
 C104 C 0.79953 0.20267 0.76656
 C105 C 0.81909 0.18185 0.79001
 C106 C 0.79485 0.20371 0.85289
 C107 C 0.70399 0.23520 0.69326
 C108 C 0.68393 0.21514 0.66908
 C109 C 0.70786 0.16534 0.69864
 C110 C 0.72746 0.18629 0.72222
 N111 N 0.72549 0.22055 0.71874
 H112 H 0.75902 0.24083 0.84296
 H113 H 0.80112 0.20247 0.73284
 H114 H 0.83574 0.16550 0.77418
 H115 H 0.79248 0.20461 0.88659
 H116 H 0.70253 0.26251 0.69166
 H117 H 0.66703 0.22697 0.64863
 H118 H 0.70970 0.13809 0.70144
 H119 H 0.74404 0.17507 0.74342
 C120 C 0.68621 0.31862 0.83049
 C121 C 0.81645 0.31582 0.66848
 C122 C 0.68600 0.17988 0.67172
 C123 C 0.81656 0.18214 0.83360
 C124 C 0.29842 0.79658 0.73491
 H125 H 0.29997 0.79687 0.76863
 C126 C 0.31808 0.81723 0.71141
 H127 H 0.33478 0.83360 0.72704
 C128 C 0.27468 0.77502 0.67326
 H129 H 0.25796 0.75833 0.65849
 C130 C 0.29392 0.79529 0.64858
 H131 H 0.29172 0.79440 0.61489
 N132 N 0.27688 0.77648 0.71566
 C133 C 0.20292 0.76421 0.80824
 H134 H 0.20150 0.73691 0.80994
 C135 C 0.18284 0.78432 0.83232
 H136 H 0.16596 0.77254 0.85280
 C137 C 0.22631 0.81307 0.77909
 H138 H 0.24287 0.82425 0.75784
 C139 C 0.20669 0.83406 0.80256
 H140 H 0.20847 0.86131 0.79963
 Zn141 Zn 0.25065 0.75022 0.75034
 N142 N 0.22439 0.77881 0.78269
 C143 C 0.27466 0.72540 0.82747
 N144 N 0.27693 0.72403 0.78508
 C145 C 0.29857 0.70403 0.76585
 C146 C 0.31824 0.68338 0.78936
 C147 C 0.29392 0.70514 0.85217
 C148 C 0.20304 0.73609 0.69229
 C149 C 0.18307 0.71592 0.66811
 C150 C 0.20706 0.66625 0.69792
 C151 C 0.22656 0.68730 0.72150
 N152 N 0.22453 0.72156 0.71791
 H153 H 0.25786 0.74201 0.84223
 H154 H 0.30016 0.70380 0.73214
 H155 H 0.33501 0.66708 0.77375
 H156 H 0.29166 0.70594 0.88585
 H157 H 0.20152 0.76339 0.69060
 H158 H 0.16619 0.72766 0.64756
 H159 H 0.20896 0.63901 0.70083
 H160 H 0.24313 0.67617 0.74280
 C161 C 0.18485 0.81958 0.82951
 C162 C 0.31562 0.81677 0.66788
 C163 C 0.18522 0.68068 0.67088
 C164 C 0.31571 0.68374 0.83288
 C165 C -0.03609 -0.02623 0.01845
 C166 C -0.01961 0.00025 -0.00052
 C167 C -0.03612 0.02674 -0.01949
 C168 C -0.06886 0.02654 -0.01991
 C169 C -0.08518 0.00026 -0.00052
 C170 C -0.06883 -0.02602 0.01887
 C171 C 0.01485 0.00025 -0.00051
 C172 C 0.03135 -0.02619 -0.02010
 C173 C 0.06409 -0.02599 -0.02047
 C174 C 0.08041 0.00022 -0.00045
 C175 C 0.06408 0.02644 0.01954
 C176 C 0.03135 0.02667 0.01911
 H177 H -0.02344 -0.04658 0.03347
 H178 H -0.02349 0.04709 -0.03450
 H179 H 0.01872 -0.04649 -0.03559
 H180 H 0.01871 0.04698 0.03459
 H181 H -0.11053 0.00026 -0.00052
 H182 H 0.10577 0.00020 -0.00042
 C183 C -0.03504 0.47343 0.51914
 C184 C -0.01857 0.49991 0.50014
 C185 C -0.03508 0.52637 0.48115
 C186 C -0.06782 0.52617 0.48074
 C187 C -0.08414 0.49990 0.50016
 C188 C -0.06778 0.47363 0.51956
 C189 C 0.01589 0.49991 0.50013
 C190 C 0.03239 0.47352 0.48045
 C191 C 0.06512 0.47375 0.48001
 C192 C 0.08145 0.49994 0.50006
 C193 C 0.06512 0.52611 0.52014
 C194 C 0.03238 0.52631 0.51978
 H195 H -0.02238 0.45308 0.53416
 H196 H -0.02246 0.54672 0.46612
 H197 H 0.01975 0.45324 0.46491
 H198 H 0.01974 0.54659 0.53533
 H199 H -0.10949 0.49989 0.50016
 H200 H 0.10680 0.49995 0.50003
 C201 C 0.46537 -0.02646 0.51905
 C202 C 0.48186 0.00001 0.50006
 C203 C 0.46536 0.02648 0.48106
 C204 C 0.43262 0.02628 0.48062
 C205 C 0.41629 0.00002 0.50001
 C206 C 0.43263 -0.02625 0.51943
 C207 C 0.51631 -0.00001 0.50007
 C208 C 0.53280 -0.02633 0.48026
 C209 C 0.56554 -0.02614 0.47986
 C210 C 0.58187 -0.00003 0.50008
 C211 C 0.56555 0.02608 0.52029
 C212 C 0.53281 0.02631 0.51989
 H213 H 0.47801 -0.04682 0.53408
 H214 H 0.47800 0.04683 0.46604
 H215 H 0.52016 -0.04656 0.46460
 H216 H 0.52018 0.04654 0.53554
 H217 H 0.39094 0.00002 0.49999
 H218 H 0.60722 -0.00005 0.50008
 C219 C 0.46549 0.47328 0.01870
 C220 C 0.48200 0.49984 -0.00010
 C221 C 0.46550 0.52641 -0.01891
 C222 C 0.43276 0.52623 -0.01933
 C223 C 0.41643 0.49988 -0.00012
 C224 C 0.43276 0.47351 0.01910
 C225 C 0.51646 0.49983 -0.00007
 C226 C 0.53297 0.47332 -0.01950
 C227 C 0.56571 0.47352 -0.01987
 C228 C 0.58202 0.49981 -0.00001
 C229 C 0.56569 0.52611 0.01982
 C230 C 0.53295 0.52632 0.01939
 H231 H 0.47813 0.45286 0.03359
 H232 H 0.47814 0.54683 -0.03378
 H233 H 0.52034 0.45296 -0.03489
 H234 H 0.52031 0.54670 0.03475
 H235 H 0.39107 0.49990 -0.00013
 H236 H 0.60738 0.49980 0.00001
 C237 C 0.16463 -0.15897 -0.14599
 C238 C 0.14812 -0.14030 -0.12582
 C239 C 0.12927 -0.11764 -0.10263
 C240 C 0.11362 -0.09763 -0.08320
 C241 C 0.09582 -0.07344 -0.06089
 C242 C 0.08109 -0.05216 -0.04224
 C243 C 0.16511 0.34085 0.35355
 C244 C 0.14872 0.35955 0.37388
 C245 C 0.13002 0.38222 0.39725
 C246 C 0.11448 0.40222 0.41684
 C247 C 0.09678 0.42639 0.43932
 C248 C 0.08210 0.44764 0.45810
 C249 C 0.66569 -0.15865 0.35301
 C250 C 0.64925 -0.14001 0.37336
 C251 C 0.63051 -0.11742 0.39678
 C252 C 0.61493 -0.09747 0.41641
 C253 C 0.59720 -0.07338 0.43897
 C254 C 0.58252 -0.05218 0.45784
 C255 C 0.66606 0.34013 -0.14500
 C256 C 0.64959 0.35886 -0.12484
 C257 C 0.63080 0.38159 -0.10169
 C258 C 0.61518 0.40167 -0.08230
 C259 C 0.59742 0.42593 -0.06008
 C260 C 0.58271 0.44728 -0.04151
 C261 C -0.16623 0.16176 -0.14406
 C262 C -0.15060 0.14245 -0.12384
 C263 C -0.13263 0.11920 -0.10071
 C264 C -0.11758 0.09879 -0.08144
 C265 C -0.10028 0.07426 -0.05943
 C266 C -0.08580 0.05279 -0.04114
 C267 C -0.16482 0.66155 0.35637
 C268 C -0.14927 0.64220 0.37661
 C269 C -0.13140 0.61889 0.39978
 C270 C -0.11642 0.59844 0.41910
 C271 C -0.09919 0.57389 0.44115
 C272 C -0.08475 0.55241 0.45949
 C273 C 0.33469 0.16099 0.35650
 C274 C 0.35044 0.14180 0.37668
 C275 C 0.36856 0.11866 0.39978
 C276 C 0.38373 0.09835 0.41904
 C277 C 0.40114 0.07392 0.44104
 C278 C 0.41567 0.05250 0.45935
 C279 C 0.33484 0.66149 -0.14253
 C280 C 0.35058 0.64225 -0.12243
 C281 C 0.36870 0.61903 -0.09946
 C282 C 0.38387 0.59863 -0.08033
 C283 C 0.40128 0.57408 -0.05851
 C284 C 0.41582 0.55257 -0.04038
 C285 C -0.16592 -0.16130 0.14307
 C286 C -0.15035 -0.14198 0.12284
 C287 C -0.13244 -0.11870 0.09971
 C288 C -0.11743 -0.09828 0.08042
 C289 C -0.10018 -0.07375 0.05841
 C290 C -0.08574 -0.05227 0.04010
 C291 C -0.16466 0.33822 0.64383
 C292 C -0.14912 0.35757 0.62361
 C293 C -0.13126 0.38089 0.60047
 C294 C -0.11629 0.40133 0.58117
 C295 C -0.09909 0.42590 0.55914
 C296 C -0.08467 0.44738 0.54081
 C297 C 0.33474 -0.16101 0.64329
 C298 C 0.35048 -0.14182 0.62314
 C299 C 0.36859 -0.11867 0.60009
 C300 C 0.38376 -0.09835 0.58087
 C301 C 0.40116 -0.07390 0.55892
 C302 C 0.41569 -0.05248 0.54065
 C303 C 0.33479 0.33846 0.14235
 C304 C 0.35054 0.35768 0.12225
 C305 C 0.36867 0.38085 0.09927
 C306 C 0.38385 0.40122 0.08014
 C307 C 0.40127 0.42572 0.05830
 C308 C 0.41581 0.44720 0.04015
 C309 C 0.16458 0.15917 0.14547
 C310 C 0.14807 0.14054 0.12524
 C311 C 0.12924 0.11793 0.10197
 C312 C 0.11359 0.09797 0.08247
 C313 C 0.09580 0.07382 0.06009
 C314 C 0.08108 0.05257 0.04137
 C315 C 0.16515 0.65916 0.64626
 C316 C 0.14875 0.64045 0.62598
 C317 C 0.13004 0.61775 0.60267
 C318 C 0.11448 0.59772 0.58314
 C319 C 0.09678 0.57352 0.56072
 C320 C 0.08210 0.55225 0.54199
 C321 C 0.66585 0.15848 0.64706
 C322 C 0.64939 0.13987 0.62674
 C323 C 0.63061 0.11730 0.60333
 C324 C 0.61500 0.09737 0.58371
 C325 C 0.59725 0.07329 0.56117
 C326 C 0.58254 0.05211 0.54231
 C327 C 0.66586 0.65952 0.14512
 C328 C 0.64942 0.64078 0.12494
 C329 C 0.63067 0.61804 0.10175
 C330 C 0.61509 0.59796 0.08234
 C331 C 0.59736 0.57369 0.06009
 C332 C 0.58267 0.55234 0.04149
   
