data_POSCAR
  _audit_creation_date              2014-09-24
  _audit_creation_method            'ToBaCCo'
  _symmetry_space_group_name_H-M    'P1'
  _symmetry_Int_Tables_number       1
  _symmetry_cell_setting            triclinic
  loop_
  _symmetry_equiv_pos_as_xyz
 x,y,z
_cell_length_a 27.0434
_cell_length_b 27.0464
_cell_length_c 27.0591
_cell_angle_alpha 90.023100
_cell_angle_beta 90.046800
_cell_angle_gamma 89.930100
loop_
  _atom_site_label
  _atom_site_type_symbol
  _atom_site_fract_x
  _atom_site_fract_y
  _atom_site_fract_z
C1 C -0.06738 0.51186 0.27144
 C2 C -0.02112 0.52114 0.24986
 C3 C -0.01182 0.56739 0.22826
 C4 C -0.04865 0.60388 0.22773
 C5 C -0.09456 0.59461 0.24982
 C6 C -0.10386 0.54871 0.27192
 C7 C 0.01747 0.48253 0.24985
 C8 C 0.00812 0.43623 0.22830
 C9 C 0.04497 0.39980 0.22779
 C10 C 0.09089 0.40912 0.24978
 C11 C 0.10024 0.45501 0.27181
 C12 C 0.06380 0.49185 0.27137
 H13 H -0.07452 0.47630 0.28854
 H14 H 0.02375 0.57450 0.21117
 H15 H -0.02742 0.42895 0.21122
 H16 H 0.07111 0.52737 0.28847
 H17 H -0.12297 0.62302 0.24980
 H18 H 0.11928 0.38075 0.24974
 C19 C -0.06515 0.48987 0.73118
 C20 C -0.01889 0.48051 0.75285
 C21 C -0.00951 0.43419 0.77435
 C22 C -0.04630 0.39772 0.77465
 C23 C -0.09218 0.40712 0.75246
 C24 C -0.10151 0.45306 0.73050
 C25 C 0.01967 0.51906 0.75289
 C26 C 0.01031 0.56539 0.77440
 C27 C 0.04709 0.60186 0.77476
 C28 C 0.09297 0.59244 0.75263
 C29 C 0.10229 0.54650 0.73066
 C30 C 0.06593 0.50969 0.73127
 H31 H -0.07243 0.52540 0.71408
 H32 H 0.02605 0.42698 0.79149
 H33 H -0.02526 0.57260 0.79148
 H34 H 0.07320 0.47416 0.71417
 H35 H -0.12059 0.37882 0.75220
 H36 H 0.12138 0.62075 0.75241
 C37 C 0.27170 -0.06652 0.50869
 C38 C 0.25002 -0.02025 0.51801
 C39 C 0.22850 -0.01088 0.56428
 C40 C 0.22817 -0.04762 0.60072
 C41 C 0.25032 -0.09351 0.59146
 C42 C 0.27235 -0.10292 0.54556
 C43 C 0.24988 0.01831 0.47944
 C44 C 0.22819 0.00897 0.43320
 C45 C 0.22754 0.04581 0.39679
 C46 C 0.24959 0.09173 0.40614
 C47 C 0.27175 0.10103 0.45199
 C48 C 0.27141 0.06460 0.48875
 H49 H 0.28876 -0.07372 0.47313
 H50 H 0.21131 0.02463 0.57154
 H51 H 0.21112 -0.02661 0.42605
 H52 H 0.28861 0.07188 0.52423
 H53 H 0.25037 -0.12174 0.61994
 H54 H 0.24955 0.12020 0.37789
 C55 C 0.72880 -0.06728 0.49108
 C56 C 0.75033 -0.02098 0.48179
 C57 C 0.77181 -0.01161 0.43552
 C58 C 0.77225 -0.04836 0.39905
 C59 C 0.75026 -0.09426 0.40830
 C60 C 0.72826 -0.10369 0.45420
 C61 C 0.75033 0.01761 0.52036
 C62 C 0.77198 0.00830 0.56663
 C63 C 0.77254 0.04520 0.60302
 C64 C 0.75044 0.09113 0.59361
 C65 C 0.72833 0.10039 0.54774
 C66 C 0.72875 0.06391 0.51100
 H67 H 0.71176 -0.07447 0.52664
 H68 H 0.78887 0.02391 0.42826
 H69 H 0.78909 -0.02728 0.57382
 H70 H 0.71160 0.07118 0.47550
 H71 H 0.75028 -0.12250 0.37979
 H72 H 0.75043 0.11965 0.62184
 C73 C 0.48977 0.26915 1.06519
 C74 C 0.48047 0.24742 1.01897
 C75 C 0.43419 0.22583 1.00964
 C76 C 0.39771 0.22550 1.04642
 C77 C 0.40706 0.24775 1.09225
 C78 C 0.45295 0.26979 1.10154
 C79 C 0.51906 0.24735 0.98045
 C80 C 0.56541 0.22582 0.98986
 C81 C 0.60191 0.22539 0.95311
 C82 C 0.59253 0.24748 0.90722
 C83 C 0.54658 0.26948 0.89785
 C84 C 0.50973 0.26892 0.93418
 H85 H 0.52527 0.28629 1.07245
 H86 H 0.42704 0.20865 0.97412
 H87 H 0.57260 0.20876 1.02544
 H88 H 0.47419 0.28603 0.92686
 H89 H 0.37875 0.24798 1.12066
 H90 H 0.62086 0.24765 0.87884
 C91 C 0.51046 0.73100 1.06553
 C92 C 0.51972 0.75258 1.01928
 C93 C 0.56602 0.77405 1.00990
 C94 C 0.60257 0.77441 1.04667
 C95 C 0.59326 0.75232 1.09255
 C96 C 0.54735 0.73038 1.10188
 C97 C 0.48108 0.75257 0.98074
 C98 C 0.43475 0.77411 0.99011
 C99 C 0.39819 0.77443 0.95336
 C100 C 0.40751 0.75224 0.90750
 C101 C 0.45345 0.73024 0.89818
 C102 C 0.49035 0.73089 0.93451
 H103 H 0.47495 0.71394 1.07283
 H104 H 0.57316 0.79112 0.97434
 H105 H 0.42760 0.79125 1.02566
 H106 H 0.52589 0.71377 0.92723
 H107 H 0.62162 0.75212 1.12095
 H108 H 0.37914 0.75201 0.87912
 B109 B 0.99997 1.05022 0.03102
 B110 B 1.00007 1.05017 -0.03119
 B111 B 1.05039 1.03096 -0.00001
 B112 B 1.03114 0.99987 0.05031
 B113 B 0.96890 0.99994 0.05020
 B114 B 0.94969 1.03099 -0.00014
 B115 B 1.00011 0.94949 -0.03114
 B116 B 1.00010 0.94955 0.03107
 B117 B 0.94975 0.96876 -0.00016
 B118 B 0.96899 0.99980 -0.05043
 B119 B 1.03123 0.99982 -0.05033
 B120 B 1.05044 0.96872 0.00007
 B121 B 0.55054 0.50009 0.46873
 B122 B 0.55055 0.50003 0.53094
 B123 B 0.53131 0.55041 0.49996
 B124 B 0.50015 0.53131 0.44957
 B125 B 0.50021 0.46908 0.44942
 B126 B 0.53134 0.44973 0.49969
 B127 B 0.44987 0.50008 0.53090
 B128 B 0.44984 0.50024 0.46869
 B129 B 0.46909 0.44980 0.49971
 B130 B 0.50020 0.46890 0.55006
 B131 B 0.50023 0.53114 0.55019
 B132 B 0.46907 0.55048 0.49989
 C133 C 0.99651 1.23426 0.08878
 C134 C 0.97215 1.24777 0.13882
 C135 C 1.02224 1.26733 0.15715
 C136 C 1.04667 1.25452 0.10751
 C137 C 1.01007 1.18332 0.10988
 C138 C 1.06015 1.20286 0.12818
 C139 C 0.98564 1.19602 0.15949
 C140 C 1.03584 1.21634 0.17822
 C141 C 1.02954 1.31434 0.18299
 C142 C 1.03619 1.35320 0.20371
 C143 C 1.00433 1.13679 0.08312
 C144 C 1.00114 1.09864 0.06056
 H145 H 0.98029 1.24097 0.05167
 H146 H 0.93605 1.26678 0.14350
 H147 H 1.07187 1.27905 0.08641
 H148 H 1.09621 1.18376 0.12341
 H149 H 0.96048 1.17133 0.18046
 H150 H 1.05213 1.20947 0.21526
 C151 C 1.00293 0.76585 0.09044
 C152 C 1.02538 0.75304 0.14157
 C153 C 0.97469 0.73346 0.15808
 C154 C 0.95217 0.74559 0.10735
 C155 C 0.98838 0.81697 0.11042
 C156 C 0.93770 0.79743 0.12690
 C157 C 1.01090 0.80496 0.16112
 C158 C 0.96009 0.78463 0.17803
 C159 C 0.96672 0.68668 0.18407
 C160 C 0.95973 0.64793 0.20487
 C161 C 0.99493 0.86324 0.08343
 C162 C 0.99865 0.90123 0.06072
 H163 H 1.02061 0.75878 0.05409
 H164 H 1.06134 0.73424 0.14791
 H165 H 0.92789 0.72072 0.08552
 H166 H 0.90178 0.81632 0.12047
 H167 H 1.03512 0.82999 0.18282
 H168 H 0.94233 0.79188 0.21430
 C169 C 0.93914 1.20257 -0.12826
 C170 C 0.95193 1.25423 -0.10719
 C171 C 0.97654 1.26750 -0.15660
 C172 C 0.96362 1.21651 -0.17806
 C173 C 0.98931 1.18335 -0.10975
 C174 C 1.01392 1.19650 -0.15913
 C175 C 1.00218 1.23429 -0.08826
 C176 C 1.02671 1.24826 -0.13807
 C177 C 0.96893 1.31459 -0.18219
 C178 C 0.96209 1.35354 -0.20271
 C179 C 0.99536 1.13675 -0.08318
 C180 C 0.99876 1.09857 -0.06072
 H181 H 0.90326 1.18315 -0.12384
 H182 H 0.92633 1.27843 -0.08611
 H183 H 0.94764 1.20970 -0.21524
 H184 H 1.03947 1.17214 -0.18009
 H185 H 1.01810 1.24094 -0.05101
 H186 H 1.06263 1.26759 -0.14240
 C187 C 0.98653 0.80297 -0.15901
 C188 C 1.03686 0.78311 -0.17795
 C189 C 1.02415 0.73209 -0.15649
 C190 C 0.97394 0.75119 -0.13795
 C191 C 1.01117 0.81624 -0.10964
 C192 C 0.99851 0.76528 -0.08815
 C193 C 1.06138 0.79717 -0.12814
 C194 C 1.04880 0.74548 -0.10708
 C195 C 1.03183 0.68500 -0.18208
 C196 C 1.03870 0.64605 -0.20261
 C197 C 1.00500 0.86284 -0.08307
 C198 C 1.00151 0.90104 -0.06062
 H199 H 0.96086 0.82723 -0.17997
 H200 H 1.05276 0.78995 -0.21513
 H201 H 0.93808 0.73174 -0.14228
 H202 H 0.98268 0.75860 -0.05090
 H203 H 1.09721 0.81671 -0.12372
 H204 H 1.07451 0.72138 -0.08601
 C205 C 1.12844 1.06078 0.20258
 C206 C 1.10798 1.04753 0.25431
 C207 C 1.15778 1.02322 0.26705
 C208 C 1.17864 1.03660 0.21598
 C209 C 1.11023 1.01058 0.18326
 C210 C 1.15999 0.98629 0.19587
 C211 C 1.08933 0.99725 0.23428
 C212 C 1.13953 0.97302 0.24771
 C213 C 1.18376 1.03073 0.31395
 C214 C 1.20459 1.03750 0.35275
 C215 C 1.08333 1.00458 0.13682
 C216 C 1.06071 1.00120 0.09873
 H217 H 1.12349 1.09673 0.18338
 H218 H 1.08688 1.07282 0.27881
 H219 H 1.21562 1.05290 0.20893
 H220 H 1.18097 0.96104 0.17122
 H221 H 1.05228 0.98102 0.24115
 H222 H 1.14440 0.93703 0.26681
 C223 C 1.12860 0.93849 -0.20225
 C224 C 1.10793 0.95151 -0.25402
 C225 C 1.15761 0.97578 -0.26694
 C226 C 1.17868 0.96263 -0.21584
 C227 C 1.11029 0.98876 -0.18313
 C228 C 1.15995 1.01303 -0.19592
 C229 C 1.08920 1.00186 -0.23417
 C230 C 1.13928 1.02605 -0.24778
 C231 C 1.18345 0.96811 -0.31387
 C232 C 1.20414 0.96126 -0.35269
 C233 C 1.08347 0.99494 -0.13671
 C234 C 1.06086 0.99843 -0.09865
 H235 H 1.12381 0.90262 -0.18290
 H236 H 1.08682 0.92609 -0.27837
 H237 H 1.21573 0.94638 -0.20878
 H238 H 1.18093 1.03839 -0.17142
 H239 H 1.05208 1.01804 -0.24106
 H240 H 1.14398 1.06197 -0.26705
 C241 C 0.83958 1.01187 0.19541
 C242 C 0.82206 0.96124 0.21567
 C243 C 0.84263 0.97531 0.26672
 C244 C 0.85975 1.02581 0.24722
 C245 C 0.88987 0.98863 0.18295
 C246 C 0.91047 1.00264 0.23395
 C247 C 0.87278 0.93813 0.20242
 C248 C 0.89295 0.95205 0.25414
 C249 C 0.81685 0.96749 0.31364
 C250 C 0.79621 0.96056 0.35246
 C251 C 0.91666 0.99499 0.13656
 C252 C 0.93927 0.99858 0.09851
 H253 H 0.81804 1.03653 0.17063
 H254 H 0.78545 0.94408 0.20863
 H255 H 0.85410 1.06177 0.26618
 H256 H 0.94716 1.01972 0.24081
 H257 H 0.87852 0.90220 0.18337
 H258 H 0.91461 0.92734 0.27875
 C259 C 0.87150 1.06046 -0.20274
 C260 C 0.89201 1.04712 -0.25446
 C261 C 0.84228 1.02279 -0.26718
 C262 C 0.82137 1.03626 -0.21612
 C263 C 0.88984 1.01031 -0.18337
 C264 C 0.84014 0.98598 -0.19597
 C265 C 0.91078 0.99688 -0.23437
 C266 C 0.86065 0.97263 -0.24779
 C267 C 0.81629 1.03022 -0.31410
 C268 C 0.79547 1.03693 -0.35292
 C269 C 0.91676 1.00439 -0.13693
 C270 C 0.93941 1.00106 -0.09884
 H271 H 0.87636 1.09646 -0.18358
 H272 H 0.91305 1.07237 -0.27898
 H273 H 0.78434 1.05257 -0.20911
 H274 H 0.81922 0.96078 -0.17130
 H275 H 0.94788 0.98065 -0.24122
 H276 H 0.85588 0.93660 -0.26685
 C277 C 1.23448 1.08838 -0.00265
 C278 C 1.24810 1.13859 -0.02659
 C279 C 1.26763 1.15649 0.02366
 C280 C 1.25471 1.10668 0.04768
 C281 C 1.18354 1.10955 0.01087
 C282 C 1.20305 1.12742 0.06112
 C283 C 1.19635 1.15933 -0.01314
 C284 C 1.21664 1.17763 0.03723
 C285 C 1.31467 1.18216 0.03125
 C286 C 1.35357 1.20277 0.03807
 C287 C 1.13697 1.08294 0.00480
 C288 C 1.09880 1.06048 0.00136
 H289 H 1.24116 1.05136 -0.01911
 H290 H 1.26717 1.14348 -0.06257
 H291 H 1.27916 1.08531 0.07280
 H292 H 1.18389 1.12245 0.09706
 H293 H 1.17173 1.18058 -0.03822
 H294 H 1.20979 1.21458 0.05375
 C295 C 0.79716 1.12798 -0.06128
 C296 C 0.74550 1.10700 -0.04846
 C297 C 0.73218 1.15652 -0.02395
 C298 C 0.78317 1.17790 -0.03690
 C299 C 0.81638 1.10960 -0.01110
 C300 C 0.80318 1.15909 0.01340
 C301 C 0.76544 1.08819 0.00180
 C302 C 0.75143 1.13811 0.02623
 C303 C 0.68507 1.18215 -0.03159
 C304 C 0.64611 1.20271 -0.03846
 C305 C 0.86301 1.08300 -0.00499
 C306 C 0.90123 1.06053 -0.00153
 H307 H 0.81660 1.12343 -0.09713
 H308 H 0.72132 1.08585 -0.07400
 H309 H 0.78998 1.21504 -0.05294
 H310 H 0.82752 1.18011 0.03890
 H311 H 0.75880 1.05097 0.01777
 H312 H 0.73207 1.14256 0.06212
 C313 C 1.20296 0.87196 -0.06099
 C314 C 1.25462 0.89288 -0.04798
 C315 C 1.26793 0.84326 -0.02370
 C316 C 1.21694 0.82194 -0.03684
 C317 C 1.18374 0.89013 -0.01075
 C318 C 1.19693 0.84053 0.01352
 C319 C 1.23467 0.91148 0.00234
 C320 C 1.24868 0.86146 0.02654
 C321 C 1.31504 0.81765 -0.03137
 C322 C 1.35399 0.79710 -0.03824
 C323 C 1.13711 0.91671 -0.00462
 C324 C 1.09890 0.93917 -0.00119
 H325 H 1.18352 0.87666 -0.09685
 H326 H 1.27880 0.91414 -0.07338
 H327 H 1.21014 0.78486 -0.05308
 H328 H 1.17259 0.81941 0.03887
 H329 H 1.24131 0.94863 0.01852
 H330 H 1.26803 0.85685 0.06244
 C331 C 0.76581 0.91083 -0.00368
 C332 C 0.75254 0.86006 -0.02669
 C333 C 0.73267 0.84320 0.02374
 C334 C 0.74524 0.89357 0.04683
 C335 C 0.81669 0.89013 0.01077
 C336 C 0.79684 0.87330 0.06119
 C337 C 0.80424 0.83980 -0.01231
 C338 C 0.78360 0.82253 0.03824
 C339 C 0.68563 0.81758 0.03141
 C340 C 0.64672 0.79705 0.03828
 C341 C 0.86322 0.91675 0.00460
 C342 C 0.90136 0.93923 0.00114
 H343 H 0.75915 0.94746 -0.02097
 H344 H 0.73377 0.85433 -0.06274
 H345 H 0.72051 0.91540 0.07126
 H346 H 0.81570 0.87913 0.09720
 H347 H 0.82913 0.81809 -0.03670
 H348 H 0.79044 0.78598 0.05560
 C349 C 0.73205 0.52654 0.41389
 C350 C 0.75895 0.48687 0.38252
 C351 C 0.76654 0.52546 0.34157
 C352 C 0.74032 0.56523 0.37257
 C353 C 0.68306 0.51177 0.38928
 C354 C 0.69059 0.55039 0.34837
 C355 C 0.70917 0.47199 0.35833
 C356 C 0.71750 0.51073 0.31694
 C357 C 0.81332 0.53340 0.31557
 C358 C 0.85208 0.54036 0.29478
 C359 C 0.63682 0.50524 0.41633
 C360 C 0.59886 0.50153 0.43909
 H361 H 0.73741 0.53291 0.45407
 H362 H 0.78759 0.46085 0.39630
 H363 H 0.75355 0.60367 0.37816
 H364 H 0.66183 0.57638 0.33473
 H365 H 0.69575 0.43360 0.35286
 H366 H 0.71203 0.50436 0.27678
 C367 C 0.29288 0.43961 0.37936
 C368 C 0.24239 0.46104 0.39578
 C369 C 0.23281 0.47776 0.34235
 C370 C 0.28264 0.45619 0.32554
 C371 C 0.31680 0.49006 0.38967
 C372 C 0.30734 0.50675 0.33627
 C373 C 0.26703 0.51158 0.40651
 C374 C 0.25675 0.52821 0.35267
 C375 C 0.18578 0.47042 0.31652
 C376 C 0.14689 0.46376 0.29583
 C377 C 0.36331 0.49586 0.41649
 C378 C 0.40143 0.49908 0.43910
 H379 H 0.30839 0.40330 0.39071
 H380 H 0.21521 0.44214 0.41997
 H381 H 0.28858 0.43331 0.29200
 H382 H 0.33467 0.52562 0.31221
 H383 H 0.26126 0.53441 0.44013
 H384 H 0.24134 0.56456 0.34138
 C385 C 0.73352 0.48121 0.58603
 C386 C 0.75652 0.51879 0.62261
 C387 C 0.76652 0.47627 0.65893
 C388 C 0.74420 0.43860 0.62272
 C389 C 0.68306 0.48911 0.61079
 C390 C 0.69301 0.44657 0.64707
 C391 C 0.70527 0.52678 0.64696
 C392 C 0.71601 0.48412 0.68371
 C393 C 0.81328 0.46867 0.68518
 C394 C 0.85200 0.46188 0.70618
 C395 C 0.63683 0.49520 0.58353
 C396 C 0.59888 0.49864 0.56066
 H397 H 0.74008 0.48013 0.54554
 H398 H 0.78318 0.54839 0.61284
 H399 H 0.76064 0.40224 0.61304
 H400 H 0.66624 0.41701 0.65673
 H401 H 0.68863 0.56309 0.65653
 H402 H 0.70933 0.48519 0.72416
 C403 C 0.29589 0.47332 0.64762
 C404 C 0.28486 0.51644 0.68376
 C405 C 0.23414 0.52335 0.65905
 C406 C 0.24442 0.48037 0.62334
 C407 C 0.31750 0.51066 0.61081
 C408 C 0.26683 0.51761 0.58611
 C409 C 0.30726 0.55365 0.64649
 C410 C 0.25587 0.56068 0.62221
 C411 C 0.18744 0.53089 0.68534
 C412 C 0.14875 0.53768 0.70635
 C413 C 0.36367 0.50468 0.58350
 C414 C 0.40158 0.50134 0.56060
 H415 H 0.31297 0.43735 0.65766
 H416 H 0.29176 0.51608 0.72420
 H417 H 0.21805 0.45033 0.61411
 H418 H 0.26006 0.51798 0.54564
 H419 H 0.33374 0.58366 0.65561
 H420 H 0.23897 0.59670 0.61204
 C421 C 0.47308 0.64644 0.29428
 C422 C 0.51513 0.68398 0.28406
 C423 C 0.52420 0.65909 0.23381
 C424 C 0.48228 0.62198 0.24329
 C425 C 0.51117 0.61112 0.31722
 C426 C 0.52027 0.58624 0.26702
 C427 C 0.55310 0.64818 0.30780
 C428 C 0.56228 0.62373 0.25687
 C429 C 0.53183 0.68525 0.18708
 C430 C 0.53860 0.70616 0.14837
 C431 C 0.50497 0.58393 0.36341
 C432 C 0.50148 0.56107 0.40132
 H433 H 0.43635 0.65539 0.31027
 H434 H 0.51315 0.72446 0.29055
 H435 H 0.45326 0.61149 0.21622
 H436 H 0.52226 0.54573 0.26066
 H437 H 0.58209 0.65856 0.33498
 H438 H 0.59906 0.61465 0.24106
 C439 C 0.47831 0.66632 0.68645
 C440 C 0.43757 0.65503 0.72503
 C441 C 0.47652 0.65873 0.76625
 C442 C 0.51717 0.67045 0.72840
 C443 C 0.48934 0.61073 0.68276
 C444 C 0.52828 0.61438 0.72390
 C445 C 0.44868 0.59903 0.72058
 C446 C 0.48751 0.60310 0.76246
 C447 C 0.46896 0.68494 0.81300
 C448 C 0.46221 0.70592 0.85171
 C449 C 0.49545 0.58356 0.63652
 C450 C 0.49890 0.56076 0.59855
 H451 H 0.47460 0.69189 0.65457
 H452 H 0.40018 0.67199 0.72595
 H453 H 0.54523 0.70014 0.73215
 H454 H 0.56562 0.59731 0.72280
 H455 H 0.42061 0.56934 0.71671
 H456 H 0.49118 0.57736 0.79420
 C457 C 0.43843 0.37799 0.29394
 C458 C 0.45850 0.39453 0.24300
 C459 C 0.47616 0.34135 0.23344
 C460 C 0.45595 0.32442 0.28372
 C461 C 0.48913 0.38944 0.31687
 C462 C 0.50677 0.33629 0.30743
 C463 C 0.50928 0.40641 0.26664
 C464 C 0.52686 0.35282 0.25640
 C465 C 0.46853 0.31512 0.18670
 C466 C 0.46174 0.29413 0.14801
 C467 C 0.49532 0.41664 0.36309
 C468 C 0.49883 0.43945 0.40106
 H469 H 0.40220 0.38872 0.31003
 H470 H 0.43853 0.41820 0.21604
 H471 H 0.43391 0.29045 0.29028
 H472 H 0.52669 0.31276 0.33454
 H473 H 0.53127 0.44045 0.26026
 H474 H 0.56313 0.34215 0.24042
 C475 C 0.51879 0.41376 0.73284
 C476 C 0.48113 0.37731 0.75581
 C477 C 0.52359 0.34086 0.76585
 C478 C 0.56133 0.37693 0.74356
 C479 C 0.51092 0.38894 0.68240
 C480 C 0.55340 0.35253 0.69239
 C481 C 0.47316 0.35290 0.70457
 C482 C 0.51576 0.31602 0.71536
 C483 C 0.53108 0.31466 0.81262
 C484 C 0.53780 0.29372 0.85134
 C485 C 0.50491 0.41620 0.63620
 C486 C 0.50152 0.43911 0.59829
 H487 H 0.51991 0.45428 0.73939
 H488 H 0.45150 0.38721 0.78241
 H489 H 0.59769 0.38654 0.76001
 H490 H 0.58298 0.34273 0.66567
 H491 H 0.43686 0.34341 0.68793
 H492 H 0.51464 0.27554 0.70869
 C493 C 0.64666 0.70550 0.52723
 C494 C 0.68365 0.71622 0.48483
 C495 C 0.65861 0.76659 0.47666
 C496 C 0.62204 0.75662 0.51892
 C497 C 0.61086 0.68298 0.48936
 C498 C 0.58584 0.73331 0.48115
 C499 C 0.64740 0.69290 0.44709
 C500 C 0.62278 0.74395 0.43881
 C501 C 0.68462 0.81344 0.46916
 C502 C 0.70541 0.85224 0.46244
 C503 C 0.58377 0.63670 0.49538
 C504 C 0.56099 0.59872 0.49874
 H505 H 0.65608 0.68907 0.56363
 H506 H 0.72417 0.70971 0.48621
 H507 H 0.61189 0.78335 0.54836
 H508 H 0.54530 0.73970 0.47977
 H509 H 0.65743 0.66605 0.41769
 H510 H 0.61324 0.76020 0.40235
 C511 C 0.64656 0.30665 0.55348
 C512 C 0.62169 0.25577 0.56159
 C513 C 0.65774 0.23286 0.52412
 C514 C 0.68304 0.28306 0.51612
 C515 C 0.61042 0.31675 0.51083
 C516 C 0.64643 0.29395 0.47335
 C517 C 0.58513 0.26659 0.51887
 C518 C 0.62155 0.24300 0.48149
 C519 C 0.68357 0.18589 0.53192
 C520 C 0.70428 0.14702 0.53883
 C521 C 0.58358 0.36321 0.50452
 C522 C 0.56096 0.40132 0.50099
 H523 H 0.65647 0.33348 0.58294
 H524 H 0.61178 0.23965 0.59798
 H525 H 0.72358 0.28932 0.51514
 H526 H 0.65621 0.31026 0.43702
 H527 H 0.54455 0.26046 0.51986
 H528 H 0.61154 0.21628 0.45199
 C529 C 0.40820 0.73382 0.49221
 C530 C 0.35557 0.74515 0.47252
 C531 C 0.34213 0.76723 0.52309
 C532 C 0.39435 0.75659 0.54287
 C533 C 0.38975 0.68340 0.51055
 C534 C 0.37632 0.70546 0.56112
 C535 C 0.33756 0.69392 0.49079
 C536 C 0.32370 0.71676 0.54147
 C537 C 0.31613 0.81416 0.53054
 C538 C 0.29530 0.85299 0.53727
 C539 C 0.41673 0.63697 0.50461
 C540 C 0.43943 0.59888 0.50124
 H541 H 0.44326 0.74019 0.47188
 H542 H 0.34673 0.76201 0.43617
 H543 H 0.41743 0.78282 0.56439
 H544 H 0.38522 0.68849 0.59743
 H545 H 0.31461 0.66753 0.46931
 H546 H 0.28870 0.71023 0.56184
 C547 C 0.40644 0.26717 0.50984
 C548 C 0.35239 0.25711 0.52592
 C549 C 0.34244 0.23334 0.47530
 C550 C 0.39608 0.24270 0.45913
 C551 C 0.38991 0.31707 0.48837
 C552 C 0.37998 0.29332 0.43776
 C553 C 0.33630 0.30782 0.50453
 C554 C 0.32595 0.28329 0.45379
 C555 C 0.31654 0.18643 0.46763
 C556 C 0.29581 0.14762 0.46081
 C557 C 0.41681 0.36343 0.49464
 C558 C 0.43947 0.40146 0.49823
 H559 H 0.43986 0.26119 0.53294
 H560 H 0.34073 0.24168 0.56208
 H561 H 0.42038 0.21546 0.44034
 H562 H 0.39169 0.30886 0.40163
 H563 H 0.31214 0.33522 0.52327
 H564 H 0.29261 0.28944 0.43063
   
