data_POSCAR
  _audit_creation_date              2014-09-24
  _audit_creation_method            'ToBaCCo'
  _symmetry_space_group_name_H-M    'P1'
  _symmetry_Int_Tables_number       1
  _symmetry_cell_setting            triclinic
  loop_
  _symmetry_equiv_pos_as_xyz
 x,y,z
_cell_length_a 38.0389
_cell_length_b 42.7030
_cell_length_c 28.0773
_cell_angle_alpha 90.045300
_cell_angle_beta 90.221800
_cell_angle_gamma 89.956700
loop_
  _atom_site_label
  _atom_site_type_symbol
  _atom_site_fract_x
  _atom_site_fract_y
  _atom_site_fract_z
C1 C 0.34344 0.23491 0.32862
 C2 C 0.34282 0.26700 0.32943
 C3 C 0.30958 0.27585 0.31436
 N4 N 0.28977 0.25033 0.30451
 C5 C 0.31032 0.22522 0.31382
 C6 C 0.29701 0.30691 0.31299
 C7 C 0.26637 0.31509 0.28762
 C8 C 0.24722 0.34241 0.29368
 C9 C 0.22128 0.34229 0.25927
 C10 C 0.22583 0.31513 0.23281
 N11 N 0.25315 0.29860 0.25068
 C12 C 0.20710 0.30687 0.19113
 C13 C 0.20843 0.27607 0.17305
 C14 C 0.19962 0.26734 0.12704
 C15 C 0.20023 0.23522 0.12610
 C16 C 0.20880 0.22547 0.17185
 N17 N 0.21440 0.25051 0.20028
 C18 C 0.20788 0.19419 0.18860
 C19 C 0.22756 0.18578 0.22980
 C20 C 0.22129 0.16003 0.25873
 C21 C 0.24716 0.15980 0.29305
 C22 C 0.26824 0.18569 0.28477
 N23 N 0.25587 0.20165 0.24660
 C24 C 0.29856 0.19376 0.31158
 H25 H 0.36576 0.22040 0.33796
 H26 H 0.36438 0.28210 0.33980
 H27 H 0.26796 0.22081 0.23048
 H28 H 0.25165 0.36058 0.31991
 H29 H 0.20171 0.36037 0.25407
 H30 H 0.19300 0.28255 0.09751
 H31 H 0.19424 0.22066 0.09556
 H32 H 0.24977 0.14284 0.32148
 H33 H 0.26475 0.27900 0.23513
 H34 H 0.20000 0.14334 0.25604
 C35 C 0.69123 0.23216 0.36634
 C36 C 0.69183 0.26427 0.36740
 C37 C 0.70291 0.27388 0.32284
 N38 N 0.70911 0.24884 0.29457
 C39 C 0.70149 0.22326 0.32089
 C40 C 0.70430 0.30524 0.30713
 C41 C 0.72460 0.31384 0.26721
 C42 C 0.72209 0.34196 0.24270
 C43 C 0.74910 0.34226 0.21019
 C44 C 0.76701 0.31419 0.21547
 N45 N 0.75181 0.29696 0.25004
 C46 C 0.79827 0.30604 0.19158
 C47 C 0.80997 0.27475 0.18833
 C48 C 0.84260 0.26534 0.17180
 C49 C 0.84217 0.23320 0.17098
 C50 C 0.80932 0.22414 0.18712
 N51 N 0.78969 0.24954 0.19771
 C52 C 0.79667 0.19312 0.18806
 C53 C 0.76531 0.18485 0.21158
 C54 C 0.74579 0.15819 0.20222
 C55 C 0.71843 0.15807 0.23413
 C56 C 0.72260 0.18422 0.26312
 N57 N 0.75101 0.20067 0.24848
 C58 C 0.70131 0.19221 0.30284
 H59 H 0.68377 0.21707 0.39554
 H60 H 0.68483 0.27887 0.39742
 H61 H 0.76213 0.21992 0.26572
 H62 H 0.70320 0.36056 0.24814
 H63 H 0.75511 0.36112 0.18581
 H64 H 0.86433 0.28004 0.16111
 H65 H 0.86348 0.21823 0.15941
 H66 H 0.69779 0.14068 0.23549
 H67 H 0.76208 0.27663 0.26516
 H68 H 0.75056 0.14084 0.17486
 C69 C 0.84294 0.73664 0.83151
 C70 C 0.84201 0.76872 0.83121
 C71 C 0.80897 0.77711 0.81473
 N72 N 0.78957 0.75132 0.80512
 C73 C 0.81020 0.72648 0.81588
 C74 C 0.79626 0.80809 0.81175
 C75 C 0.76607 0.81586 0.78504
 C76 C 0.74683 0.84324 0.78970
 C77 C 0.72141 0.84264 0.75463
 C78 C 0.72630 0.81513 0.72911
 N79 N 0.75343 0.79888 0.74820
 C80 C 0.70767 0.80629 0.68751
 C81 C 0.70884 0.77528 0.67005
 C82 C 0.69790 0.76577 0.62517
 C83 C 0.69894 0.73363 0.62511
 C84 C 0.71044 0.72467 0.66998
 N85 N 0.71672 0.75013 0.69722
 C86 C 0.71095 0.69372 0.68756
 C87 C 0.72970 0.68585 0.72947
 C88 C 0.72463 0.65897 0.75622
 C89 C 0.74967 0.65921 0.79168
 C90 C 0.76941 0.68622 0.78557
 N91 N 0.75682 0.70250 0.74788
 C92 C 0.79910 0.69483 0.81332
 H93 H 0.86528 0.72246 0.84184
 H94 H 0.86328 0.78411 0.84166
 H95 H 0.76841 0.72219 0.73265
 H96 H 0.75082 0.86174 0.81553
 H97 H 0.70186 0.86061 0.74848
 H98 H 0.68938 0.78045 0.59590
 H99 H 0.69135 0.71856 0.59582
 H100 H 0.75289 0.64155 0.81897
 H101 H 0.76533 0.77909 0.73368
 H102 H 0.70492 0.64103 0.75089
 C103 C 0.19623 0.73333 0.87116
 C104 C 0.19687 0.76542 0.87195
 C105 C 0.20479 0.77502 0.82606
 N106 N 0.20976 0.74987 0.79748
 C107 C 0.20389 0.72437 0.82486
 C108 C 0.20557 0.80646 0.80997
 C109 C 0.22608 0.81428 0.76958
 C110 C 0.22219 0.84082 0.74143
 C111 C 0.24947 0.84070 0.70941
 C112 C 0.26863 0.81369 0.71800
 N113 N 0.25405 0.79754 0.75427
 C114 C 0.30023 0.80556 0.69506
 C115 C 0.31224 0.77436 0.69317
 C116 C 0.34498 0.76484 0.67718
 C117 C 0.34450 0.73268 0.67674
 C118 C 0.31152 0.72378 0.69256
 N119 N 0.29188 0.74925 0.70268
 C120 C 0.29861 0.69285 0.69333
 C121 C 0.26699 0.68494 0.71642
 C122 C 0.24712 0.65850 0.70698
 C123 C 0.21954 0.65881 0.73857
 C124 C 0.22399 0.68497 0.76746
 N125 N 0.25266 0.70106 0.75298
 C126 C 0.20306 0.69325 0.80732
 H127 H 0.19070 0.71825 0.90118
 H128 H 0.19206 0.78004 0.90275
 H129 H 0.26387 0.72027 0.77025
 H130 H 0.20198 0.85859 0.74379
 H131 H 0.25462 0.85841 0.68277
 H132 H 0.36673 0.77948 0.66636
 H133 H 0.36579 0.71762 0.66544
 H134 H 0.19865 0.64167 0.73989
 H135 H 0.26493 0.77805 0.77116
 H136 H 0.25182 0.64101 0.67980
 O137 O 0.97005 -0.01200 -0.05973
 O138 O 1.03571 0.04218 -0.01022
 O139 O 1.03864 -0.01012 -0.05909
 O140 O 0.96806 0.03994 -0.01149
 O141 O 0.97060 0.01437 0.05667
 O142 O 1.03674 -0.03895 0.00616
 O143 O 1.03920 0.01353 0.05510
 O144 O 0.96892 -0.03762 0.00843
 Cu145 Cu 1.00321 0.01762 -0.04196
 Cu146 Cu 1.00412 -0.01484 0.03839
 C147 C 0.95786 -0.03386 -0.03395
 C148 C 1.04845 0.03725 0.03094
 C149 C 1.04885 -0.03366 -0.03511
 C150 C 0.95770 0.03610 0.03108
 O151 O 0.46967 0.48711 0.44418
 O152 O 0.53615 0.54035 0.49462
 O153 O 0.53822 0.48861 0.44438
 O154 O 0.46839 0.53887 0.49313
 O155 O 0.47073 0.51281 0.56087
 O156 O 0.53595 0.45907 0.50890
 O157 O 0.53941 0.51081 0.55909
 O158 O 0.46831 0.46104 0.51193
 Cu159 Cu 0.50318 0.51645 0.46232
 Cu160 Cu 0.50378 0.48325 0.54200
 C161 C 0.45735 0.46511 0.46960
 C162 C 0.54907 0.53460 0.53543
 C163 C 0.54810 0.46472 0.46776
 C164 C 0.45807 0.53485 0.53566
 O165 O -0.03232 0.54025 0.01351
 O166 O 0.03878 0.48905 0.05777
 O167 O 0.03514 0.54130 0.00868
 O168 O -0.02955 0.48866 0.06275
 O169 O -0.03375 0.46225 -0.00459
 O170 O 0.03520 0.51245 -0.05668
 O171 O 0.03384 0.46011 -0.00720
 O172 O -0.03333 0.51383 -0.05402
 Cu173 Cu 0.00343 0.51750 0.04243
 Cu174 Cu 0.00043 0.48447 -0.03743
 C175 C -0.04452 0.53614 -0.02824
 C176 C 0.04739 0.46518 0.03343
 C177 C 0.04587 0.53613 -0.03331
 C178 C -0.04293 0.46656 0.03841
 O179 O 0.46734 1.03852 0.50967
 O180 O 0.53888 0.98750 0.55296
 O181 O 0.53468 1.03951 0.50330
 O182 O 0.47061 0.98718 0.55932
 O183 O 0.46566 0.96042 0.49239
 O184 O 0.53395 1.01039 0.43822
 O185 O 0.53320 0.95826 0.48842
 O186 O 0.46543 1.01180 0.44244
 Cu187 Cu 0.50339 1.01589 0.53802
 Cu188 Cu 0.49943 0.98249 0.45859
 C189 C 0.45460 1.03424 0.46826
 C190 C 0.54719 0.96350 0.52873
 C191 C 0.54486 1.03418 0.46111
 C192 C 0.45695 0.96496 0.53552
 C193 C 1.13948 0.12910 0.11936
 C194 C 1.17146 0.11864 0.13955
 C195 C 1.19451 0.14021 0.16113
 C196 C 1.18524 0.17209 0.16583
 C197 C 1.15214 0.18158 0.14819
 C198 C 1.12989 0.16066 0.12492
 C199 C 1.11639 0.10585 0.09458
 C200 C 1.08689 0.11481 0.06736
 C201 C 1.06560 0.09230 0.04585
 C202 C 1.07280 0.06036 0.05158
 C203 C 1.10265 0.05108 0.07746
 C204 C 1.12511 0.07369 0.09770
 C205 C 1.17971 0.08662 0.13916
 C206 C 1.15651 0.06453 0.12001
 H207 H 1.20400 0.07841 0.15515
 H208 H 1.16361 0.03998 0.12179
 H209 H 1.21988 0.13210 0.17381
 H210 H 1.14278 0.20529 0.15344
 H211 H 1.04284 0.09986 0.02558
 H212 H 1.10874 0.02637 0.08087
 H213 H 1.10481 0.16946 0.11281
 H214 H 1.08007 0.13906 0.06180
 C215 C 0.64588 0.62328 0.62027
 C216 C 0.63243 0.65356 0.62960
 C217 C 0.65350 0.67595 0.65246
 C218 C 0.68877 0.66949 0.66359
 C219 C 0.70263 0.64000 0.65200
 C220 C 0.68142 0.61702 0.63110
 C221 C 0.62178 0.59950 0.59826
 C222 C 0.63068 0.56755 0.59377
 C223 C 0.60694 0.54629 0.57357
 C224 C 0.57439 0.55663 0.55632
 C225 C 0.56516 0.58821 0.56077
 C226 C 0.58807 0.60946 0.58291
 C227 C 0.59831 0.66157 0.61522
 C228 C 0.57696 0.64025 0.59118
 H229 H 0.58820 0.68491 0.62178
 H230 H 0.55098 0.64774 0.57999
 H231 H 0.64253 0.69867 0.66122
 H232 H 0.72995 0.63470 0.65946
 H233 H 0.61412 0.52180 0.57093
 H234 H 0.53948 0.59594 0.54860
 H235 H 0.69339 0.59474 0.62296
 H236 H 0.65546 0.55848 0.60657
 C237 C -0.13804 0.37859 0.12899
 C238 C -0.15145 0.35397 0.10039
 C239 C -0.17278 0.33074 0.12070
 C240 C -0.18051 0.33133 0.16947
 C241 C -0.16745 0.35576 0.19769
 C242 C -0.14656 0.37916 0.17783
 C243 C -0.11471 0.40253 0.10616
 C244 C -0.10017 0.42797 0.13141
 C245 C -0.07751 0.44894 0.10905
 C246 C -0.06871 0.44525 0.06089
 C247 C -0.08376 0.42045 0.03505
 C248 C -0.10660 0.39917 0.05724
 C249 C -0.14307 0.35239 0.05192
 C250 C -0.12101 0.37442 0.03087
 H251 H -0.15336 0.33358 0.03002
 H252 H -0.11497 0.37191 -0.00664
 H253 H -0.18304 0.31189 0.09880
 H254 H -0.17315 0.35649 0.23545
 H255 H -0.06645 0.46792 0.12987
 H256 H -0.07733 0.41740 -0.00225
 H257 H -0.13706 0.39717 0.20150
 H258 H -0.10566 0.43202 0.16854
 C259 C 0.36280 0.87770 0.62941
 C260 C 0.35022 0.85216 0.60200
 C261 C 0.32928 0.82903 0.62328
 C262 C 0.32108 0.83066 0.67185
 C263 C 0.33315 0.85608 0.69882
 C264 C 0.35370 0.87935 0.67800
 C265 C 0.38586 0.90146 0.60565
 C266 C 0.39984 0.92759 0.62980
 C267 C 0.42229 0.94838 0.60665
 C268 C 0.43140 0.94381 0.55877
 C269 C 0.41693 0.91827 0.53402
 C270 C 0.39436 0.89714 0.55702
 C271 C 0.35901 0.84961 0.55377
 C272 C 0.38068 0.87156 0.53180
 H273 H 0.34933 0.83011 0.53276
 H274 H 0.38704 0.86831 0.49453
 H275 H 0.31968 0.80947 0.60229
 H276 H 0.32699 0.85767 0.73639
 H277 H 0.43292 0.96792 0.62664
 H278 H 0.42365 0.91451 0.49696
 H279 H 0.36244 0.89816 0.70074
 H280 H 0.39411 0.93233 0.66667
 C281 C -0.14135 0.62637 -0.11103
 C282 C -0.15332 0.62032 -0.15793
 C283 C -0.17385 0.64260 -0.18212
 C284 C -0.18227 0.67149 -0.16082
 C285 C -0.17103 0.67693 -0.11374
 C286 C -0.15098 0.65480 -0.08920
 C287 C -0.11807 0.60261 -0.08730
 C288 C -0.10438 0.60657 -0.04095
 C289 C -0.08126 0.58460 -0.02148
 C290 C -0.07118 0.55806 -0.04755
 C291 C -0.08556 0.55339 -0.09314
 C292 C -0.10876 0.57538 -0.11313
 C293 C -0.14397 0.59245 -0.18096
 C294 C -0.12211 0.57051 -0.15910
 H295 H -0.15323 0.58774 -0.21681
 H296 H -0.11518 0.54956 -0.17877
 H297 H -0.18179 0.63804 -0.21863
 H298 H -0.17808 0.69840 -0.09551
 H299 H -0.07071 0.58877 0.01384
 H300 H -0.07816 0.53289 -0.11360
 H301 H -0.14303 0.66063 -0.05339
 H302 H -0.11075 0.62664 -0.01932
 C303 C 0.35737 1.12471 0.38703
 C304 C 0.34437 1.11842 0.34070
 C305 C 0.32389 1.14085 0.31669
 C306 C 0.31678 1.17018 0.33748
 C307 C 0.32891 1.17580 0.38412
 C308 C 0.34879 1.15350 0.40853
 C309 C 0.38065 1.10084 0.41046
 C310 C 0.39523 1.10502 0.45626
 C311 C 0.41844 1.08298 0.47534
 C312 C 0.42775 1.05616 0.44941
 C313 C 0.41243 1.05123 0.40444
 C314 C 0.38908 1.07328 0.38486
 C315 C 0.35275 1.09019 0.31798
 C316 C 0.37473 1.06817 0.33950
 H317 H 0.34272 1.08528 0.28258
 H318 H 0.38095 1.04696 0.32003
 H319 H 0.31511 1.13608 0.28060
 H320 H 0.32274 1.19756 0.40211
 H321 H 0.42970 1.08735 0.51021
 H322 H 0.41920 1.03049 0.38414
 H323 H 0.35750 1.15953 0.44394
 H324 H 0.38951 1.12530 0.47775
 C325 C 1.14366 -0.12330 -0.12142
 C326 C 1.13184 -0.15464 -0.12370
 C327 C 1.15201 -0.17741 -0.14709
 C328 C 1.18526 -0.17019 -0.16627
 C329 C 1.19770 -0.13928 -0.16098
 C330 C 1.17715 -0.11615 -0.13948
 C331 C 1.12020 -0.09930 -0.09892
 C332 C 1.12692 -0.06684 -0.10110
 C333 C 1.10369 -0.04541 -0.08043
 C334 C 1.07391 -0.05593 -0.05608
 C335 C 1.06692 -0.08808 -0.05375
 C336 C 1.08915 -0.10969 -0.07623
 C337 C 1.10016 -0.16321 -0.10206
 C338 C 1.07978 -0.14138 -0.07767
 H339 H 1.09130 -0.18732 -0.10322
 H340 H 1.05578 -0.14928 -0.06084
 H341 H 1.14124 -0.20075 -0.15115
 H342 H 1.22385 -0.13295 -0.17265
 H343 H 1.10912 -0.02057 -0.08310
 H344 H 1.04327 -0.09614 -0.03613
 H345 H 1.18822 -0.09297 -0.13642
 H346 H 1.14945 -0.05758 -0.11958
 C347 C 0.64171 0.37553 0.37854
 C348 C 0.62713 0.34603 0.36677
 C349 C 0.64741 0.32371 0.34260
 C350 C 0.68291 0.32943 0.33231
 C351 C 0.69788 0.35802 0.34644
 C352 C 0.67751 0.38096 0.36875
 C353 C 0.61850 0.39936 0.40191
 C354 C 0.62868 0.43081 0.40892
 C355 C 0.60573 0.45220 0.43023
 C356 C 0.57268 0.44246 0.44607
 C357 C 0.56217 0.41139 0.43916
 C358 C 0.58434 0.39008 0.41594
 C359 C 0.59266 0.33871 0.38005
 C360 C 0.57205 0.35997 0.40525
 H361 H 0.58166 0.31595 0.37163
 H362 H 0.54574 0.35300 0.41544
 H363 H 0.63567 0.30159 0.33217
 H364 H 0.72544 0.36265 0.33997
 H365 H 0.61387 0.47633 0.43476
 H366 H 0.53611 0.40419 0.45026
 H367 H 0.69034 0.40251 0.37881
 H368 H 0.65387 0.43943 0.39723
 C369 C 0.85791 -0.12197 -0.11541
 C370 C 0.85107 -0.11930 -0.16488
 C371 C 0.82996 -0.14160 -0.18806
 C372 C 0.81559 -0.16673 -0.16270
 C373 C 0.82127 -0.16876 -0.11349
 C374 C 0.84212 -0.14669 -0.09001
 C375 C 0.88234 -0.09876 -0.09260
 C376 C 0.89218 -0.10020 -0.04419
 C377 C 0.91625 -0.07888 -0.02517
 C378 C 0.93106 -0.05545 -0.05373
 C379 C 0.92088 -0.05340 -0.10175
 C380 C 0.89696 -0.07491 -0.12138
 C381 C 0.86591 -0.09482 -0.19112
 C382 C 0.88824 -0.07303 -0.16981
 H383 H 0.86048 -0.09266 -0.22890
 H384 H 0.89934 -0.05471 -0.19181
 H385 H 0.82552 -0.14001 -0.22616
 H386 H 0.81004 -0.18792 -0.09337
 H387 H 0.92353 -0.08098 0.01202
 H388 H 0.93217 -0.03545 -0.12428
 H389 H 0.84587 -0.14971 -0.05223
 H390 H 0.88203 -0.11783 -0.02050
 C391 C 0.35875 0.37643 0.38669
 C392 C 0.35147 0.37960 0.33741
 C393 C 0.33052 0.35732 0.31394
 C394 C 0.31680 0.33168 0.33879
 C395 C 0.32317 0.32896 0.38776
 C396 C 0.34384 0.35103 0.41154
 C397 C 0.38271 0.39986 0.40988
 C398 C 0.39256 0.39821 0.45825
 C399 C 0.41622 0.41974 0.47763
 C400 C 0.43063 0.44358 0.44947
 C401 C 0.42034 0.44591 0.40153
 C402 C 0.39676 0.42422 0.38156
 C403 C 0.36567 0.40460 0.31165
 C404 C 0.38777 0.42646 0.33326
 H405 H 0.35994 0.40712 0.27400
 H406 H 0.39840 0.44517 0.31160
 H407 H 0.32558 0.35939 0.27600
 H408 H 0.31249 0.30939 0.40748
 H409 H 0.42358 0.41741 0.51476
 H410 H 0.43128 0.46421 0.37934
 H411 H 0.34810 0.34750 0.44912
 H412 H 0.38272 0.38028 0.48167
 C413 C 0.13472 0.62784 -0.12495
 C414 C 0.16686 0.61750 -0.14451
 C415 C 0.18983 0.63914 -0.16577
 C416 C 0.18036 0.67096 -0.17075
 C417 C 0.14719 0.68035 -0.15361
 C418 C 0.12495 0.65934 -0.13077
 C419 C 0.11186 0.60456 -0.10010
 C420 C 0.08226 0.61349 -0.07337
 C421 C 0.06152 0.59100 -0.05116
 C422 C 0.06932 0.55910 -0.05572
 C423 C 0.09909 0.54982 -0.08145
 C424 C 0.12106 0.57246 -0.10235
 C425 C 0.17545 0.58556 -0.14356
 C426 C 0.15254 0.56341 -0.12424
 H427 H 0.19986 0.57745 -0.15909
 H428 H 0.15998 0.53892 -0.12541
 H429 H 0.21539 0.63114 -0.17760
 H430 H 0.13786 0.70408 -0.15874
 H431 H 0.03878 0.59854 -0.03102
 H432 H 0.10562 0.52516 -0.08395
 H433 H 0.09982 0.66808 -0.11900
 H434 H 0.07502 0.63771 -0.06854
 C435 C 0.63261 1.12611 0.36813
 C436 C 0.66551 1.11620 0.35042
 C437 C 0.68848 1.13807 0.32967
 C438 C 0.67840 1.16966 0.32366
 C439 C 0.64448 1.17851 0.33857
 C440 C 0.62214 1.15729 0.36077
 C441 C 0.60984 1.10273 0.39289
 C442 C 0.57944 1.11145 0.41811
 C443 C 0.55897 1.08893 0.44065
 C444 C 0.56784 1.05717 0.43790
 C445 C 0.59830 1.04809 0.41355
 C446 C 0.61999 1.07083 0.39236
 C447 C 0.67491 1.08447 0.35283
 C448 C 0.65217 1.06213 0.37205
 H449 H 0.69990 1.07667 0.33867
 H450 H 0.66032 1.03781 0.37216
 H451 H 0.71451 1.13048 0.31911
 H452 H 0.63473 1.20199 0.33228
 H453 H 0.53567 1.09630 0.45975
 H454 H 0.60562 1.02355 0.41248
 H455 H 0.59646 1.16562 0.37094
 H456 H 0.57141 1.13557 0.42162
 C457 C 0.13795 0.37293 0.12131
 C458 C 0.17201 0.38238 0.13565
 C459 C 0.19497 0.36063 0.15696
 C460 C 0.18353 0.33010 0.16731
 C461 C 0.14893 0.32157 0.15566
 C462 C 0.12656 0.34247 0.13248
 C463 C 0.11485 0.39618 0.09659
 C464 C 0.08297 0.38768 0.07450
 C465 C 0.06183 0.41027 0.05293
 C466 C 0.07159 0.44185 0.05362
 C467 C 0.10373 0.45061 0.07427
 C468 C 0.12597 0.42777 0.09436
 C469 C 0.18240 0.41365 0.12998
 C470 C 0.15944 0.43607 0.11118
 H471 H 0.20829 0.42109 0.14156
 H472 H 0.16832 0.46013 0.10880
 H473 H 0.22152 0.36759 0.16629
 H474 H 0.13913 0.29850 0.16456
 H475 H 0.03721 0.40315 0.03666
 H476 H 0.11166 0.47499 0.07371
 H477 H 0.10021 0.33462 0.12469
 H478 H 0.07413 0.36369 0.07302
 C479 C 0.63812 0.87178 0.61718
 C480 C 0.67260 0.88106 0.62983
 C481 C 0.69563 0.85945 0.65130
 C482 C 0.68394 0.82928 0.66345
 C483 C 0.64896 0.82102 0.65360
 C484 C 0.62647 0.84174 0.63025
 C485 C 0.61491 0.89484 0.59221
 C486 C 0.58248 0.88633 0.57165
 C487 C 0.56126 0.90878 0.54985
 C488 C 0.57150 0.94023 0.54882
 C489 C 0.60417 0.94896 0.56789
 C490 C 0.62646 0.92623 0.58816
 C491 C 0.68336 0.91206 0.62235
 C492 C 0.66038 0.93441 0.60338
 H493 H 0.70958 0.91939 0.63265
 H494 H 0.66957 0.95829 0.59960
 H495 H 0.72245 0.86624 0.65946
 H496 H 0.63899 0.79828 0.66401
 H497 H 0.53621 0.90168 0.53481
 H498 H 0.61244 0.97322 0.56599
 H499 H 0.59984 0.83410 0.62383
 H500 H 0.57326 0.86244 0.57157
 C501 C 0.85860 0.12405 0.11412
 C502 C 0.85161 0.12078 0.16340
 C503 C 0.83055 0.14289 0.18692
 C504 C 0.81649 0.16848 0.16215
 C505 C 0.82246 0.17123 0.11315
 C506 C 0.84321 0.14933 0.08931
 C507 C 0.88274 0.10084 0.09090
 C508 C 0.89235 0.10263 0.04255
 C509 C 0.91616 0.08130 0.02314
 C510 C 0.93097 0.05753 0.05125
 C511 C 0.92094 0.05509 0.09918
 C512 C 0.89721 0.07657 0.11918
 C513 C 0.86623 0.09585 0.18910
 C514 C 0.88847 0.07420 0.16746
 H515 H 0.86072 0.09325 0.22674
 H516 H 0.89943 0.05554 0.18907
 H517 H 0.82580 0.14074 0.22485
 H518 H 0.81143 0.19074 0.09347
 H519 H 0.92331 0.08372 -0.01398
 H520 H 0.93217 0.03683 0.12134
 H521 H 0.84719 0.15290 0.05172
 H522 H 0.88220 0.12052 0.01917
 C523 C 0.35997 0.62344 0.61932
 C524 C 0.35291 0.62013 0.66857
 C525 C 0.33200 0.64235 0.69214
 C526 C 0.31825 0.66810 0.66744
 C527 C 0.32433 0.67092 0.61848
 C528 C 0.34489 0.64890 0.59460
 C529 C 0.38388 0.60009 0.59602
 C530 C 0.39346 0.60188 0.54767
 C531 C 0.41703 0.58040 0.52815
 C532 C 0.43163 0.55645 0.55613
 C533 C 0.42165 0.55401 0.60408
 C534 C 0.39813 0.57565 0.62419
 C535 C 0.36729 0.59505 0.69418
 C536 C 0.38936 0.57327 0.67246
 H537 H 0.36173 0.59241 0.73179
 H538 H 0.40014 0.55450 0.69401
 H539 H 0.32718 0.64016 0.73004
 H540 H 0.31353 0.69055 0.59886
 H541 H 0.42413 0.58282 0.49101
 H542 H 0.43272 0.53562 0.62612
 H543 H 0.34895 0.65253 0.55704
 H544 H 0.38347 0.61987 0.52436
   
