data_POSCAR
  _audit_creation_date              2014-09-24
  _audit_creation_method            'ToBaCCo'
  _symmetry_space_group_name_H-M    'P1'
  _symmetry_Int_Tables_number       1
  _symmetry_cell_setting            triclinic
  loop_
  _symmetry_equiv_pos_as_xyz
 x,y,z
_cell_length_a 17.8849
_cell_length_b 17.7419
_cell_length_c 17.9874
_cell_angle_alpha 90.126100
_cell_angle_beta 90.129900
_cell_angle_gamma 90.068200
loop_
  _atom_site_label
  _atom_site_type_symbol
  _atom_site_fract_x
  _atom_site_fract_y
  _atom_site_fract_z
O1 O 0.41637 0.94574 -0.57143
 O2 O 0.56297 0.93084 -0.42707
 O3 O 0.41655 0.94473 -0.42920
 O4 O 0.56145 0.92559 -0.57302
 O5 O 0.57132 1.04948 -0.57981
 O6 O 0.43497 1.06783 -0.42678
 O7 O 0.58239 1.05334 -0.43489
 O8 O 0.42925 1.06965 -0.57099
 Cu9 Cu 0.48854 0.92425 -0.49975
 Cu10 Cu 0.50639 1.07245 -0.50248
 C11 C 0.39696 1.01056 -0.59459
 C12 C 0.59902 0.98948 -0.40763
 C13 C 0.40001 1.00965 -0.40456
 C14 C 0.58933 0.98410 -0.60255
 O15 O -0.57433 1.42333 -0.07273
 O16 O -0.43022 1.57081 -0.07256
 O17 O -0.42762 1.42631 -0.06536
 O18 O -0.57455 1.57105 -0.07647
 O19 O -0.57713 1.57703 0.04610
 O20 O -0.43307 1.43025 0.05732
 O21 O -0.43467 1.57599 0.05022
 O22 O -0.57779 1.42662 0.04987
 Cu23 Cu -0.50195 1.49680 -0.08413
 Cu24 Cu -0.50706 1.50244 0.06334
 C25 C -0.59956 1.39857 -0.01164
 C26 C -0.40845 1.59891 -0.01134
 C27 C -0.40451 1.40471 -0.00203
 C28 C -0.59823 1.60127 -0.01697
 O29 O 0.07485 0.42984 0.42680
 O30 O 0.07441 0.57596 0.57141
 O31 O 0.07424 0.42998 0.57283
 O32 O 0.06478 0.57762 0.42871
 O33 O -0.05805 0.56456 0.42480
 O34 O -0.04883 0.43347 0.58199
 O35 O -0.04898 0.57940 0.56709
 O36 O -0.04762 0.41796 0.43670
 Cu37 Cu 0.08450 0.50310 0.49915
 Cu38 Cu -0.06329 0.49778 0.50288
 C39 C 0.01428 0.39774 0.40822
 C40 C 0.01294 0.60468 0.59193
 C41 C 0.01402 0.40889 0.60391
 C42 C 0.00130 0.59632 0.40259
 O43 O -0.19755 0.99266 -0.09880
 O44 O 0.18873 1.00346 -0.10255
 O45 O -0.00843 1.09810 -0.19440
 O46 O -0.00405 0.89494 -0.19304
 O47 O 0.00335 0.80459 -0.10126
 O48 O -0.01286 1.19088 -0.10436
 O49 O 0.09730 0.99583 -0.19325
 O50 O -0.10823 0.99931 -0.19123
 Zr51 Zr -0.00492 0.99737 -0.13289
 O52 O 0.06595 0.93223 -0.06960
 O53 O -0.07413 1.06374 -0.06869
 C54 C -0.17703 0.99678 -0.16782
 C55 C 0.16668 0.99910 -0.17105
 C56 C -0.01207 1.16776 -0.17300
 C57 C 0.00011 0.82576 -0.17004
 H58 H 0.09216 1.10079 -0.10167
 O59 O 0.06132 1.06787 -0.06976
 H60 H -0.10193 0.89490 -0.09847
 O61 O -0.07008 0.92829 -0.06774
 O62 O 0.19060 1.00779 0.09721
 O63 O -0.19389 0.99303 0.10254
 O64 O 0.09070 1.19625 -0.00317
 O65 O 0.10197 0.80822 -0.00757
 O66 O -0.09797 0.80182 0.00220
 O67 O -0.11079 1.18845 -0.00703
 O68 O -0.00258 1.10240 0.18932
 O69 O 0.00225 0.89672 0.18987
 O70 O -0.00510 1.19319 0.09741
 O71 O 0.00138 0.80531 0.09831
 O72 O 0.18520 1.10784 0.00173
 O73 O -0.19901 1.09360 -0.00202
 O74 O -0.19194 0.89055 0.00727
 O75 O 0.19176 0.90181 -0.00455
 O76 O 0.10090 1.00335 0.18916
 O77 O -0.10092 0.99261 0.19178
 Zr78 Zr 0.12837 1.00297 -0.00241
 Zr79 Zr -0.13473 0.99435 0.00071
 Zr80 Zr -0.00755 1.13087 -0.00279
 Zr81 Zr 0.00039 0.86688 -0.00148
 Zr82 Zr -0.00117 0.99933 0.12977
 O83 O -0.06804 0.92853 0.06750
 O84 O 0.06321 1.06977 0.06505
 C85 C 0.16963 1.00638 0.16612
 C86 C -0.17037 0.99177 0.17097
 C87 C 0.16031 1.17666 0.00063
 C88 C 0.17041 0.83172 -0.00778
 C89 C -0.16738 0.82176 0.00714
 C90 C -0.17912 1.16362 -0.00669
 C91 C -0.00366 1.17186 0.16638
 C92 C 0.00255 0.82710 0.16705
 H93 H -0.10420 1.09662 0.09774
 O94 O -0.07164 1.06495 0.06621
 H95 H 0.10052 0.90184 0.09594
 O96 O 0.06713 0.93322 0.06502
 C97 C 0.33648 1.01828 0.35052
 C98 C 0.28358 0.96552 0.34192
 C99 C 0.22161 0.97280 0.28812
 C100 C 0.22973 1.00625 0.22196
 H101 H 0.28310 0.91680 0.37812
 H102 H 0.16974 0.94416 0.30113
 H103 H 0.33341 1.07034 0.31930
 H104 H 0.28377 1.02824 0.20562
 C105 C -0.35659 0.97545 0.33646
 C106 C -0.34737 1.02895 0.28486
 C107 C -0.29397 1.02191 0.22276
 C108 C -0.22629 0.99079 0.23088
 H109 H -0.38284 1.07841 0.28562
 H110 H -0.30826 1.04966 0.17105
 H111 H -0.32642 0.92272 0.33204
 H112 H -0.20901 0.96992 0.28481
 C113 C -0.34247 0.98270 -0.35622
 C114 C -0.29442 1.03920 -0.34169
 C115 C -0.23125 1.03201 -0.28902
 C116 C -0.23788 0.99747 -0.22328
 H117 H -0.29794 1.09136 -0.37272
 H118 H -0.18023 1.06221 -0.30191
 H119 H -0.33401 0.92852 -0.32977
 H120 H -0.29141 0.97397 -0.20722
 C121 C 0.33885 1.01787 -0.35041
 C122 C 0.28109 0.96943 -0.34929
 C123 C 0.21799 0.97520 -0.29657
 C124 C 0.22701 0.99947 -0.22670
 H125 H 0.27785 0.92521 -0.39082
 H126 H 0.16447 0.95253 -0.31399
 H127 H 0.33923 1.06665 -0.31412
 H128 H 0.28221 1.01589 -0.20766
 C129 C 0.34904 1.33939 -0.01347
 C130 C 0.32933 1.30025 0.04714
 C131 C 0.27715 1.23591 0.04298
 C132 C 0.21473 1.23862 0.00206
 H133 H 0.35580 1.31164 0.10024
 H134 H 0.28759 1.18782 0.07853
 H135 H 0.32744 1.32207 -0.06726
 H136 H 0.20027 1.29006 -0.02699
 C137 C 0.35350 0.66269 -0.02201
 C138 C 0.33843 0.70758 0.03628
 C139 C 0.28848 0.77347 0.03084
 C140 C 0.22699 0.77228 -0.01134
 H141 H 0.36607 0.69849 0.08918
 H142 H 0.29820 0.82037 0.06834
 H143 H 0.33148 0.67700 -0.07637
 H144 H 0.21269 0.72172 -0.04218
 C145 C -0.35223 0.65883 -0.01272
 C146 C -0.34520 0.70864 0.04278
 C147 C -0.29022 0.77025 0.04009
 C148 C -0.22212 0.76053 0.01114
 H149 H -0.38374 0.70743 0.08914
 H150 H -0.30512 0.82348 0.06568
 H151 H -0.31860 0.66450 -0.06245
 H152 H -0.20487 0.70525 -0.00795
 C153 C -0.34412 1.34922 0.00370
 C154 C -0.29357 1.33993 -0.05026
 C155 C -0.23155 1.28577 -0.04376
 C156 C -0.23999 1.21872 -0.01094
 H157 H -0.29477 1.37603 -0.09874
 H158 H -0.17930 1.29968 -0.07087
 H159 H -0.33878 1.31835 0.05535
 H160 H -0.29438 1.20176 0.00958
 C161 C 0.01719 1.33704 0.35239
 C162 C -0.03647 1.28477 0.34569
 C163 C -0.03240 1.22289 0.29068
 C164 C -0.00410 1.23245 0.22242
 H165 H -0.08275 1.28436 0.38442
 H166 H -0.05820 1.16968 0.30525
 H167 H 0.06683 1.33343 0.31814
 H168 H 0.01494 1.28773 0.20528
 C169 C 0.01745 1.35466 -0.33453
 C170 C -0.03670 1.35050 -0.28329
 C171 C -0.03502 1.29543 -0.22204
 C172 C -0.01278 1.22428 -0.23262
 H173 H -0.08211 1.39085 -0.28395
 H174 H -0.05757 1.31256 -0.16879
 H175 H 0.06650 1.31917 -0.32997
 H176 H 0.00336 1.20587 -0.28780
 C177 C 0.01500 0.66466 -0.35807
 C178 C -0.04520 0.70597 -0.34080
 C179 C -0.04090 0.76930 -0.28780
 C180 C 0.00002 0.76530 -0.22561
 H181 H -0.09807 0.69631 -0.36881
 H182 H -0.07667 0.81759 -0.29737
 H183 H 0.06884 0.67988 -0.33452
 H184 H 0.02918 0.71361 -0.21194
 C185 C -0.00492 0.65616 0.34676
 C186 C 0.04468 0.71260 0.34253
 C187 C 0.03673 0.77551 0.28947
 C188 C 0.00560 0.76649 0.22234
 H189 H 0.09040 0.71548 0.38206
 H190 H 0.06191 0.82906 0.30429
 H191 H -0.05479 0.65685 0.31250
 H192 H -0.01290 0.71111 0.20463
   
