data_POSCAR
  _audit_creation_date              2014-09-24
  _audit_creation_method            'ToBaCCo'
  _symmetry_space_group_name_H-M    'P1'
  _symmetry_Int_Tables_number       1
  _symmetry_cell_setting            triclinic
  loop_
  _symmetry_equiv_pos_as_xyz
 x,y,z
_cell_length_a 35.1007
_cell_length_b 35.2607
_cell_length_c 35.1360
_cell_angle_alpha 84.556500
_cell_angle_beta 90.197300
_cell_angle_gamma 95.005700
loop_
  _atom_site_label
  _atom_site_type_symbol
  _atom_site_fract_x
  _atom_site_fract_y
  _atom_site_fract_z
C1 C 0.57921 0.53712 -0.01629
 C2 C 0.56793 0.57450 -0.01826
 C3 C 0.53012 0.58227 -0.01143
 C4 C 0.50138 0.55111 -0.00593
 C5 C 0.51155 0.51297 -0.00595
 C6 C 0.55051 0.50590 -0.01074
 C7 C 0.55924 0.46790 -0.01247
 C8 C 0.53130 0.43752 -0.00683
 C9 C 0.49274 0.44371 -0.00181
 C10 C 0.48251 0.48175 -0.00192
 C11 C 0.46243 0.55704 -0.00271
 C12 C 0.43450 0.52665 0.00294
 C13 C 0.44339 0.48865 0.00208
 C14 C 0.41467 0.45726 0.00697
 C15 C 0.42617 0.41993 0.00892
 C16 C 0.46420 0.41275 0.00356
 H17 H 0.58775 0.46097 -0.01887
 H18 H 0.54045 0.40903 -0.00678
 H19 H 0.45263 0.58534 -0.00498
 H20 H 0.40580 0.53371 0.00822
 H21 H 0.58992 0.59822 -0.02090
 H22 H 0.40477 0.39569 0.01182
 C23 C 0.00474 0.58780 0.46425
 C24 C 0.00890 0.58058 0.42613
 C25 C 0.00814 0.54324 0.41503
 C26 C 0.00529 0.51193 0.44410
 C27 C 0.00178 0.51895 0.48315
 C28 C 0.00125 0.55694 0.49317
 C29 C -0.00180 0.56318 0.53196
 C30 C -0.00515 0.53282 0.56036
 C31 C -0.00410 0.49498 0.55137
 C32 C -0.00047 0.48793 0.51243
 C33 C 0.00842 0.47406 0.43569
 C34 C 0.00523 0.44373 0.46413
 C35 C 0.00102 0.44995 0.50273
 C36 C -0.00180 0.41921 0.53191
 C37 C -0.00625 0.42663 0.56996
 C38 C -0.00696 0.46391 0.58023
 H39 H -0.00141 0.59169 0.54096
 H40 H -0.00842 0.53947 0.58953
 H41 H 0.01418 0.46722 0.40707
 H42 H 0.00642 0.41529 0.45536
 H43 H 0.01027 0.60474 0.40447
 H44 H -0.00811 0.40296 0.59217
 C45 C 0.53402 0.00499 0.58323
 C46 C 0.57183 0.00043 0.57293
 C47 C 0.58240 -0.00415 0.53526
 C48 C 0.55355 -0.00581 0.50684
 C49 C 0.51542 0.00034 0.51623
 C50 C 0.50571 0.00653 0.55422
 C51 C 0.46859 0.01644 0.56152
 C52 C 0.44069 0.01641 0.53339
 C53 C 0.44890 0.00732 0.49644
 C54 C 0.48681 0.00032 0.48744
 C55 C 0.56121 -0.01579 0.46990
 C56 C 0.53326 -0.01580 0.44183
 C57 C 0.49616 -0.00670 0.44968
 C58 C 0.46782 -0.00550 0.42097
 C59 C 0.43032 0.00029 0.43059
 C60 C 0.42039 0.00609 0.46794
 H61 H 0.46073 0.02515 0.58889
 H62 H 0.41271 0.02421 0.54081
 H63 H 0.58874 -0.02450 0.46234
 H64 H 0.54096 -0.02363 0.41401
 H65 H 0.59367 0.00045 0.59485
 H66 H 0.40850 0.00027 0.40865
 O67 O 0.47494 -0.00175 -0.05329
 O68 O 0.46323 -0.01692 0.05118
 O69 O 0.46264 0.04178 0.00073
 O70 O 0.47540 -0.06043 -0.00245
 O71 O 0.53764 -0.04834 0.00449
 O72 O 0.52495 0.05398 0.00698
 O73 O 0.52545 -0.00464 0.05802
 O74 O 0.53722 0.00988 -0.04628
 Cu75 Cu 0.46280 -0.01050 -0.00170
 Cu76 Cu 0.53755 0.00400 0.00653
 C77 C 0.50815 0.00632 -0.06767
 C78 C 0.49237 -0.01332 0.07249
 C79 C 0.49159 0.06537 0.00449
 C80 C 0.50872 -0.07189 0.00044
 O81 O -0.05191 0.53178 0.99484
 O82 O 0.05317 0.52991 0.99596
 O83 O 0.00105 0.53058 0.94309
 O84 O 0.00039 0.53215 1.04777
 O85 O -0.00605 0.46911 1.05489
 O86 O -0.00602 0.46754 0.94991
 O87 O 0.04638 0.46687 1.00270
 O88 O -0.05848 0.46874 1.00209
 Cu89 Cu 0.00132 0.53738 0.99477
 Cu90 Cu -0.00669 0.46179 1.00311
 C91 C -0.07320 0.50055 0.99832
 C92 C 0.06777 0.49800 0.99931
 C93 C -0.00233 0.49884 0.92852
 C94 C -0.00297 0.50098 1.06930
 O95 O -0.00015 -0.04144 0.46232
 O96 O -0.00356 0.06065 0.47485
 O97 O 0.05014 0.01703 0.46266
 O98 O -0.05427 0.00215 0.47497
 O99 O -0.04688 -0.01004 0.53717
 O100 O 0.05727 0.00466 0.52488
 O101 O 0.00335 0.04821 0.53710
 O102 O 0.00666 -0.05397 0.52456
 Cu103 Cu -0.00276 0.01079 0.46244
 Cu104 Cu 0.00588 -0.00410 0.53717
 C105 C 0.00395 -0.06517 0.49126
 C106 C -0.00074 0.07191 0.50811
 C107 C 0.07158 0.01342 0.49173
 C108 C -0.06844 -0.00620 0.50824
 C109 C -0.35726 0.55612 0.95541
 C110 C -0.31767 0.55418 0.95538
 C111 C -0.30034 0.52915 0.98217
 C112 C -0.32367 0.50615 1.00936
 C113 C -0.36337 0.50805 1.00937
 C114 C -0.38094 0.53279 0.98212
 C115 C -0.25793 0.52957 0.98185
 C116 C -0.23853 0.50119 0.99824
 C117 C -0.19610 0.50207 0.99761
 C118 C -0.17911 0.46735 1.00257
 C119 C -0.13930 0.46684 1.00262
 C120 C -0.11544 0.50114 0.99806
 C121 C -0.13240 0.53596 0.99356
 C122 C -0.17223 0.53647 0.99345
 H123 H -0.36945 0.57566 0.93401
 H124 H -0.30046 0.57250 0.93433
 H125 H -0.31143 0.48764 1.03154
 H126 H -0.38012 0.49133 1.03189
 H127 H -0.24233 0.55380 0.96597
 H128 H -0.25409 0.47536 1.01116
 H129 H -0.19673 0.44045 1.00621
 H130 H -0.12723 0.43950 1.00634
 H131 H -0.11487 0.56292 0.99034
 H132 H -0.18405 0.56391 0.99085
 C133 C 0.35135 0.43810 1.03557
 C134 C 0.31183 0.44043 1.03628
 C135 C 0.29435 0.46581 1.00997
 C136 C 0.31739 0.48851 0.98234
 C137 C 0.35702 0.48618 0.98160
 C138 C 0.37481 0.46140 1.00864
 C139 C 0.25204 0.46612 1.01128
 C140 C 0.23287 0.49515 0.99593
 C141 C 0.19050 0.49496 0.99760
 C142 C 0.17400 0.52999 0.99377
 C143 C 0.13424 0.53106 0.99463
 C144 C 0.10998 0.49702 0.99900
 C145 C 0.12646 0.46192 1.00244
 C146 C 0.16620 0.46085 1.00162
 H147 H 0.36369 0.41845 1.05675
 H148 H 0.29481 0.42225 1.05760
 H149 H 0.30493 0.50721 0.96045
 H150 H 0.37356 0.50276 0.95884
 H151 H 0.23638 0.44190 1.02712
 H152 H 0.24863 0.52092 0.98313
 H153 H 0.19196 0.55668 0.99027
 H154 H 0.12252 0.55859 0.99170
 H155 H 0.10863 0.43514 1.00544
 H156 H 0.17758 0.43322 1.00334
 C157 C -0.02981 -0.35984 0.48838
 C158 C -0.03153 -0.32155 0.49496
 C159 C -0.00081 -0.29438 0.48458
 C160 C 0.03216 -0.30641 0.46835
 C161 C 0.03403 -0.34478 0.46218
 C162 C 0.00315 -0.37181 0.47231
 C163 C -0.00367 -0.25403 0.49175
 C164 C 0.01361 -0.22460 0.46947
 C165 C 0.01020 -0.18413 0.47586
 C166 C 0.01321 -0.15639 0.44441
 C167 C 0.01070 -0.11784 0.44935
 C168 C 0.00584 -0.10612 0.48603
 C169 C 0.00334 -0.13385 0.51763
 C170 C 0.00541 -0.17249 0.51262
 H171 H -0.05418 -0.38020 0.49579
 H172 H -0.05716 -0.31298 0.50760
 H173 H 0.05674 -0.28639 0.46091
 H174 H 0.05963 -0.35349 0.44962
 H175 H -0.02244 -0.24852 0.51462
 H176 H 0.02909 -0.23013 0.44424
 H177 H 0.01726 -0.16463 0.41587
 H178 H 0.01301 -0.09714 0.42446
 H179 H -0.00020 -0.12568 0.54627
 H180 H 0.00405 -0.19301 0.53762
 C181 C 0.03339 0.36681 0.50876
 C182 C 0.03539 0.32843 0.50268
 C183 C 0.00465 0.30125 0.51296
 C184 C -0.02864 0.31334 0.52851
 C185 C -0.03078 0.35178 0.53416
 C186 C 0.00013 0.37881 0.52420
 C187 C 0.00774 0.26080 0.50637
 C188 C -0.00966 0.23160 0.52885
 C189 C -0.00636 0.19105 0.52281
 C190 C -0.00951 0.16351 0.55442
 C191 C -0.00720 0.12486 0.54974
 C192 C -0.00242 0.11290 0.51316
 C193 C 0.00025 0.14044 0.48141
 C194 C -0.00161 0.17915 0.48616
 H195 H 0.05776 0.38720 0.50149
 H196 H 0.06124 0.31980 0.49054
 H197 H -0.05323 0.29329 0.53582
 H198 H -0.05661 0.36052 0.54624
 H199 H 0.02666 0.25507 0.48371
 H200 H -0.02528 0.23739 0.55389
 H201 H -0.01353 0.17196 0.58289
 H202 H -0.00963 0.10430 0.57473
 H203 H 0.00376 0.13209 0.45284
 H204 H -0.00017 0.19952 0.46104
 C205 C 0.49483 -0.01547 -0.35944
 C206 C 0.48799 -0.01456 -0.32041
 C207 C 0.51214 0.00847 -0.29844
 C208 C 0.54294 0.03133 -0.31660
 C209 C 0.55001 0.03015 -0.35550
 C210 C 0.52584 0.00707 -0.37765
 C211 C 0.50410 0.00789 -0.25696
 C212 C 0.53032 0.01916 -0.23153
 C213 C 0.52329 0.01680 -0.18976
 C214 C 0.55500 0.01837 -0.16536
 C215 C 0.55007 0.01548 -0.12577
 C216 C 0.51321 0.01102 -0.10965
 C217 C 0.48138 0.01034 -0.13400
 C218 C 0.48631 0.01344 -0.17366
 H219 H 0.47649 -0.03476 -0.37513
 H220 H 0.46411 -0.03251 -0.30718
 H221 H 0.56149 0.05062 -0.30124
 H222 H 0.57384 0.04832 -0.36856
 H223 H 0.47619 -0.00449 -0.24709
 H224 H 0.55918 0.02842 -0.24107
 H225 H 0.58379 0.02132 -0.17695
 H226 H 0.57521 0.01622 -0.10780
 H227 H 0.45261 0.00740 -0.12241
 H228 H 0.46106 0.01349 -0.19134
 C229 C 0.50206 0.01854 0.36014
 C230 C 0.50897 0.01651 0.32134
 C231 C 0.49004 -0.01258 0.30192
 C232 C 0.46486 -0.04044 0.32244
 C233 C 0.45796 -0.03836 0.36129
 C234 C 0.47648 -0.00885 0.38034
 C235 C 0.49742 -0.01278 0.26049
 C236 C 0.47256 -0.02912 0.23658
 C237 C 0.47870 -0.02643 0.19471
 C238 C 0.44673 -0.02982 0.17081
 C239 C 0.45113 -0.02596 0.13111
 C240 C 0.48772 -0.01888 0.11449
 C241 C 0.51983 -0.01665 0.13842
 C242 C 0.51543 -0.02057 0.17811
 H243 H 0.51632 0.04172 0.37440
 H244 H 0.52864 0.03816 0.30626
 H245 H 0.45066 -0.06400 0.30882
 H246 H 0.43822 -0.05979 0.37657
 H247 H 0.52297 0.00372 0.24909
 H248 H 0.44529 -0.04244 0.24738
 H249 H 0.41817 -0.03473 0.18289
 H250 H 0.42583 -0.02807 0.11346
 H251 H 0.54844 -0.01175 0.12649
 H252 H 0.54087 -0.01925 0.19555
 C253 C 0.50208 -0.36855 0.02234
 C254 C 0.49648 -0.33022 0.02563
 C255 C 0.51270 -0.30130 -0.00108
 C256 C 0.53418 -0.31150 -0.03163
 C257 C 0.53961 -0.34979 -0.03506
 C258 C 0.52312 -0.37908 -0.00851
 C259 C 0.50590 -0.26102 0.00315
 C260 C 0.53060 -0.23140 -0.00961
 C261 C 0.52405 -0.19100 -0.00573
 C262 C 0.55576 -0.16391 -0.00539
 C263 C 0.55081 -0.12533 -0.00289
 C264 C 0.51393 -0.11291 -0.00121
 C265 C 0.48213 -0.13999 -0.00183
 C266 C 0.48710 -0.17864 -0.00407
 H267 H 0.49074 -0.38988 0.04458
 H268 H 0.48003 -0.32307 0.04956
 H269 H 0.54623 -0.29009 -0.05339
 H270 H 0.55590 -0.35661 -0.05927
 H271 H 0.48069 -0.25596 0.01892
 H272 H 0.55763 -0.23681 -0.02189
 H273 H 0.58450 -0.17265 -0.00700
 H274 H 0.57591 -0.10518 -0.00269
 H275 H 0.45334 -0.13131 -0.00083
 H276 H 0.46194 -0.19850 -0.00542
 C277 C 0.48694 0.35999 -0.03126
 C278 C 0.49349 0.32164 -0.03283
 C279 C 0.48455 0.29471 -0.00143
 C280 C 0.46981 0.30704 0.03205
 C281 C 0.46373 0.34551 0.03377
 C282 C 0.47243 0.37230 0.00222
 C283 C 0.49164 0.25428 -0.00417
 C284 C 0.46998 0.22498 0.01409
 C285 C 0.47626 0.18445 0.01067
 C286 C 0.44489 0.15685 0.01455
 C287 C 0.44978 0.11825 0.01202
 C288 C 0.48635 0.10637 0.00629
 C289 C 0.51788 0.13395 0.00291
 C290 C 0.51290 0.17263 0.00497
 H291 H 0.49314 0.38013 -0.05616
 H292 H 0.50495 0.31282 -0.05887
 H293 H 0.46347 0.28718 0.05709
 H294 H 0.45229 0.35445 0.05976
 H295 H 0.51382 0.24859 -0.02368
 H296 H 0.44532 0.23067 0.03040
 H297 H 0.41645 0.16522 0.01930
 H298 H 0.42497 0.09766 0.01503
 H299 H 0.54643 0.12566 -0.00132
 H300 H 0.53785 0.19305 0.00290
 C301 C -0.36030 0.01650 0.49619
 C302 C -0.32126 0.01553 0.48934
 C303 C -0.29915 -0.00764 0.51357
 C304 C -0.31717 -0.03047 0.54453
 C305 C -0.35609 -0.02921 0.55161
 C306 C -0.37839 -0.00609 0.52728
 C307 C -0.25770 -0.00722 0.50537
 C308 C -0.23215 -0.01893 0.53143
 C309 C -0.19042 -0.01667 0.52415
 C310 C -0.16582 -0.01837 0.55570
 C311 C -0.12626 -0.01548 0.55052
 C312 C -0.11037 -0.01091 0.51356
 C313 C -0.13492 -0.01013 0.48190
 C314 C -0.17456 -0.01323 0.48708
 H315 H -0.37615 0.03583 0.47773
 H316 H -0.30814 0.03348 0.46535
 H317 H -0.30169 -0.04983 0.56317
 H318 H -0.36906 -0.04740 0.57553
 H319 H -0.24794 0.00539 0.47747
 H320 H -0.24152 -0.02845 0.56030
 H321 H -0.17723 -0.02139 0.58455
 H322 H -0.10811 -0.01631 0.57552
 H323 H -0.12351 -0.00712 0.45306
 H324 H -0.19241 -0.01322 0.46196
 C325 C 0.35954 -0.01810 0.50192
 C326 C 0.32066 -0.01608 0.50866
 C327 C 0.30108 0.01304 0.48948
 C328 C 0.32149 0.04094 0.46422
 C329 C 0.36042 0.03888 0.45751
 C330 C 0.37964 0.00935 0.47630
 C331 C 0.25961 0.01325 0.49673
 C332 C 0.23562 0.02960 0.47171
 C333 C 0.19375 0.02688 0.47784
 C334 C 0.16979 0.02993 0.44586
 C335 C 0.13008 0.02596 0.45033
 C336 C 0.11355 0.01908 0.48697
 C337 C 0.13754 0.01721 0.51906
 C338 C 0.17722 0.02127 0.51459
 H339 H 0.37395 -0.04128 0.51639
 H340 H 0.30567 -0.03777 0.52839
 H341 H 0.30771 0.06451 0.44983
 H342 H 0.37563 0.06035 0.43773
 H343 H 0.24826 -0.00325 0.52237
 H344 H 0.24638 0.04289 0.44438
 H345 H 0.18182 0.03466 0.41728
 H346 H 0.11236 0.02779 0.42504
 H347 H 0.12566 0.01251 0.54769
 H348 H 0.19471 0.02024 0.54001
 C349 C 0.03439 0.56319 1.35085
 C350 C 0.03441 0.56054 1.31145
 C351 C 0.00902 0.53386 1.29500
 C352 C -0.01694 0.51007 1.31899
 C353 C -0.01695 0.51268 1.35853
 C354 C 0.00913 0.53890 1.37525
 C355 C 0.00952 0.53331 1.25274
 C356 C -0.00528 0.50388 1.23418
 C357 C -0.00427 0.50401 1.19185
 C358 C -0.00712 0.46896 1.17568
 C359 C -0.00655 0.46788 1.13596
 C360 C -0.00341 0.50192 1.11144
 C361 C -0.00109 0.53703 1.12760
 C362 C -0.00168 0.53811 1.16727
 H363 H 0.05488 0.58386 1.36235
 H364 H 0.05446 0.57952 1.29369
 H365 H -0.03812 0.49025 1.30740
 H366 H -0.03846 0.49514 1.37586
 H367 H 0.02430 0.55782 1.23654
 H368 H -0.01700 0.47787 1.25036
 H369 H -0.00954 0.44227 1.19386
 H370 H -0.00859 0.44034 1.12447
 H371 H 0.00090 0.56380 1.10956
 H372 H -0.00083 0.56573 1.17840
 C373 C -0.04195 0.45165 0.64266
 C374 C -0.04381 0.45354 0.68216
 C375 C -0.01395 0.47272 0.70142
 C376 C 0.01810 0.48983 0.68022
 C377 C 0.02000 0.48776 0.64069
 C378 C -0.01009 0.46881 0.62159
 C379 C -0.01640 0.47236 0.74365
 C380 C 0.00262 0.49853 0.76360
 C381 C 0.00022 0.49775 0.80586
 C382 C 0.00756 0.53210 0.82281
 C383 C 0.00636 0.53250 0.86254
 C384 C -0.00172 0.49840 0.88635
 C385 C -0.00867 0.46390 0.86943
 C386 C -0.00770 0.46354 0.82965
 H387 H -0.06520 0.43639 0.62852
 H388 H -0.06860 0.43976 0.69779
 H389 H 0.04228 0.50375 0.69412
 H390 H 0.04529 0.50028 0.62506
 H391 H -0.03593 0.45046 0.75850
 H392 H 0.01927 0.52257 0.74851
 H393 H 0.01410 0.55879 0.80520
 H394 H 0.01207 0.55955 0.87462
 H395 H -0.01470 0.43710 0.88695
 H396 H -0.01233 0.43632 0.81777
   
