data_POSCAR
  _audit_creation_date              2014-09-24
  _audit_creation_method            'ToBaCCo'
  _symmetry_space_group_name_H-M    'P1'
  _symmetry_Int_Tables_number       1
  _symmetry_cell_setting            triclinic
  loop_
  _symmetry_equiv_pos_as_xyz
 x,y,z
_cell_length_a 36.8350
_cell_length_b 36.4660
_cell_length_c 7.7129
_cell_angle_alpha 90.827400
_cell_angle_beta 90.435600
_cell_angle_gamma 89.459800
loop_
  _atom_site_label
  _atom_site_type_symbol
  _atom_site_fract_x
  _atom_site_fract_y
  _atom_site_fract_z
C1 C 0.16508 0.21637 0.42434
 C2 C 0.14555 0.24965 0.42283
 C3 C 0.16278 0.28311 0.39850
 C4 C 0.20101 0.28417 0.38617
 C5 C 0.22159 0.25116 0.39588
 C6 C 0.20367 0.21717 0.41536
 C7 C 0.22494 0.18532 0.43862
 C8 C 0.26268 0.18648 0.43576
 C9 C 0.28108 0.21952 0.40813
 C10 C 0.26018 0.25231 0.38980
 C11 C 0.21922 0.31760 0.36893
 C12 C 0.25682 0.31874 0.36134
 C13 C 0.27784 0.28654 0.37324
 C14 C 0.31608 0.28792 0.37689
 C15 C 0.33622 0.25579 0.39973
 C16 C 0.31966 0.22148 0.41397
 H17 H 0.21262 0.15926 0.46630
 H18 H 0.27716 0.16121 0.46135
 H19 H 0.20459 0.34345 0.36509
 H20 H 0.26931 0.34535 0.35058
 H21 H 0.11610 0.24938 0.42440
 H22 H 0.36563 0.25753 0.40214
 C23 C 0.82046 0.28341 0.03778
 C24 C 0.83883 0.25018 0.00481
 C25 C 0.82184 0.21635 0.02339
 C26 C 0.78454 0.21520 0.06385
 C27 C 0.76495 0.24840 0.09049
 C28 C 0.78288 0.28265 0.07919
 C29 C 0.76216 0.31510 0.09874
 C30 C 0.72561 0.31409 0.14146
 C31 C 0.70767 0.28054 0.15731
 C32 C 0.72724 0.24741 0.12801
 C33 C 0.76616 0.18166 0.07417
 C34 C 0.72924 0.18072 0.11071
 C35 C 0.70922 0.21324 0.13775
 C36 C 0.67180 0.21264 0.17782
 C37 C 0.65327 0.24557 0.21208
 C38 C 0.67059 0.27933 0.20142
 H39 H 0.77377 0.34181 0.07896
 H40 H 0.71142 0.33997 0.15990
 H41 H 0.78009 0.15576 0.05236
 H42 H 0.71658 0.15413 0.11806
 H43 H 0.86766 0.25034 -0.02325
 H44 H 0.62484 0.24496 0.24776
 C45 C 0.82840 0.78809 0.71540
 C46 C 0.84512 0.75489 0.76311
 C47 C 0.82787 0.72125 0.74091
 C48 C 0.79219 0.72011 0.67366
 C49 C 0.77379 0.75332 0.63405
 C50 C 0.79187 0.78748 0.65370
 C51 C 0.77197 0.81999 0.62393
 C52 C 0.73572 0.81904 0.57216
 C53 C 0.71751 0.78560 0.55131
 C54 C 0.73678 0.75239 0.58029
 C55 C 0.77419 0.68662 0.64889
 C56 C 0.73847 0.68569 0.58974
 C57 C 0.71887 0.71826 0.55964
 C58 C 0.68183 0.71761 0.50904
 C59 C 0.66343 0.75061 0.47850
 C60 C 0.68045 0.78445 0.50223
 H61 H 0.78373 0.84672 0.64535
 H62 H 0.72202 0.84495 0.55003
 H63 H 0.78751 0.66072 0.67577
 H64 H 0.72629 0.65908 0.56945
 H65 H 0.87281 0.75491 0.81239
 H66 H 0.63486 0.75005 0.44330
 C67 C 0.18575 0.70957 1.00623
 C68 C 0.16717 0.74187 1.05428
 C69 C 0.18269 0.77665 1.03838
 C70 C 0.21952 0.77917 0.98609
 C71 C 0.23975 0.74659 0.95029
 C72 C 0.22292 0.71179 0.95993
 C73 C 0.24438 0.67997 0.93506
 C74 C 0.28098 0.68218 0.89486
 C75 C 0.29783 0.71627 0.87901
 C76 C 0.27720 0.74880 0.90779
 C77 C 0.23744 0.81310 0.97991
 C78 C 0.27356 0.81528 0.93043
 C79 C 0.29406 0.78346 0.89495
 C80 C 0.33102 0.78531 0.84699
 C81 C 0.35088 0.75294 0.81886
 C82 C 0.33494 0.71867 0.83660
 H83 H 0.23342 0.65286 0.95119
 H84 H 0.29606 0.65676 0.87789
 H85 H 0.22404 0.83850 1.01624
 H86 H 0.28538 0.84225 0.92370
 H87 H 0.13854 0.74027 1.08525
 H88 H 0.37923 0.75445 0.78241
 O89 O 1.03828 -0.04357 0.17809
 O90 O 0.96546 0.02600 0.23411
 O91 O 0.96850 -0.04359 0.15315
 O92 O 1.03551 0.02485 0.28417
 O93 O 1.04208 0.03698 0.00676
 O94 O 0.97276 -0.03128 -0.12462
 O95 O 0.97148 0.03911 -0.04198
 O96 O 1.04306 -0.03044 -0.09897
 Cu97 Cu 1.00121 -0.01071 0.23840
 Cu98 Cu 1.00774 0.00564 -0.09073
 C99 C 1.05280 -0.04921 0.03083
 C100 C 0.95622 0.04475 0.10281
 C101 C 0.95951 -0.05011 -0.00278
 C102 C 1.05072 0.04250 0.16469
 O103 O 0.53887 0.46438 0.45516
 O104 O 0.47386 0.53640 0.59234
 O105 O 0.47234 0.46518 0.56075
 O106 O 0.54170 0.53511 0.50613
 O107 O 0.52571 0.54268 0.23294
 O108 O 0.45626 0.47094 0.28641
 O109 O 0.45764 0.54212 0.31827
 O110 O 0.52326 0.47136 0.18107
 Cu111 Cu 0.50858 0.49954 0.55498
 Cu112 Cu 0.48895 0.50749 0.22790
 C113 C 0.54206 0.45527 0.29639
 C114 C 0.45451 0.55169 0.47614
 C115 C 0.45253 0.45576 0.43271
 C116 C 0.54540 0.55136 0.36333
 O117 O 0.02395 0.46649 0.17008
 O118 O -0.04197 0.53753 0.03058
 O119 O -0.04354 0.46667 0.07348
 O120 O 0.02412 0.53799 0.14972
 O121 O 0.04167 0.53210 -0.12208
 O122 O -0.02563 0.45871 -0.19668
 O123 O -0.02481 0.53000 -0.24094
 O124 O 0.04176 0.46109 -0.10139
 Cu125 Cu -0.01134 0.50289 0.13221
 Cu126 Cu 0.01007 0.49490 -0.19218
 C127 C 0.04415 0.45148 0.05556
 C128 C -0.04453 0.54604 -0.12841
 C129 C -0.04583 0.44985 -0.07108
 C130 C 0.04444 0.54750 0.02656
 O131 O 0.45995 1.04151 0.57643
 O132 O 0.53295 0.97456 0.67039
 O133 O 0.53004 1.04325 0.58415
 O134 O 0.46231 0.97306 0.67579
 O135 O 0.46297 0.95838 0.39767
 O136 O 0.52989 1.03000 0.30456
 O137 O 0.53303 0.96119 0.39086
 O138 O 0.45898 1.02640 0.29854
 Cu139 Cu 0.49618 1.01003 0.65336
 Cu140 Cu 0.49621 0.99211 0.32147
 C141 C 0.44726 1.04583 0.42442
 C142 C 0.54542 0.95609 0.54252
 C143 C 0.54141 1.04914 0.43251
 C144 C 0.45150 0.95302 0.54989
 C145 C 1.11543 0.17871 0.53112
 C146 C 1.14501 0.18353 0.41915
 C147 C 1.15146 0.15708 0.28785
 C148 C 1.12815 0.12719 0.26499
 C149 C 1.09881 0.12249 0.37960
 C150 C 1.09314 0.14805 0.51433
 C151 C 1.07465 0.09336 0.35222
 C152 C 1.07847 0.07009 0.20677
 C153 C 1.10768 0.07498 0.09375
 C154 C 1.13266 0.10292 0.12414
 H155 H 1.17307 0.16118 0.19551
 H156 H 1.07072 0.14503 0.60305
 H157 H 1.05178 0.09001 0.43813
 H158 H 1.15485 0.10625 0.03448
 H159 H 1.10975 0.19864 0.63312
 H160 H 1.11102 0.05725 -0.01911
 C161 C 0.65568 0.66332 0.65465
 C162 C 0.66034 0.68343 0.50280
 C163 C 0.64227 0.67249 0.34961
 C164 C 0.61968 0.64162 0.34838
 C165 C 0.61530 0.62160 0.50222
 C166 C 0.63362 0.63246 0.65406
 C167 C 0.59195 0.59155 0.50333
 C168 C 0.57223 0.58129 0.35363
 C169 C 0.57714 0.60097 0.20033
 C170 C 0.60079 0.63083 0.19756
 H171 H 0.64543 0.68833 0.23293
 H172 H 0.63036 0.61748 0.77317
 H173 H 0.58849 0.57673 0.62282
 H174 H 0.60381 0.64584 0.07845
 H175 H 0.66884 0.67188 0.77443
 H176 H 0.56232 0.59364 0.08328
 C177 C -0.15985 0.34012 0.18215
 C178 C -0.15913 0.31600 0.03796
 C179 C -0.13591 0.32371 -0.10118
 C180 C -0.11501 0.35571 -0.09956
 C181 C -0.11619 0.37962 0.04597
 C182 C -0.13857 0.37155 0.18620
 C183 C -0.09445 0.41089 0.05083
 C184 C -0.07132 0.41884 -0.08781
 C185 C -0.07113 0.39554 -0.23462
 C186 C -0.09276 0.36417 -0.24027
 H187 H -0.13487 0.30528 -0.21278
 H188 H -0.13938 0.38936 0.29984
 H189 H -0.09508 0.42867 0.16471
 H190 H -0.09175 0.34630 -0.35365
 H191 H -0.17616 0.33406 0.29434
 H192 H -0.05364 0.40105 -0.34326
 C193 C 0.35856 0.84346 0.96089
 C194 C 0.34992 0.82033 0.81995
 C195 C 0.36165 0.82915 0.65339
 C196 C 0.38229 0.86064 0.62763
 C197 C 0.39135 0.88373 0.77016
 C198 C 0.37901 0.87506 0.93618
 C199 C 0.41325 0.91453 0.74462
 C200 C 0.42624 0.92238 0.57820
 C201 C 0.41639 0.89946 0.43759
 C202 C 0.39465 0.86895 0.46199
 H203 H 0.35516 0.81111 0.54459
 H204 H 0.38559 0.89240 1.04698
 H205 H 0.42075 0.93182 0.85447
 H206 H 0.38805 0.85151 0.35155
 H207 H 0.34987 0.83666 1.09022
 H208 H 0.42610 0.90469 0.30828
 C209 C -0.14682 0.68030 -0.03141
 C210 C -0.15188 0.68791 -0.20764
 C211 C -0.13605 0.66495 -0.33401
 C212 C -0.11479 0.63467 -0.28435
 C213 C -0.10964 0.62720 -0.10628
 C214 C -0.12602 0.65002 0.01908
 C215 C -0.08754 0.59758 -0.05644
 C216 C -0.06997 0.57555 -0.18195
 C217 C -0.07567 0.58297 -0.35864
 C218 C -0.09800 0.61215 -0.40940
 H219 H -0.13977 0.67115 -0.47017
 H220 H -0.12228 0.64478 0.15597
 H221 H -0.08329 0.59231 0.08022
 H222 H -0.10168 0.61743 -0.54640
 H223 H -0.15881 0.69803 0.06694
 H224 H -0.06255 0.56644 -0.45802
 C225 C 0.36902 1.19266 0.57454
 C226 C 0.34263 1.19089 0.44174
 C227 C 0.34195 1.15982 0.33058
 C228 C 0.36749 1.13121 0.35171
 C229 C 0.39312 1.13328 0.48866
 C230 C 0.39354 1.16394 0.59959
 C231 C 0.41852 1.10499 0.51120
 C232 C 0.41957 1.07476 0.39667
 C233 C 0.39463 1.07308 0.25814
 C234 C 0.36851 1.10095 0.23672
 H235 H 0.32266 1.15868 0.22386
 H236 H 0.41322 1.16598 0.70440
 H237 H 0.43816 1.10693 0.61619
 H238 H 0.34939 1.09900 0.12959
 H239 H 0.37025 1.21624 0.66159
 H240 H 0.39508 1.05004 0.16797
 C241 C 1.13797 -0.19036 0.21550
 C242 C 1.15996 -0.19243 0.06704
 C243 C 1.15632 -0.16497 -0.05885
 C244 C 1.13161 -0.13582 -0.03559
 C245 C 1.11045 -0.13371 0.11638
 C246 C 1.11393 -0.16103 0.24121
 C247 C 1.08551 -0.10481 0.13928
 C248 C 1.08069 -0.07834 0.01020
 C249 C 1.10171 -0.08078 -0.14108
 C250 C 1.12710 -0.10915 -0.16338
 H251 H 1.17159 -0.16712 -0.17842
 H252 H 1.09776 -0.15996 0.35803
 H253 H 1.06914 -0.10353 0.25549
 H254 H 1.14296 -0.11041 -0.28117
 H255 H 1.13990 -0.21124 0.31381
 H256 H 1.09848 -0.06075 -0.24248
 C257 C 0.64369 0.32208 0.41985
 C258 C 0.64933 0.31262 0.24539
 C259 C 0.63377 0.33407 0.11425
 C260 C 0.61223 0.36478 0.15762
 C261 C 0.60648 0.37406 0.33405
 C262 C 0.62251 0.35267 0.46402
 C263 C 0.58429 0.40416 0.37776
 C264 C 0.56723 0.42501 0.24786
 C265 C 0.57340 0.41579 0.07287
 C266 C 0.59584 0.38604 0.02813
 H267 H 0.63806 0.32650 -0.02060
 H268 H 0.61833 0.35934 0.59962
 H269 H 0.57973 0.41082 0.51334
 H270 H 0.59998 0.37942 -0.10764
 H271 H 0.65552 0.30556 0.52174
 H272 H 0.56067 0.43143 -0.02967
 C273 C 0.85319 -0.15451 -0.39908
 C274 C 0.84869 -0.17942 -0.26290
 C275 C 0.86705 -0.17288 -0.10546
 C276 C 0.88892 -0.14208 -0.08243
 C277 C 0.89393 -0.11748 -0.22006
 C278 C 0.87579 -0.12396 -0.37812
 C279 C 0.91706 -0.08712 -0.19648
 C280 C 0.93443 -0.08104 -0.03554
 C281 C 0.92831 -0.10560 0.10031
 C282 C 0.90600 -0.13577 0.07703
 H283 H 0.86365 -0.19156 0.00141
 H284 H 0.87932 -0.10561 -0.48573
 H285 H 0.92136 -0.06833 -0.30174
 H286 H 0.90223 -0.15429 0.18393
 H287 H 0.84031 -0.15943 -0.52388
 H288 H 0.94133 -0.10191 0.22555
 C289 C 0.33812 0.34083 0.20478
 C290 C 0.33644 0.32253 0.36320
 C291 C 0.35637 0.33566 0.50628
 C292 C 0.37844 0.36651 0.49101
 C293 C 0.38063 0.38450 0.33022
 C294 C 0.35995 0.37173 0.18847
 C295 C 0.40408 0.41434 0.31283
 C296 C 0.42562 0.42626 0.45386
 C297 C 0.42244 0.40868 0.61417
 C298 C 0.39905 0.37914 0.63262
 H299 H 0.35514 0.32131 0.62824
 H300 H 0.36117 0.38524 0.06454
 H301 H 0.40612 0.42770 0.18864
 H302 H 0.39752 0.36577 0.75685
 H303 H 0.32302 0.33070 0.09332
 H304 H 0.43856 0.41734 0.72511
 C305 C 0.16676 0.65506 -0.15938
 C306 C 0.16558 0.67680 -0.00687
 C307 C 0.14111 0.66729 0.12458
 C308 C 0.11854 0.63673 0.10453
 C309 C 0.11966 0.61565 -0.05051
 C310 C 0.14407 0.62486 -0.18085
 C311 C 0.09585 0.58617 -0.07422
 C312 C 0.07098 0.57725 0.05564
 C313 C 0.07089 0.59773 0.21171
 C314 C 0.09440 0.62724 0.23584
 H315 H 0.13991 0.68352 0.24355
 H316 H 0.14505 0.60921 -0.30133
 H317 H 0.09641 0.57045 -0.19456
 H318 H 0.09338 0.64290 0.35628
 H319 H 0.18405 0.66246 -0.26618
 H320 H 0.05213 0.59140 0.31430
 C321 C 0.64274 1.15634 0.04937
 C322 C 0.65117 1.17829 0.19492
 C323 C 0.63747 1.16921 0.35726
 C324 C 0.61496 1.13884 0.37474
 C325 C 0.60596 1.11694 0.22797
 C326 C 0.62039 1.12573 0.06583
 C327 C 0.58230 1.08714 0.24606
 C328 C 0.56765 1.07919 0.40924
 C329 C 0.57742 1.10107 0.55379
 C330 C 0.60075 1.13054 0.53674
 H331 H 0.64388 1.18633 0.46941
 H332 H 0.61391 1.10934 -0.04823
 H333 H 0.57506 1.07053 0.13348
 H334 H 0.60733 1.14713 0.65020
 H335 H 0.65298 1.16332 -0.07703
 H336 H 0.56658 1.09580 0.68107
 C337 C 0.11668 0.32979 0.49886
 C338 C 0.13961 0.31587 0.36865
 C339 C 0.13947 0.33212 0.20503
 C340 C 0.11691 0.36232 0.17134
 C341 C 0.09391 0.37650 0.30289
 C342 C 0.09410 0.36008 0.46657
 C343 C 0.07072 0.40635 0.26687
 C344 C 0.07017 0.42189 0.10088
 C345 C 0.09365 0.40771 -0.02736
 C346 C 0.11678 0.37826 0.00739
 H347 H 0.15685 0.32100 0.10397
 H348 H 0.07663 0.37045 0.56883
 H349 H 0.05266 0.41691 0.36639
 H350 H 0.13437 0.36781 -0.09445
 H351 H 0.11633 0.31716 0.62493
 H352 H 0.09393 0.41912 -0.15642
 C353 C 0.64316 0.82585 0.31763
 C354 C 0.65791 0.81788 0.48084
 C355 C 0.64888 0.84008 0.62512
 C356 C 0.62477 0.86988 0.60634
 C357 C 0.60991 0.87747 0.44123
 C358 C 0.61952 0.85558 0.29762
 C359 C 0.58495 0.90627 0.42236
 C360 C 0.57388 0.92759 0.56638
 C361 C 0.58913 0.92028 0.73005
 C362 C 0.61452 0.89172 0.74968
 H363 H 0.65990 0.83351 0.75174
 H364 H 0.60814 0.86098 0.17053
 H365 H 0.57352 0.91148 0.29509
 H366 H 0.62577 0.88640 0.87714
 H367 H 0.64968 0.80870 0.20612
 H368 H 0.58112 0.93630 0.84300
 C369 C 0.86110 0.17412 -0.15173
 C370 C 0.84472 0.18293 0.00703
 C371 C 0.85248 0.16159 0.15331
 C372 C 0.87685 0.13182 0.14134
 C373 C 0.89344 0.12336 -0.01910
 C374 C 0.88514 0.14443 -0.16507
 C375 C 0.91866 0.09447 -0.03052
 C376 C 0.92800 0.07387 0.11647
 C377 C 0.91099 0.08213 0.27504
 C378 C 0.88556 0.11082 0.28723
 H379 H 0.84021 0.16879 0.27666
 H380 H 0.89776 0.13834 -0.28875
 H381 H 0.93145 0.08846 -0.15398
 H382 H 0.87306 0.11689 0.41114
 H383 H 0.85557 0.19065 -0.26463
 H384 H 0.91764 0.06673 0.39025
 C385 C 0.37935 0.67096 0.93368
 C386 C 0.35767 0.68593 0.80187
 C387 C 0.35841 0.67056 0.63457
 C388 C 0.38112 0.64048 0.59745
 C389 C 0.40324 0.62547 0.73015
 C390 C 0.40197 0.64079 0.89824
 C391 C 0.42666 0.59587 0.69149
 C392 C 0.42846 0.58137 0.52164
 C393 C 0.40590 0.59631 0.39193
 C394 C 0.38242 0.62550 0.42953
 H395 H 0.34162 0.68242 0.53332
 H396 H 0.41880 0.62979 1.00122
 H397 H 0.44392 0.58466 0.79243
 H398 H 0.36556 0.63660 0.32688
 H399 H 0.37893 0.68288 1.06327
 H400 H 0.40659 0.58559 0.26036
   
