data_POSCAR
  _audit_creation_date              2014-09-24
  _audit_creation_method            'ToBaCCo'
  _symmetry_space_group_name_H-M    'P1'
  _symmetry_Int_Tables_number       1
  _symmetry_cell_setting            triclinic
  loop_
  _symmetry_equiv_pos_as_xyz
 x,y,z
_cell_length_a 36.9824
_cell_length_b 36.9367
_cell_length_c 37.3321
_cell_angle_alpha 93.048400
_cell_angle_beta 89.769400
_cell_angle_gamma 88.851600
loop_
  _atom_site_label
  _atom_site_type_symbol
  _atom_site_fract_x
  _atom_site_fract_y
  _atom_site_fract_z
C1 C 0.28896 0.47184 1.01252
 C2 C 0.26980 0.50323 1.00400
 C3 C 0.28849 0.53452 0.99623
 C4 C 0.32658 0.53474 0.99639
 C5 C 0.34539 0.50283 1.00523
 C6 C 0.32678 0.47145 1.01315
 C7 C 0.23007 0.50330 1.00299
 C8 C 0.21019 0.49822 1.03424
 C9 C 0.17212 0.49806 1.03367
 C10 C 0.15445 0.50434 1.00106
 C11 C 0.17426 0.50907 0.96949
 C12 C 0.21212 0.50822 0.97067
 H13 H 0.27444 0.44757 1.01822
 H14 H 0.27309 0.55906 0.99144
 H15 H 0.22455 0.49561 1.05927
 H16 H 0.22768 0.51098 0.94632
 H17 H 0.37471 0.50181 1.00472
 H18 H 0.12517 0.50425 0.99978
 C19 C 0.71330 0.46175 -0.00358
 C20 C 0.73174 0.49436 -0.00552
 C21 C 0.71247 0.52671 -0.01071
 C22 C 0.67468 0.52665 -0.01369
 C23 C 0.65637 0.49392 -0.01120
 C24 C 0.67559 0.46125 -0.00698
 C25 C 0.77130 0.49446 -0.00246
 C26 C 0.79281 0.49475 -0.03346
 C27 C 0.83092 0.49336 -0.03128
 C28 C 0.84654 0.49368 0.00316
 C29 C 0.82514 0.49215 0.03412
 C30 C 0.78748 0.49278 0.03125
 H31 H 0.72835 0.43673 0.00008
 H32 H 0.72685 0.55187 -0.01233
 H33 H 0.77953 0.49433 -0.05929
 H34 H 0.77082 0.49168 0.05511
 H35 H 0.62710 0.49386 -0.01269
 H36 H 0.87558 0.49541 0.00629
 C37 C 0.03543 0.21233 0.49357
 C38 C 0.00337 0.23313 0.49680
 C39 C -0.02976 0.21612 0.50117
 C40 C -0.03096 0.17834 0.50302
 C41 C 0.00125 0.15769 0.49983
 C42 C 0.03446 0.17448 0.49471
 C43 C 0.00427 0.27270 0.49513
 C44 C 0.00507 0.28840 0.46181
 C45 C 0.00448 0.32634 0.45974
 C46 C 0.00556 0.34808 0.49190
 C47 C 0.00343 0.33257 0.52537
 C48 C 0.00304 0.29475 0.52679
 H49 H 0.06100 0.22553 0.48991
 H50 H -0.05459 0.23224 0.50286
 H51 H 0.00620 0.27095 0.43752
 H52 H 0.00150 0.28248 0.55248
 H53 H 0.00048 0.12847 0.50115
 H54 H 0.00580 0.37737 0.49105
 C55 C 1.02552 0.78839 0.50976
 C56 C 0.99286 0.77009 0.50603
 C57 C 0.96041 0.78959 0.50252
 C58 C 0.96050 0.82748 0.50208
 C59 C 0.99332 0.84574 0.50590
 C60 C 1.02623 0.82653 0.51035
 C61 C 0.99291 0.73038 0.50615
 C62 C 0.99656 0.71330 0.53854
 C63 C 0.99926 0.67522 0.53912
 C64 C 0.99658 0.65475 0.50620
 C65 C 0.99183 0.67178 0.47372
 C66 C 0.99039 0.70968 0.47386
 H67 H 1.05026 0.77273 0.51319
 H68 H 0.93513 0.77531 0.50025
 H69 H 0.99635 0.72996 0.56333
 H70 H 0.98750 0.72306 0.44885
 H71 H 0.99316 0.87495 0.50428
 H72 H 0.99921 0.62545 0.50545
 C73 C 0.50628 0.02834 0.21585
 C74 C 0.50135 -0.00478 0.23169
 C75 C 0.49770 -0.03663 0.21001
 C76 C 0.49830 -0.03553 0.17253
 C77 C 0.50285 -0.00220 0.15688
 C78 C 0.50712 0.02981 0.17839
 C79 C 0.49945 -0.00621 0.27094
 C80 C 0.46729 -0.01637 0.28730
 C81 C 0.46536 -0.01853 0.32461
 C82 C 0.49620 -0.01130 0.34535
 C83 C 0.52830 0.00000 0.32944
 C84 C 0.52965 0.00252 0.29204
 H85 H 0.50902 0.05298 0.23265
 H86 H 0.49459 -0.06233 0.22233
 H87 H 0.44363 -0.02204 0.27106
 H88 H 0.55428 0.01082 0.27927
 H89 H 0.50287 -0.00114 0.12792
 H90 H 0.49487 -0.01369 0.37413
 C91 C 0.48898 0.03589 0.79316
 C92 C 0.49209 0.00410 0.77127
 C93 C 0.49232 -0.02976 0.78652
 C94 C 0.48785 -0.03243 0.82386
 C95 C 0.48515 0.00013 0.84546
 C96 C 0.48559 0.03409 0.83032
 C97 C 0.49396 0.00642 0.73220
 C98 C 0.52730 0.01045 0.71503
 C99 C 0.52874 0.01397 0.67784
 C100 C 0.49658 0.01278 0.65793
 C101 C 0.46301 0.00956 0.67508
 C102 C 0.46195 0.00596 0.71224
 H103 H 0.48908 0.06203 0.78125
 H104 H 0.49694 -0.05383 0.76911
 H105 H 0.55197 0.01120 0.73062
 H106 H 0.43620 0.00332 0.72572
 H107 H 0.48183 -0.00059 0.87426
 H108 H 0.49767 0.01462 0.62907
 C109 C 0.30355 0.01231 0.45708
 H110 H 0.30230 0.03488 0.47676
 C111 C 0.33163 0.00965 0.43204
 H112 H 0.35185 0.03047 0.43218
 C113 C 0.28002 -0.04361 0.43445
 H114 H 0.26055 -0.06486 0.43638
 C115 C 0.30772 -0.04729 0.40879
 H116 H 0.30918 -0.07108 0.39055
 N117 N 0.27878 -0.01432 0.45819
 C118 C 0.19162 0.03310 0.52500
 H119 H 0.19205 0.01413 0.54610
 C120 C 0.16388 0.05914 0.52399
 H121 H 0.14308 0.06044 0.54455
 C122 C 0.21679 0.05287 0.47102
 H123 H 0.23672 0.04945 0.44980
 C124 C 0.18951 0.07945 0.46904
 H125 H 0.18881 0.09683 0.44657
 Zn126 Zn 0.24770 -0.01138 0.49849
 N127 N 0.21701 0.03008 0.49850
 C128 C 0.27776 0.01845 0.56356
 N129 N 0.27843 -0.00990 0.53875
 C130 C 0.30490 -0.03599 0.53870
 C131 C 0.33335 -0.03311 0.56303
 C132 C 0.30543 0.02204 0.58881
 C133 C 0.19214 -0.05374 0.47158
 C134 C 0.16295 -0.07686 0.47362
 C135 C 0.18501 -0.09490 0.53105
 C136 C 0.21395 -0.07149 0.52786
 N137 N 0.21645 -0.05098 0.49877
 H138 H 0.25681 0.03919 0.56278
 H139 H 0.30495 -0.05797 0.51836
 H140 H 0.35519 -0.05313 0.56158
 H141 H 0.30527 0.04520 0.60787
 H142 H 0.19433 -0.03637 0.44926
 H143 H 0.14283 -0.07771 0.45260
 H144 H 0.18212 -0.10992 0.55500
 H145 H 0.23306 -0.06807 0.54956
 C146 C 0.16216 0.08195 0.49525
 C147 C 0.33440 -0.02085 0.40820
 C148 C 0.15873 -0.09685 0.50410
 C149 C 0.33442 -0.00313 0.58759
 C150 C 0.71479 0.03963 0.56968
 H151 H 0.73413 0.06114 0.56928
 C152 C 0.68713 0.04135 0.59543
 H153 H 0.68567 0.06386 0.61523
 C154 C 0.69146 -0.01485 0.54336
 H155 H 0.69288 -0.03622 0.52242
 C156 C 0.66323 -0.01393 0.56823
 H157 H 0.64299 -0.03474 0.56648
 N158 N 0.71606 0.01205 0.54399
 C159 C 0.78396 0.07286 0.47839
 H160 H 0.76738 0.06974 0.45475
 C161 C 0.81180 0.09790 0.47918
 H162 H 0.81579 0.11454 0.45652
 C163 C 0.80166 0.05273 0.53508
 H164 H 0.79831 0.03403 0.55613
 C165 C 0.82994 0.07719 0.53684
 H166 H 0.84830 0.07734 0.55938
 Zn167 Zn 0.74697 0.01186 0.50357
 N168 N 0.77933 0.05098 0.50620
 C169 C 0.69822 0.04507 0.45723
 N170 N 0.71569 0.01336 0.46376
 C171 C 0.70565 -0.01854 0.44722
 C172 C 0.67598 -0.01954 0.42418
 C173 C 0.66950 0.04550 0.43312
 C174 C 0.77843 -0.05384 0.52692
 C175 C 0.80493 -0.08141 0.52591
 C176 C 0.82640 -0.06043 0.46954
 C177 C 0.79948 -0.03342 0.47153
 N178 N 0.77656 -0.03032 0.50013
 H179 H 0.70554 0.06986 0.47189
 H180 H 0.71911 -0.04358 0.45377
 H181 H 0.66712 -0.04539 0.41271
 H182 H 0.65599 0.07100 0.42809
 H183 H 0.76054 -0.05024 0.54984
 H184 H 0.80704 -0.09930 0.54790
 H185 H 0.84552 -0.06156 0.44744
 H186 H 0.79781 -0.01380 0.45105
 C187 C 0.83528 0.10006 0.50858
 C188 C 0.66025 0.01501 0.59392
 C189 C 0.82953 -0.08459 0.49713
 C190 C 0.65677 0.01265 0.41784
 C191 C 0.47313 0.19637 1.06014
 H192 H 0.45123 0.19818 1.04115
 C193 C 0.47460 0.16781 1.08308
 H194 H 0.45349 0.14787 1.08207
 C195 C 0.52905 0.21834 1.08232
 H196 H 0.55088 0.23723 1.08076
 C197 C 0.53146 0.19025 1.10594
 H198 H 0.55489 0.18792 1.12304
 N199 N 0.50059 0.22025 1.05946
 C200 C 0.46251 0.30640 0.99325
 H201 H 0.48268 0.30314 0.97220
 C202 C 0.43799 0.33551 0.99359
 H203 H 0.43900 0.35454 0.97252
 C204 C 0.43796 0.28668 1.04755
 H205 H 0.43886 0.26813 1.06898
 C206 C 0.41286 0.31559 1.04894
 H207 H 0.39403 0.31903 1.07122
 Zn208 Zn 0.50148 0.24948 1.01968
 N209 N 0.46230 0.28292 1.02009
 C210 C 0.47228 0.21828 0.95487
 N211 N 0.49971 0.21699 0.97899
 C212 C 0.52462 0.18936 0.97749
 C213 C 0.52194 0.16094 0.95160
 C214 C 0.46876 0.19049 0.92830
 C215 C 0.54411 0.30618 1.04393
 C216 C 0.56873 0.33388 1.04038
 C217 C 0.59334 0.30120 0.98769
 C218 C 0.56779 0.27436 0.99187
 N219 N 0.54327 0.27785 1.01916
 H220 H 0.45230 0.24002 0.95698
 H221 H 0.54575 0.18872 0.99742
 H222 H 0.54127 0.13851 0.95135
 H223 H 0.44648 0.19130 0.90960
 H224 H 0.52392 0.30848 1.06503
 H225 H 0.56772 0.35735 1.05904
 H226 H 0.61190 0.29897 0.96512
 H227 H 0.56627 0.25195 0.97216
 C228 C 0.41338 0.34070 1.02205
 C229 C 0.50469 0.16382 1.10528
 C230 C 0.59266 0.33221 1.01112
 C231 C 0.49321 0.16093 0.92727
 C232 C 0.46759 0.78604 -0.07416
 H233 H 0.44304 0.77254 -0.06728
 C234 C 0.46620 0.81375 -0.09821
 H235 H 0.44043 0.82138 -0.10955
 C236 C 0.52979 0.79624 -0.06365
 H237 H 0.55393 0.79083 -0.04842
 C238 C 0.52993 0.82315 -0.08850
 H239 H 0.55460 0.83761 -0.09295
 N240 N 0.49899 0.77814 -0.05714
 C241 C 0.43470 0.71743 0.01044
 H242 H 0.43858 0.73558 0.03371
 C243 C 0.40891 0.69036 0.01150
 H244 H 0.39265 0.68807 0.03544
 C245 C 0.45327 0.69586 -0.04788
 H246 H 0.47171 0.69738 -0.07029
 C247 C 0.42778 0.66850 -0.04798
 H248 H 0.42651 0.64900 -0.07063
 Zn249 Zn 0.49782 0.74859 -0.01735
 N250 N 0.45661 0.71924 -0.01875
 C251 C 0.46865 0.80542 0.02522
 N252 N 0.49660 0.78090 0.02363
 C253 C 0.52357 0.78226 0.04832
 C254 C 0.52306 0.80939 0.07597
 C255 C 0.46716 0.83295 0.05223
 C256 C 0.56153 0.71072 -0.04444
 C257 C 0.58676 0.68199 -0.04513
 C258 C 0.56248 0.66394 0.01124
 C259 C 0.53805 0.69320 0.01109
 N260 N 0.53765 0.71561 -0.01666
 H261 H 0.44798 0.80411 0.00481
 H262 H 0.54602 0.76308 0.04600
 H263 H 0.54496 0.81075 0.09514
 H264 H 0.44530 0.85293 0.05251
 H265 H 0.55999 0.72785 -0.06694
 H266 H 0.60517 0.67784 -0.06768
 H267 H 0.56167 0.64559 0.03290
 H268 H 0.51824 0.69719 0.03241
 C269 C 0.40571 0.66522 -0.01777
 C270 C 0.49767 0.83277 -0.10565
 C271 C 0.58651 0.65757 -0.01761
 C272 C 0.49458 0.83514 0.07801
 C273 C 1.04129 0.46286 0.19464
 H274 H 1.02235 0.44109 0.19655
 C275 C 1.06646 0.46182 0.16668
 H276 H 1.06714 0.43903 0.14718
 C277 C 1.06168 0.52046 0.21620
 H278 H 1.05872 0.54377 0.23482
 C279 C 1.08709 0.52067 0.18836
 H280 H 1.10408 0.54396 0.18587
 N281 N 1.03918 0.49196 0.21849
 C282 C 0.97026 0.45190 0.30183
 H283 H 0.94813 0.47142 0.30084
 C284 C 0.97046 0.42633 0.32796
 H285 H 0.94823 0.42590 0.34692
 C286 C 1.02765 0.43054 0.28022
 H287 H 1.05044 0.43325 0.26244
 C288 C 1.02915 0.40479 0.30634
 H289 H 1.05288 0.38736 0.30831
 Zn290 Zn 0.99890 0.49397 0.24974
 N291 N 0.99858 0.45361 0.27869
 C292 C 0.93254 0.46929 0.21870
 N293 N 0.95801 0.49541 0.21969
 C294 C 0.95808 0.52163 0.19547
 C295 C 0.93297 0.52121 0.16771
 C296 C 0.90648 0.46826 0.19167
 C297 C 1.02725 0.53570 0.30619
 C298 C 1.02609 0.56037 0.33580
 C299 C 0.96922 0.58412 0.31437
 C300 C 0.97138 0.55886 0.28515
 N301 N 0.99975 0.53485 0.28210
 H302 H 0.93336 0.44827 0.23772
 H303 H 0.97893 0.54178 0.19667
 H304 H 0.93442 0.54122 0.14759
 H305 H 0.88692 0.44680 0.19040
 H306 H 1.04910 0.51582 0.30339
 H307 H 1.04735 0.55978 0.35565
 H308 H 0.94594 0.60229 0.31742
 H309 H 0.94948 0.55715 0.26610
 C310 C 1.00037 0.40280 0.33064
 C311 C 1.08933 0.49119 0.16312
 C312 C 0.99622 0.58404 0.34066
 C313 C 0.90761 0.49356 0.16496
 C314 C -0.04378 0.47520 0.79508
 H315 H -0.03049 0.45111 0.78325
 C316 C -0.06747 0.47212 0.82379
 H317 H -0.07359 0.44547 0.83267
 C318 C -0.04990 0.53926 0.79984
 H319 H -0.04181 0.56539 0.79120
 C320 C -0.07275 0.53744 0.82963
 H321 H -0.08264 0.56223 0.84343
 N322 N -0.03572 0.50836 0.78339
 C323 C 0.03571 0.46702 0.69597
 H324 H 0.05919 0.48312 0.70217
 C325 C 0.03590 0.44338 0.66547
 H326 H 0.05972 0.44106 0.64848
 C327 C -0.02501 0.45264 0.70869
 H328 H -0.04952 0.45797 0.72404
 C329 C -0.02570 0.42816 0.67895
 H330 H -0.05026 0.41371 0.67262
 Zn331 Zn 0.00391 0.51090 0.75144
 N332 N 0.00545 0.47145 0.71674
 C333 C 0.06782 0.48320 0.78422
 N334 N 0.04494 0.51218 0.78128
 C335 C 0.04717 0.54218 0.80382
 C336 C 0.07241 0.54348 0.83144
 C337 C 0.09377 0.48350 0.81141
 C338 C -0.03051 0.56567 0.71309
 C339 C -0.03165 0.59088 0.68648
 C340 C 0.03367 0.58854 0.68401
 C341 C 0.03359 0.56390 0.71104
 N342 N 0.00183 0.55265 0.72463
 H343 H 0.06479 0.45920 0.76672
 H344 H 0.02811 0.56448 0.80133
 H345 H 0.07258 0.56683 0.85025
 H346 H 0.11110 0.45986 0.81435
 H347 H -0.05540 0.55503 0.72311
 H348 H -0.05755 0.60022 0.67668
 H349 H 0.05911 0.59554 0.67198
 H350 H 0.05885 0.55199 0.71963
 C351 C 0.00454 0.42444 0.65619
 C352 C -0.08080 0.50352 0.84254
 C353 C 0.00074 0.60210 0.67118
 C354 C 0.09590 0.51378 0.83568
 C355 C 0.12538 0.13495 0.51809
 C356 C 0.09472 0.15746 0.51779
 C357 C 0.06823 0.15228 0.49140
 C358 C 0.07349 0.12467 0.46390
 C359 C 0.10447 0.10144 0.46445
 C360 C 0.13055 0.10672 0.49190
 C361 C 0.10776 0.07305 0.43787
 N362 N 0.08247 0.06935 0.41181
 N363 N 0.05404 0.09193 0.41061
 C364 C 0.04870 0.11945 0.43568
 H365 H 0.14498 0.13916 0.53933
 H366 H 0.09107 0.17843 0.53900
 H367 H 0.13004 0.05366 0.43755
 H368 H 0.02527 0.13709 0.43315
 C369 C 0.63478 0.61982 0.00840
 C370 C 0.65636 0.58851 0.00914
 C371 C 0.65399 0.56097 -0.01799
 C372 C 0.63020 0.56576 -0.04713
 C373 C 0.60747 0.59715 -0.04740
 C374 C 0.61006 0.62453 -0.01940
 C375 C 0.58224 0.59953 -0.07537
 N376 N 0.58150 0.57327 -0.10214
 N377 N 0.60407 0.54472 -0.10277
 C378 C 0.62842 0.54012 -0.07627
 H379 H 0.63700 0.64038 0.03004
 H380 H 0.67439 0.58531 0.03161
 H381 H 0.56291 0.62177 -0.07621
 H382 H 0.64640 0.51671 -0.07844
 C383 C 0.88471 -0.10638 0.52692
 C384 C 0.91669 -0.12680 0.52763
 C385 C 0.92607 -0.15162 0.49929
 C386 C 0.90238 -0.15612 0.46965
 C387 C 0.86943 -0.13572 0.46923
 C388 C 0.86098 -0.11011 0.49785
 C389 C 0.84588 -0.14187 0.44015
 N390 N 0.85550 -0.16572 0.41274
 N391 N 0.88699 -0.18385 0.41248
 C392 C 0.91079 -0.17979 0.43987
 H393 H 0.87887 -0.08677 0.54891
 H394 H 0.93442 -0.12309 0.55052
 H395 H 0.81983 -0.12818 0.43905
 H396 H 0.93608 -0.19494 0.43792
 C397 C 0.36294 0.37608 0.99729
 C398 C 0.34202 0.40762 0.99520
 C399 C 0.34705 0.43739 1.01941
 C400 C 0.37270 0.43463 1.04730
 C401 C 0.39426 0.40258 1.04925
 C402 C 0.38939 0.37325 1.02377
 C403 C 0.42066 0.40142 1.07622
 N404 N 0.42415 0.42997 1.10025
 N405 N 0.40320 0.45962 1.09903
 C406 C 0.37760 0.46292 1.07345
 H407 H 0.35911 0.35396 0.97751
 H408 H 0.32256 0.40930 0.97370
 H409 H 0.43859 0.37820 1.07847
 H410 H 0.36119 0.48750 1.07396
 C411 C 0.89218 0.11654 0.47930
 C412 C 0.92467 0.13477 0.47837
 C413 C 0.93395 0.15998 0.50599
 C414 C 0.90965 0.16711 0.53514
 C415 C 0.87617 0.14895 0.53576
 C416 C 0.86777 0.12293 0.50786
 C417 C 0.85204 0.15775 0.56426
 N418 N 0.86157 0.18192 0.59099
 N419 N 0.89351 0.19793 0.59111
 C420 C 0.91790 0.19129 0.56422
 H421 H 0.88637 0.09662 0.45785
 H422 H 0.94286 0.12907 0.45585
 H423 H 0.82561 0.14588 0.56544
 H424 H 0.94352 0.20480 0.56602
 C425 C 0.39243 0.60848 0.01094
 C426 C 0.37434 0.57610 0.01342
 C427 C 0.34565 0.56679 -0.00977
 C428 C 0.33644 0.59086 -0.03723
 C429 C 0.35464 0.62430 -0.03914
 C430 C 0.38300 0.63287 -0.01498
 C431 C 0.34403 0.64809 -0.06552
 N432 N 0.31854 0.63806 -0.08984
 N433 N 0.30313 0.60582 -0.08965
 C434 C 0.31147 0.58179 -0.06458
 H435 H 0.41439 0.61442 0.02934
 H436 H 0.38208 0.55888 0.03484
 H437 H 0.35587 0.67449 -0.06713
 H438 H 0.29910 0.55555 -0.06697
 C439 C 0.12120 -0.15030 0.49036
 C440 C 0.08918 -0.16925 0.49247
 C441 C 0.05954 -0.15518 0.51303
 C442 C 0.06405 -0.12220 0.53414
 C443 C 0.09658 -0.10271 0.53138
 C444 C 0.12508 -0.11690 0.50907
 C445 C 0.09963 -0.06948 0.55130
 N446 N 0.07279 -0.05776 0.57412
 N447 N 0.04323 -0.07705 0.57845
 C448 C 0.03812 -0.10893 0.55963
 H449 H 0.14291 -0.16141 0.47327
 H450 H 0.08698 -0.19412 0.47596
 H451 H 0.12323 -0.05288 0.54926
 H452 H 0.01422 -0.12391 0.56549
 C453 C 0.63920 0.37637 1.03035
 C454 C 0.65937 0.40729 1.02590
 C455 C 0.65603 0.42670 0.99480
 C456 C 0.63268 0.41388 0.96709
 C457 C 0.61117 0.38316 0.97212
 C458 C 0.61488 0.36403 1.00396
 C459 C 0.58599 0.37327 0.94530
 N460 N 0.58440 0.39146 0.91473
 N461 N 0.60604 0.41900 0.90921
 C462 C 0.63016 0.43073 0.93425
 H463 H 0.64219 0.36222 1.05489
 H464 H 0.67713 0.41666 1.04731
 H465 H 0.56734 0.35151 0.94830
 H466 H 0.64739 0.45283 0.92807
 C467 C 0.48305 0.12419 1.15188
 C468 C 0.48376 0.09195 1.16962
 C469 C 0.51032 0.06511 1.16158
 C470 C 0.53765 0.07165 1.13610
 C471 C 0.53655 0.10419 1.11751
 C472 C 0.50890 0.13063 1.12558
 C473 C 0.56273 0.10860 1.09068
 N474 N 0.58909 0.08298 1.08438
 N475 N 0.59094 0.05316 1.10286
 C476 C 0.56621 0.04664 1.12850
 H477 H 0.46164 0.14399 1.15815
 H478 H 0.46265 0.08740 1.18898
 H479 H 0.56252 0.13199 1.07451
 H480 H 0.56928 0.02209 1.14283
 C481 C -0.01947 0.61018 0.60912
 C482 C -0.01860 0.62683 0.57662
 C483 C 0.00225 0.65776 0.57203
 C484 C 0.02380 0.67097 0.60147
 C485 C 0.02138 0.65486 0.63517
 C486 C 0.00016 0.62371 0.63869
 C487 C 0.04066 0.67041 0.66433
 N488 N 0.06345 0.69796 0.65929
 N489 N 0.06827 0.71094 0.62709
 C490 C 0.04968 0.69813 0.59803
 H491 H -0.03549 0.58611 0.61104
 H492 H -0.03569 0.61596 0.55532
 H493 H 0.03792 0.66087 0.69107
 H494 H 0.05605 0.70881 0.57243
 C495 C 0.51010 0.89772 -0.11110
 C496 C 0.50690 0.93046 -0.12752
 C497 C 0.48835 0.93339 -0.16016
 C498 C 0.47220 0.90145 -0.17587
 C499 C 0.47774 0.86748 -0.16013
 C500 C 0.49584 0.86589 -0.12680
 C501 C 0.46464 0.83611 -0.17831
 N502 N 0.44402 0.83898 -0.20797
 N503 N 0.43567 0.87106 -0.22064
 C504 C 0.44856 0.90231 -0.20539
 H505 H 0.52374 0.89745 -0.08549
 H506 H 0.52031 0.95347 -0.11472
 H507 H 0.47052 0.80934 -0.16921
 H508 H 0.43938 0.92746 -0.21607
 C509 C 1.02701 0.38872 0.38866
 C510 C 1.02705 0.37106 0.42061
 C511 C 1.00317 0.34271 0.42634
 C512 C 0.97824 0.33254 0.39857
 C513 C 0.97873 0.35048 0.36579
 C514 C 1.00283 0.37915 0.36129
 C515 C 0.95435 0.33972 0.33864
 N516 N 0.92977 0.31399 0.34460
 N517 N 0.92776 0.29859 0.37595
 C518 C 0.95071 0.30724 0.40318
 H519 H 1.04535 0.41090 0.38567
 H520 H 1.04649 0.37940 0.44092
 H521 H 0.95450 0.35166 0.31281
 H522 H 0.94634 0.29487 0.42831
 C523 C 0.52439 0.88951 0.10449
 C524 C 0.52478 0.92114 0.12648
 C525 C 0.49576 0.93059 0.14958
 C526 C 0.46572 0.90734 0.15063
 C527 C 0.46564 0.87473 0.12868
 C528 C 0.49496 0.86622 0.10488
 C529 C 0.43617 0.85154 0.13153
 N530 N 0.40809 0.86124 0.15370
 N531 N 0.40752 0.89247 0.17324
 C532 C 0.43524 0.91588 0.17239
 H533 H 0.54693 0.88359 0.08634
 H534 H 0.54799 0.93851 0.12541
 H535 H 0.43529 0.82570 0.11659
 H536 H 0.43299 0.94099 0.18853
 C537 C 0.02849 0.37366 0.61630
 C538 C 0.02786 0.35122 0.58512
 C539 C 0.00144 0.35604 0.55890
 C540 C -0.02529 0.38390 0.56460
 C541 C -0.02374 0.40772 0.59564
 C542 C 0.00295 0.40192 0.62211
 C543 C -0.04874 0.43701 0.59874
 N544 N -0.07492 0.44047 0.57378
 N545 N -0.07770 0.41683 0.54581
 C546 C -0.05394 0.38863 0.54044
 H547 H 0.04910 0.36890 0.63615
 H548 H 0.04846 0.33008 0.58124
 H549 H -0.04762 0.45742 0.62050
 H550 H -0.05791 0.37010 0.51748
 C551 C 0.51600 0.12110 0.87654
 C552 C 0.51396 0.09077 0.85293
 C553 C 0.48430 0.06780 0.85369
 C554 C 0.45550 0.07634 0.87806
 C555 C 0.45787 0.10686 0.90262
 C556 C 0.48845 0.12942 0.90165
 C557 C 0.42983 0.11316 0.92793
 N558 N 0.40074 0.09137 0.92734
 N559 N 0.39787 0.06360 0.90335
 C560 C 0.42417 0.05538 0.87868
 H561 H 0.53955 0.13800 0.87556
 H562 H 0.53622 0.08461 0.83450
 H563 H 0.43073 0.13500 0.94830
 H564 H 0.42021 0.03269 0.85970
 C565 C 1.01807 0.63378 0.38144
 C566 C 1.01689 0.65498 0.41342
 C567 C 0.99016 0.64993 0.43931
 C568 C 0.96347 0.62347 0.43231
 C569 C 0.96499 0.60147 0.39997
 C570 C 0.99249 0.60694 0.37430
 C571 C 0.93924 0.57415 0.39482
 N572 N 0.91295 0.57038 0.41969
 N573 N 0.91075 0.59191 0.44940
 C574 C 0.93501 0.61834 0.45654
 H575 H 1.03936 0.63808 0.36219
 H576 H 1.03750 0.67506 0.41835
 H577 H 0.93976 0.55563 0.37143
 H578 H 0.93163 0.63516 0.48095
 C579 C 1.10359 0.51719 0.10544
 C580 C 1.12257 0.51775 0.07324
 C581 C 1.15200 0.49380 0.06552
 C582 C 1.16097 0.46741 0.09088
 C583 C 1.14177 0.46736 0.12396
 C584 C 1.11282 0.49238 0.13104
 C585 C 1.15192 0.44184 0.14889
 N586 N 1.17811 0.41664 0.14038
 N587 N 1.19463 0.41515 0.10859
 C588 C 1.18673 0.43927 0.08349
 H589 H 1.08113 0.53614 0.11030
 H590 H 1.11494 0.53830 0.05487
 H591 H 1.13915 0.44156 0.17499
 H592 H 1.20006 0.43551 0.05774
 C593 C 0.62123 -0.01007 0.64019
 C594 C 0.58966 -0.01024 0.66067
 C595 C 0.56389 0.01795 0.65931
 C596 C 0.57097 0.04777 0.63811
 C597 C 0.60257 0.04747 0.61642
 C598 C 0.62795 0.01820 0.61761
 C599 C 0.60705 0.07613 0.59348
 N600 N 0.58262 0.10402 0.59401
 N601 N 0.55392 0.10513 0.61571
 C602 C 0.54732 0.07804 0.63781
 H603 H 0.64023 -0.03270 0.64126
 H604 H 0.58471 -0.03320 0.67677
 H605 H 0.62950 0.07667 0.57496
 H606 H 0.52392 0.08061 0.65521
 C607 C -0.13608 0.51779 0.87883
 C608 C -0.15801 0.51438 0.90884
 C609 C -0.14713 0.49302 0.93726
 C610 C -0.11337 0.47354 0.93373
 C611 C -0.08990 0.47950 0.90452
 C612 C -0.10202 0.50071 0.87616
 C613 C -0.05491 0.46370 0.90466
 N614 N -0.04589 0.43988 0.92967
 N615 N -0.06944 0.43091 0.95454
 C616 C -0.10293 0.44645 0.95707
 H617 H -0.14582 0.53411 0.85746
 H618 H -0.18312 0.52998 0.91019
 H619 H -0.03462 0.46995 0.88515
 H620 H -0.12124 0.43685 0.97680
 C621 C 0.37057 0.00032 0.35799
 C622 C 0.40209 0.00062 0.33752
 C623 C 0.43027 -0.02452 0.34251
 C624 C 0.42558 -0.05187 0.36726
 C625 C 0.39365 -0.05192 0.38849
 C626 C 0.36617 -0.02519 0.38401
 C627 C 0.39094 -0.07813 0.41433
 N628 N 0.41774 -0.10335 0.41745
 N629 N 0.44714 -0.10400 0.39670
 C630 C 0.45197 -0.07918 0.37172
 H631 H 0.34990 0.02100 0.35439
 H632 H 0.40523 0.02181 0.31883
 H633 H 0.36791 -0.07886 0.43214
 H634 H 0.47626 -0.08116 0.35544
 C635 C 0.11425 0.48459 0.89100
 C636 C 0.13210 0.48415 0.92371
 C637 C 0.15537 0.51204 0.93469
 C638 C 0.16099 0.54090 0.91177
 C639 C 0.14348 0.54083 0.87795
 C640 C 0.11921 0.51281 0.86794
 C641 C 0.15114 0.56880 0.85510
 N642 N 0.17339 0.59585 0.86619
 N643 N 0.18853 0.59678 0.89851
 C644 C 0.18299 0.57039 0.92171
 H645 H 0.09564 0.46308 0.88402
 H646 H 0.12768 0.46172 0.94067
 H647 H 0.13991 0.56929 0.82844
 H648 H 0.19563 0.57296 0.94774
 C649 C 0.62432 -0.00737 0.36247
 C650 C 0.59369 -0.00999 0.34101
 C651 C 0.56098 0.00724 0.35173
 C652 C 0.55968 0.02838 0.38465
 C653 C 0.59012 0.02888 0.40774
 C654 C 0.62315 0.01159 0.39601
 C655 C 0.58594 0.04598 0.44219
 N656 N 0.55485 0.06435 0.45122
 N657 N 0.52747 0.06646 0.42836
 C658 C 0.52888 0.04929 0.39538
 H659 H 0.64913 -0.02076 0.35294
 H660 H 0.59543 -0.02633 0.31607
 H661 H 0.60675 0.04466 0.46229
 H662 H 0.50598 0.05237 0.37783
 C663 C 0.86106 0.51934 0.12553
 C664 C 0.84073 0.51894 0.09415
 C665 C 0.84280 0.48919 0.06936
 C666 C 0.86449 0.45858 0.07707
 C667 C 0.88610 0.45938 0.10837
 C668 C 0.88419 0.49012 0.13288
 C669 C 0.90975 0.42970 0.11330
 N670 N 0.90988 0.40055 0.08963
 N671 N 0.88822 0.39912 0.06122
 C672 C 0.86551 0.42708 0.05417
 H673 H 0.85945 0.54308 0.14386
 H674 H 0.82423 0.54253 0.08857
 H675 H 0.92838 0.42935 0.13546
 H676 H 0.84823 0.42432 0.03095
 C677 C 0.37654 -0.02465 0.63369
 C678 C 0.40730 -0.02148 0.65495
 C679 C 0.42908 0.00907 0.65397
 C680 C 0.41891 0.03751 0.63173
 C681 C 0.38832 0.03373 0.60911
 C682 C 0.36668 0.00250 0.61056
 C683 C 0.38099 0.06116 0.58520
 N684 N 0.40149 0.09120 0.58578
 N685 N 0.42892 0.09562 0.60844
 C686 C 0.43824 0.06991 0.63149
 H687 H 0.36044 -0.04874 0.63500
 H688 H 0.41460 -0.04343 0.67182
 H689 H 0.35942 0.05902 0.56584
 H690 H 0.46036 0.07524 0.64964
   
