data_POSCAR
  _audit_creation_date              2014-09-24
  _audit_creation_method            'ToBaCCo'
  _symmetry_space_group_name_H-M    'P1'
  _symmetry_Int_Tables_number       1
  _symmetry_cell_setting            triclinic
  loop_
  _symmetry_equiv_pos_as_xyz
 x,y,z
_cell_length_a 24.2123
_cell_length_b 24.2038
_cell_length_c 60.2161
_cell_angle_alpha 83.209400
_cell_angle_beta 93.789500
_cell_angle_gamma 120.353000
loop_
  _atom_site_label
  _atom_site_type_symbol
  _atom_site_fract_x
  _atom_site_fract_y
  _atom_site_fract_z
C1 C 0.00683 0.13294 0.52636
 H2 H 0.05327 0.13730 0.52512
 C3 C -0.00115 0.17034 0.54028
 H4 H 0.03924 0.20356 0.54983
 C5 C -0.10280 0.08322 0.51573
 H6 H -0.14210 0.04896 0.50616
 C7 C -0.11297 0.11979 0.52962
 H8 H -0.16028 0.11350 0.53085
 N9 N -0.04369 0.08988 0.51468
 C10 C -0.00306 -0.06313 0.50795
 H11 H 0.00010 -0.06091 0.48999
 C12 C -0.00106 -0.11283 0.52176
 H13 H 0.00431 -0.14868 0.51448
 C14 C -0.01746 -0.02136 0.53940
 H15 H -0.02578 0.01304 0.54624
 C16 C -0.01556 -0.07000 0.55375
 H17 H -0.02160 -0.07224 0.57157
 Zn18 Zn -0.02462 0.04117 0.49755
 N19 N -0.01150 -0.01887 0.51693
 C20 C 0.10229 0.09369 0.48098
 N21 N 0.04970 0.10030 0.48100
 C22 C 0.04788 0.15065 0.46899
 C23 C 0.09944 0.19574 0.45566
 C24 C 0.15504 0.13783 0.46778
 C25 C -0.14663 -0.05869 0.48625
 C26 C -0.19156 -0.10267 0.47213
 C27 C -0.12421 -0.03744 0.44064
 C28 C -0.08057 0.00487 0.45531
 N29 N -0.09182 -0.00690 0.47770
 H30 H 0.10307 0.05385 0.49089
 H31 H 0.00565 0.15496 0.46951
 H32 H 0.09692 0.23484 0.44577
 H33 H 0.19625 0.13164 0.46740
 H34 H -0.15370 -0.06775 0.50416
 H35 H -0.23362 -0.14527 0.47923
 H36 H -0.11321 -0.02864 0.42295
 H37 H -0.03623 0.04516 0.44882
 C38 C -0.00803 -0.11654 0.54486
 C39 C -0.06159 0.16339 0.54210
 C40 C -0.17949 -0.09254 0.44913
 C41 C 0.15323 0.18896 0.45488
 C42 C 1.17359 0.07732 0.13720
 H43 H 1.17724 0.12345 0.13806
 C44 C 1.21490 0.07254 0.12354
 H45 H 1.25044 0.11506 0.11378
 C46 C 1.12185 -0.03471 0.14858
 H47 H 1.08536 -0.07622 0.15835
 C48 C 1.16233 -0.04167 0.13500
 H49 H 1.15677 -0.08870 0.13420
 N50 N 1.12763 0.02407 0.14910
 C51 C 0.96880 0.05697 0.15506
 H52 H 0.96591 0.05586 0.17297
 C53 C 0.91993 0.05647 0.14113
 H54 H 0.87964 0.05568 0.14830
 C55 C 1.02188 0.05388 0.12390
 H56 H 1.06009 0.05024 0.11724
 C57 C 0.97439 0.05369 0.10944
 H58 H 0.97686 0.05073 0.09175
 Zn59 Zn 1.07354 0.03817 0.16593
 N60 N 1.01787 0.05452 0.14630
 C61 C 1.11949 0.15963 0.18352
 N62 N 1.12738 0.10811 0.18257
 C63 C 1.17534 0.10331 0.19403
 C64 C 1.21666 0.15046 0.20768
 C65 C 1.15990 0.20805 0.19712
 C66 C 0.97268 -0.08805 0.17728
 C67 C 0.92639 -0.13802 0.19145
 C68 C 0.98149 -0.07788 0.22289
 C69 C 1.02641 -0.02908 0.20819
 N70 N 1.02091 -0.03453 0.18580
 H71 H 1.08130 0.16259 0.17412
 H72 H 1.18054 0.06191 0.19288
 H73 H 1.25377 0.14534 0.21712
 H74 H 1.15265 0.24825 0.19831
 H75 H 0.96852 -0.09054 0.15938
 H76 H 0.88684 -0.17944 0.18450
 H77 H 0.98521 -0.07208 0.24060
 H78 H 1.06389 0.01427 0.21467
 C79 C 0.92230 0.05359 0.11816
 C80 C 1.20890 0.01250 0.12226
 C81 C 0.93040 -0.13225 0.21443
 C82 C 1.20856 0.20295 0.20943
 C83 C 0.03786 0.89990 0.86479
 H84 H -0.00375 0.85251 0.86408
 C85 C 0.09027 0.90782 0.87804
 H86 H 0.08903 0.86647 0.88768
 C87 C 0.08995 1.01185 0.85325
 H88 H 0.08949 1.05206 0.84349
 C89 C 0.14356 1.02193 0.86638
 H90 H 0.18425 1.07007 0.86689
 N91 N 0.03818 0.95159 0.85299
 C92 C -0.16102 0.90372 0.84707
 H93 H -0.16836 0.90530 0.82914
 C94 C -0.20759 0.89865 0.86109
 H95 H -0.25119 0.89561 0.85393
 C96 C -0.09321 0.91087 0.87822
 H97 H -0.04776 0.91817 0.88485
 C98 C -0.13843 0.90560 0.89278
 H99 H -0.12761 0.90803 0.91052
 Zn100 Zn -0.03684 0.93347 0.83618
 N101 N -0.10473 0.91074 0.85579
 C102 C -0.11132 0.81229 0.81733
 N103 N -0.05329 0.86660 0.81880
 C104 C -0.00186 0.87692 0.80732
 C105 C -0.00783 0.83266 0.79319
 C106 C -0.11947 0.76657 0.80321
 C107 C -0.02009 1.05786 0.82596
 C108 C -0.02095 1.10821 0.81217
 C109 C -0.03381 1.05113 0.78015
 C110 C -0.03293 1.00195 0.79447
 N111 N -0.02653 1.00586 0.81695
 H112 H -0.15137 0.80495 0.82675
 H113 H 0.04370 0.92043 0.80889
 H114 H 0.03325 0.84208 0.78382
 H115 H -0.16594 0.72402 0.80167
 H116 H -0.01651 1.05913 0.84392
 H117 H -0.01741 1.14871 0.81946
 H118 H -0.04039 1.04680 0.76233
 H119 H -0.03968 0.95973 0.78761
 C120 C -0.19557 0.90076 0.88414
 C121 C 0.14339 0.96937 0.87898
 C122 C -0.02862 1.10429 0.78906
 C123 C -0.06716 0.77731 0.79093
 C124 C 0.40474 -0.00860 -0.02062
 C125 C 0.38462 0.00049 -0.00083
 C126 C 0.41594 0.00072 0.01954
 C127 C 0.47120 -0.00524 0.02008
 C128 C 0.49198 -0.01508 0.00018
 C129 C 0.45799 -0.01792 -0.02019
 C130 C 0.47863 -0.02920 -0.03956
 C131 C 0.53085 -0.03871 -0.03889
 C132 C 0.56616 -0.03458 -0.01904
 C133 C 0.54696 -0.02195 0.00063
 C134 C 0.50671 -0.00063 0.03990
 C135 C 0.56138 -0.00591 0.04023
 C136 C 0.58261 -0.01617 0.02077
 C137 C 0.63805 -0.02175 0.02098
 C138 C 0.65474 -0.03690 0.00171
 C139 C 0.61975 -0.04346 -0.01821
 H140 H 0.45436 -0.03121 -0.05545
 H141 H 0.54347 -0.04889 -0.05419
 H142 H 0.49304 0.00795 0.05532
 H143 H 0.58641 -0.00265 0.05602
 H144 H 0.34252 0.00557 -0.00118
 H145 H 0.69702 -0.04165 0.00200
 C146 C -0.07005 0.35595 0.64656
 C147 C -0.07242 0.32112 0.66708
 C148 C -0.07158 0.34427 0.68737
 C149 C -0.07065 0.40320 0.68726
 C150 C -0.06711 0.43973 0.66659
 C151 C -0.06600 0.41645 0.64616
 C152 C -0.05884 0.45512 0.62599
 C153 C -0.05315 0.51535 0.62585
 C154 C -0.05562 0.53875 0.64582
 C155 C -0.06322 0.50036 0.66639
 C156 C -0.07328 0.42644 0.70724
 C157 C -0.07073 0.48524 0.70702
 C158 C -0.06544 0.52310 0.68681
 C159 C -0.06057 0.58392 0.68648
 C160 C -0.05148 0.62180 0.66616
 C161 C -0.04882 0.60032 0.64591
 H162 H -0.05625 0.43974 0.61013
 H163 H -0.04635 0.54358 0.60988
 H164 H -0.07756 0.39923 0.72328
 H165 H -0.07192 0.50116 0.72294
 H166 H -0.07343 0.27573 0.66725
 H167 H -0.04692 0.66879 0.66606
 C168 C 0.42000 0.42117 0.31326
 C169 C 0.38724 0.39237 0.33339
 C170 C 0.41056 0.42079 0.35337
 C171 C 0.46820 0.48056 0.35333
 C172 C 0.50307 0.50955 0.33316
 C173 C 0.47934 0.47935 0.31311
 C174 C 0.51652 0.50691 0.29366
 C175 C 0.57570 0.56319 0.29383
 C176 C 0.59935 0.59493 0.31333
 C177 C 0.56247 0.56814 0.33315
 C178 C 0.49283 0.51114 0.37301
 C179 C 0.55000 0.56959 0.37284
 C180 C 0.58549 0.59907 0.35310
 C181 C 0.64447 0.65764 0.35290
 C182 C 0.68112 0.68231 0.33342
 C183 C 0.65974 0.65177 0.31376
 H184 H 0.50093 0.48434 0.27821
 H185 H 0.60286 0.58133 0.27850
 H186 H 0.46831 0.49003 0.38880
 H187 H 0.56689 0.59065 0.38852
 H188 H 0.34223 0.34721 0.33349
 H189 H 0.72680 0.72672 0.33344
 C190 C -0.07118 0.26486 0.58957
 C191 C -0.12200 0.27513 0.59276
 C192 C -0.12097 0.30671 0.61098
 C193 C -0.06998 0.19902 0.55778
 C194 C -0.01800 0.31852 0.62256
 C195 C -0.01900 0.28721 0.60439
 C196 C -0.07263 0.22919 0.57182
 C197 C -0.06908 0.32818 0.62606
 H198 H -0.16275 0.25777 0.58145
 H199 H -0.16111 0.31313 0.61363
 H200 H 0.02213 0.33436 0.63413
 H201 H 0.02045 0.27934 0.60213
 C202 C 0.79079 0.74603 0.25919
 C203 C 0.80566 0.71522 0.27779
 C204 C 0.76195 0.68284 0.29524
 C205 C 0.88010 0.82131 0.22931
 C206 C 0.68758 0.71072 0.27539
 C207 C 0.73140 0.74317 0.25792
 C208 C 0.83874 0.78547 0.24254
 C209 C 0.70284 0.68075 0.29423
 H210 H 0.85172 0.71776 0.27908
 H211 H 0.77466 0.66050 0.30977
 H212 H 0.64256 0.71032 0.27451
 H213 H 0.71973 0.76754 0.24375
 C214 C 0.28492 -0.01309 -0.07672
 C215 C 0.28784 -0.06840 -0.06882
 C216 C 0.32886 -0.06648 -0.05108
 C217 C 0.19586 -0.02197 -0.10630
 C218 C 0.36540 0.04654 -0.04946
 C219 C 0.32437 0.04457 -0.06719
 C220 C 0.23764 -0.01700 -0.09322
 C221 C 0.36751 -0.00909 -0.04117
 H222 H 0.25699 -0.11344 -0.07592
 H223 H 0.32909 -0.11007 -0.04461
 H224 H 0.39430 0.09095 -0.04178
 H225 H 0.32202 0.08744 -0.07301
 C226 C -0.02075 0.73693 0.58945
 C227 C 0.02863 0.74937 0.60507
 C228 C 0.02022 0.70359 0.62299
 C229 C -0.01089 0.83066 0.55955
 C230 C -0.08647 0.63178 0.60943
 C231 C -0.07802 0.67770 0.59149
 C232 C -0.01484 0.78724 0.57272
 C233 C -0.03760 0.64480 0.62541
 H234 H 0.07283 0.79526 0.60380
 H235 H 0.05809 0.71462 0.63532
 H236 H -0.13170 0.58705 0.61126
 H237 H -0.11683 0.66787 0.57965
 C238 C 0.32051 0.32059 0.25654
 C239 C 0.34261 0.29185 0.27361
 C240 C 0.37695 0.32554 0.29170
 C241 C 0.24813 0.24858 0.22496
 C242 C 0.36873 0.41776 0.27550
 C243 C 0.33417 0.38387 0.25738
 C244 C 0.28141 0.28330 0.23890
 C245 C 0.38991 0.38856 0.29286
 H246 H 0.33210 0.24284 0.27316
 H247 H 0.39242 0.30211 0.30503
 H248 H 0.37750 0.46601 0.27633
 H249 H 0.31700 0.40643 0.24433
 C250 C 0.69674 -0.08206 -0.07258
 C251 C 0.66822 -0.12885 -0.05452
 C252 C 0.64111 -0.11703 -0.03717
 C253 C 0.76407 -0.09617 -0.10197
 C254 C 0.66963 -0.01207 -0.05612
 C255 C 0.69674 -0.02394 -0.07347
 C256 C 0.73159 -0.09090 -0.08896
 C257 C 0.64206 -0.05839 -0.03778
 H258 H 0.66868 -0.17361 -0.05350
 H259 H 0.62071 -0.15293 -0.02301
 H260 H 0.67173 0.03385 -0.05665
 H261 H 0.71946 0.01297 -0.08721
 C262 C 0.32016 0.00610 0.07584
 C263 C 0.32849 -0.04661 0.07451
 C264 C 0.36193 -0.04735 0.05657
 C265 C 0.24854 0.00709 0.10688
 C266 C 0.37985 0.05785 0.04154
 C267 C 0.34656 0.05859 0.05947
 C268 C 0.28158 0.00544 0.09316
 C269 C 0.38741 0.00471 0.03988
 H270 H 0.30786 -0.08765 0.08700
 H271 H 0.36638 -0.08922 0.05532
 H272 H 0.39857 0.09806 0.02870
 H273 H 0.34007 0.09945 0.06028
 C274 C 0.72354 0.77719 0.40682
 C275 C 0.66353 0.76333 0.39785
 C276 C 0.63661 0.72257 0.38075
 C277 C 0.78440 0.86338 0.43583
 C278 C 0.72916 0.70862 0.38184
 C279 C 0.75590 0.74919 0.39893
 C280 C 0.75459 0.82343 0.42296
 C281 C 0.66953 0.69533 0.37252
 H282 H 0.63834 0.78520 0.40369
 H283 H 0.59099 0.71358 0.37352
 H284 H 0.75544 0.68849 0.37556
 H285 H 0.80258 0.75996 0.40562
 C286 C -0.05264 0.23079 0.74429
 C287 C -0.00523 0.29535 0.73981
 C288 C -0.01267 0.33330 0.72181
 C289 C -0.03517 0.15210 0.77438
 C290 C -0.11566 0.24265 0.71307
 C291 C -0.10823 0.20483 0.73107
 C292 C -0.04248 0.18938 0.76114
 C293 C -0.06767 0.30698 0.70817
 H294 H 0.03825 0.31574 0.74978
 H295 H 0.02536 0.38250 0.71801
 H296 H -0.15801 0.22137 0.70258
 H297 H -0.14496 0.15478 0.73427
 C298 C 0.77413 0.01847 0.07476
 C299 C 0.74073 -0.04315 0.06744
 C300 C 0.69490 -0.05689 0.05039
 C301 C 0.86915 0.04417 0.10367
 C302 C 0.71464 0.05230 0.04821
 C303 C 0.76058 0.06602 0.06526
 C304 C 0.82528 0.03355 0.09084
 C305 C 0.68175 -0.00918 0.04057
 H306 H 0.75123 -0.08015 0.07453
 H307 H 0.67049 -0.10432 0.04455
 H308 H 0.70589 0.09000 0.04056
 H309 H 0.78657 0.11402 0.07064
 C310 C 0.29198 0.31001 0.40975
 C311 C 0.29863 0.37007 0.40215
 C312 C 0.33912 0.40756 0.38424
 C313 C 0.20448 0.23252 0.43988
 C314 C 0.36743 0.32560 0.38182
 C315 C 0.32703 0.28823 0.39972
 C316 C 0.24543 0.26845 0.42654
 C317 C 0.37333 0.38523 0.37386
 H318 H 0.27120 0.38706 0.40965
 H319 H 0.34247 0.45303 0.37805
 H320 H 0.39300 0.30745 0.37382
 H321 H 0.32178 0.24161 0.40532
 C322 C -0.07063 0.66900 0.74344
 C323 C -0.01337 0.69594 0.73162
 C324 C -0.00977 0.66710 0.71345
 C325 C -0.07347 0.73427 0.77512
 C326 C -0.12051 0.58319 0.71904
 C327 C -0.12412 0.61225 0.73725
 C328 C -0.07430 0.70231 0.76106
 C329 C -0.06334 0.61074 0.70696
 H330 H 0.02818 0.74002 0.73619
 H331 H 0.03447 0.68922 0.70419
 H332 H -0.16251 0.54015 0.71404
 H333 H -0.16878 0.59127 0.74618
   
