data_POSCAR
  _audit_creation_date              2014-09-24
  _audit_creation_method            'ToBaCCo'
  _symmetry_space_group_name_H-M    'P1'
  _symmetry_Int_Tables_number       1
  _symmetry_cell_setting            triclinic
  loop_
  _symmetry_equiv_pos_as_xyz
 x,y,z
_cell_length_a 33.9953
_cell_length_b 37.2132
_cell_length_c 18.4791
_cell_angle_alpha 89.870300
_cell_angle_beta 90.000100
_cell_angle_gamma 90.025700
loop_
  _atom_site_label
  _atom_site_type_symbol
  _atom_site_fract_x
  _atom_site_fract_y
  _atom_site_fract_z
C1 C 1.28641 0.21417 0.25772
 C2 C 1.25221 0.23113 0.23229
 C3 C 1.22070 0.21019 0.20770
 C4 C 1.22219 0.17285 0.21095
 C5 C 1.25622 0.15576 0.23722
 C6 C 1.28857 0.17653 0.26036
 C7 C 1.24765 0.27055 0.23525
 C8 C 1.27786 0.29381 0.21254
 C9 C 1.27177 0.33111 0.21316
 C10 C 1.23581 0.34511 0.23641
 C11 C 1.20598 0.32203 0.25944
 C12 C 1.21189 0.28505 0.25961
 H13 H 1.31073 0.23023 0.27764
 H14 H 1.19438 0.22308 0.18698
 H15 H 1.30550 0.28294 0.19317
 H16 H 1.18860 0.26757 0.27895
 H17 H 1.25730 0.12667 0.24033
 H18 H 1.23099 0.37396 0.23675
 C19 C 0.78592 -0.28569 0.27612
 C20 C 0.75040 -0.27184 0.24898
 C21 C 0.72012 -0.29567 0.22934
 C22 C 0.72591 -0.33284 0.23569
 C23 C 0.76159 -0.34625 0.26136
 C24 C 0.79157 -0.32264 0.28121
 C25 C 0.74626 -0.23262 0.23925
 C26 C 0.77835 -0.21278 0.21327
 C27 C 0.77712 -0.17541 0.21060
 C28 C 0.74271 -0.15728 0.23183
 C29 C 0.70979 -0.17704 0.25591
 C30 C 0.71175 -0.21462 0.25956
 H31 H 0.80934 -0.26770 0.29278
 H32 H 0.69273 -0.28546 0.20742
 H33 H 0.80494 -0.22648 0.19625
 H34 H 0.68695 -0.22969 0.28063
 H35 H 0.76614 -0.37508 0.26501
 H36 H 0.74174 -0.12817 0.23061
 C37 C 0.77936 0.21348 -0.20494
 C38 C 0.74822 0.23411 -0.23235
 C39 C 0.71396 0.21683 -0.25662
 C40 C 0.71145 0.17921 -0.25547
 C41 C 0.74345 0.15875 -0.22985
 C42 C 0.77751 0.17611 -0.20467
 C43 C 0.75339 0.27336 -0.24000
 C44 C 0.78962 0.28675 -0.26484
 C45 C 0.79620 0.32362 -0.26869
 C46 C 0.76647 0.34765 -0.24950
 C47 C 0.73007 0.33473 -0.22604
 C48 C 0.72335 0.29760 -0.22119
 H49 H 0.80574 0.22660 -0.18516
 H50 H 0.68993 0.23249 -0.27884
 H51 H 0.81279 0.26843 -0.28118
 H52 H 0.69536 0.28770 -0.20134
 H53 H 0.74207 0.12965 -0.23051
 H54 H 0.77163 0.37641 -0.25253
 C55 C 1.27856 -0.29357 -0.21771
 C56 C 1.24843 -0.27009 -0.23967
 C57 C 1.21312 -0.28432 -0.26669
 C58 C 1.20753 -0.32128 -0.26960
 C59 C 1.23726 -0.34461 -0.24745
 C60 C 1.27280 -0.33082 -0.22178
 C61 C 1.25267 -0.23079 -0.23332
 C62 C 1.28728 -0.21328 -0.25487
 C63 C 1.28927 -0.17568 -0.25482
 C64 C 1.25630 -0.15540 -0.23317
 C65 C 1.22179 -0.17307 -0.21071
 C66 C 1.22052 -0.21043 -0.20972
 H67 H 1.30586 -0.28293 -0.19622
 H68 H 1.18986 -0.26668 -0.28544
 H69 H 1.31213 -0.22880 -0.27417
 H70 H 1.19385 -0.22378 -0.19179
 H71 H 1.23263 -0.37345 -0.25003
 H72 H 1.25732 -0.12629 -0.23468
 C73 C 0.20652 0.27902 0.72620
 C74 C 0.22897 0.24958 0.75057
 C75 C 0.20944 0.21828 0.77410
 C76 C 0.16817 0.21691 0.77406
 C77 C 0.14634 0.24650 0.75047
 C78 C 0.16544 0.27751 0.72681
 C79 C 0.27249 0.25254 0.75445
 C80 C 0.28959 0.28465 0.77870
 C81 C 0.33040 0.28887 0.78099
 C82 C 0.35492 0.26018 0.75943
 C83 C 0.33816 0.22750 0.73576
 C84 C 0.29702 0.22396 0.73356
 H85 H 0.22093 0.30323 0.70705
 H86 H 0.22619 0.19558 0.79424
 H87 H 0.27090 0.30658 0.79639
 H88 H 0.28411 0.19914 0.71418
 H89 H 0.11442 0.24560 0.75119
 H90 H 0.38662 0.26322 0.76083
 C91 C 0.69979 0.77789 0.72820
 C92 C 0.72489 0.74918 0.74618
 C93 C 0.70852 0.71704 0.77223
 C94 C 0.66787 0.71274 0.77857
 C95 C 0.64270 0.74152 0.75979
 C96 C 0.65871 0.77438 0.73474
 C97 C 0.76826 0.75184 0.73704
 C98 C 0.78902 0.78289 0.75804
 C99 C 0.83027 0.78360 0.75403
 C100 C 0.85083 0.75363 0.72909
 C101 C 0.83054 0.72285 0.70797
 C102 C 0.78950 0.72204 0.71096
 H103 H 0.71222 0.80272 0.70755
 H104 H 0.72769 0.69504 0.78786
 H105 H 0.77339 0.80584 0.77975
 H106 H 0.77419 0.69794 0.69389
 H107 H 0.61109 0.73833 0.76429
 H108 H 0.88274 0.75399 0.72751
 C109 C 0.71088 0.28626 0.22816
 C110 C 0.72755 0.25396 0.25253
 C111 C 0.70261 0.22552 0.27295
 C112 C 0.66154 0.22938 0.26996
 C113 C 0.64524 0.26230 0.24634
 C114 C 0.67019 0.29083 0.22545
 C115 C 0.77102 0.25055 0.25647
 C116 C 0.79397 0.28003 0.27893
 C117 C 0.83501 0.27810 0.27759
 C118 C 0.85358 0.24662 0.25565
 C119 C 0.83126 0.21702 0.23428
 C120 C 0.79006 0.21880 0.23452
 H121 H 0.72973 0.30811 0.21053
 H122 H 0.71514 0.20051 0.29239
 H123 H 0.78002 0.30461 0.29695
 H124 H 0.77309 0.19603 0.21562
 H125 H 0.61360 0.26567 0.24432
 H126 H 0.88546 0.24531 0.25427
 C127 C 0.20873 0.78296 0.23621
 C128 C 0.22985 0.75227 0.25827
 C129 C 0.20907 0.72248 0.28583
 C130 C 0.16801 0.72294 0.28949
 C131 C 0.14730 0.75334 0.26720
 C132 C 0.16746 0.78330 0.24053
 C133 C 0.27314 0.74987 0.24843
 C134 C 0.29826 0.77845 0.26704
 C135 C 0.33930 0.77499 0.26019
 C136 C 0.35523 0.74246 0.23391
 C137 C 0.33006 0.71389 0.21439
 C138 C 0.28945 0.71800 0.22134
 H139 H 0.22419 0.80583 0.21344
 H140 H 0.22485 0.69869 0.30345
 H141 H 0.28595 0.80308 0.28852
 H142 H 0.27034 0.69605 0.20548
 H143 H 0.11535 0.75343 0.26924
 H144 H 0.38682 0.73934 0.22914
 O145 O 0.93083 -0.05078 -0.13328
 O146 O 0.96636 -0.09142 -0.06590
 C147 C 0.94029 -0.08320 -0.11443
 O148 O 1.07291 0.04933 -0.12037
 O149 O 1.03435 0.08909 -0.05708
 C150 C 1.06286 0.08147 -0.10104
 O151 O 1.07023 -0.04949 -0.12993
 O152 O 1.03600 -0.09088 -0.06186
 C153 C 1.06283 -0.08193 -0.10905
 O154 O 0.92528 0.04826 -0.12149
 O155 O 0.96154 0.08862 -0.05501
 C156 C 0.93309 0.08035 -0.09928
 Zr157 Zr 0.95033 -0.00100 -0.09139
 O158 O 0.95136 0.00354 -0.20560
 O159 O 0.88817 -0.00297 -0.08664
 Zr160 Zr 1.04827 -0.00067 -0.09072
 O161 O 1.04206 0.00158 -0.20438
 O162 O 1.11034 -0.00216 -0.09706
 O163 O 0.99952 -0.03349 -0.10594
 O164 O 0.99928 0.03139 -0.10326
 O165 O 0.92643 0.04774 0.12560
 O166 O 0.96478 0.08825 0.06336
 C167 C 0.93653 0.08009 0.10753
 O168 O 1.06762 -0.05314 0.13080
 O169 O 1.03185 -0.09261 0.06157
 C170 C 1.05804 -0.08521 0.11030
 O171 O 1.07358 0.04602 0.12455
 O172 O 1.03733 0.08759 0.06096
 C173 C 1.06585 0.07849 0.10445
 O174 O 0.92827 -0.05151 0.12873
 O175 O 0.96228 -0.09185 0.05828
 C176 C 0.93557 -0.08364 0.10612
 Zr177 Zr 0.94975 -0.00194 0.09129
 O178 O 0.94962 0.00054 0.20576
 O179 O 0.88766 -0.00259 0.08361
 Zr180 Zr 1.04795 -0.00264 0.09258
 O181 O 1.04564 0.00076 0.20692
 O182 O 1.11016 -0.00504 0.09133
 Zr183 Zr 0.99911 -0.05579 -0.00092
 Zr184 Zr 0.99937 0.05262 0.00201
 O185 O 0.99914 0.02955 0.10592
 O186 O 0.99857 -0.03508 0.10526
 O187 O 0.94250 0.03035 0.00078
 O188 O 1.05552 -0.03260 0.00029
 O189 O 0.94272 -0.03265 -0.00108
 O190 O 1.05602 0.02995 0.00192
 H191 H 0.99904 0.04844 -0.14455
 H192 H 1.07944 -0.04778 0.00114
 H193 H 0.99950 0.04582 0.14829
 H194 H 0.91893 -0.04801 -0.00284
 H195 H 1.12025 0.00447 -0.04854
 H196 H 1.11885 -0.00583 0.14255
 H197 H 1.03256 -0.02125 0.22502
 H198 H 0.96470 -0.02036 0.22382
 H199 H 0.87751 -0.00275 0.13391
 H200 H 0.87871 -0.00342 -0.13739
 H201 H 0.96895 -0.01555 -0.22402
 H202 H 1.06912 0.00266 -0.22413
 O203 O 0.93290 0.44972 0.36550
 O204 O 0.96824 0.41003 0.43537
 C205 C 0.94253 0.41754 0.38594
 O206 O 1.07528 0.55060 0.37866
 O207 O 1.03604 0.58996 0.44123
 C208 C 1.06484 0.58266 0.39794
 O209 O 1.07052 0.45088 0.36855
 O210 O 1.03530 0.41037 0.43675
 C211 C 1.06126 0.41857 0.38814
 O212 O 0.92892 0.54978 0.37358
 O213 O 0.96587 0.58983 0.43938
 C214 C 0.93822 0.58192 0.39398
 Zr215 Zr 0.95192 0.49990 0.40664
 O216 O 0.95195 0.50319 0.29229
 O217 O 0.88983 0.49827 0.41262
 Zr218 Zr 1.05058 0.50053 0.40853
 O219 O 1.04598 0.50303 0.29460
 O220 O 1.11268 0.49807 0.40434
 O221 O 1.00158 0.46793 0.39315
 O222 O 1.00124 0.53200 0.39470
 O223 O 0.92649 0.54931 0.62165
 O224 O 0.96506 0.58931 0.55885
 C225 C 0.93655 0.58156 0.60254
 O226 O 1.06943 0.44910 0.63065
 O227 O 1.03399 0.40973 0.56076
 C228 C 1.05982 0.41702 0.61000
 O229 O 1.07226 0.54934 0.62522
 O230 O 1.03482 0.58965 0.56082
 C231 C 1.06249 0.58157 0.60603
 O232 O 0.93204 0.44928 0.62904
 O233 O 0.96762 0.40952 0.56010
 C234 C 0.94160 0.41717 0.60886
 Zr235 Zr 0.95066 0.49954 0.58900
 O236 O 0.94838 0.50303 0.70323
 O237 O 0.88871 0.49749 0.57950
 Zr238 Zr 1.04955 0.49953 0.59157
 O239 O 1.04823 0.50267 0.70597
 O240 O 1.11171 0.49818 0.58907
 Zr241 Zr 1.00101 0.44617 0.49846
 Zr242 Zr 1.00062 0.55373 0.49960
 O243 O 0.99995 0.53103 0.60390
 O244 O 1.00009 0.46725 0.60425
 O245 O 0.94361 0.53166 0.49786
 O246 O 1.05757 0.46897 0.49977
 O247 O 0.94420 0.46835 0.49750
 O248 O 1.05771 0.53186 0.50078
 H249 H 1.00157 0.54867 0.35280
 H250 H 1.08115 0.45334 0.49998
 H251 H 0.99945 0.54721 0.64640
 H252 H 0.92097 0.45226 0.49697
 H253 H 1.12237 0.50765 0.45096
 H254 H 1.12056 0.49818 0.64019
 H255 H 1.03382 0.48136 0.72404
 H256 H 0.96658 0.48467 0.72266
 H257 H 0.87829 0.49676 0.62958
 H258 H 0.88022 0.49810 0.36198
 H259 H 0.97227 0.48629 0.27471
 H260 H 1.07333 0.50343 0.27607
 O261 O 0.56840 -0.05109 0.63289
 O262 O 0.53272 -0.09031 0.56301
 C263 C 0.55843 -0.08340 0.61285
 O264 O 0.42735 0.05168 0.62546
 O265 O 0.46635 0.09130 0.56281
 C266 C 0.43820 0.08407 0.60778
 O267 O 0.42955 -0.04815 0.63088
 O268 O 0.46478 -0.08893 0.56345
 C269 C 0.43814 -0.08053 0.61129
 O270 O 0.57358 0.04929 0.62599
 O271 O 0.53746 0.09036 0.56050
 C272 C 0.56522 0.08176 0.60603
 Zr273 Zr 0.54944 0.00003 0.59236
 O274 O 0.54937 0.00272 0.70676
 O275 O 0.61152 -0.00186 0.58604
 Zr276 Zr 0.45078 0.00117 0.59173
 O277 O 0.45610 0.00217 0.70563
 O278 O 0.38863 -0.00045 0.59578
 O279 O 0.49974 -0.03194 0.60579
 O280 O 0.50033 0.03238 0.60536
 O281 O 0.57205 0.05292 0.37583
 O282 O 0.53331 0.09211 0.43996
 C283 C 0.56119 0.08520 0.39431
 O284 O 0.43162 -0.05046 0.36857
 O285 O 0.46769 -0.09001 0.43705
 C286 C 0.44173 -0.08284 0.38780
 O287 O 0.42646 0.04976 0.37681
 O288 O 0.46270 0.09063 0.44215
 C289 C 0.43477 0.08214 0.39696
 O290 O 0.57056 -0.04734 0.36907
 O291 O 0.53542 -0.08851 0.43613
 C292 C 0.56197 -0.07985 0.38821
 Zr293 Zr 0.55002 0.00183 0.41030
 O294 O 0.55233 0.00536 0.29607
 O295 O 0.61193 0.00133 0.42100
 Zr296 Zr 0.45108 0.00045 0.40883
 O297 O 0.45236 0.00457 0.29452
 O298 O 0.38893 -0.00189 0.41186
 Zr299 Zr 0.50019 -0.05338 0.50025
 Zr300 Zr 0.50014 0.05505 0.50100
 O301 O 0.50019 0.03277 0.39649
 O302 O 0.50087 -0.03121 0.39504
 O303 O 0.55723 0.03308 0.50184
 O304 O 0.44364 -0.03044 0.50021
 O305 O 0.55681 -0.03060 0.50087
 O306 O 0.44322 0.03275 0.50012
 H307 H 0.50062 0.04870 0.64765
 H308 H 0.42008 -0.04610 0.49935
 H309 H 0.49983 0.04921 0.35424
 H310 H 0.58017 -0.04650 0.50156
 H311 H 0.37907 0.01015 0.54989
 H312 H 0.37993 -0.00229 0.36082
 H313 H 0.46620 -0.01686 0.27581
 H314 H 0.53340 -0.01240 0.27684
 H315 H 0.62263 0.00204 0.37113
 H316 H 0.62120 -0.00305 0.63659
 H317 H 0.52981 -0.01499 0.72423
 H318 H 0.42889 0.00310 0.72477
 O319 O 0.55411 0.56262 0.13240
 O320 O 0.59874 0.53108 0.06392
 C321 C 0.58959 0.55449 0.11293
 O322 O 0.44466 0.43305 0.11684
 O323 O 0.40045 0.46897 0.05611
 C324 C 0.40927 0.44236 0.09857
 O325 O 0.55275 0.43550 0.12743
 O326 O 0.59814 0.46674 0.05936
 C327 C 0.58825 0.44204 0.10655
 O328 O 0.44632 0.56770 0.12224
 O329 O 0.40169 0.53590 0.05414
 C330 C 0.41119 0.56156 0.09923
 Zr331 Zr 0.49963 0.54485 0.09063
 O332 O 0.49508 0.54292 0.20486
 O333 O 0.50144 0.60169 0.08719
 Zr334 Zr 0.49955 0.45570 0.08818
 O335 O 0.49722 0.46063 0.20196
 O336 O 0.50142 0.39896 0.09352
 O337 O 0.53553 0.50015 0.10397
 O338 O 0.46424 0.50009 0.10187
 O339 O 0.44503 0.56763 -0.12519
 O340 O 0.40106 0.53183 -0.06387
 C341 C 0.40975 0.55812 -0.10709
 O342 O 0.55687 0.43961 -0.13342
 O343 O 0.60013 0.47218 -0.06407
 C344 C 0.59198 0.44830 -0.11273
 O345 O 0.44881 0.43297 -0.12736
 O346 O 0.40285 0.46449 -0.06193
 C347 C 0.41327 0.43882 -0.10619
 O348 O 0.55307 0.56707 -0.13023
 O349 O 0.59822 0.53677 -0.06015
 C350 C 0.58841 0.56132 -0.10772
 Zr351 Zr 0.49966 0.54655 -0.09198
 O352 O 0.49637 0.54729 -0.20639
 O353 O 0.49981 0.60322 -0.08281
 Zr354 Zr 0.50146 0.45708 -0.09510
 O355 O 0.49737 0.46032 -0.20933
 O356 O 0.50467 0.40026 -0.09558
 Zr357 Zr 0.55969 0.50140 -0.00116
 Zr358 Zr 0.44061 0.50036 -0.00320
 O359 O 0.46552 0.50132 -0.10726
 O360 O 0.53656 0.50244 -0.10713
 O361 O 0.46480 0.55236 -0.00104
 O362 O 0.53444 0.44981 -0.00307
 O363 O 0.53373 0.55265 0.00017
 O364 O 0.46601 0.44887 -0.00438
 H365 H 0.44571 0.50010 0.14329
 H366 H 0.55106 0.42797 -0.00437
 H367 H 0.44750 0.50101 -0.14941
 H368 H 0.55021 0.57458 0.00239
 H369 H 0.49440 0.39015 0.04471
 H370 H 0.50583 0.39273 -0.14699
 H371 H 0.52191 0.47145 -0.22742
 H372 H 0.51903 0.53344 -0.22499
 H373 H 0.49941 0.61291 -0.13283
 H374 H 0.50263 0.61003 0.13808
 H375 H 0.51642 0.52714 0.22277
 H376 H 0.49549 0.43579 0.22113
 C377 C 1.18749 0.15328 0.18925
 C378 C 1.15732 0.13892 0.17048
 C379 C 1.12222 0.12185 0.14785
 C380 C 1.09419 0.10455 0.12805
 C381 C 1.17126 0.66435 0.70472
 C382 C 1.14197 0.65015 0.68305
 C383 C 1.11023 0.63012 0.65712
 C384 C 1.08622 0.60961 0.63415
 C385 C 0.67683 0.16183 0.71559
 C386 C 0.64830 0.14704 0.69034
 C387 C 0.61615 0.12800 0.66016
 C388 C 0.59090 0.10896 0.63471
 C389 C 0.69634 0.64223 0.21276
 C390 C 0.67254 0.62056 0.19273
 C391 C 0.64487 0.59549 0.16762
 C392 C 0.62039 0.57541 0.14401
 C393 C 0.81252 -0.15685 0.18884
 C394 C 0.84329 -0.14330 0.17068
 C395 C 0.87902 -0.12694 0.14898
 C396 C 0.90740 -0.10990 0.12974
 C397 C 0.83136 0.33642 0.70852
 C398 C 0.86144 0.34971 0.68772
 C399 C 0.89400 0.36887 0.66198
 C400 C 0.91834 0.38901 0.63841
 C401 C 0.32458 -0.15845 0.71891
 C402 C 0.35393 -0.14430 0.69537
 C403 C 0.38702 -0.12619 0.66639
 C404 C 0.41277 -0.10768 0.64103
 C405 C 0.30024 0.35407 0.19033
 C406 C 0.32469 0.37518 0.17019
 C407 C 0.35312 0.39995 0.14631
 C408 C 0.37809 0.42026 0.12512
 C409 C 0.81205 0.15666 -0.18167
 C410 C 0.84209 0.14213 -0.16262
 C411 C 0.87703 0.12464 -0.14038
 C412 C 0.90492 0.10691 -0.12142
 C413 C 0.82645 0.66400 0.30389
 C414 C 0.85638 0.65012 0.32357
 C415 C 0.88896 0.63034 0.34688
 C416 C 0.91372 0.60995 0.36775
 C417 C 0.32147 0.16050 0.28822
 C418 C 0.35033 0.14626 0.31363
 C419 C 0.38300 0.12789 0.34375
 C420 C 0.40870 0.10924 0.36894
 C421 C 0.30106 0.64600 -0.19944
 C422 C 0.32534 0.62474 -0.17966
 C423 C 0.35360 0.59993 -0.15591
 C424 C 0.37854 0.57975 -0.13445
 C425 C 1.18634 -0.15420 -0.19100
 C426 C 1.15545 -0.14065 -0.17393
 C427 C 1.11957 -0.12454 -0.15284
 C428 C 1.09109 -0.10779 -0.13350
 C429 C 1.16955 0.33662 0.28431
 C430 C 1.14020 0.35075 0.30614
 C431 C 1.10843 0.37049 0.33318
 C432 C 1.08451 0.39070 0.35772
 C433 C 0.67465 -0.15916 0.28118
 C434 C 0.64553 -0.14441 0.30411
 C435 C 0.61272 -0.12572 0.33265
 C436 C 0.58720 -0.10695 0.35795
 C437 C 0.70046 0.36006 -0.20484
 C438 C 0.67647 0.38195 -0.18644
 C439 C 0.64840 0.40721 -0.16339
 C440 C 0.62347 0.42738 -0.14164
 C441 C 1.14860 0.18762 -0.20073
 C442 C 1.12953 0.16274 -0.17837
 C443 C 1.10601 0.13449 -0.15203
 C444 C 1.08585 0.11048 -0.12910
 C445 C 1.14786 0.69332 0.31151
 C446 C 1.12925 0.66740 0.33006
 C447 C 1.10685 0.63748 0.35176
 C448 C 1.08755 0.61224 0.37158
 C449 C 0.63706 0.19930 0.29272
 C450 C 0.61862 0.17319 0.31320
 C451 C 0.59836 0.14208 0.33902
 C452 C 0.58153 0.11577 0.36286
 C453 C 0.65408 0.68003 -0.19789
 C454 C 0.64396 0.65048 -0.17704
 C455 C 0.63108 0.61613 -0.15244
 C456 C 0.61562 0.58865 -0.13150
 C457 C 0.85249 -0.18618 -0.22039
 C458 C 0.87294 -0.16219 -0.19829
 C459 C 0.89764 -0.13500 -0.17119
 C460 C 0.91812 -0.11170 -0.14641
 C461 C 0.85837 0.30866 0.29712
 C462 C 0.87840 0.33396 0.31365
 C463 C 0.90176 0.36327 0.33476
 C464 C 0.92108 0.38818 0.35585
 C465 C 0.36429 -0.19519 0.28266
 C466 C 0.38341 -0.16953 0.30333
 C467 C 0.40447 -0.13900 0.32983
 C468 C 0.42169 -0.11313 0.35463
 C469 C 0.34504 0.32127 -0.19602
 C470 C 0.35610 0.35047 -0.17521
 C471 C 0.37003 0.38434 -0.15047
 C472 C 0.38606 0.41149 -0.12955
 C473 C 1.14612 -0.18846 0.21523
 C474 C 1.12555 -0.16466 0.19251
 C475 C 1.10072 -0.13757 0.16523
 C476 C 1.08018 -0.11416 0.14088
 C477 C 1.14260 0.30800 0.70450
 C478 C 1.12302 0.33327 0.68575
 C479 C 1.10013 0.36258 0.66252
 C480 C 1.08112 0.38752 0.64034
 C481 C 0.63514 -0.19715 0.71461
 C482 C 0.61613 -0.17116 0.69504
 C483 C 0.59531 -0.14018 0.66969
 C484 C 0.57832 -0.11396 0.64563
 C485 C 0.65548 0.32534 0.20096
 C486 C 0.64516 0.35471 0.17977
 C487 C 0.63182 0.38863 0.15418
 C488 C 0.61587 0.41557 0.13202
 C489 C 0.85149 0.18575 0.20883
 C490 C 0.87042 0.16079 0.18699
 C491 C 0.89380 0.13260 0.16065
 C492 C 0.91382 0.10875 0.13710
 C493 C 0.85227 0.69160 0.68647
 C494 C 0.87127 0.66575 0.66926
 C495 C 0.89405 0.63594 0.64865
 C496 C 0.91362 0.61085 0.62922
 C497 C 0.36228 0.19741 0.71193
 C498 C 0.38055 0.17142 0.69060
 C499 C 0.40077 0.14051 0.66389
 C500 C 0.41766 0.11441 0.63950
 C501 C 0.34449 0.67955 0.18838
 C502 C 0.35461 0.65021 0.16684
 C503 C 0.36778 0.61611 0.14191
 C504 C 0.38359 0.58880 0.12137
   
