data_POSCAR
  _audit_creation_date              2014-09-24
  _audit_creation_method            'ToBaCCo'
  _symmetry_space_group_name_H-M    'P1'
  _symmetry_Int_Tables_number       1
  _symmetry_cell_setting            triclinic
  loop_
  _symmetry_equiv_pos_as_xyz
 x,y,z
_cell_length_a 20.1660
_cell_length_b 20.1663
_cell_length_c 52.7283
_cell_angle_alpha 89.879800
_cell_angle_beta 90.122200
_cell_angle_gamma 119.885300
loop_
  _atom_site_label
  _atom_site_type_symbol
  _atom_site_fract_x
  _atom_site_fract_y
  _atom_site_fract_z
C1 C 0.00176 -0.00029 0.50012
 C2 C 0.99970 0.00172 0.16655
 C3 C -0.00087 0.99915 0.83333
 O4 O 0.46348 0.06107 0.02403
 O5 O 0.59321 0.06051 -0.02538
 O6 O 0.46734 0.06741 -0.02529
 O7 O 0.59607 0.06777 0.02392
 O8 O 0.53381 -0.05871 0.02427
 O9 O 0.40340 -0.05906 -0.02527
 O10 O 0.52926 -0.06597 -0.02504
 O11 O 0.40121 -0.06541 0.02405
 Cu12 Cu 0.53633 0.07684 -0.00070
 Cu13 Cu 0.46061 -0.07494 -0.00049
 C14 C 0.41019 -0.00255 0.03230
 C15 C 0.58296 -0.00330 -0.03345
 C16 C 0.41354 0.00459 -0.03355
 C17 C 0.58721 0.00507 0.03237
 O18 O 0.06111 0.46350 0.64264
 O19 O 0.06052 0.59324 0.69205
 O20 O 0.06743 0.46737 0.69197
 O21 O 0.06781 0.59609 0.64275
 O22 O -0.05867 0.53383 0.64239
 O23 O -0.05905 0.40343 0.69194
 O24 O -0.06596 0.52929 0.69170
 O25 O -0.06537 0.40124 0.64262
 Cu26 Cu 0.07687 0.53636 0.66738
 Cu27 Cu -0.07491 0.46063 0.66715
 C28 C -0.00251 0.41021 0.63437
 C29 C -0.00330 0.58299 0.70011
 C30 C 0.00460 0.41357 0.70022
 C31 C 0.00511 0.58723 0.63430
 O32 O 0.59580 0.53552 0.35803
 O33 O 0.46556 0.40595 0.30856
 O34 O 0.59801 0.53162 0.30872
 O35 O 0.47012 0.40307 0.35787
 O36 O 0.40593 0.46558 0.35811
 O37 O 0.53550 0.59581 0.30864
 O38 O 0.40305 0.47013 0.30880
 O39 O 0.53160 0.59802 0.35796
 Cu40 Cu 0.53871 0.46270 0.33329
 Cu41 Cu 0.46268 0.53872 0.33339
 C42 C 0.58549 0.58893 0.36625
 C43 C 0.41204 0.41636 0.30042
 C44 C 0.58891 0.58551 0.30042
 C45 C 0.41635 0.41206 0.36625
 C46 C -0.01429 0.04893 0.51633
 C47 C -0.02128 0.09254 0.53019
 C48 C -0.02381 0.14694 0.54718
 C49 C 0.00894 0.22383 0.53993
 C50 C 0.01344 0.27834 0.55727
 C51 C -0.01456 0.25620 0.58196
 C52 C -0.04833 0.17913 0.58909
 C53 C -0.05281 0.12464 0.57175
 C54 C -0.00820 0.31232 0.60010
 C55 C -0.00419 0.35806 0.61559
 H56 H 0.03235 0.24184 0.52106
 H57 H 0.03960 0.33775 0.55155
 H58 H -0.07022 0.16138 0.60813
 H59 H -0.07744 0.06552 0.57765
 C60 C 0.95057 0.93632 0.18274
 C61 C 0.90698 0.88557 0.19656
 C62 C 0.85253 0.82841 0.21348
 C63 C 0.87469 0.82119 0.23806
 C64 C 0.82012 0.77093 0.25532
 C65 C 0.74312 0.72789 0.24812
 C66 C 0.72112 0.73426 0.22343
 C67 C 0.77571 0.78452 0.20616
 C68 C 0.68690 0.67793 0.26620
 C69 C 0.64110 0.63606 0.28166
 H70 H 0.93375 0.85547 0.24401
 H71 H 0.83776 0.76640 0.27437
 H72 H 0.66177 0.70124 0.21765
 H73 H 0.75781 0.79033 0.18729
 C74 C 0.06109 0.01453 -0.15130
 C75 C 0.11217 0.02212 -0.13747
 C76 C 0.16967 0.02520 -0.12055
 C77 C 0.21459 -0.00660 -0.12793
 C78 C 0.26512 -0.01079 -0.11065
 C79 C 0.27072 0.01658 -0.08589
 C80 C 0.22666 0.04945 -0.07863
 C81 C 0.17614 0.05362 -0.09590
 C82 C 0.32088 0.01033 -0.06779
 C83 C 0.36287 0.00635 -0.05233
 H84 H 0.20937 -0.02957 -0.14685
 H85 H 0.29892 -0.03627 -0.11647
 H86 H 0.23058 0.07082 -0.05953
 H87 H 0.14105 0.07749 -0.08990
 C88 C 0.01793 0.95027 0.51628
 C89 C 0.02497 0.90646 0.53011
 C90 C 0.02747 0.85178 0.54707
 C91 C 0.05700 0.87384 0.57161
 C92 C 0.05240 0.81909 0.58893
 C93 C 0.01801 0.74202 0.58182
 C94 C -0.01048 0.72012 0.55716
 C95 C -0.00587 0.77489 0.53983
 C96 C 0.01140 0.68563 0.59997
 C97 C 0.00714 0.63966 0.61548
 H98 H 0.08208 0.93297 0.57750
 H99 H 0.07466 0.83665 0.60795
 H100 H -0.03714 0.66071 0.55146
 H101 H -0.02969 0.75707 0.52099
 C102 C 0.04902 0.06700 0.18273
 C103 C 0.09277 0.11764 0.19654
 C104 C 0.14741 0.17463 0.21346
 C105 C 0.12550 0.18168 0.23805
 C106 C 0.18026 0.23173 0.25532
 C107 C 0.25721 0.27472 0.24811
 C108 C 0.27896 0.26853 0.22340
 C109 C 0.22418 0.21848 0.20613
 C110 C 0.31363 0.32443 0.26619
 C111 C 0.35962 0.36608 0.28165
 H112 H 0.06648 0.14741 0.24401
 H113 H 0.16282 0.23611 0.27437
 H114 H 0.33827 0.30153 0.21762
 H115 H 0.24188 0.21280 0.18725
 C116 C 0.93363 -0.01689 -0.15055
 C117 C 0.88280 -0.02384 -0.13681
 C118 C 0.82558 -0.02622 -0.11999
 C119 C 0.78161 0.00666 -0.12746
 C120 C 0.73135 0.01139 -0.11029
 C121 C 0.72508 -0.01650 -0.08554
 C122 C 0.76820 -0.05043 -0.07819
 C123 C 0.81845 -0.05515 -0.09536
 C124 C 0.67518 -0.00977 -0.06755
 C125 C 0.63339 -0.00543 -0.05216
 H126 H 0.78735 0.03002 -0.14638
 H127 H 0.69827 0.03769 -0.11618
 H128 H 0.76376 -0.07222 -0.05909
 H129 H 0.85281 -0.07987 -0.08928
 C130 C 0.04893 -0.01434 0.15035
 C131 C 0.09255 -0.02134 0.13649
 C132 C 0.14697 -0.02386 0.11951
 C133 C 0.12458 -0.05328 0.09499
 C134 C 0.17906 -0.04880 0.07765
 C135 C 0.25621 -0.01463 0.08473
 C136 C 0.27844 0.01379 0.10937
 C137 C 0.22394 0.00930 0.12671
 C138 C 0.31231 -0.00826 0.06658
 C139 C 0.35804 -0.00425 0.05109
 H140 H 0.06539 -0.07823 0.08912
 H141 H 0.16124 -0.07102 0.05864
 H142 H 0.33790 0.04028 0.11505
 H143 H 0.24201 0.03304 0.14554
 C144 C 0.93635 0.95058 0.48393
 C145 C 0.88559 0.90699 0.47012
 C146 C 0.82842 0.85254 0.45319
 C147 C 0.78454 0.77573 0.46052
 C148 C 0.73427 0.72114 0.44325
 C149 C 0.72788 0.74314 0.41855
 C150 C 0.77090 0.82014 0.41136
 C151 C 0.82117 0.87471 0.42862
 C152 C 0.67791 0.68693 0.40047
 C153 C 0.63604 0.64112 0.38502
 H154 H 0.79036 0.75782 0.47938
 H155 H 0.70125 0.66179 0.44902
 H156 H 0.76636 0.83778 0.39231
 H157 H 0.85545 0.93377 0.42267
 C158 C 0.01451 0.06111 0.81796
 C159 C 0.02210 0.11219 0.80414
 C160 C 0.02518 0.16970 0.78722
 C161 C 0.05367 0.17622 0.76258
 C162 C 0.04950 0.22675 0.74531
 C163 C 0.01657 0.27075 0.75256
 C164 C -0.01087 0.26509 0.77731
 C165 C -0.00669 0.21456 0.79459
 C166 C 0.01033 0.32091 0.73447
 C167 C 0.00635 0.36290 0.71900
 H168 H 0.07760 0.14117 0.75659
 H169 H 0.07093 0.23071 0.72621
 H170 H -0.03641 0.29885 0.78313
 H171 H -0.02972 0.20929 0.81351
 C172 C 0.95026 0.01787 0.15038
 C173 C 0.90645 0.02491 0.13655
 C174 C 0.85178 0.02741 0.11959
 C175 C 0.77489 -0.00589 0.12683
 C176 C 0.72012 -0.01050 0.10950
 C177 C 0.74201 0.01795 0.08484
 C178 C 0.81908 0.05229 0.07773
 C179 C 0.87383 0.05689 0.09505
 C180 C 0.68561 0.01134 0.06669
 C181 C 0.63964 0.00709 0.05119
 H182 H 0.75708 -0.02968 0.14567
 H183 H 0.66071 -0.03712 0.11521
 H184 H 0.83663 0.07452 0.05870
 H185 H 0.93295 0.08194 0.08916
 C186 C 0.06703 0.04903 0.48394
 C187 C 0.11766 0.09277 0.47012
 C188 C 0.17463 0.14741 0.45320
 C189 C 0.18150 0.12554 0.42858
 C190 C 0.23154 0.18031 0.41132
 C191 C 0.27471 0.25721 0.41856
 C192 C 0.26871 0.27891 0.44329
 C193 C 0.21866 0.22413 0.46056
 C194 C 0.32442 0.31364 0.40047
 C195 C 0.36606 0.35963 0.38502
 H196 H 0.14710 0.06656 0.42260
 H197 H 0.23578 0.16290 0.39224
 H198 H 0.30184 0.33819 0.44909
 H199 H 0.21313 0.24180 0.47946
 C200 C -0.01691 0.93365 0.81721
 C201 C -0.02387 0.88282 0.80347
 C202 C -0.02625 0.82561 0.78665
 C203 C -0.05508 0.81855 0.76200
 C204 C -0.05035 0.76830 0.74483
 C205 C -0.01652 0.72511 0.75220
 C206 C 0.01127 0.73130 0.77696
 C207 C 0.00654 0.78156 0.79413
 C208 C -0.00979 0.67520 0.73421
 C209 C -0.00543 0.63341 0.71882
 H210 H -0.07972 0.85297 0.75592
 H211 H -0.07207 0.76392 0.72573
 H212 H 0.03750 0.69816 0.78286
 H213 H 0.02982 0.78724 0.81306
   
