data_POSCAR
  _audit_creation_date              2014-09-24
  _audit_creation_method            'ToBaCCo'
  _symmetry_space_group_name_H-M    'P1'
  _symmetry_Int_Tables_number       1
  _symmetry_cell_setting            triclinic
  loop_
  _symmetry_equiv_pos_as_xyz
 x,y,z
_cell_length_a 22.3713
_cell_length_b 16.0443
_cell_length_c 15.7377
_cell_angle_alpha 89.860400
_cell_angle_beta 90.095200
_cell_angle_gamma 90.296300
loop_
  _atom_site_label
  _atom_site_type_symbol
  _atom_site_fract_x
  _atom_site_fract_y
  _atom_site_fract_z
C1 C 0.20535 0.20211 0.20522
 C2 C 0.20548 0.29004 0.20541
 C3 C 0.25009 0.33336 0.24984
 C4 C 0.29462 0.29018 0.29413
 C5 C 0.29462 0.20225 0.29399
 C6 C 0.24996 0.15880 0.24953
 H7 H 0.24990 0.09111 0.24941
 H8 H 0.25013 0.40099 0.24997
 C9 C 0.79544 0.29642 0.20478
 C10 C 0.79505 0.20847 0.20481
 C11 C 0.75025 0.16514 0.24892
 C12 C 0.70588 0.20842 0.29305
 C13 C 0.70631 0.29621 0.29321
 C14 C 0.75103 0.33968 0.24906
 H15 H 0.75117 0.40733 0.24927
 H16 H 0.74991 0.09752 0.24891
 C17 C 0.70608 0.70906 0.70639
 C18 C 0.70608 0.79685 0.70649
 C19 C 0.75062 0.84039 0.75095
 C20 C 0.79521 0.79719 0.79537
 C21 C 0.79514 0.70924 0.79523
 C22 C 0.75057 0.66586 0.75073
 H23 H 0.75052 0.59824 0.75061
 H24 H 0.75049 0.90805 0.75087
 C25 C 0.29371 0.79178 0.70631
 C26 C 0.29370 0.70399 0.70664
 C27 C 0.24929 0.66035 0.75125
 C28 C 0.20483 0.70344 0.79560
 C29 C 0.20490 0.79139 0.79527
 C30 C 0.24935 0.83488 0.75061
 H31 H 0.24940 0.90251 0.75032
 H32 H 0.24941 0.59270 0.75133
 O33 O 1.05728 -0.10692 -0.00759
 O34 O 0.94175 0.00943 0.10814
 O35 O 0.94092 -0.10556 -0.00834
 O36 O 1.05821 0.00797 0.10901
 O37 O 1.05934 0.10521 0.00916
 O38 O 0.94204 -0.00833 -0.10821
 O39 O 0.94293 0.10666 0.00827
 O40 O 1.05844 -0.00968 -0.10744
 Cu41 Cu 0.99942 -0.05858 0.06039
 Cu42 Cu 1.00081 0.05830 -0.05961
 C43 C 1.07735 -0.07794 -0.07703
 C44 C 0.92282 0.07767 0.07769
 C45 C 0.92169 -0.07614 -0.07805
 C46 C 1.07859 0.07576 0.07884
 O47 O 0.44212 0.50806 0.60843
 O48 O 0.55884 0.39510 0.49158
 O49 O 0.55855 0.50987 0.60828
 O50 O 0.44250 0.39299 0.49199
 O51 O 0.44179 0.49024 0.39216
 O52 O 0.55787 0.60716 0.50847
 O53 O 0.55818 0.49237 0.39176
 O54 O 0.44148 0.60532 0.50860
 Cu55 Cu 0.50057 0.44169 0.56015
 Cu56 Cu 0.49976 0.55861 0.44018
 C57 C 0.42210 0.57579 0.57819
 C58 C 0.57819 0.42463 0.42196
 C59 C 0.57781 0.57823 0.57799
 C60 C 0.42258 0.42185 0.42245
 O61 O -0.05685 0.60659 -0.00751
 O62 O 0.05883 0.48952 0.10824
 O63 O 0.05951 0.60521 -0.00812
 O64 O -0.05758 0.49097 0.10891
 O65 O -0.05886 0.39432 0.00894
 O66 O 0.05823 0.50856 -0.10809
 O67 O 0.05750 0.39287 0.00827
 O68 O -0.05817 0.50993 -0.10747
 Cu69 Cu 0.00112 0.55784 0.06047
 Cu70 Cu -0.00046 0.44165 -0.05967
 C71 C -0.07703 0.57801 -0.07702
 C72 C 0.07768 0.42143 0.07778
 C73 C 0.07862 0.57620 -0.07784
 C74 C -0.07798 0.42334 0.07864
 O75 O 0.55738 1.01004 0.39084
 O76 O 0.44134 0.89367 0.50780
 O77 O 0.44087 1.00851 0.39052
 O78 O 0.55771 0.89539 0.50813
 O79 O 0.55741 0.99279 0.60734
 O80 O 0.44059 1.10589 0.48974
 O81 O 0.44100 0.99106 0.60702
 O82 O 0.55704 1.10743 0.49005
 Cu83 Cu 0.49934 0.94208 0.43930
 Cu84 Cu 0.49895 1.05915 0.55852
 C85 C 0.57686 1.07832 0.42079
 C86 C 0.42161 0.92269 0.57716
 C87 C 0.42100 1.07630 0.42033
 C88 C 0.57729 0.92500 0.57754
 C89 C 1.16239 0.15812 0.16247
 C90 C 1.12421 0.12015 0.12443
 C91 C 0.66088 0.66232 0.66117
 C92 C 0.62298 0.62376 0.62324
 C93 C -0.16160 0.34049 0.16212
 C94 C -0.12349 0.37865 0.12415
 C95 C 0.33877 0.83862 0.66087
 C96 C 0.37655 0.87721 0.62273
 C97 C -0.15978 0.66233 -0.15977
 C98 C -0.12203 0.62366 -0.12205
 C99 C 0.33748 1.15839 0.33668
 C100 C 0.37553 1.12054 0.37470
 C101 C 1.15994 -0.16183 -0.15978
 C102 C 1.12228 -0.12333 -0.12207
 C103 C 0.66130 0.34255 0.33837
 C104 C 0.62345 0.38037 0.37642
 C105 C 0.83807 -0.15872 -0.16180
 C106 C 0.87616 -0.12063 -0.12370
 C107 C 0.33974 0.33732 0.33928
 C108 C 0.37752 0.37614 0.37716
 C109 C 0.16206 0.65922 -0.16151
 C110 C 0.12406 0.62096 -0.12341
 C111 C 0.66039 1.16181 0.33786
 C112 C 0.62226 1.12349 0.37557
 C113 C 0.16041 0.33703 0.16049
 C114 C 0.12267 0.37575 0.12280
 C115 C 0.66082 0.84309 0.66130
 C116 C 0.62275 0.88082 0.62320
 C117 C 0.84006 0.16155 0.16011
 C118 C 0.87780 0.12302 0.12259
 C119 C 0.33883 0.65779 0.66157
 C120 C 0.37677 0.62002 0.62363
   
