data_POSCAR
  _audit_creation_date              2014-09-24
  _audit_creation_method            'ToBaCCo'
  _symmetry_space_group_name_H-M    'P1'
  _symmetry_Int_Tables_number       1
  _symmetry_cell_setting            triclinic
  loop_
  _symmetry_equiv_pos_as_xyz
 x,y,z
_cell_length_a 19.0058
_cell_length_b 18.8178
_cell_length_c 52.1883
_cell_angle_alpha 78.184800
_cell_angle_beta 95.847700
_cell_angle_gamma 119.648000
loop_
  _atom_site_label
  _atom_site_type_symbol
  _atom_site_fract_x
  _atom_site_fract_y
  _atom_site_fract_z
C1 C -0.02690 0.20864 0.51547
 H2 H 0.03316 0.23811 0.50740
 C3 C -0.04120 0.24300 0.53425
 H4 H 0.00727 0.29978 0.53982
 C5 C -0.15964 0.09366 0.52089
 H6 H -0.20418 0.03362 0.51643
 C7 C -0.17606 0.12542 0.54014
 H8 H -0.23376 0.08993 0.55013
 N9 N -0.08527 0.13442 0.50949
 C10 C -0.05279 -0.07600 0.51039
 H11 H -0.05988 -0.08318 0.49009
 C12 C -0.05776 -0.14132 0.53006
 H13 H -0.06823 -0.19853 0.52482
 C14 C -0.03434 0.00561 0.54216
 H15 H -0.02631 0.06240 0.54691
 C16 C -0.03889 -0.05775 0.56230
 H17 H -0.03437 -0.04935 0.58244
 Zn18 Zn -0.05483 0.07618 0.49130
 N19 N -0.04326 -0.00511 0.51681
 C20 C 0.09843 0.12445 0.47121
 N21 N 0.04396 0.15016 0.47307
 C22 C 0.05343 0.22389 0.45911
 C23 C 0.11829 0.27374 0.44192
 C24 C 0.16363 0.17195 0.45386
 C25 C -0.19850 -0.05554 0.47430
 C26 C -0.24407 -0.10574 0.45583
 C27 C -0.16031 0.00535 0.42174
 C28 C -0.11658 0.05291 0.44073
 N29 N -0.13422 0.02113 0.46654
 H30 H 0.08903 0.06507 0.48214
 H31 H 0.00805 0.24187 0.46028
 H32 H 0.12338 0.33072 0.43022
 H33 H 0.20446 0.14898 0.45175
 H34 H -0.21069 -0.08027 0.49494
 H35 H -0.29145 -0.16843 0.46256
 H36 H -0.14181 0.03038 0.40145
 H37 H -0.06540 0.11337 0.43474
 C38 C -0.05258 -0.13279 0.55635
 C39 C -0.11519 0.19954 0.54754
 C40 C -0.22313 -0.07618 0.42919
 C41 C 0.17255 0.24644 0.43853
 C42 C 1.27486 0.10366 0.13908
 H43 H 1.29599 0.16647 0.14187
 C44 C 1.31581 0.08923 0.12180
 H45 H 1.36919 0.14084 0.11173
 C46 C 1.17491 -0.03863 0.14650
 H47 H 1.11834 -0.08755 0.15542
 C48 C 1.21367 -0.05562 0.12914
 H49 H 1.18682 -0.11798 0.12509
 N50 N 1.20494 0.04036 0.15066
 C51 C 1.00109 0.08257 0.14792
 H52 H 0.98937 0.07626 0.16835
 C53 C 0.94140 0.07768 0.12917
 H54 H 0.88432 0.06867 0.13521
 C55 C 1.08652 0.09418 0.11541
 H56 H 1.14186 0.09798 0.11012
 C57 C 1.02876 0.08955 0.09616
 H58 H 1.04031 0.09014 0.07619
 Zn59 Zn 1.13935 0.06810 0.16695
 N60 N 1.07106 0.08837 0.14086
 C61 C 1.17521 0.21097 0.18710
 N62 N 1.20494 0.16146 0.18322
 C63 C 1.27456 0.16773 0.19502
 C64 C 1.31550 0.22335 0.21223
 C65 C 1.21395 0.26696 0.20440
 C66 C 1.00119 -0.08453 0.18594
 C67 C 0.94145 -0.13917 0.20467
 C68 C 1.02872 -0.06360 0.23770
 C69 C 1.08653 -0.01063 0.21847
 N70 N 1.07114 -0.02038 0.19303
 H71 H 1.11888 0.20362 0.17801
 H72 H 1.29546 0.12566 0.19242
 H73 H 1.36864 0.22489 0.22246
 H74 H 1.18733 0.30294 0.20823
 H75 H 0.98950 -0.08999 0.16552
 H76 H 0.88437 -0.18718 0.19860
 H77 H 1.04020 -0.05253 0.25766
 H78 H 1.14183 0.04091 0.22379
 C79 C 0.95443 0.07870 0.10312
 C80 C 1.28352 0.00948 0.11598
 C81 C 0.95441 -0.12703 0.23071
 C82 C 1.28349 0.27140 0.21777
 C83 C 0.05498 0.83160 0.87388
 H84 H 0.00977 0.76833 0.87258
 C85 C 0.11974 0.84640 0.89114
 H86 H 0.12494 0.79444 0.90274
 C87 C 0.09960 0.97598 0.86210
 H88 H 0.09007 1.02600 0.85126
 C89 C 0.16469 0.99345 0.87952
 H90 H 0.20532 1.05713 0.88177
 N91 N 0.04538 0.89592 0.86004
 C92 C -0.19698 0.85949 0.85873
 H93 H -0.20908 0.87236 0.83809
 C94 C -0.24260 0.86389 0.87724
 H95 H -0.28993 0.87937 0.87052
 C96 C -0.11529 0.83223 0.89229
 H97 H -0.06420 0.82271 0.89827
 C98 C -0.15908 0.83582 0.91130
 H99 H -0.14070 0.82889 0.93160
 Zn100 Zn -0.05339 0.87121 0.84175
 N101 N -0.13280 0.84683 0.86647
 C102 C -0.15834 0.74870 0.81224
 N103 N -0.08379 0.78257 0.82356
 C104 C -0.02533 0.76698 0.81748
 C105 C -0.03976 0.71825 0.79871
 C106 C -0.17489 0.70046 0.79300
 C107 C -0.05129 1.02549 0.82266
 C108 C -0.05638 1.08578 0.80299
 C109 C -0.03785 1.02088 0.77075
 C110 C -0.03319 0.96212 0.79089
 N111 N -0.04188 0.96405 0.81624
 H112 H -0.20296 0.76401 0.81678
 H113 H 0.03484 0.79778 0.82547
 H114 H 0.00875 0.71011 0.79306
 H115 H -0.23276 0.67802 0.78309
 H116 H -0.05823 1.02566 0.84296
 H117 H -0.06677 1.13257 0.80823
 H118 H -0.03352 1.01688 0.75060
 H119 H -0.02526 0.91330 0.78613
 C120 C -0.22182 0.85475 0.90388
 C121 C 0.17376 0.92780 0.89471
 C122 C -0.05143 1.08229 0.77670
 C123 C -0.11397 0.68742 0.78552
 C124 C 0.41061 -0.01841 0.02712
 C125 C 0.36367 -0.02708 0.00432
 C126 C 0.38690 -0.03710 -0.01871
 C127 C 0.45861 -0.04266 -0.01861
 C128 C 0.50969 -0.02925 0.00379
 C129 C 0.48661 -0.01495 0.02647
 C130 C 0.54005 0.00192 0.04784
 C131 C 0.61394 0.00397 0.04719
 C132 C 0.63749 -0.01183 0.02528
 C133 C 0.58401 -0.03038 0.00352
 C134 C 0.48098 -0.06094 -0.04022
 C135 C 0.55211 -0.06484 -0.04014
 C136 C 0.60455 -0.05009 -0.01850
 C137 C 0.67667 -0.05492 -0.01815
 C138 C 0.72994 -0.03264 0.00298
 C139 C 0.71297 -0.00933 0.02439
 H140 H 0.52639 0.01520 0.06526
 H141 H 0.65155 0.01698 0.06438
 H142 H 0.44341 -0.07390 -0.05741
 H143 H 0.56562 -0.07850 -0.05752
 H144 H 0.30752 -0.02640 0.00452
 H145 H 0.78599 -0.03341 0.00273
 C146 C -0.11830 0.30717 0.64096
 C147 C -0.11262 0.25901 0.66453
 C148 C -0.10609 0.28243 0.68881
 C149 C -0.11057 0.35479 0.68978
 C150 C -0.11380 0.40623 0.66612
 C151 C -0.11569 0.38338 0.64163
 C152 C -0.11450 0.43770 0.61857
 C153 C -0.11161 0.51241 0.61938
 C154 C -0.11090 0.53598 0.64328
 C155 C -0.11382 0.48147 0.66694
 C156 C -0.11099 0.37780 0.71368
 C157 C -0.11391 0.44961 0.71449
 C158 C -0.11544 0.50256 0.69144
 C159 C -0.11810 0.57613 0.69211
 C160 C -0.11273 0.62982 0.66854
 C161 C -0.10645 0.61281 0.64425
 H162 H -0.11446 0.42429 0.59948
 H163 H -0.11090 0.55073 0.60087
 H164 H -0.11003 0.34032 0.73219
 H165 H -0.11363 0.46318 0.73358
 H166 H -0.11170 0.20278 0.66391
 H167 H -0.11183 0.68697 0.66915
 C168 C 0.41013 0.42776 0.30641
 C169 C 0.36305 0.38987 0.32916
 C170 C 0.38614 0.42344 0.35213
 C171 C 0.45783 0.50068 0.35202
 C172 C 0.50907 0.53796 0.32969
 C173 C 0.48614 0.50024 0.30707
 C174 C 0.53974 0.53640 0.28577
 C175 C 0.61363 0.60821 0.28642
 C176 C 0.63701 0.64789 0.30827
 C177 C 0.58338 0.61335 0.32995
 C178 C 0.48003 0.54166 0.37355
 C179 C 0.55116 0.61665 0.37346
 C180 C 0.60376 0.65394 0.35189
 C181 C 0.67589 0.73083 0.35154
 C182 C 0.72931 0.76143 0.33048
 C183 C 0.71249 0.72083 0.30915
 H184 H 0.52621 0.50918 0.26841
 H185 H 0.65136 0.63250 0.26929
 H186 H 0.44231 0.51736 0.39068
 H187 H 0.56453 0.64409 0.39078
 H188 H 0.30690 0.33308 0.32896
 H189 H 0.78536 0.81822 0.33073
 C190 C -0.18432 0.26798 0.59321
 C191 C -0.11374 0.31186 0.57314
 C192 C -0.12291 0.22692 0.57170
 C193 C -0.19336 0.18268 0.59136
 C194 C -0.06177 0.23539 0.59418
 C195 C -0.05243 0.32065 0.59587
 C196 C -0.12262 0.27687 0.61565
 C197 C -0.13209 0.19143 0.61400
 H198 H -0.23512 0.28137 0.59293
 H199 H -0.10641 0.36118 0.55608
 H200 H -0.25193 0.12582 0.58972
 H201 H -0.01118 0.22162 0.59455
 H202 H 0.00583 0.37759 0.59781
 H203 H -0.14051 0.13884 0.62994
 C204 C 0.86284 0.83161 0.28963
 C205 C 0.89758 0.78543 0.27846
 C206 C 0.88775 0.82624 0.25066
 C207 C 0.85321 0.87246 0.26168
 C208 C 0.80206 0.75296 0.24864
 C209 C 0.81113 0.71162 0.27685
 C210 C 0.77645 0.75808 0.28784
 C211 C 0.76683 0.79891 0.25994
 H212 H 0.89235 0.86659 0.30584
 H213 H 0.95179 0.77993 0.28596
 H214 H 0.87090 0.93914 0.25531
 H215 H 0.77693 0.72010 0.23176
 H216 H 0.79367 0.64502 0.28326
 H217 H 0.71273 0.80453 0.25239
 C218 C 0.27887 -0.12433 -0.05314
 C219 C 0.20737 -0.10607 -0.05539
 C220 C 0.23433 -0.05809 -0.08339
 C221 C 0.30531 -0.07628 -0.08141
 C222 C 0.28773 0.02333 -0.07295
 C223 C 0.26111 -0.02469 -0.04479
 C224 C 0.33251 -0.04311 -0.04258
 C225 C 0.35958 0.00544 -0.07061
 H226 H 0.27533 -0.18525 -0.04487
 H227 H 0.14420 -0.15203 -0.04915
 H228 H 0.32321 -0.09737 -0.09673
 H229 H 0.29212 0.08479 -0.08087
 H230 H 0.24026 -0.00253 -0.03059
 H231 H 0.42266 0.05180 -0.07683
 C232 C -0.07656 0.76798 0.62070
 C233 C -0.00616 0.80440 0.60117
 C234 C -0.06604 0.79659 0.57840
 C235 C -0.13643 0.76040 0.59775
 C236 C -0.08140 0.70880 0.57755
 C237 C -0.02153 0.71588 0.60073
 C238 C -0.09218 0.67947 0.62012
 C239 C -0.15206 0.67178 0.59726
 H240 H -0.07327 0.79690 0.63760
 H241 H 0.05418 0.85939 0.60264
 H242 H -0.18381 0.77918 0.59639
 H243 H -0.08315 0.68422 0.55976
 H244 H 0.02601 0.69734 0.60208
 H245 H -0.21244 0.61688 0.59576
 C246 C 0.37078 0.43467 0.25451
 C247 C 0.40470 0.38854 0.24258
 C248 C 0.31781 0.31794 0.24018
 C249 C 0.28357 0.36346 0.25175
 C250 C 0.32342 0.27214 0.26768
 C251 C 0.41069 0.34309 0.27038
 C252 C 0.37668 0.38871 0.28205
 C253 C 0.28935 0.31783 0.27940
 H254 H 0.39033 0.50201 0.24915
 H255 H 0.45189 0.41755 0.22717
 H256 H 0.23133 0.37276 0.24438
 H257 H 0.30349 0.20471 0.27307
 H258 H 0.46316 0.33469 0.27818
 H259 H 0.23866 0.28632 0.29361
 C260 C 0.72670 -0.03050 -0.06762
 C261 C 0.79770 -0.04910 -0.06616
 C262 C 0.74534 -0.12519 -0.07692
 C263 C 0.67567 -0.11022 -0.07957
 C264 C 0.72003 -0.17700 -0.05084
 C265 C 0.77251 -0.09933 -0.03829
 C266 C 0.70001 -0.08234 -0.03986
 C267 C 0.64692 -0.16186 -0.05175
 H268 H 0.73051 0.03081 -0.07537
 H269 H 0.86058 -0.00369 -0.07290
 H270 H 0.63600 -0.11610 -0.09705
 H271 H 0.71791 -0.23818 -0.04484
 H272 H 0.81595 -0.09763 -0.02221
 H273 H 0.58394 -0.21055 -0.04624
 C274 C 0.37076 -0.06583 0.07895
 C275 C 0.40476 0.01376 0.09114
 C276 C 0.31792 -0.00229 0.09350
 C277 C 0.28360 -0.08160 0.08167
 C278 C 0.32388 0.04981 0.06610
 C279 C 0.41110 0.06589 0.06344
 C280 C 0.37700 -0.01329 0.05153
 C281 C 0.28973 -0.02949 0.05413
 H282 H 0.39013 -0.11380 0.08419
 H283 H 0.45181 0.03135 0.10663
 H284 H 0.23121 -0.14313 0.08888
 H285 H 0.30415 0.09751 0.06085
 H286 H 0.46372 0.12677 0.05581
 H287 H 0.23917 -0.04809 0.03985
 C288 C 0.77162 0.87133 0.37155
 C289 C 0.71908 0.89690 0.38389
 C290 C 0.74415 0.87066 0.41006
 C291 C 0.79657 0.84658 0.39950
 C292 C 0.67444 0.78611 0.41273
 C293 C 0.64593 0.80871 0.38482
 C294 C 0.69908 0.78192 0.37315
 C295 C 0.72553 0.75706 0.40100
 H296 H 0.81521 0.91279 0.35550
 H297 H 0.71703 0.95596 0.37776
 H298 H 0.85939 0.86401 0.40635
 H299 H 0.63461 0.75263 0.43017
 H300 H 0.58300 0.79450 0.37920
 H301 H 0.72925 0.69957 0.40888
 C302 C -0.07599 0.15723 0.71236
 C303 C -0.00540 0.19128 0.73184
 C304 C -0.06507 0.13937 0.75464
 C305 C -0.13564 0.10512 0.73534
 C306 C -0.08040 0.21183 0.75550
 C307 C -0.02075 0.26445 0.73229
 C308 C -0.09158 0.23015 0.71293
 C309 C -0.15125 0.17813 0.73583
 H310 H -0.07286 0.13151 0.69546
 H311 H 0.05492 0.19657 0.73034
 H312 H -0.18302 0.03899 0.73673
 H313 H -0.08198 0.23475 0.77329
 H314 H 0.02679 0.33051 0.73091
 H315 H -0.21161 0.17269 0.73735
 C316 C 0.81141 0.09768 0.05696
 C317 C 0.80218 0.04681 0.08510
 C318 C 0.88788 0.05917 0.08311
 C319 C 0.89787 0.11026 0.05538
 C320 C 0.85340 -0.02126 0.07191
 C321 C 0.76702 -0.03403 0.07362
 C322 C 0.77679 0.01686 0.04579
 C323 C 0.86320 0.02967 0.04403
 H324 H 0.79399 0.14689 0.05064
 H325 H 0.77694 0.05423 0.10201
 H326 H 0.95212 0.16999 0.04799
 H327 H 0.87106 -0.07033 0.07819
 H328 H 0.71287 -0.09378 0.08106
 H329 H 0.89280 0.02448 0.02780
 C330 C 0.35861 0.35434 0.40407
 C331 C 0.30409 0.38188 0.41467
 C332 C 0.23326 0.29269 0.41670
 C333 C 0.28690 0.26458 0.40645
 C334 C 0.20641 0.31328 0.38863
 C335 C 0.27777 0.40307 0.38633
 C336 C 0.33164 0.37539 0.37597
 C337 C 0.26039 0.28555 0.37823
 H338 H 0.42168 0.37120 0.41038
 H339 H 0.32178 0.42110 0.42992
 H340 H 0.29141 0.20764 0.41450
 H341 H 0.14325 0.29592 0.38229
 H342 H 0.27412 0.46032 0.37792
 H343 H 0.23975 0.24232 0.36410
 C344 C -0.13175 0.67815 0.71907
 C345 C -0.19267 0.62573 0.74178
 C346 C -0.12194 0.65218 0.76136
 C347 C -0.06115 0.70475 0.73881
 C348 C -0.11264 0.57649 0.75992
 C349 C -0.18350 0.54955 0.73992
 C350 C -0.12216 0.60225 0.71742
 C351 C -0.05168 0.62890 0.73712
 H352 H -0.14049 0.72213 0.70314
 H353 H -0.25127 0.62395 0.74348
 H354 H -0.01064 0.76913 0.73839
 H355 H -0.10499 0.53468 0.77697
 H356 H -0.23423 0.48533 0.74026
 H357 H 0.00661 0.63031 0.73512
   
