data_POSCAR
  _audit_creation_date              2014-09-24
  _audit_creation_method            'ToBaCCo'
  _symmetry_space_group_name_H-M    'P1'
  _symmetry_Int_Tables_number       1
  _symmetry_cell_setting            triclinic
  loop_
  _symmetry_equiv_pos_as_xyz
 x,y,z
_cell_length_a 65.2396
_cell_length_b 65.2491
_cell_length_c 19.2595
_cell_angle_alpha 89.945800
_cell_angle_beta 90.013700
_cell_angle_gamma 120.023900
loop_
  _atom_site_label
  _atom_site_type_symbol
  _atom_site_fract_x
  _atom_site_fract_y
  _atom_site_fract_z
C1 C 0.24876 0.49731 0.53397
 C2 C 0.24812 0.49661 0.46318
 C3 C 0.22893 0.49727 0.42354
 C4 C 0.26664 0.49522 0.42201
 C5 C 0.26905 0.49884 0.57344
 C6 C 0.22905 0.49624 0.57546
 C7 C 0.21535 0.47923 0.37642
 C8 C 0.19669 0.47912 0.34059
 C9 C 0.19102 0.49731 0.35012
 C10 C 0.20555 0.51579 0.39683
 C11 C 0.22414 0.51572 0.43264
 C12 C 0.27188 0.47709 0.43375
 C13 C 0.29028 0.47677 0.39755
 C14 C 0.30362 0.49444 0.34835
 C15 C 0.29777 0.51210 0.33508
 C16 C 0.27940 0.51242 0.37140
 C17 C 0.29234 0.51692 0.56007
 C18 C 0.31135 0.51738 0.59499
 C19 C 0.30740 0.49994 0.64461
 C20 C 0.28398 0.48236 0.65952
 C21 C 0.26501 0.48185 0.62439
 C22 C 0.23374 0.51387 0.62474
 C23 C 0.21532 0.51334 0.66311
 C24 C 0.19184 0.49505 0.65328
 C25 C 0.18726 0.47711 0.60493
 C26 C 0.20571 0.47764 0.56667
 H27 H 0.21908 0.46501 0.36776
 H28 H 0.18763 0.46509 0.30320
 H29 H 0.20211 0.52988 0.40981
 H30 H 0.23461 0.52997 0.46851
 H31 H 0.26198 0.46342 0.47183
 H32 H 0.29443 0.46302 0.40927
 H33 H 0.27547 0.52642 0.36115
 H34 H 0.29580 0.53045 0.52181
 H35 H 0.32916 0.53108 0.58202
 H36 H 0.28032 0.46897 0.69845
 H37 H 0.24716 0.46790 0.63595
 H38 H 0.25167 0.52823 0.63278
 H39 H 0.21947 0.52718 0.70080
 H40 H 0.16936 0.46289 0.59579
 H41 H 0.20177 0.46361 0.52983
 H42 H 0.30742 0.52569 0.29660
 C43 C 0.50247 -0.24888 0.53622
 C44 C 0.50252 -0.24901 0.46536
 C45 C 0.50343 -0.26805 0.42570
 C46 C 0.50187 -0.23009 0.42402
 C47 C 0.50406 -0.22871 0.57639
 C48 C 0.50116 -0.26885 0.57698
 C49 C 0.52171 -0.27312 0.43677
 C50 C 0.52185 -0.29171 0.40129
 C51 C 0.50385 -0.30542 0.35343
 C52 C 0.48595 -0.29984 0.34106
 C53 C 0.48581 -0.28128 0.37670
 C54 C 0.51913 -0.21794 0.37301
 C55 C 0.51925 -0.19960 0.33526
 C56 C 0.50203 -0.19309 0.34754
 C57 C 0.48437 -0.20571 0.39748
 C58 C 0.48421 -0.22413 0.43503
 C59 C 0.48693 -0.23283 0.62691
 C60 C 0.48775 -0.21396 0.66352
 C61 C 0.50583 -0.19060 0.65056
 C62 C 0.52332 -0.18659 0.60115
 C63 C 0.52254 -0.20549 0.56476
 C64 C 0.48258 -0.29207 0.56715
 C65 C 0.48225 -0.31088 0.60288
 C66 C 0.50051 -0.30699 0.64997
 C67 C 0.51868 -0.28333 0.66097
 C68 C 0.51890 -0.26460 0.62518
 H69 H 0.53571 -0.26284 0.47354
 H70 H 0.53579 -0.29565 0.41234
 H71 H 0.47209 -0.30979 0.30361
 H72 H 0.47169 -0.27747 0.36697
 H73 H 0.53276 -0.22243 0.36321
 H74 H 0.53281 -0.19055 0.29625
 H75 H 0.47046 -0.23358 0.47325
 H76 H 0.47260 -0.25064 0.63688
 H77 H 0.47392 -0.21759 0.70082
 H78 H 0.53771 -0.16884 0.59098
 H79 H 0.53625 -0.20199 0.52716
 H80 H 0.46854 -0.29568 0.53061
 H81 H 0.46816 -0.32849 0.59033
 H82 H 0.53255 -0.27889 0.69867
 H83 H 0.53321 -0.24672 0.63429
 H84 H 0.47095 -0.20104 0.40852
 C85 C 1.24855 0.75172 0.53556
 C86 C 1.24887 0.75157 0.46471
 C87 C 1.26896 0.77032 0.42414
 C88 C 1.22894 0.73272 0.42427
 C89 C 1.22956 0.73194 0.57603
 C90 C 1.26709 0.77169 0.57638
 C91 C 1.26446 0.78167 0.36938
 C92 C 1.28308 0.79975 0.33198
 C93 C 1.30689 0.80722 0.34883
 C94 C 1.31117 0.79520 0.40298
 C95 C 1.29247 0.77679 0.43922
 C96 C 1.20565 0.72800 0.43400
 C97 C 1.18699 0.70984 0.39693
 C98 C 1.19131 0.69622 0.34885
 C99 C 1.21475 0.70141 0.33805
 C100 C 1.23338 0.71954 0.37523
 C101 C 1.22464 0.70861 0.56693
 C102 C 1.20638 0.69009 0.60422
 C103 C 1.19253 0.69441 0.65219
 C104 C 1.19819 0.71817 0.66192
 C105 C 1.21647 0.73659 0.62459
 C106 C 1.28038 0.76740 0.62524
 C107 C 1.29844 0.78605 0.66240
 C108 C 1.30354 0.80963 0.65248
 C109 C 1.28945 0.81356 0.60441
 C110 C 1.27152 0.79484 0.56691
 H111 H 1.24644 0.77690 0.35654
 H112 H 1.27859 0.80860 0.29239
 H113 H 1.32894 0.79930 0.41616
 H114 H 1.29639 0.76763 0.47935
 H115 H 1.20190 0.73826 0.47072
 H116 H 1.16914 0.70619 0.40680
 H117 H 1.25127 0.72309 0.36647
 H118 H 1.23478 0.70469 0.53022
 H119 H 1.20265 0.67236 0.59253
 H120 H 1.18915 0.72294 0.70005
 H121 H 1.22027 0.75457 0.63320
 H122 H 1.27694 0.74955 0.63399
 H123 H 1.30776 0.78163 0.70056
 H124 H 1.29280 0.83119 0.59275
 H125 H 1.26126 0.79845 0.52971
 H126 H 1.21870 0.69153 0.30051
 C127 C 0.75202 0.50350 0.53642
 C128 C 0.75149 0.50255 0.46560
 C129 C 0.77001 0.50096 0.42497
 C130 C 0.73259 0.50350 0.42515
 C131 C 0.73236 0.50291 0.57709
 C132 C 0.77224 0.50513 0.57662
 C133 C 0.78253 0.51778 0.37322
 C134 C 0.80085 0.51731 0.33712
 C135 C 0.80695 0.49992 0.35182
 C136 C 0.79385 0.48260 0.40216
 C137 C 0.77545 0.48303 0.43807
 C138 C 0.72791 0.52211 0.43431
 C139 C 0.70975 0.52253 0.39702
 C140 C 0.69611 0.50448 0.34926
 C141 C 0.70125 0.48618 0.33903
 C142 C 0.71937 0.48575 0.37647
 C143 C 0.70899 0.48448 0.56866
 C144 C 0.69055 0.48451 0.60544
 C145 C 0.69496 0.50299 0.65228
 C146 C 0.71876 0.52111 0.66144
 C147 C 0.73713 0.52096 0.62461
 C148 C 0.76809 0.48875 0.62948
 C149 C 0.78696 0.48926 0.66523
 C150 C 0.81067 0.50620 0.64889
 C151 C 0.81452 0.52311 0.59701
 C152 C 0.79557 0.52271 0.56204
 H153 H 0.77844 0.53161 0.36183
 H154 H 0.81027 0.53060 0.29767
 H155 H 0.79818 0.46905 0.41497
 H156 H 0.76571 0.46963 0.47699
 H157 H 0.73822 0.53623 0.47069
 H158 H 0.70613 0.53677 0.40645
 H159 H 0.72289 0.47139 0.36813
 H160 H 0.70498 0.47020 0.53272
 H161 H 0.67279 0.47047 0.59412
 H162 H 0.72360 0.53518 0.69869
 H163 H 0.75513 0.53517 0.63265
 H164 H 0.75018 0.47506 0.64167
 H165 H 0.78273 0.47541 0.70293
 H166 H 0.83212 0.53727 0.58439
 H167 H 0.79913 0.53604 0.52297
 H168 H 0.69134 0.47226 0.30173
 C169 C 0.49656 0.24824 0.53647
 C170 C 0.49709 0.24825 0.46564
 C171 C 0.49587 0.26685 0.42425
 C172 C 0.49864 0.22950 0.42618
 C173 C 0.49525 0.22837 0.57764
 C174 C 0.49727 0.26807 0.57628
 C175 C 0.47731 0.27161 0.43380
 C176 C 0.47675 0.28962 0.39603
 C177 C 0.49460 0.30305 0.34741
 C178 C 0.51280 0.29779 0.33670
 C179 C 0.51337 0.27981 0.37459
 C180 C 0.48196 0.21685 0.37422
 C181 C 0.48255 0.19846 0.33895
 C182 C 0.49984 0.19236 0.35507
 C183 C 0.51691 0.20544 0.40580
 C184 C 0.51649 0.22402 0.44048
 C185 C 0.51281 0.23278 0.62669
 C186 C 0.51253 0.21414 0.66317
 C187 C 0.49444 0.19045 0.65220
 C188 C 0.47637 0.18641 0.60415
 C189 C 0.47680 0.20512 0.56756
 C190 C 0.51559 0.29141 0.56640
 C191 C 0.51573 0.30999 0.60285
 C192 C 0.49755 0.30573 0.65071
 C193 C 0.47954 0.28197 0.66122
 C194 C 0.47951 0.26347 0.62475
 H195 H 0.46338 0.26151 0.47097
 H196 H 0.46259 0.29332 0.40584
 H197 H 0.52657 0.30753 0.29877
 H198 H 0.52769 0.27624 0.36595
 H199 H 0.46814 0.22088 0.36211
 H200 H 0.46912 0.18859 0.30029
 H201 H 0.52992 0.23397 0.47906
 H202 H 0.52701 0.25070 0.63592
 H203 H 0.52626 0.21864 0.70145
 H204 H 0.46238 0.16874 0.59161
 H205 H 0.46294 0.20141 0.53027
 H206 H 0.52965 0.29529 0.52971
 H207 H 0.52967 0.32772 0.59055
 H208 H 0.46571 0.27726 0.69930
 H209 H 0.46541 0.24549 0.63391
 H210 H 0.53067 0.20137 0.41831
 C211 C 0.75056 0.24980 0.53538
 C212 C 0.75019 0.25004 0.46448
 C213 C 0.73142 0.22994 0.42439
 C214 C 0.76864 0.27022 0.42371
 C215 C 0.77091 0.26823 0.57568
 C216 C 0.73059 0.23102 0.57591
 C217 C 0.72682 0.20672 0.43512
 C218 C 0.70845 0.18782 0.39940
 C219 C 0.69450 0.19180 0.35162
 C220 C 0.69964 0.21517 0.33951
 C221 C 0.71797 0.23405 0.37539
 C222 C 0.78083 0.26600 0.37072
 C223 C 0.79911 0.28488 0.33464
 C224 C 0.80553 0.30833 0.35093
 C225 C 0.79284 0.31250 0.40252
 C226 C 0.77438 0.29360 0.43804
 C227 C 0.76696 0.28045 0.62892
 C228 C 0.78596 0.29857 0.66500
 C229 C 0.80960 0.30508 0.64866
 C230 C 0.81324 0.29206 0.59628
 C231 C 0.79417 0.27376 0.56098
 C232 C 0.70728 0.22611 0.56510
 C233 C 0.68849 0.20757 0.60070
 C234 C 0.69268 0.19378 0.64854
 C235 C 0.71615 0.19931 0.66099
 C236 C 0.73491 0.21779 0.62513
 H237 H 0.73727 0.20322 0.47185
 H238 H 0.70487 0.17005 0.41025
 H239 H 0.68951 0.21886 0.30212
 H240 H 0.72141 0.25186 0.36588
 H241 H 0.77660 0.24810 0.35858
 H242 H 0.80868 0.28117 0.29534
 H243 H 0.76480 0.29723 0.47753
 H244 H 0.74912 0.27642 0.64122
 H245 H 0.78189 0.30818 0.70304
 H246 H 0.83077 0.29532 0.58356
 H247 H 0.79758 0.26399 0.52163
 H248 H 0.70361 0.23641 0.52822
 H249 H 0.67063 0.20370 0.58957
 H250 H 0.72001 0.18933 0.69850
 H251 H 0.75280 0.22146 0.63473
 H252 H 0.79717 0.33039 0.41521
 O253 O 0.96792 0.51937 -0.12974
 O254 O 0.94150 0.48783 -0.06400
 C255 C 0.94652 0.50351 -0.11227
 O256 O 1.03396 0.47887 -0.11803
 O257 O 1.05974 0.51157 -0.05526
 C258 C 1.05521 0.49490 -0.09969
 O259 O 0.96763 0.44749 -0.12717
 O260 O 0.94138 0.45324 -0.06285
 C261 C 0.94627 0.44222 -0.11021
 O262 O 1.03426 0.55388 -0.12128
 O263 O 1.05986 0.54711 -0.05699
 C264 C 1.05545 0.55903 -0.10261
 Zr265 Zr 1.00080 0.52585 -0.08908
 O266 O 1.00384 0.52691 -0.19864
 O267 O 0.99841 0.55703 -0.09002
 Zr268 Zr 1.00060 0.47396 -0.08711
 O269 O 1.00372 0.47533 -0.19666
 O270 O 0.99789 0.44024 -0.08585
 O271 O 0.97960 0.48937 -0.10259
 O272 O 1.02130 0.51010 -0.10022
 O273 O 1.03330 0.55416 0.11956
 O274 O 1.05941 0.54731 0.05831
 C275 C 1.05464 0.55933 0.10252
 O276 O 0.96643 0.44812 0.12757
 O277 O 0.94085 0.45333 0.05819
 C278 C 0.94525 0.44270 0.10791
 O279 O 1.03298 0.47930 0.12313
 O280 O 1.05918 0.51202 0.06106
 C281 C 1.05436 0.49546 0.10618
 O282 O 0.96680 0.51909 0.12501
 O283 O 0.94101 0.48784 0.05750
 C284 C 0.94555 0.50321 0.10627
 Zr285 Zr 1.00006 0.52603 0.08608
 O286 O 1.00240 0.52783 0.19576
 O287 O 0.99741 0.55707 0.08340
 Zr288 Zr 0.99984 0.47413 0.08820
 O289 O 1.00209 0.47534 0.19792
 O290 O 0.99700 0.44035 0.08799
 Zr291 Zr 0.96492 0.48238 -0.00189
 Zr292 Zr 1.03550 0.51747 0.00071
 O293 O 1.02042 0.51031 0.10063
 O294 O 0.97875 0.48958 0.09991
 O295 O 1.02158 0.54048 -0.00092
 O296 O 0.97958 0.46005 -0.00005
 O297 O 0.97980 0.51940 -0.00233
 O298 O 1.02135 0.48050 0.00149
 H299 H 1.03221 0.51538 -0.14052
 H300 H 0.96884 0.44267 0.00014
 H301 H 1.03091 0.51571 0.14186
 H302 H 0.96914 0.52614 -0.00293
 H303 H 1.01083 0.44143 -0.05625
 H304 H 1.01087 0.44181 0.06270
 H305 H 0.98916 0.47767 0.21554
 H306 H 0.98955 0.51264 0.21415
 H307 H 1.01121 0.56922 0.05723
 H308 H 1.01161 0.56901 -0.06164
 H309 H 0.99054 0.51200 -0.21688
 H310 H 0.99048 0.47691 -0.21558
 O311 O 0.44749 0.48012 0.12575
 O312 O 0.45311 0.51183 0.06014
 C313 C 0.44211 0.49606 0.10793
 O314 O 0.55399 0.52020 0.12104
 O315 O 0.54747 0.48774 0.05768
 C316 C 0.55930 0.50423 0.10289
 O317 O 0.51897 0.55158 0.12852
 O318 O 0.48764 0.54636 0.06169
 C319 C 0.50310 0.55703 0.11043
 O320 O 0.47876 0.44525 0.11907
 O321 O 0.51170 0.45227 0.05751
 C322 C 0.49489 0.44010 0.10161
 Zr323 Zr 0.47406 0.47365 0.08651
 O324 O 0.47530 0.47213 0.19617
 O325 O 0.44037 0.44258 0.08520
 Zr326 Zr 0.52584 0.52537 0.08842
 O327 O 0.52682 0.52353 0.19803
 O328 O 0.55689 0.55908 0.08935
 O329 O 0.48932 0.51003 0.10129
 O330 O 0.51021 0.48918 0.10013
 O331 O 0.47995 0.44630 -0.12227
 O332 O 0.51235 0.45272 -0.05867
 C333 C 0.49596 0.44101 -0.10424
 O334 O 0.51951 0.55247 -0.12617
 O335 O 0.48796 0.54679 -0.05975
 C336 C 0.50351 0.55773 -0.10808
 O337 O 0.55456 0.52123 -0.12027
 O338 O 0.54766 0.48835 -0.05857
 C339 C 0.55970 0.50507 -0.10296
 O340 O 0.44857 0.48142 -0.12913
 O341 O 0.45360 0.51240 -0.06109
 C342 C 0.44308 0.49722 -0.11054
 Zr343 Zr 0.47456 0.47423 -0.08865
 O344 O 0.47590 0.47293 -0.19829
 O345 O 0.44082 0.44320 -0.08827
 Zr346 Zr 0.52630 0.52608 -0.08676
 O347 O 0.52805 0.52529 -0.19642
 O348 O 0.55732 0.55981 -0.08429
 Zr349 Zr 0.48246 0.51751 0.00015
 Zr350 Zr 0.51785 0.48223 -0.00033
 O351 O 0.51076 0.48995 -0.10061
 O352 O 0.48988 0.51075 -0.10118
 O353 O 0.48087 0.45934 -0.00131
 O354 O 0.51948 0.53977 0.00112
 O355 O 0.46024 0.48050 -0.00114
 O356 O 0.54070 0.51921 0.00079
 H357 H 0.51546 0.48368 0.14080
 H358 H 0.52616 0.55716 0.00155
 H359 H 0.51619 0.48478 -0.14156
 H360 H 0.44285 0.47380 -0.00166
 H361 H 0.56896 0.55795 0.06121
 H362 H 0.56942 0.55826 -0.05754
 H363 H 0.51304 0.52333 -0.21495
 H364 H 0.47849 0.48824 -0.21636
 H365 H 0.44231 0.43081 -0.06295
 H366 H 0.44162 0.43083 0.05581
 H367 H 0.47665 0.48689 0.21468
 H368 H 0.51182 0.52174 0.21606
 O369 O 0.48149 0.03282 0.13048
 O370 O 0.51250 0.05900 0.06249
 C371 C 0.49727 0.05419 0.11191
 O372 O 0.52100 -0.03369 0.11793
 O373 O 0.48823 -0.05960 0.05555
 C374 C 0.50493 -0.05497 0.09996
 O375 O 0.55248 0.03272 0.12572
 O376 O 0.54658 0.05879 0.06093
 C377 C 0.55769 0.05404 0.10838
 O378 O 0.44630 -0.03363 0.12399
 O379 O 0.45258 -0.05940 0.05887
 C380 C 0.44098 -0.05484 0.10517
 Zr381 Zr 0.47422 -0.00046 0.08998
 O382 O 0.47355 -0.00325 0.19960
 O383 O 0.44287 0.00161 0.09139
 Zr384 Zr 0.52604 -0.00033 0.08592
 O385 O 0.52559 -0.00321 0.19546
 O386 O 0.55976 0.00241 0.08204
 O387 O 0.51073 0.02070 0.10200
 O388 O 0.48995 -0.02101 0.10027
 O389 O 0.44495 -0.03309 -0.11855
 O390 O 0.45205 -0.05917 -0.05811
 C391 C 0.43986 -0.05440 -0.10179
 O392 O 0.55115 0.03340 -0.12909
 O393 O 0.54600 0.05909 -0.06028
 C394 C 0.55659 0.05461 -0.10991
 O395 O 0.51996 -0.03306 -0.12291
 O396 O 0.48756 -0.05939 -0.05973
 C397 C 0.50407 -0.05446 -0.10518
 O398 O 0.47984 0.03298 -0.12425
 O399 O 0.51139 0.05896 -0.05800
 C400 C 0.49569 0.05427 -0.10593
 Zr401 Zr 0.47318 -0.00014 -0.08499
 O402 O 0.47028 -0.00221 -0.19453
 O403 O 0.44143 0.00084 -0.07455
 Zr404 Zr 0.52510 0.00015 -0.08922
 O405 O 0.52305 -0.00237 -0.19888
 O406 O 0.55887 0.00298 -0.09146
 Zr407 Zr 0.51720 0.03515 0.00100
 Zr408 Zr 0.48212 -0.03549 -0.00036
 O409 O 0.48886 -0.02053 -0.10035
 O410 O 0.50956 0.02116 -0.10043
 O411 O 0.45921 -0.02152 0.00236
 O412 O 0.53957 0.02055 -0.00152
 O413 O 0.48022 0.02037 0.00303
 O414 O 0.51912 -0.02122 -0.00235
 H415 H 0.48486 -0.03176 0.14093
 H416 H 0.55695 0.03130 -0.00219
 H417 H 0.48335 -0.03108 -0.14141
 H418 H 0.47354 0.03107 0.00409
 H419 H 0.55808 -0.01133 0.05552
 H420 H 0.55788 -0.01019 -0.06342
 H421 H 0.52150 0.01104 -0.21641
 H422 H 0.48592 0.00942 -0.21360
 H423 H 0.43594 0.00104 -0.12239
 H424 H 0.43194 -0.00991 0.05688
 H425 H 0.48858 0.01002 0.21736
 H426 H 0.52322 0.00950 0.21465
 C427 C 1.13336 0.49615 0.24587
 C428 C 1.13454 0.47543 0.25336
 C429 C 1.15362 0.47577 0.28746
 C430 C 1.17234 0.49697 0.31600
 C431 C 1.17072 0.51775 0.30788
 C432 C 1.15166 0.51729 0.27337
 C433 C 1.11310 0.49575 0.20946
 C434 C 1.11690 0.51387 0.16279
 C435 C 1.09786 0.51365 0.12893
 C436 C 1.07453 0.49533 0.14117
 C437 C 1.07074 0.47714 0.18768
 C438 C 1.08983 0.47733 0.22134
 H439 H 1.15261 0.45885 0.29386
 H440 H 1.18458 0.53492 0.32474
 H441 H 1.10146 0.52795 0.09339
 H442 H 1.05302 0.46278 0.19836
 H443 H 1.15121 0.53360 0.26846
 H444 H 1.13466 0.52813 0.15192
 H445 H 1.12066 0.45882 0.23255
 H446 H 1.08635 0.46325 0.25758
 C447 C 0.50312 0.63568 0.24978
 C448 C 0.52451 0.65698 0.25982
 C449 C 0.52475 0.67611 0.29309
 C450 C 0.50360 0.67437 0.31717
 C451 C 0.48220 0.65308 0.30698
 C452 C 0.48196 0.63396 0.27359
 C453 C 0.50291 0.61533 0.21471
 C454 C 0.48524 0.60166 0.16607
 C455 C 0.48522 0.58268 0.13248
 C456 C 0.50285 0.57688 0.14695
 C457 C 0.52041 0.59045 0.19609
 C458 C 0.52045 0.60947 0.22947
 H459 H 0.54146 0.69239 0.29917
 H460 H 0.46566 0.65105 0.32597
 H461 H 0.47142 0.57261 0.09496
 H462 H 0.53422 0.58646 0.20862
 H463 H 0.46526 0.61767 0.26750
 H464 H 0.47162 0.60590 0.15311
 H465 H 0.54105 0.65895 0.24105
 H466 H 0.53411 0.61948 0.26741
 C467 C 0.36349 -0.13465 0.24321
 C468 C 0.34199 -0.14908 0.20917
 C469 C 0.32336 -0.16814 0.24374
 C470 C 0.32588 -0.17362 0.31314
 C471 C 0.34784 -0.15916 0.34632
 C472 C 0.36624 -0.13984 0.31201
 C473 C 0.38301 -0.11414 0.20717
 C474 C 0.39443 -0.09178 0.23892
 C475 C 0.41297 -0.07240 0.20519
 C476 C 0.42073 -0.07512 0.13958
 C477 C 0.40930 -0.09753 0.10790
 C478 C 0.39046 -0.11681 0.14112
 H479 H 0.30732 -0.17900 0.21463
 H480 H 0.35066 -0.16192 0.40005
 H481 H 0.42151 -0.05538 0.23102
 H482 H 0.41487 -0.10014 0.05734
 H483 H 0.38273 -0.12893 0.33927
 H484 H 0.38886 -0.08929 0.28968
 H485 H 0.33951 -0.14542 0.15591
 H486 H 0.38198 -0.13392 0.11582
 C487 C 0.86597 0.50090 0.24763
 C488 C 0.86718 0.52208 0.26886
 C489 C 0.84805 0.52172 0.30255
 C490 C 0.82720 0.50018 0.31570
 C491 C 0.82597 0.47898 0.29451
 C492 C 0.84514 0.47934 0.26084
 C493 C 0.88636 0.50135 0.21173
 C494 C 0.88268 0.48608 0.15577
 C495 C 0.90186 0.48667 0.12162
 C496 C 0.92522 0.50261 0.14253
 C497 C 0.92889 0.51784 0.19862
 C498 C 0.90969 0.51720 0.23284
 H499 H 0.84970 0.53834 0.31904
 H500 H 0.81009 0.46211 0.30332
 H501 H 0.89836 0.47471 0.07853
 H502 H 0.94661 0.53023 0.21641
 H503 H 0.84373 0.46269 0.24581
 H504 H 0.86495 0.47388 0.13763
 H505 H 0.88286 0.53900 0.25877
 H506 H 0.91312 0.52895 0.27643
 C507 C 0.49414 0.36041 0.23727
 C508 C 0.47296 0.33899 0.24849
 C509 C 0.47311 0.32033 0.28379
 C510 C 0.49443 0.32268 0.30874
 C511 C 0.51562 0.34407 0.29720
 C512 C 0.51547 0.36270 0.26184
 C513 C 0.49397 0.38043 0.20103
 C514 C 0.51177 0.39432 0.15289
 C515 C 0.51194 0.41352 0.12010
 C516 C 0.49433 0.41932 0.13485
 C517 C 0.47640 0.40527 0.18254
 C518 C 0.47622 0.38604 0.21518
 H519 H 0.45654 0.30396 0.29090
 H520 H 0.53228 0.34659 0.31680
 H521 H 0.52598 0.42389 0.08348
 H522 H 0.46258 0.40923 0.19521
 H523 H 0.53202 0.37912 0.25501
 H524 H 0.52551 0.39025 0.14023
 H525 H 0.45629 0.33657 0.22930
 H526 H 0.46243 0.37585 0.25263
 C527 C 0.63615 0.13308 0.24758
 C528 C 0.65764 0.13339 0.25768
 C529 C 0.67660 0.15247 0.29109
 C530 C 0.67449 0.17165 0.31526
 C531 C 0.65299 0.17133 0.30510
 C532 C 0.63405 0.15227 0.27159
 C533 C 0.61599 0.11281 0.21214
 C534 C 0.60215 0.11666 0.16374
 C535 C 0.58323 0.09760 0.13018
 C536 C 0.57767 0.07422 0.14439
 C537 C 0.59147 0.07038 0.19305
 C538 C 0.61044 0.08946 0.22644
 H539 H 0.69304 0.15235 0.29717
 H540 H 0.65064 0.18562 0.32420
 H541 H 0.57300 0.10124 0.09298
 H542 H 0.58767 0.05262 0.20536
 H543 H 0.61760 0.15237 0.26552
 H544 H 0.60616 0.13446 0.15105
 H545 H 0.65991 0.11902 0.23881
 H546 H 0.62060 0.08592 0.26414
 C547 C 0.49500 0.13298 -0.24349
 C548 C 0.47366 0.13090 -0.26682
 C549 C 0.47342 0.14970 -0.30081
 C550 C 0.49456 0.17136 -0.31236
 C551 C 0.51592 0.17329 -0.28806
 C552 C 0.51610 0.15441 -0.25442
 C553 C 0.49526 0.11283 -0.20827
 C554 C 0.48040 0.08950 -0.23117
 C555 C 0.48057 0.07053 -0.19806
 C556 C 0.49567 0.07443 -0.14138
 C557 C 0.51063 0.09777 -0.11865
 C558 C 0.51039 0.11674 -0.15164
 H559 H 0.45634 0.14731 -0.31530
 H560 H 0.53286 0.18895 -0.29761
 H561 H 0.46891 0.05280 -0.21719
 H562 H 0.52241 0.10142 -0.07494
 H563 H 0.53293 0.15642 -0.23844
 H564 H 0.46882 0.08591 -0.27535
 H565 H 0.45700 0.11480 -0.25773
 H566 H 0.52182 0.13446 -0.13210
 C567 C 0.63839 0.50444 -0.24054
 C568 C 0.63597 0.48295 -0.26363
 C569 C 0.65447 0.48242 -0.29859
 C570 C 0.67615 0.50343 -0.31149
 C571 C 0.67838 0.52495 -0.28753
 C572 C 0.65980 0.52540 -0.25284
 C573 C 0.61859 0.50496 -0.20414
 C574 C 0.61297 0.52267 -0.21917
 C575 C 0.59402 0.52287 -0.18595
 C576 C 0.58026 0.50537 -0.13683
 C577 C 0.58607 0.48781 -0.12128
 C578 C 0.60498 0.48760 -0.15459
 H579 H 0.65177 0.46524 -0.31300
 H580 H 0.69407 0.54179 -0.29771
 H581 H 0.59003 0.53663 -0.19928
 H582 H 0.57592 0.47409 -0.08357
 H583 H 0.66225 0.54226 -0.23539
 H584 H 0.62297 0.53613 -0.25767
 H585 H 0.61962 0.46647 -0.25519
 H586 H 0.60908 0.47392 -0.14118
 C587 C 0.86768 0.36312 -0.24920
 C588 C 0.84570 0.35014 -0.21587
 C589 C 0.82666 0.33111 -0.24915
 C590 C 0.82902 0.32424 -0.31691
 C591 C 0.85130 0.33730 -0.34970
 C592 C 0.87023 0.35646 -0.31650
 C593 C 0.88787 0.38352 -0.21393
 C594 C 0.91111 0.38784 -0.22232
 C595 C 0.93007 0.40698 -0.18917
 C596 C 0.92623 0.42219 -0.14639
 C597 C 0.90300 0.41788 -0.13793
 C598 C 0.88407 0.39884 -0.17151
 H599 H 0.81043 0.32130 -0.21993
 H600 H 0.85408 0.33365 -0.40254
 H601 H 0.94771 0.40968 -0.19644
 H602 H 0.89942 0.42930 -0.10562
 H603 H 0.88677 0.36640 -0.34437
 H604 H 0.91464 0.37619 -0.25368
 H605 H 0.84327 0.35441 -0.16330
 H606 H 0.86646 0.39629 -0.16482
 C607 C 0.50602 -0.13244 -0.24280
 C608 C 0.50068 -0.15329 -0.20686
 C609 C 0.50075 -0.17211 -0.24129
 C610 C 0.50619 -0.17048 -0.31241
 C611 C 0.51162 -0.14960 -0.34828
 C612 C 0.51151 -0.13081 -0.31390
 C613 C 0.50573 -0.11250 -0.20653
 C614 C 0.52299 -0.08897 -0.22127
 C615 C 0.52251 -0.07018 -0.18818
 C616 C 0.50475 -0.07444 -0.13947
 C617 C 0.48758 -0.09800 -0.12427
 C618 C 0.48807 -0.11680 -0.15744
 H619 H 0.49681 -0.18785 -0.21207
 H620 H 0.51548 -0.14798 -0.40335
 H621 H 0.53609 -0.05228 -0.20090
 H622 H 0.47362 -0.10195 -0.08710
 H623 H 0.51531 -0.11515 -0.34334
 H624 H 0.53704 -0.08508 -0.25802
 H625 H 0.49673 -0.15496 -0.15185
 H626 H 0.47435 -0.13471 -0.14556
 C627 C 0.36595 0.49940 -0.25310
 C628 C 0.34608 0.47816 -0.27455
 C629 C 0.32715 0.47838 -0.30771
 C630 C 0.32758 0.49983 -0.32007
 C631 C 0.34747 0.52109 -0.29877
 C632 C 0.36644 0.52088 -0.26567
 C633 C 0.38597 0.49909 -0.21730
 C634 C 0.39741 0.51429 -0.16104
 C635 C 0.41598 0.51374 -0.12665
 C636 C 0.42354 0.49793 -0.14759
 C637 C 0.41218 0.48282 -0.20410
 C638 C 0.39364 0.48342 -0.23859
 H639 H 0.31224 0.46172 -0.32432
 H640 H 0.34827 0.53789 -0.30699
 H641 H 0.42428 0.52560 -0.08323
 H642 H 0.41763 0.47054 -0.22190
 H643 H 0.38160 0.53757 -0.25048
 H644 H 0.39172 0.52634 -0.14275
 H645 H 0.34501 0.46130 -0.26494
 H646 H 0.38544 0.47175 -0.28242
 C647 C 1.13503 0.63771 -0.23940
 C648 C 1.15404 0.63535 -0.26340
 C649 C 1.17292 0.65390 -0.29877
 C650 C 1.17348 0.67555 -0.31106
 C651 C 1.15428 0.67773 -0.28599
 C652 C 1.13540 0.65911 -0.25093
 C653 C 1.11470 0.61781 -0.20332
 C654 C 1.09141 0.61229 -0.21835
 C655 C 1.07221 0.59335 -0.18530
 C656 C 1.07585 0.57949 -0.13634
 C657 C 1.09918 0.58514 -0.12089
 C658 C 1.11838 0.60406 -0.15410
 H659 H 1.18738 0.65128 -0.31409
 H660 H 1.15303 0.69339 -0.29565
 H661 H 1.05450 0.58949 -0.19859
 H662 H 1.10266 0.57488 -0.08335
 H663 H 1.12103 0.66150 -0.23272
 H664 H 1.08800 0.62237 -0.25667
 H665 H 1.15420 0.61900 -0.25549
 H666 H 1.13614 0.60807 -0.14084
 C667 C 0.86834 0.50495 -0.25071
 C668 C 0.84644 0.49614 -0.21703
 C669 C 0.82754 0.49655 -0.24975
 C670 C 0.82995 0.50602 -0.31724
 C671 C 0.85215 0.51503 -0.35039
 C672 C 0.87094 0.51437 -0.31778
 C673 C 0.88842 0.50439 -0.21594
 C674 C 0.91174 0.52319 -0.22437
 C675 C 0.93060 0.52276 -0.19142
 C676 C 0.92659 0.50362 -0.14875
 C677 C 0.90329 0.48479 -0.14037
 C678 C 0.88445 0.48513 -0.17379
 H679 H 0.81138 0.49027 -0.22027
 H680 H 0.85494 0.52162 -0.40309
 H681 H 0.94830 0.53764 -0.19859
 H682 H 0.89959 0.46971 -0.10815
 H683 H 0.88740 0.52082 -0.34592
 H684 H 0.91540 0.53848 -0.25552
 H685 H 0.84400 0.48930 -0.16461
 H686 H 0.86678 0.47017 -0.16710
 C687 C 0.49660 0.36254 -0.24254
 C688 C 0.47558 0.34111 -0.25384
 C689 C 0.47587 0.32246 -0.28845
 C690 C 0.49729 0.32464 -0.31330
 C691 C 0.51836 0.34636 -0.30146
 C692 C 0.51799 0.36493 -0.26653
 C693 C 0.49621 0.38239 -0.20625
 C694 C 0.51364 0.39599 -0.15695
 C695 C 0.51342 0.41486 -0.12341
 C696 C 0.49580 0.42061 -0.13856
 C697 C 0.47828 0.40690 -0.18761
 C698 C 0.47847 0.38799 -0.22101
 H699 H 0.45898 0.30674 -0.29785
 H700 H 0.53547 0.34901 -0.31668
 H701 H 0.52717 0.42499 -0.08580
 H702 H 0.46448 0.41085 -0.20065
 H703 H 0.53450 0.38131 -0.25881
 H704 H 0.52734 0.39190 -0.14385
 H705 H 0.45880 0.33870 -0.23567
 H706 H 0.46497 0.37800 -0.25935
 C707 C 0.63430 0.13449 -0.24908
 C708 C 0.63409 0.15572 -0.25934
 C709 C 0.65305 0.17499 -0.29219
 C710 C 0.67265 0.17346 -0.31562
 C711 C 0.67285 0.15223 -0.30534
 C712 C 0.65392 0.13299 -0.27239
 C713 C 0.61419 0.11401 -0.21398
 C714 C 0.60613 0.09079 -0.23727
 C715 C 0.58741 0.07151 -0.20370
 C716 C 0.57626 0.07501 -0.14616
 C717 C 0.58423 0.09826 -0.12316
 C718 C 0.60298 0.11751 -0.15661
 H719 H 0.65245 0.19116 -0.29871
 H720 H 0.68753 0.15037 -0.32358
 H721 H 0.58164 0.05387 -0.22303
 H722 H 0.57613 0.10162 -0.07883
 H723 H 0.65476 0.11700 -0.26455
 H724 H 0.61414 0.08752 -0.28198
 H725 H 0.61913 0.15737 -0.24266
 H726 H 0.60898 0.13513 -0.13677
 C727 C 1.13430 0.49444 -0.23477
 C728 C 1.13466 0.47333 -0.24569
 C729 C 1.15339 0.47354 -0.28152
 C730 C 1.17217 0.49485 -0.30731
 C731 C 1.17188 0.51599 -0.29594
 C732 C 1.15317 0.51578 -0.26003
 C733 C 1.11411 0.49418 -0.19839
 C734 C 1.11796 0.51201 -0.15056
 C735 C 1.09888 0.51210 -0.11786
 C736 C 1.07549 0.49437 -0.13244
 C737 C 1.07168 0.47640 -0.17976
 C738 C 1.09077 0.47630 -0.21228
 H739 H 1.15329 0.45702 -0.28847
 H740 H 1.18588 0.53264 -0.31613
 H741 H 1.10249 0.52618 -0.08156
 H742 H 1.05392 0.46249 -0.19228
 H743 H 1.15321 0.53228 -0.25341
 H744 H 1.13577 0.52585 -0.13815
 H745 H 1.12055 0.45666 -0.22595
 H746 H 1.08722 0.46248 -0.24951
 C747 C 0.50150 0.63537 -0.24807
 C748 C 0.52253 0.65685 -0.25890
 C749 C 0.52221 0.67576 -0.29190
 C750 C 0.50077 0.67381 -0.31555
 C751 C 0.47970 0.65204 -0.30431
 C752 C 0.48009 0.63319 -0.27101
 C753 C 0.50192 0.61534 -0.21272
 C754 C 0.48456 0.60160 -0.16335
 C755 C 0.48508 0.58291 -0.12951
 C756 C 0.50296 0.57750 -0.14436
 C757 C 0.52025 0.59118 -0.19407
 C758 C 0.51975 0.60991 -0.22777
 H759 H 0.53911 0.69152 -0.30099
 H760 H 0.46257 0.64952 -0.31867
 H761 H 0.47146 0.57275 -0.09158
 H762 H 0.53422 0.58746 -0.20694
 H763 H 0.46357 0.61679 -0.26361
 H764 H 0.47076 0.60552 -0.15006
 H765 H 0.53932 0.65912 -0.24145
 H766 H 0.53319 0.61999 -0.26624
 C767 C 0.36020 -0.13301 -0.23882
 C768 C 0.34063 -0.13139 -0.26176
 C769 C 0.32206 -0.15014 -0.29743
 C770 C 0.32231 -0.17130 -0.31082
 C771 C 0.34202 -0.17279 -0.28689
 C772 C 0.36064 -0.15394 -0.25183
 C773 C 0.38025 -0.11284 -0.20240
 C774 C 0.39212 -0.11686 -0.14772
 C775 C 0.41139 -0.09792 -0.11490
 C776 C 0.41914 -0.07449 -0.13555
 C777 C 0.40710 -0.07046 -0.18965
 C778 C 0.38796 -0.08940 -0.22281
 H779 H 0.30712 -0.14815 -0.31174
 H780 H 0.34387 -0.18804 -0.29787
 H781 H 0.42021 -0.10168 -0.07335
 H782 H 0.41268 -0.05265 -0.20720
 H783 H 0.37572 -0.15559 -0.23644
 H784 H 0.38643 -0.13466 -0.12992
 H785 H 0.33946 -0.11572 -0.25120
 H786 H 0.37950 -0.08567 -0.26544
 C787 C 0.50406 -0.13450 0.23723
 C788 C 0.52508 -0.13340 0.25983
 C789 C 0.52440 -0.15241 0.29536
 C790 C 0.50269 -0.17301 0.30903
 C791 C 0.48167 -0.17417 0.28614
 C792 C 0.48235 -0.15513 0.25068
 C793 C 0.50476 -0.11409 0.20063
 C794 C 0.48945 -0.11774 0.14472
 C795 C 0.48971 -0.09856 0.11150
 C796 C 0.50533 -0.07525 0.13334
 C797 C 0.52088 -0.07158 0.18861
 C798 C 0.52056 -0.09077 0.22193
 H799 H 0.54089 -0.15082 0.31301
 H800 H 0.46469 -0.18988 0.29521
 H801 H 0.47760 -0.10204 0.06879
 H802 H 0.53306 -0.05389 0.20701
 H803 H 0.46582 -0.15645 0.23470
 H804 H 0.47734 -0.13545 0.12632
 H805 H 0.54211 -0.11787 0.24966
 H806 H 0.53236 -0.08736 0.26541
 C807 C 0.36266 0.49531 0.24491
 C808 C 0.36415 0.51648 0.26756
 C809 C 0.34497 0.51619 0.30078
 C810 C 0.32383 0.49472 0.31201
 C811 C 0.32231 0.47356 0.28911
 C812 C 0.34152 0.47385 0.25596
 C813 C 0.38312 0.49561 0.21014
 C814 C 0.38923 0.47831 0.22576
 C815 C 0.40845 0.47853 0.19296
 C816 C 0.42197 0.49604 0.14359
 C817 C 0.41589 0.51341 0.12815
 C818 C 0.39671 0.51320 0.16111
 H819 H 0.34685 0.53275 0.31889
 H820 H 0.30616 0.45678 0.29608
 H821 H 0.41265 0.46492 0.20625
 H822 H 0.42589 0.52715 0.09036
 H823 H 0.33971 0.45729 0.23812
 H824 H 0.37931 0.46472 0.26402
 H825 H 0.38033 0.53325 0.26076
 H826 H 0.39228 0.52662 0.14743
 C827 C 1.13337 0.63873 0.23963
 C828 C 1.13367 0.66018 0.25034
 C829 C 1.15250 0.67887 0.28543
 C830 C 1.17143 0.67651 0.31069
 C831 C 1.17115 0.65507 0.29978
 C832 C 1.15235 0.63641 0.26462
 C833 C 1.11323 0.61873 0.20325
 C834 C 1.11722 0.60486 0.15537
 C835 C 1.09823 0.58573 0.12222
 C836 C 1.07480 0.57999 0.13633
 C837 C 1.07084 0.59401 0.18384
 C838 C 1.08984 0.61316 0.21684
 H839 H 1.15237 0.69528 0.29206
 H840 H 1.18526 0.65255 0.31963
 H841 H 1.10197 0.57538 0.08579
 H842 H 1.05304 0.59009 0.19602
 H843 H 1.15245 0.61997 0.25819
 H844 H 1.13506 0.60890 0.14313
 H845 H 1.11947 0.66262 0.23081
 H846 H 1.08619 0.62335 0.25407
 C847 C 0.49916 0.13345 0.25256
 C848 C 0.49640 0.15024 0.21422
 C849 C 0.49662 0.16937 0.24748
 C850 C 0.49984 0.17222 0.31966
 C851 C 0.50276 0.15551 0.35798
 C852 C 0.50229 0.13624 0.32479
 C853 C 0.49881 0.11312 0.21716
 C854 C 0.48574 0.09015 0.24474
 C855 C 0.48514 0.07096 0.21059
 C856 C 0.49783 0.07440 0.14856
 C857 C 0.51108 0.09744 0.12145
 C858 C 0.51147 0.11656 0.15521
 H859 H 0.49448 0.18208 0.21671
 H860 H 0.50506 0.15719 0.41378
 H861 H 0.47482 0.05345 0.23290
 H862 H 0.52104 0.10074 0.07373
 H863 H 0.50464 0.12365 0.35547
 H864 H 0.47567 0.08700 0.29217
 H865 H 0.49377 0.14840 0.15855
 H866 H 0.52188 0.13411 0.13322
 C867 C 0.63870 0.50481 0.23937
 C868 C 0.63633 0.48352 0.26469
 C869 C 0.65498 0.48342 0.30005
 C870 C 0.67644 0.50459 0.31077
 C871 C 0.67885 0.52586 0.28505
 C872 C 0.66018 0.52597 0.24980
 C873 C 0.61870 0.50495 0.20313
 C874 C 0.61313 0.52274 0.21705
 C875 C 0.59396 0.52259 0.18423
 C876 C 0.57994 0.50467 0.13657
 C877 C 0.58568 0.48701 0.12212
 C878 C 0.60482 0.48713 0.15513
 H879 H 0.65242 0.46681 0.32024
 H880 H 0.69529 0.54240 0.29149
 H881 H 0.59005 0.53646 0.19664
 H882 H 0.57532 0.47297 0.08556
 H883 H 0.66264 0.54259 0.23000
 H884 H 0.62333 0.53654 0.25440
 H885 H 0.61986 0.46700 0.25841
 H886 H 0.60887 0.47335 0.14273
 C887 C 0.86487 0.36603 0.24766
 C888 C 0.86218 0.36642 0.31993
 C889 C 0.84274 0.34782 0.35332
 C890 C 0.82574 0.32836 0.31517
 C891 C 0.82844 0.32796 0.24292
 C892 C 0.84775 0.34666 0.20945
 C893 C 0.88549 0.38572 0.21217
 C894 C 0.88241 0.39516 0.15010
 C895 C 0.90180 0.41370 0.11649
 C896 C 0.92476 0.42307 0.14390
 C897 C 0.92783 0.41357 0.20594
 C898 C 0.90837 0.39515 0.23990
 H899 H 0.84120 0.34845 0.40917
 H900 H 0.81551 0.31323 0.21227
 H901 H 0.89878 0.42059 0.06876
 H902 H 0.94526 0.42042 0.22851
 H903 H 0.84950 0.34583 0.15375
 H904 H 0.86493 0.38838 0.12797
 H905 H 0.87502 0.38122 0.35052
 H906 H 0.91126 0.38805 0.28737
   
