data_POSCAR
  _audit_creation_date              2014-09-24
  _audit_creation_method            'ToBaCCo'
  _symmetry_space_group_name_H-M    'P1'
  _symmetry_Int_Tables_number       1
  _symmetry_cell_setting            triclinic
  loop_
  _symmetry_equiv_pos_as_xyz
 x,y,z
_cell_length_a 12.8046
_cell_length_b 18.6613
_cell_length_c 16.3798
_cell_angle_alpha 90.000000
_cell_angle_beta 90.000000
_cell_angle_gamma 90.000000
loop_
  _atom_site_label
  _atom_site_type_symbol
  _atom_site_fract_x
  _atom_site_fract_y
  _atom_site_fract_z
B1 B -0.05032 -0.06752 0.04167
 B2 B 0.07690 -0.04839 0.05184
 B3 B 0.02934 -0.07469 -0.03865
 B4 B -0.09179 -0.04090 -0.05121
 B5 B -0.11794 0.00855 0.03398
 B6 B -0.01273 0.00239 0.09830
 B7 B 0.05032 0.06752 -0.04167
 B8 B -0.07690 0.04839 -0.05184
 B9 B -0.02934 0.07469 0.03865
 B10 B 0.09179 0.04090 0.05121
 B11 B 0.11794 -0.00855 -0.03398
 B12 B 0.01273 -0.00239 -0.09830
 B13 B 0.53310 0.46310 0.58315
 B14 B 0.41164 0.45618 0.54497
 B15 B 0.45455 0.53580 0.58100
 B16 B 0.58236 0.54355 0.55753
 B17 B 0.61793 0.46822 0.50508
 B18 B 0.51102 0.41410 0.49921
 B19 B 0.46690 0.53690 0.41685
 B20 B 0.58836 0.54382 0.45503
 B21 B 0.54545 0.46420 0.41900
 B22 B 0.41764 0.45645 0.44248
 B23 B 0.38207 0.53178 0.49492
 B24 B 0.48898 0.58590 0.50079
 B25 B 0.55032 0.06752 0.54167
 B26 B 0.42310 0.04839 0.55184
 B27 B 0.47066 0.07469 0.46135
 B28 B 0.59179 0.04090 0.44879
 B29 B 0.61794 -0.00855 0.53398
 B30 B 0.51273 -0.00239 0.59830
 B31 B 0.44968 -0.06752 0.45833
 B32 B 0.57690 -0.04839 0.44816
 B33 B 0.52934 -0.07469 0.53865
 B34 B 0.40821 -0.04090 0.55121
 B35 B 0.38206 0.00855 0.46602
 B36 B 0.48727 0.00239 0.40170
 B37 B -0.03310 0.53690 0.08315
 B38 B 0.08836 0.54382 0.04497
 B39 B 0.04545 0.46420 0.08100
 B40 B -0.08236 0.45645 0.05753
 B41 B -0.11793 0.53178 0.00508
 B42 B -0.01102 0.58590 -0.00079
 B43 B 0.03310 0.46310 -0.08315
 B44 B -0.08836 0.45618 -0.04497
 B45 B -0.04545 0.53580 -0.08100
 B46 B 0.08236 0.54355 -0.05752
 B47 B 0.11793 0.46822 -0.00508
 B48 B 0.01102 0.41410 0.00079
 B49 B 0.05032 0.43248 0.45833
 B50 B -0.07690 0.45161 0.44816
 B51 B -0.02934 0.42531 0.53865
 B52 B 0.09179 0.45910 0.55121
 B53 B 0.11794 0.50855 0.46602
 B54 B 0.01273 0.50239 0.40170
 B55 B -0.05032 0.56752 0.54167
 B56 B 0.07690 0.54839 0.55184
 B57 B 0.02934 0.57469 0.46135
 B58 B -0.09179 0.54090 0.44879
 B59 B -0.11794 0.49145 0.53398
 B60 B -0.01273 0.49761 0.59830
 B61 B 0.46690 -0.03690 -0.08315
 B62 B 0.58836 -0.04382 -0.04497
 B63 B 0.54545 0.03580 -0.08100
 B64 B 0.41764 0.04355 -0.05752
 B65 B 0.38207 -0.03178 -0.00508
 B66 B 0.48898 -0.08590 0.00079
 B67 B 0.53310 0.03690 0.08315
 B68 B 0.41164 0.04382 0.04497
 B69 B 0.45455 -0.03580 0.08100
 B70 B 0.58236 -0.04355 0.05753
 B71 B 0.61793 0.03178 0.00508
 B72 B 0.51102 0.08590 -0.00079
 B73 B 0.44968 0.56752 -0.04167
 B74 B 0.57690 0.54839 -0.05184
 B75 B 0.52934 0.57469 0.03865
 B76 B 0.40821 0.54090 0.05121
 B77 B 0.38206 0.49145 -0.03398
 B78 B 0.48727 0.49761 -0.09830
 B79 B 0.55032 0.43248 0.04167
 B80 B 0.42310 0.45161 0.05184
 B81 B 0.47066 0.42531 -0.03865
 B82 B 0.59179 0.45910 -0.05121
 B83 B 0.61794 0.50855 0.03398
 B84 B 0.51273 0.50239 0.09830
 B85 B 0.03310 0.03690 0.41685
 B86 B -0.08836 0.04382 0.45503
 B87 B -0.04545 -0.03580 0.41900
 B88 B 0.08236 -0.04355 0.44248
 B89 B 0.11793 0.03178 0.49492
 B90 B 0.01102 0.08590 0.50079
 B91 B -0.03310 -0.03690 0.58315
 B92 B 0.08836 -0.04382 0.54497
 B93 B 0.04545 0.03580 0.58100
 B94 B -0.08236 0.04355 0.55753
 B95 B -0.11793 -0.03178 0.50508
 B96 B -0.01102 -0.08590 0.49921
 B97 B 0.78005 0.17478 0.29526
 B98 B 0.82844 0.19599 0.20323
 B99 B 0.70354 0.17114 0.21450
 B100 B 0.65699 0.20529 0.30306
 B101 B 0.75767 0.25095 0.34682
 B102 B 0.86444 0.24373 0.28482
 B103 B 0.71205 0.31380 0.20013
 B104 B 0.66578 0.29561 0.29300
 B105 B 0.79159 0.31807 0.28244
 B106 B 0.83589 0.28455 0.19365
 B107 B 0.73536 0.23760 0.14990
 B108 B 0.62859 0.24493 0.21249
 B109 B 0.71995 0.82522 0.79526
 B110 B 0.67156 0.80401 0.70323
 B111 B 0.79646 0.82886 0.71450
 B112 B 0.84301 0.79471 0.80306
 B113 B 0.74233 0.74905 0.84682
 B114 B 0.63556 0.75627 0.78482
 B115 B 0.78795 0.68620 0.70013
 B116 B 0.83422 0.70439 0.79300
 B117 B 0.70841 0.68193 0.78244
 B118 B 0.66411 0.71545 0.69365
 B119 B 0.76464 0.76240 0.64990
 B120 B 0.87141 0.75507 0.71249
 B121 B 0.29159 0.18193 0.71756
 B122 B 0.16578 0.20439 0.70700
 B123 B 0.21205 0.18620 0.79987
 B124 B 0.33589 0.21545 0.80635
 B125 B 0.36444 0.25627 0.71518
 B126 B 0.25767 0.24905 0.65318
 B127 B 0.20354 0.32886 0.78550
 B128 B 0.32844 0.30401 0.79677
 B129 B 0.28005 0.32522 0.70474
 B130 B 0.15699 0.29471 0.69694
 B131 B 0.12859 0.25507 0.78752
 B132 B 0.23536 0.26240 0.85010
 B133 B 0.21995 0.67478 0.20474
 B134 B 0.17156 0.69599 0.29677
 B135 B 0.29646 0.67114 0.28550
 B136 B 0.34301 0.70529 0.19694
 B137 B 0.24233 0.75095 0.15318
 B138 B 0.13556 0.74373 0.21518
 B139 B 0.28795 0.81380 0.29987
 B140 B 0.33422 0.79561 0.20700
 B141 B 0.20841 0.81807 0.21756
 B142 B 0.16411 0.78455 0.30635
 B143 B 0.26464 0.73760 0.35010
 B144 B 0.37141 0.74493 0.28752
 B145 B 0.29646 0.82886 0.78550
 B146 B 0.17156 0.80401 0.79677
 B147 B 0.21995 0.82522 0.70474
 B148 B 0.34301 0.79471 0.69694
 B149 B 0.37141 0.75507 0.78752
 B150 B 0.26464 0.76240 0.85010
 B151 B 0.20841 0.68193 0.71756
 B152 B 0.33422 0.70439 0.70700
 B153 B 0.28795 0.68620 0.79987
 B154 B 0.16411 0.71545 0.80635
 B155 B 0.13556 0.75627 0.71518
 B156 B 0.24233 0.74905 0.65318
 B157 B 0.21205 0.31380 0.29987
 B158 B 0.16578 0.29561 0.20700
 B159 B 0.29159 0.31807 0.21756
 B160 B 0.33589 0.28455 0.30635
 B161 B 0.23536 0.23760 0.35010
 B162 B 0.12859 0.24493 0.28752
 B163 B 0.28005 0.17478 0.20474
 B164 B 0.32844 0.19599 0.29677
 B165 B 0.20354 0.17114 0.28550
 B166 B 0.15699 0.20529 0.19694
 B167 B 0.25767 0.25095 0.15318
 B168 B 0.36444 0.24373 0.21518
 B169 B 0.79646 0.67114 0.21450
 B170 B 0.67156 0.69599 0.20323
 B171 B 0.71995 0.67478 0.29526
 B172 B 0.84301 0.70529 0.30306
 B173 B 0.87141 0.74493 0.21249
 B174 B 0.76464 0.73760 0.14990
 B175 B 0.70841 0.81807 0.28244
 B176 B 0.83422 0.79561 0.29300
 B177 B 0.78795 0.81380 0.20013
 B178 B 0.66411 0.78455 0.19365
 B179 B 0.63556 0.74373 0.28482
 B180 B 0.74233 0.75095 0.34682
 B181 B 0.71205 0.18620 0.70013
 B182 B 0.66578 0.20439 0.79300
 B183 B 0.79159 0.18193 0.78244
 B184 B 0.83589 0.21545 0.69365
 B185 B 0.73536 0.26240 0.64990
 B186 B 0.62859 0.25507 0.71249
 B187 B 0.78005 0.32522 0.79526
 B188 B 0.82844 0.30401 0.70323
 B189 B 0.70354 0.32886 0.71450
 B190 B 0.65699 0.29471 0.80306
 B191 B 0.75767 0.24905 0.84682
 B192 B 0.86444 0.25627 0.78482
 C193 C 0.06656 0.41642 0.84045
 C194 C 0.16685 0.40365 0.82210
 H195 H 0.01009 0.37758 0.82033
 H196 H 0.22709 0.43888 0.84568
 C197 C 0.43344 0.58358 0.34045
 C198 C 0.33315 0.59635 0.32210
 H199 H 0.48991 0.62242 0.32033
 H200 H 0.27291 0.56112 0.34568
 C201 C 0.93344 0.91642 0.65955
 C202 C 0.83315 0.90365 0.67790
 H203 H 0.98991 0.87758 0.67967
 H204 H 0.77291 0.93888 0.65432
 C205 C 0.56656 0.08358 0.15955
 C206 C 0.66685 0.09635 0.17790
 H207 H 0.51009 0.12242 0.17967
 H208 H 0.72709 0.06112 0.15432
 C209 C 0.82872 0.09663 0.41717
 C210 C 0.81420 0.10245 0.33687
 H211 H 0.79976 0.13856 0.45732
 H212 H 0.84329 0.06128 0.29675
 C213 C 0.32872 0.40337 0.58283
 C214 C 0.31420 0.39755 0.66313
 H215 H 0.29976 0.36144 0.54268
 H216 H 0.34329 0.43872 0.70325
 C217 C 0.67128 0.90337 0.91717
 C218 C 0.68580 0.89755 0.83687
 H219 H 0.70024 0.86144 0.95732
 H220 H 0.65671 0.93872 0.79675
 C221 C 0.17128 0.59663 0.08283
 C222 C 0.18580 0.60245 0.16313
 H223 H 0.20024 0.63856 0.04268
 H224 H 0.15671 0.56128 0.20325
 C225 C 0.40567 0.91944 0.15562
 C226 C 0.41342 0.84677 0.15970
 H227 H 0.34985 0.94612 0.19435
 H228 H 0.46703 0.81860 0.11980
 C229 C 0.59433 0.41944 0.34438
 C230 C 0.58658 0.34677 0.34030
 H231 H 0.65015 0.44612 0.30565
 H232 H 0.53297 0.31860 0.38020
 C233 C 0.90567 0.58056 0.84438
 C234 C 0.91342 0.65323 0.84030
 H235 H 0.84985 0.55388 0.80565
 H236 H 0.96703 0.68140 0.88020
 C237 C 0.09433 0.08056 0.65562
 C238 C 0.08658 0.15323 0.65970
 H239 H 0.15015 0.05388 0.69435
 H240 H 0.03297 0.18140 0.61980
 C241 C 0.10203 0.36837 0.41297
 C242 C 0.17173 0.37835 0.35176
 H243 H 0.07516 0.31528 0.43013
 H244 H 0.19850 0.43148 0.33479
 C245 C 0.39797 0.63163 0.91297
 C246 C 0.32827 0.62165 0.85176
 H247 H 0.42484 0.68472 0.93013
 H248 H 0.30150 0.56852 0.83479
 C249 C 0.60203 0.13163 0.58703
 C250 C 0.67173 0.12165 0.64824
 H251 H 0.57516 0.18472 0.56987
 H252 H 0.69850 0.06852 0.66521
 C253 C 0.89797 0.86837 0.08703
 C254 C 0.82827 0.87835 0.14824
 H255 H 0.92484 0.81528 0.06987
 H256 H 0.80150 0.93148 0.16521
 C257 C 0.84488 0.09965 0.90084
 C258 C 0.84569 0.11204 0.81965
 H259 H 0.79326 0.13074 0.93964
 H260 H 0.89721 0.08136 0.78024
 C261 C 0.15512 0.59965 0.59916
 C262 C 0.15431 0.61204 0.68035
 H263 H 0.20674 0.63074 0.56036
 H264 H 0.10279 0.58136 0.71976
 C265 C 0.65512 0.90035 0.40084
 C266 C 0.65431 0.88796 0.31965
 H267 H 0.70674 0.86926 0.43964
 H268 H 0.60279 0.91864 0.28024
 C269 C 0.34488 0.40035 0.09916
 C270 C 0.34569 0.38796 0.18035
 H271 H 0.29326 0.36926 0.06036
 H272 H 0.39721 0.41864 0.21976
 C273 C 0.56865 0.64652 0.07985
 C274 C 0.58920 0.64659 0.16034
 H275 H 0.59877 0.68883 0.04093
 H276 H 0.55769 0.60466 0.19809
 C277 C 0.06865 0.85348 0.92015
 C278 C 0.08920 0.85341 0.83966
 H279 H 0.09877 0.81117 0.95907
 H280 H 0.05769 0.89534 0.80191
 C281 C 0.43135 0.14652 0.42015
 C282 C 0.41080 0.14659 0.33966
 H283 H 0.40123 0.18883 0.45907
 H284 H 0.44231 0.10466 0.30191
 C285 C 0.93135 0.35348 0.57985
 C286 C 0.91080 0.35341 0.66034
 H287 H 0.90123 0.31117 0.54093
 H288 H 0.94231 0.39534 0.69809
 C289 C 0.93344 0.58358 0.15955
 C290 C 0.83315 0.59635 0.17790
 H291 H 0.98991 0.62242 0.17967
 H292 H 0.77291 0.56112 0.15432
 C293 C 0.56656 0.41642 0.65955
 C294 C 0.66685 0.40365 0.67790
 H295 H 0.51009 0.37758 0.67967
 H296 H 0.72709 0.43888 0.65432
 C297 C 0.06656 0.08358 0.34045
 C298 C 0.16685 0.09635 0.32210
 H299 H 0.01009 0.12242 0.32033
 H300 H 0.22709 0.06112 0.34568
 C301 C 0.43344 0.91642 0.84045
 C302 C 0.33315 0.90365 0.82210
 H303 H 0.48991 0.87758 0.82033
 H304 H 0.27291 0.93888 0.84568
 C305 C 0.17128 0.90337 0.58283
 C306 C 0.18580 0.89755 0.66313
 H307 H 0.20024 0.86144 0.54268
 H308 H 0.15671 0.93872 0.70325
 C309 C 0.67128 0.59663 0.41717
 C310 C 0.68580 0.60245 0.33687
 H311 H 0.70024 0.63856 0.45732
 H312 H 0.65671 0.56128 0.29675
 C313 C 0.32872 0.09663 0.08283
 C314 C 0.31420 0.10245 0.16313
 H315 H 0.29976 0.13856 0.04268
 H316 H 0.34329 0.06128 0.20325
 C317 C 0.82872 0.40337 0.91717
 C318 C 0.81420 0.39755 0.83687
 H319 H 0.79976 0.36144 0.95732
 H320 H 0.84329 0.43872 0.79675
 C321 C 0.59433 0.08056 0.84438
 C322 C 0.58658 0.15323 0.84030
 H323 H 0.65015 0.05388 0.80565
 H324 H 0.53297 0.18140 0.88020
 C325 C 0.40567 0.58056 0.65562
 C326 C 0.41342 0.65323 0.65970
 H327 H 0.34985 0.55388 0.69435
 H328 H 0.46703 0.68140 0.61980
 C329 C 0.09433 0.41944 0.15562
 C330 C 0.08658 0.34677 0.15970
 H331 H 0.15015 0.44612 0.19435
 H332 H 0.03297 0.31860 0.11980
 C333 C 0.90567 0.91944 0.34438
 C334 C 0.91342 0.84677 0.34030
 H335 H 0.84985 0.94612 0.30565
 H336 H 0.96703 0.81860 0.38020
 C337 C 0.89797 0.63163 0.58703
 C338 C 0.82827 0.62165 0.64824
 H339 H 0.92484 0.68472 0.56987
 H340 H 0.80150 0.56852 0.66521
 C341 C 0.60203 0.36837 0.08703
 C342 C 0.67173 0.37835 0.14824
 H343 H 0.57516 0.31528 0.06987
 H344 H 0.69850 0.43148 0.16521
 C345 C 0.39797 0.86837 0.41297
 C346 C 0.32827 0.87835 0.35176
 H347 H 0.42484 0.81528 0.43013
 H348 H 0.30150 0.93148 0.33479
 C349 C 0.10203 0.13163 0.91297
 C350 C 0.17173 0.12165 0.85176
 H351 H 0.07516 0.18472 0.93013
 H352 H 0.19850 0.06852 0.83479
 C353 C 0.15512 0.90035 0.09916
 C354 C 0.15431 0.88796 0.18035
 H355 H 0.20674 0.86926 0.06036
 H356 H 0.10279 0.91864 0.21976
 C357 C 0.84488 0.40035 0.40084
 C358 C 0.84569 0.38796 0.31965
 H359 H 0.79326 0.36926 0.43964
 H360 H 0.89721 0.41864 0.28024
 C361 C 0.34488 0.09965 0.59916
 C362 C 0.34569 0.11204 0.68035
 H363 H 0.29326 0.13074 0.56036
 H364 H 0.39721 0.08136 0.71976
 C365 C 0.65512 0.59965 0.90084
 C366 C 0.65431 0.61204 0.81965
 H367 H 0.70674 0.63074 0.93964
 H368 H 0.60279 0.58136 0.78024
 C369 C 0.43135 0.35348 0.92015
 C370 C 0.41080 0.35341 0.83966
 H371 H 0.40123 0.31117 0.95907
 H372 H 0.44231 0.39534 0.80191
 C373 C 0.93135 0.14652 0.07985
 C374 C 0.91080 0.14659 0.16034
 H375 H 0.90123 0.18883 0.04093
 H376 H 0.94231 0.10466 0.19809
 C377 C 0.56865 0.85348 0.57985
 C378 C 0.58920 0.85341 0.66034
 H379 H 0.59877 0.81117 0.54093
 H380 H 0.55769 0.89534 0.69809
 C381 C 0.06865 0.64652 0.42015
 C382 C 0.08920 0.64659 0.33966
 H383 H 0.09877 0.68883 0.45907
 H384 H 0.05769 0.60466 0.30191
   
