data_POSCAR
  _audit_creation_date              2014-09-24
  _audit_creation_method            'ToBaCCo'
  _symmetry_space_group_name_H-M    'P1'
  _symmetry_Int_Tables_number       1
  _symmetry_cell_setting            triclinic
  loop_
  _symmetry_equiv_pos_as_xyz
 x,y,z
_cell_length_a 56.0879
_cell_length_b 40.5611
_cell_length_c 24.5937
_cell_angle_alpha 90.021300
_cell_angle_beta 90.300900
_cell_angle_gamma 90.032900
loop_
  _atom_site_label
  _atom_site_type_symbol
  _atom_site_fract_x
  _atom_site_fract_y
  _atom_site_fract_z
O1 O 0.74032 0.29089 0.54980
 O2 O 0.78265 0.25363 0.45420
 O3 O 0.74450 0.29095 0.44513
 O4 O 0.77794 0.25359 0.55885
 O5 O 0.75635 0.20827 0.55054
 O6 O 0.72128 0.24698 0.44104
 O7 O 0.75909 0.21033 0.44500
 O8 O 0.71831 0.24572 0.54681
 Cu9 Cu 0.76363 0.27673 0.50243
 Cu10 Cu 0.73646 0.22336 0.49545
 C11 C 0.72215 0.27464 0.56472
 C12 C 0.77812 0.22569 0.43318
 C13 C 0.72694 0.27554 0.42441
 C14 C 0.77313 0.22428 0.57326
 O15 O 0.23997 0.79242 0.55257
 O16 O 0.28264 0.75557 0.45728
 O17 O 0.24439 0.79261 0.44798
 O18 O 0.27773 0.75531 0.56192
 O19 O 0.25625 0.70990 0.55335
 O20 O 0.22135 0.74847 0.44348
 O21 O 0.25930 0.71200 0.44799
 O22 O 0.21816 0.74712 0.54932
 Cu23 Cu 0.26345 0.77846 0.50542
 Cu24 Cu 0.23647 0.72491 0.49806
 C25 C 0.22182 0.77607 0.56739
 C26 C 0.27825 0.72758 0.43639
 C27 C 0.22694 0.77709 0.42699
 C28 C 0.27296 0.72597 0.57621
 O29 O 0.25858 0.28829 -0.55626
 O30 O 0.21785 0.25313 -0.45407
 O31 O 0.25604 0.29034 -0.45068
 O32 O 0.22058 0.25197 -0.55991
 O33 O 0.24344 0.20771 -0.55593
 O34 O 0.27752 0.24492 -0.44290
 O35 O 0.23972 0.20788 -0.45124
 O36 O 0.28188 0.24472 -0.54767
 Cu37 Cu 0.23599 0.27541 -0.50560
 Cu38 Cu 0.26291 0.22183 -0.49907
 C39 C 0.27747 0.27274 -0.56846
 C40 C 0.22165 0.22422 -0.43613
 C41 C 0.27283 0.27423 -0.42829
 C42 C 0.22591 0.22327 -0.57652
 O43 O -0.22172 0.74428 -0.44071
 O44 O -0.25504 0.70671 -0.55450
 O45 O -0.21691 0.74421 -0.54536
 O46 O -0.25933 0.70692 -0.44986
 O47 O -0.28134 0.75204 -0.45302
 O48 O -0.24051 0.78743 -0.55471
 O49 O -0.27827 0.75062 -0.55877
 O50 O -0.24333 0.78954 -0.44917
 Cu51 Cu -0.23596 0.72107 -0.49718
 Cu52 Cu -0.26316 0.77437 -0.50435
 C53 C -0.22658 0.77357 -0.42633
 C54 C -0.27259 0.72205 -0.57530
 C55 C -0.22145 0.77212 -0.56643
 C56 C -0.27750 0.72315 -0.43501
 N57 N 0.02725 1.03492 0.09338
 N58 N 0.04582 1.03974 0.12554
 N59 N -0.02442 1.05732 0.06281
 N60 N -0.04166 1.07841 0.07378
 N61 N -0.02267 1.03496 0.10126
 N62 N -0.03838 1.04057 0.13993
 N63 N 0.02574 1.05831 0.05663
 N64 N 0.04318 1.07990 0.06309
 C65 C 0.05560 1.06780 0.10604
 C66 C -0.05021 1.06753 0.12190
 N67 N -0.02816 1.03449 -0.09171
 N68 N -0.04634 1.03922 -0.12503
 N69 N 0.02255 1.05826 -0.06045
 N70 N 0.03923 1.08015 -0.07175
 N71 N 0.02202 1.03490 -0.09742
 N72 N 0.03845 1.04009 -0.13466
 N73 N -0.02739 1.05761 -0.05438
 N74 N -0.04488 1.07899 -0.06169
 Mn75 Mn -0.00092 1.05826 0.00120
 C76 C -0.05662 1.06697 -0.10568
 C77 C 0.04907 1.06832 -0.11795
 N78 N -0.02257 0.96369 0.10137
 N79 N -0.03825 0.95800 0.14009
 N80 N 0.02592 0.94062 0.05678
 N81 N 0.04347 0.91923 0.06326
 N82 N 0.02733 0.96407 0.09349
 N83 N 0.04592 0.95947 0.12565
 N84 N -0.02425 0.94125 0.06299
 N85 N -0.04141 0.92003 0.07405
 Mn86 Mn 0.00238 0.99941 0.09793
 C87 C -0.04999 0.93092 0.12215
 C88 C 0.05583 0.93150 0.10621
 N89 N 0.02214 0.96378 -0.09731
 N90 N 0.03862 0.95866 -0.13449
 N91 N -0.02722 0.94078 -0.05420
 N92 N -0.04472 0.91936 -0.06130
 N93 N -0.02805 0.96384 -0.09159
 N94 N -0.04628 0.95903 -0.12475
 N95 N 0.02271 0.94045 -0.06031
 N96 N 0.03943 0.91863 -0.07158
 Mn97 Mn -0.00298 0.99925 -0.09510
 Mn98 Mn -0.00075 0.94038 0.00137
 Cl99 Cl -0.00057 0.99933 0.00133
 C100 C 0.04927 0.93048 -0.11775
 C101 C -0.05652 0.93129 -0.10525
 N102 N 0.52258 0.55796 -0.06052
 N103 N 0.53938 0.57972 -0.07165
 N104 N 0.47174 0.53463 -0.09180
 N105 N 0.45352 0.53954 -0.12494
 N106 N 0.47264 0.55765 -0.05431
 N107 N 0.45520 0.57914 -0.06131
 N108 N 0.52192 0.53471 -0.09768
 N109 N 0.53839 0.53984 -0.13487
 C110 C 0.54915 0.56792 -0.11795
 C111 C 0.44336 0.56730 -0.10530
 N112 N 0.47243 0.44075 -0.05511
 N113 N 0.45498 0.41930 -0.06258
 N114 N 0.52180 0.46361 -0.09813
 N115 N 0.53825 0.45853 -0.13537
 N116 N 0.52237 0.44022 -0.06123
 N117 N 0.53909 0.41842 -0.07258
 N118 N 0.47162 0.46394 -0.09228
 N119 N 0.45345 0.45919 -0.12564
 Mn120 Mn 0.49680 0.49923 -0.09556
 C121 C 0.44322 0.43135 -0.10649
 C122 C 0.54891 0.43032 -0.11874
 N123 N 0.47565 0.55704 0.06288
 N124 N 0.45854 0.57830 0.07417
 N125 N 0.52718 0.53419 0.09322
 N126 N 0.54576 0.53876 0.12540
 N127 N 0.52580 0.55765 0.05656
 N128 N 0.54337 0.57902 0.06309
 N129 N 0.47725 0.53447 0.10101
 N130 N 0.46156 0.54005 0.13973
 Mn131 Mn 0.49913 0.55796 0.00120
 C132 C 0.44990 0.56725 0.12211
 C133 C 0.55571 0.56673 0.10602
 N134 N 0.52560 0.44002 0.05586
 N135 N 0.54311 0.41854 0.06218
 N136 N 0.47715 0.46322 0.10059
 N137 N 0.46141 0.45755 0.13918
 N138 N 0.47542 0.44088 0.06206
 N139 N 0.45816 0.41977 0.07287
 N140 N 0.52705 0.46335 0.09276
 N141 N 0.54563 0.45860 0.12488
 Mn142 Mn 0.49892 0.44008 0.00044
 Mn143 Mn 0.50219 0.49880 0.09745
 Cl144 Cl 0.49925 0.49902 0.00086
 C145 C 0.55549 0.43065 0.10522
 C146 C 0.44958 0.43060 0.12100
 C147 C 0.32658 0.31596 0.33102
 N148 N 0.30447 0.32913 0.33630
 N149 N 0.28844 0.31499 0.36863
 C150 C 0.29380 0.28685 0.39605
 N151 N 0.31580 0.27341 0.38990
 N152 N 0.33197 0.28789 0.35841
 C153 C 0.34472 0.33256 0.29828
 N154 N 0.36784 0.33262 0.31478
 N155 N 0.38433 0.34856 0.28620
 C156 C 0.37835 0.36448 0.23957
 N157 N 0.35526 0.36411 0.22268
 N158 N 0.33868 0.34870 0.25186
 C159 C 0.39656 0.38208 0.20850
 N160 N 0.39597 0.38232 0.15331
 N161 N 0.41293 0.39772 0.12527
 C162 C 0.43076 0.41395 0.15151
 N163 N 0.43119 0.41403 0.20666
 N164 N 0.41450 0.39810 0.23467
 C165 C -0.17239 0.81574 0.33334
 N166 N -0.19461 0.82859 0.33821
 N167 N -0.21061 0.81434 0.37048
 C168 C -0.20511 0.78638 0.39826
 N169 N -0.18298 0.77326 0.39255
 N170 N -0.16685 0.78785 0.36111
 C171 C -0.15432 0.83243 0.30051
 N172 N -0.13121 0.83286 0.31710
 N173 N -0.11480 0.84888 0.28838
 C174 C -0.12085 0.86450 0.24152
 N175 N -0.14392 0.86377 0.22456
 N176 N -0.16042 0.84828 0.25386
 C177 C -0.10273 0.88217 0.21026
 N178 N -0.10335 0.88222 0.15506
 N179 N -0.08648 0.89770 0.12684
 C180 C -0.06871 0.91419 0.15288
 N181 N -0.06826 0.91444 0.20803
 N182 N -0.08485 0.89845 0.23623
 C183 C 0.68390 0.67617 0.30888
 N184 N 0.70071 0.65867 0.33634
 N185 N 0.71505 0.67346 0.37218
 C186 C 0.71297 0.70625 0.38215
 N187 N 0.69626 0.72379 0.35443
 N188 N 0.68205 0.70904 0.31829
 C189 C 0.66695 0.65949 0.27244
 N190 N 0.65192 0.67719 0.24029
 N191 N 0.63547 0.66207 0.20993
 C192 C 0.63333 0.62874 0.21099
 N193 N 0.64846 0.61105 0.24286
 N194 N 0.66502 0.62613 0.27287
 C195 C 0.61404 0.61219 0.18102
 N196 N 0.60834 0.58044 0.19253
 N197 N 0.58993 0.56588 0.16798
 C198 C 0.57665 0.58245 0.13070
 N199 N 0.58249 0.61408 0.11860
 N200 N 0.60081 0.62875 0.14353
 C201 C 0.18292 1.17870 0.30958
 N202 N 0.17956 1.21077 0.32328
 N203 N 0.19376 1.22536 0.35960
 C204 C 0.21198 1.20851 0.38329
 N205 N 0.21559 1.17657 0.36884
 N206 N 0.20123 1.16189 0.33289
 C207 C 0.16607 1.16199 0.27291
 N208 N 0.16524 1.12857 0.27075
 N209 N 0.14879 1.11333 0.24062
 C210 C 0.13270 1.13094 0.21116
 N211 N 0.13376 1.16437 0.21267
 N212 N 0.15008 1.17961 0.24321
 C213 C 0.11357 1.11413 0.18108
 N214 N 0.09985 1.13074 0.14459
 N215 N 0.08166 1.11580 0.11960
 C216 C 0.07643 1.08383 0.13069
 N217 N 0.09019 1.06721 0.16700
 N218 N 0.10849 1.08204 0.19156
 C219 C 0.67295 0.31959 -0.33199
 N220 N 0.69047 0.33746 -0.35586
 N221 N 0.70634 0.32293 -0.38800
 C222 C 0.70518 0.29005 -0.39785
 N223 N 0.68767 0.27211 -0.37398
 N224 N 0.67189 0.28661 -0.34140
 C225 C 0.65509 0.33600 -0.29797
 N226 N 0.64023 0.31825 -0.26583
 N227 N 0.62380 0.33333 -0.23578
 C228 C 0.62150 0.36665 -0.23720
 N229 N 0.63633 0.38435 -0.26939
 N230 N 0.65289 0.36932 -0.29902
 C231 C 0.60296 0.38332 -0.20548
 N232 N 0.59700 0.41506 -0.21652
 N233 N 0.57982 0.43007 -0.18872
 C234 C 0.56814 0.41397 -0.14850
 N235 N 0.57420 0.38231 -0.13711
 N236 N 0.59124 0.36719 -0.16528
 C237 C 0.17335 0.81965 -0.33075
 N238 N 0.17083 0.78753 -0.34531
 N239 N 0.18663 0.77322 -0.37807
 C240 C 0.20565 0.79044 -0.39700
 N241 N 0.20827 0.82244 -0.38181
 N242 N 0.19236 0.83682 -0.34957
 C243 C 0.15547 0.83600 -0.29670
 N244 N 0.15441 0.86941 -0.29460
 N245 N 0.13783 0.88445 -0.26503
 C246 C 0.12185 0.86664 -0.23598
 N247 N 0.12303 0.83321 -0.23768
 N248 N 0.13947 0.81815 -0.26775
 C249 C 0.10331 0.88333 -0.20432
 N250 N 0.09100 0.86690 -0.16541
 N251 N 0.07398 0.88206 -0.13726
 C252 C 0.06850 0.91407 -0.14744
 N253 N 0.08076 0.93047 -0.18641
 N254 N 0.09795 0.91543 -0.21413
 C255 C 0.31666 0.67932 -0.30932
 N256 N 0.30023 0.66189 -0.33810
 N257 N 0.28585 0.67694 -0.37346
 C258 C 0.28748 0.70996 -0.38163
 N259 N 0.30381 0.72745 -0.35259
 N260 N 0.31808 0.71242 -0.31692
 C261 C 0.33361 0.66231 -0.27334
 N262 N 0.34836 0.67962 -0.23992
 N263 N 0.36468 0.66416 -0.20973
 C264 C 0.36697 0.63087 -0.21223
 N265 N 0.35214 0.61358 -0.24542
 N266 N 0.33571 0.62900 -0.27526
 C267 C 0.38602 0.61395 -0.18209
 N268 N 0.39182 0.58237 -0.19458
 N269 N 0.40993 0.56742 -0.16954
 C270 C 0.42278 0.58341 -0.13079
 N271 N 0.41683 0.61487 -0.11777
 N272 N 0.39883 0.62994 -0.14316
 C273 C -0.18316 1.17786 -0.31200
 N274 N -0.19952 1.16032 -0.34086
 N275 N -0.21390 1.17529 -0.37635
 C276 C -0.21233 1.20831 -0.38457
 N277 N -0.19608 1.22589 -0.35546
 N278 N -0.18181 1.21095 -0.31967
 C279 C -0.16624 1.16099 -0.27576
 N280 N -0.15164 1.17844 -0.24221
 N281 N -0.13534 1.16313 -0.21172
 C282 C -0.13294 1.12985 -0.21404
 N283 N -0.14763 1.11241 -0.24736
 N284 N -0.16403 1.12768 -0.27750
 C285 C -0.11392 1.11310 -0.18351
 N286 N -0.10800 1.08152 -0.19569
 N287 N -0.08991 1.06674 -0.17031
 C288 C -0.07720 1.08290 -0.13151
 N289 N -0.08327 1.11436 -0.11880
 N290 N -0.10125 1.12926 -0.14454
 C291 C 0.67332 0.67835 -0.33143
 N292 N 0.69080 0.66044 -0.35534
 N293 N 0.70666 0.67491 -0.38759
 C294 C 0.70553 0.70778 -0.39753
 N295 N 0.68805 0.72576 -0.37363
 N296 N 0.67228 0.71131 -0.34094
 C297 C 0.65546 0.66200 -0.29728
 N298 N 0.64066 0.67980 -0.26509
 N299 N 0.62423 0.66477 -0.23494
 C300 C 0.62188 0.63145 -0.23631
 N301 N 0.63666 0.61370 -0.26855
 N302 N 0.65322 0.62868 -0.29828
 C303 C 0.60332 0.61483 -0.20454
 N304 N 0.59727 0.58311 -0.21568
 N305 N 0.58006 0.56815 -0.18790
 C306 C 0.56843 0.58425 -0.14761
 N307 N 0.57459 0.61588 -0.13611
 N308 N 0.59166 0.63096 -0.16427
 C309 C 0.17265 1.17944 -0.33213
 N310 N 0.17156 1.21239 -0.34169
 N311 N 0.18727 1.22685 -0.37450
 C312 C 0.20474 1.20890 -0.39846
 N313 N 0.20593 1.17604 -0.38846
 N314 N 0.19012 1.16155 -0.35609
 C315 C 0.15486 1.16303 -0.29789
 N316 N 0.15273 1.12970 -0.29879
 N317 N 0.13624 1.11464 -0.26898
 C318 C 0.12141 1.13232 -0.23676
 N319 N 0.12365 1.16566 -0.23549
 N320 N 0.14001 1.18077 -0.26572
 C321 C 0.10294 1.11560 -0.20490
 N322 N 0.09122 1.13169 -0.16467
 N323 N 0.07424 1.11649 -0.13641
 C324 C 0.06825 1.08478 -0.14773
 N325 N 0.07993 1.06872 -0.18798
 N326 N 0.09706 1.08380 -0.21587
 C327 C 0.31683 0.32042 -0.31371
 N328 N 0.31817 0.28735 -0.32168
 N329 N 0.30383 0.27248 -0.35745
 C330 C 0.28752 0.29011 -0.38623
 N331 N 0.28597 0.32310 -0.37772
 N332 N 0.30042 0.33800 -0.34225
 C333 C 0.33378 0.33723 -0.27742
 N334 N 0.33593 0.37055 -0.27882
 N335 N 0.35233 0.38580 -0.24857
 C336 C 0.36706 0.36833 -0.21548
 N337 N 0.36473 0.33502 -0.21351
 N338 N 0.34844 0.31974 -0.24410
 C339 C 0.38605 0.38509 -0.18480
 N340 N 0.39875 0.36889 -0.14597
 N341 N 0.41670 0.38383 -0.12007
 C342 C 0.42268 0.41536 -0.13248
 N343 N 0.40994 0.43156 -0.17114
 N344 N 0.39189 0.41674 -0.19667
 C345 C -0.18311 0.82010 -0.31113
 N346 N -0.19944 0.83759 -0.34008
 N347 N -0.21374 0.82259 -0.37573
 C348 C -0.21212 0.78958 -0.38403
 N349 N -0.19590 0.77204 -0.35483
 N350 N -0.18171 0.78702 -0.31888
 C351 C -0.16624 0.83702 -0.27477
 N352 N -0.15163 0.81960 -0.24126
 N353 N -0.13535 0.83495 -0.21074
 C354 C -0.13298 0.86824 -0.21298
 N355 N -0.14769 0.88565 -0.24625
 N356 N -0.16408 0.87033 -0.27643
 C357 C -0.11395 0.88504 -0.18254
 N358 N -0.10806 0.91663 -0.19476
 N359 N -0.08992 0.93144 -0.16953
 C360 C -0.07715 0.91531 -0.13085
 N361 N -0.08319 0.88385 -0.11809
 N362 N -0.10122 0.86892 -0.14368
 C363 C 0.32844 0.68283 0.33564
 N364 N 0.33531 0.70492 0.37411
 N365 N 0.31921 0.71976 0.40528
 C366 C 0.29568 0.71264 0.39970
 N367 N 0.28878 0.69045 0.36136
 N368 N 0.30487 0.67601 0.32953
 C369 C 0.34633 0.66578 0.30272
 N370 N 0.34106 0.65518 0.25167
 N371 N 0.35741 0.63955 0.22214
 C372 C 0.37943 0.63345 0.24304
 N373 N 0.38460 0.64384 0.29421
 N374 N 0.36841 0.65996 0.32336
 C375 C 0.39739 0.61579 0.21123
 N376 N 0.41413 0.59711 0.23665
 N377 N 0.43064 0.58123 0.20805
 C378 C 0.43123 0.58391 0.15310
 N379 N 0.41458 0.60274 0.12762
 N380 N 0.39780 0.61818 0.15617
 C381 C -0.17284 1.18221 0.33284
 N382 N -0.16732 1.21014 0.36053
 N383 N -0.18346 1.22470 0.39201
 C384 C -0.20555 1.21147 0.39782
 N385 N -0.21104 1.18346 0.37010
 N386 N -0.19504 1.16925 0.33779
 C387 C -0.15475 1.16555 0.30003
 N388 N -0.16084 1.14960 0.25344
 N389 N -0.14431 1.13417 0.22415
 C390 C -0.12124 1.13359 0.24108
 N391 N -0.11521 1.14932 0.28788
 N392 N -0.13164 1.16528 0.31658
 C393 C -0.10309 1.11600 0.20986
 N394 N -0.08517 1.09987 0.23587
 N395 N -0.06853 1.08396 0.20772
 C396 C -0.06898 1.08415 0.15257
 N397 N -0.08679 1.10048 0.12648
 N398 N -0.10371 1.11587 0.15467
 C399 C 0.68343 0.32113 0.30836
 N400 N 0.70029 0.33869 0.33566
 N401 N 0.71462 0.32399 0.37158
 C402 C 0.71248 0.29124 0.38182
 N403 N 0.69573 0.27364 0.35427
 N404 N 0.68152 0.28829 0.31805
 C405 C 0.66651 0.33774 0.27180
 N406 N 0.65141 0.31999 0.23986
 N407 N 0.63499 0.33507 0.20940
 C408 C 0.63297 0.36843 0.21013
 N409 N 0.64818 0.38616 0.24179
 N410 N 0.66471 0.37110 0.27190
 C411 C 0.61372 0.38498 0.18010
 N412 N 0.60815 0.41679 0.19148
 N413 N 0.58977 0.43139 0.16694
 C414 C 0.57641 0.41483 0.12978
 N415 N 0.58212 0.38314 0.11780
 N416 N 0.60040 0.36841 0.14274
 C417 C 0.18362 0.82250 0.31043
 N418 N 0.20038 0.84013 0.33793
 N419 N 0.21465 0.82548 0.37404
 C420 C 0.21254 0.79272 0.38425
 N421 N 0.19590 0.77506 0.35649
 N422 N 0.18175 0.78966 0.32010
 C423 C 0.16675 0.83905 0.27368
 N424 N 0.15173 0.82125 0.24162
 N425 N 0.13535 0.83627 0.21100
 C426 C 0.13328 0.86962 0.21168
 N427 N 0.14841 0.88740 0.24345
 N428 N 0.16490 0.87241 0.27373
 C429 C 0.11406 0.88610 0.18149
 N430 N 0.10843 0.91791 0.19275
 N431 N 0.09006 0.93244 0.16807
 C432 C 0.07675 0.91579 0.13091
 N433 N 0.08252 0.88410 0.11905
 N434 N 0.10079 0.86946 0.14412
   
