data_POSCAR
  _audit_creation_date              2014-09-24
  _audit_creation_method            'ToBaCCo'
  _symmetry_space_group_name_H-M    'P1'
  _symmetry_Int_Tables_number       1
  _symmetry_cell_setting            triclinic
  loop_
  _symmetry_equiv_pos_as_xyz
 x,y,z
_cell_length_a 31.9516
_cell_length_b 31.9250
_cell_length_c 31.9424
_cell_angle_alpha 93.625500
_cell_angle_beta 86.512600
_cell_angle_gamma 84.325300
loop_
  _atom_site_label
  _atom_site_type_symbol
  _atom_site_fract_x
  _atom_site_fract_y
  _atom_site_fract_z
O1 O 0.55379 0.50196 0.03552
 O2 O 0.43835 0.50665 0.03346
 O3 O 0.49926 0.44627 0.03618
 O4 O 0.49289 0.56172 0.03269
 O5 O 0.49935 0.55469 -0.03661
 O6 O 0.50460 0.43941 -0.03315
 O7 O 0.44430 0.49947 -0.03578
 O8 O 0.55985 0.49405 -0.03377
 Cu9 Cu 0.49549 0.50479 0.04141
 Cu10 Cu 0.50266 0.49626 -0.04178
 C11 C 0.57659 0.49725 0.00122
 C12 C 0.42141 0.50383 -0.00149
 C13 C 0.50274 0.42309 0.00207
 C14 C 0.49516 0.57798 -0.00256
 O15 O -0.03236 0.56247 0.50514
 O16 O -0.03615 0.44733 0.50301
 O17 O -0.03192 0.50738 0.56125
 O18 O -0.03681 0.50290 0.44633
 O19 O 0.03257 0.49183 0.43867
 O20 O 0.03754 0.49854 0.55366
 O21 O 0.03330 0.43790 0.49615
 O22 O 0.03689 0.55286 0.49561
 Cu23 Cu -0.04127 0.50592 0.50463
 Cu24 Cu 0.04204 0.49438 0.49532
 C25 C 0.00290 0.57750 0.50053
 C26 C -0.00203 0.42288 0.49944
 C27 C 0.00363 0.50392 0.57714
 C28 C -0.00295 0.49643 0.42282
 O29 O 0.49411 0.03373 0.56184
 O30 O 0.49546 0.03562 0.44657
 O31 O 0.43752 0.03288 0.50645
 O32 O 0.55247 0.03648 0.50173
 O33 O 0.56179 -0.03307 0.49589
 O34 O 0.44678 -0.03669 0.50057
 O35 O 0.50559 -0.03395 0.44056
 O36 O 0.50347 -0.03575 0.55593
 Cu37 Cu 0.49399 0.04163 0.50480
 Cu38 Cu 0.50528 -0.04183 0.49766
 C39 C 0.49856 -0.00130 0.57877
 C40 C 0.50080 0.00114 0.42385
 C41 C 0.42245 -0.00249 0.50414
 C42 C 0.57683 0.00231 0.49797
 C43 C 0.52500 0.10105 -0.07262
 C44 C 0.52373 0.07012 -0.10418
 C45 C 0.50953 0.03571 -0.08541
 N46 N 0.50204 0.04459 -0.04352
 C47 C 0.51154 0.08451 -0.03562
 C48 C 0.50103 -0.00204 -0.10724
 C49 C 0.49228 -0.03844 -0.08667
 C50 C 0.47525 -0.07272 -0.10528
 C51 C 0.47393 -0.10224 -0.07583
 C52 C 0.49017 -0.08518 -0.04001
 N53 N 0.50141 -0.04634 -0.04692
 C54 C 0.49637 -0.10657 -0.00310
 C55 C 0.50397 -0.08609 0.03583
 C56 C 0.51431 -0.10650 0.07141
 C57 C 0.51581 -0.07568 0.10301
 C58 C 0.50682 -0.03737 0.08562
 N59 N 0.49924 -0.04386 0.04464
 C60 C 0.50251 0.00248 0.10828
 C61 C 0.49686 0.04112 0.08889
 C62 C 0.48452 0.08012 0.10998
 C63 C 0.48499 0.10962 0.08047
 C64 C 0.49816 0.08799 0.04218
 N65 N 0.50549 0.04629 0.04763
 C66 C 0.50545 0.10724 0.00406
 H67 H 0.53455 0.13224 -0.07652
 H68 H 0.53209 0.07275 -0.13718
 H69 H 0.52011 0.02344 0.02546
 H70 H 0.46498 -0.07622 -0.13687
 H71 H 0.46247 -0.13289 -0.08036
 H72 H 0.51971 -0.14014 0.07449
 H73 H 0.52226 -0.08104 0.13520
 H74 H 0.47704 0.14327 0.08669
 H75 H 0.51870 -0.02841 -0.02743
 H76 H 0.47635 0.08690 0.14324
 C77 C -0.07278 0.49902 0.89266
 C78 C -0.10452 0.49874 0.92339
 C79 C -0.08588 0.49954 0.96149
 N80 N -0.04388 0.50101 0.95489
 C81 C -0.03574 0.50086 0.91287
 C82 C -0.10787 0.49823 1.00117
 C83 C -0.08853 0.49676 1.03996
 C84 C -0.10928 0.48877 1.07759
 C85 C -0.08019 0.48839 1.10744
 C86 C -0.04221 0.49611 1.08746
 N87 N -0.04773 0.50177 1.04641
 C88 C -0.00398 0.49672 1.10776
 C89 C 0.03630 0.49765 1.08689
 C90 C 0.07386 0.49548 1.10665
 C91 C 0.10551 0.49576 1.07583
 C92 C 0.08638 0.49904 1.03820
 N93 N 0.04412 0.49998 1.04509
 C94 C 0.10803 0.50276 0.99881
 C95 C 0.08808 0.50667 0.96060
 C96 C 0.10772 0.51865 0.92396
 C97 C 0.07865 0.51895 0.89411
 C98 C 0.04181 0.50723 0.91314
 N99 N 0.04792 0.49935 0.95362
 C100 C 0.00420 0.50411 0.89233
 H101 H -0.07680 0.49838 0.85925
 H102 H -0.13754 0.49786 0.91803
 H103 H 0.02722 0.48618 0.97402
 H104 H -0.14187 0.48284 1.08295
 H105 H -0.08624 0.48211 1.14004
 H106 H 0.07827 0.49361 1.13981
 H107 H 0.13880 0.49408 1.08085
 H108 H 0.08395 0.52751 0.86211
 H109 H -0.02568 0.51116 1.02481
 H110 H 0.13962 0.52697 0.91927
 C111 C 0.11175 -0.08427 0.48703
 C112 C 0.08290 -0.11337 0.48655
 C113 C 0.04358 -0.09108 0.49576
 N114 N 0.04761 -0.04950 0.50263
 C115 C 0.08921 -0.04521 0.49714
 C116 C 0.00520 -0.10940 0.50054
 C117 C -0.03478 -0.08546 0.50572
 C118 C -0.07226 -0.10141 0.51758
 C119 C -0.10393 -0.06923 0.51628
 C120 C -0.08518 -0.03452 0.50314
 N121 N -0.04305 -0.04471 0.49667
 C122 C -0.10751 0.00433 0.49489
 C123 C -0.08798 0.04158 0.48934
 C124 C -0.10770 0.07855 0.47595
 C125 C -0.07878 0.10758 0.47701
 C126 C -0.04240 0.08737 0.49107
 N127 N -0.04815 0.04711 0.49872
 C128 C -0.00547 0.10666 0.49882
 C129 C 0.03256 0.08366 0.50818
 C130 C 0.06619 0.10148 0.52507
 C131 C 0.09800 0.06942 0.52641
 C132 C 0.08296 0.03284 0.51031
 N133 N 0.04300 0.04177 0.49932
 C134 C 0.10722 -0.00682 0.50353
 H135 H 0.14550 -0.09123 0.48106
 H136 H 0.09023 -0.14709 0.48044
 H137 H 0.02595 0.02160 0.48197
 H138 H -0.07671 -0.13309 0.52577
 H139 H -0.13713 -0.07144 0.52359
 H140 H -0.13961 0.08407 0.46646
 H141 H -0.08400 0.13987 0.46851
 H142 H 0.12887 0.07276 0.53764
 H143 H -0.02199 -0.02653 0.48216
 H144 H 0.06781 0.13429 0.53505
 C145 C -0.28864 0.49468 1.00316
 C146 C -0.30704 0.48103 0.96655
 C147 C -0.35082 0.48184 0.96590
 C148 C -0.37704 0.49580 1.00203
 C149 C -0.35854 0.50887 1.03882
 C150 C -0.31480 0.50857 1.03929
 C151 C -0.24233 0.49509 1.00342
 C152 C -0.22506 0.53074 1.02036
 C153 C -0.18139 0.53166 1.01958
 C154 C -0.15430 0.49682 1.00223
 C155 C -0.17141 0.46085 0.98603
 C156 C -0.21510 0.46012 0.98628
 H157 H -0.36413 0.47150 0.93710
 H158 H -0.37791 0.51984 1.06714
 H159 H -0.16863 0.55960 1.03231
 H160 H -0.15087 0.43356 0.97287
 H161 H -0.30135 0.51895 1.06800
 H162 H -0.24537 0.55819 1.03346
 H163 H -0.28756 0.47050 0.93818
 H164 H -0.22765 0.43212 0.97343
 C165 C 0.28874 0.50672 0.99664
 C166 C 0.30755 0.51379 1.03466
 C167 C 0.35133 0.51276 1.03534
 C168 C 0.37733 0.50530 0.99782
 C169 C 0.35815 0.49891 0.95964
 C170 C 0.31440 0.49925 0.95916
 C171 C 0.24247 0.50643 0.99624
 C172 C 0.22523 0.47312 0.97480
 C173 C 0.18157 0.47200 0.97569
 C174 C 0.15446 0.50443 0.99759
 C175 C 0.17160 0.53829 1.01816
 C176 C 0.21528 0.53905 1.01787
 H177 H 0.36469 0.51791 1.06538
 H178 H 0.37691 0.49309 0.93006
 H179 H 0.16885 0.44573 0.95953
 H180 H 0.15110 0.56381 1.03480
 H181 H 0.30053 0.49399 0.92942
 H182 H 0.24559 0.44751 0.95811
 H183 H 0.28837 0.51931 1.06401
 H184 H 0.22787 0.56525 1.03428
 C185 C 0.00670 -0.29029 0.50138
 C186 C 0.04341 -0.31765 0.49093
 C187 C 0.04237 -0.36134 0.49120
 C188 C 0.00424 -0.37856 0.50086
 C189 C -0.03260 -0.35071 0.51084
 C190 C -0.03121 -0.30705 0.51159
 C191 C 0.00775 -0.24422 0.50141
 C192 C -0.00120 -0.21871 0.53890
 C193 C -0.00103 -0.17495 0.53880
 C194 C 0.00692 -0.15605 0.50101
 C195 C 0.01590 -0.18160 0.46351
 C196 C 0.01679 -0.22547 0.46379
 H197 H 0.07139 -0.38156 0.48324
 H198 H -0.06255 -0.36252 0.51859
 H199 H -0.00783 -0.15567 0.56802
 H200 H 0.02212 -0.16749 0.43411
 H201 H -0.05986 -0.28628 0.51962
 H202 H -0.00813 -0.23275 0.56820
 H203 H 0.07296 -0.30513 0.48301
 H204 H 0.02364 -0.24475 0.43458
 C205 C -0.00546 0.28814 0.49822
 C206 C -0.04295 0.31547 0.50406
 C207 C -0.04190 0.35920 0.50439
 C208 C -0.00332 0.37657 0.49907
 C209 C 0.03415 0.34921 0.49337
 C210 C 0.03308 0.30553 0.49290
 C211 C -0.00640 0.24166 0.49776
 C212 C 0.02000 0.21467 0.46864
 C213 C 0.01987 0.17092 0.46875
 C214 C -0.00658 0.15329 0.49798
 C215 C -0.03320 0.18007 0.52691
 C216 C -0.03321 0.22387 0.52674
 H217 H -0.07134 0.37940 0.50880
 H218 H 0.06441 0.36152 0.48928
 H219 H 0.04053 0.15071 0.44611
 H220 H -0.05359 0.16697 0.54991
 H221 H 0.06254 0.28534 0.48893
 H222 H 0.04056 0.22741 0.44557
 H223 H -0.07316 0.30300 0.50780
 H224 H -0.05352 0.24381 0.54986
 C225 C 0.49802 -0.00301 -0.28851
 C226 C 0.49244 0.03538 -0.30768
 C227 C 0.49256 0.03597 -0.35140
 C228 C 0.49819 -0.00191 -0.37719
 C229 C 0.50362 -0.04036 -0.35782
 C230 C 0.50361 -0.04086 -0.31407
 C231 C 0.49823 -0.00346 -0.24203
 C232 C 0.52758 -0.03110 -0.22347
 C233 C 0.52833 -0.03081 -0.17972
 C234 C 0.49970 -0.00298 -0.15375
 C235 C 0.47002 0.02425 -0.17212
 C236 C 0.46934 0.02409 -0.21583
 H237 H 0.48837 0.06627 -0.36490
 H238 H 0.50794 -0.07025 -0.37638
 H239 H 0.55151 -0.05197 -0.16605
 H240 H 0.44747 0.04570 -0.15253
 H241 H 0.50750 -0.07096 -0.30018
 H242 H 0.55052 -0.05236 -0.24279
 H243 H 0.48861 0.06510 -0.28886
 H244 H 0.44597 0.04530 -0.22916
 C245 C 0.50214 0.00319 0.28930
 C246 C 0.48223 0.03743 0.31524
 C247 C 0.48221 0.03698 0.35899
 C248 C 0.50136 0.00188 0.37759
 C249 C 0.52096 -0.03253 0.35157
 C250 C 0.52171 -0.03169 0.30781
 C251 C 0.50232 0.00372 0.24300
 C252 C 0.54021 -0.00535 0.21795
 C253 C 0.54034 -0.00497 0.17420
 C254 C 0.50250 0.00369 0.15483
 C255 C 0.46457 0.01247 0.17976
 C256 C 0.46454 0.01295 0.22356
 H257 H 0.46676 0.06386 0.37829
 H258 H 0.53607 -0.05993 0.36505
 H259 H 0.56984 -0.01190 0.15534
 H260 H 0.43508 0.01894 0.16523
 H261 H 0.53705 -0.05855 0.28838
 H262 H 0.56973 -0.01234 0.23230
 H263 H 0.46711 0.06473 0.30161
 H264 H 0.43494 0.01973 0.24227
 C265 C 0.49112 -0.28717 -0.00589
 C266 C 0.49871 -0.31334 -0.04318
 C267 C 0.49961 -0.35712 -0.04219
 C268 C 0.49318 -0.37564 -0.00385
 C269 C 0.48535 -0.34940 0.03338
 C270 C 0.48424 -0.30565 0.03235
 C271 C 0.49127 -0.24082 -0.00664
 C272 C 0.46090 -0.21346 0.01801
 C273 C 0.46210 -0.16981 0.01861
 C274 C 0.49385 -0.15282 -0.00517
 C275 C 0.52378 -0.17996 -0.03035
 C276 C 0.52247 -0.22360 -0.03115
 H277 H 0.50565 -0.37647 -0.07143
 H278 H 0.48029 -0.36268 0.06343
 H279 H 0.43857 -0.14923 0.03795
 H280 H 0.54851 -0.16729 -0.04884
 H281 H 0.47884 -0.28629 0.06164
 H282 H 0.43619 -0.22584 0.03675
 H283 H 0.50371 -0.29990 -0.07314
 H284 H 0.54650 -0.24394 -0.05009
 C285 C 0.50510 0.28841 0.00508
 C286 C 0.50087 0.30785 -0.03287
 C287 C 0.50061 0.35151 -0.03385
 C288 C 0.50421 0.37673 0.00318
 C289 C 0.50864 0.35726 0.04115
 C290 C 0.50932 0.31346 0.04204
 C291 C 0.50469 0.24214 0.00594
 C292 C 0.53453 0.21824 0.02765
 C293 C 0.53476 0.17439 0.02722
 C294 C 0.50489 0.15389 0.00544
 C295 C 0.47461 0.17781 -0.01558
 C296 C 0.47464 0.22151 -0.01552
 H297 H 0.49715 0.36555 -0.06360
 H298 H 0.51154 0.37585 0.07018
 H299 H 0.55840 0.15636 0.04353
 H300 H 0.45114 0.16250 -0.03227
 H301 H 0.51235 0.29922 0.07173
 H302 H 0.55819 0.23339 0.04418
 H303 H 0.49806 0.28919 -0.06188
 H304 H 0.45097 0.23928 -0.03202
 C305 C -0.28861 0.00590 0.49335
 C306 C -0.30594 -0.03258 0.48697
 C307 C -0.34960 -0.03371 0.48843
 C308 C -0.37691 0.00366 0.49609
 C309 C -0.35957 0.04220 0.50217
 C310 C -0.31588 0.04329 0.50093
 C311 C -0.24225 0.00683 0.49270
 C312 C -0.22431 0.03192 0.52317
 C313 C -0.18057 0.03150 0.52356
 C314 C -0.15403 0.00621 0.49336
 C315 C -0.17182 -0.01831 0.46248
 C316 C -0.21555 -0.01810 0.46220
 H317 H -0.36193 -0.06392 0.48364
 H318 H -0.37975 0.07155 0.50808
 H319 H -0.16731 0.05040 0.54778
 H320 H -0.15175 -0.03790 0.43886
 H321 H -0.30338 0.07344 0.50555
 H322 H -0.24409 0.05105 0.54733
 H323 H -0.28572 -0.06195 0.48159
 H324 H -0.22851 -0.03733 0.43806
 C325 C 0.28809 -0.00597 0.50550
 C326 C 0.30590 0.03218 0.50147
 C327 C 0.34947 0.03334 0.50154
 C328 C 0.37623 -0.00372 0.50524
 C329 C 0.35839 -0.04190 0.50945
 C330 C 0.31471 -0.04296 0.50981
 C331 C 0.24190 -0.00710 0.50469
 C332 C 0.21984 -0.02915 0.53410
 C333 C 0.17610 -0.02925 0.53376
 C334 C 0.15383 -0.00779 0.50365
 C335 C 0.17589 0.01383 0.47399
 C336 C 0.21948 0.01432 0.47460
 H337 H 0.36221 0.06325 0.49824
 H338 H 0.37818 -0.07097 0.51243
 H339 H 0.15952 -0.04579 0.55712
 H340 H 0.15921 0.03051 0.45050
 H341 H 0.30178 -0.07283 0.51267
 H342 H 0.23634 -0.04558 0.55785
 H343 H 0.28603 0.06123 0.49856
 H344 H 0.23578 0.03116 0.45130
 C345 C -0.00750 0.49243 1.28842
 C346 C -0.04326 0.50801 1.31462
 C347 C -0.04202 0.50875 1.35833
 C348 C -0.00480 0.49445 1.37662
 C349 C 0.03090 0.47873 1.35034
 C350 C 0.02948 0.47750 1.30668
 C351 C -0.00830 0.49272 1.24216
 C352 C 0.00869 0.45722 1.21612
 C353 C 0.00938 0.45815 1.17242
 C354 C -0.00626 0.49483 1.15415
 C355 C -0.02379 0.53009 1.18003
 C356 C -0.02498 0.52900 1.22372
 H357 H -0.07001 0.52108 1.37778
 H358 H 0.06000 0.46739 1.36352
 H359 H 0.02266 0.43057 1.15277
 H360 H -0.03610 0.55856 1.16631
 H361 H 0.05759 0.46571 1.28714
 H362 H 0.02133 0.42876 1.22962
 H363 H -0.07223 0.51944 1.30125
 H364 H -0.03795 0.55685 1.24312
 C365 C 0.00801 0.50838 0.71162
 C366 C -0.02972 0.52053 0.69324
 C367 C -0.03108 0.51918 0.64957
 C368 C 0.00539 0.50602 0.62337
 C369 C 0.04331 0.49443 0.64178
 C370 C 0.04454 0.49538 0.68549
 C371 C 0.00884 0.50832 0.75791
 C372 C 0.02871 0.47352 0.77640
 C373 C 0.02749 0.47241 0.82010
 C374 C 0.00665 0.50617 0.84595
 C375 C -0.01219 0.54149 0.82765
 C376 C -0.01136 0.54244 0.78395
 H377 H -0.06075 0.52838 0.63634
 H378 H 0.07192 0.48415 0.62240
 H379 H 0.04229 0.44501 0.83383
 H380 H -0.02804 0.56797 0.84726
 H381 H 0.07410 0.48615 0.69893
 H382 H 0.04419 0.44670 0.75703
 H383 H -0.05843 0.53025 0.71267
 H384 H -0.02647 0.56983 0.77046
   
