data_POSCAR
  _audit_creation_date              2014-09-24
  _audit_creation_method            'ToBaCCo'
  _symmetry_space_group_name_H-M    'P1'
  _symmetry_Int_Tables_number       1
  _symmetry_cell_setting            triclinic
  loop_
  _symmetry_equiv_pos_as_xyz
 x,y,z
_cell_length_a 22.1871
_cell_length_b 22.0191
_cell_length_c 40.5036
_cell_angle_alpha 89.941800
_cell_angle_beta 90.022900
_cell_angle_gamma 119.828600
loop_
  _atom_site_label
  _atom_site_type_symbol
  _atom_site_fract_x
  _atom_site_fract_y
  _atom_site_fract_z
Zn1 Zn 0.95600 0.04635 1.01537
 Zn2 Zn 1.09134 0.04759 1.01342
 Zn3 Zn 0.95768 -0.08949 1.01575
 Zn4 Zn 0.99631 -0.00217 0.95513
 O5 O 1.00035 0.00057 1.00002
 O6 O 1.01123 0.12158 1.03978
 O7 O 1.11409 -0.00592 1.03809
 O8 O 0.88433 -0.10884 1.04135
 O9 O 1.11145 0.12252 1.03842
 O10 O 0.88335 -0.00861 1.04117
 O11 O 1.01461 -0.10629 1.04049
 O12 O 0.95234 -0.08865 0.93913
 O13 O 1.15127 0.07925 0.97941
 O14 O 0.92553 -0.15509 0.98374
 O15 O 1.08034 0.03973 0.93636
 O16 O 0.95060 0.03834 0.93849
 O17 O 0.92257 0.07724 0.98297
 C18 C 1.07459 0.14848 1.04797
 C19 C 1.07819 -0.06864 1.04816
 C20 C 0.85799 -0.07184 1.05035
 C21 C 0.92529 -0.14835 0.95264
 C22 C 1.14109 0.07227 0.94846
 C23 C 0.92231 0.06986 0.95190
 Zn24 Zn 0.04383 0.95266 0.51487
 Zn25 Zn -0.08935 0.95693 0.51519
 Zn26 Zn 0.04750 1.09087 0.51473
 Zn27 Zn -0.00008 0.99976 0.45526
 O28 O 0.00047 1.00004 0.50014
 O29 O -0.01152 0.87942 0.54036
 O30 O -0.10623 1.01364 0.54030
 O31 O 0.12102 1.10829 0.53951
 O32 O -0.11026 0.88173 0.54038
 O33 O 0.11922 1.00675 0.53945
 O34 O -0.00548 1.11287 0.53993
 O35 O 0.04081 1.08544 0.43791
 O36 O -0.15288 0.92678 0.48251
 O37 O 0.08038 1.15413 0.48178
 O38 O -0.08542 0.95536 0.43834
 O39 O 0.04394 0.95819 0.43804
 O40 O 0.07315 0.91869 0.48197
 C41 C -0.07419 0.85445 0.54945
 C42 C -0.06835 1.07691 0.54913
 C43 C 0.14641 1.07034 0.54827
 C44 C 0.07346 1.14583 0.45073
 C45 C -0.14515 0.92792 0.45143
 C46 C 0.07158 0.92547 0.45091
 O47 O 0.23187 0.54648 0.27636
 O48 O 0.23552 0.66514 0.28836
 C49 C 0.26681 0.73051 0.29368
 O50 O 0.31949 0.77402 0.27721
 O51 O 0.43344 0.76966 0.28914
 C52 C 0.46687 0.73769 0.29422
 O53 O 0.45752 0.68503 0.27739
 O54 O 0.33950 0.57014 0.28844
 C55 C 0.27444 0.53648 0.29323
 O56 O 0.23598 0.57177 0.21134
 O57 O 0.23329 0.68731 0.22277
 C58 C 0.27676 0.74060 0.20642
 O59 O 0.34153 0.77235 0.21210
 O60 O 0.45854 0.77417 0.22354
 C61 C 0.46836 0.73076 0.20700
 O62 O 0.43503 0.66530 0.21218
 O63 O 0.32007 0.54718 0.22263
 C64 C 0.26768 0.53819 0.20592
 Cr65 Cr 0.23788 0.61962 0.24974
 Cr66 Cr 0.38647 0.76881 0.25051
 Cr67 Cr 0.38609 0.61871 0.25018
 O68 O 0.33683 0.66906 0.24997
 O69 O 0.76195 0.42840 0.79066
 O70 O 0.76580 0.31408 0.78078
 C71 C 0.72115 0.25820 0.79503
 O72 O 0.65751 0.22482 0.78703
 O73 O 0.54100 0.22445 0.77507
 C74 C 0.53045 0.26714 0.79181
 O75 O 0.56405 0.33283 0.78737
 O76 O 0.67835 0.45238 0.77813
 C77 C 0.72984 0.46159 0.79547
 O78 O 0.77051 0.45346 0.72467
 O79 O 0.77029 0.33588 0.71492
 C80 C 0.73760 0.27136 0.70766
 O81 O 0.68187 0.22721 0.72197
 O82 O 0.56874 0.23167 0.71001
 C83 C 0.53584 0.26391 0.70459
 O84 O 0.54478 0.31637 0.72146
 O85 O 0.66317 0.43200 0.71275
 C86 C 0.72827 0.46449 0.70789
 Cr87 Cr 0.76330 0.38106 0.75263
 Cr88 Cr 0.61428 0.23102 0.74862
 Cr89 Cr 0.61447 0.38133 0.74996
 O90 O 0.66419 0.33109 0.75031
 C91 C 0.16129 0.32211 0.11079
 N92 N 0.09617 0.29689 0.09855
 N93 N 0.06882 0.24201 0.07826
 C94 C 0.10566 0.21048 0.06939
 N95 N 0.17096 0.23603 0.08143
 N96 N 0.19821 0.29074 0.10181
 C97 C 0.19034 0.38055 0.13434
 N98 N 0.25172 0.39988 0.14962
 N99 N 0.27675 0.45080 0.17207
 C100 C 0.24151 0.48452 0.17997
 N101 N 0.18040 0.46565 0.16447
 N102 N 0.15521 0.41450 0.14210
 C103 C 0.68609 0.84121 0.11349
 N104 N 0.71129 0.80106 0.10099
 N105 N 0.76585 0.82864 0.08072
 C106 C 0.79706 0.89732 0.07216
 N107 N 0.77160 0.93735 0.08452
 N108 N 0.71722 0.90984 0.10486
 C109 C 0.62754 0.81166 0.13675
 N110 N 0.60768 0.85380 0.15193
 N111 N 0.55632 0.82773 0.17397
 C112 C 0.52266 0.75847 0.18152
 N113 N 0.54211 0.71615 0.16613
 N114 N 0.59370 0.74230 0.14417
 C115 C 0.16747 0.84750 0.11128
 N116 N 0.20674 0.91253 0.09827
 N117 N 0.17863 0.93915 0.07785
 C118 C 0.11028 0.90160 0.06967
 N119 N 0.07123 0.83644 0.08252
 N120 N 0.09927 0.80995 0.10297
 C121 C 0.19712 0.81885 0.13492
 N122 N 0.15543 0.75695 0.15021
 N123 N 0.18118 0.73179 0.17264
 C124 C 0.24968 0.76742 0.18055
 N125 N 0.29162 0.82912 0.16508
 N126 N 0.26577 0.85445 0.14269
 C127 C 0.83921 0.68235 0.61339
 N128 N 0.79947 0.70773 0.60066
 N129 N 0.82682 0.76222 0.58007
 C130 C 0.89486 0.79314 0.57138
 N131 N 0.93446 0.76746 0.58395
 N132 N 0.90718 0.71318 0.60462
 C133 C 0.80982 0.62391 0.63702
 N134 N 0.85143 0.60394 0.65254
 N135 N 0.82532 0.55260 0.67483
 C136 C 0.75657 0.51911 0.68232
 N137 N 0.71486 0.53873 0.66660
 N138 N 0.74102 0.59026 0.64440
 C139 C 0.32023 0.15678 0.61014
 N140 N 0.29462 0.09104 0.59794
 N141 N 0.23954 0.06354 0.57799
 C142 C 0.20824 0.10088 0.56947
 N143 N 0.23419 0.16674 0.58149
 N144 N 0.28906 0.19412 0.60151
 C145 C 0.37883 0.18616 0.63333
 N146 N 0.39842 0.24818 0.64850
 N147 N 0.44933 0.27352 0.67076
 C148 C 0.48281 0.23797 0.67855
 N149 N 0.46373 0.17625 0.66314
 N150 N 0.41258 0.15075 0.64096
 C151 C 0.84761 0.16490 0.61281
 N152 N 0.80957 0.09711 0.60312
 N153 N 0.83619 0.06949 0.58253
 C154 C 0.90195 0.10857 0.57091
 N155 N 0.94001 0.17652 0.58048
 N156 N 0.91329 0.20422 0.60104
 C157 C 0.81855 0.19398 0.63650
 N158 N 0.85489 0.26221 0.64585
 N159 N 0.82887 0.28742 0.66818
 C160 C 0.76569 0.24521 0.68200
 N161 N 0.72938 0.17716 0.67251
 N162 N 0.75525 0.15206 0.65016
 C163 C 0.31010 0.15581 0.88374
 N164 N 0.24779 0.10141 0.87444
 N165 N 0.19394 0.07522 0.89507
 C166 C 0.20069 0.10179 0.92592
 N167 N 0.26317 0.15590 0.93537
 N168 N 0.31684 0.18280 0.91454
 C169 C 0.36877 0.18469 0.86063
 N170 N 0.42160 0.25169 0.86356
 N171 N 0.47346 0.27819 0.84172
 C172 C 0.47473 0.23822 0.81650
 N173 N 0.42228 0.17106 0.81384
 N174 N 0.37002 0.14493 0.83537
 C175 C 0.83429 0.67820 0.89001
 N176 N 0.83975 0.74004 0.88096
 N177 N 0.86867 0.79492 0.90110
 C178 C 0.89233 0.78984 0.93127
 N179 N 0.88628 0.72775 0.94059
 N180 N 0.85817 0.67294 0.92017
 C181 C 0.80429 0.61917 0.86689
 N182 N 0.82080 0.56754 0.86853
 N183 N 0.79665 0.51669 0.84598
 C184 C 0.75454 0.51536 0.82127
 N185 N 0.73740 0.56647 0.81998
 N186 N 0.76220 0.61766 0.84222
 C187 C 0.82636 0.14825 0.89010
 N188 N 0.85844 0.18282 0.91822
 N189 N 0.88804 0.15732 0.93837
 C190 C 0.88776 0.09716 0.93070
 N191 N 0.85600 0.06290 0.90252
 N192 N 0.82534 0.08768 0.88272
 C193 C 0.79589 0.17701 0.86716
 N194 N 0.74099 0.13369 0.84796
 N195 N 0.71574 0.15967 0.82566
 C196 C 0.74533 0.22988 0.82136
 N197 N 0.80028 0.27323 0.84054
 N198 N 0.82476 0.24725 0.86325
 C199 C 0.68392 0.84253 0.38788
 N200 N 0.67855 0.86475 0.41845
 N201 N 0.73259 0.89104 0.43909
 C202 C 0.79400 0.89681 0.42966
 N203 N 0.79925 0.87490 0.39906
 N204 N 0.74510 0.84776 0.37867
 C205 C 0.62535 0.81351 0.36471
 N206 N 0.62340 0.77142 0.33983
 N207 N 0.57212 0.74658 0.31783
 C208 C 0.52130 0.76367 0.31956
 N209 N 0.52313 0.80595 0.34443
 N210 N 0.57411 0.83012 0.36676
 C211 C 0.16029 0.31727 0.38667
 N212 N 0.10450 0.25571 0.37748
 N213 N 0.07699 0.20136 0.39803
 C214 C 0.10353 0.20683 0.42876
 N215 N 0.15903 0.26862 0.43816
 N216 N 0.18724 0.32284 0.41737
 C217 C 0.19039 0.37611 0.36340
 N218 N 0.25781 0.42770 0.36579
 N219 N 0.28508 0.47918 0.34350
 C220 C 0.24555 0.48117 0.31835
 N221 N 0.17809 0.42996 0.31626
 N222 N 0.15117 0.37817 0.33821
 C223 C 0.15828 0.84078 0.38706
 N224 N 0.15187 0.89656 0.37791
 N225 N 0.12413 0.92319 0.39836
 C226 C 0.10273 0.89575 0.42895
 N227 N 0.10963 0.84024 0.43833
 N228 N 0.13652 0.81288 0.41762
 C229 C 0.18817 0.81177 0.36391
 N230 N 0.17276 0.74393 0.36588
 N231 N 0.19785 0.71761 0.34362
 C232 C 0.23990 0.75856 0.31892
 N233 N 0.25579 0.82646 0.31725
 N234 N 0.23002 0.85243 0.33918
   
