data_POSCAR
  _audit_creation_date              2014-09-24
  _audit_creation_method            'ToBaCCo'
  _symmetry_space_group_name_H-M    'P1'
  _symmetry_Int_Tables_number       1
  _symmetry_cell_setting            triclinic
  loop_
  _symmetry_equiv_pos_as_xyz
 x,y,z
_cell_length_a 24.4634
_cell_length_b 24.5055
_cell_length_c 35.3173
_cell_angle_alpha 89.846400
_cell_angle_beta 89.773800
_cell_angle_gamma 91.507000
loop_
  _atom_site_label
  _atom_site_type_symbol
  _atom_site_fract_x
  _atom_site_fract_y
  _atom_site_fract_z
O1 O -0.05853 0.54950 0.96512
 O2 O -0.05395 0.44565 1.03759
 O3 O -0.04282 0.55237 1.03818
 O4 O -0.04351 0.44388 0.96410
 O5 O 0.04651 0.45112 0.96248
 O6 O 0.04717 0.55613 1.03403
 O7 O 0.03600 0.44815 1.03710
 O8 O 0.03136 0.55568 0.96187
 Cu9 Cu -0.05820 0.49746 1.00141
 Cu10 Cu 0.04817 0.50245 0.99913
 C11 C -0.01558 0.57116 0.95108
 C12 C -0.00922 0.42821 1.04994
 C13 C 0.00334 0.57307 1.04836
 C14 C 0.00247 0.42880 0.95099
 O15 O 0.54983 -0.04791 0.53882
 O16 O 0.44705 -0.04700 0.46557
 O17 O 0.55417 -0.03684 0.46528
 O18 O 0.44388 -0.03233 0.53877
 O19 O 0.44898 0.05749 0.53507
 O20 O 0.55558 0.05316 0.46443
 O21 O 0.45011 0.04285 0.46285
 O22 O 0.55588 0.04181 0.53882
 Cu23 Cu 0.49833 -0.04955 0.50225
 Cu24 Cu 0.50368 0.05669 0.50070
 C25 C 0.57138 -0.00419 0.55142
 C26 C 0.43029 -0.00301 0.45155
 C27 C 0.57389 0.00853 0.45263
 C28 C 0.42734 0.01450 0.54898
 C29 C -0.06436 0.01274 0.27122
 C30 C -0.01656 0.02131 0.25001
 C31 C -0.00840 0.06966 0.22944
 C32 C -0.04798 0.11012 0.22978
 C33 C -0.09583 0.10132 0.25161
 C34 C -0.10440 0.05267 0.27245
 C35 C 0.02528 -0.02044 0.24947
 C36 C 0.01617 -0.06882 0.22936
 C37 C 0.05598 -0.10900 0.22846
 C38 C 0.10506 -0.10007 0.24860
 C39 C 0.11441 -0.05153 0.26922
 C40 C 0.07413 -0.01178 0.26917
 H41 H -0.06943 -0.02453 0.28759
 H42 H 0.02829 0.07481 0.21239
 H43 H -0.02148 -0.07427 0.21359
 H44 H 0.07983 0.02541 0.28537
 H45 H -0.12651 0.13232 0.25238
 H46 H 0.13594 -0.13091 0.24825
 C47 C -0.01704 -0.06992 0.77110
 C48 C -0.02237 -0.02210 0.74998
 C49 C -0.06945 -0.01398 0.72866
 C50 C -0.11210 -0.05342 0.72829
 C51 C -0.10641 -0.10154 0.74975
 C52 C -0.05901 -0.11015 0.77137
 C53 C 0.02055 0.02073 0.75113
 C54 C 0.06857 0.01533 0.73007
 C55 C 0.10891 0.05718 0.72989
 C56 C 0.10041 0.10440 0.75168
 C57 C 0.05210 0.11012 0.77303
 C58 C 0.01238 0.06779 0.77244
 H59 H 0.01910 -0.07467 0.78831
 H60 H -0.07221 0.02299 0.71196
 H61 H 0.07336 -0.02073 0.71282
 H62 H -0.02478 0.07079 0.78902
 H63 H -0.13910 -0.13216 0.74990
 H64 H 0.13120 0.13694 0.75175
 C65 C 0.01871 -0.29605 0.12966
 C66 C 0.06455 -0.31407 0.10913
 C67 C 0.05867 -0.35690 0.08324
 C68 C 0.00748 -0.38233 0.07658
 C69 C -0.03819 -0.36432 0.09663
 C70 C -0.03272 -0.32179 0.12295
 C71 C 0.02718 -0.24962 0.15693
 C72 C -0.01512 -0.22906 0.17951
 C73 C -0.00537 -0.18446 0.20338
 C74 C 0.04671 -0.15906 0.20537
 C75 C 0.08939 -0.18025 0.18378
 C76 C 0.08014 -0.22515 0.15986
 C77 C 0.11606 -0.28889 0.11404
 C78 C 0.12361 -0.24515 0.13864
 H79 H 0.15109 -0.30280 0.09822
 H80 H 0.16417 -0.22662 0.14102
 H81 H 0.09440 -0.36996 0.06779
 H82 H -0.07815 -0.38312 0.09199
 H83 H -0.03886 -0.16970 0.22031
 H84 H 0.12966 -0.16078 0.18470
 H85 H -0.06922 -0.30941 0.13746
 H86 H -0.05599 -0.24665 0.17907
 C87 C -0.01778 0.29901 0.13051
 C88 C -0.06562 0.31987 0.11423
 C89 C -0.06198 0.36337 0.08856
 C90 C -0.01102 0.38627 0.07730
 C91 C 0.03662 0.36523 0.09320
 C92 C 0.03334 0.32236 0.11960
 C93 C -0.02403 0.25196 0.15772
 C94 C 0.02033 0.22945 0.17706
 C95 C 0.01233 0.18446 0.20109
 C96 C -0.03997 0.16035 0.20630
 C97 C -0.08449 0.18346 0.18785
 C98 C -0.07707 0.22909 0.16416
 C99 C -0.11705 0.29651 0.12282
 C100 C -0.12257 0.25166 0.14684
 H101 H -0.15364 0.31252 0.11018
 H102 H -0.16321 0.23447 0.15201
 H103 H -0.09950 0.37843 0.07661
 H104 H 0.07656 0.38167 0.08519
 H105 H 0.04737 0.16853 0.21567
 H106 H -0.12505 0.16517 0.19112
 H107 H 0.07123 0.30753 0.13066
 H108 H 0.06140 0.24604 0.17408
 C109 C 0.29506 0.03694 0.62821
 C110 C 0.31598 -0.01588 0.62276
 C111 C 0.35913 -0.02377 0.59686
 C112 C 0.38217 0.02067 0.57667
 C113 C 0.36168 0.07293 0.58286
 C114 C 0.31898 0.08103 0.60810
 C115 C 0.24823 0.04375 0.65514
 C116 C 0.22316 0.09422 0.66097
 C117 C 0.17881 0.09839 0.68558
 C118 C 0.15824 0.05261 0.70540
 C119 C 0.18341 0.00216 0.70014
 C120 C 0.22770 -0.00267 0.67495
 C121 C 0.29373 -0.06025 0.64326
 C122 C 0.25086 -0.05371 0.66898
 H123 H 0.30975 -0.10068 0.63939
 H124 H 0.23512 -0.08936 0.68409
 H125 H 0.37482 -0.06426 0.59258
 H126 H 0.37849 0.10820 0.56788
 H127 H 0.15962 0.13752 0.68826
 H128 H 0.16833 -0.03354 0.71550
 H129 H 0.30558 0.12229 0.61137
 H130 H 0.23630 0.13092 0.64633
 C131 C -0.29983 -0.01777 0.63103
 C132 C -0.32455 -0.06466 0.61451
 C133 C -0.36811 -0.05945 0.58930
 C134 C -0.38696 -0.00781 0.57864
 C135 C -0.36198 0.03884 0.59477
 C136 C -0.31922 0.03399 0.62078
 C137 C -0.25297 -0.02559 0.65772
 C138 C -0.22729 0.01774 0.67748
 C139 C -0.18263 0.00841 0.70097
 C140 C -0.16189 -0.04425 0.70516
 C141 C -0.18826 -0.08783 0.68636
 C142 C -0.23375 -0.07906 0.66325
 C143 C -0.30484 -0.11663 0.62230
 C144 C -0.25992 -0.12359 0.64567
 H145 H -0.32375 -0.15251 0.60945
 H146 H -0.24558 -0.16457 0.65018
 H147 H -0.38623 -0.09623 0.57710
 H148 H -0.37522 0.07926 0.58719
 H149 H -0.16435 0.04271 0.71597
 H150 H -0.17275 -0.12867 0.68899
 H151 H -0.30126 0.07121 0.63196
 H152 H -0.24119 0.05904 0.67532
 C153 C -0.03841 -0.29768 0.87137
 C154 C 0.01477 -0.31745 0.87753
 C155 C 0.02275 -0.36048 0.90341
 C156 C -0.02197 -0.38466 0.92276
 C157 C -0.07465 -0.36580 0.91546
 C158 C -0.08283 -0.32317 0.89027
 C159 C -0.04526 -0.25040 0.84496
 C160 C -0.09592 -0.22557 0.83926
 C161 C -0.10017 -0.18082 0.81512
 C162 C -0.05427 -0.15962 0.79563
 C163 C -0.00356 -0.18441 0.80091
 C164 C 0.00137 -0.22895 0.82576
 C165 C 0.05939 -0.29417 0.85775
 C166 C 0.05274 -0.25133 0.83211
 H167 H 0.10010 -0.30938 0.86208
 H168 H 0.08857 -0.23484 0.81751
 H169 H 0.06355 -0.37502 0.90845
 H170 H -0.11017 -0.38369 0.92963
 H171 H -0.13947 -0.16188 0.81255
 H172 H 0.03229 -0.16882 0.78588
 H173 H -0.12440 -0.31102 0.88610
 H174 H -0.13269 -0.23915 0.85374
 C175 C 0.01637 0.29698 0.87087
 C176 C 0.06291 0.31926 0.88943
 C177 C 0.05756 0.36265 0.91473
 C178 C 0.00618 0.38419 0.92290
 C179 C -0.04017 0.36184 0.90490
 C180 C -0.03522 0.31890 0.87905
 C181 C 0.02431 0.25023 0.84412
 C182 C -0.01866 0.22612 0.82306
 C183 C -0.00929 0.18160 0.79947
 C184 C 0.04304 0.15964 0.79633
 C185 C 0.08630 0.18430 0.81648
 C186 C 0.07748 0.22935 0.83997
 C187 C 0.11459 0.29760 0.88329
 C188 C 0.12163 0.25329 0.85940
 H189 H 0.15016 0.31471 0.89765
 H190 H 0.16236 0.23756 0.85605
 H191 H 0.09378 0.37899 0.92873
 H192 H -0.08028 0.37752 0.91081
 H193 H -0.04328 0.16433 0.78355
 H194 H 0.12683 0.16762 0.81464
 H195 H -0.07223 0.30307 0.86617
 H196 H -0.05971 0.24103 0.82436
 C197 C -0.29261 0.01945 0.37229
 C198 C -0.31099 0.06615 0.39147
 C199 C -0.35476 0.06165 0.41696
 C200 C -0.38075 0.01101 0.42465
 C201 C -0.36229 -0.03557 0.40609
 C202 C -0.31885 -0.03147 0.38008
 C203 C -0.24537 0.02658 0.34522
 C204 C -0.22464 -0.01654 0.32363
 C205 C -0.17970 -0.00781 0.29956
 C206 C -0.15407 0.04402 0.29643
 C207 C -0.17513 0.08734 0.31729
 C208 C -0.22046 0.07918 0.34126
 C209 C -0.28524 0.11719 0.38565
 C210 C -0.24067 0.12347 0.36135
 H211 H -0.29938 0.15285 0.40048
 H212 H -0.22179 0.16375 0.35818
 H213 H -0.36804 0.09803 0.43137
 H214 H -0.38146 -0.07514 0.41162
 H215 H -0.16506 -0.04183 0.28324
 H216 H -0.15544 0.12742 0.31559
 H217 H -0.30617 -0.06857 0.36667
 H218 H -0.24253 -0.05720 0.32489
 C219 C 0.30158 -0.01675 0.36842
 C220 C 0.31997 -0.06312 0.38806
 C221 C 0.36234 -0.05780 0.41438
 C222 C 0.38679 -0.00665 0.42246
 C223 C 0.36852 0.03951 0.40322
 C224 C 0.32653 0.03460 0.37642
 C225 C 0.25543 -0.02459 0.34083
 C226 C 0.23459 0.01828 0.31902
 C227 C 0.19000 0.00913 0.29502
 C228 C 0.16483 -0.04290 0.29213
 C229 C 0.18646 -0.08616 0.31282
 C230 C 0.23140 -0.07752 0.33683
 C231 C 0.29544 -0.11459 0.38196
 C232 C 0.25182 -0.12155 0.35715
 H233 H 0.30964 -0.15003 0.39708
 H234 H 0.23369 -0.16210 0.35391
 H235 H 0.37563 -0.09391 0.42917
 H236 H 0.38656 0.07945 0.40896
 H237 H 0.17499 0.04309 0.27875
 H238 H 0.16723 -0.12644 0.31122
 H239 H 0.31382 0.07146 0.36264
 H240 H 0.25194 0.05916 0.32022
   
