data_POSCAR
  _audit_creation_date              2014-09-24
  _audit_creation_method            'ToBaCCo'
  _symmetry_space_group_name_H-M    'P1'
  _symmetry_Int_Tables_number       1
  _symmetry_cell_setting            triclinic
  loop_
  _symmetry_equiv_pos_as_xyz
 x,y,z
_cell_length_a 55.4957
_cell_length_b 55.1732
_cell_length_c 56.8862
_cell_angle_alpha 88.969800
_cell_angle_beta 89.892500
_cell_angle_gamma 89.339600
loop_
  _atom_site_label
  _atom_site_type_symbol
  _atom_site_fract_x
  _atom_site_fract_y
  _atom_site_fract_z
N1 N 0.17232 0.22148 0.23428
 N2 N 0.18229 0.20280 0.24533
 C3 C 0.16931 0.19755 0.26477
 C4 C 0.15022 0.21373 0.26591
 C5 C 0.15265 0.22871 0.24626
 H6 H 0.17340 0.18311 0.27727
 H7 H 0.14124 0.24392 0.24121
 Cu8 Cu 0.21126 0.18711 0.23341
 Cu9 Cu 0.18605 0.23547 0.20559
 Cu10 Cu 0.23726 0.20744 0.18348
 N11 N 0.23948 0.17111 0.22021
 N12 N 0.24940 0.17902 0.20058
 C13 C 0.26803 0.16438 0.19502
 C14 C 0.26996 0.14642 0.21212
 C15 C 0.25156 0.15118 0.22789
 H16 H 0.27929 0.16650 0.17960
 H17 H 0.24702 0.14068 0.24346
 N18 N 0.22235 0.23639 0.16861
 N19 N 0.20268 0.24694 0.17684
 C20 C 0.19688 0.26599 0.16271
 C21 C 0.21372 0.26751 0.14485
 C22 C 0.22962 0.24846 0.14912
 H23 H 0.18159 0.27800 0.16519
 H24 H 0.24523 0.24365 0.13875
 H25 H 0.20191 0.20368 0.19442
 H26 H 0.22113 0.22433 0.21182
 N27 N 0.66704 0.73092 0.72639
 N28 N 0.67055 0.71149 0.73974
 C29 C 0.65373 0.71108 0.75691
 C30 C 0.63899 0.73137 0.75404
 C31 C 0.64795 0.74345 0.73454
 H32 H 0.65258 0.69734 0.77063
 H33 H 0.64132 0.76046 0.72716
 Cu34 Cu 0.69722 0.68908 0.73370
 Cu35 Cu 0.68834 0.73968 0.70047
 Cu36 Cu 0.73866 0.70326 0.69245
 N37 N 0.72542 0.66849 0.72824
 N38 N 0.74203 0.67490 0.71289
 C39 C 0.75950 0.65785 0.71254
 C40 C 0.75348 0.63963 0.72835
 C41 C 0.73171 0.64684 0.73795
 H42 H 0.77490 0.65814 0.70087
 H43 H 0.72121 0.63693 0.75086
 N44 N 0.73205 0.73250 0.67321
 N45 N 0.71222 0.74570 0.67541
 C46 C 0.71238 0.76366 0.65902
 C47 C 0.73341 0.76164 0.64606
 C48 C 0.74546 0.74183 0.65557
 H49 H 0.69852 0.77746 0.65698
 H50 H 0.76264 0.73464 0.64979
 H51 H 0.70147 0.70523 0.69370
 H52 H 0.71818 0.72333 0.71573
 N53 N 0.32290 0.76751 0.73153
 N54 N 0.31806 0.78736 0.74324
 C55 C 0.33336 0.78857 0.76160
 C56 C 0.34823 0.76824 0.76140
 C57 C 0.34102 0.75528 0.74222
 H58 H 0.33327 0.80272 0.77450
 H59 H 0.34855 0.73823 0.73644
 Cu60 Cu 0.29122 0.80881 0.73408
 Cu61 Cu 0.30596 0.75885 0.70295
 Cu62 Cu 0.25950 0.79701 0.68554
 N63 N 0.26412 0.82962 0.72406
 N64 N 0.25233 0.82463 0.70476
 C65 C 0.23469 0.84104 0.70124
 C66 C 0.23508 0.85724 0.71927
 C67 C 0.25403 0.84961 0.73366
 H68 H 0.22215 0.84108 0.68671
 H69 H 0.25996 0.85785 0.74973
 N70 N 0.26891 0.76833 0.66799
 N71 N 0.28659 0.75349 0.67445
 C72 C 0.28837 0.73556 0.65866
 C73 C 0.27086 0.73953 0.64164
 C74 C 0.25896 0.76033 0.64812
 H75 H 0.30133 0.72080 0.65950
 H76 H 0.24405 0.76893 0.63889
 H77 H 0.29594 0.79363 0.69435
 H78 H 0.27434 0.77529 0.71239
 N79 N 0.83276 0.26828 0.22764
 N80 N 0.82755 0.28761 0.23987
 C81 C 0.84360 0.28944 0.25749
 C82 C 0.85956 0.27002 0.25610
 C83 C 0.85215 0.25702 0.23702
 H84 H 0.84353 0.30364 0.27032
 H85 H 0.86035 0.24059 0.23044
 Cu86 Cu 0.80017 0.30797 0.23107
 Cu87 Cu 0.81421 0.25907 0.20046
 Cu88 Cu 0.76448 0.29483 0.18514
 N89 N 0.77266 0.32819 0.22273
 N90 N 0.75828 0.32298 0.20519
 C91 C 0.74070 0.34010 0.20372
 C92 C 0.74464 0.35683 0.22119
 C93 C 0.76500 0.34874 0.23273
 H94 H 0.72653 0.34061 0.19069
 H95 H 0.77354 0.35735 0.24740
 N96 N 0.77447 0.26551 0.16742
 N97 N 0.79356 0.25234 0.17355
 C98 C 0.79673 0.23447 0.15814
 C99 C 0.77894 0.23616 0.14146
 C100 C 0.76493 0.25604 0.14774
 H101 H 0.81125 0.22123 0.15867
 H102 H 0.74944 0.26335 0.13842
 H103 H 0.80081 0.29346 0.19097
 H104 H 0.78145 0.27465 0.21074
 N105 N 0.83095 0.72645 0.27264
 N106 N 0.82259 0.70970 0.25877
 C107 C 0.83626 0.70924 0.23904
 C108 C 0.85385 0.72684 0.24094
 C109 C 0.84982 0.73729 0.26237
 H110 H 0.83370 0.69709 0.22456
 H111 H 0.86023 0.75152 0.27017
 Cu112 Cu 0.79500 0.69028 0.26915
 Cu113 Cu 0.81848 0.73216 0.30388
 Cu114 Cu 0.76095 0.71131 0.31383
 N115 N 0.76571 0.67362 0.27941
 N116 N 0.75289 0.68189 0.29710
 C117 C 0.73399 0.66732 0.30090
 C118 C 0.73482 0.64893 0.28479
 C119 C 0.75521 0.65342 0.27131
 H120 H 0.72058 0.66988 0.31449
 H121 H 0.76195 0.64275 0.25690
 N122 N 0.77611 0.73606 0.33354
 N123 N 0.79848 0.74312 0.33007
 C124 C 0.80443 0.75906 0.34662
 C125 C 0.78490 0.76233 0.36124
 C126 C 0.76714 0.74749 0.35251
 H127 H 0.82169 0.76786 0.34786
 H128 H 0.74934 0.74472 0.35977
 H129 H 0.79599 0.70232 0.31036
 H130 H 0.78516 0.72722 0.29022
 N131 N 0.32686 0.23185 -0.22734
 N132 N 0.32286 0.21357 -0.24128
 C133 C 0.33953 0.21357 -0.25855
 C134 C 0.35480 0.23292 -0.25517
 C135 C 0.34622 0.24407 -0.23522
 H136 H 0.34044 0.20049 -0.27244
 H137 H 0.35356 0.25992 -0.22705
 Cu138 Cu 0.29611 0.19173 -0.23544
 Cu139 Cu 0.30668 0.23844 -0.19998
 Cu140 Cu 0.25911 0.19940 -0.18933
 N141 N 0.26949 0.16981 -0.22932
 N142 N 0.25482 0.17316 -0.21146
 C143 C 0.23772 0.15602 -0.21156
 C144 C 0.24198 0.14111 -0.23048
 C145 C 0.26230 0.15031 -0.24128
 H146 H 0.22342 0.15446 -0.19872
 H147 H 0.27100 0.14335 -0.25683
 N148 N 0.26639 0.22700 -0.16897
 N149 N 0.28428 0.24206 -0.17320
 C150 C 0.28445 0.25898 -0.15639
 C151 C 0.26583 0.25426 -0.14081
 C152 C 0.25484 0.23387 -0.14927
 H153 H 0.29737 0.27342 -0.15537
 H154 H 0.23951 0.22477 -0.14155
 H155 H 0.29581 0.20315 -0.19420
 H156 H 0.27573 0.22297 -0.21268
 N157 N 0.66900 0.28078 -0.22969
 N158 N 0.67333 0.30193 -0.23976
 C159 C 0.65824 0.30560 -0.25788
 C160 C 0.64332 0.28596 -0.25923
 C161 C 0.65057 0.27033 -0.24108
 H162 H 0.65789 0.32161 -0.26915
 H163 H 0.64308 0.25288 -0.23644
 Cu164 Cu 0.69724 0.32382 -0.22822
 Cu165 Cu 0.68802 0.26894 -0.20268
 Cu166 Cu 0.73711 0.30418 -0.18827
 N167 N 0.72630 0.34157 -0.22217
 N168 N 0.74233 0.33340 -0.20695
 C169 C 0.76031 0.34943 -0.20552
 C170 C 0.75507 0.36870 -0.22059
 C171 C 0.73339 0.36316 -0.23088
 H172 H 0.77545 0.34771 -0.19365
 H173 H 0.72340 0.37422 -0.24345
 N174 N 0.72889 0.27427 -0.17119
 N175 N 0.71013 0.26078 -0.17619
 C176 C 0.70880 0.24255 -0.16005
 C177 C 0.72758 0.24508 -0.14425
 C178 C 0.73980 0.26524 -0.15185
 H179 H 0.69485 0.22904 -0.15938
 H180 H 0.75517 0.27314 -0.14335
 H181 H 0.69961 0.30173 -0.19085
 H182 H 0.71766 0.28712 -0.21463
 N183 N 0.17099 0.77599 0.26720
 N184 N 0.18066 0.79453 0.25600
 C185 C 0.16732 0.80002 0.23683
 C186 C 0.14830 0.78417 0.23606
 C187 C 0.15116 0.76911 0.25560
 H188 H 0.17114 0.81439 0.22424
 H189 H 0.13996 0.75404 0.26079
 Cu190 Cu 0.20976 0.80969 0.26739
 Cu191 Cu 0.18527 0.76159 0.29546
 Cu192 Cu 0.23638 0.78881 0.31701
 N193 N 0.23786 0.82530 0.28045
 N194 N 0.24800 0.81717 0.29996
 C195 C 0.26661 0.83144 0.30533
 C196 C 0.26829 0.84942 0.28827
 C197 C 0.24977 0.84502 0.27267
 H198 H 0.27808 0.82898 0.32057
 H199 H 0.24508 0.85546 0.25705
 N200 N 0.22197 0.75995 0.33186
 N201 N 0.20238 0.74965 0.32379
 C202 C 0.19692 0.73058 0.33786
 C203 C 0.21389 0.72880 0.35553
 C204 C 0.22952 0.74770 0.35122
 H205 H 0.18172 0.71877 0.33550
 H206 H 0.24513 0.75232 0.36146
 H207 H 0.20094 0.79322 0.30648
 H208 H 0.22022 0.77234 0.28879
 N209 N 0.47759 0.41379 0.48524
 N210 N 0.45762 0.42269 0.49433
 C211 C 0.45135 0.40914 0.51319
 C212 C 0.46822 0.39082 0.51626
 C213 C 0.48470 0.39425 0.49819
 H214 H 0.43567 0.41233 0.52406
 H215 H 0.50056 0.38332 0.49462
 Cu216 Cu 0.44167 0.45126 0.48095
 Cu217 Cu 0.49248 0.42833 0.45724
 Cu218 Cu 0.46431 0.47953 0.43315
 N219 N 0.42615 0.47986 0.46716
 N220 N 0.43512 0.49092 0.44850
 C221 C 0.42094 0.51008 0.44273
 C222 C 0.40214 0.51105 0.45859
 C223 C 0.40599 0.49161 0.47387
 H224 H 0.42402 0.52245 0.42806
 H225 H 0.39500 0.48638 0.48876
 N226 N 0.49401 0.46531 0.41999
 N227 N 0.50472 0.44573 0.42892
 C228 C 0.52423 0.44048 0.41567
 C229 C 0.52585 0.45758 0.39768
 C230 C 0.50640 0.47303 0.40097
 H231 H 0.53638 0.42531 0.41878
 H232 H 0.50144 0.48861 0.39019
 H233 H 0.47970 0.46309 0.46254
 H234 H 0.46136 0.44355 0.44334
 N235 N -0.03121 -0.08353 0.99139
 N236 N -0.05033 -0.07400 1.00150
 C237 C -0.05610 -0.08765 1.02055
 C238 C -0.03967 -0.10661 1.02247
 C239 C -0.02412 -0.10343 1.00366
 H240 H -0.07111 -0.08416 1.03220
 H241 H -0.00890 -0.11480 0.99905
 Cu242 Cu -0.06568 -0.04466 0.98870
 Cu243 Cu -0.01705 -0.06978 0.96286
 Cu244 Cu -0.04474 -0.01844 0.93906
 N245 N -0.08125 -0.01591 0.97487
 N246 N -0.07294 -0.00596 0.95535
 C247 C -0.08671 0.01342 0.94946
 C248 C -0.10456 0.01586 0.96615
 C249 C -0.10065 -0.00307 0.98209
 H250 H -0.08393 0.02501 0.93419
 H251 H -0.11112 -0.00721 0.99765
 N252 N -0.01600 -0.03366 0.92509
 N253 N -0.00543 -0.05326 0.93408
 C254 C 0.01356 -0.05923 0.92047
 C255 C 0.01502 -0.04256 0.90216
 C256 C -0.00400 -0.02660 0.90560
 H257 H 0.02552 -0.07456 0.92358
 H258 H -0.00887 -0.01110 0.89467
 H259 H -0.02844 -0.03451 0.96810
 H260 H -0.04855 -0.05400 0.95039
 N261 N 1.02222 0.58076 0.97952
 N262 N 1.04130 0.57341 0.99145
 C263 C 1.04446 0.58849 1.00968
 C264 C 1.02629 0.60602 1.00873
 C265 C 1.01270 0.60049 0.98948
 H266 H 1.05880 0.58693 1.02249
 H267 H 0.99692 0.61026 0.98319
 Cu268 Cu 1.05968 0.54490 0.98115
 Cu269 Cu 1.01040 0.56490 0.95192
 Cu270 Cu 1.04216 0.51515 0.93261
 N271 N 1.07722 0.51631 0.96991
 N272 N 1.07015 0.50521 0.95087
 C273 C 1.08494 0.48634 0.94677
 C274 C 1.10225 0.48536 0.96402
 C275 C 1.09696 0.50466 0.97854
 H276 H 1.08324 0.47406 0.93227
 H277 H 1.10667 0.50979 0.99411
 N278 N 1.01324 0.52793 0.91654
 N279 N 1.00092 0.54675 0.92427
 C280 C 0.98164 0.55066 0.91037
 C281 C 0.98189 0.53360 0.89303
 C282 C 1.00216 0.51941 0.89735
 H283 H 0.96824 0.56479 0.91268
 H284 H 1.00810 0.50381 0.88759
 H285 H 1.02435 0.53072 0.96024
 H286 H 1.04364 0.55098 0.94156
 N287 N 0.52004 0.08551 0.47856
 N288 N 0.53961 0.08039 0.49071
 C289 C 0.54153 0.09647 0.50820
 C290 C 0.52207 0.11238 0.50664
 C291 C 0.50893 0.10492 0.48768
 H292 H 0.55587 0.09653 0.52104
 H293 H 0.49229 0.11293 0.48120
 Cu294 Cu 0.56015 0.05304 0.48215
 Cu295 Cu 0.50991 0.06655 0.45217
 Cu296 Cu 0.54506 0.01693 0.43706
 N297 N 0.58075 0.02629 0.47243
 N298 N 0.57418 0.01139 0.45586
 C299 C 0.59152 -0.00566 0.45319
 C300 C 0.61001 -0.00085 0.46864
 C301 C 0.60269 0.01955 0.48044
 H302 H 0.59119 -0.01984 0.44031
 H303 H 0.61270 0.02878 0.49383
 N304 N 0.51502 0.02630 0.42022
 N305 N 0.50211 0.04554 0.42602
 C306 C 0.48395 0.04862 0.41068
 C307 C 0.48531 0.03060 0.39440
 C308 C 0.50519 0.01657 0.40085
 H309 H 0.47093 0.06335 0.41083
 H310 H 0.51247 0.00115 0.39164
 H311 H 0.52619 0.03393 0.46298
 H312 H 0.54402 0.05347 0.44238
 N313 N -0.02233 0.08422 0.52069
 N314 N -0.04075 0.07882 0.50739
 C315 C -0.04233 0.09535 0.48958
 C316 C -0.02385 0.11183 0.49225
 C317 C -0.01168 0.10420 0.51209
 H318 H -0.05593 0.09557 0.47599
 H319 H 0.00387 0.11268 0.51969
 Cu320 Cu -0.06059 0.05095 0.51594
 Cu321 Cu -0.01300 0.06518 0.54810
 Cu322 Cu -0.04663 0.01455 0.56279
 N323 N -0.08008 0.02296 0.52443
 N324 N -0.07434 0.00833 0.54216
 C325 C -0.09113 -0.00917 0.54401
 C326 C -0.10834 -0.00498 0.52669
 C327 C -0.10077 0.01553 0.51474
 H328 H -0.09141 -0.02319 0.55753
 H329 H -0.11000 0.02453 0.50026
 N330 N -0.01788 0.02465 0.58117
 N331 N -0.00566 0.04424 0.57524
 C332 C 0.01215 0.04738 0.59073
 C333 C 0.01147 0.02909 0.60733
 C334 C -0.00783 0.01477 0.60091
 H335 H 0.02481 0.06212 0.59023
 H336 H -0.01423 -0.00126 0.61005
 H337 H -0.02723 0.03210 0.53751
 H338 H -0.04695 0.05100 0.55664
 N339 N 0.47181 0.58185 0.01089
 N340 N 0.45375 0.57139 0.00029
 C341 C 0.44884 0.58361 -0.01990
 C342 C 0.46446 0.60284 -0.02185
 C343 C 0.47883 0.60119 -0.00203
 H344 H 0.43490 0.57902 -0.03225
 H345 H 0.49362 0.61283 0.00242
 Cu346 Cu 0.43824 0.54321 0.01438
 Cu347 Cu 0.48570 0.56898 0.04005
 Cu348 Cu 0.45892 0.51795 0.06465
 N349 N 0.42307 0.51481 0.02844
 N350 N 0.43115 0.50516 0.04824
 C351 C 0.41723 0.48628 0.05447
 C352 C 0.39953 0.48394 0.03768
 C353 C 0.40374 0.50234 0.02137
 H354 H 0.41969 0.47511 0.07013
 H355 H 0.39336 0.50657 0.00574
 N356 N 0.48714 0.53360 0.07859
 N357 N 0.49719 0.55317 0.06939
 C358 C 0.51597 0.55940 0.08291
 C359 C 0.51783 0.54299 0.10143
 C360 C 0.49927 0.52687 0.09817
 H361 H 0.52762 0.57465 0.07953
 H362 H 0.49491 0.51138 0.10919
 H363 H 0.47536 0.53349 0.03550
 H364 H 0.45458 0.55323 0.05271
 N365 N 0.52940 -0.08354 0.01417
 N366 N 0.54985 -0.07539 0.00562
 C367 C 0.55690 -0.08947 -0.01230
 C368 C 0.53984 -0.10715 -0.01525
 C369 C 0.52260 -0.10289 0.00183
 H370 H 0.57313 -0.08705 -0.02258
 H371 H 0.50663 -0.11338 0.00538
 Cu372 Cu 0.56516 -0.04701 0.01847
 Cu373 Cu 0.51376 -0.06927 0.04140
 Cu374 Cu 0.54013 -0.01825 0.06424
 N375 N 0.57893 -0.01765 0.03092
 N376 N 0.56905 -0.00659 0.04886
 C377 C 0.58220 0.01289 0.05413
 C378 C 0.60126 0.01417 0.03865
 C379 C 0.59871 -0.00546 0.02408
 H380 H 0.57826 0.02522 0.06823
 H381 H 0.61039 -0.01059 0.00974
 N382 N 0.51083 -0.03271 0.07747
 N383 N 0.50078 -0.05224 0.06895
 C384 C 0.48169 -0.05815 0.08248
 C385 C 0.47966 -0.04148 0.10021
 C386 C 0.49840 -0.02561 0.09651
 H387 H 0.47028 -0.07363 0.07992
 H388 H 0.50306 -0.01039 0.10723
 H389 H 0.52640 -0.03474 0.03484
 H390 H 0.54432 -0.05437 0.05565
 N391 N 1.02069 0.41820 0.52103
 N392 N 1.03958 0.42158 0.50743
 C393 C 1.04011 0.40438 0.49092
 C394 C 1.02049 0.38947 0.49442
 C395 C 1.00856 0.39878 0.51363
 H396 H 1.05359 0.40301 0.47727
 H397 H 0.99217 0.39196 0.52151
 Cu398 Cu 1.06127 0.44850 0.51224
 Cu399 Cu 1.01310 0.43931 0.54716
 Cu400 Cu 1.05170 0.48712 0.55638
 N401 N 1.08261 0.47561 0.51753
 N402 N 1.07871 0.49058 0.53488
 C403 C 1.09572 0.50774 0.53455
 C404 C 1.11113 0.50330 0.51595
 C405 C 1.10231 0.48280 0.50553
 H406 H 1.09668 0.52235 0.54690
 H407 H 1.10972 0.47390 0.49031
 N408 N 1.02339 0.48075 0.57624
 N409 N 1.00855 0.46266 0.57267
 C410 C 0.99081 0.46342 0.58886
 C411 C 0.99478 0.48294 0.60322
 C412 C 1.01553 0.49346 0.59477
 H413 H 0.97614 0.45075 0.59005
 H414 H 1.02413 0.50932 0.60164
 H415 H 1.02928 0.46983 0.53317
 H416 H 1.04800 0.45005 0.55307
 C417 C 0.37808 -0.00495 0.24989
 C418 C 0.11977 0.00026 0.75533
 C419 C 0.62546 0.50114 0.24704
 C420 C 0.87931 0.50020 0.74527
 C421 C 0.25301 0.37590 -0.00261
 C422 C 0.74567 0.12581 -0.00161
 C423 C 0.25596 0.62090 0.50277
 C424 C 0.74875 0.87708 0.50030
 C425 C 0.00194 0.25333 0.37148
 C426 C 0.00212 0.74293 0.12987
 C427 C 0.50083 0.24518 0.63236
 C428 C 0.49672 0.75443 0.87164
 C429 C 0.13195 0.21465 0.28469
 C430 C 0.11215 0.23036 0.28362
 C431 C 0.09408 0.23164 0.30252
 N432 N 0.07429 0.24600 0.29960
 N433 N 0.05777 0.24756 0.31652
 C434 C 0.06042 0.23488 0.33706
 N435 N 0.08026 0.22055 0.34003
 N436 N 0.09678 0.21893 0.32306
 C437 C 0.04219 0.23659 0.35584
 C438 C 0.02082 0.24978 0.35248
 H439 H 0.10954 0.24203 0.26832
 H440 H 0.04552 0.22726 0.37245
 H441 H 0.13413 0.20243 0.29967
 H442 H 0.01843 0.25971 0.33601
 C443 C 0.61856 0.73966 0.76851
 C444 C 0.61027 0.72700 0.78830
 C445 C 0.58973 0.73594 0.80232
 N446 N 0.58121 0.72244 0.82063
 N447 N 0.56246 0.73020 0.83321
 C448 C 0.55156 0.75182 0.82801
 N449 N 0.56016 0.76538 0.80979
 N450 N 0.57888 0.75759 0.79718
 C451 C 0.53045 0.76047 0.84133
 C452 C 0.51960 0.74647 0.85901
 H453 H 0.61880 0.71003 0.79358
 H454 H 0.52281 0.77805 0.83668
 H455 H 0.60974 0.75650 0.76324
 H456 H 0.52763 0.72901 0.86354
 C457 C 0.36708 0.76072 0.77825
 C458 C 0.37981 0.77724 0.79146
 C459 C 0.39922 0.76927 0.80752
 N460 N 0.41692 0.78482 0.81332
 N461 N 0.43468 0.77771 0.82769
 C462 C 0.43526 0.75485 0.83700
 N463 N 0.41737 0.73941 0.83147
 N464 N 0.39977 0.74642 0.81686
 C465 C 0.45443 0.74704 0.85340
 C466 C 0.47674 0.75854 0.85360
 H467 H 0.37654 0.79650 0.78887
 H468 H 0.45061 0.73212 0.86532
 H469 H 0.37215 0.74170 0.77909
 H470 H 0.47971 0.77273 0.84051
 C471 C -0.12086 0.26391 0.27031
 C472 C -0.11351 0.27753 0.28938
 C473 C -0.09246 0.26993 0.30345
 N474 N -0.08447 0.28388 0.32118
 N475 N -0.06515 0.27711 0.33367
 C476 C -0.05322 0.25612 0.32886
 N477 N -0.06129 0.24217 0.31125
 N478 N -0.08053 0.24894 0.29879
 C479 C -0.03168 0.24829 0.34188
 C480 C -0.02121 0.26185 0.35956
 H481 H -0.12300 0.29403 0.29397
 H482 H -0.02317 0.23141 0.33677
 H483 H -0.11084 0.24761 0.26598
 H484 H -0.02957 0.27891 0.36438
 C485 C -0.12642 0.73391 0.22504
 C486 C -0.11862 0.72076 0.20571
 C487 C -0.09690 0.72832 0.19252
 N488 N -0.08792 0.71467 0.17483
 N489 N -0.06779 0.72118 0.16358
 C490 C -0.05595 0.74159 0.16963
 N491 N -0.06502 0.75526 0.18717
 N492 N -0.08507 0.74877 0.19837
 C493 C -0.03326 0.74889 0.15825
 C494 C -0.02227 0.73587 0.14024
 H495 H -0.12779 0.70437 0.20088
 H496 H -0.02455 0.76497 0.16460
 H497 H -0.11660 0.74992 0.22987
 H498 H -0.03154 0.72035 0.13335
 C499 C 0.37477 0.24014 0.73154
 C500 C 0.38256 0.22809 0.71147
 C501 C 0.40409 0.23555 0.69811
 N502 N 0.41129 0.22267 0.67919
 N503 N 0.43103 0.22880 0.66723
 C504 C 0.44431 0.24810 0.67370
 N505 N 0.43704 0.26106 0.69253
 N506 N 0.41731 0.25492 0.70451
 C507 C 0.46677 0.25447 0.66133
 C508 C 0.47611 0.24061 0.64304
 H509 H 0.37293 0.21246 0.70537
 H510 H 0.47691 0.26974 0.66753
 H511 H 0.38462 0.25579 0.73731
 H512 H 0.46551 0.22576 0.63658
 C513 C 0.62485 0.28406 0.72442
 C514 C 0.60881 0.26485 0.72347
 C515 C 0.58916 0.26522 0.70604
 N516 N 0.57380 0.24634 0.70467
 N517 N 0.55609 0.24672 0.68884
 C518 C 0.55306 0.26602 0.67388
 N519 N 0.56837 0.28488 0.67533
 N520 N 0.58605 0.28448 0.69110
 C521 C 0.53413 0.26662 0.65583
 C522 C 0.51891 0.24704 0.65233
 H523 H 0.61043 0.24960 0.73564
 H524 H 0.53291 0.28264 0.64464
 H525 H 0.62276 0.29897 0.71189
 H526 H 0.52041 0.23151 0.66422
 C527 C 0.12981 0.78337 0.21758
 C528 C 0.10977 0.76848 0.21944
 C529 C 0.09190 0.76677 0.20050
 N530 N 0.07168 0.75361 0.20406
 N531 N 0.05552 0.75144 0.18697
 C532 C 0.05904 0.76227 0.16563
 N533 N 0.07928 0.77540 0.16205
 N534 N 0.09540 0.77765 0.17918
 C535 C 0.04163 0.75958 0.14640
 C536 C 0.01953 0.74809 0.14975
 H537 H 0.10695 0.75770 0.23526
 H538 H 0.04652 0.76669 0.12923
 H539 H 0.13207 0.79494 0.20217
 H540 H 0.01571 0.74027 0.16696
 C541 C 0.28753 0.12625 0.21236
 C542 C 0.29025 0.11038 0.23154
 C543 C 0.30745 0.08990 0.23119
 N544 N 0.31156 0.07649 0.25104
 N545 N 0.32694 0.05776 0.25088
 C546 C 0.33868 0.05172 0.23081
 N547 N 0.33450 0.06507 0.21096
 N548 N 0.31921 0.08385 0.21115
 C549 C 0.35540 0.03089 0.23009
 C550 C 0.36228 0.01776 0.25028
 H551 H 0.27975 0.11311 0.24734
 H552 H 0.36224 0.02574 0.21304
 H553 H 0.29882 0.12407 0.19698
 H554 H 0.35446 0.02274 0.26701
 C555 C 0.76649 0.61658 0.73255
 C556 C 0.79095 0.61429 0.72736
 C557 C 0.80408 0.59109 0.72910
 N558 N 0.82846 0.59096 0.73078
 N559 N 0.84078 0.57012 0.73175
 C560 C 0.82919 0.54863 0.73069
 N561 N 0.80482 0.54875 0.72871
 N562 N 0.79246 0.56961 0.72802
 C563 C 0.84263 0.52556 0.73190
 C564 C 0.86495 0.52375 0.74309
 H565 H 0.80105 0.63021 0.72222
 H566 H 0.83415 0.50942 0.72543
 H567 H 0.75679 0.60134 0.74000
 H568 H 0.87310 0.54018 0.74939
 C569 C 0.76837 0.39131 0.77614
 C570 C 0.79220 0.39341 0.78322
 C571 C 0.80536 0.41604 0.77968
 N572 N 0.82973 0.41552 0.77825
 N573 N 0.84185 0.43584 0.77413
 C574 C 0.83004 0.45742 0.77162
 N575 N 0.80569 0.45803 0.77360
 N576 N 0.79354 0.43766 0.77745
 C577 C 0.84316 0.47961 0.76577
 C578 C 0.86456 0.47847 0.75293
 H579 H 0.80192 0.37772 0.79012
 H580 H 0.83510 0.49686 0.77025
 H581 H 0.75939 0.40640 0.76725
 H582 H 0.87198 0.46070 0.74905
 C583 C 0.28520 -0.13208 0.28779
 C584 C 0.28660 -0.11482 0.26963
 C585 C 0.30443 -0.09534 0.26988
 N586 N 0.30733 -0.08078 0.25064
 N587 N 0.32344 -0.06307 0.25065
 C588 C 0.33715 -0.05922 0.26995
 N589 N 0.33415 -0.07369 0.28923
 N590 N 0.31812 -0.09146 0.28918
 C591 C 0.35493 -0.03973 0.27037
 C592 C 0.36060 -0.02595 0.25030
 H593 H 0.27472 -0.11568 0.25462
 H594 H 0.36363 -0.03628 0.28696
 H595 H 0.29788 -0.13139 0.30221
 H596 H 0.35076 -0.02922 0.23424
 C597 C 0.21885 -0.12347 0.72107
 C598 C 0.21772 -0.10717 0.73949
 C599 C 0.19921 -0.08772 0.73911
 N600 N 0.19545 -0.07356 0.75809
 N601 N 0.17827 -0.05642 0.75769
 C602 C 0.16429 -0.05282 0.73828
 N603 N 0.16820 -0.06683 0.71933
 N604 N 0.18527 -0.08393 0.71976
 C605 C 0.14507 -0.03429 0.73722
 C606 C 0.13912 -0.01965 0.75618
 H607 H 0.22985 -0.10898 0.75432
 H608 H 0.13550 -0.03217 0.72074
 H609 H 0.20587 -0.12147 0.70694
 H610 H 0.14959 -0.02158 0.77219
 C611 C 0.73154 0.37926 0.22693
 C612 C 0.70883 0.38550 0.21826
 C613 C 0.69664 0.40803 0.22565
 N614 N 0.67329 0.41247 0.21980
 N615 N 0.66223 0.43278 0.22657
 C616 C 0.67412 0.44939 0.23942
 N617 N 0.69747 0.44498 0.24516
 N618 N 0.70849 0.42468 0.23846
 C619 C 0.66247 0.47224 0.24650
 C620 C 0.63806 0.47701 0.24239
 H621 H 0.69959 0.37344 0.20658
 H622 H 0.67354 0.48565 0.25478
 H623 H 0.74003 0.39099 0.23946
 H624 H 0.62720 0.46244 0.23571
 C625 C 0.71735 0.62903 0.28360
 C626 C 0.71702 0.61194 0.26581
 C627 C 0.69891 0.59249 0.26566
 N628 N 0.69751 0.57725 0.24722
 N629 N 0.68115 0.55970 0.24704
 C630 C 0.66560 0.55671 0.26534
 N631 N 0.66708 0.57189 0.28377
 N632 N 0.68336 0.58942 0.28392
 C633 C 0.64741 0.53742 0.26580
 C634 C 0.64371 0.52180 0.24703
 H635 H 0.72998 0.61300 0.25159
 H636 H 0.63670 0.53569 0.28163
 H637 H 0.70383 0.62817 0.29733
 H638 H 0.65490 0.52396 0.23151
 C639 C 0.22837 0.11978 0.76207
 C640 C 0.20593 0.11396 0.77153
 C641 C 0.19246 0.09245 0.76440
 N642 N 0.17001 0.08866 0.77308
 N643 N 0.15777 0.06899 0.76734
 C644 C 0.16753 0.05235 0.75269
 N645 N 0.18998 0.05617 0.74396
 N646 N 0.20220 0.07587 0.74966
 C647 C 0.15483 0.02978 0.74740
 C648 C 0.13185 0.02492 0.75637
 H649 H 0.19777 0.12560 0.78450
 H650 H 0.16436 0.01618 0.73740
 H651 H 0.23611 0.10867 0.74843
 H652 H 0.12211 0.03960 0.76471
 C653 C 0.21398 0.28564 0.12550
 C654 C 0.23259 0.28682 0.10899
 C655 C 0.23261 0.30470 0.08946
 N656 N 0.25169 0.30576 0.07453
 N657 N 0.25193 0.32175 0.05669
 C658 C 0.23306 0.33726 0.05310
 N659 N 0.21398 0.33619 0.06803
 N660 N 0.21375 0.32023 0.08588
 C661 C 0.23289 0.35504 0.03350
 C662 C 0.25232 0.35771 0.01796
 H663 H 0.24774 0.27436 0.11036
 H664 H 0.21687 0.36622 0.03144
 H665 H 0.19910 0.29847 0.12436
 H666 H 0.26793 0.34592 0.02025
 C667 C 0.74197 0.77724 0.62661
 C668 C 0.72650 0.79252 0.61386
 C669 C 0.73505 0.80795 0.59429
 N670 N 0.71896 0.81790 0.57891
 N671 N 0.72636 0.83201 0.56115
 C672 C 0.75013 0.83686 0.55818
 N673 N 0.76622 0.82710 0.57369
 N674 N 0.75884 0.81281 0.59137
 C675 C 0.75835 0.85294 0.53892
 C676 C 0.74335 0.85879 0.51989
 H677 H 0.70738 0.79249 0.61767
 H678 H 0.77637 0.86013 0.53990
 H679 H 0.76077 0.77584 0.62161
 H680 H 0.72612 0.84976 0.51895
 C681 C 0.78464 0.77772 0.38211
 C682 C 0.76360 0.78537 0.39329
 C683 C 0.76452 0.80111 0.41394
 N684 N 0.74464 0.81371 0.42079
 N685 N 0.74547 0.82809 0.43937
 C686 C 0.76616 0.83026 0.45188
 N687 N 0.78593 0.81746 0.44518
 N688 N 0.78517 0.80327 0.42650
 C689 C 0.76722 0.84553 0.47282
 C690 C 0.74973 0.86320 0.47747
 H691 H 0.74620 0.78061 0.38624
 H692 H 0.78203 0.84261 0.48495
 H693 H 0.80184 0.78418 0.38825
 H694 H 0.73517 0.86569 0.46493
 C695 C 0.25905 0.26733 -0.11933
 C696 C 0.26878 0.28971 -0.11378
 C697 C 0.26257 0.30252 -0.09204
 N698 N 0.27096 0.32519 -0.08869
 N699 N 0.26601 0.33690 -0.06895
 C700 C 0.25249 0.32637 -0.05174
 N701 N 0.24408 0.30367 -0.05507
 N702 N 0.24898 0.29198 -0.07487
 C703 C 0.24774 0.33877 -0.02941
 C704 C 0.25493 0.36266 -0.02587
 H705 H 0.28128 0.29835 -0.12582
 H706 H 0.23890 0.32869 -0.01544
 H707 H 0.24577 0.25919 -0.10778
 H708 H 0.26203 0.37270 -0.04087
 C709 C 0.73340 0.23134 -0.12262
 C710 C 0.72270 0.20958 -0.11605
 C711 C 0.72962 0.19702 -0.09396
 N712 N 0.72166 0.17433 -0.08910
 N713 N 0.72793 0.16294 -0.06912
 C714 C 0.74237 0.17385 -0.05328
 N715 N 0.75022 0.19656 -0.05811
 N716 N 0.74401 0.20790 -0.07808
 C717 C 0.74882 0.16189 -0.03081
 C718 C 0.74196 0.13818 -0.02547
 H719 H 0.70954 0.20142 -0.12739
 H720 H 0.75853 0.17226 -0.01799
 H721 H 0.74726 0.23874 -0.11154
 H722 H 0.73391 0.12776 -0.03936
 C723 C 0.21444 0.71065 0.37483
 C724 C 0.23296 0.70949 0.39134
 C725 C 0.23327 0.69168 0.41090
 N726 N 0.25234 0.69065 0.42580
 N727 N 0.25287 0.67474 0.44369
 C728 C 0.23431 0.65930 0.44739
 N729 N 0.21522 0.66036 0.43252
 N730 N 0.21471 0.67624 0.41459
 C731 C 0.23454 0.64167 0.46710
 C732 C 0.25439 0.63879 0.48206
 H733 H 0.24784 0.72194 0.38999
 H734 H 0.21868 0.63071 0.46955
 H735 H 0.19982 0.69783 0.37595
 H736 H 0.26996 0.65010 0.47895
 C737 C 0.26495 0.72551 0.62077
 C738 C 0.27747 0.70477 0.61403
 C739 C 0.27050 0.69171 0.59280
 N740 N 0.28324 0.67189 0.58602
 N741 N 0.27701 0.66006 0.56677
 C742 C 0.25782 0.66761 0.55362
 N743 N 0.24509 0.68738 0.56042
 N744 N 0.25132 0.69920 0.57963
 C745 C 0.25067 0.65478 0.53236
 C746 C 0.26347 0.63467 0.52432
 H747 H 0.29261 0.69807 0.62432
 H748 H 0.23495 0.66124 0.52276
 H749 H 0.24997 0.73209 0.61018
 H750 H 0.27903 0.62835 0.53430
 C751 C 0.77771 0.21998 0.12125
 C752 C 0.75895 0.21928 0.10504
 C753 C 0.75990 0.20166 0.08577
 N754 N 0.74066 0.19848 0.07147
 N755 N 0.74159 0.18217 0.05441
 C756 C 0.76183 0.16852 0.05102
 N757 N 0.78104 0.17183 0.06521
 N758 N 0.78008 0.18803 0.08222
 C759 C 0.76353 0.15022 0.03256
 C760 C 0.74436 0.14467 0.01777
 H761 H 0.74341 0.23116 0.10680
 H762 H 0.78066 0.14087 0.03080
 H763 H 0.79264 0.20731 0.11951
 H764 H 0.72764 0.15483 0.01950
 C765 C 0.46765 0.37201 0.53497
 C766 C 0.48616 0.35508 0.53862
 C767 C 0.48499 0.33634 0.55743
 N768 N 0.50419 0.32141 0.56150
 N769 N 0.50332 0.30426 0.57828
 C770 C 0.48317 0.30135 0.59162
 N771 N 0.46397 0.31627 0.58752
 N772 N 0.46487 0.33346 0.57079
 C773 C 0.48166 0.28206 0.60984
 C774 C 0.50142 0.26717 0.61566
 H775 H 0.50208 0.35566 0.52762
 H776 H 0.46444 0.27938 0.61835
 H777 H 0.45208 0.37176 0.54650
 H778 H 0.51835 0.27049 0.60669
 C779 C -0.03946 0.87402 0.04069
 C780 C -0.02109 0.85659 0.04219
 C781 C -0.02085 0.83694 0.06005
 N782 N -0.00173 0.82142 0.06132
 N783 N -0.00121 0.80338 0.07720
 C784 C -0.01984 0.80012 0.09241
 N785 N -0.03900 0.81561 0.09112
 N786 N -0.03949 0.83370 0.07526
 C787 C -0.01963 0.78006 0.10991
 C788 C 0.00044 0.76474 0.11295
 H789 H -0.00616 0.85731 0.02994
 H790 H -0.03568 0.77756 0.12039
 H791 H -0.05409 0.87364 0.05330
 H792 H 0.01603 0.76809 0.10192
 C793 C 0.02090 0.62676 0.02375
 C794 C 0.03340 0.63275 0.04399
 C795 C 0.02552 0.65393 0.05769
 N796 N 0.03703 0.65998 0.07776
 N797 N 0.02957 0.67904 0.09007
 C798 C 0.01034 0.69269 0.08274
 N799 N -0.00107 0.68664 0.06271
 N800 N 0.00636 0.66767 0.05046
 C801 C 0.00151 0.71371 0.09586
 C802 C 0.01212 0.72144 0.11657
 H803 H 0.04867 0.62188 0.04987
 H804 H -0.01402 0.72355 0.08898
 H805 H 0.00560 0.63789 0.01836
 H806 H 0.02733 0.71123 0.12371
 C807 C 0.51540 0.13287 0.52152
 C808 C 0.52787 0.13890 0.54174
 C809 C 0.51971 0.15915 0.55637
 N810 N 0.53172 0.16448 0.57633
 N811 N 0.52432 0.18272 0.58968
 C812 C 0.50462 0.19628 0.58356
 N813 N 0.49264 0.19095 0.56362
 N814 N 0.50003 0.17272 0.55028
 C815 C 0.49636 0.21665 0.59790
 C816 C 0.50836 0.22329 0.61827
 H817 H 0.54362 0.12848 0.54716
 H818 H 0.48077 0.22709 0.59204
 H819 H 0.49956 0.14332 0.51641
 H820 H 0.52389 0.21257 0.62391
 C821 C -0.01747 0.13349 0.47831
 C822 C -0.02754 0.13981 0.45664
 C823 C -0.01932 0.16157 0.44361
 N824 N -0.02755 0.16662 0.42159
 N825 N -0.02002 0.18624 0.40981
 C826 C -0.00398 0.20152 0.41962
 N827 N 0.00417 0.19650 0.44162
 N828 N -0.00331 0.17689 0.45336
 C829 C 0.00404 0.22367 0.40724
 C830 C -0.00310 0.22938 0.38427
 H831 H -0.04111 0.12849 0.44892
 H832 H 0.01548 0.23585 0.41674
 H833 H -0.00340 0.14466 0.48540
 H834 H -0.01313 0.21589 0.37488
 C835 C 0.46568 0.62065 0.95861
 C836 C 0.47749 0.64261 0.96088
 C837 C 0.47945 0.66038 0.94142
 N838 N 0.48665 0.68323 0.94589
 N839 N 0.48904 0.69948 0.92848
 C840 C 0.48448 0.69344 0.90589
 N841 N 0.47739 0.67053 0.90137
 N842 N 0.47483 0.65430 0.91883
 C843 C 0.48788 0.71111 0.88651
 C844 C 0.49045 0.73581 0.89071
 H845 H 0.48506 0.64733 0.97770
 H846 H 0.48851 0.70467 0.86864
 H847 H 0.45649 0.61665 0.94239
 H848 H 0.48855 0.74187 0.90867
 C849 C 0.54063 0.87340 0.96741
 C850 C 0.52007 0.86077 0.96128
 C851 C 0.52058 0.84114 0.94416
 N852 N 0.49966 0.83354 0.93465
 N853 N 0.49965 0.81548 0.91945
 C854 C 0.52055 0.80419 0.91330
 N855 N 0.54149 0.81167 0.92294
 N856 N 0.54153 0.82991 0.93801
 C857 C 0.52044 0.78348 0.89736
 C858 C 0.50027 0.77841 0.88372
 H859 H 0.50280 0.86597 0.96864
 H860 H 0.53608 0.77156 0.89696
 H861 H 0.55758 0.86960 0.95867
 H862 H 0.48489 0.79069 0.88463
 C863 C 0.01298 0.36852 0.48065
 C864 C 0.02664 0.35964 0.46204
 C865 C 0.01878 0.33916 0.44785
 N866 N 0.03308 0.33104 0.43024
 N867 N 0.02613 0.31275 0.41698
 C868 C 0.00461 0.30189 0.42083
 N869 N -0.00969 0.30999 0.43847
 N870 N -0.00273 0.32828 0.45175
 C871 C -0.00350 0.28200 0.40599
 C872 C 0.01063 0.27299 0.38770
 H873 H 0.04364 0.36795 0.45754
 H874 H -0.02112 0.27439 0.40929
 H875 H -0.00383 0.35989 0.48537
 H876 H 0.02837 0.28053 0.38480
 C877 C 0.38252 0.52919 0.45873
 C878 C 0.36455 0.52904 0.47587
 C879 C 0.34514 0.54735 0.47637
 N880 N 0.32899 0.54700 0.49427
 N881 N 0.31145 0.56360 0.49524
 C882 C 0.30935 0.58115 0.47831
 N883 N 0.32543 0.58144 0.46031
 N884 N 0.34303 0.56485 0.45935
 C885 C 0.29040 0.59990 0.47954
 C886 C 0.27512 0.60143 0.49903
 H887 H 0.36477 0.51533 0.48970
 H888 H 0.28908 0.61295 0.46517
 H889 H 0.38238 0.54312 0.44509
 H890 H 0.27716 0.58801 0.51307
 C891 C 0.87664 0.03491 -0.03391
 C892 C 0.85996 0.03748 -0.01577
 C893 C 0.84109 0.05648 -0.01639
 N894 N 0.82546 0.05851 0.00184
 N895 N 0.80801 0.07530 0.00135
 C896 C 0.80554 0.09073 -0.01741
 N897 N 0.82122 0.08876 -0.03561
 N898 N 0.83869 0.07197 -0.03511
 C899 C 0.78566 0.10864 -0.01867
 C900 C 0.76885 0.11084 -0.00047
 H901 H 0.86060 0.02525 -0.00069
 H902 H 0.78378 0.11941 -0.03465
 H903 H 0.87611 0.04744 -0.04878
 H904 H 0.77159 0.09998 0.01540
 C905 C 0.62010 0.03264 0.03853
 C906 C 0.63788 0.03370 0.02129
 C907 C 0.65662 0.05223 0.02126
 N908 N 0.67251 0.05350 0.00318
 N909 N 0.68955 0.07027 0.00278
 C910 C 0.69138 0.08635 0.02047
 N911 N 0.67555 0.08503 0.03862
 N912 N 0.65845 0.06828 0.03900
 C913 C 0.71005 0.10503 0.02005
 C914 C 0.72570 0.10745 0.00092
 H915 H 0.63798 0.02084 0.00715
 H916 H 0.71130 0.11683 0.03496
 H917 H 0.61973 0.04591 0.05233
 H918 H 0.72407 0.09470 -0.01328
 C919 C 0.13242 0.51710 0.50842
 C920 C 0.13958 0.53800 0.51978
 C921 C 0.16125 0.55143 0.51287
 N922 N 0.16762 0.57128 0.52503
 N923 N 0.18746 0.58342 0.51935
 C924 C 0.20165 0.57616 0.50125
 N925 N 0.19522 0.55638 0.48901
 N926 N 0.17538 0.54423 0.49470
 C927 C 0.22399 0.58890 0.49521
 C928 C 0.23214 0.60855 0.50804
 H929 H 0.12922 0.54471 0.53447
 H930 H 0.23468 0.58228 0.48067
 H931 H 0.14275 0.51050 0.49364
 H932 H 0.22078 0.61559 0.52191
 C933 C 0.12165 0.46703 -0.03466
 C934 C 0.13914 0.46597 -0.01714
 C935 C 0.15826 0.44719 -0.01732
 N936 N 0.17541 0.44647 -0.00034
 N937 N 0.19288 0.42968 -0.00064
 C938 C 0.19383 0.41298 -0.01791
 N939 N 0.17666 0.41367 -0.03482
 N940 N 0.15922 0.43043 -0.03453
 C941 C 0.21325 0.39461 -0.01888
 C942 C 0.23162 0.39337 -0.00215
 H943 H 0.13895 0.47911 -0.00323
 H944 H 0.21307 0.38210 -0.03331
 H945 H 0.12207 0.45370 -0.04841
 H946 H 0.23087 0.40584 0.01238
 C947 C 0.63333 0.98656 0.47129
 C948 C 0.63595 0.96182 0.46761
 C949 C 0.65917 0.94928 0.47136
 N950 N 0.65967 0.92581 0.47884
 N951 N 0.68060 0.91432 0.48252
 C952 C 0.70180 0.92577 0.47855
 N953 N 0.70131 0.94914 0.47069
 N954 N 0.68036 0.96076 0.46736
 C955 C 0.72488 0.91289 0.48207
 C956 C 0.72716 0.89435 0.49896
 H957 H 0.62024 0.95113 0.46373
 H958 H 0.74019 0.91788 0.47127
 H959 H 0.64839 0.99667 0.47796
 H960 H 0.71172 0.89083 0.51022
 C961 C 0.86876 0.98250 0.52249
 C962 C 0.86437 0.95864 0.52963
 C963 C 0.84109 0.94699 0.52473
 N964 N 0.83936 0.92245 0.52492
 N965 N 0.81839 0.91187 0.52043
 C966 C 0.79831 0.92545 0.51579
 N967 N 0.80000 0.94996 0.51586
 N968 N 0.82099 0.96053 0.52011
 C969 C 0.77478 0.91419 0.51131
 C970 C 0.77264 0.89011 0.50431
 H971 H 0.87857 0.94800 0.53799
 H972 H 0.75892 0.92551 0.51335
 H973 H 0.85519 0.99222 0.51227
 H974 H 0.78912 0.87962 0.50244
 C975 C 0.38026 0.46581 0.03794
 C976 C 0.36422 0.46359 0.01931
 C977 C 0.34480 0.44569 0.01948
 N978 N 0.33094 0.44331 0.00009
 N979 N 0.31318 0.42730 -0.00014
 C980 C 0.30856 0.41309 0.01905
 N981 N 0.32237 0.41552 0.03851
 N982 N 0.34020 0.43151 0.03871
 C983 C 0.28873 0.39558 0.01901
 C984 C 0.27512 0.39179 -0.00123
 H985 H 0.36598 0.47516 0.00386
 H986 H 0.28465 0.38599 0.03527
 H987 H 0.37887 0.45379 0.05313
 H988 H 0.27946 0.40240 -0.01688
 C989 C 0.54429 0.45852 0.37893
 C990 C 0.54496 0.47734 0.36221
 C991 C 0.56269 0.47832 0.34291
 N992 N 0.56218 0.49733 0.32745
 N993 N 0.57770 0.49843 0.30958
 C994 C 0.59438 0.48056 0.30649
 N995 N 0.59495 0.46156 0.32200
 N996 N 0.57941 0.46046 0.33990
 C997 C 0.61114 0.48119 0.28633
 C998 C 0.61073 0.50019 0.26967
 H999 H 0.53190 0.49201 0.36305
 H1000 H 0.62350 0.46605 0.28439
 H1001 H 0.55758 0.44401 0.37832
 H1002 H 0.59841 0.51527 0.27249
 C1003 C 0.03302 -0.04243 0.88312
 C1004 C 0.03421 -0.02361 0.86652
 C1005 C 0.05183 -0.02339 0.84721
 N1006 N 0.05289 -0.00383 0.83250
 N1007 N 0.06858 -0.00328 0.81477
 C1008 C 0.08376 -0.02231 0.81106
 N1009 N 0.08269 -0.04191 0.82576
 N1010 N 0.06702 -0.04244 0.84354
 C1011 C 0.10103 -0.02193 0.79141
 C1012 C 0.10329 -0.00156 0.77661
 H1013 H 0.02196 -0.00828 0.86766
 H1014 H 0.11182 -0.03807 0.78856
 H1015 H 0.04574 -0.05744 0.88234
 H1016 H 0.09142 0.01383 0.77965
 C1017 C 0.02836 0.02771 0.62727
 C1018 C 0.02999 0.00912 0.64412
 C1019 C 0.04825 0.01037 0.66304
 N1020 N 0.05073 -0.00778 0.67934
 N1021 N 0.06718 -0.00637 0.69637
 C1022 C 0.08176 0.01322 0.69771
 N1023 N 0.07928 0.03127 0.68141
 N1024 N 0.06291 0.02986 0.66445
 C1025 C 0.09969 0.01566 0.71663
 C1026 C 0.10319 -0.00207 0.73416
 H1027 H 0.01811 -0.00627 0.64336
 H1028 H 0.10994 0.03221 0.71685
 H1029 H 0.04075 0.04268 0.62836
 H1030 H 0.09283 -0.01857 0.73324
 C1031 C 0.53603 0.54311 0.12026
 C1032 C 0.53716 0.52512 0.13775
 C1033 C 0.55522 0.52504 0.15665
 N1034 N 0.55552 0.50670 0.17282
 N1035 N 0.57168 0.50621 0.19008
 C1036 C 0.58818 0.52408 0.19187
 N1037 N 0.58789 0.54246 0.17569
 N1038 N 0.57170 0.54295 0.15839
 C1039 C 0.60628 0.52352 0.21081
 C1040 C 0.60716 0.50449 0.22738
 H1041 H 0.52448 0.51038 0.13768
 H1042 H 0.61905 0.53815 0.21136
 H1043 H 0.54892 0.55770 0.12021
 H1044 H 0.59368 0.49048 0.22620
 C1045 C 0.46200 -0.04177 0.11954
 C1046 C 0.46034 -0.02301 0.13557
 C1047 C 0.44377 -0.02370 0.15571
 N1048 N 0.44182 -0.00419 0.16979
 N1049 N 0.42717 -0.00460 0.18835
 C1050 C 0.41399 -0.02458 0.19356
 N1051 N 0.41597 -0.04411 0.17951
 N1052 N 0.43058 -0.04368 0.16090
 C1053 C 0.39789 -0.02538 0.21408
 C1054 C 0.39413 -0.00523 0.22823
 H1055 H 0.47153 -0.00719 0.13344
 H1056 H 0.38898 -0.04232 0.21803
 H1057 H 0.45016 -0.05717 0.12119
 H1058 H 0.40403 0.01119 0.22426
 C1059 C 0.98046 0.49140 0.62329
 C1060 C 0.95949 0.47996 0.63073
 C1061 C 0.94578 0.48818 0.65128
 N1062 N 0.92628 0.47559 0.65872
 N1063 N 0.91406 0.48243 0.67770
 C1064 C 0.92087 0.50216 0.68988
 N1065 N 0.94025 0.51487 0.68233
 N1066 N 0.95250 0.50801 0.66337
 C1067 C 0.90834 0.50917 0.71153
 C1068 C 0.89026 0.49492 0.72149
 H1069 H 0.95306 0.46426 0.62161
 H1070 H 0.91448 0.52498 0.72071
 H1071 H 0.98684 0.50705 0.63257
 H1072 H 0.88386 0.47950 0.71183
 C1073 C 0.96351 0.53128 0.87474
 C1074 C 0.96620 0.51590 0.85578
 C1075 C 0.94744 0.51435 0.83770
 N1076 N 0.95202 0.50259 0.81741
 N1077 N 0.93520 0.50143 0.80080
 C1078 C 0.91318 0.51189 0.80396
 N1079 N 0.90854 0.52343 0.82433
 N1080 N 0.92538 0.52470 0.84087
 C1081 C 0.89443 0.51089 0.78588
 C1082 C 0.89911 0.50249 0.76333
 H1083 H 0.98261 0.50537 0.85369
 H1084 H 0.87649 0.51730 0.79027
 H1085 H 0.94752 0.54263 0.87606
 H1086 H 0.91699 0.49558 0.75929
 C1087 C 0.46949 0.02941 0.37381
 C1088 C 0.46891 0.01017 0.35835
 C1089 C 0.45236 0.01108 0.33810
 N1090 N 0.44759 -0.00921 0.32586
 N1091 N 0.43213 -0.00835 0.30792
 C1092 C 0.42101 0.01285 0.30152
 N1093 N 0.42600 0.03311 0.31359
 N1094 N 0.44132 0.03223 0.33155
 C1095 C 0.40372 0.01435 0.28200
 C1096 C 0.39528 -0.00611 0.27068
 H1097 H 0.48001 -0.00582 0.36148
 H1098 H 0.39729 0.03221 0.27668
 H1099 H 0.45722 0.04461 0.37106
 H1100 H 0.40297 -0.02365 0.27551
   
