data_POSCAR
  _audit_creation_date              2014-09-24
  _audit_creation_method            'ToBaCCo'
  _symmetry_space_group_name_H-M    'P1'
  _symmetry_Int_Tables_number       1
  _symmetry_cell_setting            triclinic
  loop_
  _symmetry_equiv_pos_as_xyz
 x,y,z
_cell_length_a 37.3896
_cell_length_b 41.0066
_cell_length_c 41.2570
_cell_angle_alpha 85.593800
_cell_angle_beta 92.411300
_cell_angle_gamma 88.153300
loop_
  _atom_site_label
  _atom_site_type_symbol
  _atom_site_fract_x
  _atom_site_fract_y
  _atom_site_fract_z
N1 N 0.30654 0.25929 0.18169
 N2 N 0.28150 0.27949 0.16768
 C3 C 0.29000 0.28779 0.13680
 C4 C 0.32234 0.27225 0.13152
 C5 C 0.33220 0.25449 0.16048
 H6 H 0.27404 0.30408 0.11962
 H7 H 0.35554 0.23829 0.16532
 Cu8 Cu 0.24125 0.29464 0.19168
 Cu9 Cu 0.30188 0.23864 0.22519
 Cu10 Cu 0.22020 0.24121 0.25665
 N11 N 0.19606 0.29836 0.21413
 N12 N 0.18751 0.27728 0.23813
 C13 C 0.15550 0.28657 0.24882
 C14 C 0.14352 0.31490 0.23084
 C15 C 0.16983 0.32172 0.20902
 H16 H 0.14255 0.27445 0.26912
 H17 H 0.17016 0.34247 0.19121
 N18 N 0.25672 0.20783 0.27158
 N19 N 0.28897 0.20745 0.26006
 C20 C 0.30903 0.18303 0.27610
 C21 C 0.28820 0.16735 0.29895
 C22 C 0.25517 0.18368 0.29544
 H23 H 0.33673 0.17731 0.27161
 H24 H 0.23205 0.17887 0.30971
 H25 H 0.23854 0.24706 0.21007
 H26 H 0.25390 0.27627 0.23984
 N27 N 0.69545 -0.20873 0.20671
 N28 N 0.70506 -0.23884 0.20117
 C29 C 0.68862 -0.24646 0.17312
 C30 C 0.66878 -0.21906 0.16000
 C31 C 0.67408 -0.19557 0.18180
 H32 H 0.69165 -0.26976 0.16270
 H33 H 0.66164 -0.17131 0.18061
 Cu34 Cu 0.73999 -0.26421 0.23027
 Cu35 Cu 0.70659 -0.19094 0.24799
 Cu36 Cu 0.77833 -0.22233 0.29254
 N37 N 0.78564 -0.27857 0.25403
 N38 N 0.80069 -0.26177 0.27669
 C39 C 0.83298 -0.27558 0.28589
 C40 C 0.83872 -0.30240 0.26823
 C41 C 0.80807 -0.30375 0.24833
 H42 H 0.85123 -0.26639 0.30375
 H43 H 0.80301 -0.32100 0.23026
 N44 N 0.75132 -0.18407 0.30470
 N45 N 0.72320 -0.17184 0.28718
 C46 C 0.70960 -0.14587 0.30114
 C47 C 0.73019 -0.14169 0.32900
 C48 C 0.75648 -0.16636 0.33060
 H49 H 0.68618 -0.13136 0.29198
 H50 H 0.77755 -0.17119 0.34928
 H51 H 0.76223 -0.22127 0.24315
 H52 H 0.73367 -0.24226 0.27393
 N53 N 0.71972 0.21509 0.78088
 N54 N 0.73074 0.24364 0.78954
 C55 C 0.71634 0.24966 0.81810
 C56 C 0.69599 0.22335 0.82790
 C57 C 0.69882 0.20202 0.80383
 H58 H 0.72152 0.27079 0.83151
 H59 H 0.68700 0.17833 0.80341
 Cu60 Cu 0.76590 0.26950 0.76436
 Cu61 Cu 0.73457 0.19448 0.74161
 Cu62 Cu 0.79560 0.23448 0.69976
 N63 N 0.80660 0.28680 0.74045
 N64 N 0.81774 0.27254 0.71506
 C65 C 0.84586 0.28811 0.70311
 C66 C 0.85290 0.31398 0.72165
 C67 C 0.82733 0.31261 0.74525
 H68 H 0.86004 0.28092 0.68236
 H69 H 0.82421 0.32886 0.76446
 N70 N 0.78614 0.18951 0.69281
 N71 N 0.76088 0.17401 0.70816
 C72 C 0.75900 0.14362 0.69791
 C73 C 0.78527 0.13996 0.67568
 C74 C 0.80205 0.16942 0.67313
 H75 H 0.74088 0.12529 0.70679
 H76 H 0.82404 0.17583 0.65793
 H77 H 0.77793 0.22168 0.75471
 H78 H 0.74095 0.24380 0.72987
 N79 N 0.28169 -0.21555 0.77943
 N80 N 0.26975 -0.24392 0.79110
 C81 C 0.28392 -0.25077 0.82165
 C82 C 0.30505 -0.22514 0.82947
 C83 C 0.30309 -0.20347 0.80221
 H84 H 0.27743 -0.27160 0.83775
 H85 H 0.31497 -0.17976 0.79968
 Cu86 Cu 0.23213 -0.26733 0.76763
 Cu87 Cu 0.26471 -0.19208 0.73786
 Cu88 Cu 0.19392 -0.22360 0.70284
 N89 N 0.18891 -0.28171 0.74479
 N90 N 0.17332 -0.26317 0.72049
 C91 C 0.14344 -0.27701 0.71008
 C92 C 0.14030 -0.30643 0.72811
 C93 C 0.16976 -0.30888 0.75000
 H94 H 0.12596 -0.26678 0.69008
 H95 H 0.17643 -0.32853 0.76849
 N96 N 0.20516 -0.17847 0.69269
 N97 N 0.23466 -0.16664 0.70473
 C98 C 0.23852 -0.13620 0.69086
 C99 C 0.20914 -0.12848 0.66986
 C100 C 0.18846 -0.15573 0.67167
 H101 H 0.26083 -0.12088 0.69577
 H102 H 0.16408 -0.15931 0.65752
 H103 H 0.22113 -0.21767 0.75561
 H104 H 0.25246 -0.23985 0.73044
 N105 N 0.68277 -0.26776 0.82143
 N106 N 0.70268 -0.29344 0.83265
 C107 C 0.68437 -0.31199 0.85398
 C108 C 0.65135 -0.29677 0.85684
 C109 C 0.65114 -0.26863 0.83593
 H110 H 0.69500 -0.33401 0.86761
 H111 H 0.62997 -0.24996 0.83203
 Cu112 Cu 0.75231 -0.29768 0.82217
 Cu113 Cu 0.70129 -0.23529 0.78984
 Cu114 Cu 0.77090 -0.26821 0.74709
 N115 N 0.79762 -0.30718 0.80406
 N116 N 0.80378 -0.29925 0.77337
 C117 C 0.83437 -0.31505 0.76601
 C118 C 0.84834 -0.33253 0.79422
 C119 C 0.82450 -0.32650 0.81777
 H120 H 0.84560 -0.31373 0.74222
 H121 H 0.82505 -0.33760 0.84241
 N122 N 0.74253 -0.22761 0.73135
 N123 N 0.71693 -0.21511 0.74831
 C124 C 0.70434 -0.18672 0.73304
 C125 C 0.72281 -0.18069 0.70510
 C126 C 0.74681 -0.20716 0.70459
 H127 H 0.68344 -0.17137 0.74189
 H128 H 0.76663 -0.21068 0.68671
 H129 H 0.72372 -0.27433 0.77126
 H130 H 0.75712 -0.24673 0.78841
 N131 N 0.30981 0.21927 0.78775
 N132 N 0.29439 0.24700 0.79469
 C133 C 0.30785 0.25513 0.82373
 C134 C 0.33236 0.23073 0.83557
 C135 C 0.33284 0.20839 0.81236
 H136 H 0.29946 0.27637 0.83585
 H137 H 0.34898 0.18593 0.81344
 Cu138 Cu 0.25570 0.26823 0.76670
 Cu139 Cu 0.29903 0.20016 0.74716
 Cu140 Cu 0.23516 0.23320 0.69417
 N141 N 0.21740 0.28576 0.73520
 N142 N 0.20989 0.27275 0.70748
 C143 C 0.18303 0.29061 0.69124
 C144 C 0.17303 0.31577 0.70973
 C145 C 0.19523 0.31196 0.73744
 H146 H 0.17148 0.28569 0.66773
 H147 H 0.19549 0.32745 0.75749
 N148 N 0.26332 0.19403 0.68559
 N149 N 0.28823 0.18106 0.70655
 C150 C 0.30322 0.15447 0.69472
 C151 C 0.28692 0.15047 0.66476
 C152 C 0.26166 0.17599 0.65959
 H153 H 0.32455 0.13917 0.70690
 H154 H 0.24349 0.18104 0.63858
 H155 H 0.27352 0.25250 0.72371
 H156 H 0.23975 0.22689 0.74464
 N157 N 0.27541 -0.20307 0.21921
 N158 N 0.26841 -0.23183 0.20843
 C159 C 0.28893 -0.23661 0.18295
 C160 C 0.30953 -0.20948 0.17750
 C161 C 0.30026 -0.18880 0.20083
 H162 H 0.28902 -0.25819 0.16944
 H163 H 0.31145 -0.16534 0.20460
 Cu164 Cu 0.23333 -0.26131 0.22868
 Cu165 Cu 0.25355 -0.18609 0.25753
 Cu166 Cu 0.19819 -0.23679 0.29627
 N167 N 0.19172 -0.28223 0.24730
 N168 N 0.17863 -0.27259 0.27420
 C169 C 0.15262 -0.29247 0.28374
 C170 C 0.14906 -0.31596 0.26176
 C171 C 0.17419 -0.30878 0.23872
 H172 H 0.13813 -0.29058 0.30569
 H173 H 0.18059 -0.32282 0.21845
 N174 N 0.20680 -0.19381 0.31059
 N175 N 0.22909 -0.17407 0.29594
 C176 C 0.23047 -0.14630 0.31142
 C177 C 0.20736 -0.14884 0.33675
 C178 C 0.19275 -0.17922 0.33545
 H179 H 0.24658 -0.12567 0.30452
 H180 H 0.17351 -0.19002 0.35153
 H181 H 0.25379 -0.23605 0.26676
 H182 H 0.21451 -0.21717 0.24213
 N183 N 0.71758 0.21142 0.23041
 N184 N 0.72712 0.23862 0.21425
 C185 C 0.70493 0.24471 0.18761
 C186 C 0.68045 0.22016 0.18723
 C187 C 0.68924 0.19963 0.21463
 H188 H 0.70634 0.26543 0.16989
 H189 H 0.67614 0.17743 0.22231
 Cu190 Cu 0.76737 0.26464 0.22947
 Cu191 Cu 0.74294 0.19154 0.27034
 Cu192 Cu 0.81232 0.23258 0.29735
 N193 N 0.80783 0.28656 0.24889
 N194 N 0.82491 0.27393 0.27567
 C195 C 0.84893 0.29512 0.28558
 C196 C 0.84700 0.32250 0.26398
 C197 C 0.82078 0.31633 0.24073
 H198 H 0.86570 0.29154 0.30762
 H199 H 0.81040 0.33302 0.22072
 N200 N 0.79982 0.19116 0.31903
 N201 N 0.77162 0.17563 0.30930
 C202 C 0.76850 0.14827 0.32920
 C203 C 0.79654 0.14660 0.35231
 C204 C 0.81586 0.17412 0.34511
 H205 H 0.74788 0.13063 0.32669
 H206 H 0.83968 0.18127 0.35813
 H207 H 0.75205 0.24105 0.27236
 H208 H 0.78245 0.21756 0.24732
 C209 C 0.26623 0.03113 0.48383
 C210 C 0.24856 0.00276 0.48664
 C211 C 0.23958 -0.01227 0.51886
 C212 C 0.23687 -0.01505 0.45844
 C213 C 0.27506 0.04732 0.45201
 C214 C 0.27640 0.04798 0.51316
 C215 C 0.25814 -0.04085 0.53184
 C216 C 0.24872 -0.05620 0.56147
 C217 C 0.22009 -0.04351 0.57820
 C218 C 0.20191 -0.01456 0.56534
 C219 C 0.21175 0.00108 0.53594
 C220 C 0.26178 -0.02996 0.43925
 C221 C 0.25031 -0.05163 0.41659
 C222 C 0.21381 -0.05868 0.41299
 C223 C 0.18891 -0.04204 0.43091
 C224 C 0.20036 -0.02066 0.45354
 C225 C 0.24826 0.05642 0.42788
 C226 C 0.25681 0.07410 0.39907
 C227 C 0.29228 0.08296 0.39395
 C228 C 0.31907 0.07338 0.41799
 C229 C 0.31047 0.05592 0.44682
 C230 C 0.25926 0.07779 0.51861
 C231 C 0.26644 0.09258 0.54747
 C232 C 0.29110 0.07789 0.57139
 C233 C 0.30903 0.04839 0.56518
 C234 C 0.30176 0.03365 0.53633
 H235 H 0.27966 -0.05140 0.51880
 H236 H 0.26290 -0.07870 0.57057
 H237 H 0.17987 -0.00422 0.57785
 H238 H 0.19718 0.02314 0.52608
 H239 H 0.29013 -0.02616 0.44302
 H240 H 0.27020 -0.06410 0.40324
 H241 H 0.18076 -0.00926 0.46809
 H242 H 0.22063 0.05059 0.43170
 H243 H 0.23563 0.08103 0.38093
 H244 H 0.34651 0.08027 0.41510
 H245 H 0.33142 0.04945 0.46535
 H246 H 0.23958 0.08913 0.50088
 H247 H 0.25222 0.11530 0.55099
 H248 H 0.32836 0.03617 0.58254
 H249 H 0.31544 0.01073 0.53228
 H250 H 0.16055 -0.04616 0.42819
 C251 C 0.76006 -0.00785 0.52179
 C252 C 0.75052 -0.03935 0.52118
 C253 C 0.74235 -0.05916 0.55127
 C254 C 0.74384 -0.05368 0.48986
 C255 C 0.76947 0.01160 0.49194
 C256 C 0.76548 0.00807 0.55245
 C257 C 0.76387 -0.08676 0.56228
 C258 C 0.75666 -0.10485 0.59132
 C259 C 0.72761 -0.09573 0.60970
 C260 C 0.70561 -0.06849 0.59793
 C261 C 0.71296 -0.05039 0.56908
 C262 C 0.77087 -0.07146 0.47566
 C263 C 0.76449 -0.08340 0.44511
 C264 C 0.73113 -0.07732 0.42828
 C265 C 0.70416 -0.05965 0.44289
 C266 C 0.71047 -0.04799 0.47340
 C267 C 0.74375 0.03191 0.47390
 C268 C 0.75409 0.05352 0.44831
 C269 C 0.79037 0.05527 0.44077
 C270 C 0.81565 0.03366 0.45799
 C271 C 0.80528 0.01210 0.48341
 C272 C 0.74167 0.03325 0.55986
 C273 C 0.74960 0.05207 0.58590
 C274 C 0.78186 0.04635 0.60449
 C275 C 0.80487 0.02013 0.59787
 C276 C 0.79668 0.00104 0.57209
 H277 H 0.78662 -0.09392 0.54872
 H278 H 0.77420 -0.12559 0.59957
 H279 H 0.68244 -0.06106 0.61071
 H280 H 0.69571 -0.02947 0.56059
 H281 H 0.79695 -0.07561 0.48797
 H282 H 0.78588 -0.09671 0.43439
 H283 H 0.68946 -0.03411 0.48408
 H284 H 0.71597 0.03180 0.48035
 H285 H 0.73400 0.06985 0.43553
 H286 H 0.84363 0.03382 0.45231
 H287 H 0.82538 -0.00352 0.49715
 H288 H 0.71758 0.03906 0.54474
 H289 H 0.73151 0.07227 0.59022
 H290 H 0.82973 0.01499 0.61201
 H291 H 0.81544 -0.01819 0.56648
 H292 H 0.67800 -0.05496 0.43092
 C293 C 0.52049 0.25631 0.00874
 C294 C 0.52544 0.25551 -0.02371
 C295 C 0.56115 0.25018 -0.03732
 C296 C 0.49446 0.25239 -0.04678
 C297 C 0.48438 0.26029 0.02205
 C298 C 0.54931 0.24666 0.03352
 C299 C 0.57198 0.27207 -0.06259
 C300 C 0.60068 0.26378 -0.08148
 C301 C 0.61883 0.23320 -0.07563
 C302 C 0.60940 0.21228 -0.04894
 C303 C 0.58063 0.22049 -0.03026
 C304 C 0.46741 0.27701 -0.05283
 C305 C 0.43578 0.27061 -0.07042
 C306 C 0.43089 0.23947 -0.08160
 C307 C 0.45875 0.21568 -0.07692
 C308 C 0.49030 0.22217 -0.05997
 C309 C 0.45761 0.23767 0.01691
 C310 C 0.42416 0.24140 0.03031
 C311 C 0.41768 0.26666 0.05054
 C312 C 0.44474 0.28853 0.05675
 C313 C 0.47773 0.28556 0.04234
 C314 C 0.55010 0.21453 0.04774
 C315 C 0.57249 0.20532 0.07486
 C316 C 0.59395 0.22831 0.08910
 C317 C 0.59416 0.26039 0.07418
 C318 C 0.57184 0.26954 0.04651
 H319 H 0.55685 0.29481 -0.06890
 H320 H 0.60703 0.28045 -0.10188
 H321 H 0.62311 0.18878 -0.04331
 H322 H 0.57212 0.20253 -0.01190
 H323 H 0.47021 0.30049 -0.04283
 H324 H 0.41460 0.28934 -0.07402
 H325 H 0.51072 0.20281 -0.05553
 H326 H 0.46267 0.21697 0.00279
 H327 H 0.40375 0.22394 0.02580
 H328 H 0.44017 0.30807 0.07250
 H329 H 0.49822 0.30284 0.04720
 H330 H 0.53249 0.19670 0.03823
 H331 H 0.57221 0.18022 0.08499
 H332 H 0.61027 0.27870 0.08466
 H333 H 0.57091 0.29466 0.03620
 H334 H 0.45595 0.19173 -0.08593
 C335 C 0.47857 0.74197 0.02808
 C336 C 0.47012 0.73448 -0.00285
 C337 C 0.49831 0.72302 -0.02411
 C338 C 0.43426 0.74238 -0.01915
 C339 C 0.45133 0.75441 0.04984
 C340 C 0.51651 0.74387 0.03993
 C341 C 0.50309 0.74010 -0.05435
 C342 C 0.52976 0.73004 -0.07441
 C343 C 0.55222 0.70260 -0.06469
 C344 C 0.54714 0.68531 -0.03451
 C345 C 0.52035 0.69537 -0.01447
 C346 C 0.41932 0.77428 -0.02006
 C347 C 0.39094 0.78422 -0.04200
 C348 C 0.37754 0.76282 -0.06430
 C349 C 0.39073 0.73017 -0.06171
 C350 C 0.41881 0.72009 -0.03934
 C351 C 0.42034 0.73723 0.05689
 C352 C 0.39585 0.74918 0.07836
 C353 C 0.40196 0.77850 0.09307
 C354 C 0.43305 0.79546 0.08586
 C355 C 0.45730 0.78362 0.06454
 C356 C 0.52847 0.72727 0.06963
 C357 C 0.56077 0.73531 0.08495
 C358 C 0.58104 0.76058 0.07105
 C359 C 0.57025 0.77555 0.04031
 C360 C 0.53834 0.76716 0.02479
 H361 H 0.48642 0.76157 -0.06226
 H362 H 0.53267 0.74380 -0.09754
 H363 H 0.56421 0.66438 -0.02593
 H364 H 0.51694 0.68173 0.00867
 H365 H 0.43119 0.79231 -0.00549
 H366 H 0.38094 0.80928 -0.04246
 H367 H 0.43012 0.69543 -0.03930
 H368 H 0.41534 0.71448 0.04608
 H369 H 0.37216 0.73550 0.08333
 H370 H 0.43930 0.81769 0.09705
 H371 H 0.48091 0.79744 0.05952
 H372 H 0.51173 0.70955 0.08185
 H373 H 0.56828 0.72373 0.10885
 H374 H 0.58542 0.79514 0.02917
 H375 H 0.52929 0.78071 0.00221
 H376 H 0.38108 0.71288 -0.07826
 C377 C -0.02846 0.51350 0.23015
 C378 C 0.00726 0.50623 0.22796
 C379 C 0.02152 0.47189 0.22916
 C380 C 0.03447 0.53149 0.23173
 C381 C -0.04174 0.54687 0.23660
 C382 C -0.05482 0.48721 0.23438
 C383 C 0.01629 0.45001 0.25629
 C384 C 0.03185 0.41848 0.25848
 C385 C 0.05366 0.40838 0.23392
 C386 C 0.05912 0.43043 0.20689
 C387 C 0.04326 0.46194 0.20460
 C388 C 0.05903 0.52748 0.25853
 C389 C 0.08073 0.55293 0.26634
 C390 C 0.07886 0.58273 0.24721
 C391 C 0.05638 0.58608 0.21892
 C392 C 0.03409 0.56060 0.21129
 C393 C -0.06903 0.56292 0.21646
 C394 C -0.08464 0.59250 0.22468
 C395 C -0.07341 0.60640 0.25337
 C396 C -0.04588 0.59026 0.27336
 C397 C -0.03044 0.56075 0.26519
 C398 C -0.05843 0.46264 0.21257
 C399 C -0.07862 0.43513 0.22066
 C400 C -0.09525 0.43201 0.25061
 C401 C -0.09379 0.45775 0.27103
 C402 C -0.07393 0.48505 0.26298
 H403 H 0.00078 0.45763 0.27615
 H404 H 0.02771 0.40253 0.28001
 H405 H 0.07575 0.42341 0.18756
 H406 H 0.04820 0.47871 0.18382
 H407 H 0.05984 0.50534 0.27469
 H408 H 0.09808 0.54977 0.28813
 H409 H 0.01546 0.56408 0.19040
 H410 H -0.07863 0.55224 0.19466
 H411 H -0.10567 0.60428 0.20867
 H412 H -0.03702 0.59963 0.29602
 H413 H -0.01052 0.54810 0.28182
 H414 H -0.04415 0.46393 0.19024
 H415 H -0.07937 0.41550 0.20455
 H416 H -0.10686 0.45619 0.29400
 H417 H -0.07168 0.50353 0.28026
 H418 H 0.05443 0.60901 0.20396
 C419 C 0.02714 0.49643 0.73883
 C420 C -0.00779 0.49400 0.74649
 C421 C -0.02827 0.46466 0.73969
 C422 C -0.02752 0.52238 0.75836
 C423 C 0.04299 0.52899 0.73429
 C424 C 0.04876 0.46784 0.72987
 C425 C -0.02945 0.45399 0.70822
 C426 C -0.04799 0.42625 0.70138
 C427 C -0.06615 0.40860 0.72577
 C428 C -0.06635 0.42007 0.75704
 C429 C -0.04757 0.44801 0.76392
 C430 C -0.05784 0.53660 0.74087
 C431 C -0.07491 0.56466 0.75112
 C432 C -0.06209 0.57862 0.77924
 C433 C -0.03167 0.56432 0.79657
 C434 C -0.01461 0.53646 0.78627
 C435 C 0.07050 0.53844 0.75537
 C436 C 0.08322 0.57026 0.75174
 C437 C 0.06883 0.59282 0.72673
 C438 C 0.04221 0.58249 0.70504
 C439 C 0.02937 0.55104 0.70890
 C440 C 0.05463 0.44014 0.75185
 C441 C 0.07460 0.41305 0.74301
 C442 C 0.08830 0.41304 0.71181
 C443 C 0.08229 0.44074 0.68987
 C444 C 0.06309 0.46808 0.69897
 H445 H -0.01595 0.46723 0.68885
 H446 H -0.04822 0.41887 0.67676
 H447 H -0.08023 0.40707 0.77628
 H448 H -0.04751 0.45627 0.78823
 H449 H -0.06794 0.52625 0.71906
 H450 H -0.09857 0.57490 0.73753
 H451 H 0.00885 0.52591 0.79999
 H452 H 0.08131 0.52153 0.77508
 H453 H 0.10377 0.57727 0.76883
 H454 H 0.03111 0.59843 0.68481
 H455 H 0.00848 0.54387 0.69216
 H456 H 0.04379 0.43958 0.77582
 H457 H 0.07875 0.39187 0.76028
 H458 H 0.09287 0.44145 0.66580
 H459 H 0.05874 0.48919 0.68165
 H460 H -0.02096 0.57465 0.81815
 N461 N 0.35093 0.27133 0.04987
 N462 N 0.32576 0.27371 0.07123
 C463 C 0.34159 0.27293 0.10122
 C464 C 0.37836 0.27042 0.09894
 C465 C 0.38312 0.26962 0.06595
 H466 H 0.39870 0.26878 0.11851
 H467 H 0.34607 0.27089 0.02480
 H468 H 0.29827 0.27482 0.06537
 N469 N 0.61069 0.80814 0.09219
 N470 N 0.63392 0.81386 0.11822
 C471 C 0.64671 0.78462 0.13172
 C472 C 0.63205 0.75975 0.11487
 C473 C 0.60910 0.77552 0.09071
 H474 H 0.63526 0.73365 0.12106
 H475 H 0.59459 0.82617 0.07891
 H476 H 0.63921 0.83698 0.12586
 N477 N 0.65044 0.18941 -0.10351
 N478 N 0.67003 0.18691 -0.12911
 C479 C 0.67722 0.21712 -0.14167
 C480 C 0.66148 0.24005 -0.12316
 C481 C 0.64436 0.22137 -0.09916
 H482 H 0.66092 0.26640 -0.12770
 H483 H 0.63996 0.16934 -0.09051
 H484 H 0.67753 0.16474 -0.13821
 N485 N 0.34957 0.80768 -0.10257
 N486 N 0.33125 0.81067 -0.13071
 C487 C 0.32267 0.78075 -0.13906
 C488 C 0.33589 0.75752 -0.11499
 C489 C 0.35331 0.77565 -0.09223
 H490 H 0.33481 0.73122 -0.11523
 H491 H 0.36083 0.82743 -0.09188
 H492 H 0.32563 0.83294 -0.14428
 N493 N 0.06161 0.35000 0.25693
 N494 N 0.08531 0.32551 0.25613
 C495 C 0.11109 0.33484 0.23594
 C496 C 0.10338 0.36662 0.22312
 C497 C 0.07185 0.37554 0.23728
 H498 H 0.11952 0.38164 0.20719
 H499 H 0.03901 0.34901 0.27095
 H500 H 0.08393 0.30301 0.26962
 N501 N 0.06370 0.65098 0.70354
 N502 N 0.08396 0.67878 0.70378
 C503 C 0.11318 0.67154 0.72354
 C504 C 0.11223 0.63923 0.73644
 C505 C 0.08108 0.62696 0.72282
 H506 H 0.13248 0.62604 0.75227
 H507 H 0.03927 0.65007 0.69055
 H508 H 0.07685 0.70100 0.69068
 N509 N -0.07665 0.65595 0.28523
 N510 N -0.10143 0.68120 0.28943
 C511 C -0.13051 0.67713 0.26994
 C512 C -0.12490 0.64964 0.25281
 C513 C -0.09098 0.63689 0.26320
 H514 H -0.14357 0.63970 0.23574
 H515 H -0.05150 0.65317 0.29728
 H516 H -0.09740 0.69961 0.30519
 N517 N -0.07349 0.35984 0.69406
 N518 N -0.09610 0.33367 0.69296
 C519 C -0.11977 0.33609 0.71650
 C520 C -0.11267 0.36361 0.73324
 C521 C -0.08367 0.37798 0.71817
 H522 H -0.12726 0.37248 0.75308
 H523 H -0.05210 0.36362 0.67892
 H524 H -0.09424 0.31577 0.67639
 N525 N 0.33392 0.10473 0.35203
 N526 N 0.33281 0.12697 0.32703
 C527 C 0.29935 0.14025 0.32306
 C528 C 0.27815 0.12567 0.34635
 C529 C 0.30112 0.10333 0.36440
 H530 H 0.25035 0.13150 0.35042
 H531 H 0.35692 0.09097 0.36036
 H532 H 0.35485 0.13323 0.31344
 N533 N 0.82770 0.07791 0.63302
 N534 N 0.82852 0.10301 0.65121
 C535 C 0.79486 0.11095 0.65875
 C536 C 0.77140 0.09016 0.64464
 C537 C 0.79337 0.06964 0.62819
 H538 H 0.74244 0.09134 0.64451
 H539 H 0.85016 0.06807 0.62256
 H540 H 0.85171 0.11505 0.65748
 N541 N 0.17253 -0.06381 0.61437
 N542 N 0.16954 -0.08663 0.63839
 C543 C 0.20243 -0.09916 0.64759
 C544 C 0.22750 -0.08386 0.62863
 C545 C 0.20736 -0.06182 0.60747
 H546 H 0.25588 -0.08991 0.62848
 H547 H 0.15075 -0.05154 0.60160
 H548 H 0.14524 -0.09436 0.64732
 N549 N 0.69926 -0.07551 0.37355
 N550 N 0.69916 -0.09231 0.34753
 C551 C 0.72409 -0.11683 0.35228
 C552 C 0.74109 -0.11544 0.38263
 C553 C 0.72429 -0.08894 0.39553
 H554 H 0.76177 -0.13204 0.39410
 H555 H 0.68249 -0.05504 0.37586
 H556 H 0.68207 -0.08700 0.32700
 N557 N 0.59890 0.66321 -0.08241
 N558 N 0.62488 0.66347 -0.10313
 C559 C 0.62431 0.69292 -0.12002
 C560 C 0.59668 0.71227 -0.10977
 C561 C 0.58133 0.69263 -0.08554
 H562 H 0.59016 0.73763 -0.11759
 H563 H 0.59373 0.64313 -0.06641
 H564 H 0.64296 0.64386 -0.10516
 N565 N 0.38376 0.20037 -0.09375
 N566 N 0.35739 0.19820 -0.11561
 C567 C 0.35277 0.22711 -0.13324
 C568 C 0.37711 0.24892 -0.12200
 C569 C 0.39675 0.23066 -0.09724
 H570 H 0.38275 0.27294 -0.13293
 H571 H 0.39378 0.18081 -0.07790
 H572 H 0.34423 0.17667 -0.11956
 N573 N 0.37618 0.82240 0.12518
 N574 N 0.35214 0.82537 0.14736
 C575 C 0.33652 0.79650 0.15296
 C576 C 0.35117 0.77405 0.13332
 C577 C 0.37662 0.79142 0.11617
 H578 H 0.34513 0.74848 0.13265
 H579 H 0.39177 0.84158 0.11658
 H580 H 0.34684 0.84692 0.15851
 N581 N 0.60521 0.19353 0.14114
 N582 N 0.62766 0.19158 0.16675
 C583 C 0.65119 0.21559 0.16317
 C584 C 0.64330 0.23386 0.13383
 C585 C 0.61393 0.21882 0.12042
 H586 H 0.65722 0.25470 0.12361
 H587 H 0.58387 0.17801 0.13859
 H588 H 0.62647 0.17407 0.18640
 N589 N -0.08336 0.60957 0.82448
 N590 N -0.10891 0.63410 0.82858
 C591 C -0.12219 0.64560 0.79888
 C592 C -0.10526 0.62915 0.77522
 C593 C -0.08178 0.60619 0.79236
 H594 H -0.11143 0.63161 0.74927
 H595 H -0.07088 0.59458 0.84353
 H596 H -0.11668 0.64103 0.85115
 N597 N -0.10637 0.38924 0.29445
 N598 N -0.12077 0.36035 0.29782
 C599 C -0.13448 0.35299 0.26869
 C600 C -0.12825 0.37830 0.24548
 C601 C -0.11025 0.40086 0.26301
 H602 H -0.13548 0.37993 0.21972
 H603 H -0.09332 0.40031 0.31338
 H604 H -0.12122 0.34613 0.31990
 N605 N 0.10817 0.37432 0.67166
 N606 N 0.13015 0.34849 0.67121
 C607 C 0.14547 0.34177 0.70121
 C608 C 0.13238 0.36403 0.72179
 C609 C 0.10882 0.38432 0.70204
 H610 H 0.13961 0.36574 0.74726
 H611 H 0.09294 0.38471 0.65145
 H612 H 0.13491 0.33615 0.65051
 N613 N 0.09666 0.61759 0.29109
 N614 N 0.11445 0.64436 0.29481
 C615 C 0.12677 0.65523 0.26588
 C616 C 0.11593 0.63459 0.24242
 C617 C 0.09689 0.61096 0.25965
 H618 H 0.12135 0.63631 0.21680
 H619 H 0.08425 0.60435 0.30985
 H620 H 0.11846 0.65458 0.31704
 N621 N 0.69886 -0.10261 0.66348
 N622 N 0.69761 -0.12487 0.68821
 C623 C 0.71826 -0.15110 0.68240
 C624 C 0.73352 -0.14523 0.65252
 C625 C 0.72026 -0.11411 0.64108
 H626 H 0.75122 -0.16152 0.64072
 H627 H 0.68555 -0.07978 0.66262
 H628 H 0.68297 -0.12177 0.70881
 N629 N 0.17204 -0.10221 0.39861
 N630 N 0.17064 -0.12608 0.37896
 C631 C 0.19926 -0.12477 0.36027
 C632 C 0.21992 -0.09884 0.36834
 C633 C 0.20174 -0.08516 0.39301
 H634 H 0.24514 -0.09179 0.35847
 H635 H 0.15355 -0.09879 0.41642
 H636 H 0.15061 -0.14324 0.37887
 N637 N 0.83534 0.09370 0.41847
 N638 N 0.83678 0.11791 0.39563
 C639 C 0.80501 0.12115 0.37889
 C640 C 0.78220 0.09798 0.39170
 C641 C 0.80252 0.08102 0.41695
 H642 H 0.75456 0.09459 0.38424
 H643 H 0.85625 0.08698 0.43549
 H644 H 0.85914 0.13213 0.39197
 N645 N 0.32144 0.08116 0.62663
 N646 N 0.32010 0.10016 0.65103
 C647 C 0.29548 0.12446 0.64335
 C648 C 0.28037 0.12083 0.61271
 C649 C 0.29763 0.09296 0.60272
 H650 H 0.25971 0.13640 0.59982
 H651 H 0.33861 0.06060 0.62690
 H652 H 0.33591 0.09628 0.67253
   
