data_POSCAR
  _audit_creation_date              2014-09-24
  _audit_creation_method            'ToBaCCo'
  _symmetry_space_group_name_H-M    'P1'
  _symmetry_Int_Tables_number       1
  _symmetry_cell_setting            triclinic
  loop_
  _symmetry_equiv_pos_as_xyz
 x,y,z
_cell_length_a 56.1207
_cell_length_b 55.7960
_cell_length_c 56.9066
_cell_angle_alpha 89.636100
_cell_angle_beta 91.003300
_cell_angle_gamma 89.320400
loop_
  _atom_site_label
  _atom_site_type_symbol
  _atom_site_fract_x
  _atom_site_fract_y
  _atom_site_fract_z
N1 N 0.28857 0.23705 0.21192
 N2 N 0.27830 0.25618 0.20251
 C3 C 0.29073 0.26309 0.18368
 C4 C 0.30985 0.24745 0.18108
 C5 C 0.30789 0.23115 0.19940
 H6 H 0.28627 0.27847 0.17276
 H7 H 0.31944 0.21592 0.20320
 Cu8 Cu 0.24965 0.27019 0.21569
 Cu9 Cu 0.27584 0.22110 0.23943
 Cu10 Cu 0.22541 0.24648 0.26409
 N11 N 0.22155 0.28436 0.22975
 N12 N 0.21227 0.27522 0.24881
 C13 C 0.19299 0.28836 0.25462
 C14 C 0.18995 0.30670 0.23825
 C15 C 0.20846 0.30357 0.22276
 H16 H 0.18174 0.28451 0.26936
 H17 H 0.21217 0.31450 0.20755
 N18 N 0.24134 0.21734 0.27685
 N19 N 0.26036 0.20760 0.26727
 C20 C 0.26656 0.18762 0.27937
 C21 C 0.25074 0.18457 0.29751
 C22 C 0.23502 0.20382 0.29539
 H23 H 0.28155 0.17614 0.27531
 H24 H 0.21979 0.20740 0.30623
 H25 H 0.24069 0.23206 0.23454
 H26 H 0.25997 0.25141 0.25336
 N27 N 0.71655 -0.22651 0.21651
 N28 N 0.72441 -0.24722 0.20878
 C29 C 0.71145 -0.25344 0.18972
 C30 C 0.69441 -0.23566 0.18510
 C31 C 0.69832 -0.21883 0.20263
 H32 H 0.71433 -0.26974 0.18000
 H33 H 0.68866 -0.20224 0.20531
 Cu34 Cu 0.75100 -0.26387 0.22429
 Cu35 Cu 0.73031 -0.21129 0.24426
 Cu36 Cu 0.77671 -0.24176 0.27308
 N37 N 0.77739 -0.28055 0.24010
 N38 N 0.78724 -0.27191 0.25930
 C39 C 0.80550 -0.28630 0.26617
 C40 C 0.80741 -0.30507 0.25033
 C41 C 0.78907 -0.30074 0.23406
 H42 H 0.81684 -0.28283 0.28127
 H43 H 0.78474 -0.31115 0.21867
 N44 N 0.76359 -0.21094 0.28409
 N45 N 0.74649 -0.19900 0.27270
 C46 C 0.74230 -0.17821 0.28388
 C47 C 0.75736 -0.17707 0.30334
 C48 C 0.77055 -0.19816 0.30295
 H49 H 0.72911 -0.16494 0.27845
 H50 H 0.78458 -0.20348 0.31522
 H51 H 0.76401 -0.22651 0.24208
 H52 H 0.74200 -0.24265 0.26039
 N53 N 0.70974 0.24689 0.77427
 N54 N 0.71641 0.26855 0.78017
 C55 C 0.70398 0.27576 0.79889
 C56 C 0.68861 0.25762 0.80518
 C57 C 0.69277 0.23958 0.78903
 H58 H 0.70636 0.29281 0.80746
 H59 H 0.68462 0.22214 0.78841
 Cu60 Cu 0.74165 0.28497 0.76393
 Cu61 Cu 0.72438 0.22948 0.74857
 Cu62 Cu 0.77592 0.25375 0.72676
 N63 N 0.77279 0.29616 0.75488
 N64 N 0.78657 0.28342 0.74120
 C65 C 0.80749 0.29465 0.73886
 C66 C 0.80680 0.31580 0.75164
 C67 C 0.78431 0.31609 0.76151
 H68 H 0.82189 0.28798 0.72828
 H69 H 0.77699 0.32932 0.77323
 N70 N 0.76192 0.22405 0.71442
 N71 N 0.74213 0.21489 0.72260
 C72 C 0.73675 0.19511 0.71026
 C73 C 0.75398 0.19159 0.69340
 C74 C 0.76965 0.21036 0.69665
 H75 H 0.72136 0.18416 0.71333
 H76 H 0.78532 0.21408 0.68656
 H77 H 0.75678 0.24501 0.75630
 H78 H 0.73941 0.25790 0.73064
 N79 N 0.28044 -0.23971 0.78138
 N80 N 0.26976 -0.25858 0.78993
 C81 C 0.28132 -0.26583 0.80968
 C82 C 0.30037 -0.25072 0.81382
 C83 C 0.29919 -0.23433 0.79538
 H84 H 0.27613 -0.28094 0.82030
 H85 H 0.31092 -0.21945 0.79238
 Cu86 Cu 0.24149 -0.27174 0.77482
 Cu87 Cu 0.26903 -0.22340 0.75293
 Cu88 Cu 0.21790 -0.24544 0.72618
 N89 N 0.21232 -0.28322 0.76001
 N90 N 0.20319 -0.27296 0.74103
 C91 C 0.18302 -0.28426 0.73475
 C92 C 0.17912 -0.30270 0.75074
 C93 C 0.19825 -0.30137 0.76652
 H94 H 0.17201 -0.27916 0.71975
 H95 H 0.20171 -0.31261 0.78174
 N96 N 0.23533 -0.21775 0.71382
 N97 N 0.25477 -0.20936 0.72403
 C98 C 0.26229 -0.19033 0.71166
 C99 C 0.24687 -0.18646 0.69269
 C100 C 0.22999 -0.20426 0.69469
 H101 H 0.27773 -0.17989 0.71633
 H102 H 0.21489 -0.20722 0.68308
 H103 H 0.23367 -0.23266 0.75670
 H104 H 0.25233 -0.25253 0.73794
 N105 N 0.71421 -0.23676 0.78140
 N106 N 0.72109 -0.25842 0.78789
 C107 C 0.70751 -0.26580 0.80575
 C108 C 0.69115 -0.24776 0.81076
 C109 C 0.69601 -0.22963 0.79483
 H110 H 0.70973 -0.28288 0.81464
 H111 H 0.68710 -0.21243 0.79311
 Cu112 Cu 0.74757 -0.27476 0.77292
 Cu113 Cu 0.72939 -0.21925 0.75618
 Cu114 Cu 0.78114 -0.24412 0.73474
 N115 N 0.77913 -0.28601 0.76420
 N116 N 0.79239 -0.27356 0.74990
 C117 C 0.81374 -0.28446 0.74803
 C118 C 0.81399 -0.30513 0.76178
 C119 C 0.79151 -0.30552 0.77168
 H120 H 0.82788 -0.27779 0.73724
 H121 H 0.78483 -0.31846 0.78407
 N122 N 0.76675 -0.21441 0.72187
 N123 N 0.74736 -0.20452 0.73055
 C124 C 0.74245 -0.18397 0.71880
 C125 C 0.75944 -0.18093 0.70176
 C126 C 0.77452 -0.20060 0.70416
 H127 H 0.72744 -0.17224 0.72213
 H128 H 0.79025 -0.20430 0.69403
 H129 H 0.74470 -0.24796 0.73897
 H130 H 0.76206 -0.23497 0.76422
 N131 N 0.28951 0.23139 0.77743
 N132 N 0.27917 0.25014 0.78692
 C133 C 0.29123 0.25591 0.80675
 C134 C 0.31010 0.23985 0.80987
 C135 C 0.30840 0.22460 0.79082
 H136 H 0.28633 0.27039 0.81830
 H137 H 0.31996 0.20957 0.78696
 Cu138 Cu 0.25055 0.26448 0.77264
 Cu139 Cu 0.27747 0.21657 0.74881
 Cu140 Cu 0.22709 0.24226 0.72264
 N141 N 0.22245 0.27902 0.75754
 N142 N 0.21349 0.27021 0.73798
 C143 C 0.19399 0.28303 0.73153
 C144 C 0.19037 0.30092 0.74792
 C145 C 0.20890 0.29781 0.76418
 H146 H 0.18319 0.27939 0.71610
 H147 H 0.21202 0.30812 0.77991
 N148 N 0.24345 0.21388 0.70982
 N149 N 0.26265 0.20415 0.71981
 C150 C 0.26931 0.18485 0.70736
 C151 C 0.25355 0.18218 0.68858
 C152 C 0.23739 0.20099 0.69074
 H153 H 0.28425 0.17328 0.71197
 H154 H 0.22224 0.20493 0.67935
 H155 H 0.26143 0.24723 0.73503
 H156 H 0.24224 0.22693 0.75254
 N157 N 0.28900 -0.24329 0.21388
 N158 N 0.27871 -0.26227 0.20491
 C159 C 0.28977 -0.26832 0.18494
 C160 C 0.30813 -0.25244 0.18139
 C161 C 0.30718 -0.23685 0.20016
 H162 H 0.28479 -0.28306 0.17371
 H163 H 0.31824 -0.22137 0.20304
 Cu164 Cu 0.25160 -0.27704 0.21989
 Cu165 Cu 0.27662 -0.22692 0.24128
 Cu166 Cu 0.22607 -0.25049 0.26625
 N167 N 0.22352 -0.29026 0.23453
 N168 N 0.21318 -0.27935 0.25211
 C169 C 0.19385 -0.29176 0.25835
 C170 C 0.19209 -0.31166 0.24407
 C171 C 0.21125 -0.31016 0.22917
 H172 H 0.18218 -0.28692 0.27252
 H173 H 0.21564 -0.32245 0.21525
 N174 N 0.24183 -0.22152 0.27820
 N175 N 0.26131 -0.21281 0.26893
 C176 C 0.26771 -0.19307 0.28085
 C177 C 0.25149 -0.18906 0.29854
 C178 C 0.23535 -0.20756 0.29628
 H179 H 0.28298 -0.18232 0.27676
 H180 H 0.21986 -0.21057 0.30686
 H181 H 0.26090 -0.25639 0.25655
 H182 H 0.24184 -0.23784 0.23606
 N183 N 0.71074 0.24185 0.22368
 N184 N 0.72174 0.25904 0.21246
 C185 C 0.70961 0.26421 0.19240
 C186 C 0.68986 0.24962 0.19109
 C187 C 0.69112 0.23570 0.21129
 H188 H 0.71457 0.27774 0.17977
 H189 H 0.67898 0.22174 0.21629
 Cu190 Cu 0.75048 0.27337 0.22550
 Cu191 Cu 0.72336 0.22779 0.25282
 Cu192 Cu 0.77510 0.25238 0.27589
 N193 N 0.77922 0.28736 0.23895
 N194 N 0.78864 0.27909 0.25871
 C195 C 0.80804 0.29192 0.26430
 C196 C 0.81106 0.30931 0.24712
 C197 C 0.79235 0.30580 0.23129
 H198 H 0.81905 0.28874 0.27978
 H199 H 0.78846 0.31598 0.21544
 N200 N 0.75877 0.22530 0.29071
 N201 N 0.73902 0.21601 0.28204
 C202 C 0.73273 0.19740 0.29569
 C203 C 0.74935 0.19477 0.31387
 C204 C 0.76555 0.21288 0.31010
 H205 H 0.71751 0.18620 0.29225
 H206 H 0.78132 0.21660 0.32053
 H207 H 0.74038 0.25823 0.26432
 H208 H 0.75854 0.23633 0.24731
 C209 C 0.23739 0.01936 0.44299
 C210 C 0.23800 -0.00245 0.43108
 C211 C 0.23804 -0.02436 0.44316
 C212 C 0.23781 -0.02459 0.46804
 C213 C 0.23729 -0.00256 0.48040
 C214 C 0.23709 0.01950 0.46783
 C215 C 0.23736 0.04108 0.48043
 C216 C 0.23775 0.04105 0.50489
 C217 C 0.23777 0.01944 0.51772
 C218 C 0.23760 -0.00259 0.50538
 C219 C 0.23894 -0.04618 0.48090
 C220 C 0.23916 -0.04621 0.50536
 C221 C 0.23835 -0.02465 0.51797
 C222 C 0.23910 -0.02449 0.54285
 C223 C 0.23949 -0.00264 0.55471
 C224 C 0.23874 0.01923 0.54258
 H225 H 0.23766 0.05825 0.47151
 H226 H 0.23837 0.05820 0.51362
 H227 H 0.24006 -0.06333 0.47220
 H228 H 0.24043 -0.06338 0.51428
 H229 H 0.23828 -0.00237 0.41202
 H230 H 0.24017 -0.00263 0.57378
 C231 C 0.75190 0.02293 0.55321
 C232 C 0.75560 0.00118 0.56510
 C233 C 0.75973 -0.02022 0.55304
 C234 C 0.76053 -0.01983 0.52816
 C235 C 0.75589 0.00195 0.51580
 C236 C 0.75155 0.02341 0.52836
 C237 C 0.74647 0.04466 0.51575
 C238 C 0.74602 0.04495 0.49130
 C239 C 0.75068 0.02401 0.47847
 C240 C 0.75547 0.00226 0.49081
 C241 C 0.76635 -0.04047 0.51532
 C242 C 0.76594 -0.04017 0.49087
 C243 C 0.75972 -0.01922 0.47823
 C244 C 0.75815 -0.01900 0.45335
 C245 C 0.75360 0.00268 0.44150
 C246 C 0.75020 0.02412 0.45361
 H247 H 0.74247 0.06126 0.52467
 H248 H 0.74166 0.06175 0.48256
 H249 H 0.77150 -0.05706 0.52404
 H250 H 0.77077 -0.05656 0.48199
 H251 H 0.75516 0.00092 0.58415
 H252 H 0.75260 0.00287 0.42244
 C253 C 0.45548 0.23722 0.02161
 C254 C 0.44183 0.23930 0.00093
 C255 C 0.45248 0.24087 -0.02104
 C256 C 0.47765 0.24036 -0.02248
 C257 C 0.49175 0.23829 -0.00158
 C258 C 0.48061 0.23652 0.02054
 C259 C 0.49486 0.23419 0.04098
 C260 C 0.51961 0.23391 0.03979
 C261 C 0.53111 0.23647 0.01816
 C262 C 0.51703 0.23810 -0.00279
 C263 C 0.48908 0.24159 -0.04422
 C264 C 0.51382 0.24144 -0.04541
 C265 C 0.52815 0.23962 -0.02495
 C266 C 0.55331 0.23964 -0.02600
 C267 C 0.56692 0.23861 -0.00521
 C268 C 0.55631 0.23711 0.01682
 H269 H 0.48698 0.23250 0.05813
 H270 H 0.52959 0.23154 0.05607
 H271 H 0.47904 0.24268 -0.06059
 H272 H 0.52158 0.24293 -0.06262
 H273 H 0.42254 0.23995 0.00197
 H274 H 0.58619 0.23911 -0.00623
 C275 C 0.45121 0.75257 0.01942
 C276 C 0.43857 0.75216 -0.00200
 C277 C 0.45022 0.75093 -0.02349
 C278 C 0.47541 0.74943 -0.02375
 C279 C 0.48857 0.75034 -0.00227
 C280 C 0.47648 0.75230 0.01937
 C281 C 0.49001 0.75416 0.04030
 C282 C 0.51477 0.75272 0.04019
 C283 C 0.52709 0.75003 0.01907
 C284 C 0.51389 0.74901 -0.00240
 C285 C 0.48773 0.74642 -0.04485
 C286 C 0.51249 0.74479 -0.04495
 C287 C 0.52595 0.74626 -0.02396
 C288 C 0.55112 0.74435 -0.02386
 C289 C 0.56380 0.74490 -0.00252
 C290 C 0.55223 0.74788 0.01884
 H291 H 0.48164 0.75681 0.05707
 H292 H 0.52413 0.75359 0.05693
 H293 H 0.47834 0.74484 -0.06152
 H294 H 0.52094 0.74206 -0.06168
 H295 H 0.41924 0.75262 -0.00198
 H296 H 0.58309 0.74336 -0.00255
 C297 C -0.02361 0.55275 0.25428
 C298 C -0.00253 0.56535 0.25111
 C299 C 0.01923 0.55356 0.24743
 C300 C 0.02001 0.52816 0.24692
 C301 C -0.00121 0.51508 0.25049
 C302 C -0.02309 0.52740 0.25417
 C303 C -0.04376 0.51407 0.25812
 C304 C -0.04315 0.48915 0.25777
 C305 C -0.02181 0.47655 0.25369
 C306 C -0.00056 0.48960 0.25042
 C307 C 0.04124 0.51548 0.24246
 C308 C 0.04195 0.49052 0.24279
 C309 C 0.02137 0.47723 0.24719
 C310 C 0.02200 0.45186 0.24802
 C311 C 0.00080 0.43930 0.25079
 C312 C -0.02104 0.45120 0.25333
 H313 H -0.06062 0.52276 0.26170
 H314 H -0.05958 0.47986 0.26108
 H315 H 0.05756 0.52468 0.23854
 H316 H 0.05879 0.48174 0.23926
 H317 H -0.00311 0.58479 0.25148
 H318 H 0.00133 0.41985 0.25116
 C319 C -0.02396 0.54696 0.77410
 C320 C -0.00312 0.56014 0.77116
 C321 C 0.01905 0.54890 0.76849
 C322 C 0.02055 0.52358 0.76796
 C323 C -0.00029 0.50988 0.77119
 C324 C -0.02253 0.52157 0.77477
 C325 C -0.04258 0.50756 0.77942
 C326 C -0.04126 0.48265 0.77885
 C327 C -0.01981 0.47070 0.77368
 C328 C 0.00108 0.48442 0.77070
 C329 C 0.04223 0.51161 0.76375
 C330 C 0.04359 0.48671 0.76335
 C331 C 0.02331 0.47275 0.76706
 C332 C 0.02453 0.44742 0.76665
 C333 C 0.00364 0.43422 0.76867
 C334 C -0.01853 0.44539 0.77188
 H335 H -0.05952 0.51568 0.78377
 H336 H -0.05724 0.47285 0.78275
 H337 H 0.05837 0.52137 0.76038
 H338 H 0.06070 0.47854 0.75972
 H339 H -0.00416 0.57957 0.77086
 H340 H 0.00467 0.41483 0.76753
 C341 C 0.32446 0.26204 0.14221
 C342 C 0.34157 0.26262 0.12473
 C343 C 0.36272 0.24909 0.12700
 C344 C 0.36658 0.23516 0.14747
 C345 C 0.34939 0.23455 0.16498
 C346 C 0.32812 0.24798 0.16255
 C347 C 0.38024 0.25057 0.10784
 C348 C 0.39784 0.23452 0.10446
 C349 C 0.41401 0.23587 0.08416
 C350 C 0.42440 0.21465 0.07569
 C351 C 0.43852 0.21509 0.05567
 C352 C 0.44262 0.23681 0.04402
 C353 C 0.43308 0.25813 0.05289
 C354 C 0.41905 0.25775 0.07290
 H355 H 0.30827 0.27249 0.13957
 H356 H 0.33815 0.27359 0.10923
 H357 H 0.38292 0.22503 0.15030
 H358 H 0.35299 0.22380 0.18056
 H359 H 0.37746 0.26490 0.09513
 H360 H 0.39949 0.21890 0.11575
 H361 H 0.42102 0.19763 0.08417
 H362 H 0.44579 0.19847 0.04894
 H363 H 0.43627 0.27505 0.04410
 H364 H 0.41219 0.27459 0.07940
 C365 C 0.66114 0.78464 0.16411
 C366 C 0.64406 0.78522 0.14591
 C367 C 0.64221 0.76618 0.13007
 C368 C 0.65822 0.74672 0.13244
 C369 C 0.67533 0.74613 0.15054
 C370 C 0.67709 0.76503 0.16679
 C371 C 0.62419 0.76763 0.11073
 C372 C 0.61487 0.74814 0.10056
 C373 C 0.59800 0.74881 0.08018
 C374 C 0.59512 0.72777 0.06706
 C375 C 0.58000 0.72746 0.04734
 C376 C 0.56720 0.74812 0.04050
 C377 C 0.56968 0.76913 0.05365
 C378 C 0.58484 0.76949 0.07342
 H379 H 0.66172 0.79973 0.17591
 H380 H 0.63213 0.80057 0.14429
 H381 H 0.65800 0.73210 0.12005
 H382 H 0.68717 0.73073 0.15148
 H383 H 0.61868 0.78536 0.10493
 H384 H 0.62030 0.73057 0.10697
 H385 H 0.60492 0.71158 0.07188
 H386 H 0.57837 0.71112 0.03728
 H387 H 0.55996 0.78527 0.04849
 H388 H 0.58597 0.78593 0.08329
 C389 C 0.67338 0.27504 -0.15728
 C390 C 0.65851 0.27431 -0.13788
 C391 C 0.64204 0.25581 -0.13524
 C392 C 0.64089 0.23784 -0.15247
 C393 C 0.65581 0.23857 -0.17190
 C394 C 0.67230 0.25714 -0.17453
 C395 C 0.62727 0.25561 -0.11386
 C396 C 0.60717 0.24304 -0.11161
 C397 C 0.59304 0.24293 -0.08982
 C398 C 0.57872 0.22307 -0.08501
 C399 C 0.56556 0.22205 -0.06439
 C400 C 0.56621 0.24108 -0.04842
 C401 C 0.58012 0.26113 -0.05333
 C402 C 0.59328 0.26218 -0.07391
 H403 H 0.68592 0.28954 -0.15847
 H404 H 0.65993 0.28828 -0.12482
 H405 H 0.62896 0.22288 -0.15091
 H406 H 0.65441 0.22445 -0.18476
 H407 H 0.63346 0.26646 -0.09934
 H408 H 0.60095 0.23187 -0.12585
 H409 H 0.57807 0.20810 -0.09703
 H410 H 0.55503 0.20635 -0.06076
 H411 H 0.58073 0.27600 -0.04119
 H412 H 0.60335 0.27819 -0.07732
 C413 C 0.31568 0.73111 -0.14822
 C414 C 0.33193 0.73025 -0.12937
 C415 C 0.35088 0.74637 -0.12802
 C416 C 0.35306 0.76369 -0.14594
 C417 C 0.33677 0.76455 -0.16483
 C418 C 0.31785 0.74827 -0.16623
 C419 C 0.36728 0.74483 -0.10729
 C420 C 0.38900 0.75465 -0.10628
 C421 C 0.40486 0.75292 -0.08519
 C422 C 0.42182 0.77086 -0.08136
 C423 C 0.43677 0.77011 -0.06145
 C424 C 0.43529 0.75117 -0.04523
 C425 C 0.41869 0.73300 -0.04918
 C426 C 0.40370 0.73374 -0.06905
 H427 H 0.30138 0.71831 -0.14846
 H428 H 0.32969 0.71684 -0.11575
 H429 H 0.36694 0.77693 -0.14535
 H430 H 0.33904 0.77813 -0.17821
 H431 H 0.36098 0.73498 -0.09223
 H432 H 0.39542 0.76485 -0.12103
 H433 H 0.42319 0.78571 -0.09359
 H434 H 0.44935 0.78441 -0.05854
 H435 H 0.41737 0.71821 -0.03687
 H436 H 0.39150 0.71912 -0.07176
 C437 C 0.16607 0.33801 0.21611
 C438 C 0.14776 0.35518 0.21483
 C439 C 0.13394 0.36021 0.23452
 C440 C 0.13856 0.34740 0.25553
 C441 C 0.15680 0.33011 0.25677
 C442 C 0.17078 0.32522 0.23708
 C443 C 0.11415 0.37793 0.23211
 C444 C 0.10538 0.39019 0.25029
 C445 C 0.08483 0.40706 0.24812
 C446 C 0.08183 0.42462 0.26543
 C447 C 0.06183 0.43981 0.26490
 C448 C 0.04443 0.43766 0.24707
 C449 C 0.04738 0.42023 0.22968
 C450 C 0.06738 0.40506 0.23016
 H451 H 0.17622 0.33452 0.20048
 H452 H 0.14438 0.36457 0.19836
 H453 H 0.12783 0.35024 0.27089
 H454 H 0.15991 0.32061 0.27319
 H455 H 0.10722 0.38148 0.21455
 H456 H 0.11388 0.38836 0.26744
 H457 H 0.09482 0.42635 0.27959
 H458 H 0.05959 0.45282 0.27876
 H459 H 0.03390 0.41803 0.21604
 H460 H 0.06857 0.39128 0.21694
 C461 C 0.14177 0.68200 0.73370
 C462 C 0.12277 0.66604 0.73422
 C463 C 0.12145 0.64856 0.75195
 C464 C 0.13942 0.64764 0.76947
 C465 C 0.15843 0.66357 0.76898
 C466 C 0.15998 0.68107 0.75109
 C467 C 0.10065 0.63236 0.75199
 C468 C 0.10056 0.61110 0.76318
 C469 C 0.07953 0.59524 0.76379
 C470 C 0.07794 0.57856 0.78227
 C471 C 0.05838 0.56340 0.78373
 C472 C 0.04023 0.56436 0.76649
 C473 C 0.04183 0.58078 0.74785
 C474 C 0.06136 0.59601 0.74639
 H475 H 0.14193 0.69503 0.71957
 H476 H 0.10906 0.66730 0.72061
 H477 H 0.13873 0.63506 0.78395
 H478 H 0.17169 0.66209 0.78292
 H479 H 0.08491 0.63840 0.74233
 H480 H 0.11627 0.60503 0.77285
 H481 H 0.09172 0.57751 0.79582
 H482 H 0.05730 0.55099 0.79838
 H483 H 0.02797 0.58171 0.73437
 H484 H 0.06223 0.60802 0.73146
 C485 C -0.17519 0.65911 0.23209
 C486 C -0.15748 0.64134 0.23139
 C487 C -0.13952 0.63998 0.24877
 C488 C -0.13960 0.65691 0.26697
 C489 C -0.15727 0.67475 0.26769
 C490 C -0.17529 0.67632 0.25014
 C491 C -0.12033 0.62168 0.24645
 C492 C -0.10666 0.61376 0.26452
 C493 C -0.08623 0.59692 0.26184
 C494 C -0.06804 0.59683 0.27910
 C495 C -0.04791 0.58212 0.27686
 C496 C -0.04577 0.56694 0.25746
 C497 C -0.06411 0.56650 0.24043
 C498 C -0.08427 0.58122 0.24264
 H499 H -0.18853 0.65932 0.21816
 H500 H -0.15775 0.62863 0.21707
 H501 H -0.12568 0.65701 0.28035
 H502 H -0.15636 0.68743 0.28194
 H503 H -0.11735 0.61490 0.22897
 H504 H -0.10974 0.62053 0.28199
 H505 H -0.06915 0.60862 0.29412
 H506 H -0.03386 0.58274 0.29012
 H507 H -0.06266 0.55493 0.22529
 H508 H -0.09818 0.58013 0.22933
 C509 C -0.17965 0.35520 0.76505
 C510 C -0.16172 0.37225 0.76739
 C511 C -0.13866 0.36730 0.75961
 C512 C -0.13394 0.34526 0.74878
 C513 C -0.15194 0.32840 0.74594
 C514 C -0.17510 0.33298 0.75420
 C515 C -0.12003 0.38563 0.76218
 C516 C -0.09734 0.37984 0.76751
 C517 C -0.07834 0.39784 0.76959
 C518 C -0.05937 0.39372 0.78554
 C519 C -0.04043 0.40970 0.78694
 C520 C -0.03989 0.42990 0.77210
 C521 C -0.05878 0.43391 0.75597
 C522 C -0.07797 0.41818 0.75489
 H523 H -0.19714 0.35981 0.77142
 H524 H -0.16579 0.38926 0.77556
 H525 H -0.11640 0.34120 0.74213
 H526 H -0.14739 0.31167 0.73755
 H527 H -0.12537 0.40432 0.76076
 H528 H -0.09262 0.36131 0.77135
 H529 H -0.05918 0.37803 0.79685
 H530 H -0.02593 0.40609 0.79932
 H531 H -0.05839 0.44893 0.74384
 H532 H -0.09200 0.42143 0.74192
 C533 C 0.26293 0.14321 0.31069
 C534 C 0.26279 0.12446 0.32703
 C535 C 0.25022 0.12660 0.34803
 C536 C 0.23788 0.14821 0.35243
 C537 C 0.23792 0.16697 0.33597
 C538 C 0.25048 0.16469 0.31493
 C539 C 0.25108 0.10606 0.36478
 C540 C 0.23668 0.10355 0.38322
 C541 C 0.23764 0.08232 0.39912
 C542 C 0.21732 0.07650 0.41196
 C543 C 0.21728 0.05624 0.42656
 C544 C 0.23768 0.04160 0.42871
 C545 C 0.25818 0.04759 0.41640
 C546 C 0.25829 0.06788 0.40190
 H547 H 0.27264 0.14069 0.29462
 H548 H 0.27252 0.10810 0.32316
 H549 H 0.22847 0.15102 0.36859
 H550 H 0.22841 0.18339 0.33995
 H551 H 0.26363 0.09182 0.36092
 H552 H 0.22274 0.11664 0.38621
 H553 H 0.20127 0.08742 0.41034
 H554 H 0.20129 0.05177 0.43594
 H555 H 0.27411 0.03650 0.41803
 H556 H 0.27464 0.07217 0.39312
 C557 C 0.77527 0.16965 0.66133
 C558 C 0.77638 0.15150 0.64457
 C559 C 0.75742 0.13561 0.64143
 C560 C 0.73738 0.13804 0.65579
 C561 C 0.73626 0.15621 0.67256
 C562 C 0.75517 0.17229 0.67555
 C563 C 0.75978 0.11630 0.62375
 C564 C 0.74128 0.10424 0.61463
 C565 C 0.74406 0.08419 0.59789
 C566 C 0.72657 0.06641 0.59719
 C567 C 0.72890 0.04672 0.58233
 C568 C 0.74856 0.04469 0.56758
 C569 C 0.76578 0.06270 0.56773
 C570 C 0.76353 0.08237 0.58267
 H571 H 0.79032 0.18145 0.66317
 H572 H 0.79216 0.14989 0.63395
 H573 H 0.72267 0.12576 0.65459
 H574 H 0.72051 0.15751 0.68317
 H575 H 0.77765 0.11190 0.61823
 H576 H 0.72337 0.10839 0.62013
 H577 H 0.71133 0.06748 0.60858
 H578 H 0.71550 0.03291 0.58248
 H579 H 0.78110 0.06134 0.55648
 H580 H 0.77697 0.09607 0.58213
 C581 C 0.26779 -0.15211 0.67348
 C582 C 0.26859 -0.13368 0.65679
 C583 C 0.24975 -0.12995 0.64062
 C584 C 0.22984 -0.14501 0.64165
 C585 C 0.22901 -0.16344 0.65839
 C586 C 0.24794 -0.16720 0.67457
 C587 C 0.25118 -0.10956 0.62386
 C588 C 0.23847 -0.10785 0.60370
 C589 C 0.23958 -0.08690 0.58755
 C590 C 0.22005 -0.08198 0.57242
 C591 C 0.22002 -0.06194 0.55752
 C592 C 0.23969 -0.04668 0.55727
 C593 C 0.25945 -0.05182 0.57192
 C594 C 0.25953 -0.07183 0.58680
 H595 H 0.28280 -0.15441 0.68548
 H596 H 0.28408 -0.12228 0.65651
 H597 H 0.21457 -0.14233 0.63006
 H598 H 0.21327 -0.17441 0.65880
 H599 H 0.26333 -0.09541 0.62861
 H600 H 0.22619 -0.12187 0.59894
 H601 H 0.20456 -0.09337 0.57251
 H602 H 0.20453 -0.05811 0.54645
 H603 H 0.27481 -0.04024 0.57186
 H604 H 0.27530 -0.07542 0.59748
 C605 C 0.75264 -0.13385 0.31398
 C606 C 0.75466 -0.11515 0.33008
 C607 C 0.76281 -0.11963 0.35314
 C608 C 0.76954 -0.14313 0.35970
 C609 C 0.76789 -0.16178 0.34347
 C610 C 0.75927 -0.15735 0.32050
 C611 C 0.76464 -0.09936 0.36967
 C612 C 0.76117 -0.10169 0.39281
 C613 C 0.76149 -0.08091 0.40881
 C614 C 0.74580 -0.08030 0.42773
 C615 C 0.74492 -0.06035 0.44245
 C616 C 0.76027 -0.04100 0.43894
 C617 C 0.77643 -0.04191 0.42040
 C618 C 0.77706 -0.06167 0.40546
 H619 H 0.74624 -0.12981 0.29633
 H620 H 0.74961 -0.09715 0.32457
 H621 H 0.77645 -0.14705 0.37720
 H622 H 0.77313 -0.17971 0.34900
 H623 H 0.76720 -0.08166 0.36224
 H624 H 0.75605 -0.11887 0.39996
 H625 H 0.73369 -0.09495 0.43066
 H626 H 0.73200 -0.05982 0.45636
 H627 H 0.78841 -0.02717 0.41736
 H628 H 0.78976 -0.06190 0.39136
 C629 C 0.65974 0.77347 -0.16596
 C630 C 0.64292 0.77389 -0.14817
 C631 C 0.63865 0.75336 -0.13461
 C632 C 0.65183 0.73231 -0.13915
 C633 C 0.66869 0.73189 -0.15698
 C634 C 0.67292 0.75248 -0.17059
 C635 C 0.62119 0.75516 -0.11538
 C636 C 0.61113 0.73624 -0.10497
 C637 C 0.59468 0.73851 -0.08497
 C638 C 0.59326 0.71937 -0.06894
 C639 C 0.57874 0.72111 -0.04931
 C640 C 0.56504 0.74187 -0.04560
 C641 C 0.56589 0.76081 -0.06186
 C642 C 0.58047 0.75913 -0.08147
 H643 H 0.66250 0.78979 -0.17584
 H644 H 0.63321 0.79041 -0.14495
 H645 H 0.64971 0.71624 -0.12875
 H646 H 0.67846 0.71539 -0.15991
 H647 H 0.61669 0.77304 -0.10952
 H648 H 0.61565 0.71827 -0.11049
 H649 H 0.60386 0.70324 -0.07131
 H650 H 0.57836 0.70637 -0.03685
 H651 H 0.55546 0.77700 -0.05919
 H652 H 0.58045 0.77395 -0.09381
 C653 C 0.34223 0.21805 -0.16708
 C654 C 0.35860 0.21659 -0.14836
 C655 C 0.36113 0.23564 -0.13260
 C656 C 0.34663 0.25620 -0.13580
 C657 C 0.33017 0.25765 -0.15453
 C658 C 0.32777 0.23859 -0.17041
 C659 C 0.37823 0.23278 -0.11259
 C660 C 0.38758 0.25116 -0.10063
 C661 C 0.40451 0.24784 -0.08052
 C662 C 0.42004 0.26652 -0.07464
 C663 C 0.43594 0.26418 -0.05554
 C664 C 0.43654 0.24309 -0.04197
 C665 C 0.42079 0.22457 -0.04751
 C666 C 0.40490 0.22689 -0.06657
 H667 H 0.34075 0.20285 -0.17869
 H668 H 0.36934 0.20044 -0.14618
 H669 H 0.34751 0.27101 -0.12366
 H670 H 0.31935 0.27374 -0.15650
 H671 H 0.38403 0.21468 -0.10829
 H672 H 0.38364 0.26936 -0.10627
 H673 H 0.41987 0.28296 -0.08487
 H674 H 0.44765 0.27885 -0.05119
 H675 H 0.42070 0.20838 -0.03690
 H676 H 0.39262 0.21246 -0.06990
 C677 C 0.31661 0.74094 0.13891
 C678 C 0.33158 0.74274 0.11963
 C679 C 0.35473 0.75160 0.12240
 C680 C 0.36254 0.75912 0.14474
 C681 C 0.34736 0.75784 0.16393
 C682 C 0.32430 0.74864 0.16120
 C683 C 0.36998 0.75366 0.10160
 C684 C 0.39353 0.74948 0.10258
 C685 C 0.40842 0.75080 0.08147
 C686 C 0.42679 0.73389 0.07851
 C687 C 0.44073 0.73443 0.05839
 C688 C 0.43716 0.75251 0.04134
 C689 C 0.41900 0.76967 0.04452
 C690 C 0.40470 0.76879 0.06436
 H691 H 0.29882 0.73405 0.13626
 H692 H 0.32515 0.73704 0.10252
 H693 H 0.38016 0.76648 0.14728
 H694 H 0.35372 0.76389 0.18093
 H695 H 0.36133 0.75726 0.08475
 H696 H 0.40185 0.74332 0.11889
 H697 H 0.42993 0.71987 0.09149
 H698 H 0.45422 0.72066 0.05604
 H699 H 0.41585 0.78370 0.03155
 H700 H 0.39091 0.78231 0.06643
 C701 C 0.64831 0.24153 0.17674
 C702 C 0.63107 0.24090 0.15871
 C703 C 0.63702 0.24686 0.13558
 C704 C 0.66036 0.25415 0.13087
 C705 C 0.67745 0.25525 0.14896
 C706 C 0.67164 0.24879 0.17204
 C707 C 0.61851 0.24600 0.11681
 C708 C 0.62341 0.23897 0.09494
 C709 C 0.60517 0.23804 0.07593
 C710 C 0.60731 0.22055 0.05849
 C711 C 0.59095 0.21981 0.03973
 C712 C 0.57236 0.23681 0.03786
 C713 C 0.57042 0.25460 0.05511
 C714 C 0.58652 0.25506 0.07414
 H715 H 0.64328 0.23670 0.19441
 H716 H 0.61313 0.23545 0.16276
 H717 H 0.66531 0.25937 0.11328
 H718 H 0.69531 0.26086 0.14482
 H719 H 0.60025 0.24998 0.12147
 H720 H 0.64120 0.23257 0.09103
 H721 H 0.62169 0.20743 0.05939
 H722 H 0.59297 0.20614 0.02645
 H723 H 0.55667 0.26833 0.05362
 H724 H 0.58485 0.26921 0.08696
 C725 C -0.14401 0.68362 0.75705
 C726 C -0.12504 0.66757 0.76076
 C727 C -0.12855 0.64558 0.77206
 C728 C -0.15133 0.64008 0.78019
 C729 C -0.17028 0.65639 0.77702
 C730 C -0.16697 0.67839 0.76522
 C731 C -0.10797 0.62916 0.77564
 C732 C -0.10966 0.60532 0.77383
 C733 C -0.08835 0.58953 0.77520
 C734 C -0.08637 0.57023 0.75966
 C735 C -0.06562 0.55613 0.75950
 C736 C -0.04683 0.56056 0.77548
 C737 C -0.04916 0.57941 0.79155
 C738 C -0.06970 0.59382 0.79138
 H739 H -0.14031 0.70032 0.74820
 H740 H -0.10755 0.67224 0.75452
 H741 H -0.15442 0.62336 0.78935
 H742 H -0.18752 0.65144 0.78356
 H743 H -0.09054 0.63709 0.77780
 H744 H -0.12660 0.59743 0.76904
 H745 H -0.10054 0.56665 0.74704
 H746 H -0.06401 0.54203 0.74661
 H747 H -0.03489 0.58320 0.80399
 H748 H -0.07097 0.60834 0.80385
 C749 C -0.16874 0.34365 0.22695
 C750 C -0.15077 0.36076 0.22599
 C751 C -0.13368 0.36245 0.24417
 C752 C -0.13468 0.34629 0.26320
 C753 C -0.15263 0.32919 0.26416
 C754 C -0.16994 0.32763 0.24607
 C755 C -0.11458 0.38049 0.24213
 C756 C -0.10201 0.38875 0.26060
 C757 C -0.08197 0.40565 0.25847
 C758 C -0.06439 0.40574 0.27634
 C759 C -0.04477 0.42080 0.27482
 C760 C -0.04258 0.43636 0.25558
 C761 C -0.06032 0.43676 0.23790
 C762 C -0.07993 0.42163 0.23935
 H763 H -0.18157 0.34301 0.21258
 H764 H -0.15026 0.37278 0.21099
 H765 H -0.12139 0.34631 0.27718
 H766 H -0.15269 0.31715 0.27910
 H767 H -0.11083 0.38697 0.22463
 H768 H -0.10581 0.38233 0.27809
 H769 H -0.06560 0.39375 0.29132
 H770 H -0.03118 0.42022 0.28858
 H771 H -0.05882 0.44865 0.22289
 H772 H -0.09343 0.42267 0.22559
 C773 C 0.15105 0.31697 0.73261
 C774 C 0.13210 0.33335 0.73331
 C775 C 0.13207 0.35208 0.74963
 C776 C 0.15153 0.35398 0.76545
 C777 C 0.17053 0.33754 0.76475
 C778 C 0.17051 0.31877 0.74837
 C779 C 0.11097 0.36839 0.74999
 C780 C 0.11046 0.38978 0.76065
 C781 C 0.08874 0.40518 0.76117
 C782 C 0.08581 0.42104 0.77999
 C783 C 0.06514 0.43513 0.78159
 C784 C 0.04722 0.43389 0.76415
 C785 C 0.05035 0.41856 0.74500
 C786 C 0.07098 0.40445 0.74340
 H787 H 0.15016 0.30273 0.71984
 H788 H 0.11730 0.33132 0.72103
 H789 H 0.15208 0.36771 0.77874
 H790 H 0.18516 0.33957 0.77718
 H791 H 0.09507 0.36218 0.74102
 H792 H 0.12603 0.39610 0.77006
 H793 H 0.09929 0.42209 0.79379
 H794 H 0.06291 0.44673 0.79660
 H795 H 0.03673 0.41747 0.73134
 H796 H 0.07294 0.39315 0.72817
 C797 C 0.17888 0.64617 0.23725
 C798 C 0.16148 0.62845 0.23804
 C799 C 0.13842 0.63401 0.24557
 C800 C 0.13321 0.65745 0.25298
 C801 C 0.15072 0.67504 0.25264
 C802 C 0.17367 0.66962 0.24461
 C803 C 0.12026 0.61503 0.24620
 C804 C 0.09732 0.61953 0.24076
 C805 C 0.07867 0.60107 0.24157
 C806 C 0.05904 0.60311 0.22607
 C807 C 0.04026 0.58699 0.22738
 C808 C 0.04056 0.56874 0.24449
 C809 C 0.06015 0.56671 0.26010
 C810 C 0.07919 0.58258 0.25851
 H811 H 0.19650 0.64143 0.23123
 H812 H 0.16593 0.61043 0.23248
 H813 H 0.11572 0.66212 0.25940
 H814 H 0.14620 0.69295 0.25839
 H815 H 0.12614 0.59684 0.25003
 H816 H 0.09207 0.63725 0.23456
 H817 H 0.05816 0.61734 0.21304
 H818 H 0.02519 0.58907 0.21535
 H819 H 0.06042 0.55321 0.27386
 H820 H 0.09377 0.58099 0.27115
 C821 C 0.75248 -0.13799 0.69055
 C822 C 0.75442 -0.11892 0.67470
 C823 C 0.76455 -0.12250 0.65263
 C824 C 0.77334 -0.14538 0.64687
 C825 C 0.77184 -0.16435 0.66293
 C826 C 0.76124 -0.16086 0.68484
 C827 C 0.76627 -0.10194 0.63629
 C828 C 0.76372 -0.10414 0.61296
 C829 C 0.76384 -0.08312 0.59705
 C830 C 0.74799 -0.08220 0.57773
 C831 C 0.74685 -0.06192 0.56319
 C832 C 0.76216 -0.04258 0.56724
 C833 C 0.77851 -0.04383 0.58618
 C834 C 0.77933 -0.06389 0.60100
 H835 H 0.74448 -0.13473 0.70743
 H836 H 0.74772 -0.10138 0.67956
 H837 H 0.78171 -0.14852 0.63016
 H838 H 0.77872 -0.18181 0.65808
 H839 H 0.76790 -0.08424 0.64385
 H840 H 0.75945 -0.12142 0.60550
 H841 H 0.73592 -0.09685 0.57438
 H842 H 0.73374 -0.06113 0.54899
 H843 H 0.79044 -0.02911 0.58967
 H844 H 0.79208 -0.06438 0.61550
 C845 C 0.26791 -0.15055 0.31439
 C846 C 0.26746 -0.13159 0.33028
 C847 C 0.25042 -0.13061 0.34801
 C848 C 0.23359 -0.14907 0.34935
 C849 C 0.23405 -0.16807 0.33343
 C850 C 0.25120 -0.16906 0.31571
 C851 C 0.25061 -0.10969 0.36405
 C852 C 0.23885 -0.10851 0.38437
 C853 C 0.23934 -0.08713 0.39973
 C854 C 0.21995 -0.08261 0.41441
 C855 C 0.21956 -0.06236 0.42877
 C856 C 0.23879 -0.04652 0.42898
 C857 C 0.25838 -0.05119 0.41470
 C858 C 0.25877 -0.07138 0.40032
 H859 H 0.28134 -0.15046 0.30101
 H860 H 0.28055 -0.11758 0.32869
 H861 H 0.21973 -0.14888 0.36229
 H862 H 0.22081 -0.18187 0.33506
 H863 H 0.26105 -0.09451 0.35860
 H864 H 0.22792 -0.12324 0.38991
 H865 H 0.20486 -0.09454 0.41443
 H866 H 0.20420 -0.05889 0.43955
 H867 H 0.27340 -0.03917 0.41472
 H868 H 0.27443 -0.07467 0.38995
 C869 C 0.77048 0.17338 0.34736
 C870 C 0.77170 0.15524 0.36438
 C871 C 0.75278 0.13933 0.36717
 C872 C 0.73252 0.14191 0.35238
 C873 C 0.73130 0.16007 0.33534
 C874 C 0.75030 0.17598 0.33251
 C875 C 0.75554 0.11972 0.38481
 C876 C 0.73733 0.10714 0.39333
 C877 C 0.74066 0.08664 0.40982
 C878 C 0.72343 0.06861 0.40994
 C879 C 0.72633 0.04848 0.42448
 C880 C 0.74633 0.04624 0.43947
 C881 C 0.76331 0.06447 0.43988
 C882 C 0.76047 0.08459 0.42530
 H883 H 0.78559 0.18507 0.34571
 H884 H 0.78761 0.15356 0.37537
 H885 H 0.71779 0.12968 0.35337
 H886 H 0.71545 0.16142 0.32430
 H887 H 0.77353 0.11543 0.39070
 H888 H 0.71930 0.11113 0.38743
 H889 H 0.70794 0.06984 0.39834
 H890 H 0.71309 0.03451 0.42390
 H891 H 0.77890 0.06295 0.45133
 H892 H 0.77375 0.09845 0.42631
 C893 C 0.27312 0.14705 0.66905
 C894 C 0.27291 0.12847 0.65275
 C895 C 0.25330 0.12531 0.63751
 C896 C 0.23371 0.14118 0.63904
 C897 C 0.23390 0.15979 0.65540
 C898 C 0.25357 0.16290 0.67070
 C899 C 0.25374 0.10468 0.62120
 C900 C 0.23995 0.10301 0.60178
 C901 C 0.24043 0.08187 0.58608
 C902 C 0.22013 0.07688 0.57223
 C903 C 0.21962 0.05671 0.55777
 C904 C 0.23955 0.04139 0.55670
 C905 C 0.26003 0.04656 0.57006
 C906 C 0.26059 0.06671 0.58448
 H907 H 0.28868 0.14889 0.68033
 H908 H 0.28820 0.11646 0.65204
 H909 H 0.21791 0.13901 0.62816
 H910 H 0.21838 0.17139 0.65630
 H911 H 0.26612 0.09028 0.62565
 H912 H 0.22734 0.11719 0.59733
 H913 H 0.20446 0.08835 0.57298
 H914 H 0.20362 0.05286 0.54764
 H915 H 0.27560 0.03494 0.56932
 H916 H 0.27690 0.07036 0.59411
   
