data_POSCAR
  _audit_creation_date              2014-09-24
  _audit_creation_method            'ToBaCCo'
  _symmetry_space_group_name_H-M    'P1'
  _symmetry_Int_Tables_number       1
  _symmetry_cell_setting            triclinic
  loop_
  _symmetry_equiv_pos_as_xyz
 x,y,z
_cell_length_a 35.7184
_cell_length_b 35.7181
_cell_length_c 35.7231
_cell_angle_alpha 90.000000
_cell_angle_beta 89.977000
_cell_angle_gamma 89.999400
loop_
  _atom_site_label
  _atom_site_type_symbol
  _atom_site_fract_x
  _atom_site_fract_y
  _atom_site_fract_z
Zn1 Zn 0.77967 0.72046 0.77959
 Zn2 Zn 0.77969 0.77968 0.72039
 Zn3 Zn 0.72048 0.72048 0.72039
 Zn4 Zn 0.72047 0.77967 0.77962
 O5 O 0.75008 0.75007 0.75000
 O6 O 0.82864 0.72812 0.77191
 O7 O 0.77204 0.77203 0.67143
 O8 O 0.72813 0.67151 0.72805
 O9 O 0.82865 0.77202 0.72805
 O10 O 0.77201 0.67150 0.77191
 O11 O 0.72816 0.72814 0.67143
 O12 O 0.67150 0.77201 0.77196
 O13 O 0.77202 0.82864 0.72806
 O14 O 0.67151 0.72814 0.72806
 O15 O 0.72812 0.82863 0.77195
 O16 O 0.72813 0.77200 0.82858
 O17 O 0.77200 0.72811 0.82855
 C18 C 0.84585 0.75007 0.74998
 C19 C 0.75011 0.75008 0.65422
 C20 C 0.75006 0.65430 0.74998
 C21 C 0.65430 0.75007 0.75001
 C22 C 0.75007 0.84584 0.75001
 C23 C 0.75006 0.75005 0.84577
 Zn24 Zn 0.22048 0.72046 0.72041
 Zn25 Zn 0.22047 0.77968 0.77961
 Zn26 Zn 0.27967 0.72047 0.77960
 Zn27 Zn 0.27968 0.77968 0.72038
 O28 O 0.25007 0.75007 0.75000
 O29 O 0.17151 0.72812 0.72809
 O30 O 0.22811 0.77202 0.82857
 O31 O 0.27203 0.67151 0.77194
 O32 O 0.17150 0.77202 0.77195
 O33 O 0.22814 0.67150 0.72807
 O34 O 0.27199 0.72813 0.82856
 O35 O 0.32865 0.77201 0.72803
 O36 O 0.22813 0.82864 0.77194
 O37 O 0.32864 0.72814 0.77192
 O38 O 0.27202 0.82864 0.72804
 O39 O 0.27202 0.77201 0.67141
 O40 O 0.22814 0.72812 0.67144
 C41 C 0.15430 0.75007 0.75002
 C42 C 0.25004 0.75007 0.84577
 C43 C 0.25009 0.65430 0.75001
 C44 C 0.34584 0.75008 0.74997
 C45 C 0.25007 0.84585 0.74999
 C46 C 0.25008 0.75006 0.65422
 Zn47 Zn 0.72047 0.22048 0.77962
 Zn48 Zn 0.77968 0.22046 0.72038
 Zn49 Zn 0.72047 0.27967 0.72039
 Zn50 Zn 0.77967 0.27969 0.77958
 O51 O 0.75007 0.25007 0.74999
 O52 O 0.72812 0.17151 0.77195
 O53 O 0.77202 0.22811 0.67142
 O54 O 0.67150 0.27201 0.72807
 O55 O 0.77201 0.17150 0.72806
 O56 O 0.67150 0.22814 0.77197
 O57 O 0.72814 0.27200 0.67143
 O58 O 0.77201 0.32865 0.77191
 O59 O 0.82864 0.22813 0.72803
 O60 O 0.72812 0.32863 0.72805
 O61 O 0.82864 0.27203 0.77190
 O62 O 0.77202 0.27203 0.82855
 O63 O 0.72814 0.22814 0.82858
 C64 C 0.75006 0.15430 0.75001
 C65 C 0.75008 0.25005 0.65422
 C66 C 0.65430 0.25007 0.75003
 C67 C 0.75006 0.34584 0.74997
 C68 C 0.84584 0.25008 0.74996
 C69 C 0.75008 0.25009 0.84577
 Zn70 Zn 0.27968 0.22048 0.72038
 Zn71 Zn 0.22046 0.22046 0.77960
 Zn72 Zn 0.27967 0.27967 0.77960
 Zn73 Zn 0.22047 0.27969 0.72040
 O74 O 0.25007 0.25008 0.75000
 O75 O 0.27202 0.17151 0.72804
 O76 O 0.22812 0.22811 0.82856
 O77 O 0.32863 0.27201 0.77192
 O78 O 0.22812 0.17150 0.77192
 O79 O 0.32864 0.22814 0.72803
 O80 O 0.27199 0.27200 0.82857
 O81 O 0.22813 0.32865 0.72807
 O82 O 0.17150 0.22813 0.77195
 O83 O 0.27201 0.32864 0.77194
 O84 O 0.17150 0.27203 0.72808
 O85 O 0.22813 0.27203 0.67144
 O86 O 0.27201 0.22814 0.67142
 C87 C 0.25007 0.15430 0.74998
 C88 C 0.25005 0.25005 0.84577
 C89 C 0.34584 0.25008 0.74997
 C90 C 0.25007 0.34585 0.75001
 C91 C 0.15430 0.25008 0.75002
 C92 C 0.25007 0.25008 0.65422
 Zn93 Zn 0.72033 0.72035 0.22039
 Zn94 Zn 0.77954 0.77956 0.22039
 Zn95 Zn 0.72032 0.77955 0.27962
 Zn96 Zn 0.77953 0.72033 0.27958
 O97 O 0.74993 0.74995 0.25000
 O98 O 0.72801 0.72801 0.17143
 O99 O 0.77187 0.82852 0.22806
 O100 O 0.67136 0.77188 0.27197
 O101 O 0.77189 0.77190 0.17143
 O102 O 0.67137 0.72802 0.22807
 O103 O 0.72798 0.82851 0.27195
 O104 O 0.77187 0.72799 0.32855
 O105 O 0.82850 0.77190 0.22805
 O106 O 0.72800 0.77189 0.32858
 O107 O 0.82849 0.72799 0.27190
 O108 O 0.77186 0.67137 0.27192
 O109 O 0.72798 0.67139 0.22805
 C110 C 0.74996 0.74996 0.15422
 C111 C 0.74992 0.84572 0.25001
 C112 C 0.65416 0.74995 0.25003
 C113 C 0.74994 0.74994 0.34577
 C114 C 0.84570 0.74994 0.24997
 C115 C 0.74992 0.65418 0.24998
 Zn116 Zn 0.27953 0.77955 0.22038
 Zn117 Zn 0.22033 0.72034 0.22040
 Zn118 Zn 0.27952 0.72034 0.27960
 Zn119 Zn 0.22032 0.77956 0.27961
 O120 O 0.24993 0.74995 0.25000
 O121 O 0.27187 0.77190 0.17142
 O122 O 0.22799 0.67138 0.22807
 O123 O 0.32849 0.72800 0.27192
 O124 O 0.22799 0.72801 0.17144
 O125 O 0.32850 0.77188 0.22803
 O126 O 0.27186 0.67138 0.27194
 O127 O 0.22797 0.77190 0.32857
 O128 O 0.17136 0.72800 0.22808
 O129 O 0.27185 0.72801 0.32856
 O130 O 0.17135 0.77189 0.27196
 O131 O 0.22798 0.82852 0.27194
 O132 O 0.27188 0.82851 0.22805
 C133 C 0.24993 0.74995 0.15422
 C134 C 0.24992 0.65418 0.25000
 C135 C 0.34570 0.74994 0.24997
 C136 C 0.24991 0.74995 0.34577
 C137 C 0.15416 0.74995 0.25003
 C138 C 0.24993 0.84572 0.24999
 Zn139 Zn 0.72033 0.27954 0.22038
 Zn140 Zn 0.77954 0.22033 0.22039
 Zn141 Zn 0.77953 0.27957 0.27958
 Zn142 Zn 0.72033 0.22035 0.27962
 O143 O 0.74993 0.24995 0.24999
 O144 O 0.72801 0.27187 0.17142
 O145 O 0.82850 0.22799 0.22805
 O146 O 0.77186 0.32853 0.27190
 O147 O 0.77190 0.22799 0.17143
 O148 O 0.72798 0.32850 0.22804
 O149 O 0.82850 0.27190 0.27190
 O150 O 0.72801 0.22802 0.32858
 O151 O 0.77187 0.17137 0.22806
 O152 O 0.77188 0.27191 0.32855
 O153 O 0.72798 0.17139 0.27196
 O154 O 0.67137 0.22801 0.27197
 O155 O 0.67137 0.27187 0.22806
 C156 C 0.74997 0.24993 0.15422
 C157 C 0.84570 0.24994 0.24997
 C158 C 0.74992 0.34572 0.24997
 C159 C 0.74995 0.24996 0.34577
 C160 C 0.74992 0.15418 0.25001
 C161 C 0.65416 0.24994 0.25002
 Zn162 Zn 0.22033 0.27955 0.22040
 Zn163 Zn 0.27953 0.22034 0.22038
 Zn164 Zn 0.27953 0.27955 0.27959
 Zn165 Zn 0.22032 0.22034 0.27961
 O166 O 0.24993 0.24995 0.25000
 O167 O 0.22799 0.27189 0.17144
 O168 O 0.32850 0.22800 0.22803
 O169 O 0.27187 0.32851 0.27193
 O170 O 0.27187 0.22800 0.17142
 O171 O 0.22799 0.32851 0.22807
 O172 O 0.32849 0.27188 0.27192
 O173 O 0.22798 0.22800 0.32857
 O174 O 0.27187 0.17138 0.22804
 O175 O 0.27186 0.27189 0.32856
 O176 O 0.22798 0.17138 0.27194
 O177 O 0.17136 0.22800 0.27196
 O178 O 0.17136 0.27189 0.22808
 C179 C 0.24993 0.24995 0.15422
 C180 C 0.34570 0.24993 0.24997
 C181 C 0.24993 0.34572 0.25000
 C182 C 0.24991 0.24995 0.34577
 C183 C 0.24992 0.15417 0.24999
 C184 C 0.15416 0.24994 0.25002
 C185 C 0.03976 0.75005 0.75002
 C186 C 0.01997 0.78441 0.75008
 C187 C -0.01983 0.78441 0.75005
 C188 C -0.03961 0.75005 0.74999
 C189 C -0.01982 0.71569 0.74995
 C190 C 0.01998 0.71569 0.74995
 C191 C 0.03913 0.68099 0.74990
 C192 C 0.01954 0.64726 0.74984
 C193 C -0.01938 0.64726 0.74984
 C194 C -0.03898 0.68099 0.74989
 C195 C -0.03898 0.81911 0.75010
 C196 C -0.01939 0.85284 0.75017
 C197 C 0.01952 0.85284 0.75019
 C198 C 0.03913 0.81911 0.75015
 C199 C -0.08027 0.75004 0.74998
 C200 C -0.11402 0.75006 0.74997
 C201 C 0.08042 0.75005 0.75003
 C202 C 0.11417 0.75006 0.75003
 H203 H 0.06939 0.67955 0.74990
 H204 H 0.03463 0.62098 0.74979
 H205 H -0.03447 0.62098 0.74979
 H206 H -0.06924 0.67954 0.74988
 H207 H -0.06924 0.82055 0.75008
 H208 H -0.03449 0.87912 0.75020
 H209 H 0.03462 0.87912 0.75025
 H210 H 0.06939 0.82056 0.75017
 C211 C 0.75004 0.03976 0.75003
 C212 C 0.78440 0.01997 0.75021
 C213 C 0.78440 -0.01983 0.75021
 C214 C 0.75004 -0.03961 0.75003
 C215 C 0.71568 -0.01983 0.74986
 C216 C 0.71568 0.01997 0.74986
 C217 C 0.68098 0.03913 0.74969
 C218 C 0.64725 0.01953 0.74952
 C219 C 0.64725 -0.01938 0.74952
 C220 C 0.68098 -0.03898 0.74969
 C221 C 0.81910 -0.03898 0.75038
 C222 C 0.85283 -0.01938 0.75056
 C223 C 0.85283 0.01953 0.75056
 C224 C 0.81909 0.03913 0.75038
 C225 C 0.75004 -0.08027 0.75002
 C226 C 0.75006 -0.11402 0.75001
 C227 C 0.75004 0.08042 0.75002
 C228 C 0.75005 0.11417 0.75001
 H229 H 0.67953 0.06939 0.74969
 H230 H 0.62097 0.03462 0.74939
 H231 H 0.62097 -0.03448 0.74939
 H232 H 0.67953 -0.06924 0.74968
 H233 H 0.82054 -0.06924 0.75039
 H234 H 0.87911 -0.03448 0.75069
 H235 H 0.87911 0.03463 0.75070
 H236 H 0.82054 0.06939 0.75039
 C237 C 0.75006 0.74996 0.03968
 C238 C 0.75002 0.78433 0.01991
 C239 C 0.75002 0.78434 -0.01989
 C240 C 0.75008 0.74999 -0.03969
 C241 C 0.75015 0.71563 -0.01992
 C242 C 0.75013 0.71561 0.01988
 C243 C 0.75019 0.68091 0.03902
 C244 C 0.75027 0.64718 0.01941
 C245 C 0.75029 0.64720 -0.01950
 C246 C 0.75023 0.68094 -0.03908
 C247 C 0.74996 0.81905 -0.03903
 C248 C 0.74992 0.85277 -0.01941
 C249 C 0.74992 0.85276 0.01949
 C250 C 0.74997 0.81902 0.03907
 C251 C 0.75006 0.75001 -0.08035
 C252 C 0.75006 0.75004 -0.11410
 C253 C 0.75003 0.74994 0.08034
 C254 C 0.74999 0.74994 0.11409
 H255 H 0.75018 0.67945 0.06927
 H256 H 0.75031 0.62090 0.03449
 H257 H 0.75035 0.62093 -0.03460
 H258 H 0.75025 0.67950 -0.06934
 H259 H 0.74996 0.82051 -0.06928
 H260 H 0.74988 0.87906 -0.03450
 H261 H 0.74988 0.87903 0.03460
 H262 H 0.74997 0.82045 0.06933
 C263 C 0.46039 0.75005 0.74998
 C264 C 0.48017 0.71569 0.74996
 C265 C 0.51997 0.71569 0.74997
 C266 C 0.53976 0.75005 0.75001
 C267 C 0.51997 0.78441 0.75004
 C268 C 0.48017 0.78441 0.75002
 C269 C 0.46102 0.81911 0.75004
 C270 C 0.48062 0.85285 0.75008
 C271 C 0.51953 0.85285 0.75011
 C272 C 0.53913 0.81911 0.75009
 C273 C 0.53913 0.68099 0.74994
 C274 C 0.51953 0.64726 0.74991
 C275 C 0.48062 0.64726 0.74991
 C276 C 0.46102 0.68100 0.74993
 C277 C 0.58042 0.75005 0.75002
 C278 C 0.61417 0.75007 0.75002
 C279 C 0.41973 0.75005 0.74997
 C280 C 0.38598 0.75007 0.74996
 H281 H 0.43076 0.82056 0.75002
 H282 H 0.46552 0.87913 0.75010
 H283 H 0.53463 0.87913 0.75015
 H284 H 0.56939 0.82056 0.75011
 H285 H 0.56939 0.67954 0.74994
 H286 H 0.53463 0.62098 0.74988
 H287 H 0.46552 0.62098 0.74988
 H288 H 0.43076 0.67955 0.74993
 C289 C 0.25007 0.03976 0.74996
 C290 C 0.28443 0.01997 0.75014
 C291 C 0.28443 -0.01983 0.75014
 C292 C 0.25007 -0.03961 0.74997
 C293 C 0.21571 -0.01983 0.74980
 C294 C 0.21571 0.01998 0.74980
 C295 C 0.18101 0.03913 0.74962
 C296 C 0.14728 0.01953 0.74945
 C297 C 0.14728 -0.01938 0.74945
 C298 C 0.18101 -0.03898 0.74962
 C299 C 0.31912 -0.03898 0.75031
 C300 C 0.35286 -0.01938 0.75049
 C301 C 0.35286 0.01953 0.75049
 C302 C 0.31913 0.03913 0.75031
 C303 C 0.25007 -0.08027 0.74996
 C304 C 0.25007 -0.11402 0.74998
 C305 C 0.25007 0.08042 0.74996
 C306 C 0.25006 0.11417 0.74996
 H307 H 0.17956 0.06939 0.74962
 H308 H 0.12100 0.03463 0.74932
 H309 H 0.12100 -0.03448 0.74932
 H310 H 0.17956 -0.06924 0.74962
 H311 H 0.32057 -0.06924 0.75032
 H312 H 0.37914 -0.03448 0.75062
 H313 H 0.37914 0.03463 0.75062
 H314 H 0.32057 0.06939 0.75032
 C315 C 0.24990 0.75000 0.03968
 C316 C 0.24985 0.78436 0.01991
 C317 C 0.24986 0.78437 -0.01989
 C318 C 0.24994 0.75002 -0.03969
 C319 C 0.24998 0.71566 -0.01991
 C320 C 0.24996 0.71565 0.01989
 C321 C 0.25000 0.68094 0.03903
 C322 C 0.25006 0.64722 0.01942
 C323 C 0.25009 0.64723 -0.01948
 C324 C 0.25005 0.68096 -0.03907
 C325 C 0.24979 0.81907 -0.03904
 C326 C 0.24972 0.85280 -0.01943
 C327 C 0.24972 0.85279 0.01948
 C328 C 0.24978 0.81905 0.03907
 C329 C 0.24997 0.75003 -0.08035
 C330 C 0.25002 0.75005 -0.11410
 C331 C 0.24990 0.74999 0.08034
 C332 C 0.24992 0.74996 0.11409
 H333 H 0.24997 0.67949 0.06929
 H334 H 0.25009 0.62093 0.03451
 H335 H 0.25014 0.62095 -0.03458
 H336 H 0.25008 0.67952 -0.06933
 H337 H 0.24979 0.82053 -0.06929
 H338 H 0.24967 0.87908 -0.03452
 H339 H 0.24966 0.87907 0.03458
 H340 H 0.24977 0.82049 0.06932
 C341 C 0.03975 0.25006 0.75001
 C342 C 0.01997 0.28442 0.75006
 C343 C -0.01983 0.28442 0.75005
 C344 C -0.03961 0.25006 0.74998
 C345 C -0.01983 0.21570 0.74993
 C346 C 0.01997 0.21570 0.74995
 C347 C 0.03912 0.18100 0.74991
 C348 C 0.01952 0.14727 0.74984
 C349 C -0.01939 0.14727 0.74981
 C350 C -0.03898 0.18100 0.74985
 C351 C -0.03898 0.31912 0.75011
 C352 C -0.01938 0.35285 0.75017
 C353 C 0.01953 0.35285 0.75017
 C354 C 0.03913 0.31912 0.75012
 C355 C -0.08027 0.25006 0.74996
 C356 C -0.11403 0.25007 0.74995
 C357 C 0.08041 0.25005 0.75003
 C358 C 0.11417 0.25007 0.75003
 H359 H 0.06938 0.17955 0.74993
 H360 H 0.03462 0.12099 0.74981
 H361 H -0.03448 0.12099 0.74976
 H362 H -0.06924 0.17955 0.74983
 H363 H -0.06924 0.32057 0.75010
 H364 H -0.03448 0.37913 0.75021
 H365 H 0.03462 0.37913 0.75022
 H366 H 0.06939 0.32056 0.75013
 C367 C 0.75004 0.46039 0.74998
 C368 C 0.71568 0.48017 0.74955
 C369 C 0.71568 0.51997 0.74955
 C370 C 0.75004 0.53976 0.74999
 C371 C 0.78439 0.51997 0.75043
 C372 C 0.78439 0.48017 0.75042
 C373 C 0.81909 0.46102 0.75087
 C374 C 0.85282 0.48061 0.75129
 C375 C 0.85282 0.51953 0.75130
 C376 C 0.81909 0.53913 0.75087
 C377 C 0.68099 0.53913 0.74911
 C378 C 0.64726 0.51953 0.74868
 C379 C 0.64726 0.48062 0.74868
 C380 C 0.68099 0.46102 0.74910
 C381 C 0.75004 0.58042 0.74998
 C382 C 0.75006 0.61417 0.74997
 C383 C 0.75004 0.41973 0.74998
 C384 C 0.75005 0.38598 0.74997
 H385 H 0.82054 0.43076 0.75089
 H386 H 0.87910 0.46552 0.75163
 H387 H 0.87910 0.53462 0.75163
 H388 H 0.82054 0.56939 0.75089
 H389 H 0.67954 0.56939 0.74909
 H390 H 0.62098 0.53463 0.74834
 H391 H 0.62098 0.46552 0.74834
 H392 H 0.67954 0.43076 0.74908
 C393 C 0.75007 0.24998 0.03968
 C394 C 0.75003 0.28435 0.01992
 C395 C 0.75005 0.28438 -0.01988
 C396 C 0.75011 0.25004 -0.03969
 C397 C 0.75017 0.21567 -0.01993
 C398 C 0.75016 0.21564 0.01986
 C399 C 0.75023 0.18092 0.03899
 C400 C 0.75030 0.14721 0.01936
 C401 C 0.75031 0.14724 -0.01954
 C402 C 0.75024 0.18098 -0.03911
 C403 C 0.75002 0.31909 -0.03900
 C404 C 0.74996 0.35281 -0.01938
 C405 C 0.74994 0.35278 0.01953
 C406 C 0.74997 0.31903 0.03910
 C407 C 0.75010 0.25007 -0.08035
 C408 C 0.75010 0.25008 -0.11410
 C409 C 0.75003 0.24994 0.08034
 C410 C 0.74999 0.24993 0.11409
 H411 H 0.75023 0.17945 0.06924
 H412 H 0.75036 0.12091 0.03444
 H413 H 0.75036 0.12097 -0.03466
 H414 H 0.75025 0.17956 -0.06937
 H415 H 0.75004 0.32057 -0.06926
 H416 H 0.74994 0.37910 -0.03445
 H417 H 0.74989 0.37905 0.03464
 H418 H 0.74995 0.32046 0.06936
 C419 C 0.46039 0.25006 0.74999
 C420 C 0.48017 0.21570 0.74996
 C421 C 0.51997 0.21570 0.74999
 C422 C 0.53975 0.25006 0.75002
 C423 C 0.51997 0.28442 0.75004
 C424 C 0.48017 0.28442 0.75003
 C425 C 0.46102 0.31912 0.75006
 C426 C 0.48062 0.35285 0.75010
 C427 C 0.51953 0.35285 0.75010
 C428 C 0.53913 0.31911 0.75008
 C429 C 0.53912 0.18100 0.74997
 C430 C 0.51952 0.14726 0.74992
 C431 C 0.48061 0.14727 0.74989
 C432 C 0.46101 0.18100 0.74991
 C433 C 0.58041 0.25005 0.75004
 C434 C 0.61417 0.25006 0.75004
 C435 C 0.41973 0.25006 0.74997
 C436 C 0.38597 0.25007 0.74997
 H437 H 0.43076 0.32057 0.75006
 H438 H 0.46552 0.37913 0.75012
 H439 H 0.53463 0.37913 0.75013
 H440 H 0.56939 0.32056 0.75008
 H441 H 0.56938 0.17955 0.74999
 H442 H 0.53462 0.12098 0.74991
 H443 H 0.46551 0.12099 0.74986
 H444 H 0.43075 0.17955 0.74989
 C445 C 0.25007 0.46039 0.75002
 C446 C 0.21572 0.48018 0.74958
 C447 C 0.21572 0.51998 0.74958
 C448 C 0.25008 0.53976 0.75002
 C449 C 0.28443 0.51997 0.75046
 C450 C 0.28443 0.48017 0.75046
 C451 C 0.31912 0.46101 0.75091
 C452 C 0.35286 0.48061 0.75133
 C453 C 0.35286 0.51952 0.75133
 C454 C 0.31913 0.53912 0.75091
 C455 C 0.18103 0.53914 0.74914
 C456 C 0.14729 0.51954 0.74871
 C457 C 0.14729 0.48063 0.74871
 C458 C 0.18102 0.46102 0.74914
 C459 C 0.25008 0.58042 0.75002
 C460 C 0.25009 0.61417 0.75001
 C461 C 0.25007 0.41973 0.75002
 C462 C 0.25007 0.38598 0.75002
 H463 H 0.32057 0.43075 0.75093
 H464 H 0.37913 0.46551 0.75167
 H465 H 0.37914 0.53462 0.75167
 H466 H 0.32058 0.56938 0.75093
 H467 H 0.17958 0.56940 0.74912
 H468 H 0.12102 0.53464 0.74838
 H469 H 0.12101 0.46553 0.74838
 H470 H 0.17957 0.43076 0.74912
 C471 C 0.24992 0.24997 0.03968
 C472 C 0.24986 0.28434 0.01991
 C473 C 0.24990 0.28435 -0.01989
 C474 C 0.24998 0.25000 -0.03969
 C475 C 0.25001 0.21564 -0.01991
 C476 C 0.24999 0.21562 0.01988
 C477 C 0.25004 0.18092 0.03902
 C478 C 0.25010 0.14719 0.01941
 C479 C 0.25011 0.14721 -0.01949
 C480 C 0.25007 0.18095 -0.03908
 C481 C 0.24985 0.31905 -0.03903
 C482 C 0.24976 0.35278 -0.01942
 C483 C 0.24973 0.35277 0.01948
 C484 C 0.24977 0.31903 0.03907
 C485 C 0.25001 0.25001 -0.08035
 C486 C 0.25004 0.25004 -0.11410
 C487 C 0.24991 0.24996 0.08034
 C488 C 0.24992 0.24994 0.11409
 H489 H 0.25003 0.17946 0.06928
 H490 H 0.25013 0.12091 0.03450
 H491 H 0.25016 0.12093 -0.03459
 H492 H 0.25008 0.17951 -0.06933
 H493 H 0.24988 0.32051 -0.06929
 H494 H 0.24973 0.37907 -0.03451
 H495 H 0.24966 0.37904 0.03459
 H496 H 0.24974 0.32047 0.06933
 C497 C 0.03961 0.74993 0.25002
 C498 C 0.01983 0.78429 0.25007
 C499 C -0.01998 0.78429 0.25005
 C500 C -0.03976 0.74993 0.24998
 C501 C -0.01997 0.71557 0.24994
 C502 C 0.01983 0.71557 0.24995
 C503 C 0.03899 0.68087 0.24990
 C504 C 0.01939 0.64714 0.24984
 C505 C -0.01952 0.64713 0.24984
 C506 C -0.03912 0.68087 0.24989
 C507 C -0.03913 0.81898 0.25009
 C508 C -0.01953 0.85272 0.25015
 C509 C 0.01938 0.85272 0.25018
 C510 C 0.03898 0.81899 0.25014
 C511 C -0.08042 0.74992 0.24997
 C512 C -0.11417 0.74994 0.24996
 C513 C 0.08027 0.74993 0.25004
 C514 C 0.11402 0.74994 0.25004
 H515 H 0.06925 0.67942 0.24990
 H516 H 0.03449 0.62086 0.24980
 H517 H -0.03462 0.62085 0.24979
 H518 H -0.06938 0.67942 0.24988
 H519 H -0.06939 0.82043 0.25007
 H520 H -0.03463 0.87900 0.25019
 H521 H 0.03447 0.87900 0.25024
 H522 H 0.06924 0.82044 0.25017
 C523 C 0.74989 0.03963 0.25005
 C524 C 0.78425 0.01985 0.25022
 C525 C 0.78425 -0.01995 0.25022
 C526 C 0.74989 -0.03974 0.25004
 C527 C 0.71553 -0.01995 0.24988
 C528 C 0.71553 0.01985 0.24988
 C529 C 0.68084 0.03900 0.24971
 C530 C 0.64710 0.01940 0.24954
 C531 C 0.64710 -0.01951 0.24954
 C532 C 0.68084 -0.03911 0.24971
 C533 C 0.81895 -0.03911 0.25040
 C534 C 0.85268 -0.01951 0.25057
 C535 C 0.85268 0.01940 0.25057
 C536 C 0.81895 0.03900 0.25040
 C537 C 0.74989 -0.08040 0.25003
 C538 C 0.74991 -0.11415 0.25001
 C539 C 0.74989 0.08029 0.25003
 C540 C 0.74991 0.11404 0.25001
 H541 H 0.67939 0.06926 0.24970
 H542 H 0.62082 0.03450 0.24941
 H543 H 0.62082 -0.03460 0.24941
 H544 H 0.67939 -0.06937 0.24970
 H545 H 0.82040 -0.06937 0.25040
 H546 H 0.87896 -0.03461 0.25071
 H547 H 0.87896 0.03450 0.25071
 H548 H 0.82040 0.06926 0.25041
 C549 C 0.75007 0.74999 0.46031
 C550 C 0.75015 0.78436 0.48007
 C551 C 0.75019 0.78439 0.51987
 C552 C 0.75014 0.75004 0.53968
 C553 C 0.75007 0.71567 0.51992
 C554 C 0.75004 0.71565 0.48012
 C555 C 0.74999 0.68094 0.46099
 C556 C 0.74996 0.64722 0.48061
 C557 C 0.74998 0.64724 0.51952
 C558 C 0.75003 0.68099 0.53909
 C559 C 0.75029 0.81910 0.53900
 C560 C 0.75034 0.85282 0.51938
 C561 C 0.75029 0.85279 0.48047
 C562 C 0.75020 0.81904 0.46090
 C563 C 0.75013 0.75007 0.58034
 C564 C 0.75013 0.75007 0.61409
 C565 C 0.75001 0.74996 0.41965
 C566 C 0.74997 0.74995 0.38590
 H567 H 0.74997 0.67947 0.43074
 H568 H 0.74992 0.62093 0.46554
 H569 H 0.74995 0.62097 0.53463
 H570 H 0.75005 0.67956 0.56935
 H571 H 0.75033 0.82057 0.56925
 H572 H 0.75041 0.87911 0.53445
 H573 H 0.75033 0.87906 0.46536
 H574 H 0.75017 0.82047 0.43064
 C575 C 0.46024 0.74993 0.24998
 C576 C 0.48003 0.71557 0.24997
 C577 C 0.51983 0.71557 0.24998
 C578 C 0.53961 0.74993 0.25002
 C579 C 0.51983 0.78429 0.25005
 C580 C 0.48003 0.78429 0.25002
 C581 C 0.46087 0.81898 0.25004
 C582 C 0.48047 0.85272 0.25008
 C583 C 0.51938 0.85272 0.25011
 C584 C 0.53898 0.81899 0.25009
 C585 C 0.53899 0.68087 0.24995
 C586 C 0.51939 0.64714 0.24991
 C587 C 0.48048 0.64713 0.24991
 C588 C 0.46088 0.68087 0.24993
 C589 C 0.58027 0.74993 0.25004
 C590 C 0.61403 0.74994 0.25004
 C591 C 0.41958 0.74992 0.24997
 C592 C 0.38583 0.74994 0.24996
 H593 H 0.43061 0.82043 0.25002
 H594 H 0.46537 0.87900 0.25010
 H595 H 0.53447 0.87900 0.25015
 H596 H 0.56924 0.82044 0.25012
 H597 H 0.56925 0.67942 0.24995
 H598 H 0.53449 0.62086 0.24989
 H599 H 0.46538 0.62085 0.24988
 H600 H 0.43062 0.67942 0.24993
 C601 C 0.24991 0.03963 0.24999
 C602 C 0.28427 0.01985 0.25016
 C603 C 0.28427 -0.01995 0.25016
 C604 C 0.24991 -0.03974 0.24999
 C605 C 0.21555 -0.01995 0.24981
 C606 C 0.21555 0.01985 0.24981
 C607 C 0.18085 0.03900 0.24964
 C608 C 0.14712 0.01940 0.24947
 C609 C 0.14712 -0.01951 0.24947
 C610 C 0.18085 -0.03911 0.24964
 C611 C 0.31897 -0.03911 0.25033
 C612 C 0.35270 -0.01951 0.25050
 C613 C 0.35270 0.01940 0.25050
 C614 C 0.31897 0.03900 0.25033
 C615 C 0.24991 -0.08040 0.24998
 C616 C 0.24992 -0.11415 0.24999
 C617 C 0.24991 0.08029 0.24998
 C618 C 0.24991 0.11404 0.24998
 H619 H 0.17940 0.06926 0.24963
 H620 H 0.12084 0.03450 0.24934
 H621 H 0.12084 -0.03461 0.24934
 H622 H 0.17940 -0.06937 0.24964
 H623 H 0.32042 -0.06937 0.25034
 H624 H 0.37898 -0.03461 0.25063
 H625 H 0.37898 0.03450 0.25063
 H626 H 0.32041 0.06926 0.25033
 C627 C 0.24993 0.74998 0.46031
 C628 C 0.25000 0.78434 0.48008
 C629 C 0.25004 0.78436 0.51988
 C630 C 0.25001 0.75002 0.53968
 C631 C 0.24992 0.71565 0.51991
 C632 C 0.24988 0.71563 0.48012
 C633 C 0.24980 0.68092 0.46098
 C634 C 0.24975 0.64720 0.48059
 C635 C 0.24978 0.64722 0.51950
 C636 C 0.24986 0.68096 0.53908
 C637 C 0.25012 0.81907 0.53901
 C638 C 0.25015 0.85279 0.51940
 C639 C 0.25010 0.85277 0.48050
 C640 C 0.25002 0.81903 0.46091
 C641 C 0.25005 0.75003 0.58034
 C642 C 0.25007 0.75005 0.61409
 C643 C 0.24990 0.74996 0.41965
 C644 C 0.24990 0.74995 0.38590
 H645 H 0.24978 0.67946 0.43073
 H646 H 0.24969 0.62091 0.46551
 H647 H 0.24974 0.62095 0.53461
 H648 H 0.24988 0.67953 0.56934
 H649 H 0.25017 0.82053 0.56927
 H650 H 0.25021 0.87908 0.53448
 H651 H 0.25012 0.87905 0.46539
 H652 H 0.24998 0.82047 0.43066
 C653 C 0.03961 0.24991 0.25002
 C654 C 0.01983 0.28427 0.25008
 C655 C -0.01997 0.28427 0.25006
 C656 C -0.03975 0.24991 0.24999
 C657 C -0.01997 0.21555 0.24994
 C658 C 0.01983 0.21555 0.24996
 C659 C 0.03899 0.18085 0.24992
 C660 C 0.01939 0.14712 0.24985
 C661 C -0.01952 0.14712 0.24982
 C662 C -0.03912 0.18085 0.24986
 C663 C -0.03913 0.31897 0.25012
 C664 C -0.01953 0.35270 0.25019
 C665 C 0.01938 0.35270 0.25019
 C666 C 0.03898 0.31897 0.25014
 C667 C -0.08041 0.24991 0.24998
 C668 C -0.11416 0.24993 0.24996
 C669 C 0.08027 0.24991 0.25003
 C670 C 0.11402 0.24993 0.25003
 H671 H 0.06925 0.17940 0.24994
 H672 H 0.03449 0.12084 0.24981
 H673 H -0.03462 0.12084 0.24976
 H674 H -0.06938 0.17940 0.24984
 H675 H -0.06939 0.32042 0.25012
 H676 H -0.03463 0.37898 0.25023
 H677 H 0.03448 0.37898 0.25024
 H678 H 0.06924 0.32042 0.25014
 C679 C 0.74990 0.46026 0.24997
 C680 C 0.71554 0.48005 0.24953
 C681 C 0.71554 0.51985 0.24952
 C682 C 0.74990 0.53963 0.24996
 C683 C 0.78425 0.51985 0.25040
 C684 C 0.78425 0.48005 0.25040
 C685 C 0.81895 0.46089 0.25084
 C686 C 0.85268 0.48050 0.25127
 C687 C 0.85268 0.51941 0.25127
 C688 C 0.81895 0.53901 0.25084
 C689 C 0.68085 0.53900 0.24908
 C690 C 0.64711 0.51940 0.24865
 C691 C 0.64711 0.48049 0.24865
 C692 C 0.68085 0.46089 0.24908
 C693 C 0.74989 0.58029 0.24996
 C694 C 0.74991 0.61404 0.24997
 C695 C 0.74990 0.41960 0.24996
 C696 C 0.74990 0.38585 0.24996
 H697 H 0.82040 0.43063 0.25086
 H698 H 0.87896 0.46540 0.25160
 H699 H 0.87896 0.53451 0.25160
 H700 H 0.82040 0.56927 0.25086
 H701 H 0.67940 0.56926 0.24906
 H702 H 0.62084 0.53450 0.24831
 H703 H 0.62084 0.46539 0.24831
 H704 H 0.67940 0.43063 0.24906
 C705 C 0.75006 0.24997 0.46031
 C706 C 0.75015 0.28433 0.48008
 C707 C 0.75017 0.28435 0.51987
 C708 C 0.75011 0.25001 0.53968
 C709 C 0.75005 0.21564 0.51991
 C710 C 0.75002 0.21562 0.48011
 C711 C 0.74995 0.18091 0.46098
 C712 C 0.74992 0.14719 0.48059
 C713 C 0.74996 0.14721 0.51950
 C714 C 0.75002 0.18095 0.53908
 C715 C 0.75024 0.31906 0.53901
 C716 C 0.75031 0.35278 0.51939
 C717 C 0.75030 0.35276 0.48049
 C718 C 0.75022 0.31902 0.46091
 C719 C 0.75010 0.25003 0.58034
 C720 C 0.75008 0.25004 0.61409
 C721 C 0.75002 0.24995 0.41965
 C722 C 0.74998 0.24995 0.38590
 H723 H 0.74992 0.17945 0.43072
 H724 H 0.74987 0.12090 0.46551
 H725 H 0.74993 0.12094 0.53460
 H726 H 0.75005 0.17952 0.56933
 H727 H 0.75026 0.32052 0.56926
 H728 H 0.75037 0.37907 0.53448
 H729 H 0.75035 0.37904 0.46538
 H730 H 0.75021 0.32046 0.43065
 C731 C 0.46025 0.24991 0.25000
 C732 C 0.48003 0.21555 0.24997
 C733 C 0.51983 0.21555 0.24999
 C734 C 0.53962 0.24991 0.25003
 C735 C 0.51983 0.28427 0.25005
 C736 C 0.48003 0.28427 0.25004
 C737 C 0.46087 0.31896 0.25007
 C738 C 0.48047 0.35270 0.25011
 C739 C 0.51938 0.35270 0.25011
 C740 C 0.53898 0.31897 0.25008
 C741 C 0.53899 0.18085 0.24997
 C742 C 0.51939 0.14712 0.24993
 C743 C 0.48048 0.14711 0.24991
 C744 C 0.46088 0.18085 0.24992
 C745 C 0.58028 0.24991 0.25003
 C746 C 0.61403 0.24993 0.25003
 C747 C 0.41959 0.24990 0.24998
 C748 C 0.38583 0.24992 0.24996
 H749 H 0.43061 0.32041 0.25007
 H750 H 0.46537 0.37898 0.25013
 H751 H 0.53448 0.37898 0.25014
 H752 H 0.56924 0.32042 0.25009
 H753 H 0.56925 0.17940 0.24999
 H754 H 0.53449 0.12084 0.24992
 H755 H 0.46538 0.12083 0.24987
 H756 H 0.43062 0.17940 0.24990
 C757 C 0.24991 0.46026 0.25003
 C758 C 0.21555 0.48005 0.24960
 C759 C 0.21555 0.51985 0.24960
 C760 C 0.24991 0.53963 0.25003
 C761 C 0.28426 0.51985 0.25047
 C762 C 0.28427 0.48005 0.25047
 C763 C 0.31896 0.46089 0.25092
 C764 C 0.35269 0.48049 0.25135
 C765 C 0.35269 0.51940 0.25135
 C766 C 0.31896 0.53900 0.25092
 C767 C 0.18086 0.53900 0.24916
 C768 C 0.14712 0.51940 0.24873
 C769 C 0.14713 0.48049 0.24873
 C770 C 0.18086 0.46089 0.24916
 C771 C 0.24990 0.58029 0.25002
 C772 C 0.24992 0.61404 0.25000
 C773 C 0.24991 0.41960 0.25002
 C774 C 0.24993 0.38585 0.25000
 H775 H 0.32041 0.43063 0.25094
 H776 H 0.37897 0.46540 0.25169
 H777 H 0.37897 0.53450 0.25169
 H778 H 0.32041 0.56926 0.25094
 H779 H 0.17941 0.56926 0.24913
 H780 H 0.12085 0.53450 0.24840
 H781 H 0.12085 0.46539 0.24840
 H782 H 0.17941 0.43063 0.24914
 C783 C 0.24991 0.24999 0.46031
 C784 C 0.24998 0.28435 0.48008
 C785 C 0.25001 0.28437 0.51988
 C786 C 0.24998 0.25002 0.53968
 C787 C 0.24989 0.21566 0.51991
 C788 C 0.24985 0.21564 0.48011
 C789 C 0.24976 0.18093 0.46098
 C790 C 0.24971 0.14721 0.48059
 C791 C 0.24976 0.14722 0.51950
 C792 C 0.24985 0.18097 0.53908
 C793 C 0.25007 0.31908 0.53902
 C794 C 0.25011 0.35280 0.51940
 C795 C 0.25008 0.35278 0.48050
 C796 C 0.25002 0.31904 0.46092
 C797 C 0.25002 0.25004 0.58034
 C798 C 0.25005 0.25006 0.61409
 C799 C 0.24989 0.24997 0.41965
 C800 C 0.24990 0.24995 0.38590
 H801 H 0.24972 0.17947 0.43072
 H802 H 0.24964 0.12092 0.46551
 H803 H 0.24973 0.12095 0.53460
 H804 H 0.24988 0.17953 0.56933
 H805 H 0.25009 0.32054 0.56927
 H806 H 0.25015 0.37909 0.53449
 H807 H 0.25011 0.37905 0.46539
 H808 H 0.25001 0.32047 0.43066
   
