data_POSCAR
  _audit_creation_date              2014-09-24
  _audit_creation_method            'ToBaCCo'
  _symmetry_space_group_name_H-M    'P1'
  _symmetry_Int_Tables_number       1
  _symmetry_cell_setting            triclinic
  loop_
  _symmetry_equiv_pos_as_xyz
 x,y,z
_cell_length_a 32.3765
_cell_length_b 33.8254
_cell_length_c 31.9287
_cell_angle_alpha 91.729000
_cell_angle_beta 92.399200
_cell_angle_gamma 87.964500
loop_
  _atom_site_label
  _atom_site_type_symbol
  _atom_site_fract_x
  _atom_site_fract_y
  _atom_site_fract_z
N1 N 0.21464 0.18877 0.20181
 N2 N -0.24477 0.77411 0.23420
 N3 N -0.19203 0.19648 -0.20716
 N4 N 0.16610 0.80471 -0.16505
 N5 N 0.20035 1.22601 0.80208
 N6 N 0.80974 0.78387 0.78323
 N7 N 0.21885 0.81246 1.18442
 N8 N 0.80417 1.20622 1.19018
 O9 O 0.54945 0.95654 0.89376
 O10 O 0.48561 0.96174 1.04254
 O11 O 0.56001 0.94884 1.02343
 O12 O 0.42422 0.98719 0.93429
 O13 O 0.55102 0.99335 1.06879
 O14 O 0.47155 0.95409 0.89864
 O15 O 0.42965 0.98050 1.01043
 O16 O 0.56407 0.93297 0.95360
 C17 C 0.56459 0.92923 0.91523
 C18 C 0.44835 0.95704 1.03471
 C19 C 0.56654 0.96037 1.06016
 C20 C 0.43502 0.95858 0.91003
 O21 O 0.46610 1.02998 0.88892
 O22 O 0.53200 1.05683 1.03061
 O23 O 0.59283 1.00658 0.93690
 O24 O 0.45646 1.05626 1.01881
 O25 O 0.47896 1.03055 1.07722
 O26 O 0.54428 1.03245 0.89468
 O27 O 0.45206 1.06231 0.94533
 O28 O 0.58769 1.02461 1.01134
 Co29 Co 0.50795 0.99373 0.90150
 Co30 Co 0.50738 1.00934 1.03386
 Co31 Co 0.57118 0.97995 0.98073
 Co32 Co 0.44640 1.01949 0.97681
 O33 O 0.50979 0.99897 0.97083
 C34 C 0.45081 1.06008 0.90664
 C35 C 0.57023 1.05596 1.02583
 C36 C 0.58091 1.03106 0.90908
 C37 C 0.45261 1.05413 1.05792
 O38 O 0.05440 0.46554 0.07326
 O39 O -0.00148 0.54889 -0.05735
 O40 O 0.04521 0.44875 -0.00389
 O41 O 0.01983 0.58406 0.07470
 O42 O 0.02091 0.47819 -0.05833
 O43 O 0.05850 0.53305 0.08196
 O44 O 0.02312 0.58478 -0.00374
 O45 O 0.01660 0.41817 0.05887
 C46 C 0.04860 0.42987 0.07681
 C47 C 0.02202 0.57555 -0.04216
 C48 C 0.04878 0.45723 -0.04104
 C49 C 0.05503 0.56945 0.08093
 O50 O -0.02036 0.53851 0.11359
 O51 O -0.05600 0.45798 -0.03617
 O52 O -0.05529 0.44600 0.04178
 O53 O -0.05618 0.58226 -0.00973
 O54 O -0.07746 0.52681 -0.03482
 O55 O -0.02639 0.46757 0.10076
 O56 O -0.05836 0.57234 0.06804
 O57 O -0.01792 0.40773 -0.01459
 Co58 Co 0.01456 0.50166 0.08740
 Co59 Co -0.02645 0.50342 -0.04034
 Co60 Co -0.00566 0.45011 0.01794
 Co61 Co -0.01687 0.57418 0.03171
 O62 O -0.00769 0.50974 0.02567
 C63 C -0.05220 0.55986 0.10434
 C64 C -0.04498 0.42182 -0.04161
 C65 C -0.05567 0.45009 0.08101
 C66 C -0.08287 0.56303 -0.02985
 O67 O 1.08132 0.03224 0.46889
 O68 O 0.91525 0.00237 0.52991
 O69 O 0.97705 0.04318 0.43172
 O70 O 1.02760 0.05532 0.56119
 O71 O 0.92250 0.02104 0.45654
 O72 O 1.08436 0.02464 0.54639
 O73 O 0.95725 0.04659 0.54410
 O74 O 1.04505 0.01313 0.41323
 C75 C 1.07285 0.03386 0.43040
 C76 C 0.92132 0.03630 0.54353
 C77 C 0.93957 0.04747 0.43759
 C78 C 1.06592 0.05387 0.56246
 O79 O 1.07868 -0.05090 0.53865
 O80 O 0.95094 -0.05351 0.43948
 O81 O 1.02266 -0.05738 0.42923
 O82 O 0.96539 -0.03171 0.57235
 O83 O 0.95236 -0.06650 0.51509
 O84 O 1.08244 -0.04525 0.45835
 O85 O 1.03815 -0.02119 0.58474
 O86 O 0.97073 -0.01973 0.38648
 Co87 Co 1.07448 -0.00960 0.50224
 Co88 Co 0.94169 -0.02220 0.48615
 Co89 Co 0.99906 -0.00698 0.43472
 Co90 Co 0.99711 0.01096 0.56034
 O91 O 1.00635 -0.00523 0.49811
 C92 C 1.06365 -0.04885 0.57438
 C93 C 0.94542 -0.04524 0.40092
 C94 C 1.06047 -0.06515 0.43294
 C95 C 0.95574 -0.06414 0.55421
 C96 C 1.18586 0.17242 0.22912
 C97 C 1.19902 0.14693 0.26084
 C98 C 1.17043 0.12630 0.28675
 C99 C 1.18568 0.11111 0.32490
 C100 C 1.16017 0.09026 0.34979
 C101 C 1.11873 0.08423 0.33691
 C102 C 1.10368 0.09861 0.29831
 C103 C 1.12923 0.11956 0.27340
 C104 C 1.09126 0.06172 0.36230
 C105 C 1.09714 0.05941 0.40557
 H106 H 1.23191 0.14237 0.26745
 H107 H 1.21755 0.11520 0.33540
 H108 H 1.17338 0.07818 0.37854
 H109 H 1.07210 0.09362 0.28743
 H110 H 1.11680 0.12950 0.24341
 H111 H 1.06541 0.04713 0.34661
 H112 H 1.15338 0.18080 0.22526
 H113 H 1.12082 0.07632 0.42205
 C114 C 0.78385 -0.20198 0.25834
 C115 C 0.79340 -0.16454 0.24491
 C116 C 0.82506 -0.13955 0.26587
 C117 C 0.82431 -0.09888 0.25791
 C118 C 0.85300 -0.07412 0.27822
 C119 C 0.88268 -0.08968 0.30695
 C120 C 0.88490 -0.13067 0.31314
 C121 C 0.85645 -0.15538 0.29280
 C122 C 0.90994 -0.06297 0.33171
 C123 C 0.91944 -0.07032 0.37365
 H124 H 0.77659 -0.15291 0.21765
 H125 H 0.80091 -0.08612 0.23662
 H126 H 0.85109 -0.04266 0.27265
 H127 H 0.90860 -0.14367 0.33391
 H128 H 0.85950 -0.18676 0.29817
 H129 H 0.91956 -0.03593 0.31822
 H130 H 0.79940 -0.21434 0.28580
 H131 H 0.90595 -0.09516 0.38805
 C132 C 0.82239 0.18997 0.75095
 C133 C 0.80909 0.15914 0.72416
 C134 C 0.83015 0.14736 0.68520
 C135 C 0.87111 0.15760 0.67875
 C136 C 0.89167 0.14251 0.64393
 C137 C 0.87222 0.11634 0.61520
 C138 C 0.83074 0.10727 0.62063
 C139 C 0.81005 0.12252 0.65547
 C140 C 0.89741 0.09718 0.58224
 C141 C 0.88875 0.06048 0.56350
 H142 H 0.78308 0.14214 0.73237
 H143 H 0.88828 0.17571 0.70132
 H144 H 0.92364 0.14987 0.64055
 H145 H 0.81430 0.08803 0.59857
 H146 H 0.77851 0.11422 0.65969
 H147 H 0.92727 0.10943 0.57729
 H148 H 0.84400 0.21034 0.73947
 H149 H 0.85962 0.04681 0.56784
 C150 C 1.14420 -0.17015 0.80546
 C151 C 1.12144 -0.18550 0.77112
 C152 C 1.10249 -0.15943 0.73901
 C153 C 1.10222 -0.17186 0.69674
 C154 C 1.08781 -0.14615 0.66552
 C155 C 1.07296 -0.10777 0.67633
 C156 C 1.07081 -0.09634 0.71875
 C157 C 1.08570 -0.12182 0.74988
 C158 C 1.05965 -0.07898 0.64435
 C159 C 1.07670 -0.07872 0.60499
 H160 H 1.12142 -0.21724 0.76547
 H161 H 1.11437 -0.20102 0.68782
 H162 H 1.08839 -0.15636 0.63310
 H163 H 1.05869 -0.06719 0.72778
 H164 H 1.08431 -0.11199 0.78239
 H165 H 1.03782 -0.05547 0.65322
 H166 H 1.14855 -0.13854 0.80807
 H167 H 1.10021 -0.10066 0.59634
 C168 C 0.25154 1.16618 1.19206
 C169 C 0.28729 1.18400 1.18054
 C170 C 0.32486 1.16039 1.17008
 C171 C 0.35052 1.17412 1.13983
 C172 C 0.38340 1.15028 1.12563
 C173 C 0.39122 1.11232 1.14169
 C174 C 0.36784 1.10003 1.17451
 C175 C 0.33480 1.12381 1.18860
 C176 C 0.42151 1.08432 1.12269
 C177 C 0.42622 1.08331 1.07961
 H178 H 0.28670 1.21567 1.17629
 H179 H 0.34404 1.20260 1.12589
 H180 H 0.40203 1.16118 1.10137
 H181 H 0.37391 1.07125 1.18790
 H182 H 0.31675 1.11318 1.21343
 H183 H 0.43654 1.06157 1.14169
 H184 H 0.25156 1.13435 1.19476
 H185 H 0.40834 1.10388 1.06015
 C186 C 0.20280 0.81909 0.85635
 C187 C 0.23068 0.84092 0.83520
 C188 C 0.26626 0.86090 0.85575
 C189 C 0.29826 0.87203 0.83081
 C190 C 0.33098 0.89365 0.84817
 C191 C 0.33220 0.90477 0.89098
 C192 C 0.30017 0.89371 0.91599
 C193 C 0.26753 0.87180 0.89864
 C194 C 0.36494 0.92990 0.90958
 C195 C 0.40418 0.93091 0.89337
 H196 H 0.22606 0.84346 0.80156
 H197 H 0.29761 0.86453 0.79756
 H198 H 0.35440 0.90273 0.82763
 H199 H 0.30020 0.90243 0.94893
 H200 H 0.24278 0.86474 0.91858
 H201 H 0.35813 0.94774 0.93738
 H202 H 0.20895 0.81229 0.88897
 H203 H 0.41299 0.91046 0.86832
 C204 C 0.71755 0.79303 1.21850
 C205 C 0.70348 0.78746 1.17697
 C206 C 0.67386 0.81522 1.15565
 C207 C 0.65300 0.80245 1.11865
 C208 C 0.62795 0.82889 1.09537
 C209 C 0.62342 0.86876 1.10844
 C210 C 0.64396 0.88156 1.14581
 C211 C 0.66897 0.85508 1.16913
 C212 C 0.59937 0.89613 1.08074
 C213 C 0.58770 0.93516 1.09151
 H214 H 0.71693 0.76351 1.15820
 H215 H 0.65667 0.77206 1.10731
 H216 H 0.61270 0.81829 1.06655
 H217 H 0.64226 0.91216 1.15650
 H218 H 0.68580 0.86654 1.19656
 H219 H 0.59063 0.88486 1.04959
 H220 H 0.70374 0.81650 1.23760
 H221 H 0.59349 0.94741 1.12276
 C222 C 0.78446 1.16727 0.81227
 C223 C 0.75361 1.17766 0.84011
 C224 C 0.72848 1.14781 0.85901
 C225 C 0.68736 1.15775 0.86801
 C226 C 0.66213 1.12962 0.88389
 C227 C 0.67780 1.09108 0.89155
 C228 C 0.71954 1.08173 0.88472
 C229 C 0.74467 1.10975 0.86828
 C230 C 0.65101 1.06049 0.90654
 C231 C 0.60965 1.05889 0.89296
 H232 H 0.74502 1.20861 0.84509
 H233 H 0.67445 1.18709 0.86185
 H234 H 0.63040 1.13811 0.89026
 H235 H 0.73241 1.05244 0.89116
 H236 H 0.77672 1.10163 0.86303
 H237 H 0.66442 1.03791 0.92683
 H238 H 0.78985 1.13637 0.80370
 H239 H 0.59734 1.07958 0.86998
 C240 C 0.20120 0.22146 0.17640
 C241 C 0.17556 0.25181 0.19217
 C242 C 0.15374 0.28124 0.16540
 C243 C 0.14181 0.31807 0.18315
 C244 C 0.11797 0.34527 0.15963
 C245 C 0.10510 0.33573 0.11807
 C246 C 0.11687 0.29885 0.10034
 C247 C 0.14130 0.27189 0.12365
 C248 C 0.07735 0.36269 0.09367
 C249 C 0.07861 0.40362 0.09870
 H250 H 0.17056 0.25346 0.22554
 H251 H 0.15046 0.32556 0.21549
 H252 H 0.10840 0.37308 0.17452
 H253 H 0.10680 0.29076 0.06854
 H254 H 0.14897 0.24324 0.10948
 H255 H 0.05608 0.34999 0.07029
 H256 H 0.21086 0.22215 0.14436
 H257 H 0.10251 0.41690 0.11864
 C258 C -0.17606 0.22885 -0.18184
 C259 C -0.13423 0.23754 -0.18190
 C260 C -0.11512 0.26881 -0.15516
 C261 C -0.07250 0.26563 -0.14560
 C262 C -0.05309 0.29441 -0.12039
 C263 C -0.07573 0.32739 -0.10492
 C264 C -0.11842 0.33094 -0.11482
 C265 C -0.13795 0.30191 -0.13981
 C266 C -0.05403 0.35631 -0.07722
 C267 C -0.06783 0.39544 -0.07078
 H268 H -0.11384 0.21856 -0.20031
 H269 H -0.05422 0.24052 -0.15726
 H270 H -0.02020 0.29095 -0.11305
 H271 H -0.13697 0.35561 -0.10275
 H272 H -0.17071 0.30571 -0.14733
 H273 H -0.02494 0.34660 -0.06217
 H274 H -0.19567 0.24390 -0.15941
 H275 H -0.09485 0.40725 -0.08783
 C276 C 0.14665 0.77000 -0.15157
 C277 C 0.16850 0.73991 -0.13036
 C278 C 0.14756 0.70607 -0.11366
 C279 C 0.16318 0.68953 -0.07630
 C280 C 0.14182 0.66011 -0.05752
 C281 C 0.10490 0.64615 -0.07619
 C282 C 0.09032 0.66133 -0.11476
 C283 C 0.11158 0.69094 -0.13340
 C284 C 0.08082 0.61874 -0.05260
 C285 C 0.04824 0.59670 -0.06977
 H286 H 0.20120 0.74276 -0.12283
 H287 H 0.19104 0.70051 -0.06073
 H288 H 0.15364 0.64891 -0.02775
 H289 H 0.06178 0.65167 -0.12991
 H290 H 0.09945 0.70223 -0.16296
 H291 H 0.08855 0.61664 -0.01934
 H292 H 0.11373 0.76752 -0.15795
 H293 H 0.04193 0.59472 -0.10329
 C294 C -0.23415 0.73367 0.22221
 C295 C -0.19408 0.71742 0.22825
 C296 C -0.17847 0.68127 0.20598
 C297 C -0.14056 0.66384 0.21989
 C298 C -0.12111 0.63391 0.19599
 C299 C -0.13926 0.62087 0.15746
 C300 C -0.17808 0.63700 0.14454
 C301 C -0.19756 0.66688 0.16845
 C302 C -0.11660 0.59491 0.12746
 C303 C -0.07987 0.57375 0.13743
 H304 H -0.17171 0.73336 0.24767
 H305 H -0.12504 0.67463 0.24848
 H306 H -0.09090 0.62290 0.20679
 H307 H -0.19254 0.62776 0.11479
 H308 H -0.22622 0.68004 0.15600
 H309 H -0.12757 0.59518 0.09491
 H310 H -0.25735 0.71627 0.20566
 H311 H -0.06977 0.56944 0.16973
 C312 C 1.17253 0.21405 0.77080
 C313 C 1.18387 0.19089 0.73556
 C314 C 1.15389 0.17415 0.70389
 C315 C 1.16771 0.16329 0.66396
 C316 C 1.14176 0.14414 0.63433
 C317 C 1.10140 0.13460 0.64426
 C318 C 1.08700 0.14679 0.68367
 C319 C 1.11296 0.16620 0.71330
 C320 C 1.07447 0.11062 0.61518
 C321 C 1.09057 0.08405 0.58517
 H322 H 1.21637 0.18597 0.72970
 H323 H 1.19898 0.16927 0.65576
 H324 H 1.15368 0.13668 0.60386
 H325 H 1.05605 0.13999 0.69215
 H326 H 1.10136 0.17344 0.74397
 H327 H 1.04168 0.11040 0.62075
 H328 H 1.14034 0.22358 0.77222
 H329 H 1.12364 0.08157 0.58163
 C330 C 0.84092 -0.20253 0.75672
 C331 C 0.83059 -0.18050 0.72126
 C332 C 0.86148 -0.16260 0.69533
 C333 C 0.89968 -0.14988 0.71247
 C334 C 0.92615 -0.12914 0.68806
 C335 C 0.91533 -0.12138 0.64599
 C336 C 0.87757 -0.13496 0.62869
 C337 C 0.85087 -0.15506 0.65322
 C338 C 0.94134 -0.09554 0.62216
 C339 C 0.94195 -0.09722 0.57846
 H340 H 0.79824 -0.17681 0.71156
 H341 H 0.90836 -0.15436 0.74513
 H342 H 0.95477 -0.11844 0.70227
 H343 H 0.86759 -0.12848 0.59678
 H344 H 0.82140 -0.16408 0.63947
 H345 H 0.95845 -0.07295 0.63944
 H346 H 0.87305 -0.21073 0.76378
 H347 H 0.92813 -0.12179 0.56121
 C348 C 1.21142 -0.16702 0.22151
 C349 C 1.18928 -0.18270 0.25395
 C350 C 1.17345 -0.15966 0.29064
 C351 C 1.14098 -0.17515 0.31226
 C352 C 1.12380 -0.15430 0.34618
 C353 C 1.13898 -0.11743 0.35955
 C354 C 1.17238 -0.10250 0.33893
 C355 C 1.18935 -0.12321 0.30469
 C356 C 1.12078 -0.09378 0.39454
 C357 C 1.07940 -0.09565 0.40519
 H358 H 1.18128 -0.21351 0.25182
 H359 H 1.12840 -0.20338 0.30248
 H360 H 1.09891 -0.16730 0.36198
 H361 H 1.18498 -0.07435 0.34894
 H362 H 1.21501 -0.11064 0.28978
 H363 H 1.13931 -0.07074 0.40925
 H364 H 1.22232 -0.13732 0.22601
 H365 H 1.05908 -0.11576 0.38817
 C366 C 0.82863 0.19618 0.22491
 C367 C 0.81797 0.16819 0.25398
 C368 C 0.84616 0.15408 0.28887
 C369 C 0.82924 0.13515 0.32241
 C370 C 0.85474 0.11851 0.35423
 C371 C 0.89810 0.12027 0.35323
 C372 C 0.91497 0.13980 0.32001
 C373 C 0.88944 0.15647 0.28819
 C374 C 0.92674 0.09897 0.38337
 C375 C 0.91425 0.07996 0.41883
 H376 H 0.78700 0.15704 0.25237
 H377 H 0.79606 0.13249 0.32358
 H378 H 0.84008 0.10319 0.37847
 H379 H 0.94821 0.14119 0.31797
 H380 H 0.90395 0.16976 0.26243
 H381 H 0.95871 0.09478 0.37489
 H382 H 0.85737 0.21098 0.23126
 H383 H 0.88298 0.08410 0.42908
 C384 C 0.18930 0.25576 -0.16974
 C385 C 0.15882 0.28533 -0.17814
 C386 C 0.14660 0.31632 -0.14662
 C387 C 0.12846 0.35214 -0.16047
 C388 C 0.11475 0.38132 -0.13177
 C389 C 0.11873 0.37522 -0.08829
 C390 C 0.13715 0.33945 -0.07450
 C391 C 0.15086 0.31030 -0.10320
 C392 C 0.10022 0.40303 -0.05672
 C393 C 0.08253 0.44019 -0.06596
 H394 H 0.14543 0.28780 -0.20963
 H395 H 0.12439 0.35739 -0.19371
 H396 H 0.09987 0.40780 -0.14416
 H397 H 0.13995 0.33355 -0.04131
 H398 H 0.16340 0.28265 -0.09115
 H399 H 0.09588 0.39168 -0.02586
 H400 H 0.20574 0.25790 -0.13963
 H401 H 0.08705 0.45317 -0.09586
 C402 C -0.18727 0.23909 0.16807
 C403 C -0.16581 0.27158 0.18502
 C404 C -0.15409 0.30487 0.15919
 C405 C -0.14764 0.34210 0.17848
 C406 C -0.13445 0.37351 0.15539
 C407 C -0.12676 0.36808 0.11246
 C408 C -0.13414 0.33107 0.09305
 C409 C -0.14735 0.29975 0.11609
 C410 C -0.10871 0.39894 0.08736
 C411 C -0.08633 0.43029 0.10502
 H412 H -0.15939 0.27409 0.21852
 H413 H -0.15268 0.34685 0.21161
 H414 H -0.13015 0.40172 0.17147
 H415 H -0.12828 0.32592 0.06013
 H416 H -0.15081 0.27128 0.10023
 H417 H -0.10753 0.39336 0.05381
 H418 H -0.19851 0.24114 0.13579
 H419 H -0.08526 0.43581 0.13855
 C420 C -0.18029 0.74900 -0.19296
 C421 C -0.19158 0.74595 -0.15140
 C422 C -0.17814 0.71256 -0.12444
 C423 C -0.17653 0.71896 -0.08080
 C424 C -0.16119 0.68932 -0.05426
 C425 C -0.14785 0.65231 -0.07065
 C426 C -0.15135 0.64509 -0.11426
 C427 C -0.16640 0.67495 -0.14092
 C428 C -0.12569 0.62436 -0.04204
 C429 C -0.11770 0.58427 -0.05142
 H430 H -0.20788 0.77087 -0.13677
 H431 H -0.18578 0.74749 -0.06724
 H432 H -0.15866 0.69571 -0.02081
 H433 H -0.14083 0.61713 -0.12809
 H434 H -0.16833 0.66855 -0.17433
 H435 H -0.11187 0.63690 -0.01333
 H436 H -0.15953 0.72666 -0.20627
 H437 H -0.13410 0.56951 -0.07730
 C438 C 0.19341 0.78239 0.17137
 C439 C 0.20384 0.75279 0.14152
 C440 C 0.17388 0.72283 0.12690
 C441 C 0.18769 0.68404 0.11671
 C442 C 0.15935 0.65518 0.10405
 C443 C 0.11676 0.66500 0.10084
 C444 C 0.10333 0.70417 0.10951
 C445 C 0.13147 0.73274 0.12248
 C446 C 0.08509 0.63603 0.08812
 C447 C 0.09039 0.59494 0.09036
 H448 H 0.23524 0.74950 0.13121
 H449 H 0.22034 0.67593 0.11922
 H450 H 0.17095 0.62556 0.09650
 H451 H 0.07078 0.71268 0.10665
 H452 H 0.11996 0.76270 0.12867
 H453 H 0.05471 0.64807 0.07887
 H454 H 0.16372 0.78015 0.18535
 H455 H 0.11983 0.58139 0.10017
 C456 C 0.23692 1.20459 0.80889
 C457 C 0.27088 1.21907 0.83287
 C458 C 0.30732 1.19437 0.84709
 C459 C 0.33046 1.20728 0.88275
 C460 C 0.36337 1.18402 0.89926
 C461 C 0.37451 1.14757 0.88009
 C462 C 0.35234 1.13512 0.84344
 C463 C 0.31913 1.15832 0.82705
 C464 C 0.40662 1.12206 0.90134
 C465 C 0.42736 1.09005 0.88192
 H466 H 0.27021 1.24967 0.84380
 H467 H 0.32225 1.23499 0.89872
 H468 H 0.37975 1.19425 0.92760
 H469 H 0.35949 1.10691 0.82811
 H470 H 0.30288 1.14771 0.79890
 H471 H 0.41297 1.12785 0.93453
 H472 H 0.23983 1.17487 0.79570
 H473 H 0.42398 1.08505 0.84835
 C474 C 0.24709 0.82540 1.15727
 C475 C 0.27924 0.85080 1.16885
 C476 C 0.30667 0.86690 1.13779
 C477 C 0.34688 0.87747 1.15061
 C478 C 0.37275 0.89453 1.12261
 C479 C 0.35871 0.90180 1.08112
 C480 C 0.31844 0.89135 1.06836
 C481 C 0.29273 0.87396 1.09624
 C482 C 0.38350 0.92364 1.05192
 C483 C 0.42645 0.92645 1.05604
 H484 H 0.28627 0.85744 1.20169
 H485 H 0.35818 0.87288 1.18258
 H486 H 0.40305 0.90331 1.13411
 H487 H 0.30657 0.89729 1.03686
 H488 H 0.26150 0.86740 1.08552
 H489 H 0.36691 0.93973 1.02725
 H490 H 0.24553 0.81499 1.12485
 H491 H 0.44407 0.90851 1.07840
 C492 C 0.77514 1.18059 1.17373
 C493 C 0.74304 1.19197 1.14502
 C494 C 0.71573 1.16374 1.12185
 C495 C 0.67772 1.17779 1.10418
 C496 C 0.65201 1.15251 1.08034
 C497 C 0.66401 1.11256 1.07344
 C498 C 0.70233 1.09873 1.09053
 C499 C 0.72790 1.12392 1.11452
 C500 C 0.63795 1.08435 1.04868
 C501 C 0.59514 1.08925 1.04174
 H502 H 0.73659 1.22314 1.14001
 H503 H 0.66795 1.20853 1.10867
 H504 H 0.62326 1.16462 1.06689
 H505 H 0.71255 1.06819 1.08537
 H506 H 0.75753 1.11225 1.12633
 H507 H 0.65262 1.05644 1.03902
 H508 H 0.77616 1.15019 1.18343
 H509 H 0.57893 1.11570 1.05304
 C510 C 0.77300 0.80838 0.78973
 C511 C 0.73565 0.79291 0.80088
 C512 C 0.69932 0.81832 0.81212
 C513 C 0.67216 0.80493 0.84131
 C514 C 0.63925 0.82932 0.85493
 C515 C 0.63271 0.86755 0.83922
 C516 C 0.65845 0.88000 0.80824
 C517 C 0.69152 0.85576 0.79489
 C518 C 0.60052 0.89566 0.85525
 C519 C 0.58710 0.89513 0.89623
 H520 H 0.73411 0.76133 0.80492
 H521 H 0.67709 0.77592 0.85449
 H522 H 0.61921 0.81818 0.87780
 H523 H 0.65367 0.90906 0.79514
 H524 H 0.71086 0.86649 0.77115
 H525 H 0.59141 0.92079 0.83627
 H526 H 0.77481 0.83993 0.78582
 H527 H 0.59821 0.87193 0.91686
   
