data_POSCAR
  _audit_creation_date              2014-09-24
  _audit_creation_method            'ToBaCCo'
  _symmetry_space_group_name_H-M    'P1'
  _symmetry_Int_Tables_number       1
  _symmetry_cell_setting            triclinic
  loop_
  _symmetry_equiv_pos_as_xyz
 x,y,z
_cell_length_a 27.3771
_cell_length_b 27.4183
_cell_length_c 15.7426
_cell_angle_alpha 89.920100
_cell_angle_beta 90.082000
_cell_angle_gamma 90.032100
loop_
  _atom_site_label
  _atom_site_type_symbol
  _atom_site_fract_x
  _atom_site_fract_y
  _atom_site_fract_z
C1 C -0.04512 0.27147 0.04363
 C2 C -0.04508 0.27140 -0.04619
 C3 C -0.00060 0.27169 -0.09040
 C4 C 0.04391 0.27141 -0.04632
 C5 C 0.04383 0.27160 0.04330
 C6 C -0.00055 0.27194 0.08755
 H7 H -0.00030 0.27142 0.15650
 H8 H -0.00065 0.27098 -0.15938
 C9 C 0.45565 0.77400 0.54447
 C10 C 0.45545 0.77398 0.45497
 C11 C 0.49981 0.77433 0.41088
 C12 C 0.54424 0.77388 0.45516
 C13 C 0.54444 0.77365 0.54466
 C14 C 0.50008 0.77413 0.58875
 H15 H 0.50011 0.77334 0.65766
 H16 H 0.49978 0.77370 0.34197
 C17 C 1.04445 0.72733 0.04490
 C18 C 1.04431 0.72706 -0.04473
 C19 C 0.99991 0.72664 -0.08910
 C20 C 0.95545 0.72720 -0.04518
 C21 C 0.95559 0.72740 0.04444
 C22 C 0.99999 0.72711 0.08882
 H23 H 0.99983 0.72796 0.15776
 H24 H 1.00007 0.72715 -0.15806
 C25 C 0.54449 0.22739 0.54579
 C26 C 0.54459 0.22737 0.45628
 C27 C 0.50015 0.22679 0.41212
 C28 C 0.45574 0.22696 0.45630
 C29 C 0.45562 0.22715 0.54582
 C30 C 0.50007 0.22699 0.58999
 H31 H 0.50011 0.22773 0.65889
 H32 H 0.50012 0.22738 0.34321
 C33 C 0.72740 -0.04505 0.04668
 C34 C 0.72749 -0.04500 -0.04296
 C35 C 0.72713 -0.00065 -0.08724
 C36 C 0.72741 0.04367 -0.04322
 C37 C 0.72731 0.04366 0.04625
 C38 C 0.72694 -0.00065 0.09066
 H39 H 0.72756 -0.00046 0.15961
 H40 H 0.72791 -0.00064 -0.15615
 C41 C 0.22673 0.45549 0.54471
 C42 C 0.22683 0.45537 0.45519
 C43 C 0.22656 0.49970 0.41083
 C44 C 0.22694 0.54410 0.45480
 C45 C 0.22705 0.54422 0.54433
 C46 C 0.22657 0.49989 0.58869
 H47 H 0.22723 0.49994 0.65760
 H48 H 0.22722 0.49965 0.34192
 C49 C 0.27132 1.04576 0.04496
 C50 C 0.27126 1.04586 -0.04488
 C51 C 0.27164 1.00147 -0.08907
 C52 C 0.27134 0.95706 -0.04500
 C53 C 0.27130 0.95696 0.04448
 C54 C 0.27165 1.00122 0.08885
 H55 H 0.27102 1.00090 0.15780
 H56 H 0.27100 1.00140 -0.15802
 C57 C 0.77436 0.54432 0.54424
 C58 C 0.77406 0.54454 0.45474
 C59 C 0.77452 0.50029 0.41043
 C60 C 0.77448 0.45587 0.45449
 C61 C 0.77460 0.45566 0.54400
 C62 C 0.77494 0.49991 0.58830
 H63 H 0.77438 0.49979 0.65721
 H64 H 0.77365 0.50041 0.34152
 O65 O 0.22184 0.28820 0.35774
 O66 O 0.23904 0.17150 0.24566
 O67 O 0.28881 0.22107 0.35782
 O68 O 0.17212 0.23863 0.24579
 O69 O 0.21066 0.27712 0.14207
 O70 O 0.32734 0.25957 0.25410
 O71 O 0.27756 0.21003 0.14197
 O72 O 0.26035 0.32669 0.25402
 Cu73 Cu 0.22658 0.22594 0.31220
 Cu74 Cu 0.27290 0.27224 0.18764
 C75 C 0.23840 0.32712 0.32493
 C76 C 0.26088 0.17111 0.17463
 C77 C 0.32773 0.23765 0.32507
 C78 C 0.17174 0.26058 0.17484
 O79 O 0.76072 0.82862 0.24599
 O80 O 0.77802 0.71176 0.35776
 O81 O 0.82756 0.76139 0.24597
 O82 O 0.71105 0.77886 0.35767
 O83 O 0.67237 0.74060 0.25382
 O84 O 0.78886 0.72312 0.14215
 O85 O 0.73935 0.67348 0.25395
 O86 O 0.72206 0.79035 0.14216
 Cu87 Cu 0.77324 0.77404 0.31232
 Cu88 Cu 0.72672 0.72802 0.18757
 C89 C 0.73872 0.82918 0.17502
 C90 C 0.76145 0.67291 0.32483
 C91 C 0.82783 0.73949 0.17509
 C92 C 0.67209 0.76244 0.32474
 O93 O 0.82889 0.23919 0.24490
 O94 O 0.71209 0.22244 0.35806
 O95 O 0.76146 0.17236 0.24654
 O96 O 0.77961 0.28917 0.35701
 O97 O 0.74093 0.32747 0.25312
 O98 O 0.72279 0.21064 0.14259
 O99 O 0.67343 0.26070 0.25413
 O100 O 0.79019 0.27747 0.14103
 Cu101 Cu 0.77443 0.22695 0.31206
 Cu102 Cu 0.72795 0.27295 0.18730
 C103 C 0.82922 0.26088 0.17362
 C104 C 0.67305 0.23894 0.32532
 C105 C 0.73929 0.17181 0.17577
 C106 C 0.76304 0.32799 0.32396
 O107 O 0.17088 0.76061 0.24477
 O108 O 0.28787 0.77824 0.35709
 O109 O 0.23789 0.82791 0.24534
 O110 O 0.22093 0.71095 0.35671
 O111 O 0.25950 0.67287 0.25283
 O112 O 0.27647 0.78984 0.14144
 O113 O 0.32645 0.74019 0.25320
 O114 O 0.20948 0.72256 0.14090
 Cu115 Cu 0.22548 0.77325 0.31139
 Cu116 Cu 0.27185 0.72751 0.18667
 C117 C 0.17046 0.73887 0.17366
 C118 C 0.32689 0.76198 0.32425
 C119 C 0.25985 0.82859 0.17445
 C120 C 0.23764 0.67221 0.32380
 O121 O 0.67347 0.26057 0.74679
 O122 O 0.79049 0.27746 0.85801
 O123 O 0.74097 0.32724 0.74591
 O124 O 0.72314 0.21070 0.85845
 O125 O 0.76123 0.17202 0.75467
 O126 O 0.77906 0.28855 0.64215
 O127 O 0.82861 0.23878 0.75425
 O128 O 0.71156 0.22190 0.64299
 Cu129 Cu 0.72817 0.27292 0.81272
 Cu130 Cu 0.77397 0.22640 0.68806
 C131 C 0.67279 0.23861 0.67597
 C132 C 0.82925 0.26071 0.82512
 C133 C 0.76279 0.32754 0.67487
 C134 C 0.73941 0.17171 0.82570
 O135 O 0.32749 0.74058 0.74583
 O136 O 0.21100 0.72246 0.85726
 O137 O 0.26074 0.67315 0.74544
 O138 O 0.27747 0.79007 0.85718
 O139 O 0.23877 0.82824 0.75317
 O140 O 0.22202 0.71135 0.64147
 O141 O 0.17224 0.76065 0.75327
 O142 O 0.28878 0.77875 0.64178
 Cu143 Cu 0.27311 0.72771 0.81188
 Cu144 Cu 0.22655 0.77362 0.68694
 C145 C 0.32777 0.76246 0.67484
 C146 C 0.17200 0.73874 0.82426
 C147 C 0.23874 0.67254 0.67445
 C148 C 0.26067 0.82886 0.82423
 O149 O 0.25907 0.32701 0.74718
 O150 O 0.27648 0.21030 0.85911
 O151 O 0.32633 0.26008 0.74730
 O152 O 0.20905 0.27708 0.85867
 O153 O 0.17077 0.23869 0.75459
 O154 O 0.28805 0.22168 0.64325
 O155 O 0.23820 0.17186 0.75505
 O156 O 0.22081 0.28861 0.64308
 Cu157 Cu 0.27158 0.27249 0.81349
 Cu158 Cu 0.22559 0.22634 0.68857
 C159 C 0.23731 0.32748 0.67601
 C160 C 0.26004 0.17141 0.82617
 C161 C 0.32697 0.23826 0.67626
 C162 C 0.17013 0.26049 0.82564
 O163 O 0.71196 0.77781 0.64266
 O164 O 0.82895 0.76045 0.75504
 O165 O 0.77926 0.71093 0.64274
 O166 O 0.76155 0.82721 0.75502
 O167 O 0.72310 0.78841 0.85849
 O168 O 0.74082 0.67215 0.74624
 O169 O 0.79050 0.72168 0.85852
 O170 O 0.67350 0.73904 0.74612
 Cu171 Cu 0.77433 0.77300 0.68846
 Cu172 Cu 0.72811 0.72638 0.81272
 C173 C 0.67300 0.76118 0.67529
 C174 C 0.82945 0.73840 0.82596
 C175 C 0.76278 0.67195 0.67536
 C176 C 0.73954 0.82740 0.82586
 C177 C 0.26888 0.08824 0.09038
 C178 C 0.26581 0.12595 0.12942
 C179 C 0.77154 0.58918 0.59172
 C180 C 0.76812 0.62689 0.63040
 C181 C 0.73013 0.91233 0.09160
 C182 C 0.73349 0.87447 0.13023
 C183 C 0.22919 0.41052 0.59229
 C184 C 0.23229 0.37270 0.63102
 C185 C 0.91225 0.26894 0.08903
 C186 C 0.87446 0.26580 0.12815
 C187 C 0.41072 0.77127 0.59173
 C188 C 0.37291 0.76787 0.63019
 C189 C 0.08719 0.73014 0.08985
 C190 C 0.12511 0.73356 0.12861
 C191 C 0.58952 0.23016 0.59311
 C192 C 0.62744 0.23347 0.63149
 C193 C 0.73039 0.08869 0.90932
 C194 C 0.73394 0.12651 0.87067
 C195 C 0.22954 0.58908 0.40724
 C196 C 0.23268 0.62692 0.36859
 C197 C 0.26875 0.91203 0.90756
 C198 C 0.26561 0.87416 0.86902
 C199 C 0.77174 0.41098 0.40706
 C200 C 0.76837 0.37320 0.36852
 C201 C 0.08668 0.26878 0.90887
 C202 C 0.12466 0.26554 0.87034
 C203 C 0.58916 0.77110 0.40789
 C204 C 0.62695 0.76773 0.36942
 C205 C 0.91272 0.72988 0.90982
 C206 C 0.87480 0.73321 0.87104
 C207 C 0.41073 0.22941 0.40883
 C208 C 0.37291 0.23255 0.37009
 C209 C 0.73049 0.91014 0.90944
 C210 C 0.73406 0.87245 0.87075
 C211 C 0.22967 0.41027 0.40807
 C212 C 0.23310 0.37239 0.36967
 C213 C 0.26859 0.08843 0.90995
 C214 C 0.26526 0.12621 0.87112
 C215 C 0.77077 0.58965 0.40763
 C216 C 0.76701 0.62757 0.36934
 C217 C 0.08918 0.72982 0.90768
 C218 C 0.12690 0.73328 0.86901
 C219 C 0.58978 0.23030 0.40895
 C220 C 0.62772 0.23373 0.37037
 C221 C 0.91235 0.26887 0.90863
 C222 C 0.87453 0.26571 0.86987
 C223 C 0.41024 0.77100 0.40764
 C224 C 0.37227 0.76744 0.36911
 C225 C 0.26847 0.91186 0.09164
 C226 C 0.26508 0.87394 0.12995
 C227 C 0.77174 0.41056 0.59124
 C228 C 0.76824 0.37272 0.62985
 C229 C 0.73020 0.08866 0.09333
 C230 C 0.73375 0.12654 0.13152
 C231 C 0.23003 0.58932 0.59147
 C232 C 0.23350 0.62722 0.62984
 C233 C 0.91071 0.73044 0.09194
 C234 C 0.87296 0.73403 0.13047
 C235 C 0.41040 0.22988 0.59311
 C236 C 0.37242 0.23316 0.63156
 C237 C 0.08878 0.26901 0.09106
 C238 C 0.12656 0.26577 0.12987
 C239 C 0.58964 0.77042 0.59198
 C240 C 0.62760 0.76671 0.63048
   
