data_POSCAR
  _audit_creation_date              2014-09-24
  _audit_creation_method            'ToBaCCo'
  _symmetry_space_group_name_H-M    'P1'
  _symmetry_Int_Tables_number       1
  _symmetry_cell_setting            triclinic
  loop_
  _symmetry_equiv_pos_as_xyz
 x,y,z
_cell_length_a 20.1526
_cell_length_b 20.1129
_cell_length_c 24.3176
_cell_angle_alpha 90.711400
_cell_angle_beta 91.325700
_cell_angle_gamma 87.096200
loop_
  _atom_site_label
  _atom_site_type_symbol
  _atom_site_fract_x
  _atom_site_fract_y
  _atom_site_fract_z
C1 C 0.03346 0.54278 1.03195
 C2 C 0.04047 0.55614 0.97509
 C3 C 0.04361 0.50317 0.93772
 C4 C 0.04445 0.43771 0.95501
 C5 C 0.03793 0.42093 1.01167
 C6 C 0.02992 0.47596 1.04898
 H7 H 0.02673 0.46675 1.09266
 H8 H 0.04765 0.51288 0.89412
 C9 C 0.42550 0.00641 0.52984
 C10 C 0.42371 0.00783 0.47180
 C11 C 0.48327 0.00221 0.44312
 C12 C 0.54525 -0.00440 0.47100
 C13 C 0.54668 -0.00420 0.52949
 C14 C 0.48690 0.00045 0.55791
 H15 H 0.48814 -0.00161 0.60247
 H16 H 0.48127 0.00418 0.39855
 C17 C 0.11280 0.00283 0.26554
 H18 H 0.11270 0.00027 0.22107
 C19 C 0.17250 0.00803 0.29493
 H20 H 0.21864 0.00955 0.27310
 C21 C 0.05265 0.00337 0.34831
 H22 H 0.00577 0.00160 0.36878
 C23 C 0.11147 0.00878 0.37940
 H24 H 0.10992 0.01072 0.42388
 N25 N 0.05461 -0.00029 0.29243
 C26 C -0.05917 -0.11328 0.17179
 H27 H -0.10076 -0.07966 0.16066
 C28 C -0.05142 -0.17550 0.14541
 H29 H -0.08621 -0.18903 0.11306
 C30 C 0.03651 -0.13765 0.22774
 H31 H 0.07011 -0.12380 0.26061
 C32 C 0.04549 -0.20033 0.20311
 H33 H 0.08665 -0.23345 0.21642
 Zn34 Zn -0.02195 -0.00966 0.24697
 N35 N -0.01409 -0.09462 0.21089
 C36 C -0.03292 0.05709 0.14211
 N37 N -0.02408 0.06333 0.19758
 C38 C -0.01073 0.12308 0.22118
 C39 C -0.00213 0.17863 0.18871
 C40 C -0.02658 0.11205 0.10816
 C41 C -0.10837 -0.05743 0.32407
 C42 C -0.16636 -0.05892 0.35428
 C43 C -0.20497 0.04490 0.31257
 C44 C -0.14633 0.04434 0.28300
 N45 N -0.09956 -0.00640 0.28921
 H46 H -0.04294 0.00937 0.12386
 H47 H -0.00397 0.12684 0.26535
 H48 H 0.01161 0.22495 0.20798
 H49 H -0.03215 0.10627 0.06397
 H50 H -0.07054 -0.09733 0.32788
 H51 H -0.17329 -0.09996 0.38164
 H52 H -0.24224 0.08513 0.30709
 H53 H -0.13859 0.08404 0.25468
 C54 C 0.00247 -0.21902 0.16029
 C55 C 0.17210 0.01100 0.35244
 C56 C -0.21555 -0.00761 0.34809
 C57 C -0.00798 0.17284 0.13140
 C58 C 0.06054 0.08027 0.82127
 H59 H 0.10126 0.04434 0.81403
 C60 C 0.07212 0.13900 0.85001
 H61 H 0.12226 0.14868 0.86373
 C62 C -0.05325 0.11335 0.80799
 H63 H -0.10159 0.10391 0.79043
 C64 C -0.04416 0.17222 0.83756
 H65 H -0.08597 0.20753 0.84280
 N66 N -0.00100 0.06913 0.80012
 C67 C 0.11553 -0.06040 0.71473
 H68 H 0.11016 -0.10092 0.74273
 C69 C 0.17384 -0.05755 0.68518
 H70 H 0.21272 -0.09636 0.69003
 C71 C 0.07379 0.04168 0.67642
 H72 H 0.03511 0.08094 0.67437
 C73 C 0.13101 0.04614 0.64573
 H74 H 0.13605 0.08843 0.61927
 Zn75 Zn -0.00706 -0.00834 0.75648
 N76 N 0.06713 -0.01096 0.71011
 C77 C -0.08659 -0.01083 0.65875
 N78 N -0.08748 -0.00855 0.71471
 C79 C -0.14550 -0.01009 0.74208
 C80 C -0.20592 -0.01238 0.71300
 C81 C -0.14583 -0.01335 0.62810
 C82 C 0.00647 -0.07628 0.85753
 C83 C 0.01382 -0.13258 0.89047
 C84 C -0.00181 -0.20113 0.80916
 C85 C -0.00888 -0.14363 0.77783
 N86 N -0.00298 -0.08299 0.80217
 H87 H -0.04000 -0.01148 0.63770
 H88 H -0.14470 -0.00987 0.78658
 H89 H -0.25192 -0.01327 0.73509
 H90 H -0.14472 -0.01479 0.58358
 H91 H 0.00975 -0.02746 0.87609
 H92 H 0.02345 -0.12721 0.93427
 H93 H -0.00451 -0.24948 0.78934
 H94 H -0.01722 -0.14719 0.73380
 C95 C 0.18242 -0.00311 0.65112
 C96 C 0.01952 0.18620 0.85798
 C97 C 0.01122 -0.19564 0.86584
 C98 C -0.20618 -0.01445 0.65540
 C99 C 0.08533 -0.35855 0.07326
 C100 C 0.03444 -0.40510 0.07170
 C101 C -0.02150 -0.39273 0.10433
 C102 C -0.03092 -0.33234 0.13284
 C103 C 0.01554 -0.28290 0.13018
 C104 C 0.07457 -0.29597 0.10037
 C105 C 0.14718 -0.37348 0.04860
 C106 C 0.19470 -0.32573 0.04609
 C107 C 0.18201 -0.26267 0.06874
 C108 C 0.12275 -0.24774 0.09580
 H109 H 0.15894 -0.42220 0.03097
 H110 H 0.24131 -0.33755 0.02606
 H111 H 0.21859 -0.22534 0.06589
 H112 H 0.11518 -0.19806 0.11273
 H113 H -0.06062 -0.42776 0.10448
 H114 H -0.07569 -0.32341 0.15619
 C115 C 0.08216 0.29100 0.02099
 C116 C 0.03738 0.35220 0.03246
 C117 C -0.01470 0.34511 0.06998
 C118 C -0.02753 0.28852 0.09954
 C119 C 0.00973 0.22894 0.09633
 C120 C 0.06370 0.22316 0.06155
 C121 C 0.18670 0.25404 -0.04004
 C122 C 0.21328 0.17436 -0.02680
 C123 C 0.17604 0.12777 0.01947
 C124 C 0.10974 0.14905 0.05911
 H125 H 0.21378 0.28060 -0.07069
 H126 H 0.25541 0.15283 -0.04867
 H127 H 0.19748 0.07784 0.02489
 H128 H 0.09730 0.11022 0.08665
 H129 H -0.05041 0.38644 0.07665
 H130 H -0.06964 0.29171 0.12659
 C131 C 0.34668 0.05922 0.60021
 C132 C 0.36363 0.00759 0.56198
 C133 C 0.32184 -0.04553 0.55477
 C134 C 0.26354 -0.04791 0.58395
 C135 C 0.24541 0.00240 0.62177
 C136 C 0.28756 0.05611 0.63094
 C137 C 0.38691 0.11416 0.60834
 C138 C 0.37044 0.16369 0.64695
 C139 C 0.31405 0.15942 0.67837
 C140 C 0.27300 0.10617 0.67076
 H141 H 0.43120 0.11964 0.58489
 H142 H 0.40187 0.20540 0.65279
 H143 H 0.30201 0.19759 0.70882
 H144 H 0.23030 0.10451 0.69671
 H145 H 0.33464 -0.08573 0.52627
 H146 H 0.23206 -0.08942 0.57685
 C147 C -0.34817 -0.07018 0.56089
 C148 C -0.39051 -0.01171 0.56254
 C149 C -0.37313 0.04190 0.59627
 C150 C -0.31367 0.03953 0.62650
 C151 C -0.26960 -0.01638 0.62377
 C152 C -0.28676 -0.07223 0.59123
 C153 C -0.36611 -0.12710 0.53064
 C154 C -0.32357 -0.18389 0.52875
 C155 C -0.26318 -0.18562 0.55778
 C156 C -0.24499 -0.13068 0.58917
 H157 H -0.41329 -0.12848 0.50869
 H158 H -0.33781 -0.22700 0.50503
 H159 H -0.23061 -0.23006 0.55650
 H160 H -0.19839 -0.13479 0.61214
 H161 H -0.40545 0.08655 0.59834
 H162 H -0.30127 0.08230 0.65151
 C163 C 0.09063 -0.36003 0.91682
 C164 C 0.04072 -0.37896 0.95340
 C165 C -0.01268 -0.33359 0.96475
 C166 C -0.02010 -0.27315 0.93757
 C167 C 0.02558 -0.25614 0.89839
 C168 C 0.08280 -0.29814 0.88922
 C169 C 0.14973 -0.39986 0.90902
 C170 C 0.19841 -0.38014 0.87377
 C171 C 0.19001 -0.32012 0.84613
 C172 C 0.13309 -0.27916 0.85389
 H173 H 0.15969 -0.44588 0.93091
 H174 H 0.24322 -0.41129 0.86832
 H175 H 0.22820 -0.30478 0.81912
 H176 H 0.12956 -0.23205 0.83278
 H177 H -0.05144 -0.34674 0.99214
 H178 H -0.06352 -0.24068 0.94532
 C179 C 0.10531 0.33906 0.93446
 C180 C 0.06085 0.38671 0.91452
 C181 C 0.01548 0.37392 0.87183
 C182 C 0.00604 0.30943 0.85254
 C183 C 0.03312 0.25310 0.88025
 C184 C 0.07640 0.26243 0.92546
 C185 C 0.16037 0.36633 0.98458
 C186 C 0.19286 0.32367 1.03859
 C187 C 0.17625 0.24322 1.04769
 C188 C 0.09715 0.20140 0.97093
 H189 H 0.17257 0.41812 0.98348
 H190 H 0.22513 0.34801 1.06779
 H191 H 0.19952 0.21844 1.08350
 H192 H 0.07575 0.15304 0.96409
 H193 H -0.01673 0.41415 0.85568
 H194 H -0.02734 0.30356 0.81747
 C195 C -0.38522 -0.05725 0.39732
 C196 C -0.39591 -0.00900 0.44016
 C197 C -0.34703 0.03711 0.45116
 C198 C -0.28945 0.03693 0.42072
 C199 C -0.27841 -0.00930 0.37815
 C200 C -0.32650 -0.05656 0.36570
 C201 C -0.42956 -0.10859 0.38704
 C202 C -0.41865 -0.15486 0.34466
 C203 C -0.36317 -0.15175 0.31204
 C204 C -0.31729 -0.10335 0.32240
 H205 H -0.47240 -0.11449 0.41212
 H206 H -0.45338 -0.19347 0.33718
 H207 H -0.35520 -0.18755 0.27895
 H208 H -0.27458 -0.10311 0.29628
 H209 H -0.35433 0.07529 0.48256
 H210 H -0.25305 0.07341 0.43043
 C211 C 0.31650 0.07114 0.44209
 C212 C 0.35985 0.01342 0.44012
 C213 C 0.34145 -0.04184 0.40887
 C214 C 0.28040 -0.04149 0.38100
 C215 C 0.23562 0.01394 0.38384
 C216 C 0.25342 0.07110 0.41435
 C217 C 0.33508 0.12940 0.47009
 C218 C 0.29163 0.18548 0.47248
 C219 C 0.22961 0.18514 0.44609
 C220 C 0.21070 0.12884 0.41681
 H221 H 0.38349 0.13230 0.48979
 H222 H 0.30640 0.22963 0.49451
 H223 H 0.19629 0.22901 0.44775
 H224 H 0.16270 0.13124 0.39589
 H225 H 0.37431 -0.08611 0.40683
 H226 H 0.26756 -0.08523 0.35739
   
