data_POSCAR
  _audit_creation_date              2014-09-24
  _audit_creation_method            'ToBaCCo'
  _symmetry_space_group_name_H-M    'P1'
  _symmetry_Int_Tables_number       1
  _symmetry_cell_setting            triclinic
  loop_
  _symmetry_equiv_pos_as_xyz
 x,y,z
_cell_length_a 26.5117
_cell_length_b 26.4891
_cell_length_c 44.8047
_cell_angle_alpha 90.109000
_cell_angle_beta 90.772600
_cell_angle_gamma 89.941700
loop_
  _atom_site_label
  _atom_site_type_symbol
  _atom_site_fract_x
  _atom_site_fract_y
  _atom_site_fract_z
C1 C -0.02279 0.34373 0.98556
 C2 C -0.02315 0.34382 1.01617
 C3 C -0.01161 0.39267 1.02522
 N4 N -0.00390 0.42217 1.00113
 C5 C -0.01103 0.39247 0.97686
 C6 C -0.00500 0.40831 1.05521
 C7 C 0.00217 0.45919 1.06402
 C8 C 0.01723 0.47467 1.09239
 C9 C 0.01680 0.52658 1.09237
 C10 C 0.00157 0.54157 1.06396
 N11 N -0.00760 0.50024 1.04694
 C12 C -0.00619 0.59226 1.05504
 C13 C -0.01186 0.60758 1.02496
 C14 C -0.02288 0.65639 1.01569
 C15 C -0.02145 0.65613 0.98511
 C16 C -0.00971 0.60719 0.97663
 N17 N -0.00351 0.57773 1.00102
 C18 C -0.00167 0.59140 0.94696
 C19 C 0.00562 0.54058 0.93840
 C20 C 0.02177 0.52507 0.91051
 C21 C 0.02112 0.47314 0.91052
 C22 C 0.00465 0.45832 0.93842
 N23 N -0.00508 0.49965 0.95516
 C24 C -0.00365 0.40779 0.94708
 H25 H -0.02974 0.31130 0.97136
 H26 H -0.03046 0.31146 1.03017
 H27 H -0.02339 0.49995 0.97548
 H28 H 0.02703 0.45100 1.11127
 H29 H 0.02626 0.55057 1.11120
 H30 H -0.03047 0.68897 1.02955
 H31 H -0.02780 0.68842 0.97077
 H32 H 0.03126 0.44906 0.89200
 H33 H -0.02502 0.50007 1.02606
 H34 H 0.03247 0.54869 0.89196
 C35 C 0.34631 -0.01851 0.51525
 C36 C 0.34517 -0.01783 0.48463
 C37 C 0.39368 -0.00644 0.47562
 N38 N 0.42420 0.00025 0.49970
 C39 C 0.39547 -0.00745 0.52395
 C40 C 0.40811 0.00082 0.44572
 C41 C 0.45848 0.00800 0.43669
 C42 C 0.47258 0.02353 0.40846
 C43 C 0.52445 0.02306 0.40811
 C44 C 0.54074 0.00728 0.43617
 N45 N 0.50023 -0.00217 0.45333
 C46 C 0.59176 -0.00067 0.44463
 C47 C 0.60838 -0.00712 0.47452
 C48 C 0.65754 -0.01839 0.48327
 C49 C 0.65859 -0.01791 0.51388
 C50 C 0.61007 -0.00647 0.52289
 N51 N 0.57960 0.00047 0.49880
 C52 C 0.59558 0.00055 0.55282
 C53 C 0.54519 0.00751 0.56187
 C54 C 0.53093 0.02259 0.59021
 C55 C 0.47905 0.02194 0.59051
 C56 C 0.46299 0.00656 0.56234
 N57 N 0.50355 -0.00255 0.54513
 C58 C 0.41210 -0.00131 0.55381
 H59 H 0.31443 -0.02569 0.52946
 H60 H 0.31224 -0.02444 0.47062
 H61 H 0.50294 -0.02009 0.52441
 H62 H 0.44806 0.03372 0.38992
 H63 H 0.54755 0.03285 0.38925
 H64 H 0.68948 -0.02556 0.46907
 H65 H 0.69147 -0.02471 0.52789
 H66 H 0.45583 0.03139 0.60941
 H67 H 0.50095 -0.02001 0.47393
 H68 H 0.55536 0.03257 0.60885
 C69 C 0.09785 0.00553 0.26234
 H70 H 0.10075 0.00590 0.23828
 C71 C 0.14151 0.00694 0.28017
 H72 H 0.17821 0.00823 0.26986
 C73 C 0.04657 0.00368 0.30530
 H74 H 0.00959 0.00313 0.31507
 C75 C 0.08920 0.00510 0.32391
 H76 H 0.08487 0.00506 0.34792
 N77 N 0.05160 0.00309 0.27510
 C78 C -0.04686 -0.06801 0.20842
 H79 H -0.07758 -0.04110 0.20782
 C80 C -0.04866 -0.11082 0.19020
 H81 H -0.08077 -0.11690 0.17542
 C82 C 0.03271 -0.09297 0.22827
 H83 H 0.06412 -0.08620 0.24332
 C84 C 0.03239 -0.13628 0.21042
 H85 H 0.06382 -0.16241 0.21155
 Zn86 Zn -0.00608 0.00060 0.24967
 N87 N -0.00615 -0.05940 0.22655
 C88 C -0.00388 0.05250 0.19426
 N89 N -0.00416 0.05797 0.22448
 C90 C -0.00169 0.10446 0.23743
 C91 C -0.00049 0.14789 0.21979
 C92 C -0.00269 0.09489 0.17583
 C93 C -0.07381 -0.04002 0.29042
 C94 C -0.11621 -0.04177 0.30854
 C95 C -0.14227 0.03909 0.28873
 C96 C -0.09935 0.03936 0.27097
 N97 N -0.06566 0.00058 0.27256
 H98 H -0.00445 0.01534 0.18434
 H99 H -0.00105 0.10772 0.26151
 H100 H 0.00088 0.18478 0.23025
 H101 H -0.00292 0.09020 0.15180
 H102 H -0.04680 -0.07066 0.29091
 H103 H -0.12189 -0.07378 0.32313
 H104 H -0.16848 0.07046 0.28774
 H105 H -0.09295 0.07069 0.25613
 C106 C -0.00846 -0.14502 0.19104
 C107 C 0.13708 0.00641 0.31124
 C108 C -0.15050 -0.00164 0.30787
 C109 C -0.00129 0.14300 0.18870
 C110 C 0.00350 0.10252 0.76269
 H111 H 0.00328 0.10591 0.73863
 C112 C 0.00173 0.14584 0.78051
 H113 H 0.00033 0.18279 0.77020
 C114 C 0.00505 0.05031 0.80565
 H115 H 0.00552 0.01311 0.81542
 C116 C 0.00328 0.09259 0.82425
 H117 H 0.00298 0.08775 0.84825
 N118 N 0.00588 0.05596 0.77546
 C119 C 0.07628 -0.04200 0.70948
 H120 H 0.04936 -0.07266 0.70889
 C121 C 0.11871 -0.04368 0.69137
 H122 H 0.12450 -0.07566 0.67670
 C123 C 0.10151 0.03742 0.72911
 H124 H 0.09495 0.06876 0.74400
 C125 C 0.14446 0.03722 0.71137
 H126 H 0.17054 0.06865 0.71243
 Zn127 Zn 0.00814 -0.00133 0.75009
 N128 N 0.06795 -0.00139 0.72741
 C129 C -0.04390 0.00194 0.69428
 N130 N -0.04926 0.00135 0.72445
 C131 C -0.09564 0.00396 0.73704
 C132 C -0.13911 0.00553 0.71906
 C133 C -0.08634 0.00352 0.67551
 C134 C 0.04835 -0.07007 0.79137
 C135 C 0.04965 -0.11267 0.80969
 C136 C -0.03126 -0.13776 0.78910
 C137 C -0.03108 -0.09467 0.77117
 N138 N 0.00791 -0.06134 0.77306
 H139 H -0.00682 0.00127 0.68464
 H140 H -0.09880 0.00433 0.76109
 H141 H -0.17592 0.00695 0.72923
 H142 H -0.08175 0.00348 0.65152
 H143 H 0.07916 -0.04334 0.79210
 H144 H 0.08148 -0.11877 0.82467
 H145 H -0.06284 -0.16363 0.78789
 H146 H -0.06227 -0.08783 0.75598
 C147 C 0.15284 -0.00348 0.69213
 C148 C 0.00187 0.14076 0.81158
 C149 C 0.00923 -0.14653 0.80874
 C150 C -0.13435 0.00500 0.68801
 C151 C -0.00658 -0.37103 0.07669
 C152 C -0.00700 -0.33813 0.09532
 C153 C -0.00753 -0.29879 0.11660
 C154 C -0.00795 -0.26454 0.13434
 C155 C -0.00833 -0.22366 0.15459
 C156 C -0.00851 -0.18814 0.17145
 C157 C -0.00397 0.37173 0.07684
 C158 C -0.00310 0.33877 0.09538
 C159 C -0.00219 0.29918 0.11641
 C160 C -0.00157 0.26456 0.13383
 C161 C -0.00111 0.22311 0.15358
 C162 C -0.00100 0.18698 0.16989
 C163 C 0.37436 -0.00145 0.57693
 C164 C 0.34228 -0.00171 0.59574
 C165 C 0.30387 -0.00214 0.61724
 C166 C 0.27036 -0.00255 0.63515
 C167 C 0.23029 -0.00300 0.65556
 C168 C 0.19537 -0.00330 0.67251
 C169 C -0.36490 0.00204 0.57550
 C170 C -0.33135 0.00317 0.59391
 C171 C -0.29125 0.00427 0.61494
 C172 C -0.25632 0.00498 0.63243
 C173 C -0.21464 0.00544 0.65235
 C174 C -0.17838 0.00548 0.66888
 C175 C 0.00065 -0.37007 0.92408
 C176 C 0.00251 -0.33745 0.90540
 C177 C 0.00454 -0.29853 0.88399
 C178 C 0.00608 -0.26468 0.86610
 C179 C 0.00758 -0.22431 0.84562
 C180 C 0.00855 -0.18920 0.82856
 C181 C -0.00282 0.36898 0.92422
 C182 C -0.00222 0.33597 0.90568
 C183 C -0.00156 0.29642 0.88454
 C184 C -0.00097 0.26190 0.86699
 C185 C -0.00018 0.22060 0.84706
 C186 C 0.00064 0.18460 0.83057
 C187 C -0.37253 -0.00060 0.42275
 C188 C -0.34043 -0.00069 0.40394
 C189 C -0.30195 -0.00093 0.38248
 C190 C -0.26834 -0.00117 0.36464
 C191 C -0.22814 -0.00145 0.34431
 C192 C -0.19311 -0.00161 0.32743
 C193 C 0.36854 0.00249 0.42308
 C194 C 0.33490 0.00377 0.40472
 C195 C 0.29466 0.00505 0.38379
 C196 C 0.25960 0.00589 0.36640
 C197 C 0.21773 0.00653 0.34661
 C198 C 0.18132 0.00671 0.33021
   
