data_POSCAR
  _audit_creation_date              2014-09-24
  _audit_creation_method            'ToBaCCo'
  _symmetry_space_group_name_H-M    'P1'
  _symmetry_Int_Tables_number       1
  _symmetry_cell_setting            triclinic
  loop_
  _symmetry_equiv_pos_as_xyz
 x,y,z
_cell_length_a 47.2665
_cell_length_b 47.7965
_cell_length_c 47.2382
_cell_angle_alpha 90.108500
_cell_angle_beta 89.897200
_cell_angle_gamma 90.188600
loop_
  _atom_site_label
  _atom_site_type_symbol
  _atom_site_fract_x
  _atom_site_fract_y
  _atom_site_fract_z
N1 N 0.18218 0.17879 0.18948
 N2 N 0.67983 0.67756 0.68728
 N3 N 0.31440 0.80976 0.68393
 N4 N 0.81385 0.30772 0.18387
 N5 N 0.77308 0.73044 0.26965
 N6 N 0.31746 0.18466 -0.18230
 N7 N 0.69294 0.31251 -0.18170
 N8 N 0.19382 0.81392 0.31565
 N9 N 0.48659 0.48145 0.48518
 N10 N -0.06178 -0.07172 0.93377
 N11 N 1.06880 0.56267 0.93637
 N12 N 0.57085 0.06573 0.43853
 N13 N -0.06942 0.05923 0.57112
 N14 N 0.43278 0.55975 0.07242
 N15 N 0.51993 -0.02435 0.01577
 N16 N 1.02005 0.47632 0.51511
 C17 C 0.42230 0.01543 0.21145
 H18 H 0.42416 0.03414 0.22425
 C19 C 0.43885 0.01241 0.18717
 H20 H 0.45367 0.02882 0.18157
 C21 C 0.40081 -0.02875 0.20353
 H22 H 0.38599 -0.04475 0.21001
 C23 C 0.41697 -0.03264 0.17904
 H24 H 0.41400 -0.05148 0.16663
 N25 N 0.40332 -0.00472 0.21880
 C26 C 0.33587 0.03897 0.26330
 H27 H 0.33576 0.02804 0.28334
 C28 C 0.31533 0.05917 0.25771
 H29 H 0.29939 0.06360 0.27357
 C30 C 0.35582 0.04516 0.21768
 H31 H 0.37118 0.03926 0.20185
 C32 C 0.33572 0.06548 0.21122
 H33 H 0.33632 0.07541 0.19065
 Zn34 Zn 0.38057 0.00241 0.25099
 N35 N 0.35554 0.03233 0.24336
 C36 C 0.40327 0.03634 0.29502
 N37 N 0.40512 0.01138 0.28128
 C38 C 0.42574 -0.00733 0.28768
 C39 C 0.44551 -0.00132 0.30877
 C40 C 0.42262 0.04321 0.31626
 C41 C 0.33731 -0.03615 0.24106
 C42 C 0.31832 -0.05774 0.24718
 C43 C 0.34184 -0.06428 0.29204
 C44 C 0.36040 -0.04255 0.28506
 N45 N 0.35782 -0.02900 0.25990
 H46 H 0.38706 0.05114 0.28929
 H47 H 0.42702 -0.02681 0.27605
 H48 H 0.46209 -0.01627 0.31314
 H49 H 0.42072 0.06312 0.32706
 H50 H 0.33537 -0.02463 0.22147
 H51 H 0.30172 -0.06260 0.23218
 H52 H 0.34422 -0.07483 0.31216
 H53 H 0.37646 -0.03621 0.30000
 C54 C 0.31489 0.07249 0.23122
 C55 C 0.43599 -0.01168 0.17035
 C56 C 0.32028 -0.07197 0.27308
 C57 C 0.44421 0.02432 0.32328
 C58 C 0.08553 -0.01196 0.71120
 H59 H 0.08546 -0.03206 0.72171
 C60 C 0.06537 -0.00618 0.69050
 H61 H 0.04974 -0.02197 0.68529
 C62 C 0.10506 0.03354 0.70665
 H63 H 0.12018 0.04916 0.71343
 C64 C 0.08525 0.04022 0.68583
 H65 H 0.08572 0.06083 0.67637
 N66 N 0.10480 0.00781 0.71889
 C67 C 0.17293 -0.03814 0.75971
 H68 H 0.17337 -0.02754 0.77996
 C69 C 0.19252 -0.05914 0.75382
 H70 H 0.20775 -0.06488 0.76986
 C71 C 0.15246 -0.04332 0.71424
 H72 H 0.13719 -0.03669 0.69867
 C73 C 0.17168 -0.06446 0.70744
 H74 H 0.17099 -0.07387 0.68659
 Zn75 Zn 0.12888 -0.00092 0.74952
 N76 N 0.15335 -0.03076 0.74008
 C77 C 0.10671 -0.03658 0.79240
 N78 N 0.10513 -0.01090 0.78016
 C79 C 0.08500 0.00782 0.78806
 C80 C 0.06539 0.00104 0.80911
 C81 C 0.08752 -0.04424 0.81354
 C82 C 0.17156 0.03847 0.73980
 C83 C 0.19074 0.05977 0.74638
 C84 C 0.16936 0.06338 0.79273
 C85 C 0.15059 0.04200 0.78526
 N86 N 0.15202 0.03002 0.75916
 H87 H 0.12245 -0.05141 0.78544
 H88 H 0.08388 0.02788 0.77757
 H89 H 0.04912 0.01599 0.81459
 H90 H 0.08913 -0.06476 0.82306
 H91 H 0.17258 0.02820 0.71940
 H92 H 0.20659 0.06568 0.73091
 H93 H 0.16788 0.07267 0.81360
 H94 H 0.13529 0.03464 0.80056
 C95 C 0.19215 -0.07253 0.72733
 C96 C 0.06485 0.02032 0.67772
 C97 C 0.18997 0.07236 0.77326
 C98 C 0.06635 -0.02540 0.82199
 C99 C 0.58307 0.48673 0.21705
 H100 H 0.58077 0.46879 0.23080
 C101 C 0.56271 0.49213 0.19638
 H102 H 0.54465 0.47827 0.19448
 C103 C 0.60875 0.52738 0.20394
 H104 H 0.62667 0.54114 0.20707
 C105 C 0.58894 0.53353 0.18300
 H106 H 0.59200 0.55192 0.16999
 N107 N 0.60531 0.50449 0.22065
 C108 C 0.67505 0.46096 0.26188
 H109 H 0.67747 0.47327 0.28096
 C110 C 0.69405 0.43942 0.25605
 H111 H 0.71065 0.43491 0.27111
 C112 C 0.65082 0.45241 0.21884
 H113 H 0.63426 0.45788 0.20415
 C114 C 0.66939 0.43067 0.21216
 H115 H 0.66696 0.41972 0.19223
 Zn116 Zn 0.63045 0.49835 0.25108
 N117 N 0.65401 0.46713 0.24331
 C118 C 0.61466 0.47199 0.30329
 N119 N 0.60837 0.49234 0.28421
 C120 C 0.58567 0.50935 0.28808
 C121 C 0.56904 0.50713 0.31239
 C122 C 0.59857 0.46905 0.32798
 C123 C 0.68102 0.53043 0.24785
 C124 C 0.69784 0.55436 0.25068
 C125 C 0.65753 0.57876 0.27002
 C126 C 0.64149 0.55440 0.26680
 N127 N 0.65338 0.53079 0.25601
 H128 H 0.63231 0.45820 0.29969
 H129 H 0.58040 0.52471 0.27218
 H130 H 0.55111 0.52095 0.31500
 H131 H 0.60445 0.45331 0.34331
 H132 H 0.69000 0.51173 0.23870
 H133 H 0.71982 0.55358 0.24423
 H134 H 0.64748 0.59742 0.27820
 H135 H 0.61943 0.55455 0.27264
 C136 C 0.69156 0.42412 0.23075
 C137 C 0.56529 0.51605 0.17929
 C138 C 0.68611 0.57897 0.26188
 C139 C 0.57564 0.48704 0.33296
 C140 C 0.91988 0.51475 0.70990
 H141 H 0.92136 0.53341 0.72281
 C142 C 0.93673 0.51205 0.68579
 H143 H 0.95140 0.52867 0.68043
 C144 C 0.89907 0.47032 0.70157
 H145 H 0.88443 0.45408 0.70784
 C146 C 0.91554 0.46675 0.67724
 H147 H 0.91298 0.44791 0.66473
 N148 N 0.90109 0.49432 0.71697
 C149 C 0.83318 0.53721 0.76163
 H150 H 0.83311 0.52610 0.78156
 C151 C 0.81249 0.55729 0.75618
 H152 H 0.79649 0.56146 0.77206
 C153 C 0.85316 0.54395 0.71610
 H154 H 0.86858 0.53828 0.70024
 C155 C 0.83291 0.56417 0.70979
 H156 H 0.83345 0.57428 0.68931
 Zn157 Zn 0.87802 0.50097 0.74905
 N158 N 0.85292 0.53089 0.74166
 C159 C 0.90048 0.53446 0.79353
 N160 N 0.90229 0.50958 0.77965
 C161 C 0.92274 0.49071 0.78609
 C162 C 0.94244 0.49650 0.80731
 C163 C 0.91975 0.54112 0.81491
 C164 C 0.83521 0.46228 0.73803
 C165 C 0.81598 0.44081 0.74375
 C166 C 0.83828 0.43434 0.78924
 C167 C 0.85713 0.45595 0.78263
 N168 N 0.85523 0.46944 0.75737
 H169 H 0.88439 0.54939 0.78778
 H170 H 0.92399 0.47129 0.77435
 H171 H 0.95893 0.48145 0.81166
 H172 H 0.91791 0.56099 0.82579
 H173 H 0.83389 0.47366 0.71830
 H174 H 0.80021 0.43544 0.72803
 H175 H 0.83961 0.42439 0.80976
 H176 H 0.87271 0.46243 0.79802
 C177 C 0.81197 0.57083 0.72982
 C178 C 0.93439 0.48798 0.66885
 C179 C 0.81714 0.42673 0.76978
 C180 C 0.94122 0.52209 0.82192
 C181 C 0.20892 0.41237 0.01679
 H182 H 0.21908 0.41223 0.03729
 C183 C 0.18828 0.43229 0.01084
 H184 H 0.18231 0.44713 0.02711
 C185 C 0.20491 0.39340 -0.02942
 H186 H 0.21203 0.37870 -0.04529
 C187 C 0.18418 0.41303 -0.03631
 H188 H 0.17553 0.41318 -0.05751
 N189 N 0.21686 0.39350 -0.00325
 C190 C 0.25773 0.32699 0.04462
 H191 H 0.27823 0.32672 0.03441
 C192 C 0.25137 0.30746 0.06565
 H193 H 0.26711 0.29208 0.07140
 C194 C 0.21185 0.34650 0.04830
 H195 H 0.19630 0.36137 0.04110
 C196 C 0.20459 0.32735 0.06941
 H197 H 0.18363 0.32811 0.07866
 Zn198 Zn 0.24754 0.36993 0.00592
 N199 N 0.23807 0.34600 0.03640
 C200 C 0.29047 0.39322 0.04145
 N201 N 0.27798 0.39386 0.01554
 C202 C 0.28546 0.41329 -0.00410
 C203 C 0.30630 0.43312 0.00191
 C204 C 0.31146 0.41274 0.04838
 C205 C 0.23807 0.32760 -0.03398
 C206 C 0.24484 0.30869 -0.05550
 C207 C 0.29133 0.32965 -0.05844
 C208 C 0.28367 0.34815 -0.03686
 N209 N 0.25740 0.34683 -0.02513
 H210 H 0.28374 0.37806 0.05701
 H211 H 0.27489 0.41353 -0.02440
 H212 H 0.31201 0.44831 -0.01411
 H213 H 0.32070 0.41236 0.06933
 H214 H 0.21752 0.32667 -0.02390
 H215 H 0.22937 0.29312 -0.06176
 H216 H 0.31232 0.33108 -0.06754
 H217 H 0.29897 0.36316 -0.02917
 C218 C 0.22440 0.30732 0.07820
 C219 C 0.17588 0.43306 -0.01614
 C220 C 0.27188 0.30941 -0.06788
 C221 C 0.31943 0.43320 0.02856
 C222 C 0.71481 0.07672 -0.01789
 H223 H 0.72834 0.07538 -0.03634
 C224 C 0.69067 0.05995 -0.01601
 H225 H 0.68590 0.04550 -0.03304
 C226 C 0.70498 0.09701 0.02686
 H227 H 0.71071 0.11139 0.04357
 C228 C 0.68061 0.08061 0.02961
 H229 H 0.66751 0.08297 0.04828
 N230 N 0.72117 0.09518 0.00309
 C231 C 0.76848 0.16127 -0.03916
 H232 H 0.78797 0.16095 -0.02720
 C233 C 0.76444 0.18149 -0.06005
 H234 H 0.78116 0.19643 -0.06437
 C235 C 0.72278 0.14250 -0.04752
 H236 H 0.70624 0.12785 -0.04202
 C237 C 0.71785 0.16234 -0.06856
 H238 H 0.69750 0.16264 -0.07904
 Zn239 Zn 0.75352 0.11795 -0.00234
 N240 N 0.74777 0.14233 -0.03329
 C241 C 0.79864 0.09475 -0.03436
 N242 N 0.78446 0.09388 -0.00929
 C243 C 0.79059 0.07435 0.01064
 C244 C 0.81174 0.05459 0.00572
 C245 C 0.81993 0.07538 -0.04016
 C246 C 0.74012 0.16061 0.03535
 C247 C 0.74451 0.18028 0.05676
 C248 C 0.79002 0.15933 0.06594
 C249 C 0.78473 0.13999 0.04433
 N250 N 0.76012 0.14105 0.02951
 H251 H 0.79295 0.10993 -0.05024
 H252 H 0.77870 0.07390 0.03022
 H253 H 0.81632 0.03922 0.02187
 H254 H 0.83042 0.07593 -0.06055
 H255 H 0.72094 0.16126 0.02291
 H256 H 0.72831 0.19569 0.06102
 H257 H 0.81010 0.15871 0.07692
 H258 H 0.80067 0.12476 0.03887
 C259 C 0.73872 0.18238 -0.07486
 C260 C 0.67299 0.06203 0.00781
 C261 C 0.76990 0.18006 0.07214
 C262 C 0.82655 0.05477 -0.02009
 C263 C 0.21464 0.57842 0.48215
 H264 H 0.22834 0.57721 0.46382
 C265 C 0.19078 0.56124 0.48394
 H266 H 0.18639 0.54662 0.46696
 C267 C 0.20405 0.59884 0.52665
 H268 H 0.20934 0.61345 0.54330
 C269 C 0.17995 0.58204 0.52932
 H270 H 0.16664 0.58433 0.54785
 N271 N 0.22048 0.59714 0.50305
 C272 C 0.26657 0.66458 0.46151
 H273 H 0.28573 0.66492 0.47401
 C274 C 0.26240 0.68469 0.44055
 H275 H 0.27872 0.70018 0.43671
 C276 C 0.22181 0.64425 0.45188
 H277 H 0.20567 0.62901 0.45689
 C278 C 0.21676 0.66398 0.43073
 H279 H 0.19671 0.66360 0.41969
 Zn280 Zn 0.25229 0.62071 0.49789
 N281 N 0.24640 0.64491 0.46679
 C282 C 0.30041 0.60027 0.46813
 N283 N 0.28427 0.59775 0.49186
 C284 C 0.29059 0.57868 0.51219
 C285 C 0.31473 0.56210 0.50975
 C286 C 0.32474 0.58409 0.46481
 C287 C 0.23781 0.66332 0.53585
 C288 C 0.24200 0.68290 0.55741
 C289 C 0.28781 0.66247 0.56629
 C290 C 0.28273 0.64328 0.54456
 N291 N 0.25805 0.64404 0.52982
 H292 H 0.29463 0.61500 0.45185
 H293 H 0.27719 0.57690 0.53070
 H294 H 0.31994 0.54780 0.52670
 H295 H 0.33745 0.58654 0.44588
 H296 H 0.21859 0.66380 0.52345
 H297 H 0.22565 0.69811 0.56183
 H298 H 0.30795 0.66204 0.57716
 H299 H 0.29895 0.62842 0.53894
 C300 C 0.23707 0.68475 0.42504
 C301 C 0.17284 0.56319 0.50759
 C302 C 0.26743 0.68284 0.57276
 C303 C 0.33241 0.56497 0.48599
 C304 C 0.70868 0.91221 0.51806
 H305 H 0.71924 0.91128 0.53834
 C306 C 0.68813 0.93257 0.51319
 H307 H 0.68265 0.94697 0.53003
 C308 C 0.70354 0.89489 0.47132
 H309 H 0.71018 0.88076 0.45475
 C310 C 0.68290 0.91490 0.46554
 H311 H 0.67388 0.91583 0.44451
 N312 N 0.71599 0.89392 0.49724
 C313 C 0.75712 0.82436 0.54038
 H314 H 0.77717 0.82411 0.52929
 C315 C 0.75130 0.80418 0.56093
 H316 H 0.76721 0.78869 0.56584
 C317 C 0.71201 0.84482 0.54714
 H318 H 0.69651 0.86029 0.54124
 C319 C 0.70530 0.82502 0.56783
 H320 H 0.68458 0.82550 0.57763
 Zn321 Zn 0.74647 0.86929 0.50428
 N322 N 0.73761 0.84418 0.53396
 C323 C 0.79127 0.88965 0.53917
 N324 N 0.77792 0.89203 0.51380
 C325 C 0.78515 0.91243 0.49510
 C326 C 0.80658 0.93153 0.50159
 C327 C 0.81284 0.90834 0.54654
 C328 C 0.73365 0.82931 0.46322
 C329 C 0.73740 0.81305 0.43894
 C330 C 0.78366 0.83388 0.43291
 C331 C 0.77902 0.84976 0.45735
 N332 N 0.75410 0.84755 0.47164
 H333 H 0.78483 0.87368 0.55401
 H334 H 0.77377 0.91420 0.47534
 H335 H 0.81145 0.94806 0.48670
 H336 H 0.82319 0.90616 0.56683
 H337 H 0.71417 0.82777 0.47517
 H338 H 0.72048 0.79929 0.43215
 H339 H 0.80358 0.83595 0.42175
 H340 H 0.79530 0.86387 0.46476
 C341 C 0.72501 0.80422 0.57484
 C342 C 0.67515 0.93428 0.48652
 C343 C 0.76257 0.81540 0.42327
 C344 C 0.82057 0.92981 0.52773
 C345 C 0.00418 0.20561 0.42375
 H346 H 0.02424 0.21653 0.42479
 C347 C -0.00215 0.18476 0.44344
 H348 H 0.01313 0.17989 0.45973
 C349 C -0.04058 0.19979 0.40197
 H350 H -0.05567 0.20602 0.38607
 C351 C -0.04780 0.17882 0.42126
 H352 H -0.06828 0.16874 0.41962
 N353 N -0.01490 0.21263 0.40350
 C354 C 0.03344 0.25189 0.33562
 H355 H 0.02220 0.27151 0.33404
 C356 C 0.05503 0.24571 0.31645
 H357 H 0.06018 0.26069 0.30005
 C358 C 0.03913 0.20797 0.35806
 H359 H 0.03250 0.19311 0.37395
 C360 C 0.06086 0.20092 0.33929
 H361 H 0.07113 0.18081 0.34132
 Zn362 Zn -0.00536 0.24248 0.37901
 N363 N 0.02595 0.23313 0.35591
 C364 C 0.02794 0.28800 0.39952
 N365 N 0.00293 0.27402 0.40183
 C366 C -0.01724 0.28228 0.42059
 C367 C -0.01324 0.30626 0.43702
 C368 C 0.03284 0.31211 0.41557
 C369 C -0.04315 0.23113 0.33474
 C370 C -0.06367 0.23707 0.31438
 C371 C -0.06844 0.28331 0.33453
 C372 C -0.04784 0.27650 0.35445
 N373 N -0.03564 0.25077 0.35422
 H374 H 0.04401 0.28071 0.38504
 H375 H -0.03681 0.27058 0.42221
 H376 H -0.03004 0.31305 0.45102
 H377 H 0.05275 0.32313 0.41326
 H378 H -0.03269 0.21103 0.33465
 H379 H -0.06883 0.22142 0.29861
 H380 H -0.07788 0.30392 0.33510
 H381 H -0.04120 0.29209 0.36962
 C382 C 0.06893 0.21984 0.31799
 C383 C -0.02852 0.17115 0.44245
 C384 C -0.07639 0.26359 0.31392
 C385 C 0.01191 0.32177 0.43432
 C386 C -0.00607 0.70981 0.08407
 H387 H -0.02579 0.72123 0.08357
 C388 C -0.00105 0.68865 0.06434
 H389 H -0.01730 0.68353 0.04903
 C390 C 0.03923 0.70319 0.10435
 H391 H 0.05515 0.70945 0.11948
 C392 C 0.04515 0.68188 0.08495
 H393 H 0.06569 0.67193 0.08541
 N394 N 0.01396 0.71671 0.10350
 C395 C -0.03051 0.76182 0.17031
 H396 H -0.01697 0.78007 0.17172
 C397 C -0.05436 0.75970 0.18760
 H398 H -0.05884 0.77629 0.20256
 C399 C -0.04089 0.71806 0.14900
 H400 H -0.03559 0.70192 0.13389
 C401 C -0.06503 0.71509 0.16589
 H402 H -0.07833 0.69680 0.16322
 Zn403 Zn 0.00657 0.74811 0.12675
 N404 N -0.02464 0.74152 0.15100
 C405 C -0.02735 0.79121 0.10360
 N406 N -0.00186 0.77815 0.10210
 C407 C 0.01722 0.78468 0.08155
 C408 C 0.01094 0.80507 0.06137
 C409 C -0.03447 0.81170 0.08390
 C410 C 0.04536 0.73808 0.17015
 C411 C 0.06695 0.74431 0.18932
 C412 C 0.07325 0.78898 0.16628
 C413 C 0.05153 0.78190 0.14756
 N414 N 0.03805 0.75682 0.14985
 H415 H -0.04252 0.78537 0.11964
 H416 H 0.03710 0.77357 0.08049
 H417 H 0.02611 0.80946 0.04475
 H418 H -0.05487 0.82184 0.08549
 H419 H 0.03394 0.71850 0.17181
 H420 H 0.07191 0.72940 0.20580
 H421 H 0.08370 0.80906 0.16413
 H422 H 0.04509 0.79673 0.13163
 C423 C -0.07231 0.73636 0.18513
 C424 C 0.02500 0.67460 0.06436
 C425 C 0.08102 0.77019 0.18771
 C426 C -0.01536 0.81866 0.06222
 C427 C 0.49367 0.21461 0.58331
 H428 H 0.47399 0.22607 0.58241
 C429 C 0.49933 0.19384 0.56332
 H430 H 0.48366 0.18912 0.54730
 C431 C 0.53806 0.20718 0.60525
 H432 H 0.55336 0.21289 0.62121
 C433 C 0.54461 0.18625 0.58564
 H434 H 0.56500 0.17606 0.58677
 N435 N 0.51290 0.22083 0.60376
 C436 C 0.46547 0.26114 0.67176
 H437 H 0.47709 0.28059 0.67361
 C438 C 0.44386 0.25496 0.69098
 H439 H 0.43907 0.26979 0.70765
 C440 C 0.45896 0.21749 0.64879
 H441 H 0.46531 0.20266 0.63274
 C442 C 0.43721 0.21046 0.66754
 H443 H 0.42664 0.19046 0.66527
 Zn444 Zn 0.50441 0.25095 0.62834
 N445 N 0.47263 0.24246 0.65124
 C446 C 0.47419 0.29868 0.60803
 N447 N 0.49776 0.28262 0.60539
 C448 C 0.51815 0.28879 0.58604
 C449 C 0.51593 0.31259 0.56920
 C450 C 0.47112 0.32278 0.59159
 C451 C 0.54203 0.23880 0.67265
 C452 C 0.56310 0.24432 0.69264
 C453 C 0.56935 0.29014 0.67203
 C454 C 0.54819 0.28377 0.65249
 N455 N 0.53501 0.25844 0.65310
 H456 H 0.45801 0.29317 0.62322
 H457 H 0.53648 0.27541 0.58412
 H458 H 0.53254 0.31721 0.55408
 H459 H 0.45270 0.33585 0.59463
 H460 H 0.53083 0.21902 0.67301
 H461 H 0.56794 0.22867 0.70843
 H462 H 0.57962 0.31040 0.67110
 H463 H 0.54200 0.29937 0.63724
 C464 C 0.42962 0.22918 0.68921
 C465 C 0.52519 0.17948 0.56418
 C466 C 0.57688 0.27041 0.69264
 C467 C 0.49241 0.33023 0.57218
 C468 C 0.50534 0.70502 0.92282
 H469 H 0.52542 0.71594 0.92332
 C470 C 0.49951 0.68422 0.94273
 H471 H 0.51522 0.67936 0.95861
 C472 C 0.45995 0.69929 0.90234
 H473 H 0.44441 0.70558 0.88690
 C474 C 0.45323 0.67837 0.92186
 H475 H 0.43267 0.66837 0.92084
 N476 N 0.48566 0.71213 0.90318
 C477 C 0.53195 0.75310 0.83489
 H478 H 0.52069 0.77276 0.83428
 C479 C 0.55298 0.74757 0.81492
 H480 H 0.55812 0.76334 0.79930
 C481 C 0.53849 0.70861 0.85589
 H482 H 0.53229 0.69323 0.87146
 C483 C 0.55968 0.70218 0.83626
 H484 H 0.56959 0.68180 0.83696
 Zn485 Zn 0.49429 0.74237 0.87884
 N486 N 0.52513 0.73374 0.85483
 C487 C 0.52765 0.78787 0.89936
 N488 N 0.50277 0.77372 0.90190
 C489 C 0.48284 0.78166 0.92105
 C490 C 0.48690 0.80553 0.93761
 C491 C 0.53261 0.81189 0.91552
 C492 C 0.45567 0.73124 0.83522
 C493 C 0.43499 0.73739 0.81509
 C494 C 0.43034 0.78339 0.83580
 C495 C 0.45111 0.77639 0.85547
 N496 N 0.46338 0.75069 0.85481
 H497 H 0.54357 0.78081 0.88458
 H498 H 0.46338 0.76981 0.92286
 H499 H 0.47026 0.81210 0.95191
 H500 H 0.55241 0.82307 0.91301
 H501 H 0.46619 0.71117 0.83478
 H502 H 0.42977 0.72192 0.79915
 H503 H 0.42092 0.80400 0.83665
 H504 H 0.45790 0.79185 0.87071
 C505 C 0.56697 0.72170 0.81524
 C506 C 0.47305 0.67074 0.94257
 C507 C 0.42230 0.76393 0.81498
 C508 C 0.51188 0.82126 0.93464
 C509 C 0.13027 0.19859 0.25423
 C510 C 0.12994 0.22554 0.26585
 C511 C 0.11037 0.23235 0.28698
 C512 C 0.16485 0.18594 0.21207
 C513 C 0.09165 0.18510 0.28523
 C514 C 0.11123 0.17835 0.26411
 C515 C 0.14938 0.19188 0.23149
 C516 C 0.09082 0.21226 0.29674
 H517 H 0.14460 0.24136 0.25837
 H518 H 0.11048 0.25333 0.29566
 H519 H 0.07664 0.16929 0.29196
 H520 H 0.11120 0.15746 0.25516
 C521 C 0.62746 0.70063 0.75054
 C522 C 0.60312 0.71572 0.74371
 C523 C 0.58362 0.72274 0.76478
 C524 C 0.66245 0.68572 0.70948
 C525 C 0.61282 0.69972 0.79978
 C526 C 0.63234 0.69271 0.77863
 C527 C 0.64685 0.69261 0.72847
 C528 C 0.58818 0.71476 0.79307
 H529 H 0.59904 0.72178 0.72201
 H530 H 0.56465 0.73390 0.75881
 H531 H 0.61707 0.69353 0.82139
 H532 H 0.65111 0.68098 0.78414
 C533 C 0.36449 0.78661 0.74872
 C534 C 0.36304 0.75991 0.76077
 C535 C 0.38163 0.75252 0.78253
 C536 C 0.33109 0.80122 0.70642
 C537 C 0.40303 0.79862 0.78028
 C538 C 0.38446 0.80594 0.75858
 C539 C 0.34602 0.79421 0.72582
 C540 C 0.40190 0.77180 0.79249
 H541 H 0.34764 0.74478 0.75329
 H542 H 0.38006 0.73181 0.79166
 H543 H 0.41869 0.81378 0.78708
 H544 H 0.38588 0.82661 0.74930
 C545 C -0.13477 0.28533 0.24788
 C546 C -0.11470 0.30480 0.25726
 C547 C -0.09589 0.29777 0.27884
 C548 C -0.16895 0.29945 0.20606
 C549 C -0.11721 0.25167 0.28190
 C550 C -0.13605 0.25877 0.26026
 C551 C -0.15363 0.29268 0.22523
 C552 C -0.09688 0.27111 0.29141
 H553 H -0.11343 0.32536 0.24772
 H554 H -0.08020 0.31303 0.28531
 H555 H -0.11867 0.23109 0.29133
 H556 H -0.15152 0.24355 0.25316
 C557 C -0.15077 0.73222 0.23117
 C558 C -0.13440 0.70809 0.22775
 C559 C -0.10869 0.70939 0.21305
 C560 C -0.20049 0.73052 0.25687
 C561 C -0.11564 0.75902 0.20537
 C562 C -0.14127 0.75767 0.22004
 C563 C -0.17768 0.73096 0.24540
 C564 C -0.09907 0.73488 0.20160
 H565 H -0.14157 0.68827 0.23629
 H566 H -0.09629 0.69051 0.21074
 H567 H -0.10911 0.77885 0.19641
 H568 H -0.15386 0.77644 0.22242
 C569 C 0.36887 0.20673 0.75324
 C570 C 0.38764 0.18670 0.74262
 C571 C 0.40706 0.19390 0.72151
 C572 C 0.33454 0.19274 0.79522
 C573 C 0.38879 0.24122 0.72125
 C574 C 0.36936 0.23396 0.74240
 C575 C 0.34985 0.19939 0.77590
 C576 C 0.40800 0.22130 0.71068
 H577 H 0.38755 0.16560 0.75097
 H578 H 0.42184 0.17820 0.71420
 H579 H 0.38878 0.26240 0.71314
 H580 H 0.35492 0.24963 0.75047
 C581 C 0.63821 0.29107 0.75656
 C582 C 0.63795 0.26429 0.74450
 C583 C 0.61807 0.25750 0.72363
 C584 C 0.67456 0.30464 0.79684
 C585 C 0.59874 0.30431 0.72686
 C586 C 0.61858 0.31103 0.74767
 C587 C 0.65823 0.29814 0.77835
 C588 C 0.59824 0.27746 0.71457
 H589 H 0.65306 0.24867 0.75123
 H590 H 0.61839 0.23675 0.71439
 H591 H 0.58347 0.32000 0.72072
 H592 H 0.61849 0.33177 0.75698
 C593 C 0.14211 0.79250 0.25132
 C594 C 0.12316 0.81250 0.24114
 C595 C 0.10362 0.80536 0.22016
 C596 C 0.17663 0.80617 0.29317
 C597 C 0.12213 0.75813 0.21917
 C598 C 0.14168 0.76534 0.24019
 C599 C 0.16122 0.79972 0.27389
 C600 C 0.10274 0.77803 0.20904
 H601 H 0.12320 0.83354 0.24973
 H602 H 0.08871 0.82104 0.21318
 H603 H 0.12218 0.73702 0.21083
 H604 H 0.15625 0.74968 0.24793
 C605 C 0.24794 0.12954 0.21039
 C606 C 0.25788 0.11052 0.19019
 C607 C 0.27979 0.09218 0.19691
 C608 C 0.20506 0.16238 0.19714
 C609 C 0.28212 0.11193 0.24415
 C610 C 0.26015 0.13029 0.23736
 C611 C 0.22476 0.14770 0.20346
 C612 C 0.29214 0.09261 0.22399
 H613 H 0.24846 0.10964 0.16930
 H614 H 0.28665 0.07725 0.18107
 H615 H 0.29137 0.11295 0.26508
 H616 H 0.25261 0.14494 0.25317
 C617 C 0.74468 0.62757 0.70921
 C618 C 0.75477 0.60871 0.68893
 C619 C 0.77676 0.59045 0.69559
 C620 C 0.70225 0.66081 0.69552
 C621 C 0.77882 0.60990 0.74297
 C622 C 0.75678 0.62819 0.73623
 C623 C 0.72167 0.64591 0.70217
 C624 C 0.78904 0.59079 0.72271
 H625 H 0.74546 0.60796 0.66799
 H626 H 0.78376 0.57568 0.67967
 H627 H 0.78801 0.61084 0.76393
 H628 H 0.74914 0.64274 0.75209
 C629 C 0.75432 0.36551 0.79268
 C630 C 0.78269 0.36125 0.79989
 C631 C 0.80325 0.38094 0.79216
 C632 C 0.71445 0.33018 0.80927
 C633 C 0.76709 0.40907 0.76976
 C634 C 0.74661 0.38938 0.77750
 C635 C 0.73287 0.34598 0.80160
 C636 C 0.79565 0.40517 0.77712
 H637 H 0.78888 0.34283 0.81167
 H638 H 0.82508 0.37720 0.79788
 H639 H 0.76045 0.42770 0.75861
 H640 H 0.72468 0.39298 0.77196
 C641 C 0.25723 -0.13340 0.29471
 C642 C 0.26827 -0.13248 0.26722
 C643 C 0.28914 -0.11283 0.26025
 C644 C 0.21588 -0.16844 0.30800
 C645 C 0.28821 -0.09520 0.30839
 C646 C 0.26737 -0.11485 0.31530
 C647 C 0.23490 -0.15273 0.30171
 C648 C 0.29920 -0.09382 0.28072
 H649 H 0.26059 -0.14677 0.25113
 H650 H 0.29740 -0.11250 0.23886
 H651 H 0.29517 -0.08061 0.32452
 H652 H 0.25887 -0.11529 0.33661
 C653 C 0.25413 -0.13488 0.70619
 C654 C 0.26195 -0.11119 0.72180
 C655 C 0.24177 -0.09102 0.72880
 C656 C 0.29329 -0.17167 0.69174
 C657 C 0.20574 -0.11824 0.70468
 C658 C 0.22599 -0.13840 0.69770
 C659 C 0.27521 -0.15514 0.69840
 C660 C 0.21343 -0.09427 0.72027
 H661 H 0.28371 -0.10817 0.72833
 H662 H 0.24846 -0.07262 0.74043
 H663 H 0.18405 -0.12149 0.69809
 H664 H 0.21972 -0.15667 0.68560
 C665 C 0.75312 0.36191 0.20785
 C666 C 0.76159 0.38659 0.22139
 C667 C 0.74155 0.40665 0.22906
 C668 C 0.79235 0.32568 0.19213
 C669 C 0.70430 0.37732 0.20982
 C670 C 0.72443 0.35725 0.20216
 C671 C 0.77411 0.34183 0.19929
 C672 C 0.71266 0.40231 0.22329
 H673 H 0.78375 0.39049 0.22576
 H674 H 0.74875 0.42584 0.23895
 H675 H 0.68221 0.37324 0.20535
 H676 H 0.71764 0.33820 0.19168
 C677 C 0.73390 0.65542 0.26797
 C678 C 0.71546 0.64769 0.28982
 C679 C 0.70024 0.62261 0.28807
 C680 C 0.76005 0.70441 0.26951
 C681 C 0.72220 0.61271 0.24275
 C682 C 0.73738 0.63780 0.24454
 C683 C 0.74837 0.68193 0.26903
 C684 C 0.70326 0.60494 0.26439
 H685 H 0.71261 0.66118 0.30805
 H686 H 0.68612 0.61704 0.30524
 H687 H 0.72472 0.59976 0.22409
 H688 H 0.75149 0.64367 0.22743
 C689 C 0.25352 0.13290 0.79605
 C690 C 0.24133 0.13356 0.76908
 C691 C 0.22034 0.11417 0.76175
 C692 C 0.29515 0.16741 0.80986
 C693 C 0.22347 0.09359 0.80849
 C694 C 0.24443 0.11298 0.81577
 C695 C 0.27598 0.15198 0.80335
 C696 C 0.21130 0.09383 0.78133
 H697 H 0.24821 0.14890 0.75366
 H698 H 0.21117 0.11509 0.74079
 H699 H 0.21733 0.07796 0.82390
 H700 H 0.25383 0.11218 0.83665
 C701 C 0.20252 0.24318 0.13821
 C702 C 0.18277 0.25191 0.11808
 C703 C 0.18975 0.27302 0.09885
 C704 C 0.18946 0.20128 0.17241
 C705 C 0.23627 0.27701 0.12000
 C706 C 0.22923 0.25587 0.13924
 C707 C 0.19557 0.22058 0.15712
 C708 C 0.21665 0.28572 0.09946
 H709 H 0.16209 0.24212 0.11699
 H710 H 0.17433 0.27891 0.08304
 H711 H 0.25703 0.28658 0.12123
 H712 H 0.24469 0.24927 0.15474
 C713 C 0.70308 0.73999 0.63476
 C714 C 0.69511 0.76773 0.63982
 C715 C 0.70243 0.78871 0.62050
 C716 C 0.68791 0.69944 0.66974
 C717 C 0.72591 0.75424 0.59109
 C718 C 0.71857 0.73333 0.61041
 C719 C 0.69486 0.71815 0.65407
 C720 C 0.71784 0.78218 0.59584
 H721 H 0.68312 0.77312 0.65862
 H722 H 0.69618 0.81005 0.62493
 H723 H 0.73739 0.74843 0.57212
 H724 H 0.72472 0.71190 0.60620
 C725 C 0.77116 0.76965 0.34528
 C726 C 0.78133 0.79710 0.34732
 C727 C 0.77900 0.81181 0.37282
 C728 C 0.77277 0.74344 0.29593
 C729 C 0.75666 0.77145 0.39450
 C730 C 0.75901 0.75678 0.36896
 C731 C 0.77225 0.75513 0.31858
 C732 C 0.76641 0.79924 0.39665
 H733 H 0.79064 0.80731 0.32906
 H734 H 0.78636 0.83327 0.37366
 H735 H 0.74719 0.76107 0.41255
 H736 H 0.75108 0.73553 0.36762
 C737 C 0.29531 0.24729 -0.12953
 C738 C 0.31474 0.25597 -0.10899
 C739 C 0.30724 0.27641 -0.08919
 C740 C 0.30951 0.20659 -0.16477
 C741 C 0.26081 0.27981 -0.11059
 C742 C 0.26838 0.25934 -0.13040
 C743 C 0.30284 0.22536 -0.14903
 C744 C 0.28012 0.28847 -0.08965
 H745 H 0.33559 0.24666 -0.10802
 H746 H 0.32244 0.28226 -0.07310
 H747 H 0.23989 0.28891 -0.11170
 H748 H 0.25316 0.25276 -0.14621
 C749 C 0.71905 0.24847 -0.13307
 C750 C 0.71091 0.22095 -0.13921
 C751 C 0.71786 0.19930 -0.12064
 C752 C 0.70238 0.29024 -0.16556
 C753 C 0.74158 0.23261 -0.08997
 C754 C 0.73461 0.25421 -0.10856
 C755 C 0.71025 0.27104 -0.15107
 C756 C 0.73301 0.20494 -0.09564
 H757 H 0.69883 0.21629 -0.15812
 H758 H 0.71125 0.17817 -0.12574
 H759 H 0.75288 0.23772 -0.07072
 H760 H 0.74085 0.27547 -0.10352
 C761 C 0.21763 0.75021 0.36595
 C762 C 0.23214 0.75638 0.39099
 C763 C 0.23890 0.73503 0.40994
 C764 C 0.20227 0.79163 0.33234
 C765 C 0.21701 0.70107 0.37864
 C766 C 0.21025 0.72249 0.35970
 C767 C 0.20942 0.77252 0.34732
 C768 C 0.23122 0.70714 0.40410
 H769 H 0.23780 0.77779 0.39611
 H770 H 0.24944 0.74048 0.42953
 H771 H 0.21108 0.67979 0.37341
 H772 H 0.19901 0.71749 0.34037
 C773 C 0.28785 0.74714 0.63317
 C774 C 0.29514 0.71932 0.63868
 C775 C 0.28795 0.69825 0.61937
 C776 C 0.30485 0.78790 0.66710
 C777 C 0.26571 0.73275 0.58924
 C778 C 0.27291 0.75376 0.60856
 C779 C 0.29686 0.76912 0.65198
 C780 C 0.27340 0.70478 0.59427
 H781 H 0.30673 0.71397 0.65767
 H782 H 0.29389 0.67689 0.62399
 H783 H 0.25491 0.73855 0.56994
 H784 H 0.26733 0.77525 0.60400
 C785 C 0.78931 0.24475 0.13253
 C786 C 0.79679 0.21700 0.13820
 C787 C 0.79015 0.19582 0.11880
 C788 C 0.80488 0.28576 0.16685
 C789 C 0.76823 0.23010 0.08818
 C790 C 0.77488 0.25120 0.10757
 C791 C 0.79751 0.26686 0.15156
 C792 C 0.77594 0.20217 0.09346
 H793 H 0.80803 0.21179 0.15744
 H794 H 0.79611 0.17450 0.12361
 H795 H 0.75772 0.23578 0.06868
 H796 H 0.76919 0.27263 0.10287
 C797 C 0.48791 0.40725 0.52554
 C798 C 0.46349 0.39104 0.52941
 C799 C 0.46486 0.36589 0.54448
 C800 C 0.48639 0.45568 0.49862
 C801 C 0.51511 0.37315 0.55172
 C802 C 0.51369 0.39822 0.53669
 C803 C 0.48668 0.43345 0.51066
 C804 C 0.49072 0.35667 0.55581
 H805 H 0.44341 0.39786 0.52087
 H806 H 0.44578 0.35354 0.54704
 H807 H 0.53523 0.36691 0.56058
 H808 H 0.53268 0.41069 0.53397
 C809 C -0.03850 0.87693 -0.00290
 C810 C -0.01101 0.87722 0.00807
 C811 C -0.00344 0.85841 0.02940
 C812 C -0.05334 0.91105 -0.04425
 C813 C -0.05093 0.83910 0.02888
 C814 C -0.05843 0.85789 0.00759
 C815 C -0.04631 0.89573 -0.02529
 C816 C -0.02333 0.83910 0.04001
 H817 H 0.00458 0.89189 0.00008
 H818 H 0.01788 0.85909 0.03773
 H819 H -0.06659 0.82420 0.03623
 H820 H -0.07972 0.85739 -0.00086
 C821 C 0.04562 0.61465 -0.00044
 C822 C 0.05387 0.60986 0.02757
 C823 C 0.04691 0.62915 0.04878
 C824 C 0.06061 0.58002 -0.04153
 C825 C 0.02319 0.65792 0.01398
 C826 C 0.03017 0.63864 -0.00714
 C827 C 0.05368 0.59551 -0.02257
 C828 C 0.03158 0.65348 0.04219
 H829 H 0.06586 0.59136 0.03299
 H830 H 0.05343 0.62500 0.07033
 H831 H 0.01181 0.67664 0.00810
 H832 H 0.02382 0.64264 -0.02879
 C833 C 0.54698 0.11900 0.50032
 C834 C 0.55405 0.11412 0.52864
 C835 C 0.54675 0.13363 0.54950
 C836 C 0.56243 0.08360 0.46010
 C837 C 0.52508 0.16284 0.51375
 C838 C 0.53239 0.14333 0.49296
 C839 C 0.55528 0.09949 0.47863
 C840 C 0.53227 0.15828 0.54227
 H841 H 0.56534 0.09534 0.53456
 H842 H 0.55231 0.12937 0.57130
 H843 H 0.51434 0.18179 0.50742
 H844 H 0.52696 0.14739 0.47107
 C845 C -0.05010 0.11082 0.50643
 C846 C -0.02292 0.11107 0.49465
 C847 C -0.01597 0.13041 0.47354
 C848 C -0.06268 0.07647 0.54849
 C849 C -0.06354 0.14909 0.47571
 C850 C -0.07043 0.12975 0.49681
 C851 C -0.05690 0.09186 0.52910
 C852 C -0.03616 0.14978 0.46397
 H853 H -0.00702 0.09650 0.50195
 H854 H 0.00517 0.13018 0.46468
 H855 H -0.07943 0.16397 0.46912
 H856 H -0.09149 0.12985 0.50590
 C857 C 0.45258 0.61127 1.00779
 C858 C 0.47951 0.61123 0.99542
 C859 C 0.48611 0.63030 0.97394
 C860 C 0.44000 0.57702 1.04995
 C861 C 0.43872 0.64931 0.97695
 C862 C 0.43219 0.63025 0.99841
 C863 C 0.44596 0.59239 1.03059
 C864 C 0.46582 0.64968 0.96456
 H865 H 0.49545 0.59661 1.00250
 H866 H 0.50704 0.62984 0.96461
 H867 H 0.42277 0.66421 0.97055
 H868 H 0.41131 0.63056 1.00793
 C869 C 0.51971 0.89949 0.97902
 C870 C 0.50831 0.87613 0.99282
 C871 C 0.50632 0.85048 0.97865
 C872 C 0.52020 0.94915 1.00377
 C873 C 0.52759 0.87140 0.93699
 C874 C 0.52956 0.89700 0.95119
 C875 C 0.52019 0.92633 0.99285
 C876 C 0.51568 0.84790 0.95046
 H877 H 0.50063 0.87784 1.01437
 H878 H 0.49736 0.83270 0.98970
 H879 H 0.53459 0.87024 0.91519
 H880 H 0.53827 0.91499 0.94026
 C881 C 0.01979 0.40011 0.47847
 C882 C 0.02998 0.39743 0.45078
 C883 C 0.02799 0.37179 0.43666
 C884 C 0.02033 0.44983 0.50311
 C885 C 0.00599 0.35121 0.47811
 C886 C 0.00802 0.37690 0.49220
 C887 C 0.02031 0.42699 0.49221
 C888 C 0.01570 0.34844 0.45006
 H889 H 0.03899 0.41531 0.43990
 H890 H 0.03527 0.37048 0.41495
 H891 H -0.00326 0.33355 0.48911
 H892 H 0.00006 0.37875 0.51365
 C893 C 0.41078 0.51969 0.48253
 C894 C 0.38621 0.50644 0.49231
 C895 C 0.36056 0.52095 0.49299
 C896 C 0.46022 0.49400 0.48398
 C897 C 0.38396 0.56191 0.47369
 C898 C 0.40955 0.54737 0.47304
 C899 C 0.43750 0.50538 0.48315
 C900 C 0.35920 0.54894 0.48389
 H901 H 0.38693 0.48501 0.49970
 H902 H 0.34181 0.51029 0.50064
 H903 H 0.38374 0.58354 0.46694
 H904 H 0.42848 0.55788 0.46556
 C905 C 0.88667 -0.00928 -0.04134
 C906 C 0.86214 -0.01603 -0.02618
 C907 C 0.84285 0.00486 -0.01885
 C908 C 0.92107 -0.04986 -0.05748
 C909 C 0.87277 0.03951 -0.04153
 C910 C 0.89205 0.01855 -0.04884
 C911 C 0.90570 -0.03113 -0.05000
 C912 C 0.84783 0.03286 -0.02662
 H913 H 0.85769 -0.03753 -0.02040
 H914 H 0.82367 -0.00103 -0.00777
 H915 H 0.87736 0.06090 -0.04753
 H916 H 0.91099 0.02400 -0.06058
 C917 C 0.59519 0.01541 0.01264
 C918 C 0.61201 0.01863 0.03679
 C919 C 0.63746 0.03360 0.03526
 C920 C 0.54605 -0.01109 0.01511
 C921 C 0.62936 0.04197 -0.01467
 C922 C 0.60397 0.02703 -0.01308
 C923 C 0.56860 0.00077 0.01423
 C924 C 0.64638 0.04551 0.00950
 H925 H 0.60540 0.00971 0.05682
 H926 H 0.65023 0.03569 0.05415
 H927 H 0.63539 0.05124 -0.03470
 H928 H 0.59103 0.02478 -0.03187
 C929 C 0.09537 0.51600 0.51217
 C930 C 0.10432 0.52739 0.48640
 C931 C 0.12966 0.54244 0.48487
 C932 C 0.04620 0.48955 0.51455
 C933 C 0.13738 0.53459 0.53494
 C934 C 0.11199 0.51951 0.53642
 C935 C 0.06876 0.50138 0.51372
 C936 C 0.14643 0.54633 0.50915
 H937 H 0.09154 0.52491 0.46754
 H938 H 0.13579 0.55157 0.46481
 H939 H 0.14997 0.53695 0.55393
 H940 H 0.10525 0.51077 0.55648
 C941 C 0.11806 0.49852 -0.03897
 C942 C 0.11323 0.47112 -0.04836
 C943 C 0.13181 0.44969 -0.04071
 C944 C 0.08509 0.54017 -0.05502
 C945 C 0.15995 0.48304 -0.01409
 C946 C 0.14137 0.50438 -0.02174
 C947 C 0.09976 0.52090 -0.04766
 C948 C 0.15547 0.45544 -0.02357
 H949 H 0.09525 0.46636 -0.06173
 H950 H 0.12764 0.42863 -0.04812
 H951 H 0.17820 0.48828 -0.00129
 H952 H 0.14542 0.52554 -0.01451
 C953 C 0.61821 1.00089 0.46503
 C954 C 0.64155 1.00616 0.48244
 C955 C 0.65971 0.98438 0.48994
 C956 C 0.58655 1.04313 0.44796
 C957 C 0.63094 0.95182 0.46300
 C958 C 0.61280 0.97365 0.45552
 C959 C 0.60065 1.02370 0.45593
 C960 C 0.65478 0.95700 0.48007
 H961 H 0.64604 1.02720 0.48978
 H962 H 0.67808 0.98916 0.50274
 H963 H 0.62639 0.93093 0.45534
 H964 H 0.59479 0.96935 0.44202
 C965 C 0.88059 0.99385 0.55032
 C966 C 0.88048 0.98281 0.52287
 C967 C 0.86138 0.96156 0.51562
 C968 C 0.91397 1.03641 0.56368
 C969 C 0.84275 0.96204 0.56346
 C970 C 0.86185 0.98327 0.57064
 C971 C 0.89907 1.01680 0.55744
 C972 C 0.84210 0.95111 0.53578
 H973 H 0.89490 0.99084 0.50697
 H974 H 0.86163 0.95336 0.49424
 H975 H 0.82792 0.95478 0.57935
 H976 H 0.86165 0.99177 0.59192
 C977 C 0.37980 0.49720 0.05031
 C978 C 0.35583 0.50382 0.03438
 C979 C 0.33633 0.48299 0.02722
 C980 C 0.41514 0.53778 0.06475
 C981 C 0.36473 0.44866 0.05185
 C982 C 0.38425 0.46958 0.05900
 C983 C 0.39934 0.51900 0.05816
 C984 C 0.34051 0.45515 0.03589
 H985 H 0.35209 0.52516 0.02769
 H986 H 0.31768 0.48878 0.01533
 H987 H 0.36868 0.42740 0.05860
 H988 H 0.40274 0.46424 0.07136
 C989 C 0.52834 0.48267 0.41070
 C990 C 0.53493 0.50862 0.39870
 C991 C 0.55018 0.50999 0.37339
 C992 C 0.50067 0.48127 0.45939
 C993 C 0.55228 0.45935 0.37185
 C994 C 0.53699 0.45803 0.39721
 C995 C 0.51315 0.48156 0.43710
 C996 C 0.55907 0.48538 0.35966
 H997 H 0.52847 0.52783 0.40904
 H998 H 0.55545 0.53035 0.36482
 H999 H 0.55856 0.44003 0.36164
 H1000 H 0.53199 0.43782 0.40633
 C1001 C 0.00199 -0.04886 0.88190
 C1002 C 0.01368 -0.02194 0.88273
 C1003 C 0.03490 -0.01436 0.86352
 C1004 C -0.03964 -0.06339 0.91639
 C1005 C 0.03296 -0.06076 0.84279
 C1006 C 0.01177 -0.06828 0.86200
 C1007 C -0.02053 -0.05652 0.90093
 C1008 C 0.04468 -0.03366 0.84322
 H1009 H 0.00627 -0.00676 0.89809
 H1010 H 0.04372 0.00655 0.86458
 H1011 H 0.03969 -0.07596 0.82716
 H1012 H 0.00277 -0.08914 0.86109
 C1013 C -0.00245 0.04032 0.62016
 C1014 C 0.00703 0.06023 0.63973
 C1015 C 0.02925 0.05391 0.65808
 C1016 C -0.04618 0.05230 0.58754
 C1017 C 0.03289 0.00775 0.63708
 C1018 C 0.01064 0.01413 0.61872
 C1019 C -0.02611 0.04662 0.60215
 C1020 C 0.04231 0.02751 0.65712
 H1021 H -0.00304 0.08053 0.64110
 H1022 H 0.03568 0.06942 0.67354
 H1023 H 0.04272 -0.01263 0.63560
 H1024 H 0.00349 -0.00142 0.60361
 C1025 C 0.49881 0.53757 0.12130
 C1026 C 0.51248 0.55843 0.13700
 C1027 C 0.53432 0.55144 0.15554
 C1028 C 0.45574 0.55160 0.08866
 C1029 C 0.52914 0.50261 0.14256
 C1030 C 0.50726 0.50966 0.12400
 C1031 C 0.47551 0.54489 0.10322
 C1032 C 0.54283 0.52343 0.15866
 H1033 H 0.50599 0.58007 0.13521
 H1034 H 0.54407 0.56791 0.16795
 H1035 H 0.53539 0.48090 0.14428
 H1036 H 0.49679 0.49334 0.11195
 C1037 C 0.48117 -0.01952 0.09167
 C1038 C 0.47791 -0.04284 0.10928
 C1039 C 0.46342 -0.04034 0.13502
 C1040 C 0.50697 -0.02335 0.04211
 C1041 C 0.45558 0.00887 0.12560
 C1042 C 0.47005 0.00632 0.09993
 C1043 C 0.49541 -0.02199 0.06485
 C1044 C 0.45203 -0.01444 0.14343
 H1045 H 0.48647 -0.06294 0.10308
 H1046 H 0.46129 -0.05858 0.14841
 H1047 H 0.44668 0.02897 0.13122
 H1048 H 0.47233 0.02446 0.08639
 C1049 C 0.98070 0.48089 0.59073
 C1050 C 0.97749 0.45750 0.60824
 C1051 C 0.96264 0.45976 0.63380
 C1052 C 1.00695 0.47732 0.54138
 C1053 C 0.95436 0.50890 0.62442
 C1054 C 0.96918 0.50658 0.59893
 C1055 C 0.99521 0.47862 0.56404
 C1056 C 0.95083 0.48550 0.64214
 H1057 H 0.98633 0.43750 0.60209
 H1058 H 0.96055 0.44145 0.64711
 H1059 H 0.94514 0.52889 0.62998
 H1060 H 0.97140 0.52479 0.58546
 C1061 C 1.00527 0.54254 0.88319
 C1062 C 0.99521 0.56305 0.86471
 C1063 C 0.97414 0.55650 0.84505
 C1064 C 1.04671 0.55529 0.91854
 C1065 C 0.97287 0.50884 0.86247
 C1066 C 0.99396 0.51546 0.88214
 C1067 C 1.02767 0.54924 0.90267
 C1068 C 0.96282 0.52927 0.84359
 H1069 H 1.00391 0.58405 0.86525
 H1070 H 0.96720 0.57258 0.83055
 H1071 H 0.96435 0.48779 0.86210
 H1072 H 1.00158 0.49942 0.89637
 C1073 C 0.50796 0.04526 0.38471
 C1074 C 0.49682 0.01811 0.38366
 C1075 C 0.47586 0.01133 0.36391
 C1076 C 0.54900 0.05829 0.42043
 C1077 C 0.47695 0.05894 0.34636
 C1078 C 0.49790 0.06566 0.36610
 C1079 C 0.53016 0.05214 0.40436
 C1080 C 0.46577 0.03165 0.34494
 H1081 H 0.50444 0.00216 0.39799
 H1082 H 0.46745 -0.00977 0.36357
 H1083 H 0.46997 0.07495 0.33179
 H1084 H 0.50647 0.08671 0.36664
   
