data_POSCAR
  _audit_creation_date              2014-09-24
  _audit_creation_method            'ToBaCCo'
  _symmetry_space_group_name_H-M    'P1'
  _symmetry_Int_Tables_number       1
  _symmetry_cell_setting            triclinic
  loop_
  _symmetry_equiv_pos_as_xyz
 x,y,z
_cell_length_a 69.1650
_cell_length_b 68.6205
_cell_length_c 10.5194
_cell_angle_alpha 90.833500
_cell_angle_beta 90.968800
_cell_angle_gamma 119.414800
loop_
  _atom_site_label
  _atom_site_type_symbol
  _atom_site_fract_x
  _atom_site_fract_y
  _atom_site_fract_z
C1 C 0.28143 0.56523 0.55673
 C2 C 0.28328 0.56583 0.42675
 C3 C 0.26593 0.56667 0.34442
 C4 C 0.29716 0.55733 0.36801
 C5 C 0.29857 0.56374 0.63846
 C6 C 0.25905 0.55749 0.60943
 C7 C 0.25355 0.54941 0.25495
 C8 C 0.23286 0.54568 0.20963
 C9 C 0.22376 0.55901 0.25417
 C10 C 0.23821 0.57849 0.32779
 C11 C 0.25891 0.58219 0.37215
 C12 C 0.29341 0.53611 0.40087
 C13 C 0.30829 0.52903 0.36835
 C14 C 0.32650 0.54207 0.29155
 C15 C 0.32876 0.56242 0.24658
 C16 C 0.31437 0.57015 0.28626
 C17 C 0.32121 0.57909 0.62428
 C18 C 0.33753 0.57408 0.66691
 C19 C 0.33154 0.55358 0.72470
 C20 C 0.30899 0.53931 0.75014
 C21 C 0.29272 0.54447 0.70894
 C22 C 0.25435 0.57113 0.68905
 C23 C 0.23227 0.56432 0.72039
 C24 C 0.21467 0.54388 0.67144
 C25 C 0.21985 0.53028 0.59408
 C26 C 0.24167 0.53669 0.56669
 H27 H 0.25872 0.53734 0.22954
 H28 H 0.22337 0.53066 0.15202
 H29 H 0.23364 0.59092 0.35452
 H30 H 0.26865 0.59622 0.43695
 H31 H 0.27966 0.52555 0.45990
 H32 H 0.30569 0.51370 0.41015
 H33 H 0.31709 0.58634 0.25684
 H34 H 0.32616 0.59419 0.57155
 H35 H 0.35475 0.58578 0.64913
 H36 H 0.30363 0.52329 0.79328
 H37 H 0.27544 0.53223 0.72094
 H38 H 0.26758 0.58725 0.72307
 H39 H 0.22900 0.57513 0.78147
 H40 H 0.20702 0.51485 0.55033
 H41 H 0.24492 0.52587 0.50546
 H42 H 0.34186 0.57276 0.18362
 C43 C 0.42302 -0.28888 0.60513
 C44 C 0.42742 -0.28544 0.47818
 C45 C 0.43073 -0.30180 0.39962
 C46 C 0.43637 -0.26250 0.42904
 C47 C 0.42138 -0.27154 0.68506
 C48 C 0.42875 -0.30455 0.66894
 C49 C 0.45160 -0.29540 0.34875
 C50 C 0.45636 -0.31149 0.29872
 C51 C 0.44039 -0.33431 0.29886
 C52 C 0.41906 -0.34059 0.34223
 C53 C 0.41419 -0.32442 0.39055
 C54 C 0.45560 -0.24509 0.48720
 C55 C 0.46271 -0.22300 0.45759
 C56 C 0.45159 -0.21766 0.36287
 C57 C 0.43316 -0.23536 0.29778
 C58 C 0.42551 -0.25764 0.33137
 C59 C 0.40765 -0.26294 0.64454
 C60 C 0.41172 -0.24187 0.68837
 C61 C 0.42981 -0.22882 0.77255
 C62 C 0.44129 -0.23903 0.82667
 C63 C 0.43685 -0.26028 0.78503
 C64 C 0.41275 -0.32675 0.69119
 C65 C 0.41937 -0.34264 0.71784
 C66 C 0.44215 -0.33645 0.72182
 C67 C 0.45786 -0.31355 0.71249
 C68 C 0.45126 -0.29798 0.68480
 H69 H 0.46473 -0.27813 0.35540
 H70 H 0.47302 -0.30619 0.26745
 H71 H 0.40640 -0.35806 0.34250
 H72 H 0.39789 -0.32969 0.42765
 H73 H 0.46454 -0.24856 0.56079
 H74 H 0.47652 -0.21019 0.51315
 H75 H 0.41084 -0.27097 0.28405
 H76 H 0.39516 -0.27158 0.56994
 H77 H 0.40155 -0.23533 0.64942
 H78 H 0.45510 -0.23006 0.89325
 H79 H 0.44729 -0.26663 0.82224
 H80 H 0.39527 -0.33211 0.67772
 H81 H 0.40655 -0.35995 0.72329
 H82 H 0.47551 -0.30747 0.72344
 H83 H 0.46389 -0.28090 0.66792
 H84 H 0.42447 -0.23206 0.22210
 C85 C 1.27481 0.72149 0.56361
 C86 C 1.27713 0.72293 0.43404
 C87 C 1.29606 0.74284 0.37571
 C88 C 1.25700 0.70986 0.35241
 C89 C 1.25424 0.70286 0.61895
 C90 C 1.28776 0.74233 0.64138
 C91 C 1.29174 0.75581 0.28992
 C92 C 1.30859 0.77673 0.25454
 C93 C 1.33055 0.78564 0.30392
 C94 C 1.33509 0.77165 0.38209
 C95 C 1.31813 0.75052 0.41622
 C96 C 1.23908 0.71366 0.36907
 C97 C 1.21847 0.69912 0.31519
 C98 C 1.21540 0.68098 0.23677
 C99 C 1.23395 0.67837 0.21064
 C100 C 1.25469 0.69272 0.26893
 C101 C 1.24675 0.68047 0.58185
 C102 C 1.22483 0.66383 0.60255
 C103 C 1.20967 0.66895 0.66298
 C104 C 1.21815 0.69117 0.71042
 C105 C 1.24001 0.70773 0.68920
 C106 C 1.30616 0.74609 0.71676
 C107 C 1.32163 0.76792 0.75839
 C108 C 1.31923 0.78655 0.72278
 C109 C 1.29922 0.78173 0.65738
 C110 C 1.28374 0.76006 0.61954
 H111 H 1.27500 0.75051 0.25567
 H112 H 1.30361 0.78641 0.19608
 H113 H 1.35172 0.77677 0.41748
 H114 H 1.32207 0.74054 0.47903
 H115 H 1.24068 0.72704 0.43208
 H116 H 1.20476 0.70152 0.34235
 H117 H 1.26854 0.68985 0.25363
 H118 H 1.25751 0.67611 0.52963
 H119 H 1.21998 0.64699 0.57024
 H120 H 1.20768 0.69670 0.75498
 H121 H 1.24508 0.72476 0.71902
 H122 H 1.30934 0.73245 0.73628
 H123 H 1.33560 0.76984 0.81530
 H124 H 1.29570 0.79440 0.62322
 H125 H 1.26950 0.75740 0.56177
 H126 H 1.23234 0.66490 0.14871
 C127 C 0.71881 0.44014 0.48476
 C128 C 0.71889 0.43777 0.35521
 C129 C 0.74029 0.44350 0.29538
 C130 C 0.70065 0.43737 0.27577
 C131 C 0.70466 0.44850 0.54182
 C132 C 0.73708 0.44103 0.56529
 C133 C 0.75713 0.46596 0.29969
 C134 C 0.77906 0.47160 0.27862
 C135 C 0.78472 0.45489 0.25444
 C136 C 0.76763 0.43251 0.23953
 C137 C 0.74546 0.42686 0.25920
 C138 C 0.70520 0.45532 0.19659
 C139 C 0.68849 0.46031 0.16452
 C140 C 0.66665 0.44689 0.20603
 C141 C 0.66160 0.42710 0.26942
 C142 C 0.67846 0.42241 0.30420
 C143 C 0.68869 0.43626 0.63100
 C144 C 0.67373 0.44326 0.67038
 C145 C 0.67418 0.46256 0.61966
 C146 C 0.69123 0.47506 0.53379
 C147 C 0.70650 0.46851 0.49921
 C148 C 0.74217 0.42366 0.55750
 C149 C 0.76268 0.42698 0.60287
 C150 C 0.77829 0.44755 0.66146
 C151 C 0.77178 0.46388 0.68228
 C152 C 0.75152 0.46073 0.63347
 H153 H 0.75351 0.47903 0.32829
 H154 H 0.79177 0.48903 0.28723
 H155 H 0.77153 0.41929 0.22079
 H156 H 0.73270 0.40942 0.25659
 H157 H 0.72206 0.46704 0.17174
 H158 H 0.69327 0.47577 0.11620
 H159 H 0.67452 0.40830 0.36421
 H160 H 0.68741 0.42102 0.66760
 H161 H 0.66203 0.43333 0.74097
 H162 H 0.69250 0.48933 0.48494
 H163 H 0.71908 0.47849 0.43214
 H164 H 0.73089 0.40806 0.50822
 H165 H 0.76630 0.41344 0.59013
 H166 H 0.78309 0.48012 0.72466
 H167 H 0.74798 0.47443 0.64016
 H168 H 0.64488 0.41590 0.29893
 C169 C 0.56842 0.28324 0.56190
 C170 C 0.57164 0.28601 0.43350
 C171 C 0.56634 0.30204 0.36916
 C172 C 0.57247 0.26823 0.35373
 C173 C 0.55993 0.26046 0.61378
 C174 C 0.56601 0.30019 0.64041
 C175 C 0.54397 0.29626 0.35401
 C176 C 0.53814 0.31219 0.31925
 C177 C 0.55450 0.33463 0.30501
 C178 C 0.57700 0.34016 0.31159
 C179 C 0.58288 0.32384 0.34187
 C180 C 0.55581 0.25616 0.26062
 C181 C 0.55197 0.23527 0.21595
 C182 C 0.56511 0.22618 0.26037
 C183 C 0.58363 0.23971 0.34059
 C184 C 0.58719 0.26045 0.38723
 C185 C 0.57227 0.25539 0.70087
 C186 C 0.56527 0.23299 0.73012
 C187 C 0.54590 0.21511 0.67126
 C188 C 0.53316 0.22100 0.58983
 C189 C 0.53982 0.24316 0.56431
 C190 C 0.58218 0.32290 0.63813
 C191 C 0.57731 0.33945 0.67927
 C192 C 0.55653 0.33363 0.73078
 C193 C 0.54146 0.31069 0.74740
 C194 C 0.54603 0.29422 0.70118
 H195 H 0.53095 0.27959 0.37561
 H196 H 0.52066 0.30711 0.31022
 H197 H 0.59003 0.35729 0.30131
 H198 H 0.60024 0.32862 0.35407
 H199 H 0.54432 0.26170 0.23081
 H200 H 0.53755 0.22563 0.15440
 H201 H 0.60042 0.26962 0.45727
 H202 H 0.58764 0.26865 0.74259
 H203 H 0.57524 0.23001 0.79890
 H204 H 0.51867 0.20880 0.53674
 H205 H 0.52987 0.24679 0.49833
 H206 H 0.59808 0.32789 0.59618
 H207 H 0.58987 0.35681 0.66999
 H208 H 0.52512 0.30519 0.78442
 H209 H 0.53321 0.27685 0.70468
 H210 H 0.59473 0.23381 0.37324
 C211 C 0.72379 0.27792 0.64170
 C212 C 0.72983 0.27609 0.52071
 C213 C 0.71700 0.25495 0.44652
 C214 C 0.75232 0.29182 0.47577
 C215 C 0.73841 0.29791 0.72344
 C216 C 0.70541 0.25797 0.70019
 C217 C 0.71986 0.23674 0.47633
 C218 C 0.70392 0.21516 0.43801
 C219 C 0.68542 0.21137 0.36096
 C220 C 0.68412 0.23020 0.31958
 C221 C 0.69952 0.25176 0.36435
 C222 C 0.77086 0.29320 0.54020
 C223 C 0.79222 0.30909 0.50759
 C224 C 0.79564 0.32358 0.40682
 C225 C 0.77701 0.32166 0.33901
 C226 C 0.75546 0.30583 0.37324
 C227 C 0.74987 0.29594 0.82920
 C228 C 0.76975 0.31422 0.87335
 C229 C 0.77857 0.33507 0.81306
 C230 C 0.76435 0.33777 0.72517
 C231 C 0.74469 0.31933 0.67969
 C232 C 0.68320 0.25184 0.67233
 C233 C 0.66608 0.23039 0.70058
 C234 C 0.67098 0.21475 0.75681
 C235 C 0.69323 0.22139 0.78858
 C236 C 0.71017 0.24265 0.76036
 H237 H 0.73335 0.23901 0.53985
 H238 H 0.70569 0.20160 0.47647
 H239 H 0.67085 0.22842 0.25627
 H240 H 0.69724 0.26578 0.33945
 H241 H 0.76873 0.28233 0.61867
 H242 H 0.80606 0.31033 0.56375
 H243 H 0.74129 0.30483 0.32176
 H244 H 0.74506 0.27989 0.86955
 H245 H 0.77895 0.31075 0.94475
 H246 H 0.76872 0.35379 0.68533
 H247 H 0.73549 0.32145 0.60185
 H248 H 0.67924 0.26318 0.62238
 H249 H 0.64913 0.22585 0.67509
 H250 H 0.69779 0.20966 0.82765
 H251 H 0.72715 0.24629 0.77511
 H252 H 0.77909 0.33236 0.25984
 N253 N 0.97689 0.52267 0.11987
 N254 N 0.95701 0.52082 0.11973
 N255 N 1.02609 0.53639 0.18921
 N256 N 1.04635 0.54776 0.23919
 N257 N 1.02310 0.54766 0.09861
 N258 N 1.04116 0.56719 0.08633
 N259 N 0.97934 0.51172 0.21455
 N260 N 0.96098 0.50215 0.28080
 C261 C 0.94745 0.50846 0.22197
 C262 C 1.05533 0.56705 0.17564
 N263 N 1.02757 0.48056 0.13081
 N264 N 1.04660 0.48056 0.12701
 N265 N 0.98199 0.47135 0.23547
 N266 N 0.96408 0.46256 0.30550
 N267 N 0.98150 0.45613 0.15627
 N268 N 0.96367 0.43660 0.17279
 N269 N 1.02901 0.49618 0.21022
 N270 N 1.04926 0.50723 0.26220
 Mn271 Mn 1.00425 0.50410 0.21372
 C272 C 1.05998 0.49709 0.21008
 C273 C 0.95309 0.44078 0.26692
 N274 N 1.01796 0.54145 -0.17254
 N275 N 1.03583 0.56108 -0.18259
 N276 N 0.97099 0.50124 -0.23171
 N277 N 0.95108 0.49050 -0.28811
 N278 N 0.97200 0.51650 -0.15104
 N279 N 0.95305 0.51663 -0.15082
 N280 N 1.01824 0.52673 -0.25276
 N281 N 1.03684 0.53630 -0.31797
 Mn282 Mn 0.99745 0.53220 -0.02629
 C283 C 1.04751 0.55792 -0.27386
 C284 C 0.94015 0.50049 -0.23714
 N285 N 0.97594 0.44972 -0.11527
 N286 N 0.95723 0.43099 -0.09787
 N287 N 1.02056 0.48605 -0.23098
 N288 N 1.03920 0.49600 -0.29418
 N289 N 1.02225 0.47406 -0.13969
 N290 N 1.04180 0.47513 -0.14104
 N291 N 0.97361 0.46080 -0.20960
 N292 N 0.95321 0.44971 -0.25845
 Mn293 Mn 1.00178 0.46491 0.00791
 Mn294 Mn 0.99578 0.49351 -0.23282
 Cl295 Cl 0.99979 0.49868 -0.00941
 C296 C 0.94326 0.43101 -0.18899
 C297 C 1.05206 0.48862 -0.23844
 N298 N 0.48598 0.46147 -0.20168
 N299 N 0.49556 0.45118 -0.25773
 N300 N 0.45036 0.47330 -0.10047
 N301 N 0.43210 0.47469 -0.08651
 N302 N 0.46042 0.48346 -0.20404
 N303 N 0.44908 0.49170 -0.26268
 N304 N 0.47578 0.45082 -0.09969
 N305 N 0.47825 0.43309 -0.08459
 C306 C 0.49041 0.43335 -0.18450
 C307 C 0.43132 0.48597 -0.18943
 N308 N 0.47410 0.49812 0.23900
 N309 N 0.46533 0.50885 0.29903
 N310 N 0.48390 0.45970 0.16978
 N311 N 0.48503 0.44117 0.18043
 N312 N 0.49971 0.47603 0.23920
 N313 N 0.51221 0.46896 0.29648
 N314 N 0.45878 0.48136 0.16997
 N315 N 0.43924 0.47989 0.18407
 Mn316 Mn 0.46696 0.46606 0.03484
 C317 C 0.44351 0.49693 0.26579
 C318 C 0.50252 0.44711 0.26077
 N319 N 0.49963 0.52519 -0.24994
 N320 N 0.48701 0.53221 -0.30631
 N321 N 0.54060 0.52003 -0.17915
 N322 N 0.56014 0.52134 -0.19020
 N323 N 0.52537 0.50305 -0.24742
 N324 N 0.53421 0.49203 -0.30367
 N325 N 0.51543 0.54153 -0.18072
 N326 N 0.51427 0.56003 -0.19096
 Mn327 Mn 0.49278 0.49319 -0.22748
 C328 C 0.49671 0.55405 -0.27052
 C329 C 0.55595 0.50395 -0.26866
 N330 N 0.53884 0.51790 0.19264
 N331 N 0.55038 0.50974 0.24958
 N332 N 0.52311 0.55045 0.08888
 N333 N 0.52061 0.56822 0.07551
 N334 N 0.51329 0.53979 0.19172
 N335 N 0.50403 0.55014 0.25036
 N336 N 0.54885 0.52854 0.09020
 N337 N 0.56736 0.52771 0.07555
 Mn338 Mn 0.50657 0.50806 0.21725
 Mn339 Mn 0.53220 0.53536 -0.04523
 Cl340 Cl 0.49961 0.50066 -0.00513
 C341 C 0.56827 0.51617 0.17644
 C342 C 0.50891 0.56798 0.17784
 N343 N 0.45331 -0.02074 0.10042
 N344 N 0.43432 -0.03979 0.09123
 N345 N 0.49038 0.02675 0.19434
 N346 N 0.50025 0.04677 0.25049
 N347 N 0.47906 0.02663 0.09264
 N348 N 0.48111 0.04663 0.07719
 N349 N 0.46461 -0.02040 0.20275
 N350 N 0.45353 -0.03912 0.26529
 C351 C 0.43453 -0.05100 0.19564
 C352 C 0.49415 0.05896 0.17722
 N353 N 0.54443 0.02140 0.17081
 N354 N 0.56430 0.03915 0.18110
 N355 N 0.50407 -0.02351 0.24740
 N356 N 0.49237 -0.04242 0.30778
 N357 N 0.51903 -0.02482 0.17791
 N358 N 0.51835 -0.04415 0.19211
 N359 N 0.53015 0.02414 0.23899
 N360 N 0.54000 0.04427 0.29443
 Mn361 Mn 0.49724 0.00181 0.22239
 C362 C 0.56135 0.05318 0.25884
 C363 C 0.50185 -0.05485 0.27388
 N364 N 0.48361 0.02316 -0.17616
 N365 N 0.48426 0.04251 -0.18987
 N366 N 0.47266 -0.02576 -0.23799
 N367 N 0.46301 -0.04603 -0.29174
 N368 N 0.45833 -0.02320 -0.16925
 N369 N 0.43862 -0.04122 -0.17766
 N370 N 0.49873 0.02203 -0.24504
 N371 N 0.51048 0.04107 -0.30448
 Mn372 Mn 0.46836 0.00145 -0.03818
 C373 C 0.50090 0.05342 -0.27066
 C374 C 0.44170 -0.05520 -0.25505
 N375 N 0.52350 -0.02847 -0.09121
 N376 N 0.52132 -0.04853 -0.07625
 N377 N 0.53823 0.01886 -0.19967
 N378 N 0.54930 0.03802 -0.25830
 N379 N 0.54943 0.01873 -0.09797
 N380 N 0.56829 0.03776 -0.08561
 N381 N 0.51239 -0.02839 -0.19341
 N382 N 0.50251 -0.04837 -0.25029
 Mn383 Mn 0.53427 -0.00333 0.03992
 Mn384 Mn 0.50558 -0.00335 -0.22063
 Cl385 Cl 0.50136 -0.00086 0.00083
 C386 C 0.50842 -0.06073 -0.17706
 C387 C 0.56817 0.04956 -0.18697
 C388 C 1.15487 0.53409 0.22774
 C389 C 1.16487 0.52685 0.13812
 C390 C 1.18805 0.53604 0.14221
 C391 C 1.20158 0.55231 0.23711
 C392 C 1.19079 0.55990 0.32247
 C393 C 1.16767 0.55064 0.31934
 C394 C 1.13044 0.52387 0.22707
 C395 C 1.12042 0.53062 0.31967
 C396 C 1.09724 0.52147 0.31654
 C397 C 1.08416 0.50543 0.22205
 C398 C 1.09445 0.49813 0.13312
 C399 C 1.11760 0.50737 0.13492
 C400 C 1.15706 0.55689 0.41066
 C401 C 1.13386 0.54665 0.41243
 C402 C 1.15141 0.51010 0.04793
 C403 C 1.12819 0.50053 0.04638
 H404 H 1.16678 0.56955 0.48272
 H405 H 1.12636 0.55120 0.48758
 H406 H 1.15888 0.50412 -0.02093
 H407 H 1.11843 0.48752 -0.02380
 H408 H 1.19527 0.53059 0.06905
 H409 H 1.19975 0.57152 0.40017
 H410 H 1.08947 0.52705 0.38585
 H411 H 1.08454 0.48566 0.06042
 C412 C 0.46560 0.62088 0.23031
 C413 C 0.46948 0.63745 0.14178
 C414 C 0.46007 0.65129 0.16027
 C415 C 0.44693 0.64864 0.26651
 C416 C 0.44214 0.63106 0.35010
 C417 C 0.45158 0.61722 0.33293
 C418 C 0.47695 0.60756 0.21741
 C419 C 0.47376 0.59162 0.30884
 C420 C 0.48495 0.57934 0.29786
 C421 C 0.49880 0.58248 0.19445
 C422 C 0.50163 0.59838 0.10272
 C423 C 0.49085 0.61110 0.11432
 C424 C 0.44793 0.60033 0.41875
 C425 C 0.45893 0.58783 0.40731
 C426 C 0.48327 0.64031 0.03899
 C427 C 0.49366 0.62726 0.02501
 H428 H 0.43681 0.59703 0.49687
 H429 H 0.45585 0.57513 0.47634
 H430 H 0.48624 0.65290 -0.03058
 H431 H 0.50422 0.63006 -0.05541
 H432 H 0.46353 0.66457 0.09457
 H433 H 0.43216 0.62899 0.43252
 H434 H 0.48244 0.56695 0.36811
 H435 H 0.51201 0.60071 0.02192
 C436 C 0.37616 -0.14552 0.25247
 C437 C 0.35901 -0.15730 0.16213
 C438 C 0.34482 -0.18029 0.17548
 C439 C 0.34692 -0.19174 0.28140
 C440 C 0.36505 -0.17951 0.36845
 C441 C 0.37959 -0.15651 0.35433
 C442 C 0.39068 -0.12115 0.24046
 C443 C 0.40785 -0.10929 0.33103
 C444 C 0.42169 -0.08614 0.31866
 C445 C 0.41856 -0.07493 0.21575
 C446 C 0.40113 -0.08710 0.12641
 C447 C 0.38717 -0.11021 0.13825
 C448 C 0.39723 -0.14412 0.44184
 C449 C 0.41109 -0.12094 0.43036
 C450 C 0.35608 -0.14578 0.06094
 C451 C 0.36989 -0.12265 0.04925
 H452 H 0.40033 -0.15239 0.51994
 H453 H 0.42456 -0.11204 0.49922
 H454 H 0.34278 -0.15468 -0.00894
 H455 H 0.36697 -0.11440 -0.02976
 H456 H 0.33231 -0.18909 0.10149
 H457 H 0.36729 -0.18724 0.45213
 H458 H 0.43521 -0.07697 0.38718
 H459 H 0.39870 -0.07870 0.04632
 C460 C 0.85387 0.47438 0.25447
 C461 C 0.83943 0.45857 0.16263
 C462 C 0.81668 0.45181 0.16365
 C463 C 0.80849 0.46093 0.25506
 C464 C 0.82322 0.47636 0.34794
 C465 C 0.84590 0.48326 0.34762
 C466 C 0.87786 0.48207 0.25190
 C467 C 0.89227 0.49785 0.34398
 C468 C 0.91515 0.50551 0.33906
 C469 C 0.92350 0.49800 0.24063
 C470 C 0.90891 0.48215 0.14952
 C471 C 0.88599 0.47393 0.15540
 C472 C 0.86075 0.49888 0.43859
 C473 C 0.88354 0.50603 0.43694
 C474 C 0.84815 0.45029 0.06999
 C475 C 0.87106 0.45797 0.06583
 H476 H 0.85470 0.50559 0.51193
 H477 H 0.89441 0.51807 0.50886
 H478 H 0.83724 0.43819 -0.00181
 H479 H 0.87715 0.45154 -0.00898
 H480 H 0.80548 0.44002 0.09164
 H481 H 0.81697 0.48297 0.42100
 H482 H 0.92651 0.51793 0.40798
 H483 H 0.91551 0.47657 0.07293
 C484 C 0.53411 0.38443 0.29121
 C485 C 0.52269 0.36554 0.36584
 C486 C 0.52980 0.34974 0.37034
 C487 C 0.54777 0.35214 0.29787
 C488 C 0.55912 0.37124 0.22307
 C489 C 0.55237 0.38754 0.21991
 C490 C 0.52682 0.40131 0.28863
 C491 C 0.53839 0.42048 0.21583
 C492 C 0.53115 0.43635 0.21322
 C493 C 0.51235 0.43275 0.28105
 C494 C 0.50103 0.41361 0.35366
 C495 C 0.50828 0.39786 0.35857
 C496 C 0.56341 0.40686 0.14708
 C497 C 0.55659 0.42308 0.14541
 C498 C 0.50444 0.36283 0.43567
 C499 C 0.49725 0.37865 0.43138
 H500 H 0.57749 0.40951 0.09128
 H501 H 0.56561 0.43776 0.08850
 H502 H 0.49564 0.34835 0.49417
 H503 H 0.48311 0.37596 0.48668
 H504 H 0.52145 0.33567 0.43227
 H505 H 0.57297 0.37332 0.16691
 H506 H 0.53946 0.45094 0.15461
 H507 H 0.48639 0.41086 0.40429
 C508 C 0.63202 0.14367 0.30640
 C509 C 0.65362 0.14768 0.33247
 C510 C 0.67109 0.16972 0.34090
 C511 C 0.66708 0.18798 0.33249
 C512 C 0.64513 0.18346 0.30474
 C513 C 0.62773 0.16139 0.28794
 C514 C 0.61359 0.12046 0.29773
 C515 C 0.59205 0.11634 0.26665
 C516 C 0.57453 0.09416 0.26011
 C517 C 0.57875 0.07640 0.28189
 C518 C 0.60046 0.08079 0.30943
 C519 C 0.61795 0.10280 0.31834
 C520 C 0.60603 0.15664 0.25469
 C521 C 0.58859 0.13447 0.24200
 C522 C 0.65739 0.12955 0.34997
 C523 C 0.63981 0.10747 0.34375
 H524 H 0.60249 0.17014 0.23848
 H525 H 0.57227 0.13151 0.21313
 H526 H 0.67404 0.13246 0.36964
 H527 H 0.64339 0.09394 0.35778
 H528 H 0.68774 0.17241 0.35539
 H529 H 0.64124 0.19689 0.29967
 H530 H 0.55787 0.09064 0.23396
 H531 H 0.60372 0.06700 0.32224
 C532 C 0.52798 0.14635 -0.30780
 C533 C 0.54928 0.16269 -0.26564
 C534 C 0.55517 0.18546 -0.26944
 C535 C 0.53972 0.19208 -0.31305
 C536 C 0.51794 0.17484 -0.34727
 C537 C 0.51229 0.15230 -0.34883
 C538 C 0.52179 0.12248 -0.30717
 C539 C 0.50034 0.10625 -0.34870
 C540 C 0.49416 0.08360 -0.34305
 C541 C 0.50929 0.07709 -0.29824
 C542 C 0.53094 0.09345 -0.25940
 C543 C 0.53722 0.11630 -0.26249
 C544 C 0.49107 0.13559 -0.39087
 C545 C 0.48523 0.11295 -0.39122
 C546 C 0.56436 0.15589 -0.22244
 C547 C 0.55835 0.13311 -0.21958
 H548 H 0.47888 0.14005 -0.42420
 H549 H 0.46867 0.10057 -0.42389
 H550 H 0.58094 0.16827 -0.19005
 H551 H 0.57035 0.12864 -0.18330
 H552 H 0.57207 0.19772 -0.24312
 H553 H 0.50482 0.17850 -0.37054
 H554 H 0.47734 0.07093 -0.36970
 H555 H 0.54233 0.08835 -0.22057
 C556 C 0.62414 0.48039 -0.31891
 C557 C 0.62062 0.45953 -0.27892
 C558 C 0.63727 0.45372 -0.29651
 C559 C 0.65781 0.46887 -0.35121
 C560 C 0.66124 0.49045 -0.38088
 C561 C 0.64444 0.49599 -0.36852
 C562 C 0.60628 0.48609 -0.30830
 C563 C 0.60993 0.50700 -0.34912
 C564 C 0.59298 0.51238 -0.33919
 C565 C 0.57243 0.49691 -0.29110
 C566 C 0.56895 0.47610 -0.24891
 C567 C 0.58602 0.47068 -0.25606
 C568 C 0.64763 0.51692 -0.40589
 C569 C 0.63061 0.52229 -0.39686
 C570 C 0.60035 0.44479 -0.22346
 C571 C 0.58350 0.45044 -0.21042
 H572 H 0.66336 0.52918 -0.44366
 H573 H 0.63369 0.53856 -0.42726
 H574 H 0.59748 0.42875 -0.18981
 H575 H 0.56831 0.43876 -0.16536
 H576 H 0.63343 0.43701 -0.27194
 H577 H 0.67701 0.50348 -0.41249
 H578 H 0.59576 0.52866 -0.36768
 H579 H 0.55337 0.46463 -0.20640
 C580 C 0.84831 0.37788 -0.17506
 C581 C 0.83535 0.38025 -0.27063
 C582 C 0.81223 0.36712 -0.26939
 C583 C 0.80159 0.35133 -0.17311
 C584 C 0.81518 0.35056 -0.07258
 C585 C 0.83843 0.36329 -0.07511
 C586 C 0.87272 0.39065 -0.18132
 C587 C 0.88578 0.38812 -0.08665
 C588 C 0.90901 0.40064 -0.09241
 C589 C 0.91906 0.41565 -0.19182
 C590 C 0.90568 0.41747 -0.28770
 C591 C 0.88253 0.40505 -0.28249
 C592 C 0.85203 0.36116 0.01815
 C593 C 0.87530 0.37331 0.01226
 C594 C 0.84581 0.39502 -0.36945
 C595 C 0.86899 0.40702 -0.37560
 H596 H 0.84461 0.34970 0.09506
 H597 H 0.88516 0.37095 0.08510
 H598 H 0.83597 0.39711 -0.44347
 H599 H 0.87651 0.41786 -0.45409
 H600 H 0.80308 0.36829 -0.35034
 H601 H 0.80804 0.33996 0.00777
 H602 H 0.91920 0.39921 -0.01766
 H603 H 0.91325 0.42896 -0.36449
 C604 C 0.46131 -0.15698 -0.19870
 C605 C 0.46389 -0.16878 -0.09820
 C606 C 0.45203 -0.19227 -0.10243
 C607 C 0.43860 -0.20412 -0.21000
 C608 C 0.43585 -0.19177 -0.30849
 C609 C 0.44686 -0.16830 -0.30214
 C610 C 0.47421 -0.13229 -0.19633
 C611 C 0.47143 -0.12049 -0.29630
 C612 C 0.48341 -0.09701 -0.29248
 C613 C 0.49792 -0.08538 -0.18874
 C614 C 0.50078 -0.09752 -0.09033
 C615 C 0.48890 -0.12099 -0.09349
 C616 C 0.44411 -0.15590 -0.39887
 C617 C 0.45615 -0.13241 -0.39587
 C618 C 0.47884 -0.15688 0.00279
 C619 C 0.49118 -0.13339 0.00496
 H620 H 0.43244 -0.16445 -0.47714
 H621 H 0.45333 -0.12351 -0.47142
 H622 H 0.48126 -0.16583 0.07991
 H623 H 0.50265 -0.12489 0.08423
 H624 H 0.45385 -0.20118 -0.02319
 H625 H 0.42608 -0.20016 -0.39356
 H626 H 0.48095 -0.08785 -0.36833
 H627 H 0.51175 -0.08875 -0.00953
 C628 C 0.37607 0.52705 -0.23001
 C629 C 0.37891 0.54129 -0.33098
 C630 C 0.36488 0.55062 -0.34268
 C631 C 0.34820 0.54599 -0.25340
 C632 C 0.34632 0.53241 -0.14966
 C633 C 0.35998 0.52265 -0.13864
 C634 C 0.38989 0.51613 -0.22135
 C635 C 0.38686 0.50169 -0.12108
 C636 C 0.40008 0.49141 -0.11281
 C637 C 0.41613 0.49534 -0.20454
 C638 C 0.41874 0.50970 -0.30559
 C639 C 0.40579 0.52028 -0.31372
 C640 C 0.35743 0.50809 -0.03992
 C641 C 0.37068 0.49786 -0.03096
 C642 C 0.39537 0.54544 -0.41991
 C643 C 0.40860 0.53516 -0.41124
 H644 H 0.34489 0.50435 0.03011
 H645 H 0.36811 0.48670 0.04664
 H646 H 0.39799 0.55664 -0.49731
 H647 H 0.42109 0.53881 -0.48160
 H648 H 0.36637 0.56067 -0.42430
 H649 H 0.33393 0.52901 -0.07888
 H650 H 0.39807 0.48061 -0.03410
 H651 H 0.43117 0.51303 -0.37621
 C652 C 1.14041 0.62223 -0.32030
 C653 C 1.15308 0.61904 -0.41200
 C654 C 1.17605 0.63417 -0.41586
 C655 C 1.18660 0.65275 -0.32876
 C656 C 1.17317 0.65523 -0.23652
 C657 C 1.15026 0.64034 -0.23320
 C658 C 1.11631 0.60631 -0.31536
 C659 C 1.10377 0.60963 -0.22337
 C660 C 1.08117 0.59412 -0.21525
 C661 C 1.07092 0.57502 -0.29708
 C662 C 1.08353 0.57232 -0.39264
 C663 C 1.10628 0.58815 -0.40269
 C664 C 1.13693 0.64342 -0.14505
 C665 C 1.11409 0.62838 -0.14052
 C666 C 1.14235 0.60104 -0.50008
 C667 C 1.11933 0.58615 -0.49687
 H668 H 1.14422 0.65774 -0.08005
 H669 H 1.10438 0.63149 -0.07192
 H670 H 1.15187 0.59840 -0.57189
 H671 H 1.11162 0.57286 -0.56824
 H672 H 1.18524 0.63187 -0.49126
 H673 H 1.18036 0.66836 -0.16396
 H674 H 1.07173 0.59666 -0.14194
 H675 H 1.07581 0.55789 -0.45699
 C676 C 0.84607 0.46710 -0.28287
 C677 C 0.83613 0.47553 -0.19977
 C678 C 0.81338 0.46814 -0.21409
 C679 C 0.80043 0.45254 -0.31192
 C680 C 0.81071 0.44357 -0.39080
 C681 C 0.83352 0.45112 -0.37818
 C682 C 0.87024 0.47586 -0.27314
 C683 C 0.88040 0.46824 -0.36011
 C684 C 0.90342 0.47654 -0.35021
 C685 C 0.91617 0.49253 -0.25472
 C686 C 0.90576 0.50046 -0.17078
 C687 C 0.88283 0.49221 -0.17963
 C688 C 0.84429 0.44408 -0.46438
 C689 C 0.86736 0.45283 -0.45670
 C690 C 0.84927 0.49176 -0.10647
 C691 C 0.87224 0.49997 -0.09656
 H692 H 0.83491 0.43229 -0.54105
 H693 H 0.87518 0.44791 -0.52852
 H694 H 0.84175 0.49828 -0.04114
 H695 H 0.88179 0.51248 -0.02328
 H696 H 0.80585 0.47459 -0.14849
 H697 H 0.80159 0.43223 -0.46972
 H698 H 0.91134 0.47055 -0.41623
 H699 H 0.91543 0.51280 -0.09696
 C700 C 0.53260 0.37911 -0.21573
 C701 C 0.54806 0.38306 -0.31038
 C702 C 0.55718 0.36881 -0.32224
 C703 C 0.55016 0.35001 -0.24382
 C704 C 0.53523 0.34703 -0.14607
 C705 C 0.52660 0.36158 -0.13100
 C706 C 0.52193 0.39314 -0.20755
 C707 C 0.50658 0.38924 -0.11213
 C708 C 0.49612 0.40228 -0.10629
 C709 C 0.50068 0.41893 -0.19598
 C710 C 0.51615 0.42265 -0.29114
 C711 C 0.52699 0.40991 -0.29658
 C712 C 0.51161 0.35857 -0.03471
 C713 C 0.50188 0.37227 -0.02492
 C714 C 0.55339 0.40061 -0.39464
 C715 C 0.54289 0.41368 -0.38851
 H716 H 0.50717 0.34535 0.03282
 H717 H 0.49029 0.36930 0.05018
 H718 H 0.56536 0.40392 -0.46803
 H719 H 0.54722 0.42680 -0.45651
 H720 H 0.56827 0.37140 -0.39961
 H721 H 0.53034 0.33343 -0.08080
 H722 H 0.48446 0.39948 -0.03184
 H723 H 0.52005 0.43566 -0.35945
 C724 C 0.62499 0.14475 -0.21229
 C725 C 0.64121 0.15598 -0.11600
 C726 C 0.65515 0.17913 -0.12240
 C727 C 0.65359 0.19104 -0.22663
 C728 C 0.63671 0.17957 -0.32059
 C729 C 0.62226 0.15643 -0.31321
 C730 C 0.61083 0.12024 -0.20826
 C731 C 0.59464 0.10893 -0.30476
 C732 C 0.58119 0.08561 -0.30023
 C733 C 0.58379 0.07371 -0.19941
 C734 C 0.60023 0.08534 -0.10396
 C735 C 0.61380 0.10859 -0.10801
 C736 C 0.60547 0.14460 -0.40606
 C737 C 0.59194 0.12125 -0.40212
 C738 C 0.64362 0.14376 -0.01706
 C739 C 0.63018 0.12045 -0.01334
 H740 H 0.60273 0.15348 -0.48203
 H741 H 0.57912 0.11279 -0.47517
 H742 H 0.65624 0.15224 0.05707
 H743 H 0.63277 0.11161 0.06362
 H744 H 0.66768 0.18777 -0.04791
 H745 H 0.63545 0.18838 -0.40224
 H746 H 0.56841 0.07682 -0.37334
 H747 H 0.60216 0.07640 -0.02503
 C748 C 1.14528 0.52130 -0.28288
 C749 C 1.15278 0.50575 -0.29442
 C750 C 1.17551 0.51341 -0.30064
 C751 C 1.19091 0.53650 -0.30320
 C752 C 1.18311 0.55197 -0.28951
 C753 C 1.16027 0.54439 -0.27703
 C754 C 1.12125 0.51314 -0.27694
 C755 C 1.11357 0.52856 -0.26324
 C756 C 1.09059 0.52055 -0.25781
 C757 C 1.07568 0.49734 -0.26195
 C758 C 1.08365 0.48219 -0.27401
 C759 C 1.10640 0.48998 -0.28325
 C760 C 1.15200 0.55935 -0.26155
 C761 C 1.12907 0.55156 -0.25364
 C762 C 1.13743 0.48276 -0.30049
 C763 C 1.11460 0.47500 -0.29540
 H764 H 1.16332 0.57723 -0.25695
 H765 H 1.12341 0.56365 -0.24187
 H766 H 1.14312 0.47066 -0.31001
 H767 H 1.10328 0.45712 -0.30017
 H768 H 1.18110 0.50120 -0.30532
 H769 H 1.19458 0.56978 -0.29251
 H770 H 1.08437 0.53218 -0.24528
 H771 H 1.07210 0.46434 -0.27495
 C772 C 0.46415 0.61590 -0.27660
 C773 C 0.44418 0.61068 -0.21773
 C774 C 0.43674 0.62643 -0.21760
 C775 C 0.44933 0.64743 -0.27481
 C776 C 0.46931 0.65198 -0.33388
 C777 C 0.47678 0.63647 -0.33449
 C778 C 0.47186 0.59936 -0.28010
 C779 C 0.49180 0.60469 -0.34026
 C780 C 0.49920 0.58907 -0.34276
 C781 C 0.48671 0.56827 -0.28712
 C782 C 0.46667 0.56293 -0.22794
 C783 C 0.45917 0.57857 -0.22361
 C784 C 0.49656 0.64115 -0.39399
 C785 C 0.50401 0.62554 -0.39638
 C786 C 0.43214 0.58986 -0.15979
 C787 C 0.43958 0.57413 -0.16211
 H788 H 0.50640 0.65705 -0.43895
 H789 H 0.51938 0.62977 -0.44297
 H790 H 0.41685 0.58568 -0.11240
 H791 H 0.42989 0.55835 -0.11567
 H792 H 0.42161 0.62252 -0.16921
 H793 H 0.47873 0.66717 -0.38586
 H794 H 0.51485 0.59319 -0.38570
 H795 H 0.45759 0.54714 -0.18055
 C796 C 0.37189 -0.14611 -0.25967
 C797 C 0.37640 -0.16321 -0.22707
 C798 C 0.35894 -0.18546 -0.22850
 C799 C 0.33672 -0.19079 -0.25857
 C800 C 0.33275 -0.17262 -0.27929
 C801 C 0.35016 -0.15066 -0.28558
 C802 C 0.39023 -0.12289 -0.26553
 C803 C 0.38556 -0.10590 -0.29979
 C804 C 0.40289 -0.08384 -0.30282
 C805 C 0.42474 -0.07873 -0.27281
 C806 C 0.42934 -0.09584 -0.23930
 C807 C 0.41199 -0.11806 -0.23450
 C808 C 0.34612 -0.13319 -0.31846
 C809 C 0.36356 -0.11119 -0.32652
 C810 C 0.39838 -0.15774 -0.19578
 C811 C 0.41579 -0.13550 -0.19728
 H812 H 0.32935 -0.13657 -0.33953
 H813 H 0.35978 -0.09819 -0.35269
 H814 H 0.40216 -0.17073 -0.16935
 H815 H 0.43233 -0.13195 -0.16915
 H816 H 0.36330 -0.19831 -0.21147
 H817 H 0.31620 -0.17500 -0.29044
 H818 H 0.39938 -0.07049 -0.32520
 H819 H 0.44612 -0.09169 -0.21166
 C820 C 0.47253 -0.14801 0.31867
 C821 C 0.45052 -0.16396 0.28576
 C822 C 0.44369 -0.18680 0.29762
 C823 C 0.45897 -0.19369 0.33754
 C824 C 0.48133 -0.17727 0.36160
 C825 C 0.48802 -0.15452 0.35621
 C826 C 0.47956 -0.12401 0.31330
 C827 C 0.50157 -0.10817 0.34741
 C828 C 0.50833 -0.08542 0.34014
 C829 C 0.49325 -0.07848 0.30094
 C830 C 0.47120 -0.09442 0.26729
 C831 C 0.46430 -0.11736 0.27226
 C832 C 0.50991 -0.13817 0.38865
 C833 C 0.51656 -0.11535 0.38475
 C834 C 0.43573 -0.15670 0.24419
 C835 C 0.44261 -0.13380 0.23581
 H836 H 0.52198 -0.14305 0.41817
 H837 H 0.53360 -0.10323 0.41046
 H838 H 0.41872 -0.16882 0.21785
 H839 H 0.43080 -0.12895 0.20118
 H840 H 0.42640 -0.19901 0.27958
 H841 H 0.49367 -0.18205 0.38614
 H842 H 0.52547 -0.07304 0.36196
 H843 H 0.45988 -0.08897 0.23177
 C844 C 0.37688 0.52286 0.26992
 C845 C 0.35514 0.50691 0.29829
 C846 C 0.33847 0.51273 0.29096
 C847 C 0.34356 0.53502 0.26871
 C848 C 0.36554 0.55065 0.23637
 C849 C 0.38207 0.54444 0.23357
 C850 C 0.39445 0.51670 0.27658
 C851 C 0.41600 0.53222 0.24106
 C852 C 0.43261 0.52616 0.24654
 C853 C 0.42750 0.50466 0.28480
 C854 C 0.40586 0.48925 0.31922
 C855 C 0.38922 0.49519 0.31539
 C856 C 0.40377 0.55944 0.19699
 C857 C 0.42030 0.55321 0.19790
 C858 C 0.35044 0.48544 0.33463
 C859 C 0.36727 0.47976 0.34474
 H860 H 0.40797 0.57603 0.16620
 H861 H 0.43658 0.56492 0.16471
 H862 H 0.33364 0.47301 0.35690
 H863 H 0.36305 0.46310 0.37418
 H864 H 0.32162 0.49969 0.30499
 H865 H 0.37022 0.56782 0.21738
 H866 H 0.44914 0.53763 0.21494
 H867 H 0.40191 0.47247 0.34490
 C868 C 1.14745 0.63191 0.17713
 C869 C 1.16341 0.62490 0.17626
 C870 C 1.18597 0.64105 0.18768
 C871 C 1.19247 0.66403 0.19511
 C872 C 1.17616 0.67057 0.18149
 C873 C 1.15369 0.65468 0.17955
 C874 C 1.12376 0.61516 0.17845
 C875 C 1.10791 0.62232 0.18459
 C876 C 1.08540 0.60636 0.18500
 C877 C 1.07887 0.58356 0.18258
 C878 C 1.09481 0.57650 0.17812
 C879 C 1.11740 0.59233 0.17446
 C880 C 1.13740 0.66121 0.18440
 C881 C 1.11485 0.64527 0.18788
 C882 C 1.15642 0.60189 0.16976
 C883 C 1.13375 0.58586 0.16768
 H884 H 1.14214 0.67879 0.18723
 H885 H 1.10276 0.65094 0.19240
 H886 H 1.16853 0.59622 0.16859
 H887 H 1.12900 0.56830 0.16313
 H888 H 1.19817 0.63561 0.19833
 H889 H 1.18085 0.68811 0.18001
 H890 H 1.07294 0.61160 0.18741
 H891 H 1.08956 0.55877 0.17466
 C892 C 0.53785 0.15509 0.21285
 C893 C 0.55178 0.16625 0.31856
 C894 C 0.56150 0.18958 0.33061
 C895 C 0.55778 0.20195 0.23642
 C896 C 0.54486 0.19044 0.12668
 C897 C 0.53445 0.16701 0.11600
 C898 C 0.52623 0.13041 0.20483
 C899 C 0.51199 0.11920 0.10008
 C900 C 0.50101 0.09572 0.09295
 C901 C 0.50423 0.08354 0.18986
 C902 C 0.51845 0.09509 0.29467
 C903 C 0.52956 0.11852 0.30229
 C904 C 0.52015 0.15520 0.01234
 C905 C 0.50909 0.13171 0.00453
 C906 C 0.55524 0.15380 0.41206
 C907 C 0.54430 0.13034 0.40411
 H908 H 0.51723 0.16421 -0.06251
 H909 H 0.49807 0.12328 -0.07654
 H910 H 0.56650 0.16227 0.49207
 H911 H 0.54757 0.12138 0.47752
 H912 H 0.57097 0.19781 0.41680
 H913 H 0.54232 0.19957 0.05106
 H914 H 0.49032 0.08701 0.01104
 H915 H 0.52119 0.08589 0.36918
 C916 C 0.62279 0.47447 0.18852
 C917 C 0.62067 0.46007 0.28723
 C918 C 0.63457 0.45053 0.29090
 C919 C 0.65007 0.45478 0.19447
 C920 C 0.65101 0.46839 0.09285
 C921 C 0.63787 0.47870 0.09121
 C922 C 0.60928 0.48570 0.18831
 C923 C 0.61193 0.50061 0.09149
 C924 C 0.59904 0.51121 0.09120
 C925 C 0.58349 0.50689 0.18641
 C926 C 0.58118 0.49206 0.28384
 C927 C 0.59405 0.48138 0.28512
 C928 C 0.63998 0.49366 -0.00424
 C929 C 0.62727 0.50449 -0.00391
 C930 C 0.60504 0.45592 0.38164
 C931 C 0.59186 0.46628 0.38010
 H932 H 0.65176 0.49724 -0.07893
 H933 H 0.62952 0.51602 -0.07887
 H934 H 0.60301 0.44461 0.45753
 H935 H 0.57997 0.46259 0.45435
 H936 H 0.63388 0.44060 0.37156
 H937 H 0.66236 0.47145 0.01622
 H938 H 0.60080 0.52242 0.01522
 H939 H 0.56910 0.48848 0.35689
 C940 C 0.86287 0.37399 0.34448
 C941 C 0.84580 0.37926 0.32701
 C942 C 0.82368 0.36259 0.34344
 C943 C 0.81865 0.34076 0.37603
 C944 C 0.83601 0.33565 0.38730
 C945 C 0.85810 0.35221 0.37320
 C946 C 0.88620 0.39155 0.33178
 C947 C 0.90317 0.38606 0.34630
 C948 C 0.92523 0.40258 0.32913
 C949 C 0.93037 0.42454 0.30167
 C950 C 0.91331 0.43002 0.29088
 C951 C 0.89106 0.41337 0.30293
 C952 C 0.87553 0.34741 0.38808
 C953 C 0.89769 0.36404 0.37448
 C954 C 0.85130 0.40124 0.29675
 C955 C 0.87353 0.41795 0.28479
 H956 H 0.87200 0.33063 0.41037
 H957 H 0.91063 0.35961 0.38607
 H958 H 0.83836 0.40564 0.28403
 H959 H 0.87707 0.43467 0.26326
 H960 H 0.81054 0.36683 0.33580
 H961 H 0.83234 0.31879 0.40847
 H962 H 0.93839 0.39835 0.33526
 H963 H 0.91729 0.44688 0.26694
   
