data_POSCAR
  _audit_creation_date              2014-09-24
  _audit_creation_method            'ToBaCCo'
  _symmetry_space_group_name_H-M    'P1'
  _symmetry_Int_Tables_number       1
  _symmetry_cell_setting            triclinic
  loop_
  _symmetry_equiv_pos_as_xyz
 x,y,z
_cell_length_a 28.1509
_cell_length_b 28.0483
_cell_length_c 28.0181
_cell_angle_alpha 89.912100
_cell_angle_beta 90.003100
_cell_angle_gamma 89.971000
loop_
  _atom_site_label
  _atom_site_type_symbol
  _atom_site_fract_x
  _atom_site_fract_y
  _atom_site_fract_z
C1 C 0.18264 1.24447 0.18536
 N2 N 0.22227 1.22561 0.16510
 C3 C 0.24297 1.18611 0.18398
 N4 N 0.22369 1.16522 0.22321
 C5 C 0.18410 1.18379 0.24383
 N6 N 0.16371 1.22339 0.22471
 C7 C 0.81397 0.75759 0.18461
 N8 N 0.83394 0.77726 0.22413
 C9 C 0.81644 0.81844 0.24267
 N10 N 0.77851 0.83979 0.22153
 C11 C 0.75788 0.82005 0.18247
 N12 N 0.77588 0.77914 0.16396
 C13 C 0.81862 1.24173 -0.18681
 N14 N 0.77746 1.22342 -0.16937
 C15 C 0.75778 1.18412 -0.18959
 N16 N 0.77944 1.16319 -0.22748
 C17 C 0.82059 1.18128 -0.24524
 N18 N 0.84019 1.22039 -0.22453
 C19 C 0.18031 0.75617 -0.17942
 N20 N 0.21954 0.77646 -0.15983
 C21 C 0.24096 0.81414 -0.18141
 N22 N 0.22259 0.83199 -0.22255
 C23 C 0.18301 0.81237 -0.24218
 N24 N 0.16212 0.77438 -0.22052
 C25 C 0.54304 1.08893 -0.03693
 H26 H 0.52209 1.10683 -0.01007
 C27 C 0.57595 1.11494 -0.06375
 H28 H 0.57939 1.15290 -0.05772
 C29 C 0.56614 1.01740 -0.07539
 H30 H 0.56287 0.97912 -0.07878
 C31 C 0.59899 1.04203 -0.10335
 H32 H 0.62075 1.02231 -0.12834
 N33 N 0.53884 1.04103 -0.04315
 C34 C 0.45630 1.03536 0.08275
 H35 H 0.47804 1.00879 0.10019
 C36 C 0.42325 1.06127 0.10942
 H37 H 0.42050 1.05487 0.14744
 C38 C 0.43146 1.07400 0.01173
 H39 H 0.43415 1.07782 -0.02661
 C40 C 0.39844 1.10110 0.03706
 H41 H 0.37596 1.12588 0.01783
 Zn42 Zn 0.49952 1.00349 -0.00338
 N43 N 0.45973 1.04213 0.03478
 C44 C 0.56908 0.99018 0.06605
 N45 N 0.54080 0.96636 0.03483
 C46 C 0.54504 0.91847 0.02857
 C47 C 0.57882 0.89262 0.05447
 C48 C 0.60287 0.96571 0.09307
 C49 C 0.45383 0.97030 -0.08784
 C50 C 0.42037 0.94357 -0.11314
 C51 C 0.39803 0.90478 -0.03943
 C52 C 0.43148 0.93257 -0.01552
 N53 N 0.45875 0.96432 -0.03990
 H54 H 0.56569 1.02845 0.06950
 H55 H 0.52325 0.90041 0.00251
 H56 H 0.58207 0.85462 0.04857
 H57 H 0.62523 0.98552 0.11742
 H58 H 0.47478 0.99676 -0.10634
 H59 H 0.41652 0.94929 -0.15117
 H60 H 0.37643 0.88007 -0.01915
 H61 H 0.43538 0.92935 0.02276
 C62 C 0.39359 1.09447 0.08651
 C63 C 0.60470 1.09139 -0.09727
 C64 C 0.39175 0.91044 -0.08884
 C65 C 0.60843 0.91632 0.08710
 C66 C -0.03537 0.54450 1.08971
 H67 H -0.00781 0.52411 1.10718
 C68 C -0.06170 0.57760 1.11595
 H69 H -0.05460 0.58173 1.15370
 C70 C -0.07602 0.56616 1.01885
 H71 H -0.08041 0.56233 0.98068
 C72 C -0.10357 0.59912 1.04378
 H73 H -0.12927 0.62041 1.02443
 N74 N -0.04293 0.53946 1.04202
 C75 C 0.08209 0.45564 1.03457
 H76 H 0.09900 0.47674 1.00712
 C77 C 0.10886 0.42247 1.06036
 H78 H 0.14646 0.41899 1.05299
 C79 C 0.01215 0.43243 1.07553
 H80 H -0.02584 0.43576 1.08028
 C81 C 0.03764 0.39938 1.10259
 H82 H 0.01891 0.37749 1.12828
 Zn83 Zn -0.00371 0.49996 1.00414
 N84 N 0.03462 0.45997 1.04256
 C85 C 0.06621 0.56887 0.99009
 N86 N 0.03404 0.54136 0.96669
 C87 C 0.02660 0.54640 0.91897
 C88 C 0.05227 0.58019 0.89288
 C89 C 0.09310 0.60256 0.96532
 C90 C -0.08789 0.45369 0.97154
 C91 C -0.11310 0.42022 0.94467
 C92 C -0.04000 0.39876 0.90493
 C93 C -0.01617 0.43222 0.93286
 N94 N -0.04029 0.45907 0.96512
 H95 H 0.07057 0.56491 1.02826
 H96 H -0.00019 0.52524 0.90130
 H97 H 0.04547 0.58410 0.85504
 H98 H 0.11827 0.62429 0.98477
 H99 H -0.10617 0.47428 0.99842
 H100 H -0.15086 0.41602 0.95071
 H101 H -0.01990 0.37754 0.87977
 H102 H 0.02186 0.43648 0.92927
 C103 C 0.08657 0.39365 1.09474
 C104 C -0.09612 0.60566 1.09289
 C105 C -0.08907 0.39206 0.91097
 C106 C 0.08595 0.60891 0.91612
 C107 C 1.08925 -0.03549 0.54445
 H108 H 1.10671 -0.00782 0.52413
 C109 C 1.11526 -0.06203 0.57767
 H110 H 1.15283 -0.05497 0.58198
 C111 C 1.01864 -0.07626 0.56576
 H112 H 0.98067 -0.08065 0.56172
 C113 C 1.04334 -0.10402 0.59884
 H114 H 1.02399 -0.12985 0.62000
 N115 N 1.04180 -0.04302 0.53919
 C116 C 1.03397 0.08234 0.45477
 H117 H 1.00645 0.09921 0.47566
 C118 C 1.05951 0.10925 0.42151
 H119 H 1.05188 0.14691 0.41778
 C120 C 1.07535 0.01234 0.43211
 H121 H 1.08037 -0.02574 0.43566
 C122 C 1.10217 0.03798 0.39898
 H123 H 1.12795 0.01927 0.37728
 Zn124 Zn 1.00412 -0.00372 0.49945
 N125 N 1.04230 0.03478 0.45941
 C126 C 0.98989 0.06665 0.56811
 N127 N 0.96671 0.03417 0.54071
 C128 C 0.91925 0.02656 0.54576
 C129 C 0.89319 0.05241 0.57939
 C130 C 0.96514 0.09371 0.60167
 C131 C 0.97257 -0.08826 0.45285
 C132 C 0.94603 -0.11377 0.41934
 C133 C 0.90508 -0.04092 0.39851
 C134 C 0.93278 -0.01675 0.43192
 N135 N 0.96545 -0.04062 0.45852
 H136 H 1.02786 0.07114 0.56416
 H137 H 0.90176 -0.00050 0.52473
 H138 H 0.85556 0.04547 0.58328
 H139 H 0.98442 0.11913 0.62330
 H140 H 0.99978 -0.10630 0.47323
 H141 H 0.95262 -0.15154 0.41489
 H142 H 0.87957 -0.02105 0.37748
 H143 H 0.92867 0.02134 0.43634
 C144 C 1.09397 0.08700 0.39292
 C145 C 1.09220 -0.09663 0.60560
 C146 C 0.91187 -0.09002 0.39152
 C147 C 0.91620 0.08643 0.60798
 N148 N 0.11809 0.29973 1.18179
 C149 C 0.16011 0.28348 1.16441
 N150 N 0.17868 0.30470 1.12500
 N151 N 0.15586 0.34041 1.10353
 C152 C 0.11345 0.35618 1.12044
 N153 N 0.09515 0.33524 1.16014
 N154 N -0.12708 0.69617 1.18338
 C155 C -0.16572 0.71747 1.16360
 N156 N -0.18258 0.70052 1.12150
 N157 N -0.16108 0.66435 1.09959
 C158 C -0.12205 0.64344 1.11900
 N159 N -0.10575 0.65981 1.16157
 N160 N -0.11449 0.29670 0.82374
 C161 C -0.15867 0.28248 0.83685
 N162 N -0.18052 0.30517 0.87356
 N163 N -0.15881 0.34059 0.89651
 C164 C -0.11434 0.35454 0.88380
 N165 N -0.09274 0.33197 0.84681
 N166 N 0.11889 0.69735 0.82396
 C167 C 0.15783 0.71825 0.84347
 N168 N 0.17372 0.70227 0.88638
 N169 N 0.15121 0.66721 0.90915
 C170 C 0.11210 0.64647 0.88982
 N171 N 0.09656 0.66209 0.84663
 N172 N 1.18076 0.11904 0.29928
 C173 C 1.16315 0.16100 0.28272
 N174 N 1.12362 0.17933 0.30359
 N175 N 1.10227 0.15636 0.33928
 C176 C 1.11944 0.11401 0.35539
 N177 N 1.15923 0.09593 0.33478
 N178 N 1.12016 -0.18362 0.70068
 C179 C 1.16222 -0.16706 0.71763
 N180 N 1.18219 -0.12846 0.69626
 N181 N 1.16059 -0.10686 0.65984
 C182 C 1.11806 -0.12285 0.64347
 N183 N 1.09847 -0.16186 0.66445
 N184 N 0.82373 -0.11696 0.29764
 C185 C 0.83869 -0.16004 0.28148
 N186 N 0.87691 -0.18076 0.30266
 N187 N 0.89955 -0.15900 0.33825
 C188 C 0.88503 -0.11557 0.35397
 N189 N 0.84652 -0.09512 0.33306
 N190 N 0.82403 0.11986 0.69574
 C191 C 0.84351 0.15875 0.71691
 N192 N 0.88642 0.17447 0.70133
 N193 N 0.90921 0.15184 0.66640
 C194 C 0.88991 0.11275 0.64539
 N195 N 0.84672 0.09739 0.66062
 N196 N 0.30683 1.12652 0.18015
 C197 C 0.28401 1.16423 0.16016
 N198 N 0.29821 1.17986 0.11658
 N199 N 0.33355 1.15822 0.09359
 C200 C 0.35624 1.12024 0.11333
 N201 N 0.34235 1.10504 0.15724
 N202 N 0.70072 1.11845 -0.18298
 C203 C 0.71560 1.16198 -0.16813
 N204 N 0.69280 1.18309 -0.13106
 N205 N 0.65673 1.16125 -0.10936
 C206 C 0.64224 1.11733 -0.12369
 N207 N 0.66481 1.09654 -0.16114
 N208 N 0.29600 0.82406 -0.11431
 C209 C 0.28188 0.83734 -0.15869
 N210 N 0.30479 0.87384 -0.18067
 N211 N 0.34032 0.89644 -0.15890
 C212 C 0.35417 0.88358 -0.11422
 N213 N 0.33137 0.84678 -0.09249
 N214 N 0.69476 0.82317 0.12199
 C215 C 0.71782 0.84411 0.15898
 N216 N 0.70419 0.88834 0.17297
 N217 N 0.66909 0.91100 0.15051
 C218 C 0.64607 0.89025 0.11332
 N219 N 0.65949 0.84576 0.09968
   
