data_POSCAR
  _audit_creation_date              2014-09-24
  _audit_creation_method            'ToBaCCo'
  _symmetry_space_group_name_H-M    'P1'
  _symmetry_Int_Tables_number       1
  _symmetry_cell_setting            triclinic
  loop_
  _symmetry_equiv_pos_as_xyz
 x,y,z
_cell_length_a 50.0339
_cell_length_b 38.7663
_cell_length_c 34.7410
_cell_angle_alpha 90.154500
_cell_angle_beta 90.031600
_cell_angle_gamma 90.107900
loop_
  _atom_site_label
  _atom_site_type_symbol
  _atom_site_fract_x
  _atom_site_fract_y
  _atom_site_fract_z
C1 C 0.24954 0.26381 0.24918
 C2 C 0.24945 0.22863 0.24924
 C3 C 0.22964 0.20849 0.22650
 C4 C 0.26916 0.20860 0.27204
 C5 C 0.27109 0.28401 0.26825
 C6 C 0.22809 0.28395 0.23006
 C7 C 0.21376 0.18355 0.24477
 C8 C 0.19453 0.16512 0.22394
 C9 C 0.19112 0.17124 0.18448
 C10 C 0.20734 0.19558 0.16590
 C11 C 0.22659 0.21397 0.18676
 C12 C 0.27224 0.21437 0.31177
 C13 C 0.29144 0.19609 0.33265
 C14 C 0.30752 0.17164 0.31413
 C15 C 0.30411 0.16521 0.27476
 C16 C 0.28496 0.18349 0.25384
 C17 C 0.29809 0.27858 0.25887
 C18 C 0.31815 0.29767 0.27722
 C19 C 0.31139 0.32257 0.30481
 C20 C 0.28452 0.32847 0.31380
 C21 C 0.26446 0.30939 0.29552
 C22 C 0.23484 0.30914 0.20276
 C23 C 0.21488 0.32821 0.18447
 C24 C 0.18797 0.32247 0.19350
 C25 C 0.18110 0.29774 0.22110
 C26 C 0.20106 0.27867 0.23945
 H27 H 0.21593 0.17882 0.27533
 H28 H 0.18222 0.14633 0.23877
 H29 H 0.20509 0.20053 0.13537
 H30 H 0.23901 0.23263 0.17200
 H31 H 0.25991 0.23315 0.32649
 H32 H 0.29382 0.20114 0.36315
 H33 H 0.28277 0.17854 0.22330
 H34 H 0.30358 0.25960 0.23737
 H35 H 0.33888 0.29303 0.26991
 H36 H 0.27908 0.34774 0.33503
 H37 H 0.24377 0.31410 0.30296
 H38 H 0.25556 0.31374 0.19531
 H39 H 0.22041 0.34735 0.16324
 H40 H 0.16034 0.29323 0.22843
 H41 H 0.19547 0.25984 0.26098
 H42 H 0.31641 0.14628 0.26017
 C43 C 0.75009 0.23005 0.24980
 C44 C 0.75007 0.26523 0.24974
 C45 C 0.77158 0.28540 0.23071
 C46 C 0.72853 0.28538 0.26871
 C47 C 0.73033 0.20998 0.27253
 C48 C 0.76989 0.20995 0.22713
 C49 C 0.79859 0.28015 0.24022
 C50 C 0.81862 0.29918 0.22187
 C51 C 0.81184 0.32384 0.19418
 C52 C 0.78496 0.32957 0.18506
 C53 C 0.76493 0.31054 0.20333
 C54 C 0.73515 0.31078 0.29601
 C55 C 0.71510 0.32980 0.31422
 C56 C 0.68823 0.32382 0.30514
 C57 C 0.68148 0.29890 0.27752
 C58 C 0.70153 0.27988 0.25923
 C59 C 0.71452 0.18481 0.25428
 C60 C 0.69534 0.16646 0.27513
 C61 C 0.69190 0.17288 0.31450
 C62 C 0.70799 0.19739 0.33307
 C63 C 0.72721 0.21574 0.31225
 C64 C 0.77300 0.21545 0.18739
 C65 C 0.79225 0.19709 0.16664
 C66 C 0.80837 0.17283 0.18528
 C67 C 0.80494 0.16667 0.22467
 C68 C 0.78572 0.18503 0.24546
 H69 H 0.80411 0.26136 0.26180
 H70 H 0.83935 0.29468 0.22928
 H71 H 0.77949 0.34865 0.16375
 H72 H 0.74423 0.31512 0.19580
 H73 H 0.75585 0.31555 0.30352
 H74 H 0.72054 0.34908 0.33548
 H75 H 0.69603 0.26089 0.23771
 H76 H 0.71673 0.17986 0.22375
 H77 H 0.68304 0.14749 0.26051
 H78 H 0.70559 0.20244 0.36355
 H79 H 0.73955 0.23457 0.32701
 H80 H 0.76063 0.23408 0.17257
 H81 H 0.79465 0.20193 0.13613
 H82 H 0.81726 0.14789 0.23935
 H83 H 0.78351 0.18028 0.27600
 H84 H 0.66074 0.29420 0.27014
 C85 C 0.75035 0.76643 0.75052
 C86 C 0.75028 0.73125 0.75044
 C87 C 0.73043 0.71116 0.72773
 C88 C 0.77006 0.71116 0.77306
 C89 C 0.77197 0.78658 0.76948
 C90 C 0.72881 0.78659 0.73164
 C91 C 0.71462 0.68611 0.74598
 C92 C 0.69539 0.66771 0.72514
 C93 C 0.69191 0.67396 0.68578
 C94 C 0.70799 0.69838 0.66721
 C95 C 0.72727 0.71677 0.68802
 C96 C 0.77326 0.71682 0.81279
 C97 C 0.79247 0.69844 0.83351
 C98 C 0.80847 0.67399 0.81483
 C99 C 0.80496 0.66769 0.77545
 C100 C 0.78578 0.68607 0.75470
 C101 C 0.79893 0.78116 0.75989
 C102 C 0.81907 0.80014 0.77819
 C103 C 0.81244 0.82497 0.80596
 C104 C 0.78557 0.83087 0.81515
 C105 C 0.76545 0.81187 0.79690
 C106 C 0.73542 0.81185 0.70435
 C107 C 0.71536 0.83084 0.68619
 C108 C 0.68849 0.82497 0.69534
 C109 C 0.68176 0.80020 0.72297
 C110 C 0.70182 0.78121 0.74120
 H111 H 0.71687 0.68126 0.77650
 H112 H 0.68309 0.64881 0.73976
 H113 H 0.70556 0.70330 0.63673
 H114 H 0.73961 0.73551 0.67326
 H115 H 0.76098 0.73559 0.82764
 H116 H 0.79493 0.70340 0.86401
 H117 H 0.78351 0.68120 0.72415
 H118 H 0.80433 0.76225 0.73827
 H119 H 0.83976 0.79543 0.77065
 H120 H 0.78014 0.85005 0.83650
 H121 H 0.74478 0.81658 0.80450
 H122 H 0.75611 0.81653 0.69678
 H123 H 0.72079 0.85001 0.66493
 H124 H 0.66104 0.79558 0.73040
 H125 H 0.69634 0.76232 0.76272
 H126 H 0.81719 0.64876 0.76074
 C127 C 0.24949 0.73004 0.75072
 C128 C 0.24953 0.76522 0.75083
 C129 C 0.27107 0.78540 0.73187
 C130 C 0.22803 0.78537 0.76990
 C131 C 0.22972 0.70994 0.77339
 C132 C 0.26923 0.70998 0.72792
 C133 C 0.29807 0.78004 0.74131
 C134 C 0.31812 0.79907 0.72302
 C135 C 0.31137 0.82386 0.69544
 C136 C 0.28450 0.82970 0.68640
 C137 C 0.26444 0.81067 0.70461
 C138 C 0.23470 0.81067 0.79727
 C139 C 0.21470 0.82972 0.81556
 C140 C 0.18779 0.82385 0.80647
 C141 C 0.18100 0.79900 0.77876
 C142 C 0.20102 0.77997 0.76042
 C143 C 0.21389 0.68485 0.75506
 C144 C 0.19471 0.66643 0.77585
 C145 C 0.19130 0.67270 0.81528
 C146 C 0.20743 0.69717 0.83392
 C147 C 0.22664 0.71557 0.81313
 C148 C 0.27232 0.71562 0.68820
 C149 C 0.29151 0.69727 0.66732
 C150 C 0.30759 0.67288 0.68581
 C151 C 0.30419 0.66659 0.72517
 C152 C 0.28504 0.68494 0.74609
 H153 H 0.30357 0.76115 0.76279
 H154 H 0.33886 0.79447 0.73037
 H155 H 0.27905 0.84888 0.66518
 H156 H 0.24375 0.81534 0.69713
 H157 H 0.25541 0.81536 0.80479
 H158 H 0.22025 0.84892 0.83686
 H159 H 0.19549 0.76105 0.73883
 H160 H 0.21608 0.68000 0.72451
 H161 H 0.18243 0.64751 0.76107
 H162 H 0.20512 0.70217 0.86445
 H163 H 0.23901 0.73433 0.82795
 H164 H 0.25998 0.73435 0.67350
 H165 H 0.29388 0.70222 0.63683
 H166 H 0.31648 0.64770 0.73974
 H167 H 0.28285 0.68007 0.77662
 H168 H 0.16027 0.79431 0.77129
 O169 O 0.97468 -0.00146 -0.05505
 O170 O 1.02684 0.04634 -0.00220
 O171 O 1.02665 -0.00158 -0.05492
 O172 O 0.97465 0.04643 -0.00232
 O173 O 0.97453 0.00642 0.04293
 O174 O 1.02649 -0.04157 -0.00963
 O175 O 1.02669 0.00633 0.04305
 O176 O 0.97455 -0.04146 -0.00976
 Cu177 Cu 1.00072 0.02652 -0.03314
 Cu178 Cu 1.00056 -0.02156 0.02126
 C179 C 0.96587 -0.02958 -0.04137
 C180 C 1.03563 0.03434 0.02928
 C181 C 1.03528 -0.02973 -0.04120
 C182 C 0.96574 0.03445 0.02911
 O183 O 0.47374 0.49868 0.44487
 O184 O 0.52577 0.54684 0.49757
 O185 O 0.52569 0.49888 0.44491
 O186 O 0.47358 0.54665 0.49752
 O187 O 0.47362 0.50668 0.54283
 O188 O 0.52571 0.45893 0.49025
 O189 O 0.52578 0.50688 0.54288
 O190 O 0.47378 0.45874 0.49020
 Cu191 Cu 0.49969 0.52684 0.46669
 Cu192 Cu 0.49973 0.47882 0.52116
 C193 C 0.46504 0.47052 0.45859
 C194 C 0.53463 0.53491 0.52906
 C195 C 0.53443 0.47078 0.45865
 C196 C 0.46474 0.53466 0.52899
 O197 O -0.02563 0.54696 0.00216
 O198 O 0.02635 0.49883 0.05442
 O199 O 0.02655 0.54682 0.00208
 O200 O -0.02561 0.49899 0.05452
 O201 O -0.02578 0.45906 0.00893
 O202 O 0.02636 0.50687 -0.04349
 O203 O 0.02615 0.45890 0.00883
 O204 O -0.02580 0.50701 -0.04340
 Cu205 Cu 0.00044 0.52698 0.03284
 Cu206 Cu 0.00022 0.47898 -0.02193
 C207 C -0.03456 0.53504 -0.02938
 C208 C 0.03495 0.47067 0.04050
 C209 C 0.03532 0.53485 -0.02950
 C210 C -0.03443 0.47090 0.04063
 O211 O 0.52585 1.00657 0.45748
 O212 O 0.47385 0.95879 0.51020
 O213 O 0.47369 1.00637 0.45746
 O214 O 0.52578 0.95898 0.51022
 O215 O 0.52577 0.99923 0.55546
 O216 O 0.47365 1.04664 0.50267
 O217 O 0.47381 0.99904 0.55544
 O218 O 0.52584 1.04683 0.50269
 Cu219 Cu 0.49979 0.97866 0.47922
 Cu220 Cu 0.49977 1.02705 0.53358
 C221 C 0.53469 1.03470 0.47125
 C222 C 0.46511 0.97079 0.54177
 C223 C 0.46481 1.03444 0.47122
 C224 C 0.53451 0.97105 0.54180
 C225 C 1.17268 0.15458 0.16524
 C226 C 1.15553 0.13930 0.14771
 C227 C 1.13489 0.12112 0.12706
 C228 C 1.12217 0.09271 0.14394
 C229 C 1.10195 0.07519 0.12404
 C230 C 1.09436 0.08602 0.08718
 C231 C 1.10709 0.11442 0.07028
 C232 C 1.12731 0.13194 0.09019
 C233 C 1.07356 0.06795 0.06673
 C234 C 1.05619 0.05269 0.04963
 H235 H 1.12785 0.08415 0.17245
 H236 H 1.09225 0.05326 0.13737
 H237 H 1.10138 0.12300 0.04179
 H238 H 1.13699 0.15390 0.07689
 C239 C 0.67161 0.65561 0.66463
 C240 C 0.65443 0.64032 0.64717
 C241 C 0.63378 0.62210 0.62658
 C242 C 0.62115 0.59363 0.64348
 C243 C 0.60094 0.57606 0.62364
 C244 C 0.59326 0.58688 0.58681
 C245 C 0.60590 0.61534 0.56990
 C246 C 0.62612 0.63292 0.58975
 C247 C 0.57249 0.56873 0.56640
 C248 C 0.55515 0.55338 0.54934
 H249 H 0.62690 0.58507 0.67196
 H250 H 0.59131 0.55408 0.63698
 H251 H 0.60013 0.62392 0.54143
 H252 H 0.63573 0.65492 0.57643
 C253 C -0.16762 0.34324 0.17495
 C254 C -0.15058 0.35957 0.15853
 C255 C -0.13043 0.37912 0.13863
 C256 C -0.13755 0.40881 0.11814
 C257 C -0.11805 0.42764 0.09842
 C258 C -0.09134 0.41685 0.09909
 C259 C -0.08421 0.38721 0.11965
 C260 C -0.10372 0.36838 0.13938
 C261 C -0.07131 0.43606 0.07853
 C262 C -0.05450 0.45204 0.06123
 H263 H -0.15816 0.41732 0.11734
 H264 H -0.12378 0.45050 0.08259
 H265 H -0.06361 0.37864 0.12035
 H266 H -0.09800 0.34544 0.15510
 C267 C 0.33194 0.84325 0.67627
 C268 C 0.34899 0.85958 0.65988
 C269 C 0.36916 0.87912 0.64000
 C270 C 0.39579 0.86803 0.64020
 C271 C 0.41531 0.88685 0.62046
 C272 C 0.40826 0.91683 0.60044
 C273 C 0.38163 0.92796 0.60033
 C274 C 0.36212 0.90914 0.62006
 C275 C 0.42828 0.93600 0.57983
 C276 C 0.44507 0.95196 0.56247
 H277 H 0.40144 0.84484 0.65549
 H278 H 0.43583 0.87801 0.62071
 H279 H 0.37596 0.95108 0.58492
 H280 H 0.34158 0.91792 0.61969
 C281 C -0.17128 0.65565 -0.16411
 C282 C -0.15415 0.64037 -0.14674
 C283 C -0.13355 0.62216 -0.12626
 C284 C -0.12099 0.59371 -0.14335
 C285 C -0.10082 0.57615 -0.12362
 C286 C -0.09311 0.58697 -0.08673
 C287 C -0.10568 0.61541 -0.06963
 C288 C -0.12586 0.63298 -0.08936
 C289 C -0.07237 0.56883 -0.06645
 C290 C -0.05505 0.55350 -0.04951
 H291 H -0.12676 0.58515 -0.17188
 H292 H -0.09124 0.55418 -0.13711
 H293 H -0.09988 0.62399 -0.04111
 H294 H -0.13542 0.65497 -0.07590
 C295 C 0.32777 1.15346 0.33534
 C296 C 0.34492 1.13833 0.35286
 C297 C 0.36556 1.12034 0.37350
 C298 C 0.37813 1.09175 0.35674
 C299 C 0.39835 1.07442 0.37662
 C300 C 0.40609 1.08561 0.41336
 C301 C 0.39350 1.11419 0.43015
 C302 C 0.37328 1.13152 0.41026
 C303 C 0.42688 1.06773 0.43381
 C304 C 0.44425 1.05262 0.45089
 H305 H 0.37233 1.08290 0.32831
 H306 H 0.40794 1.05234 0.36338
 H307 H 0.39933 1.12305 0.45855
 H308 H 0.36371 1.15363 0.42347
 C309 C 1.16835 -0.15775 -0.17535
 C310 C 1.15131 -0.14139 -0.15898
 C311 C 1.13117 -0.12178 -0.13913
 C312 C 1.13833 -0.09205 -0.11852
 C313 C 1.11884 -0.07316 -0.09884
 C314 C 1.09210 -0.08393 -0.09968
 C315 C 1.08492 -0.11362 -0.12037
 C316 C 1.10442 -0.13251 -0.14005
 C317 C 1.07209 -0.06467 -0.07913
 C318 C 1.05531 -0.04864 -0.06184
 H319 H 1.15896 -0.08355 -0.11759
 H320 H 1.12461 -0.05026 -0.08291
 H321 H 1.06430 -0.12218 -0.12119
 H322 H 1.09867 -0.15548 -0.15587
 C323 C 0.66766 0.34321 0.32431
 C324 C 0.65061 0.35954 0.34069
 C325 C 0.63045 0.37909 0.36057
 C326 C 0.60373 0.36823 0.35975
 C327 C 0.58421 0.38706 0.37947
 C328 C 0.59134 0.41681 0.40008
 C329 C 0.61804 0.42771 0.40082
 C330 C 0.63756 0.40889 0.38110
 C331 C 0.57130 0.43599 0.42067
 C332 C 0.55449 0.45196 0.43799
 H333 H 0.59802 0.34521 0.34400
 H334 H 0.56361 0.37840 0.37874
 H335 H 0.62377 0.45066 0.41669
 H336 H 0.65817 0.41748 0.38195
 C337 C 0.83200 -0.15673 -0.17586
 C338 C 0.84915 -0.14046 -0.15947
 C339 C 0.86942 -0.12098 -0.13959
 C340 C 0.89606 -0.13205 -0.14021
 C341 C 0.91568 -0.11330 -0.12048
 C342 C 0.90874 -0.08342 -0.10004
 C343 C 0.88211 -0.07231 -0.09951
 C344 C 0.86250 -0.09106 -0.11924
 C345 C 0.92888 -0.06431 -0.07943
 C346 C 0.94575 -0.04838 -0.06207
 H347 H 0.90162 -0.15517 -0.15583
 H348 H 0.93621 -0.12212 -0.12105
 H349 H 0.87653 -0.04926 -0.08378
 H350 H 0.84195 -0.08230 -0.11854
 C351 C 0.33196 0.34206 0.32403
 C352 C 0.34900 0.35848 0.34044
 C353 C 0.36914 0.37816 0.36036
 C354 C 0.39587 0.36743 0.35966
 C355 C 0.41536 0.38639 0.37942
 C356 C 0.40821 0.41614 0.39994
 C357 C 0.38150 0.42690 0.40055
 C358 C 0.36201 0.40795 0.38081
 C359 C 0.42822 0.43546 0.42055
 C360 C 0.44501 0.45155 0.43790
 H361 H 0.40159 0.34441 0.34398
 H362 H 0.43596 0.37783 0.37877
 H363 H 0.37575 0.44985 0.41635
 H364 H 0.34140 0.41644 0.38156
 C365 C 0.17215 0.65532 -0.16472
 C366 C 0.15504 0.64001 -0.14726
 C367 C 0.13445 0.62179 -0.12668
 C368 C 0.12331 0.59167 -0.14232
 C369 C 0.10313 0.57410 -0.12252
 C370 C 0.09400 0.58660 -0.08702
 C371 C 0.10516 0.61670 -0.07136
 C372 C 0.12534 0.63427 -0.09115
 C373 C 0.07323 0.56850 -0.06669
 C374 C 0.05587 0.55322 -0.04970
 H375 H 0.13019 0.58181 -0.16979
 H376 H 0.09465 0.55085 -0.13489
 H377 H 0.09825 0.62658 -0.04392
 H378 H 0.13380 0.65756 -0.07883
 C379 C 0.67163 1.15460 0.33565
 C380 C 0.65448 1.13939 0.35312
 C381 C 0.63384 1.12128 0.37371
 C382 C 0.62623 1.13226 0.41056
 C383 C 0.60602 1.11479 0.43041
 C384 C 0.59333 1.08629 0.41347
 C385 C 0.60096 1.07530 0.37663
 C386 C 0.62116 1.09276 0.35679
 C387 C 0.57256 1.06826 0.43388
 C388 C 0.55522 1.05303 0.45094
 H389 H 0.63589 1.15430 0.42389
 H390 H 0.60029 1.12350 0.45889
 H391 H 0.59129 1.05329 0.36328
 H392 H 0.62687 1.08408 0.32829
 C393 C 0.16750 0.34198 0.17432
 C394 C 0.15055 0.35842 0.15795
 C395 C 0.13050 0.37813 0.13812
 C396 C 0.10367 0.36776 0.13922
 C397 C 0.08426 0.38676 0.11958
 C398 C 0.09160 0.41620 0.09876
 C399 C 0.11842 0.42660 0.09773
 C400 C 0.13783 0.40761 0.11737
 C401 C 0.07167 0.43557 0.07827
 C402 C 0.05494 0.45168 0.06104
 H403 H 0.09780 0.34498 0.15515
 H404 H 0.06358 0.37847 0.12054
 H405 H 0.12432 0.44931 0.08170
 H406 H 0.15852 0.41583 0.11630
 C407 C 0.66791 0.84430 0.67620
 C408 C 0.65084 0.86056 0.65985
 C409 C 0.63065 0.88000 0.64000
 C410 C 0.63771 0.90978 0.61958
 C411 C 0.61816 0.92848 0.59986
 C412 C 0.59148 0.91748 0.60048
 C413 C 0.58440 0.88776 0.62098
 C414 C 0.60395 0.86905 0.64070
 C415 C 0.57142 0.93653 0.57986
 C416 C 0.55459 0.95237 0.56251
 H417 H 0.65830 0.91844 0.61881
 H418 H 0.62385 0.95141 0.58407
 H419 H 0.56383 0.87902 0.62163
 H420 H 0.59828 0.84605 0.65637
 C421 C 0.82866 0.15455 0.16419
 C422 C 0.84584 0.13932 0.14677
 C423 C 0.86649 0.12120 0.12624
 C424 C 0.87684 0.09040 0.14103
 C425 C 0.89707 0.07291 0.12127
 C426 C 0.90706 0.08616 0.08665
 C427 C 0.89670 0.11695 0.07183
 C428 C 0.87646 0.13444 0.09160
 C429 C 0.92786 0.06811 0.06632
 C430 C 0.94521 0.05284 0.04933
 H431 H 0.86930 0.07995 0.16781
 H432 H 0.90493 0.04912 0.13298
 H433 H 0.90426 0.12741 0.04508
 H434 H 0.86862 0.15825 0.07992
 C435 C 0.32782 0.65460 0.66458
 C436 C 0.34494 0.63937 0.64705
 C437 C 0.36554 0.62126 0.62638
 C438 C 0.37387 0.58864 0.63880
 C439 C 0.39407 0.57116 0.61896
 C440 C 0.40603 0.58622 0.58663
 C441 C 0.39767 0.61882 0.57418
 C442 C 0.37747 0.63630 0.59402
 C443 C 0.42682 0.56820 0.56627
 C444 C 0.44419 0.55298 0.54924
 H445 H 0.36481 0.57679 0.66381
 H446 H 0.40037 0.54596 0.62884
 H447 H 0.40678 0.63069 0.54921
 H448 H 0.37120 0.66153 0.58420
   
