data_POSCAR
  _audit_creation_date              2014-09-24
  _audit_creation_method            'ToBaCCo'
  _symmetry_space_group_name_H-M    'P1'
  _symmetry_Int_Tables_number       1
  _symmetry_cell_setting            triclinic
  loop_
  _symmetry_equiv_pos_as_xyz
 x,y,z
_cell_length_a 63.0439
_cell_length_b 63.0853
_cell_length_c 50.4386
_cell_angle_alpha 89.968000
_cell_angle_beta 90.012400
_cell_angle_gamma 89.800300
loop_
  _atom_site_label
  _atom_site_type_symbol
  _atom_site_fract_x
  _atom_site_fract_y
  _atom_site_fract_z
O1 O 0.02204 0.31685 -0.02232
 O2 O -0.02178 0.31681 0.02609
 O3 O 0.01959 0.31657 0.02927
 O4 O -0.01935 0.31628 -0.02550
 O5 O -0.01891 0.28123 -0.02516
 O6 O 0.01966 0.28151 0.02926
 O7 O -0.02151 0.28175 0.02619
 O8 O 0.02228 0.28179 -0.02208
 Cu9 Cu 0.00010 0.32018 0.00186
 Cu10 Cu 0.00040 0.27805 0.00206
 C11 C 0.02961 0.29931 -0.03028
 C12 C -0.02908 0.29926 0.03425
 C13 C 0.02623 0.29900 0.03842
 C14 C -0.02574 0.29862 -0.03446
 O15 O 0.52177 0.79521 0.47449
 O16 O 0.47869 0.79510 0.52400
 O17 O 0.52003 0.79577 0.52617
 O18 O 0.48043 0.79468 0.47232
 O19 O 0.48109 0.75963 0.47296
 O20 O 0.52060 0.76072 0.52669
 O21 O 0.47937 0.76005 0.52450
 O22 O 0.52230 0.76016 0.47516
 Cu23 Cu 0.50017 0.79873 0.49919
 Cu24 Cu 0.50090 0.75662 0.49989
 C25 C 0.52930 0.77766 0.46649
 C26 C 0.47176 0.77752 0.53258
 C27 C 0.52700 0.77840 0.53549
 C28 C 0.47409 0.77694 0.46356
 O29 O 1.02331 0.67412 0.02380
 O30 O 0.97949 0.67410 -0.02491
 O31 O 1.02105 0.67406 -0.02764
 O32 O 0.98176 0.67373 0.02655
 O33 O 0.98156 0.70879 0.02658
 O34 O 1.02072 0.70911 -0.02737
 O35 O 0.97940 0.70915 -0.02464
 O36 O 1.02287 0.70917 0.02383
 Cu37 Cu 1.00142 0.67044 -0.00056
 Cu38 Cu 1.00111 0.71257 -0.00038
 C39 C 1.03062 0.69173 0.03178
 C40 C 0.97193 0.69169 -0.03275
 C41 C 1.02769 0.69168 -0.03641
 C42 C 0.97487 0.69124 0.03549
 O43 O 0.47926 0.19263 0.47626
 O44 O 0.52239 0.19303 0.52555
 O45 O 0.48094 0.19353 0.52783
 O46 O 0.52070 0.19314 0.47396
 O47 O 0.52037 0.22819 0.47366
 O48 O 0.48100 0.22859 0.52724
 O49 O 0.52227 0.22808 0.52503
 O50 O 0.47911 0.22769 0.47588
 Cu51 Cu 0.50084 0.18953 0.50095
 Cu52 Cu 0.50068 0.23166 0.50041
 C53 C 0.47182 0.21010 0.46788
 C54 C 0.52970 0.21063 0.53348
 C55 C 0.47419 0.21121 0.53648
 C56 C 0.52731 0.21068 0.46485
 O57 O 0.69681 0.02383 -0.00913
 O58 O 0.70091 -0.01968 0.03953
 O59 O 0.69967 0.02156 0.04228
 O60 O 0.69830 -0.01758 -0.01205
 O61 O 0.73328 -0.01635 -0.01474
 O62 O 0.73466 0.02259 0.03938
 O63 O 0.73589 -0.01851 0.03666
 O64 O 0.73180 0.02490 -0.01185
 Cu65 Cu 0.69538 0.00189 0.01539
 Cu66 Cu 0.73742 0.00325 0.01202
 C67 C 0.71365 0.03183 -0.01852
 C68 C 0.71911 -0.02640 0.04635
 C69 C 0.71744 0.02870 0.04994
 C70 C 0.71561 -0.02363 -0.02247
 O71 O 0.17958 0.52333 0.46039
 O72 O 0.17836 0.48019 0.50977
 O73 O 0.17623 0.52171 0.51162
 O74 O 0.18218 0.48200 0.45829
 O75 O 0.21705 0.48385 0.46234
 O76 O 0.21114 0.52324 0.51540
 O77 O 0.21325 0.48196 0.51356
 O78 O 0.21447 0.52498 0.46440
 Cu79 Cu 0.17554 0.50157 0.48466
 Cu80 Cu 0.21748 0.50363 0.48935
 C81 C 0.19725 0.53156 0.45428
 C82 C 0.19564 0.47372 0.51987
 C83 C 0.19278 0.52940 0.52220
 C84 C 0.20068 0.47624 0.45136
 O85 O 0.30213 1.02401 0.00986
 O86 O 0.29767 0.98090 -0.03923
 O87 O 0.29904 1.02213 -0.04156
 O88 O 0.30058 0.98259 0.01236
 O89 O 0.26562 0.98412 0.01536
 O90 O 0.26407 1.02349 -0.03836
 O91 O 0.26271 0.98240 -0.03605
 O92 O 0.26716 1.02538 0.01288
 Cu93 Cu 0.30340 1.00223 -0.01490
 Cu94 Cu 0.26138 1.00397 -0.01117
 C95 C 0.28536 1.03209 0.01948
 C96 C 0.27941 0.97444 -0.04598
 C97 C 0.28125 1.02949 -0.04901
 C98 C 0.28331 0.97663 0.02287
 O99 O 0.82064 0.52359 0.53902
 O100 O 0.82153 0.47995 0.49038
 O101 O 0.82387 0.52143 0.48781
 O102 O 0.81785 0.48232 0.54183
 O103 O 0.78298 0.48455 0.53788
 O104 O 0.78896 0.52333 0.48413
 O105 O 0.78664 0.48209 0.48669
 O106 O 0.78574 0.52561 0.53511
 Cu107 Cu 0.82451 0.50155 0.51511
 Cu108 Cu 0.78258 0.50406 0.51053
 C109 C 0.80302 0.53209 0.54506
 C110 C 0.80419 0.47357 0.48047
 C111 C 0.80734 0.52920 0.47715
 C112 C 0.79934 0.47686 0.54893
 C113 C 0.22677 0.22605 0.18862
 C114 C 0.24710 0.21953 0.19609
 C115 C 0.25735 0.22936 0.21744
 C116 C 0.24695 0.24531 0.23233
 C117 C 0.22615 0.25120 0.22482
 C118 C 0.21640 0.24200 0.20276
 C119 C 0.25762 0.25577 0.25545
 C120 C 0.25160 0.27639 0.26357
 C121 C 0.26087 0.28582 0.28583
 C122 C 0.27702 0.27532 0.29951
 C123 C 0.28365 0.25520 0.29140
 C124 C 0.27376 0.24527 0.26988
 H125 H 0.21904 0.21873 0.17175
 H126 H 0.27342 0.22458 0.22208
 H127 H 0.21729 0.26287 0.23599
 H128 H 0.23973 0.28532 0.25280
 H129 H 0.28437 0.28277 0.31656
 H130 H 0.27862 0.22932 0.26480
 C131 C 0.78136 0.76924 0.19786
 C132 C 0.76599 0.78043 0.21209
 C133 C 0.75716 0.77162 0.23508
 C134 C 0.76307 0.75106 0.24354
 C135 C 0.77827 0.73983 0.22843
 C136 C 0.78765 0.74906 0.20613
 C137 C 0.75353 0.74135 0.26788
 C138 C 0.76474 0.72584 0.28254
 C139 C 0.75554 0.71615 0.30467
 C140 C 0.73544 0.72246 0.31323
 C141 C 0.72428 0.73814 0.29946
 C142 C 0.73305 0.74727 0.27664
 H143 H 0.78846 0.77624 0.18034
 H144 H 0.74589 0.78098 0.24627
 H145 H 0.78288 0.72384 0.23370
 H146 H 0.78066 0.72116 0.27700
 H147 H 0.72843 0.71510 0.33058
 H148 H 0.72369 0.75874 0.26575
 C149 C 0.77954 0.23072 0.20326
 C150 C 0.78536 0.25121 0.21067
 C151 C 0.77563 0.26094 0.23249
 C152 C 0.76044 0.24993 0.24777
 C153 C 0.75513 0.22903 0.24024
 C154 C 0.76432 0.21971 0.21782
 C155 C 0.75016 0.26011 0.27134
 C156 C 0.72961 0.25406 0.27951
 C157 C 0.72023 0.26317 0.30195
 C158 C 0.73082 0.27904 0.31590
 C159 C 0.75095 0.28559 0.30783
 C160 C 0.76075 0.27594 0.28601
 H161 H 0.78684 0.22335 0.18609
 H162 H 0.77986 0.27711 0.23719
 H163 H 0.74396 0.21982 0.25169
 H164 H 0.72069 0.24237 0.26852
 H165 H 0.72340 0.28630 0.33307
 H166 H 0.77667 0.28076 0.28080
 C167 C 0.22876 0.77470 0.18144
 C168 C 0.22250 0.75462 0.18993
 C169 C 0.23221 0.74533 0.21203
 C170 C 0.24763 0.75646 0.22682
 C171 C 0.25350 0.77692 0.21812
 C172 C 0.24439 0.78576 0.19528
 C173 C 0.25725 0.74684 0.25125
 C174 C 0.27767 0.75281 0.26012
 C175 C 0.28638 0.74381 0.28312
 C176 C 0.27525 0.72821 0.29692
 C177 C 0.25524 0.72188 0.28827
 C178 C 0.24607 0.73145 0.26601
 H179 H 0.22138 0.78177 0.16411
 H180 H 0.22759 0.72941 0.21746
 H181 H 0.26492 0.78623 0.22906
 H182 H 0.28701 0.76423 0.24924
 H183 H 0.28220 0.72095 0.31441
 H184 H 0.23018 0.72678 0.26050
 C185 C 0.72336 0.27749 0.70268
 C186 C 0.71675 0.25743 0.71085
 C187 C 0.72634 0.24765 0.73275
 C188 C 0.74212 0.25828 0.74753
 C189 C 0.74810 0.27886 0.73932
 C190 C 0.73917 0.28810 0.71668
 C191 C 0.75241 0.24801 0.77113
 C192 C 0.77290 0.25417 0.77944
 C193 C 0.78226 0.24514 0.80193
 C194 C 0.77185 0.22907 0.81571
 C195 C 0.75186 0.22227 0.80746
 C196 C 0.74196 0.23196 0.78569
 H197 H 0.71624 0.28482 0.68535
 H198 H 0.72152 0.23173 0.73784
 H199 H 0.75967 0.28792 0.75031
 H200 H 0.78183 0.26592 0.76858
 H201 H 0.77931 0.22187 0.83290
 H202 H 0.72611 0.22695 0.78049
 C203 C 0.26509 0.72296 0.68456
 C204 C 0.27623 0.73851 0.69842
 C205 C 0.26734 0.74777 0.72110
 C206 C 0.24675 0.74217 0.72962
 C207 C 0.23555 0.72679 0.71484
 C208 C 0.24488 0.71693 0.69289
 C209 C 0.23706 0.75206 0.75381
 C210 C 0.22145 0.74118 0.76857
 C211 C 0.21192 0.75061 0.79068
 C212 C 0.21849 0.77058 0.79916
 C213 C 0.23427 0.78141 0.78531
 C214 C 0.24322 0.77245 0.76247
 H215 H 0.27219 0.71548 0.66733
 H216 H 0.27671 0.75912 0.73206
 H217 H 0.21955 0.72235 0.72015
 H218 H 0.21662 0.72532 0.76319
 H219 H 0.21129 0.77772 0.81655
 H220 H 0.25481 0.78157 0.75155
 C221 C 0.26729 0.27683 0.68173
 C222 C 0.24720 0.28355 0.68988
 C223 C 0.23758 0.27419 0.71199
 C224 C 0.24832 0.25850 0.72687
 C225 C 0.26884 0.25228 0.71861
 C226 C 0.27803 0.26108 0.69588
 C227 C 0.23821 0.24861 0.75072
 C228 C 0.24369 0.22781 0.75866
 C229 C 0.23463 0.21876 0.78130
 C230 C 0.21938 0.22994 0.79571
 C231 C 0.21339 0.25033 0.78791
 C232 C 0.22299 0.25981 0.76587
 H233 H 0.27456 0.28384 0.66432
 H234 H 0.22167 0.27913 0.71725
 H235 H 0.27787 0.24069 0.72973
 H236 H 0.25488 0.21845 0.74733
 H237 H 0.21218 0.22277 0.81305
 H238 H 0.21862 0.27592 0.76087
 C239 C 0.72530 0.72923 0.70234
 C240 C 0.74543 0.72293 0.71074
 C241 C 0.75468 0.73245 0.73293
 C242 C 0.74346 0.74777 0.74786
 C243 C 0.72292 0.75371 0.73925
 C244 C 0.71413 0.74476 0.71633
 C245 C 0.75316 0.75733 0.77223
 C246 C 0.74716 0.77774 0.78107
 C247 C 0.75632 0.78651 0.80387
 C248 C 0.77212 0.77543 0.81753
 C249 C 0.77850 0.75538 0.80890
 C250 C 0.76876 0.74617 0.78683
 H251 H 0.71828 0.72200 0.68492
 H252 H 0.77065 0.72780 0.73825
 H253 H 0.71355 0.76508 0.75028
 H254 H 0.73560 0.78707 0.77027
 H255 H 0.77952 0.78244 0.83484
 H256 H 0.77348 0.73028 0.78129
 C257 C 0.28677 0.04849 0.03680
 C258 C 0.28746 0.06333 0.05184
 C259 C 0.28750 0.08135 0.06935
 C260 C 0.29093 0.07867 0.09656
 C261 C 0.28945 0.09605 0.11371
 C262 C 0.28448 0.11635 0.10382
 C263 C 0.28153 0.11892 0.07635
 C264 C 0.28302 0.10155 0.05927
 C265 C 0.28114 0.13453 0.12210
 C266 C 0.28781 0.15506 0.11507
 C267 C 0.28289 0.17244 0.13119
 C268 C 0.27133 0.16952 0.15458
 C269 C 0.26520 0.14910 0.16215
 C270 C 0.27008 0.13172 0.14607
 C271 C 0.26414 0.18752 0.16968
 C272 C 0.25700 0.20232 0.18194
 H273 H 0.29439 0.06310 0.10459
 H274 H 0.29203 0.09359 0.13471
 H275 H 0.27735 0.13424 0.06813
 H276 H 0.28021 0.10379 0.03826
 H277 H 0.29657 0.15772 0.09691
 H278 H 0.28764 0.18818 0.12508
 H279 H 0.25606 0.14667 0.18008
 H280 H 0.26445 0.11620 0.15188
 C281 C 0.80252 0.54975 0.56292
 C282 C 0.80148 0.56497 0.57727
 C283 C 0.79941 0.58350 0.59370
 C284 C 0.79484 0.60310 0.58202
 C285 C 0.79123 0.62091 0.59785
 C286 C 0.79213 0.61934 0.62565
 C287 C 0.79725 0.59965 0.63721
 C288 C 0.80084 0.58184 0.62131
 C289 C 0.78653 0.63787 0.64242
 C290 C 0.77374 0.63522 0.66503
 C291 C 0.76695 0.65279 0.67962
 C292 C 0.77284 0.67323 0.67187
 C293 C 0.78599 0.67604 0.64981
 C294 C 0.79283 0.65847 0.63518
 C295 C 0.76422 0.69126 0.68564
 C296 C 0.75612 0.70597 0.69709
 H297 H 0.79356 0.60453 0.56066
 H298 H 0.78701 0.63573 0.58835
 H299 H 0.79830 0.59800 0.65854
 H300 H 0.80437 0.56672 0.63055
 H301 H 0.76834 0.61963 0.67090
 H302 H 0.75664 0.65046 0.69655
 H303 H 0.79062 0.69181 0.64362
 H304 H 0.80287 0.66100 0.61806
 C305 C 0.72074 0.95761 0.06425
 C306 C 0.72254 0.94332 0.08000
 C307 C 0.72514 0.92612 0.09849
 C308 C 0.71732 0.90599 0.09231
 C309 C 0.72084 0.88898 0.10955
 C310 C 0.73228 0.89187 0.13323
 C311 C 0.73977 0.91225 0.13949
 C312 C 0.73622 0.92925 0.12222
 C313 C 0.73718 0.87348 0.15065
 C314 C 0.75746 0.87120 0.16199
 C315 C 0.76263 0.85310 0.17668
 C316 C 0.74760 0.83709 0.18033
 C317 C 0.72721 0.83946 0.16973
 C318 C 0.72201 0.85754 0.15502
 C319 C 0.75366 0.81753 0.19300
 C320 C 0.75909 0.80080 0.20242
 H321 H 0.70883 0.90336 0.07393
 H322 H 0.71515 0.87344 0.10395
 H323 H 0.74843 0.91503 0.15770
 H324 H 0.74234 0.94477 0.12720
 H325 H 0.76958 0.88302 0.15869
 H326 H 0.77852 0.85134 0.18456
 H327 H 0.71548 0.82711 0.17233
 H328 H 0.70619 0.85895 0.14683
 C329 C 0.19547 0.45643 0.53834
 C330 C 0.19600 0.44162 0.55345
 C331 C 0.19746 0.42369 0.57103
 C332 C 0.18833 0.40432 0.56389
 C333 C 0.19131 0.38642 0.57985
 C334 C 0.20353 0.38766 0.60315
 C335 C 0.21219 0.40734 0.61048
 C336 C 0.20919 0.42521 0.59449
 C337 C 0.20826 0.36835 0.61898
 C338 C 0.20894 0.36919 0.64685
 C339 C 0.21511 0.35140 0.66156
 C340 C 0.22061 0.33255 0.64862
 C341 C 0.21945 0.33139 0.62096
 C342 C 0.21329 0.34914 0.60622
 C343 C 0.22895 0.31492 0.66350
 C344 C 0.23680 0.30043 0.67567
 H345 H 0.17925 0.40296 0.54573
 H346 H 0.18424 0.37156 0.57384
 H347 H 0.22194 0.40877 0.62806
 H348 H 0.21647 0.44008 0.60010
 H349 H 0.20493 0.38367 0.65725
 H350 H 0.21601 0.35250 0.68296
 H351 H 0.22386 0.31693 0.61074
 H352 H 0.21324 0.34804 0.58480
 C353 C 0.95457 0.29913 0.05175
 C354 C 0.93993 0.29862 0.06711
 C355 C 0.92232 0.29740 0.08520
 C356 C 0.90300 0.30719 0.07893
 C357 C 0.88550 0.30484 0.09569
 C358 C 0.88710 0.29261 0.11897
 C359 C 0.90672 0.28320 0.12535
 C360 C 0.92419 0.28558 0.10856
 C361 C 0.86817 0.28871 0.13582
 C362 C 0.86996 0.28801 0.16362
 C363 C 0.85252 0.28250 0.17928
 C364 C 0.83307 0.27768 0.16738
 C365 C 0.83097 0.27893 0.13981
 C366 C 0.84837 0.28445 0.12412
 C367 C 0.81586 0.26963 0.18314
 C368 C 0.80174 0.26183 0.19594
 H369 H 0.90138 0.31638 0.06088
 H370 H 0.87068 0.31246 0.09038
 H371 H 0.90840 0.27343 0.14288
 H372 H 0.93903 0.27782 0.11353
 H373 H 0.88492 0.29146 0.17323
 H374 H 0.85436 0.28148 0.20060
 H375 H 0.81605 0.27502 0.13037
 H376 H 0.84654 0.28454 0.10278
 C377 C 0.45489 0.77726 0.55166
 C378 C 0.44058 0.77652 0.56747
 C379 C 0.42328 0.77501 0.58599
 C380 C 0.40325 0.78289 0.57915
 C381 C 0.38607 0.78015 0.59632
 C382 C 0.38870 0.76942 0.62058
 C383 C 0.40901 0.76194 0.62752
 C384 C 0.42617 0.76471 0.61032
 C385 C 0.37010 0.76515 0.63784
 C386 C 0.36767 0.74521 0.64998
 C387 C 0.34936 0.74053 0.66444
 C388 C 0.33328 0.75572 0.66706
 C389 C 0.33579 0.77580 0.65569
 C390 C 0.35409 0.78051 0.64120
 C391 C 0.31354 0.75011 0.67952
 C392 C 0.29669 0.74502 0.68881
 H393 H 0.40080 0.79077 0.56029
 H394 H 0.37059 0.78582 0.59020
 H395 H 0.41159 0.75383 0.64618
 H396 H 0.44162 0.75852 0.61580
 H397 H 0.37956 0.73294 0.64745
 H398 H 0.34750 0.72487 0.67294
 H399 H 0.32339 0.78765 0.65751
 H400 H 0.35560 0.79608 0.63238
 C401 C 0.04752 0.69211 0.04846
 C402 C 0.06291 0.69333 0.06257
 C403 C 0.08162 0.69590 0.07860
 C404 C 0.10137 0.69836 0.06634
 C405 C 0.11934 0.70292 0.08150
 C406 C 0.11780 0.70513 0.10919
 C407 C 0.09797 0.70204 0.12142
 C408 C 0.08000 0.69749 0.10620
 C409 C 0.13653 0.71187 0.12495
 C410 C 0.13424 0.72697 0.14527
 C411 C 0.15198 0.73448 0.15891
 C412 C 0.17226 0.72702 0.15249
 C413 C 0.17471 0.71168 0.13268
 C414 C 0.15696 0.70413 0.11899
 C415 C 0.19049 0.73587 0.16556
 C416 C 0.20535 0.74402 0.17658
 H417 H 0.10278 0.69734 0.04497
 H418 H 0.13428 0.70551 0.07142
 H419 H 0.09632 0.70338 0.14272
 H420 H 0.06478 0.69567 0.11589
 H421 H 0.11881 0.73351 0.15006
 H422 H 0.14991 0.74644 0.17411
 H423 H 0.19034 0.70579 0.12755
 H424 H 0.15923 0.69233 0.10366
 C425 C 0.54698 0.21086 0.55196
 C426 C 0.56178 0.21142 0.56706
 C427 C 0.57973 0.21263 0.58462
 C428 C 0.59969 0.21786 0.57446
 C429 C 0.61699 0.22017 0.59150
 C430 C 0.61457 0.21730 0.61900
 C431 C 0.59452 0.21166 0.62898
 C432 C 0.57721 0.20935 0.61188
 C433 C 0.63266 0.22127 0.63719
 C434 C 0.62949 0.23238 0.66105
 C435 C 0.64672 0.23780 0.67707
 C436 C 0.66734 0.23214 0.66954
 C437 C 0.67062 0.22054 0.64625
 C438 C 0.65340 0.21510 0.63019
 C439 C 0.68512 0.23979 0.68458
 C440 C 0.69974 0.24725 0.69678
 H441 H 0.60179 0.22053 0.55340
 H442 H 0.63212 0.22486 0.58323
 H443 H 0.59220 0.20912 0.65002
 H444 H 0.56183 0.20528 0.61994
 H445 H 0.61379 0.23763 0.66682
 H446 H 0.64402 0.24695 0.69493
 H447 H 0.68652 0.21615 0.64018
 H448 H 0.65632 0.20631 0.61211
 C449 C 0.71229 0.04933 0.96337
 C450 C 0.71171 0.06435 0.94858
 C451 C 0.71175 0.08258 0.93139
 C452 C 0.71624 0.10260 0.94184
 C453 C 0.71771 0.12019 0.92510
 C454 C 0.71474 0.11799 0.89758
 C455 C 0.70977 0.09786 0.88732
 C456 C 0.70831 0.08027 0.90413
 C457 C 0.71801 0.13641 0.87966
 C458 C 0.72904 0.13386 0.85561
 C459 C 0.73388 0.15144 0.83988
 C460 C 0.72772 0.17178 0.84787
 C461 C 0.71617 0.17444 0.87133
 C462 C 0.71130 0.15687 0.88711
 C463 C 0.73487 0.18996 0.83315
 C464 C 0.74199 0.20490 0.82121
 H465 H 0.71905 0.10455 0.96289
 H466 H 0.72189 0.13537 0.93360
 H467 H 0.70717 0.09569 0.86627
 H468 H 0.70483 0.06484 0.89582
 H469 H 0.73470 0.11840 0.84948
 H470 H 0.74300 0.14922 0.82188
 H471 H 0.71140 0.19012 0.87777
 H472 H 0.70255 0.15932 0.90533
 C473 C 0.19785 0.54907 0.43619
 C474 C 0.19897 0.56420 0.42166
 C475 C 0.20110 0.58262 0.40507
 C476 C 0.20044 0.58073 0.37744
 C477 C 0.20410 0.59847 0.36145
 C478 C 0.20851 0.61831 0.37293
 C479 C 0.20864 0.62010 0.40073
 C480 C 0.20497 0.60237 0.41666
 C481 C 0.21419 0.63679 0.35615
 C482 C 0.20728 0.65735 0.36284
 C483 C 0.21414 0.67490 0.34826
 C484 C 0.22793 0.67211 0.32680
 C485 C 0.23445 0.65169 0.31958
 C486 C 0.22762 0.63414 0.33412
 C487 C 0.23653 0.69015 0.31312
 C488 C 0.24460 0.70487 0.30177
 H489 H 0.19746 0.56550 0.36827
 H490 H 0.20365 0.59664 0.34011
 H491 H 0.21231 0.63504 0.41020
 H492 H 0.20565 0.60397 0.43803
 H493 H 0.19674 0.65987 0.37950
 H494 H 0.20903 0.69065 0.35403
 H495 H 0.24524 0.64937 0.30311
 H496 H 0.23349 0.61859 0.32870
 C497 C 0.27750 0.95777 0.93484
 C498 C 0.27542 0.94371 0.91886
 C499 C 0.27239 0.92682 0.90007
 C500 C 0.25190 0.92172 0.89161
 C501 C 0.24870 0.90481 0.87420
 C502 C 0.26599 0.89272 0.86499
 C503 C 0.28658 0.89816 0.87332
 C504 C 0.28974 0.91511 0.89075
 C505 C 0.26238 0.87397 0.84776
 C506 C 0.27372 0.85503 0.85211
 C507 C 0.26914 0.83686 0.83737
 C508 C 0.25323 0.83736 0.81801
 C509 C 0.24226 0.85626 0.81301
 C510 C 0.24682 0.87447 0.82774
 C511 C 0.24704 0.81806 0.80496
 C512 C 0.24144 0.80154 0.79525
 H513 H 0.23834 0.93063 0.89879
 H514 H 0.23264 0.90083 0.86853
 H515 H 0.30023 0.88930 0.86637
 H516 H 0.30568 0.91894 0.89714
 H517 H 0.28557 0.85403 0.86760
 H518 H 0.27759 0.82226 0.84158
 H519 H 0.22985 0.85681 0.79815
 H520 H 0.23801 0.88887 0.82368
 C521 C 0.80422 0.45607 0.46233
 C522 C 0.80355 0.44110 0.44752
 C523 C 0.80187 0.42297 0.43034
 C524 C 0.79777 0.40298 0.44117
 C525 C 0.79449 0.38557 0.42457
 C526 C 0.79521 0.38793 0.39684
 C527 C 0.79984 0.40801 0.38614
 C528 C 0.80312 0.42542 0.40280
 C529 C 0.78998 0.36979 0.37927
 C530 C 0.77709 0.37285 0.35680
 C531 C 0.77071 0.35559 0.34143
 C532 C 0.77713 0.33505 0.34822
 C533 C 0.79039 0.33185 0.37013
 C534 C 0.79681 0.34911 0.38555
 C535 C 0.76893 0.31724 0.33369
 C536 C 0.76120 0.30262 0.32178
 H537 H 0.79663 0.40094 0.46245
 H538 H 0.79064 0.37043 0.43343
 H539 H 0.80075 0.41029 0.36489
 H540 H 0.80626 0.44083 0.39421
 H541 H 0.77130 0.38850 0.35165
 H542 H 0.76031 0.35823 0.32463
 H543 H 0.79542 0.31601 0.37560
 H544 H 0.80693 0.34626 0.40253
 C545 C 0.04697 0.29920 0.95135
 C546 C 0.06174 0.29866 0.93618
 C547 C 0.07954 0.29740 0.91837
 C548 C 0.09925 0.29050 0.92783
 C549 C 0.11632 0.28807 0.91042
 C550 C 0.11391 0.29249 0.88323
 C551 C 0.09412 0.29982 0.87399
 C552 C 0.07705 0.30224 0.89146
 C553 C 0.13165 0.28839 0.86451
 C554 C 0.12775 0.27875 0.83984
 C555 C 0.14458 0.27311 0.82321
 C556 C 0.16551 0.27706 0.83093
 C557 C 0.16954 0.28722 0.85506
 C558 C 0.15273 0.29289 0.87174
 C559 C 0.18278 0.26897 0.81521
 C560 C 0.19694 0.26110 0.80249
 H561 H 0.10132 0.28660 0.94860
 H562 H 0.13122 0.28208 0.91811
 H563 H 0.09182 0.30357 0.85323
 H564 H 0.06186 0.30761 0.88393
 H565 H 0.11176 0.27479 0.83385
 H566 H 0.14128 0.26505 0.80470
 H567 H 0.18569 0.29027 0.86130
 H568 H 0.15623 0.30053 0.89044
 C569 C 0.54615 0.77748 0.44738
 C570 C 0.56045 0.77679 0.43154
 C571 C 0.57772 0.77534 0.41296
 C572 C 0.59786 0.78264 0.42006
 C573 C 0.61500 0.77992 0.40281
 C574 C 0.61223 0.76979 0.37820
 C575 C 0.59181 0.76289 0.37101
 C576 C 0.57469 0.76565 0.38830
 C577 C 0.63077 0.76549 0.36081
 C578 C 0.63291 0.74578 0.34802
 C579 C 0.65116 0.74102 0.33342
 C580 C 0.66747 0.75591 0.33131
 C581 C 0.66525 0.77578 0.34334
 C582 C 0.64701 0.78057 0.35796
 C583 C 0.68713 0.75014 0.31870
 C584 C 0.70391 0.74489 0.30926
 H585 H 0.60042 0.79004 0.43917
 H586 H 0.63055 0.78512 0.40911
 H587 H 0.58912 0.75525 0.35209
 H588 H 0.55916 0.75991 0.38261
 H589 H 0.62084 0.73372 0.35012
 H590 H 0.65280 0.72552 0.32441
 H591 H 0.67782 0.78739 0.34192
 H592 H 0.64572 0.79597 0.36730
 C593 C 0.95410 0.69209 0.94957
 C594 C 0.93870 0.69339 0.93547
 C595 C 0.91998 0.69604 0.91943
 C596 C 0.90016 0.69812 0.93167
 C597 C 0.88216 0.70277 0.91655
 C598 C 0.88374 0.70547 0.88893
 C599 C 0.90364 0.70275 0.87671
 C600 C 0.92165 0.69811 0.89189
 C601 C 0.86495 0.71232 0.87326
 C602 C 0.86706 0.72780 0.85335
 C603 C 0.84925 0.73539 0.83982
 C604 C 0.82907 0.72764 0.84593
 C605 C 0.82680 0.71194 0.86533
 C606 C 0.84462 0.70431 0.87891
 C607 C 0.81074 0.73655 0.83298
 C608 C 0.79578 0.74474 0.82209
 H609 H 0.89872 0.69673 0.95300
 H610 H 0.86716 0.70506 0.92662
 H611 H 0.90533 0.70446 0.85546
 H612 H 0.93692 0.69659 0.88222
 H613 H 0.88241 0.73455 0.84880
 H614 H 0.85118 0.74763 0.82493
 H615 H 0.81125 0.70582 0.87022
 H616 H 0.84250 0.69222 0.89392
 C617 C 0.45454 0.21004 0.44939
 C618 C 0.43973 0.21037 0.43428
 C619 C 0.42177 0.21132 0.41672
 C620 C 0.42443 0.20853 0.38939
 C621 C 0.40708 0.21066 0.37229
 C622 C 0.38683 0.21563 0.38235
 C623 C 0.38428 0.21799 0.40991
 C624 C 0.40163 0.21585 0.42694
 C625 C 0.36866 0.21949 0.36420
 C626 C 0.34811 0.21272 0.37098
 C627 C 0.33075 0.21807 0.35502
 C628 C 0.33372 0.23016 0.33206
 C629 C 0.35417 0.23641 0.32474
 C630 C 0.37154 0.23109 0.34065
 C631 C 0.31574 0.23772 0.31721
 C632 C 0.30092 0.24511 0.30521
 H633 H 0.43996 0.20500 0.38127
 H634 H 0.40951 0.20853 0.35121
 H635 H 0.36900 0.22215 0.41824
 H636 H 0.39941 0.21814 0.44805
 H637 H 0.34542 0.20354 0.38880
 H638 H 0.31497 0.21322 0.36093
 H639 H 0.35662 0.24595 0.30714
 H640 H 0.38709 0.23680 0.33507
 C641 C 0.71539 0.96070 0.95694
 C642 C 0.71587 0.94721 0.94003
 C643 C 0.71722 0.93071 0.92038
 C644 C 0.70883 0.91067 0.92576
 C645 C 0.71173 0.89407 0.90776
 C646 C 0.72314 0.89729 0.88413
 C647 C 0.73105 0.91766 0.87858
 C648 C 0.72812 0.93424 0.89662
 C649 C 0.72782 0.87918 0.86621
 C650 C 0.74812 0.87682 0.85498
 C651 C 0.75319 0.85882 0.84008
 C652 C 0.73804 0.84298 0.83613
 C653 C 0.71761 0.84546 0.84655
 C654 C 0.71250 0.86345 0.86147
 C655 C 0.74402 0.82346 0.82334
 C656 C 0.74943 0.80678 0.81379
 H657 H 0.70051 0.90772 0.94419
 H658 H 0.70572 0.87853 0.91282
 H659 H 0.73969 0.92070 0.86043
 H660 H 0.73472 0.94969 0.89228
 H661 H 0.76036 0.88846 0.85858
 H662 H 0.76911 0.85697 0.83233
 H663 H 0.70578 0.83325 0.84370
 H664 H 0.69667 0.86493 0.86959
 C665 C 0.20334 0.46054 0.43106
 C666 C 0.20640 0.44709 0.41452
 C667 C 0.21094 0.43073 0.39545
 C668 C 0.19481 0.41738 0.38636
 C669 C 0.19966 0.40052 0.36937
 C670 C 0.22073 0.39678 0.36131
 C671 C 0.23672 0.41060 0.37011
 C672 C 0.23184 0.42743 0.38706
 C673 C 0.22626 0.37791 0.34507
 C674 C 0.24190 0.37911 0.32520
 C675 C 0.24826 0.36091 0.31144
 C676 C 0.23904 0.34132 0.31731
 C677 C 0.22311 0.34006 0.33656
 C678 C 0.21674 0.35821 0.35033
 C679 C 0.24671 0.32224 0.30489
 C680 C 0.25319 0.30586 0.29558
 H681 H 0.17858 0.41978 0.39275
 H682 H 0.18696 0.39031 0.36270
 H683 H 0.25312 0.40798 0.36463
 H684 H 0.24447 0.43758 0.39412
 H685 H 0.24934 0.39408 0.32047
 H686 H 0.26062 0.36206 0.29660
 H687 H 0.21598 0.32494 0.34140
 H688 H 0.20491 0.35666 0.36576
 C689 C 0.28046 0.04428 0.93147
 C690 C 0.27920 0.05767 0.91448
 C691 C 0.27699 0.07401 0.89477
 C692 C 0.28647 0.09378 0.89874
 C693 C 0.28283 0.11029 0.88082
 C694 C 0.26960 0.10726 0.85867
 C695 C 0.26058 0.08717 0.85448
 C696 C 0.26425 0.07066 0.87244
 C697 C 0.26423 0.12537 0.84105
 C698 C 0.24324 0.12842 0.83230
 C699 C 0.23770 0.14649 0.81780
 C700 C 0.25305 0.16171 0.81176
 C701 C 0.27410 0.15852 0.81965
 C702 C 0.27968 0.14045 0.83417
 C703 C 0.24683 0.18138 0.79955
 C704 C 0.24137 0.19823 0.79053
 H705 H 0.29622 0.09659 0.91607
 H706 H 0.28974 0.12565 0.88484
 H707 H 0.25052 0.08429 0.83747
 H708 H 0.25680 0.05543 0.86920
 H709 H 0.23092 0.11728 0.83758
 H710 H 0.22132 0.14891 0.81201
 H711 H 0.28610 0.17025 0.81518
 H712 H 0.29601 0.13842 0.84036
 C713 C 0.80919 0.54560 0.45760
 C714 C 0.80968 0.56001 0.44192
 C715 C 0.80899 0.57781 0.42406
 C716 C 0.80688 0.57463 0.39674
 C717 C 0.80370 0.59196 0.37985
 C718 C 0.80249 0.61268 0.39013
 C719 C 0.80535 0.61572 0.41753
 C720 C 0.80855 0.59840 0.43435
 C721 C 0.79672 0.63087 0.37280
 C722 C 0.80589 0.65096 0.37664
 C723 C 0.79894 0.66845 0.36189
 C724 C 0.78280 0.66606 0.34308
 C725 C 0.77400 0.64605 0.33862
 C726 C 0.78090 0.62857 0.35334
 C727 C 0.77427 0.68421 0.32940
 C728 C 0.76621 0.69903 0.31809
 H729 H 0.80712 0.55875 0.38857
 H730 H 0.80182 0.58912 0.35881
 H731 H 0.80418 0.63139 0.42615
 H732 H 0.80996 0.60102 0.45550
 H733 H 0.81826 0.65319 0.39127
 H734 H 0.80585 0.68387 0.36552
 H735 H 0.76140 0.64405 0.32424
 H736 H 0.77326 0.61344 0.35018
 C737 C 0.04314 0.69204 0.94488
 C738 C 0.05737 0.69302 0.92899
 C739 C 0.07490 0.69510 0.91093
 C740 C 0.07129 0.69889 0.88396
 C741 C 0.08837 0.70290 0.86700
 C742 C 0.10926 0.70324 0.87685
 C743 C 0.11273 0.69881 0.90385
 C744 C 0.09565 0.69479 0.92075
 C745 C 0.12725 0.70949 0.85955
 C746 C 0.14720 0.69957 0.86196
 C747 C 0.16451 0.70671 0.84712
 C748 C 0.16208 0.72379 0.82966
 C749 C 0.14220 0.73343 0.82668
 C750 C 0.12490 0.72634 0.84148
 C751 C 0.18008 0.73227 0.81577
 C752 C 0.19482 0.74019 0.80430
 H753 H 0.05528 0.69921 0.87617
 H754 H 0.08521 0.70601 0.84625
 H755 H 0.12856 0.69926 0.91215
 H756 H 0.09861 0.69203 0.94163
 H757 H 0.14945 0.68642 0.87548
 H758 H 0.17983 0.69914 0.84958
 H759 H 0.14018 0.74675 0.81334
 H760 H 0.10987 0.73454 0.83946
 C761 C 0.54332 0.21099 0.44465
 C762 C 0.55715 0.21223 0.42822
 C763 C 0.57406 0.21478 0.40934
 C764 C 0.59411 0.20618 0.41463
 C765 C 0.61116 0.21055 0.39781
 C766 C 0.60841 0.22367 0.37548
 C767 C 0.58805 0.23173 0.36990
 C768 C 0.57101 0.22733 0.38675
 C769 C 0.62696 0.22992 0.35911
 C770 C 0.62920 0.25102 0.35047
 C771 C 0.64746 0.25739 0.33696
 C772 C 0.66369 0.24279 0.33183
 C773 C 0.66139 0.22165 0.33973
 C774 C 0.64314 0.21523 0.35326
 C775 C 0.68327 0.24982 0.32014
 C776 C 0.69996 0.25587 0.31131
 H777 H 0.59670 0.19662 0.43219
 H778 H 0.62668 0.20435 0.40288
 H779 H 0.58537 0.24167 0.35271
 H780 H 0.55557 0.23415 0.38252
 H781 H 0.61720 0.26279 0.35500
 H782 H 0.64915 0.27384 0.33114
 H783 H 0.67389 0.21022 0.33591
 H784 H 0.64178 0.19884 0.35938
 C785 C 0.95866 0.29803 0.94489
 C786 C 0.94519 0.29645 0.92805
 C787 C 0.92870 0.29340 0.90873
 C788 C 0.91318 0.30898 0.90475
 C789 C 0.89594 0.30497 0.88805
 C790 C 0.89399 0.28526 0.87521
 C791 C 0.91004 0.26997 0.87871
 C792 C 0.92725 0.27402 0.89539
 C793 C 0.87465 0.28006 0.85973
 C794 C 0.87598 0.26791 0.83637
 C795 C 0.85756 0.26153 0.82316
 C796 C 0.83762 0.26726 0.83310
 C797 C 0.83617 0.27976 0.85592
 C798 C 0.85453 0.28613 0.86915
 C799 C 0.81857 0.25949 0.82086
 C800 C 0.80223 0.25291 0.81166
 H801 H 0.91412 0.32402 0.91505
 H802 H 0.88398 0.31716 0.88549
 H803 H 0.90887 0.25454 0.86946
 H804 H 0.93908 0.26177 0.89851
 H805 H 0.89124 0.26318 0.82847
 H806 H 0.85886 0.25185 0.80550
 H807 H 0.82081 0.28417 0.86387
 H808 H 0.85293 0.29517 0.88729
 C809 C 0.45858 0.77636 0.44274
 C810 C 0.44540 0.77545 0.42545
 C811 C 0.42943 0.77385 0.40514
 C812 C 0.42390 0.75394 0.39513
 C813 C 0.40766 0.75211 0.37641
 C814 C 0.39668 0.77021 0.36742
 C815 C 0.40262 0.79021 0.37726
 C816 C 0.41888 0.79200 0.39600
 C817 C 0.37843 0.76800 0.34897
 C818 C 0.35981 0.77995 0.35293
 C819 C 0.34191 0.77647 0.33718
 C820 C 0.34237 0.76109 0.31720
 C821 C 0.36102 0.74960 0.31253
 C822 C 0.37896 0.75305 0.32826
 C823 C 0.32312 0.75571 0.30342
 C824 C 0.30658 0.75061 0.29329
 H825 H 0.43188 0.73977 0.40215
 H826 H 0.40327 0.73646 0.36959
 H827 H 0.39462 0.80445 0.37054
 H828 H 0.42305 0.80750 0.40360
 H829 H 0.35876 0.79135 0.36891
 H830 H 0.32748 0.78529 0.34117
 H831 H 0.36153 0.73757 0.29722
 H832 H 0.39314 0.74380 0.32449
 C833 C 0.28361 0.96081 0.04332
 C834 C 0.28322 0.94722 0.06013
 C835 C 0.28202 0.93063 0.07966
 C836 C 0.29064 0.91064 0.07418
 C837 C 0.28792 0.89395 0.09209
 C838 C 0.27646 0.89703 0.11573
 C839 C 0.26831 0.91733 0.12138
 C840 C 0.27107 0.93401 0.10343
 C841 C 0.27198 0.87881 0.13355
 C842 C 0.25170 0.87632 0.14476
 C843 C 0.24683 0.85823 0.15955
 C844 C 0.26216 0.84244 0.16344
 C845 C 0.28257 0.84506 0.15305
 C846 C 0.28747 0.86313 0.13823
 C847 C 0.25638 0.82284 0.17609
 C848 C 0.25113 0.80610 0.18552
 H849 H 0.29901 0.90781 0.05575
 H850 H 0.29410 0.87846 0.08695
 H851 H 0.25963 0.92025 0.13953
 H852 H 0.26429 0.94941 0.10785
 H853 H 0.23932 0.88792 0.14120
 H854 H 0.23092 0.85628 0.16728
 H855 H 0.29453 0.83289 0.15584
 H856 H 0.30329 0.86472 0.13013
 C857 C 0.79665 0.46139 0.56950
 C858 C 0.79357 0.44814 0.58627
 C859 C 0.78900 0.43200 0.60561
 C860 C 0.76803 0.42865 0.61361
 C861 C 0.76316 0.41202 0.63083
 C862 C 0.77922 0.39844 0.64029
 C863 C 0.80035 0.40225 0.63263
 C864 C 0.80519 0.41891 0.61536
 C865 C 0.77372 0.37975 0.65682
 C866 C 0.78359 0.36005 0.65220
 C867 C 0.77725 0.34203 0.66617
 C868 C 0.76099 0.34340 0.68498
 C869 C 0.75142 0.36300 0.69023
 C870 C 0.75776 0.38108 0.67628
 C871 C 0.75333 0.32442 0.69750
 C872 C 0.74685 0.30809 0.70688
 H873 H 0.75536 0.43860 0.60603
 H874 H 0.74671 0.40934 0.63599
 H875 H 0.81309 0.39223 0.63981
 H876 H 0.82148 0.42135 0.60928
 H877 H 0.79569 0.35841 0.63710
 H878 H 0.78465 0.32690 0.66181
 H879 H 0.73879 0.36424 0.70472
 H880 H 0.75003 0.39605 0.68052
 C881 C 0.71823 0.04424 0.07063
 C882 C 0.71954 0.05762 0.08759
 C883 C 0.72184 0.07399 0.10721
 C884 C 0.73537 0.07093 0.12890
 C885 C 0.73915 0.08753 0.14662
 C886 C 0.72948 0.10744 0.14282
 C887 C 0.71544 0.11016 0.12136
 C888 C 0.71169 0.09354 0.10367
 C889 C 0.73497 0.12569 0.16005
 C890 C 0.71939 0.14052 0.16765
 C891 C 0.72500 0.15873 0.18176
 C892 C 0.74622 0.16233 0.18851
 C893 C 0.76173 0.14737 0.18175
 C894 C 0.75616 0.12915 0.16766
 C895 C 0.75236 0.18213 0.20031
 C896 C 0.75773 0.19908 0.20898
 H897 H 0.74335 0.05587 0.13179
 H898 H 0.74984 0.08489 0.16310
 H899 H 0.70800 0.12536 0.11765
 H900 H 0.70132 0.09613 0.08684
 H901 H 0.70292 0.13818 0.16234
 H902 H 0.71288 0.17026 0.18681
 H903 H 0.77823 0.15009 0.18665
 H904 H 0.76857 0.11822 0.16179
 C905 C 0.19096 0.54600 0.54149
 C906 C 0.19051 0.56057 0.55694
 C907 C 0.19126 0.57850 0.57453
 C908 C 0.19194 0.59900 0.56395
 C909 C 0.19518 0.61641 0.58055
 C910 C 0.19786 0.61356 0.60802
 C911 C 0.19641 0.59294 0.61859
 C912 C 0.19318 0.57553 0.60192
 C913 C 0.20366 0.63180 0.62515
 C914 C 0.21934 0.62943 0.64480
 C915 C 0.22626 0.64692 0.65936
 C916 C 0.21763 0.66701 0.65456
 C917 C 0.20164 0.66949 0.63555
 C918 C 0.19467 0.65199 0.62094
 C919 C 0.22617 0.68513 0.66816
 C920 C 0.23422 0.69990 0.67944
 H921 H 0.19067 0.60146 0.54275
 H922 H 0.19653 0.63199 0.57172
 H923 H 0.19814 0.59026 0.63968
 H924 H 0.19276 0.55972 0.61032
 H925 H 0.22685 0.61422 0.64824
 H926 H 0.23874 0.64485 0.67392
 H927 H 0.19486 0.68499 0.63166
 H928 H 0.18242 0.65429 0.60616
 C929 C 0.95860 0.69137 0.05534
 C930 C 0.94438 0.69220 0.07127
 C931 C 0.92688 0.69407 0.08942
 C932 C 0.92849 0.70735 0.11153
 C933 C 0.91079 0.71098 0.12761
 C934 C 0.89121 0.70143 0.12170
 C935 C 0.88992 0.68762 0.09987
 C936 C 0.90765 0.68400 0.08382
 C937 C 0.87198 0.70693 0.13727
 C938 C 0.85256 0.71080 0.12433
 C939 C 0.83486 0.71773 0.13863
 C940 C 0.83630 0.72082 0.16603
 C941 C 0.85537 0.71648 0.17920
 C942 C 0.87310 0.70956 0.16493
 C943 C 0.81871 0.72987 0.18028
 C944 C 0.80432 0.73822 0.19209
 H945 H 0.94324 0.71538 0.11590
 H946 H 0.91223 0.72193 0.14403
 H947 H 0.87514 0.67985 0.09500
 H948 H 0.90621 0.67376 0.06668
 H949 H 0.85125 0.70923 0.10301
 H950 H 0.82023 0.72121 0.12821
 H951 H 0.85667 0.71888 0.20041
 H952 H 0.88776 0.70649 0.17548
 C953 C 0.45814 0.21182 0.55662
 C954 C 0.44425 0.21331 0.57295
 C955 C 0.42723 0.21614 0.59165
 C956 C 0.42493 0.23554 0.60479
 C957 C 0.40731 0.23925 0.62096
 C958 C 0.39167 0.22359 0.62416
 C959 C 0.39444 0.20390 0.61148
 C960 C 0.41209 0.20023 0.59529
 C961 C 0.37199 0.22834 0.63928
 C962 C 0.35217 0.22167 0.62959
 C963 C 0.33346 0.22752 0.64256
 C964 C 0.33426 0.24006 0.66540
 C965 C 0.35390 0.24638 0.67558
 C966 C 0.37266 0.24054 0.66263
 C967 C 0.31483 0.24732 0.67737
 C968 C 0.29823 0.25355 0.68639
 H969 H 0.43645 0.24804 0.60194
 H970 H 0.40552 0.25468 0.63010
 H971 H 0.38282 0.19144 0.61381
 H972 H 0.41368 0.18517 0.58515
 H973 H 0.35106 0.21257 0.61146
 H974 H 0.31834 0.22265 0.63441
 H975 H 0.35470 0.25611 0.69324
 H976 H 0.38767 0.24572 0.67075
 C977 C 0.04177 0.29863 0.05914
 C978 C 0.05519 0.29723 0.07609
 C979 C 0.07159 0.29437 0.09559
 C980 C 0.09168 0.30310 0.09141
 C981 C 0.10836 0.29825 0.10865
 C982 C 0.10517 0.28450 0.13027
 C983 C 0.08473 0.27637 0.13481
 C984 C 0.06807 0.28126 0.11754
 C985 C 0.12340 0.27758 0.14682
 C986 C 0.12556 0.25617 0.15424
 C987 C 0.14366 0.24917 0.16768
 C988 C 0.15981 0.26347 0.17396
 C989 C 0.15754 0.28492 0.16736
 C990 C 0.13945 0.29195 0.15390
 C991 C 0.17933 0.25589 0.18533
 C992 C 0.19604 0.24950 0.19383
 H993 H 0.09463 0.31309 0.07433
 H994 H 0.12396 0.30452 0.10440
 H995 H 0.08173 0.26595 0.15144
 H996 H 0.05259 0.27434 0.12089
 H997 H 0.11365 0.24465 0.14874
 H998 H 0.14534 0.23251 0.17250
 H999 H 0.16998 0.29611 0.17207
 H1000 H 0.13813 0.30856 0.14871
 C1001 C 0.54258 0.77867 0.55625
 C1002 C 0.55586 0.77849 0.57346
 C1003 C 0.57200 0.77775 0.59365
 C1004 C 0.59220 0.78585 0.58841
 C1005 C 0.60834 0.78391 0.60728
 C1006 C 0.60450 0.77377 0.63167
 C1007 C 0.58400 0.76608 0.63698
 C1008 C 0.56788 0.76806 0.61807
 C1009 C 0.62213 0.77023 0.65076
 C1010 C 0.62427 0.75063 0.66387
 C1011 C 0.64193 0.74649 0.67983
 C1012 C 0.65766 0.76188 0.68304
 C1013 C 0.65535 0.78168 0.67080
 C1014 C 0.63769 0.78586 0.65481
 C1015 C 0.67708 0.75657 0.69655
 C1016 C 0.69376 0.75151 0.70644
 H1017 H 0.59561 0.79327 0.56952
 H1018 H 0.62401 0.78970 0.60239
 H1019 H 0.58049 0.75841 0.65567
 H1020 H 0.55229 0.76172 0.62233
 H1021 H 0.61276 0.73816 0.66088
 H1022 H 0.64368 0.73103 0.68895
 H1023 H 0.66748 0.79367 0.67301
 H1024 H 0.63637 0.80118 0.64527
   
