data_POSCAR
  _audit_creation_date              2014-09-24
  _audit_creation_method            'ToBaCCo'
  _symmetry_space_group_name_H-M    'P1'
  _symmetry_Int_Tables_number       1
  _symmetry_cell_setting            triclinic
  loop_
  _symmetry_equiv_pos_as_xyz
 x,y,z
_cell_length_a 27.9570
_cell_length_b 27.8949
_cell_length_c 28.1757
_cell_angle_alpha 88.196300
_cell_angle_beta 90.200300
_cell_angle_gamma 90.474700
loop_
  _atom_site_label
  _atom_site_type_symbol
  _atom_site_fract_x
  _atom_site_fract_y
  _atom_site_fract_z
C1 C 0.23992 0.16821 0.22846
 C2 C 0.22505 0.14913 0.27264
 C3 C 0.18788 0.17068 0.29744
 C4 C 0.16716 0.21300 0.27877
 C5 C 0.18188 0.23262 0.23473
 C6 C 0.21812 0.20989 0.20921
 C7 C 0.27423 0.14459 0.20196
 C8 C 0.28660 0.16161 0.15616
 C9 C 0.26548 0.20354 0.13736
 C10 C 0.23107 0.22760 0.16350
 C11 C 0.20758 0.26758 0.14362
 C12 C 0.17085 0.28961 0.16850
 C13 C 0.15885 0.27275 0.21438
 H14 H 0.24073 0.11607 0.28622
 H15 H 0.13787 0.22925 0.29744
 H16 H 0.29031 0.11194 0.21634
 H17 H 0.27457 0.21674 0.10195
 H18 H 0.21687 0.28038 0.10816
 H19 H 0.13008 0.28963 0.23325
 C20 C -0.23050 0.84121 0.23180
 C21 C -0.20624 0.86681 0.26653
 C22 C -0.15791 0.85770 0.27660
 C23 C -0.13414 0.82163 0.25267
 C24 C -0.15816 0.79542 0.21817
 C25 C -0.20648 0.80526 0.20743
 C26 C -0.27753 0.85293 0.21934
 C27 C -0.30065 0.83010 0.18183
 C28 C -0.27729 0.79287 0.15878
 C29 C -0.23026 0.78027 0.17132
 C30 C -0.20570 0.74483 0.14695
 C31 C -0.15768 0.73493 0.15799
 C32 C -0.13419 0.76038 0.19337
 H33 H -0.22459 0.89481 0.28498
 H34 H -0.09692 0.81414 0.26034
 H35 H -0.29471 0.88208 0.23694
 H36 H -0.29477 0.77562 0.12934
 H37 H -0.22360 0.72565 0.11907
 H38 H -0.09695 0.75291 0.20135
 C39 C -0.23078 0.16018 -0.21355
 C40 C -0.21333 0.13975 -0.25478
 C41 C -0.17279 0.15921 -0.27750
 C42 C -0.15196 0.20140 -0.26121
 C43 C -0.16921 0.22231 -0.22028
 C44 C -0.20825 0.20124 -0.19565
 C45 C -0.26855 0.13851 -0.18847
 C46 C -0.28310 0.15606 -0.14470
 C47 C -0.26088 0.19726 -0.12693
 C48 C -0.22346 0.22011 -0.15232
 C49 C -0.19923 0.25993 -0.13415
 C50 C -0.15991 0.28037 -0.15856
 C51 C -0.14593 0.26213 -0.20203
 H52 H -0.22961 0.10724 -0.26776
 H53 H -0.12110 0.21695 -0.27922
 H54 H -0.28556 0.10663 -0.20213
 H55 H -0.27191 0.21098 -0.09317
 H56 H -0.20956 0.27385 -0.10021
 H57 H -0.11559 0.27747 -0.22094
 C58 C 0.25874 0.80947 -0.26679
 C59 C 0.23732 0.83576 -0.30413
 C60 C 0.19201 0.82268 -0.32108
 C61 C 0.17014 0.78015 -0.30358
 C62 C 0.19141 0.75307 -0.26652
 C63 C 0.23554 0.76824 -0.24739
 C64 C 0.30030 0.82687 -0.24531
 C65 C 0.31819 0.80468 -0.20375
 C66 C 0.29593 0.76288 -0.18510
 C67 C 0.25456 0.74447 -0.20664
 C68 C 0.22932 0.70566 -0.18554
 C69 C 0.18525 0.69067 -0.20436
 C70 C 0.16702 0.71383 -0.24539
 H71 H 0.25413 0.86866 -0.31752
 H72 H 0.13531 0.76946 -0.31658
 H73 H 0.31633 0.86019 -0.25850
 H74 H 0.30873 0.74683 -0.15195
 H75 H 0.24256 0.68870 -0.15298
 H76 H 0.13231 0.70347 -0.25904
 C77 C 0.15419 1.23918 0.77781
 C78 C 0.13164 1.22153 0.73685
 C79 C 0.14478 1.17688 0.71896
 C80 C 0.18120 1.15048 0.74199
 C81 C 0.20385 1.16744 0.78267
 C82 C 0.19033 1.21186 0.80082
 C83 C 0.14008 1.28274 0.79726
 C84 C 0.16171 1.29938 0.83908
 C85 C 0.19774 1.27187 0.86140
 C86 C 0.21216 1.22828 0.84270
 C87 C 0.24702 1.20005 0.86606
 C88 C 0.26013 1.15559 0.84829
 C89 C 0.23893 1.13989 0.80623
 H90 H 0.10321 1.24191 0.71980
 H91 H 0.19113 1.11583 0.72877
 H92 H 0.11123 1.30291 0.78065
 H93 H 0.21350 1.28359 0.89432
 H94 H 0.26369 1.21243 0.89828
 H95 H 0.24942 1.10590 0.79205
 C96 C 0.82312 0.76704 0.76349
 C97 C 0.84312 0.78681 0.72153
 C98 C 0.82007 0.82419 0.69615
 C99 C 0.77557 0.84040 0.71215
 C100 C 0.75524 0.82117 0.75410
 C101 C 0.77927 0.78459 0.78014
 C102 C 0.84763 0.73195 0.79046
 C103 C 0.82997 0.71549 0.83482
 C104 C 0.78586 0.73247 0.85082
 C105 C 0.76045 0.76698 0.82381
 C106 C 0.71785 0.78613 0.84101
 C107 C 0.69453 0.82339 0.81582
 C108 C 0.71282 0.84011 0.77198
 H109 H 0.87776 0.77469 0.70977
 H110 H 0.75770 0.86973 0.69355
 H111 H 0.88141 0.71868 0.77765
 H112 H 0.77170 0.71963 0.88468
 H113 H 0.70398 0.77375 0.87518
 H114 H 0.69527 0.86921 0.75270
 C115 C 0.16900 0.77056 1.25934
 C116 C 0.14384 0.79392 1.29487
 C117 C 0.16299 0.83517 1.31532
 C118 C 0.20821 0.85241 1.30090
 C119 C 0.23401 0.82935 1.26568
 C120 C 0.21437 0.78811 1.24492
 C121 C 0.14829 0.73173 1.23598
 C122 C 0.17209 0.71058 1.19804
 C123 C 0.21801 0.72695 1.18533
 C124 C 0.23900 0.76589 1.20803
 C125 C 0.28261 0.78516 1.19190
 C126 C 0.30125 0.82728 1.21089
 C127 C 0.27754 0.84862 1.24859
 H128 H 0.10858 0.78113 1.30518
 H129 H 0.22248 0.88481 1.31605
 H130 H 0.11290 0.71947 1.24633
 H131 H 0.23635 0.71091 1.15597
 H132 H 0.30055 0.76934 1.16220
 H133 H 0.29145 0.88159 1.26279
 C134 C 0.82058 1.24031 1.21409
 C135 C 0.84005 1.22457 1.25784
 C136 C 0.82565 1.18053 1.27895
 C137 C 0.79092 1.15254 1.25609
 C138 C 0.77080 1.16809 1.21261
 C139 C 0.78591 1.21200 1.19128
 C140 C 0.83701 1.28275 1.19163
 C141 C 0.82041 1.29654 1.14618
 C142 C 0.78497 1.26913 1.12409
 C143 C 0.76748 1.22686 1.14643
 C144 C 0.73325 1.19823 1.12392
 C145 C 0.71810 1.15451 1.14506
 C146 C 0.73695 1.13969 1.18940
 H147 H 0.86775 1.24574 1.27447
 H148 H 0.78047 1.11792 1.27147
 H149 H 0.86456 1.30400 1.20842
 H150 H 0.77222 1.27977 1.08901
 H151 H 0.71894 1.20942 1.08954
 H152 H 0.72543 1.10605 1.20598
 O153 O 0.53987 0.96192 0.90259
 O154 O 0.45239 0.96405 1.10258
 O155 O 0.54629 0.91114 1.04370
 O156 O 0.41278 0.91527 0.96100
 O157 O 0.53895 0.96178 1.09799
 O158 O 0.45089 0.95448 0.90320
 O159 O 0.42967 0.91365 1.05046
 O160 O 0.55047 0.91100 0.95887
 C161 C 0.55456 0.92178 0.91645
 C162 C 0.43359 0.92442 1.09268
 C163 C 0.55142 0.92099 1.08574
 C164 C 0.42361 0.92084 0.91809
 O165 O 0.44365 1.04584 0.92271
 O166 O 0.53868 1.05045 1.05321
 O167 O 0.59001 1.00130 0.95809
 O168 O 0.39635 1.00356 1.05145
 O169 O 0.45372 1.05333 1.06116
 O170 O 0.53469 1.05052 0.93336
 O171 O 0.38989 1.00543 0.96446
 O172 O 0.59171 0.99786 1.04310
 Co173 Co 0.49251 1.00131 0.92390
 Co174 Co 0.49573 1.00510 1.07224
 Co175 Co 0.56321 0.95748 1.00091
 Co176 Co 0.41548 0.96128 1.00682
 O177 O 0.49124 0.98181 1.00044
 C178 C 0.40133 1.03905 0.93569
 C179 C 0.58131 1.03946 1.05386
 C180 C 0.57765 1.04185 0.94142
 C181 C 0.41044 1.04452 1.06173
 O182 O 0.05380 0.47149 0.09148
 O183 O 0.02836 0.55826 -0.09805
 O184 O 0.06484 0.43882 -0.02196
 O185 O 0.08279 0.58488 0.03818
 O186 O 0.04313 0.47082 -0.08810
 O187 O 0.04462 0.55977 0.09963
 O188 O 0.07749 0.57282 -0.04370
 O189 O 0.02297 0.41430 0.05114
 C190 C 0.05245 0.42834 0.08122
 C191 C 0.06818 0.57371 -0.08620
 C192 C 0.07109 0.44395 -0.06525
 C193 C 0.07841 0.58286 0.08174
 O194 O -0.04513 0.55579 0.08776
 O195 O -0.04965 0.45776 -0.06551
 O196 O -0.05913 0.44519 0.01762
 O197 O -0.01540 0.60727 -0.04451
 O198 O -0.05882 0.54602 -0.06470
 O199 O -0.04091 0.46429 0.08835
 O200 O -0.01033 0.61268 0.04240
 O201 O -0.01337 0.39399 -0.03458
 Co202 Co 0.00359 0.51244 0.08344
 Co203 Co -0.00695 0.50884 -0.07096
 Co204 Co 0.00353 0.44603 -0.00281
 Co205 Co 0.03168 0.58823 -0.00203
 O206 O 0.01010 0.51644 0.00543
 C207 C -0.04188 0.59878 0.07263
 C208 C -0.04233 0.41263 -0.06684
 C209 C -0.06811 0.44314 0.06062
 C210 C -0.05354 0.59027 -0.06148
 O211 O 1.10236 0.03792 0.46291
 O212 O 0.90339 0.05959 0.53941
 O213 O 0.96511 0.09397 0.43525
 O214 O 1.03059 0.03778 0.59644
 O215 O 0.89968 0.05755 0.44973
 O216 O 1.06519 0.07120 0.53663
 O217 O 0.94518 0.02158 0.59493
 O218 O 1.04642 0.08453 0.44785
 C219 C 1.08892 0.07485 0.44181
 C220 C 0.91554 0.05353 0.58195
 C221 C 0.92155 0.09115 0.42966
 C222 C 1.05517 0.07164 0.57945
 O223 O 1.11174 -0.00799 0.54530
 O224 O 0.90757 -0.03317 0.45304
 O225 O 1.04236 -0.00743 0.41329
 O226 O 0.96456 -0.06665 0.55916
 O227 O 0.89863 -0.03271 0.54259
 O228 O 1.06579 -0.04395 0.47850
 O229 O 1.04814 -0.05055 0.56280
 O230 O 0.95598 0.00341 0.40125
 Co231 Co 1.06228 0.01305 0.50897
 Co232 Co 0.91100 0.01319 0.49678
 Co233 Co 1.00188 0.04146 0.43008
 Co234 Co 0.99649 -0.01175 0.57168
 O235 O 0.99017 0.01584 0.49972
 C236 C 1.09210 -0.04234 0.57065
 C237 C 0.92430 -0.02806 0.41181
 C238 C 1.06186 -0.04299 0.43421
 C239 C 0.92056 -0.06702 0.56111
 C240 C 1.13318 0.07910 0.35966
 C241 C 1.11607 0.12459 0.33222
 C242 C 1.16638 0.14661 0.33735
 C243 C 1.18381 0.10117 0.36458
 C244 C 1.15203 0.16956 0.38414
 C245 C 1.10141 0.14724 0.37921
 C246 C 1.11872 0.10190 0.40634
 C247 C 1.16895 0.12373 0.41196
 H248 H 1.12490 0.04174 0.34971
 H249 H 1.09431 0.12493 0.29917
 H250 H 1.21773 0.08168 0.35939
 H251 H 1.16007 0.20703 0.39390
 H252 H 1.06724 0.16598 0.38550
 H253 H 1.19024 0.12305 0.44529
 C254 C 0.85201 -0.05794 0.35977
 C255 C 0.86733 -0.05892 0.30714
 C256 C 0.86621 -0.11411 0.31046
 C257 C 0.85076 -0.11336 0.36273
 C258 C 0.91940 -0.11521 0.32509
 C259 C 0.92062 -0.05959 0.32231
 C260 C 0.90494 -0.05902 0.37444
 C261 C 0.90406 -0.11406 0.37783
 H262 H 0.82463 -0.03395 0.37442
 H263 H 0.85204 -0.03638 0.27776
 H264 H 0.82187 -0.13576 0.37913
 H265 H 0.94786 -0.13846 0.31130
 H266 H 0.94958 -0.03706 0.30621
 H267 H 0.91951 -0.13623 0.40739
 C268 C 0.84000 0.07609 0.63360
 C269 C 0.85616 0.07734 0.68612
 C270 C 0.85090 0.13228 0.68411
 C271 C 0.83452 0.13132 0.63206
 C272 C 0.90352 0.13841 0.66881
 C273 C 0.90881 0.08326 0.67045
 C274 C 0.89243 0.08241 0.61845
 C275 C 0.88741 0.13717 0.61626
 H276 H 0.81435 0.04993 0.61867
 H277 H 0.84324 0.05273 0.71513
 H278 H 0.80373 0.15141 0.61671
 H279 H 0.93028 0.16378 0.68316
 H280 H 0.93963 0.06324 0.68586
 H281 H 0.90069 0.16132 0.58705
 C282 C 1.10591 -0.09601 0.64818
 C283 C 1.11398 -0.14811 0.63310
 C284 C 1.16654 -0.14409 0.64914
 C285 C 1.15856 -0.09217 0.66446
 C286 C 1.18178 -0.12589 0.59930
 C287 C 1.12884 -0.12953 0.58291
 C288 C 1.12095 -0.07785 0.59841
 C289 C 1.17336 -0.07356 0.61424
 H290 H 1.07487 -0.08339 0.66862
 H291 H 1.08839 -0.17811 0.63998
 H292 H 1.17079 -0.07694 0.69840
 H293 H 1.21308 -0.13871 0.57932
 H294 H 1.11636 -0.14431 0.54887
 H295 H 1.19732 -0.04242 0.60632
 C296 C 0.38835 1.13083 1.09545
 C297 C 0.33745 1.14490 1.07815
 C298 C 0.31861 1.13447 1.12884
 C299 C 0.36903 1.12093 1.14627
 C300 C 0.30771 1.08204 1.11689
 C301 C 0.32701 1.09193 1.06605
 C302 C 0.37725 1.07848 1.08372
 C303 C 0.35837 1.06826 1.13420
 H304 H 0.42190 1.15050 1.08624
 H305 H 0.32930 1.17633 1.05448
 H306 H 0.38612 1.13306 1.17948
 H307 H 0.27428 1.06207 1.12597
 H308 H 0.31017 1.07955 1.03286
 H309 H 0.36744 1.03652 1.15712
 C310 C 0.36729 0.90647 0.84414
 C311 C 0.38951 0.87030 0.81016
 C312 C 0.35195 0.83260 0.82655
 C313 C 0.32969 0.86863 0.86017
 C314 C 0.38540 0.81398 0.86635
 C315 C 0.42346 0.85216 0.85055
 C316 C 0.40066 0.88799 0.88392
 C317 C 0.36317 0.85023 0.90013
 H318 H 0.35996 0.94481 0.83536
 H319 H 0.40044 0.87822 0.77289
 H320 H 0.29081 0.87526 0.86407
 H321 H 0.39285 0.77572 0.87525
 H322 H 0.46240 0.84581 0.84711
 H323 H 0.35216 0.84204 0.93736
 C324 C 0.61607 0.85177 1.09592
 C325 C 0.66153 0.87754 1.11336
 C326 C 0.65707 0.85034 1.16149
 C327 C 0.61176 0.82420 1.14437
 C328 C 0.62654 0.89101 1.18117
 C329 C 0.63105 0.91818 1.13282
 C330 C 0.58568 0.89246 1.11544
 C331 C 0.58058 0.86542 1.16351
 H332 H 0.61154 0.83565 1.06064
 H333 H 0.69498 0.88273 1.09262
 H334 H 0.60421 0.78525 1.14939
 H335 H 0.62971 0.90779 1.21624
 H336 H 0.63902 0.95709 1.12804
 H337 H 0.54676 0.86067 1.18370
 C338 C 0.66558 1.08244 0.94201
 C339 C 0.68561 1.07573 0.89162
 C340 C 0.68106 1.13006 0.88126
 C341 C 0.66155 1.13729 0.93159
 C342 C 0.63009 1.12310 0.86182
 C343 C 0.63445 1.06862 0.87224
 C344 C 0.61476 1.07560 0.92235
 C345 C 0.60995 1.12983 0.91230
 H346 H 0.67975 1.06493 0.97497
 H347 H 0.71696 1.05346 0.88300
 H348 H 0.67266 1.16552 0.95633
 H349 H 0.61571 1.13999 0.82860
 H350 H 0.62295 1.04012 0.84795
 H351 H 0.57839 1.15164 0.92123
 C352 C 0.08948 0.34134 0.08854
 C353 C 0.14445 0.34590 0.09263
 C354 C 0.14124 0.32814 0.14488
 C355 C 0.08648 0.32336 0.14085
 C356 C 0.13660 0.37994 0.16139
 C357 C 0.13945 0.39813 0.10883
 C358 C 0.08485 0.39310 0.10498
 C359 C 0.08147 0.37556 0.15707
 H360 H 0.06986 0.32558 0.05838
 H361 H 0.16991 0.33436 0.06520
 H362 H 0.06484 0.29222 0.15411
 H363 H 0.15642 0.39545 0.19154
 H364 H 0.16078 0.42942 0.09541
 H365 H 0.05513 0.38816 0.18319
 C366 C -0.09678 0.38892 -0.14212
 C367 C -0.08156 0.33778 -0.15516
 C368 C -0.12969 0.31803 -0.13591
 C369 C -0.14530 0.36877 -0.12316
 C370 C -0.10762 0.30982 -0.08625
 C371 C -0.05945 0.32968 -0.10532
 C372 C -0.07490 0.38034 -0.09265
 C373 C -0.12279 0.36091 -0.07320
 H374 H -0.09191 0.42190 -0.16472
 H375 H -0.06307 0.32926 -0.18858
 H376 H -0.18098 0.38444 -0.13074
 H377 H -0.11224 0.27702 -0.06332
 H378 H -0.02383 0.31379 -0.09775
 H379 H -0.13940 0.37114 -0.03932
 C380 C 0.14769 0.62393 -0.10512
 C381 C 0.17048 0.60819 -0.15209
 C382 C 0.15444 0.65574 -0.17614
 C383 C 0.13191 0.67156 -0.12946
 C384 C 0.10667 0.63259 -0.19121
 C385 C 0.12228 0.58459 -0.16664
 C386 C 0.09999 0.60088 -0.12011
 C387 C 0.08403 0.64830 -0.14422
 H388 H 0.16445 0.62024 -0.06943
 H389 H 0.20634 0.59190 -0.15560
 H390 H 0.13598 0.70760 -0.11422
 H391 H 0.08945 0.63566 -0.22670
 H392 H 0.11796 0.54840 -0.18148
 H393 H 0.04815 0.66456 -0.14066
 C394 C -0.11939 0.62186 0.12242
 C395 C -0.10264 0.65795 0.15962
 C396 C -0.13000 0.69789 0.13247
 C397 C -0.14720 0.66215 0.09539
 C398 C -0.08539 0.71042 0.10257
 C399 C -0.05779 0.67026 0.12963
 C400 C -0.07476 0.63456 0.09265
 C401 C -0.10209 0.67420 0.06522
 H402 H -0.13310 0.58504 0.13041
 H403 H -0.10313 0.65141 0.19869
 H404 H -0.18410 0.65866 0.08121
 H405 H -0.07166 0.74723 0.09456
 H406 H -0.02086 0.67324 0.14384
 H407 H -0.10163 0.68042 0.02618
 C408 C 1.05133 0.12903 0.65460
 C409 C 1.09052 0.10935 0.68862
 C410 C 1.11998 0.15569 0.68009
 C411 C 1.08094 0.17593 0.64634
 C412 C 1.14581 0.13335 0.63799
 C413 C 1.11628 0.08690 0.64656
 C414 C 1.07722 0.10660 0.61269
 C415 C 1.10656 0.15291 0.60367
 H416 H 1.01225 0.12711 0.66111
 H417 H 1.08394 0.09118 0.72364
 H418 H 1.06620 0.21275 0.64608
 H419 H 1.18490 0.13500 0.63123
 H420 H 1.13091 0.05000 0.64658
 H421 H 1.11287 0.17066 0.56842
 C422 C 0.86803 -0.07934 0.63613
 C423 C 0.82403 -0.11096 0.62534
 C424 C 0.84472 -0.15069 0.65848
 C425 C 0.88861 -0.11913 0.66933
 C426 C 0.87118 -0.17264 0.61655
 C427 C 0.85080 -0.13238 0.58297
 C428 C 0.89452 -0.10091 0.59411
 C429 C 0.91540 -0.14049 0.62705
 H430 H 0.86698 -0.04064 0.64422
 H431 H 0.78668 -0.09792 0.62332
 H432 H 0.90399 -0.11347 0.70512
 H433 H 0.87211 -0.21137 0.60872
 H434 H 0.83569 -0.13771 0.54702
 H435 H 0.95319 -0.15241 0.62740
 C436 C 1.06778 -0.09675 0.35722
 C437 C 1.11731 -0.08522 0.33521
 C438 C 1.13399 -0.13619 0.34924
 C439 C 1.08459 -0.14816 0.37105
 C440 C 1.15237 -0.11883 0.39737
 C441 C 1.13553 -0.06763 0.38345
 C442 C 1.08624 -0.07939 0.40523
 C443 C 1.10275 -0.13023 0.41965
 H444 H 1.03267 -0.08746 0.34102
 H445 H 1.12350 -0.06666 0.30032
 H446 H 1.06325 -0.18138 0.36623
 H447 H 1.18744 -0.12801 0.41370
 H448 H 1.15651 -0.03430 0.38896
 H449 H 1.09640 -0.14844 0.45469
 C450 C 0.91959 0.15415 0.35415
 C451 C 0.89222 0.12731 0.31505
 C452 C 0.84983 0.16155 0.32007
 C453 C 0.87687 0.18893 0.35878
 C454 C 0.82690 0.12783 0.35804
 C455 C 0.86947 0.09346 0.35311
 C456 C 0.89657 0.12045 0.39197
 C457 C 0.85424 0.15465 0.39728
 H458 H 0.95791 0.16486 0.35293
 H459 H 0.90767 0.11586 0.28101
 H460 H 0.87970 0.22849 0.36123
 H461 H 0.78868 0.11686 0.35989
 H462 H 0.86659 0.05387 0.35077
 H463 H 0.83901 0.16580 0.43150
 C464 C 0.12770 0.36652 -0.06743
 C465 C 0.10186 0.33273 -0.10178
 C466 C 0.14280 0.34000 -0.13765
 C467 C 0.16914 0.37361 -0.10354
 C468 C 0.11698 0.38310 -0.16136
 C469 C 0.07591 0.37588 -0.12527
 C470 C 0.10184 0.40959 -0.09100
 C471 C 0.14269 0.41732 -0.12688
 H472 H 0.13219 0.35991 -0.02860
 H473 H 0.08468 0.29790 -0.09159
 H474 H 0.20786 0.37276 -0.09472
 H475 H 0.11235 0.39009 -0.20010
 H476 H 0.03727 0.37694 -0.13440
 H477 H 0.15942 0.45243 -0.13681
 C478 C -0.10535 0.35544 0.06326
 C479 C -0.10035 0.33693 0.11513
 C480 C -0.15511 0.33765 0.12030
 C481 C -0.16052 0.35585 0.06833
 C482 C -0.15300 0.38945 0.13737
 C483 C -0.09803 0.38878 0.13223
 C484 C -0.10312 0.40724 0.08038
 C485 C -0.15783 0.40841 0.08511
 H486 H -0.08558 0.34149 0.03259
 H487 H -0.07656 0.30738 0.12751
 H488 H -0.18624 0.34222 0.04178
 H489 H -0.17280 0.40308 0.16818
 H490 H -0.07216 0.40229 0.15875
 H491 H -0.18112 0.43824 0.07246
 C492 C -0.08509 0.63143 -0.14041
 C493 C -0.14032 0.62880 -0.14312
 C494 C -0.14218 0.68322 -0.13627
 C495 C -0.08716 0.68611 -0.13373
 C496 C -0.14491 0.67531 -0.08189
 C497 C -0.14260 0.62030 -0.08843
 C498 C -0.08775 0.62339 -0.08621
 C499 C -0.08953 0.67779 -0.07935
 H500 H -0.06008 0.61308 -0.16425
 H501 H -0.16133 0.60884 -0.16967
 H502 H -0.06393 0.71323 -0.15215
 H503 H -0.16923 0.69349 -0.05726
 H504 H -0.16502 0.59294 -0.06939
 H505 H -0.06819 0.69782 -0.05312
 C506 C 0.08959 0.66552 0.12102
 C507 C 0.09711 0.65713 0.17496
 C508 C 0.14885 0.67586 0.16953
 C509 C 0.14138 0.68452 0.11571
 C510 C 0.16695 0.62483 0.16109
 C511 C 0.11483 0.60575 0.16626
 C512 C 0.10742 0.61449 0.11257
 C513 C 0.15901 0.63306 0.10683
 H514 H 0.05783 0.68225 0.10377
 H515 H 0.07038 0.66605 0.20224
 H516 H 0.15214 0.71736 0.09502
 H517 H 0.19893 0.60826 0.17809
 H518 H 0.10392 0.57283 0.18674
 H519 H 0.18417 0.62286 0.07856
 C520 C 0.35294 1.07325 0.86126
 C521 C 0.29878 1.06979 0.87180
 C522 C 0.29702 1.12493 0.87364
 C523 C 0.35089 1.12858 0.86301
 C524 C 0.30725 1.12241 0.92748
 C525 C 0.30945 1.06696 0.92573
 C526 C 0.36325 1.07073 0.91492
 C527 C 0.36164 1.12571 0.91703
 H528 H 0.37203 1.05268 0.83416
 H529 H 0.27286 1.04633 0.85343
 H530 H 0.36774 1.15412 0.83696
 H531 H 0.28826 1.14265 0.95488
 H532 H 0.29263 1.04130 0.95169
 H533 H 0.38782 1.14838 0.93600
 C534 C 0.35630 0.91833 1.14379
 C535 C 0.33146 0.87035 1.13330
 C536 C 0.34123 0.85291 1.18477
 C537 C 0.36598 0.90093 1.19553
 C538 C 0.38926 0.83143 1.16979
 C539 C 0.37948 0.84906 1.11802
 C540 C 0.40426 0.89700 1.12856
 C541 C 0.41464 0.87993 1.17996
 H542 H 0.34260 0.95418 1.13262
 H543 H 0.29698 0.86658 1.11403
 H544 H 0.36061 0.92260 1.22741
 H545 H 0.40253 0.79537 1.18085
 H546 H 0.38516 0.82767 1.08598
 H547 H 0.44936 0.88405 1.19868
 C548 C 0.67074 1.05782 1.08230
 C549 C 0.68544 1.10983 1.06756
 C550 C 0.68206 1.12383 1.11991
 C551 C 0.66771 1.07208 1.13477
 C552 C 0.62921 1.13744 1.11294
 C553 C 0.63202 1.12298 1.06035
 C554 C 0.61791 1.07140 1.07550
 C555 C 0.61460 1.08546 1.12771
 H556 H 0.68767 1.02487 1.06931
 H557 H 0.71501 1.12005 1.04298
 H558 H 0.68175 1.04990 1.16499
 H559 H 0.61231 1.17041 1.12593
 H560 H 0.61683 1.14353 1.02958
 H561 H 0.58523 1.07538 1.15254
 C562 C 0.61388 0.84854 0.90498
 C563 C 0.60635 0.82576 0.85604
 C564 C 0.65380 0.84867 0.83896
 C565 C 0.66148 0.87120 0.88760
 C566 C 0.62730 0.89383 0.82052
 C567 C 0.57927 0.87135 0.83804
 C568 C 0.58742 0.89362 0.88662
 C569 C 0.63484 0.91637 0.86943
 H570 H 0.60816 0.82995 0.93994
 H571 H 0.59496 0.78817 0.85029
 H572 H 0.69553 0.87123 0.90799
 H573 H 0.63237 0.91312 0.78584
 H574 H 0.54512 0.87171 0.81786
 H575 H 0.64650 0.95387 0.87528
   
