data_POSCAR
  _audit_creation_date              2014-09-24
  _audit_creation_method            'ToBaCCo'
  _symmetry_space_group_name_H-M    'P1'
  _symmetry_Int_Tables_number       1
  _symmetry_cell_setting            triclinic
  loop_
  _symmetry_equiv_pos_as_xyz
 x,y,z
_cell_length_a 43.0822
_cell_length_b 47.1608
_cell_length_c 45.9844
_cell_angle_alpha 90.282600
_cell_angle_beta 90.656800
_cell_angle_gamma 90.251200
loop_
  _atom_site_label
  _atom_site_type_symbol
  _atom_site_fract_x
  _atom_site_fract_y
  _atom_site_fract_z
O1 O 0.35324 0.38975 0.03449
 O2 O 0.39810 0.34964 -0.01911
 O3 O 0.35066 0.38365 -0.02167
 O4 O 0.39871 0.35324 0.03754
 O5 O 0.36507 0.31807 0.04142
 O6 O 0.31883 0.34695 -0.01907
 O7 O 0.36576 0.31345 -0.01507
 O8 O 0.31924 0.35469 0.03705
 Cu9 Cu 0.37849 0.37264 0.00758
 Cu10 Cu 0.33895 0.32970 0.01167
 C11 C 0.32832 0.37944 0.04441
 C12 C 0.38960 0.32479 -0.02632
 C13 C 0.32671 0.37017 -0.03071
 C14 C 0.39007 0.33030 0.04943
 O15 O 0.66613 0.63665 0.02378
 O16 O 0.61413 0.66695 -0.03172
 O17 O 0.65470 0.62597 -0.03078
 O18 O 0.62614 0.67812 0.02261
 O19 O 0.66357 0.70785 0.01054
 O20 O 0.69202 0.65584 -0.04253
 O21 O 0.65105 0.69714 -0.04386
 O22 O 0.70294 0.66719 0.01210
 Cu23 Cu 0.63655 0.64890 -0.00283
 Cu24 Cu 0.68109 0.68496 -0.01749
 C25 C 0.69324 0.64684 0.02753
 C26 C 0.62359 0.68752 -0.04695
 C27 C 0.67862 0.63189 -0.04548
 C28 C 0.64011 0.70178 0.02574
 O29 O 0.63307 0.32986 1.02524
 O30 O 0.65882 0.38069 0.96942
 O31 O 0.61827 0.33898 0.97156
 O32 O 0.67264 0.37151 1.02437
 O33 O 0.70880 0.34104 1.01159
 O34 O 0.65516 0.31011 0.95677
 O35 O 0.69647 0.35152 0.95715
 O36 O 0.66862 0.29956 1.01050
 Cu37 Cu 0.64215 0.35844 0.99887
 Cu38 Cu 0.68598 0.32271 0.98251
 C39 C 0.64616 0.30580 1.02694
 C40 C 0.68239 0.37495 0.95415
 C41 C 0.62721 0.31865 0.95561
 C42 C 0.69983 0.36151 1.02742
 O43 O 0.31534 0.64760 0.97348
 O44 O 0.34790 0.68336 1.03886
 O45 O 0.31856 0.63592 1.02912
 O46 O 0.34811 0.69327 0.98346
 O47 O 0.30423 0.71677 0.98846
 O48 O 0.27404 0.65845 1.03348
 O49 O 0.30363 0.70615 1.04414
 O50 O 0.27180 0.67155 0.97888
 Cu51 Cu 0.33685 0.66262 1.00571
 Cu52 Cu 0.28405 0.69056 1.01196
 C53 C 0.28799 0.65384 0.96498
 C54 C 0.33117 0.70103 1.05249
 C55 C 0.29126 0.63723 1.03899
 C56 C 0.33137 0.71474 0.97814
 O57 O -0.04818 0.36803 0.32898
 O58 O 0.01658 0.33862 0.37136
 O59 O 0.01131 0.36619 0.32295
 O60 O -0.04358 0.33821 0.37694
 O61 O -0.04784 0.29878 0.35115
 O62 O 0.00831 0.32572 0.29865
 O63 O 0.01171 0.29813 0.34730
 O64 O -0.05200 0.32834 0.30347
 Cu65 Cu -0.01575 0.35680 0.35261
 Cu66 Cu -0.02045 0.30876 0.32255
 C67 C -0.06067 0.35354 0.30864
 C68 C 0.02499 0.31330 0.36673
 C69 C 0.01930 0.35054 0.30173
 C70 C -0.05476 0.31342 0.37337
 O71 O 0.04861 0.66727 0.61930
 O72 O -0.00571 0.61631 0.65228
 O73 O -0.01042 0.65590 0.61260
 O74 O 0.05278 0.62743 0.65871
 O75 O 0.04204 0.65898 0.69278
 O76 O -0.02043 0.68782 0.64641
 O77 O -0.01702 0.64803 0.68597
 O78 O 0.03860 0.69827 0.65408
 Cu79 Cu 0.02233 0.63864 0.63223
 Cu80 Cu 0.00952 0.67640 0.67318
 C81 C 0.05309 0.69132 0.63128
 C82 C -0.02039 0.62344 0.67492
 C83 C -0.02600 0.67697 0.62150
 C84 C 0.05803 0.63829 0.68366
 O85 O 0.98228 0.66158 0.38383
 O86 O 1.03090 0.63088 0.32648
 O87 O 1.03880 0.66978 0.36599
 O88 O 0.97421 0.62253 0.34318
 O89 O 0.95864 0.65476 0.31165
 O90 O 1.02113 0.70275 0.33626
 O91 O 1.01526 0.66413 0.29605
 O92 O 0.96449 0.69319 0.35262
 Cu93 Cu 1.00806 0.64292 0.35806
 Cu94 Cu 0.98810 0.68199 0.32115
 C95 C 0.96518 0.68269 0.37802
 C96 C 1.03150 0.64237 0.30156
 C97 C 1.04087 0.69442 0.35501
 C98 C 0.95597 0.63033 0.32287
 O99 O 0.98296 0.32971 0.64257
 O100 O 1.04518 0.35744 0.69003
 O101 O 1.04271 0.32149 0.64645
 O102 O 0.98458 0.36286 0.68788
 O103 O 0.97802 0.32598 0.71662
 O104 O 1.03762 0.28646 0.67776
 O105 O 1.03819 0.32217 0.72070
 O106 O 0.97838 0.29241 0.67112
 Cu107 Cu 1.01456 0.34656 0.66381
 Cu108 Cu 1.00732 0.30322 0.69956
 C109 C 0.97051 0.30608 0.64844
 C110 C 1.05222 0.34475 0.71347
 C111 C 1.05004 0.29680 0.65532
 C112 C 0.97121 0.35107 0.70924
 O113 O 0.33103 -0.02588 0.35651
 O114 O 0.37296 0.03125 0.31768
 O115 O 0.33911 0.02863 0.36456
 O116 O 0.36790 -0.02361 0.31211
 O117 O 0.32748 -0.01580 0.28335
 O118 O 0.29725 0.03508 0.33727
 O119 O 0.33085 0.03895 0.29106
 O120 O 0.29028 -0.01877 0.32793
 Cu121 Cu 0.35689 0.00190 0.34050
 Cu122 Cu 0.30737 0.01049 0.30707
 C123 C 0.30333 -0.03190 0.34866
 C124 C 0.35869 0.04494 0.29785
 C125 C 0.31319 0.04057 0.36008
 C126 C 0.35286 -0.02849 0.28873
 O127 O 0.61996 0.02448 0.67883
 O128 O 0.64909 -0.03198 0.63050
 O129 O 0.61800 -0.03038 0.67883
 O130 O 0.64971 0.02354 0.62978
 O131 O 0.69327 0.02397 0.65556
 O132 O 0.66289 -0.03234 0.70243
 O133 O 0.69393 -0.03104 0.65425
 O134 O 0.66367 0.02276 0.70433
 Cu135 Cu 0.62976 -0.00356 0.65190
 Cu136 Cu 0.68291 -0.00423 0.68159
 C137 C 0.63681 0.03293 0.70007
 C138 C 0.67666 -0.04090 0.63403
 C139 C 0.63500 -0.04054 0.69893
 C140 C 0.67679 0.03325 0.63461
 O141 O 0.31286 1.02705 0.62851
 O142 O 0.36273 0.97459 0.66504
 O143 O 0.31554 0.97184 0.62924
 O144 O 0.35994 1.02986 0.66407
 O145 O 0.32859 1.02842 0.70172
 O146 O 0.28322 0.97131 0.66617
 O147 O 0.33033 0.97343 0.70189
 O148 O 0.28091 1.02625 0.66573
 Cu149 Cu 0.34099 1.00090 0.64297
 Cu150 Cu 0.30256 0.99986 0.68764
 C151 C 0.28835 1.03552 0.64090
 C152 C 0.35495 0.96502 0.68967
 C153 C 0.29176 0.96177 0.64169
 C154 C 0.35200 1.03883 0.68893
 O155 O 0.62456 0.97000 0.34075
 O156 O 0.67700 1.02158 0.37653
 O157 O 0.62694 1.02531 0.34424
 O158 O 0.67445 0.96676 0.37324
 O159 O 0.70365 0.96839 0.33413
 O160 O 0.65572 1.02631 0.30484
 O161 O 0.70527 1.02360 0.33684
 O162 O 0.65357 0.97107 0.30149
 Cu163 Cu 0.64776 0.99577 0.36258
 Cu164 Cu 0.68241 0.99734 0.31535
 C165 C 0.63017 0.96169 0.31506
 C166 C 0.70003 1.03150 0.36275
 C167 C 0.63338 1.03591 0.31969
 C168 C 0.69740 0.95784 0.35874
 C169 C 0.81900 0.81735 0.52299
 C170 C 0.81464 0.81447 0.49369
 C171 C 0.83233 0.79408 0.47553
 C172 C 0.79273 0.83336 0.47777
 C173 C 0.80338 0.84054 0.53899
 C174 C 0.84044 0.79924 0.54045
 C175 C 0.86488 0.79239 0.47729
 C176 C 0.88115 0.77486 0.45820
 C177 C 0.86518 0.75931 0.43650
 C178 C 0.83279 0.76119 0.43461
 C179 C 0.81650 0.77816 0.45409
 C180 C 0.80381 0.85108 0.45576
 C181 C 0.78374 0.86954 0.44119
 C182 C 0.75201 0.87041 0.44820
 C183 C 0.74097 0.85243 0.47008
 C184 C 0.76105 0.83387 0.48453
 C185 C 0.77952 0.83431 0.55846
 C186 C 0.76487 0.85614 0.57365
 C187 C 0.77441 0.88445 0.57001
 C188 C 0.79868 0.89052 0.55090
 C189 C 0.81282 0.86877 0.53522
 C190 C 0.83976 0.76945 0.53860
 C191 C 0.85971 0.75310 0.55601
 C192 C 0.88029 0.76633 0.57592
 C193 C 0.88053 0.79598 0.57797
 C194 C 0.86105 0.81222 0.56037
 H195 H 0.87779 0.80526 0.49283
 H196 H 0.90624 0.77448 0.45957
 H197 H 0.82007 0.74964 0.41786
 H198 H 0.79147 0.77936 0.45202
 H199 H 0.82820 0.85104 0.45031
 H200 H 0.79342 0.88358 0.42511
 H201 H 0.75195 0.82004 0.50115
 H202 H 0.77220 0.81257 0.56173
 H203 H 0.74674 0.85080 0.58881
 H204 H 0.80659 0.91215 0.54803
 H205 H 0.83142 0.87383 0.52045
 H206 H 0.82353 0.75885 0.52400
 H207 H 0.85836 0.73023 0.55442
 H208 H 0.89601 0.80669 0.59321
 H209 H 0.86210 0.83509 0.56238
 H210 H 0.71671 0.85273 0.47599
 C211 C 0.18275 0.18525 0.50863
 C212 C 0.17580 0.18122 0.48002
 C213 C 0.15065 0.19722 0.46557
 C214 C 0.19136 0.15942 0.46192
 C215 C 0.20397 0.16586 0.52422
 C216 C 0.16691 0.20726 0.52622
 C217 C 0.11960 0.19240 0.47303
 C218 C 0.09573 0.20547 0.45737
 C219 C 0.10263 0.22392 0.43449
 C220 C 0.13380 0.22896 0.42731
 C221 C 0.15762 0.21549 0.44261
 C222 C 0.17325 0.14012 0.44567
 C223 C 0.18718 0.12095 0.42674
 C224 C 0.21952 0.12048 0.42372
 C225 C 0.23779 0.13970 0.44017
 C226 C 0.22377 0.15904 0.45906
 C227 C 0.23239 0.17589 0.53537
 C228 C 0.25248 0.15750 0.55004
 C229 C 0.24391 0.12915 0.55457
 C230 C 0.21531 0.11920 0.54347
 C231 C 0.19555 0.13742 0.52830
 C232 C 0.16769 0.23597 0.51825
 C233 C 0.15121 0.25617 0.53419
 C234 C 0.13395 0.24814 0.55857
 C235 C 0.13345 0.21931 0.56655
 C236 C 0.14997 0.19921 0.55068
 H237 H 0.11393 0.17792 0.49041
 H238 H 0.07184 0.20111 0.46303
 H239 H 0.13975 0.24253 0.40926
 H240 H 0.18150 0.21900 0.43637
 H241 H 0.14820 0.14009 0.44741
 H242 H 0.17257 0.10652 0.41424
 H243 H 0.23813 0.17425 0.47078
 H244 H 0.23913 0.19783 0.53236
 H245 H 0.27451 0.16551 0.55826
 H246 H 0.20844 0.09726 0.54611
 H247 H 0.17362 0.12944 0.51983
 H248 H 0.18082 0.24266 0.49954
 H249 H 0.15185 0.27813 0.52741
 H250 H 0.11961 0.21185 0.58443
 H251 H 0.14873 0.17714 0.55699
 H252 H 0.26272 0.14059 0.43783
 C253 C 0.20946 0.80388 0.46997
 C254 C 0.20376 0.80650 0.49904
 C255 C 0.17932 0.78940 0.51366
 C256 C 0.22154 0.82705 0.51744
 C257 C 0.22952 0.82465 0.45476
 C258 C 0.19393 0.78174 0.45173
 C259 C 0.14901 0.78759 0.50209
 C260 C 0.12698 0.76982 0.51475
 C261 C 0.13435 0.75453 0.53996
 C262 C 0.16421 0.75734 0.55236
 C263 C 0.18648 0.77460 0.53927
 C264 C 0.20576 0.84699 0.53444
 C265 C 0.22226 0.86724 0.55074
 C266 C 0.25494 0.86772 0.55052
 C267 C 0.27063 0.84744 0.53385
 C268 C 0.25413 0.82709 0.51774
 C269 C 0.25636 0.81563 0.44050
 C270 C 0.27554 0.83532 0.42667
 C271 C 0.26768 0.86418 0.42616
 C272 C 0.24064 0.87311 0.44036
 C273 C 0.22175 0.85351 0.45450
 C274 C 0.19401 0.75314 0.46009
 C275 C 0.17535 0.73334 0.44530
 C276 C 0.15660 0.74163 0.42166
 C277 C 0.15870 0.76983 0.41182
 C278 C 0.17711 0.78965 0.42680
 H279 H 0.14259 0.79948 0.48287
 H280 H 0.10409 0.76806 0.50490
 H281 H 0.17068 0.74547 0.57156
 H282 H 0.20960 0.77582 0.54872
 H283 H 0.18062 0.84734 0.53446
 H284 H 0.20929 0.88294 0.56270
 H285 H 0.26678 0.81156 0.50521
 H286 H 0.26268 0.79343 0.44049
 H287 H 0.29633 0.82798 0.41602
 H288 H 0.23431 0.89529 0.44098
 H289 H 0.20104 0.86083 0.46532
 H290 H 0.20746 0.74641 0.47884
 H291 H 0.17472 0.71169 0.45305
 H292 H 0.14588 0.77703 0.39296
 H293 H 0.17713 0.81150 0.41963
 H294 H 0.29577 0.84737 0.53327
 C295 C 0.82475 0.16633 0.49821
 C296 C 0.82764 0.16944 0.52756
 C297 C 0.85185 0.18786 0.54093
 C298 C 0.80876 0.15272 0.54821
 C299 C 0.80402 0.14445 0.48468
 C300 C 0.84266 0.18443 0.47798
 C301 C 0.88336 0.18140 0.53758
 C302 C 0.90590 0.19560 0.55427
 C303 C 0.89732 0.21676 0.57413
 C304 C 0.86578 0.22384 0.57671
 C305 C 0.84324 0.20933 0.56037
 C306 C 0.82378 0.13704 0.57003
 C307 C 0.80670 0.12050 0.58914
 C308 C 0.77427 0.11910 0.58676
 C309 C 0.75903 0.13554 0.56550
 C310 C 0.77620 0.15233 0.54646
 C311 C 0.78379 0.15204 0.46188
 C312 C 0.76457 0.13174 0.44862
 C313 C 0.76507 0.10347 0.45811
 C314 C 0.78522 0.09582 0.48086
 C315 C 0.80507 0.11597 0.49358
 C316 C 0.84106 0.21414 0.47946
 C317 C 0.85669 0.23084 0.45920
 C318 C 0.87411 0.21801 0.43703
 C319 C 0.87550 0.18830 0.43566
 C320 C 0.85997 0.17169 0.45590
 H321 H 0.89031 0.16443 0.52312
 H322 H 0.93003 0.18964 0.55214
 H323 H 0.85832 0.23953 0.59237
 H324 H 0.81896 0.21417 0.56357
 H325 H 0.84886 0.13715 0.57192
 H326 H 0.81895 0.10826 0.60547
 H327 H 0.76414 0.16485 0.53024
 H328 H 0.78273 0.17379 0.45449
 H329 H 0.74889 0.13823 0.43136
 H330 H 0.78601 0.07410 0.48838
 H331 H 0.82121 0.10931 0.51039
 H332 H 0.82716 0.22437 0.49591
 H333 H 0.85433 0.25361 0.46061
 H334 H 0.88858 0.17784 0.41876
 H335 H 0.86132 0.14881 0.45425
 H336 H 0.73399 0.13573 0.56365
 C337 C 0.49858 0.83679 0.83434
 C338 C 0.46745 0.83529 0.83935
 C339 C 0.44495 0.85177 0.82155
 C340 C 0.45420 0.81740 0.86277
 C341 C 0.52120 0.81801 0.84933
 C342 C 0.51181 0.85725 0.81326
 C343 C 0.42390 0.86993 0.83523
 C344 C 0.40359 0.88648 0.81870
 C345 C 0.40407 0.88530 0.78822
 C346 C 0.42429 0.86619 0.77452
 C347 C 0.44445 0.84948 0.79109
 C348 C 0.46648 0.81806 0.89124
 C349 C 0.45371 0.80101 0.91286
 C350 C 0.42769 0.78395 0.90672
 C351 C 0.41498 0.78374 0.87845
 C352 C 0.42817 0.80025 0.85670
 C353 C 0.51778 0.78840 0.84852
 C354 C 0.53977 0.77104 0.86209
 C355 C 0.56566 0.78308 0.87661
 C356 C 0.56931 0.81265 0.87672
 C357 C 0.54731 0.82995 0.86326
 C358 C 0.53245 0.84763 0.79201
 C359 C 0.54531 0.86655 0.77223
 C360 C 0.53768 0.89547 0.77333
 C361 C 0.51697 0.90510 0.79445
 C362 C 0.50459 0.88626 0.81464
 H363 H 0.42368 0.87174 0.85872
 H364 H 0.38795 0.90075 0.82975
 H365 H 0.42447 0.86388 0.75111
 H366 H 0.45990 0.83495 0.78016
 H367 H 0.48593 0.83174 0.89676
 H368 H 0.46386 0.80143 0.93452
 H369 H 0.41822 0.79944 0.83497
 H370 H 0.49826 0.77875 0.83713
 H371 H 0.53664 0.74832 0.86065
 H372 H 0.58913 0.82245 0.88752
 H373 H 0.55056 0.85273 0.86383
 H374 H 0.53837 0.82537 0.79058
 H375 H 0.56075 0.85846 0.75576
 H376 H 0.51083 0.92732 0.79566
 H377 H 0.48935 0.89429 0.83129
 H378 H 0.39533 0.77028 0.87295
 C379 C 0.53281 0.18905 0.18606
 C380 C 0.50144 0.18484 0.18618
 C381 C 0.48696 0.16164 0.20328
 C382 C 0.48010 0.20261 0.16829
 C383 C 0.54716 0.21036 0.16674
 C384 C 0.55445 0.17118 0.20342
 C385 C 0.49637 0.13331 0.19997
 C386 C 0.48347 0.11200 0.21715
 C387 C 0.46020 0.11840 0.23721
 C388 C 0.45030 0.14668 0.24003
 C389 C 0.46352 0.16804 0.22316
 C390 C 0.45927 0.18948 0.14876
 C391 C 0.43965 0.20573 0.13118
 C392 C 0.44052 0.23547 0.13259
 C393 C 0.46079 0.24867 0.15278
 C394 C 0.48024 0.23234 0.17058
 C395 C 0.56179 0.23439 0.17872
 C396 C 0.57467 0.25494 0.16061
 C397 C 0.57405 0.25128 0.13030
 C398 C 0.55972 0.22695 0.11834
 C399 C 0.54625 0.20671 0.13645
 C400 C 0.55080 0.16762 0.23352
 C401 C 0.56934 0.14832 0.24881
 C402 C 0.59212 0.13250 0.23424
 C403 C 0.59686 0.13742 0.20455
 C404 C 0.57820 0.15648 0.18928
 H405 H 0.51393 0.12776 0.18430
 H406 H 0.49144 0.09039 0.21454
 H407 H 0.43287 0.15247 0.25572
 H408 H 0.45589 0.18972 0.22601
 H409 H 0.45853 0.16659 0.14679
 H410 H 0.42404 0.19501 0.11607
 H411 H 0.49540 0.24291 0.18618
 H412 H 0.56265 0.23746 0.20208
 H413 H 0.58541 0.27361 0.17025
 H414 H 0.55832 0.22388 0.09502
 H415 H 0.53506 0.18823 0.12690
 H416 H 0.53312 0.17930 0.24500
 H417 H 0.56573 0.14592 0.27190
 H418 H 0.61448 0.12581 0.19288
 H419 H 0.58160 0.15900 0.16613
 H420 H 0.46138 0.27148 0.15525
 C421 C 0.47518 0.17331 0.82807
 C422 C 0.50606 0.17541 0.82221
 C423 C 0.52028 0.15647 0.80020
 C424 C 0.52750 0.19546 0.83771
 C425 C 0.45926 0.19176 0.84943
 C426 C 0.45560 0.15129 0.81370
 C427 C 0.54370 0.13761 0.80868
 C428 C 0.55661 0.11902 0.78847
 C429 C 0.54653 0.11921 0.75922
 C430 C 0.52320 0.13827 0.75079
 C431 C 0.51038 0.15694 0.77102
 C432 C 0.52773 0.19810 0.86820
 C433 C 0.54868 0.21650 0.88221
 C434 C 0.57054 0.23185 0.86607
 C435 C 0.57102 0.22854 0.83580
 C436 C 0.54951 0.21079 0.82173
 C437 C 0.46114 0.22146 0.84799
 C438 C 0.44561 0.23831 0.86828
 C439 C 0.42769 0.22564 0.89018
 C440 C 0.42534 0.19601 0.89106
 C441 C 0.44101 0.17926 0.87101
 C442 C 0.43302 0.15917 0.79314
 C443 C 0.41459 0.13855 0.77939
 C444 C 0.41808 0.10975 0.78650
 C445 C 0.44015 0.10202 0.80766
 C446 C 0.45906 0.12261 0.82094
 H447 H 0.55150 0.13689 0.83115
 H448 H 0.57382 0.10410 0.79610
 H449 H 0.51493 0.13877 0.72846
 H450 H 0.49259 0.17162 0.76400
 H451 H 0.51205 0.18563 0.88124
 H452 H 0.54849 0.21802 0.90571
 H453 H 0.55019 0.20887 0.79826
 H454 H 0.47442 0.23157 0.83105
 H455 H 0.44716 0.26111 0.86632
 H456 H 0.41149 0.18575 0.90751
 H457 H 0.43903 0.15641 0.87246
 H458 H 0.42993 0.18128 0.78758
 H459 H 0.39724 0.14516 0.76365
 H460 H 0.44302 0.07999 0.81362
 H461 H 0.47620 0.11627 0.83702
 H462 H 0.58794 0.23989 0.82300
 C463 C 0.48291 0.81748 0.18232
 C464 C 0.51305 0.82146 0.17447
 C465 C 0.53339 0.84234 0.18988
 C466 C 0.52708 0.80477 0.15044
 C467 C 0.46339 0.79456 0.16933
 C468 C 0.46734 0.83720 0.20256
 C469 C 0.55031 0.86236 0.17403
 C470 C 0.56972 0.88186 0.18838
 C471 C 0.57254 0.88177 0.21883
 C472 C 0.55610 0.86122 0.23465
 C473 C 0.53680 0.84168 0.22028
 C474 C 0.51238 0.80280 0.12306
 C475 C 0.52389 0.78464 0.10170
 C476 C 0.55103 0.76907 0.10685
 C477 C 0.56667 0.77215 0.13371
 C478 C 0.55476 0.78985 0.15532
 C479 C 0.47330 0.76622 0.16947
 C480 C 0.45672 0.74554 0.15382
 C481 C 0.42958 0.75267 0.13839
 C482 C 0.41893 0.78085 0.13948
 C483 C 0.43560 0.80151 0.15495
 C484 C 0.45568 0.82720 0.22894
 C485 C 0.44065 0.84568 0.24794
 C486 C 0.43611 0.87416 0.24037
 C487 C 0.44760 0.88411 0.21378
 C488 C 0.46324 0.86576 0.19508
 H489 H 0.54831 0.86302 0.15055
 H490 H 0.58242 0.89721 0.17566
 H491 H 0.55856 0.85966 0.25801
 H492 H 0.52479 0.82578 0.23286
 H493 H 0.49144 0.81468 0.11853
 H494 H 0.51154 0.78267 0.08113
 H495 H 0.56654 0.79114 0.17622
 H496 H 0.49450 0.76037 0.18076
 H497 H 0.46546 0.72405 0.15325
 H498 H 0.39866 0.78747 0.12726
 H499 H 0.42763 0.82325 0.15447
 H500 H 0.45860 0.80519 0.23494
 H501 H 0.43219 0.83767 0.26843
 H502 H 0.44503 0.90612 0.20769
 H503 H 0.47197 0.87373 0.17468
 H504 H 0.58740 0.76005 0.13847
 C505 C 0.82360 0.52123 0.81357
 C506 C 0.82303 0.49233 0.81345
 C507 C 0.80640 0.47631 0.83626
 C508 C 0.84141 0.47527 0.79254
 C509 C 0.84245 0.53812 0.79281
 C510 C 0.80634 0.53801 0.83551
 C511 C 0.81806 0.47570 0.86486
 C512 C 0.80387 0.45868 0.88574
 C513 C 0.77735 0.44257 0.87859
 C514 C 0.76530 0.44369 0.85006
 C515 C 0.77996 0.46020 0.82899
 C516 C 0.86300 0.45561 0.80324
 C517 C 0.88214 0.44072 0.78430
 C518 C 0.87988 0.44487 0.75405
 C519 C 0.85798 0.46429 0.74330
 C520 C 0.83867 0.47914 0.76233
 C521 C 0.82860 0.56099 0.77820
 C522 C 0.84633 0.57902 0.76097
 C523 C 0.87816 0.57429 0.75750
 C524 C 0.89210 0.55123 0.77179
 C525 C 0.87448 0.53355 0.78963
 C526 C 0.77392 0.53604 0.83778
 C527 C 0.75789 0.55419 0.85651
 C528 C 0.77412 0.57473 0.87315
 C529 C 0.80653 0.57631 0.87100
 C530 C 0.82247 0.55814 0.85247
 H531 H 0.83866 0.48777 0.87073
 H532 H 0.81374 0.45792 0.90749
 H533 H 0.74532 0.43099 0.84374
 H534 H 0.77089 0.46024 0.80692
 H535 H 0.86582 0.45246 0.82643
 H536 H 0.89936 0.42672 0.79361
 H537 H 0.82199 0.49404 0.75356
 H538 H 0.80408 0.56522 0.78064
 H539 H 0.83519 0.59685 0.75044
 H540 H 0.91682 0.54759 0.77020
 H541 H 0.88600 0.51681 0.80154
 H542 H 0.76096 0.52114 0.82432
 H543 H 0.73285 0.55277 0.85699
 H544 H 0.81959 0.59197 0.88344
 H545 H 0.84745 0.56015 0.85089
 H546 H 0.85587 0.46800 0.72014
 C547 C 0.15988 0.50605 0.16988
 C548 C 0.15662 0.47736 0.16835
 C549 C 0.17652 0.45990 0.14914
 C550 C 0.13383 0.46230 0.18687
 C551 C 0.14513 0.52305 0.19319
 C552 C 0.17645 0.52219 0.14729
 C553 C 0.16333 0.43884 0.13117
 C554 C 0.18223 0.42129 0.11441
 C555 C 0.21468 0.42434 0.11533
 C556 C 0.22785 0.44524 0.13376
 C557 C 0.20894 0.46281 0.15040
 C558 C 0.10287 0.47145 0.18806
 C559 C 0.08229 0.45918 0.20759
 C560 C 0.09190 0.43684 0.22548
 C561 C 0.12248 0.42675 0.22336
 C562 C 0.14327 0.43941 0.20417
 C563 C 0.15043 0.51670 0.22260
 C564 C 0.13547 0.53208 0.24433
 C565 C 0.11526 0.55432 0.23713
 C566 C 0.11035 0.56088 0.20757
 C567 C 0.12536 0.54552 0.18588
 C568 C 0.20116 0.54015 0.15522
 C569 C 0.21391 0.55860 0.13488
 C570 C 0.20162 0.55976 0.10645
 C571 C 0.17716 0.54150 0.09847
 C572 C 0.16489 0.52257 0.11865
 H573 H 0.13838 0.43596 0.13020
 H574 H 0.17145 0.40522 0.10069
 H575 H 0.25269 0.44772 0.13612
 H576 H 0.21967 0.47826 0.16488
 H577 H 0.09486 0.48862 0.17439
 H578 H 0.05882 0.46721 0.20881
 H579 H 0.16701 0.43198 0.20355
 H580 H 0.16590 0.49964 0.22869
 H581 H 0.13959 0.52650 0.26687
 H582 H 0.09436 0.57723 0.20085
 H583 H 0.12083 0.55064 0.16330
 H584 H 0.20996 0.54041 0.17738
 H585 H 0.23230 0.57291 0.14181
 H586 H 0.16719 0.54226 0.07675
 H587 H 0.14539 0.50921 0.11238
 H588 H 0.13071 0.40985 0.23725
 C589 C 0.80937 0.49161 0.18127
 C590 C 0.80993 0.52031 0.17730
 C591 C 0.79153 0.53381 0.15356
 C592 C 0.82914 0.53973 0.19591
 C593 C 0.83083 0.47714 0.20186
 C594 C 0.78799 0.47303 0.16400
 C595 C 0.79336 0.52399 0.12471
 C596 C 0.77466 0.53577 0.10297
 C597 C 0.75502 0.55848 0.10939
 C598 C 0.75411 0.56917 0.13794
 C599 C 0.77213 0.55683 0.15987
 C600 C 0.84784 0.56030 0.18269
 C601 C 0.86549 0.57918 0.19954
 C602 C 0.86516 0.57782 0.23000
 C603 C 0.84621 0.55742 0.24339
 C604 C 0.82817 0.53868 0.22645
 C605 C 0.81919 0.45666 0.22098
 C606 C 0.83910 0.44247 0.24008
 C607 C 0.87105 0.44860 0.24040
 C608 C 0.88270 0.46905 0.22133
 C609 C 0.86288 0.48280 0.20181
 C610 C 0.75587 0.47776 0.16364
 C611 C 0.73645 0.46202 0.14505
 C612 C 0.74864 0.44102 0.12666
 C613 C 0.78077 0.43549 0.12811
 C614 C 0.80014 0.45127 0.14671
 H615 H 0.80894 0.50691 0.11911
 H616 H 0.77578 0.52738 0.08104
 H617 H 0.73884 0.58651 0.14343
 H618 H 0.77055 0.56490 0.18189
 H619 H 0.84884 0.56169 0.15921
 H620 H 0.87969 0.59482 0.18868
 H621 H 0.81326 0.52353 0.23717
 H622 H 0.79459 0.45184 0.22128
 H623 H 0.82942 0.42716 0.25495
 H624 H 0.90727 0.47402 0.22120
 H625 H 0.87257 0.49786 0.18666
 H626 H 0.74597 0.49420 0.17715
 H627 H 0.71185 0.46668 0.14462
 H628 H 0.79147 0.41964 0.11457
 H629 H 0.82487 0.44723 0.14678
 H630 H 0.84469 0.55629 0.26682
 C631 C 0.21040 0.48502 0.81141
 C632 C 0.20797 0.51361 0.80698
 C633 C 0.22706 0.53404 0.82425
 C634 C 0.18487 0.52595 0.78619
 C635 C 0.19352 0.46432 0.79254
 C636 C 0.22924 0.47320 0.83590
 C637 C 0.21227 0.55452 0.84127
 C638 C 0.22939 0.57147 0.86058
 C639 C 0.26191 0.56865 0.86285
 C640 C 0.27677 0.54889 0.84486
 C641 C 0.25955 0.53187 0.82555
 C642 C 0.15367 0.51699 0.78593
 C643 C 0.13241 0.52842 0.76609
 C644 C 0.14147 0.55003 0.74714
 C645 C 0.17235 0.55975 0.74798
 C646 C 0.19386 0.54772 0.76725
 C647 C 0.19611 0.46526 0.76217
 C648 C 0.17743 0.44785 0.74455
 C649 C 0.15616 0.42887 0.75692
 C650 C 0.15466 0.42709 0.78745
 C651 C 0.17335 0.44453 0.80503
 C652 C 0.25048 0.45129 0.83069
 C653 C 0.26904 0.44079 0.85333
 C654 C 0.26685 0.45225 0.88149
 C655 C 0.24529 0.47375 0.88684
 C656 C 0.22607 0.48360 0.86444
 H657 H 0.18721 0.55636 0.84071
 H658 H 0.21669 0.58568 0.87451
 H659 H 0.30170 0.54619 0.84620
 H660 H 0.27140 0.51630 0.81237
 H661 H 0.14572 0.50111 0.80107
 H662 H 0.10866 0.52077 0.76593
 H663 H 0.21765 0.55524 0.76723
 H664 H 0.21188 0.48014 0.75212
 H665 H 0.17910 0.44967 0.72115
 H666 H 0.13826 0.41327 0.79801
 H667 H 0.17102 0.44352 0.82844
 H668 H 0.25311 0.44271 0.80898
 H669 H 0.28570 0.42430 0.84867
 H670 H 0.24306 0.48266 0.90847
 H671 H 0.20903 0.49968 0.86932
 H672 H 0.17999 0.57621 0.73333
 C673 C 0.31000 0.39707 0.06428
 C674 C 0.28118 0.39040 0.07234
 C675 C 0.26342 0.41012 0.09066
 C676 C 0.23384 0.40486 0.09754
 H677 H 0.27044 0.37082 0.06484
 H678 H 0.27466 0.42957 0.09767
 H679 H 0.32020 0.41700 0.07150
 H680 H 0.22281 0.38581 0.08899
 C681 C 0.71375 0.63532 0.05022
 C682 C 0.71042 0.60890 0.05998
 C683 C 0.73087 0.59795 0.08303
 C684 C 0.73490 0.57011 0.08630
 H685 H 0.69289 0.59500 0.05047
 H686 H 0.74333 0.61280 0.09701
 H687 H 0.73257 0.64854 0.05843
 H688 H 0.72439 0.55548 0.07077
 C689 C 0.69341 0.39580 0.93276
 C690 C 0.72301 0.39651 0.92425
 C691 C 0.73407 0.41725 0.90274
 C692 C 0.76440 0.42307 0.90055
 H693 H 0.73959 0.38187 0.93370
 H694 H 0.71735 0.42797 0.88891
 H695 H 0.67722 0.41155 0.92475
 H696 H 0.78049 0.41369 0.91601
 C697 C 0.27404 0.64084 0.93884
 C698 C 0.28750 0.62037 0.92337
 C699 C 0.27046 0.60756 0.89864
 C700 C 0.28056 0.58423 0.88516
 H701 H 0.31015 0.61237 0.92963
 H702 H 0.24873 0.61715 0.89211
 H703 H 0.25107 0.64807 0.93252
 H704 H 0.30304 0.57572 0.89126
 C705 C 0.05048 0.30160 0.38423
 C706 C 0.05310 0.27380 0.38868
 C707 C 0.07866 0.26247 0.40639
 C708 C 0.07702 0.23637 0.41738
 H709 H 0.03586 0.25928 0.37969
 H710 H 0.09872 0.27580 0.41093
 H711 H 0.06662 0.31621 0.39472
 H712 H 0.05586 0.22408 0.41456
 C713 C 0.07563 0.71150 0.61921
 C714 C 0.08484 0.71028 0.59159
 C715 C 0.10791 0.73058 0.58053
 C716 C 0.11109 0.73477 0.55199
 H717 H 0.07498 0.69449 0.57691
 H718 H 0.12196 0.74264 0.59594
 H719 H 0.08429 0.72832 0.63330
 H720 H 0.09531 0.72418 0.53690
 C721 C 0.94675 0.69550 0.40138
 C722 C 0.92436 0.71429 0.39587
 C723 C 0.90791 0.72870 0.41958
 C724 C 0.88179 0.74297 0.41408
 H725 H 0.91826 0.71943 0.37357
 H726 H 0.91722 0.72767 0.44154
 H727 H 0.95198 0.68957 0.42365
 H728 H 0.87169 0.74217 0.39238
 C729 C 0.94676 0.29464 0.62846
 C730 C 0.94296 0.26680 0.62451
 C731 C 0.91952 0.25583 0.60383
 C732 C 0.92123 0.22933 0.59361
 H733 H 0.95780 0.25200 0.63603
 H734 H 0.90105 0.26973 0.59661
 H735 H 0.93340 0.30941 0.61543
 H736 H 0.94113 0.21644 0.59937
 C737 C 0.37374 0.06841 0.28239
 C738 C 0.40448 0.07155 0.28061
 C739 C 0.41751 0.09521 0.26374
 C740 C 0.44707 0.09536 0.25519
 H741 H 0.41988 0.05628 0.29073
 H742 H 0.40213 0.11218 0.25712
 H743 H 0.35872 0.08303 0.27082
 H744 H 0.46162 0.07725 0.26007
 C745 C 0.62544 0.05453 0.72047
 C746 C 0.59747 0.06644 0.71781
 C747 C 0.58677 0.08703 0.73963
 C748 C 0.55885 0.09917 0.73730
 H749 H 0.58221 0.06064 0.69981
 H750 H 0.60212 0.09228 0.75768
 H751 H 0.64049 0.06051 0.73856
 H752 H 0.54458 0.09464 0.71823
 C753 C 0.37499 0.94406 0.70411
 C754 C 0.36823 0.93339 0.73016
 C755 C 0.38909 0.91318 0.74471
 C756 C 0.38307 0.90413 0.77160
 H757 H 0.34730 0.93996 0.74116
 H758 H 0.41000 0.90668 0.73374
 H759 H 0.39599 0.93752 0.69321
 H760 H 0.36279 0.91223 0.78261
 C761 C 0.60904 0.94089 0.30122
 C762 C 0.61251 0.93190 0.27383
 C763 C 0.59088 0.91096 0.26088
 C764 C 0.59357 0.90272 0.23312
 H765 H 0.63140 0.94001 0.26086
 H766 H 0.57235 0.90275 0.27415
 H767 H 0.58995 0.93282 0.31398
 H768 H 0.61141 0.91242 0.21996
 C769 C 0.40773 0.30933 0.95183
 C770 C 0.39969 0.28346 0.94244
 C771 C 0.41793 0.26866 0.92017
 C772 C 0.41023 0.24233 0.91185
 H773 H 0.37936 0.27304 0.95119
 H774 H 0.43801 0.27918 0.91117
 H775 H 0.42804 0.31969 0.94300
 H776 H 0.39086 0.23195 0.92234
 C777 C 0.60179 0.70065 0.93236
 C778 C 0.60822 0.72501 0.91898
 C779 C 0.58438 0.73960 0.90152
 C780 C 0.58952 0.76580 0.89163
 H781 H 0.63067 0.73509 0.92224
 H782 H 0.56198 0.72947 0.89846
 H783 H 0.57905 0.69100 0.92956
 H784 H 0.61172 0.77582 0.89644
 C785 C 0.34358 0.71667 0.07781
 C786 C 0.37257 0.71342 0.08779
 C787 C 0.38502 0.73258 0.11047
 C788 C 0.41464 0.73107 0.11929
 H789 H 0.38769 0.69779 0.07804
 H790 H 0.36997 0.74884 0.11906
 H791 H 0.32875 0.73247 0.08767
 H792 H 0.42887 0.71377 0.11149
 C793 C 0.63490 0.28429 0.04743
 C794 C 0.61483 0.29023 0.06853
 C795 C 0.60249 0.26755 0.08712
 C796 C 0.58741 0.27356 0.11162
 H797 H 0.60724 0.31186 0.07200
 H798 H 0.60610 0.24565 0.08079
 H799 H 0.64321 0.26276 0.04484
 H800 H 0.58585 0.29542 0.11886
 C801 C 0.26779 0.05592 0.62633
 C802 C 0.27696 0.07129 0.60365
 C803 C 0.25524 0.09043 0.58872
 C804 C 0.26537 0.11013 0.57028
 H805 H 0.30062 0.06977 0.59602
 H806 H 0.23066 0.08862 0.59319
 H807 H 0.24450 0.05848 0.63463
 H808 H 0.29012 0.11322 0.56755
 C809 C 0.71987 0.05140 0.37576
 C810 C 0.71808 0.05873 0.40385
 C811 C 0.73907 0.08036 0.41636
 C812 C 0.74425 0.08189 0.44502
 H813 H 0.70147 0.04847 0.41794
 H814 H 0.75099 0.09474 0.40189
 H815 H 0.73781 0.06086 0.36253
 H816 H 0.73424 0.06602 0.45913
 C817 C 0.68851 0.93683 0.61460
 C818 C 0.71891 0.93180 0.61239
 C819 C 0.73077 0.90870 0.59404
 C820 C 0.76083 0.90775 0.58719
 H821 H 0.73545 0.94496 0.62429
 H822 H 0.71485 0.89253 0.58601
 H823 H 0.67202 0.92459 0.60168
 H824 H 0.77597 0.92515 0.59367
 C825 C 0.28514 0.94632 0.36379
 C826 C 0.29743 0.92751 0.38221
 C827 C 0.27701 0.90720 0.39714
 C828 C 0.28820 0.88460 0.41118
 H829 H 0.32227 0.92705 0.38618
 H830 H 0.25215 0.91051 0.39595
 H831 H 0.26038 0.94568 0.35929
 H832 H 0.31287 0.88022 0.41051
 C833 C 0.07668 0.35633 0.73279
 C834 C 0.09418 0.37849 0.72514
 C835 C 0.11730 0.39091 0.74534
 C836 C 0.13453 0.41316 0.73728
 H837 H 0.09094 0.38807 0.70394
 H838 H 0.11966 0.38196 0.76685
 H839 H 0.08019 0.34654 0.75385
 H840 H 0.13228 0.42069 0.71511
 C841 C 0.05080 0.63036 0.27843
 C842 C 0.06695 0.60648 0.28205
 C843 C 0.08445 0.59404 0.25787
 C844 C 0.09876 0.56908 0.26092
 H845 H 0.06654 0.59554 0.30272
 H846 H 0.08521 0.60545 0.23756
 H847 H 0.05100 0.64101 0.25759
 H848 H 0.09839 0.55884 0.28199
 C849 C 0.91500 0.36628 0.29034
 C850 C 0.91225 0.39440 0.28830
 C851 C 0.88950 0.40741 0.26852
 C852 C 0.89258 0.43457 0.26086
 H853 H 0.92799 0.40815 0.30048
 H854 H 0.87096 0.39447 0.25932
 H855 H 0.90049 0.35249 0.27697
 H856 H 0.91262 0.44655 0.26856
 C857 C 0.95924 0.60240 0.68877
 C858 C 0.93922 0.60945 0.70955
 C859 C 0.92086 0.58768 0.72461
 C860 C 0.89658 0.59500 0.74080
 H861 H 0.93646 0.63151 0.71574
 H862 H 0.92718 0.56556 0.72233
 H863 H 0.96104 0.58046 0.68189
 H864 H 0.88928 0.61697 0.74122
 C865 C 0.69032 0.61153 0.93543
 C866 C 0.71675 0.61542 0.92089
 C867 C 0.72981 0.59300 0.90229
 C868 C 0.75840 0.59600 0.89161
 H869 H 0.72964 0.63512 0.92339
 H870 H 0.71644 0.57387 0.89824
 H871 H 0.67802 0.59151 0.93321
 H872 H 0.77156 0.61490 0.89745
 C873 C 0.30866 0.38037 0.94628
 C874 C 0.31261 0.40605 0.93461
 C875 C 0.29286 0.41521 0.91011
 C876 C 0.28736 0.44264 0.90537
 H877 H 0.32969 0.42071 0.94360
 H878 H 0.28160 0.39926 0.89653
 H879 H 0.29006 0.36690 0.93797
 H880 H 0.29647 0.45838 0.92051
 C881 C 0.28071 0.61505 0.05624
 C882 C 0.25125 0.61268 0.06475
 C883 C 0.24186 0.58954 0.08409
 C884 C 0.21220 0.58144 0.08570
 H885 H 0.23386 0.62763 0.05733
 H886 H 0.25946 0.57891 0.09703
 H887 H 0.29718 0.59879 0.06253
 H888 H 0.19516 0.59066 0.07106
 C889 C 0.72036 0.37288 0.04816
 C890 C 0.71256 0.39395 0.06628
 C891 C 0.73520 0.40570 0.08746
 C892 C 0.72713 0.42655 0.10575
 H893 H 0.68939 0.40286 0.06543
 H894 H 0.75843 0.39722 0.08753
 H895 H 0.74355 0.36407 0.04955
 H896 H 0.70333 0.43395 0.10498
 C897 C 0.95102 0.68836 0.60330
 C898 C 0.93490 0.71157 0.61044
 C899 C 0.91251 0.72462 0.59001
 C900 C 0.90098 0.75031 0.59583
 H901 H 0.93911 0.72195 0.63123
 H902 H 0.90679 0.71389 0.56976
 H903 H 0.94696 0.67849 0.58224
 H904 H 0.90864 0.76107 0.61557
 C905 C 0.92587 0.30197 0.39452
 C906 C 0.91507 0.27532 0.39253
 C907 C 0.89738 0.26199 0.41606
 C908 C 0.89029 0.23435 0.41428
 H909 H 0.92044 0.26244 0.37364
 H910 H 0.89154 0.27446 0.43501
 H911 H 0.92062 0.31465 0.41355
 H912 H 0.89784 0.22258 0.39531
 C913 C 0.07153 0.28009 0.64073
 C914 C 0.08483 0.28708 0.61559
 C915 C 0.10556 0.26651 0.60140
 C916 C 0.11557 0.26995 0.57419
 H917 H 0.07948 0.30699 0.60499
 H918 H 0.11208 0.24784 0.61356
 H919 H 0.07686 0.25961 0.65019
 H920 H 0.10990 0.28936 0.56282
 C921 C 0.06459 0.71302 0.36351
 C922 C 0.08735 0.70604 0.38219
 C923 C 0.11047 0.72742 0.39159
 C924 C 0.13453 0.72056 0.40884
 H925 H 0.08869 0.68478 0.39100
 H926 H 0.10662 0.74914 0.38516
 H927 H 0.06428 0.73424 0.35448
 H928 H 0.13702 0.69861 0.41540
 C929 C 0.62240 0.93803 0.71865
 C930 C 0.59189 0.93501 0.72243
 C931 C 0.57969 0.91407 0.74291
 C932 C 0.55055 0.91582 0.75237
 H933 H 0.57576 0.94870 0.71097
 H934 H 0.59499 0.89767 0.75105
 H935 H 0.63854 0.92540 0.73133
 H936 H 0.53624 0.93359 0.74579
 C937 C 0.36520 0.95123 0.26738
 C938 C 0.38814 0.93341 0.27437
 C939 C 0.40185 0.91428 0.25271
 C940 C 0.42066 0.89330 0.26113
 H941 H 0.39717 0.93297 0.29648
 H942 H 0.39646 0.91730 0.22986
 H943 H 0.35531 0.95094 0.24560
 H944 H 0.42411 0.88937 0.28416
 C945 C 0.61456 0.05959 0.30849
 C946 C 0.62235 0.07376 0.28450
 C947 C 0.60303 0.09698 0.27302
 C948 C 0.61135 0.11066 0.24886
 H949 H 0.64320 0.06799 0.27291
 H950 H 0.58148 0.10193 0.28376
 H951 H 0.59400 0.06564 0.32035
 H952 H 0.63249 0.10424 0.23811
 C953 C 0.37033 0.06167 0.70275
 C954 C 0.37102 0.06564 0.73153
 C955 C 0.39020 0.08832 0.74467
 C956 C 0.39839 0.08759 0.77278
 H957 H 0.35812 0.05155 0.74556
 H958 H 0.39859 0.10526 0.73095
 H959 H 0.38476 0.07472 0.68898
 H960 H 0.39193 0.06940 0.78576
 C961 C 0.62963 0.72253 0.04741
 C962 C 0.60083 0.72244 0.05780
 C963 C 0.59144 0.74342 0.07976
 C964 C 0.56148 0.74864 0.08458
 H965 H 0.58393 0.70713 0.04973
 H966 H 0.60925 0.75513 0.09163
 H967 H 0.64588 0.73890 0.05439
 H968 H 0.54397 0.73834 0.07104
 C969 C 0.40976 0.31759 0.07235
 C970 C 0.40352 0.29206 0.08353
 C971 C 0.42460 0.27844 0.10472
 C972 C 0.41951 0.25165 0.11306
 H973 H 0.38304 0.28050 0.07621
 H974 H 0.44492 0.28996 0.11235
 H975 H 0.43049 0.32895 0.07930
 H976 H 0.39974 0.24035 0.10378
 C977 C 0.60415 0.30416 0.93682
 C978 C 0.61169 0.28368 0.91803
 C979 C 0.58737 0.26696 0.90295
 C980 C 0.59413 0.25009 0.88050
 H981 H 0.63586 0.27853 0.91446
 H982 H 0.56365 0.26832 0.91045
 H983 H 0.57994 0.30962 0.93960
 H984 H 0.61741 0.25029 0.87179
 C985 C 0.34322 0.73729 0.95924
 C986 C 0.37342 0.73960 0.95334
 C987 C 0.38476 0.76023 0.93207
 C988 C 0.41513 0.76547 0.92959
 H989 H 0.39001 0.72562 0.96381
 H990 H 0.36818 0.77084 0.91799
 H991 H 0.32679 0.75202 0.94973
 H992 H 0.43132 0.75624 0.94505
 C993 C 0.71755 0.93536 0.37047
 C994 C 0.71289 0.92351 0.39643
 C995 C 0.73477 0.90244 0.40829
 C996 C 0.73015 0.89063 0.43432
 H997 H 0.69323 0.92988 0.40941
 H998 H 0.75476 0.89674 0.39550
 H999 H 0.73728 0.92889 0.35763
 H1000 H 0.70914 0.89577 0.44595
 C1001 C 0.27347 0.93891 0.62777
 C1002 C 0.28246 0.92611 0.60330
 C1003 C 0.26324 0.90383 0.58945
 C1004 C 0.27336 0.88977 0.56609
 H1005 H 0.30412 0.93219 0.59325
 H1006 H 0.24088 0.89884 0.59868
 H1007 H 0.25203 0.93243 0.63798
 H1008 H 0.29655 0.89417 0.55831
 C1009 C 0.30179 0.06087 0.38186
 C1010 C 0.27338 0.07201 0.38024
 C1011 C 0.26228 0.09184 0.40263
 C1012 C 0.23284 0.10072 0.40210
 H1013 H 0.25793 0.06618 0.36239
 H1014 H 0.27808 0.09854 0.41982
 H1015 H 0.31698 0.06634 0.40001
 H1016 H 0.21731 0.09241 0.38535
 C1017 C 0.68917 0.05536 0.61547
 C1018 C 0.71639 0.06799 0.62109
 C1019 C 0.72965 0.08893 0.60114
 C1020 C 0.75756 0.10024 0.60689
 H1021 H 0.72953 0.06234 0.64046
 H1022 H 0.71725 0.09383 0.58119
 H1023 H 0.67580 0.06118 0.59632
 H1024 H 0.76980 0.09378 0.62650
 C1025 C 0.93221 0.61036 0.31161
 C1026 C 0.91620 0.61567 0.28714
 C1027 C 0.89528 0.59443 0.27360
 C1028 C 0.88415 0.59869 0.24667
 H1029 H 0.91983 0.63555 0.27590
 H1030 H 0.89052 0.57486 0.28496
 H1031 H 0.92932 0.59020 0.32249
 H1032 H 0.89089 0.61788 0.23542
 C1033 C 0.94777 0.36607 0.72647
 C1034 C 0.93650 0.39164 0.71988
 C1035 C 0.91400 0.40519 0.73948
 C1036 C 0.90100 0.43028 0.73355
 H1037 H 0.94413 0.40262 0.70056
 H1038 H 0.90801 0.39416 0.75925
 H1039 H 0.93945 0.35537 0.74572
 H1040 H 0.90570 0.44032 0.71290
 C1041 C 0.08290 0.62708 0.70248
 C1042 C 0.09242 0.60021 0.70066
 C1043 C 0.11647 0.58932 0.72065
 C1044 C 0.11851 0.56161 0.72629
 H1045 H 0.08147 0.58581 0.68517
 H1046 H 0.13173 0.60422 0.73184
 H1047 H 0.09240 0.64084 0.71934
 H1048 H 0.10147 0.54716 0.71686
 C1049 C 0.04161 0.36097 0.28033
 C1050 C 0.04758 0.38856 0.27713
 C1051 C 0.06974 0.39848 0.25530
 C1052 C 0.07009 0.42562 0.24716
 H1053 H 0.03547 0.40405 0.29026
 H1054 H 0.08524 0.38334 0.24531
 H1055 H 0.05258 0.34565 0.26616
 H1056 H 0.05290 0.43999 0.25586
   
