data_POSCAR
  _audit_creation_date              2014-09-24
  _audit_creation_method            'ToBaCCo'
  _symmetry_space_group_name_H-M    'P1'
  _symmetry_Int_Tables_number       1
  _symmetry_cell_setting            triclinic
  loop_
  _symmetry_equiv_pos_as_xyz
 x,y,z
_cell_length_a 28.9979
_cell_length_b 29.6298
_cell_length_c 31.4330
_cell_angle_alpha 92.804000
_cell_angle_beta 90.870800
_cell_angle_gamma 90.256400
loop_
  _atom_site_label
  _atom_site_type_symbol
  _atom_site_fract_x
  _atom_site_fract_y
  _atom_site_fract_z
C1 C 0.73381 0.67269 0.98467
 H2 H 0.76504 0.66968 0.96642
 C3 C 0.69460 0.69201 0.96671
 H4 H 0.69628 0.70443 0.93493
 C5 C 0.69267 0.65711 1.04685
 H6 H 0.69167 0.64274 1.07773
 C7 C 0.65265 0.67583 1.02999
 H8 H 0.62160 0.67621 1.04865
 N9 N 0.73162 0.65405 1.02331
 C10 C 0.87135 0.61116 1.05479
 H11 H 0.86472 0.57545 1.04867
 C12 C 0.91600 0.62613 1.06411
 H13 H 0.94370 0.60177 1.06502
 C14 C 0.84294 0.68609 1.06091
 H15 H 0.81419 0.70912 1.05939
 C16 C 0.88738 0.70253 1.07167
 H17 H 0.89295 0.73840 1.07808
 Zn18 Zn 0.77843 0.61268 1.03778
 N19 N 0.83600 0.64102 1.05249
 C20 C 0.82289 0.59066 0.96207
 N21 N 0.78828 0.57595 0.98682
 C22 C 0.75886 0.54270 0.97179
 C23 C 0.76394 0.52305 0.93051
 C24 C 0.82924 0.57204 0.92113
 C25 C 0.78442 0.58937 1.12288
 C26 C 0.76929 0.57506 1.16182
 C27 C 0.70288 0.54103 1.12581
 C28 C 0.71958 0.55606 1.08716
 N29 N 0.75936 0.58065 1.08645
 H30 H 0.84444 0.61876 0.97304
 H31 H 0.73050 0.53245 0.99105
 H32 H 0.73966 0.49732 0.91894
 H33 H 0.85662 0.58525 0.90217
 H34 H 0.81536 0.60960 1.12260
 H35 H 0.79047 0.58403 1.18951
 H36 H 0.67038 0.52283 1.12551
 H37 H 0.69927 0.55032 1.05828
 C38 C 0.92450 0.67226 1.07246
 C39 C 0.65280 0.69177 0.98863
 C40 C 0.72713 0.55154 1.16435
 C41 C 0.79927 0.53829 0.90441
 C42 C 0.63842 0.34092 0.58608
 H43 H 0.65167 0.36869 0.60624
 C44 C 0.60160 0.31562 0.60014
 H45 H 0.58780 0.32382 0.63139
 C46 C 0.63884 0.29818 0.52043
 H47 H 0.65287 0.29237 0.48897
 C48 C 0.60190 0.27166 0.53342
 H49 H 0.58814 0.24529 0.51177
 N50 N 0.65670 0.33168 0.54704
 C51 C 0.79493 0.36873 0.50819
 H52 H 0.79063 0.40422 0.51679
 C53 C 0.83745 0.35338 0.49396
 H54 H 0.86532 0.37748 0.49142
 C55 C 0.76277 0.29514 0.49931
 H56 H 0.73355 0.27268 0.50151
 C57 C 0.80474 0.27848 0.48345
 H58 H 0.80752 0.24321 0.47308
 Zn59 Zn 0.70473 0.37039 0.52987
 N60 N 0.75859 0.33986 0.51068
 C61 C 0.74536 0.38122 0.60825
 N62 N 0.72618 0.40637 0.57765
 C63 C 0.73042 0.45225 0.57925
 C64 C 0.75712 0.47419 0.61169
 C65 C 0.77221 0.40160 0.64079
 C66 C 0.69746 0.39314 0.44491
 C67 C 0.68164 0.41596 0.40986
 C68 C 0.63514 0.46292 0.45710
 C69 C 0.65122 0.43849 0.49132
 N70 N 0.68251 0.40489 0.48474
 H71 H 0.74233 0.34479 0.60559
 H72 H 0.71620 0.47145 0.55386
 H73 H 0.76314 0.51027 0.61128
 H74 H 0.78970 0.38077 0.66332
 H75 H 0.72137 0.36558 0.44009
 H76 H 0.69415 0.40615 0.37847
 H77 H 0.61053 0.48979 0.46288
 H78 H 0.63892 0.44643 0.52312
 C79 C 0.84269 0.30788 0.48086
 C80 C 0.58284 0.28039 0.57387
 C81 C 0.65057 0.45167 0.41575
 C82 C 0.77948 0.44831 0.64187
 C83 C 0.23206 -0.18005 0.00601
 H84 H 0.26830 -0.18791 0.00881
 C85 C 0.20103 -0.19852 0.03425
 H86 H 0.21343 -0.22150 0.05756
 C87 C 0.17308 -0.13435 -0.02184
 H88 H 0.16294 -0.10653 -0.04076
 C89 C 0.14137 -0.15125 0.00625
 H90 H 0.10687 -0.13739 0.00733
 N91 N 0.21788 -0.14783 -0.02074
 C92 C 0.35143 -0.09591 -0.06184
 H93 H 0.34237 -0.06068 -0.05768
 C94 C 0.39711 -0.10759 -0.06922
 H95 H 0.42271 -0.08113 -0.07152
 C96 C 0.32918 -0.17301 -0.06244
 H97 H 0.30259 -0.19828 -0.05952
 C98 C 0.37463 -0.18627 -0.07091
 H99 H 0.38291 -0.22186 -0.07419
 Zn100 Zn 0.26130 -0.10487 -0.03864
 N101 N 0.31889 -0.12836 -0.05682
 C102 C 0.31157 -0.07328 0.03413
 N103 N 0.27185 -0.06826 0.01132
 C104 C 0.23628 -0.04334 0.02734
 C105 C 0.23936 -0.02337 0.06848
 C106 C 0.31638 -0.05337 0.07497
 C107 C 0.20786 -0.08819 -0.11273
 C108 C 0.19186 -0.06248 -0.14596
 C109 C 0.23901 -0.00018 -0.11779
 C110 C 0.25254 -0.02653 -0.08427
 N111 N 0.23718 -0.06973 -0.08244
 H112 H 0.33864 -0.09490 0.02189
 H113 H 0.20471 -0.04072 0.00888
 H114 H 0.21026 -0.00465 0.08111
 H115 H 0.34776 -0.05896 0.09306
 H116 H 0.19705 -0.12306 -0.11124
 H117 H 0.16831 -0.07811 -0.16945
 H118 H 0.25231 0.03394 -0.11785
 H119 H 0.27594 -0.01261 -0.05988
 C120 C 0.40932 -0.15321 -0.07286
 C121 C 0.15579 -0.18226 0.03581
 C122 C 0.20812 -0.01795 -0.14957
 C123 C 0.27952 -0.02926 0.09308
 C124 C 0.15368 0.20893 0.46709
 H125 H 0.16974 0.23214 0.49051
 C126 C 0.11325 0.22125 0.44552
 H127 H 0.09822 0.25420 0.45214
 C128 C 0.15371 0.13792 0.42874
 H129 H 0.16963 0.10537 0.42253
 C130 C 0.11439 0.14914 0.40603
 H131 H 0.10013 0.12511 0.38223
 N132 N 0.17296 0.16783 0.45803
 C133 C 0.24218 0.20214 0.55310
 H134 H 0.20556 0.19746 0.55748
 C135 C 0.26960 0.22012 0.58669
 H136 H 0.25310 0.23035 0.61618
 C137 C 0.30816 0.18990 0.51055
 H138 H 0.32347 0.17566 0.48185
 C139 C 0.33685 0.20753 0.54331
 H140 H 0.37381 0.20775 0.53882
 Zn141 Zn 0.22774 0.14491 0.48128
 N142 N 0.26195 0.18617 0.51653
 C143 C 0.27349 0.08198 0.42458
 N144 N 0.26314 0.12592 0.43426
 C145 C 0.27358 0.15909 0.40759
 C146 C 0.29432 0.14861 0.36876
 C147 C 0.29423 0.06992 0.38589
 C148 C 0.16801 0.09556 0.52996
 C149 C 0.15704 0.06971 0.56424
 C150 C 0.23658 0.04592 0.56809
 C151 C 0.24632 0.07314 0.53425
 N152 N 0.21224 0.09765 0.51636
 H153 H 0.26388 0.05610 0.44588
 H154 H 0.26438 0.19367 0.41609
 H155 H 0.30152 0.17563 0.34790
 H156 H 0.30085 0.03460 0.37787
 H157 H 0.14176 0.11646 0.51636
 H158 H 0.12217 0.07017 0.57613
 H159 H 0.26437 0.02816 0.58331
 H160 H 0.28150 0.07683 0.52393
 C161 C 0.31787 0.22102 0.58264
 C162 C 0.09401 0.19134 0.41398
 C163 C 0.19172 0.04535 0.58420
 C164 C 0.30381 0.10337 0.35701
 C165 C 0.16746 0.41368 0.21362
 H166 H 0.13493 0.39581 0.21394
 C167 C 0.19942 0.40210 0.18213
 H168 H 0.19164 0.37468 0.15905
 C169 C 0.21557 0.47367 0.24054
 H170 H 0.22053 0.50306 0.26193
 C171 C 0.24872 0.46279 0.21012
 H172 H 0.27927 0.48377 0.20895
 N173 N 0.17594 0.44913 0.24189
 C174 C 0.11321 0.49067 0.36298
 H175 H 0.07826 0.49331 0.35088
 C176 C 0.12257 0.49968 0.40622
 H177 H 0.09473 0.50993 0.42707
 C178 C 0.19218 0.47626 0.34986
 H179 H 0.21918 0.46686 0.32794
 C180 C 0.20330 0.48651 0.39274
 H181 H 0.23899 0.48584 0.40338
 Zn182 Zn 0.12896 0.47244 0.27763
 N183 N 0.14784 0.47988 0.33565
 C184 C 0.08793 0.39085 0.28956
 N185 N 0.07777 0.43282 0.27683
 C186 C 0.03337 0.44588 0.27033
 C187 C -0.00307 0.41621 0.27786
 C188 C 0.05289 0.36024 0.29707
 C189 C 0.13707 0.56600 0.27605
 C190 C 0.13797 0.60721 0.25644
 C191 C 0.09162 0.57364 0.19858
 C192 C 0.09277 0.53258 0.21871
 N193 N 0.11523 0.52958 0.25678
 H194 H 0.12348 0.38182 0.29549
 H195 H 0.02604 0.47995 0.26155
 H196 H -0.03817 0.42770 0.27406
 H197 H 0.06205 0.32743 0.30831
 H198 H 0.15613 0.56246 0.30551
 H199 H 0.15644 0.63556 0.27172
 H200 H 0.07419 0.57556 0.16801
 H201 H 0.07747 0.50268 0.20311
 C202 C 0.16824 0.49867 0.42131
 C203 C 0.24044 0.42705 0.17994
 C204 C 0.11566 0.61106 0.21692
 C205 C 0.00664 0.37306 0.29239
 C206 C -0.18356 0.00299 0.15487
 H207 H -0.21675 -0.00376 0.16835
 C208 C -0.18112 0.02383 0.11599
 H209 H -0.21288 0.03303 0.10009
 C210 C -0.10209 -0.00091 0.15897
 H211 H -0.07133 -0.01140 0.17555
 C212 C -0.09797 0.01987 0.12056
 H213 H -0.06371 0.02514 0.10867
 N214 N -0.14419 -0.00785 0.17593
 C215 C -0.19629 -0.09592 0.26655
 H216 H -0.16672 -0.11744 0.26170
 C217 C -0.22836 -0.10714 0.29677
 H218 H -0.22340 -0.13759 0.31397
 C219 C -0.23573 -0.02781 0.25408
 H220 H -0.23628 0.00489 0.24026
 C221 C -0.26877 -0.03780 0.28420
 H222 H -0.29512 -0.01312 0.29183
 Zn223 Zn -0.14176 -0.03155 0.23046
 N224 N -0.19863 -0.05529 0.24830
 C225 C -0.15234 0.02715 0.30324
 N226 N -0.12392 0.01652 0.27014
 C227 C -0.08830 0.04438 0.26103
 C228 C -0.08351 0.08668 0.28241
 C229 C -0.14976 0.06957 0.32439
 C230 C -0.10430 -0.10827 0.19306
 C231 C -0.07508 -0.14512 0.18756
 C232 C -0.03621 -0.12175 0.25370
 C233 C -0.06577 -0.08468 0.25756
 N234 N -0.09895 -0.07887 0.22738
 H235 H -0.17873 0.00385 0.31206
 H236 H -0.06518 0.03521 0.23553
 H237 H -0.05654 0.10955 0.27332
 H238 H -0.17447 0.07859 0.34882
 H239 H -0.13137 -0.10286 0.16983
 H240 H -0.07945 -0.16794 0.15978
 H241 H -0.00957 -0.12578 0.27768
 H242 H -0.06256 -0.06083 0.28462
 C243 C -0.26311 -0.07638 0.30803
 C244 C -0.13779 0.03344 0.09873
 C245 C -0.04078 -0.15234 0.21819
 C246 C -0.11616 0.10042 0.31272
 C247 C 0.29348 0.56996 0.74752
 H248 H 0.29230 0.58528 0.77935
 C249 C 0.27038 0.59036 0.71431
 H250 H 0.25089 0.62086 0.72118
 C251 C 0.32292 0.51371 0.69928
 H252 H 0.34547 0.48549 0.69278
 C253 C 0.29980 0.53262 0.66525
 H254 H 0.30427 0.51814 0.63327
 N255 N 0.31985 0.53279 0.73948
 C256 C 0.32465 0.45571 0.84473
 H257 H 0.34015 0.42944 0.82501
 C258 C 0.30662 0.44457 0.88355
 H259 H 0.30847 0.40978 0.89252
 C260 C 0.30620 0.53274 0.85845
 H261 H 0.30762 0.56735 0.84919
 C262 C 0.28836 0.52313 0.89818
 H263 H 0.27562 0.55053 0.91868
 Zn264 Zn 0.35897 0.51335 0.78405
 N265 N 0.32516 0.49932 0.83315
 C266 C 0.41315 0.57328 0.83881
 N267 N 0.40079 0.56085 0.79794
 C268 C 0.41687 0.58337 0.76457
 C269 C 0.44449 0.62159 0.77165
 C270 C 0.44118 0.61129 0.84737
 C271 C 0.36885 0.42586 0.74767
 C272 C 0.39191 0.38671 0.73466
 C273 C 0.46388 0.42211 0.75786
 C274 C 0.43934 0.46100 0.77008
 N275 N 0.39266 0.46203 0.76497
 H276 H 0.40067 0.55424 0.86480
 H277 H 0.40711 0.57226 0.73238
 H278 H 0.45613 0.63950 0.74458
 H279 H 0.44967 0.62178 0.88005
 H280 H 0.33169 0.42736 0.74450
 H281 H 0.37216 0.35823 0.72115
 H282 H 0.50096 0.42178 0.76217
 H283 H 0.45751 0.49007 0.78420
 C284 C 0.28981 0.47862 0.91159
 C285 C 0.27448 0.57226 0.67242
 C286 C 0.43992 0.38437 0.73999
 C287 C 0.45599 0.63661 0.81354
 C288 C 0.72224 1.00021 0.66156
 H289 H 0.74547 1.01897 0.68310
 C290 C 0.73493 0.99089 0.61938
 H291 H 0.76849 1.00177 0.60921
 C292 C 0.65012 0.96366 0.64864
 H293 H 0.61694 0.95357 0.66040
 C294 C 0.66162 0.95311 0.60645
 H295 H 0.63718 0.93459 0.58577
 N296 N 0.68066 0.98603 0.67537
 C297 C 0.70053 1.06253 0.79141
 H298 H 0.66846 1.08059 0.78826
 C299 C 0.73169 1.07554 0.82408
 H300 H 0.72333 1.10421 0.84524
 C301 C 0.74806 1.00093 0.77002
 H302 H 0.75310 0.97072 0.74992
 C303 C 0.78044 1.01305 0.80180
 H304 H 0.81051 0.99199 0.80475
 Zn305 Zn 0.66134 0.99867 0.73159
 N306 N 0.70870 1.02508 0.76599
 C307 C 0.62802 0.94770 0.79748
 N308 N 0.64578 0.94461 0.75765
 C309 C 0.65741 0.90394 0.73894
 C310 C 0.65045 0.86422 0.76013
 C311 C 0.61955 0.90875 0.81942
 C312 C 0.61983 1.07689 0.70734
 C313 C 0.58542 1.10900 0.70261
 C314 C 0.53372 1.06205 0.74104
 C315 C 0.56895 1.03033 0.74432
 N316 N 0.61124 1.03872 0.72822
 H317 H 0.62091 0.98055 0.81241
 H318 H 0.67326 0.90225 0.70804
 H319 H 0.65960 0.83219 0.74456
 H320 H 0.60489 0.91170 0.85092
 H321 H 0.65366 1.08236 0.69443
 H322 H 0.59298 1.13940 0.68617
 H323 H 0.50031 1.05509 0.75423
 H324 H 0.56236 0.99918 0.75965
 C325 C 0.77152 1.04970 0.83074
 C326 C 0.70446 0.96676 0.59138
 C327 C 0.54199 1.10205 0.72012
 C328 C 0.63122 0.86645 0.80086
 C329 C 0.02587 0.24056 -0.21047
 H330 H -0.00489 0.26089 -0.21279
 C331 C 0.03226 0.20368 -0.23926
 H332 H 0.00641 0.19648 -0.26384
 C333 C 0.09496 0.22369 -0.17352
 H334 H 0.11905 0.23101 -0.14759
 C335 C 0.10254 0.18638 -0.20140
 H336 H 0.13264 0.16560 -0.19657
 N337 N 0.05608 0.24877 -0.17739
 C338 C -0.02930 0.35356 -0.15369
 H339 H -0.05263 0.32934 -0.14104
 C340 C -0.04707 0.39367 -0.16813
 H341 H -0.08374 0.39988 -0.16571
 C342 C 0.04590 0.37401 -0.17413
 H343 H 0.08204 0.36570 -0.17700
 C344 C 0.02958 0.41521 -0.18842
 H345 H 0.05335 0.43831 -0.20240
 Zn346 Zn 0.03768 0.29007 -0.13251
 N347 N 0.01664 0.34479 -0.15582
 C348 C 0.10542 0.34248 -0.08442
 N349 N 0.08635 0.30071 -0.09159
 C350 C 0.10088 0.26522 -0.06904
 C351 C 0.13737 0.27044 -0.03954
 C352 C 0.14208 0.34916 -0.05544
 C353 C -0.02876 0.22249 -0.11804
 C354 C -0.06723 0.20398 -0.09933
 C355 C -0.07010 0.26957 -0.05064
 C356 C -0.03136 0.28678 -0.07042
 N357 N -0.01209 0.26355 -0.10398
 H358 H 0.09250 0.37083 -0.10111
 H359 H 0.08446 0.23254 -0.07445
 H360 H 0.14889 0.24138 -0.02287
 H361 H 0.15723 0.38256 -0.05085
 H362 H -0.01246 0.20381 -0.14395
 H363 H -0.07955 0.17124 -0.11166
 H364 H -0.08466 0.28942 -0.02445
 H365 H -0.01720 0.31928 -0.05967
 C366 C -0.01752 0.42547 -0.18506
 C367 C 0.07023 0.17508 -0.23394
 C368 C -0.08888 0.22742 -0.06511
 C369 C 0.15890 0.31282 -0.03286
 C370 C 0.50317 0.16259 0.18268
 H371 H 0.50928 0.19242 0.20326
 C372 C 0.48247 0.12425 0.19877
 H373 H 0.47210 0.12491 0.23175
 C374 C 0.50777 0.12555 0.11433
 H375 H 0.51731 0.12653 0.08125
 C376 C 0.48853 0.08626 0.12932
 H377 H 0.48256 0.05749 0.10734
 N378 N 0.51498 0.16259 0.14097
 C379 C 0.53872 0.28869 0.17320
 H380 H 0.50204 0.28597 0.16673
 C381 C 0.55651 0.32684 0.19611
 H382 H 0.53325 0.35283 0.20804
 C383 C 0.61390 0.25948 0.16339
 H384 H 0.63640 0.23412 0.14932
 C385 C 0.63300 0.29658 0.18647
 H386 H 0.67011 0.29869 0.18998
 Zn387 Zn 0.54409 0.21218 0.11609
 N388 N 0.56755 0.25627 0.15688
 C389 C 0.45544 0.23038 0.08167
 N390 N 0.50082 0.24243 0.08232
 C391 C 0.51539 0.28048 0.06408
 C392 C 0.48391 0.30827 0.04423
 C393 C 0.42255 0.25776 0.06279
 C394 C 0.61699 0.15379 0.10121
 C395 C 0.65159 0.13088 0.07895
 C396 C 0.63962 0.17999 0.02070
 C397 C 0.60398 0.20112 0.04359
 N398 N 0.59342 0.18776 0.08318
 H399 H 0.44443 0.20066 0.09745
 H400 H 0.55129 0.29043 0.06677
 H401 H 0.49630 0.33915 0.03126
 H402 H 0.38638 0.24860 0.06361
 H403 H 0.60818 0.14389 0.13275
 H404 H 0.66945 0.10336 0.09345
 H405 H 0.64780 0.19064 -0.01079
 H406 H 0.58469 0.22775 0.02945
 C407 C 0.60431 0.33131 0.20268
 C408 C 0.47537 0.08536 0.17199
 C409 C 0.66304 0.14390 0.03822
 C410 C 0.43670 0.29740 0.04405
 C411 C 0.90208 0.73724 0.65345
 H412 H 0.88794 0.77036 0.64862
 C413 C 0.88034 0.70844 0.68078
 H414 H 0.84928 0.71994 0.69638
 C415 C 0.95952 0.68255 0.63806
 H416 H 0.99014 0.67238 0.62107
 C417 C 0.93876 0.65253 0.66511
 H418 H 0.95398 0.61964 0.66891
 N419 N 0.94146 0.72440 0.63342
 C420 C 1.01400 0.85126 0.61457
 H421 H 1.01899 0.84882 0.58050
 C422 C 1.03312 0.88754 0.63905
 H423 H 1.05247 0.91321 0.62350
 C424 C 0.98387 0.82004 0.67636
 H425 H 0.96588 0.79309 0.69109
 C426 C 1.00189 0.85598 0.70193
 H427 H 0.99710 0.85613 0.73600
 Zn428 Zn 0.96890 0.76779 0.59883
 N429 N 0.98988 0.81842 0.63345
 C430 C 0.90716 0.82778 0.55883
 N431 N 0.92332 0.78476 0.55888
 C432 C 0.90525 0.75162 0.53206
 C433 C 0.86987 0.76124 0.50331
 C434 C 0.87129 0.83874 0.53099
 C435 C 1.05673 0.73038 0.59539
 C436 C 1.09626 0.71183 0.57707
 C437 C 1.06295 0.72262 0.50742
 C438 C 1.02380 0.74080 0.52717
 N439 N 1.02107 0.74349 0.57043
 H440 H 0.92132 0.85341 0.58101
 H441 H 0.91810 0.71749 0.53340
 H442 H 0.85565 0.73411 0.48280
 H443 H 0.85832 0.87300 0.53179
 H444 H 1.05414 0.73389 0.62970
 H445 H 1.12386 0.70078 0.59765
 H446 H 1.06396 0.71988 0.47301
 H447 H 0.99570 0.75267 0.50782
 C448 C 1.02707 0.89027 0.68332
 C449 C 0.89900 0.66558 0.68741
 C450 C 1.09960 0.70733 0.53255
 C451 C 0.85221 0.80526 0.50275
 C452 C 0.52288 0.67943 0.29686
 H453 H 0.54603 0.70307 0.31341
 C454 C 0.54105 0.64026 0.27717
 H455 H 0.57800 0.63516 0.27843
 C456 C 0.44692 0.65502 0.27898
 H457 H 0.41011 0.65997 0.28159
 C458 C 0.46367 0.61492 0.25942
 H459 H 0.43934 0.59002 0.24625
 N460 N 0.47644 0.68550 0.29871
 C461 C 0.39591 0.80198 0.34791
 H462 H 0.39314 0.79017 0.37977
 C463 C 0.37414 0.84182 0.33785
 H464 H 0.35398 0.85917 0.36223
 C465 C 0.42958 0.79530 0.27985
 H466 H 0.45200 0.77723 0.25780
 C467 C 0.41072 0.83711 0.26931
 H468 H 0.41789 0.85040 0.23859
 Zn469 Zn 0.45148 0.72734 0.34047
 N470 N 0.42121 0.77834 0.31853
 C471 C 0.52992 0.77980 0.35802
 N472 N 0.49918 0.75236 0.37644
 C473 C 0.50122 0.74594 0.41905
 C474 C 0.53665 0.76558 0.44436
 C475 C 0.56568 0.80024 0.38210
 C476 C 0.36503 0.70149 0.37742
 C477 C 0.33886 0.67851 0.40653
 C478 C 0.40631 0.63509 0.42363
 C479 C 0.43109 0.65894 0.39438
 N480 N 0.41095 0.69302 0.37359
 H481 H 0.52671 0.78558 0.32439
 H482 H 0.47525 0.72611 0.43383
 H483 H 0.53770 0.75976 0.47806
 H484 H 0.59015 0.82141 0.36654
 H485 H 0.34859 0.72645 0.35852
 H486 H 0.30275 0.68675 0.41026
 H487 H 0.42410 0.60965 0.44098
 H488 H 0.46725 0.65171 0.38962
 C489 C 0.38134 0.86028 0.29812
 C490 C 0.51133 0.60626 0.26005
 C491 C 0.35981 0.64568 0.43094
 C492 C 0.56971 0.79281 0.42576
 C493 C 0.34846 0.00484 0.23444
 C494 C 0.12490 1.02226 0.72392
 C495 C 0.62492 0.48799 0.26572
 C496 C 0.86495 0.52623 0.76129
 C497 C 0.29471 0.38707 0.03564
 C498 C 0.81227 0.10864 0.97256
 C499 C 0.23216 0.60677 0.52506
 C500 C 0.71122 0.87999 0.45443
 C501 C -0.05815 0.24830 0.36793
 C502 C 1.06269 0.74248 0.14238
 C503 C 0.46078 0.23510 0.67015
 C504 C 0.54718 0.76018 0.88566
 C505 C 0.35964 -0.09903 0.28816
 C506 C 0.31940 -0.08364 0.30677
 C507 C 0.30960 -0.04434 0.28847
 C508 C 0.34538 -0.03687 0.26106
 O509 O 0.37525 -0.07086 0.25995
 H510 H 0.29833 -0.09988 0.32974
 H511 H 0.27987 -0.02326 0.29478
 C512 C 0.96248 0.46772 0.79975
 C513 C 0.98573 0.50749 0.79317
 C514 C 0.95283 0.53661 0.77926
 C515 C 0.91197 0.51220 0.77809
 O516 O 0.91808 0.47075 0.79077
 H517 H 1.02211 0.51457 0.79800
 H518 H 0.95839 0.57097 0.77033
 C519 C 0.07526 1.13203 0.74037
 C520 C 0.05035 1.11903 0.70394
 C521 C 0.06533 1.07654 0.69260
 C522 C 0.09839 1.06659 0.72280
 O523 O 0.10406 1.10019 0.75178
 H524 H 0.02436 1.13793 0.68751
 H525 H 0.05360 1.05519 0.66563
 C526 C 0.53044 0.56063 0.24902
 C527 C 0.50544 0.52074 0.24667
 C528 C 0.53737 0.48697 0.24817
 C529 C 0.57989 0.50836 0.25025
 O530 O 0.57527 0.55290 0.25086
 H531 H 0.46846 0.51658 0.24835
 H532 H 0.52997 0.45157 0.25173
 C533 C 0.62436 0.37208 0.22553
 C534 C 0.66776 0.37342 0.24418
 C535 C 0.67315 0.41618 0.26088
 C536 C 0.63266 0.43847 0.25166
 O537 O 0.60289 0.41160 0.23001
 H538 H 0.69256 0.34641 0.24604
 H539 H 0.70306 0.42973 0.27823
 C540 C 0.04788 0.92827 0.70953
 C541 C 0.03488 0.94189 0.75027
 C542 C 0.06208 0.97835 0.76149
 C543 C 0.09016 0.98410 0.72706
 O544 O 0.08119 0.95399 0.69543
 H545 H 0.00809 0.92781 0.76926
 H546 H 0.06130 0.99874 0.79098
 C547 C 0.87760 0.63456 0.71729
 C548 C 0.84293 0.64615 0.74536
 C549 C 0.83374 0.60806 0.76621
 C550 C 0.86371 0.57563 0.74985
 O551 O 0.89010 0.59180 0.71995
 H552 H 0.82601 0.67837 0.75036
 H553 H 0.80760 0.60453 0.79002
 C554 C 0.45006 0.04601 0.18735
 C555 C 0.45324 0.00204 0.17099
 C556 C 0.41821 -0.02090 0.18913
 C557 C 0.39595 0.01079 0.21516
 O558 O 0.41585 0.05109 0.21425
 H559 H 0.47664 -0.01121 0.14703
 H560 H 0.40792 -0.05558 0.18171
 C561 C 0.27995 0.46704 -0.04420
 C562 C 0.27339 0.49723 -0.00996
 C563 C 0.27589 0.47197 0.02523
 C564 C 0.28402 0.42817 0.00987
 O565 O 0.28537 0.42537 -0.03210
 H566 H 0.27009 0.53356 -0.01009
 H567 H 0.27411 0.48450 0.05807
 C568 C 0.71320 0.91881 0.34879
 C569 C 0.67512 0.94293 0.36247
 C570 C 0.66919 0.93175 0.40357
 C571 C 0.70409 0.90166 0.41203
 O572 O 0.73069 0.89388 0.37882
 H573 H 0.65460 0.96643 0.34506
 H574 H 0.64283 0.94415 0.42509
 C575 C 0.86497 0.05641 1.06083
 C576 C 0.90514 0.07011 1.04177
 C577 C 0.89117 0.09152 1.00658
 C578 C 0.84356 0.08908 1.00621
 O579 O 0.82782 0.06822 1.03930
 H580 H 0.94054 0.06583 1.05196
 H581 H 0.91302 0.10691 0.98368
 C582 C 0.25732 0.59716 0.63590
 C583 C 0.25529 0.64363 0.63605
 C584 C 0.24497 0.65328 0.59528
 C585 C 0.23983 0.61198 0.57312
 O586 O 0.24855 0.57782 0.59767
 H587 H 0.26338 0.66776 0.66207
 H588 H 0.24282 0.68662 0.58280
 C589 C 0.18005 0.51678 0.46466
 C590 C 0.15241 0.51431 0.49985
 C591 C 0.17133 0.54408 0.52986
 C592 C 0.20928 0.56245 0.51082
 O593 O 0.21425 0.54582 0.47131
 H594 H 0.12046 0.49566 0.50223
 H595 H 0.15678 0.55436 0.56029
 C596 C 0.79885 0.05827 0.86765
 C597 C 0.83698 0.03361 0.87943
 C598 C 0.84839 0.04936 0.91955
 C599 C 0.81690 0.08305 0.92961
 O600 O 0.78721 0.08860 0.89792
 H601 H 0.85379 0.00607 0.86213
 H602 H 0.87557 0.03627 0.93925
 C603 C 0.71727 0.95408 0.54713
 C604 C 0.75236 0.97353 0.52500
 C605 C 0.75361 0.94967 0.48693
 C606 C 0.71920 0.91738 0.48851
 O607 O 0.69699 0.92028 0.52493
 H608 H 0.77478 1.00131 0.53537
 H609 H 0.77754 0.95424 0.46139
 C610 C 0.27238 0.41804 0.14436
 C611 C 0.31807 0.43131 0.14436
 C612 C 0.33307 0.42013 0.10447
 C613 C 0.29564 0.40032 0.08296
 O614 O 0.25871 0.39931 0.10715
 H615 H 0.33795 0.44803 0.16997
 H616 H 0.36691 0.42679 0.09207
 C617 C -0.11397 0.29282 0.46061
 C618 C -0.07136 0.31262 0.46876
 C619 C -0.04364 0.29598 0.43720
 C620 C -0.07102 0.26660 0.41222
 O621 O -0.11369 0.26486 0.42660
 H622 H -0.06233 0.33837 0.49309
 H623 H -0.00864 0.30651 0.43127
 C624 C 0.45814 0.83394 0.92259
 C625 C 0.49485 0.85802 0.94087
 C626 C 0.53309 0.83389 0.92991
 C627 C 0.51702 0.79730 0.90497
 O628 O 0.47144 0.79697 0.90115
 H629 H 0.49377 0.88891 0.96067
 H630 H 0.56848 0.84186 0.93888
 C631 C 1.12687 0.81027 0.07293
 C632 C 1.11096 0.84517 0.09908
 C633 C 1.08627 0.82522 0.12936
 C634 C 1.08806 0.77917 0.11920
 O635 O 1.11362 0.77017 0.08509
 H636 H 1.11715 0.88098 0.09650
 H637 H 1.06901 0.84272 0.15550
 C638 C 0.54343 0.25423 0.58964
 C639 C 0.52513 0.21464 0.57129
 C640 C 0.49119 0.20213 0.59815
 C641 C 0.49102 0.23510 0.63084
 O642 O 0.52269 0.26648 0.62549
 H643 H 0.53576 0.19636 0.54250
 H644 H 0.46970 0.17218 0.59483
 C645 C 0.34892 0.23109 0.61977
 C646 C 0.33464 0.24127 0.66079
 C647 C 0.37383 0.24358 0.68495
 C648 C 0.40972 0.23487 0.65719
 O649 O 0.39438 0.22736 0.61757
 H650 H 0.29999 0.24607 0.67228
 H651 H 0.37590 0.25200 0.71878
 C652 C 0.97242 0.68783 0.08039
 C653 C 1.00918 0.67151 0.05711
 C654 C 1.04723 0.69064 0.07628
 C655 C 1.03116 0.71714 0.11028
 O656 O 0.98548 0.71560 0.11270
 H657 H 1.00829 0.64773 0.02985
 H658 H 1.08272 0.68488 0.06744
 C659 C 0.60952 0.70541 0.96713
 C660 C 0.56560 0.69343 0.97902
 C661 C 0.53662 0.71093 0.94964
 C662 C 0.56476 0.73233 0.92177
 O663 O 0.60898 0.72894 0.93238
 H664 H 0.55567 0.67373 1.00549
 H665 H 0.49934 0.70901 0.94884
 C666 C 0.05465 0.20425 0.38724
 C667 C 0.05254 0.19513 0.34385
 C668 C 0.01091 0.21061 0.33121
 C669 C -0.00989 0.22777 0.36789
 O670 O 0.01697 0.22414 0.40208
 H671 H 0.07844 0.17914 0.32387
 H672 H -0.00310 0.20939 0.29905
 C673 C 0.50626 0.13699 0.71670
 C674 C 0.47110 0.14454 0.74512
 C675 C 0.44893 0.18185 0.73182
 C676 C 0.47162 0.19401 0.69564
 O677 O 0.50679 0.16697 0.68692
 H678 H 0.46366 0.12629 0.77322
 H679 H 0.42050 0.19859 0.74760
 C680 C 1.11780 0.65363 0.19461
 C681 C 1.15513 0.68272 0.19560
 C682 C 1.14129 0.71871 0.17329
 C683 C 1.09642 0.70891 0.16024
 O684 O 1.08228 0.66939 0.17328
 H685 H 1.18805 0.67868 0.21161
 H686 H 1.16061 0.74947 0.16919
 C687 C 0.99125 0.80963 0.21136
 C688 C 1.01628 0.78986 0.24295
 C689 C 1.04444 0.75988 0.22218
 C690 C 1.03474 0.76351 0.17909
 O691 O 1.00185 0.79338 0.17280
 H692 H 1.01516 0.79723 0.27697
 H693 H 1.07048 0.73955 0.23695
 C694 C 0.46342 0.34223 0.72641
 C695 C 0.50726 0.32913 0.73818
 C696 C 0.51260 0.28696 0.71931
 C697 C 0.47160 0.27761 0.69751
 O698 O 0.44223 0.31128 0.70170
 H699 H 0.53202 0.34751 0.75852
 H700 H 0.54263 0.26554 0.72107
 C701 C 0.48066 0.67990 0.82188
 C702 C 0.47845 0.71536 0.79506
 C703 C 0.50276 0.74940 0.81528
 C704 C 0.51862 0.73235 0.85295
 O705 O 0.50485 0.69013 0.85721
 H706 H 0.46002 0.71688 0.76499
 H707 H 0.50809 0.78302 0.80421
 C708 C -0.11638 0.14739 0.33021
 C709 C -0.15538 0.17304 0.33663
 C710 C -0.13966 0.21482 0.35020
 C711 C -0.09203 0.21145 0.35179
 O712 O -0.07823 0.17043 0.33917
 H713 H -0.19092 0.16276 0.33121
 H714 H -0.16074 0.24375 0.35874
 C715 C -0.02964 0.34222 0.30681
 C716 C -0.07652 0.35015 0.30792
 C717 C -0.09475 0.31507 0.32906
 C718 C -0.05771 0.28803 0.33898
 O719 O -0.01858 0.30484 0.32554
 H720 H -0.09510 0.37891 0.29669
 H721 H -0.13029 0.31130 0.33808
 C722 C 0.62161 0.82512 0.82360
 C723 C 0.64385 0.78430 0.81725
 C724 C 0.62122 0.75509 0.84193
 C725 C 0.58695 0.78025 0.86176
 O726 O 0.58728 0.82269 0.85052
 H727 H 0.67224 0.77640 0.79628
 H728 H 0.62727 0.71920 0.84363
 C729 C 0.70972 0.54042 0.20242
 C730 C 0.72984 0.55073 0.24213
 C731 C 0.70081 0.53401 0.27104
 C732 C 0.66463 0.51455 0.24758
 O733 O 0.67011 0.51829 0.20600
 H734 H 0.76183 0.56819 0.25006
 H735 H 0.70623 0.53507 0.30520
 C736 C 0.18156 1.02388 0.62424
 C737 C 0.20288 0.98593 0.63867
 C738 C 0.18397 0.97951 0.67737
 C739 C 0.15296 1.01444 0.68391
 O740 O 0.15140 1.04117 0.65152
 H741 H 0.22896 0.96548 0.62292
 H742 H 0.19218 0.95304 0.69873
 C743 C 0.19456 1.00623 0.81702
 C744 C 0.21295 1.04740 0.80632
 C745 C 0.19033 1.05821 0.77006
 C746 C 0.15853 1.02398 0.76167
 O747 O 0.16173 0.99205 0.78959
 H748 H 0.24061 1.06693 0.82169
 H749 H 0.19607 1.08774 0.75186
 C750 C 0.63540 0.47675 0.37853
 C751 C 0.62093 0.52104 0.38004
 C752 C 0.61467 0.53143 0.33859
 C753 C 0.62517 0.49248 0.31452
 O754 O 0.63794 0.45947 0.33901
 H755 H 0.61725 0.54369 0.40782
 H756 H 0.60478 0.56396 0.32736
 C757 C 0.81726 0.46726 0.66881
 C758 C 0.86213 0.45370 0.66346
 C759 C 0.88601 0.47395 0.69651
 C760 C 0.85375 0.49800 0.72050
 O761 O 0.81183 0.49455 0.70298
 H762 H 0.87555 0.43099 0.63867
 H763 H 0.92270 0.47104 0.70245
 C764 C 0.28301 -0.01336 0.13823
 C765 C 0.24640 -0.00241 0.16427
 C766 C 0.26547 0.00585 0.20380
 C767 C 0.31241 -0.00029 0.19895
 O768 O 0.32281 -0.01213 0.15923
 H769 H 0.21008 -0.00193 0.15597
 H770 H 0.24738 0.01521 0.23273
 C771 C 0.32007 0.09009 0.31391
 C772 C 0.31986 0.11738 0.27948
 C773 C 0.33143 0.08979 0.24549
 C774 C 0.33804 0.04762 0.26152
 O775 O 0.33144 0.04805 0.30304
 H776 H 0.31031 0.15254 0.27848
 H777 H 0.33338 0.09881 0.21261
 C778 C 0.80495 0.52177 0.85938
 C779 C 0.77901 0.48875 0.83754
 C780 C 0.79658 0.48564 0.79734
 C781 C 0.83179 0.51737 0.79731
 O782 O 0.83689 0.53873 0.83506
 H783 H 0.75099 0.46889 0.84931
 H784 H 0.78544 0.46222 0.77175
 C785 C 0.14042 0.68455 0.51378
 C786 C 0.15194 0.68126 0.47125
 C787 C 0.18990 0.65400 0.46928
 C788 C 0.19926 0.64322 0.51085
 O789 O 0.16874 0.66129 0.53737
 H790 H 0.13414 0.69553 0.44462
 H791 H 0.20712 0.64160 0.44077
 C792 C 0.69884 0.11907 1.01431
 C793 C 0.69957 0.07270 1.00881
 C794 C 0.74056 0.06300 0.99017
 C795 C 0.76234 0.10422 0.98622
 O796 O 0.73662 0.13840 1.00051
 H797 H 0.67391 0.04885 1.01860
 H798 H 0.75425 0.02975 0.98237
 C799 C 0.87460 0.20825 0.95350
 C800 C 0.85151 0.22513 0.98909
 C801 C 0.82164 0.19174 0.99917
 C802 C 0.82729 0.15729 0.96842
 O803 O 0.85940 0.16748 0.94103
 H804 H 0.85742 0.25639 1.00761
 H805 H 0.80113 0.19123 1.02760
 C806 C 0.33323 0.62345 0.46403
 C807 C 0.34876 0.58772 0.48691
 C808 C 0.31376 0.57790 0.51315
 C809 C 0.27921 0.60828 0.50472
 O810 O 0.29099 0.63600 0.47490
 H811 H 0.38123 0.57009 0.48459
 H812 H 0.31292 0.55104 0.53526
 C813 C 0.60868 0.81359 0.45061
 C814 C 0.62207 0.80411 0.49160
 C815 C 0.66152 0.82863 0.49963
 C816 C 0.66898 0.85170 0.46317
 O817 O 0.63713 0.84220 0.43357
 H818 H 0.60625 0.78095 0.51263
 H819 H 0.68311 0.82863 0.52801
 C820 C 0.19934 0.31990 -0.00372
 C821 C 0.21679 0.28932 0.02414
 C822 C 0.25451 0.31005 0.04315
 C823 C 0.25750 0.35173 0.02549
 O824 O 0.22393 0.35759 -0.00270
 H825 H 0.20388 0.25597 0.03009
 H826 H 0.27721 0.29644 0.06691
 C827 C 0.40226 0.32897 0.02744
 C828 C 0.41171 0.36111 -0.00147
 C829 C 0.37285 0.38626 -0.00393
 C830 C 0.34172 0.36748 0.02338
 O831 O 0.35989 0.33259 0.04239
 H832 H 0.44362 0.36667 -0.01784
 H833 H 0.36915 0.41606 -0.02213
 C834 C 0.81244 0.81617 0.47498
 C835 C 0.79683 0.79045 0.43976
 C836 C 0.75796 0.81153 0.42611
 C837 C 0.75269 0.84874 0.45381
 O838 O 0.78576 0.85143 0.48338
 H839 H 0.81141 0.75966 0.42597
 H840 H 0.73532 0.80050 0.39991
   
