data_POSCAR
  _audit_creation_date              2014-09-24
  _audit_creation_method            'ToBaCCo'
  _symmetry_space_group_name_H-M    'P1'
  _symmetry_Int_Tables_number       1
  _symmetry_cell_setting            triclinic
  loop_
  _symmetry_equiv_pos_as_xyz
 x,y,z
_cell_length_a 27.7333
_cell_length_b 27.7965
_cell_length_c 30.6703
_cell_angle_alpha 90.124600
_cell_angle_beta 89.928800
_cell_angle_gamma 120.042800
loop_
  _atom_site_label
  _atom_site_type_symbol
  _atom_site_fract_x
  _atom_site_fract_y
  _atom_site_fract_z
O1 O 0.05273 0.56831 1.29131
 O2 O -0.05535 0.51330 1.20623
 O3 O -0.05530 0.51324 1.29153
 O4 O 0.05281 0.56768 1.20666
 O5 O 0.05285 0.48814 1.20638
 O6 O -0.05510 0.43378 1.29121
 O7 O -0.05526 0.43382 1.20654
 O8 O 0.05296 0.48889 1.29161
 Cu9 Cu -0.00145 0.54859 1.24891
 Cu10 Cu -0.00099 0.45319 1.24893
 C11 C 0.07093 0.53779 1.30604
 C12 C -0.07338 0.46440 1.19175
 C13 C -0.07316 0.46444 1.30596
 C14 C 0.07089 0.53696 1.19200
 O15 O 0.43129 0.48640 1.29356
 O16 O 0.48715 0.43429 1.20823
 O17 O 0.48701 0.43407 1.29346
 O18 O 0.43125 0.48635 1.20884
 O19 O 0.51052 0.56645 1.20866
 O20 O 0.56626 0.51419 1.29331
 O21 O 0.56639 0.51439 1.20865
 O22 O 0.51049 0.56650 1.29394
 Cu23 Cu 0.45124 0.45213 1.25103
 Cu24 Cu 0.54633 0.54855 1.25118
 C25 C 0.46153 0.53525 1.30834
 C26 C 0.53610 0.46557 1.19387
 C27 C 0.53596 0.46530 1.30779
 C28 C 0.46161 0.53516 1.19425
 O29 O 0.51420 0.94637 1.29430
 O30 O 0.56721 1.05405 1.20911
 O31 O 0.56623 1.05436 1.29444
 O32 O 0.51444 0.94622 1.20956
 O33 O 0.43421 0.94522 1.20886
 O34 O 0.48596 1.05322 1.29371
 O35 O 0.48699 1.05303 1.20898
 O36 O 0.43394 0.94521 1.29418
 Cu37 Cu 0.54869 1.00051 1.25193
 Cu38 Cu 0.45211 0.99891 1.25142
 C39 C 0.46514 0.92766 1.30881
 C40 C 0.53597 1.07147 1.19439
 C41 C 0.53481 1.07196 1.30859
 C42 C 0.46564 0.92772 1.19463
 O43 O 0.94644 0.51129 0.70728
 O44 O 1.05484 0.56470 0.79193
 O45 O 1.05463 0.56461 0.70663
 O46 O 0.94666 0.51119 0.79203
 O47 O 0.94660 0.43163 0.79208
 O48 O 1.05460 0.48508 0.70670
 O49 O 1.05480 0.48514 0.79145
 O50 O 0.94642 0.43174 0.70670
 Cu51 Cu 1.00078 0.54603 0.74949
 Cu52 Cu 1.00045 0.45030 0.74921
 C53 C 0.92836 0.46260 0.69245
 C54 C 1.07295 0.53388 0.80619
 C55 C 1.07274 0.53383 0.69202
 C56 C 0.92860 0.46248 0.80671
 O57 O 0.48779 0.43448 0.70754
 O58 O 0.43557 0.49012 0.79253
 O59 O 0.43548 0.49014 0.70730
 O60 O 0.48810 0.43480 0.79224
 O61 O 0.56834 0.51393 0.79246
 O62 O 0.51571 0.56927 0.70750
 O63 O 0.51579 0.56928 0.79217
 O64 O 0.56802 0.51363 0.70712
 Cu65 Cu 0.45356 0.45446 0.74989
 Cu66 Cu 0.55016 0.54944 0.74980
 C67 C 0.53663 0.46479 0.69276
 C68 C 0.46690 0.53896 0.80689
 C69 C 0.46673 0.53895 0.69289
 C70 C 0.53701 0.46518 0.80695
 O71 O 0.56836 0.05279 0.70710
 O72 O 0.51282 -0.05519 0.79169
 O73 O 0.51328 -0.05510 0.70635
 O74 O 0.56811 0.05263 0.79176
 O75 O 0.48861 0.05308 0.79189
 O76 O 0.43378 -0.05470 0.70653
 O77 O 0.43331 -0.05475 0.79124
 O78 O 0.48881 0.05315 0.70668
 Cu79 Cu 0.54860 -0.00143 0.74923
 Cu80 Cu 0.45316 -0.00064 0.74906
 C81 C 0.53784 0.07105 0.69244
 C82 C 0.46383 -0.07295 0.80599
 C83 C 0.46440 -0.07289 0.69174
 C84 C 0.53751 0.07089 0.80643
 O85 O 0.41651 0.66927 0.95127
 O86 O 0.41892 0.76304 0.96281
 C87 C 0.38442 0.77145 0.94186
 O88 O 0.33297 0.74768 0.95050
 O89 O 0.23887 0.65639 0.96196
 C90 C 0.23026 0.61307 0.94150
 O91 O 0.25405 0.58565 0.95062
 O92 O 0.34559 0.58343 0.96286
 C93 C 0.38896 0.61799 0.94234
 O94 O 0.41793 0.65601 1.03823
 O95 O 0.41610 0.74768 1.04979
 C96 C 0.38874 0.77171 1.05846
 O97 O 0.34580 0.76341 1.03752
 O98 O 0.25373 0.67002 1.04893
 C99 C 0.22946 0.61875 1.05780
 O100 O 0.23808 0.58396 1.03749
 O101 O 0.33164 0.58573 1.04976
 C102 C 0.38299 0.61297 1.05880
 Cr103 Cr 0.41412 0.70739 1.00051
 Cr104 Cr 0.29447 0.70776 0.99974
 Cr105 Cr 0.29398 0.58793 1.00018
 O106 O 0.33418 0.66769 1.00016
 O107 O 0.58348 0.33116 0.95147
 O108 O 0.58154 0.23746 0.96212
 C109 C 0.61609 0.22815 0.94208
 O110 O 0.66731 0.25143 0.95150
 O111 O 0.76127 0.34335 0.96209
 C112 C 0.77071 0.38717 0.94214
 O113 O 0.74735 0.41498 0.95157
 O114 O 0.65526 0.41679 0.96221
 C115 C 0.61138 0.38230 0.94217
 O116 O 0.58153 0.34343 1.03868
 O117 O 0.58331 0.25157 1.04933
 C118 C 0.61117 0.22829 1.05874
 O119 O 0.65511 0.23764 1.03876
 O120 O 0.74726 0.33138 1.04934
 C121 C 0.77064 0.38253 1.05872
 O122 O 0.76124 0.41694 1.03879
 O123 O 0.66731 0.41508 1.04943
 C124 C 0.61603 0.38725 1.05875
 Cr125 Cr 0.58584 0.29259 1.00040
 Cr126 Cr 0.70605 0.29263 1.00042
 Cr127 Cr 0.70610 0.41257 1.00050
 O128 O 0.66600 0.33260 1.00045
 O129 O 0.65409 0.41599 0.53738
 O130 O 0.74609 0.41447 0.54893
 C131 C 0.77028 0.38736 0.55774
 O132 O 0.76173 0.34412 0.53721
 O133 O 0.66805 0.25239 0.54889
 C134 C 0.61664 0.22828 0.55772
 O135 O 0.58182 0.23658 0.53713
 O136 O 0.58339 0.32998 0.54885
 C137 C 0.61071 0.38129 0.55779
 O138 O 0.66734 0.41403 0.45043
 O139 O 0.76130 0.41641 0.46193
 C140 C 0.77005 0.38185 0.44138
 O141 O 0.74629 0.33060 0.45028
 O142 O 0.65474 0.23675 0.46198
 C143 C 0.61141 0.22790 0.44137
 O144 O 0.58387 0.25171 0.45018
 O145 O 0.58138 0.34309 0.46192
 C146 C 0.61595 0.38650 0.44154
 Cr147 Cr 0.70559 0.41196 0.49966
 Cr148 Cr 0.70606 0.29259 0.49959
 Cr149 Cr 0.58588 0.29198 0.49952
 O150 O 0.66584 0.33219 0.49959
 O151 O 0.34397 0.58332 0.53806
 O152 O 0.25171 0.58473 0.54885
 C153 C 0.22822 0.61239 0.55835
 O154 O 0.23742 0.65612 0.53839
 O155 O 0.33127 0.74826 0.54898
 C156 C 0.38256 0.77176 0.55825
 O157 O 0.41714 0.76252 0.53817
 O158 O 0.41569 0.66903 0.54862
 C159 C 0.38788 0.61791 0.55802
 O160 O 0.33175 0.58493 0.45087
 O161 O 0.23768 0.58274 0.46164
 C162 C 0.22821 0.61708 0.44166
 O163 O 0.25132 0.66819 0.45114
 O164 O 0.34324 0.76218 0.46176
 C165 C 0.38719 0.77174 0.44167
 O166 O 0.41520 0.74858 0.45092
 O167 O 0.41742 0.65688 0.46138
 C168 C 0.38297 0.61292 0.44143
 Cr169 Cr 0.29296 0.58731 0.49985
 Cr170 Cr 0.29251 0.70701 0.50006
 Cr171 Cr 0.41298 0.70755 0.49977
 O172 O 0.33282 0.66729 0.49990
 C173 C 0.37978 0.57911 0.35886
 C174 C 0.43970 0.60973 0.34003
 C175 C 0.44077 0.55501 0.34185
 C176 C 0.38110 0.52404 0.36013
 C177 C 0.46519 0.56845 0.38816
 C178 C 0.46384 0.62345 0.38687
 C179 C 0.40418 0.59253 0.40521
 C180 C 0.40527 0.53781 0.40692
 H181 H 0.34443 0.58375 0.34722
 H182 H 0.45400 0.63908 0.31215
 H183 H 0.34710 0.48297 0.34889
 H184 H 0.50048 0.56377 0.39989
 H185 H 0.49774 0.66455 0.39815
 H186 H 0.39095 0.50849 0.43482
 C187 C 0.37657 0.84184 0.38722
 C188 C 0.43172 0.89825 0.38860
 C189 C 0.44516 0.88723 0.34227
 C190 C 0.39029 0.83138 0.34036
 C191 C 0.47616 0.85870 0.36053
 C192 C 0.46240 0.86914 0.40733
 C193 C 0.40753 0.81327 0.40553
 C194 C 0.42095 0.80226 0.35916
 H195 H 0.33539 0.83457 0.39848
 H196 H 0.43645 0.93819 0.40038
 H197 H 0.36086 0.81622 0.31245
 H198 H 0.51731 0.86583 0.34933
 H199 H 0.49180 0.88427 0.43526
 H200 H 0.41627 0.76232 0.34745
 C201 C 0.15841 0.53637 0.38690
 C202 C 0.10196 0.53506 0.38782
 C203 C 0.11343 0.55937 0.34151
 C204 C 0.16937 0.56046 0.34010
 C205 C 0.14195 0.61889 0.35990
 C206 C 0.13099 0.59481 0.40665
 C207 C 0.18693 0.59589 0.40530
 C208 C 0.19846 0.62023 0.35898
 H209 H 0.16551 0.50254 0.39830
 H210 H 0.06178 0.49983 0.39929
 H211 H 0.18474 0.54616 0.31233
 H212 H 0.13489 0.65273 0.34847
 H213 H 0.11561 0.60910 0.43441
 H214 H 0.23863 0.65550 0.34753
 C215 C 0.59392 0.46169 0.40761
 C216 C 0.61768 0.47515 0.36072
 C217 C 0.55787 0.44436 0.34277
 C218 C 0.53387 0.43119 0.38921
 C219 C 0.55866 0.38951 0.34073
 C220 C 0.61872 0.41997 0.35919
 C221 C 0.59469 0.40683 0.40563
 C222 C 0.53489 0.37605 0.38766
 H223 H 0.60860 0.49109 0.43555
 H224 H 0.65159 0.51611 0.34931
 H225 H 0.49879 0.43613 0.40115
 H226 H 0.54396 0.36010 0.31280
 H227 H 0.65386 0.41508 0.34728
 H228 H 0.50098 0.33506 0.39904
 C229 C 0.57880 0.19753 0.35871
 C230 C 0.60942 0.16802 0.34044
 C231 C 0.55432 0.11243 0.34198
 C232 C 0.52333 0.14132 0.35968
 C233 C 0.56681 0.10132 0.38849
 C234 C 0.62220 0.15747 0.38750
 C235 C 0.59128 0.18642 0.40526
 C236 C 0.53616 0.13081 0.40668
 H237 H 0.58399 0.23758 0.34691
 H238 H 0.63930 0.18290 0.31281
 H239 H 0.48248 0.13443 0.34797
 H240 H 0.56157 0.06126 0.40037
 H241 H 0.66308 0.16449 0.39924
 H242 H 0.50633 0.11597 0.43434
 C243 C 0.80334 0.42737 0.36243
 C244 C 0.86366 0.47668 0.36667
 C245 C 0.88459 0.44283 0.34145
 C246 C 0.82487 0.39382 0.33669
 C247 C 0.89240 0.41868 0.38415
 C248 C 0.87095 0.45220 0.40982
 C249 C 0.81119 0.40321 0.40510
 C250 C 0.83212 0.36936 0.37985
 H251 H 0.76615 0.43061 0.35396
 H252 H 0.87700 0.52104 0.36091
 H253 H 0.80643 0.37018 0.30615
 H254 H 0.92958 0.41546 0.39269
 H255 H 0.88945 0.47589 0.44033
 H256 H 0.81881 0.32501 0.38562
 C257 C 0.59363 0.46225 1.09341
 C258 C 0.53372 0.43146 1.11212
 C259 C 0.55802 0.44479 1.15848
 C260 C 0.61769 0.47587 1.14021
 C261 C 0.55924 0.39013 1.16012
 C262 C 0.53516 0.37653 1.11328
 C263 C 0.59483 0.40759 1.09499
 C264 C 0.61916 0.42088 1.14136
 H265 H 0.60794 0.49167 1.06557
 H266 H 0.49839 0.43611 1.10046
 H267 H 0.65155 0.51692 1.15160
 H268 H 0.54491 0.36071 1.18795
 H269 H 0.50130 0.33544 1.10193
 H270 H 0.65454 0.41630 1.15299
 C271 C 0.83348 0.37021 1.11972
 C272 C 0.89374 0.41961 1.11520
 C273 C 0.88628 0.44374 1.15816
 C274 C 0.82663 0.39467 1.16319
 C275 C 0.86500 0.47753 1.13340
 C276 C 0.87188 0.45303 1.08998
 C277 C 0.81217 0.40395 1.09490
 C278 C 0.80474 0.42812 1.13787
 H279 H 0.82018 0.32587 1.11378
 H280 H 0.93082 0.41640 1.10618
 H281 H 0.80843 0.37097 1.19369
 H282 H 0.87823 0.52188 1.13924
 H283 H 0.89008 0.47674 1.05948
 H284 H 0.76761 0.43131 1.14677
 C285 C 0.58078 0.12755 1.09057
 C286 C 0.61199 0.13499 1.13411
 C287 C 0.55666 0.11370 1.15878
 C288 C 0.52526 0.10575 1.11566
 C289 C 0.56690 0.17319 1.16333
 C290 C 0.62251 0.19505 1.13817
 C291 C 0.59105 0.18706 1.09508
 C292 C 0.53573 0.16578 1.11976
 H293 H 0.58661 0.10914 1.06026
 H294 H 0.64327 0.12202 1.14030
 H295 H 0.48506 0.06853 1.10674
 H296 H 0.56106 0.19155 1.19366
 H297 H 0.66273 0.23227 1.14703
 H298 H 0.50444 0.17873 1.11357
 C299 C 0.37950 0.58043 1.14156
 C300 C 0.38022 0.52506 1.14078
 C301 C 0.43994 0.55585 1.15891
 C302 C 0.43947 0.61089 1.16020
 C303 C 0.46417 0.56827 1.11253
 C304 C 0.40422 0.53777 1.09394
 C305 C 0.40377 0.59281 1.09517
 C306 C 0.46348 0.62359 1.11333
 H307 H 0.34443 0.58569 1.15304
 H308 H 0.34611 0.48434 1.15242
 H309 H 0.45415 0.64068 1.18788
 H310 H 0.49919 0.56296 1.10101
 H311 H 0.38955 0.50797 1.06627
 H312 H 0.49760 0.66433 1.10174
 C313 C 0.12791 0.54909 1.08858
 C314 C 0.13431 0.52432 1.13190
 C315 C 0.11350 0.55853 1.15678
 C316 C 0.10658 0.58298 1.11390
 C317 C 0.17338 0.60713 1.16197
 C318 C 0.19477 0.57322 1.13658
 C319 C 0.18781 0.59768 1.09374
 C320 C 0.16702 0.63189 1.11863
 H321 H 0.10968 0.52552 1.05798
 H322 H 0.12047 0.47986 1.13767
 H323 H 0.06978 0.58666 1.10498
 H324 H 0.19156 0.63065 1.19259
 H325 H 0.23159 0.56953 1.14545
 H326 H 0.18085 0.67636 1.11284
 C327 C 0.46385 0.86815 1.09416
 C328 C 0.43321 0.89747 1.11263
 C329 C 0.44518 0.88552 1.15907
 C330 C 0.47610 0.85673 1.14105
 C331 C 0.38993 0.83001 1.15990
 C332 C 0.37769 0.84146 1.11297
 C333 C 0.40861 0.81266 1.09493
 C334 C 0.42053 0.80064 1.14138
 H335 H 0.49398 0.88340 1.06670
 H336 H 0.43874 0.93781 1.10123
 H337 H 0.51676 0.86332 1.15296
 H338 H 0.35981 0.81478 1.18736
 H339 H 0.33700 0.83483 1.10110
 H340 H 0.41506 0.76031 1.15275
 C341 C 0.62277 0.42718 0.63666
 C342 C 0.61185 0.47638 0.63218
 C343 C 0.55695 0.44270 0.65736
 C344 C 0.56758 0.39378 0.66235
 C345 C 0.52492 0.41815 0.61464
 C346 C 0.58002 0.45152 0.58902
 C347 C 0.59070 0.40262 0.59397
 C348 C 0.53580 0.36892 0.61916
 H349 H 0.66323 0.43055 0.64526
 H350 H 0.64299 0.52080 0.63784
 H351 H 0.56233 0.37040 0.69295
 H352 H 0.48449 0.41480 0.60597
 H353 H 0.58526 0.47496 0.55844
 H354 H 0.50466 0.32450 0.61346
 C355 C 0.59543 0.13170 0.59237
 C356 C 0.61926 0.14269 0.63924
 C357 C 0.55948 0.11354 0.65725
 C358 C 0.53541 0.10202 0.61084
 C359 C 0.55974 0.16893 0.65880
 C360 C 0.61978 0.19867 0.64029
 C361 C 0.59568 0.18708 0.59386
 C362 C 0.53590 0.15792 0.61189
 H363 H 0.61028 0.11685 0.56462
 H364 H 0.65340 0.13608 0.65085
 H365 H 0.50050 0.06175 0.59915
 H366 H 0.54488 0.18376 0.68656
 H367 H 0.65473 0.23893 0.65194
 H368 H 0.50176 0.16456 0.60032
 C369 C 0.87164 0.41867 0.58879
 C370 C 0.89297 0.47364 0.61443
 C371 C 0.88579 0.44186 0.65713
 C372 C 0.86496 0.38708 0.63193
 C373 C 0.82593 0.43075 0.66225
 C374 C 0.83256 0.46229 0.61908
 C375 C 0.81175 0.40752 0.59386
 C376 C 0.80453 0.37569 0.63654
 H377 H 0.89001 0.41357 0.55817
 H378 H 0.92988 0.51411 0.60571
 H379 H 0.87865 0.35629 0.63752
 H380 H 0.80761 0.43587 0.69290
 H381 H 0.81888 0.49309 0.61348
 H382 H 0.76760 0.33519 0.64519
 C383 C 0.42168 0.62146 0.64056
 C384 C 0.39095 0.56175 0.65938
 C385 C 0.44578 0.56063 0.65762
 C386 C 0.47683 0.62009 0.63929
 C387 C 0.43240 0.53619 0.61129
 C388 C 0.37730 0.53753 0.61257
 C389 C 0.40834 0.59700 0.59422
 C390 C 0.46317 0.59589 0.59252
 H391 H 0.41703 0.65678 0.65220
 H392 H 0.36149 0.54754 0.68728
 H393 H 0.51797 0.65395 0.65060
 H394 H 0.43709 0.50091 0.59962
 H395 H 0.33613 0.50367 0.60130
 H396 H 0.49264 0.61009 0.56462
 C397 C 0.45335 0.87268 0.58978
 C398 C 0.41990 0.89463 0.61506
 C399 C 0.44379 0.88696 0.65800
 C400 C 0.47761 0.86560 0.63318
 C401 C 0.39443 0.82752 0.66285
 C402 C 0.37021 0.83458 0.61940
 C403 C 0.40398 0.81318 0.59452
 C404 C 0.42791 0.80555 0.63747
 H405 H 0.47729 0.89085 0.55934
 H406 H 0.41692 0.93175 0.60615
 H407 H 0.52199 0.87861 0.63907
 H408 H 0.37049 0.80935 0.69329
 H409 H 0.32584 0.82150 0.61342
 H410 H 0.43089 0.76839 0.64626
 C411 C 0.19833 0.57885 0.64095
 C412 C 0.16876 0.60901 0.66004
 C413 C 0.11308 0.55394 0.65836
 C414 C 0.14207 0.52343 0.63982
 C415 C 0.10153 0.56697 0.61215
 C416 C 0.15776 0.62233 0.61328
 C417 C 0.18678 0.59187 0.59469
 C418 C 0.13109 0.53680 0.59314
 H419 H 0.23861 0.58398 0.65240
 H420 H 0.18389 0.63848 0.68793
 H421 H 0.13542 0.48258 0.65097
 H422 H 0.06125 0.56180 0.60063
 H423 H 0.16455 0.66322 0.60208
 H424 H 0.11599 0.50735 0.56523
 C425 C 0.42166 0.62104 0.85970
 C426 C 0.47709 0.62022 0.86047
 C427 C 0.44618 0.56062 0.84231
 C428 C 0.39107 0.56118 0.84104
 C429 C 0.43358 0.53651 0.88867
 C430 C 0.46421 0.59637 0.90729
 C431 C 0.40911 0.59692 0.90608
 C432 C 0.37820 0.53731 0.88790
 H433 H 0.41648 0.65606 0.84825
 H434 H 0.51795 0.65418 0.84882
 H435 H 0.36128 0.54654 0.81336
 H436 H 0.43881 0.50154 0.90015
 H437 H 0.49400 0.61100 0.93496
 H438 H 0.33731 0.50336 0.89951
 C439 C 0.13348 0.53757 0.90651
 C440 C 0.10389 0.56776 0.88788
 C441 C 0.11551 0.55504 0.84151
 C442 C 0.14459 0.52456 0.85970
 C443 C 0.17111 0.61018 0.84011
 C444 C 0.15999 0.62318 0.88698
 C445 C 0.18906 0.59270 0.90518
 C446 C 0.20077 0.58003 0.85880
 H447 H 0.11843 0.50799 0.93425
 H448 H 0.06353 0.56240 0.89943
 H449 H 0.13793 0.48381 0.84814
 H450 H 0.18614 0.63975 0.81238
 H451 H 0.16668 0.66396 0.89850
 H452 H 0.24112 0.58534 0.84728
 C453 C 0.40604 0.86767 0.90625
 C454 C 0.46613 0.89705 0.88792
 C455 C 0.44223 0.88493 0.84144
 C456 C 0.38238 0.85607 0.85933
 C457 C 0.44191 0.82949 0.84058
 C458 C 0.46558 0.84110 0.88757
 C459 C 0.40574 0.81225 0.90546
 C460 C 0.38181 0.80006 0.85897
 H461 H 0.39113 0.88293 0.93369
 H462 H 0.50102 0.93746 0.89940
 H463 H 0.34830 0.86254 0.84735
 H464 H 0.45684 0.81426 0.81314
 H465 H 0.49964 0.83458 0.89952
 H466 H 0.34688 0.75966 0.84752
 C467 C 0.58123 0.45291 0.91068
 C468 C 0.61270 0.47700 0.86728
 C469 C 0.55750 0.44330 0.84243
 C470 C 0.52583 0.41952 0.88540
 C471 C 0.56765 0.39401 0.83762
 C472 C 0.62313 0.42743 0.86297
 C473 C 0.59142 0.40363 0.90591
 C474 C 0.53622 0.36993 0.88105
 H475 H 0.58693 0.47687 0.94112
 H476 H 0.64405 0.52126 0.86133
 H477 H 0.48563 0.41660 0.89428
 H478 H 0.56194 0.37010 0.80715
 H479 H 0.66337 0.43038 0.85415
 H480 H 0.50486 0.32567 0.88701
 C481 C 0.87195 0.41783 0.91049
 C482 C 0.86490 0.38657 0.86699
 C483 C 0.88610 0.44165 0.84227
 C484 C 0.89366 0.47309 0.88534
 C485 C 0.82637 0.43108 0.83758
 C486 C 0.80460 0.37573 0.86279
 C487 C 0.81220 0.40723 0.90584
 C488 C 0.83340 0.46230 0.88110
 H489 H 0.89033 0.41226 0.94087
 H490 H 0.87817 0.35553 0.86091
 H491 H 0.93078 0.51333 0.89429
 H492 H 0.80803 0.43666 0.80719
 H493 H 0.76747 0.33547 0.85391
 H494 H 0.82014 0.49336 0.88718
 C495 C 0.53553 0.15823 0.88723
 C496 C 0.55993 0.16909 0.84048
 C497 C 0.55897 0.11334 0.84194
 C498 C 0.53435 0.10198 0.88821
 C499 C 0.61852 0.14195 0.86043
 C500 C 0.61973 0.19827 0.85946
 C501 C 0.59509 0.18684 0.90573
 C502 C 0.59413 0.13110 0.90714
 H503 H 0.50150 0.16525 0.89854
 H504 H 0.54569 0.18430 0.81265
 H505 H 0.49904 0.06187 0.89966
 H506 H 0.65256 0.13496 0.84910
 H507 H 0.65509 0.23835 0.84804
 H508 H 0.60835 0.11588 0.93497
   
