data_POSCAR
  _audit_creation_date              2014-09-24
  _audit_creation_method            'ToBaCCo'
  _symmetry_space_group_name_H-M    'P1'
  _symmetry_Int_Tables_number       1
  _symmetry_cell_setting            triclinic
  loop_
  _symmetry_equiv_pos_as_xyz
 x,y,z
_cell_length_a 17.0607
_cell_length_b 16.9882
_cell_length_c 6.4082
_cell_angle_alpha 90.538700
_cell_angle_beta 88.731300
_cell_angle_gamma 119.106600
loop_
  _atom_site_label
  _atom_site_type_symbol
  _atom_site_fract_x
  _atom_site_fract_y
  _atom_site_fract_z
C1 C 0.47155 0.91849 0.60810
 C2 C 0.44240 0.91957 0.40528
 C3 C 0.46891 1.00224 0.30627
 C4 C 0.53042 1.08419 0.39819
 C5 C 0.56043 1.08345 0.60145
 C6 C 0.53538 1.00012 0.69817
 H7 H 0.55531 0.99958 0.85763
 H8 H 0.44980 1.00183 0.14566
 C9 C 0.08317 0.53012 0.58552
 C10 C 0.07746 0.55486 0.38039
 C11 C -0.00700 0.52520 0.29332
 C12 C -0.08639 0.46969 0.40615
 C13 C -0.08042 0.44390 0.61087
 C14 C 0.00412 0.47438 0.69808
 H15 H 0.00836 0.45853 0.85950
 H16 H -0.01076 0.54139 0.13182
 C17 C 0.47738 0.55906 0.61268
 C18 C 0.43892 0.52362 0.41791
 C19 C 0.46086 0.46407 0.31320
 C20 C 0.52018 0.43884 0.39837
 C21 C 0.55894 0.47372 0.59314
 C22 C 0.53812 0.53481 0.69691
 H23 H 0.56161 0.55584 0.85459
 H24 H 0.43831 0.44399 0.15466
 O25 O 0.48043 0.67458 -0.19019
 O26 O 0.47591 0.82842 -0.13334
 C27 C 0.42901 0.84156 -0.26541
 O28 O 0.34412 0.79290 -0.27118
 O29 O 0.18436 0.65038 -0.21484
 C30 C 0.16626 0.57572 -0.29542
 O31 O 0.20927 0.53499 -0.25580
 O32 O 0.35874 0.53612 -0.18148
 C33 C 0.43662 0.59282 -0.25064
 O34 O 0.45907 0.64537 0.21712
 O35 O 0.44267 0.78922 0.27458
 C36 C 0.40595 0.83856 0.27234
 O37 O 0.34726 0.82794 0.14083
 O38 O 0.19471 0.67538 0.19297
 C39 C 0.15549 0.59168 0.23860
 O40 O 0.17541 0.53456 0.15766
 O41 O 0.32206 0.52753 0.23286
 C42 C 0.40286 0.56918 0.28833
 Cr43 Cr 0.45931 0.73189 0.04004
 Cr44 Cr 0.27043 0.73423 -0.03717
 Cr45 Cr 0.26904 0.53863 -0.01105
 O46 O 0.33249 0.66710 -0.00246
 O47 O 0.54028 0.35250 -0.22272
 O48 O 0.56149 0.21219 -0.28030
 C49 C 0.59539 0.16050 -0.27207
 O50 O 0.65150 0.17010 -0.13400
 O51 O 0.80469 0.32438 -0.19353
 C52 C 0.84222 0.40767 -0.24471
 O53 O 0.82206 0.46526 -0.16626
 O54 O 0.67449 0.47389 -0.22826
 C55 C 0.59435 0.43064 -0.28724
 O56 O 0.51972 0.32326 0.18747
 O57 O 0.52623 0.17119 0.13097
 C58 C 0.57266 0.16035 0.26882
 O59 O 0.65731 0.20977 0.27551
 O60 O 0.81644 0.35076 0.21445
 C61 C 0.83504 0.42587 0.29288
 O62 O 0.79304 0.46709 0.24905
 O63 O 0.64104 0.46268 0.18385
 C64 C 0.56336 0.40459 0.25151
 Cr65 Cr 0.54188 0.26720 -0.04415
 Cr66 Cr 0.72984 0.26628 0.03903
 Cr67 Cr 0.73017 0.46178 0.00894
 O68 O 0.66785 0.33329 0.00107
   
