data_POSCAR
  _audit_creation_date              2014-09-24
  _audit_creation_method            'ToBaCCo'
  _symmetry_space_group_name_H-M    'P1'
  _symmetry_Int_Tables_number       1
  _symmetry_cell_setting            triclinic
  loop_
  _symmetry_equiv_pos_as_xyz
 x,y,z
_cell_length_a 48.7605
_cell_length_b 50.1768
_cell_length_c 48.1452
_cell_angle_alpha 90.038800
_cell_angle_beta 90.542200
_cell_angle_gamma 89.043800
loop_
  _atom_site_label
  _atom_site_type_symbol
  _atom_site_fract_x
  _atom_site_fract_y
  _atom_site_fract_z
N1 N 0.16737 0.18688 0.24156
 N2 N 0.18872 0.17105 0.24573
 C3 C 0.18263 0.15311 0.26542
 C4 C 0.15583 0.15778 0.27406
 C5 C 0.14693 0.17953 0.25835
 H6 H 0.19662 0.13764 0.27254
 H7 H 0.12701 0.18925 0.25869
 Cu8 Cu 0.22210 0.17525 0.22445
 Cu9 Cu 0.16727 0.21541 0.21411
 Cu10 Cu 0.22696 0.22341 0.17650
 N11 N 0.25551 0.17969 0.20326
 N12 N 0.25734 0.19886 0.18486
 C13 C 0.28182 0.19698 0.17231
 C14 C 0.29628 0.17524 0.18321
 C15 C 0.27882 0.16490 0.20303
 H16 H 0.28795 0.20992 0.15566
 H17 H 0.28233 0.14745 0.21574
 N18 N 0.19396 0.24614 0.17113
 N19 N 0.17129 0.24306 0.18545
 C20 C 0.15228 0.26089 0.17648
 C21 C 0.16341 0.27593 0.15541
 C22 C 0.18991 0.26598 0.15262
 H23 H 0.13159 0.26233 0.18422
 H24 H 0.20507 0.27256 0.13804
 H25 H 0.19598 0.19819 0.18797
 H26 H 0.20904 0.22147 0.21508
 N27 N -0.18847 0.79370 0.25910
 N28 N -0.20690 0.81302 0.25732
 C29 C -0.20383 0.82954 0.27913
 C30 C -0.18221 0.82009 0.29550
 C31 C -0.17301 0.79724 0.28203
 H32 H -0.21601 0.84744 0.28239
 H33 H -0.15571 0.78460 0.28779
 Cu34 Cu -0.23158 0.81589 0.22549
 Cu35 Cu -0.18440 0.76675 0.23034
 Cu36 Cu -0.23854 0.76325 0.18326
 N37 N -0.25102 0.81885 0.19014
 N38 N -0.25419 0.79815 0.17380
 C39 C -0.26951 0.80545 0.15159
 C40 C -0.27627 0.83242 0.15396
 C41 C -0.26399 0.84013 0.17883
 H42 H -0.27524 0.79193 0.13513
 H43 H -0.26465 0.85958 0.18843
 N44 N -0.21140 0.73415 0.18862
 N45 N -0.19042 0.73584 0.20598
 C46 C -0.17484 0.71357 0.20395
 C47 C -0.18639 0.69701 0.18415
 C48 C -0.20962 0.71081 0.17489
 H49 H -0.15608 0.71004 0.21560
 H50 H -0.22391 0.70468 0.15892
 H51 H -0.20615 0.78396 0.19701
 H52 H -0.22578 0.76731 0.22500
 N53 N -0.16162 0.19266 -0.24736
 N54 N -0.17813 0.17254 -0.24393
 C55 C -0.16890 0.15163 -0.25890
 C56 C -0.14523 0.15899 -0.27246
 C57 C -0.14130 0.18525 -0.26460
 H58 H -0.17888 0.13259 -0.25999
 H59 H -0.12478 0.19801 -0.27069
 Cu60 Cu -0.21007 0.17521 -0.22015
 Cu61 Cu -0.16738 0.22666 -0.22871
 Cu62 Cu -0.22767 0.23453 -0.19204
 N63 N -0.24567 0.18142 -0.20327
 N64 N -0.25249 0.20451 -0.19227
 C65 C -0.27750 0.20276 -0.18087
 C66 C -0.28702 0.17703 -0.18482
 C67 C -0.26611 0.16418 -0.19934
 H68 H -0.28754 0.21893 -0.16996
 H69 H -0.26532 0.14364 -0.20603
 N70 N -0.19986 0.26251 -0.19426
 N71 N -0.17693 0.25950 -0.20832
 C72 C -0.16150 0.28123 -0.20459
 C73 C -0.17527 0.29882 -0.18722
 C74 C -0.19959 0.28623 -0.18117
 H75 H -0.14115 0.28349 -0.21286
 H76 H -0.21558 0.29344 -0.16758
 H77 H -0.19098 0.21361 -0.19606
 H78 H -0.20960 0.22288 -0.22894
 N79 N 0.18717 0.80029 -0.24326
 N80 N 0.20362 0.82067 -0.24125
 C81 C 0.20320 0.83410 -0.26545
 C82 C 0.18541 0.82157 -0.28370
 C83 C 0.17569 0.80009 -0.26880
 H84 H 0.21426 0.85223 -0.26906
 H85 H 0.16078 0.78576 -0.27565
 Cu86 Cu 0.22263 0.82920 -0.20678
 Cu87 Cu 0.18029 0.77690 -0.21193
 Cu88 Cu 0.21842 0.78752 -0.15209
 N89 N 0.24629 0.83248 -0.17427
 N90 N 0.24465 0.81626 -0.15300
 C91 C 0.26289 0.82351 -0.13337
 C92 C 0.27689 0.84562 -0.14277
 C93 C 0.26569 0.85059 -0.16897
 H94 H 0.26546 0.81344 -0.11368
 H95 H 0.27098 0.86627 -0.18320
 N96 N 0.19080 0.75949 -0.15520
 N97 N 0.17626 0.75543 -0.17800
 C98 C 0.15860 0.73561 -0.17337
 C99 C 0.16214 0.72671 -0.14630
 C100 C 0.18281 0.74235 -0.13548
 H101 H 0.14407 0.72836 -0.18855
 H102 H 0.19099 0.74176 -0.11456
 H103 H 0.19013 0.80305 -0.18031
 H104 H 0.21888 0.78232 -0.19480
 N105 N 0.18996 1.17193 0.75839
 N106 N 0.16771 1.18551 0.76504
 C107 C 0.14677 1.17760 0.74869
 C108 C 0.15641 1.15790 0.73087
 C109 C 0.18397 1.15494 0.73768
 H110 H 0.12598 1.18522 0.75006
 H111 H 0.19866 1.14131 0.72846
 Cu112 Cu 0.16829 1.21163 0.79495
 Cu113 Cu 0.22479 1.17630 0.77781
 Cu114 Cu 0.22654 1.22319 0.83071
 N115 N 0.16977 1.23839 0.82419
 N116 N 0.19257 1.24285 0.83807
 C117 C 0.18787 1.26207 0.85704
 C118 C 0.16060 1.27020 0.85500
 C119 C 0.14981 1.25467 0.83385
 H120 H 0.20325 1.26960 0.87117
 H121 H 0.12891 1.25498 0.82620
 N122 N 0.25873 1.20127 0.82010
 N123 N 0.25807 1.18353 0.79988
 C124 C 0.28254 1.17077 0.79876
 C125 C 0.29953 1.18082 0.81934
 C126 C 0.28367 1.20023 0.83236
 H127 H 0.28728 1.15469 0.78459
 H128 H 0.28940 1.21191 0.85029
 H129 H 0.20856 1.18923 0.81510
 H130 H 0.21770 1.21548 0.78947
 N131 N 0.78970 0.81646 0.73676
 N132 N 0.80516 0.79522 0.73231
 C133 C 0.81884 0.79846 0.70841
 C134 C 0.81167 0.82314 0.69729
 C135 C 0.79303 0.83392 0.71593
 H136 H 0.83371 0.78436 0.70032
 H137 H 0.78305 0.85329 0.71483
 Cu138 Cu 0.80698 0.76627 0.75918
 Cu139 Cu 0.76772 0.82075 0.77010
 Cu140 Cu 0.77032 0.76902 0.81787
 N141 N 0.80834 0.73726 0.78597
 N142 N 0.79362 0.73839 0.80868
 C143 C 0.79875 0.71643 0.82399
 C144 C 0.81785 0.70064 0.81026
 C145 C 0.82345 0.71453 0.78614
 H146 H 0.79003 0.71276 0.84417
 H147 H 0.83781 0.70874 0.77019
 N148 N 0.74803 0.80173 0.82330
 N149 N 0.74701 0.82133 0.80505
 C150 C 0.73050 0.84092 0.81474
 C151 C 0.72062 0.83339 0.84039
 C152 C 0.73221 0.80839 0.84512
 H153 H 0.72639 0.85952 0.80410
 H154 H 0.72934 0.79593 0.86312
 H155 H 0.79196 0.79678 0.79566
 H156 H 0.76267 0.78058 0.77742
 N157 N 0.19978 0.82501 1.23774
 N158 N 0.18655 0.80264 1.24085
 C159 C 0.17598 0.80194 1.26658
 C160 C 0.18291 0.82523 1.28037
 C161 C 0.19806 0.83935 1.26128
 H162 H 0.16351 0.78603 1.27433
 H163 H 0.20629 0.85909 1.26376
 Cu164 Cu 0.18198 0.77817 1.20982
 Cu165 Cu 0.21599 0.83495 1.20250
 Cu166 Cu 0.22587 0.78214 1.15687
 N167 N 0.17896 0.75497 1.17758
 N168 N 0.19630 0.75645 1.15694
 C169 C 0.18972 0.73829 1.13751
 C170 C 0.16677 0.72477 1.14628
 C171 C 0.16061 0.73594 1.17190
 H172 H 0.20063 0.73560 1.11824
 H173 H 0.14400 0.73075 1.18544
 N174 N 0.24564 0.81593 1.15403
 N175 N 0.24114 0.83628 1.17081
 C176 C 0.25707 0.85661 1.16323
 C177 C 0.27234 0.84883 1.14036
 C178 C 0.26444 0.82283 1.13515
 H179 H 0.25756 0.87556 1.17386
 H180 H 0.27169 0.80981 1.11881
 H181 H 0.19881 0.80807 1.17406
 H182 H 0.22665 0.79612 1.19807
 N183 N 0.82364 1.17625 1.24859
 N184 N 0.84218 1.19489 1.24728
 C185 C 0.86432 1.18724 1.26241
 C186 C 0.85945 1.16240 1.27378
 C187 C 0.83335 1.15612 1.26449
 H188 H 0.88263 1.19888 1.26492
 H189 H 0.82201 1.13840 1.26922
 Cu190 Cu 0.83553 1.22756 1.22633
 Cu191 Cu 0.78836 1.17939 1.22962
 Cu192 Cu 0.77465 1.23807 1.19398
 N193 N 0.82678 1.26083 1.20720
 N194 N 0.80299 1.26493 1.19477
 C195 C 0.80284 1.28907 1.18258
 C196 C 0.82793 1.30085 1.18764
 C197 C 0.84254 1.28228 1.20342
 H198 H 0.78586 1.29720 1.17055
 H199 H 0.86342 1.28388 1.21086
 N200 N 0.74857 1.20853 1.19553
 N201 N 0.75382 1.18619 1.20913
 C202 C 0.73289 1.16942 1.20509
 C203 C 0.71346 1.18169 1.18801
 C204 C 0.72415 1.20653 1.18244
 H205 H 0.73238 1.14932 1.21305
 H206 H 0.71515 1.22180 1.16926
 H207 H 0.80042 1.20524 1.19879
 H208 H 0.78647 1.22060 1.23122
 O209 O 0.53224 0.98081 0.96561
 O210 O 0.48112 0.98463 1.04165
 O211 O 0.56562 1.00737 1.02255
 O212 O 0.45290 1.01260 0.96829
 O213 O 0.53351 0.98084 1.03540
 O214 O 0.48329 0.98259 0.96189
 O215 O 0.45073 1.00946 1.01918
 O216 O 0.56456 1.00805 0.97246
 C217 C 0.55716 0.98488 0.96702
 C218 C 0.45685 0.98943 1.03408
 C219 C 0.55826 0.98477 1.03091
 C220 C 0.45872 0.98884 0.96314
 O221 O 0.48563 1.03287 0.93977
 O222 O 0.53718 1.03022 1.05539
 O223 O 0.54163 1.05802 0.97353
 O224 O 0.46616 1.05911 1.02435
 O225 O 0.48634 1.03448 1.05642
 O226 O 0.53503 1.02980 0.94127
 O227 O 0.47450 1.06094 0.97204
 O228 O 0.54561 1.05822 1.02337
 Co229 Co 0.50906 1.00774 0.95590
 Co230 Co 0.50973 1.00863 1.04241
 Co231 Co 0.55059 1.03187 0.99788
 Co232 Co 0.46571 1.03427 0.99591
 O233 O 0.50859 1.02061 0.99831
 C234 C 0.47764 1.05593 0.94692
 C235 C 0.54484 1.05293 1.04844
 C236 C 0.54165 1.05282 0.94841
 C237 C 0.47187 1.05454 1.04933
 O238 O 0.02547 0.47629 0.03608
 O239 O 0.02329 0.52512 -0.04116
 O240 O -0.00346 0.44424 -0.02046
 O241 O -0.00448 0.55444 0.03139
 O242 O 0.02517 0.47409 -0.03392
 O243 O 0.02538 0.52400 0.03857
 O244 O -0.00115 0.55579 -0.01957
 O245 O -0.00390 0.44598 0.02953
 C246 C 0.02025 0.45226 0.03501
 C247 C 0.01913 0.54897 -0.03431
 C248 C 0.01999 0.45027 -0.02911
 C249 C 0.01975 0.54805 0.03697
 O250 O -0.02647 0.52376 0.06038
 O251 O -0.02583 0.47239 -0.05408
 O252 O -0.05441 0.47010 0.02772
 O253 O -0.05280 0.54258 -0.02476
 O254 O -0.02827 0.52178 -0.05626
 O255 O -0.02501 0.47572 0.06004
 O256 O -0.05493 0.53513 0.02757
 O257 O -0.05496 0.46549 -0.02214
 Co258 Co -0.00141 0.49995 0.04499
 Co259 Co -0.00250 0.49828 -0.04153
 Co260 Co -0.02796 0.46008 0.00371
 Co261 Co -0.02718 0.54247 0.00383
 O262 O -0.01470 0.50035 0.00246
 C263 C -0.05002 0.53190 0.05278
 C264 C -0.04944 0.46573 -0.04717
 C265 C -0.04893 0.46998 0.05286
 C266 C -0.04848 0.53647 -0.04956
 O267 O 1.04441 0.01777 0.47503
 O268 O 0.96840 0.01815 0.52585
 O269 O 0.98818 -0.00817 0.44118
 O270 O 1.03995 -0.01075 0.55612
 O271 O 0.97561 0.01995 0.47298
 O272 O 1.04749 0.01778 0.52471
 O273 O 0.98960 -0.00621 0.55754
 O274 O 1.03751 -0.01054 0.44295
 C275 C 1.04312 0.01275 0.44990
 C276 C 0.97511 0.01391 0.55068
 C277 C 0.98012 0.01493 0.44805
 C278 C 1.04565 0.01257 0.54971
 O279 O 1.06844 -0.03320 0.52385
 O280 O 0.95503 -0.02877 0.46981
 O281 O 1.03532 -0.05950 0.46730
 O282 O 0.98419 -0.05620 0.54286
 O283 O 0.95320 -0.03154 0.52114
 O284 O 1.06763 -0.03214 0.47371
 O285 O 1.03602 -0.05982 0.53542
 O286 O 0.98612 -0.05826 0.46266
 Co287 Co 1.05324 -0.00856 0.49928
 Co288 Co 0.96780 -0.00678 0.49737
 Co289 Co 1.01183 -0.03295 0.45730
 Co290 Co 1.01259 -0.03215 0.54327
 O291 O 1.01110 -0.02003 0.49950
 C292 C 1.06094 -0.05567 0.53252
 C293 C 0.96147 -0.05203 0.46282
 C294 C 1.06019 -0.05506 0.46707
 C295 C 0.95972 -0.05134 0.53622
 C296 C 1.11087 0.11407 0.33305
 C297 C 1.09862 0.13586 0.31947
 C298 C 1.11346 0.15045 0.30015
 C299 C 1.14090 0.14339 0.29391
 C300 C 1.15296 0.12139 0.30798
 C301 C 1.13804 0.10690 0.32727
 C302 C 1.09572 0.09880 0.35282
 C303 C 1.08382 0.08536 0.36942
 C304 C 1.07074 0.06852 0.38933
 C305 C 1.07077 0.07545 0.41750
 C306 C 1.06081 0.05770 0.43723
 C307 C 1.05090 0.03272 0.42897
 C308 C 1.04998 0.02637 0.40053
 C309 C 1.05989 0.04416 0.38085
 H310 H 1.07758 0.14161 0.32383
 H311 H 1.10314 0.16712 0.29013
 H312 H 1.17388 0.11505 0.30422
 H313 H 1.14774 0.09004 0.33771
 H314 H 1.07920 0.09423 0.42429
 H315 H 1.06169 0.06316 0.45898
 H316 H 1.04231 0.00735 0.39354
 H317 H 1.05982 0.03857 0.35911
 C318 C 0.85638 -0.14197 0.36542
 C319 C 0.86277 -0.16854 0.35905
 C320 C 0.84968 -0.18111 0.33678
 C321 C 0.83008 -0.16722 0.32045
 C322 C 0.82323 -0.14073 0.32756
 C323 C 0.83636 -0.12820 0.34984
 C324 C 0.87192 -0.12825 0.38640
 C325 C 0.88584 -0.11644 0.40299
 C326 C 0.90356 -0.10192 0.42142
 C327 C 0.93042 -0.11116 0.42619
 C328 C 0.94897 -0.09545 0.44090
 C329 C 0.94089 -0.07021 0.45093
 C330 C 0.91348 -0.06163 0.44720
 C331 C 0.89496 -0.07737 0.43242
 H332 H 0.87831 -0.17937 0.37090
 H333 H 0.85527 -0.20159 0.33221
 H334 H 0.80836 -0.12933 0.31549
 H335 H 0.83140 -0.10755 0.35446
 H336 H 0.93733 -0.13008 0.41768
 H337 H 0.96991 -0.10263 0.44349
 H338 H 0.90665 -0.04231 0.45472
 H339 H 0.87424 -0.06998 0.42873
 C340 C 0.90356 0.11131 0.67177
 C341 C 0.90789 0.13872 0.67391
 C342 C 0.89223 0.15421 0.69223
 C343 C 0.87193 0.14248 0.70862
 C344 C 0.86799 0.11482 0.70649
 C345 C 0.88369 0.09939 0.68818
 C346 C 0.91859 0.09556 0.65188
 C347 C 0.93042 0.08226 0.63476
 C348 C 0.94344 0.06623 0.61371
 C349 C 0.96125 0.04517 0.62107
 C350 C 0.97219 0.02847 0.60052
 C351 C 0.96533 0.03262 0.57237
 C352 C 0.94798 0.05429 0.56519
 C353 C 0.93710 0.07091 0.58573
 H354 H 0.92311 0.14819 0.66118
 H355 H 0.89579 0.17541 0.69312
 H356 H 0.85281 0.10498 0.71889
 H357 H 0.88012 0.07818 0.68664
 H358 H 0.96627 0.04135 0.64268
 H359 H 0.98556 0.01204 0.60672
 H360 H 0.94231 0.05809 0.54374
 H361 H 0.92330 0.08712 0.57982
 C362 C 1.15652 -0.14817 0.63752
 C363 C 1.17969 -0.13727 0.65022
 C364 C 1.18969 -0.14770 0.67534
 C365 C 1.17652 -0.16911 0.68827
 C366 C 1.15384 -0.18054 0.67474
 C367 C 1.14390 -0.17008 0.64961
 C368 C 1.14396 -0.13522 0.61383
 C369 C 1.13217 -0.12364 0.59517
 C370 C 1.11644 -0.10901 0.57463
 C371 C 1.12600 -0.08485 0.56424
 C372 C 1.10850 -0.06817 0.54858
 C373 C 1.08115 -0.07539 0.54350
 C374 C 1.07236 -0.10050 0.55246
 C375 C 1.08988 -0.11715 0.56797
 H376 H 1.18955 -0.12020 0.64113
 H377 H 1.20737 -0.13854 0.68483
 H378 H 1.14309 -0.19698 0.68391
 H379 H 1.12580 -0.17855 0.64009
 H380 H 1.14647 -0.07827 0.56941
 H381 H 1.11586 -0.04897 0.54196
 H382 H 1.05147 -0.10670 0.54876
 H383 H 1.08221 -0.13574 0.57600
 C384 C 0.37061 1.14160 1.15338
 C385 C 0.36073 1.16589 1.14285
 C386 C 0.33673 1.17748 1.15334
 C387 C 0.32189 1.16481 1.17448
 C388 C 0.33282 1.14084 1.18574
 C389 C 0.35684 1.12928 1.17509
 C390 C 0.39303 1.12812 1.13977
 C391 C 0.41062 1.11674 1.12667
 C392 C 0.42991 1.10314 1.10896
 C393 C 0.43298 1.11213 1.08171
 C394 C 0.44798 1.09695 1.06270
 C395 C 0.46017 1.07250 1.07069
 C396 C 0.45831 1.06429 1.09855
 C397 C 0.44307 1.07948 1.11756
 H398 H 0.37117 1.17557 1.12595
 H399 H 0.32970 1.19606 1.14422
 H400 H 0.32257 1.13038 1.20216
 H401 H 0.36425 1.11036 1.18330
 H402 H 0.42279 1.13033 1.07479
 H403 H 0.44911 1.10387 1.04145
 H404 H 0.46738 1.04550 1.10526
 H405 H 0.44066 1.07225 1.13857
 C406 C 0.33802 0.88951 0.89941
 C407 C 0.32942 0.89700 0.87274
 C408 C 0.30937 0.88249 0.85876
 C409 C 0.29743 0.86008 0.87124
 C410 C 0.30647 0.85270 0.89818
 C411 C 0.32656 0.86731 0.91209
 C412 C 0.35855 0.90480 0.91359
 C413 C 0.37578 0.91820 0.92469
 C414 C 0.39637 0.93488 0.93686
 C415 C 0.42395 0.92667 0.93685
 C416 C 0.44426 0.94394 0.94621
 C417 C 0.43720 0.96971 0.95551
 C418 C 0.40937 0.97747 0.95627
 C419 C 0.38910 0.96015 0.94696
 H420 H 0.33819 0.91416 0.86272
 H421 H 0.30338 0.88912 0.83821
 H422 H 0.29813 0.83572 0.90878
 H423 H 0.33311 0.86132 0.93276
 H424 H 0.42980 0.90717 0.92899
 H425 H 0.46552 0.93739 0.94546
 H426 H 0.40331 0.99713 0.96346
 H427 H 0.36782 0.96672 0.94701
 C428 C 0.67320 0.87975 1.10073
 C429 C 0.67810 0.85288 1.09450
 C430 C 0.69512 0.83727 1.11179
 C431 C 0.70743 0.84828 1.13578
 C432 C 0.70262 0.87558 1.14139
 C433 C 0.68566 0.89106 1.12405
 C434 C 0.65441 0.89563 1.08415
 C435 C 0.63823 0.90954 1.07149
 C436 C 0.61840 0.92684 1.05798
 C437 C 0.62673 0.95048 1.04539
 C438 C 0.60715 0.96895 1.03555
 C439 C 0.57899 0.96403 1.03833
 C440 C 0.57086 0.93969 1.04988
 C441 C 0.59045 0.92127 1.05970
 H442 H 0.66847 0.84389 1.07650
 H443 H 0.69814 0.81653 1.10637
 H444 H 0.71161 0.88524 1.15926
 H445 H 0.68198 0.91186 1.12910
 H446 H 0.64832 0.95504 1.04401
 H447 H 0.61406 0.98743 1.02658
 H448 H 0.54934 0.93522 1.05217
 H449 H 0.58377 0.90309 1.06948
 C450 C 0.64159 1.14269 0.84844
 C451 C 0.64684 1.16966 0.85288
 C452 C 0.66999 1.18126 0.84130
 C453 C 0.68851 1.16595 0.82519
 C454 C 0.68234 1.13896 0.82016
 C455 C 0.65917 1.12749 0.83175
 C456 C 0.61958 1.12999 0.86279
 C457 C 0.60223 1.11866 0.87575
 C458 C 0.58305 1.10428 0.89236
 C459 C 0.57765 1.11273 0.91950
 C460 C 0.56271 1.09663 0.93734
 C461 C 0.55312 1.07178 0.92828
 C462 C 0.55726 1.06415 0.90049
 C463 C 0.57226 1.08028 0.88268
 H464 H 0.63342 1.18161 0.86588
 H465 H 0.67347 1.20206 0.84567
 H466 H 0.69552 1.12628 0.80776
 H467 H 0.65535 1.10654 0.82825
 H468 H 0.58601 1.13120 0.92725
 H469 H 0.55978 1.10309 0.95859
 H470 H 0.55006 1.04516 0.89291
 H471 H 0.57643 1.07348 0.86175
 C472 C 0.12242 0.33706 0.10729
 C473 C 0.11120 0.32838 0.13226
 C474 C 0.12464 0.30869 0.14798
 C475 C 0.14957 0.29731 0.13895
 C476 C 0.16086 0.30638 0.11392
 C477 C 0.14733 0.32611 0.09818
 C478 C 0.10791 0.35691 0.09107
 C479 C 0.09473 0.37341 0.07829
 C480 C 0.07772 0.39293 0.06423
 C481 C 0.05264 0.38534 0.05259
 C482 C 0.03436 0.40462 0.04208
 C483 C 0.04094 0.43179 0.04312
 C484 C 0.06671 0.43916 0.05371
 C485 C 0.08495 0.41981 0.06431
 H486 H 0.09195 0.33679 0.13955
 H487 H 0.11544 0.30251 0.16724
 H488 H 0.17990 0.29801 0.10619
 H489 H 0.15619 0.33267 0.07884
 H490 H 0.04681 0.36459 0.05249
 H491 H 0.01474 0.39833 0.03391
 H492 H 0.07236 0.45992 0.05472
 H493 H 0.10428 0.42591 0.07337
 C494 C -0.14225 0.36943 -0.14997
 C495 C -0.12989 0.35824 -0.17345
 C496 C -0.14111 0.33578 -0.18611
 C497 C -0.16481 0.32407 -0.17535
 C498 C -0.17758 0.33604 -0.15228
 C499 C -0.16631 0.35850 -0.13965
 C500 C -0.12894 0.39049 -0.13502
 C501 C -0.11710 0.40709 -0.12158
 C502 C -0.10217 0.42544 -0.10443
 C503 C -0.07738 0.43582 -0.11361
 C504 C -0.06080 0.45029 -0.09538
 C505 C -0.06877 0.45434 -0.06766
 C506 C -0.09439 0.44502 -0.05907
 C507 C -0.11093 0.43060 -0.07733
 H508 H -0.11118 0.36647 -0.18154
 H509 H -0.13088 0.32740 -0.20401
 H510 H -0.19574 0.32763 -0.14330
 H511 H -0.17593 0.36687 -0.12134
 H512 H -0.07034 0.43181 -0.13450
 H513 H -0.04122 0.45727 -0.10261
 H514 H -0.10114 0.44788 -0.03789
 H515 H -0.13002 0.42256 -0.06996
 C516 C 0.11661 0.66655 -0.10394
 C517 C 0.14053 0.67658 -0.09190
 C518 C 0.15541 0.69606 -0.10569
 C519 C 0.14656 0.70578 -0.13177
 C520 C 0.12249 0.69545 -0.14369
 C521 C 0.10766 0.67600 -0.12986
 C522 C 0.10124 0.64649 -0.08986
 C523 C 0.08806 0.62958 -0.07857
 C524 C 0.07197 0.60923 -0.06586
 C525 C 0.07634 0.58250 -0.07309
 C526 C 0.05957 0.56280 -0.06229
 C527 C 0.03808 0.56961 -0.04416
 C528 C 0.03427 0.59648 -0.03647
 C529 C 0.05112 0.61615 -0.04729
 H530 H 0.14770 0.66934 -0.07187
 H531 H 0.17391 0.70330 -0.09592
 H532 H 0.11486 0.70250 -0.16357
 H533 H 0.08915 0.66837 -0.13937
 H534 H 0.09240 0.57693 -0.08748
 H535 H 0.06308 0.54232 -0.06860
 H536 H 0.01800 0.60238 -0.02249
 H537 H 0.04755 0.63680 -0.04157
 C538 C -0.15027 0.62500 0.15130
 C539 C -0.17281 0.63704 0.13784
 C540 C -0.18515 0.65998 0.14894
 C541 C -0.17498 0.67132 0.17365
 C542 C -0.15288 0.65849 0.18751
 C543 C -0.14059 0.63555 0.17636
 C544 C -0.13548 0.60357 0.13796
 C545 C -0.12245 0.58681 0.12562
 C546 C -0.10625 0.56852 0.10931
 C547 C -0.11468 0.56258 0.08219
 C548 C -0.09692 0.54906 0.06428
 C549 C -0.07040 0.54137 0.07324
 C550 C -0.06276 0.54579 0.10108
 C551 C -0.08056 0.55947 0.11898
 H552 H -0.18033 0.62917 0.11828
 H553 H -0.20202 0.66923 0.13760
 H554 H -0.14468 0.66635 0.20673
 H555 H -0.12306 0.62648 0.18688
 H556 H -0.13445 0.56958 0.07445
 H557 H -0.10347 0.54577 0.04301
 H558 H -0.04249 0.54008 0.10857
 H559 H -0.07377 0.56412 0.13989
 C560 C 1.11085 0.11333 0.67011
 C561 C 1.09897 0.13594 0.68241
 C562 C 1.11374 0.15053 0.70215
 C563 C 1.14064 0.14266 0.70981
 C564 C 1.15232 0.11988 0.69723
 C565 C 1.13753 0.10538 0.67757
 C566 C 1.09598 0.09812 0.64978
 C567 C 1.08449 0.08470 0.63261
 C568 C 1.07203 0.06790 0.61198
 C569 C 1.07299 0.07488 0.58387
 C570 C 1.06358 0.05722 0.56356
 C571 C 1.05324 0.03229 0.57115
 C572 C 1.05147 0.02584 0.59950
 C573 C 1.06084 0.04354 0.61977
 H574 H 1.07833 0.14231 0.67675
 H575 H 1.10409 0.16801 0.71119
 H576 H 1.17279 0.11299 0.70266
 H577 H 1.14693 0.08787 0.66821
 H578 H 1.08170 0.09364 0.57761
 H579 H 1.06513 0.06277 0.54190
 H580 H 1.04345 0.00686 0.60598
 H581 H 1.06006 0.03790 0.64147
 C582 C 0.84903 -0.13829 0.62781
 C583 C 0.83150 -0.12384 0.64527
 C584 C 0.81865 -0.13652 0.66735
 C585 C 0.82333 -0.16388 0.67242
 C586 C 0.84027 -0.17840 0.65412
 C587 C 0.85309 -0.16566 0.63205
 C588 C 0.86494 -0.12462 0.60742
 C589 C 0.87957 -0.11306 0.59156
 C590 C 0.89865 -0.09926 0.57435
 C591 C 0.89070 -0.07611 0.55993
 C592 C 0.91038 -0.06101 0.54626
 C593 C 0.93823 -0.06883 0.54719
 C594 C 0.94574 -0.09271 0.56077
 C595 C 0.92609 -0.10777 0.57423
 H596 H 0.82840 -0.10259 0.64234
 H597 H 0.80584 -0.12460 0.68090
 H598 H 0.84414 -0.19949 0.65706
 H599 H 0.86677 -0.17702 0.61876
 H600 H 0.86951 -0.06926 0.56003
 H601 H 0.90398 -0.04271 0.53600
 H602 H 0.96696 -0.09939 0.56174
 H603 H 0.93248 -0.12560 0.58539
 C604 C 1.15308 -0.14537 0.35858
 C605 C 1.14220 -0.16853 0.34700
 C606 C 1.15247 -0.17864 0.32202
 C607 C 1.17369 -0.16557 0.30815
 C608 C 1.18510 -0.14279 0.32049
 C609 C 1.17480 -0.13275 0.34547
 C610 C 1.14028 -0.13313 0.38232
 C611 C 1.12859 -0.12202 0.40113
 C612 C 1.11339 -0.10770 0.42201
 C613 C 1.08687 -0.11565 0.42863
 C614 C 1.07007 -0.09927 0.44496
 C615 C 1.07956 -0.07463 0.45474
 C616 C 1.10684 -0.06760 0.44950
 C617 C 1.12360 -0.08400 0.43310
 H618 H 1.12522 -0.17834 0.35684
 H619 H 1.14308 -0.19613 0.31322
 H620 H 1.20165 -0.13237 0.31068
 H621 H 1.18329 -0.11471 0.35416
 H622 H 1.07870 -0.13387 0.42004
 H623 H 1.04919 -0.10527 0.44869
 H624 H 1.11473 -0.04876 0.45677
 H625 H 1.14405 -0.07758 0.42799
 C626 C 0.91148 0.11591 0.32853
 C627 C 0.91793 0.14237 0.32265
 C628 C 0.90123 0.15745 0.30459
 C629 C 0.87777 0.14627 0.29225
 C630 C 0.87174 0.11952 0.29808
 C631 C 0.88845 0.10451 0.31608
 C632 C 0.92765 0.10060 0.34815
 C633 C 0.94013 0.08724 0.36497
 C634 C 0.95353 0.07066 0.38554
 C635 C 0.95191 0.07755 0.41365
 C636 C 0.96164 0.05987 0.43402
 C637 C 0.97299 0.03495 0.42650
 C638 C 0.97568 0.02871 0.39815
 C639 C 0.96594 0.04645 0.37780
 H640 H 0.93565 0.15143 0.33229
 H641 H 0.90650 0.17796 0.30075
 H642 H 0.85411 0.11007 0.28880
 H643 H 0.88323 0.08405 0.32052
 H644 H 0.94226 0.09620 0.41987
 H645 H 0.95940 0.06532 0.45565
 H646 H 0.98447 0.00976 0.39171
 H647 H 0.96724 0.04089 0.35610
 C648 C 0.11840 0.33024 -0.09696
 C649 C 0.14480 0.32170 -0.08910
 C650 C 0.15858 0.30217 -0.10467
 C651 C 0.14609 0.29090 -0.12833
 C652 C 0.11950 0.29968 -0.13596
 C653 C 0.10581 0.31917 -0.12038
 C654 C 0.10414 0.35062 -0.08144
 C655 C 0.09142 0.36779 -0.06935
 C656 C 0.07528 0.38839 -0.05618
 C657 C 0.08234 0.41514 -0.05923
 C658 C 0.06488 0.43536 -0.04940
 C659 C 0.04002 0.42903 -0.03655
 C660 C 0.03365 0.40205 -0.03259
 C661 C 0.05117 0.38189 -0.04238
 H662 H 0.15476 0.33016 -0.07100
 H663 H 0.17891 0.29588 -0.09801
 H664 H 0.10922 0.29176 -0.15408
 H665 H 0.08540 0.32570 -0.12672
 H666 H 0.10090 0.42041 -0.06998
 H667 H 0.07039 0.45592 -0.05272
 H668 H 0.01473 0.39653 -0.02268
 H669 H 0.04545 0.36125 -0.03998
 C670 C -0.14085 0.37310 0.15296
 C671 C -0.12672 0.36025 0.17467
 C672 C -0.13726 0.33720 0.18651
 C673 C -0.16208 0.32657 0.17669
 C674 C -0.17657 0.34017 0.15543
 C675 C -0.16596 0.36322 0.14361
 C676 C -0.12830 0.39479 0.13857
 C677 C -0.11690 0.41184 0.12561
 C678 C -0.10224 0.43060 0.10902
 C679 C -0.07747 0.44097 0.11878
 C680 C -0.06079 0.45536 0.10092
 C681 C -0.06863 0.45932 0.07302
 C682 C -0.09430 0.45020 0.06388
 C683 C -0.11095 0.43585 0.08177
 H684 H -0.10718 0.36764 0.18196
 H685 H -0.12567 0.32754 0.20302
 H686 H -0.19565 0.33263 0.14723
 H687 H -0.17695 0.37288 0.12663
 H688 H -0.07046 0.43688 0.13980
 H689 H -0.04116 0.46219 0.10856
 H690 H -0.10091 0.45297 0.04252
 H691 H -0.12999 0.42779 0.07394
 C692 C -0.14199 0.63057 -0.15669
 C693 C -0.13034 0.64418 -0.17890
 C694 C -0.14382 0.66649 -0.19036
 C695 C -0.16900 0.67560 -0.17952
 C696 C -0.18093 0.66121 -0.15781
 C697 C -0.16749 0.63890 -0.14647
 C698 C -0.12680 0.60983 -0.14242
 C699 C -0.11419 0.59359 -0.12874
 C700 C -0.09940 0.57584 -0.11031
 C701 C -0.07507 0.56302 -0.11859
 C702 C -0.05902 0.54884 -0.09913
 C703 C -0.06705 0.54770 -0.07117
 C704 C -0.09214 0.55965 -0.06343
 C705 C -0.10816 0.57358 -0.08286
 H706 H -0.11047 0.63807 -0.18679
 H707 H -0.13396 0.67714 -0.20694
 H708 H -0.20044 0.66739 -0.14920
 H709 H -0.17663 0.62860 -0.12917
 H710 H -0.06802 0.56479 -0.13977
 H711 H -0.03977 0.53988 -0.10566
 H712 H -0.09898 0.55899 -0.04210
 H713 H -0.12689 0.58349 -0.07620
 C714 C 0.12245 0.66386 0.10270
 C715 C 0.11177 0.67519 0.12693
 C716 C 0.12620 0.69486 0.14113
 C717 C 0.15163 0.70358 0.13130
 C718 C 0.16225 0.69198 0.10691
 C719 C 0.14773 0.67226 0.09273
 C720 C 0.10718 0.64376 0.08821
 C721 C 0.09359 0.62706 0.07681
 C722 C 0.07639 0.60730 0.06420
 C723 C 0.05110 0.61496 0.05248
 C724 C 0.03301 0.59566 0.04282
 C725 C 0.03999 0.56841 0.04480
 C726 C 0.06585 0.56092 0.05569
 C727 C 0.08391 0.58027 0.06542
 H728 H 0.09218 0.66887 0.13481
 H729 H 0.11718 0.70334 0.15963
 H730 H 0.18177 0.69800 0.09874
 H731 H 0.15621 0.66361 0.07399
 H732 H 0.04506 0.63582 0.05148
 H733 H 0.01330 0.60205 0.03440
 H734 H 0.07179 0.54009 0.05744
 H735 H 0.10340 0.57412 0.07454
 C736 C 0.37735 1.14908 0.84768
 C737 C 0.36736 1.17330 0.85823
 C738 C 0.34256 1.18416 0.84830
 C739 C 0.32726 1.17082 0.82777
 C740 C 0.33810 1.14701 0.81652
 C741 C 0.36291 1.13620 0.82648
 C742 C 0.40056 1.13597 0.86075
 C743 C 0.41871 1.12422 0.87303
 C744 C 0.43851 1.10937 0.88938
 C745 C 0.44487 1.11801 0.91627
 C746 C 0.45944 1.10125 0.93448
 C747 C 0.46773 1.07553 0.92604
 C748 C 0.46303 1.06774 0.89835
 C749 C 0.44832 1.08453 0.88017
 H750 H 0.37829 1.18336 0.87478
 H751 H 0.33517 1.20267 0.85725
 H752 H 0.32708 1.13608 0.80074
 H753 H 0.37032 1.11731 0.81832
 H754 H 0.43727 1.13712 0.92368
 H755 H 0.46289 1.10788 0.95562
 H756 H 0.46917 1.04806 0.89126
 H757 H 0.44335 1.07757 0.85945
 C758 C 0.33260 0.89464 1.09734
 C759 C 0.31884 0.90552 1.12013
 C760 C 0.29914 0.89075 1.13395
 C761 C 0.29289 0.86473 1.12521
 C762 C 0.30670 0.85407 1.10204
 C763 C 0.32642 0.86893 1.08824
 C764 C 0.35358 0.90969 1.08395
 C765 C 0.37139 0.92261 1.07353
 C766 C 0.39294 0.93837 1.06211
 C767 C 0.38669 0.95938 1.04389
 C768 C 0.40753 0.97577 1.03434
 C769 C 0.43490 0.97136 1.04299
 C770 C 0.44100 0.94982 1.06084
 C771 C 0.42014 0.93350 1.07036
 H772 H 0.32350 0.92540 1.12740
 H773 H 0.28908 0.89979 1.15160
 H774 H 0.30250 0.83422 1.09456
 H775 H 0.33699 0.86028 1.07062
 H776 H 0.36568 0.96336 1.03740
 H777 H 0.40216 0.99211 1.02053
 H778 H 0.46183 0.94583 1.06786
 H779 H 0.42519 0.91733 1.08451
 C780 C 0.64286 1.14505 1.15096
 C781 C 0.65184 1.16960 1.14110
 C782 C 0.67430 1.18192 1.15362
 C783 C 0.68824 1.16976 1.17614
 C784 C 0.67850 1.14543 1.18640
 C785 C 0.65603 1.13316 1.17384
 C786 C 0.62171 1.13108 1.13618
 C787 C 0.60498 1.11897 1.12284
 C788 C 0.58641 1.10408 1.10565
 C789 C 0.58071 1.11272 1.07856
 C790 C 0.56594 1.09660 1.06032
 C791 C 0.55674 1.07153 1.06894
 C792 C 0.56136 1.06355 1.09662
 C793 C 0.57623 1.07972 1.11484
 H794 H 0.64193 1.17889 1.12326
 H795 H 0.68115 1.20054 1.14503
 H796 H 0.68842 1.13559 1.20386
 H797 H 0.64934 1.11409 1.18156
 H798 H 0.58859 1.13147 1.07119
 H799 H 0.56262 1.10335 1.03917
 H800 H 0.55451 1.04436 1.10385
 H801 H 0.58065 1.07278 1.13574
 C802 C 0.66718 0.87906 0.89354
 C803 C 0.68099 0.85647 0.90394
 C804 C 0.69831 0.84149 0.88668
 C805 C 0.70206 0.84897 0.85879
 C806 C 0.68796 0.87168 0.84861
 C807 C 0.67068 0.88657 0.86586
 C808 C 0.64927 0.89474 0.91091
 C809 C 0.63394 0.90866 0.92428
 C810 C 0.61521 0.92618 0.93864
 C811 C 0.58730 0.92022 0.93952
 C812 C 0.56845 0.93890 0.94991
 C813 C 0.57731 0.96388 0.95936
 C814 C 0.60554 0.96922 0.95961
 C815 C 0.62436 0.95049 0.94924
 H816 H 0.67841 0.85048 0.92536
 H817 H 0.70893 0.82427 0.89534
 H818 H 0.69001 0.87796 0.82726
 H819 H 0.66001 0.90397 0.85755
 H820 H 0.57998 0.90151 0.93126
 H821 H 0.54685 0.93419 0.94957
 H822 H 0.61297 0.98821 0.96694
 H823 H 0.64590 0.95536 0.94856
   
