data_POSCAR
  _audit_creation_date              2014-09-24
  _audit_creation_method            'ToBaCCo'
  _symmetry_space_group_name_H-M    'P1'
  _symmetry_Int_Tables_number       1
  _symmetry_cell_setting            triclinic
  loop_
  _symmetry_equiv_pos_as_xyz
 x,y,z
_cell_length_a 11.8086
_cell_length_b 28.1746
_cell_length_c 13.7562
_cell_angle_alpha 90.136200
_cell_angle_beta 89.021800
_cell_angle_gamma 91.656700
loop_
  _atom_site_label
  _atom_site_type_symbol
  _atom_site_fract_x
  _atom_site_fract_y
  _atom_site_fract_z
N1 N 0.18440 0.04806 0.10279
 N2 N 0.24644 0.08787 0.10151
 N3 N 0.09147 -0.04952 0.17574
 N4 N 0.08996 -0.08730 0.23220
 N5 N 0.16846 -0.05320 0.10626
 N6 N 0.22048 -0.09408 0.11359
 N7 N 0.10383 0.05052 0.16955
 N8 N 0.10993 0.09176 0.21548
 C9 C 0.20016 0.11460 0.17299
 C10 C 0.17115 -0.11479 0.19346
 N11 N -0.22736 -0.04904 0.10661
 N12 N -0.28660 -0.08937 0.10938
 N13 N -0.14078 0.05248 0.16871
 N14 N -0.14052 0.09416 0.21305
 N15 N -0.22210 0.04955 0.10504
 N16 N -0.28280 0.09103 0.10658
 N17 N -0.15100 -0.04777 0.17494
 N18 N -0.15610 -0.08755 0.22529
 Mn19 Mn -0.02410 0.00170 0.17349
 C20 C -0.24200 -0.11285 0.18444
 C21 C -0.22834 0.11742 0.17438
 N22 N 0.17197 -0.05414 -0.10507
 N23 N 0.22464 -0.09792 -0.11101
 N24 N 0.10788 0.04878 -0.17162
 N25 N 0.11494 0.08972 -0.21846
 N26 N 0.18749 0.04674 -0.10621
 N27 N 0.25055 0.08627 -0.10761
 N28 N 0.09706 -0.05150 -0.17412
 N29 N 0.09624 -0.09026 -0.22814
 Mn30 Mn 0.17979 -0.00349 -0.00049
 C31 C 0.17448 -0.11860 -0.18937
 C32 C 0.20535 0.11262 -0.17863
 N33 N -0.21741 0.04917 -0.10305
 N34 N -0.27336 0.08888 -0.10373
 N35 N -0.14606 -0.05029 -0.17148
 N36 N -0.14636 -0.09174 -0.21655
 N37 N -0.22507 -0.05008 -0.10316
 N38 N -0.28284 -0.09382 -0.10101
 N39 N -0.13700 0.05002 -0.17019
 N40 N -0.13664 0.09053 -0.21835
 Mn41 Mn -0.22378 -0.00030 0.00121
 Mn42 Mn -0.01947 -0.00051 -0.17316
 Cl43 Cl -0.02159 -0.00068 0.00025
 C44 C -0.22316 0.11415 -0.17651
 C45 C -0.23049 -0.11813 -0.17288
 N46 N 0.72658 0.54908 0.60014
 N47 N 0.78497 0.58972 0.60008
 N48 N 0.63905 0.44830 0.66646
 N49 N 0.63921 0.40749 0.71347
 N50 N 0.71829 0.44950 0.59834
 N51 N 0.77382 0.40965 0.59702
 N52 N 0.65008 0.54829 0.67060
 N53 N 0.65479 0.58846 0.71995
 C54 C 0.74013 0.61372 0.67600
 C55 C 0.72469 0.38400 0.66974
 N56 N 0.31318 0.45308 0.60849
 N57 N 0.24912 0.41380 0.61042
 N58 N 0.40771 0.55058 0.67713
 N59 N 0.41035 0.58888 0.73238
 N60 N 0.33100 0.55409 0.60966
 N61 N 0.28017 0.59529 0.61730
 N62 N 0.39431 0.45041 0.67233
 N63 N 0.38728 0.40936 0.71871
 Mn64 Mn 0.52270 0.49913 0.67285
 C65 C 0.29537 0.38700 0.68022
 C66 C 0.33008 0.61643 0.69514
 N67 N 0.71665 0.44980 0.39109
 N68 N 0.77581 0.41096 0.38648
 N69 N 0.64667 0.54831 0.32380
 N70 N 0.65088 0.58845 0.27470
 N71 N 0.72473 0.54889 0.39069
 N72 N 0.78407 0.58923 0.38830
 N73 N 0.63554 0.44839 0.32701
 N74 N 0.63732 0.40824 0.27737
 Mn75 Mn 0.72275 0.49953 0.49512
 C76 C 0.72624 0.38552 0.31483
 C77 C 0.73787 0.61333 0.31482
 N78 N 0.32895 0.55430 0.39830
 N79 N 0.27688 0.59526 0.39232
 N80 N 0.39075 0.45072 0.33134
 N81 N 0.38402 0.40951 0.28535
 N82 N 0.31159 0.45300 0.39943
 N83 N 0.24990 0.41309 0.40144
 N84 N 0.40427 0.55074 0.32748
 N85 N 0.40462 0.58864 0.27146
 Mn86 Mn 0.31933 0.50397 0.50398
 Mn87 Mn 0.51917 0.49928 0.32620
 Cl88 Cl 0.52071 0.50049 0.49953
 C89 C 0.32452 0.61612 0.31186
 C90 C 0.29483 0.38652 0.32905
 C91 C 0.30122 0.19023 0.12353
 C92 C 0.23184 0.16514 0.19092
 C93 C 0.18813 0.18937 0.27221
 C94 C 0.21352 0.23802 0.28587
 C95 C 0.28203 0.26301 0.21668
 C96 C 0.32465 0.23880 0.13543
 C97 C 0.30718 0.31168 0.23019
 C98 C 0.26336 0.33593 0.31140
 C99 C 0.19427 0.31082 0.37895
 C100 C 0.17108 0.26222 0.36721
 H101 H 0.13409 0.17047 0.32454
 H102 H 0.37550 0.25748 0.08068
 H103 H 0.36111 0.33057 0.17778
 H104 H 0.12030 0.24355 0.42204
 H105 H 0.33543 0.17247 0.06027
 H106 H 0.15997 0.32861 0.44212
 C107 C 0.64961 0.81189 0.15208
 C108 C 0.73405 0.83663 0.20395
 C109 C 0.80285 0.81194 0.26751
 C110 C 0.78956 0.76271 0.27725
 C111 C 0.70584 0.73792 0.22328
 C112 C 0.63600 0.76282 0.16130
 C113 C 0.69267 0.68870 0.23284
 C114 C 0.76155 0.66395 0.29620
 C115 C 0.84582 0.68868 0.34832
 C116 C 0.85935 0.73778 0.33926
 H117 H 0.86875 0.83075 0.30735
 H118 H 0.57216 0.74427 0.11897
 H119 H 0.62691 0.66992 0.19280
 H120 H 0.92316 0.75631 0.38164
 H121 H 0.59568 0.83033 0.10273
 H122 H 0.89970 0.67019 0.39764
 C123 C 0.68813 0.18945 0.87326
 C124 C 0.75330 0.16425 0.80537
 C125 C 0.80069 0.18789 0.72421
 C126 C 0.78308 0.23640 0.71112
 C127 C 0.71896 0.26166 0.78091
 C128 C 0.67273 0.23792 0.86209
 C129 C 0.70148 0.31015 0.76807
 C130 C 0.74847 0.33385 0.68689
 C131 C 0.81325 0.30869 0.61858
 C132 C 0.82902 0.26020 0.62980
 H133 H 0.85145 0.16867 0.67172
 H134 H 0.62521 0.25684 0.91716
 H135 H 0.65094 0.32931 0.82081
 H136 H 0.87668 0.24133 0.57475
 H137 H 0.65110 0.17187 0.93638
 H138 H 0.84975 0.32632 0.55523
 C139 C 0.13852 0.81933 0.69445
 C140 C 0.19387 0.83695 0.77795
 C141 C 0.26688 0.80667 0.82706
 C142 C 0.28140 0.75969 0.79496
 C143 C 0.22468 0.74272 0.71156
 C144 C 0.15461 0.77305 0.66145
 C145 C 0.23905 0.69572 0.67954
 C146 C 0.30985 0.66539 0.72998
 C147 C 0.36554 0.68267 0.81310
 C148 C 0.35128 0.72924 0.84527
 H149 H 0.31068 0.81906 0.89142
 H150 H 0.11174 0.76081 0.59683
 H151 H 0.19602 0.68298 0.61512
 H152 H 0.39501 0.74151 0.90947
 H153 H 0.08259 0.84133 0.65362
 H154 H 0.42077 0.66017 0.85340
 C155 C 0.33495 0.18342 0.84606
 C156 C 0.23949 0.16280 0.80107
 C157 C 0.17382 0.19120 0.74109
 C158 C 0.20236 0.23963 0.72749
 C159 C 0.29762 0.26005 0.77431
 C160 C 0.36305 0.23160 0.83351
 C161 C 0.32633 0.30844 0.76056
 C162 C 0.26071 0.33687 0.70061
 C163 C 0.16496 0.31633 0.65595
 C164 C 0.13679 0.26814 0.66849
 H165 H 0.09957 0.17588 0.70629
 H166 H 0.43533 0.24675 0.87079
 H167 H 0.40067 0.32371 0.79530
 H168 H 0.06431 0.25303 0.63144
 H169 H 0.38755 0.16236 0.89187
 H170 H 0.11223 0.33746 0.61038
 C171 C 0.66999 0.80911 0.86662
 C172 C 0.74900 0.83550 0.80893
 C173 C 0.81021 0.81188 0.73542
 C174 C 0.79502 0.76285 0.72164
 C175 C 0.71832 0.73676 0.78229
 C176 C 0.65619 0.76019 0.85430
 C177 C 0.70386 0.68771 0.76916
 C178 C 0.76445 0.66434 0.69557
 C179 C 0.84108 0.69044 0.63592
 C180 C 0.85561 0.73939 0.64840
 H181 H 0.87054 0.83136 0.68923
 H182 H 0.59767 0.74060 0.90173
 H183 H 0.64378 0.66793 0.81504
 H184 H 0.91275 0.75902 0.59991
 H185 H 0.62062 0.82589 0.92343
 H186 H 0.88803 0.67319 0.57826
 C187 C 0.14679 0.82182 0.31980
 C188 C 0.19346 0.83679 0.22976
 C189 C 0.25647 0.80461 0.17416
 C190 C 0.27118 0.75797 0.20762
 C191 C 0.22368 0.74337 0.29824
 C192 C 0.16237 0.77578 0.35389
 C193 C 0.23859 0.69671 0.33172
 C194 C 0.30161 0.66456 0.27597
 C195 C 0.34791 0.67956 0.18581
 C196 C 0.33229 0.72558 0.15182
 H197 H 0.29231 0.81552 0.10436
 H198 H 0.12559 0.76541 0.42349
 H199 H 0.20290 0.68577 0.40155
 H200 H 0.36878 0.73595 0.08211
 H201 H 0.09767 0.84578 0.36415
 H202 H 0.39689 0.65564 0.14125
 C203 C 0.65507 0.18392 0.14822
 C204 C 0.74717 0.16280 0.19374
 C205 C 0.81584 0.19070 0.25552
 C206 C 0.79562 0.23909 0.26816
 C207 C 0.70487 0.25994 0.21984
 C208 C 0.63506 0.23203 0.16044
 C209 C 0.68454 0.30828 0.23262
 C210 C 0.75408 0.33607 0.29315
 C211 C 0.84569 0.31534 0.33919
 C212 C 0.86549 0.26713 0.32758
 H213 H 0.88697 0.17536 0.29180
 H214 H 0.56571 0.24753 0.12264
 H215 H 0.61330 0.32393 0.19719
 H216 H 0.93449 0.25163 0.36576
 H217 H 0.59838 0.16348 0.10209
 H218 H 0.90102 0.33623 0.38564
   
