data_POSCAR
  _audit_creation_date              2014-09-24
  _audit_creation_method            'ToBaCCo'
  _symmetry_space_group_name_H-M    'P1'
  _symmetry_Int_Tables_number       1
  _symmetry_cell_setting            triclinic
  loop_
  _symmetry_equiv_pos_as_xyz
 x,y,z
_cell_length_a 30.0994
_cell_length_b 30.1481
_cell_length_c 30.2013
_cell_angle_alpha 90.120200
_cell_angle_beta 90.162400
_cell_angle_gamma 90.123400
loop_
  _atom_site_label
  _atom_site_type_symbol
  _atom_site_fract_x
  _atom_site_fract_y
  _atom_site_fract_z
C1 C 0.48927 1.02812 -0.61894
 C2 C 0.45004 1.03378 -0.59450
 C3 C 0.45248 1.03038 -0.54811
 C4 C 0.49279 1.02007 -0.52635
 C5 C 0.53114 1.01307 -0.55245
 C6 C 0.53042 1.01908 -0.59874
 C7 C 0.49527 1.01872 -0.47654
 C8 C 0.53589 1.02685 -0.45417
 C9 C 0.53826 1.02671 -0.40780
 C10 C 0.49947 1.02012 -0.38333
 C11 C 0.45840 1.01381 -0.40427
 C12 C 0.45676 1.01130 -0.45070
 H13 H 0.48703 1.02697 -0.65466
 H14 H 0.42325 1.03830 -0.52907
 H15 H 0.56203 1.00467 -0.53650
 H16 H 0.56580 1.03484 -0.47217
 H17 H 0.50126 1.01972 -0.34749
 H18 H 0.42509 1.00455 -0.46622
 C19 C -0.62259 1.49167 0.02959
 C20 C -0.59913 1.45144 0.03171
 C21 C -0.55329 1.45227 0.02262
 C22 C -0.53158 1.49150 0.00896
 C23 C -0.55688 1.53083 0.00565
 C24 C -0.60207 1.53194 0.01782
 C25 C -0.48255 1.49136 -0.00103
 C26 C -0.45698 1.53075 0.00155
 C27 C -0.41150 1.53076 -0.00870
 C28 C -0.39060 1.49050 -0.01850
 C29 C -0.41465 1.45077 -0.02048
 C30 C -0.46066 1.45164 -0.01306
 H31 H -0.65830 1.49102 0.03305
 H32 H -0.53428 1.42246 0.02810
 H33 H -0.54106 1.56100 -0.00503
 H34 H -0.47193 1.56176 0.01128
 H35 H -0.35497 1.49002 -0.02348
 H36 H -0.47902 1.42108 -0.01730
 C37 C 0.01854 0.37682 0.50883
 C38 C 0.01147 0.39594 0.46693
 C39 C 0.00758 0.44261 0.46472
 C40 C 0.01522 0.46985 0.50231
 C41 C 0.02452 0.44897 0.54315
 C42 C 0.02512 0.40273 0.54668
 C43 C 0.01524 0.51970 0.49860
 C44 C 0.00825 0.54692 0.53627
 C45 C 0.01224 0.59359 0.53404
 C46 C 0.01868 0.61274 0.49209
 C47 C 0.02456 0.58686 0.45414
 C48 C 0.02391 0.54061 0.45767
 H49 H 0.01717 0.34119 0.51288
 H50 H 0.00040 0.45787 0.43334
 H51 H 0.03249 0.46805 0.57243
 H52 H 0.00153 0.53164 0.56773
 H53 H 0.01733 0.64837 0.48810
 H54 H 0.03137 0.52156 0.42831
 O55 O -0.11764 0.99852 -0.06234
 O56 O 0.11037 0.99443 -0.05646
 O57 O -0.00232 1.05689 -0.11194
 O58 O -0.00103 0.93684 -0.11430
 O59 O -0.00279 0.88154 -0.06172
 O60 O -0.00390 1.11019 -0.05708
 O61 O 0.05766 0.99462 -0.11197
 O62 O -0.06235 0.99936 -0.11503
 Zr63 Zr -0.00318 0.99617 -0.07733
 O64 O 0.03605 0.95510 -0.03949
 O65 O -0.04431 1.03559 -0.03987
 C66 C -0.10368 1.00090 -0.10291
 C67 C 0.09842 0.99404 -0.09781
 C68 C -0.00259 1.09776 -0.09827
 C69 C -0.00085 0.89550 -0.10233
 H70 H 0.05586 1.05478 -0.05524
 O71 O 0.03607 1.03557 -0.03754
 H72 H -0.06311 0.93707 -0.06137
 O73 O -0.04443 0.95541 -0.04149
 O74 O 0.10715 0.99678 0.06340
 O75 O -0.12067 0.99223 0.05726
 O76 O 0.05517 1.10839 0.00760
 O77 O 0.05464 0.88087 -0.00160
 O78 O -0.06544 0.88073 -0.00219
 O79 O -0.06530 1.10855 -0.00199
 O80 O -0.00635 1.05257 0.11521
 O81 O -0.00796 0.93254 0.11286
 O82 O -0.00565 1.10797 0.06270
 O83 O -0.00742 0.87930 0.05796
 O84 O 0.10929 1.05438 0.00673
 O85 O -0.11950 1.05438 -0.00321
 O86 O -0.11972 0.93458 -0.00215
 O87 O 0.10920 0.93462 0.00093
 O88 O 0.05190 0.99574 0.11610
 O89 O -0.06809 0.99069 0.11282
 Zr90 Zr 0.07288 0.99462 0.00245
 Zr91 Zr -0.08322 0.99460 -0.00157
 Zr92 Zr -0.00513 1.07281 0.00204
 Zr93 Zr -0.00535 0.91671 -0.00114
 Zr94 Zr -0.00719 0.99322 0.07823
 O95 O -0.04664 0.95351 0.03883
 O96 O 0.03391 1.03399 0.04225
 C97 C 0.09321 0.99814 0.10403
 C98 C -0.10885 0.99060 0.09860
 C99 C 0.09624 1.09530 0.00945
 C100 C 0.09585 0.89364 -0.00067
 C101 C -0.10656 0.89358 -0.00222
 C102 C -0.10639 1.09542 -0.00422
 C103 C -0.00536 1.09393 0.10334
 C104 C -0.00767 0.89167 0.09918
 H105 H -0.06584 1.05275 0.05880
 O106 O -0.04634 1.03411 0.04019
 H107 H 0.05281 0.93516 0.05974
 O108 O 0.03395 0.95400 0.04067
 C109 C 0.33100 1.04518 0.33055
 C110 C 0.33002 1.02607 0.37297
 C111 C 0.36856 1.02466 0.39919
 C112 C 0.40926 1.04145 0.38305
 C113 C 0.40880 1.06361 0.34195
 C114 C 0.37041 1.06547 0.31626
 C115 C 0.29280 1.04146 0.29958
 N116 N 0.29670 1.05672 0.25752
 N117 N 0.26441 1.05043 0.22806
 C118 C 0.22666 1.02855 0.23924
 N119 N 0.22226 1.01381 0.28153
 N120 N 0.25476 1.02002 0.31109
 C121 C 0.19212 1.01988 0.20520
 C122 C 0.14948 1.00477 0.21676
 C123 C 0.11726 0.99717 0.18400
 C124 C 0.12730 1.00400 0.13904
 C125 C 0.17012 1.01857 0.12764
 C126 C 0.20199 1.02656 0.16025
 H127 H 0.30001 1.01054 0.38519
 H128 H 0.36694 1.00725 0.43045
 H129 H 0.43830 1.07967 0.32919
 H130 H 0.37222 1.08167 0.28435
 H131 H 0.14086 0.99930 0.25111
 H132 H 0.08453 0.98604 0.19386
 H133 H 0.17894 1.02462 0.09343
 H134 H 0.23453 1.03794 0.15006
 C135 C -0.35528 1.00941 0.31848
 C136 C -0.35617 0.98722 0.35933
 C137 C -0.39322 0.99075 0.38727
 C138 C -0.43047 1.01651 0.37489
 C139 C -0.42792 1.04015 0.33460
 C140 C -0.39128 1.03641 0.30694
 C141 C -0.31797 1.00425 0.28699
 N142 N -0.32309 1.01726 0.24430
 N143 N -0.29018 1.01307 0.21537
 C144 C -0.25052 0.99576 0.22780
 N145 N -0.24520 0.98265 0.27056
 N146 N -0.27835 0.98667 0.29958
 C147 C -0.21409 0.99213 0.19510
 C148 C -0.17008 0.98395 0.20840
 C149 C -0.13578 0.98297 0.17714
 C150 C -0.14492 0.98977 0.13192
 C151 C -0.18912 0.99691 0.11870
 C152 C -0.22317 0.99821 0.14984
 H153 H -0.32881 0.96613 0.36916
 H154 H -0.39315 0.97127 0.41728
 H155 H -0.45377 1.06287 0.32442
 H156 H -0.39126 1.05502 0.27630
 H157 H -0.16200 0.97915 0.24302
 H158 H -0.10212 0.97719 0.18844
 H159 H -0.19751 1.00228 0.08423
 H160 H -0.25671 1.00429 0.13833
 C161 C -0.34199 1.03689 -0.33056
 C162 C -0.37932 1.06283 -0.32022
 C163 C -0.41733 1.06115 -0.34666
 C164 C -0.41904 1.03349 -0.38408
 C165 C -0.38092 1.00954 -0.39608
 C166 C -0.34270 1.01119 -0.36952
 C167 C -0.30420 1.03451 -0.29904
 N168 N -0.26659 1.01174 -0.30907
 N169 N -0.23408 1.00742 -0.27928
 C170 C -0.23801 1.02542 -0.23817
 N171 N -0.27541 1.04847 -0.22839
 N172 N -0.30774 1.05293 -0.25816
 C173 C -0.20319 1.01903 -0.20401
 C174 C -0.21245 1.02846 -0.15939
 C175 C -0.18029 1.02200 -0.12672
 C176 C -0.13782 1.00635 -0.13785
 C177 C -0.12831 0.99713 -0.18249
 C178 C -0.16080 1.00311 -0.21522
 H179 H -0.37977 1.08351 -0.29088
 H180 H -0.44598 1.08061 -0.33713
 H181 H -0.38143 0.98789 -0.42474
 H182 H -0.31445 0.99097 -0.37855
 H183 H -0.24479 1.04060 -0.14951
 H184 H -0.18859 1.02986 -0.09273
 H185 H -0.09587 0.98504 -0.19209
 H186 H -0.15261 0.99558 -0.24930
 C187 C 0.34300 1.00812 -0.32020
 C188 C 0.34616 0.97961 -0.35703
 C189 C 0.38317 0.98169 -0.38514
 C190 C 0.41746 1.01240 -0.37690
 C191 C 0.41318 1.04191 -0.34111
 C192 C 0.37666 1.03966 -0.31305
 C193 C 0.30591 1.00471 -0.28822
 N194 N 0.30954 1.02421 -0.24782
 N195 N 0.27688 1.02125 -0.21843
 C196 C 0.23898 0.99878 -0.22814
 N197 N 0.23514 0.97927 -0.26863
 N198 N 0.26804 0.98203 -0.29805
 C199 C 0.20290 0.99603 -0.19498
 C200 C 0.15959 0.98337 -0.20718
 C201 C 0.12553 0.98259 -0.17569
 C202 C 0.13428 0.99391 -0.13129
 C203 C 0.17777 1.00578 -0.11907
 C204 C 0.21157 1.00705 -0.15054
 H205 H 0.32070 0.95499 -0.36343
 H206 H 0.38557 0.95851 -0.41246
 H207 H 0.43840 1.06678 -0.33457
 H208 H 0.37498 1.06264 -0.28551
 H209 H 0.15185 0.97475 -0.24117
 H210 H 0.09239 0.97307 -0.18610
 H211 H 0.18567 1.01483 -0.08522
 H212 H 0.24460 1.01672 -0.13993
 C213 C 0.32386 1.33409 0.04711
 C214 C 0.31186 1.37342 0.06884
 C215 C 0.33839 1.41122 0.06580
 C216 C 0.37789 1.41117 0.04065
 C217 C 0.39170 1.37043 0.02204
 C218 C 0.36484 1.33252 0.02499
 C219 C 0.29212 1.29641 0.04512
 N220 N 0.30308 1.25750 0.02516
 N221 N 0.27315 1.22508 0.02074
 C222 C 0.23097 1.23036 0.03582
 N223 N 0.22024 1.26906 0.05612
 N224 N 0.25013 1.30133 0.06066
 C225 C 0.19681 1.19546 0.02915
 C226 C 0.15172 1.20495 0.03659
 C227 C 0.11916 1.17261 0.02965
 C228 C 0.13087 1.12981 0.01547
 C229 C 0.17599 1.12015 0.00822
 C230 C 0.20858 1.15271 0.01475
 H231 H 0.28117 1.37554 0.08733
 H232 H 0.32753 1.44057 0.08336
 H233 H 0.42145 1.36824 0.00214
 H234 H 0.37529 1.30257 0.00817
 H235 H 0.14141 1.23756 0.04752
 H236 H 0.08480 1.18109 0.03593
 H237 H 0.18614 1.08748 -0.00270
 H238 H 0.24300 1.14430 0.00876
 C239 C 0.31810 0.64870 0.01595
 C240 C 0.35582 0.64585 -0.01118
 C241 C 0.38295 0.60806 -0.01015
 C242 C 0.37283 0.57195 0.01796
 C243 C 0.33600 0.57648 0.04652
 C244 C 0.30913 0.61394 0.04534
 C245 C 0.28683 0.68651 0.01305
 N246 N 0.24605 0.68324 0.03180
 N247 N 0.21699 0.71622 0.02879
 C248 C 0.22740 0.75411 0.00698
 N249 N 0.26834 0.75769 -0.01166
 N250 N 0.29745 0.72445 -0.00882
 C251 C 0.19421 0.79016 0.00362
 C252 C 0.20652 0.83352 -0.00836
 C253 C 0.17469 0.86737 -0.00989
 C254 C 0.12993 0.85829 -0.00008
 C255 C 0.11771 0.81476 0.01118
 C256 C 0.14943 0.78125 0.01320
 H257 H 0.36361 0.67218 -0.03423
 H258 H 0.41017 0.60657 -0.03337
 H259 H 0.32803 0.55148 0.07092
 H260 H 0.28104 0.61547 0.06761
 H261 H 0.24079 0.84141 -0.01586
 H262 H 0.18509 0.90057 -0.01884
 H263 H 0.08361 0.80658 0.01917
 H264 H 0.13870 0.74820 0.02229
 C265 C -0.33023 0.64868 -0.01074
 C266 C -0.36270 0.64332 0.02226
 C267 C -0.38989 0.60550 0.02272
 C268 C -0.38520 0.57253 -0.00993
 C269 C -0.35388 0.57890 -0.04375
 C270 C -0.32666 0.61631 -0.04405
 C271 C -0.29879 0.68656 -0.00994
 N272 N -0.26124 0.68513 -0.03467
 N273 N -0.23197 0.71821 -0.03342
 C274 C -0.23902 0.75434 -0.00753
 N275 N -0.27676 0.75606 0.01704
 N276 N -0.30601 0.72274 0.01599
 C277 C -0.20557 0.79040 -0.00581
 C278 C -0.21636 0.83271 0.01055
 C279 C -0.18438 0.86655 0.01144
 C280 C -0.14088 0.85841 -0.00333
 C281 C -0.13015 0.81601 -0.01932
 C282 C -0.16215 0.78253 -0.02082
 H283 H -0.36623 0.66767 0.04840
 H284 H -0.41357 0.60144 0.04933
 H285 H -0.35019 0.55464 -0.06998
 H286 H -0.30248 0.61965 -0.07032
 H287 H -0.24957 0.83980 0.02224
 H288 H -0.19353 0.89888 0.02412
 H289 H -0.09702 0.80875 -0.03120
 H290 H -0.15266 0.75028 -0.03344
 C291 C -0.33583 1.33257 -0.03300
 C292 C -0.37286 1.33326 -0.00471
 C293 C -0.39998 1.37085 -0.00226
 C294 C -0.39070 1.40839 -0.02819
 C295 C -0.35537 1.40654 -0.05846
 C296 C -0.32817 1.36916 -0.06073
 C297 C -0.30355 1.29551 -0.03155
 N298 N -0.26291 1.29997 -0.05046
 N299 N -0.23261 1.26807 -0.04687
 C300 C -0.24165 1.23024 -0.02428
 N301 N -0.28248 1.22548 -0.00577
 N302 N -0.31275 1.25753 -0.00918
 C303 C -0.20721 1.19555 -0.01908
 C304 C -0.21847 1.15283 -0.00427
 C305 C -0.18577 1.12029 0.00065
 C306 C -0.14102 1.12997 -0.00855
 C307 C -0.12975 1.17279 -0.02304
 C308 C -0.16249 1.20510 -0.02848
 H309 H -0.37978 1.30557 0.01700
 H310 H -0.42680 1.37137 0.02156
 H311 H -0.34795 1.43459 -0.07954
 H312 H -0.30038 1.36949 -0.08341
 H313 H -0.25262 1.14438 0.00319
 H314 H -0.19554 1.08761 0.01191
 H315 H -0.09565 1.18122 -0.03078
 H316 H -0.15262 1.23773 -0.03977
 C317 C 0.00645 1.31174 0.35305
 C318 C 0.02994 1.29938 0.39117
 C319 C 0.03168 1.32715 0.42796
 C320 C 0.00958 1.36849 0.42846
 C321 C -0.01326 1.38122 0.38950
 C322 C -0.01482 1.35316 0.35238
 C323 C 0.00421 1.28077 0.31488
 N324 N -0.01238 1.29349 0.27497
 N325 N -0.01404 1.26498 0.24112
 C326 C 0.00065 1.22261 0.24592
 N327 N 0.01711 1.21008 0.28582
 N328 N 0.01890 1.23850 0.31947
 C329 C -0.00125 1.19025 0.20893
 C330 C 0.00733 1.14519 0.21709
 C331 C 0.00584 1.11421 0.18282
 C332 C -0.00401 1.12740 0.13931
 C333 C -0.01238 1.17251 0.13091
 C334 C -0.01124 1.20362 0.16545
 H335 H 0.04758 1.26815 0.39263
 H336 H 0.05215 1.31634 0.45536
 H337 H -0.03175 1.41187 0.38781
 H338 H -0.03338 1.36360 0.32347
 H339 H 0.01507 1.13363 0.25014
 H340 H 0.01278 1.07983 0.19051
 H341 H -0.02011 1.18375 0.09775
 H342 H -0.01787 1.23810 0.15804
 C343 C 0.03395 1.32742 -0.33321
 C344 C 0.06163 1.31770 -0.36934
 C345 C 0.06062 1.34386 -0.40732
 C346 C 0.03193 1.38039 -0.41015
 C347 C 0.00643 1.39207 -0.37304
 C348 C 0.00740 1.36576 -0.33485
 C349 C 0.03049 1.29560 -0.29598
 N350 N 0.00633 1.30510 -0.25920
 N351 N 0.00105 1.27494 -0.22737
 C352 C 0.01940 1.23395 -0.23124
 N353 N 0.04380 1.22470 -0.26781
 N354 N 0.04923 1.25484 -0.29944
 C355 C 0.01238 1.19942 -0.19712
 C356 C 0.02187 1.15485 -0.20690
 C357 C 0.01595 1.12194 -0.17509
 C358 C 0.00084 1.13274 -0.13245
 C359 C -0.00905 1.17727 -0.12263
 C360 C -0.00362 1.21027 -0.15477
 H361 H 0.08303 1.28888 -0.36902
 H362 H 0.08113 1.33459 -0.43526
 H363 H -0.01604 1.42004 -0.37449
 H364 H -0.01415 1.37431 -0.30750
 H365 H 0.03391 1.14525 -0.23927
 H366 H 0.02416 1.08805 -0.18373
 H367 H -0.02086 1.18664 -0.09009
 H368 H -0.01128 1.24430 -0.14625
 C369 C 0.00948 0.67766 -0.35195
 C370 C 0.03254 0.68997 -0.39025
 C371 C 0.03351 0.66226 -0.42711
 C372 C 0.01108 0.62101 -0.42747
 C373 C -0.01134 0.60831 -0.38835
 C374 C -0.01218 0.63634 -0.35120
 C375 C 0.00808 0.70854 -0.31368
 N376 N -0.00966 0.69633 -0.27417
 N377 N -0.01078 0.72480 -0.24029
 C378 C 0.00567 0.76662 -0.24462
 N379 N 0.02333 0.77865 -0.28409
 N380 N 0.02455 0.75027 -0.31779
 C381 C 0.00416 0.79899 -0.20762
 C382 C 0.01548 0.84360 -0.21521
 C383 C 0.01391 0.87464 -0.18100
 C384 C 0.00126 0.86193 -0.13812
 C385 C -0.00970 0.81725 -0.13025
 C386 C -0.00846 0.78612 -0.16473
 H387 H 0.05041 0.72114 -0.39185
 H388 H 0.05364 0.67303 -0.45470
 H389 H -0.03004 0.57773 -0.38657
 H390 H -0.03042 0.62592 -0.32217
 H391 H 0.02534 0.85479 -0.24779
 H392 H 0.02284 0.90869 -0.18821
 H393 H -0.01974 0.80644 -0.09759
 H394 H -0.01727 0.75201 -0.15775
 C395 C 0.03107 0.66232 0.33402
 C396 C 0.05925 0.67231 0.36989
 C397 C 0.05904 0.64607 0.40782
 C398 C 0.03062 0.60924 0.41090
 C399 C 0.00467 0.59730 0.37401
 C400 C 0.00487 0.62365 0.33583
 C401 C 0.02672 0.69422 0.29697
 N402 N 0.00337 0.68396 0.25971
 N403 N -0.00264 0.71410 0.22796
 C404 C 0.01410 0.75579 0.23244
 N405 N 0.03765 0.76582 0.26952
 N406 N 0.04383 0.73572 0.30104
 C407 C 0.00643 0.79019 0.19834
 C408 C 0.01303 0.83512 0.20893
 C409 C 0.00710 0.86794 0.17703
 C410 C -0.00513 0.85670 0.13349
 C411 C -0.01237 0.81178 0.12291
 C412 C -0.00695 0.77885 0.15514
 H413 H 0.08043 0.70138 0.36938
 H414 H 0.07993 0.65555 0.43555
 H415 H -0.01761 0.56909 0.37563
 H416 H -0.01705 0.61492 0.30868
 H417 H 0.02297 0.84506 0.24199
 H418 H 0.01322 0.90213 0.18636
 H419 H -0.02185 0.80203 0.08966
 H420 H -0.01232 0.74450 0.14600
   
