data_POSCAR
  _audit_creation_date              2014-09-24
  _audit_creation_method            'ToBaCCo'
  _symmetry_space_group_name_H-M    'P1'
  _symmetry_Int_Tables_number       1
  _symmetry_cell_setting            triclinic
  loop_
  _symmetry_equiv_pos_as_xyz
 x,y,z
_cell_length_a 35.1520
_cell_length_b 33.5979
_cell_length_c 34.0851
_cell_angle_alpha 89.998000
_cell_angle_beta 89.723300
_cell_angle_gamma 89.130100
loop_
  _atom_site_label
  _atom_site_type_symbol
  _atom_site_fract_x
  _atom_site_fract_y
  _atom_site_fract_z
C1 C 0.24067 0.24562 0.24934
 C2 C 0.75102 0.74553 0.24853
 C3 C 0.74874 0.25250 0.73970
 C4 C 0.25677 0.75171 0.75877
 C5 C 0.03989 0.06465 0.01628
 H6 H 0.04206 0.06696 -0.01531
 C7 C 0.06058 0.09024 0.04009
 H8 H 0.07903 0.11186 0.02657
 C9 C 0.01365 0.03318 0.07215
 H10 H -0.00527 0.01160 0.08471
 C11 C 0.03391 0.05804 0.09704
 H12 H 0.03055 0.05499 0.12849
 N13 N 0.01783 0.03604 0.03253
 C14 C 0.01434 -0.06020 -0.05359
 H15 H -0.01594 -0.06544 -0.05377
 C16 C 0.03883 -0.08429 -0.07601
 H17 H 0.02730 -0.10798 -0.09369
 C18 C 0.06632 -0.02294 -0.03030
 H19 H 0.07711 0.00045 -0.01197
 C20 C 0.09170 -0.04577 -0.05291
 H21 H 0.12183 -0.03954 -0.05201
 Zn22 Zn -0.00733 0.00070 -0.00195
 N23 N 0.02833 -0.03006 -0.03151
 C24 C -0.03089 0.03278 -0.07510
 N25 N -0.03805 0.03203 -0.03585
 C26 C -0.06641 0.05473 -0.01967
 C27 C -0.08969 0.07857 -0.04338
 C28 C -0.05300 0.05683 -0.09978
 C29 C -0.02061 -0.05875 0.05424
 C30 C -0.04216 -0.08446 0.07725
 C31 C -0.09799 -0.06429 0.04077
 C32 C -0.07554 -0.03834 0.01904
 N33 N -0.03772 -0.03538 0.02668
 H34 H -0.00778 0.01509 -0.08727
 H35 H -0.07104 0.05408 0.01173
 H36 H -0.11225 0.09639 -0.03015
 H37 H -0.04699 0.05724 -0.13097
 H38 H 0.00971 -0.05670 0.05892
 H39 H -0.02841 -0.10221 0.09976
 H40 H -0.12817 -0.06591 0.03484
 H41 H -0.08842 -0.02070 -0.00394
 C42 C 0.07796 -0.07683 -0.07611
 C43 C 0.05822 0.08662 0.08107
 C44 C -0.08137 -0.08716 0.07070
 C45 C -0.08292 0.07990 -0.08392
 C46 C 0.05931 0.56928 0.52727
 H47 H 0.06129 0.57309 0.49581
 C48 C 0.08097 0.59304 0.55195
 H49 H 0.10011 0.61451 0.53922
 C50 C 0.03208 0.53660 0.58196
 H51 H 0.01279 0.51479 0.59361
 C52 C 0.05342 0.55955 0.60771
 H53 H 0.05026 0.55518 0.63902
 N54 N 0.03563 0.54149 0.54250
 C55 C 0.02269 0.44251 0.46137
 H56 H -0.00700 0.43633 0.46657
 C57 C 0.04425 0.41731 0.43711
 H58 H 0.03081 0.39216 0.42332
 C59 C 0.07617 0.48292 0.47267
 H60 H 0.08873 0.50827 0.48664
 C61 C 0.09869 0.45869 0.44839
 H62 H 0.12840 0.46569 0.44410
 Zn63 Zn 0.00655 0.50958 0.50796
 N64 N 0.03867 0.47497 0.47811
 C65 C -0.04064 0.52453 0.44342
 N66 N -0.02154 0.54248 0.47299
 C67 C -0.02328 0.58265 0.47790
 C68 C -0.04436 0.60642 0.45209
 C69 C -0.06226 0.54710 0.41715
 C70 C -0.01487 0.44582 0.55678
 C71 C -0.04008 0.42172 0.57745
 C72 C -0.09178 0.46519 0.55730
 C73 C -0.06563 0.48836 0.53695
 N74 N -0.02800 0.47834 0.53701
 H75 H -0.03958 0.49255 0.44050
 H76 H -0.00880 0.59641 0.50211
 H77 H -0.04495 0.63837 0.45624
 H78 H -0.07787 0.53204 0.39438
 H79 H 0.01522 0.43855 0.55633
 H80 H -0.02910 0.39614 0.59333
 H81 H -0.12167 0.47342 0.55652
 H82 H -0.07545 0.51439 0.52113
 C83 C 0.08264 0.42567 0.42991
 C84 C 0.07838 0.58810 0.59274
 C85 C -0.07913 0.43131 0.57785
 C86 C -0.06431 0.58866 0.42124
 C87 C 0.55521 0.05479 0.50857
 H88 H 0.55577 0.05302 0.47688
 C89 C 0.58032 0.07974 0.52805
 H90 H 0.60023 0.09735 0.51134
 C91 C 0.52852 0.03410 0.56911
 H92 H 0.50782 0.01695 0.58504
 C93 C 0.55378 0.05789 0.58978
 H94 H 0.55260 0.05869 0.62153
 N95 N 0.52999 0.03257 0.52922
 C96 C 0.55592 -0.05869 0.48403
 H97 H 0.55819 -0.06012 0.51551
 C98 C 0.57963 -0.08289 0.46097
 H99 H 0.59967 -0.10296 0.47513
 C100 C 0.52885 -0.02938 0.42731
 H101 H 0.50980 -0.00787 0.41408
 C102 C 0.55211 -0.05296 0.40312
 H103 H 0.54977 -0.05006 0.37159
 Zn104 Zn 0.49823 -0.00155 0.50001
 N105 N 0.53046 -0.03321 0.46705
 C106 C 0.44177 0.01079 0.44216
 N107 N 0.46448 0.02954 0.46836
 C108 C 0.46367 0.06989 0.47182
 C109 C 0.43982 0.09298 0.44798
 C110 C 0.41751 0.03271 0.41777
 C111 C 0.48786 -0.05686 0.56245
 C112 C 0.46750 -0.08138 0.58785
 C113 C 0.40972 -0.06167 0.55474
 C114 C 0.43103 -0.03681 0.53056
 N115 N 0.46955 -0.03508 0.53436
 H116 H 0.44274 -0.02134 0.44005
 H117 H 0.48159 0.08431 0.49300
 H118 H 0.44014 0.12507 0.45072
 H119 H 0.39953 0.01714 0.39735
 H120 H 0.51821 -0.05449 0.56602
 H121 H 0.48246 -0.09821 0.61024
 H122 H 0.37913 -0.06272 0.55128
 H123 H 0.41653 -0.01885 0.50895
 C124 C 0.57762 -0.08049 0.41994
 C125 C 0.57997 0.08102 0.56912
 C126 C 0.42800 -0.08417 0.58386
 C127 C 0.41643 0.07442 0.42036
 C128 C 0.55430 0.55009 0.02627
 H129 H 0.55582 0.55377 -0.00509
 C130 C 0.57650 0.57403 0.05019
 H131 H 0.59578 0.59498 0.03685
 C132 C 0.52636 0.51993 0.08195
 H133 H 0.50602 0.49985 0.09450
 C134 C 0.54841 0.54293 0.10696
 H135 H 0.54512 0.53984 0.13842
 N136 N 0.53007 0.52328 0.04229
 C137 C 0.52877 0.41887 -0.02350
 H138 H 0.50811 0.40526 -0.00448
 C139 C 0.55169 0.39459 -0.04734
 H140 H 0.54884 0.36258 -0.04576
 C141 C 0.55688 0.47667 -0.04985
 H142 H 0.55789 0.50863 -0.05199
 C143 C 0.58064 0.45347 -0.07392
 H144 H 0.60008 0.46792 -0.09392
 Zn145 Zn 0.50007 0.49168 0.00804
 N146 N 0.53201 0.45920 -0.02466
 C147 C 0.45271 0.50983 -0.05592
 N148 N 0.47050 0.52572 -0.02440
 C149 C 0.46727 0.56521 -0.01599
 C150 C 0.44572 0.59047 -0.03997
 C151 C 0.43054 0.53395 -0.08047
 C152 C 0.48302 0.43257 0.06428
 C153 C 0.45985 0.40806 0.08687
 C154 C 0.40491 0.43654 0.05436
 C155 C 0.42907 0.46110 0.03295
 N156 N 0.46740 0.45863 0.03807
 H157 H 0.45558 0.47828 -0.06180
 H158 H 0.48125 0.57722 0.00945
 H159 H 0.44421 0.62190 -0.03309
 H160 H 0.41603 0.52049 -0.10495
 H161 H 0.51359 0.43092 0.06765
 H162 H 0.47264 0.38752 0.10764
 H163 H 0.37446 0.43876 0.04996
 H164 H 0.41710 0.48206 0.01221
 C165 C 0.57820 0.41187 -0.07278
 C166 C 0.57388 0.57033 0.09106
 C167 C 0.42033 0.40978 0.08178
 C168 C 0.42687 0.57495 -0.07272
 C169 C 0.18036 -0.17152 -0.17381
 C170 C 0.18204 -0.21292 -0.16687
 C171 C 0.20724 -0.23725 -0.18864
 C172 C 0.23147 -0.22137 -0.21797
 C173 C 0.22615 -0.18043 -0.22698
 C174 C 0.20187 -0.15598 -0.20489
 C175 C 0.15449 -0.14621 -0.14879
 C176 C 0.15411 -0.10428 -0.15042
 C177 C 0.12944 -0.08199 -0.12657
 C178 C 0.10431 -0.10085 -0.10082
 C179 C 0.10476 -0.14255 -0.09850
 C180 C 0.13020 -0.16527 -0.12164
 C181 C 0.15802 -0.22993 -0.13874
 C182 C 0.13212 -0.20671 -0.11719
 H183 H 0.15889 -0.26177 -0.13368
 H184 H 0.11381 -0.22135 -0.09617
 H185 H 0.20822 -0.26894 -0.18264
 H186 H 0.24011 -0.16667 -0.25171
 H187 H 0.12965 -0.04981 -0.12854
 H188 H 0.08592 -0.15719 -0.07797
 H189 H 0.19958 -0.12510 -0.21334
 H190 H 0.17300 -0.08814 -0.16947
 C191 C 0.17150 0.32717 0.32216
 C192 C 0.16983 0.28551 0.32733
 C193 C 0.19182 0.26006 0.30340
 C194 C 0.21646 0.27516 0.27436
 C195 C 0.21538 0.31655 0.26745
 C196 C 0.19373 0.34212 0.29120
 C197 C 0.14893 0.35346 0.34947
 C198 C 0.15083 0.39532 0.34857
 C199 C 0.12945 0.41850 0.37480
 C200 C 0.10558 0.40067 0.40256
 C201 C 0.10366 0.35901 0.40392
 C202 C 0.12540 0.33536 0.37797
 C203 C 0.14621 0.26943 0.35630
 C204 C 0.12416 0.29381 0.38080
 H205 H 0.14468 0.23746 0.36005
 H206 H 0.10626 0.27991 0.40268
 H207 H 0.19051 0.22815 0.30784
 H208 H 0.23078 0.32973 0.24336
 H209 H 0.13124 0.45061 0.37304
 H210 H 0.08576 0.34498 0.42574
 H211 H 0.19449 0.37346 0.28448
 H212 H 0.16884 0.41078 0.32811
 C213 C 0.67319 -0.18275 0.32196
 C214 C 0.69155 -0.16492 0.28955
 C215 C 0.71622 -0.18759 0.26554
 C216 C 0.72400 -0.22806 0.27380
 C217 C 0.70339 -0.24591 0.30452
 C218 C 0.67885 -0.22374 0.32843
 C219 C 0.64812 -0.15727 0.34767
 C220 C 0.63012 -0.17185 0.38168
 C221 C 0.60734 -0.14687 0.40488
 C222 C 0.60187 -0.10672 0.39492
 C223 C 0.61970 -0.09184 0.36114
 C224 C 0.64288 -0.11668 0.33766
 C225 C 0.68509 -0.12455 0.28119
 C226 C 0.66114 -0.10101 0.30461
 H227 H 0.69888 -0.11087 0.25620
 H228 H 0.65716 -0.06992 0.29692
 H229 H 0.72879 -0.17345 0.24021
 H230 H 0.70700 -0.27739 0.31054
 H231 H 0.59360 -0.15918 0.43057
 H232 H 0.61614 -0.06068 0.35353
 H233 H 0.66460 -0.23939 0.35171
 H234 H 0.63336 -0.20233 0.39110
 C235 C 0.67265 0.31528 -0.17724
 C236 C 0.71168 0.32458 -0.17972
 C237 C 0.73574 0.30349 -0.20565
 C238 C 0.72140 0.27445 -0.23134
 C239 C 0.68287 0.26401 -0.22683
 C240 C 0.65893 0.28421 -0.20062
 C241 C 0.64764 0.33903 -0.14986
 C242 C 0.60848 0.33183 -0.14508
 C243 C 0.58626 0.35527 -0.11983
 C244 C 0.60232 0.38666 -0.09886
 C245 C 0.64132 0.39397 -0.10315
 C246 C 0.66407 0.37031 -0.12821
 C247 C 0.72636 0.35528 -0.15676
 C248 C 0.70304 0.37779 -0.13174
 H249 H 0.75629 0.36240 -0.15857
 H250 H 0.71570 0.40155 -0.11499
 H251 H 0.76572 0.31055 -0.20692
 H252 H 0.67073 0.23972 -0.24305
 H253 H 0.55616 0.34928 -0.11722
 H254 H 0.65402 0.41790 -0.08664
 H255 H 0.62974 0.27491 -0.19925
 H256 H 0.59431 0.30844 -0.16064
 C257 C -0.17560 0.18252 -0.18314
 C258 C -0.21520 0.17603 -0.18340
 C259 C -0.23890 0.19868 -0.20821
 C260 C -0.22401 0.22811 -0.23334
 C261 C -0.18502 0.23689 -0.22941
 C262 C -0.16119 0.21410 -0.20544
 C263 C -0.15087 0.15636 -0.15802
 C264 C -0.11081 0.15746 -0.15928
 C265 C -0.08896 0.13240 -0.13540
 C266 C -0.10642 0.10592 -0.10946
 C267 C -0.14627 0.10418 -0.10826
 C268 C -0.16854 0.12857 -0.13290
 C269 C -0.23093 0.14736 -0.15853
 C270 C -0.20818 0.12469 -0.13326
 H271 H -0.26137 0.14265 -0.15828
 H272 H -0.22176 0.10320 -0.11429
 H273 H -0.26920 0.19313 -0.20842
 H274 H -0.17235 0.26187 -0.24416
 H275 H -0.05822 0.13400 -0.13687
 H276 H -0.15985 0.08311 -0.08879
 H277 H -0.13166 0.22228 -0.20414
 H278 H -0.09580 0.17700 -0.17890
 C279 C -0.16352 0.68030 0.31805
 C280 C -0.18487 0.71173 0.33535
 C281 C -0.21152 0.73330 0.31309
 C282 C -0.21916 0.72295 0.27380
 C283 C -0.19593 0.69332 0.25628
 C284 C -0.16892 0.67205 0.27798
 C285 C -0.13630 0.65711 0.34332
 C286 C -0.11400 0.62497 0.32911
 C287 C -0.09022 0.60337 0.35424
 C288 C -0.08808 0.61305 0.39420
 C289 C -0.10960 0.64552 0.40845
 C290 C -0.13349 0.66754 0.38344
 C291 C -0.17990 0.72128 0.37498
 C292 C -0.15491 0.69953 0.39855
 H293 H -0.19611 0.74553 0.38819
 H294 H -0.15257 0.70770 0.42919
 H295 H -0.22605 0.75829 0.32679
 H296 H -0.19936 0.68603 0.22555
 H297 H -0.07339 0.57894 0.34227
 H298 H -0.10863 0.65305 0.43934
 H299 H -0.15285 0.64914 0.26284
 H300 H -0.11463 0.61581 0.29881
 C301 C 0.31719 0.16950 0.31970
 C302 C 0.29807 0.20227 0.33731
 C303 C 0.27356 0.22657 0.31507
 C304 C 0.26636 0.21840 0.27516
 C305 C 0.28719 0.18692 0.25755
 C306 C 0.31172 0.16259 0.27939
 C307 C 0.34300 0.14421 0.34472
 C308 C 0.36285 0.11045 0.33031
 C309 C 0.38656 0.08796 0.35484
 C310 C 0.39110 0.09839 0.39440
 C311 C 0.37131 0.13184 0.40905
 C312 C 0.34742 0.15466 0.38467
 C313 C 0.30373 0.21099 0.37703
 C314 C 0.32788 0.18774 0.40017
 H315 H 0.28920 0.23622 0.39051
 H316 H 0.33124 0.19575 0.43075
 H317 H 0.26099 0.25245 0.32916
 H318 H 0.28417 0.18098 0.22650
 H319 H 0.40179 0.06256 0.34262
 H320 H 0.37407 0.13983 0.43971
 H321 H 0.32630 0.13877 0.26402
 H322 H 0.36050 0.10086 0.30024
 C323 C 0.33367 0.67753 -0.17257
 C324 C 0.31296 0.70872 -0.15407
 C325 C 0.28880 0.73377 -0.17608
 C326 C 0.28272 0.72713 -0.21664
 C327 C 0.30550 0.69716 -0.23479
 C328 C 0.33006 0.67273 -0.21331
 C329 C 0.35856 0.65097 -0.14787
 C330 C 0.38049 0.61923 -0.16353
 C331 C 0.40267 0.59494 -0.13920
 C332 C 0.40351 0.60133 -0.09853
 C333 C 0.38192 0.63308 -0.08269
 C334 C 0.35978 0.65794 -0.10696
 C335 C 0.31616 0.71458 -0.11352
 C336 C 0.33884 0.68960 -0.09046
 H337 H 0.30042 0.73854 -0.09924
 H338 H 0.33993 0.69512 -0.05916
 H339 H 0.27509 0.75850 -0.16110
 H340 H 0.30354 0.69204 -0.26610
 H341 H 0.41957 0.57128 -0.15245
 H342 H 0.38182 0.63815 -0.05130
 H343 H 0.34566 0.65007 -0.22929
 H344 H 0.38105 0.61261 -0.19447
 C345 C -0.17643 -0.18656 0.16826
 C346 C -0.17722 -0.17825 0.20890
 C347 C -0.20106 -0.19986 0.23393
 C348 C -0.22448 -0.23023 0.21944
 C349 C -0.22065 -0.24046 0.17943
 C350 C -0.19768 -0.21860 0.15420
 C351 C -0.15194 -0.16172 0.14218
 C352 C -0.15241 -0.16478 0.10093
 C353 C -0.12936 -0.14064 0.07785
 C354 C -0.10503 -0.11326 0.09530
 C355 C -0.10441 -0.10977 0.13627
 C356 C -0.12822 -0.13316 0.15974
 C357 C -0.15369 -0.14893 0.22441
 C358 C -0.12919 -0.12738 0.20044
 H359 H -0.15391 -0.14285 0.25564
 H360 H -0.11127 -0.10529 0.21389
 H361 H -0.20148 -0.19316 0.26504
 H362 H -0.23464 -0.26599 0.16720
 H363 H -0.13039 -0.14344 0.04621
 H364 H -0.08622 -0.08791 0.14975
 H365 H -0.19621 -0.22796 0.12395
 H366 H -0.17086 -0.18505 0.08590
 C367 C -0.18490 0.33304 0.66520
 C368 C -0.17835 0.29145 0.66432
 C369 C -0.20093 0.26620 0.68716
 C370 C -0.22918 0.28157 0.71279
 C371 C -0.23774 0.32267 0.71043
 C372 C -0.21576 0.34799 0.68746
 C373 C -0.15869 0.35926 0.64230
 C374 C -0.16162 0.40114 0.64287
 C375 C -0.13593 0.42427 0.62184
 C376 C -0.10655 0.40639 0.59977
 C377 C -0.10341 0.36469 0.59893
 C378 C -0.12906 0.34111 0.62005
 C379 C -0.14890 0.27530 0.64120
 C380 C -0.12489 0.29958 0.61942
 H381 H -0.14405 0.24338 0.64027
 H382 H -0.10231 0.28564 0.60229
 H383 H -0.19543 0.23436 0.68648
 H384 H -0.26164 0.33581 0.72596
 H385 H -0.13866 0.45638 0.62347
 H386 H -0.08104 0.35054 0.58166
 H387 H -0.22348 0.37917 0.68760
 H388 H -0.18318 0.41670 0.65975
 C389 C 0.33555 -0.18075 0.68721
 C390 C 0.31256 -0.20976 0.66948
 C391 C 0.28812 -0.23298 0.69248
 C392 C 0.28321 -0.22579 0.73322
 C393 C 0.30793 -0.19788 0.75048
 C394 C 0.33322 -0.17569 0.72807
 C395 C 0.36102 -0.15637 0.66152
 C396 C 0.38653 -0.12820 0.67647
 C397 C 0.40875 -0.10540 0.65118
 C398 C 0.40574 -0.10973 0.61046
 C399 C 0.38108 -0.13816 0.59522
 C400 C 0.35922 -0.16189 0.62038
 C401 C 0.31347 -0.21499 0.62869
 C402 C 0.33579 -0.19113 0.60463
 H403 H 0.29587 -0.23721 0.61500
 H404 H 0.33476 -0.19573 0.57318
 H405 H 0.27317 -0.25667 0.67800
 H406 H 0.30697 -0.19259 0.78183
 H407 H 0.42779 -0.08366 0.66344
 H408 H 0.37922 -0.14202 0.56369
 H409 H 0.35020 -0.15427 0.74337
 H410 H 0.38980 -0.12326 0.70752
 C411 C 0.32087 0.30931 0.17350
 C412 C 0.32171 0.31389 0.21468
 C413 C 0.29615 0.29291 0.23841
 C414 C 0.26917 0.26713 0.22197
 C415 C 0.27176 0.25959 0.18129
 C416 C 0.29662 0.28079 0.15741
 C417 C 0.34651 0.33442 0.14890
 C418 C 0.34432 0.33575 0.10763
 C419 C 0.36828 0.36030 0.08601
 C420 C 0.39525 0.38371 0.10491
 C421 C 0.39765 0.38278 0.14595
 C422 C 0.37295 0.35904 0.16807
 C423 C 0.34815 0.33923 0.23192
 C424 C 0.37374 0.36072 0.20913
 H425 H 0.34922 0.34234 0.26354
 H426 H 0.39379 0.37974 0.22387
 H427 H 0.29657 0.29725 0.26992
 H428 H 0.25492 0.23706 0.16735
 H429 H 0.36592 0.36084 0.05434
 H430 H 0.41798 0.40154 0.16066
 H431 H 0.29680 0.27397 0.12648
 H432 H 0.32382 0.31870 0.09157
 C433 C 0.15577 0.18186 0.18007
 C434 C 0.17588 0.16157 0.21003
 C435 C 0.20250 0.18180 0.23296
 C436 C 0.21063 0.22219 0.22589
 C437 C 0.18785 0.24273 0.19835
 C438 C 0.16132 0.22297 0.17549
 C439 C 0.12928 0.15864 0.15472
 C440 C 0.11001 0.17544 0.12236
 C441 C 0.08668 0.15219 0.09885
 C442 C 0.08180 0.11168 0.10699
 C443 C 0.10056 0.09477 0.13937
 C444 C 0.12442 0.11774 0.16295
 C445 C 0.16943 0.12112 0.21692
 C446 C 0.14408 0.09975 0.19406
 H447 H 0.18448 0.10560 0.24017
 H448 H 0.14033 0.06844 0.20041
 H449 H 0.21648 0.16573 0.25643
 H450 H 0.19149 0.27434 0.19374
 H451 H 0.07232 0.16600 0.07420
 H452 H 0.09755 0.06330 0.14549
 H453 H 0.14560 0.24045 0.15438
 H454 H 0.11297 0.20627 0.11432
 C455 C 0.17684 0.67973 0.69401
 C456 C 0.18141 0.72043 0.68499
 C457 C 0.20667 0.74360 0.70684
 C458 C 0.22994 0.72662 0.73652
 C459 C 0.22233 0.68664 0.74703
 C460 C 0.19687 0.66367 0.72599
 C461 C 0.15065 0.65556 0.66924
 C462 C 0.14482 0.61461 0.67549
 C463 C 0.12097 0.59315 0.65099
 C464 C 0.10242 0.61174 0.61947
 C465 C 0.10773 0.65259 0.61314
 C466 C 0.13159 0.67456 0.63774
 C467 C 0.16106 0.73768 0.65393
 C468 C 0.13675 0.71524 0.63077
 H469 H 0.16435 0.76894 0.64706
 H470 H 0.12202 0.72989 0.60680
 H471 H 0.20928 0.77494 0.69987
 H472 H 0.23552 0.67255 0.77215
 H473 H 0.11774 0.56158 0.65620
 H474 H 0.09318 0.66732 0.58908
 H475 H 0.19325 0.63337 0.73552
 H476 H 0.15868 0.59837 0.69878
 C477 C 0.68043 0.18142 0.65858
 C478 C 0.70779 0.16221 0.68261
 C479 C 0.73143 0.18468 0.70701
 C480 C 0.72632 0.22628 0.71057
 C481 C 0.69966 0.24500 0.68556
 C482 C 0.67716 0.22314 0.66011
 C483 C 0.65528 0.15633 0.63353
 C484 C 0.62887 0.17264 0.60670
 C485 C 0.60500 0.14799 0.58527
 C486 C 0.60654 0.10669 0.59043
 C487 C 0.63329 0.08998 0.61620
 C488 C 0.65811 0.11441 0.63719
 C489 C 0.71055 0.12055 0.68319
 C490 C 0.68575 0.09718 0.66159
 H491 H 0.73143 0.10573 0.70162
 H492 H 0.68834 0.06508 0.66394
 H493 H 0.75322 0.16914 0.72346
 H494 H 0.69545 0.27698 0.68663
 H495 H 0.58469 0.16124 0.56513
 H496 H 0.63493 0.05790 0.61958
 H497 H 0.65667 0.23948 0.64276
 H498 H 0.62621 0.20425 0.60176
 C499 C 0.67173 0.66700 0.18774
 C500 C 0.67363 0.70791 0.17841
 C501 C 0.69845 0.73259 0.19890
 C502 C 0.72362 0.71705 0.22733
 C503 C 0.71980 0.67673 0.23795
 C504 C 0.69463 0.65208 0.21830
 C505 C 0.64557 0.64139 0.16442
 C506 C 0.64130 0.60035 0.17160
 C507 C 0.61752 0.57758 0.14817
 C508 C 0.59766 0.59499 0.11688
 C509 C 0.60111 0.63590 0.10989
 C510 C 0.62466 0.65918 0.13346
 C511 C 0.65127 0.72392 0.14822
 C512 C 0.62751 0.70002 0.12604
 H513 H 0.65266 0.75532 0.14115
 H514 H 0.61126 0.71370 0.10255
 H515 H 0.69924 0.76404 0.19184
 H516 H 0.73574 0.66386 0.26195
 H517 H 0.61533 0.54599 0.15397
 H518 H 0.58531 0.64964 0.08609
 H519 H 0.69367 0.62143 0.22754
 H520 H 0.65623 0.58515 0.19488
   
