data_POSCAR
  _audit_creation_date              2014-09-24
  _audit_creation_method            'ToBaCCo'
  _symmetry_space_group_name_H-M    'P1'
  _symmetry_Int_Tables_number       1
  _symmetry_cell_setting            triclinic
  loop_
  _symmetry_equiv_pos_as_xyz
 x,y,z
_cell_length_a 19.0422
_cell_length_b 40.4325
_cell_length_c 19.3483
_cell_angle_alpha 90.113200
_cell_angle_beta 89.802400
_cell_angle_gamma 89.892600
loop_
  _atom_site_label
  _atom_site_type_symbol
  _atom_site_fract_x
  _atom_site_fract_y
  _atom_site_fract_z
N1 N 0.12165 0.03534 0.07375
 N2 N 0.16065 0.06219 0.07862
 N3 N 0.07327 -0.03431 0.12230
 N4 N 0.07773 -0.06107 0.16100
 N5 N 0.12254 -0.03440 0.07464
 N6 N 0.16175 -0.06124 0.07972
 N7 N 0.07252 0.03536 0.12151
 N8 N 0.07684 0.06222 0.16012
 C9 C 0.13235 0.07863 0.13307
 C10 C 0.13352 -0.07755 0.13418
 N11 N -0.12608 -0.03483 0.07322
 N12 N -0.16480 -0.06177 0.07801
 N13 N -0.07837 0.03530 0.12045
 N14 N -0.08163 0.06301 0.15659
 N15 N -0.12709 0.03478 0.07269
 N16 N -0.16641 0.06385 0.07602
 N17 N -0.07780 -0.03448 0.12150
 N18 N -0.08243 -0.06118 0.16036
 Mn19 Mn -0.00264 0.00046 0.12235
 C20 C -0.13728 -0.07787 0.13296
 C21 C -0.13597 0.08031 0.12919
 N22 N 0.12440 -0.03481 -0.07419
 N23 N 0.16397 -0.06380 -0.07740
 N24 N 0.07474 0.03434 -0.12330
 N25 N 0.07928 0.06107 -0.16214
 N26 N 0.12295 0.03477 -0.07494
 N27 N 0.16152 0.06177 -0.07969
 N28 N 0.07562 -0.03548 -0.12189
 N29 N 0.07913 -0.06322 -0.15793
 Mn30 Mn 0.12376 0.00022 -0.00014
 C31 C 0.13363 -0.08037 -0.13046
 C32 C 0.13402 0.07785 -0.13467
 N33 N -0.12536 0.03430 -0.07622
 N34 N -0.16437 0.06119 -0.08134
 N35 N -0.07549 -0.03582 -0.12270
 N36 N -0.07794 -0.06354 -0.15891
 N37 N -0.12514 -0.03528 -0.07554
 N38 N -0.16424 -0.06431 -0.07932
 N39 N -0.07631 0.03400 -0.12410
 N40 N -0.08068 0.06072 -0.16295
 Mn41 Mn -0.12674 -0.00025 -0.00147
 Mn42 Mn -0.00035 -0.00075 -0.12395
 Cl43 Cl -0.00148 -0.00008 -0.00082
 C44 C -0.13622 0.07733 -0.13603
 C45 C -0.13272 -0.08081 -0.13211
 N46 N 0.62495 0.53503 0.57411
 N47 N 0.66466 0.56166 0.57885
 N48 N 0.57608 0.46552 0.62262
 N49 N 0.58074 0.43874 0.66124
 N50 N 0.62477 0.46533 0.57441
 N51 N 0.66379 0.43841 0.57900
 N52 N 0.57621 0.53524 0.62228
 N53 N 0.58152 0.56203 0.66103
 C54 C 0.63727 0.57819 0.63362
 C55 C 0.63604 0.42216 0.63376
 N56 N 0.37622 0.46559 0.57541
 N57 N 0.33720 0.43873 0.58018
 N58 N 0.42506 0.53536 0.62296
 N59 N 0.41983 0.56208 0.66194
 N60 N 0.37625 0.53530 0.57521
 N61 N 0.33654 0.56198 0.58046
 N62 N 0.42500 0.46563 0.62322
 N63 N 0.42039 0.43879 0.66172
 Mn64 Mn 0.50059 0.50045 0.62369
 C65 C 0.36501 0.42235 0.63461
 C66 C 0.36405 0.57836 0.63510
 N67 N 0.62464 0.46501 0.42571
 N68 N 0.66411 0.43824 0.42055
 N69 N 0.57597 0.53467 0.37768
 N70 N 0.58068 0.56141 0.33895
 N71 N 0.62478 0.53473 0.42543
 N72 N 0.66395 0.56153 0.42042
 N73 N 0.57583 0.46500 0.37794
 N74 N 0.58085 0.43824 0.33906
 Mn75 Mn 0.62572 0.50002 0.49992
 C76 C 0.63648 0.42186 0.36594
 C77 C 0.63614 0.57782 0.36587
 N78 N 0.37621 0.53511 0.42652
 N79 N 0.33716 0.56203 0.42191
 N80 N 0.42481 0.46526 0.37855
 N81 N 0.41981 0.43848 0.33983
 N82 N 0.37608 0.46538 0.42671
 N83 N 0.33667 0.43865 0.42200
 N84 N 0.42494 0.53495 0.37835
 N85 N 0.42027 0.56173 0.33973
 Mn86 Mn 0.37526 0.50035 0.50097
 Mn87 Mn 0.50038 0.49997 0.37724
 Cl88 Cl 0.50049 0.50020 0.50046
 C89 C 0.36493 0.57830 0.36717
 C90 C 0.36427 0.42220 0.36722
 C91 C 0.14180 0.15906 0.23287
 C92 C 0.19787 0.17487 0.19975
 C93 C 0.23302 0.15904 0.14527
 C94 C 0.21209 0.12754 0.12383
 C95 C 0.15572 0.11153 0.15675
 C96 C 0.12079 0.12757 0.21152
 C97 C 0.21906 0.20739 0.22143
 C98 C 0.23671 0.23465 0.23957
 C99 C 0.25741 0.26656 0.26077
 C100 C 0.27524 0.29380 0.27887
 C101 C 0.29683 0.32627 0.30046
 C102 C 0.35244 0.34209 0.26660
 C103 C 0.37405 0.37349 0.28797
 C104 C 0.34018 0.38943 0.34349
 C105 C 0.28422 0.37343 0.37711
 C106 C 0.26269 0.34202 0.35566
 H107 H 0.11417 0.17112 0.27501
 H108 H 0.27643 0.17109 0.11923
 H109 H 0.23971 0.11582 0.08130
 H110 H 0.07699 0.11587 0.23759
 H111 H 0.37929 0.33009 0.22390
 H112 H 0.41750 0.38518 0.26133
 H113 H 0.25740 0.38508 0.42022
 H114 H 0.21966 0.32996 0.38228
 C115 C 0.85280 0.84207 0.23338
 C116 C 0.79803 0.82580 0.19940
 C117 C 0.76380 0.84121 0.14421
 C118 C 0.78441 0.87276 0.12288
 C119 C 0.83951 0.88923 0.15663
 C120 C 0.87348 0.87362 0.21215
 C121 C 0.77734 0.79320 0.22087
 C122 C 0.76016 0.76586 0.23884
 C123 C 0.74010 0.73386 0.25986
 C124 C 0.72283 0.70654 0.27781
 C125 C 0.70190 0.67397 0.29924
 C126 C 0.64638 0.65798 0.26585
 C127 C 0.62536 0.62650 0.28713
 C128 C 0.65973 0.61065 0.34211
 C129 C 0.71562 0.62681 0.37525
 C130 C 0.73656 0.65831 0.35387
 H131 H 0.87970 0.83033 0.27608
 H132 H 0.72142 0.82879 0.11750
 H133 H 0.75756 0.88415 0.07977
 H134 H 0.91630 0.88567 0.23887
 H135 H 0.61913 0.66991 0.22359
 H136 H 0.58195 0.61468 0.26088
 H137 H 0.74280 0.61524 0.41793
 H138 H 0.77952 0.67050 0.38013
 C139 C 0.85440 0.15759 0.76407
 C140 C 0.79880 0.17371 0.79764
 C141 C 0.76385 0.15812 0.85232
 C142 C 0.78456 0.12655 0.87357
 C143 C 0.84051 0.11024 0.84025
 C144 C 0.87519 0.12603 0.78522
 C145 C 0.77797 0.20635 0.77635
 C146 C 0.76061 0.23372 0.75865
 C147 C 0.74029 0.26577 0.73801
 C148 C 0.72284 0.29314 0.72040
 C149 C 0.70179 0.32577 0.69931
 C150 C 0.64632 0.34182 0.73325
 C151 C 0.62527 0.37338 0.71233
 C152 C 0.65957 0.38924 0.65716
 C153 C 0.71540 0.37301 0.62348
 C154 C 0.73636 0.34145 0.64450
 H155 H 0.88188 0.16947 0.72176
 H156 H 0.72082 0.17041 0.87873
 H157 H 0.75713 0.11504 0.91631
 H158 H 0.91867 0.11410 0.75885
 H159 H 0.61913 0.32988 0.77567
 H160 H 0.58191 0.38525 0.73900
 H161 H 0.74254 0.38459 0.58064
 H162 H 0.77930 0.32922 0.61781
 C163 C 0.13830 0.84141 0.77269
 C164 C 0.19405 0.82526 0.80532
 C165 C 0.22964 0.84090 0.85934
 C166 C 0.20967 0.87258 0.88080
 C167 C 0.15351 0.88921 0.84839
 C168 C 0.11809 0.87311 0.79391
 C169 C 0.21490 0.79267 0.78335
 C170 C 0.23267 0.76540 0.76503
 C171 C 0.25383 0.73352 0.74363
 C172 C 0.27220 0.70633 0.72533
 C173 C 0.29451 0.67395 0.70337
 C174 C 0.35056 0.65825 0.73662
 C175 C 0.37290 0.62697 0.71477
 C176 C 0.33934 0.61103 0.65937
 C177 C 0.28295 0.62691 0.62637
 C178 C 0.26069 0.65820 0.64830
 H179 H 0.11035 0.82949 0.73082
 H180 H 0.27287 0.82857 0.88498
 H181 H 0.23832 0.88388 0.92297
 H182 H 0.07455 0.88484 0.76758
 H183 H 0.37719 0.67026 0.77921
 H184 H 0.41665 0.61537 0.74094
 H185 H 0.25633 0.61526 0.58337
 H186 H 0.21735 0.67016 0.62212
 C187 C 0.23369 0.15863 0.85399
 C188 C 0.19949 0.17422 0.79899
 C189 C 0.14435 0.15810 0.76518
 C190 C 0.12335 0.12657 0.78637
 C191 C 0.15734 0.11079 0.84168
 C192 C 0.21277 0.12710 0.87527
 C193 C 0.22068 0.20681 0.77759
 C194 C 0.23844 0.23412 0.75984
 C195 C 0.25928 0.26612 0.73916
 C196 C 0.27714 0.29343 0.72149
 C197 C 0.29860 0.32602 0.70030
 C198 C 0.26414 0.34189 0.64580
 C199 C 0.28536 0.37340 0.62474
 C200 C 0.34136 0.38943 0.65804
 C201 C 0.37558 0.37337 0.71285
 C202 C 0.35428 0.34185 0.73383
 H203 H 0.27634 0.17089 0.88060
 H204 H 0.11743 0.16995 0.72263
 H205 H 0.08029 0.11465 0.75977
 H206 H 0.23969 0.11560 0.91821
 H207 H 0.22106 0.32985 0.61941
 H208 H 0.25825 0.38512 0.58217
 H209 H 0.41907 0.38506 0.73923
 H210 H 0.38140 0.32978 0.77600
 C211 C 0.77189 0.84050 0.85628
 C212 C 0.80841 0.82488 0.80251
 C213 C 0.86469 0.84103 0.77055
 C214 C 0.88444 0.87270 0.79217
 C215 C 0.84803 0.88878 0.84637
 C216 C 0.79139 0.87213 0.87813
 C217 C 0.78785 0.79232 0.78017
 C218 C 0.77008 0.76509 0.76177
 C219 C 0.74872 0.73325 0.74047
 C220 C 0.73009 0.70610 0.72236
 C221 C 0.70744 0.67375 0.70071
 C222 C 0.74102 0.65781 0.64542
 C223 C 0.71853 0.62655 0.62387
 C224 C 0.66212 0.61086 0.65745
 C225 C 0.62877 0.62700 0.71305
 C226 C 0.65136 0.65826 0.73452
 H227 H 0.72825 0.82820 0.88143
 H228 H 0.89338 0.82914 0.72888
 H229 H 0.92838 0.88443 0.76635
 H230 H 0.76196 0.88339 0.92007
 H231 H 0.78439 0.66959 0.61878
 H232 H 0.74500 0.61477 0.58071
 H233 H 0.58502 0.61556 0.73968
 H234 H 0.62490 0.67039 0.77729
 C235 C 0.23440 0.84188 0.14612
 C236 C 0.19958 0.82620 0.20080
 C237 C 0.14367 0.84219 0.23418
 C238 C 0.12250 0.87369 0.21288
 C239 C 0.15709 0.88956 0.15790
 C240 C 0.21331 0.87338 0.12474
 C241 C 0.22088 0.79364 0.22235
 C242 C 0.23861 0.76635 0.24035
 C243 C 0.25933 0.73439 0.26140
 C244 C 0.27710 0.70710 0.27937
 C245 C 0.29850 0.67455 0.30086
 C246 C 0.26404 0.65890 0.35580
 C247 C 0.28526 0.62741 0.37710
 C248 C 0.34124 0.61120 0.34360
 C249 C 0.37546 0.62704 0.28835
 C250 C 0.35416 0.65853 0.26713
 H251 H 0.27766 0.82970 0.11984
 H252 H 0.11627 0.83027 0.27647
 H253 H 0.07883 0.88551 0.23916
 H254 H 0.24069 0.88495 0.08203
 H255 H 0.22097 0.67109 0.38234
 H256 H 0.25816 0.61585 0.42000
 H257 H 0.41893 0.61520 0.26180
 H258 H 0.38128 0.67042 0.22463
 C259 C 0.76849 0.15919 0.14013
 C260 C 0.80416 0.17466 0.19432
 C261 C 0.85982 0.15835 0.22677
 C262 C 0.87986 0.12667 0.20522
 C263 C 0.84435 0.11073 0.15059
 C264 C 0.78829 0.12752 0.11834
 C265 C 0.78352 0.20726 0.21664
 C266 C 0.76600 0.23453 0.23526
 C267 C 0.74515 0.26643 0.25700
 C268 C 0.72704 0.29363 0.27553
 C269 C 0.70502 0.32606 0.29765
 C270 C 0.73904 0.34174 0.35270
 C271 C 0.71711 0.37309 0.37467
 C272 C 0.66084 0.38910 0.34174
 C273 C 0.62706 0.37322 0.28639
 C274 C 0.64907 0.34188 0.26451
 H275 H 0.72534 0.17162 0.11461
 H276 H 0.88784 0.17014 0.26875
 H277 H 0.92335 0.11484 0.23143
 H278 H 0.75958 0.11635 0.07607
 H279 H 0.78232 0.32970 0.37881
 H280 H 0.74390 0.38468 0.41762
 H281 H 0.58338 0.38491 0.26026
 H282 H 0.62227 0.32995 0.22194
   
