data_POSCAR
  _audit_creation_date              2014-09-24
  _audit_creation_method            'ToBaCCo'
  _symmetry_space_group_name_H-M    'P1'
  _symmetry_Int_Tables_number       1
  _symmetry_cell_setting            triclinic
  loop_
  _symmetry_equiv_pos_as_xyz
 x,y,z
_cell_length_a 27.5550
_cell_length_b 27.5025
_cell_length_c 27.5532
_cell_angle_alpha 86.122400
_cell_angle_beta 94.333400
_cell_angle_gamma 97.342900
loop_
  _atom_site_label
  _atom_site_type_symbol
  _atom_site_fract_x
  _atom_site_fract_y
  _atom_site_fract_z
O1 O 0.57431 0.48597 0.03927
 O2 O 0.44035 0.48663 0.02931
 O3 O 0.49877 0.42147 0.02382
 O4 O 0.51606 0.55309 0.04627
 O5 O 0.51476 0.57098 -0.03318
 O6 O 0.50444 0.43964 -0.05503
 O7 O 0.44257 0.50424 -0.04980
 O8 O 0.57704 0.50873 -0.03905
 Cu9 Cu 0.50722 0.48521 0.04271
 Cu10 Cu 0.50995 0.50750 -0.05229
 C11 C 0.59843 0.49739 0.00180
 C12 C 0.41837 0.49541 -0.01201
 C13 C 0.49944 0.40813 -0.01929
 C14 C 0.51729 0.58441 0.01019
 O15 O -0.02138 0.55990 0.50064
 O16 O -0.01350 0.42647 0.51083
 O17 O -0.01309 0.49309 0.57348
 O18 O -0.02082 0.49150 0.43954
 O19 O 0.05917 0.51367 0.43978
 O20 O 0.06772 0.50358 0.57406
 O21 O 0.06661 0.44155 0.50542
 O22 O 0.05927 0.57394 0.50925
 Cu23 Cu -0.02537 0.49152 0.50627
 Cu24 Cu 0.07131 0.50952 0.50709
 C25 C 0.01773 0.58982 0.50468
 C26 C 0.02782 0.41133 0.50812
 C27 C 0.02873 0.49796 0.59668
 C28 C 0.01786 0.50279 0.41690
 O29 O 0.49991 0.05246 0.55929
 O30 O 0.49249 0.03663 0.42716
 O31 O 0.43010 0.05425 0.48881
 O32 O 0.56045 0.03498 0.49647
 O33 O 0.53955 -0.04459 0.51186
 O34 O 0.40958 -0.02544 0.50281
 O35 O 0.47049 -0.04301 0.44071
 O36 O 0.47683 -0.02677 0.57243
 Cu37 Cu 0.49766 0.05268 0.49164
 Cu38 Cu 0.47219 -0.04303 0.50818
 C39 C 0.48942 0.01551 0.58861
 C40 C 0.48040 -0.00590 0.41159
 C41 C 0.39758 0.01756 0.49467
 C42 C 0.57203 -0.00804 0.50558
 C43 C 0.44759 0.10887 -0.08999
 C44 C 0.44998 0.07513 -0.12405
 C45 C 0.47558 0.03886 -0.10105
 N46 N 0.48875 0.04920 -0.05431
 C47 C 0.47163 0.09184 -0.04741
 C48 C 0.48895 -0.00179 -0.12321
 C49 C 0.50762 -0.04111 -0.09524
 C50 C 0.53262 -0.07586 -0.11344
 C51 C 0.53754 -0.11163 -0.07670
 C52 C 0.51580 -0.09745 -0.03703
 N53 N 0.49826 -0.05414 -0.04835
 C54 C 0.50706 -0.12708 0.00602
 C55 C 0.50025 -0.10659 0.05025
 C56 C 0.48824 -0.13266 0.09340
 C57 C 0.48892 -0.09860 0.12779
 C58 C 0.50001 -0.05285 0.10411
 N59 N 0.50750 -0.05794 0.05698
 C60 C 0.50635 -0.00746 0.12623
 C61 C 0.50929 0.03826 0.09899
 C62 C 0.52416 0.08361 0.11811
 C63 C 0.51730 0.11866 0.08114
 C64 C 0.49762 0.09398 0.04056
 N65 N 0.49312 0.04500 0.05165
 C66 C 0.48052 0.11684 -0.00397
 H67 H 0.43018 0.14208 -0.09589
 H68 H 0.43462 0.07713 -0.16134
 H69 H 0.47423 0.01822 0.03007
 H70 H 0.54461 -0.07623 -0.14991
 H71 H 0.55395 -0.14500 -0.07925
 H72 H 0.48027 -0.17200 0.09979
 H73 H 0.48196 -0.10679 0.16576
 H74 H 0.52499 0.15795 0.08424
 H75 H 0.47462 -0.03860 -0.02790
 H76 H 0.53761 0.09112 0.15506
 C77 C -0.07728 0.52353 0.87534
 C78 C -0.10970 0.53335 0.90766
 C79 C -0.08803 0.52478 0.95401
 N80 N -0.04401 0.50879 0.95092
 C81 C -0.03735 0.50795 0.90288
 C82 C -0.11032 0.52829 0.99805
 C83 C -0.08476 0.52653 1.04470
 C84 C -0.10668 0.52442 1.08864
 C85 C -0.06972 0.52577 1.12499
 C86 C -0.02593 0.52876 1.10257
 N87 N -0.03545 0.53009 1.05357
 C88 C 0.02126 0.53334 1.12749
 C89 C 0.06504 0.53135 1.10442
 C90 C 0.11201 0.54356 1.12533
 C91 C 0.14379 0.53366 1.09240
 C92 C 0.11531 0.51427 1.05299
 N93 N 0.06721 0.51311 1.06039
 C94 C 0.13348 0.49456 1.01281
 C95 C 0.10296 0.48039 0.97121
 C96 C 0.11496 0.45036 0.93660
 C97 C 0.07811 0.44934 0.90002
 C98 C 0.04444 0.47852 0.91338
 N99 N 0.05971 0.49713 0.95693
 C100 C 0.00283 0.49017 0.88381
 H101 H -0.08299 0.52693 0.83604
 H102 H -0.14521 0.54526 0.89776
 H103 H 0.04484 0.52469 0.97269
 H104 H -0.14525 0.52316 1.09427
 H105 H -0.07481 0.52574 1.16354
 H106 H 0.12266 0.55800 1.16061
 H107 H 0.18337 0.53954 1.09744
 H108 H 0.07649 0.42970 0.86707
 H109 H -0.00966 0.53784 1.02771
 H110 H 0.14723 0.43159 0.93731
 C111 C 0.09504 -0.07758 0.45348
 C112 C 0.05704 -0.11480 0.44895
 C113 C 0.01790 -0.09990 0.47041
 N114 N 0.03047 -0.05467 0.48722
 C115 C 0.07764 -0.04110 0.47713
 C116 C -0.02665 -0.12963 0.47941
 C117 C -0.06878 -0.10849 0.48966
 C118 C -0.11125 -0.13382 0.50738
 C119 C -0.14451 -0.10049 0.50748
 C120 C -0.12098 -0.05537 0.49127
 N121 N -0.07505 -0.06062 0.48027
 C122 C -0.14277 -0.01148 0.48333
 C123 C -0.11501 0.03544 0.48067
 C124 C -0.13420 0.07931 0.46901
 C125 C -0.09616 0.11619 0.47512
 C126 C -0.05507 0.09376 0.49098
 N127 N -0.06667 0.04439 0.49431
 C128 C -0.00876 0.11873 0.50586
 C129 C 0.03368 0.09447 0.51363
 C130 C 0.07706 0.11277 0.53859
 C131 C 0.10983 0.07947 0.53531
 C132 C 0.08550 0.04180 0.50844
 N133 N 0.03920 0.05126 0.49532
 C134 C 0.10654 0.00112 0.49440
 H135 H 0.13158 -0.07770 0.44159
 H136 H 0.05839 -0.14929 0.43270
 H137 H 0.01454 0.03184 0.47096
 H138 H -0.11804 -0.17240 0.51860
 H139 H -0.18172 -0.10877 0.51830
 H140 H -0.17182 0.08450 0.45812
 H141 H -0.09873 0.15509 0.46919
 H142 H 0.14728 0.08272 0.55086
 H143 H -0.05150 -0.03407 0.46208
 H144 H 0.08442 0.14662 0.55720
 C145 C -0.32857 0.45521 1.02765
 C146 C -0.34824 0.49647 1.00555
 C147 C -0.31686 0.53625 0.98645
 C148 C -0.26593 0.53494 0.98974
 C149 C -0.24654 0.49244 1.01050
 C150 C -0.27813 0.45286 1.02947
 C151 C -0.19587 0.49035 1.01220
 C152 C -0.16403 0.53096 0.99547
 C153 C -0.18332 0.57369 0.97656
 C154 C -0.23397 0.57542 0.97297
 H155 H -0.33207 0.56837 0.96987
 H156 H -0.26383 0.42022 1.04588
 H157 H -0.18094 0.45746 1.02714
 H158 H -0.24811 0.60847 0.95746
 H159 H -0.35246 0.42426 1.04243
 H160 H -0.15909 0.60542 0.96394
 C161 C 0.34392 0.51625 0.94161
 C162 C 0.36731 0.49613 0.98419
 C163 C 0.33863 0.47767 1.02319
 C164 C 0.28782 0.47966 1.01985
 C165 C 0.26546 0.50245 0.97800
 C166 C 0.29373 0.52020 0.93895
 C167 C 0.21525 0.50727 0.97602
 C168 C 0.18653 0.48776 1.01447
 C169 C 0.20860 0.46242 1.05453
 C170 C 0.25896 0.45926 1.05768
 H171 H 0.35559 0.46107 1.05594
 H172 H 0.27704 0.53721 0.90631
 H173 H 0.19846 0.52642 0.94471
 H174 H 0.27529 0.44080 1.08965
 H175 H 0.36468 0.53068 0.91083
 H176 H 0.18693 0.44601 1.08397
 C177 C 0.05589 -0.32829 0.52400
 C178 C 0.01549 -0.35942 0.50461
 C179 C -0.02653 -0.33855 0.48514
 C180 C -0.02734 -0.28740 0.48377
 C181 C 0.01254 -0.25725 0.50566
 C182 C 0.05384 -0.27805 0.52581
 C183 C 0.01112 -0.20654 0.50606
 C184 C -0.02764 -0.18438 0.48116
 C185 C -0.06615 -0.21449 0.45748
 C186 C -0.06668 -0.26561 0.45992
 H187 H -0.05761 -0.36168 0.46905
 H188 H 0.08503 -0.25529 0.54210
 H189 H 0.04096 -0.18401 0.52480
 H190 H -0.09722 -0.28796 0.44207
 H191 H 0.08872 -0.34298 0.53942
 H192 H -0.09593 -0.19844 0.43713
 C193 C 0.06503 0.34126 0.47914
 C194 C 0.03040 0.35816 0.50669
 C195 C -0.00321 0.32393 0.53089
 C196 C -0.00281 0.27334 0.52697
 C197 C 0.03078 0.25674 0.49743
 C198 C 0.06492 0.29099 0.47414
 C199 C 0.02914 0.20627 0.49112
 C200 C -0.00497 0.17207 0.51481
 C201 C -0.03648 0.18889 0.54602
 C202 C -0.03584 0.23908 0.55161
 H203 H -0.02971 0.33672 0.55264
 H204 H 0.09119 0.27893 0.45166
 H205 H 0.05376 0.19357 0.46721
 H206 H -0.06141 0.25109 0.57490
 H207 H 0.09115 0.36707 0.46010
 H208 H -0.06241 0.16306 0.56528
 C209 C 0.51326 0.06522 -0.34095
 C210 C 0.49177 0.02105 -0.36092
 C211 C 0.47269 -0.01791 -0.32922
 C212 C 0.47512 -0.01302 -0.27880
 C213 C 0.49857 0.03071 -0.25907
 C214 C 0.51727 0.06970 -0.29048
 C215 C 0.50302 0.03451 -0.20830
 C216 C 0.48281 -0.00429 -0.17722
 C217 C 0.45768 -0.04667 -0.19756
 C218 C 0.45444 -0.05129 -0.24780
 H219 H 0.45518 -0.05200 -0.34370
 H220 H 0.53496 0.10369 -0.27604
 H221 H 0.52247 0.06732 -0.19290
 H222 H 0.43577 -0.08482 -0.26239
 H223 H 0.52819 0.09601 -0.36417
 H224 H 0.44129 -0.07668 -0.17427
 C225 C 0.43366 -0.03096 0.33475
 C226 C 0.47788 -0.01204 0.35901
 C227 C 0.51946 0.00223 0.33270
 C228 C 0.51690 -0.00212 0.28212
 C229 C 0.47166 -0.01931 0.25746
 C230 C 0.43036 -0.03400 0.28415
 C231 C 0.46850 -0.02113 0.20655
 C232 C 0.51027 -0.00752 0.18024
 C233 C 0.55547 0.00728 0.20520
 C234 C 0.55867 0.01062 0.25572
 H235 H 0.55375 0.01634 0.35171
 H236 H 0.39556 -0.04765 0.26591
 H237 H 0.43366 -0.03291 0.18725
 H238 H 0.59371 0.02329 0.27410
 H239 H 0.40137 -0.04208 0.35485
 H240 H 0.58802 0.01744 0.18527
 C241 C 0.55058 -0.34187 0.05638
 C242 C 0.52042 -0.36293 0.01803
 C243 C 0.49309 -0.33329 -0.01383
 C244 C 0.49582 -0.28291 -0.00779
 C245 C 0.52757 -0.26135 0.02976
 C246 C 0.55465 -0.29123 0.06183
 C247 C 0.53161 -0.21039 0.03437
 C248 C 0.50294 -0.18127 0.00297
 C249 C 0.47043 -0.20359 -0.03310
 C250 C 0.46728 -0.25381 -0.03881
 H251 H 0.46918 -0.34965 -0.04304
 H252 H 0.57887 -0.27547 0.09107
 H253 H 0.55701 -0.19336 0.06206
 H254 H 0.44245 -0.26990 -0.06745
 H255 H 0.57185 -0.36440 0.08129
 H256 H 0.44780 -0.18178 -0.05737
 C257 C 0.52104 0.33866 -0.06383
 C258 C 0.49552 0.35537 -0.02730
 C259 C 0.46863 0.32120 0.00370
 C260 C 0.46844 0.27072 -0.00064
 C261 C 0.49627 0.25415 -0.03587
 C262 C 0.52176 0.28837 -0.06784
 C263 C 0.49912 0.20377 -0.03765
 C264 C 0.47381 0.16973 -0.00523
 C265 C 0.44420 0.18643 0.02787
 C266 C 0.44186 0.23656 0.03046
 H267 H 0.44841 0.33397 0.03160
 H268 H 0.54294 0.27630 -0.09531
 H269 H 0.52201 0.19104 -0.06327
 H270 H 0.41992 0.24863 0.05729
 H271 H 0.54202 0.36454 -0.08800
 H272 H 0.42404 0.16059 0.05272
 C273 C -0.35282 -0.02892 0.55379
 C274 C -0.37609 -0.01531 0.50885
 C275 C -0.34915 -0.00645 0.46734
 C276 C -0.29880 -0.01058 0.47073
 C277 C -0.27496 -0.02237 0.51655
 C278 C -0.30240 -0.03199 0.55776
 C279 C -0.22404 -0.02349 0.52044
 C280 C -0.19701 -0.01429 0.47891
 C281 C -0.22123 -0.00468 0.43330
 C282 C -0.27171 -0.00240 0.42925
 H283 H -0.36744 0.00379 0.43258
 H284 H -0.28483 -0.04140 0.59305
 H285 H -0.20524 -0.03079 0.55568
 H286 H -0.28945 0.00628 0.39384
 H287 H -0.37344 -0.03575 0.58603
 H288 H -0.20065 0.00250 0.40105
 C289 C 0.32766 0.06495 0.46615
 C290 C 0.34513 0.02432 0.49226
 C291 C 0.31189 -0.01100 0.51554
 C292 C 0.26170 -0.00650 0.51213
 C293 C 0.24405 0.03360 0.48449
 C294 C 0.27743 0.06939 0.46201
 C295 C 0.19337 0.03667 0.47933
 C296 C 0.16046 0.00032 0.50186
 C297 C 0.17872 -0.03829 0.53067
 C298 C 0.22884 -0.04186 0.53553
 H299 H 0.32509 -0.04214 0.53634
 H300 H 0.26466 0.10052 0.44090
 H301 H 0.17940 0.06661 0.45721
 H302 H 0.24185 -0.07255 0.55721
 H303 H 0.35270 0.09263 0.44798
 H304 H 0.15386 -0.06625 0.54875
 C305 C -0.00775 0.45935 1.34150
 C306 C 0.01482 0.50168 1.36356
 C307 C 0.03449 0.54230 1.33455
 C308 C 0.03107 0.54077 1.28351
 C309 C 0.00965 0.49730 1.26167
 C310 C -0.00968 0.45686 1.29096
 C311 C 0.00754 0.49511 1.21090
 C312 C 0.02455 0.53641 1.18134
 C313 C 0.04425 0.57999 1.20305
 C314 C 0.04821 0.58195 1.25383
 H315 H 0.05143 0.57521 1.35166
 H316 H -0.02658 0.42346 1.27476
 H317 H -0.00802 0.46156 1.19409
 H318 H 0.06424 0.61572 1.26985
 H319 H -0.02297 0.42778 1.36358
 H320 H 0.05708 0.61225 1.18061
 C321 C 0.07283 0.52493 0.67455
 C322 C 0.03221 0.49835 0.65040
 C323 C -0.00537 0.47346 0.67777
 C324 C -0.00261 0.47553 0.72873
 C325 C 0.03763 0.50383 0.75242
 C326 C 0.07532 0.52802 0.72506
 C327 C 0.03926 0.50794 0.80298
 C328 C 0.00165 0.48344 0.83048
 C329 C -0.03707 0.45359 0.80698
 C330 C -0.03949 0.45010 0.75644
 H331 H -0.03658 0.45243 0.65945
 H332 H 0.10656 0.54960 0.74268
 H333 H 0.06942 0.53071 0.82101
 H334 H -0.07030 0.42774 0.73902
 H335 H 0.10213 0.54446 0.65414
 H336 H -0.06592 0.43376 0.82775
   
