data_POSCAR
  _audit_creation_date              2014-09-24
  _audit_creation_method            'ToBaCCo'
  _symmetry_space_group_name_H-M    'P1'
  _symmetry_Int_Tables_number       1
  _symmetry_cell_setting            triclinic
  loop_
  _symmetry_equiv_pos_as_xyz
 x,y,z
_cell_length_a 44.0919
_cell_length_b 41.4447
_cell_length_c 31.4834
_cell_angle_alpha 88.934100
_cell_angle_beta 90.181900
_cell_angle_gamma 90.004900
loop_
  _atom_site_label
  _atom_site_type_symbol
  _atom_site_fract_x
  _atom_site_fract_y
  _atom_site_fract_z
C1 C 1.27507 0.21240 0.26350
 C2 C 1.25083 0.23143 0.24870
 C3 C 1.22606 0.21671 0.22897
 C4 C 1.22582 0.18339 0.22232
 C5 C 1.25055 0.16457 0.23658
 C6 C 1.27495 0.17870 0.25832
 C7 C 1.25139 0.26676 0.25414
 C8 C 1.27674 0.28483 0.24122
 C9 C 1.27771 0.31848 0.24688
 C10 C 1.25323 0.33347 0.26717
 C11 C 1.22747 0.31563 0.27956
 C12 C 1.22667 0.28239 0.27248
 H13 H 1.29404 0.22428 0.27846
 H14 H 1.20716 0.23139 0.21790
 H15 H 1.29567 0.27224 0.22738
 H16 H 1.20699 0.26844 0.28219
 H17 H 1.25014 0.13865 0.23300
 H18 H 1.25365 0.35936 0.27111
 C19 C 0.77839 -0.28507 0.26457
 C20 C 0.75451 -0.26569 0.24932
 C21 C 0.72988 -0.27997 0.22875
 C22 C 0.72933 -0.31319 0.22186
 C23 C 0.75367 -0.33238 0.23638
 C24 C 0.77792 -0.31874 0.25892
 C25 C 0.75496 -0.23045 0.25521
 C26 C 0.78003 -0.21206 0.24213
 C27 C 0.78002 -0.17844 0.24666
 C28 C 0.75510 -0.16334 0.26544
 C29 C 0.72966 -0.18156 0.27822
 C30 C 0.72977 -0.21501 0.27269
 H31 H 0.79726 -0.27357 0.28030
 H32 H 0.71124 -0.26502 0.21740
 H33 H 0.79930 -0.22384 0.22779
 H34 H 0.71025 -0.22921 0.28244
 H35 H 0.75296 -0.35828 0.23255
 H36 H 0.75511 -0.13733 0.26793
 C37 C 0.77364 0.21928 -0.24393
 C38 C 0.74735 0.23577 -0.25705
 C39 C 0.72175 0.21809 -0.26917
 C40 C 0.72224 0.18431 -0.26866
 C41 C 0.74849 0.16803 -0.25455
 C42 C 0.77419 0.18549 -0.24168
 C43 C 0.74617 0.27143 -0.25636
 C44 C 0.77026 0.29002 -0.27241
 C45 C 0.76974 0.32396 -0.27007
 C46 C 0.74489 0.33887 -0.25056
 C47 C 0.72031 0.32046 -0.23528
 C48 C 0.72111 0.28687 -0.23857
 H49 H 0.79329 0.23280 -0.23361
 H50 H 0.70148 0.23071 -0.27980
 H51 H 0.78953 0.27768 -0.28573
 H52 H 0.70246 0.27260 -0.22603
 H53 H 0.74889 0.14195 -0.25332
 H54 H 0.74416 0.36494 -0.24918
 C55 C 1.26700 -0.28491 -0.22376
 C56 C 1.24306 -0.27013 -0.24615
 C57 C 1.21865 -0.28892 -0.25984
 C58 C 1.21777 -0.32209 -0.25058
 C59 C 1.24118 -0.33645 -0.22675
 C60 C 1.26633 -0.31806 -0.21347
 C61 C 1.24305 -0.23482 -0.25375
 C62 C 1.26914 -0.21899 -0.26864
 C63 C 1.26936 -0.18541 -0.27487
 C64 C 1.24348 -0.16743 -0.26426
 C65 C 1.21737 -0.18305 -0.24872
 C66 C 1.21711 -0.21672 -0.24457
 H67 H 1.28583 -0.27022 -0.21317
 H68 H 1.20024 -0.27767 -0.27754
 H69 H 1.28915 -0.23294 -0.27622
 H70 H 1.19709 -0.22877 -0.23220
 H71 H 1.23992 -0.36214 -0.22059
 H72 H 1.24366 -0.14142 -0.26772
 C73 C 0.21936 0.27948 0.73842
 C74 C 0.23448 0.25112 0.75183
 C75 C 0.21749 0.22404 0.76542
 C76 C 0.18552 0.22522 0.76596
 C77 C 0.17108 0.25373 0.75216
 C78 C 0.18756 0.28082 0.73853
 C79 C 0.26810 0.25008 0.75306
 C80 C 0.28435 0.27422 0.77437
 C81 C 0.31625 0.27300 0.77703
 C82 C 0.33141 0.24750 0.75732
 C83 C 0.31571 0.22333 0.73579
 C84 C 0.28388 0.22462 0.73397
 H85 H 0.23238 0.30045 0.72854
 H86 H 0.22949 0.20253 0.77571
 H87 H 0.27180 0.29339 0.78910
 H88 H 0.27125 0.20592 0.71817
 H89 H 0.14649 0.25512 0.75236
 H90 H 0.35598 0.24624 0.75893
 C91 C 0.71407 0.77300 0.73354
 C92 C 0.73162 0.74755 0.75065
 C93 C 0.71720 0.72075 0.76964
 C94 C 0.68544 0.71867 0.77125
 C95 C 0.66825 0.74470 0.75447
 C96 C 0.68213 0.77183 0.73515
 C97 C 0.76517 0.74863 0.74814
 C98 C 0.78113 0.77584 0.76237
 C99 C 0.81296 0.77666 0.76062
 C100 C 0.82854 0.75033 0.74397
 C101 C 0.81311 0.72309 0.72953
 C102 C 0.78130 0.72227 0.73184
 H103 H 0.72571 0.79330 0.71902
 H104 H 0.73091 0.70124 0.78280
 H105 H 0.76871 0.79613 0.77471
 H106 H 0.76901 0.70124 0.72137
 H107 H 0.64382 0.74458 0.75700
 H108 H 0.85312 0.75095 0.74252
 C109 C 0.72166 0.27547 0.23416
 C110 C 0.73742 0.24775 0.24855
 C111 C 0.72095 0.22060 0.26314
 C112 C 0.68908 0.22114 0.26360
 C113 C 0.67389 0.24891 0.24900
 C114 C 0.68980 0.27611 0.23423
 C115 C 0.77108 0.24724 0.24863
 C116 C 0.78754 0.27327 0.26538
 C117 C 0.81942 0.27277 0.26597
 C118 C 0.83459 0.24619 0.24924
 C119 C 0.81871 0.22016 0.23217
 C120 C 0.78684 0.22070 0.23212
 H121 H 0.73426 0.29644 0.22325
 H122 H 0.73300 0.19923 0.27400
 H123 H 0.77542 0.29372 0.27779
 H124 H 0.77422 0.20063 0.21949
 H125 H 0.64929 0.24939 0.24925
 H126 H 0.85919 0.24576 0.24948
 C127 C 0.21594 0.78125 0.23731
 C128 C 0.23117 0.75403 0.25408
 C129 C 0.21456 0.72844 0.27246
 C130 C 0.18271 0.73001 0.27476
 C131 C 0.16800 0.75752 0.25808
 C132 C 0.18408 0.78308 0.23882
 C133 C 0.26460 0.75204 0.25169
 C134 C 0.28272 0.77675 0.26824
 C135 C 0.31454 0.77498 0.26598
 C136 C 0.32783 0.74870 0.24540
 C137 C 0.30990 0.72417 0.22776
 C138 C 0.27834 0.72564 0.23212
 H139 H 0.22920 0.80059 0.22324
 H140 H 0.22680 0.70763 0.28463
 H141 H 0.27174 0.79708 0.28274
 H142 H 0.26432 0.70682 0.21885
 H143 H 0.14343 0.75883 0.25951
 H144 H 0.35231 0.74718 0.24381
 O145 O 1.04332 0.05456 0.06874
 O146 O 1.07618 0.02589 0.02739
 C147 C 1.07044 0.04634 0.05687
 O148 O 0.95909 -0.06094 0.06932
 O149 O 0.92460 -0.03083 0.03064
 C150 C 0.93156 -0.05310 0.05845
 O151 O 1.04394 -0.05650 0.07150
 O152 O 1.07660 -0.02810 0.02826
 C153 C 1.07099 -0.04836 0.05917
 O154 O 0.95831 0.05711 0.06680
 O155 O 0.92431 0.02624 0.03002
 C156 C 0.93088 0.04869 0.05679
 Zr157 Zr 1.00037 0.03933 0.04563
 O158 O 0.99911 0.04049 0.11276
 O159 O 1.00120 0.09022 0.04012
 Zr160 Zr 1.00114 -0.04203 0.04779
 O161 O 1.00061 -0.03916 0.11473
 O162 O 1.00423 -0.09299 0.05012
 O163 O 1.02794 -0.00105 0.05419
 O164 O 0.97433 -0.00172 0.05518
 O165 O 0.95518 0.05692 -0.08074
 O166 O 0.92290 0.02502 -0.04114
 C167 C 0.92825 0.04758 -0.06914
 O168 O 1.04218 -0.05590 -0.08510
 O169 O 1.07573 -0.02646 -0.04557
 C170 C 1.06945 -0.04686 -0.07498
 O171 O 0.95748 -0.06124 -0.07832
 O172 O 0.92393 -0.03130 -0.03982
 C173 C 0.93019 -0.05352 -0.06696
 O174 O 1.04037 0.05541 -0.08671
 O175 O 1.07493 0.02690 -0.04628
 C176 C 1.06797 0.04766 -0.07606
 Zr177 Zr 0.99835 0.03931 -0.06151
 O178 O 0.99394 0.03906 -0.12850
 O179 O 1.00030 0.09034 -0.06254
 Zr180 Zr 0.99973 -0.04224 -0.05936
 O181 O 0.99566 -0.04436 -0.12624
 O182 O 1.00225 -0.09304 -0.05340
 Zr183 Zr 1.04504 -0.00076 -0.00817
 Zr184 Zr 0.95459 -0.00216 -0.00568
 O185 O 0.97256 -0.00195 -0.06753
 O186 O 1.02588 -0.00097 -0.06960
 O187 O 0.97216 0.04512 -0.00724
 O188 O 1.02699 -0.04770 -0.00637
 O189 O 1.02575 0.04565 -0.00878
 O190 O 0.97346 -0.04884 -0.00501
 H191 H 0.96099 -0.00189 0.08046
 H192 H 1.04103 -0.06636 -0.00642
 H193 H 0.95855 -0.00225 -0.09219
 H194 H 1.03929 0.06474 -0.00940
 H195 H 0.99091 -0.10115 0.02736
 H196 H 1.00225 -0.10127 -0.08275
 H197 H 1.00941 -0.02780 -0.13842
 H198 H 1.01145 0.02708 -0.13984
 H199 H 0.98641 0.09792 -0.04020
 H200 H 1.00211 0.09827 0.06954
 H201 H 1.01164 0.02224 0.12338
 H202 H 1.00094 -0.06172 0.12574
 O203 O 1.03967 0.55766 0.57857
 O204 O 1.07427 0.53050 0.53815
 C205 C 1.06723 0.55077 0.56735
 O206 O 0.95823 0.44014 0.57600
 O207 O 0.92416 0.46904 0.53516
 C208 C 0.93090 0.44699 0.56333
 O209 O 1.04270 0.44637 0.58168
 O210 O 1.07579 0.47571 0.54021
 C211 C 1.06989 0.45498 0.57042
 O212 O 0.95491 0.55840 0.57259
 O213 O 0.92217 0.52633 0.53533
 C214 C 0.92783 0.54919 0.56193
 Zr215 Zr 0.99778 0.54150 0.55343
 O216 O 0.99475 0.54296 0.62043
 O217 O 0.99784 0.59239 0.54766
 Zr218 Zr 1.00008 0.46040 0.55630
 O219 O 0.99801 0.46411 0.62308
 O220 O 1.00387 0.40952 0.55979
 O221 O 1.02604 0.50183 0.56367
 O222 O 0.97222 0.50005 0.56204
 O223 O 0.95624 0.55825 0.42462
 O224 O 0.92307 0.52732 0.46400
 C225 C 0.92912 0.54970 0.43598
 O226 O 1.04451 0.44580 0.42661
 O227 O 1.07658 0.47646 0.46696
 C228 C 1.07138 0.45531 0.43810
 O229 O 0.95949 0.43977 0.42866
 O230 O 0.92443 0.47013 0.46403
 C231 C 0.93177 0.44745 0.43805
 O232 O 1.04064 0.55784 0.42271
 O233 O 1.07475 0.53022 0.46479
 C234 C 1.06808 0.55073 0.43459
 Zr235 Zr 0.99865 0.54086 0.44631
 O236 O 0.99587 0.53963 0.37918
 O237 O 0.99992 0.59192 0.44444
 Zr238 Zr 1.00108 0.45958 0.44920
 O239 O 0.99876 0.45787 0.38211
 O240 O 1.00397 0.40879 0.45491
 Zr241 Zr 1.04464 0.50212 0.50214
 Zr242 Zr 0.95385 0.49915 0.50032
 O243 O 0.97341 0.49935 0.43943
 O244 O 1.02702 0.50111 0.43987
 O245 O 0.97094 0.54663 0.49919
 O246 O 1.02716 0.45491 0.50347
 O247 O 1.02446 0.54808 0.50023
 O248 O 0.97367 0.45286 0.50232
 H249 H 0.95832 0.49953 0.58672
 H250 H 1.04131 0.43634 0.50439
 H251 H 0.95997 0.49891 0.41416
 H252 H 1.03754 0.56752 0.49991
 H253 H 0.99251 0.40100 0.53527
 H254 H 1.00473 0.40065 0.42554
 H255 H 1.01435 0.47280 0.37071
 H256 H 1.01386 0.52788 0.36891
 H257 H 0.98612 0.59947 0.46690
 H258 H 0.99765 0.60057 0.57704
 H259 H 1.00769 0.52533 0.63191
 H260 H 0.99861 0.44171 0.63460
 O261 O 0.54149 0.05451 0.57885
 O262 O 0.57506 0.02508 0.53961
 C263 C 0.56877 0.04542 0.56898
 O264 O 0.45385 -0.05797 0.57116
 O265 O 0.42203 -0.02568 0.53109
 C266 C 0.42705 -0.04848 0.55890
 O267 O 0.53875 -0.05715 0.57944
 O268 O 0.57380 -0.02881 0.53996
 C269 C 0.56648 -0.04980 0.56932
 O270 O 0.45680 0.06015 0.57054
 O271 O 0.42324 0.03021 0.53169
 C272 C 0.42950 0.05249 0.55890
 Zr273 Zr 0.49907 0.04109 0.55220
 O274 O 0.49527 0.04210 0.61913
 O275 O 0.50168 0.09194 0.54737
 Zr276 Zr 0.49730 -0.04028 0.55335
 O277 O 0.49452 -0.03752 0.62018
 O278 O 0.49846 -0.09131 0.55556
 O279 O 0.52506 -0.00032 0.56235
 O280 O 0.47155 0.00094 0.55922
 O281 O 0.45925 0.06086 0.42267
 O282 O 0.42445 0.03091 0.46069
 C283 C 0.43164 0.05327 0.43323
 O284 O 0.54323 -0.05510 0.42413
 O285 O 0.57583 -0.02653 0.46621
 C286 C 0.57027 -0.04682 0.43649
 O287 O 0.45817 -0.05778 0.42463
 O288 O 0.42397 -0.02664 0.46036
 C289 C 0.43069 -0.04938 0.43406
 O290 O 0.54410 0.05657 0.42279
 O291 O 0.57644 0.02726 0.46576
 C292 C 0.57107 0.04817 0.43543
 Zr293 Zr 0.50106 0.04170 0.44501
 O294 O 0.49914 0.04185 0.37779
 O295 O 0.50458 0.09263 0.44471
 Zr296 Zr 0.50008 -0.03980 0.44629
 O297 O 0.49834 -0.04070 0.37913
 O298 O 0.50100 -0.09073 0.45118
 Zr299 Zr 0.54455 -0.00017 0.50137
 Zr300 Zr 0.45409 0.00169 0.49694
 O301 O 0.47426 0.00144 0.43653
 O302 O 0.52778 0.00058 0.43858
 O303 O 0.47312 0.04827 0.49736
 O304 O 0.52504 -0.04646 0.50118
 O305 O 0.52661 0.04683 0.49982
 O306 O 0.47151 -0.04566 0.49847
 H307 H 0.45741 0.00106 0.58360
 H308 H 0.53841 -0.06569 0.50189
 H309 H 0.46099 0.00176 0.41107
 H310 H 0.54069 0.06546 0.50047
 H311 H 0.48651 -0.09882 0.53101
 H312 H 0.50193 -0.09859 0.42167
 H313 H 0.51443 -0.02612 0.36833
 H314 H 0.51637 0.02882 0.36767
 H315 H 0.49005 0.10060 0.46599
 H316 H 0.50160 0.09980 0.57691
 H317 H 0.50658 0.02321 0.63053
 H318 H 0.49357 -0.06010 0.63100
 O319 O 0.54421 0.55639 0.07851
 O320 O 0.57611 0.52781 0.03567
 C321 C 0.57101 0.54853 0.06500
 O322 O 0.46232 0.43872 0.08800
 O323 O 0.42615 0.46749 0.05089
 C324 C 0.43438 0.44552 0.07833
 O325 O 0.54655 0.44516 0.08397
 O326 O 0.57740 0.47377 0.03832
 C327 C 0.57306 0.45345 0.06964
 O328 O 0.45944 0.55879 0.08020
 O329 O 0.42421 0.52637 0.04818
 C330 C 0.43172 0.55056 0.07187
 Zr331 Zr 0.50077 0.54000 0.05882
 O332 O 0.50101 0.54125 0.12600
 O333 O 0.50135 0.59091 0.05319
 Zr334 Zr 0.50280 0.45895 0.06317
 O335 O 0.50448 0.46382 0.12984
 O336 O 0.50679 0.40813 0.06741
 O337 O 0.52929 0.50037 0.06658
 O338 O 0.47541 0.49883 0.07126
 O339 O 0.45084 0.55506 -0.06387
 O340 O 0.42033 0.52287 -0.02191
 C341 C 0.42446 0.54537 -0.05035
 O342 O 0.53984 0.44323 -0.07144
 O343 O 0.57399 0.47439 -0.03533
 C344 C 0.56722 0.45312 -0.06333
 O345 O 0.45551 0.43677 -0.05917
 O346 O 0.42236 0.46718 -0.02057
 C347 C 0.42836 0.44434 -0.04705
 O348 O 0.53515 0.55486 -0.07674
 O349 O 0.57200 0.52831 -0.03819
 C350 C 0.56328 0.54828 -0.06813
 Zr351 Zr 0.49494 0.53824 -0.04780
 O352 O 0.48801 0.53692 -0.11434
 O353 O 0.49598 0.58928 -0.05045
 Zr354 Zr 0.49791 0.45695 -0.04379
 O355 O 0.49159 0.45432 -0.11032
 O356 O 0.50136 0.40623 -0.03735
 Zr357 Zr 0.54425 0.50005 0.00312
 Zr358 Zr 0.45369 0.49696 0.01185
 O359 O 0.46968 0.49651 -0.05109
 O360 O 0.52297 0.49849 -0.05685
 O361 O 0.47071 0.54442 0.00785
 O362 O 0.52691 0.45286 0.00749
 O363 O 0.52408 0.54600 0.00263
 O364 O 0.47354 0.45073 0.01240
 H365 H 0.46265 0.49900 0.09712
 H366 H 0.54111 0.43434 0.00700
 H367 H 0.45493 0.49570 -0.07484
 H368 H 0.53718 0.56538 0.00057
 H369 H 0.49434 0.39929 0.04415
 H370 H 0.50047 0.39776 -0.06656
 H371 H 0.50609 0.46952 -0.12381
 H372 H 0.50484 0.52439 -0.12656
 H373 H 0.48375 0.59697 -0.02636
 H374 H 0.50301 0.59908 0.08251
 H375 H 0.51610 0.52516 0.13609
 H376 H 0.50587 0.44161 0.14192
 C377 C 1.19878 0.16895 0.20224
 C378 C 1.19936 0.13970 0.18110
 C379 C 1.17195 0.12582 0.16204
 N380 N 1.17426 0.09922 0.13785
 N381 N 1.14969 0.08633 0.12028
 C382 C 1.12185 0.09947 0.12638
 N383 N 1.11949 0.12597 0.15081
 N384 N 1.14410 0.13894 0.16828
 C385 C 1.09463 0.08549 0.10680
 C386 C 1.09686 0.06073 0.07770
 H387 H 1.22052 0.12693 0.17711
 H388 H 1.07263 0.09528 0.11472
 H389 H 1.17779 0.18253 0.20285
 H390 H 1.11904 0.05176 0.06904
 C391 C 1.19257 0.65791 0.73405
 C392 C 1.18181 0.66132 0.69262
 C393 C 1.15781 0.64060 0.67594
 N394 N 1.15583 0.63579 0.63356
 N395 N 1.13413 0.61709 0.61785
 C396 C 1.11342 0.60284 0.64393
 N397 N 1.11514 0.60798 0.68630
 N398 N 1.13710 0.62636 0.70209
 C399 C 1.08901 0.58296 0.62653
 C400 C 1.09230 0.56780 0.58775
 H401 H 1.19272 0.67824 0.67090
 H402 H 1.06836 0.57985 0.64473
 H403 H 1.18436 0.63829 0.75413
 H404 H 1.11402 0.56845 0.57174
 C405 C 0.69472 0.16704 0.71753
 C406 C 0.69552 0.13671 0.69922
 C407 C 0.66824 0.12201 0.68093
 N408 N 0.67087 0.09533 0.65695
 N409 N 0.64656 0.08253 0.63861
 C410 C 0.61868 0.09586 0.64367
 N411 N 0.61598 0.12231 0.66809
 N412 N 0.64033 0.13520 0.68632
 C413 C 0.59188 0.08252 0.62236
 C414 C 0.59471 0.05861 0.59217
 H415 H 0.71693 0.12441 0.69514
 H416 H 0.56978 0.09244 0.62946
 H417 H 0.67336 0.17993 0.71838
 H418 H 0.61700 0.04947 0.58443
 C419 C 0.70217 0.67281 0.20176
 C420 C 0.70242 0.64357 0.18070
 C421 C 0.67466 0.62964 0.16293
 N422 N 0.67643 0.60293 0.13890
 N423 N 0.65145 0.58984 0.12280
 C424 C 0.62376 0.60290 0.13029
 N425 N 0.62195 0.62951 0.15455
 N426 N 0.64697 0.64268 0.17055
 C427 C 0.59613 0.58858 0.11252
 C428 C 0.59781 0.56363 0.08369
 H429 H 0.72349 0.63072 0.17617
 H430 H 0.57430 0.59814 0.12170
 H431 H 0.68127 0.68654 0.20273
 H432 H 0.61980 0.55491 0.07375
 C433 C 0.80542 -0.15874 0.23045
 C434 C 0.81665 -0.16311 0.18967
 C435 C 0.84055 -0.14251 0.17152
 N436 N 0.84261 -0.13854 0.12878
 N437 N 0.86430 -0.12011 0.11174
 C438 C 0.88495 -0.10532 0.13685
 N439 N 0.88313 -0.10961 0.17961
 N440 N 0.86118 -0.12770 0.19669
 C441 C 0.90947 -0.08579 0.11822
 C442 C 0.90645 -0.07088 0.07843
 H443 H 0.80612 -0.18076 0.16937
 H444 H 0.92997 -0.08230 0.13664
 H445 H 0.81313 -0.13847 0.24883
 H446 H 0.88485 -0.07157 0.06197
 C447 C 0.79331 0.34340 0.71384
 C448 C 0.81428 0.33317 0.68380
 C449 C 0.83818 0.35476 0.66803
 N450 N 0.84656 0.35393 0.62667
 N451 N 0.86823 0.37346 0.61193
 C452 C 0.88262 0.39412 0.63821
 N453 N 0.87460 0.39457 0.67976
 N454 N 0.85255 0.37541 0.69436
 C455 C 0.90690 0.41513 0.62220
 C456 C 0.90580 0.42807 0.58118
 H457 H 0.81142 0.31042 0.66800
 H458 H 0.92528 0.42151 0.64337
 H459 H 0.79409 0.36854 0.72282
 H460 H 0.88561 0.42493 0.56198
 C461 C 0.29715 -0.16997 0.70826
 C462 C 0.29669 -0.14134 0.68434
 C463 C 0.32428 -0.12759 0.66523
 N464 N 0.32209 -0.10190 0.63812
 N465 N 0.34679 -0.08941 0.61999
 C466 C 0.37462 -0.10211 0.62836
 N467 N 0.37685 -0.12769 0.65570
 N468 N 0.35212 -0.14025 0.67375
 C469 C 0.40201 -0.08842 0.60852
 C470 C 0.40020 -0.06379 0.57792
 H471 H 0.27537 -0.12940 0.67739
 H472 H 0.42392 -0.09787 0.61824
 H473 H 0.31839 -0.18287 0.71211
 H474 H 0.37818 -0.05486 0.56787
 C475 C 0.30213 0.33762 0.23263
 C476 C 0.32264 0.32807 0.20154
 C477 C 0.34632 0.34995 0.18564
 N478 N 0.35344 0.35031 0.14378
 N479 N 0.37464 0.37027 0.12869
 C480 C 0.38984 0.39021 0.15506
 N481 N 0.38312 0.38946 0.19710
 N482 N 0.36152 0.36986 0.21210
 C483 C 0.41339 0.41193 0.13834
 C484 C 0.41019 0.42643 0.09839
 H485 H 0.31911 0.30604 0.18435
 H486 H 0.43288 0.41735 0.15799
 H487 H 0.30369 0.36226 0.24345
 H488 H 0.38897 0.42396 0.08128
 C489 C 0.80176 0.16930 -0.22512
 C490 C 0.80080 0.14022 -0.20218
 C491 C 0.82790 0.12628 -0.18166
 N492 N 0.82501 0.10057 -0.15471
 N493 N 0.84921 0.08809 -0.13506
 C494 C 0.87722 0.10082 -0.14169
 N495 N 0.88016 0.12639 -0.16889
 N496 N 0.85593 0.13895 -0.18845
 C497 C 0.90411 0.08721 -0.12020
 C498 C 0.90168 0.06279 -0.08938
 H499 H 0.77931 0.12828 -0.19660
 H500 H 0.92621 0.09659 -0.12890
 H501 H 0.82307 0.18222 -0.22753
 H502 H 0.87947 0.05397 -0.08019
 C503 C 0.80057 0.66073 0.27543
 C504 C 0.81965 0.66871 0.30911
 C505 C 0.84165 0.64538 0.32633
 N506 N 0.84707 0.64370 0.36875
 N507 N 0.86699 0.62256 0.38473
 C508 C 0.88248 0.60267 0.35877
 N509 N 0.87737 0.60464 0.31629
 N510 N 0.85707 0.62541 0.30037
 C511 C 0.90575 0.58076 0.37591
 C512 C 0.90356 0.56714 0.41651
 H513 H 0.81618 0.69065 0.32652
 H514 H 0.92501 0.57512 0.35608
 H515 H 0.80158 0.63617 0.26417
 H516 H 0.88276 0.56953 0.43444
 C517 C 0.29826 0.15875 0.27438
 C518 C 0.31795 0.16773 0.30695
 C519 C 0.34119 0.14564 0.32378
 N520 N 0.34801 0.14557 0.36580
 N521 N 0.36924 0.12586 0.38157
 C522 C 0.38475 0.10590 0.35574
 N523 N 0.37826 0.10630 0.31356
 N524 N 0.35665 0.12565 0.29788
 C525 C 0.40876 0.08491 0.37294
 C526 C 0.40673 0.07170 0.41376
 H527 H 0.31428 0.18978 0.32405
 H528 H 0.42784 0.07903 0.35292
 H529 H 0.29954 0.13408 0.26362
 H530 H 0.38596 0.07439 0.43166
 C531 C 0.29113 0.66861 -0.19110
 C532 C 0.29251 0.63708 -0.17467
 C533 C 0.31999 0.62449 -0.15376
 N534 N 0.31895 0.59595 -0.13208
 N535 N 0.34376 0.58401 -0.11340
 C536 C 0.37055 0.60011 -0.11592
 N537 N 0.37164 0.62856 -0.13782
 N538 N 0.34679 0.64058 -0.15633
 C539 C 0.39815 0.58685 -0.09613
 C540 C 0.39710 0.56015 -0.06872
 H541 H 0.27312 0.62119 -0.17557
 H542 H 0.41965 0.59840 -0.10317
 H543 H 0.31052 0.68409 -0.18555
 H544 H 0.37540 0.54957 -0.06034
 C545 C 1.19024 -0.16504 -0.23547
 C546 C 1.19208 -0.13527 -0.21576
 C547 C 1.16562 -0.12072 -0.19527
 N548 N 1.16949 -0.09551 -0.16895
 N549 N 1.14597 -0.08318 -0.14837
 C550 C 1.11769 -0.09558 -0.15343
 N551 N 1.11375 -0.12052 -0.18018
 N552 N 1.13730 -0.13294 -0.20063
 C553 C 1.09164 -0.08271 -0.13017
 C554 C 1.09524 -0.06013 -0.09832
 H555 H 1.21392 -0.12378 -0.21159
 H556 H 1.06925 -0.09173 -0.13775
 H557 H 1.16861 -0.17743 -0.23636
 H558 H 1.11775 -0.05173 -0.09016
 C559 C 1.20044 0.33096 0.29819
 C560 C 1.20128 0.36018 0.31938
 C561 C 1.17381 0.37465 0.33721
 N562 N 1.17608 0.40142 0.36111
 N563 N 1.15142 0.41470 0.37768
 C564 C 1.12355 0.40178 0.37085
 N565 N 1.12125 0.37511 0.34673
 N566 N 1.14593 0.36177 0.33023
 C567 C 1.09622 0.41601 0.38946
 C568 C 1.09810 0.44138 0.41771
 H569 H 1.22262 0.37244 0.32436
 H570 H 1.07435 0.40576 0.38163
 H571 H 1.17912 0.31801 0.29646
 H572 H 1.12012 0.45097 0.42623
 C573 C 0.70201 -0.16656 0.29542
 C574 C 0.70182 -0.13685 0.31536
 C575 C 0.67387 -0.12327 0.33293
 N576 N 0.67535 -0.09662 0.35714
 N577 N 0.65030 -0.08433 0.37391
 C578 C 0.62282 -0.09814 0.36699
 N579 N 0.62129 -0.12463 0.34243
 N580 N 0.64637 -0.13700 0.32575
 C581 C 0.59518 -0.08497 0.38608
 C582 C 0.59689 -0.06076 0.41600
 H583 H 0.72275 -0.12375 0.32006
 H584 H 0.57338 -0.09495 0.37732
 H585 H 0.68111 -0.18028 0.29403
 H586 H 0.61890 -0.05171 0.42551
 C587 C 0.69306 0.33532 -0.21670
 C588 C 0.69325 0.36531 -0.19748
 C589 C 0.66603 0.37846 -0.17737
 N590 N 0.66824 0.40550 -0.15404
 N591 N 0.64397 0.41732 -0.13471
 C592 C 0.61656 0.40260 -0.13808
 N593 N 0.61426 0.37573 -0.16179
 N594 N 0.63858 0.36383 -0.18104
 C595 C 0.58987 0.41517 -0.11595
 C596 C 0.59278 0.43991 -0.08697
 H597 H 0.71411 0.37889 -0.19494
 H598 H 0.56793 0.40429 -0.12165
 H599 H 0.67239 0.32117 -0.21596
 H600 H 0.61500 0.44997 -0.08067
 C601 C 1.16692 0.19958 -0.21997
 C602 C 1.17651 0.17095 -0.19979
 C603 C 1.15394 0.14744 -0.18363
 N604 N 1.16206 0.12386 -0.15527
 N605 N 1.14124 0.10389 -0.13881
 C606 C 1.11159 0.10673 -0.15033
 N607 N 1.10364 0.12991 -0.17916
 N608 N 1.12437 0.14986 -0.19544
 C609 C 1.08772 0.08651 -0.13105
 C610 C 1.09312 0.06412 -0.09831
 H611 H 1.20017 0.16649 -0.19285
 H612 H 1.06466 0.09076 -0.14176
 H613 H 1.14264 0.20298 -0.22333
 H614 H 1.11611 0.05948 -0.08765
 C615 C 1.16448 0.70530 0.29223
 C616 C 1.17461 0.67703 0.31279
 C617 C 1.15252 0.65321 0.32929
 N618 N 1.16117 0.62963 0.35734
 N619 N 1.14081 0.60898 0.37346
 C620 C 1.11114 0.61111 0.36182
 N621 N 1.10267 0.63432 0.33335
 N622 N 1.12293 0.65495 0.31744
 C623 C 1.08773 0.59000 0.38037
 C624 C 1.09327 0.56774 0.41323
 H625 H 1.19842 0.67262 0.31868
 H626 H 1.06472 0.59353 0.36901
 H627 H 1.14013 0.70872 0.29018
 H628 H 1.11619 0.56378 0.42467
 C629 C 0.67049 0.19330 0.27804
 C630 C 0.67963 0.17028 0.30848
 C631 C 0.65792 0.14616 0.32546
 N632 N 0.66529 0.12704 0.35951
 N633 N 0.64500 0.10660 0.37630
 C634 C 0.61663 0.10452 0.35953
 N635 N 0.60946 0.12332 0.32527
 N636 N 0.62966 0.14370 0.30858
 C637 C 0.59291 0.08398 0.37867
 C638 C 0.59714 0.06423 0.41463
 H639 H 0.70210 0.17135 0.32230
 H640 H 0.57053 0.08566 0.36448
 H641 H 0.64726 0.19261 0.26672
 H642 H 0.61955 0.06130 0.42834
 C643 C 0.67193 0.69094 -0.21006
 C644 C 0.64131 0.68293 -0.21501
 C645 C 0.62666 0.65508 -0.19387
 N646 N 0.59833 0.64674 -0.20630
 N647 N 0.58346 0.62301 -0.18648
 C648 C 0.59622 0.60666 -0.15331
 N649 N 0.62474 0.61476 -0.14079
 N650 N 0.63975 0.63855 -0.16083
 C651 C 0.57769 0.58252 -0.13048
 C652 C 0.58641 0.56574 -0.09351
 H653 H 0.62708 0.69656 -0.23681
 H654 H 0.55473 0.57956 -0.14221
 H655 H 0.68623 0.67404 -0.19254
 H656 H 0.60958 0.56685 -0.08215
 C657 C 0.83116 -0.19563 -0.22481
 C658 C 0.82249 -0.17472 -0.19272
 C659 C 0.84437 -0.15150 -0.17504
 N660 N 0.83692 -0.13320 -0.14124
 N661 N 0.85733 -0.11355 -0.12390
 C662 C 0.88593 -0.11158 -0.13977
 N663 N 0.89322 -0.12966 -0.17366
 N664 N 0.87289 -0.14919 -0.19095
 C665 C 0.90959 -0.09157 -0.12039
 C666 C 0.90472 -0.07114 -0.08633
 H667 H 0.80035 -0.17691 -0.17823
 H668 H 0.93219 -0.09348 -0.13354
 H669 H 0.85397 -0.19359 -0.23731
 H670 H 0.88207 -0.06800 -0.07383
 C671 C 0.83814 0.29941 0.28273
 C672 C 0.82841 0.32205 0.31212
 C673 C 0.84998 0.34530 0.33049
 N674 N 0.84108 0.36575 0.36132
 N675 N 0.86094 0.38586 0.37899
 C676 C 0.89041 0.38618 0.36641
 N677 N 0.89918 0.36590 0.33548
 N678 N 0.87939 0.34590 0.31787
 C679 C 0.91334 0.40694 0.38615
 C680 C 0.90709 0.42916 0.41774
 H681 H 0.80532 0.32174 0.32362
 H682 H 0.93651 0.40407 0.37548
 H683 H 0.86177 0.29981 0.27338
 H684 H 0.88395 0.43298 0.42791
 C685 C 0.33485 -0.19994 0.28374
 C686 C 0.32600 -0.17639 0.31254
 C687 C 0.34802 -0.15333 0.33033
 N688 N 0.33909 -0.13142 0.35939
 N689 N 0.35905 -0.11103 0.37625
 C690 C 0.38868 -0.11182 0.36456
 N691 N 0.39751 -0.13360 0.33544
 N692 N 0.37761 -0.15392 0.31864
 C693 C 0.41171 -0.09065 0.38347
 C694 C 0.40565 -0.06727 0.41380
 H695 H 0.30286 -0.17523 0.32361
 H696 H 0.43491 -0.09440 0.37346
 H697 H 0.35853 -0.20093 0.27475
 H698 H 0.38254 -0.06269 0.42352
 C699 C 0.33407 0.29575 -0.20139
 C700 C 0.32358 0.32162 -0.17731
 C701 C 0.34535 0.34298 -0.15554
 N702 N 0.33563 0.36641 -0.12909
 N703 N 0.35552 0.38528 -0.10919
 C704 C 0.38582 0.38133 -0.11513
 N705 N 0.39539 0.35807 -0.14162
 N706 N 0.37561 0.33930 -0.16136
 C707 C 0.40883 0.40129 -0.09418
 C708 C 0.40294 0.42580 -0.06539
 H709 H 0.29964 0.32608 -0.17317
 H710 H 0.43215 0.39601 -0.10228
 H711 H 0.35844 0.29250 -0.20286
 H712 H 0.37984 0.43144 -0.05659
 C713 C 1.16713 -0.19098 0.22175
 C714 C 1.17810 -0.16577 0.19583
 C715 C 1.15677 -0.14192 0.17720
 N716 N 1.16483 -0.12314 0.14323
 N717 N 1.14471 -0.10329 0.12469
 C718 C 1.11587 -0.10147 0.13967
 N719 N 1.10808 -0.11979 0.17399
 N720 N 1.12808 -0.13960 0.19236
 C721 C 1.09236 -0.08178 0.11860
 C722 C 1.09689 -0.06369 0.08136
 H723 H 1.20157 -0.16469 0.18618
 H724 H 1.06986 -0.08293 0.13230
 H725 H 1.14288 -0.19147 0.22737
 H726 H 1.11938 -0.06131 0.06795
 C727 C 1.17020 0.31014 0.72650
 C728 C 1.17906 0.33272 0.69551
 C729 C 1.15739 0.35738 0.67968
 N730 N 1.16409 0.37624 0.64522
 N731 N 1.14356 0.39678 0.62908
 C732 C 1.11561 0.39919 0.64690
 N733 N 1.10913 0.38068 0.68161
 N734 N 1.12959 0.36023 0.69768
 C735 C 1.09156 0.41952 0.62802
 C736 C 1.09579 0.43937 0.59229
 H737 H 1.20087 0.33060 0.68014
 H738 H 1.06916 0.41755 0.64186
 H739 H 1.14762 0.31208 0.73966
 H740 H 1.11829 0.44257 0.57916
 C741 C 0.66311 -0.20368 0.71825
 C742 C 0.67239 -0.17620 0.69505
 C743 C 0.64995 -0.15311 0.67715
 N744 N 0.65877 -0.12905 0.64997
 N745 N 0.63840 -0.10882 0.63274
 C746 C 0.60846 -0.11187 0.64223
 N747 N 0.59975 -0.13569 0.66967
 N748 N 0.62005 -0.15589 0.68676
 C749 C 0.58513 -0.09093 0.62255
 C750 C 0.59125 -0.06721 0.59164
 H751 H 0.69601 -0.17180 0.68804
 H752 H 0.56183 -0.09550 0.63168
 H753 H 0.63890 -0.20683 0.72254
 H754 H 0.61445 -0.06232 0.58232
 C755 C 0.67200 0.30482 0.22070
 C756 C 0.68145 0.32779 0.19048
 C757 C 0.66048 0.35330 0.17515
 N758 N 0.66728 0.37178 0.14033
 N759 N 0.64744 0.39344 0.12504
 C760 C 0.62014 0.39745 0.14420
 N761 N 0.61361 0.37933 0.17927
 N762 N 0.63335 0.35773 0.19444
 C763 C 0.59659 0.41907 0.12662
 C764 C 0.59976 0.43771 0.08948
 H765 H 0.70345 0.32573 0.17564
 H766 H 0.57490 0.41872 0.14271
 H767 H 0.64907 0.30640 0.23277
 H768 H 0.62156 0.43953 0.07386
 C769 C 0.83668 0.19287 0.21587
 C770 C 0.82683 0.17138 0.18503
 C771 C 0.84806 0.14778 0.16684
 N772 N 0.83955 0.12906 0.13385
 N773 N 0.85931 0.10894 0.11617
 C774 C 0.88828 0.10686 0.13093
 N775 N 0.89661 0.12534 0.16405
 N776 N 0.87693 0.14535 0.18165
 C777 C 0.91132 0.08645 0.11105
 C778 C 0.90569 0.06590 0.07728
 H779 H 0.80412 0.17312 0.17209
 H780 H 0.93421 0.08838 0.12337
 H781 H 0.86002 0.19125 0.22657
 H782 H 0.88278 0.06264 0.06563
 C783 C 0.83151 0.69590 0.71388
 C784 C 0.82153 0.67280 0.68520
 C785 C 0.84296 0.64896 0.66801
 N786 N 0.83465 0.62926 0.63592
 N787 N 0.85464 0.60891 0.61914
 C788 C 0.88361 0.60755 0.63401
 N789 N 0.89171 0.62696 0.66628
 N790 N 0.87184 0.64721 0.68294
 C791 C 0.90696 0.58697 0.61512
 C792 C 0.90202 0.56600 0.58157
 H793 H 0.79850 0.67337 0.67322
 H794 H 0.92968 0.58935 0.62791
 H795 H 0.85517 0.69555 0.72333
 H796 H 0.87932 0.56228 0.56936
 C797 C 0.33394 0.19697 0.71728
 C798 C 0.32435 0.17611 0.68548
 C799 C 0.34584 0.15292 0.66672
 N800 N 0.33736 0.13393 0.63397
 N801 N 0.35723 0.11390 0.61626
 C802 C 0.38630 0.11221 0.63074
 N803 N 0.39461 0.13103 0.66352
 N804 N 0.37484 0.15092 0.68115
 C805 C 0.40945 0.09161 0.61127
 C806 C 0.40410 0.07036 0.57811
 H807 H 0.30158 0.17769 0.67274
 H808 H 0.43227 0.09382 0.62374
 H809 H 0.35728 0.19516 0.72794
 H810 H 0.38131 0.06698 0.56607
 C811 C 0.32364 0.69699 0.20451
 C812 C 0.35041 0.70082 0.18150
 C813 C 0.36550 0.67485 0.15827
 N814 N 0.39166 0.68182 0.13769
 N815 N 0.40676 0.65900 0.11755
 C816 C 0.39631 0.62826 0.11691
 N817 N 0.36992 0.62107 0.13724
 N818 N 0.35474 0.64404 0.15759
 C819 C 0.41540 0.60387 0.09675
 C820 C 0.40793 0.57161 0.08942
 H821 H 0.36108 0.72433 0.17991
 H822 H 0.43760 0.61240 0.08696
 H823 H 0.31159 0.67424 0.20340
 H824 H 0.38521 0.56262 0.09493
   
