data_POSCAR
  _audit_creation_date              2014-09-24
  _audit_creation_method            'ToBaCCo'
  _symmetry_space_group_name_H-M    'P1'
  _symmetry_Int_Tables_number       1
  _symmetry_cell_setting            triclinic
  loop_
  _symmetry_equiv_pos_as_xyz
 x,y,z
_cell_length_a 43.6709
_cell_length_b 43.6938
_cell_length_c 43.7405
_cell_angle_alpha 90.002300
_cell_angle_beta 90.001300
_cell_angle_gamma 90.029900
loop_
  _atom_site_label
  _atom_site_type_symbol
  _atom_site_fract_x
  _atom_site_fract_y
  _atom_site_fract_z
N1 N 0.15830 0.23064 0.23846
 N2 N 0.16685 0.20646 0.25423
 C3 C 0.14732 0.20239 0.27776
 C4 C 0.12564 0.22527 0.27649
 C5 C 0.13312 0.24280 0.25141
 H6 H 0.14867 0.18424 0.29452
 H7 H 0.12115 0.26286 0.24322
 Cu8 Cu 0.20265 0.18291 0.24214
 Cu9 Cu 0.18042 0.24471 0.20238
 Cu10 Cu 0.24430 0.20267 0.18078
 N11 N 0.23846 0.15936 0.23004
 N12 N 0.25463 0.16726 0.20591
 C13 C 0.27797 0.14743 0.20241
 C14 C 0.27619 0.12612 0.22556
 C15 C 0.25097 0.13417 0.24271
 H16 H 0.29492 0.14840 0.18441
 H17 H 0.24243 0.12249 0.26277
 N18 N 0.23014 0.23921 0.15840
 N19 N 0.20583 0.25522 0.16664
 C20 C 0.20226 0.27880 0.14710
 C21 C 0.22539 0.27741 0.12576
 C22 C 0.24267 0.25220 0.13341
 H23 H 0.18428 0.29576 0.14827
 H24 H 0.26285 0.24404 0.12164
 H25 H 0.19783 0.20243 0.19014
 H26 H 0.22248 0.22719 0.21469
 N27 N 0.65844 0.73081 0.73843
 N28 N 0.66655 0.70616 0.75370
 C29 C 0.64714 0.70213 0.77733
 C30 C 0.62593 0.72547 0.77659
 C31 C 0.63361 0.74326 0.75175
 H32 H 0.64832 0.68378 0.79387
 H33 H 0.62203 0.76372 0.74400
 Cu34 Cu 0.70216 0.68254 0.74123
 Cu35 Cu 0.68076 0.74515 0.70256
 Cu36 Cu 0.74463 0.70307 0.68081
 N37 N 0.73805 0.65905 0.72935
 N38 N 0.75466 0.66741 0.70566
 C39 C 0.77831 0.64793 0.70248
 C40 C 0.77632 0.62640 0.72538
 C41 C 0.75065 0.63394 0.74208
 H42 H 0.79566 0.64932 0.68489
 H43 H 0.74199 0.62208 0.76199
 N44 N 0.73065 0.73982 0.65872
 N45 N 0.70635 0.75584 0.66699
 C46 C 0.70273 0.77937 0.64742
 C47 C 0.72580 0.77793 0.62604
 C48 C 0.74311 0.75275 0.63367
 H49 H 0.68466 0.79624 0.64850
 H50 H 0.76317 0.74449 0.62177
 H51 H 0.69828 0.70323 0.68968
 H52 H 0.72279 0.72724 0.71505
 N53 N 0.34064 0.76940 0.73879
 N54 N 0.33181 0.79333 0.75480
 C55 C 0.35130 0.79740 0.77837
 C56 C 0.37327 0.77480 0.77687
 C57 C 0.36598 0.75742 0.75161
 H58 H 0.34977 0.81539 0.79528
 H59 H 0.37817 0.73758 0.74323
 Cu60 Cu 0.29590 0.81670 0.74265
 Cu61 Cu 0.31862 0.75537 0.70260
 Cu62 Cu 0.25478 0.79748 0.68085
 N63 N 0.26028 0.84051 0.73044
 N64 N 0.24441 0.83288 0.70601
 C65 C 0.22125 0.85289 0.70230
 C66 C 0.22287 0.87401 0.72562
 C67 C 0.24777 0.86571 0.74311
 H68 H 0.20455 0.85211 0.68405
 H69 H 0.25611 0.87719 0.76339
 N70 N 0.26898 0.76091 0.65849
 N71 N 0.29328 0.74491 0.66678
 C72 C 0.29686 0.72130 0.64728
 C73 C 0.27378 0.72267 0.62590
 C74 C 0.25649 0.74789 0.63348
 H75 H 0.31483 0.70433 0.64850
 H76 H 0.23633 0.75603 0.62167
 H77 H 0.30117 0.79767 0.69052
 H78 H 0.27640 0.77263 0.71461
 N79 N 0.84244 0.26940 0.23907
 N80 N 0.83428 0.29404 0.25435
 C81 C 0.85364 0.29808 0.27803
 C82 C 0.87482 0.27473 0.27729
 C83 C 0.86725 0.25693 0.25242
 H84 H 0.85240 0.31643 0.29459
 H85 H 0.87884 0.23648 0.24466
 Cu86 Cu 0.79871 0.31767 0.24184
 Cu87 Cu 0.82021 0.25509 0.20309
 Cu88 Cu 0.75639 0.29721 0.18128
 N89 N 0.76284 0.34118 0.22990
 N90 N 0.74629 0.33283 0.20617
 C91 C 0.72266 0.35233 0.20294
 C92 C 0.72459 0.37385 0.22586
 C93 C 0.75022 0.36629 0.24262
 H94 H 0.70535 0.35095 0.18531
 H95 H 0.75885 0.37813 0.26256
 N96 N 0.77042 0.26049 0.15913
 N97 N 0.79471 0.24446 0.16742
 C98 C 0.79833 0.22093 0.14782
 C99 C 0.77526 0.22238 0.12642
 C100 C 0.75798 0.24758 0.13406
 H101 H 0.81635 0.20401 0.14895
 H102 H 0.73791 0.25584 0.12218
 H103 H 0.80275 0.29702 0.19026
 H104 H 0.77819 0.27297 0.21554
 N105 N 0.84155 0.73096 0.26146
 N106 N 0.83310 0.70665 0.24582
 C107 C 0.85259 0.70260 0.22227
 C108 C 0.87416 0.72559 0.22338
 C109 C 0.86664 0.74320 0.24840
 H110 H 0.85121 0.68447 0.20551
 H111 H 0.87853 0.76337 0.25643
 Cu112 Cu 0.79720 0.68310 0.25768
 Cu113 Cu 0.81932 0.74512 0.29737
 Cu114 Cu 0.75560 0.70298 0.31916
 N115 N 0.76165 0.65940 0.27026
 N116 N 0.74545 0.66741 0.29433
 C117 C 0.72208 0.64762 0.29785
 C118 C 0.72385 0.62623 0.27481
 C119 C 0.74910 0.63418 0.25767
 H120 H 0.70505 0.64868 0.31577
 H121 H 0.75751 0.62252 0.23755
 N122 N 0.76959 0.73966 0.34126
 N123 N 0.79386 0.75572 0.33297
 C124 C 0.79745 0.77929 0.35250
 C125 C 0.77438 0.77782 0.37387
 C126 C 0.75711 0.75259 0.36628
 H127 H 0.81546 0.79625 0.35134
 H128 H 0.73701 0.74433 0.37813
 H129 H 0.80189 0.70285 0.30952
 H130 H 0.77714 0.72749 0.28494
 N131 N 0.34186 0.23066 -0.23893
 N132 N 0.33377 0.20601 -0.25426
 C133 C 0.35332 0.20195 -0.27779
 C134 C 0.37458 0.22529 -0.27693
 C135 C 0.36681 0.24311 -0.25211
 H136 H 0.35219 0.18356 -0.29431
 H137 H 0.37839 0.26353 -0.24423
 Cu138 Cu 0.29808 0.18234 -0.24180
 Cu139 Cu 0.31941 0.24493 -0.20304
 Cu140 Cu 0.25543 0.20283 -0.18144
 N141 N 0.26206 0.15884 -0.23005
 N142 N 0.24540 0.16717 -0.20639
 C143 C 0.22176 0.14762 -0.20323
 C144 C 0.22379 0.12607 -0.22613
 C145 C 0.24950 0.13368 -0.24278
 H146 H 0.20440 0.14897 -0.18565
 H147 H 0.25824 0.12181 -0.26264
 N148 N 0.26942 0.23960 -0.15926
 N149 N 0.29376 0.25561 -0.16747
 C150 C 0.29737 0.27914 -0.14787
 C151 C 0.27425 0.27772 -0.12652
 C152 C 0.25694 0.25253 -0.13421
 H153 H 0.31546 0.29601 -0.14890
 H154 H 0.23684 0.24427 -0.12236
 H155 H 0.30177 0.20298 -0.19017
 H156 H 0.27735 0.22699 -0.21559
 N157 N 0.65855 0.26886 -0.23875
 N158 N 0.66700 0.29309 -0.25453
 C159 C 0.64739 0.29713 -0.27802
 C160 C 0.62575 0.27416 -0.27669
 C161 C 0.63334 0.25662 -0.25163
 H162 H 0.64866 0.31532 -0.29474
 H163 H 0.62144 0.23654 -0.24336
 Cu164 Cu 0.70277 0.31680 -0.24237
 Cu165 Cu 0.68082 0.25490 -0.20267
 Cu166 Cu 0.74457 0.29713 -0.18100
 N167 N 0.73852 0.34048 -0.23020
 N168 N 0.75471 0.33259 -0.20608
 C169 C 0.77803 0.35246 -0.20256
 C170 C 0.77623 0.37378 -0.22567
 C171 C 0.75101 0.36572 -0.24283
 H172 H 0.79500 0.35148 -0.18458
 H173 H 0.74253 0.37739 -0.26292
 N174 N 0.73057 0.26050 -0.15870
 N175 N 0.70629 0.24442 -0.16693
 C176 C 0.70277 0.22085 -0.14736
 C177 C 0.72588 0.22233 -0.12601
 C178 C 0.74312 0.24758 -0.13368
 H179 H 0.68480 0.20386 -0.14849
 H180 H 0.76326 0.25584 -0.12190
 H181 H 0.69823 0.29731 -0.19033
 H182 H 0.72293 0.27269 -0.21493
 N183 N 0.15888 0.76941 0.26115
 N184 N 0.16780 0.79331 0.24514
 C185 C 0.14836 0.79739 0.22154
 C186 C 0.12635 0.77482 0.22301
 C187 C 0.13355 0.75745 0.24829
 H188 H 0.14996 0.81535 0.20461
 H189 H 0.12130 0.73762 0.25665
 Cu190 Cu 0.20370 0.81669 0.25734
 Cu191 Cu 0.18075 0.75544 0.29744
 Cu192 Cu 0.24459 0.79758 0.31928
 N193 N 0.23929 0.84051 0.26960
 N194 N 0.25510 0.83292 0.29408
 C195 C 0.27826 0.85293 0.29783
 C196 C 0.27672 0.87403 0.27447
 C197 C 0.25185 0.86570 0.25693
 H198 H 0.29493 0.85218 0.31611
 H199 H 0.24357 0.87715 0.23663
 N200 N 0.23027 0.76109 0.34168
 N201 N 0.20598 0.74505 0.33337
 C202 C 0.20238 0.72145 0.35288
 C203 C 0.22547 0.72285 0.37427
 C204 C 0.24274 0.74809 0.36669
 H205 H 0.18446 0.70441 0.35161
 H206 H 0.26294 0.75622 0.37846
 H207 H 0.19823 0.79775 0.30948
 H208 H 0.22303 0.77266 0.28551
 N209 N 0.48073 0.40766 0.48872
 N210 N 0.45605 0.41574 0.50399
 C211 C 0.45208 0.39639 0.52768
 C212 C 0.47549 0.37524 0.52705
 C213 C 0.49326 0.38290 0.50214
 H214 H 0.43374 0.39761 0.54425
 H215 H 0.51377 0.37139 0.49443
 Cu216 Cu 0.43230 0.45128 0.49147
 Cu217 Cu 0.49495 0.43006 0.45275
 Cu218 Cu 0.45266 0.49375 0.43092
 N219 N 0.40868 0.48709 0.47953
 N220 N 0.41699 0.50366 0.45580
 C221 C 0.39745 0.52726 0.45260
 C222 C 0.37594 0.52529 0.47552
 C223 C 0.38354 0.49966 0.49226
 H224 H 0.39882 0.54460 0.43501
 H225 H 0.37173 0.49105 0.51221
 N226 N 0.48947 0.47988 0.40879
 N227 N 0.50558 0.45565 0.41707
 C228 C 0.52913 0.45213 0.39747
 C229 C 0.52762 0.47520 0.37608
 C230 C 0.50235 0.49238 0.38374
 H231 H 0.54610 0.43415 0.39855
 H232 H 0.49401 0.51242 0.37186
 H233 H 0.47685 0.47216 0.46515
 H234 H 0.45288 0.44757 0.43983
 N235 N -0.01921 -0.09130 0.98844
 N236 N -0.04345 -0.08286 1.00420
 C237 C -0.04734 -0.10225 1.02785
 C238 C -0.02433 -0.12378 1.02665
 C239 C -0.00688 -0.11634 1.00149
 H240 H -0.06547 -0.10092 1.04464
 H241 H 0.01322 -0.12825 0.99330
 Cu242 Cu -0.06753 -0.04745 0.99203
 Cu243 Cu -0.00535 -0.06919 0.95229
 Cu244 Cu -0.04739 -0.00549 0.93071
 N245 N -0.09066 -0.01138 0.98000
 N246 N -0.08270 0.00483 0.95591
 C247 C -0.10238 0.02829 0.95255
 C248 C -0.12360 0.02660 0.97577
 C249 C -0.11570 0.00129 0.99282
 H250 H -0.10138 0.04528 0.93460
 H251 H -0.12735 -0.00718 1.01293
 N252 N -0.01091 -0.01962 0.90821
 N253 N 0.00511 -0.04391 0.91645
 C254 C 0.02859 -0.04758 0.89679
 C255 C 0.02715 -0.02455 0.87535
 C256 C 0.00197 -0.00721 0.88309
 H257 H 0.04551 -0.06560 0.89792
 H258 H -0.00627 0.01291 0.87128
 H259 H -0.02320 -0.02715 0.96488
 H260 H -0.04771 -0.05176 0.94003
 N261 N 1.01946 0.59147 0.98852
 N262 N 1.04335 0.58267 1.00460
 C263 C 1.04729 0.60213 1.02820
 C264 C 1.02466 0.62404 1.02665
 C265 C 1.00737 0.61675 1.00133
 H266 H 1.06516 0.60053 1.04524
 H267 H 0.98748 0.62885 0.99295
 Cu268 Cu 1.06677 0.54655 0.99322
 Cu269 Cu 1.00559 0.56936 0.95241
 Cu270 Cu 1.04762 0.50574 0.93075
 N271 N 1.09057 0.51122 0.98028
 N272 N 1.08294 0.49541 0.95583
 C273 C 1.10289 0.47222 0.95214
 C274 C 1.12399 0.47372 0.97547
 C275 C 1.11571 0.49861 0.99296
 H276 H 1.10207 0.45546 0.93396
 H277 H 1.12712 0.50677 1.01334
 N278 N 1.01115 0.51985 0.90834
 N279 N 0.99512 0.54412 0.91660
 C280 C 0.97158 0.54772 0.89702
 C281 C 0.97302 0.52466 0.87563
 C282 C 0.99823 0.50738 0.88329
 H283 H 0.95459 0.56568 0.89821
 H284 H 1.00644 0.48723 0.87151
 H285 H 1.02286 0.52697 0.96484
 H286 H 1.04820 0.55185 0.94099
 N287 N 0.51926 0.09161 0.48905
 N288 N 0.54319 0.08274 0.50504
 C289 C 0.54722 0.10209 0.52873
 C290 C 0.52460 0.12404 0.52738
 C291 C 0.50723 0.11685 0.50203
 H292 H 0.56520 0.10044 0.54565
 H293 H 0.48736 0.12904 0.49371
 Cu294 Cu 0.56660 0.04691 0.49281
 Cu295 Cu 0.50538 0.06956 0.45269
 Cu296 Cu 0.54760 0.00586 0.43080
 N297 N 0.59046 0.01142 0.48052
 N298 N 0.58290 -0.00441 0.45605
 C299 C 0.60290 -0.02754 0.45237
 C300 C 0.62396 -0.02599 0.47574
 C301 C 0.61562 -0.00112 0.49322
 H302 H 0.60218 -0.04425 0.43415
 H303 H 0.62706 0.00711 0.51356
 N304 N 0.51108 0.02005 0.40839
 N305 N 0.49499 0.04428 0.41668
 C306 C 0.47136 0.04774 0.39714
 C307 C 0.47281 0.02463 0.37577
 C308 C 0.49812 0.00748 0.38340
 H309 H 0.45427 0.06559 0.39838
 H310 H 0.50632 -0.01271 0.37167
 H311 H 0.52280 0.02710 0.46454
 H312 H 0.54787 0.05196 0.44056
 N313 N -0.01995 0.09200 0.51139
 N314 N -0.04461 0.08389 0.49611
 C315 C -0.04864 0.10326 0.47247
 C316 C -0.02527 0.12445 0.47317
 C317 C -0.00747 0.11681 0.49804
 H318 H -0.06701 0.10206 0.45593
 H319 H 0.01301 0.12840 0.50577
 Cu320 Cu -0.06831 0.04836 0.50857
 Cu321 Cu -0.00570 0.06969 0.54737
 Cu322 Cu -0.04794 0.00595 0.56914
 N323 N -0.09188 0.01258 0.52050
 N324 N -0.08358 -0.00400 0.54421
 C325 C -0.10310 -0.02763 0.54737
 C326 C -0.12457 -0.02564 0.52442
 C327 C -0.11700 -0.00000 0.50773
 H328 H -0.10174 -0.04499 0.56493
 H329 H -0.12881 0.00861 0.48777
 N330 N -0.01117 0.01989 0.59132
 N331 N 0.00492 0.04416 0.58306
 C332 C 0.02851 0.04768 0.60263
 C333 C 0.02705 0.02457 0.62399
 C334 C 0.00176 0.00737 0.61633
 H335 H 0.04550 0.06565 0.60150
 H336 H -0.00653 -0.01274 0.62815
 H337 H -0.02374 0.02761 0.53491
 H338 H -0.04776 0.05217 0.56020
 N339 N 0.48106 0.59150 0.01127
 N340 N 0.45713 0.58265 -0.00476
 C341 C 0.45308 0.60208 -0.02835
 C342 C 0.47570 0.62403 -0.02689
 C343 C 0.49307 0.61681 -0.00160
 H344 H 0.43508 0.60052 -0.04526
 H345 H 0.51292 0.62902 0.00678
 Cu346 Cu 0.43366 0.54684 0.00741
 Cu347 Cu 0.49496 0.56951 0.04756
 Cu348 Cu 0.45265 0.50579 0.06933
 N349 N 0.40975 0.51136 0.01965
 N350 N 0.41729 0.49552 0.04410
 C351 C 0.39723 0.47241 0.04777
 C352 C 0.37615 0.47400 0.02442
 C353 C 0.38455 0.49886 0.00695
 H354 H 0.39793 0.45569 0.06598
 H355 H 0.37312 0.50713 -0.01337
 N356 N 0.48920 0.51995 0.09174
 N357 N 0.50530 0.54420 0.08347
 C358 C 0.52892 0.54770 0.10301
 C359 C 0.52746 0.52460 0.12436
 C360 C 0.50216 0.50740 0.11674
 H361 H 0.54600 0.56559 0.10178
 H362 H 0.49395 0.48723 0.12849
 H363 H 0.47757 0.52723 0.03562
 H364 H 0.45253 0.55206 0.05962
 N365 N 0.51910 -0.09135 0.01142
 N366 N 0.54304 -0.08250 -0.00459
 C367 C 0.54705 -0.10189 -0.02823
 C368 C 0.52440 -0.12382 -0.02679
 C369 C 0.50705 -0.11661 -0.00149
 H370 H 0.56504 -0.10033 -0.04515
 H371 H 0.48719 -0.12881 0.00687
 Cu372 Cu 0.56653 -0.04673 0.00763
 Cu373 Cu 0.50521 -0.06940 0.04774
 Cu374 Cu 0.54755 -0.00575 0.06963
 N375 N 0.59046 -0.01127 0.01992
 N376 N 0.58292 0.00454 0.04440
 C377 C 0.60299 0.02764 0.04809
 C378 C 0.62406 0.02609 0.02472
 C379 C 0.61565 0.00124 0.00722
 H380 H 0.60230 0.04434 0.06632
 H381 H 0.62707 -0.00700 -0.01311
 N382 N 0.51096 -0.01992 0.09203
 N383 N 0.49486 -0.04416 0.08370
 C384 C 0.47125 -0.04772 0.10323
 C385 C 0.47269 -0.02468 0.12467
 C386 C 0.49799 -0.00745 0.11707
 H387 H 0.45419 -0.06562 0.10197
 H388 H 0.50622 0.01269 0.12888
 H389 H 0.52264 -0.02711 0.03586
 H390 H 0.54766 -0.05198 0.05983
 N391 N 1.01907 0.40868 0.51109
 N392 N 1.04328 0.41720 0.49532
 C393 C 1.04728 0.39773 0.47175
 C394 C 1.02432 0.37611 0.47297
 C395 C 1.00681 0.38357 0.49809
 H396 H 1.06545 0.39906 0.45500
 H397 H 0.98671 0.37164 0.50626
 Cu398 Cu 1.06705 0.45282 0.50750
 Cu399 Cu 1.00514 0.43079 0.54724
 Cu400 Cu 1.04743 0.49445 0.56896
 N401 N 1.09068 0.48854 0.51966
 N402 N 1.08285 0.50467 0.54384
 C403 C 1.10274 0.52795 0.54736
 C404 C 1.12402 0.52618 0.52419
 C405 C 1.11591 0.50102 0.50700
 H406 H 1.10183 0.54488 0.56536
 H407 H 1.12755 0.49254 0.48689
 N408 N 1.01084 0.48039 0.59131
 N409 N 0.99474 0.45615 0.58305
 C410 C 0.97115 0.45262 0.60260
 C411 C 0.97264 0.47570 0.62398
 C412 C 0.99792 0.49291 0.61634
 H413 H 0.95411 0.43470 0.60142
 H414 H 1.00618 0.51304 0.62812
 H415 H 1.02293 0.47285 0.53501
 H416 H 1.04760 0.44810 0.55953
 Si417 Si 0.37363 -0.00070 0.25038
 Si418 Si 0.12603 -0.00069 0.74945
 Si419 Si 0.62599 0.49976 0.25013
 Si420 Si 0.87430 0.50016 0.74995
 Si421 Si 0.25013 0.37563 -0.00019
 Si422 Si 0.75014 0.12448 0.00032
 Si423 Si 0.25037 0.62421 0.49987
 Si424 Si 0.74987 0.87572 0.49985
 Si425 Si -0.00055 0.25017 0.37456
 Si426 Si 0.00011 0.75018 0.12488
 Si427 Si 0.50025 0.24985 0.62656
 Si428 Si 0.49978 0.75022 0.87478
 C429 C 0.10041 0.22995 0.29702
 C430 C 0.07915 0.23406 0.31408
 C431 C 0.05406 0.23904 0.33378
 C432 C 0.03245 0.24342 0.35031
 C433 C 0.60085 0.73024 0.79729
 C434 C 0.57964 0.73434 0.81443
 C435 C 0.55456 0.73925 0.83416
 C436 C 0.53290 0.74354 0.85066
 C437 C 0.39859 0.77023 0.79734
 C438 C 0.41993 0.76622 0.81435
 C439 C 0.44508 0.76132 0.83403
 C440 C 0.46673 0.75699 0.85055
 C441 C -0.10148 0.27023 0.29693
 C442 C -0.08031 0.26613 0.31412
 C443 C -0.05528 0.26121 0.33391
 C444 C -0.03366 0.25690 0.35045
 C445 C -0.10069 0.73031 0.20276
 C446 C -0.07948 0.73441 0.18561
 C447 C -0.05449 0.73933 0.16577
 C448 C -0.03292 0.74361 0.14914
 C449 C 0.39854 0.22976 0.70365
 C450 C 0.41993 0.23386 0.68666
 C451 C 0.44520 0.23880 0.66706
 C452 C 0.46697 0.24313 0.65064
 C453 C 0.60169 0.26976 0.70402
 C454 C 0.58027 0.26572 0.68706
 C455 C 0.55504 0.26082 0.66742
 C456 C 0.53335 0.25652 0.65089
 C457 C 0.10110 0.77026 0.20247
 C458 C 0.07982 0.76623 0.18540
 C459 C 0.05475 0.76130 0.16565
 C460 C 0.03315 0.75693 0.14909
 C461 C 0.29638 0.10068 0.23067
 C462 C 0.31327 0.07929 0.23493
 C463 C 0.33289 0.05412 0.23989
 C464 C 0.34941 0.03244 0.24408
 C465 C 0.79674 0.60122 0.73064
 C466 C 0.81380 0.57999 0.73490
 C467 C 0.83356 0.55494 0.73976
 C468 C 0.85013 0.53330 0.74383
 C469 C 0.79650 0.39915 0.76926
 C470 C 0.81351 0.42047 0.76509
 C471 C 0.83329 0.44554 0.76026
 C472 C 0.84994 0.46714 0.75616
 C473 C 0.29584 -0.10186 0.26974
 C474 C 0.31281 -0.08048 0.26558
 C475 C 0.33258 -0.05537 0.26075
 C476 C 0.34924 -0.03376 0.25663
 C477 C 0.20376 -0.10187 0.73035
 C478 C 0.18681 -0.08049 0.73446
 C479 C 0.16705 -0.05537 0.73921
 C480 C 0.15040 -0.03376 0.74326
 C481 C 0.70413 0.39903 0.23107
 C482 C 0.68700 0.42023 0.23527
 C483 C 0.66712 0.44521 0.24005
 C484 C 0.65041 0.46676 0.24406
 C485 C 0.70350 0.60092 0.26972
 C486 C 0.68647 0.57963 0.26553
 C487 C 0.66670 0.55456 0.26064
 C488 C 0.65013 0.53292 0.25646
 C489 C 0.20345 0.10075 0.76864
 C490 C 0.18646 0.07941 0.76441
 C491 C 0.16678 0.05424 0.75959
 C492 C 0.15024 0.03252 0.75555
 C493 C 0.23040 0.29793 0.10062
 C494 C 0.23461 0.31502 0.07941
 C495 C 0.23956 0.33481 0.05442
 C496 C 0.24379 0.35140 0.03284
 C497 C 0.73065 0.79830 0.60080
 C498 C 0.73474 0.81531 0.57953
 C499 C 0.73954 0.83501 0.55449
 C500 C 0.74366 0.85157 0.53289
 C501 C 0.76942 0.79825 0.39904
 C502 C 0.76521 0.81527 0.42026
 C503 C 0.76029 0.83497 0.44528
 C504 C 0.75610 0.85151 0.46686
 C505 C 0.26940 0.29811 -0.10124
 C506 C 0.26533 0.31513 -0.07995
 C507 C 0.26055 0.33487 -0.05488
 C508 C 0.25644 0.35143 -0.03326
 C509 C 0.73081 0.20195 -0.10074
 C510 C 0.73492 0.18496 -0.07944
 C511 C 0.73971 0.16527 -0.05434
 C512 C 0.74383 0.14872 -0.03271
 C513 C 0.23057 0.70220 0.39929
 C514 C 0.23488 0.68501 0.42040
 C515 C 0.23990 0.66513 0.44530
 C516 C 0.24413 0.64847 0.46683
 C517 C 0.26892 0.70213 0.60074
 C518 C 0.26493 0.68499 0.57953
 C519 C 0.26032 0.66514 0.55452
 C520 C 0.25639 0.64848 0.53294
 C521 C 0.77025 0.20192 0.10124
 C522 C 0.76595 0.18489 0.08001
 C523 C 0.76086 0.16519 0.05498
 C524 C 0.75653 0.14865 0.03338
 C525 C 0.48039 0.35035 0.54802
 C526 C 0.48453 0.32934 0.56543
 C527 C 0.48943 0.30447 0.58551
 C528 C 0.49368 0.28295 0.60225
 C529 C -0.01961 0.85105 0.04721
 C530 C -0.01557 0.82982 0.06431
 C531 C -0.01074 0.80477 0.08407
 C532 C -0.00649 0.78318 0.10064
 C533 C 0.01993 0.64923 0.04722
 C534 C 0.01585 0.67046 0.06435
 C535 C 0.01097 0.69549 0.08414
 C536 C 0.00671 0.71709 0.10072
 C537 C 0.52001 0.14918 0.54814
 C538 C 0.51607 0.17033 0.56544
 C539 C 0.51128 0.19528 0.58545
 C540 C 0.50701 0.21681 0.60219
 C541 C -0.02050 0.14944 0.45239
 C542 C -0.01642 0.17056 0.43515
 C543 C -0.01153 0.19554 0.41530
 C544 C -0.00724 0.21712 0.39872
 C545 C 0.48023 0.64928 0.95255
 C546 C 0.48412 0.67053 0.93542
 C547 C 0.48885 0.69558 0.91559
 C548 C 0.49307 0.71718 0.89899
 C549 C 0.51978 0.85100 0.95261
 C550 C 0.51576 0.82978 0.93546
 C551 C 0.51087 0.80477 0.91564
 C552 C 0.50654 0.78321 0.89903
 C553 C 0.01960 0.35096 0.45236
 C554 C 0.01551 0.32975 0.43522
 C555 C 0.01059 0.30474 0.41540
 C556 C 0.00625 0.28317 0.39881
 C557 C 0.35087 0.54584 0.48083
 C558 C 0.32978 0.56309 0.48507
 C559 C 0.30493 0.58312 0.48984
 C560 C 0.28344 0.59990 0.49384
 C561 C 0.85114 0.04694 -0.01906
 C562 C 0.82988 0.06397 -0.01486
 C563 C 0.80483 0.08372 -0.01005
 C564 C 0.78322 0.10031 -0.00595
 C565 C 0.64941 0.04637 0.01961
 C566 C 0.67068 0.06343 0.01543
 C567 C 0.69565 0.08332 0.01064
 C568 C 0.71718 0.10006 0.00655
 C569 C 0.14938 0.54644 0.51906
 C570 C 0.17068 0.56344 0.51485
 C571 C 0.19574 0.58322 0.51003
 C572 C 0.21733 0.59988 0.50597
 C573 C 0.14927 0.45339 -0.01945
 C574 C 0.17051 0.43633 -0.01530
 C575 C 0.19551 0.41651 -0.01051
 C576 C 0.21708 0.39986 -0.00643
 C577 C 0.64925 0.95373 0.48082
 C578 C 0.67048 0.93666 0.48496
 C579 C 0.69541 0.91678 0.48969
 C580 C 0.71692 0.90006 0.49372
 C581 C 0.85039 0.95383 0.51906
 C582 C 0.82930 0.93663 0.51477
 C583 C 0.80442 0.91668 0.50994
 C584 C 0.78290 0.89997 0.50591
 C585 C 0.35081 0.45372 0.01929
 C586 C 0.32956 0.43665 0.01508
 C587 C 0.30460 0.41677 0.01022
 C588 C 0.28309 0.40003 0.00609
 C589 C 0.54807 0.48020 0.35086
 C590 C 0.56515 0.48440 0.32963
 C591 C 0.58497 0.48930 0.30464
 C592 C 0.60163 0.49347 0.28309
 C593 C 0.04770 -0.01965 0.85015
 C594 C 0.06492 -0.01561 0.82898
 C595 C 0.08491 -0.01091 0.80404
 C596 C 0.10167 -0.00688 0.78251
 C597 C 0.04769 0.01938 0.64904
 C598 C 0.06492 0.01499 0.67012
 C599 C 0.08489 0.00987 0.69497
 C600 C 0.10164 0.00558 0.71644
 C601 C 0.54810 0.51947 0.14941
 C602 C 0.56529 0.51519 0.17053
 C603 C 0.58517 0.51021 0.19546
 C604 C 0.60180 0.50600 0.21702
 C605 C 0.45204 -0.01970 0.14977
 C606 C 0.43478 -0.01563 0.17090
 C607 C 0.41477 -0.01093 0.19582
 C608 C 0.39800 -0.00691 0.21733
 C609 C 0.95213 0.48071 0.64914
 C610 C 0.93501 0.48489 0.67034
 C611 C 0.91518 0.48976 0.69532
 C612 C 0.89854 0.49391 0.71689
 C613 C 0.95244 0.51962 0.85052
 C614 C 0.93526 0.51541 0.82938
 C615 C 0.91535 0.51052 0.80446
 C616 C 0.89865 0.50637 0.78294
 C617 C 0.45209 0.01936 0.35078
 C618 C 0.43482 0.01496 0.32972
 C619 C 0.41480 0.00988 0.30488
 C620 C 0.39802 0.00562 0.28341
   
