data_POSCAR
  _audit_creation_date              2014-09-24
  _audit_creation_method            'ToBaCCo'
  _symmetry_space_group_name_H-M    'P1'
  _symmetry_Int_Tables_number       1
  _symmetry_cell_setting            triclinic
  loop_
  _symmetry_equiv_pos_as_xyz
 x,y,z
_cell_length_a 30.9865
_cell_length_b 30.8511
_cell_length_c 22.0404
_cell_angle_alpha 90.123000
_cell_angle_beta 90.249600
_cell_angle_gamma 90.513400
loop_
  _atom_site_label
  _atom_site_type_symbol
  _atom_site_fract_x
  _atom_site_fract_y
  _atom_site_fract_z
O1 O -0.04723 0.27691 0.05940
 O2 O 0.03879 0.28187 -0.05687
 O3 O -0.04845 0.28847 -0.05915
 O4 O 0.03585 0.27770 0.05833
 O5 O 0.03141 0.20644 0.04902
 O6 O -0.05006 0.21743 -0.07161
 O7 O 0.03330 0.21093 -0.06849
 O8 O -0.05263 0.20624 0.04401
 Cu9 Cu -0.00552 0.28864 0.00029
 Cu10 Cu -0.00982 0.20328 -0.01292
 C11 C -0.06447 0.24029 0.07110
 C12 C 0.05182 0.24660 -0.08051
 C13 C -0.06419 0.25477 -0.08439
 C14 C 0.04808 0.24008 0.07339
 O15 O 0.45496 0.77664 0.54255
 O16 O 0.54792 0.77552 0.43761
 O17 O 0.46455 0.77368 0.42615
 O18 O 0.54054 0.78374 0.55479
 O19 O 0.53912 0.71265 0.56647
 O20 O 0.47202 0.70252 0.42853
 O21 O 0.55377 0.70496 0.45277
 O22 O 0.45605 0.70511 0.54514
 Cu23 Cu 0.50170 0.78471 0.49024
 Cu24 Cu 0.50512 0.69920 0.49929
 C25 C 0.43876 0.74065 0.55972
 C26 C 0.56713 0.73981 0.42879
 C27 C 0.45629 0.73635 0.40457
 C28 C 0.55329 0.74984 0.58188
 O29 O 1.04636 0.72458 0.05237
 O30 O 0.96142 0.73768 -0.06276
 O31 O 1.04473 0.73774 -0.06593
 O32 O 0.96078 0.73102 0.05375
 O33 O 0.96102 0.80261 0.05804
 O34 O 1.05392 0.80691 -0.04311
 O35 O 0.96964 0.80879 -0.05713
 O36 O 1.04456 0.79478 0.07153
 Cu37 Cu 1.00339 0.72541 -0.00614
 Cu38 Cu 1.00781 0.81032 0.00864
 C39 C 1.06000 0.75747 0.08167
 C40 C 0.95125 0.77548 -0.07992
 C41 C 1.06448 0.77374 -0.07335
 C42 C 0.94498 0.76639 0.07312
 O43 O 0.53222 0.20606 0.56317
 O44 O 0.45374 0.19672 0.43616
 O45 O 0.53973 0.18518 0.45142
 O46 O 0.44933 0.20203 0.55613
 O47 O 0.45121 0.27227 0.53657
 O48 O 0.54444 0.25578 0.43610
 O49 O 0.46186 0.26675 0.41863
 O50 O 0.53388 0.27692 0.54874
 Cu51 Cu 0.49254 0.19080 0.50146
 Cu52 Cu 0.49808 0.27477 0.48305
 C53 C 0.54615 0.24377 0.57741
 C54 C 0.44450 0.23063 0.40610
 C55 C 0.55849 0.21755 0.42751
 C56 C 0.43478 0.23991 0.56420
 O57 O 0.69710 0.05025 -0.03256
 O58 O 0.71745 -0.03731 0.07917
 O59 O 0.71445 0.04710 0.08269
 O60 O 0.68719 -0.03543 -0.03293
 O61 O 0.75496 -0.03633 -0.06340
 O62 O 0.78217 0.04566 0.05214
 O63 O 0.78339 -0.04285 0.04267
 O64 O 0.76403 0.04344 -0.06544
 Cu65 Cu 0.69716 0.00616 0.02683
 Cu66 Cu 0.77823 0.00329 -0.00878
 C67 C 0.72769 0.06161 -0.06786
 C68 C 0.75409 -0.05579 0.07828
 C69 C 0.75292 0.06113 0.08603
 C70 C 0.71620 -0.04994 -0.06782
 O71 O 0.18520 0.45966 0.55619
 O72 O 0.20937 0.53627 0.43237
 O73 O 0.20557 0.45103 0.44223
 O74 O 0.20082 0.54424 0.54925
 O75 O 0.26933 0.53399 0.57330
 O76 O 0.27425 0.44362 0.46736
 O77 O 0.27861 0.53183 0.45530
 O78 O 0.25482 0.45412 0.57608
 Cu79 Cu 0.19322 0.49846 0.49294
 Cu80 Cu 0.27623 0.49110 0.51742
 C81 C 0.21589 0.44307 0.58623
 C82 C 0.24812 0.54840 0.42475
 C83 C 0.24101 0.43058 0.43889
 C84 C 0.23478 0.55511 0.57882
 O85 O 0.31521 1.03492 0.05151
 O86 O 0.29637 0.95430 -0.07164
 O87 O 0.29625 1.03964 -0.06186
 O88 O 0.32099 0.94977 0.04238
 O89 O 0.25268 0.94799 0.07021
 O90 O 0.22671 1.03103 -0.04378
 O91 O 0.22883 0.94699 -0.04127
 O92 O 0.24553 1.03198 0.07128
 Cu93 Cu 0.31423 0.99486 -0.01243
 Cu94 Cu 0.23168 0.98919 0.01677
 C95 C 0.28266 1.04837 0.08078
 C96 C 0.25933 0.93621 -0.07592
 C97 C 0.25733 1.05077 -0.07057
 C98 C 0.29093 0.93361 0.07428
 O99 O 0.80110 0.55229 0.56469
 O100 O 0.79762 0.46531 0.44895
 O101 O 0.79508 0.54995 0.44696
 O102 O 0.80886 0.46655 0.56573
 O103 O 0.73805 0.45990 0.57186
 O104 O 0.72483 0.54920 0.46404
 O105 O 0.72648 0.46474 0.45542
 O106 O 0.73114 0.54318 0.57984
 Cu107 Cu 0.80793 0.50900 0.50582
 Cu108 Cu 0.72308 0.50362 0.51861
 C109 C 0.76637 0.56254 0.59163
 C110 C 0.76098 0.45045 0.43249
 C111 C 0.75758 0.56470 0.43706
 C112 C 0.77564 0.44801 0.58754
 C113 C 0.17509 0.20356 0.09392
 C114 C 0.20375 0.17013 0.09735
 C115 C 0.22384 0.17364 0.15344
 N116 N 0.20822 0.20778 0.18463
 C117 C 0.17814 0.22595 0.14843
 C118 C 0.25327 0.14344 0.17700
 C119 C 0.27951 0.15230 0.22794
 C120 C 0.30237 0.12179 0.26071
 C121 C 0.32543 0.14426 0.30433
 C122 C 0.31578 0.18779 0.29691
 N123 N 0.28804 0.19236 0.25003
 C124 C 0.33543 0.22239 0.32884
 C125 C 0.31908 0.26517 0.32775
 C126 C 0.34054 0.30186 0.34899
 C127 C 0.31240 0.33566 0.34354
 C128 C 0.27391 0.31846 0.32158
 N129 N 0.27828 0.27544 0.31133
 C130 C 0.23442 0.34125 0.31652
 C131 C 0.19931 0.32510 0.28169
 C132 C 0.15755 0.34096 0.28339
 C133 C 0.13397 0.31803 0.24081
 C134 C 0.16191 0.28874 0.21440
 N135 N 0.20168 0.29344 0.23930
 C136 C 0.15107 0.26029 0.16626
 H137 H 0.15412 0.21028 0.05585
 H138 H 0.20909 0.14588 0.06268
 H139 H 0.22981 0.27905 0.22381
 H140 H 0.30277 0.08708 0.25354
 H141 H 0.34736 0.13020 0.33702
 H142 H 0.37294 0.30457 0.36695
 H143 H 0.31947 0.36901 0.35550
 H144 H 0.10013 0.32250 0.23045
 H145 H 0.27927 0.22147 0.22990
 H146 H 0.14523 0.36641 0.31220
 C147 C 0.85680 0.82763 0.19469
 C148 C 0.82477 0.85798 0.19614
 C149 C 0.78601 0.83535 0.19891
 N150 N 0.79348 0.79222 0.20111
 C151 C 0.83669 0.78738 0.19759
 C152 C 0.74445 0.85403 0.19447
 C153 C 0.70726 0.83327 0.21861
 C154 C 0.66530 0.84843 0.21356
 C155 C 0.63944 0.82092 0.24654
 C156 C 0.66589 0.78888 0.26954
 N157 N 0.70719 0.79693 0.25297
 C158 C 0.65131 0.75276 0.30329
 C159 C 0.67326 0.71273 0.30335
 C160 C 0.65370 0.67277 0.31305
 C161 C 0.68587 0.64266 0.31238
 C162 C 0.72413 0.66519 0.30277
 N163 N 0.71615 0.70789 0.29591
 C164 C 0.76582 0.64690 0.30647
 C165 C 0.80246 0.66593 0.27833
 C166 C 0.84377 0.64892 0.27935
 C167 C 0.86949 0.67618 0.24556
 C168 C 0.84361 0.70992 0.22611
 N169 N 0.80271 0.70287 0.24521
 C170 C 0.85858 0.74720 0.19493
 H171 H 0.89110 0.83438 0.19252
 H172 H 0.82948 0.89277 0.19507
 H173 H 0.77605 0.72094 0.23297
 H174 H 0.65388 0.87626 0.18872
 H175 H 0.60480 0.82354 0.25050
 H176 H 0.61970 0.66600 0.31950
 H177 H 0.68167 0.60812 0.31893
 H178 H 0.90379 0.67227 0.23914
 H179 H 0.73420 0.78078 0.26893
 H180 H 0.85474 0.61999 0.30207
 C181 C 0.82877 0.14328 0.21148
 C182 C 0.86094 0.17419 0.20945
 C183 C 0.84096 0.21393 0.21565
 N184 N 0.79793 0.20847 0.22162
 C185 C 0.79031 0.16538 0.21808
 C186 C 0.86102 0.25482 0.20830
 C187 C 0.84514 0.29183 0.23830
 C188 C 0.85931 0.33418 0.22967
 C189 C 0.83737 0.35950 0.27066
 C190 C 0.81007 0.33195 0.30235
 N191 N 0.81533 0.29085 0.28286
 C192 C 0.78238 0.34442 0.34963
 C193 C 0.74782 0.31773 0.36932
 C194 C 0.72447 0.32377 0.42218
 C195 C 0.69073 0.29478 0.42027
 C196 C 0.69508 0.27139 0.36695
 N197 N 0.73001 0.28535 0.33586
 C198 C 0.66484 0.24068 0.34504
 C199 C 0.67524 0.21014 0.29954
 C200 C 0.64585 0.18554 0.26631
 C201 C 0.66954 0.15896 0.22886
 C202 C 0.71276 0.16815 0.24029
 N203 N 0.71582 0.19918 0.28363
 C204 C 0.74842 0.14724 0.21329
 H205 H 0.83306 0.10864 0.20712
 H206 H 0.89499 0.16828 0.20299
 H207 H 0.74412 0.20959 0.30504
 H208 H 0.88310 0.34578 0.19766
 H209 H 0.84084 0.39423 0.27617
 H210 H 0.73062 0.34706 0.45801
 H211 H 0.66571 0.29142 0.45409
 H212 H 0.65626 0.13587 0.19667
 H213 H 0.80223 0.26319 0.30288
 H214 H 0.61100 0.18671 0.26847
 C215 C 0.32549 0.63112 0.30896
 C216 C 0.35625 0.66303 0.31457
 C217 C 0.33649 0.70182 0.29964
 N218 N 0.29425 0.69444 0.28702
 C219 C 0.28728 0.65138 0.29385
 C220 C 0.35496 0.74387 0.30522
 C221 C 0.33663 0.78035 0.27632
 C222 C 0.34793 0.82334 0.28744
 C223 C 0.32430 0.84828 0.24773
 C224 C 0.29931 0.81986 0.21352
 N225 N 0.30748 0.77861 0.23052
 C226 C 0.27061 0.83181 0.16670
 C227 C 0.23940 0.80308 0.14275
 C228 C 0.21685 0.80966 0.08918
 C229 C 0.18615 0.77755 0.08587
 C230 C 0.19053 0.75291 0.13809
 N231 N 0.22342 0.76832 0.17254
 C232 C 0.16152 0.72006 0.15685
 C233 C 0.17245 0.68968 0.20196
 C234 C 0.14353 0.66238 0.23107
 C235 C 0.16734 0.63752 0.27060
 C236 C 0.21023 0.65013 0.26406
 N237 N 0.21298 0.68171 0.22178
 C238 C 0.24581 0.63159 0.29464
 H239 H 0.33044 0.59698 0.31741
 H240 H 0.38898 0.65729 0.32884
 H241 H 0.24133 0.69438 0.20354
 H242 H 0.37109 0.83560 0.32026
 H243 H 0.32539 0.88327 0.24445
 H244 H 0.22167 0.83532 0.05640
 H245 H 0.16268 0.77345 0.04975
 H246 H 0.15430 0.61313 0.30076
 H247 H 0.29648 0.75069 0.20856
 H248 H 0.10889 0.66078 0.22487
 C249 C 0.78018 0.18271 0.91480
 C250 C 0.81295 0.21254 0.91051
 C251 C 0.80084 0.24211 0.86635
 N252 N 0.76120 0.23154 0.84447
 C253 C 0.74885 0.19472 0.87316
 C254 C 0.82512 0.27961 0.85019
 C255 C 0.80942 0.31159 0.81022
 C256 C 0.82333 0.35439 0.80886
 C257 C 0.80044 0.37445 0.76326
 C258 C 0.77408 0.34302 0.73688
 N259 N 0.77989 0.30481 0.76580
 C260 C 0.74721 0.34922 0.68550
 C261 C 0.71776 0.31746 0.66424
 C262 C 0.69977 0.31693 0.60657
 C263 C 0.67105 0.28293 0.60509
 C264 C 0.67167 0.26436 0.66237
 N265 N 0.70050 0.28542 0.69834
 C266 C 0.64342 0.23092 0.68206
 C267 C 0.64904 0.20874 0.73737
 C268 C 0.61858 0.18161 0.76375
 C269 C 0.63718 0.16529 0.81560
 C270 C 0.67842 0.18299 0.81941
 N271 N 0.68545 0.20914 0.77134
 C272 C 0.70927 0.17210 0.86393
 H273 H 0.77942 0.15558 0.94584
 H274 H 0.84175 0.21286 0.93841
 H275 H 0.71492 0.22238 0.75857
 H276 H 0.84698 0.36981 0.83825
 H277 H 0.80335 0.40824 0.75082
 H278 H 0.70678 0.33871 0.56940
 H279 H 0.65157 0.27340 0.56637
 H280 H 0.62220 0.14260 0.84661
 H281 H 0.76791 0.27477 0.75212
 H282 H 0.58642 0.17413 0.74723
 C283 C 0.26907 0.68580 0.56879
 C284 C 0.30261 0.71512 0.56632
 C285 C 0.30144 0.73882 0.61980
 N286 N 0.26812 0.72514 0.65461
 C287 C 0.24832 0.69270 0.62352
 C288 C 0.33247 0.77035 0.63795
 C289 C 0.32537 0.79923 0.68652
 C290 C 0.35706 0.82375 0.71552
 C291 C 0.33653 0.84867 0.75838
 C292 C 0.29286 0.83891 0.75380
 N293 N 0.28639 0.80890 0.70979
 C294 C 0.25962 0.85890 0.78688
 C295 C 0.21704 0.84234 0.78464
 C296 C 0.17987 0.86612 0.79327
 C297 C 0.14635 0.83669 0.79544
 C298 C 0.16445 0.79597 0.78943
 N299 N 0.20755 0.79961 0.78165
 C300 C 0.14298 0.75567 0.79685
 C301 C 0.15755 0.71870 0.76504
 C302 C 0.14338 0.67633 0.77373
 C303 C 0.16309 0.65137 0.73014
 C304 C 0.18917 0.67904 0.69673
 N305 N 0.18543 0.71991 0.71793
 C306 C 0.21414 0.66679 0.64635
 H307 H 0.26109 0.66190 0.53440
 H308 H 0.32535 0.71838 0.52945
 H309 H 0.19794 0.74764 0.69739
 H310 H 0.39142 0.82361 0.70687
 H311 H 0.35209 0.87148 0.78894
 H312 H 0.17740 0.90093 0.79815
 H313 H 0.11263 0.84432 0.80169
 H314 H 0.15888 0.61678 0.72396
 H315 H 0.25661 0.79874 0.69264
 H316 H 0.12109 0.66433 0.80749
 C317 C 0.17646 0.20653 0.91006
 C318 C 0.20709 0.17495 0.90911
 C319 C 0.23152 0.18132 0.85716
 N320 N 0.21750 0.21722 0.82790
 C321 C 0.18320 0.23218 0.85943
 C322 C 0.26699 0.15498 0.83943
 C323 C 0.29595 0.16564 0.79157
 C324 C 0.33500 0.14505 0.78112
 C325 C 0.35384 0.16490 0.73209
 C326 C 0.32581 0.19683 0.71291
 N327 N 0.29038 0.19664 0.74887
 C328 C 0.33316 0.22426 0.66236
 C329 C 0.30641 0.25980 0.64822
 C330 C 0.30676 0.28212 0.59363
 C331 C 0.27998 0.31677 0.60066
 C332 C 0.26324 0.31387 0.65873
 N333 N 0.27942 0.27909 0.68778
 C334 C 0.23609 0.34504 0.68502
 C335 C 0.20931 0.33677 0.73542
 C336 C 0.18377 0.36731 0.76376
 C337 C 0.16082 0.34577 0.80786
 C338 C 0.17385 0.30284 0.80634
 N339 N 0.20284 0.29757 0.76139
 C340 C 0.15896 0.27000 0.84588
 H341 H 0.15315 0.21114 0.94578
 H342 H 0.21146 0.15117 0.94446
 H343 H 0.21436 0.26819 0.74569
 H344 H 0.34912 0.11858 0.80611
 H345 H 0.38482 0.15665 0.71300
 H346 H 0.32465 0.27452 0.55298
 H347 H 0.27328 0.34119 0.56676
 H348 H 0.13802 0.36060 0.83837
 H349 H 0.26251 0.21413 0.74146
 H350 H 0.18145 0.40148 0.75343
 C351 C 0.78999 0.83951 0.89484
 C352 C 0.82214 0.80943 0.89668
 C353 C 0.82027 0.78706 0.84205
 N354 N 0.78747 0.80196 0.80745
 C355 C 0.76887 0.83391 0.83977
 C356 C 0.84996 0.75515 0.82349
 C357 C 0.84279 0.72785 0.77284
 C358 C 0.87349 0.70077 0.74789
 C359 C 0.85332 0.67798 0.70206
 C360 C 0.81087 0.69191 0.69999
 N361 N 0.80468 0.72206 0.74359
 C362 C 0.77883 0.67486 0.66067
 C363 C 0.73829 0.69466 0.64957
 C364 C 0.70837 0.67992 0.60719
 C365 C 0.67490 0.70848 0.60767
 C366 C 0.68494 0.74006 0.65057
 N367 N 0.72418 0.73187 0.67524
 C368 C 0.65934 0.77721 0.66254
 C369 C 0.67278 0.81164 0.70118
 C370 C 0.65488 0.85275 0.70170
 C371 C 0.67683 0.87654 0.74507
 C372 C 0.70714 0.84922 0.77050
 N373 N 0.70407 0.80963 0.74410
 C374 C 0.73539 0.86062 0.81861
 H375 H 0.78280 0.86274 0.93018
 H376 H 0.84433 0.80480 0.93410
 H377 H 0.71973 0.78186 0.75841
 H378 H 0.90689 0.69747 0.76155
 H379 H 0.86828 0.65372 0.67377
 H380 H 0.71081 0.65232 0.57709
 H381 H 0.64728 0.70669 0.57764
 H382 H 0.67087 0.91002 0.75689
 H383 H 0.77513 0.73412 0.75716
 H384 H 0.62895 0.86466 0.67343
 C385 C 0.28720 0.08303 0.12131
 C386 C 0.25273 0.09989 0.14904
 H387 H 0.31844 0.09881 0.12604
 H388 H 0.22111 0.08514 0.14276
 C389 C 0.76519 0.59873 0.63470
 C390 C 0.78910 0.63452 0.62703
 H391 H 0.73903 0.59917 0.66722
 H392 H 0.81458 0.63535 0.59351
 C393 C 0.76257 0.90812 0.11417
 C394 C 0.73850 0.89623 0.16191
 H395 H 0.78976 0.88863 0.10074
 H396 H 0.71213 0.91692 0.17513
 C397 C 0.20690 0.40810 0.62988
 C398 C 0.23942 0.38912 0.65935
 H399 H 0.17469 0.39419 0.63165
 H400 H 0.27186 0.40216 0.65497
 C401 C 0.90019 0.23641 0.11458
 C402 C 0.89806 0.25966 0.16580
 H403 H 0.87553 0.21242 0.10414
 H404 H 0.92282 0.28380 0.17517
 C405 C 0.39882 0.73899 0.59551
 C406 C 0.37431 0.77372 0.60545
 H407 H 0.38807 0.70756 0.61169
 H408 H 0.38550 0.80553 0.59150
 C409 C 0.09424 0.75409 0.12245
 C410 C 0.11786 0.71807 0.12864
 H411 H 0.10531 0.78365 0.14454
 H412 H 0.10707 0.68756 0.10911
 C413 C 0.57818 0.25040 0.62569
 C414 C 0.60526 0.21960 0.64397
 H415 H 0.58335 0.28341 0.64133
 H416 H 0.60055 0.18627 0.62967
 C417 C 0.72293 0.09692 0.88850
 C418 C 0.70106 0.13288 0.90089
 H419 H 0.74427 0.09678 0.84960
 H420 H 0.68134 0.13526 0.94120
 C421 C 0.25815 0.58479 0.38459
 C422 C 0.23808 0.59161 0.33156
 H423 H 0.28190 0.60772 0.40160
 H424 H 0.21353 0.56864 0.31683
 C425 C 0.25061 0.90090 0.88109
 C426 C 0.27027 0.89629 0.82757
 H427 H 0.22576 0.87795 0.89440
 H428 H 0.29565 0.91886 0.81496
 C429 C 0.75749 0.41445 0.38920
 C430 C 0.78993 0.38705 0.37938
 H431 H 0.72563 0.40665 0.37155
 H432 H 0.82214 0.39468 0.39580
 C433 C 0.08788 0.24530 0.88203
 C434 C 0.11746 0.27717 0.87852
 H435 H 0.09448 0.21475 0.85956
 H436 H 0.11192 0.30787 0.90095
 C437 C 0.60651 0.73810 0.39281
 C438 C 0.61028 0.75642 0.33809
 H439 H 0.63261 0.71900 0.41124
 H440 H 0.58393 0.77567 0.32091
 C441 C 0.91627 0.78127 0.87565
 C442 C 0.88988 0.74849 0.85972
 H443 H 0.90958 0.81381 0.85997
 H444 H 0.89706 0.71573 0.87399
 C445 C 0.41176 0.22956 0.35813
 C446 C 0.37278 0.21258 0.36852
 H447 H 0.41665 0.25000 0.31877
 H448 H 0.36709 0.19343 0.40894
 C449 C 0.70577 0.91523 0.88842
 C450 C 0.73413 0.90450 0.84552
 H451 H 0.67745 0.89514 0.89597
 H452 H 0.76291 0.92425 0.83951
 C453 C 0.24381 0.38937 0.40595
 C454 C 0.22859 0.38317 0.34970
 H455 H 0.26104 0.36367 0.42871
 H456 H 0.21061 0.40887 0.32800
 C457 C 0.24765 0.08562 0.89155
 C458 C 0.27733 0.11559 0.87599
 H459 H 0.21429 0.09007 0.87816
 H460 H 0.31037 0.11166 0.89111
 C461 C 0.75149 0.60201 0.39714
 C462 C 0.77191 0.60708 0.34409
 H463 H 0.72883 0.62612 0.41255
 H464 H 0.79471 0.58273 0.32988
 C465 C 0.09863 0.77798 0.88616
 C466 C 0.10558 0.75090 0.83947
 H467 H 0.11970 0.80558 0.89346
 H468 H 0.08341 0.72396 0.83285
 C469 C 0.59815 0.21078 0.39194
 C470 C 0.62020 0.24426 0.36868
 H471 H 0.61126 0.17839 0.38927
 H472 H 0.60769 0.27673 0.37422
 C473 C 0.89911 0.25742 0.87342
 C474 C 0.86788 0.28681 0.87965
 H475 H 0.89351 0.22990 0.84361
 H476 H 0.87208 0.31403 0.91032
 C477 C 0.42723 0.73184 0.35218
 C478 C 0.38917 0.75186 0.35154
 H479 H 0.43588 0.70965 0.31628
 H480 H 0.38177 0.77438 0.38780
 C481 C 0.29990 0.89593 0.11339
 C482 C 0.26832 0.87718 0.14537
 H483 H 0.33105 0.88042 0.11012
 H484 H 0.23668 0.89190 0.14609
 C485 C 0.78064 0.41108 0.62945
 C486 C 0.74602 0.39158 0.65370
 H487 H 0.81252 0.39793 0.63685
 H488 H 0.71421 0.40413 0.64364
 C489 C 0.76383 0.09742 0.12680
 C490 C 0.74055 0.10723 0.17618
 H491 H 0.79073 0.11772 0.11330
 H492 H 0.71313 0.08680 0.18741
 C493 C 0.23634 0.59396 0.61738
 C494 C 0.20558 0.62397 0.61782
 H495 H 0.26637 0.60064 0.64124
 H496 H 0.17490 0.61823 0.59534
 C497 C 0.90544 0.76671 0.10909
 C498 C 0.90025 0.74491 0.16099
 H499 H 0.88007 0.78758 0.09257
 H500 H 0.92588 0.72394 0.17614
 C501 C 0.39843 0.24726 0.60558
 C502 C 0.37140 0.21552 0.62328
 H503 H 0.39266 0.28034 0.61983
 H504 H 0.37776 0.18233 0.61014
 C505 C 0.08344 0.23479 0.11727
 C506 C 0.11012 0.26756 0.13247
 H507 H 0.09041 0.20224 0.13263
 H508 H 0.10274 0.30035 0.11855
 C509 C 0.58696 0.75239 0.62912
 C510 C 0.61840 0.78250 0.62761
 H511 H 0.59040 0.72484 0.65915
 H512 H 0.61593 0.80968 0.59676
   
