data_POSCAR
  _audit_creation_date              2014-09-24
  _audit_creation_method            'ToBaCCo'
  _symmetry_space_group_name_H-M    'P1'
  _symmetry_Int_Tables_number       1
  _symmetry_cell_setting            triclinic
  loop_
  _symmetry_equiv_pos_as_xyz
 x,y,z
_cell_length_a 29.4244
_cell_length_b 29.4207
_cell_length_c 29.3545
_cell_angle_alpha 90.158600
_cell_angle_beta 90.307400
_cell_angle_gamma 90.289400
loop_
  _atom_site_label
  _atom_site_type_symbol
  _atom_site_fract_x
  _atom_site_fract_y
  _atom_site_fract_z
C1 C 0.70561 0.69428 0.94163
 H2 H 0.73849 0.69409 0.92532
 C3 C 0.66843 0.71432 0.91974
 H4 H 0.67284 0.73015 0.88677
 C5 C 0.65849 0.67038 1.00243
 H6 H 0.65407 0.65163 1.03364
 C7 C 0.62058 0.69003 0.98179
 H8 H 0.58751 0.68678 0.99756
 N9 N 0.69984 0.67204 0.98180
 C10 C 0.82883 0.64032 1.04840
 H11 H 0.82040 0.60532 1.05594
 C12 C 0.87027 0.65828 1.06291
 H13 H 0.89351 0.63729 1.08229
 C14 C 0.80894 0.71014 1.01345
 H15 H 0.78495 0.72992 0.99388
 C16 C 0.85035 0.72960 1.02751
 H17 H 0.85809 0.76464 1.01923
 Zn18 Zn 0.74693 0.63397 1.00371
 N19 N 0.79934 0.66604 1.02377
 C20 C 0.80830 0.59520 0.94234
 N21 N 0.76384 0.59542 0.95484
 C22 C 0.73155 0.57350 0.92944
 C23 C 0.74358 0.55118 0.88901
 C24 C 0.82169 0.57321 0.90270
 C25 C 0.72034 0.62640 1.09312
 C26 C 0.70264 0.60676 1.13233
 C27 C 0.69632 0.53520 1.09184
 C28 C 0.71439 0.55633 1.05321
 N29 N 0.72522 0.60133 1.05447
 H30 H 0.83348 0.61353 0.96196
 H31 H 0.69629 0.57501 0.93955
 H32 H 0.71770 0.53494 0.86815
 H33 H 0.85708 0.57429 0.89267
 H34 H 0.72939 0.66208 1.09305
 H35 H 0.69799 0.62752 1.16252
 H36 H 0.68665 0.49962 1.09031
 H37 H 0.71885 0.53712 1.02211
 C38 C 0.88138 0.70313 1.05214
 C39 C 0.62535 0.71123 0.93959
 C40 C 0.69004 0.56088 1.13164
 C41 C 0.78910 0.55172 0.87537
 C42 C 0.71197 0.31254 0.54170
 H43 H 0.74479 0.30986 0.55823
 C44 C 0.67409 0.29064 0.56031
 H45 H 0.67784 0.27067 0.59104
 C46 C 0.66598 0.34470 0.48364
 H47 H 0.66239 0.36714 0.45485
 C48 C 0.62736 0.32339 0.50110
 H49 H 0.59452 0.32916 0.48535
 N50 N 0.70714 0.33956 0.50446
 C51 C 0.84034 0.37084 0.44697
 H52 H 0.83651 0.40738 0.44597
 C53 C 0.87927 0.35090 0.42926
 H54 H 0.90546 0.37209 0.41435
 C55 C 0.81033 0.29860 0.46686
 H56 H 0.78311 0.27851 0.48120
 C57 C 0.84893 0.27714 0.44929
 H58 H 0.85142 0.24043 0.45000
 Zn59 Zn 0.75620 0.37757 0.48698
 N60 N 0.80698 0.34472 0.46552
 C61 C 0.81685 0.40805 0.55496
 N62 N 0.77353 0.41195 0.53902
 C63 C 0.74180 0.43609 0.56238
 C64 C 0.75331 0.45738 0.60365
 C65 C 0.82970 0.42880 0.59574
 C66 C 0.73143 0.39220 0.39793
 C67 C 0.71327 0.41443 0.36028
 C68 C 0.70786 0.48296 0.40558
 C69 C 0.72646 0.45938 0.44257
 N70 N 0.73676 0.41451 0.43826
 H71 H 0.84130 0.38768 0.53696
 H72 H 0.70730 0.43771 0.54960
 H73 H 0.72782 0.47591 0.62250
 H74 H 0.86413 0.42484 0.60837
 H75 H 0.73988 0.35653 0.39558
 H76 H 0.70767 0.39586 0.32880
 H77 H 0.69801 0.51817 0.40948
 H78 H 0.73122 0.47645 0.47489
 C79 C 0.88368 0.30369 0.43037
 C80 C 0.63128 0.29687 0.54028
 C81 C 0.70066 0.45994 0.36431
 C82 C 0.79767 0.45329 0.62053
 C83 C 0.21168 -0.18655 0.04098
 H84 H 0.24446 -0.18912 0.05762
 C85 C 0.17379 -0.20847 0.05955
 H86 H 0.17749 -0.22833 0.09036
 C87 C 0.16581 -0.15472 -0.01734
 H88 H 0.16227 -0.13242 -0.04625
 C89 C 0.12718 -0.17606 0.00006
 H90 H 0.09438 -0.17043 -0.01583
 N91 N 0.20692 -0.15969 0.00362
 C92 C 0.33990 -0.12874 -0.05444
 H93 H 0.33600 -0.09223 -0.05578
 C94 C 0.37884 -0.14877 -0.07202
 H95 H 0.40496 -0.12767 -0.08718
 C96 C 0.31011 -0.20084 -0.03372
 H97 H 0.28299 -0.22084 -0.01907
 C98 C 0.34873 -0.22238 -0.05114
 H99 H 0.35132 -0.25908 -0.05002
 Zn100 Zn 0.25599 -0.12177 -0.01403
 N101 N 0.30666 -0.15475 -0.03552
 C102 C 0.31703 -0.09118 0.05351
 N103 N 0.27360 -0.08728 0.03787
 C104 C 0.24205 -0.06312 0.06145
 C105 C 0.25386 -0.04183 0.10264
 C106 C 0.33019 -0.07043 0.09418
 C107 C 0.23142 -0.10738 -0.10314
 C108 C 0.21294 -0.08547 -0.14081
 C109 C 0.20651 -0.01697 -0.09550
 C110 C 0.22547 -0.04029 -0.05853
 N111 N 0.23641 -0.08499 -0.06282
 H112 H 0.34135 -0.11157 0.03535
 H113 H 0.20745 -0.06151 0.04893
 H114 H 0.22851 -0.02330 0.12169
 H115 H 0.36470 -0.07440 0.10656
 H116 H 0.24035 -0.14294 -0.10545
 H117 H 0.20770 -0.10434 -0.17222
 H118 H 0.19620 0.01812 -0.09140
 H119 H 0.22994 -0.02318 -0.02619
 C120 C 0.38338 -0.19595 -0.07038
 C121 C 0.13103 -0.20243 0.03934
 C122 C 0.19957 -0.04011 -0.13682
 C123 C 0.29834 -0.04593 0.11921
 C124 C 0.20623 0.19499 0.44081
 H125 H 0.23915 0.19525 0.42458
 C126 C 0.16893 0.21498 0.41904
 H127 H 0.17329 0.23122 0.38627
 C128 C 0.15914 0.17004 0.50121
 H129 H 0.15478 0.15090 0.53218
 C130 C 0.12113 0.18963 0.48071
 H131 H 0.08805 0.18596 0.49636
 N132 N 0.20053 0.17226 0.48070
 C133 C 0.32980 0.14004 0.54665
 H134 H 0.32157 0.10481 0.55329
 C135 C 0.37114 0.15787 0.56160
 H136 H 0.39451 0.13651 0.58040
 C137 C 0.30942 0.21065 0.51362
 H138 H 0.28526 0.23080 0.49464
 C139 C 0.35073 0.22999 0.52817
 H140 H 0.35824 0.26529 0.52085
 Zn141 Zn 0.24781 0.13422 0.50233
 N142 N 0.30011 0.16623 0.52276
 C143 C 0.30923 0.09701 0.44011
 N144 N 0.26493 0.09612 0.45319
 C145 C 0.23290 0.07329 0.42825
 C146 C 0.24505 0.05102 0.38782
 C147 C 0.32271 0.07513 0.40046
 C148 C 0.22123 0.12622 0.59161
 C149 C 0.20386 0.10635 0.63085
 C150 C 0.19822 0.03479 0.59041
 C151 C 0.21594 0.05609 0.55170
 N152 N 0.22629 0.10121 0.55294
 H153 H 0.33415 0.11612 0.45930
 H154 H 0.19773 0.07394 0.43878
 H155 H 0.21936 0.03395 0.36739
 H156 H 0.35795 0.07703 0.39002
 H157 H 0.22991 0.16199 0.59155
 H158 H 0.19899 0.12685 0.66114
 H159 H 0.18888 -0.00085 0.58912
 H160 H 0.22056 0.03691 0.52062
 C161 C 0.38195 0.20307 0.55207
 C162 C 0.12582 0.21135 0.43875
 C163 C 0.19184 0.06040 0.63016
 C164 C 0.29039 0.05259 0.37367
 C165 C 0.19610 0.44076 0.20646
 H166 H 0.19620 0.42479 0.23961
 C167 C 0.21600 0.41869 0.16932
 H168 H 0.23201 0.38595 0.17405
 C169 C 0.17156 0.50076 0.15862
 H170 H 0.15256 0.53167 0.15392
 C171 C 0.19106 0.47995 0.12075
 H172 H 0.18748 0.49532 0.08743
 N173 N 0.17358 0.48058 0.20030
 C174 C 0.14063 0.54644 0.32938
 H175 H 0.10538 0.55274 0.32100
 C176 C 0.15827 0.56161 0.37078
 H177 H 0.13675 0.58022 0.39407
 C178 C 0.21151 0.51413 0.30925
 H179 H 0.23185 0.49538 0.28513
 C180 C 0.23068 0.52892 0.35062
 H181 H 0.26602 0.52200 0.35824
 Zn182 Zn 0.13535 0.50230 0.24730
 N183 N 0.16704 0.52280 0.29979
 C184 C 0.09773 0.44013 0.30875
 N185 N 0.09707 0.45330 0.26435
 C186 C 0.07434 0.42854 0.23212
 C187 C 0.05189 0.38818 0.24415
 C188 C 0.07568 0.40053 0.32213
 C189 C 0.12755 0.59124 0.21998
 C190 C 0.10766 0.63036 0.20252
 C191 C 0.03601 0.58997 0.19743
 C192 C 0.05732 0.55139 0.21522
 N193 N 0.10250 0.55266 0.22535
 H194 H 0.11680 0.45918 0.33382
 H195 H 0.07519 0.43916 0.19688
 H196 H 0.03490 0.36788 0.21830
 H197 H 0.07739 0.38999 0.35745
 H198 H 0.16336 0.59121 0.22854
 H199 H 0.12819 0.66058 0.19741
 H200 H 0.00031 0.58867 0.18829
 H201 H 0.03810 0.52041 0.22014
 C202 C 0.20352 0.55258 0.38173
 C203 C 0.21249 0.43803 0.12591
 C204 C 0.06164 0.62963 0.19075
 C205 C 0.05322 0.37393 0.28959
 C206 C -0.18824 0.04252 0.20981
 H207 H -0.19116 0.05888 0.24271
 C208 C -0.20980 0.06125 0.17169
 H209 H -0.22976 0.09189 0.17544
 C210 C -0.15582 -0.01519 0.16391
 H211 H -0.13339 -0.04388 0.16047
 C212 C -0.17677 0.00235 0.12503
 H213 H -0.17070 -0.01334 0.09219
 N214 N -0.16124 0.00541 0.20515
 C215 C -0.13011 -0.05243 0.33866
 H216 H -0.09360 -0.05343 0.33464
 C217 C -0.14986 -0.07016 0.37781
 H218 H -0.12855 -0.08510 0.40394
 C219 C -0.20245 -0.03241 0.30900
 H220 H -0.22264 -0.01796 0.28183
 C221 C -0.22372 -0.05000 0.34783
 H222 H -0.26040 -0.04923 0.35055
 Zn223 Zn -0.12347 -0.01217 0.25453
 N224 N -0.15636 -0.03379 0.30538
 C225 C -0.09321 0.05540 0.31553
 N226 N -0.08901 0.03964 0.27213
 C227 C -0.06439 0.06294 0.24061
 C228 C -0.04281 0.10391 0.25245
 C229 C -0.07221 0.09586 0.32872
 C230 C -0.10904 -0.10089 0.22971
 C231 C -0.08683 -0.13847 0.21174
 C232 C -0.01806 -0.09343 0.20687
 C233 C -0.04163 -0.05650 0.22527
 N234 N -0.08659 -0.06072 0.23520
 H235 H -0.11398 0.03748 0.33981
 H236 H -0.06253 0.05033 0.20602
 H237 H -0.02384 0.12270 0.22714
 H238 H -0.07636 0.10832 0.36322
 H239 H -0.14478 -0.10317 0.23790
 H240 H -0.10550 -0.16983 0.20600
 H241 H 0.01725 -0.08960 0.19730
 H242 H -0.02444 -0.02431 0.23020
 C243 C -0.19702 -0.06898 0.38252
 C244 C -0.20324 0.04146 0.12875
 C245 C -0.04121 -0.13453 0.19950
 C246 C -0.04714 0.12055 0.29692
 C247 C 0.31199 0.54187 0.71221
 H248 H 0.30930 0.55811 0.74519
 C249 C 0.29020 0.56073 0.67430
 H250 H 0.27030 0.59137 0.67817
 C251 C 0.34408 0.48429 0.66589
 H252 H 0.36648 0.45560 0.66220
 C253 C 0.32289 0.50199 0.62724
 H254 H 0.32868 0.48653 0.59425
 N255 N 0.33892 0.50475 0.70724
 C256 C 0.37020 0.44673 0.84055
 H257 H 0.40674 0.44596 0.83675
 C258 C 0.35029 0.42862 0.87945
 H259 H 0.37151 0.41367 0.90564
 C260 C 0.29792 0.46636 0.81047
 H261 H 0.27781 0.48073 0.78321
 C262 C 0.27649 0.44838 0.84903
 H263 H 0.23978 0.44883 0.85147
 Zn264 Zn 0.37689 0.48703 0.75635
 N265 N 0.34404 0.46532 0.80718
 C266 C 0.40763 0.55460 0.81721
 N267 N 0.41143 0.53882 0.77379
 C268 C 0.43566 0.56215 0.74199
 C269 C 0.45717 0.60323 0.75353
 C270 C 0.42859 0.59518 0.83011
 C271 C 0.39121 0.39837 0.73117
 C272 C 0.41338 0.36087 0.71301
 C273 C 0.48213 0.40594 0.70813
 C274 C 0.45861 0.44280 0.72673
 N275 N 0.41367 0.43853 0.73676
 H276 H 0.38718 0.53661 0.84171
 H277 H 0.43720 0.54950 0.70739
 H278 H 0.47578 0.62206 0.72798
 H279 H 0.42473 0.60769 0.86463
 H280 H 0.35550 0.39606 0.73945
 H281 H 0.39471 0.32952 0.70720
 H282 H 0.51743 0.40981 0.69851
 H283 H 0.47580 0.47497 0.73174
 C284 C 0.30307 0.42937 0.88379
 C285 C 0.29648 0.54107 0.63131
 C286 C 0.45897 0.36487 0.70067
 C287 C 0.45320 0.61994 0.79800
 C288 C 0.69724 0.94170 0.70672
 H289 H 0.69776 0.92543 0.73972
 C290 C 0.71686 0.92008 0.66916
 H291 H 0.73310 0.88739 0.67342
 C292 C 0.67189 1.00200 0.65970
 H293 H 0.65268 1.03285 0.65547
 C294 C 0.69110 0.98164 0.62143
 H295 H 0.68709 0.99730 0.58829
 N296 N 0.67443 0.98144 0.70117
 C297 C 0.64162 1.04542 0.83141
 H298 H 0.60617 1.05111 0.82343
 C299 C 0.65936 1.06050 0.87281
 H300 H 0.63759 1.07842 0.89645
 C301 C 0.71294 1.01485 0.81016
 H302 H 0.73340 0.99684 0.78559
 C303 C 0.73225 1.02957 0.85150
 H304 H 0.76785 1.02331 0.85855
 Zn305 Zn 0.63638 1.00245 0.74868
 N306 N 0.66820 1.02271 0.80126
 C307 C 0.59999 0.93901 0.80957
 N308 N 0.59850 0.95301 0.76545
 C309 C 0.57506 0.92890 0.73322
 C310 C 0.55254 0.88850 0.74499
 C311 C 0.57792 0.89933 0.82270
 C312 C 0.62784 1.09162 0.72229
 C313 C 0.60777 1.13062 0.70475
 C314 C 0.53649 1.08966 0.69898
 C315 C 0.55797 1.05122 0.71687
 N316 N 0.60308 1.05281 0.72732
 H317 H 0.61968 0.95750 0.83460
 H318 H 0.57528 0.94013 0.69816
 H319 H 0.53484 0.86881 0.71915
 H320 H 0.58020 0.88819 0.85780
 H321 H 0.66360 1.09184 0.73105
 H322 H 0.62811 1.16100 0.69983
 H323 H 0.50089 1.08807 0.68951
 H324 H 0.53897 1.02006 0.72149
 C325 C 0.70496 1.05234 0.88321
 C326 C 0.71278 0.93978 0.62596
 C327 C 0.56187 1.12953 0.69253
 C328 C 0.55457 0.87349 0.79016
 C329 C 0.04156 0.21092 -0.18611
 H330 H 0.05799 0.24380 -0.18851
 C331 C 0.06050 0.17317 -0.20783
 H332 H 0.09136 0.17707 -0.22742
 C333 C -0.01658 0.16466 -0.15474
 H334 H -0.04554 0.16091 -0.13264
 C335 C 0.00119 0.12616 -0.17589
 H336 H -0.01449 0.09325 -0.17037
 N337 N 0.00413 0.20590 -0.15954
 C338 C -0.05415 0.33861 -0.12811
 H339 H -0.05545 0.33442 -0.09154
 C340 C -0.07184 0.37767 -0.14800
 H341 H -0.08703 0.40357 -0.12672
 C342 C -0.03348 0.30944 -0.20050
 H343 H -0.01881 0.28249 -0.22066
 C344 C -0.05101 0.34817 -0.22190
 H345 H -0.04996 0.35105 -0.25866
 Zn346 Zn -0.01377 0.25469 -0.12144
 N347 N -0.03522 0.30561 -0.15432
 C348 C 0.05357 0.31550 -0.09019
 N349 N 0.03790 0.27207 -0.08653
 C350 C 0.06143 0.24028 -0.06248
 C351 C 0.10265 0.25182 -0.04116
 C352 C 0.09427 0.32839 -0.06940
 C353 C -0.10264 0.22974 -0.10771
 C354 C -0.14036 0.21134 -0.08596
 C355 C -0.09555 0.20508 -0.01690
 C356 C -0.05851 0.22395 -0.04007
 N357 N -0.06255 0.23480 -0.08495
 H358 H 0.03544 0.34002 -0.11050
 H359 H 0.04889 0.20569 -0.06105
 H360 H 0.12168 0.22627 -0.02278
 H361 H 0.10669 0.36291 -0.07323
 H362 H -0.10475 0.23863 -0.14339
 H363 H -0.17160 0.20610 -0.10510
 H364 H -0.09167 0.19490 0.01836
 H365 H -0.02635 0.22850 -0.02267
 C366 C -0.07031 0.38257 -0.19526
 C367 C 0.04058 0.13027 -0.20189
 C368 C -0.13665 0.19813 -0.04039
 C369 C 0.11929 0.29628 -0.04509
 C370 C 0.44225 0.20604 0.19553
 H371 H 0.42598 0.23893 0.19553
 C372 C 0.42047 0.16871 0.21547
 H373 H 0.38766 0.17304 0.23143
 C374 C 0.50271 0.15901 0.17113
 H375 H 0.53370 0.15469 0.15217
 C376 C 0.48219 0.12097 0.19067
 H377 H 0.49786 0.08790 0.18716
 N378 N 0.48216 0.20038 0.17304
 C379 C 0.54747 0.32977 0.13984
 H380 H 0.55420 0.32133 0.10463
 C381 C 0.56219 0.37129 0.15739
 H382 H 0.58090 0.39459 0.13587
 C383 C 0.51444 0.30976 0.21063
 H384 H 0.49555 0.28568 0.23095
 C385 C 0.52876 0.35126 0.22970
 H386 H 0.52135 0.35898 0.26498
 Zn387 Zn 0.50350 0.24754 0.13458
 N388 N 0.52369 0.30017 0.16623
 C389 C 0.44115 0.30843 0.09642
 N390 N 0.45425 0.26414 0.09628
 C391 C 0.42922 0.23171 0.07419
 C392 C 0.38860 0.24340 0.05200
 C393 C 0.40131 0.32149 0.07458
 C394 C 0.59268 0.22115 0.12647
 C395 C 0.63175 0.20382 0.10648
 C396 C 0.59091 0.19783 0.03497
 C397 C 0.55240 0.21552 0.05639
 N398 N 0.55391 0.22603 0.10155
 H399 H 0.46046 0.33369 0.11495
 H400 H 0.43980 0.19657 0.07543
 H401 H 0.36808 0.21739 0.03558
 H402 H 0.39082 0.35673 0.07592
 H403 H 0.59284 0.22996 0.16228
 H404 H 0.66212 0.19908 0.12692
 H405 H 0.58940 0.18836 -0.00069
 H406 H 0.52124 0.21999 0.03727
 C407 C 0.55254 0.38239 0.20255
 C408 C 0.44018 0.12560 0.21204
 C409 C 0.63078 0.19164 0.06049
 C410 C 0.37438 0.28873 0.05287
 C411 C 0.94053 0.70578 0.69705
 H412 H 0.92443 0.73876 0.69751
 C413 C 0.91887 0.66842 0.71706
 H414 H 0.88631 0.67279 0.73352
 C415 C 1.00046 0.65866 0.67156
 H416 H 1.03119 0.65433 0.65217
 C417 C 0.98007 0.62059 0.69116
 H418 H 0.99556 0.58748 0.68725
 N419 N 0.98013 0.70010 0.67402
 C420 C 1.04520 0.82973 0.64152
 H421 H 1.05117 0.82179 0.60606
 C422 C 1.06036 0.87095 0.65938
 H423 H 1.07863 0.89456 0.63781
 C424 C 1.01377 0.80864 0.71274
 H425 H 0.99537 0.78422 0.73311
 C426 C 1.02856 0.84982 0.73213
 H427 H 1.02200 0.85699 0.76769
 Zn428 Zn 1.00149 0.74753 0.63593
 N429 N 1.02200 0.79974 0.66799
 C430 C 0.93875 0.80887 0.59934
 N431 N 0.95228 0.76474 0.59785
 C432 C 0.92789 0.73286 0.57425
 C433 C 0.88765 0.74503 0.55162
 C434 C 0.89926 0.82237 0.57716
 C435 C 1.09048 0.72090 0.62773
 C436 C 1.12959 0.70373 0.60769
 C437 C 1.08909 0.69885 0.53592
 C438 C 1.05052 0.71636 0.55739
 N439 N 1.05184 0.72622 0.60270
 H440 H 0.95746 0.83363 0.61912
 H441 H 0.93876 0.69779 0.57445
 H442 H 0.86770 0.71946 0.53384
 H443 H 0.88848 0.85748 0.57947
 H444 H 1.09050 0.72923 0.66365
 H445 H 1.15985 0.69863 0.62821
 H446 H 1.08773 0.68990 0.50012
 H447 H 1.01949 0.72123 0.53817
 C448 C 1.05177 0.88133 0.70493
 C449 C 0.93839 0.62527 0.71315
 C450 C 1.12880 0.69219 0.56154
 C451 C 0.87310 0.79022 0.55369
 C452 C 0.54148 0.71300 0.31076
 H453 H 0.55789 0.74585 0.30791
 C454 C 0.56009 0.67509 0.28899
 H455 H 0.59068 0.67885 0.26895
 C456 C 0.48378 0.66697 0.34322
 H457 H 0.45514 0.66336 0.36575
 C458 C 0.50122 0.62832 0.32205
 H459 H 0.48560 0.59546 0.32800
 N460 N 0.50442 0.70817 0.33787
 C461 C 0.44694 0.84129 0.36935
 H462 H 0.44612 0.83722 0.40596
 C463 C 0.42909 0.88033 0.34958
 H464 H 0.41429 0.90630 0.37108
 C465 C 0.46654 0.81177 0.29680
 H466 H 0.48084 0.78469 0.27654
 C467 C 0.44883 0.85048 0.27547
 H468 H 0.44943 0.85310 0.23866
 Zn469 Zn 0.48696 0.75724 0.37588
 N470 N 0.46540 0.80813 0.34301
 C471 C 0.55470 0.81790 0.40656
 N472 N 0.53883 0.77457 0.41049
 C473 C 0.56202 0.74290 0.43501
 C474 C 0.60301 0.75450 0.45673
 C475 C 0.59519 0.83085 0.42773
 C476 C 0.39821 0.73223 0.39041
 C477 C 0.36067 0.71416 0.41272
 C478 C 0.40582 0.70924 0.48160
 C479 C 0.44270 0.72774 0.45793
 N480 N 0.43842 0.73774 0.41286
 H481 H 0.53684 0.84231 0.38589
 H482 H 0.54931 0.70838 0.43665
 H483 H 0.62172 0.72906 0.47560
 H484 H 0.60776 0.86530 0.42378
 H485 H 0.39588 0.74049 0.35459
 H486 H 0.32928 0.70841 0.39405
 H487 H 0.40970 0.69963 0.51699
 H488 H 0.47491 0.73269 0.47512
 C489 C 0.42996 0.88507 0.30225
 C490 C 0.54023 0.63224 0.29545
 C491 C 0.36468 0.70185 0.45845
 C492 C 0.61978 0.79889 0.45269
 Si493 Si 0.35798 0.00357 0.24920
 Si494 Si 0.11815 1.00926 0.75163
 Si495 Si 0.61764 0.51110 0.24899
 Si496 Si 0.85658 0.50313 0.75068
 Si497 Si 0.24937 0.35538 0.00419
 Si498 Si 0.75145 0.11755 1.00904
 Si499 Si 0.24986 0.61886 0.51001
 Si500 Si 0.74927 0.85796 0.50351
 Si501 Si 0.00378 0.24949 0.35694
 Si502 Si 1.00999 0.75052 0.11673
 Si503 Si 0.51021 0.25000 0.61778
 Si504 Si 0.50381 0.74940 0.85712
 C505 C 0.41034 -0.07772 0.28301
 C506 C 0.39113 -0.04478 0.26814
 C507 C 0.90915 0.42196 0.78437
 C508 C 0.88988 0.45489 0.76961
 C509 C 0.06295 1.09013 0.78151
 C510 C 0.08333 1.05694 0.76905
 C511 C 0.56238 0.59197 0.27882
 C512 C 0.58268 0.55872 0.26636
 C513 C 0.56915 0.42500 0.22043
 C514 C 0.58598 0.46035 0.23296
 C515 C 0.06891 0.92361 0.72307
 C516 C 0.08613 0.95874 0.73570
 C517 C 0.91372 0.58535 0.72726
 C518 C 0.89206 0.55197 0.73730
 C519 C 0.41540 0.08567 0.22597
 C520 C 0.39363 0.05232 0.23589
 C521 C 0.28272 0.40837 -0.07701
 C522 C 0.26802 0.38882 -0.04416
 C523 C 0.78278 0.91046 0.42204
 C524 C 0.76815 0.89120 0.45510
 C525 C 0.78119 0.06252 1.09046
 C526 C 0.76877 0.08274 1.05699
 C527 C 0.27982 0.56346 0.59105
 C528 C 0.26733 0.58391 0.55777
 C529 C 0.22145 0.56970 0.42417
 C530 C 0.23397 0.58689 0.45940
 C531 C 0.72220 0.06863 0.92327
 C532 C 0.73512 0.08567 0.95846
 C533 C 0.72639 0.91514 0.58585
 C534 C 0.73610 0.89348 0.55237
 C535 C 0.22636 0.41296 0.08618
 C536 C 0.23622 0.39103 0.05293
 C537 C -0.07709 0.28326 0.40973
 C538 C -0.04429 0.26845 0.39038
 C539 C 0.42269 0.78352 0.90927
 C540 C 0.45559 0.76859 0.89017
 C541 C 1.09077 0.78073 0.06140
 C542 C 1.05753 0.76809 0.08168
 C543 C 0.59104 0.28009 0.56244
 C544 C 0.55782 0.26751 0.58278
 C545 C 0.42437 0.22118 0.56891
 C546 C 0.45961 0.23386 0.58592
 C547 C 0.92394 0.72141 0.06844
 C548 C 0.95928 0.73425 0.08512
 C549 C 0.58554 0.72544 0.91478
 C550 C 0.55230 0.73565 0.89296
 C551 C 0.08592 0.22554 0.41406
 C552 C 0.05257 0.23573 0.39240
 C553 C 0.54236 0.16852 0.67064
 C554 C 0.52827 0.20134 0.65077
 C555 C 1.04221 0.66882 0.16916
 C556 C 1.02813 0.70178 0.14952
 C557 C 0.97963 0.82851 0.17549
 C558 C 0.99390 0.79721 0.15340
 C559 C 0.47980 0.32797 0.67654
 C560 C 0.49407 0.29671 0.65441
 C561 C 0.47235 0.66304 0.81142
 C562 C 0.48633 0.69853 0.82667
 C563 C -0.02786 0.16348 0.31069
 C564 C -0.01380 0.19881 0.32622
 C565 C 0.03413 0.33134 0.30409
 C566 C 0.02052 0.29691 0.32152
 C567 C 0.53503 0.83101 0.80441
 C568 C 0.52104 0.79666 0.82170
 C569 C 0.67007 0.54340 0.16721
 C570 C 0.65037 0.52922 0.20015
 C571 C 0.17029 1.04106 0.66949
 C572 C 0.15073 1.02712 0.70259
 C573 C 0.17720 0.97857 0.82963
 C574 C 0.15495 0.99302 0.79837
 C575 C 0.67649 0.48077 0.32727
 C576 C 0.65433 0.49504 0.29588
 C577 C 0.81105 0.47218 0.66385
 C578 C 0.82625 0.48594 0.69952
 C579 C 0.31204 -0.02712 0.16246
 C580 C 0.32747 -0.01346 0.19807
 C581 C 0.30501 0.03363 0.33104
 C582 C 0.32251 0.02015 0.29661
 C583 C 0.80364 0.53295 0.83263
 C584 C 0.82110 0.51958 0.79812
 C585 C 0.16798 0.67082 0.54200
 C586 C 0.20097 0.65136 0.52794
 C587 C 0.66989 0.17006 1.04104
 C588 C 0.70279 0.15040 1.02699
 C589 C 0.82968 0.17601 0.97824
 C590 C 0.79832 0.15400 0.99268
 C591 C 0.32776 0.67776 0.47941
 C592 C 0.29650 0.65562 0.49379
 C593 C 0.66279 0.81238 0.47205
 C594 C 0.69826 0.82764 0.48612
 C595 C 0.16262 0.30969 -0.02638
 C596 C 0.19828 0.32494 -0.01278
 C597 C 0.33153 0.30291 0.03412
 C598 C 0.29692 0.32012 0.02073
 C599 C 0.83073 0.80483 0.53420
 C600 C 0.79647 0.82237 0.52035
   
