data_POSCAR
  _audit_creation_date              2014-09-24
  _audit_creation_method            'ToBaCCo'
  _symmetry_space_group_name_H-M    'P1'
  _symmetry_Int_Tables_number       1
  _symmetry_cell_setting            triclinic
  loop_
  _symmetry_equiv_pos_as_xyz
 x,y,z
_cell_length_a 25.3615
_cell_length_b 25.4049
_cell_length_c 64.4440
_cell_angle_alpha 82.674200
_cell_angle_beta 93.695900
_cell_angle_gamma 120.102300
loop_
  _atom_site_label
  _atom_site_type_symbol
  _atom_site_fract_x
  _atom_site_fract_y
  _atom_site_fract_z
C1 C -0.00164 0.12694 0.52414
 H2 H 0.04264 0.13086 0.52316
 C3 C -0.00991 0.16218 0.53704
 H4 H 0.02808 0.19333 0.54608
 C5 C -0.10553 0.08057 0.51383
 H6 H -0.14252 0.04852 0.50477
 C7 C -0.11587 0.11504 0.52667
 H8 H -0.16097 0.10933 0.52759
 N9 N -0.04924 0.08652 0.51310
 C10 C -0.01122 -0.06004 0.50731
 H11 H -0.00774 -0.05768 0.49053
 C12 C -0.01065 -0.10821 0.52036
 H13 H -0.00612 -0.14275 0.51367
 C14 C -0.02518 -0.02024 0.53654
 H15 H -0.03284 0.01277 0.54281
 C16 C -0.02466 -0.06736 0.55009
 H17 H -0.03115 -0.06984 0.56672
 Zn18 Zn -0.03092 0.04007 0.49726
 N19 N -0.01891 -0.01757 0.51555
 C20 C 0.09001 0.08974 0.48144
 N21 N 0.03987 0.09615 0.48158
 C22 C 0.03793 0.14418 0.47029
 C23 C 0.08691 0.18720 0.45766
 C24 C 0.14017 0.13187 0.46893
 C25 C -0.14778 -0.05338 0.48704
 C26 C -0.19156 -0.09404 0.47397
 C27 C -0.12677 -0.03315 0.44431
 C28 C -0.08427 0.00600 0.45790
 N29 N -0.09498 -0.00507 0.47887
 H30 H 0.09086 0.05165 0.49075
 H31 H -0.00236 0.14834 0.47085
 H32 H 0.08436 0.22457 0.44840
 H33 H 0.17951 0.12598 0.46849
 H34 H -0.15454 -0.06194 0.50380
 H35 H -0.23239 -0.13363 0.48073
 H36 H -0.11655 -0.02477 0.42773
 H37 H -0.04158 0.04351 0.45170
 C38 C -0.01819 -0.11219 0.54193
 C39 C -0.06757 0.15584 0.53849
 C40 C -0.18038 -0.08435 0.45242
 C41 C 0.13825 0.18074 0.45682
 C42 C 1.17774 0.07472 0.14000
 H43 H 1.18212 0.11933 0.14000
 C44 C 1.21628 0.06761 0.12760
 H45 H 1.25043 0.10681 0.11796
 C46 C 1.12690 -0.03117 0.15223
 H47 H 1.09185 -0.06941 0.16183
 C48 C 1.16459 -0.04034 0.13997
 H49 H 1.15830 -0.08579 0.14002
 N50 N 1.13351 0.02558 0.15170
 C51 C 0.98504 0.06303 0.15556
 H52 H 0.98216 0.06301 0.17223
 C53 C 0.93995 0.06474 0.14225
 H54 H 0.90256 0.06665 0.14865
 C55 C 1.03458 0.05593 0.12692
 H56 H 1.07005 0.05020 0.12103
 C57 C 0.99072 0.05777 0.11312
 H58 H 0.99317 0.05419 0.09668
 Zn59 Zn 1.08238 0.04159 0.16669
 N60 N 1.03068 0.05786 0.14775
 C61 C 1.12701 0.15895 0.18117
 N62 N 1.13364 0.10884 0.18167
 C63 C 1.17795 0.10400 0.19335
 C64 C 1.21656 0.14971 0.20575
 C65 C 1.16476 0.20586 0.19345
 C66 C 0.98506 -0.07727 0.17788
 C67 C 0.94005 -0.12407 0.19120
 C68 C 0.99107 -0.06614 0.22031
 C69 C 1.03485 -0.02045 0.20649
 N70 N 1.03079 -0.02637 0.18566
 H71 H 1.09190 0.16208 0.17160
 H72 H 1.18234 0.06379 0.19332
 H73 H 1.25075 0.14469 0.21537
 H74 H 1.15846 0.24499 0.19343
 H75 H 0.98206 -0.08019 0.16120
 H76 H 0.90260 -0.16343 0.18482
 H77 H 0.99365 -0.06004 0.23675
 H78 H 1.07039 0.02082 0.21236
 C79 C 0.94240 0.06109 0.12089
 C80 C 1.20929 0.00952 0.12741
 C81 C 0.94267 -0.11786 0.21257
 C82 C 1.20954 0.20077 0.20598
 C83 C 0.03726 0.89292 0.86295
 H84 H -0.00300 0.84841 0.86235
 C85 C 0.08619 0.89897 0.87563
 H86 H 0.08364 0.85905 0.88490
 C87 C 0.08930 0.99953 0.85184
 H88 H 0.09014 1.03845 0.84253
 C89 C 0.13941 1.00764 0.86440
 H90 H 0.17872 1.05294 0.86487
 N91 N 0.03920 0.94289 0.85165
 C92 C -0.14848 0.90444 0.84604
 H93 H -0.15518 0.90627 0.82927
 C94 C -0.19229 0.90125 0.85907
 H95 H -0.23311 0.89999 0.85232
 C96 C -0.08505 0.90865 0.87523
 H97 H -0.04238 0.91390 0.88147
 C98 C -0.12762 0.90522 0.88878
 H99 H -0.11756 0.90709 0.90536
 Zn100 Zn -0.03155 0.92806 0.83592
 N101 N -0.09569 0.90901 0.85425
 C102 C -0.10604 0.81290 0.81929
 N103 N -0.04976 0.86332 0.82006
 C104 C -0.00211 0.87059 0.80907
 C105 C -0.01031 0.82710 0.79615
 C106 C -0.11630 0.76812 0.80644
 C107 C -0.01190 1.04789 0.82588
 C108 C -0.01131 1.09664 0.81282
 C109 C -0.02515 1.04183 0.78308
 C110 C -0.02569 0.99418 0.79664
 N111 N -0.01952 0.99775 0.81763
 H112 H -0.14307 0.80788 0.82831
 H113 H 0.04216 0.91101 0.81008
 H114 H 0.02773 0.83403 0.78715
 H115 H -0.16139 0.72866 0.80547
 H116 H -0.00850 1.04898 0.84265
 H117 H -0.00683 1.13569 0.81951
 H118 H -0.03155 1.03784 0.76645
 H119 H -0.03330 0.95352 0.79036
 C120 C -0.18117 0.90273 0.88062
 C121 C 0.13749 0.95686 0.87652
 C122 C -0.01875 1.09310 0.79125
 C123 C -0.06795 0.77571 0.79466
 C124 C 0.62849 -0.03082 -0.01748
 C125 C 0.66420 -0.02050 0.00061
 C126 C 0.64592 -0.01010 0.01892
 C127 C 0.58968 -0.01141 0.01950
 C128 C 0.55371 -0.02033 0.00108
 C129 C 0.57352 -0.02935 -0.01758
 C130 C 0.53793 -0.03654 -0.03579
 C131 C 0.48407 -0.03450 -0.03572
 C132 C 0.46316 -0.02654 -0.01732
 C133 C 0.49788 -0.02018 0.00132
 C134 C 0.56845 -0.00407 0.03795
 C135 C 0.51272 -0.00582 0.03834
 C136 C 0.47687 -0.01361 0.02018
 C137 C 0.42053 -0.01495 0.02031
 C138 C 0.38752 -0.01976 0.00177
 C139 C 0.40844 -0.02477 -0.01699
 H140 H 0.55180 -0.04323 -0.05032
 H141 H 0.45858 -0.03979 -0.05018
 H142 H 0.59455 0.00252 0.05231
 H143 H 0.49822 -0.00040 0.05297
 H144 H 0.70697 -0.02053 0.00042
 H145 H 0.34484 -0.01956 0.00194
 C146 C -0.07545 0.35693 0.64737
 C147 C -0.07249 0.32511 0.66633
 C148 C -0.06991 0.34705 0.68539
 C149 C -0.07205 0.40144 0.68571
 C150 C -0.07359 0.43496 0.66652
 C151 C -0.07457 0.41302 0.64724
 C152 C -0.07422 0.44789 0.62840
 C153 C -0.07224 0.50367 0.62850
 C154 C -0.07194 0.52589 0.64742
 C155 C -0.07357 0.49079 0.66661
 C156 C -0.07240 0.42334 0.70464
 C157 C -0.07433 0.47716 0.70473
 C158 C -0.07459 0.51173 0.68589
 C159 C -0.07543 0.56696 0.68576
 C160 C -0.07238 0.60178 0.66680
 C161 C -0.06976 0.58245 0.64774
 H162 H -0.07475 0.43264 0.61341
 H163 H -0.07143 0.52906 0.61358
 H164 H -0.07166 0.39872 0.71956
 H165 H -0.07490 0.49186 0.71972
 H166 H -0.07158 0.28286 0.66626
 H167 H -0.07144 0.64496 0.66688
 C168 C 0.62957 0.66020 0.35106
 C169 C 0.66522 0.68562 0.33297
 C170 C 0.64679 0.65694 0.31464
 C171 C 0.59049 0.60200 0.31405
 C172 C 0.55460 0.57494 0.33247
 C173 C 0.57454 0.60375 0.35115
 C174 C 0.53902 0.57534 0.36935
 C175 C 0.48509 0.51941 0.36927
 C176 C 0.46405 0.49056 0.35086
 C177 C 0.49870 0.51894 0.33223
 C178 C 0.56913 0.57345 0.29559
 C179 C 0.51335 0.51946 0.29519
 C180 C 0.47756 0.49138 0.31335
 C181 C 0.42117 0.43636 0.31321
 C182 C 0.38823 0.40814 0.33175
 C183 C 0.40926 0.43405 0.35052
 H184 H 0.55299 0.59588 0.38389
 H185 H 0.45966 0.49919 0.38374
 H186 H 0.59518 0.59297 0.28123
 H187 H 0.49875 0.49955 0.28055
 H188 H 0.70803 0.72842 0.33316
 H189 H 0.34550 0.36524 0.33157
 C190 C -0.07663 0.18932 0.55296
 C191 C -0.08104 0.21738 0.56584
 C192 C -0.08315 0.24977 0.58171
 C193 C -0.08296 0.27657 0.59588
 C194 C -0.08106 0.30652 0.61314
 C195 C -0.07864 0.33052 0.62842
 C196 C 0.89365 0.83881 0.22640
 C197 C 0.85300 0.80539 0.23855
 C198 C 0.80630 0.76932 0.25341
 C199 C 0.76750 0.74083 0.26662
 C200 C 0.72361 0.70983 0.28269
 C201 C 0.68768 0.68501 0.29692
 C202 C 0.18624 -0.03626 -0.10932
 C203 C 0.22493 -0.03258 -0.09676
 C204 C 0.26785 -0.03010 -0.08128
 C205 C 0.30260 -0.02891 -0.06744
 C206 C 0.34122 -0.02797 -0.05055
 C207 C 0.37261 -0.02694 -0.03557
 C208 C -0.02326 0.83629 0.55575
 C209 C -0.02934 0.79375 0.56809
 C210 C -0.03791 0.74511 0.58338
 C211 C -0.04582 0.70494 0.59712
 C212 C -0.05511 0.65986 0.61397
 C213 C -0.06243 0.62336 0.62900
 C214 C 0.24617 0.24551 0.22004
 C215 C 0.27646 0.28042 0.23261
 C216 C 0.31100 0.31844 0.24818
 C217 C 0.33921 0.34860 0.26214
 C218 C 0.37032 0.38139 0.27923
 C219 C 0.39481 0.40741 0.29439
 C220 C 0.78107 -0.09282 -0.10648
 C221 C 0.75079 -0.08646 -0.09441
 C222 C 0.71904 -0.07663 -0.07952
 C223 C 0.69478 -0.06685 -0.06620
 C224 C 0.66933 -0.05439 -0.04993
 C225 C 0.64974 -0.04351 -0.03548
 C226 C 0.24588 0.00137 0.11337
 C227 C 0.27614 -0.00329 0.10082
 C228 C 0.31064 -0.00683 0.08528
 C229 C 0.33882 -0.00884 0.07134
 C230 C 0.36986 -0.01060 0.05427
 C231 C 0.39429 -0.01222 0.03912
 C232 C 0.78335 0.87510 0.44002
 C233 C 0.75284 0.83838 0.42797
 C234 C 0.72085 0.79673 0.41310
 C235 C 0.69638 0.76262 0.39979
 C236 C 0.67072 0.72465 0.38352
 C237 C 0.65097 0.69415 0.36907
 C238 C -0.02377 0.13957 0.77742
 C239 C -0.02982 0.17604 0.76508
 C240 C -0.03834 0.21612 0.74978
 C241 C -0.04619 0.24840 0.73604
 C242 C -0.05542 0.28422 0.71917
 C243 C -0.06267 0.31343 0.70414
 C244 C 0.89329 0.05532 0.10708
 C245 C 0.85257 0.04803 0.09494
 C246 C 0.80577 0.03733 0.08010
 C247 C 0.76688 0.02696 0.06691
 C248 C 0.72288 0.01398 0.05086
 C249 C 0.68687 0.00280 0.03663
 C250 C 0.18705 0.22275 0.44271
 C251 C 0.22578 0.25789 0.43018
 C252 C 0.26874 0.29846 0.41474
 C253 C 0.30351 0.33213 0.40093
 C254 C 0.34213 0.36992 0.38406
 C255 C 0.37350 0.40035 0.36909
 C256 C -0.07693 0.73321 0.78018
 C257 C -0.08129 0.70075 0.76730
 C258 C -0.08333 0.66630 0.75142
 C259 C -0.08309 0.63972 0.73725
 C260 C -0.08114 0.61169 0.71998
 C261 C -0.07868 0.59014 0.70470
   
