data_POSCAR
  _audit_creation_date              2014-09-24
  _audit_creation_method            'ToBaCCo'
  _symmetry_space_group_name_H-M    'P1'
  _symmetry_Int_Tables_number       1
  _symmetry_cell_setting            triclinic
  loop_
  _symmetry_equiv_pos_as_xyz
 x,y,z
_cell_length_a 35.3746
_cell_length_b 35.4428
_cell_length_c 35.3716
_cell_angle_alpha 90.103800
_cell_angle_beta 89.852900
_cell_angle_gamma 90.151900
loop_
  _atom_site_label
  _atom_site_type_symbol
  _atom_site_fract_x
  _atom_site_fract_y
  _atom_site_fract_z
N1 N 0.20080 1.20593 0.20112
 N2 N 0.79547 0.79822 0.20278
 N3 N 0.80401 1.19684 -0.20133
 N4 N 0.20372 0.79714 -0.20053
 C5 C 0.53851 1.07062 -0.02256
 H6 H 0.52332 1.08361 0.00057
 C7 C 0.56539 1.09157 -0.04256
 H8 H 0.57019 1.12086 -0.03519
 C9 C 0.55273 1.01609 -0.05877
 H10 H 0.54846 0.98631 -0.06403
 C11 C 0.57942 1.03614 -0.07988
 H12 H 0.59558 1.02169 -0.10152
 N13 N 0.53269 1.03358 -0.03098
 C14 C 0.46160 1.02755 0.06601
 H15 H 0.47679 1.00530 0.08020
 C16 C 0.43425 1.04814 0.08574
 H17 H 0.42881 1.04142 0.11509
 C18 C 0.44792 1.06089 0.00971
 H19 H 0.45293 1.06509 -0.02017
 C20 C 0.42078 1.08248 0.02842
 H21 H 0.40572 1.10389 0.01277
 Zn22 Zn 0.50076 1.00367 -0.00024
 N23 N 0.46787 1.03426 0.02867
 C24 C 0.55256 0.99385 0.05828
 N25 N 0.53291 0.97503 0.03116
 C26 C 0.53881 0.93770 0.02451
 C27 C 0.56534 0.91779 0.04574
 C28 C 0.57904 0.97497 0.08042
 C29 C 0.46362 0.97777 -0.06701
 C30 C 0.43699 0.95621 -0.08673
 C31 C 0.42300 0.92267 -0.02894
 C32 C 0.44942 0.94517 -0.01030
 N33 N 0.46927 0.97190 -0.02946
 H34 H 0.54789 1.02372 0.06243
 H35 H 0.52398 0.92360 0.00184
 H36 H 0.57046 0.88841 0.03913
 H37 H 0.59403 0.99047 0.10213
 H38 H 0.47862 1.00014 -0.08141
 H39 H 0.43194 0.96225 -0.11627
 H40 H 0.40793 0.90128 -0.01308
 H41 H 0.45387 0.94167 0.01974
 C42 C 0.41316 1.07591 0.06687
 C43 C 0.58632 1.07423 -0.07148
 C44 C 0.41595 0.92842 -0.06758
 C45 C 0.58610 0.93648 0.07400
 C46 C -0.02161 0.55188 1.05757
 H47 H 0.00821 0.54881 1.06352
 C48 C -0.04328 0.57721 1.07860
 H49 H -0.03003 0.59359 1.10082
 C50 C -0.07465 0.53571 1.02000
 H51 H -0.08646 0.52023 0.99646
 C52 C -0.09723 0.56129 1.03988
 H53 H -0.12656 0.56488 1.03197
 N54 N -0.03759 0.53142 1.02923
 C55 C 0.05337 0.44993 1.01468
 H56 H 0.05912 0.45384 0.98488
 C57 C 0.07467 0.42424 1.03550
 H58 H 0.09683 0.40840 1.02154
 C59 C 0.01602 0.46431 1.06850
 H60 H -0.00758 0.47913 1.08096
 C61 C 0.03635 0.43859 1.09029
 H62 H 0.02875 0.43448 1.11968
 Zn63 Zn -0.00505 0.50060 1.00009
 N64 N 0.02490 0.46955 1.03143
 C65 C 0.06218 0.54019 0.97941
 N66 N 0.02517 0.53386 0.97114
 C67 C 0.00733 0.55372 0.94367
 C68 C 0.02688 0.58085 0.92280
 C69 C 0.08273 0.56749 0.95953
 C70 C -0.06084 0.44690 0.98453
 C71 C -0.08060 0.42020 0.96326
 C72 C -0.04131 0.43566 0.90946
 C73 C -0.02271 0.46258 0.93159
 N74 N -0.03281 0.46773 0.96839
 H75 H 0.07547 0.52501 1.00225
 H76 H -0.02231 0.54859 0.93816
 H77 H 0.01214 0.59582 0.90067
 H78 H 0.11180 0.57292 0.96737
 H79 H -0.06752 0.45078 1.01414
 H80 H -0.10261 0.40357 0.97662
 H81 H -0.03273 0.43148 0.88034
 H82 H 0.00052 0.47849 0.91968
 C83 C 0.06598 0.41807 1.07373
 C84 C -0.08148 0.58237 1.06957
 C85 C -0.07062 0.41412 0.92535
 C86 C 0.06503 0.58846 0.93090
 C87 C 1.07234 -0.02422 0.53580
 H88 H 1.08504 -0.00146 0.51991
 C89 C 1.09404 -0.04398 0.56206
 H90 H 1.12360 -0.03679 0.56561
 C91 C 1.01804 -0.06005 0.55211
 H92 H 0.98812 -0.06544 0.54866
 C93 C 1.03877 -0.08079 0.57833
 H94 H 1.02462 -0.10215 0.59509
 N95 N 1.03506 -0.03260 0.53128
 C96 C 1.02590 0.06421 0.46134
 H97 H 1.00330 0.07760 0.47694
 C98 C 1.04609 0.08488 0.43434
 H99 H 1.03877 0.11412 0.42959
 C100 C 1.06053 0.00908 0.44619
 H101 H 1.06542 -0.02072 0.45050
 C102 C 1.08170 0.02872 0.41935
 H103 H 1.10346 0.01386 0.40378
 Zn104 Zn 1.00397 -0.00346 0.49928
 N105 N 1.03347 0.02700 0.46673
 C106 C 0.98964 0.05456 0.55103
 N107 N 0.97299 0.02604 0.53134
 C108 C 0.93617 0.01650 0.53733
 C109 C 0.91456 0.03614 0.56393
 C110 C 0.96890 0.07532 0.57743
 C111 C 0.98292 -0.07163 0.46209
 C112 C 0.96277 -0.09310 0.43572
 C113 C 0.92513 -0.03814 0.42148
 C114 C 0.94638 -0.01760 0.44757
 N115 N 0.97436 -0.03461 0.46753
 H116 H 1.01928 0.06077 0.54660
 H117 H 0.92386 -0.00714 0.52243
 H118 H 0.88543 0.02795 0.56880
 H119 H 0.98269 0.09763 0.59323
 H120 H 1.00610 -0.08427 0.47731
 H121 H 0.97011 -0.12242 0.43128
 H122 H 0.90320 -0.02408 0.40553
 H123 H 0.94092 0.01215 0.45166
 C124 C 1.07427 0.06705 0.41266
 C125 C 1.07719 -0.07257 0.58379
 C126 C 0.93351 -0.07627 0.41507
 C127 C 0.93100 0.06587 0.58440
 C128 C 0.14427 0.29957 1.15211
 C129 C 0.18369 0.29663 1.14866
 C130 C 0.20229 0.26627 1.16583
 C131 C 0.18169 0.23856 1.18577
 C132 C 0.14212 0.24229 1.18919
 C133 C 0.12332 0.27275 1.17253
 C134 C 0.12443 0.33087 1.13329
 C135 C 0.08495 0.33356 1.13644
 C136 C 0.06612 0.36280 1.11771
 C137 C 0.08643 0.38888 1.09551
 C138 C 0.12607 0.38596 1.09292
 C139 C 0.14524 0.35703 1.11186
 C140 C 0.08388 0.27657 1.17531
 C141 C 0.06503 0.30653 1.15765
 C142 C 0.20363 0.32376 1.12757
 C143 C 0.18472 0.35339 1.10939
 H144 H 0.06742 0.25609 1.19106
 H145 H 0.03456 0.30829 1.16029
 H146 H 0.23406 0.32182 1.12471
 H147 H 0.20111 0.37346 1.09305
 H148 H 0.23271 0.26384 1.16326
 H149 H 0.12582 0.22099 1.20398
 H150 H 0.03557 0.36457 1.11940
 H151 H 0.14187 0.40613 1.07610
 C152 C -0.15943 0.70207 1.14673
 C153 C -0.17660 0.73064 1.12543
 C154 C -0.19205 0.76191 1.14410
 C155 C -0.19076 0.76466 1.18387
 C156 C -0.17462 0.73501 1.20482
 C157 C -0.15835 0.70395 1.18637
 C158 C -0.14130 0.67013 1.12708
 C159 C -0.12258 0.64245 1.14829
 C160 C -0.10372 0.61319 1.12935
 C161 C -0.10392 0.61138 1.08959
 C162 C -0.12373 0.63874 1.06880
 C163 C -0.14210 0.66847 1.08741
 C164 C -0.14025 0.67517 1.20667
 C165 C -0.12250 0.64503 1.18794
 C166 C -0.17721 0.72778 1.08581
 C167 C -0.16040 0.69712 1.06712
 H168 H -0.13924 0.67628 1.23726
 H169 H -0.10831 0.62377 1.20463
 H170 H -0.19051 0.74959 1.06908
 H171 H -0.16120 0.69617 1.03652
 H172 H -0.20416 0.78459 1.12765
 H173 H -0.17396 0.73666 1.23541
 H174 H -0.08860 0.59204 1.14540
 H175 H -0.12352 0.63767 1.03817
 C176 C -0.14337 0.29189 0.84663
 C177 C -0.18294 0.28922 0.84692
 C178 C -0.20042 0.25805 0.82981
 C179 C -0.17872 0.22878 0.81325
 C180 C -0.13881 0.23249 0.81313
 C181 C -0.12114 0.26393 0.82950
 C182 C -0.12481 0.32418 0.86537
 C183 C -0.08518 0.32673 0.86524
 C184 C -0.06765 0.35699 0.88389
 C185 C -0.08946 0.38403 0.90324
 C186 C -0.12916 0.38121 0.90291
 C187 C -0.14702 0.35141 0.88379
 C188 C -0.08157 0.26759 0.82973
 C189 C -0.06390 0.29855 0.84715
 C190 C -0.20425 0.31749 0.86487
 C191 C -0.18659 0.34797 0.88316
 H192 H -0.06409 0.24622 0.81651
 H193 H -0.03331 0.30018 0.84687
 H194 H -0.23483 0.31577 0.86527
 H195 H -0.20405 0.36887 0.89713
 H196 H -0.23102 0.25641 0.82950
 H197 H -0.12136 0.21018 0.80153
 H198 H -0.03706 0.35884 0.88449
 H199 H -0.14601 0.40212 0.91765
 C200 C 0.14472 0.70779 0.85327
 C201 C 0.12510 0.74063 0.84306
 C202 C 0.14461 0.76979 0.82469
 C203 C 0.18347 0.76638 0.81688
 C204 C 0.20280 0.73343 0.82746
 C205 C 0.18347 0.70386 0.84548
 C206 C 0.12437 0.67711 0.87282
 C207 C 0.14389 0.64421 0.88294
 C208 C 0.12437 0.61513 0.90157
 C209 C 0.08567 0.61897 0.91052
 C210 C 0.06672 0.65240 0.90029
 C211 C 0.08584 0.68139 0.88125
 C212 C 0.20206 0.67053 0.85603
 C213 C 0.18258 0.64115 0.87432
 C214 C 0.08648 0.74377 0.85177
 C215 C 0.06720 0.71469 0.87065
 H216 H 0.23193 0.66712 0.85012
 H217 H 0.19799 0.61593 0.88197
 H218 H 0.07107 0.76898 0.84410
 H219 H 0.03745 0.71831 0.87700
 H220 H 0.12993 0.79545 0.81704
 H221 H 0.23276 0.73100 0.82149
 H222 H 0.13922 0.58945 0.90881
 H223 H 0.03722 0.65619 0.90764
 C224 C 1.15057 0.14670 0.29241
 C225 C 1.15939 0.12736 0.25885
 C226 C 1.17683 0.14694 0.22920
 C227 C 1.18496 0.18566 0.23272
 C228 C 1.17617 0.20466 0.26657
 C229 C 1.15902 0.18523 0.29664
 C230 C 1.13162 0.12633 0.32346
 C231 C 1.12266 0.14559 0.35701
 C232 C 1.10434 0.12607 0.38635
 C233 C 1.09459 0.08767 0.38209
 C234 C 1.10374 0.06898 0.34804
 C235 C 1.12242 0.08806 0.31880
 C236 C 1.14977 0.20354 0.33069
 C237 C 1.13201 0.18402 0.36041
 C238 C 1.15007 0.08897 0.25540
 C239 C 1.13179 0.06968 0.28484
 H240 H 1.15619 0.23322 0.33436
 H241 H 1.12529 0.19923 0.38615
 H242 H 1.15671 0.07379 0.22962
 H243 H 1.12485 0.04013 0.28095
 H244 H 1.18324 0.13244 0.20296
 H245 H 1.18251 0.23449 0.26916
 H246 H 1.09788 0.14071 0.41249
 H247 H 1.09572 0.03974 0.34394
 C248 C 1.15521 -0.14840 0.70422
 C249 C 1.15138 -0.18762 0.70821
 C250 C 1.16843 -0.20556 0.73907
 C251 C 1.18857 -0.18450 0.76627
 C252 C 1.19234 -0.14514 0.76150
 C253 C 1.17585 -0.12701 0.73049
 C254 C 1.13652 -0.12923 0.67239
 C255 C 1.14006 -0.08994 0.66863
 C256 C 1.12144 -0.07171 0.63890
 C257 C 1.09893 -0.09243 0.61343
 C258 C 1.09594 -0.13187 0.61741
 C259 C 1.11480 -0.15044 0.64681
 C260 C 1.17902 -0.08779 0.72561
 C261 C 1.16152 -0.06958 0.69513
 C262 C 1.13004 -0.20800 0.68162
 C263 C 1.11196 -0.18971 0.65150
 H264 H 1.19496 -0.07099 0.74566
 H265 H 1.16445 -0.03926 0.69255
 H266 H 1.12689 -0.23829 0.68437
 H267 H 1.09540 -0.20642 0.63189
 H268 H 1.16559 -0.23584 0.74231
 H269 H 1.20728 -0.12847 0.78239
 H270 H 1.12344 -0.04130 0.63628
 H271 H 1.07886 -0.14797 0.59771
 C272 C 0.85394 -0.15248 0.29549
 C273 C 0.81431 -0.15082 0.29426
 C274 C 0.79519 -0.16785 0.26401
 C275 C 0.81542 -0.18589 0.23477
 C276 C 0.85523 -0.18700 0.23640
 C277 C 0.87460 -0.17067 0.26687
 C278 C 0.87424 -0.13421 0.32699
 C279 C 0.91389 -0.13585 0.32820
 C280 C 0.93308 -0.11784 0.35784
 C281 C 0.91291 -0.09766 0.38561
 C282 C 0.87316 -0.09644 0.38409
 C283 C 0.85364 -0.11488 0.35492
 C284 C 0.91423 -0.17181 0.26911
 C285 C 0.93354 -0.15484 0.29934
 C286 C 0.79465 -0.13178 0.32308
 C287 C 0.81399 -0.11398 0.35282
 H288 H 0.93048 -0.18585 0.24724
 H289 H 0.96412 -0.15624 0.29992
 H290 H 0.76407 -0.13030 0.32244
 H291 H 0.79778 -0.09925 0.37425
 H292 H 0.76460 -0.16686 0.26293
 H293 H 0.87110 -0.20009 0.21369
 H294 H 0.96371 -0.11842 0.35867
 H295 H 0.85757 -0.08106 0.40555
 C296 C 0.85333 0.14190 0.70552
 C297 C 0.83574 0.12046 0.73387
 C298 C 0.81912 0.13890 0.76475
 C299 C 0.81936 0.17881 0.76749
 C300 C 0.83660 0.19970 0.73796
 C301 C 0.85394 0.18143 0.70732
 C302 C 0.87207 0.12252 0.67368
 C303 C 0.89079 0.14392 0.64594
 C304 C 0.90969 0.12528 0.61644
 C305 C 0.90947 0.08560 0.61439
 C306 C 0.88994 0.06461 0.64201
 C307 C 0.87149 0.08293 0.67195
 C308 C 0.87231 0.20192 0.67863
 C309 C 0.89057 0.18348 0.64856
 C310 C 0.83563 0.08090 0.73109
 C311 C 0.85307 0.06245 0.70057
 H312 H 0.87297 0.23247 0.67968
 H313 H 0.90479 0.20033 0.62728
 H314 H 0.82207 0.06404 0.75278
 H315 H 0.85246 0.03190 0.69958
 H316 H 0.80706 0.12207 0.78733
 H317 H 0.83645 0.23027 0.73885
 H318 H 0.92455 0.14150 0.59509
 H319 H 0.89013 0.03405 0.64078
 C320 C 0.29219 1.15398 0.14363
 C321 C 0.29566 1.16252 0.18226
 C322 C 0.26547 1.18010 0.20104
 C323 C 0.23236 1.18948 0.18129
 C324 C 0.22947 1.18109 0.14251
 C325 C 0.25925 1.16311 0.12356
 C326 C 0.32342 1.13462 0.12394
 C327 C 0.31952 1.12524 0.08558
 C328 C 0.34893 1.10614 0.06717
 C329 C 0.38239 1.09678 0.08663
 C330 C 0.38589 1.10682 0.12509
 C331 C 0.35637 1.12548 0.14394
 C332 C 0.25656 1.15359 0.08510
 C333 C 0.28614 1.13485 0.06646
 C334 C 0.32910 1.15303 0.20132
 C335 C 0.35900 1.13496 0.18245
 H336 H 0.23127 1.16043 0.06935
 H337 H 0.28283 1.12779 0.03684
 H338 H 0.33216 1.15954 0.23110
 H339 H 0.38427 1.12808 0.19822
 H340 H 0.26748 1.18649 0.23095
 H341 H 0.20368 1.18783 0.12752
 H342 H 0.34538 1.09794 0.03787
 H343 H 0.41158 1.10030 0.14033
 C344 C 0.70960 1.14904 -0.14705
 C345 C 0.71224 1.14750 -0.18660
 C346 C 0.74333 1.16428 -0.20468
 C347 C 0.77246 1.18188 -0.18355
 C348 C 0.76890 1.18299 -0.14364
 C349 C 0.73757 1.16695 -0.12542
 C350 C 0.67722 1.13098 -0.12786
 C351 C 0.67463 1.13255 -0.08826
 C352 C 0.64417 1.11480 -0.07009
 C353 C 0.61687 1.09498 -0.09120
 C354 C 0.61980 1.09374 -0.13089
 C355 C 0.64985 1.11195 -0.14941
 C356 C 0.73394 1.16802 -0.08586
 C357 C 0.70292 1.15125 -0.06760
 C358 C 0.68391 1.12882 -0.20727
 C359 C 0.65333 1.11119 -0.18898
 H360 H 0.75533 1.18184 -0.06884
 H361 H 0.70126 1.15260 -0.03704
 H362 H 0.68560 1.12743 -0.23783
 H363 H 0.63234 1.09672 -0.20595
 H364 H 0.74487 1.16375 -0.23529
 H365 H 0.79117 1.19532 -0.12661
 H366 H 0.64227 1.11539 -0.03950
 H367 H 0.59872 1.07863 -0.14721
 C368 C 0.29571 0.84844 -0.14343
 C369 C 0.29961 0.83887 -0.18180
 C370 C 0.26937 0.82120 -0.20046
 C371 C 0.23566 0.81307 -0.18087
 C372 C 0.23251 0.82221 -0.14227
 C373 C 0.26235 0.84016 -0.12346
 C374 C 0.32686 0.86813 -0.12395
 C375 C 0.32248 0.87855 -0.08590
 C376 C 0.35174 0.89808 -0.06774
 C377 C 0.38551 0.90691 -0.08713
 C378 C 0.38952 0.89586 -0.12528
 C379 C 0.36017 0.87667 -0.14388
 C380 C 0.25922 0.85064 -0.08528
 C381 C 0.28875 0.86962 -0.06684
 C382 C 0.33346 0.84765 -0.20077
 C383 C 0.36327 0.86612 -0.18210
 H384 H 0.23359 0.84443 -0.06962
 H385 H 0.28508 0.87748 -0.03744
 H386 H 0.33686 0.84036 -0.23034
 H387 H 0.38882 0.87250 -0.19781
 H388 H 0.27168 0.81409 -0.23019
 H389 H 0.20638 0.81632 -0.12733
 H390 H 0.34780 0.90708 -0.03871
 H391 H 0.41545 0.90207 -0.14043
 C392 C 0.70493 0.85774 0.15229
 C393 C 0.73871 0.87687 0.16066
 C394 C 0.76820 0.85723 0.17812
 C395 C 0.76418 0.81870 0.18681
 C396 C 0.73010 0.79995 0.17845
 C397 C 0.70026 0.81940 0.16123
 C398 C 0.67409 0.87809 0.13321
 C399 C 0.64041 0.85894 0.12456
 C400 C 0.61140 0.87830 0.10586
 C401 C 0.61611 0.91642 0.09540
 C402 C 0.65015 0.93512 0.10449
 C403 C 0.67914 0.91615 0.12348
 C404 C 0.66604 0.80126 0.15238
 C405 C 0.63658 0.82072 0.13444
 C406 C 0.74254 0.91508 0.15087
 C407 C 0.71328 0.93437 0.13251
 H408 H 0.66206 0.77172 0.15919
 H409 H 0.61072 0.80563 0.12796
 H410 H 0.76848 0.93012 0.15717
 H411 H 0.71748 0.96375 0.12518
 H412 H 0.79463 0.87150 0.18421
 H413 H 0.72713 0.77028 0.18519
 H414 H 0.58522 0.86371 0.09950
 H415 H 0.65451 0.96417 0.09601
   
