data_POSCAR
  _audit_creation_date              2014-09-24
  _audit_creation_method            'ToBaCCo'
  _symmetry_space_group_name_H-M    'P1'
  _symmetry_Int_Tables_number       1
  _symmetry_cell_setting            triclinic
  loop_
  _symmetry_equiv_pos_as_xyz
 x,y,z
_cell_length_a 19.3233
_cell_length_b 19.4658
_cell_length_c 33.7258
_cell_angle_alpha 88.992800
_cell_angle_beta 89.913800
_cell_angle_gamma 89.615900
loop_
  _atom_site_label
  _atom_site_type_symbol
  _atom_site_fract_x
  _atom_site_fract_y
  _atom_site_fract_z
O1 O 0.05495 0.43164 0.96074
 O2 O 0.05705 0.56288 1.03785
 O3 O 0.05688 0.42863 1.03807
 O4 O 0.05509 0.56499 0.96087
 O5 O -0.05919 0.56870 0.96397
 O6 O -0.05709 0.42658 1.03725
 O7 O -0.05696 0.56072 1.04072
 O8 O -0.05916 0.43471 0.96046
 Cu9 Cu 0.06746 0.49683 0.99936
 Cu10 Cu -0.06956 0.49769 1.00075
 C11 C -0.00242 0.41099 0.94719
 C12 C 0.00045 0.58448 1.05242
 C13 C 0.00017 0.40319 1.05040
 C14 C -0.00243 0.59070 0.94988
 O15 O 0.56779 -0.05290 0.54084
 O16 O 0.43392 -0.05622 0.46342
 O17 O 0.56919 -0.05650 0.46395
 O18 O 0.43371 -0.05155 0.54080
 O19 O 0.43331 0.06182 0.53733
 O20 O 0.56799 0.05674 0.46016
 O21 O 0.43308 0.05708 0.46069
 O22 O 0.56880 0.06021 0.53717
 Cu23 Cu 0.50104 -0.06565 0.50248
 Cu24 Cu 0.50085 0.07031 0.49854
 C25 C 0.59177 0.00413 0.55215
 C26 C 0.41010 -0.00012 0.44905
 C27 C 0.59210 -0.00069 0.44907
 C28 C 0.41030 0.00602 0.55212
 Si29 Si 0.00185 -0.00870 0.24844
 Si30 Si -0.00132 0.00524 0.75116
 C31 C 0.00217 -0.25334 0.13666
 C32 C -0.05912 -0.29006 0.13064
 C33 C -0.05927 -0.34381 0.10345
 C34 C 0.00144 -0.36109 0.08253
 C35 C 0.06269 -0.32424 0.08943
 C36 C 0.06320 -0.27000 0.11623
 C37 C 0.00217 -0.19563 0.16441
 C38 C 0.06300 -0.15772 0.16957
 C39 C 0.06225 -0.10192 0.19526
 C40 C 0.00178 -0.08503 0.21620
 C41 C -0.05886 -0.12310 0.21064
 C42 C -0.05897 -0.17865 0.18469
 C43 C 0.12326 -0.23141 0.12256
 C44 C 0.12310 -0.17606 0.14869
 C45 C -0.11920 -0.27173 0.15160
 C46 C -0.11910 -0.21703 0.17821
 H47 H 0.17066 -0.24372 0.10694
 H48 H 0.17036 -0.14729 0.15250
 H49 H -0.16681 -0.29970 0.14726
 H50 H -0.16660 -0.20443 0.19365
 H51 H -0.10664 -0.37183 0.09842
 H52 H 0.10957 -0.33672 0.07332
 H53 H 0.10857 -0.07158 0.19899
 H54 H -0.10618 -0.10880 0.22571
 C55 C 0.00133 0.23694 0.13229
 C56 C -0.06136 0.25857 0.11507
 C57 C -0.06163 0.31482 0.08855
 C58 C 0.00060 0.34852 0.07825
 C59 C 0.06318 0.32552 0.09578
 C60 C 0.06366 0.27025 0.12307
 C61 C 0.00175 0.17795 0.16035
 C62 C 0.06427 0.15694 0.17813
 C63 C 0.06419 0.10115 0.20504
 C64 C 0.00229 0.06651 0.21378
 C65 C -0.05940 0.08666 0.19479
 C66 C -0.06029 0.14330 0.16858
 C67 C 0.12528 0.24744 0.14126
 C68 C 0.12553 0.19195 0.16846
 C69 C -0.12251 0.22306 0.12439
 C70 C -0.12191 0.16610 0.15049
 H71 H 0.17373 0.27277 0.13446
 H72 H 0.17412 0.17616 0.18189
 H73 H -0.17120 0.23913 0.11118
 H74 H -0.17012 0.13990 0.15671
 H75 H -0.11026 0.33123 0.07533
 H76 H 0.11153 0.35073 0.08847
 H77 H 0.11223 0.08426 0.21866
 H78 H -0.10676 0.05878 0.20082
 C79 C 0.24721 0.00983 0.63788
 C80 C 0.29491 -0.04493 0.63856
 C81 C 0.34841 -0.04594 0.61041
 C82 C 0.35510 0.00807 0.58236
 C83 C 0.30779 0.06339 0.58272
 C84 C 0.25313 0.06407 0.61010
 C85 C 0.18934 0.00985 0.66642
 C86 C 0.14024 0.06330 0.66481
 C87 C 0.08392 0.06166 0.69104
 C88 C 0.07693 0.00748 0.71882
 C89 C 0.12809 -0.04412 0.72122
 C90 C 0.18381 -0.04394 0.69452
 C91 C 0.20371 0.11736 0.60992
 C92 C 0.14801 0.11681 0.63669
 C93 C 0.28783 -0.09773 0.66720
 C94 C 0.23350 -0.09699 0.69490
 H95 H 0.20768 0.15946 0.58861
 H96 H 0.11056 0.15846 0.63526
 H97 H 0.32451 -0.14007 0.66817
 H98 H 0.22978 -0.13881 0.71641
 H99 H 0.38503 -0.08838 0.61044
 H100 H 0.31243 0.10484 0.56100
 H101 H 0.04543 0.10230 0.68966
 H102 H 0.12474 -0.08461 0.74342
 C103 C -0.24747 0.00553 0.63652
 C104 C -0.27852 -0.05692 0.62685
 C105 C -0.33225 -0.05701 0.59899
 C106 C -0.35565 0.00495 0.58093
 C107 C -0.32442 0.06737 0.59169
 C108 C -0.26997 0.06780 0.61916
 C109 C -0.18967 0.00558 0.66503
 C110 C -0.15737 0.06780 0.67397
 C111 C -0.10129 0.06722 0.70031
 C112 C -0.07817 0.00520 0.71790
 C113 C -0.11173 -0.05651 0.70912
 C114 C -0.16726 -0.05672 0.68243
 C115 C -0.23696 0.12918 0.62927
 C116 C -0.18146 0.12916 0.65611
 C117 C -0.25485 -0.11821 0.64501
 C118 C -0.20029 -0.11808 0.67243
 H119 H -0.25379 0.17761 0.61608
 H120 H -0.15708 0.17753 0.66284
 H121 H -0.27853 -0.16673 0.63786
 H122 H -0.18346 -0.16649 0.68565
 H123 H -0.35558 -0.10554 0.59139
 H124 H -0.34141 0.11556 0.57821
 H125 H -0.07570 0.11495 0.70708
 H126 H -0.09443 -0.10446 0.72242
 C127 C -0.00395 -0.24078 0.86778
 C128 C -0.01876 -0.22952 0.90796
 C129 C -0.01917 -0.28554 0.93460
 C130 C -0.00329 -0.35178 0.92137
 C131 C 0.01216 -0.36250 0.88122
 C132 C 0.01108 -0.30701 0.85406
 C133 C -0.00392 -0.18206 0.83958
 C134 C 0.00938 -0.19331 0.79926
 C135 C 0.00891 -0.13716 0.77259
 C136 C -0.00265 -0.07016 0.78625
 C137 C -0.01567 -0.05991 0.82678
 C138 C -0.01702 -0.11572 0.85353
 C139 C 0.02458 -0.31622 0.81353
 C140 C 0.02331 -0.26038 0.78655
 C141 C -0.03242 -0.16247 0.92070
 C142 C -0.03118 -0.10645 0.89396
 H143 H 0.03601 -0.36703 0.80256
 H144 H 0.03381 -0.26973 0.75554
 H145 H -0.04374 -0.15317 0.95162
 H146 H -0.04155 -0.05548 0.90503
 H147 H -0.03068 -0.27773 0.96570
 H148 H 0.02417 -0.41388 0.87125
 H149 H 0.01843 -0.14544 0.74136
 H150 H -0.02523 -0.00883 0.83772
 C151 C -0.00325 0.25288 0.86042
 C152 C 0.05989 0.28151 0.87203
 C153 C 0.05972 0.33412 0.89988
 C154 C -0.00300 0.35800 0.91621
 C155 C -0.06596 0.32936 0.90371
 C156 C -0.06634 0.27653 0.87595
 C157 C -0.00317 0.19594 0.83216
 C158 C -0.06619 0.16598 0.82138
 C159 C -0.06555 0.11008 0.79574
 C160 C -0.00255 0.08459 0.78097
 C161 C 0.06005 0.11546 0.79163
 C162 C 0.06008 0.17128 0.81731
 C163 C -0.12842 0.24601 0.86395
 C164 C -0.12834 0.19159 0.83717
 C165 C 0.12203 0.25615 0.85607
 C166 C 0.12212 0.20195 0.82917
 H167 H -0.17744 0.26383 0.87569
 H168 H -0.17727 0.16897 0.82904
 H169 H 0.17107 0.27792 0.86475
 H170 H 0.17121 0.18342 0.81789
 H171 H 0.10848 0.35579 0.90919
 H172 H -0.11451 0.34718 0.91610
 H173 H -0.11367 0.08532 0.78809
 H174 H 0.10870 0.09500 0.78084
 C175 C -0.24276 -0.00467 0.36423
 C176 C -0.27909 0.05694 0.37037
 C177 C -0.33355 0.05781 0.39790
 C178 C -0.35196 -0.00246 0.41906
 C179 C -0.31535 -0.06398 0.41216
 C180 C -0.26039 -0.06526 0.38496
 C181 C -0.18462 -0.00558 0.33587
 C182 C -0.14725 -0.06682 0.33040
 C183 C -0.09133 -0.06706 0.30388
 C184 C -0.07400 -0.00718 0.28234
 C185 C -0.11120 0.05401 0.28848
 C186 C -0.16684 0.05507 0.31520
 C187 C -0.22217 -0.12570 0.37842
 C188 C -0.16640 -0.12641 0.35169
 C189 C -0.25984 0.11655 0.34911
 C190 C -0.20470 0.11562 0.32196
 H191 H -0.23519 -0.17275 0.39427
 H192 H -0.13803 -0.17398 0.34767
 H193 H -0.28750 0.16440 0.35357
 H194 H -0.19145 0.16274 0.30623
 H195 H -0.36141 0.10540 0.40290
 H196 H -0.32876 -0.11054 0.42843
 H197 H -0.06143 -0.11376 0.29987
 H198 H -0.09626 0.10095 0.27316
 C199 C 0.24611 -0.00350 0.36378
 C200 C 0.28373 -0.06403 0.37203
 C201 C 0.33770 -0.06269 0.39981
 C202 C 0.35442 -0.00122 0.41898
 C203 C 0.31655 0.05916 0.40994
 C204 C 0.26202 0.05818 0.38260
 C205 C 0.18841 -0.00490 0.33525
 C206 C 0.14969 0.05526 0.32782
 C207 C 0.09399 0.05330 0.30135
 C208 C 0.07804 -0.00772 0.28183
 C209 C 0.11699 -0.06768 0.28955
 C210 C 0.17239 -0.06658 0.31639
 C211 C 0.22257 0.11749 0.37404
 C212 C 0.16717 0.11599 0.34722
 C213 C 0.26626 -0.12474 0.35253
 C214 C 0.21163 -0.12595 0.32512
 H215 H 0.23429 0.16536 0.38842
 H216 H 0.13774 0.16273 0.34165
 H217 H 0.29495 -0.17177 0.35858
 H218 H 0.19977 -0.17386 0.31082
 H219 H 0.36663 -0.10937 0.40647
 H220 H 0.32864 0.10662 0.42470
 H221 H 0.06305 0.09915 0.29587
 H222 H 0.10350 -0.11526 0.27541
   
