data_POSCAR
  _audit_creation_date              2014-09-24
  _audit_creation_method            'ToBaCCo'
  _symmetry_space_group_name_H-M    'P1'
  _symmetry_Int_Tables_number       1
  _symmetry_cell_setting            triclinic
  loop_
  _symmetry_equiv_pos_as_xyz
 x,y,z
_cell_length_a 15.0255
_cell_length_b 15.0998
_cell_length_c 16.0439
_cell_angle_alpha 89.987900
_cell_angle_beta 90.278600
_cell_angle_gamma 120.183600
loop_
  _atom_site_label
  _atom_site_type_symbol
  _atom_site_fract_x
  _atom_site_fract_y
  _atom_site_fract_z
O1 O 0.35684 0.51254 0.31798
 O2 O 0.18820 0.51692 0.34515
 C3 C 0.14109 0.56495 0.36075
 O4 O 0.15320 0.64089 0.31763
 O5 O 0.32687 0.80944 0.34548
 C6 C 0.42260 0.85678 0.36146
 O7 O 0.48671 0.84434 0.31891
 O8 O 0.48184 0.67173 0.34617
 C9 C 0.43350 0.57644 0.36137
 O10 O 0.32676 0.51752 0.15234
 O11 O 0.15287 0.51182 0.17945
 C12 C 0.13987 0.57502 0.13592
 O13 O 0.18763 0.67034 0.15198
 O14 O 0.35625 0.84367 0.17995
 C15 C 0.43317 0.85675 0.13745
 O16 O 0.48174 0.81010 0.15325
 O17 O 0.48665 0.64236 0.18053
 C18 C 0.42252 0.56591 0.13728
 Cr19 Cr 0.25888 0.52013 0.24873
 Cr20 Cr 0.25869 0.73837 0.24877
 Cr21 Cr 0.47879 0.73941 0.24969
 O22 O 0.33216 0.66601 0.24911
 O23 O 0.51773 0.32815 0.65345
 O24 O 0.51274 0.15548 0.68060
 C25 C 0.57680 0.14298 0.63806
 O26 O 0.67252 0.19024 0.65405
 O27 O 0.84627 0.35863 0.68184
 C28 C 0.85863 0.43479 0.63891
 O29 O 0.81170 0.48299 0.65463
 O30 O 0.64298 0.48732 0.68141
 C31 C 0.56620 0.42342 0.63814
 O32 O 0.51285 0.35737 0.81910
 O33 O 0.51774 0.18959 0.84628
 C34 C 0.56629 0.14291 0.86207
 O35 O 0.64323 0.15599 0.81960
 O36 O 0.81210 0.32920 0.84746
 C37 C 0.85926 0.42441 0.86335
 O38 O 0.84652 0.48804 0.82045
 O39 O 0.67268 0.48243 0.84713
 C40 C 0.57694 0.43395 0.86224
 Cr41 Cr 0.52074 0.26039 0.74989
 Cr42 Cr 0.74080 0.26123 0.75074
 Cr43 Cr 0.74076 0.47975 0.75090
 O44 O 0.66743 0.33378 0.75054
 C45 C 0.39447 -0.05276 0.48082
 C46 C 0.46199 -0.06958 0.43196
 C47 C 0.56765 -0.01612 0.45173
 C48 C 0.60491 0.05254 0.51867
 C49 C 0.53740 0.06936 0.56754
 C50 C 0.43173 0.01591 0.54777
 H51 H 0.31266 -0.09274 0.46747
 H52 H 0.62186 -0.02734 0.41554
 H53 H 0.68672 0.09251 0.53202
 H54 H 0.37753 0.02713 0.58397
 C55 C 1.01538 0.58315 0.45119
 C56 C 1.06826 0.53107 0.43156
 C57 C 1.05197 0.44748 0.48108
 C58 C 0.98439 0.41664 0.54850
 C59 C 0.93150 0.46871 0.56813
 C60 C 0.94780 0.55232 0.51862
 H61 H 1.02626 0.64805 0.41453
 H62 H 1.09156 0.40578 0.46789
 H63 H 0.97351 0.35174 0.58516
 H64 H 0.90821 0.59401 0.53180
 C65 C 0.55253 0.60464 0.48157
 C66 C 0.46796 0.53734 0.43189
 C67 C 0.41564 0.43218 0.45090
 C68 C 0.44719 0.39520 0.51791
 C69 C 0.53176 0.46250 0.56760
 C70 C 0.58408 0.56767 0.54857
 H71 H 0.59445 0.68607 0.46882
 H72 H 0.35002 0.37815 0.41407
 H73 H 0.40526 0.31377 0.53066
 H74 H 0.64970 0.62170 0.58541
 C75 C 0.41521 -0.01702 1.04760
 C76 C 0.46767 -0.06965 1.06725
 C77 C 0.55252 -0.05202 1.01855
 C78 C 0.58420 0.01664 0.95190
 C79 C 0.53176 0.06928 0.93226
 C80 C 0.44690 0.05164 0.98095
 H81 H 0.34938 -0.02888 1.08366
 H82 H 0.59457 -0.09134 1.03181
 H83 H 0.65003 0.02850 0.91584
 H84 H 0.40485 0.09097 0.96769
 C85 C 1.01814 0.43354 1.05115
 C86 C 1.07254 0.53910 1.07111
 C87 C 1.05535 0.60600 1.02096
 C88 C 0.98666 0.56874 0.95367
 C89 C 0.93301 0.46369 0.93422
 C90 C 0.94955 0.39661 0.98379
 H91 H 1.02827 0.37860 1.08733
 H92 H 1.09493 0.68765 1.03324
 H93 H 0.97557 0.62261 0.91689
 H94 H 0.90931 0.31518 0.97069
 C95 C 0.56764 0.58394 1.04839
 C96 C 0.46194 0.53173 1.06712
 C97 C 0.39446 0.44739 1.01761
 C98 C 0.43179 0.41597 0.95107
 C99 C 0.53749 0.46817 0.93235
 C100 C 0.60496 0.55252 0.98185
 H101 H 0.62182 0.64938 1.08510
 H102 H 0.31263 0.40554 1.03016
 H103 H 0.37760 0.35053 0.91436
 H104 H 0.68680 0.59437 0.96930
   
