data_POSCAR
  _audit_creation_date              2014-09-24
  _audit_creation_method            'ToBaCCo'
  _symmetry_space_group_name_H-M    'P1'
  _symmetry_Int_Tables_number       1
  _symmetry_cell_setting            triclinic
  loop_
  _symmetry_equiv_pos_as_xyz
 x,y,z
_cell_length_a 24.0473
_cell_length_b 24.5239
_cell_length_c 31.2475
_cell_angle_alpha 89.910300
_cell_angle_beta 89.887100
_cell_angle_gamma 89.673600
loop_
  _atom_site_label
  _atom_site_type_symbol
  _atom_site_fract_x
  _atom_site_fract_y
  _atom_site_fract_z
B1 B 0.26885 0.21832 0.20939
 B2 B 0.29194 0.28131 0.21779
 B3 B 0.22474 0.27147 0.20832
 B4 B 0.20491 0.21245 0.23137
 B5 B 0.26254 0.18643 0.25647
 B6 B 0.31705 0.22950 0.24741
 B7 B 0.23802 0.28501 0.29256
 B8 B 0.21468 0.22230 0.28395
 B9 B 0.28177 0.23222 0.29357
 B10 B 0.30181 0.29115 0.27049
 B11 B 0.24413 0.31717 0.24560
 B12 B 0.18971 0.27411 0.25461
 B13 B 0.72702 0.77588 0.29451
 B14 B 0.79228 0.78982 0.28072
 B15 B 0.77430 0.72604 0.29185
 B16 B 0.70914 0.71504 0.27372
 B17 B 0.68761 0.77483 0.25041
 B18 B 0.73970 0.82162 0.25550
 B19 B 0.77870 0.73753 0.20679
 B20 B 0.71338 0.72379 0.22038
 B21 B 0.73129 0.78792 0.20946
 B22 B 0.79654 0.79852 0.22751
 B23 B 0.81796 0.73876 0.25092
 B24 B 0.76596 0.69203 0.24602
 B25 B 0.72202 0.21890 -0.20765
 B26 B 0.70563 0.28330 -0.21932
 B27 B 0.77058 0.26786 -0.20546
 B28 B 0.78722 0.20596 -0.22543
 B29 B 0.73018 0.18404 -0.25327
 B30 B 0.67900 0.23249 -0.24886
 B31 B 0.76693 0.27790 -0.29071
 B32 B 0.78357 0.21382 -0.27873
 B33 B 0.71871 0.22931 -0.29292
 B34 B 0.70184 0.29117 -0.27282
 B35 B 0.75895 0.31300 -0.24524
 B36 B 0.81000 0.26464 -0.24952
 B37 B 0.28088 0.76182 -0.29714
 B38 B 0.21334 0.76980 -0.28763
 B39 B 0.23901 0.70812 -0.29795
 B40 B 0.30260 0.70218 -0.27571
 B41 B 0.31530 0.76293 -0.25075
 B42 B 0.25956 0.80530 -0.25880
 B43 B 0.22387 0.71723 -0.21365
 B44 B 0.29145 0.70923 -0.22292
 B45 B 0.26610 0.77101 -0.21289
 B46 B 0.20244 0.77684 -0.23495
 B47 B 0.18963 0.71605 -0.26011
 B48 B 0.24537 0.67367 -0.25197
 B49 B 1.22647 1.27723 0.79435
 B50 B 1.29080 1.29296 0.77930
 B51 B 1.27552 1.22907 0.79241
 B52 B 1.21046 1.21491 0.77543
 B53 B 1.18616 1.27287 0.75091
 B54 B 1.23648 1.32176 0.75404
 B55 B 1.27764 1.23705 0.70696
 B56 B 1.21323 1.22157 0.72184
 B57 B 1.22828 1.28582 0.70900
 B58 B 1.29353 1.29955 0.72582
 B59 B 1.31777 1.24158 0.75052
 B60 B 1.26753 1.19278 0.74756
 B61 B 0.77167 0.72346 0.71165
 B62 B 0.79160 0.78713 0.72108
 B63 B 0.72537 0.77463 0.70989
 B64 B 0.70720 0.71450 0.73190
 B65 B 0.76484 0.69053 0.75819
 B66 B 0.81773 0.73599 0.75087
 B67 B 0.73458 0.78747 0.79444
 B68 B 0.71438 0.72397 0.78475
 B69 B 0.78054 0.73648 0.79616
 B70 B 0.79894 0.79661 0.77408
 B71 B 0.74121 0.82059 0.74794
 B72 B 0.68840 0.77514 0.75524
 B73 B 1.22348 0.71872 0.29089
 B74 B 1.20251 0.78238 0.28125
 B75 B 1.26903 0.77058 0.29279
 B76 B 1.28840 0.71060 0.27078
 B77 B 1.23148 0.68620 0.24419
 B78 B 1.17759 0.73113 0.25131
 B79 B 1.25987 0.78362 0.20796
 B80 B 1.28144 0.72022 0.21779
 B81 B 1.21503 0.73209 0.20606
 B82 B 1.19526 0.79197 0.22820
 B83 B 1.25230 0.81635 0.25451
 B84 B 1.30609 0.77151 0.24739
 B85 B 0.78049 1.26312 0.20339
 B86 B 0.71308 1.27153 0.21324
 B87 B 0.73833 1.20964 0.20307
 B88 B 0.80213 1.20356 0.22498
 B89 B 0.81539 1.26445 0.24956
 B90 B 0.75976 1.30700 0.24161
 B91 B 0.72412 1.21948 0.28746
 B92 B 0.79159 1.21110 0.27783
 B93 B 0.76663 1.27314 0.28768
 B94 B 0.70275 1.27903 0.26596
 B95 B 0.68940 1.21811 0.24118
 B96 B 0.74501 1.17554 0.24919
 O97 O 0.45881 1.07273 0.06192
 O98 O 0.55133 0.89713 0.03797
 O99 O 0.37822 0.94960 0.02159
 O100 O 0.63345 1.04263 0.01463
 O101 O 0.44579 0.89568 0.04585
 O102 O 0.56002 1.07371 0.04942
 O103 O 0.57678 0.97757 0.05596
 O104 O 0.38510 1.05020 0.02647
 C105 C 0.40717 1.06989 0.05945
 C106 C 0.57748 0.92758 0.06262
 C107 C 0.39614 0.91262 0.04696
 C108 C 0.61208 1.07781 0.04180
 O109 O 0.54112 1.10334 -0.03272
 O110 O 0.43613 0.88606 -0.03473
 O111 O 0.41926 1.05086 -0.05822
 O112 O 0.60784 0.94374 -0.02015
 O113 O 0.53866 0.89906 -0.04663
 O114 O 0.44040 1.11351 -0.01566
 O115 O 0.57789 1.02889 -0.05402
 O116 O 0.40451 0.95879 -0.06324
 Co117 Co 0.49931 1.08173 0.01370
 Co118 Co 0.49344 0.90433 0.00039
 Co119 Co 0.40428 1.00231 -0.01675
 Co120 Co 0.57234 1.00434 0.00066
 O121 O 0.48925 0.99427 -0.00219
 C122 C 0.57019 1.07831 -0.05957
 C123 C 0.40684 0.90885 -0.06208
 C124 C 0.41956 1.09954 -0.05031
 C125 C 0.58925 0.91048 -0.04684
 O126 O 0.96451 0.57704 0.56051
 O127 O 1.04706 0.39562 0.53185
 O128 O 0.89189 0.45851 0.54728
 O129 O 1.13547 0.54034 0.51424
 O130 O 0.94319 0.38870 0.52498
 O131 O 1.06239 0.57304 0.54742
 O132 O 1.07836 0.47321 0.55461
 O133 O 0.88795 0.55966 0.53033
 C134 C 0.91323 0.57911 0.56100
 C135 C 1.07351 0.42276 0.55947
 C136 C 0.90641 0.40925 0.54998
 C137 C 1.11450 0.57577 0.54058
 O138 O 1.04592 0.59893 0.46379
 O139 O 0.95652 0.41032 0.43864
 O140 O 0.89514 0.53797 0.45003
 O141 O 1.11875 0.44176 0.48340
 O142 O 1.05181 0.41818 0.44496
 O143 O 0.94496 0.60546 0.47534
 O144 O 1.08157 0.52313 0.44477
 O145 O 0.88226 0.43865 0.46805
 Co146 Co 1.00308 0.58061 0.51036
 Co147 Co 0.99930 0.41045 0.48644
 Co148 Co 0.89968 0.49862 0.49873
 Co149 Co 1.07579 0.50011 0.49988
 O150 O 0.99154 0.49495 0.49741
 C151 C 1.07527 0.57254 0.43807
 C152 C 0.90542 0.41317 0.43906
 C153 C 0.91017 0.58664 0.44853
 C154 C 1.10234 0.41525 0.45232
 O155 O 1.06580 0.46701 0.07317
 O156 O 1.06474 0.52860 -0.07391
 O157 O 1.06766 0.40488 -0.02024
 O158 O 1.06875 0.59320 0.01994
 O159 O 1.03886 0.43661 -0.07990
 O160 O 1.04093 0.56038 0.07970
 O161 O 1.03223 0.60361 -0.05181
 O162 O 1.03110 0.39340 0.05119
 C163 C 1.06891 0.41697 0.07038
 C164 C 1.06900 0.57848 -0.07145
 C165 C 1.07432 0.41015 -0.05920
 C166 C 1.07498 0.58852 0.05906
 O167 O 0.93001 0.53352 0.07359
 O168 O 0.92794 0.46627 -0.07179
 O169 O 0.92754 0.40618 0.02124
 O170 O 0.92848 0.59418 -0.02116
 O171 O 0.95465 0.55912 -0.08045
 O172 O 0.95495 0.43984 0.08061
 O173 O 0.96502 0.60635 0.04977
 O174 O 0.96327 0.39251 -0.04985
 Co175 Co 0.99787 0.50001 0.06943
 Co176 Co 0.99650 0.49777 -0.06921
 Co177 Co 0.99748 0.40979 0.00049
 Co178 Co 0.99854 0.58886 -0.00080
 O179 O 0.99759 0.49917 -0.00001
 C180 C 0.92724 0.58359 0.06981
 C181 C 0.92501 0.41615 -0.06895
 C182 C 0.92100 0.41163 0.06017
 C183 C 0.92149 0.58864 -0.05997
 O184 O 0.56613 0.96723 0.57349
 O185 O 0.56644 1.02856 0.42650
 O186 O 0.56841 0.90450 0.47985
 O187 O 0.56948 1.09284 0.52078
 O188 O 0.54001 0.93634 0.42016
 O189 O 0.54078 1.06044 0.58033
 O190 O 0.53387 1.10352 0.44887
 O191 O 0.53196 0.89344 0.55123
 C192 C 0.56960 0.91723 0.57050
 C193 C 0.57069 1.07847 0.42919
 C194 C 0.57515 0.90954 0.44088
 C195 C 0.57540 1.08814 0.55992
 O196 O 0.43007 1.03305 0.57333
 O197 O 0.42942 0.96649 0.42767
 O198 O 0.42817 0.90614 0.52121
 O199 O 0.42965 1.09414 0.47862
 O200 O 0.45670 1.05924 0.41948
 O201 O 0.45559 0.93945 0.58064
 O202 O 0.46509 1.10610 0.54990
 O203 O 0.46384 0.89249 0.45008
 Co204 Co 0.49813 0.99988 0.56957
 Co205 Co 0.49806 0.99777 0.43081
 Co206 Co 0.49818 0.90965 0.50052
 Co207 Co 0.49944 1.08869 0.49956
 O208 O 0.49844 0.99904 0.50012
 C209 C 0.42724 1.08316 0.56980
 C210 C 0.42612 0.91637 0.43047
 C211 C 0.42165 0.91134 0.56015
 C212 C 0.42312 1.08846 0.43975
 O213 O 1.10685 1.05154 0.45902
 O214 O 0.90147 1.04838 0.54745
 O215 O 0.93873 1.03265 0.41857
 O216 O 1.07053 1.02668 0.58686
 O217 O 0.90883 1.06924 0.47449
 O218 O 1.09742 1.06758 0.53207
 O219 O 0.97955 1.06980 0.57690
 O220 O 1.02866 1.07509 0.43086
 C221 C 1.07858 1.08405 0.43661
 C222 C 0.92935 1.07888 0.57153
 C223 C 0.91425 1.07095 0.43543
 C224 C 1.09329 1.06665 0.57123
 O225 O 1.10520 0.95422 0.54771
 O226 O 0.90374 0.95745 0.45467
 O227 O 1.07439 0.97878 0.41979
 O228 O 0.93537 0.97318 0.58433
 O229 O 0.90858 0.93655 0.52775
 O230 O 1.09937 0.93799 0.47500
 O231 O 1.02608 0.93053 0.57393
 O232 O 0.98315 0.93597 0.42677
 Co233 Co 1.09365 1.00291 0.50333
 Co234 Co 0.91445 1.00292 0.50120
 Co235 Co 1.00616 1.00537 0.43201
 Co236 Co 1.00316 1.00033 0.57233
 O237 O 1.00435 1.00291 0.50220
 C238 C 1.07609 0.92107 0.56856
 C239 C 0.93288 0.92683 0.43121
 C240 C 1.09531 0.93806 0.43591
 C241 C 0.91241 0.93469 0.56691
 O242 O 0.60576 0.55207 -0.04137
 O243 O 0.40010 0.54825 0.04769
 O244 O 0.43753 0.53352 -0.08113
 O245 O 0.56934 0.52802 0.08671
 O246 O 0.40782 0.56971 -0.02499
 O247 O 0.59667 0.56829 0.03169
 O248 O 0.47797 0.57029 0.07699
 O249 O 0.52739 0.57581 -0.06909
 C250 C 0.57740 0.58461 -0.06367
 C251 C 0.42786 0.57943 0.07127
 C252 C 0.41311 0.57167 -0.06405
 C253 C 0.59205 0.56793 0.07082
 O254 O 0.60462 0.45531 0.04766
 O255 O 0.40267 0.45818 -0.04545
 O256 O 0.57299 0.47952 -0.08070
 O257 O 0.43442 0.47295 0.08419
 O258 O 0.40824 0.43656 0.02734
 O259 O 0.59880 0.43871 -0.02559
 O260 O 0.52569 0.43135 0.07411
 O261 O 0.48204 0.43664 -0.07309
 Co262 Co 0.59282 0.50360 0.00303
 Co263 Co 0.41351 0.50317 0.00128
 Co264 Co 0.50489 0.50609 -0.06791
 Co265 Co 0.50209 0.50094 0.07241
 O266 O 0.50334 0.50347 0.00221
 C267 C 0.57577 0.42222 0.06879
 C268 C 0.43170 0.42780 -0.06910
 C269 C 0.59483 0.43911 -0.06477
 C270 C 0.41213 0.43421 0.06646
 C271 C 0.28976 1.18409 0.17090
 C272 C 0.31296 1.15604 0.14440
 C273 C 0.34428 1.12354 0.11534
 C274 C 0.37272 1.09748 0.09063
 C275 C 0.79589 0.69147 0.67333
 C276 C 0.82153 0.66561 0.64690
 C277 C 0.85463 0.63516 0.61785
 C278 C 0.88273 0.60934 0.59288
 C279 C 0.70489 0.82033 0.17190
 C280 C 0.67840 0.84729 0.14649
 C281 C 0.64402 0.87851 0.11857
 C282 C 0.61355 0.90302 0.09428
 C283 C 1.19916 0.31532 0.67090
 C284 C 1.17092 0.34001 0.64508
 C285 C 1.13552 0.36954 0.61657
 C286 C 1.10582 0.39438 0.59179
 C287 C 0.69378 1.18854 -0.16980
 C288 C 0.66582 1.16335 -0.14426
 C289 C 0.63068 1.13329 -0.11617
 C290 C 0.60140 1.10782 -0.09169
 C291 C 1.19823 0.68532 0.32859
 C292 C 1.17155 0.65822 0.35383
 C293 C 1.13707 0.62666 0.38154
 C294 C 1.10765 0.60086 0.40582
 C295 C 0.28594 0.80140 -0.17281
 C296 C 0.31019 0.82516 -0.14484
 C297 C 0.34342 0.85309 -0.11494
 C298 C 0.37299 0.87774 -0.09071
 C299 C 0.78685 0.30460 0.32716
 C300 C 0.81084 0.32974 0.35455
 C301 C 0.84341 0.35904 0.38410
 C302 C 0.87231 0.38387 0.40873
 C303 C 1.19601 0.29639 0.16884
 C304 C 1.17098 0.32269 0.14242
 C305 C 1.13906 0.35662 0.11521
 C306 C 1.10895 0.38550 0.09408
 C307 C 0.69728 0.79880 0.66988
 C308 C 0.67230 0.82444 0.64307
 C309 C 0.64018 0.85765 0.61550
 C310 C 0.60982 0.88605 0.59421
 C311 C 1.19552 0.69160 -0.17447
 C312 C 1.17078 0.66651 -0.14738
 C313 C 1.13899 0.63482 -0.11881
 C314 C 1.10888 0.60795 -0.09640
 C315 C 0.69611 1.19379 0.32680
 C316 C 0.67173 1.16819 0.35381
 C317 C 0.64037 1.13572 0.38218
 C318 C 0.61053 1.10827 0.40440
 C319 C 0.80516 0.71162 0.16660
 C320 C 0.82861 0.68351 0.14040
 C321 C 0.85889 0.64716 0.11384
 C322 C 0.88789 0.61646 0.09325
 C323 C 0.30416 1.21045 0.66694
 C324 C 0.32784 1.18232 0.64080
 C325 C 0.35846 1.14622 0.61413
 C326 C 0.38770 1.11581 0.59339
 C327 C 0.79793 0.29342 -0.16548
 C328 C 0.82262 0.32049 -0.13940
 C329 C 0.85451 0.35525 -0.11282
 C330 C 0.88468 0.38455 -0.09223
 C331 C 0.29752 0.79597 0.33253
 C332 C 0.32294 0.82245 0.35865
 C333 C 0.35548 0.85639 0.38558
 C334 C 0.38589 0.88510 0.40661
 C335 C 1.17937 1.19529 0.31851
 C336 C 1.15482 1.17442 0.34761
 C337 C 1.12806 1.14800 0.38160
 C338 C 1.10558 1.12152 0.40880
 C339 C 0.67885 0.69541 -0.18167
 C340 C 0.65402 0.67414 -0.15293
 C341 C 0.62696 0.64784 -0.11906
 C342 C 0.60435 0.62169 -0.09176
 C343 C 0.82038 1.18320 0.68969
 C344 C 0.84726 1.16224 0.66187
 C345 C 0.87690 1.13773 0.62845
 C346 C 0.90132 1.11364 0.60086
 C347 C 0.31853 0.69181 0.18494
 C348 C 0.34550 0.67005 0.15748
 C349 C 0.37534 0.64297 0.12527
 C350 C 0.39984 0.61642 0.09906
 C351 C 1.17735 0.79820 0.67903
 C352 C 1.15203 0.82144 0.65149
 C353 C 1.12460 0.85133 0.61971
 C354 C 1.10214 0.88079 0.59445
 C355 C 0.67704 0.29997 0.17990
 C356 C 0.65183 0.32322 0.15229
 C357 C 0.62454 0.35305 0.12036
 C358 C 0.60208 0.38230 0.09492
 C359 C 0.82899 0.81942 0.31276
 C360 C 0.85509 0.84068 0.34071
 C361 C 0.88340 0.86622 0.37419
 C362 C 0.90646 0.89127 0.40178
 C363 C 0.32722 0.32450 -0.18963
 C364 C 0.35340 0.34572 -0.16171
 C365 C 0.38191 0.37007 -0.12778
 C366 C 0.40514 0.39371 -0.09951
 C367 C 1.20081 0.30016 -0.16420
 C368 C 1.17721 0.32284 -0.13512
 C369 C 1.14582 0.35239 -0.10466
 C370 C 1.11535 0.37880 -0.08194
 C371 C 0.70110 0.79828 0.33609
 C372 C 0.67744 0.82099 0.36516
 C373 C 0.64613 0.85085 0.39555
 C374 C 0.61587 0.87764 0.41820
 C375 C 0.80675 0.71296 -0.16296
 C376 C 0.82869 0.68766 -0.13451
 C377 C 0.85679 0.65392 -0.10496
 C378 C 0.88404 0.62377 -0.08278
 C379 C 0.30846 1.20898 0.33431
 C380 C 0.33037 1.18461 0.36323
 C381 C 0.35832 1.15215 0.39366
 C382 C 0.38554 1.12292 0.41654
 C383 C 1.18938 0.70870 0.16478
 C384 C 1.16781 0.68429 0.13572
 C385 C 1.13998 0.65192 0.10511
 C386 C 1.11279 0.62288 0.08213
 C387 C 0.69327 1.20586 0.66561
 C388 C 0.67104 1.18176 0.63663
 C389 C 0.64205 1.15004 0.60612
 C390 C 0.61395 1.12170 0.58316
 C391 C 0.80677 0.28842 0.16333
 C392 C 0.82840 0.31411 0.13508
 C393 C 0.85612 0.34768 0.10545
 C394 C 0.88330 0.37737 0.08310
 C395 C 0.30741 0.78754 0.66302
 C396 C 0.32912 0.81340 0.63490
 C397 C 0.35687 0.84711 0.60534
 C398 C 0.38401 0.87690 0.58302
 C399 C 0.30284 1.20360 -0.16716
 C400 C 0.32886 1.18441 -0.13752
 C401 C 0.36158 1.16021 -0.10465
 C402 C 0.38929 1.13576 -0.07848
 C403 C 0.80001 0.69716 0.33124
 C404 C 0.82512 0.67476 0.35984
 C405 C 0.85658 0.64736 0.39172
 C406 C 0.88268 0.62160 0.41800
 C407 C 0.72101 1.17997 0.16193
 C408 C 0.70150 1.15712 0.13138
 C409 C 0.67392 1.13030 0.09769
 C410 C 0.64713 1.10686 0.07094
 C411 C 1.22233 0.67858 0.66073
 C412 C 1.20326 0.65561 0.63010
 C413 C 1.17606 0.62855 0.59639
 C414 C 1.14946 0.60491 0.56966
 C415 C 0.71202 0.81732 -0.16568
 C416 C 0.68805 0.83939 -0.13643
 C417 C 0.65576 0.86435 -0.10395
 C418 C 0.62603 0.88534 -0.07743
 C419 C 1.21897 0.31622 0.33300
 C420 C 1.19787 0.33956 0.36299
 C421 C 1.16834 0.36619 0.39628
 C422 C 1.13981 0.38861 0.42292
 C423 C 0.28092 0.81498 0.16804
 C424 C 0.30233 0.83920 0.13859
 C425 C 0.33146 0.86674 0.10551
 C426 C 0.35934 0.88883 0.07830
 C427 C 0.79361 0.30531 0.66955
 C428 C 0.81935 0.32634 0.64062
 C429 C 0.85149 0.35199 0.60823
 C430 C 0.87817 0.37615 0.58138
 C431 C 1.17899 1.18877 0.68988
 C432 C 1.15746 1.16430 0.66115
 C433 C 1.13542 1.13469 0.62677
 C434 C 1.11693 1.10615 0.59912
 C435 C 0.67860 0.69273 0.18760
 C436 C 0.65663 0.66816 0.15908
 C437 C 0.63412 0.63756 0.12536
 C438 C 0.61547 0.60809 0.09833
 C439 C 1.16874 0.81158 0.31566
 C440 C 1.14915 0.83525 0.34569
 C441 C 1.13053 0.86562 0.38088
 C442 C 1.11531 0.89593 0.40863
 C443 C 0.67206 0.31525 -0.18610
 C444 C 0.65224 0.33934 -0.15627
 C445 C 0.63283 0.36897 -0.12079
 C446 C 0.61651 0.39815 -0.09256
 C447 C 0.82577 1.18395 0.31309
 C448 C 0.84716 1.16351 0.34387
 C449 C 0.86940 1.13745 0.37999
 C450 C 0.88877 1.11040 0.40832
 C451 C 0.32536 0.68235 -0.18747
 C452 C 0.34641 0.66266 -0.15630
 C453 C 0.36827 0.63757 -0.11969
 C454 C 0.38751 0.61103 -0.09105
 C455 C 0.82531 0.81589 0.68639
 C456 C 0.84650 0.83792 0.65623
 C457 C 0.86852 0.86587 0.62093
 C458 C 0.88756 0.89423 0.59331
 C459 C 0.32571 0.30921 0.18262
 C460 C 0.34712 0.33233 0.15304
 C461 C 0.36934 0.36244 0.11887
 C462 C 0.38815 0.39251 0.09226
   
