data_POSCAR
  _audit_creation_date              2014-09-24
  _audit_creation_method            'ToBaCCo'
  _symmetry_space_group_name_H-M    'P1'
  _symmetry_Int_Tables_number       1
  _symmetry_cell_setting            triclinic
  loop_
  _symmetry_equiv_pos_as_xyz
 x,y,z
_cell_length_a 22.2929
_cell_length_b 22.1593
_cell_length_c 22.4011
_cell_angle_alpha 88.750900
_cell_angle_beta 87.844100
_cell_angle_gamma 93.711400
loop_
  _atom_site_label
  _atom_site_type_symbol
  _atom_site_fract_x
  _atom_site_fract_y
  _atom_site_fract_z
O1 O 0.56196 0.52112 0.05074
 O2 O 0.39887 0.51611 0.02755
 O3 O 0.47620 0.43869 0.05070
 O4 O 0.48501 0.60408 0.03040
 O5 O 0.50413 0.59495 -0.06626
 O6 O 0.49279 0.42907 -0.04640
 O7 O 0.41643 0.51026 -0.06967
 O8 O 0.57937 0.51219 -0.04628
 Cu9 Cu 0.47860 0.52198 0.04950
 Cu10 Cu 0.49960 0.51112 -0.06696
 C11 C 0.59827 0.51538 0.00636
 C12 C 0.37972 0.51090 -0.02499
 C13 C 0.48360 0.40572 0.00571
 C14 C 0.49680 0.62777 -0.02120
 O15 O -0.06283 0.54736 0.51245
 O16 O -0.03735 0.38500 0.51268
 O17 O -0.03734 0.46966 0.59373
 O18 O -0.05844 0.46699 0.43063
 O19 O 0.03864 0.49019 0.41403
 O20 O 0.06038 0.48791 0.57644
 O21 O 0.05954 0.40641 0.49302
 O22 O 0.03458 0.56941 0.49700
 Cu23 Cu -0.05862 0.46446 0.51411
 Cu24 Cu 0.05806 0.49031 0.49370
 C25 C -0.01858 0.58618 0.50469
 C26 C 0.01524 0.36792 0.50224
 C27 C 0.01529 0.48014 0.61274
 C28 C -0.01363 0.47967 0.39459
 O29 O 0.50322 0.01910 0.59442
 O30 O 0.50863 0.06433 0.43498
 O31 O 0.43197 0.07721 0.52267
 O32 O 0.58721 0.03463 0.50817
 O33 O 0.55616 -0.06002 0.49137
 O34 O 0.39947 -0.01539 0.50000
 O35 O 0.48078 -0.03006 0.41370
 O36 O 0.47019 -0.07330 0.57165
 Cu37 Cu 0.51026 0.05713 0.51857
 Cu38 Cu 0.47244 -0.05278 0.49237
 C39 C 0.48613 -0.03519 0.61014
 C40 C 0.49629 0.02389 0.39699
 C41 C 0.38921 0.03888 0.51269
 C42 C 0.59855 -0.01946 0.49778
 C43 C 0.53086 -0.02594 -0.11975
 C44 C 0.53542 -0.08687 -0.10351
 C45 C 0.53558 -0.10595 -0.04364
 C46 C 0.53556 -0.06233 0.00172
 C47 C 0.52950 -0.00065 -0.01390
 C48 C 0.52610 0.01738 -0.07470
 C49 C 0.51693 0.07819 -0.08883
 C50 C 0.51364 0.12084 -0.04456
 C51 C 0.51973 0.10467 0.01578
 C52 C 0.52694 0.04318 0.03135
 C53 C 0.54357 -0.07816 0.06184
 C54 C 0.54181 -0.03513 0.10608
 C55 C 0.53157 0.02543 0.09206
 C56 C 0.52762 0.06925 0.13684
 C57 C 0.52223 0.12977 0.12072
 C58 C 0.51755 0.14814 0.06101
 H59 H 0.51110 0.09363 -0.13422
 H60 H 0.50573 0.16659 -0.05845
 H61 H 0.55252 -0.12376 0.07528
 H62 H 0.54932 -0.04987 0.15137
 H63 H 0.53873 -0.12023 -0.13797
 H64 H 0.52127 0.16302 0.15551
 C65 C 0.04050 0.48812 0.87661
 C66 C 0.10081 0.49669 0.89144
 C67 C 0.11768 0.50644 0.95016
 C68 C 0.07242 0.50862 0.99635
 C69 C 0.01087 0.49971 0.98242
 C70 C -0.00523 0.48887 0.92253
 C71 C -0.06639 0.47740 0.91082
 C72 C -0.11097 0.48200 0.95535
 C73 C -0.09632 0.49550 1.01429
 C74 C -0.03480 0.50163 1.02860
 C75 C 0.08667 0.52059 1.05578
 C76 C 0.04233 0.51873 1.10131
 C77 C -0.01885 0.50940 1.08893
 C78 C -0.06459 0.50764 1.13493
 C79 C -0.12490 0.50675 1.11901
 C80 C -0.14161 0.50168 1.05945
 H81 H -0.08080 0.46435 0.86720
 H82 H -0.15717 0.47307 0.94326
 H83 H 0.13229 0.53165 1.06825
 H84 H 0.05700 0.52610 1.14610
 H85 H 0.13561 0.49563 0.85632
 H86 H -0.15900 0.51241 1.15374
 C87 C -0.07353 -0.15922 0.47912
 C88 C -0.13325 -0.14419 0.47485
 C89 C -0.14884 -0.08389 0.47278
 C90 C -0.10268 -0.03662 0.47308
 C91 C -0.04176 -0.05104 0.47625
 C92 C -0.02726 -0.11246 0.47973
 C93 C 0.03316 -0.12553 0.48500
 C94 C 0.07866 -0.07969 0.48375
 C95 C 0.06580 -0.01860 0.47773
 C96 C 0.00490 -0.00393 0.47619
 C97 C -0.11561 0.02475 0.47076
 C98 C -0.06995 0.07071 0.47035
 C99 C -0.00937 0.05760 0.47414
 C100 C 0.03763 0.10407 0.47439
 C101 C 0.09749 0.08854 0.47261
 C102 C 0.11234 0.02804 0.47423
 H103 H 0.04627 -0.17138 0.49057
 H104 H 0.12403 -0.09307 0.48859
 H105 H -0.16115 0.03848 0.46934
 H106 H -0.08298 0.11669 0.46625
 H107 H -0.16798 -0.18023 0.47099
 H108 H 0.13308 0.12435 0.46955
 C109 C -0.33701 0.51088 1.01543
 C110 C -0.31603 0.49877 1.06944
 C111 C -0.25235 0.48924 1.08107
 C112 C -0.20555 0.50816 1.04437
 H113 H -0.34748 0.49230 1.10745
 H114 H -0.24435 0.46658 1.12301
 H115 H -0.30723 0.51344 0.97610
 H116 H -0.21356 0.53129 1.00276
 C117 C 0.31801 0.50489 0.96554
 C118 C 0.27661 0.49526 1.01043
 C119 C 0.21162 0.48510 1.00065
 C120 C 0.18324 0.51606 0.95947
 H121 H 0.29063 0.48983 1.05592
 H122 H 0.18605 0.45327 1.03066
 H123 H 0.30376 0.50461 0.91981
 H124 H 0.20910 0.54720 0.92896
 C125 C -0.02781 -0.35210 0.50401
 C126 C -0.08247 -0.33104 0.51339
 C127 C -0.09393 -0.26615 0.51215
 C128 C -0.06017 -0.22407 0.47989
 H129 H -0.12087 -0.36216 0.52492
 H130 H -0.13317 -0.25325 0.53755
 H131 H 0.01115 -0.32075 0.49615
 H132 H -0.02206 -0.23712 0.45299
 C133 C 0.02563 0.30292 0.49990
 C134 C -0.01665 0.25977 0.51767
 C135 C -0.00759 0.19427 0.51572
 C136 C 0.02761 0.16966 0.47428
 H137 H -0.05899 0.27256 0.53728
 H138 H -0.03297 0.16513 0.54838
 H139 H 0.06967 0.29067 0.48434
 H140 H 0.05353 0.19844 0.44175
 C141 C 0.48507 -0.05390 -0.33012
 C142 C 0.50601 -0.01827 -0.28728
 C143 C 0.50464 -0.04006 -0.22489
 C144 C 0.53319 -0.00772 -0.18385
 H145 H 0.52527 0.02704 -0.29818
 H146 H 0.47918 -0.08205 -0.21235
 H147 H 0.46784 -0.09975 -0.31854
 H148 H 0.55787 0.03437 -0.19749
 C149 C 0.50059 0.04010 0.33306
 C150 C 0.48275 0.00069 0.29173
 C151 C 0.48663 0.01460 0.22713
 C152 C 0.52773 0.05450 0.20131
 H153 H 0.46194 -0.04319 0.30546
 H154 H 0.45552 -0.01075 0.19958
 H155 H 0.51775 0.08553 0.32028
 H156 H 0.55906 0.08059 0.22790
 C157 C 0.50280 -0.30601 -0.02976
 C158 C 0.49000 -0.26807 0.01403
 C159 C 0.49479 -0.20158 0.00567
 C160 C 0.53548 -0.17203 -0.03180
 H161 H 0.47187 -0.28603 0.05680
 H162 H 0.46413 -0.17621 0.03231
 H163 H 0.51686 -0.28839 -0.07390
 H164 H 0.56593 -0.19711 -0.05895
 C165 C 0.48332 0.33972 0.01383
 C166 C 0.47217 0.31255 0.06750
 C167 C 0.47619 0.24719 0.07883
 C168 C 0.51240 0.21319 0.04672
 H169 H 0.45851 0.33887 0.10525
 H170 H 0.45036 0.22731 0.11706
 H171 H 0.49348 0.31348 -0.02503
 H172 H 0.53965 0.23319 0.00956
 C173 C -0.33822 -0.03425 0.49364
 C174 C -0.32156 -0.09116 0.49568
 C175 C -0.25790 -0.10543 0.49689
 C176 C -0.21330 -0.07139 0.46826
 H177 H -0.35535 -0.12836 0.50193
 H178 H -0.24811 -0.14524 0.52265
 H179 H -0.30447 0.00323 0.49256
 H180 H -0.22446 -0.03326 0.44088
 C181 C 0.32732 0.05806 0.51583
 C182 C 0.28188 0.02500 0.49320
 C183 C 0.22007 0.04449 0.49696
 C184 C 0.17643 0.01383 0.46892
 H185 H 0.29035 -0.01695 0.47129
 H186 H 0.20998 0.08267 0.52418
 H187 H 0.31923 0.10105 0.53583
 H188 H 0.18787 -0.02444 0.44244
 C189 C -0.02151 0.48318 1.32942
 C190 C -0.07483 0.47079 1.30518
 C191 C -0.08473 0.47300 1.24017
 C192 C -0.05112 0.50756 1.19979
 H193 H -0.11317 0.45521 1.33386
 H194 H -0.12309 0.44549 1.22553
 H195 H 0.01791 0.49569 1.30106
 H196 H -0.01375 0.53618 1.21451
 C197 C 0.02498 0.48415 0.67741
 C198 C -0.01867 0.49816 0.71658
 C199 C -0.00885 0.50783 0.78082
 C200 C 0.02907 0.47668 0.81264
 H201 H -0.06231 0.50783 0.70042
 H202 H -0.03544 0.54067 0.80279
 H203 H 0.07026 0.48008 0.69221
 H204 H 0.05630 0.44452 0.79041
   
