data_POSCAR
  _audit_creation_date              2014-09-24
  _audit_creation_method            'ToBaCCo'
  _symmetry_space_group_name_H-M    'P1'
  _symmetry_Int_Tables_number       1
  _symmetry_cell_setting            triclinic
  loop_
  _symmetry_equiv_pos_as_xyz
 x,y,z
_cell_length_a 44.6457
_cell_length_b 40.5095
_cell_length_c 42.8391
_cell_angle_alpha 86.017200
_cell_angle_beta 92.856000
_cell_angle_gamma 95.018300
loop_
  _atom_site_label
  _atom_site_type_symbol
  _atom_site_fract_x
  _atom_site_fract_y
  _atom_site_fract_z
C1 C 0.29667 0.30445 0.24816
 H2 H 0.29879 0.30442 0.27343
 C3 C 0.31576 0.32606 0.22984
 H4 H 0.33217 0.34303 0.24126
 C5 C 0.27259 0.28222 0.20278
 H6 H 0.25622 0.26460 0.19231
 C7 C 0.29132 0.30324 0.18358
 H8 H 0.28909 0.30143 0.15846
 N9 N 0.27541 0.28334 0.23446
 C10 C 0.20755 0.25934 0.30452
 H11 H 0.20599 0.23249 0.30553
 C12 C 0.18919 0.27567 0.32280
 H13 H 0.17376 0.26122 0.33818
 C14 C 0.22958 0.31081 0.28319
 H15 H 0.24484 0.32449 0.26727
 C16 C 0.21182 0.32811 0.30117
 H17 H 0.21373 0.35499 0.29892
 Zn18 Zn 0.25151 0.25354 0.26096
 N19 N 0.22750 0.27703 0.28549
 C20 C 0.27745 0.22539 0.31825
 N21 N 0.27839 0.22861 0.28648
 C22 C 0.29923 0.21413 0.27121
 C23 C 0.31955 0.19453 0.28780
 C24 C 0.29739 0.20589 0.33583
 C25 C 0.20375 0.23769 0.21763
 C26 C 0.18501 0.21730 0.19854
 C27 C 0.21076 0.17029 0.22012
 C28 C 0.22887 0.19150 0.23885
 N29 N 0.22555 0.22465 0.23680
 H30 H 0.26108 0.23758 0.33001
 H31 H 0.29979 0.21756 0.24597
 H32 H 0.33594 0.18326 0.27511
 H33 H 0.29581 0.20285 0.36101
 H34 H 0.20134 0.26408 0.21674
 H35 H 0.16835 0.22822 0.18275
 H36 H 0.21391 0.14401 0.22193
 H37 H 0.24569 0.18137 0.25483
 C38 C 0.19139 0.31054 0.32140
 C39 C 0.31330 0.32559 0.19704
 C40 C 0.18876 0.18318 0.19932
 C41 C 0.31857 0.18982 0.32053
 C42 C 0.78729 0.81092 0.23921
 H43 H 0.79016 0.81002 0.26448
 C44 C 0.80668 0.83217 0.22086
 H45 H 0.82454 0.84672 0.23287
 C46 C 0.76180 0.79036 0.19395
 H47 H 0.74461 0.77369 0.18345
 C48 C 0.78065 0.81112 0.17467
 H49 H 0.77621 0.81070 0.14967
 N50 N 0.76541 0.79054 0.22560
 C51 C 0.69938 0.76257 0.29687
 H52 H 0.69840 0.73580 0.29674
 C53 C 0.68099 0.77733 0.31633
 H54 H 0.66623 0.76167 0.33150
 C55 C 0.72004 0.81537 0.27725
 H56 H 0.73490 0.83012 0.26160
 C57 C 0.70205 0.83117 0.29633
 H58 H 0.70327 0.85804 0.29509
 Zn59 Zn 0.74223 0.75969 0.25190
 N60 N 0.71863 0.78165 0.27810
 C61 C 0.76944 0.72975 0.30764
 N62 N 0.76971 0.73404 0.27587
 C63 C 0.79006 0.71998 0.25955
 C64 C 0.81050 0.69967 0.27503
 C65 C 0.78949 0.70950 0.32410
 C66 C 0.69375 0.74506 0.20897
 C67 C 0.67483 0.72526 0.18952
 C68 C 0.70057 0.67772 0.20970
 C69 C 0.71896 0.69837 0.22870
 N70 N 0.71578 0.73153 0.22746
 H71 H 0.75349 0.74162 0.32027
 H72 H 0.79009 0.72424 0.23434
 H73 H 0.82646 0.68872 0.26151
 H74 H 0.78836 0.70558 0.34929
 H75 H 0.69140 0.77143 0.20879
 H76 H 0.65813 0.73667 0.17414
 H77 H 0.70364 0.65143 0.21088
 H78 H 0.73589 0.68781 0.24424
 C79 C 0.68222 0.81210 0.31627
 C80 C 0.80403 0.83236 0.18782
 C81 C 0.67849 0.69119 0.18935
 C82 C 0.81013 0.69380 0.30771
 C83 C 0.79737 0.30606 0.75087
 H84 H 0.80033 0.30701 0.77602
 C85 C 0.81662 0.32599 0.73126
 H86 H 0.83450 0.34213 0.74154
 C87 C 0.77127 0.28267 0.70706
 H88 H 0.75394 0.26539 0.69765
 C89 C 0.78995 0.30214 0.68663
 H90 H 0.78627 0.30005 0.66165
 N91 N 0.77515 0.28505 0.73854
 C92 C 0.70664 0.26555 0.80830
 H93 H 0.70470 0.23868 0.81015
 C94 C 0.68843 0.28292 0.82577
 H95 H 0.67276 0.26921 0.84138
 C96 C 0.72976 0.31596 0.78590
 H97 H 0.74557 0.32877 0.77001
 C98 C 0.71205 0.33432 0.80296
 H99 H 0.71444 0.36116 0.79996
 Zn100 Zn 0.75109 0.25703 0.76639
 N101 N 0.72708 0.28221 0.78919
 C102 C 0.77597 0.23292 0.82536
 N103 N 0.77755 0.23346 0.79378
 C104 C 0.79875 0.21763 0.78055
 C105 C 0.81890 0.19949 0.79914
 C106 C 0.79553 0.21494 0.84496
 C107 C 0.70281 0.23943 0.72462
 C108 C 0.68421 0.21858 0.70589
 C109 C 0.71095 0.17228 0.72745
 C110 C 0.72893 0.19397 0.74585
 N111 N 0.72508 0.22700 0.74356
 H112 H 0.75963 0.24661 0.83555
 H113 H 0.79964 0.21863 0.75530
 H114 H 0.83394 0.18599 0.78689
 H115 H 0.79379 0.21658 0.86984
 H116 H 0.70003 0.26576 0.72351
 H117 H 0.66727 0.22908 0.69017
 H118 H 0.71460 0.14613 0.72928
 H119 H 0.74620 0.18437 0.76159
 C120 C 0.69117 0.31780 0.82338
 C121 C 0.81313 0.32404 0.69865
 C122 C 0.68857 0.18461 0.70677
 C123 C 0.81766 0.19730 0.83226
 C124 C 0.28325 0.80076 0.73441
 H125 H 0.28548 0.80190 0.75959
 C126 C 0.30366 0.81978 0.71537
 H127 H 0.32156 0.83555 0.72609
 C128 C 0.25844 0.77706 0.69007
 H129 H 0.24140 0.75971 0.68028
 C130 C 0.27838 0.79552 0.67021
 H131 H 0.27593 0.79270 0.64524
 N132 N 0.26126 0.77983 0.72157
 C133 C 0.19452 0.75669 0.79295
 H134 H 0.19306 0.72985 0.79363
 C135 C 0.17641 0.77260 0.81177
 H136 H 0.16132 0.75778 0.82725
 C137 C 0.21622 0.80848 0.77201
 H138 H 0.23141 0.82237 0.75611
 C139 C 0.19857 0.82543 0.79049
 H140 H 0.20036 0.85231 0.78859
 Zn141 Zn 0.23740 0.75092 0.74891
 N142 N 0.21414 0.77471 0.77382
 C143 C 0.26436 0.72363 0.80600
 N144 N 0.26438 0.72588 0.77416
 C145 C 0.28450 0.71056 0.75866
 C146 C 0.30509 0.69122 0.77513
 C147 C 0.28458 0.70439 0.82346
 C148 C 0.18935 0.73540 0.70592
 C149 C 0.17057 0.71519 0.68673
 C150 C 0.19488 0.66767 0.70953
 C151 C 0.21320 0.68876 0.72819
 N152 N 0.21070 0.72207 0.72549
 H153 H 0.24859 0.73651 0.81793
 H154 H 0.28435 0.71325 0.73335
 H155 H 0.32097 0.67939 0.76225
 H156 H 0.28376 0.70220 0.84874
 H157 H 0.18757 0.76193 0.70455
 H158 H 0.15456 0.72644 0.67038
 H159 H 0.19744 0.64127 0.71181
 H160 H 0.22963 0.67844 0.74454
 C161 C 0.17836 0.80745 0.81076
 C162 C 0.30164 0.81686 0.68284
 C163 C 0.17361 0.68089 0.68799
 C164 C 0.30512 0.68761 0.80798
 C165 C 0.03059 -0.02667 -0.02774
 C166 C 0.04908 -0.00766 -0.00263
 C167 C 0.03284 0.01107 0.01427
 C168 C -0.00083 0.00900 0.00468
 C169 C 0.00521 -0.04685 -0.00990
 C170 C -0.01110 -0.02825 0.00717
 C171 C 0.01421 -0.00008 -0.04747
 C172 C -0.00213 0.01870 -0.03066
 H173 H 0.07324 -0.00828 0.00071
 H174 H -0.01407 0.02417 0.01855
 H175 H -0.00018 -0.07324 -0.01102
 H176 H 0.01427 0.00229 -0.07280
 C177 C 0.01877 0.46881 0.46010
 C178 C 0.03735 0.49132 0.48259
 C179 C 0.02068 0.50850 0.50062
 C180 C -0.01346 0.50242 0.49365
 C181 C -0.00318 0.44722 0.48084
 C182 C -0.02007 0.46458 0.49841
 C183 C -0.00082 0.49274 0.44071
 C184 C -0.01802 0.51003 0.45807
 H185 H 0.06170 0.49412 0.48348
 H186 H -0.02749 0.51635 0.50784
 H187 H -0.00452 0.42034 0.48200
 H188 H -0.00019 0.49691 0.41554
 C189 C 0.53154 -0.02600 0.47849
 C190 C 0.55075 -0.00370 0.50049
 C191 C 0.53480 0.01497 0.51771
 C192 C 0.50060 0.00991 0.51120
 C193 C 0.50907 -0.04644 0.49992
 C194 C 0.49298 -0.02769 0.51712
 C195 C 0.51190 -0.00250 0.45868
 C196 C 0.49560 0.01626 0.47557
 H197 H 0.57506 -0.00333 0.50258
 H198 H 0.48767 0.02506 0.52540
 H199 H 0.50423 -0.07301 0.49990
 H200 H 0.51052 -0.00162 0.43333
 C201 C 0.52131 0.47619 -0.03384
 C202 C 0.53971 0.49872 -0.01121
 C203 C 0.52289 0.51615 0.00640
 C204 C 0.48881 0.51022 -0.00094
 C205 C 0.49897 0.45482 -0.01337
 C206 C 0.48198 0.47244 0.00384
 C207 C 0.50207 0.50018 -0.05358
 C208 C 0.48465 0.51758 -0.03658
 H209 H 0.56405 0.50189 -0.01025
 H210 H 0.47468 0.52433 0.01301
 H211 H 0.49714 0.42793 -0.01237
 H212 H 0.50250 0.50354 -0.07884
 C213 C 0.12920 -0.18677 -0.16499
 C214 C 0.11142 -0.17053 -0.14603
 C215 C 0.12328 -0.14217 -0.13112
 C216 C 0.15362 -0.13066 -0.13519
 C217 C 0.17138 -0.14689 -0.15421
 C218 C 0.15938 -0.17511 -0.16932
 C219 C 0.10359 -0.12610 -0.11089
 C220 C 0.10858 -0.09444 -0.10328
 C221 C 0.08845 -0.07833 -0.08357
 C222 C 0.08887 -0.04361 -0.08585
 C223 C 0.07025 -0.02744 -0.06778
 C224 C 0.05045 -0.04554 -0.04701
 C225 C 0.05104 -0.08035 -0.04380
 C226 C 0.06971 -0.09651 -0.06191
 H227 H 0.11921 -0.20827 -0.17654
 H228 H 0.08821 -0.18005 -0.14317
 H229 H 0.16400 -0.10963 -0.12328
 H230 H 0.19474 -0.13774 -0.15657
 H231 H 0.08340 -0.14062 -0.10340
 H232 H 0.12719 -0.07892 -0.11315
 H233 H 0.10355 -0.02891 -0.10184
 H234 H 0.07125 -0.00058 -0.07007
 H235 H 0.03779 -0.09546 -0.02697
 H236 H 0.06982 -0.12319 -0.05826
 C237 C 0.18504 0.35652 0.35607
 C238 C 0.16725 0.37400 0.37391
 C239 C 0.13649 0.36432 0.37652
 C240 C 0.12398 0.33607 0.36165
 C241 C 0.14185 0.31841 0.34397
 C242 C 0.17251 0.32863 0.34079
 C243 C 0.11849 0.38382 0.39549
 C244 C 0.08878 0.38580 0.39054
 C245 C 0.07127 0.40664 0.40871
 C246 C 0.04487 0.41867 0.39496
 C247 C 0.02799 0.43877 0.41123
 C248 C 0.03733 0.44768 0.44164
 C249 C 0.06286 0.43385 0.45599
 C250 C 0.07978 0.41389 0.43969
 H251 H 0.20870 0.36465 0.35445
 H252 H 0.17751 0.39542 0.38544
 H253 H 0.10056 0.32727 0.36390
 H254 H 0.13160 0.29702 0.33242
 H255 H 0.13066 0.39876 0.41274
 H256 H 0.07709 0.37355 0.37122
 H257 H 0.03731 0.41260 0.37146
 H258 H 0.00741 0.44677 0.39998
 H259 H 0.06967 0.43816 0.48007
 H260 H 0.09910 0.40363 0.45169
 C261 C 0.63294 -0.18437 0.34124
 C262 C 0.61471 -0.16896 0.36042
 C263 C 0.62580 -0.14031 0.37530
 C264 C 0.65585 -0.12776 0.37115
 C265 C 0.67409 -0.14319 0.35199
 C266 C 0.66282 -0.17160 0.33672
 C267 C 0.60568 -0.12486 0.39554
 C268 C 0.60932 -0.09274 0.40187
 C269 C 0.58893 -0.07702 0.42159
 C270 C 0.58759 -0.04253 0.41796
 C271 C 0.56897 -0.02664 0.43627
 C272 C 0.55105 -0.04478 0.45875
 C273 C 0.55317 -0.07933 0.46302
 C274 C 0.57179 -0.09524 0.44462
 H275 H 0.62348 -0.20603 0.32959
 H276 H 0.59173 -0.17927 0.36338
 H277 H 0.66562 -0.10647 0.38311
 H278 H 0.69721 -0.13320 0.34956
 H279 H 0.58634 -0.14023 0.40401
 H280 H 0.62697 -0.07665 0.39090
 H281 H 0.60095 -0.02778 0.40080
 H282 H 0.56861 0.00008 0.43293
 H283 H 0.54122 -0.09439 0.48089
 H284 H 0.57323 -0.12167 0.44914
 C285 C 0.68528 0.36544 -0.14371
 C286 C 0.66787 0.38339 -0.12589
 C287 C 0.63731 0.37345 -0.12201
 C288 C 0.62460 0.34464 -0.13583
 C289 C 0.64206 0.32661 -0.15359
 C290 C 0.67256 0.33688 -0.15782
 C291 C 0.61987 0.39318 -0.10266
 C292 C 0.58984 0.39358 -0.10539
 C293 C 0.57281 0.41426 -0.08655
 C294 C 0.54477 0.42377 -0.09835
 C295 C 0.52825 0.44364 -0.08146
 C296 C 0.53960 0.45497 -0.05247
 C297 C 0.56685 0.44355 -0.03984
 C298 C 0.58338 0.42374 -0.05675
 H299 H 0.70885 0.37365 -0.14607
 H300 H 0.67832 0.40524 -0.11519
 H301 H 0.60138 0.33557 -0.13264
 H302 H 0.63160 0.30476 -0.16425
 H303 H 0.63262 0.40938 -0.08683
 H304 H 0.57728 0.37995 -0.12332
 H305 H 0.53566 0.41592 -0.12081
 H306 H 0.50646 0.44985 -0.09112
 H307 H 0.57535 0.44942 -0.01662
 H308 H 0.60406 0.41533 -0.04604
 C309 C -0.17005 0.16783 -0.11773
 C310 C -0.15111 0.14806 -0.09913
 C311 C -0.12445 0.13892 -0.11057
 C312 C -0.11717 0.14968 -0.14131
 C313 C -0.13608 0.16926 -0.16010
 C314 C -0.16327 0.17881 -0.14899
 C315 C -0.10578 0.11659 -0.09058
 C316 C -0.07609 0.11570 -0.09367
 C317 C -0.05730 0.09170 -0.07587
 C318 C -0.02913 0.08705 -0.08724
 C319 C -0.01105 0.06374 -0.07235
 C320 C -0.02066 0.04459 -0.04553
 C321 C -0.04840 0.04987 -0.03349
 C322 C -0.06654 0.07322 -0.04840
 H323 H -0.19084 0.17246 -0.10762
 H324 H -0.15753 0.13956 -0.07567
 H325 H -0.09713 0.14254 -0.15133
 H326 H -0.12821 0.17766 -0.18295
 H327 H -0.11730 0.10037 -0.07311
 H328 H -0.06491 0.13263 -0.11091
 H329 H -0.02125 0.10115 -0.10811
 H330 H 0.01049 0.06073 -0.08185
 H331 H -0.05653 0.03537 -0.01297
 H332 H -0.08762 0.07652 -0.03820
 C333 C -0.16298 0.64177 0.31085
 C334 C -0.14333 0.62035 0.32611
 C335 C -0.12965 0.62725 0.35540
 C336 C -0.13581 0.65645 0.36902
 C337 C -0.15545 0.67799 0.35366
 C338 C -0.16921 0.67092 0.32436
 C339 C -0.10850 0.60388 0.37012
 C340 C -0.10112 0.60119 0.40091
 C341 C -0.08018 0.57725 0.41514
 C342 C -0.06539 0.58357 0.44407
 C343 C -0.04531 0.56177 0.45812
 C344 C -0.03963 0.53308 0.44358
 C345 C -0.05502 0.52630 0.41501
 C346 C -0.07514 0.54799 0.40100
 H347 H -0.17354 0.63530 0.28854
 H348 H -0.13895 0.59811 0.31504
 H349 H -0.12504 0.66326 0.39108
 H350 H -0.15937 0.70054 0.36442
 H351 H -0.09905 0.58796 0.35462
 H352 H -0.11029 0.61725 0.41647
 H353 H -0.06909 0.60571 0.45565
 H354 H -0.03389 0.56780 0.48004
 H355 H -0.05192 0.50387 0.40365
 H356 H -0.08704 0.54127 0.37946
 C357 C 0.34607 0.13825 0.32605
 C358 C 0.36608 0.11786 0.34217
 C359 C 0.37960 0.12627 0.37113
 C360 C 0.37276 0.15584 0.38363
 C361 C 0.35273 0.17634 0.36739
 C362 C 0.33928 0.16785 0.33834
 C363 C 0.40137 0.10404 0.38660
 C364 C 0.40946 0.10313 0.41723
 C365 C 0.43109 0.08022 0.43194
 C366 C 0.44691 0.08844 0.45986
 C367 C 0.46777 0.06767 0.47415
 C368 C 0.47322 0.03819 0.46081
 C369 C 0.45672 0.02948 0.43337
 C370 C 0.43583 0.05011 0.41917
 H371 H 0.33575 0.13068 0.30398
 H372 H 0.37094 0.09528 0.33198
 H373 H 0.38330 0.16377 0.40542
 H374 H 0.34832 0.19926 0.37723
 H375 H 0.41082 0.08747 0.37173
 H376 H 0.40048 0.11991 0.43222
 H377 H 0.44342 0.11126 0.47043
 H378 H 0.47995 0.07508 0.49529
 H379 H 0.45952 0.00633 0.42309
 H380 H 0.42312 0.04193 0.39857
 C381 C 0.33285 0.63619 -0.18601
 C382 C 0.35336 0.61634 -0.16997
 C383 C 0.36759 0.62566 -0.14161
 C384 C 0.36099 0.65557 -0.12963
 C385 C 0.34050 0.67557 -0.14580
 C386 C 0.32631 0.66616 -0.17425
 C387 C 0.38984 0.60401 -0.12622
 C388 C 0.39802 0.60339 -0.09562
 C389 C 0.41992 0.58086 -0.08079
 C390 C 0.43515 0.58905 -0.05253
 C391 C 0.45613 0.56854 -0.03802
 C392 C 0.46230 0.53941 -0.05151
 C393 C 0.44648 0.53076 -0.07934
 C394 C 0.42544 0.55107 -0.09372
 H395 H 0.32197 0.62792 -0.20758
 H396 H 0.35804 0.59346 -0.17974
 H397 H 0.37210 0.66415 -0.10833
 H398 H 0.33633 0.69879 -0.13640
 H399 H 0.39944 0.58757 -0.14109
 H400 H 0.38874 0.62006 -0.08071
 H401 H 0.43107 0.61160 -0.04183
 H402 H 0.46783 0.57585 -0.01660
 H403 H 0.44995 0.50788 -0.08977
 H404 H 0.41323 0.54286 -0.11459
 C405 C -0.15908 -0.11884 0.17935
 C406 C -0.13821 -0.10000 0.16064
 C407 C -0.13306 -0.10903 0.13052
 C408 C -0.14910 -0.13762 0.11952
 C409 C -0.16997 -0.15647 0.13809
 C410 C -0.17541 -0.14766 0.16855
 C411 C -0.10965 -0.08928 0.11207
 C412 C -0.10899 -0.08897 0.08075
 C413 C -0.08427 -0.07192 0.06224
 C414 C -0.07983 -0.08309 0.03267
 C415 C -0.05625 -0.06879 0.01470
 C416 C -0.03671 -0.04268 0.02577
 C417 C -0.04165 -0.03068 0.05490
 C418 C -0.06519 -0.04513 0.07301
 H419 H -0.16279 -0.10991 0.20191
 H420 H -0.12611 -0.07811 0.16975
 H421 H -0.14489 -0.14643 0.09702
 H422 H -0.18044 -0.17902 0.12881
 H423 H -0.09224 -0.07506 0.12508
 H424 H -0.12663 -0.10299 0.06786
 H425 H -0.09439 -0.10339 0.02362
 H426 H -0.05343 -0.07809 -0.00797
 H427 H -0.02693 -0.01058 0.06401
 H428 H -0.06837 -0.03507 0.09521
 C429 C -0.15604 0.37703 0.68291
 C430 C -0.13657 0.39570 0.66254
 C431 C -0.12701 0.38193 0.63595
 C432 C -0.13664 0.34871 0.63060
 C433 C -0.15601 0.33006 0.65095
 C434 C -0.16610 0.34403 0.67724
 C435 C -0.10618 0.40232 0.61499
 C436 C -0.10494 0.39738 0.58443
 C437 C -0.08342 0.41595 0.56290
 C438 C -0.07952 0.40283 0.53404
 C439 C -0.05914 0.41870 0.51306
 C440 C -0.04225 0.44826 0.52036
 C441 C -0.04651 0.46188 0.54891
 C442 C -0.06691 0.44597 0.56998
 H443 H -0.16352 0.38857 0.70287
 H444 H -0.12923 0.42111 0.66737
 H445 H -0.12876 0.33671 0.61114
 H446 H -0.16265 0.30443 0.64641
 H447 H -0.09184 0.42189 0.62535
 H448 H -0.12010 0.37814 0.57449
 H449 H -0.09210 0.37996 0.52777
 H450 H -0.05678 0.40790 0.49098
 H451 H -0.03367 0.48452 0.55529
 H452 H -0.06962 0.45750 0.59154
 C453 C 0.33645 -0.18228 0.63870
 C454 C 0.35882 -0.16642 0.62001
 C455 C 0.36971 -0.13343 0.62426
 C456 C 0.35795 -0.11663 0.64798
 C457 C 0.33563 -0.13261 0.66684
 C458 C 0.32464 -0.16560 0.66237
 C459 C 0.39418 -0.11817 0.60446
 C460 C 0.39985 -0.08533 0.59856
 C461 C 0.42416 -0.07087 0.57815
 C462 C 0.42115 -0.04003 0.56180
 C463 C 0.44347 -0.02596 0.54198
 C464 C 0.46945 -0.04233 0.53841
 C465 C 0.47279 -0.07284 0.55536
 C466 C 0.45046 -0.08693 0.57508
 H467 H 0.32888 -0.20792 0.63508
 H468 H 0.36772 -0.18004 0.60216
 H469 H 0.36634 -0.09149 0.65256
 H470 H 0.32694 -0.11916 0.68492
 H471 H 0.40702 -0.13496 0.59305
 H472 H 0.38525 -0.06845 0.60732
 H473 H 0.40121 -0.02706 0.56393
 H474 H 0.44003 -0.00261 0.52898
 H475 H 0.49289 -0.08565 0.55372
 H476 H 0.45414 -0.11012 0.58822
 C477 C 0.36438 0.35428 0.18642
 C478 C 0.38398 0.37409 0.16707
 C479 C 0.37375 0.38725 0.13772
 C480 C 0.34318 0.38132 0.12854
 C481 C 0.32351 0.36172 0.14797
 C482 C 0.33394 0.34762 0.17699
 C483 C 0.39547 0.40700 0.11735
 C484 C 0.39276 0.40781 0.08601
 C485 C 0.41558 0.42520 0.06540
 C486 C 0.41899 0.41311 0.03600
 C487 C 0.44059 0.42840 0.01604
 C488 C 0.45891 0.45647 0.02489
 C489 C 0.45502 0.46916 0.05395
 C490 C 0.43360 0.45364 0.07410
 H491 H 0.37327 0.34356 0.20843
 H492 H 0.40740 0.37847 0.17474
 H493 H 0.33430 0.39205 0.10653
 H494 H 0.30006 0.35780 0.14035
 H495 H 0.41545 0.41890 0.12857
 H496 H 0.37437 0.39304 0.07490
 H497 H 0.40515 0.39148 0.02862
 H498 H 0.44276 0.41845 -0.00648
 H499 H 0.46890 0.49075 0.06134
 H500 H 0.43100 0.46416 0.09625
 C501 C 0.18413 0.13723 0.16281
 C502 C 0.16717 0.11636 0.14280
 C503 C 0.13613 0.11883 0.13745
 C504 C 0.12236 0.14276 0.15288
 C505 C 0.13944 0.16382 0.17281
 C506 C 0.17048 0.16118 0.17805
 C507 C 0.11947 0.09554 0.11608
 C508 C 0.09085 0.09752 0.10535
 C509 C 0.07555 0.07424 0.08315
 C510 C 0.05117 0.08454 0.06403
 C511 C 0.03692 0.06380 0.04201
 C512 C 0.04676 0.03230 0.03873
 C513 C 0.07045 0.02150 0.05854
 C514 C 0.08456 0.04209 0.08068
 H515 H 0.20808 0.13487 0.16606
 H516 H 0.17845 0.09822 0.13135
 H517 H 0.09847 0.14525 0.15013
 H518 H 0.12828 0.18180 0.18458
 H519 H 0.13214 0.07654 0.10788
 H520 H 0.07848 0.11778 0.11134
 H521 H 0.04355 0.10900 0.06566
 H522 H 0.01881 0.07285 0.02693
 H523 H 0.07797 -0.00302 0.05707
 H524 H 0.10229 0.03251 0.09588
 C525 C 0.16930 0.63418 0.65227
 C526 C 0.15291 0.61405 0.63123
 C527 C 0.12249 0.61820 0.62350
 C528 C 0.10879 0.64330 0.63732
 C529 C 0.12527 0.66352 0.65842
 C530 C 0.15570 0.65915 0.66615
 C531 C 0.10665 0.59623 0.60048
 C532 C 0.07677 0.59322 0.59442
 C533 C 0.06233 0.57070 0.57115
 C534 C 0.03500 0.57826 0.55586
 C535 C 0.02126 0.55800 0.53316
 C536 C 0.03453 0.52966 0.52535
 C537 C 0.06130 0.52143 0.54158
 C538 C 0.07498 0.54159 0.56425
 H539 H 0.19286 0.63057 0.65723
 H540 H 0.16417 0.59514 0.62083
 H541 H 0.08561 0.64791 0.63177
 H542 H 0.11414 0.68249 0.66884
 H543 H 0.12070 0.58180 0.58782
 H544 H 0.06225 0.60807 0.60594
 H545 H 0.02454 0.60027 0.56107
 H546 H 0.00064 0.56504 0.52137
 H547 H 0.07157 0.49909 0.53709
 H548 H 0.09522 0.53395 0.57658
 C549 C 0.68488 0.13900 0.66992
 C550 C 0.66841 0.11839 0.64932
 C551 C 0.63736 0.12052 0.64365
 C552 C 0.62304 0.14369 0.65952
 C553 C 0.63963 0.16449 0.68003
 C554 C 0.67071 0.16235 0.68543
 C555 C 0.62128 0.09780 0.62139
 C556 C 0.59279 0.09984 0.61026
 C557 C 0.57789 0.07717 0.58728
 C558 C 0.55297 0.08736 0.56896
 C559 C 0.53874 0.06707 0.54656
 C560 C 0.54921 0.03619 0.54196
 C561 C 0.57358 0.02553 0.56086
 C562 C 0.58763 0.04562 0.58342
 H563 H 0.70888 0.13705 0.67330
 H564 H 0.68010 0.10081 0.63758
 H565 H 0.59911 0.14583 0.65661
 H566 H 0.62806 0.18198 0.69202
 H567 H 0.63432 0.07930 0.61289
 H568 H 0.58013 0.11967 0.61668
 H569 H 0.54474 0.11133 0.57166
 H570 H 0.52004 0.07593 0.53238
 H571 H 0.58156 0.00138 0.55852
 H572 H 0.60579 0.03599 0.59795
 C573 C 0.67372 0.64595 0.15205
 C574 C 0.65683 0.62579 0.13139
 C575 C 0.62594 0.62888 0.12556
 C576 C 0.61232 0.65303 0.14084
 C577 C 0.62932 0.67331 0.16153
 C578 C 0.66018 0.66987 0.16746
 C579 C 0.60948 0.60644 0.10329
 C580 C 0.57956 0.60380 0.09741
 C581 C 0.56474 0.58046 0.07505
 C582 C 0.53766 0.58800 0.05920
 C583 C 0.52374 0.56698 0.03718
 C584 C 0.53661 0.53793 0.03068
 C585 C 0.56304 0.52971 0.04756
 C586 C 0.57687 0.55060 0.06955
 H587 H 0.69756 0.64308 0.15565
 H588 H 0.66804 0.60762 0.11990
 H589 H 0.58872 0.65668 0.13698
 H590 H 0.61825 0.69144 0.17319
 H591 H 0.62315 0.59131 0.09092
 H592 H 0.56535 0.61956 0.10822
 H593 H 0.52759 0.61059 0.06336
 H594 H 0.50338 0.57399 0.02479
 H595 H 0.57297 0.50689 0.04401
 H596 H 0.59687 0.54302 0.08239
   
