data_POSCAR
  _audit_creation_date              2014-09-24
  _audit_creation_method            'ToBaCCo'
  _symmetry_space_group_name_H-M    'P1'
  _symmetry_Int_Tables_number       1
  _symmetry_cell_setting            triclinic
  loop_
  _symmetry_equiv_pos_as_xyz
 x,y,z
_cell_length_a 34.2192
_cell_length_b 33.4658
_cell_length_c 32.6489
_cell_angle_alpha 91.121800
_cell_angle_beta 91.034400
_cell_angle_gamma 88.720600
loop_
  _atom_site_label
  _atom_site_type_symbol
  _atom_site_fract_x
  _atom_site_fract_y
  _atom_site_fract_z
C1 C 0.20889 1.24328 0.17927
 N2 N 0.24162 1.22671 0.16240
 C3 C 0.25952 1.19400 0.17883
 N4 N 0.24435 1.17773 0.21268
 C5 C 0.21185 1.19396 0.23040
 N6 N 0.19430 1.22669 0.21334
 C7 C 0.81825 0.76750 0.20294
 N8 N 0.78183 0.77821 0.18909
 C9 C 0.76165 0.80918 0.20697
 N10 N 0.77828 0.82954 0.23899
 C11 C 0.81503 0.82003 0.25250
 N12 N 0.83472 0.78908 0.23417
 C13 C 0.79018 1.23554 -0.18741
 N14 N 0.80850 1.21842 -0.22017
 C15 C 0.79494 1.18439 -0.23835
 N16 N 0.76289 1.16722 -0.22281
 C17 C 0.74419 1.18404 -0.19022
 N18 N 0.75787 1.21822 -0.17272
 C19 C 0.16250 0.75826 -0.18471
 N20 N 0.14684 0.77939 -0.21632
 C21 C 0.16444 0.81232 -0.23034
 N22 N 0.19855 0.82398 -0.21229
 C23 C 0.21482 0.80324 -0.18063
 N24 N 0.19654 0.77053 -0.16695
 C25 C 0.54196 1.04187 -0.03282
 H26 H 0.52677 1.05681 -0.00794
 C27 C 0.56971 1.06247 -0.05458
 H28 H 0.57553 1.09309 -0.04568
 C29 C 0.55529 0.98274 -0.07154
 H30 H 0.55017 0.95132 -0.07724
 C31 C 0.58230 1.00246 -0.09491
 H32 H 0.59669 0.98597 -0.11937
 N33 N 0.53537 1.00269 -0.04158
 C34 C 0.47513 1.00329 0.06807
 H35 H 0.49481 0.98133 0.08150
 C36 C 0.45083 1.02650 0.09341
 H37 H 0.45287 1.02276 0.12625
 C38 C 0.44775 1.03403 0.00908
 H39 H 0.44626 1.03611 -0.02394
 C40 C 0.42276 1.05765 0.03324
 H41 H 0.40189 1.07766 0.01841
 Zn42 Zn 0.50180 0.97303 -0.00891
 N43 N 0.47307 1.00735 0.02670
 C44 C 0.56226 0.95548 0.04518
 N45 N 0.53420 0.93772 0.02166
 C46 C 0.53143 0.89723 0.01936
 C47 C 0.55742 0.87296 0.04193
 C48 C 0.58850 0.93250 0.06836
 C49 C 0.46149 0.95073 -0.08269
 C50 C 0.43114 0.93347 -0.10549
 C51 C 0.40715 0.90568 -0.04328
 C52 C 0.43812 0.92328 -0.02170
 N53 N 0.46446 0.94537 -0.04155
 H54 H 0.56424 0.98771 0.04578
 H55 H 0.50941 0.88370 -0.00022
 H56 H 0.55492 0.84078 0.03997
 H57 H 0.61090 0.94731 0.08650
 H58 H 0.48178 0.96948 -0.09783
 H59 H 0.42934 0.93816 -0.13819
 H60 H 0.38581 0.88935 -0.02661
 H61 H 0.44054 0.92036 0.01119
 C62 C 0.42377 1.05376 0.07603
 C63 C 0.59050 1.04281 -0.08622
 C64 C 0.40309 0.91104 -0.08574
 C65 C 0.58630 0.89067 0.06699
 C66 C -0.02463 0.55875 1.05510
 H67 H 0.00685 0.56080 1.05414
 C68 C -0.04652 0.58823 1.07568
 H69 H -0.03142 0.61299 1.09012
 C70 C -0.08225 0.52528 1.03464
 H71 H -0.09612 0.50118 1.01788
 C72 C -0.10529 0.55381 1.05542
 H73 H -0.13670 0.55060 1.05519
 N74 N -0.04268 0.52827 1.03485
 C75 C 0.04124 0.42983 1.01863
 H76 H 0.04012 0.42670 0.98559
 C77 C 0.06405 0.40325 1.04174
 H78 H 0.08016 0.37943 1.02617
 C79 C 0.02025 0.46396 1.07889
 H80 H 0.00290 0.48753 1.09318
 C81 C 0.04274 0.43798 1.10325
 H82 H 0.04289 0.44218 1.13621
 Zn83 Zn -0.01047 0.49340 1.00327
 N84 N 0.02017 0.45960 1.03737
 C85 C 0.06174 0.52155 0.97421
 N86 N 0.02214 0.52602 0.97257
 C87 C 0.00454 0.55637 0.95163
 C88 C 0.02692 0.58413 0.93173
 C89 C 0.08527 0.54841 0.95435
 C90 C -0.06264 0.43206 0.98561
 C91 C -0.08379 0.40518 0.96121
 C92 C -0.05991 0.43713 0.90113
 C93 C -0.03920 0.46343 0.92670
 N94 N -0.04094 0.46045 0.96812
 H95 H 0.07525 0.49765 0.99154
 H96 H -0.02699 0.55965 0.95149
 H97 H 0.01221 0.60886 0.91658
 H98 H 0.11672 0.54420 0.95589
 H99 H -0.06289 0.42989 1.01862
 H100 H -0.10011 0.38221 0.97577
 H101 H -0.05823 0.43998 0.86823
 H102 H -0.02131 0.48579 0.91339
 C103 C 0.06514 0.40718 1.08466
 C104 C -0.08752 0.58619 1.07593
 C105 C -0.08240 0.40733 0.91833
 C106 C 0.06794 0.58059 0.93315
 C107 C 1.07043 0.02059 0.56320
 H108 H 1.07091 0.05290 0.56299
 C109 C 1.09146 -0.00030 0.59340
 H110 H 1.10792 0.01628 0.61640
 C111 C 1.04599 -0.03990 0.53526
 H112 H 1.02697 -0.05539 0.51396
 C113 C 1.06689 -0.06191 0.56442
 H114 H 1.06480 -0.09415 0.56368
 N115 N 1.04835 0.00061 0.53478
 C116 C 1.02649 0.08523 0.43621
 H117 H 0.99502 0.08310 0.43408
 C118 C 1.04604 0.10858 0.40863
 H119 H 1.02930 0.12407 0.38513
 C120 C 1.08641 0.06553 0.46815
 H121 H 1.10203 0.04805 0.49086
 C122 C 1.10721 0.08866 0.44113
 H123 H 1.13876 0.08934 0.44391
 Zn124 Zn 1.01671 0.03088 0.49771
 N125 N 1.04675 0.06431 0.46520
 C126 C 0.98013 0.10205 0.52985
 N127 N 0.98141 0.06141 0.53008
 C128 C 0.95947 0.04073 0.55632
 C129 C 0.93553 0.06094 0.58438
 C130 C 0.95625 0.12350 0.55718
 C131 C 1.01003 -0.03161 0.44000
 C132 C 0.99136 -0.05784 0.41279
 C133 C 0.93072 -0.02175 0.42480
 C134 C 0.95027 0.00241 0.45359
 N135 N 0.98919 -0.00315 0.46086
 H136 H 0.99826 0.11795 0.50920
 H137 H 0.96156 0.00842 0.55623
 H138 H 0.91956 0.04376 0.60601
 H139 H 0.95562 0.15583 0.55649
 H140 H 1.04124 -0.03462 0.44535
 H141 H 1.00901 -0.08157 0.39932
 H142 H 0.90021 -0.01497 0.41880
 H143 H 0.93453 0.02631 0.46933
 C144 C 1.08700 0.11037 0.41064
 C145 C 1.08957 -0.04218 0.59449
 C146 C 0.95097 -0.05318 0.40413
 C147 C 0.93393 0.10295 0.58540
 C148 C 0.20440 0.29242 1.12471
 C149 C 0.18931 0.27570 1.16031
 C150 C 0.15346 0.29105 1.17537
 C151 C 0.13247 0.32109 1.15435
 C152 C 0.14766 0.33668 1.11819
 C153 C 0.18388 0.32260 1.10402
 C154 C 0.12605 0.36552 1.09628
 C155 C 0.08904 0.37878 1.10964
 C156 C 0.07453 0.36369 1.14615
 C157 C 0.09608 0.33518 1.16835
 H158 H 0.14116 0.27898 1.20276
 H159 H 0.19603 0.33439 1.07644
 H160 H 0.13792 0.37742 1.06860
 H161 H 0.08393 0.32359 1.19602
 H162 H 0.23195 0.28186 1.11222
 H163 H 0.04599 0.37310 1.15697
 C164 C -0.12436 0.72258 1.20148
 C165 C -0.16101 0.73494 1.18509
 C166 C -0.17624 0.71397 1.15065
 C167 C -0.15507 0.68188 1.13276
 C168 C -0.11856 0.66988 1.14982
 C169 C -0.10359 0.69029 1.18425
 C170 C -0.09731 0.63798 1.13192
 C171 C -0.11142 0.61834 1.09631
 C172 C -0.14787 0.63060 1.07959
 C173 C -0.16959 0.66183 1.09779
 H174 H -0.20426 0.72282 1.13725
 H175 H -0.07557 0.68153 1.19768
 H176 H -0.06969 0.62857 1.14579
 H177 H -0.19744 0.67073 1.08409
 H178 H -0.11155 0.73765 1.22797
 H179 H -0.15931 0.61669 1.05181
 C180 C -0.21220 0.28898 0.86759
 C181 C -0.19313 0.27102 0.83388
 C182 C -0.15696 0.28593 0.82206
 C183 C -0.13946 0.31722 0.84441
 C184 C -0.15848 0.33430 0.87881
 C185 C -0.19510 0.32036 0.88975
 C186 C -0.14023 0.36443 0.90218
 C187 C -0.10295 0.37756 0.89189
 C188 C -0.08468 0.36088 0.85709
 C189 C -0.10278 0.33106 0.83354
 H190 H -0.14182 0.27254 0.79616
 H191 H -0.21019 0.33322 0.91594
 H192 H -0.15490 0.37742 0.92858
 H193 H -0.08774 0.31829 0.80728
 H194 H -0.24013 0.27835 0.87734
 H195 H -0.05580 0.37007 0.84872
 C196 C 0.10844 0.71162 0.81040
 C197 C 0.14300 0.72493 0.83001
 C198 C 0.15692 0.70475 0.86510
 C199 C 0.13610 0.67301 0.88095
 C200 C 0.10134 0.66046 0.86111
 C201 C 0.08805 0.67964 0.82564
 C202 C 0.07998 0.62945 0.87749
 C203 C 0.09231 0.61124 0.91413
 C204 C 0.12722 0.62372 0.93338
 C205 C 0.14902 0.65412 0.91682
 H206 H 0.18340 0.71425 0.88085
 H207 H 0.06146 0.67034 0.81000
 H208 H 0.05354 0.61977 0.86183
 H209 H 0.17553 0.66342 0.93257
 H210 H 0.09680 0.72598 0.78321
 H211 H 0.13722 0.61078 0.96193
 C212 C 1.21237 0.14060 0.28078
 C213 C 1.19574 0.17612 0.26484
 C214 C 1.16206 0.19275 0.28349
 C215 C 1.14481 0.17375 0.31636
 C216 C 1.16125 0.13761 0.33112
 C217 C 1.19525 0.12155 0.31343
 C218 C 1.14296 0.11765 0.36273
 C219 C 1.10825 0.13328 0.37981
 C220 C 1.09284 0.16991 0.36565
 C221 C 1.11091 0.18994 0.33424
 H222 H 1.14875 0.22021 0.27220
 H223 H 1.20838 0.09395 0.32449
 H224 H 1.15500 0.08924 0.37294
 H225 H 1.09804 0.21781 0.32357
 H226 H 1.23834 0.12687 0.26763
 H227 H 1.06655 0.18302 0.37872
 C228 C 1.11032 -0.17677 0.72096
 C229 C 1.14690 -0.16562 0.73765
 C230 C 1.16497 -0.13173 0.72198
 C231 C 1.14678 -0.10952 0.69059
 C232 C 1.10994 -0.12098 0.67479
 C233 C 1.09204 -0.15461 0.69011
 C234 C 1.09146 -0.09867 0.64389
 C235 C 1.10948 -0.06521 0.62768
 C236 C 1.14628 -0.05410 0.64348
 C237 C 1.16470 -0.07598 0.67473
 H238 H 1.19315 -0.12248 0.73406
 H239 H 1.06381 -0.16384 0.67820
 H240 H 1.06272 -0.10718 0.63285
 H241 H 1.19304 -0.06678 0.68632
 H242 H 1.09533 -0.20253 0.73195
 H243 H 1.16109 -0.02878 0.63135
 C244 C 0.81122 -0.13095 0.30910
 C245 C 0.83326 -0.15682 0.28342
 C246 C 0.87429 -0.15786 0.28815
 C247 C 0.89293 -0.13244 0.31660
 C248 C 0.87052 -0.10773 0.34307
 C249 C 0.82962 -0.10749 0.33933
 C250 C 0.88934 -0.08308 0.37228
 C251 C 0.93057 -0.08046 0.37373
 C252 C 0.95215 -0.10417 0.34541
 C253 C 0.93367 -0.13049 0.31809
 H254 H 0.89203 -0.17684 0.26821
 H255 H 0.81187 -0.08841 0.35911
 H256 H 0.87136 -0.06619 0.39357
 H257 H 0.95131 -0.14855 0.29726
 H258 H 0.77963 -0.12937 0.30647
 H259 H 0.98349 -0.10248 0.34338
 C260 C 0.79989 0.13173 0.70865
 C261 C 0.81438 0.16658 0.72800
 C262 C 0.84904 0.18282 0.71326
 C263 C 0.86915 0.16418 0.68074
 C264 C 0.85433 0.12915 0.66200
 C265 C 0.81953 0.11339 0.67595
 C266 C 0.87488 0.11004 0.63007
 C267 C 0.91062 0.12498 0.61701
 C268 C 0.92485 0.16015 0.63570
 C269 C 0.90423 0.17966 0.66707
 H270 H 0.86094 0.20959 0.72743
 H271 H 0.80773 0.08654 0.66190
 H272 H 0.86311 0.08337 0.61561
 H273 H 0.91613 0.20643 0.68117
 H274 H 0.77330 0.11831 0.71877
 H275 H 0.95255 0.17207 0.62689
 C276 C 0.31192 1.19388 0.12609
 C277 C 0.29363 1.17480 0.15839
 C278 C 0.30701 1.13643 0.16968
 C279 C 0.33718 1.11685 0.14810
 C280 C 0.35478 1.13604 0.11520
 C281 C 0.34232 1.17476 0.10484
 C282 C 0.38391 1.11585 0.09263
 C283 C 0.39532 1.07637 0.10202
 C284 C 0.37799 1.05787 0.13529
 C285 C 0.34934 1.07797 0.15820
 H286 H 0.29322 1.12123 0.19443
 H287 H 0.35556 1.18998 0.07978
 H288 H 0.39738 1.13074 0.06749
 H289 H 0.33609 1.06275 0.18326
 H290 H 0.30243 1.22349 0.11684
 H291 H 0.38570 1.02733 0.14290
 C292 C 0.67954 1.18601 -0.15568
 C293 C 0.71100 1.16379 -0.17214
 C294 C 0.71153 1.12195 -0.16969
 C295 C 0.68145 1.10248 -0.15003
 C296 C 0.64956 1.12493 -0.13405
 C297 C 0.64872 1.16669 -0.13735
 C298 C 0.61945 1.10533 -0.11439
 C299 C 0.62146 1.06362 -0.10890
 C300 C 0.65393 1.04192 -0.12441
 C301 C 0.68323 1.06103 -0.14522
 H302 H 0.73608 1.10469 -0.18177
 H303 H 0.62462 1.18445 -0.12509
 H304 H 0.59461 1.12275 -0.10338
 H305 H 0.70776 1.04344 -0.15679
 H306 H 0.67871 1.21832 -0.15726
 H307 H 0.65734 1.01011 -0.11983
 C308 C 0.27021 0.79370 -0.13003
 C309 C 0.25150 0.81684 -0.16044
 C310 C 0.26770 0.85348 -0.17085
 C311 C 0.30159 0.86713 -0.15076
 C312 C 0.31994 0.84377 -0.12005
 C313 C 0.30416 0.80698 -0.11013
 C314 C 0.35347 0.85780 -0.09947
 C315 C 0.36876 0.89516 -0.10886
 C316 C 0.35029 0.91798 -0.13967
 C317 C 0.31715 0.90406 -0.16050
 H318 H 0.25368 0.87177 -0.19414
 H319 H 0.31785 0.78863 -0.08670
 H320 H 0.36761 0.83963 -0.07616
 H321 H 0.30337 0.92244 -0.18384
 H322 H 0.25856 0.76531 -0.12142
 H323 H 0.36091 0.94715 -0.14709
 C324 C 0.70239 0.85441 0.20900
 C325 C 0.72365 0.82332 0.18936
 C326 C 0.70998 0.80840 0.15121
 C327 C 0.67705 0.82597 0.13186
 C328 C 0.65708 0.85835 0.15122
 C329 C 0.66936 0.87165 0.19019
 C330 C 0.62614 0.87798 0.13064
 C331 C 0.61515 0.86618 0.09058
 C332 C 0.63402 0.83284 0.07225
 C333 C 0.66468 0.81285 0.09275
 H334 H 0.72592 0.78440 0.13565
 H335 H 0.65418 0.89626 0.20557
 H336 H 0.61133 0.90326 0.14532
 H337 H 0.67954 0.78798 0.07747
 H338 H 0.71190 0.86630 0.23853
 H339 H 0.62618 0.82329 0.04137
   
