data_POSCAR
  _audit_creation_date              2014-09-24
  _audit_creation_method            'ToBaCCo'
  _symmetry_space_group_name_H-M    'P1'
  _symmetry_Int_Tables_number       1
  _symmetry_cell_setting            triclinic
  loop_
  _symmetry_equiv_pos_as_xyz
 x,y,z
_cell_length_a 22.7045
_cell_length_b 22.7102
_cell_length_c 22.9298
_cell_angle_alpha 114.999900
_cell_angle_beta 64.942300
_cell_angle_gamma 59.106000
loop_
  _atom_site_label
  _atom_site_type_symbol
  _atom_site_fract_x
  _atom_site_fract_y
  _atom_site_fract_z
O1 O 0.47339 0.59278 0.11491
 O2 O 0.30776 0.62531 0.09786
 O3 O 0.40870 0.52599 0.11478
 O4 O 0.37265 0.69249 0.09781
 O5 O 0.54406 0.52232 -0.08876
 O6 O 0.58056 0.35474 -0.07211
 O7 O 0.47778 0.45554 -0.08865
 O8 O 0.64507 0.42034 -0.07187
 Cu9 Cu 0.37370 0.62609 0.12438
 Cu10 Cu 0.57891 0.42123 -0.09940
 C11 C 0.58780 0.50029 0.02434
 C12 C 0.36381 0.54555 0.00244
 C13 C 0.50119 0.41171 0.02411
 C14 C 0.45263 0.63639 0.00242
 O15 O -0.08043 0.65834 0.58458
 O16 O -0.11932 0.51791 0.57627
 O17 O -0.09562 0.60323 0.66189
 O18 O -0.10578 0.57469 0.49814
 O19 O 0.09224 0.39461 0.33828
 O20 O 0.10270 0.42399 0.50375
 O21 O 0.07893 0.33795 0.41533
 O22 O 0.11766 0.48006 0.42564
 Cu23 Cu -0.11851 0.60498 0.59440
 Cu24 Cu 0.11764 0.39124 0.40474
 C25 C 0.02433 0.59460 0.50815
 C26 C -0.02660 0.40385 0.49465
 C27 C 0.00463 0.51905 0.61155
 C28 C -0.00920 0.48031 0.39067
 O29 O 0.39820 0.09574 0.66200
 O30 O 0.42464 0.10509 0.49802
 O31 O 0.34307 0.07841 0.58475
 O32 O 0.48375 0.11769 0.57387
 O33 O 0.66372 -0.08050 0.41364
 O34 O 0.52184 -0.11963 0.42500
 O35 O 0.60529 -0.09260 0.33823
 O36 O 0.57638 -0.10246 0.50422
 Cu37 Cu 0.39594 0.11738 0.59377
 Cu38 Cu 0.60972 -0.11850 0.40428
 C39 C 0.48208 -0.00430 0.61209
 C40 C 0.51916 0.00865 0.39053
 C41 C 0.40725 -0.02644 0.50825
 C42 C 0.59787 0.02499 0.49231
 C43 C 0.57426 0.07913 -0.13316
 C44 C 0.55336 0.04232 -0.17245
 C45 C 0.51277 0.02904 -0.12281
 N46 N 0.50929 0.05562 -0.05524
 C47 C 0.54766 0.08542 -0.06204
 C48 C 0.47263 0.00043 -0.13509
 C49 C 0.44303 -0.02466 -0.09335
 C50 C 0.39179 -0.04072 -0.09333
 C51 C 0.38963 -0.07585 -0.05688
 C52 C 0.43990 -0.08046 -0.03600
 N53 N 0.47037 -0.04759 -0.05697
 C54 C 0.46486 -0.12289 -0.00684
 C55 C 0.50688 -0.11729 0.02328
 C56 C 0.54377 -0.17005 0.04023
 C57 C 0.56652 -0.13513 0.07817
 C58 C 0.54509 -0.06392 0.08133
 N59 N 0.50794 -0.05254 0.04845
 C60 C 0.54736 -0.00055 0.12585
 C61 C 0.53999 0.05933 0.11567
 C62 C 0.51531 0.14346 0.17805
 C63 C 0.51338 0.18197 0.14479
 C64 C 0.53717 0.12004 0.06291
 N65 N 0.55567 0.04377 0.04408
 C66 C 0.54574 0.13150 0.00492
 H67 H 0.60429 0.10012 -0.15393
 H68 H 0.56490 0.02893 -0.22965
 H69 H 0.58639 -0.02181 -0.02009
 H70 H 0.36206 -0.03124 -0.11965
 H71 H 0.35785 -0.09865 -0.04969
 H72 H 0.55136 -0.22611 0.02866
 H73 H 0.59385 -0.15809 0.10242
 H74 H 0.49590 0.24838 0.17754
 H75 H 0.51969 -0.05392 -0.05870
 H76 H 0.49880 0.17502 0.24193
 C77 C -0.03795 0.44437 0.82594
 C78 C -0.07581 0.42422 0.86557
 C79 C -0.08412 0.45235 0.93812
 N80 N -0.05463 0.49101 0.94555
 C81 C -0.02632 0.48629 0.87701
 C82 C -0.13158 0.45527 1.00564
 C83 C -0.12024 0.46359 1.06362
 C84 C -0.18296 0.48813 1.14598
 C85 C -0.14399 0.48540 1.17882
 C86 C -0.05878 0.45949 1.11568
 N87 N -0.04308 0.44390 1.04409
 C88 C 0.00181 0.45106 1.12524
 C89 C 0.06607 0.45254 1.08043
 C90 C 0.13724 0.43080 1.07755
 C91 C 0.17265 0.45344 1.03980
 C92 C 0.12037 0.49038 1.02253
 N93 N 0.05530 0.48964 1.04746
 C94 C 0.12662 0.53216 0.99234
 C95 C 0.08414 0.55757 0.96335
 C96 C 0.07927 0.60838 0.94309
 C97 C 0.04350 0.60715 0.90721
 C98 C 0.02748 0.55580 0.90680
 N99 N 0.05107 0.52744 0.94233
 C100 C 0.00185 0.52696 0.86543
 H101 H -0.02268 0.43137 0.76747
 H102 H -0.09591 0.39344 0.84392
 H103 H 0.05749 0.47783 0.94009
 H104 H -0.25017 0.50663 1.17932
 H105 H -0.17593 0.50218 1.24293
 H106 H 0.15972 0.40348 1.10200
 H107 H 0.22866 0.44578 1.02859
 H108 H 0.03359 0.63758 0.88153
 H109 H 0.02315 0.41249 0.97956
 H110 H 0.10219 0.64001 0.95043
 C111 C 0.16077 -0.12777 0.55135
 C112 C 0.12600 -0.16293 0.55085
 C113 C 0.09384 -0.15029 0.51268
 N114 N 0.10848 -0.10984 0.48938
 C115 C 0.14834 -0.09506 0.51352
 C116 C 0.05694 -0.18046 0.49447
 C117 C 0.01880 -0.15852 0.46147
 C118 C 0.01077 -0.21225 0.41592
 C119 C -0.04591 -0.15536 0.41092
 C120 C -0.07043 -0.06878 0.45288
 N121 N -0.02993 -0.07185 0.48280
 C122 C -0.14127 0.01928 0.47487
 C123 C -0.14085 0.08606 0.49075
 C124 C -0.21519 0.18029 0.52181
 C125 C -0.18086 0.21577 0.52270
 C126 C -0.08704 0.14176 0.49220
 N127 N -0.06200 0.06195 0.47147
 C128 C -0.02136 0.14328 0.47807
 C129 C 0.06624 0.07246 0.45651
 C130 C 0.15261 0.04822 0.41543
 C131 C 0.20963 -0.00945 0.41981
 C132 C 0.15618 -0.01834 0.46413
 N133 N 0.06952 0.03087 0.48535
 C134 C 0.17831 -0.05767 0.49627
 H135 H 0.19247 -0.12733 0.57566
 H136 H 0.12553 -0.19506 0.57468
 H137 H 0.00444 0.05156 0.53271
 H138 H 0.03933 -0.28264 0.39212
 H139 H -0.06931 -0.17363 0.38248
 H140 H -0.28597 0.21874 0.54108
 H141 H -0.21982 0.28711 0.54281
 H142 H 0.27995 -0.03813 0.39639
 H143 H -0.05131 -0.00649 0.53105
 H144 H 0.17075 0.07228 0.38785
 C145 C -0.22337 0.37224 0.94482
 C146 C -0.34524 0.48731 1.03040
 C147 C -0.40018 0.59060 1.11741
 C148 C -0.33191 0.57924 1.11409
 C149 C -0.20882 0.46459 1.02555
 C150 C -0.15592 0.36097 0.94325
 H151 H -0.17928 0.29130 0.87707
 H152 H -0.49365 0.68021 1.18367
 H153 H -0.37281 0.65987 1.17616
 H154 H -0.06042 0.27201 0.87337
 C155 C 0.17615 0.64701 1.10019
 C156 C 0.29977 0.55464 0.99874
 C157 C 0.35920 0.46652 0.89453
 C158 C 0.29929 0.46510 0.89219
 C159 C 0.17952 0.55141 0.99366
 C160 C 0.11725 0.64450 1.09741
 H161 H 0.12653 0.71717 1.18220
 H162 H 0.45343 0.39545 0.81474
 H163 H 0.34833 0.39268 0.81146
 H164 H 0.02554 0.71013 1.17612
 C165 C 0.14961 -0.41534 0.42946
 C166 C 0.03547 -0.34820 0.51446
 C167 C -0.06894 -0.22161 0.60412
 C168 C -0.06008 -0.16567 0.60290
 C169 C 0.05301 -0.23439 0.51275
 C170 C 0.15816 -0.35877 0.42842
 H171 H 0.23211 -0.51229 0.36087
 H172 H -0.15846 -0.16586 0.67260
 H173 H -0.14220 -0.06966 0.66811
 H174 H 0.24610 -0.41303 0.35813
 C175 C -0.12051 0.39775 0.59370
 C176 C -0.04104 0.34745 0.49397
 C177 C 0.03127 0.23812 0.39243
 C178 C 0.02817 0.17711 0.38969
 C179 C -0.04410 0.22276 0.48745
 C180 C -0.12075 0.33490 0.59008
 H181 H -0.17609 0.48140 0.67259
 H182 H 0.09252 0.19841 0.31482
 H183 H 0.08773 0.09060 0.31006
 H184 H -0.17528 0.37005 0.66571
 C185 C 0.55932 -0.11390 -0.37405
 C186 C 0.47096 -0.00483 -0.32302
 C187 C 0.37345 0.10522 -0.20527
 C188 C 0.37007 0.10607 -0.14276
 C189 C 0.46167 -0.00241 -0.19520
 C190 C 0.55456 -0.11258 -0.31049
 H191 H 0.63408 -0.20022 -0.46365
 H192 H 0.30309 0.19130 -0.16218
 H193 H 0.30045 0.19134 -0.05499
 H194 H 0.62687 -0.19722 -0.35248
 C195 C 0.63923 -0.07042 0.21634
 C196 C 0.52689 0.01483 0.32666
 C197 C 0.42087 0.10462 0.37493
 C198 C 0.42752 0.10445 0.31151
 C199 C 0.53993 0.01640 0.19986
 C200 C 0.64539 -0.06825 0.15401
 H201 H 0.72212 -0.13968 0.17782
 H202 H 0.33332 0.17096 0.45957
 H203 H 0.34559 0.16911 0.34727
 H204 H 0.73262 -0.13604 0.06827
 C205 C 0.52883 -0.35428 -0.10496
 C206 C 0.44183 -0.29554 -0.00103
 C207 C 0.35102 -0.17317 0.10063
 C208 C 0.35307 -0.11390 0.09826
 C209 C 0.44503 -0.17531 -0.00544
 C210 C 0.53032 -0.29433 -0.10707
 H211 H 0.59917 -0.44814 -0.18454
 H212 H 0.28274 -0.12527 0.18208
 H213 H 0.28856 -0.02302 0.17699
 H214 H 0.60225 -0.34293 -0.18777
 C215 C 0.41113 0.39979 0.11746
 C216 C 0.51448 0.34471 0.03013
 C217 C 0.62963 0.22265 -0.05601
 C218 C 0.64084 0.15513 -0.05781
 C219 C 0.53702 0.20830 0.02488
 C220 C 0.42238 0.33155 0.11399
 H221 H 0.32146 0.49336 0.18401
 H222 H 0.71060 0.17845 -0.12409
 H223 H 0.72977 0.05946 -0.12822
 H224 H 0.34163 0.37259 0.17628
 C225 C -0.39573 0.11840 0.59082
 C226 C -0.34578 0.03952 0.49131
 C227 C -0.23671 -0.03234 0.38977
 C228 C -0.17563 -0.02924 0.38688
 C229 C -0.22100 0.04252 0.48445
 C230 C -0.33285 0.11866 0.58705
 H231 H -0.47895 0.17327 0.66955
 H232 H -0.19718 -0.09334 0.31228
 H233 H -0.08918 -0.08861 0.30721
 H234 H -0.36751 0.17246 0.66238
 C235 C 0.41445 -0.15208 0.42959
 C236 C 0.34695 -0.03830 0.51565
 C237 C 0.22040 0.06610 0.60620
 C238 C 0.16399 0.05778 0.60536
 C239 C 0.23271 -0.05489 0.51437
 C240 C 0.35760 -0.16027 0.42877
 H241 H 0.51170 -0.23416 0.36013
 H242 H 0.16539 0.15502 0.67476
 H243 H 0.06770 0.14006 0.67129
 H244 H 0.41189 -0.24781 0.35762
 C245 C 0.06771 0.36070 1.21800
 C246 C -0.01543 0.47259 1.32698
 C247 C -0.10267 0.57817 1.37384
 C248 C -0.10212 0.57136 1.31024
 C249 C -0.01621 0.45932 1.19989
 C250 C 0.06589 0.35448 1.15550
 H251 H 0.13511 0.27823 1.18065
 H252 H -0.16686 0.66517 1.45720
 H253 H -0.16436 0.65258 1.34452
 H254 H 0.13218 0.26752 1.07064
 C255 C 0.11397 0.44659 0.62996
 C256 C 0.00503 0.53140 0.68002
 C257 C -0.10503 0.62484 0.79603
 C258 C -0.10574 0.62821 0.85840
 C259 C 0.00303 0.53984 0.80695
 C260 C 0.11293 0.45084 0.69318
 H261 H 0.19989 0.37462 0.54117
 H262 H -0.19052 0.69149 0.83722
 H263 H -0.19052 0.69442 0.94468
 H264 H 0.19785 0.38073 0.65179
   
