data_POSCAR
  _audit_creation_date              2014-09-24
  _audit_creation_method            'ToBaCCo'
  _symmetry_space_group_name_H-M    'P1'
  _symmetry_Int_Tables_number       1
  _symmetry_cell_setting            triclinic
  loop_
  _symmetry_equiv_pos_as_xyz
 x,y,z
_cell_length_a 50.1829
_cell_length_b 50.1472
_cell_length_c 18.5760
_cell_angle_alpha 89.965500
_cell_angle_beta 90.017200
_cell_angle_gamma 119.970600
loop_
  _atom_site_label
  _atom_site_type_symbol
  _atom_site_fract_x
  _atom_site_fract_y
  _atom_site_fract_z
O1 O 0.20031 0.45256 0.43157
 O2 O 0.25271 0.45261 0.57061
 O3 O 0.20065 0.45267 0.57128
 O4 O 0.25240 0.45264 0.43090
 O5 O 0.27771 0.50341 0.43080
 O6 O 0.22602 0.50344 0.57115
 O7 O 0.27803 0.50333 0.57046
 O8 O 0.22565 0.50332 0.43148
 Cu9 Cu 0.22398 0.44754 0.50113
 Cu10 Cu 0.25439 0.50845 0.50099
 C11 C 0.20382 0.47794 0.40821
 C12 C 0.27463 0.47797 0.59387
 C13 C 0.20426 0.47807 0.59468
 C14 C 0.27412 0.47803 0.40731
 O15 O 0.54741 -0.25326 0.43004
 O16 O 0.54747 -0.20098 0.56937
 O17 O 0.54729 -0.25318 0.56975
 O18 O 0.54737 -0.20118 0.42965
 O19 O 0.49664 -0.22655 0.42963
 O20 O 0.49661 -0.27844 0.56972
 O21 O 0.49674 -0.22629 0.56930
 O22 O 0.49673 -0.27857 0.43005
 Cu23 Cu 0.55246 -0.22462 0.49972
 Cu24 Cu 0.49161 -0.25499 0.49969
 C25 C 0.52207 -0.27513 0.40660
 C26 C 0.52211 -0.20447 0.59265
 C27 C 0.52192 -0.27500 0.59328
 C28 C 0.52200 -0.20477 0.40618
 O29 O 1.20055 0.74800 0.56785
 O30 O 1.25298 0.80030 0.42882
 O31 O 1.20090 0.74824 0.42814
 O32 O 1.25269 0.79997 0.56853
 O33 O 1.27795 0.77445 0.56861
 O34 O 1.22622 0.72279 0.42825
 O35 O 1.27825 0.77485 0.42894
 O36 O 1.22584 0.72251 0.56792
 Cu37 Cu 1.22425 0.77668 0.49831
 Cu38 Cu 1.25459 0.74610 0.49843
 C39 C 1.20402 0.72610 0.59119
 C40 C 1.27487 0.79681 0.40552
 C41 C 1.20448 0.72644 0.40472
 C42 C 1.27440 0.79626 0.59208
 O43 O 0.79945 0.54769 0.43160
 O44 O 0.74688 0.54756 0.57020
 O45 O 0.79895 0.54753 0.57131
 O46 O 0.74736 0.54759 0.43050
 O47 O 0.72206 0.49682 0.43042
 O48 O 0.77360 0.49676 0.57120
 O49 O 0.72158 0.49684 0.57008
 O50 O 0.77412 0.49692 0.43153
 Cu51 Cu 0.77570 0.55267 0.50094
 Cu52 Cu 0.74531 0.49176 0.50082
 C53 C 0.79598 0.52232 0.40832
 C54 C 0.72495 0.52219 0.59341
 C55 C 0.79533 0.52212 0.59479
 C56 C 0.72567 0.52221 0.40685
 O57 O 0.45257 0.25208 0.43180
 O58 O 0.45267 0.19962 0.57063
 O59 O 0.45268 0.25175 0.57151
 O60 O 0.45266 0.20004 0.43092
 O61 O 0.50339 0.22545 0.43084
 O62 O 0.50341 0.27711 0.57140
 O63 O 0.50336 0.22499 0.57051
 O64 O 0.50330 0.27747 0.43173
 Cu65 Cu 0.44757 0.22333 0.50125
 Cu66 Cu 0.50844 0.25379 0.50113
 C67 C 0.47792 0.27396 0.40849
 C68 C 0.47803 0.20304 0.59389
 C69 C 0.47806 0.27351 0.59496
 C70 C 0.47804 0.20370 0.40732
 O71 O 0.74787 0.20041 0.43221
 O72 O 0.80031 0.25297 0.57081
 O73 O 0.74826 0.20089 0.57192
 O74 O 0.79984 0.25254 0.43111
 O75 O 0.77440 0.27788 0.43104
 O76 O 0.72287 0.22628 0.57182
 O77 O 0.77492 0.27831 0.57070
 O78 O 0.72246 0.22577 0.43215
 Cu79 Cu 0.77661 0.22416 0.50154
 Cu80 Cu 0.74612 0.25459 0.50143
 C81 C 0.72598 0.20389 0.40895
 C82 C 0.79688 0.27492 0.59405
 C83 C 0.72651 0.20452 0.59542
 C84 C 0.79615 0.27427 0.40749
 N85 N 0.96757 0.53136 0.07749
 N86 N 0.94538 0.53770 0.08970
 N87 N 1.03229 0.54504 0.12687
 N88 N 1.05460 0.56029 0.17371
 N89 N 1.03231 0.56367 0.07709
 N90 N 1.05466 0.59216 0.08871
 N91 N 0.96763 0.51275 0.12719
 N92 N 0.94554 0.50590 0.17454
 C93 C 0.93180 0.52144 0.15008
 C94 C 1.06838 0.58950 0.14881
 N95 N 1.03225 0.46896 0.07736
 N96 N 1.05445 0.46262 0.08948
 N97 N 0.96760 0.45532 0.12717
 N98 N 0.94537 0.44010 0.17424
 N99 N 0.96751 0.43666 0.07745
 N100 N 0.94519 0.40818 0.08932
 N101 N 1.03225 0.48761 0.12701
 N102 N 1.05440 0.49448 0.17422
 Mn103 Mn 0.99995 0.50018 0.12778
 C104 C 1.06810 0.47891 0.14972
 C105 C 0.93157 0.41087 0.14952
 N106 N 1.03223 0.56365 -0.07818
 N107 N 1.05447 0.59215 -0.09037
 N108 N 0.96747 0.51268 -0.12752
 N109 N 0.94514 0.50563 -0.17432
 N110 N 0.96749 0.53130 -0.07779
 N111 N 0.94514 0.53745 -0.08937
 N112 N 1.03214 0.54496 -0.12783
 N113 N 1.05426 0.56018 -0.17514
 Mn114 Mn 0.99990 0.54781 -0.00035
 C115 C 1.06805 0.58945 -0.15069
 C116 C 0.93139 0.52108 -0.14942
 N117 N 0.96738 0.43657 -0.07784
 N118 N 0.94517 0.40804 -0.08994
 N119 N 1.03207 0.48751 -0.12770
 N120 N 1.05435 0.49454 -0.17464
 N121 N 1.03212 0.46892 -0.07791
 N122 N 1.05446 0.46277 -0.08961
 N123 N 0.96741 0.45523 -0.12755
 N124 N 0.94527 0.43997 -0.17479
 Mn125 Mn 0.99981 0.45246 -0.00024
 Mn126 Mn 0.99977 0.50010 -0.12838
 Cl127 Cl 0.99986 0.50014 -0.00030
 C128 C 0.93154 0.41071 -0.15024
 C129 C 1.06813 0.47910 -0.14978
 N130 N 0.46878 0.43657 0.07731
 N131 N 0.46247 0.40805 0.08963
 N132 N 0.45505 0.48762 0.12669
 N133 N 0.43982 0.49462 0.17374
 N134 N 0.43640 0.46900 0.07705
 N135 N 0.40792 0.46279 0.08897
 N136 N 0.48741 0.45527 0.12687
 N137 N 0.49431 0.44004 0.17425
 C138 C 0.47877 0.41075 0.14993
 C139 C 0.41060 0.47914 0.14910
 N140 N 0.53094 0.56365 0.07665
 N141 N 0.53726 0.59220 0.08876
 N142 N 0.54473 0.51267 0.12647
 N143 N 0.56001 0.50570 0.17349
 N144 N 0.56332 0.53124 0.07664
 N145 N 0.59182 0.53744 0.08840
 N146 N 0.51237 0.54502 0.12642
 N147 N 0.50554 0.56030 0.17371
 Mn148 Mn 0.49989 0.50015 0.12733
 C149 C 0.52103 0.58956 0.14913
 C150 C 0.58920 0.52114 0.14863
 N151 N 0.43629 0.46889 -0.07824
 N152 N 0.40778 0.46262 -0.09027
 N153 N 0.48725 0.45509 -0.12780
 N154 N 0.49431 0.43981 -0.17459
 N155 N 0.46870 0.43651 -0.07796
 N156 N 0.46260 0.40801 -0.08944
 N157 N 0.45490 0.48746 -0.12803
 N158 N 0.43963 0.49435 -0.17528
 Mn159 Mn 0.45223 0.45243 -0.00046
 C160 C 0.41040 0.47887 -0.15064
 C161 C 0.47893 0.41061 -0.14956
 N162 N 0.56328 0.53114 -0.07864
 N163 N 0.59179 0.53745 -0.09085
 N164 N 0.51226 0.54485 -0.12830
 N165 N 0.50526 0.56008 -0.17544
 N166 N 0.53086 0.56351 -0.07866
 N167 N 0.53705 0.59202 -0.09066
 N168 N 0.54461 0.51248 -0.12822
 N169 N 0.55985 0.50558 -0.17548
 Mn170 Mn 0.54742 0.54771 -0.00100
 Mn171 Mn 0.49976 0.49997 -0.12882
 Cl172 Cl 0.49982 0.50006 -0.00074
 C173 C 0.58911 0.52113 -0.15108
 C174 C 0.52072 0.58933 -0.15084
 N175 N 0.43658 -0.03263 0.07742
 N176 N 0.40805 -0.05485 0.08939
 N177 N 0.48748 0.03205 0.12747
 N178 N 0.49445 0.05428 0.17451
 N179 N 0.46897 0.03216 0.07763
 N180 N 0.46280 0.05450 0.08939
 N181 N 0.45516 -0.03265 0.12720
 N182 N 0.43986 -0.05484 0.17437
 C183 C 0.41064 -0.06854 0.14969
 C184 C 0.47907 0.06811 0.14966
 N185 N 0.56356 0.03214 0.07829
 N186 N 0.59205 0.05436 0.09062
 N187 N 0.51253 -0.03267 0.12746
 N188 N 0.50549 -0.05498 0.17438
 N189 N 0.53117 -0.03265 0.07782
 N190 N 0.53736 -0.05498 0.08960
 N191 N 0.54485 0.03204 0.12788
 N192 N 0.56004 0.05414 0.17526
 Mn193 Mn 0.50001 -0.00031 0.12823
 C194 C 0.58931 0.06791 0.15094
 C195 C 0.52097 -0.06873 0.14965
 N196 N 0.46915 0.03237 -0.07766
 N197 N 0.46282 0.05459 -0.08986
 N198 N 0.45547 -0.03233 -0.12751
 N199 N 0.44028 -0.05453 -0.17466
 N200 N 0.43680 -0.03242 -0.07786
 N201 N 0.40832 -0.05471 -0.08988
 N202 N 0.48781 0.03237 -0.12724
 N203 N 0.49470 0.05455 -0.17449
 Mn204 Mn 0.45255 -0.00013 -0.00012
 C205 C 0.47914 0.06826 -0.15008
 C206 C 0.41104 -0.06832 -0.15007
 N207 N 0.53136 -0.03250 -0.07745
 N208 N 0.53761 -0.05478 -0.08949
 N209 N 0.54516 0.03232 -0.12683
 N210 N 0.56045 0.05468 -0.17359
 N211 N 0.56371 0.03229 -0.07698
 N212 N 0.59219 0.05466 -0.08845
 N213 N 0.51282 -0.03239 -0.12723
 N214 N 0.50593 -0.05454 -0.17448
 Mn215 Mn 0.54777 -0.00018 0.00042
 Mn216 Mn 0.50032 -0.00001 -0.12793
 Cl217 Cl 0.50016 -0.00016 0.00015
 C218 C 0.52138 -0.06835 -0.14986
 C219 C 0.58962 0.06843 -0.14855
 C220 C 1.13747 0.47799 0.26215
 C221 C 1.13471 0.45011 0.28487
 C222 C 1.15674 0.45005 0.33091
 C223 C 1.18181 0.47794 0.35503
 C224 C 1.18476 0.50585 0.33046
 C225 C 1.16270 0.50584 0.28442
 C226 C 1.11348 0.47808 0.21977
 C227 C 1.09297 0.47834 0.18652
 H228 H 1.11520 0.42842 0.26823
 H229 H 1.15378 0.42817 0.34881
 H230 H 1.20375 0.52771 0.34799
 H231 H 1.16500 0.52756 0.26743
 C232 C 0.52198 0.65976 0.26208
 C233 C 0.54983 0.68484 0.28473
 C234 C 0.54992 0.70685 0.33111
 C235 C 0.52205 0.70400 0.35596
 C236 C 0.49414 0.67904 0.33107
 C237 C 0.49417 0.65710 0.28469
 C238 C 0.52189 0.63574 0.21944
 C239 C 0.52162 0.61500 0.18602
 H240 H 0.57150 0.68706 0.26773
 H241 H 0.57189 0.72569 0.34863
 H242 H 0.47220 0.67599 0.34855
 H243 H 0.47247 0.63771 0.26767
 C244 C 0.34029 -0.13795 0.26188
 C245 C 0.31517 -0.13517 0.28429
 C246 C 0.29306 -0.15716 0.33035
 C247 C 0.29583 -0.18228 0.35512
 C248 C 0.32082 -0.18523 0.33045
 C249 C 0.34286 -0.16318 0.28439
 C250 C 0.36439 -0.11396 0.21957
 C251 C 0.38518 -0.09343 0.18639
 H252 H 0.31300 -0.11566 0.26736
 H253 H 0.27420 -0.15403 0.34771
 H254 H 0.32382 -0.20418 0.34787
 H255 H 0.36228 -0.16550 0.26754
 C256 C 0.86245 0.52232 0.26263
 C257 C 0.86520 0.55020 0.28532
 C258 C 0.84314 0.55024 0.33126
 C259 C 0.81805 0.52234 0.35530
 C260 C 0.81512 0.49444 0.33079
 C261 C 0.83720 0.49447 0.28486
 C262 C 0.88645 0.52225 0.22026
 C263 C 0.90695 0.52200 0.18697
 H264 H 0.88473 0.57190 0.26872
 H265 H 0.84610 0.57211 0.34913
 H266 H 0.79611 0.47257 0.34827
 H267 H 0.83491 0.47275 0.26788
 C268 C 0.47793 0.34049 0.26267
 C269 C 0.50577 0.34306 0.28493
 C270 C 0.50579 0.32098 0.33090
 C271 C 0.47791 0.29603 0.35542
 C272 C 0.45003 0.29326 0.33135
 C273 C 0.45008 0.31538 0.28538
 C274 C 0.47801 0.36458 0.22026
 C275 C 0.47824 0.38534 0.18691
 H276 H 0.52747 0.36248 0.26795
 H277 H 0.52764 0.32381 0.34840
 H278 H 0.42817 0.27436 0.34922
 H279 H 0.42839 0.31323 0.26874
 C280 C 0.65947 0.13733 0.26349
 C281 C 0.65686 0.16259 0.28575
 C282 C 0.67893 0.18471 0.33160
 C283 C 0.70392 0.18180 0.35600
 C284 C 0.70673 0.15670 0.33194
 C285 C 0.68461 0.13461 0.28608
 C286 C 0.63540 0.11332 0.22117
 C287 C 0.61468 0.09280 0.18788
 H288 H 0.63742 0.16487 0.26885
 H289 H 0.67607 0.20372 0.34909
 H290 H 0.72565 0.15376 0.34972
 H291 H 0.68679 0.11508 0.26945
 C292 C 0.47820 0.13767 -0.26262
 C293 C 0.50600 0.16289 -0.28511
 C294 C 0.50600 0.18496 -0.33114
 C295 C 0.47808 0.18208 -0.35579
 C296 C 0.45022 0.15698 -0.33105
 C297 C 0.45034 0.13496 -0.28502
 C298 C 0.47832 0.11367 -0.22024
 C299 C 0.47858 0.09315 -0.18696
 H300 H 0.52771 0.16516 -0.26826
 H301 H 0.52793 0.20390 -0.34854
 H302 H 0.42824 0.15390 -0.34839
 H303 H 0.42868 0.11548 -0.26810
 C304 C 0.65939 0.52202 -0.26345
 C305 C 0.65681 0.49420 -0.28590
 C306 C 0.67889 0.49420 -0.33180
 C307 C 0.70393 0.52214 -0.35638
 C308 C 0.70669 0.55002 -0.33170
 C309 C 0.68454 0.54990 -0.28579
 C310 C 0.63529 0.52191 -0.22116
 C311 C 0.61452 0.52166 -0.18793
 H312 H 0.63738 0.47247 -0.26909
 H313 H 0.67589 0.47225 -0.34916
 H314 H 0.72558 0.57201 -0.34898
 H315 H 0.68672 0.57158 -0.26890
 C316 C 0.86219 0.34041 -0.26262
 C317 C 0.83698 0.34302 -0.28509
 C318 C 0.81493 0.32096 -0.33107
 C319 C 0.81782 0.29591 -0.35569
 C320 C 0.84292 0.29313 -0.33099
 C321 C 0.86492 0.31525 -0.28500
 C322 C 0.88617 0.36451 -0.22029
 C323 C 0.90667 0.38528 -0.18705
 H324 H 0.83469 0.36246 -0.26826
 H325 H 0.79599 0.32398 -0.34845
 H326 H 0.84602 0.27423 -0.34831
 H327 H 0.88440 0.31306 -0.26810
 C328 C 0.52211 -0.13794 -0.26178
 C329 C 0.54996 -0.13526 -0.28426
 C330 C 0.55000 -0.15737 -0.33009
 C331 C 0.52212 -0.18243 -0.35424
 C332 C 0.49424 -0.18531 -0.32990
 C333 C 0.49427 -0.16318 -0.28407
 C334 C 0.52206 -0.11388 -0.21964
 C335 C 0.52185 -0.09330 -0.18654
 H336 H 0.57165 -0.11575 -0.26760
 H337 H 0.57185 -0.15445 -0.34783
 H338 H 0.47239 -0.20429 -0.34747
 H339 H 0.47257 -0.16541 -0.26726
 C340 C 0.34008 0.47805 -0.26275
 C341 C 0.34268 0.50588 -0.28522
 C342 C 0.32063 0.50591 -0.33118
 C343 C 0.29559 0.47799 -0.35579
 C344 C 0.29281 0.45009 -0.33106
 C345 C 0.31493 0.45019 -0.28509
 C346 C 0.36419 0.47813 -0.22051
 C347 C 0.38497 0.47836 -0.18736
 H348 H 0.36213 0.52760 -0.26841
 H349 H 0.32364 0.52788 -0.34857
 H350 H 0.27391 0.42811 -0.34837
 H351 H 0.31274 0.42850 -0.26819
 C352 C 1.13752 0.65966 -0.26306
 C353 C 1.13483 0.68483 -0.28569
 C354 C 1.15691 0.70694 -0.33162
 C355 C 1.18196 0.70407 -0.35571
 C356 C 1.18485 0.67906 -0.33124
 C357 C 1.16274 0.65700 -0.28531
 C358 C 1.11349 0.63559 -0.22076
 C359 C 1.09295 0.61484 -0.18753
 H360 H 1.11534 0.68705 -0.26905
 H361 H 1.15400 0.72588 -0.34945
 H362 H 1.20382 0.67616 -0.34876
 H363 H 1.16498 0.63753 -0.26839
 C364 C 0.86156 0.52185 -0.25957
 C365 C 0.86432 0.54978 -0.28190
 C366 C 0.84225 0.54991 -0.32761
 C367 C 0.81717 0.52205 -0.35175
 C368 C 0.81416 0.49410 -0.32736
 C369 C 0.83625 0.49403 -0.28165
 C370 C 0.88567 0.52170 -0.21804
 C371 C 0.90633 0.52147 -0.18551
 H372 H 0.88390 0.57144 -0.26535
 H373 H 0.84525 0.57181 -0.34541
 H374 H 0.79514 0.47226 -0.34493
 H375 H 0.83397 0.47229 -0.26491
 C376 C 0.47825 0.34001 -0.25955
 C377 C 0.50606 0.34252 -0.28166
 C378 C 0.50603 0.32036 -0.32732
 C379 C 0.47810 0.29542 -0.35164
 C380 C 0.45025 0.29266 -0.32749
 C381 C 0.45036 0.31486 -0.28183
 C382 C 0.47837 0.36428 -0.21807
 C383 C 0.47857 0.38516 -0.18559
 H384 H 0.52779 0.36198 -0.26496
 H385 H 0.52785 0.32316 -0.34490
 H386 H 0.42838 0.27376 -0.34524
 H387 H 0.42870 0.31278 -0.26526
 C388 C 0.66016 0.13830 -0.25870
 C389 C 0.65764 0.16362 -0.28082
 C390 C 0.67975 0.18571 -0.32661
 C391 C 0.70465 0.18268 -0.35106
 C392 C 0.70743 0.15758 -0.32689
 C393 C 0.68528 0.13551 -0.28109
 C394 C 0.63593 0.11417 -0.21713
 C395 C 0.61507 0.09351 -0.18459
 H396 H 0.63821 0.16592 -0.26404
 H397 H 0.67693 0.20475 -0.34421
 H398 H 0.72630 0.15456 -0.34472
 H399 H 0.68737 0.11591 -0.26452
 C400 C 1.13792 0.47833 -0.26007
 C401 C 1.13516 0.45041 -0.28235
 C402 C 1.15725 0.45027 -0.32795
 C403 C 1.18236 0.47813 -0.35203
 C404 C 1.18537 0.50609 -0.32772
 C405 C 1.16325 0.50615 -0.28213
 C406 C 1.11381 0.47848 -0.21855
 C407 C 1.09317 0.47870 -0.18598
 H408 H 1.11556 0.42874 -0.26581
 H409 H 1.15425 0.42838 -0.34568
 H410 H 1.20441 0.52792 -0.34526
 H411 H 1.16553 0.52789 -0.26543
 C412 C 0.52163 0.65972 -0.26257
 C413 C 0.54952 0.68481 -0.28499
 C414 C 0.54969 0.70692 -0.33115
 C415 C 0.52185 0.70416 -0.35598
 C416 C 0.49390 0.67922 -0.33116
 C417 C 0.49385 0.65718 -0.28500
 C418 C 0.52146 0.63556 -0.22046
 C419 C 0.52119 0.61474 -0.18745
 H420 H 0.57116 0.68692 -0.26807
 H421 H 0.57168 0.72574 -0.34862
 H422 H 0.47198 0.67625 -0.34861
 H423 H 0.47212 0.63778 -0.26809
 C424 C 0.34071 -0.13775 -0.26163
 C425 C 0.31569 -0.13483 -0.28427
 C426 C 0.29358 -0.15679 -0.33028
 C427 C 0.29629 -0.18193 -0.35441
 C428 C 0.32110 -0.18508 -0.32978
 C429 C 0.34317 -0.16309 -0.28378
 C430 C 0.36487 -0.11377 -0.21963
 C431 C 0.38567 -0.09324 -0.18667
 H432 H 0.31365 -0.11522 -0.26768
 H433 H 0.27477 -0.15368 -0.34824
 H434 H 0.32387 -0.20414 -0.34734
 H435 H 0.36253 -0.16549 -0.26681
 C436 C 0.52180 -0.13845 0.26045
 C437 C 0.49400 -0.16380 0.28246
 C438 C 0.49404 -0.18590 0.32826
 C439 C 0.52197 -0.18285 0.35281
 C440 C 0.54981 -0.15771 0.32880
 C441 C 0.54970 -0.13564 0.28300
 C442 C 0.52165 -0.11437 0.21870
 C443 C 0.52141 -0.09374 0.18597
 H444 H 0.47227 -0.16612 0.26556
 H445 H 0.47222 -0.20496 0.34573
 H446 H 0.57169 -0.15469 0.34672
 H447 H 0.57135 -0.11603 0.26650
 C448 C 0.34028 0.47825 0.26069
 C449 C 0.31527 0.45033 0.28344
 C450 C 0.29320 0.45021 0.32956
 C451 C 0.29596 0.47808 0.35371
 C452 C 0.32076 0.50602 0.32898
 C453 C 0.34278 0.50607 0.28286
 C454 C 0.36440 0.47840 0.21861
 C455 C 0.38520 0.47867 0.18563
 H456 H 0.31320 0.42866 0.26684
 H457 H 0.27441 0.42832 0.34761
 H458 H 0.32355 0.52786 0.34654
 H459 H 0.36213 0.52782 0.26581
 C460 C 1.13818 0.66000 0.25916
 C461 C 1.16348 0.65746 0.28125
 C462 C 1.18558 0.67959 0.32695
 C463 C 1.18259 0.70453 0.35135
 C464 C 1.15751 0.70733 0.32724
 C465 C 1.13543 0.68516 0.28153
 C466 C 1.11407 0.63578 0.21757
 C467 C 1.09343 0.61493 0.18497
 H468 H 1.16575 0.63799 0.26448
 H469 H 1.20460 0.67675 0.34450
 H470 H 1.15453 0.72624 0.34504
 H471 H 1.11586 0.68727 0.26498
 C472 C 0.47823 0.13769 0.26082
 C473 C 0.50604 0.16298 0.28298
 C474 C 0.50600 0.18499 0.32903
 C475 C 0.47808 0.18190 0.35371
 C476 C 0.45023 0.15682 0.32954
 C477 C 0.45034 0.13484 0.28348
 C478 C 0.47837 0.11367 0.21888
 C479 C 0.47862 0.09309 0.18604
 H480 H 0.52777 0.16533 0.26599
 H481 H 0.52783 0.20401 0.34661
 H482 H 0.42835 0.15376 0.34754
 H483 H 0.42868 0.11526 0.26689
 C484 C 0.65959 0.52203 0.25997
 C485 C 0.65710 0.49420 0.28214
 C486 C 0.67911 0.49424 0.32832
 C487 C 0.70388 0.52218 0.35311
 C488 C 0.70663 0.55005 0.32894
 C489 C 0.68458 0.54994 0.28275
 C490 C 0.63545 0.52188 0.21794
 C491 C 0.61463 0.52162 0.18504
 H492 H 0.63776 0.47246 0.26506
 H493 H 0.67631 0.47240 0.34590
 H494 H 0.72541 0.57194 0.34703
 H495 H 0.68664 0.57161 0.26616
 C496 C 0.86207 0.34049 0.26088
 C497 C 0.86494 0.31543 0.28353
 C498 C 0.84299 0.29333 0.32962
 C499 C 0.81792 0.29611 0.35382
 C500 C 0.81480 0.32095 0.32916
 C501 C 0.83678 0.34301 0.28308
 C502 C 0.88606 0.36465 0.21890
 C503 C 0.90662 0.38547 0.18600
 H504 H 0.88452 0.31334 0.26690
 H505 H 0.84607 0.27450 0.34761
 H506 H 0.79579 0.32377 0.34678
 H507 H 0.83442 0.36240 0.26610
   
