data_POSCAR
  _audit_creation_date              2014-09-24
  _audit_creation_method            'ToBaCCo'
  _symmetry_space_group_name_H-M    'P1'
  _symmetry_Int_Tables_number       1
  _symmetry_cell_setting            triclinic
  loop_
  _symmetry_equiv_pos_as_xyz
 x,y,z
_cell_length_a 20.7168
_cell_length_b 20.7206
_cell_length_c 20.6626
_cell_angle_alpha 87.136000
_cell_angle_beta 87.159200
_cell_angle_gamma 87.169600
loop_
  _atom_site_label
  _atom_site_type_symbol
  _atom_site_fract_x
  _atom_site_fract_y
  _atom_site_fract_z
C1 C 0.68446 0.62945 0.91187
 H2 H 0.71827 0.60870 0.87666
 C3 C 0.62443 0.65193 0.89157
 H4 H 0.61464 0.65058 0.84065
 C5 C 0.65546 0.65654 1.01983
 H6 H 0.66741 0.65652 1.07017
 C7 C 0.59380 0.67946 1.00134
 H8 H 0.55930 0.69921 1.03699
 N9 N 0.69992 0.63344 0.97469
 C10 C 0.90177 0.65211 1.01046
 H11 H 0.91947 0.61466 0.97871
 C12 C 0.94618 0.68659 1.04145
 H13 H 0.99740 0.67540 1.03277
 C14 C 0.81431 0.70518 1.06784
 H15 H 0.76311 0.71032 1.07994
 C16 C 0.85733 0.73958 1.10124
 H17 H 0.83848 0.77073 1.13881
 Zn18 Zn 0.78266 0.59763 0.99732
 N19 N 0.83722 0.66068 1.02512
 C20 C 0.84313 0.60727 0.87730
 N21 N 0.82208 0.56138 0.92160
 C22 C 0.82295 0.49793 0.90710
 C23 C 0.84516 0.47918 0.84516
 C24 C 0.86585 0.59075 0.81583
 C25 C 0.79186 0.54784 1.12633
 C26 C 0.76186 0.52313 1.18388
 C27 C 0.68965 0.46784 1.11614
 C28 C 0.72021 0.49610 1.06132
 N29 N 0.76767 0.53778 1.06761
 H30 H 0.84018 0.65758 0.88928
 H31 H 0.80510 0.46229 0.94270
 H32 H 0.84612 0.42866 0.83389
 H33 H 0.88231 0.62891 0.78255
 H34 H 0.83030 0.58072 1.12937
 H35 H 0.77769 0.53753 1.23000
 H36 H 0.65137 0.43572 1.10986
 H37 H 0.70271 0.48885 1.01388
 C38 C 0.92406 0.72830 1.08975
 C39 C 0.57851 0.67756 0.93622
 C40 C 0.70624 0.48819 1.18079
 C41 C 0.86627 0.52627 0.79860
 C42 C 0.67545 0.27298 0.60550
 H43 H 0.72088 0.26405 0.62879
 C44 C 0.61845 0.24994 0.63530
 H45 H 0.62077 0.22348 0.68152
 C46 C 0.61729 0.32029 0.51796
 H47 H 0.61653 0.34780 0.47231
 C48 C 0.55936 0.29830 0.54605
 H49 H 0.51463 0.31020 0.52223
 N50 N 0.67342 0.31002 0.54934
 C51 C 0.87825 0.30758 0.52896
 H52 H 0.88128 0.34551 0.56225
 C53 C 0.93548 0.27777 0.50438
 H54 H 0.98152 0.29469 0.51738
 C55 C 0.81554 0.24356 0.46683
 H56 H 0.76883 0.23252 0.45011
 C57 C 0.87154 0.21157 0.44201
 H58 H 0.86680 0.17575 0.40657
 Zn59 Zn 0.74809 0.35325 0.51696
 N60 N 0.82024 0.29382 0.50578
 C61 C 0.81679 0.45570 0.55194
 N62 N 0.77118 0.41468 0.57551
 C63 C 0.75397 0.40989 0.64001
 C64 C 0.78810 0.44218 0.68428
 C65 C 0.85276 0.48767 0.59438
 C66 C 0.75663 0.37704 0.37831
 C67 C 0.73512 0.40494 0.31962
 C68 C 0.66360 0.47749 0.38049
 C69 C 0.68648 0.44840 0.43779
 N70 N 0.73020 0.39737 0.43594
 H71 H 0.83009 0.45793 0.50061
 H72 H 0.71727 0.37752 0.65791
 H73 H 0.77737 0.43423 0.73574
 H74 H 0.89335 0.51465 0.57496
 H75 H 0.79264 0.33765 0.37738
 H76 H 0.75459 0.38619 0.27431
 H77 H 0.62679 0.51602 0.38420
 H78 H 0.66690 0.46439 0.48412
 C79 C 0.93232 0.23230 0.45719
 C80 C 0.55932 0.26455 0.60638
 C81 C 0.68628 0.45431 0.32036
 C82 C 0.83985 0.47927 0.66141
 C83 C 0.17712 -0.22265 0.10841
 H84 H 0.22215 -0.23107 0.13253
 C85 C 0.11988 -0.24607 0.13734
 H86 H 0.12158 -0.27208 0.18383
 C87 C 0.12017 -0.17641 0.01957
 H88 H 0.12000 -0.14903 -0.02620
 C89 C 0.06205 -0.19899 0.04667
 H90 H 0.01770 -0.18765 0.02200
 N91 N 0.17580 -0.18614 0.05189
 C92 C 0.38067 -0.19110 0.03063
 H93 H 0.38448 -0.15317 0.06366
 C94 C 0.43735 -0.22161 0.00573
 H95 H 0.48372 -0.20510 0.01823
 C96 C 0.31659 -0.25460 -0.03059
 H97 H 0.26955 -0.26519 -0.04682
 C98 C 0.37205 -0.28729 -0.05578
 H99 H 0.36661 -0.32315 -0.09104
 Zn100 Zn 0.25098 -0.14369 0.01947
 N101 N 0.32225 -0.20421 0.00800
 C102 C 0.32221 -0.04276 0.05496
 N103 N 0.27522 -0.08236 0.07814
 C104 C 0.25651 -0.08545 0.14233
 C105 C 0.29036 -0.05305 0.18687
 C106 C 0.35818 -0.01105 0.09766
 C107 C 0.25735 -0.12185 -0.11962
 C108 C 0.23556 -0.09489 -0.17866
 C109 C 0.16858 -0.01678 -0.11557
 C110 C 0.19148 -0.04702 -0.05904
 N111 N 0.23307 -0.09970 -0.06178
 H112 H 0.33649 -0.04156 0.00385
 H113 H 0.21849 -0.11644 0.15991
 H114 H 0.27755 -0.05964 0.23803
 H115 H 0.39972 0.01452 0.07821
 H116 H 0.29188 -0.16250 -0.12043
 H117 H 0.25324 -0.11572 -0.22360
 H118 H 0.13521 0.02467 -0.11170
 H119 H 0.17441 -0.02983 -0.01236
 C120 C 0.43324 -0.26719 -0.04117
 C121 C 0.06124 -0.23253 0.10714
 C122 C 0.18855 -0.04411 -0.17873
 C123 C 0.34376 -0.01763 0.16478
 C124 C 0.18431 0.12989 0.41027
 H125 H 0.21842 0.10992 0.37486
 C126 C 0.12460 0.15330 0.38983
 H127 H 0.11527 0.15328 0.33870
 C128 C 0.15437 0.15445 0.51872
 H129 H 0.16593 0.15332 0.56924
 C130 C 0.09293 0.17806 0.50012
 H131 H 0.05813 0.19707 0.53592
 N132 N 0.19912 0.13206 0.47347
 C133 C 0.40096 0.14804 0.51135
 H134 H 0.41862 0.10989 0.48040
 C135 C 0.44528 0.18207 0.54291
 H136 H 0.49646 0.16997 0.53534
 C137 C 0.31327 0.20345 0.56613
 H138 H 0.26191 0.20965 0.57700
 C139 C 0.35618 0.23748 0.60010
 H140 H 0.33716 0.26960 0.63677
 Zn141 Zn 0.28158 0.09531 0.49629
 N142 N 0.33630 0.15807 0.52438
 C143 C 0.34319 0.10564 0.37712
 N144 N 0.32129 0.05917 0.42024
 C145 C 0.32222 -0.00390 0.40436
 C146 C 0.34547 -0.02157 0.34225
 C147 C 0.36674 0.09031 0.31557
 C148 C 0.29040 0.04712 0.62579
 C149 C 0.25905 0.02448 0.68344
 C150 C 0.18438 -0.02746 0.61930
 C151 C 0.21678 -0.00366 0.56308
 N152 N 0.26617 0.03616 0.56737
 H153 H 0.34037 0.15566 0.39011
 H154 H 0.30372 -0.04009 0.43903
 H155 H 0.34665 -0.07196 0.33040
 H156 H 0.38391 0.12948 0.28403
 H157 H 0.32994 0.07880 0.62831
 H158 H 0.27550 0.03840 0.72948
 H159 H 0.14261 -0.05516 0.61348
 H160 H 0.19800 -0.01112 0.51622
 C161 C 0.42290 0.22484 0.59018
 C162 C 0.07823 0.17782 0.43471
 C163 C 0.20239 -0.00925 0.68046
 C164 C 0.36729 0.02623 0.29649
 C165 C 0.13289 0.40838 0.18662
 H166 H 0.11351 0.37340 0.22159
 C167 C 0.15540 0.38734 0.12671
 H168 H 0.15518 0.33625 0.11788
 C169 C 0.15703 0.51632 0.15495
 H170 H 0.15607 0.56684 0.16596
 C171 C 0.17978 0.49710 0.09337
 H172 H 0.19823 0.53251 0.05783
 N173 N 0.13524 0.47164 0.20059
 C174 C 0.15226 0.51205 0.40216
 H175 H 0.11408 0.48139 0.42032
 C176 C 0.18564 0.54489 0.44600
 H177 H 0.17319 0.53837 0.49736
 C178 C 0.20795 0.56521 0.31339
 H179 H 0.21432 0.57504 0.26173
 C180 C 0.24136 0.60043 0.35580
 H181 H 0.27335 0.63689 0.33613
 Zn182 Zn 0.09955 0.49547 0.28314
 N183 N 0.16269 0.52370 0.33717
 C184 C 0.10796 0.37723 0.34687
 N185 N 0.06274 0.42094 0.32360
 C186 C -0.00056 0.40634 0.32254
 C187 C -0.01983 0.34480 0.34485
 C188 C 0.09090 0.31610 0.36965
 C189 C 0.05127 0.62408 0.29257
 C190 C 0.02718 0.68141 0.26223
 C191 C -0.02663 0.61743 0.18875
 C192 C -0.00105 0.56142 0.21987
 N193 N 0.04023 0.56591 0.26817
 H194 H 0.15823 0.38926 0.34538
 H195 H -0.03557 0.44150 0.30291
 H196 H -0.07026 0.33349 0.34434
 H197 H 0.12851 0.28324 0.38786
 H198 H 0.08396 0.62671 0.33131
 H199 H 0.04110 0.72752 0.27822
 H200 H -0.05561 0.61222 0.14762
 H201 H -0.00855 0.51475 0.20096
 C202 C 0.22814 0.59198 0.42276
 C203 C 0.17940 0.43165 0.07948
 C204 C -0.00823 0.67816 0.20676
 C205 C 0.02666 0.29865 0.36771
 C206 C -0.23067 0.10784 0.17462
 H207 H -0.24050 0.13147 0.21982
 C208 C -0.25274 0.13696 0.11680
 H209 H -0.27944 0.18283 0.11898
 C210 C -0.18206 0.02018 0.11796
 H211 H -0.15415 -0.02514 0.11810
 C212 C -0.20301 0.04751 0.05922
 H213 H -0.18973 0.02308 0.01502
 N214 N -0.19347 0.05197 0.17375
 C215 C -0.19317 0.03039 0.38035
 H216 H -0.15427 0.06250 0.38334
 C217 C -0.22138 0.00409 0.43775
 H218 H -0.20255 0.01491 0.48375
 C219 C -0.26059 -0.02789 0.31742
 H220 H -0.27339 -0.04271 0.27043
 C221 C -0.29099 -0.05439 0.37367
 H222 H -0.32768 -0.08884 0.36887
 Zn223 Zn -0.15068 0.02069 0.24912
 N224 N -0.20943 0.00987 0.32190
 C225 C -0.04601 0.05449 0.31493
 N226 N -0.08872 0.07877 0.27114
 C227 C -0.09417 0.14330 0.25514
 C228 C -0.06051 0.18678 0.28879
 C229 C -0.01269 0.09611 0.35046
 C230 C -0.12882 -0.11753 0.25692
 C231 C -0.10028 -0.17588 0.23582
 C232 C -0.02397 -0.11488 0.16869
 C233 C -0.05393 -0.05790 0.19075
 N234 N -0.10685 -0.06000 0.23221
 H235 H -0.04334 0.00313 0.32738
 H236 H -0.12804 0.16174 0.21998
 H237 H -0.06898 0.23820 0.27920
 H238 H 0.01556 0.07597 0.38993
 H239 H -0.16994 -0.11861 0.29099
 H240 H -0.11993 -0.22130 0.25342
 H241 H 0.01622 -0.11152 0.13356
 H242 H -0.03693 -0.01164 0.17241
 C243 C -0.26773 -0.04209 0.43437
 C244 C -0.23692 0.10780 0.05771
 C245 C -0.04865 -0.17459 0.18955
 C246 C -0.02166 0.16309 0.33902
 C247 C 0.27065 0.60736 0.67579
 H248 H 0.25966 0.62991 0.72139
 C249 C 0.24948 0.63748 0.61805
 H250 H 0.22200 0.68300 0.62005
 C251 C 0.32165 0.52154 0.61795
 H252 H 0.35004 0.47653 0.61758
 C253 C 0.30172 0.55005 0.55931
 H254 H 0.31564 0.52696 0.51452
 N255 N 0.30842 0.55181 0.67440
 C256 C 0.30568 0.52903 0.88074
 H257 H 0.34388 0.56191 0.88402
 C258 C 0.27764 0.50211 0.93792
 H259 H 0.29594 0.51325 0.98408
 C260 C 0.23962 0.46978 0.81729
 H261 H 0.22737 0.45480 0.77018
 C262 C 0.20947 0.44251 0.87335
 H263 H 0.17356 0.40728 0.86833
 Zn264 Zn 0.34996 0.51931 0.75005
 N265 N 0.29023 0.50822 0.82214
 C266 C 0.45349 0.55309 0.81811
 N267 N 0.41173 0.57712 0.77330
 C268 C 0.40687 0.64155 0.75659
 C269 C 0.44017 0.68524 0.79033
 C270 C 0.48646 0.59495 0.85373
 C271 C 0.37030 0.38091 0.75656
 C272 C 0.39806 0.32241 0.73507
 C273 C 0.47636 0.38270 0.66986
 C274 C 0.44707 0.43991 0.69225
 N275 N 0.39349 0.43830 0.73289
 H276 H 0.45573 0.50182 0.83105
 H277 H 0.37376 0.65980 0.72063
 H278 H 0.43226 0.73664 0.78006
 H279 H 0.51411 0.57513 0.89377
 H280 H 0.32884 0.38002 0.79015
 H281 H 0.37746 0.27721 0.75194
 H282 H 0.51721 0.38567 0.63547
 H283 H 0.46514 0.48600 0.67476
 C284 C 0.23214 0.45516 0.93419
 C285 C 0.26706 0.60970 0.55880
 C286 C 0.45027 0.32329 0.68951
 C287 C 0.47819 0.66187 0.84130
 C288 C 0.63115 0.90965 0.68605
 H289 H 0.61042 0.87466 0.72014
 C290 C 0.65305 0.88933 0.62567
 H291 H 0.65135 0.83860 0.61584
 C292 C 0.65894 1.01710 0.65685
 H293 H 0.65946 1.06726 0.66885
 C294 C 0.68132 0.99859 0.59492
 H295 H 0.70128 1.03402 0.56030
 N296 N 0.63573 0.97224 0.70154
 C297 C 0.65497 1.00898 0.90380
 H298 H 0.61800 0.97672 0.92152
 C299 C 0.68799 1.04134 0.94837
 H300 H 0.67593 1.03260 0.99956
 C301 C 0.70768 1.06652 0.81616
 H302 H 0.71310 1.07819 0.76475
 C303 C 0.74062 1.10135 0.85929
 H304 H 0.77121 1.13906 0.83982
 Zn305 Zn 0.60052 0.99518 0.78464
 N306 N 0.66383 1.02319 0.83907
 C307 C 0.60927 0.87559 0.84564
 N308 N 0.56384 0.92014 0.82436
 C309 C 0.50025 0.90624 0.82481
 C310 C 0.48083 0.84464 0.84679
 C311 C 0.59207 0.81443 0.86820
 C312 C 0.55180 1.12382 0.79358
 C313 C 0.52712 1.18070 0.76283
 C314 C 0.47259 1.11548 0.69100
 C315 C 0.49887 1.05997 0.72241
 N316 N 0.54076 1.06528 0.77003
 H317 H 0.65970 0.88716 0.84301
 H318 H 0.46501 0.94206 0.80674
 H319 H 0.43019 0.83386 0.84746
 H320 H 0.62986 0.78098 0.88499
 H321 H 0.58495 1.12708 0.83182
 H322 H 0.54112 1.22711 0.77794
 H323 H 0.44307 1.10965 0.65042
 H324 H 0.49137 1.01301 0.70416
 C325 C 0.72867 1.09077 0.92637
 C326 C 0.67873 0.93374 0.57949
 C327 C 0.49105 1.17655 0.70791
 C328 C 0.52743 0.79778 0.86806
 C329 C 0.10378 0.17391 -0.23021
 H330 H 0.12604 0.21955 -0.24131
 C331 C 0.13370 0.11664 -0.25258
 H332 H 0.17873 0.11951 -0.28089
 C333 C 0.01908 0.11556 -0.17796
 H334 H -0.02534 0.11475 -0.14853
 C335 C 0.04736 0.05735 -0.19896
 H336 H 0.02452 0.01268 -0.18427
 N337 N 0.04897 0.17206 -0.19123
 C338 C 0.02819 0.37777 -0.19225
 H339 H 0.06074 0.38047 -0.15356
 C340 C 0.00333 0.43524 -0.22140
 H341 H 0.01560 0.48105 -0.20339
 C342 C -0.03244 0.31563 -0.25829
 H343 H -0.04860 0.26901 -0.27029
 C344 C -0.05769 0.37196 -0.28951
 H345 H -0.09287 0.36757 -0.32568
 Zn346 Zn 0.01699 0.24727 -0.14821
 N347 N 0.00604 0.31979 -0.20748
 C348 C 0.05290 0.31350 -0.04356
 N349 N 0.07604 0.26968 -0.08673
 C350 C 0.14052 0.25365 -0.09353
 C351 C 0.18497 0.28693 -0.06066
 C352 C 0.09553 0.34851 -0.01077
 C353 C -0.12176 0.25515 -0.12571
 C354 C -0.18034 0.23386 -0.09747
 C355 C -0.11958 0.16603 -0.02162
 C356 C -0.06245 0.18851 -0.05116
 N357 N -0.06420 0.23021 -0.10395
 H358 H 0.00160 0.32613 -0.03987
 H359 H 0.15815 0.21863 -0.12785
 H360 H 0.23624 0.27719 -0.07014
 H361 H 0.07619 0.38773 0.01816
 H362 H -0.12274 0.28964 -0.16653
 H363 H -0.22553 0.25199 -0.11732
 H364 H -0.11568 0.13086 0.01846
 H365 H -0.01625 0.17017 -0.03397
 C366 C -0.04321 0.43248 -0.26762
 C367 C 0.10653 0.05705 -0.23502
 C368 C -0.17958 0.18670 -0.04638
 C369 C 0.16240 0.33676 -0.02091
 C370 C 0.41144 0.18449 0.13440
 H371 H 0.37673 0.21883 0.11371
 C372 C 0.39024 0.12471 0.15686
 H373 H 0.33918 0.11609 0.15529
 C374 C 0.51867 0.15393 0.16153
 H375 H 0.56908 0.16522 0.16167
 C376 C 0.49934 0.09237 0.18436
 H377 H 0.53479 0.05750 0.20372
 N378 N 0.47440 0.19905 0.13808
 C379 C 0.51343 0.40232 0.15044
 H380 H 0.48237 0.41901 0.11199
 C381 C 0.54501 0.44769 0.18326
 H382 H 0.53706 0.49850 0.16957
 C383 C 0.56842 0.31609 0.20764
 H384 H 0.57937 0.26482 0.21498
 C385 C 0.60227 0.36000 0.24070
 H386 H 0.63867 0.34131 0.27326
 Zn387 Zn 0.49798 0.28139 0.10032
 N388 N 0.52651 0.33784 0.16191
 C389 C 0.37898 0.34394 0.10839
 N390 N 0.42258 0.32061 0.06302
 C391 C 0.40747 0.31901 -0.00029
 C392 C 0.34562 0.34090 -0.01938
 C393 C 0.31761 0.36631 0.09152
 C394 C 0.62660 0.28985 0.04949
 C395 C 0.68357 0.25958 0.02420
 C396 C 0.61837 0.18489 -0.02627
 C397 C 0.56285 0.21633 -0.00003
 N398 N 0.56813 0.26516 0.04034
 H399 H 0.39137 0.34301 0.15867
 H400 H 0.44248 0.29937 -0.03551
 H401 H 0.33398 0.34004 -0.06982
 H402 H 0.28502 0.38470 0.12931
 H403 H 0.62988 0.32885 0.08165
 H404 H 0.72987 0.27623 0.03685
 H405 H 0.61192 0.14356 -0.05445
 H406 H 0.51596 0.19736 -0.00632
 C407 C 0.59241 0.42673 0.22670
 C408 C 0.43403 0.07767 0.18250
 C409 C 0.67986 0.20309 -0.00968
 C410 C 0.29963 0.36399 0.02729
 C411 C 0.91206 0.68493 0.63067
 H412 H 0.87740 0.71871 0.60909
 C413 C 0.89142 0.62479 0.65247
 H414 H 0.84076 0.61502 0.64986
 C415 C 1.01895 0.65598 0.66039
 H416 H 1.06904 0.66796 0.66175
 C417 C 1.00011 0.59417 0.68262
 H418 H 1.03520 0.55965 0.70319
 N419 N 0.97449 0.70051 0.63627
 C420 C 1.00903 0.90219 0.65810
 H421 H 0.97568 0.91975 0.62201
 C422 C 1.04076 0.94690 0.69148
 H423 H 1.03041 0.99790 0.68049
 C424 C 1.07003 0.81545 0.70793
 H425 H 1.08334 0.76445 0.71199
 C426 C 1.10429 0.85882 0.74118
 H427 H 1.14325 0.83995 0.77055
 Zn428 Zn 0.99728 0.78383 0.60137
 N429 N 1.02522 0.83788 0.66529
 C430 C 0.87685 0.84336 0.61035
 N431 N 0.92197 0.82348 0.56470
 C432 C 0.90859 0.82526 0.50074
 C433 C 0.84694 0.84705 0.48116
 C434 C 0.81562 0.86566 0.59301
 C435 C 1.12566 0.79450 0.55151
 C436 C 1.18276 0.76485 0.52598
 C437 C 1.11809 0.69234 0.47183
 C438 C 1.06237 0.72269 0.49888
 N439 N 1.06737 0.77008 0.54105
 H440 H 0.88800 0.83975 0.66103
 H441 H 0.94485 0.80833 0.46529
 H442 H 0.83658 0.84871 0.43024
 H443 H 0.78169 0.88114 0.63104
 H444 H 1.12868 0.83259 0.58481
 H445 H 1.22906 0.78050 0.53973
 H446 H 1.11258 0.65178 0.44226
 H447 H 1.01560 0.70384 0.49172
 C448 C 1.09153 0.92562 0.73090
 C449 C 0.93535 0.57873 0.67897
 C450 C 1.17908 0.71008 0.48974
 C451 C 0.79948 0.86679 0.52797
 C452 C 0.60952 0.67580 0.26517
 H453 H 0.63365 0.72056 0.25496
 C454 C 0.63859 0.61752 0.24424
 H455 H 0.68482 0.61899 0.21800
 C456 C 0.52091 0.62049 0.31350
 H457 H 0.47530 0.62119 0.34101
 C458 C 0.54810 0.56137 0.29352
 H459 H 0.52310 0.51762 0.30688
 N460 N 0.55318 0.67589 0.30189
 C461 C 0.52909 0.88386 0.30636
 H462 H 0.56045 0.88624 0.34607
 C463 C 0.50204 0.94153 0.27947
 H464 H 0.51203 0.98679 0.30018
 C465 C 0.47303 0.82225 0.23600
 H466 H 0.45924 0.77560 0.22148
 C467 C 0.44564 0.87880 0.20699
 H468 H 0.41173 0.87396 0.16975
 Zn469 Zn 0.52188 0.75145 0.34540
 N470 N 0.51028 0.82566 0.28783
 C471 C 0.55579 0.81430 0.45272
 N472 N 0.58027 0.77265 0.40800
 C473 C 0.64502 0.75801 0.40141
 C474 C 0.68829 0.79069 0.43634
 C475 C 0.59718 0.84878 0.48748
 C476 C 0.38350 0.75784 0.36678
 C477 C 0.32509 0.73692 0.39548
 C478 C 0.38590 0.67143 0.47322
 C479 C 0.44300 0.69315 0.44296
 N480 N 0.44105 0.73396 0.38943
 H481 H 0.50429 0.82593 0.45625
 H482 H 0.66375 0.72474 0.36585
 H483 H 0.73979 0.78239 0.42699
 H484 H 0.57671 0.88669 0.51747
 H485 H 0.38244 0.79117 0.32505
 H486 H 0.27972 0.75395 0.37533
 H487 H 0.38910 0.63710 0.51414
 H488 H 0.48922 0.67528 0.46043
 C489 C 0.45646 0.93916 0.23203
 C490 C 0.60894 0.55888 0.26058
 C491 C 0.32622 0.69169 0.44806
 C492 C 0.66425 0.83860 0.47775
 Si493 Si 0.40133 0.00618 0.21867
 Si494 Si 0.14853 0.98195 0.74987
 Si495 Si 0.64938 0.48227 0.24777
 Si496 Si 0.90096 0.50399 0.71714
 Si497 Si 0.21788 0.39770 0.00471
 Si498 Si 0.74854 0.14854 0.98162
 Si499 Si 0.25092 0.65286 0.47939
 Si500 Si 0.71800 0.90031 0.50480
 Si501 Si 0.00374 0.21721 0.40115
 Si502 Si 0.98189 0.75044 0.14985
 Si503 Si 0.48046 0.24799 0.65012
 Si504 Si 0.50412 0.71675 0.90246
   
