data_POSCAR
  _audit_creation_date              2014-09-24
  _audit_creation_method            'ToBaCCo'
  _symmetry_space_group_name_H-M    'P1'
  _symmetry_Int_Tables_number       1
  _symmetry_cell_setting            triclinic
  loop_
  _symmetry_equiv_pos_as_xyz
 x,y,z
_cell_length_a 51.9616
_cell_length_b 53.3665
_cell_length_c 51.9219
_cell_angle_alpha 90.433100
_cell_angle_beta 90.664800
_cell_angle_gamma 89.859200
loop_
  _atom_site_label
  _atom_site_type_symbol
  _atom_site_fract_x
  _atom_site_fract_y
  _atom_site_fract_z
O1 O 0.37120 0.33587 -0.02600
 O2 O 0.33781 0.37075 0.02505
 O3 O 0.37352 0.33671 0.02410
 O4 O 0.33496 0.37003 -0.02496
 O5 O 0.30624 0.33963 -0.02471
 O6 O 0.34361 0.30747 0.02601
 O7 O 0.30772 0.34161 0.02576
 O8 O 0.34235 0.30565 -0.02384
 Cu9 Cu 0.35732 0.35633 -0.00068
 Cu10 Cu 0.32193 0.32068 0.00092
 C11 C 0.36276 0.31465 -0.03329
 C12 C 0.31708 0.36215 0.03408
 C13 C 0.36507 0.31648 0.03349
 C14 C 0.31407 0.36045 -0.03331
 O15 O 0.61709 0.65421 -0.02829
 O16 O 0.64912 0.62273 0.02612
 O17 O 0.61527 0.65914 0.02123
 O18 O 0.65127 0.61900 -0.02396
 O19 O 0.68214 0.64730 -0.02511
 O20 O 0.64699 0.68662 0.02140
 O21 O 0.68077 0.65022 0.02497
 O22 O 0.64797 0.68258 -0.02855
 Cu23 Cu 0.63010 0.63592 -0.00098
 Cu24 Cu 0.66763 0.66947 -0.00175
 C25 C 0.62700 0.67380 -0.03761
 C26 C 0.67059 0.63082 0.03453
 C27 C 0.62485 0.67985 0.02873
 C28 C 0.67268 0.62650 -0.03257
 O29 O 0.61535 0.33511 1.01720
 O30 O 0.65217 0.37424 0.97267
 O31 O 0.61749 0.33948 0.96771
 O32 O 0.64967 0.37089 1.02254
 O33 O 0.68097 0.34288 1.02146
 O34 O 0.64804 0.31064 0.96726
 O35 O 0.68299 0.34569 0.97179
 O36 O 0.64665 0.30703 1.01727
 Cu37 Cu 0.63061 0.35780 0.99522
 Cu38 Cu 0.66774 0.32367 0.99443
 C39 C 0.62458 0.31429 1.02457
 C40 C 0.67386 0.36666 0.96469
 C41 C 0.62709 0.31960 0.95832
 C42 C 0.67107 0.36264 1.03100
 O43 O 0.33111 0.63965 0.97550
 O44 O 0.36427 0.66914 1.03055
 O45 O 0.32503 0.63913 1.02501
 O46 O 0.36897 0.67086 0.98068
 O47 O 0.34193 0.70277 0.97830
 O48 O 0.29849 0.67146 1.02313
 O49 O 0.33777 0.70150 1.02824
 O50 O 0.30372 0.67134 0.97361
 Cu51 Cu 0.35007 0.65150 1.00323
 Cu52 Cu 0.31783 0.69006 1.00062
 C53 C 0.31168 0.65026 0.96536
 C54 C 0.35684 0.69039 1.03867
 C55 C 0.30414 0.64983 1.03145
 C56 C 0.36280 0.69218 0.97182
 O57 O -0.03401 0.36682 0.33356
 O58 O 0.01991 0.33794 0.36864
 O59 O 0.01558 0.37398 0.33563
 O60 O -0.02906 0.32900 0.36496
 O61 O -0.02330 0.30304 0.33221
 O62 O 0.02147 0.34746 0.30336
 O63 O 0.02580 0.31128 0.33647
 O64 O -0.02802 0.34090 0.30080
 Cu65 Cu -0.00760 0.35459 0.35392
 Cu66 Cu -0.00048 0.32304 0.31493
 C67 C -0.04005 0.35907 0.31117
 C68 C 0.03196 0.31968 0.35868
 C69 C 0.02622 0.36822 0.31448
 C70 C -0.03354 0.30820 0.35366
 O71 O -0.02318 0.65205 0.69267
 O72 O 0.02219 0.68768 0.65262
 O73 O 0.02646 0.65401 0.68876
 O74 O -0.02750 0.68332 0.65427
 O75 O -0.02707 0.71497 0.68190
 O76 O 0.02662 0.68471 0.71750
 O77 O 0.02237 0.71821 0.68160
 O78 O -0.02352 0.68335 0.72072
 Cu79 Cu -0.00053 0.66617 0.66926
 Cu80 Cu -0.00056 0.70331 0.70339
 C81 C -0.03084 0.66168 0.71372
 C82 C 0.02981 0.70915 0.66032
 C83 C 0.03563 0.66409 0.70906
 C84 C -0.03600 0.70444 0.66161
 O85 O 0.97556 0.66383 0.36780
 O86 O 1.01988 0.62540 0.32943
 O87 O 1.02536 0.66213 0.36271
 O88 O 0.97050 0.62775 0.33400
 O89 O 0.96858 0.65520 0.30242
 O90 O 1.02343 0.68952 0.33109
 O91 O 1.01829 0.65329 0.29819
 O92 O 0.97353 0.69169 0.33661
 Cu93 Cu 0.99805 0.64209 0.35170
 Cu94 Cu 0.99557 0.67528 0.31398
 C95 C 0.96710 0.68434 0.35885
 C96 C 1.02654 0.63271 0.30729
 C97 C 1.03384 0.68163 0.35173
 C98 C 0.96054 0.63536 0.31303
 O99 O 0.98039 0.32744 0.64462
 O100 O 1.03022 0.35455 0.68753
 O101 O 1.02963 0.32108 0.65002
 O102 O 0.98104 0.36130 0.68044
 O103 O 0.97341 0.33184 0.70901
 O104 O 1.02354 0.29206 0.67938
 O105 O 1.02251 0.32540 0.71638
 O106 O 0.97383 0.29765 0.67308
 Cu107 Cu 1.00624 0.34404 0.66280
 Cu108 Cu 0.99766 0.30874 0.69731
 C109 C 0.96859 0.30791 0.65165
 C110 C 1.03449 0.34482 0.70946
 C111 C 1.03481 0.29967 0.65930
 C112 C 0.96876 0.35338 0.69969
 O113 O 0.35083 0.02272 0.32398
 O114 O 0.30765 -0.02376 0.35271
 O115 O 0.34928 -0.02593 0.32514
 O116 O 0.30947 0.02490 0.35174
 O117 O 0.28540 0.02470 0.31641
 O118 O 0.32553 -0.02602 0.28959
 O119 O 0.28369 -0.02393 0.31730
 O120 O 0.32698 0.02260 0.28849
 Cu121 Cu 0.33169 -0.00052 0.34194
 Cu122 Cu 0.30300 -0.00070 0.29938
 C123 C 0.34638 0.03046 0.30129
 C124 C 0.28820 -0.03162 0.34000
 C125 C 0.34440 -0.03443 0.30273
 C126 C 0.29056 0.03334 0.33872
 O127 O 0.65119 0.02037 0.68896
 O128 O 0.68322 -0.02585 0.64733
 O129 O 0.65440 -0.02793 0.68792
 O130 O 0.68013 0.02277 0.64842
 O131 O 0.71487 0.02429 0.67330
 O132 O 0.68881 -0.02622 0.71325
 O133 O 0.71777 -0.02429 0.67247
 O134 O 0.68574 0.02222 0.71408
 Cu135 Cu 0.66379 -0.00282 0.66560
 Cu136 Cu 0.70533 -0.00081 0.69576
 C137 C 0.66283 0.02891 0.70878
 C138 C 0.70598 -0.03286 0.65273
 C139 C 0.66699 -0.03546 0.70751
 C140 C 0.70198 0.03200 0.65398
 O141 O 0.32218 1.01956 0.62756
 O142 O 0.36821 0.97491 0.65706
 O143 O 0.33125 0.97164 0.62309
 O144 O 0.36129 1.02330 0.65924
 O145 O 0.33464 1.01745 0.69147
 O146 O 0.30417 0.96531 0.65486
 O147 O 0.34107 0.96913 0.68886
 O148 O 0.29543 1.01324 0.65961
 Cu149 Cu 0.34840 0.99801 0.63854
 Cu150 Cu 0.31612 0.99074 0.67689
 C151 C 0.30089 1.02386 0.63864
 C152 C 0.36232 0.96438 0.67805
 C153 C 0.31274 0.95960 0.63271
 C154 C 0.35333 1.02913 0.68147
 O155 O 0.63543 0.97353 0.33613
 O156 O 0.66319 1.02456 0.37563
 O157 O 0.62952 1.02175 0.33833
 O158 O 0.66872 0.97606 0.37419
 O159 O 0.70045 0.98085 0.34675
 O160 O 0.66025 1.02518 0.30953
 O161 O 0.69384 1.02926 0.34699
 O162 O 0.66753 0.97671 0.30884
 Cu163 Cu 0.64610 0.99850 0.35891
 Cu164 Cu 0.68366 1.00343 0.32520
 C165 C 0.64679 0.96642 0.31580
 C166 C 0.68318 1.03576 0.36793
 C167 C 0.63808 1.03111 0.31775
 C168 C 0.69130 0.97083 0.36678
 O169 O 0.89134 0.84591 0.47540
 O170 O 0.85799 0.88325 0.52479
 O171 O 0.89165 0.84735 0.52579
 O172 O 0.85730 0.88203 0.47478
 O173 O 0.82597 0.85417 0.47534
 O174 O 0.86030 0.81950 0.52642
 O175 O 0.82667 0.85535 0.52532
 O176 O 0.86009 0.81796 0.47600
 Cu177 Cu 0.87777 0.86736 0.50003
 Cu178 Cu 0.84017 0.83386 0.50070
 C179 C 0.88143 0.82557 0.46731
 C180 C 0.83670 0.87563 0.53350
 C181 C 0.88164 0.82776 0.53508
 C182 C 0.83561 0.87421 0.46664
 O183 O 0.17860 0.14650 0.52195
 O184 O 0.14003 0.17700 0.47121
 O185 O 0.17991 0.14792 0.47216
 O186 O 0.13798 0.17629 0.52107
 O187 O 0.16406 0.20882 0.52422
 O188 O 0.20545 0.18093 0.47430
 O189 O 0.16525 0.21021 0.47383
 O190 O 0.20440 0.17930 0.52398
 Cu191 Cu 0.15653 0.15862 0.49658
 Cu192 Cu 0.18725 0.19821 0.49941
 C193 C 0.19848 0.15738 0.53106
 C194 C 0.14614 0.19876 0.46381
 C195 C 0.19981 0.15957 0.46490
 C196 C 0.14374 0.19746 0.53080
 O197 O 0.17747 0.84661 0.46852
 O198 O 0.14250 0.81076 0.51795
 O199 O 0.17176 0.84902 0.51974
 O200 O 0.13919 0.81247 0.46953
 O201 O 0.17095 0.78486 0.46898
 O202 O 0.20437 0.82244 0.51957
 O203 O 0.17367 0.78249 0.51758
 O204 O 0.20771 0.81749 0.46829
 Cu205 Cu 0.15527 0.83290 0.49315
 Cu206 Cu 0.19255 0.79983 0.49404
 C207 C 0.19872 0.83804 0.46012
 C208 C 0.15218 0.79018 0.52584
 C209 C 0.19340 0.84199 0.52850
 C210 C 0.14871 0.79207 0.46143
 O211 O 0.83334 0.14130 0.47328
 O212 O 0.86861 0.17211 0.52614
 O213 O 0.83714 0.13473 0.52287
 O214 O 0.86351 0.18028 0.47716
 O215 O 0.82984 0.20487 0.48328
 O216 O 0.80433 0.16018 0.52984
 O217 O 0.83587 0.19788 0.53237
 O218 O 0.79968 0.16568 0.48023
 Cu219 Cu 0.85394 0.15457 0.49906
 Cu220 Cu 0.81404 0.18465 0.50701
 C221 C 0.81046 0.14791 0.46795
 C222 C 0.85841 0.19028 0.53815
 C223 C 0.81634 0.13992 0.53437
 C224 C 0.85124 0.20045 0.47267
 O225 O 0.48057 0.86644 0.82748
 O226 O 0.53043 0.82981 0.86086
 O227 O 0.52996 0.86048 0.82229
 O228 O 0.48090 0.83448 0.86516
 O229 O 0.47462 0.80330 0.83761
 O230 O 0.52374 0.82905 0.79500
 O231 O 0.52417 0.79834 0.83363
 O232 O 0.47458 0.83545 0.79960
 Cu233 Cu 0.50606 0.85097 0.84669
 Cu234 Cu 0.49855 0.81336 0.81373
 C235 C 0.46934 0.85739 0.80771
 C236 C 0.53574 0.80785 0.85305
 C237 C 0.53517 0.84916 0.80135
 C238 C 0.46959 0.81428 0.85875
 O239 O 0.52527 0.16633 0.12879
 O240 O 0.47675 0.12521 0.15783
 O241 O 0.47565 0.16267 0.12618
 O242 O 0.52689 0.12766 0.15961
 O243 O 0.52352 0.15283 0.19337
 O244 O 0.47372 0.18939 0.15880
 O245 O 0.47343 0.15154 0.19064
 O246 O 0.52370 0.19135 0.16283
 Cu247 Cu 0.50149 0.14283 0.13982
 Cu248 Cu 0.49830 0.17385 0.17977
 C249 C 0.53265 0.18589 0.14086
 C250 C 0.46669 0.13149 0.17911
 C251 C 0.46624 0.18217 0.13656
 C252 C 0.53374 0.13405 0.18225
 O253 O 0.47338 0.15967 0.86829
 O254 O 0.52097 0.12978 0.82550
 O255 O 0.52300 0.16231 0.86307
 O256 O 0.47155 0.12537 0.83224
 O257 O 0.46529 0.15518 0.80356
 O258 O 0.51704 0.19252 0.83476
 O259 O 0.51465 0.15984 0.79709
 O260 O 0.46746 0.18951 0.83958
 Cu261 Cu 0.49782 0.14126 0.85011
 Cu262 Cu 0.49049 0.17725 0.81587
 C263 C 0.46248 0.17986 0.86121
 C264 C 0.52582 0.13980 0.80395
 C265 C 0.52871 0.18370 0.85438
 C266 C 0.45971 0.13382 0.81265
 O267 O 0.47954 0.83400 0.13095
 O268 O 0.52822 0.86916 0.16793
 O269 O 0.52914 0.83073 0.13543
 O270 O 0.47857 0.87073 0.16347
 O271 O 0.47483 0.84419 0.19566
 O272 O 0.52605 0.80475 0.16816
 O273 O 0.52463 0.84278 0.20026
 O274 O 0.47596 0.80723 0.16297
 Cu275 Cu 0.50452 0.85379 0.14620
 Cu276 Cu 0.50015 0.82202 0.18497
 C277 C 0.46926 0.81482 0.14072
 C278 C 0.53423 0.86240 0.19058
 C279 C 0.53591 0.81074 0.14685
 C280 C 0.46797 0.86414 0.18426
 O281 O 0.83278 0.47978 0.87270
 O282 O 0.86466 0.52488 0.82977
 O283 O 0.83171 0.52817 0.86732
 O284 O 0.86751 0.47665 0.83718
 O285 O 0.83661 0.47190 0.80799
 O286 O 0.79989 0.52305 0.83921
 O287 O 0.83300 0.52018 0.80142
 O288 O 0.80182 0.47481 0.84363
 Cu289 Cu 0.85232 0.50292 0.85457
 Cu290 Cu 0.81474 0.49708 0.82012
 C291 C 0.81177 0.46968 0.86540
 C292 C 0.85420 0.53009 0.80819
 C293 C 0.80956 0.53406 0.85885
 C294 C 0.85830 0.46551 0.81752
 O295 O 0.14389 0.52810 0.17182
 O296 O 0.17277 0.47638 0.13513
 O297 O 0.13631 0.48031 0.16860
 O298 O 0.18146 0.52424 0.13881
 O299 O 0.20957 0.51756 0.17028
 O300 O 0.16392 0.47478 0.20075
 O301 O 0.20056 0.46984 0.16692
 O302 O 0.17245 0.52276 0.20317
 Cu303 Cu 0.15584 0.50298 0.15038
 Cu304 Cu 0.18943 0.49558 0.18848
 C305 C 0.15303 0.53410 0.19378
 C306 C 0.19156 0.46430 0.14473
 C307 C 0.14236 0.47028 0.18992
 C308 C 0.20332 0.52813 0.14932
 O309 O 0.83036 0.52086 0.12219
 O310 O 0.86709 0.47133 0.15508
 O311 O 0.83006 0.47211 0.12093
 O312 O 0.86692 0.52008 0.15681
 O313 O 0.83821 0.51945 0.18784
 O314 O 0.80103 0.47168 0.15166
 O315 O 0.83817 0.47054 0.18590
 O316 O 0.80147 0.52044 0.15305
 Cu317 Cu 0.85149 0.49615 0.13567
 Cu318 Cu 0.81684 0.49548 0.17275
 C319 C 0.80966 0.52904 0.13192
 C320 C 0.85892 0.46249 0.17605
 C321 C 0.80923 0.46380 0.13009
 C322 C 0.85890 0.52790 0.17844
 O323 O 0.16825 0.53039 0.86634
 O324 O 0.14600 0.47541 0.82881
 O325 O 0.17786 0.48273 0.86799
 O326 O 0.13547 0.52273 0.82890
 O327 O 0.16715 0.52954 0.80181
 O328 O 0.20896 0.48696 0.83971
 O329 O 0.17691 0.48164 0.80075
 O330 O 0.20019 0.53509 0.83912
 Cu331 Cu 0.15379 0.50211 0.85082
 Cu332 Cu 0.19150 0.50875 0.81758
 C333 C 0.18815 0.54203 0.85908
 C334 C 0.15730 0.46963 0.80800
 C335 C 0.20059 0.47811 0.86068
 C336 C 0.14408 0.53315 0.80891
 C337 C 0.30410 0.37644 0.05444
 C338 C 0.28034 0.36938 0.06422
 C339 C 0.26677 0.38451 0.08382
 C340 C 0.23979 0.38428 0.08414
 C341 C 0.22638 0.39954 0.10142
 C342 C 0.23981 0.41513 0.11889
 C343 C 0.26678 0.41428 0.11954
 C344 C 0.28018 0.39921 0.10211
 C345 C 0.22635 0.43278 0.13624
 C346 C 0.20302 0.44400 0.12942
 H347 H 0.27049 0.35333 0.05588
 H348 H 0.22905 0.37274 0.07056
 H349 H 0.20557 0.39907 0.10104
 H350 H 0.27753 0.42580 0.13313
 H351 H 0.30099 0.39910 0.10304
 H352 H 0.23636 0.43916 0.15349
 H353 H 0.31322 0.39351 0.06120
 H354 H 0.19381 0.43930 0.11121
 C355 C 0.68389 0.61696 0.05513
 C356 C 0.70886 0.62297 0.06316
 C357 C 0.72438 0.60699 0.08065
 C358 C 0.75130 0.60835 0.07955
 C359 C 0.76671 0.59251 0.09451
 C360 C 0.75544 0.57497 0.11100
 C361 C 0.72855 0.57450 0.11311
 C362 C 0.71312 0.59028 0.09805
 C363 C 0.77108 0.55694 0.12607
 C364 C 0.79520 0.54856 0.11812
 H365 H 0.71835 0.63874 0.05433
 H366 H 0.76046 0.62138 0.06666
 H367 H 0.78739 0.59413 0.09311
 H368 H 0.71943 0.56149 0.12605
 H369 H 0.69247 0.58932 0.10017
 H370 H 0.76248 0.54850 0.14282
 H371 H 0.67447 0.60048 0.06248
 H372 H 0.80330 0.55542 0.10042
 C373 C 0.68839 0.38269 0.94717
 C374 C 0.71412 0.37800 0.94127
 C375 C 0.72935 0.39458 0.92456
 C376 C 0.75621 0.39538 0.92771
 C377 C 0.77113 0.41101 0.91237
 C378 C 0.75941 0.42600 0.89338
 C379 C 0.73263 0.42465 0.88979
 C380 C 0.71772 0.40918 0.90522
 C381 C 0.77428 0.44268 0.87646
 C382 C 0.79872 0.45204 0.88255
 H383 H 0.72391 0.36246 0.95049
 H384 H 0.76565 0.38400 0.94222
 H385 H 0.79178 0.41094 0.91520
 H386 H 0.72317 0.43570 0.87503
 H387 H 0.69719 0.40843 0.90162
 H388 H 0.76488 0.44898 0.85892
 H389 H 0.67892 0.39935 0.93996
 H390 H 0.80802 0.44741 0.90064
 C391 C 0.29840 0.63745 0.94399
 C392 C 0.27363 0.64397 0.93589
 C393 C 0.25938 0.62855 0.91682
 C394 C 0.23272 0.62550 0.91931
 C395 C 0.21927 0.60905 0.90297
 C396 C 0.23233 0.59560 0.88369
 C397 C 0.25867 0.59991 0.88025
 C398 C 0.27212 0.61614 0.89669
 C399 C 0.21949 0.57667 0.86712
 C400 C 0.19758 0.56350 0.87433
 H401 H 0.26350 0.65889 0.94581
 H402 H 0.22246 0.63523 0.93444
 H403 H 0.19878 0.60689 0.90559
 H404 H 0.26907 0.59012 0.86524
 H405 H 0.29252 0.61879 0.89373
 H406 H 0.22918 0.57113 0.84959
 H407 H 0.30761 0.62098 0.93595
 H408 H 0.18799 0.56786 0.89220
 C409 C 0.05307 0.30829 0.37358
 C410 C 0.06521 0.28615 0.36598
 C411 C 0.08445 0.27340 0.38256
 C412 C 0.08681 0.24725 0.38105
 C413 C 0.10352 0.23448 0.39771
 C414 C 0.11833 0.24774 0.41611
 C415 C 0.11701 0.27398 0.41662
 C416 C 0.10020 0.28673 0.40007
 C417 C 0.13518 0.23489 0.43503
 C418 C 0.13051 0.21060 0.44350
 H419 H 0.05870 0.27671 0.34856
 H420 H 0.07523 0.23662 0.36737
 H421 H 0.10477 0.21430 0.39605
 H422 H 0.12861 0.28464 0.43026
 H423 H 0.09962 0.30698 0.40108
 H424 H 0.15056 0.24559 0.44407
 H425 H 0.05795 0.31685 0.39195
 H426 H 0.11426 0.20015 0.43592
 C427 C 0.04688 0.72444 0.64449
 C428 C 0.05552 0.71676 0.62038
 C429 C 0.07066 0.73338 0.60364
 C430 C 0.08770 0.72276 0.58587
 C431 C 0.10218 0.73802 0.56978
 C432 C 0.09967 0.76427 0.57100
 C433 C 0.08203 0.77484 0.58820
 C434 C 0.06773 0.75960 0.60445
 C435 C 0.11440 0.78098 0.55398
 C436 C 0.13837 0.77443 0.54419
 H437 H 0.05164 0.69780 0.61382
 H438 H 0.08991 0.70260 0.58455
 H439 H 0.11490 0.72915 0.55608
 H440 H 0.07939 0.79497 0.58914
 H441 H 0.05406 0.76842 0.61722
 H442 H 0.10647 0.79929 0.54969
 H443 H 0.05233 0.74266 0.65202
 H444 H 0.14737 0.75697 0.54983
 C445 C 0.94986 0.69955 0.37493
 C446 C 0.94303 0.72410 0.36877
 C447 C 0.92767 0.74019 0.38618
 C448 C 0.93096 0.76626 0.38549
 C449 C 0.91757 0.78192 0.40244
 C450 C 0.90043 0.77174 0.42033
 C451 C 0.89633 0.74577 0.42025
 C452 C 0.90983 0.73011 0.40343
 C453 C 0.88630 0.78754 0.43904
 C454 C 0.89514 0.81085 0.44769
 H455 H 0.95096 0.73246 0.35165
 H456 H 0.94425 0.77451 0.37207
 H457 H 0.92055 0.80192 0.40126
 H458 H 0.88287 0.73751 0.43350
 H459 H 0.90609 0.71019 0.40388
 H460 H 0.86914 0.77981 0.44756
 H461 H 0.94386 0.69161 0.39301
 H462 H 0.91311 0.81824 0.44074
 C463 C 0.94867 0.29718 0.63460
 C464 C 0.93605 0.27498 0.64059
 C465 C 0.91716 0.26287 0.62307
 C466 C 0.91423 0.23679 0.62406
 C467 C 0.89748 0.22451 0.60701
 C468 C 0.88312 0.23817 0.58878
 C469 C 0.88500 0.26437 0.58867
 C470 C 0.90199 0.27667 0.60556
 C471 C 0.86650 0.22546 0.56951
 C472 C 0.87330 0.20236 0.55891
 H473 H 0.94165 0.26505 0.65791
 H474 H 0.92536 0.22583 0.63771
 H475 H 0.89580 0.20433 0.60813
 H476 H 0.87378 0.27529 0.57506
 H477 H 0.90312 0.29689 0.60492
 H478 H 0.85002 0.23548 0.56174
 H479 H 0.94463 0.30654 0.61657
 H480 H 0.89115 0.19346 0.56480
 C481 C 0.36428 0.04852 0.28993
 C482 C 0.36257 0.05558 0.26412
 C483 C 0.38135 0.07241 0.25172
 C484 C 0.38393 0.07139 0.22485
 C485 C 0.40168 0.08667 0.21243
 C486 C 0.41721 0.10344 0.22669
 C487 C 0.41407 0.10500 0.25347
 C488 C 0.39639 0.08965 0.26590
 C489 C 0.43636 0.11995 0.21440
 C490 C 0.44708 0.11508 0.19032
 H491 H 0.34773 0.04720 0.25203
 H492 H 0.37228 0.05858 0.21342
 H493 H 0.40284 0.08548 0.19168
 H494 H 0.42546 0.11806 0.26487
 H495 H 0.39437 0.09167 0.28652
 H496 H 0.44325 0.13599 0.22537
 H497 H 0.37995 0.05524 0.30198
 H498 H 0.44179 0.09838 0.17961
 C499 C 0.64947 0.04615 0.72638
 C500 C 0.62427 0.05401 0.72148
 C501 C 0.60870 0.06858 0.74001
 C502 C 0.58732 0.08197 0.73074
 C503 C 0.57127 0.09490 0.74767
 C504 C 0.57622 0.09457 0.77435
 C505 C 0.59740 0.08091 0.78369
 C506 C 0.61360 0.06811 0.76672
 C507 C 0.55898 0.10728 0.79283
 C508 C 0.54422 0.12816 0.78622
 H509 H 0.61539 0.04924 0.70310
 H510 H 0.58288 0.08225 0.71030
 H511 H 0.55462 0.10450 0.73980
 H512 H 0.60136 0.08005 0.80420
 H513 H 0.62939 0.05732 0.77467
 H514 H 0.55842 0.10039 0.81240
 H515 H 0.65947 0.05210 0.74376
 H516 H 0.54626 0.13655 0.76745
 C517 C 0.38032 0.94644 0.68998
 C518 C 0.37496 0.93559 0.71371
 C519 C 0.39232 0.91795 0.72726
 C520 C 0.38971 0.91524 0.75395
 C521 C 0.40567 0.89890 0.76766
 C522 C 0.42452 0.88475 0.75486
 C523 C 0.42657 0.88677 0.72803
 C524 C 0.41073 0.90333 0.71431
 C525 C 0.44210 0.86780 0.76904
 C526 C 0.45025 0.87295 0.79421
 H527 H 0.35761 0.94127 0.72361
 H528 H 0.37537 0.92597 0.76430
 H529 H 0.40299 0.89718 0.78821
 H530 H 0.44072 0.87576 0.71773
 H531 H 0.41274 0.90433 0.69364
 H532 H 0.45049 0.85209 0.75877
 H533 H 0.39816 0.94236 0.68025
 H534 H 0.44403 0.89000 0.80371
 C535 C 0.63583 0.94621 0.29984
 C536 C 0.60955 0.94124 0.29971
 C537 C 0.59785 0.92299 0.28169
 C538 C 0.57456 0.92905 0.26936
 C539 C 0.56322 0.91228 0.25189
 C540 C 0.57466 0.88887 0.24704
 C541 C 0.59754 0.88244 0.25998
 C542 C 0.60932 0.89955 0.27691
 C543 C 0.56218 0.87077 0.22937
 C544 C 0.55143 0.87843 0.20603
 H545 H 0.59689 0.95299 0.31106
 H546 H 0.56533 0.94694 0.27298
 H547 H 0.54524 0.91741 0.24255
 H548 H 0.60643 0.86433 0.25672
 H549 H 0.62708 0.89434 0.28660
 H550 H 0.56142 0.85123 0.23481
 H551 H 0.64820 0.93663 0.28627
 H552 H 0.55468 0.89739 0.19949
 C553 C 0.37715 0.30042 0.94727
 C554 C 0.37163 0.27540 0.94152
 C555 C 0.38707 0.26024 0.92338
 C556 C 0.38819 0.23415 0.92644
 C557 C 0.40318 0.21935 0.91005
 C558 C 0.41718 0.23044 0.89013
 C559 C 0.41527 0.25641 0.88653
 C560 C 0.40044 0.27120 0.90299
 C561 C 0.43364 0.21572 0.87251
 C562 C 0.44421 0.19236 0.87854
 H563 H 0.35660 0.26606 0.95208
 H564 H 0.37770 0.22524 0.94176
 H565 H 0.40348 0.19931 0.91293
 H566 H 0.42553 0.26535 0.87105
 H567 H 0.39930 0.29113 0.89946
 H568 H 0.43914 0.22452 0.85466
 H569 H 0.39344 0.30950 0.93855
 H570 H 0.44031 0.18365 0.89681
 C571 C 0.61356 0.68644 0.94110
 C572 C 0.62281 0.70848 0.93035
 C573 C 0.60807 0.72315 0.91113
 C574 C 0.61289 0.74890 0.90917
 C575 C 0.59813 0.76378 0.89262
 C576 C 0.57822 0.75310 0.87761
 C577 C 0.57441 0.72712 0.87843
 C578 C 0.58913 0.71224 0.89505
 C579 C 0.56087 0.76850 0.86140
 C580 C 0.55533 0.79347 0.86721
 H581 H 0.64053 0.71645 0.93795
 H582 H 0.62773 0.75766 0.92096
 H583 H 0.60235 0.78358 0.89171
 H584 H 0.55954 0.71839 0.86666
 H585 H 0.58555 0.69229 0.89522
 H586 H 0.55031 0.75930 0.84590
 H587 H 0.59525 0.67878 0.93486
 H588 H 0.56438 0.80251 0.88368
 C589 C 0.37110 0.70218 0.06008
 C590 C 0.36595 0.72656 0.06838
 C591 C 0.38281 0.74006 0.08691
 C592 C 0.38430 0.76623 0.08546
 C593 C 0.40154 0.77950 0.10119
 C594 C 0.41756 0.76679 0.11881
 C595 C 0.41496 0.74079 0.12136
 C596 C 0.39781 0.72748 0.10550
 C597 C 0.43717 0.78013 0.13449
 C598 C 0.44930 0.80166 0.12574
 H599 H 0.35068 0.73702 0.05893
 H600 H 0.37258 0.77639 0.07163
 H601 H 0.40228 0.79968 0.09946
 H602 H 0.42672 0.73068 0.13519
 H603 H 0.39644 0.70740 0.10784
 H604 H 0.44349 0.77186 0.15249
 H605 H 0.38730 0.69196 0.06807
 H606 H 0.44448 0.80901 0.10691
 C607 C 0.60879 0.29811 0.04082
 C608 C 0.61873 0.27704 0.05318
 C609 C 0.60194 0.25891 0.06622
 C610 C 0.61050 0.24722 0.08888
 C611 C 0.59494 0.22969 0.10116
 C612 C 0.57087 0.22310 0.09053
 C613 C 0.56266 0.23429 0.06750
 C614 C 0.57789 0.25226 0.05559
 C615 C 0.55422 0.20429 0.10269
 C616 C 0.55152 0.20278 0.12930
 H617 H 0.63935 0.27396 0.05372
 H618 H 0.62914 0.25183 0.09717
 H619 H 0.60195 0.22094 0.11864
 H620 H 0.54429 0.22929 0.05885
 H621 H 0.57112 0.26051 0.03777
 H622 H 0.54177 0.19308 0.09033
 H623 H 0.58855 0.30260 0.04260
 H624 H 0.56163 0.21592 0.14175
 C625 C 0.28186 0.04104 0.62727
 C626 C 0.28704 0.05566 0.60582
 C627 C 0.26751 0.07231 0.59392
 C628 C 0.27562 0.09342 0.58034
 C629 C 0.25767 0.10922 0.56842
 C630 C 0.23117 0.10402 0.56968
 C631 C 0.22310 0.08268 0.58291
 C632 C 0.24103 0.06701 0.59501
 C633 C 0.21172 0.11931 0.55585
 C634 C 0.21571 0.14425 0.54913
 H635 H 0.30632 0.05566 0.59810
 H636 H 0.29593 0.09766 0.57889
 H637 H 0.26470 0.12499 0.55762
 H638 H 0.20285 0.07800 0.58372
 H639 H 0.23411 0.05043 0.60456
 H640 H 0.19374 0.11040 0.55037
 H641 H 0.26336 0.04252 0.63654
 H642 H 0.23273 0.15403 0.55593
 C643 C 0.69346 0.05515 0.38293
 C644 C 0.71552 0.06823 0.37577
 C645 C 0.72852 0.08719 0.39232
 C646 C 0.75428 0.09303 0.38730
 C647 C 0.76786 0.10969 0.40319
 C648 C 0.75591 0.12092 0.42453
 C649 C 0.72977 0.11617 0.42878
 C650 C 0.71616 0.09943 0.41289
 C651 C 0.77027 0.13719 0.44287
 C652 C 0.79660 0.13422 0.44748
 H653 H 0.72485 0.06313 0.35790
 H654 H 0.76412 0.08428 0.37128
 H655 H 0.78770 0.11368 0.39867
 H656 H 0.72001 0.12497 0.44481
 H657 H 0.69607 0.09624 0.41686
 H658 H 0.75948 0.15011 0.45482
 H659 H 0.68425 0.05938 0.40102
 H660 H 0.80724 0.11997 0.43715
 C661 C 0.71871 0.94920 0.63543
 C662 C 0.74466 0.94292 0.63832
 C663 C 0.75862 0.92700 0.61963
 C664 C 0.78541 0.92948 0.61787
 C665 C 0.79921 0.91544 0.59985
 C666 C 0.78641 0.89851 0.58325
 C667 C 0.75976 0.89533 0.58571
 C668 C 0.74595 0.90943 0.60366
 C669 C 0.80017 0.88358 0.56359
 C670 C 0.82375 0.89066 0.55335
 H671 H 0.75570 0.95159 0.65381
 H672 H 0.79568 0.94256 0.63027
 H673 H 0.81986 0.91775 0.59926
 H674 H 0.74953 0.88206 0.57349
 H675 H 0.72547 0.90630 0.60508
 H676 H 0.79073 0.86697 0.55597
 H677 H 0.70768 0.94216 0.61915
 H678 H 0.83287 0.90794 0.55947
 C679 C 0.27029 0.95050 0.35170
 C680 C 0.27537 0.93974 0.37565
 C681 C 0.25740 0.92271 0.38883
 C682 C 0.26737 0.90601 0.40715
 C683 C 0.25107 0.89029 0.42081
 C684 C 0.22428 0.89109 0.41661
 C685 C 0.21421 0.90809 0.39860
 C686 C 0.23060 0.92365 0.38468
 C687 C 0.20659 0.87541 0.43181
 C688 C 0.21399 0.85213 0.44147
 H689 H 0.29379 0.94337 0.38494
 H690 H 0.28789 0.90522 0.41102
 H691 H 0.25948 0.87808 0.43517
 H692 H 0.19362 0.90936 0.39535
 H693 H 0.22215 0.93682 0.37127
 H694 H 0.18737 0.88237 0.43547
 H695 H 0.25291 0.94567 0.34111
 H696 H 0.23237 0.84421 0.43604
 C697 C 0.05293 0.35628 0.72766
 C698 C 0.06618 0.37822 0.72209
 C699 C 0.08203 0.39196 0.74139
 C700 C 0.10073 0.40876 0.73282
 C701 C 0.11502 0.42317 0.75040
 C702 C 0.11078 0.42114 0.77703
 C703 C 0.09201 0.40442 0.78560
 C704 C 0.07780 0.38992 0.76802
 C705 C 0.12403 0.43752 0.79611
 C706 C 0.14725 0.44953 0.79124
 H707 H 0.06483 0.38576 0.70280
 H708 H 0.10405 0.41098 0.71240
 H709 H 0.12865 0.43646 0.74291
 H710 H 0.08804 0.40285 0.80596
 H711 H 0.06296 0.37785 0.77540
 H712 H 0.11476 0.44076 0.81443
 H713 H 0.05544 0.34746 0.74622
 H714 H 0.15770 0.44532 0.77383
 C715 C 0.04335 0.61658 0.29186
 C716 C 0.05773 0.62579 0.27157
 C717 C 0.07245 0.60884 0.25473
 C718 C 0.09725 0.61548 0.24692
 C719 C 0.11139 0.59934 0.23106
 C720 C 0.10051 0.57674 0.22222
 C721 C 0.07542 0.57054 0.22939
 C722 C 0.06160 0.58628 0.24579
 C723 C 0.11463 0.55953 0.20515
 C724 C 0.14061 0.55397 0.20890
 H725 H 0.05899 0.64582 0.26859
 H726 H 0.10579 0.63295 0.25340
 H727 H 0.13057 0.60470 0.22537
 H728 H 0.06664 0.55329 0.22256
 H729 H 0.04228 0.58104 0.25114
 H730 H 0.10361 0.54874 0.19113
 H731 H 0.04460 0.59690 0.29671
 H732 H 0.15115 0.56246 0.22482
 C733 C 0.93905 0.37194 0.29726
 C734 C 0.93319 0.36696 0.27144
 C735 C 0.91483 0.38241 0.25632
 C736 C 0.91772 0.38382 0.22955
 C737 C 0.90194 0.39959 0.21485
 C738 C 0.88284 0.41427 0.22673
 C739 C 0.87905 0.41181 0.25329
 C740 C 0.89486 0.39608 0.26798
 C741 C 0.86669 0.43236 0.21223
 C742 C 0.87411 0.44287 0.18894
 H743 H 0.94425 0.35282 0.26132
 H744 H 0.93263 0.37311 0.22003
 H745 H 0.90481 0.40014 0.19428
 H746 H 0.86414 0.42250 0.26283
 H747 H 0.89132 0.39473 0.28841
 H748 H 0.84918 0.43902 0.22115
 H749 H 0.92948 0.38711 0.30726
 H750 H 0.89214 0.43754 0.18024
 C751 C 0.95224 0.64758 0.73090
 C752 C 0.94397 0.62327 0.72527
 C753 C 0.92943 0.60783 0.74371
 C754 C 0.91397 0.58823 0.73425
 C755 C 0.90059 0.57282 0.75113
 C756 C 0.90258 0.57660 0.77794
 C757 C 0.91847 0.59585 0.78742
 C758 C 0.93169 0.61140 0.77053
 C759 C 0.88930 0.56017 0.79643
 C760 C 0.86662 0.54740 0.79028
 H761 H 0.94803 0.61530 0.70649
 H762 H 0.91229 0.58480 0.71371
 H763 H 0.88924 0.55763 0.74311
 H764 H 0.92069 0.59887 0.80798
 H765 H 0.94413 0.62573 0.77861
 H766 H 0.89718 0.55873 0.81578
 H767 H 0.94678 0.65650 0.74882
 H768 H 0.85741 0.55018 0.77172
 C769 C 0.68564 0.61157 0.94958
 C770 C 0.70907 0.61874 0.93886
 C771 C 0.72364 0.60326 0.92014
 C772 C 0.74972 0.60870 0.91634
 C773 C 0.76447 0.59429 0.89943
 C774 C 0.75340 0.57402 0.88588
 C775 C 0.72706 0.56922 0.88881
 C776 C 0.71229 0.58362 0.90578
 C777 C 0.76876 0.55739 0.86894
 C778 C 0.79510 0.55353 0.87273
 H779 H 0.71781 0.63617 0.94524
 H780 H 0.75884 0.62402 0.92674
 H781 H 0.78446 0.59922 0.89697
 H782 H 0.71797 0.55397 0.87828
 H783 H 0.69206 0.57933 0.90734
 H784 H 0.75863 0.54596 0.85480
 H785 H 0.67705 0.59381 0.94426
 H786 H 0.80514 0.56328 0.88816
 C787 C 0.29932 0.37271 0.94800
 C788 C 0.30459 0.39712 0.94014
 C789 C 0.28787 0.41040 0.92154
 C790 C 0.28104 0.43540 0.92645
 C791 C 0.26483 0.44824 0.90939
 C792 C 0.25588 0.43652 0.88670
 C793 C 0.26345 0.41182 0.88129
 C794 C 0.27901 0.39867 0.89880
 C795 C 0.23880 0.45006 0.86863
 C796 C 0.21738 0.46309 0.87752
 H797 H 0.31974 0.40770 0.94973
 H798 H 0.28787 0.44482 0.94377
 H799 H 0.25954 0.46745 0.91373
 H800 H 0.25688 0.40255 0.86379
 H801 H 0.28443 0.37951 0.89442
 H802 H 0.24220 0.44856 0.84813
 H803 H 0.28242 0.36332 0.94025
 H804 H 0.21242 0.46187 0.89769
 C805 C 0.28679 0.63781 0.04740
 C806 C 0.29128 0.61389 0.05725
 C807 C 0.27200 0.60009 0.07229
 C808 C 0.28039 0.58117 0.08901
 C809 C 0.26269 0.56723 0.10298
 C810 C 0.23613 0.57188 0.10033
 C811 C 0.22770 0.59046 0.08322
 C812 C 0.24541 0.60450 0.06937
 C813 C 0.21676 0.55692 0.11406
 C814 C 0.22211 0.54459 0.13709
 H815 H 0.30980 0.60502 0.05424
 H816 H 0.30074 0.57711 0.09122
 H817 H 0.26990 0.55246 0.11526
 H818 H 0.20733 0.59407 0.08049
 H819 H 0.23814 0.61828 0.05595
 H820 H 0.19746 0.55598 0.10598
 H821 H 0.26911 0.64755 0.05200
 H822 H 0.24068 0.54678 0.14647
 C823 C 0.68387 0.37608 0.05040
 C824 C 0.70866 0.36983 0.05901
 C825 C 0.72409 0.38622 0.07640
 C826 C 0.75104 0.38509 0.07516
 C827 C 0.76631 0.40117 0.09020
 C828 C 0.75490 0.41866 0.10697
 C829 C 0.72799 0.41900 0.10909
 C830 C 0.71270 0.40302 0.09391
 C831 C 0.77040 0.43658 0.12258
 C832 C 0.79467 0.44490 0.11521
 H833 H 0.71820 0.35366 0.05065
 H834 H 0.76031 0.37203 0.06214
 H835 H 0.78701 0.39968 0.08873
 H836 H 0.71875 0.43197 0.12222
 H837 H 0.69204 0.40383 0.09609
 H838 H 0.76167 0.44480 0.13953
 H839 H 0.67474 0.39296 0.05754
 H840 H 0.80292 0.43832 0.09735
 C841 C 0.94541 0.71619 0.64634
 C842 C 0.93776 0.74106 0.65006
 C843 C 0.92266 0.75475 0.63029
 C844 C 0.92712 0.78042 0.62689
 C845 C 0.91482 0.79344 0.60695
 C846 C 0.89760 0.78100 0.59012
 C847 C 0.89214 0.75565 0.59438
 C848 C 0.90459 0.74259 0.61419
 C849 C 0.88473 0.79392 0.56833
 C850 C 0.89501 0.81494 0.55638
 H851 H 0.94598 0.75172 0.66597
 H852 H 0.94068 0.79028 0.63929
 H853 H 0.91877 0.81321 0.60492
 H854 H 0.87854 0.74578 0.58203
 H855 H 0.90003 0.72300 0.61682
 H856 H 0.86707 0.78589 0.56067
 H857 H 0.93868 0.70616 0.62935
 H858 H 0.91340 0.82238 0.56270
 C859 C 0.95070 0.29034 0.36481
 C860 C 0.93901 0.29397 0.38863
 C861 C 0.92478 0.27392 0.40183
 C862 C 0.90618 0.28054 0.42002
 C863 C 0.89303 0.26207 0.43352
 C864 C 0.89841 0.23653 0.42916
 C865 C 0.91731 0.22994 0.41128
 C866 C 0.93034 0.24839 0.39768
 C867 C 0.88583 0.21648 0.44394
 C868 C 0.86196 0.21947 0.45556
 H869 H 0.94009 0.31220 0.39793
 H870 H 0.90190 0.30007 0.42390
 H871 H 0.87926 0.26795 0.44781
 H872 H 0.92214 0.21043 0.40794
 H873 H 0.94523 0.24256 0.38453
 H874 H 0.89570 0.19864 0.44558
 H875 H 0.94792 0.27281 0.35454
 H876 H 0.85095 0.23647 0.45268
 C877 C 0.05279 0.28415 0.64730
 C878 C 0.06240 0.28951 0.62294
 C879 C 0.08008 0.27251 0.60926
 C880 C 0.07574 0.26752 0.58302
 C881 C 0.09269 0.25224 0.56929
 C882 C 0.11474 0.24235 0.58141
 C883 C 0.11935 0.24767 0.60757
 C884 C 0.10188 0.26231 0.62155
 C885 C 0.13363 0.22776 0.56647
 C886 C 0.12588 0.20928 0.54898
 H887 H 0.05482 0.30541 0.61238
 H888 H 0.05916 0.27543 0.57317
 H889 H 0.08900 0.24878 0.54900
 H890 H 0.13640 0.24043 0.61715
 H891 H 0.10580 0.26629 0.64170
 H892 H 0.15395 0.23146 0.56946
 H893 H 0.05824 0.26672 0.65648
 H894 H 0.10589 0.20356 0.54829
 C895 C 0.05463 0.69483 0.36220
 C896 C 0.06534 0.68936 0.38629
 C897 C 0.08564 0.70517 0.39800
 C898 C 0.08373 0.71213 0.42398
 C899 C 0.10192 0.72816 0.43522
 C900 C 0.12277 0.73686 0.42086
 C901 C 0.12540 0.72901 0.39520
 C902 C 0.10671 0.71356 0.38368
 C903 C 0.14140 0.75440 0.43268
 C904 C 0.13265 0.77620 0.44458
 H905 H 0.05667 0.67509 0.39811
 H906 H 0.06773 0.70572 0.43538
 H907 H 0.09977 0.73377 0.45518
 H908 H 0.14147 0.73542 0.38392
 H909 H 0.10878 0.70805 0.36370
 H910 H 0.16178 0.75020 0.43198
 H911 H 0.06188 0.71075 0.35169
 H912 H 0.11243 0.78104 0.44281
 C913 C 0.65583 0.94560 0.72441
 C914 C 0.63191 0.93492 0.71890
 C915 C 0.61744 0.91956 0.73733
 C916 C 0.59747 0.90432 0.72789
 C917 C 0.58190 0.89109 0.74477
 C918 C 0.58597 0.89297 0.77154
 C919 C 0.60593 0.90823 0.78100
 C920 C 0.62161 0.92135 0.76410
 C921 C 0.56873 0.88067 0.79001
 C922 C 0.55424 0.85949 0.78375
 H923 H 0.62296 0.93846 0.70031
 H924 H 0.59360 0.90298 0.70738
 H925 H 0.56619 0.88020 0.73675
 H926 H 0.60918 0.91027 0.80156
 H927 H 0.63627 0.93353 0.77217
 H928 H 0.56754 0.88849 0.80928
 H929 H 0.66616 0.94090 0.74194
 H930 H 0.55674 0.85014 0.76538
 C931 C 0.36134 0.94612 0.29200
 C932 C 0.35971 0.93854 0.26625
 C933 C 0.37857 0.92135 0.25418
 C934 C 0.38208 0.92242 0.22746
 C935 C 0.40041 0.90723 0.21546
 C936 C 0.41557 0.89052 0.23002
 C937 C 0.41133 0.88874 0.25658
 C938 C 0.39307 0.90400 0.26860
 C939 C 0.43557 0.87444 0.21822
 C940 C 0.44754 0.88006 0.19503
 H941 H 0.34533 0.94717 0.25388
 H942 H 0.37084 0.93531 0.21586
 H943 H 0.40238 0.90850 0.19481
 H944 H 0.42240 0.87568 0.26816
 H945 H 0.39028 0.90195 0.28908
 H946 H 0.44211 0.85822 0.22892
 H947 H 0.37664 0.93911 0.30431
 H948 H 0.44251 0.89694 0.18472
 C949 C 0.62172 0.04897 0.30361
 C950 C 0.62851 0.05879 0.27981
 C951 C 0.61155 0.07603 0.26512
 C952 C 0.61370 0.07705 0.23823
 C953 C 0.59741 0.09251 0.22370
 C954 C 0.57870 0.10742 0.23587
 C955 C 0.57729 0.10717 0.26283
 C956 C 0.59347 0.09163 0.27734
 C957 C 0.56051 0.12354 0.22127
 C958 C 0.55356 0.11908 0.19559
 H959 H 0.64613 0.05242 0.27089
 H960 H 0.62779 0.06557 0.22840
 H961 H 0.59976 0.09285 0.20304
 H962 H 0.56337 0.11880 0.27272
 H963 H 0.59189 0.09211 0.29809
 H964 H 0.55083 0.13843 0.23168
 H965 H 0.60331 0.05367 0.31191
 H966 H 0.56172 0.10338 0.18520
 C967 C 0.36647 0.04960 0.69540
 C968 C 0.36156 0.05567 0.72107
 C969 C 0.37695 0.07453 0.73559
 C970 C 0.37961 0.07226 0.76239
 C971 C 0.39539 0.08873 0.77645
 C972 C 0.40877 0.10795 0.76391
 C973 C 0.40497 0.11105 0.73734
 C974 C 0.38928 0.09453 0.72328
 C975 C 0.42691 0.12489 0.77776
 C976 C 0.43963 0.11817 0.80051
 H977 H 0.34758 0.04473 0.73144
 H978 H 0.36991 0.05733 0.77241
 H979 H 0.39697 0.08632 0.79706
 H980 H 0.41463 0.12599 0.72729
 H981 H 0.38688 0.09753 0.70281
 H982 H 0.43204 0.14234 0.76863
 H983 H 0.38173 0.05907 0.68538
 H984 H 0.43600 0.10014 0.80911
 C985 C 0.60944 0.69646 0.04525
 C986 C 0.61992 0.71726 0.05792
 C987 C 0.60365 0.73592 0.07127
 C988 C 0.61265 0.74749 0.09399
 C989 C 0.59765 0.76558 0.10653
 C990 C 0.57373 0.77286 0.09608
 C991 C 0.56509 0.76177 0.07300
 C992 C 0.57974 0.74325 0.06084
 C993 C 0.55764 0.79223 0.10852
 C994 C 0.55495 0.79385 0.13516
 H995 H 0.64061 0.71975 0.05846
 H996 H 0.63120 0.74236 0.10213
 H997 H 0.60498 0.77421 0.12406
 H998 H 0.54681 0.76728 0.06449
 H999 H 0.57265 0.73511 0.04297
 H1000 H 0.54533 0.80365 0.09634
 H1001 H 0.58910 0.69252 0.04700
 H1002 H 0.56480 0.78049 0.14742
 C1003 C 0.38065 0.30338 0.05306
 C1004 C 0.37354 0.28005 0.06264
 C1005 C 0.38982 0.26534 0.08062
 C1006 C 0.38676 0.23924 0.08122
 C1007 C 0.40239 0.22451 0.09716
 C1008 C 0.42134 0.23567 0.11301
 C1009 C 0.42361 0.26186 0.11331
 C1010 C 0.40809 0.27660 0.09721
 C1011 C 0.43900 0.22051 0.12920
 C1012 C 0.44667 0.19638 0.12210
 H1013 H 0.35615 0.27133 0.05518
 H1014 H 0.37251 0.23014 0.06899
 H1015 H 0.39946 0.20445 0.09711
 H1016 H 0.43777 0.27092 0.12568
 H1017 H 0.41039 0.29672 0.09797
 H1018 H 0.44800 0.22935 0.14585
 H1019 H 0.39871 0.31182 0.05895
 H1020 H 0.43958 0.18820 0.10426
 C1021 C 0.61310 0.30678 0.93725
 C1022 C 0.62075 0.28351 0.92750
 C1023 C 0.60484 0.26858 0.90913
 C1024 C 0.60853 0.24255 0.90795
 C1025 C 0.59281 0.22753 0.89222
 C1026 C 0.57299 0.23831 0.87725
 C1027 C 0.57021 0.26447 0.87734
 C1028 C 0.58591 0.27949 0.89312
 C1029 C 0.55477 0.22290 0.86169
 C1030 C 0.54890 0.19816 0.86783
 H1031 H 0.63797 0.27486 0.93542
 H1032 H 0.62330 0.23370 0.91968
 H1033 H 0.59630 0.20755 0.89189
 H1034 H 0.55544 0.27328 0.86560
 H1035 H 0.58309 0.29956 0.89266
 H1036 H 0.54401 0.23194 0.84634
 H1037 H 0.59525 0.31521 0.93076
 H1038 H 0.55816 0.18938 0.88422
 C1039 C 0.38015 0.70448 0.95370
 C1040 C 0.37546 0.72864 0.94464
 C1041 C 0.39233 0.74135 0.92608
 C1042 C 0.39245 0.76762 0.92536
 C1043 C 0.40814 0.78028 0.90808
 C1044 C 0.42389 0.76679 0.89100
 C1045 C 0.42317 0.74052 0.89120
 C1046 C 0.40763 0.72788 0.90859
 C1047 C 0.44093 0.77936 0.87250
 C1048 C 0.45080 0.80341 0.87640
 H1049 H 0.35931 0.73911 0.95225
 H1050 H 0.38048 0.77841 0.93833
 H1051 H 0.40754 0.80053 0.90792
 H1052 H 0.43482 0.72972 0.87796
 H1053 H 0.40736 0.70762 0.90793
 H1054 H 0.44746 0.76853 0.85607
 H1055 H 0.39722 0.69436 0.94787
 H1056 H 0.44612 0.81394 0.89361
 C1057 C 0.70675 0.95297 0.38193
 C1058 C 0.73224 0.94719 0.37602
 C1059 C 0.74844 0.93010 0.39176
 C1060 C 0.77532 0.93222 0.39065
 C1061 C 0.79124 0.91693 0.40577
 C1062 C 0.78052 0.89908 0.42231
 C1063 C 0.75368 0.89631 0.42264
 C1064 C 0.73778 0.91163 0.40758
 C1065 C 0.79649 0.88302 0.43938
 C1066 C 0.82153 0.88904 0.44726
 H1067 H 0.74118 0.95667 0.36007
 H1068 H 0.78405 0.94597 0.37826
 H1069 H 0.81184 0.91909 0.40422
 H1070 H 0.74493 0.88242 0.43485
 H1071 H 0.71721 0.90871 0.40827
 H1072 H 0.78744 0.86671 0.44765
 H1073 H 0.69792 0.94500 0.39875
 H1074 H 0.83060 0.90593 0.44050
 C1075 C 0.30149 0.93889 0.61756
 C1076 C 0.28008 0.92539 0.62550
 C1077 C 0.26803 0.90566 0.60921
 C1078 C 0.24159 0.90109 0.61142
 C1079 C 0.22930 0.88374 0.59516
 C1080 C 0.24334 0.87047 0.57645
 C1081 C 0.27003 0.87398 0.57525
 C1082 C 0.28229 0.89146 0.59139
 C1083 C 0.23068 0.85327 0.55773
 C1084 C 0.20549 0.85710 0.54908
 H1085 H 0.27069 0.93079 0.64323
 H1086 H 0.23028 0.91142 0.62534
 H1087 H 0.20885 0.88081 0.59730
 H1088 H 0.28134 0.86364 0.56135
 H1089 H 0.30289 0.89376 0.58984
 H1090 H 0.24217 0.83874 0.54874
 H1091 H 0.30989 0.93491 0.59900
 H1092 H 0.19454 0.87282 0.55642
 C1093 C 0.27388 0.05285 0.34975
 C1094 C 0.27978 0.06449 0.37322
 C1095 C 0.26192 0.08155 0.38681
 C1096 C 0.27192 0.09845 0.40515
 C1097 C 0.25551 0.11353 0.41977
 C1098 C 0.22867 0.11180 0.41647
 C1099 C 0.21867 0.09491 0.39812
 C1100 C 0.23508 0.07999 0.38333
 C1101 C 0.21064 0.12577 0.43314
 C1102 C 0.21703 0.14805 0.44589
 H1103 H 0.29836 0.06090 0.38218
 H1104 H 0.29250 0.09970 0.40845
 H1105 H 0.26391 0.12577 0.43427
 H1106 H 0.19805 0.09296 0.39551
 H1107 H 0.22662 0.06665 0.36995
 H1108 H 0.19150 0.11815 0.43547
 H1109 H 0.25645 0.05775 0.33932
 H1110 H 0.23517 0.15720 0.44217
 C1111 C 0.71238 0.05156 0.63735
 C1112 C 0.73791 0.05941 0.63929
 C1113 C 0.74938 0.07720 0.62102
 C1114 C 0.77593 0.07609 0.61656
 C1115 C 0.78728 0.09207 0.59879
 C1116 C 0.77221 0.10962 0.58524
 C1117 C 0.74582 0.11131 0.59040
 C1118 C 0.73446 0.09526 0.60805
 C1119 C 0.78330 0.12686 0.56619
 C1120 C 0.80623 0.12218 0.55323
 H1121 H 0.75051 0.05066 0.65339
 H1122 H 0.78789 0.06260 0.62664
 H1123 H 0.80784 0.09079 0.59603
 H1124 H 0.73389 0.12500 0.58057
 H1125 H 0.71410 0.09726 0.61167
 H1126 H 0.77231 0.14350 0.56135
 H1127 H 0.70005 0.05853 0.62205
 H1128 H 0.81688 0.10504 0.55652
 C1129 C 0.93999 0.62035 0.30076
 C1130 C 0.93143 0.62484 0.27560
 C1131 C 0.91410 0.60764 0.26106
 C1132 C 0.91448 0.60799 0.23405
 C1133 C 0.89940 0.59131 0.21953
 C1134 C 0.88346 0.57389 0.23179
 C1135 C 0.88225 0.57425 0.25879
 C1136 C 0.89744 0.59087 0.27332
 C1137 C 0.86772 0.55543 0.21710
 C1138 C 0.87410 0.54697 0.19245
 H1139 H 0.93969 0.64038 0.26526
 H1140 H 0.92681 0.62100 0.22410
 H1141 H 0.90016 0.59231 0.19876
 H1142 H 0.86977 0.56135 0.26869
 H1143 H 0.89590 0.59058 0.29407
 H1144 H 0.85142 0.54710 0.22662
 H1145 H 0.93335 0.60407 0.31099
 H1146 H 0.89131 0.55374 0.18331
 C1147 C 0.94896 0.36969 0.71098
 C1148 C 0.93634 0.36384 0.73371
 C1149 C 0.91754 0.38107 0.74573
 C1150 C 0.91499 0.38114 0.77258
 C1151 C 0.89842 0.39812 0.78463
 C1152 C 0.88384 0.41520 0.76994
 C1153 C 0.88537 0.41423 0.74301
 C1154 C 0.90215 0.39743 0.73097
 C1155 C 0.86717 0.43429 0.78218
 C1156 C 0.87336 0.44506 0.80599
 H1157 H 0.94188 0.34708 0.74406
 H1158 H 0.92628 0.36840 0.78431
 H1159 H 0.89701 0.39778 0.80540
 H1160 H 0.87399 0.42691 0.73128
 H1161 H 0.90296 0.39725 0.71016
 H1162 H 0.85100 0.44163 0.77122
 H1163 H 0.94509 0.38735 0.70157
 H1164 H 0.89077 0.43937 0.81603
 C1165 C 0.05659 0.65147 0.72323
 C1166 C 0.06244 0.62636 0.71829
 C1167 C 0.08141 0.61182 0.73343
 C1168 C 0.07723 0.58609 0.73661
 C1169 C 0.09459 0.57160 0.75083
 C1170 C 0.11679 0.58250 0.76173
 C1171 C 0.12149 0.60807 0.75784
 C1172 C 0.10378 0.62274 0.74404
 C1173 C 0.13516 0.56730 0.77693
 C1174 C 0.12657 0.54904 0.79381
 H1175 H 0.05097 0.61621 0.70412
 H1176 H 0.06029 0.57722 0.72832
 H1177 H 0.09082 0.55178 0.75300
 H1178 H 0.13865 0.61675 0.76585
 H1179 H 0.10780 0.64243 0.74132
 H1180 H 0.15551 0.57155 0.77607
 H1181 H 0.06618 0.66142 0.73883
 H1182 H 0.10610 0.54697 0.79692
 C1183 C 0.04430 0.38585 0.30282
 C1184 C 0.05472 0.38120 0.27858
 C1185 C 0.07311 0.39806 0.26590
 C1186 C 0.07540 0.39671 0.23904
 C1187 C 0.09279 0.41200 0.22626
 C1188 C 0.10842 0.42890 0.24021
 C1189 C 0.10661 0.42982 0.26714
 C1190 C 0.08905 0.41464 0.27991
 C1191 C 0.12718 0.44522 0.22733
 C1192 C 0.12391 0.45339 0.20205
 H1193 H 0.04832 0.36482 0.26784
 H1194 H 0.06364 0.38377 0.22787
 H1195 H 0.09427 0.41017 0.20557
 H1196 H 0.11874 0.44242 0.27831
 H1197 H 0.08843 0.41562 0.30071
 H1198 H 0.14333 0.45222 0.23863
 H1199 H 0.04890 0.40291 0.31326
 H1200 H 0.10675 0.44841 0.19119
   
