data_POSCAR
  _audit_creation_date              2014-09-24
  _audit_creation_method            'ToBaCCo'
  _symmetry_space_group_name_H-M    'P1'
  _symmetry_Int_Tables_number       1
  _symmetry_cell_setting            triclinic
  loop_
  _symmetry_equiv_pos_as_xyz
 x,y,z
_cell_length_a 47.2268
_cell_length_b 46.9024
_cell_length_c 45.5713
_cell_angle_alpha 90.800700
_cell_angle_beta 90.604500
_cell_angle_gamma 90.353600
loop_
  _atom_site_label
  _atom_site_type_symbol
  _atom_site_fract_x
  _atom_site_fract_y
  _atom_site_fract_z
N1 N 0.20977 1.26255 0.18434
 N2 N 0.19327 1.26271 0.20735
 C3 C 0.17373 1.28325 0.20432
 C4 C 0.17807 1.29682 0.17778
 C5 C 0.20132 1.28299 0.16583
 H6 H 0.15721 1.28730 0.22003
 H7 H 0.21117 1.28694 0.14498
 Cu8 Cu 0.19779 1.23511 0.23837
 Cu9 Cu 0.24007 1.23492 0.17938
 Cu10 Cu 0.24265 1.18036 0.22970
 N11 N 0.19567 1.20163 0.26284
 N12 N 0.21353 1.18050 0.25967
 C13 C 0.20700 1.15987 0.27869
 C14 C 0.18352 1.16833 0.29469
 C15 C 0.17702 1.19513 0.28390
 H16 H 0.21813 1.13987 0.27995
 H17 H 0.15980 1.20884 0.29037
 N18 N 0.27008 1.18410 0.19766
 N19 N 0.26903 1.20480 0.17839
 C20 C 0.28945 1.20066 0.15840
 C21 C 0.30408 1.17609 0.16534
 C22 C 0.29121 1.16626 0.19047
 H23 H 0.29303 1.21425 0.13984
 H24 H 0.29614 1.14694 0.20204
 H25 H 0.21787 1.20384 0.20125
 H26 H 0.24573 1.22382 0.22272
 N27 N 0.79789 0.74247 0.16923
 N28 N 0.81613 0.74206 0.19117
 C29 C 0.83455 0.72067 0.18678
 C30 C 0.82741 0.70680 0.16064
 C31 C 0.80396 0.72127 0.15018
 H32 H 0.85199 0.71583 0.20140
 H33 H 0.79269 0.71731 0.12975
 Cu34 Cu 0.81481 0.77010 0.22285
 Cu35 Cu 0.76869 0.77145 0.16610
 Cu36 Cu 0.77321 0.82770 0.21585
 N37 N 0.82034 0.80394 0.24726
 N38 N 0.80442 0.82658 0.24416
 C39 C 0.81348 0.84711 0.26298
 C40 C 0.83643 0.83683 0.27893
 C41 C 0.84002 0.80919 0.26822
 H42 H 0.80396 0.86793 0.26475
 H43 H 0.85604 0.79407 0.27459
 N44 N 0.74316 0.82459 0.18555
 N45 N 0.74136 0.80301 0.16674
 C46 C 0.71912 0.80710 0.14861
 C47 C 0.70622 0.83256 0.15627
 C48 C 0.72209 0.84300 0.17987
 H49 H 0.71318 0.79286 0.13072
 H50 H 0.71872 0.86265 0.19194
 H51 H 0.79446 0.80165 0.18668
 H52 H 0.76681 0.78437 0.20976
 N53 N 0.80782 1.24483 -0.16961
 N54 N 0.82841 1.24402 -0.18877
 C55 C 0.84806 1.26382 -0.18114
 C56 C 0.83935 1.27768 -0.15574
 C57 C 0.81364 1.26504 -0.14919
 H58 H 0.86761 1.26732 -0.19270
 H59 H 0.80024 1.26987 -0.13073
 Cu60 Cu 0.82786 1.21600 -0.22073
 Cu61 Cu 0.77567 1.21865 -0.17132
 Cu62 Cu 0.77437 1.16883 -0.22820
 N63 N 0.82681 1.18821 -0.25290
 N64 N 0.80567 1.17002 -0.25568
 C65 C 0.81026 1.15270 -0.27887
 C66 C 0.83586 1.16021 -0.29147
 C67 C 0.84568 1.18301 -0.27427
 H68 H 0.79619 1.13548 -0.28543
 H69 H 0.86526 1.19470 -0.27672
 N70 N 0.74469 1.17112 -0.19818
 N71 N 0.74502 1.19032 -0.17675
 C72 C 0.72266 1.18574 -0.15929
 C73 C 0.70759 1.16240 -0.17010
 C74 C 0.72218 1.15373 -0.19483
 H75 H 0.71835 1.19773 -0.13944
 H76 H 0.71708 1.13574 -0.20903
 H77 H 0.79637 1.18571 -0.19253
 H78 H 0.77669 1.21129 -0.21608
 N79 N 0.17726 0.75090 -0.16767
 N80 N 0.15597 0.75277 -0.18632
 C81 C 0.13632 0.73301 -0.17977
 C82 C 0.14582 0.71787 -0.15577
 C83 C 0.17196 0.72978 -0.14873
 H84 H 0.11659 0.72981 -0.19161
 H85 H 0.18575 0.72402 -0.13071
 Cu86 Cu 0.15565 0.78082 -0.21737
 Cu87 Cu 0.20954 0.77688 -0.16851
 Cu88 Cu 0.21115 0.82540 -0.22508
 N89 N 0.15754 0.80765 -0.24950
 N90 N 0.17940 0.82472 -0.25261
 C91 C 0.17495 0.84141 -0.27597
 C92 C 0.14871 0.83456 -0.28833
 C93 C 0.13841 0.81285 -0.27085
 H94 H 0.18960 0.85769 -0.28289
 H95 H 0.11831 0.80190 -0.27305
 N96 N 0.24123 0.82299 -0.19499
 N97 N 0.24036 0.80492 -0.17309
 C98 C 0.26262 0.81007 -0.15502
 C99 C 0.27833 0.83240 -0.16613
 C100 C 0.26416 0.83995 -0.19155
 H101 H 0.26683 0.79875 -0.13496
 H102 H 0.26946 0.85741 -0.20575
 H103 H 0.18941 0.81016 -0.18932
 H104 H 0.20710 0.78310 -0.21329
 C105 C 0.54988 1.01475 -0.03127
 H106 H 0.55835 0.99833 -0.01739
 C107 C 0.56828 1.03079 -0.04830
 H108 H 0.59078 1.02658 -0.04716
 C109 C 0.51060 1.04100 -0.04870
 H110 H 0.48808 1.04509 -0.04843
 C111 C 0.52828 1.05765 -0.06601
 H112 H 0.51914 1.07420 -0.07939
 N113 N 0.52158 1.01998 -0.03180
 C114 C 0.45343 1.01301 0.03143
 H115 H 0.44788 0.99071 0.02941
 C116 C 0.43678 1.03107 0.04857
 H117 H 0.41828 1.02243 0.05919
 C118 C 0.48380 1.05140 0.01949
 H119 H 0.50239 1.05919 0.00847
 C120 C 0.46777 1.07022 0.03645
 H121 H 0.47423 1.09237 0.03823
 Zn122 Zn 0.49728 0.99838 -0.00744
 N123 N 0.47618 1.02344 0.01691
 C124 C 0.52471 0.98121 0.04482
 N125 N 0.51942 0.97419 0.01623
 C126 C 0.53057 0.95035 0.00372
 C127 C 0.54816 0.93262 0.02004
 C128 C 0.54237 0.96418 0.06191
 C129 C 0.46703 0.98094 -0.05932
 C130 C 0.44791 0.96417 -0.07568
 C131 C 0.44020 0.93551 -0.03288
 C132 C 0.45932 0.95294 -0.01730
 N133 N 0.47205 0.97539 -0.03052
 H134 H 0.51565 1.00033 0.05424
 H135 H 0.52614 0.94541 -0.01914
 H136 H 0.55736 0.91408 0.00952
 H137 H 0.54653 0.97015 0.08459
 H138 H 0.47756 0.99853 -0.06970
 H139 H 0.44365 0.96955 -0.09832
 H140 H 0.43054 0.91764 -0.02192
 H141 H 0.46416 0.94844 0.00541
 C142 C 0.44370 1.06018 0.05103
 C143 C 0.55756 1.05263 -0.06592
 C144 C 0.43403 0.94118 -0.06244
 C145 C 0.55449 0.93961 0.04946
 C146 C -0.01077 0.53807 1.05027
 H147 H 0.01199 0.54071 1.05163
 C148 C -0.02834 0.55700 1.06527
 H149 H -0.01892 0.57427 1.07810
 C150 C -0.05060 0.51322 1.03050
 H151 H -0.05923 0.49659 1.01639
 C152 C -0.06895 0.53175 1.04503
 H153 H -0.09159 0.52873 1.04243
 N154 N -0.02207 0.51667 1.03336
 C155 C 0.04741 0.45647 1.02354
 H156 H 0.04864 0.45529 0.99986
 C157 C 0.06490 0.43940 1.04072
 H158 H 0.07947 0.42498 1.03003
 C159 C 0.02568 0.47563 1.06603
 H160 H 0.00994 0.48930 1.07580
 C161 C 0.04274 0.45891 1.08405
 H162 H 0.04034 0.46040 1.10762
 Zn163 Zn 0.00333 0.49402 1.01134
 N164 N 0.02826 0.47408 1.03635
 C165 C 0.05171 0.52369 0.99007
 N166 N 0.02331 0.51940 0.98714
 C167 C 0.00749 0.53514 0.96836
 C168 C 0.02017 0.55608 0.95142
 C169 C 0.06525 0.54469 0.97374
 C170 C -0.03223 0.44690 1.00348
 C171 C -0.04834 0.42635 0.98836
 C172 C -0.03143 0.44533 0.94270
 C173 C -0.01572 0.46567 0.95873
 N174 N -0.01684 0.46642 0.98857
 H175 H 0.06376 0.51149 1.00573
 H176 H -0.01514 0.53160 0.96684
 H177 H 0.00712 0.56808 0.93640
 H178 H 0.08771 0.54838 0.97707
 H179 H -0.03226 0.44762 1.02722
 H180 H -0.06063 0.41112 1.00064
 H181 H -0.03084 0.44543 0.91896
 H182 H -0.00278 0.48087 0.94728
 C183 C 0.06249 0.44026 1.07142
 C184 C -0.05786 0.55414 1.06252
 C185 C -0.04832 0.42558 0.95755
 C186 C 0.04939 0.56143 0.95426
 C187 C 1.03631 -0.00744 0.54180
 H188 H 1.03442 0.01495 0.54698
 C189 C 1.05083 -0.02502 0.56120
 H190 H 1.05945 -0.01589 0.58136
 C191 C 1.02706 -0.04656 0.50966
 H192 H 1.01824 -0.05483 0.48928
 C193 C 1.04144 -0.06492 0.52844
 H194 H 1.04341 -0.08720 0.52229
 N195 N 1.02431 -0.01844 0.51681
 C196 C 1.01905 0.05167 0.45548
 H197 H 0.99675 0.05674 0.45626
 C198 C 1.03724 0.06774 0.43816
 H199 H 1.02874 0.08510 0.42545
 C200 C 1.05693 0.02196 0.47013
 H201 H 1.06442 0.00389 0.48238
 C202 C 1.07582 0.03739 0.45306
 H203 H 1.09788 0.03125 0.45265
 Zn204 Zn 1.00354 0.00595 0.49152
 N205 N 1.02907 0.02905 0.47068
 C206 C 0.99084 0.05102 0.53092
 N207 N 0.97925 0.02966 0.51413
 C208 C 0.95082 0.02480 0.51387
 C209 C 0.93318 0.04036 0.53242
 C210 C 0.97397 0.06708 0.54990
 C211 C 0.98395 -0.01266 0.43523
 C212 C 0.96805 -0.02933 0.41542
 C213 C 0.94841 -0.05472 0.45630
 C214 C 0.96448 -0.03740 0.47535
 N215 N 0.98177 -0.01678 0.46462
 H216 H 1.01331 0.05537 0.52992
 H217 H 0.94168 0.00851 0.49973
 H218 H 0.91068 0.03580 0.53216
 H219 H 0.98384 0.08312 0.56399
 H220 H 0.99807 0.00350 0.42703
 H221 H 0.97017 -0.02587 0.39210
 H222 H 0.93460 -0.07086 0.46526
 H223 H 0.96327 -0.04042 0.49879
 C224 C 1.06597 0.06036 0.43645
 C225 C 1.05334 -0.05425 0.55477
 C226 C 0.95002 -0.05071 0.42591
 C227 C 0.94480 0.06133 0.55133
 C228 C 0.12848 0.36085 1.13871
 C229 C 0.12211 0.35167 1.16709
 C230 C 0.13864 0.33070 1.18015
 C231 C 0.16181 0.31878 1.16525
 C232 C 0.16793 0.32935 1.13721
 N233 N 0.15135 0.34963 1.12492
 C234 C 0.11116 0.38222 1.12306
 N235 N 0.12257 0.39569 1.09964
 C236 C 0.10776 0.41462 1.08328
 C237 C 0.07950 0.42085 1.09000
 C238 C 0.06732 0.40731 1.11411
 C239 C 0.08297 0.38799 1.13060
 H240 H 0.13303 0.32401 1.20194
 H241 H 0.18555 0.32142 1.12466
 H242 H 0.11809 0.42474 1.06504
 H243 H 0.04540 0.41095 1.11969
 H244 H 0.10476 0.36061 1.17939
 H245 H 0.07260 0.37717 1.14834
 C246 C -0.12834 0.63878 1.11778
 C247 C -0.15618 0.64519 1.10901
 C248 C -0.17063 0.66721 1.12312
 C249 C -0.15769 0.68276 1.14617
 C250 C -0.13015 0.67517 1.15481
 N251 N -0.11639 0.65378 1.14056
 C252 C -0.11146 0.61624 1.10312
 N253 N -0.08835 0.60576 1.11738
 C254 C -0.07125 0.58575 1.10514
 C255 C -0.07692 0.57513 1.07671
 C256 C -0.10059 0.58562 1.06158
 C257 C -0.11780 0.60619 1.07457
 H258 H -0.19204 0.67184 1.11606
 H259 H -0.11926 0.68649 1.17245
 H260 H -0.05331 0.57811 1.11765
 H261 H -0.10534 0.57852 1.03934
 H262 H -0.16699 0.63328 1.09174
 H263 H -0.13526 0.61454 1.06189
 C264 C -0.11598 0.34203 0.89422
 C265 C -0.13897 0.32762 0.90670
 C266 C -0.15358 0.30686 0.89033
 C267 C -0.14534 0.30005 0.86159
 C268 C -0.12204 0.31468 0.85002
 N269 N -0.10816 0.33495 0.86639
 C270 C -0.09946 0.36407 0.91075
 N271 N -0.07266 0.37036 0.90203
 C272 C -0.05607 0.39000 0.91633
 C273 C -0.06623 0.40457 0.94116
 C274 C -0.09394 0.39881 0.95020
 C275 C -0.11064 0.37880 0.93503
 H276 H -0.17100 0.29584 0.90052
 H277 H -0.11488 0.31023 0.82798
 H278 H -0.03479 0.39380 0.90863
 H279 H -0.10285 0.41011 0.96878
 H280 H -0.14538 0.33166 0.92906
 H281 H -0.13215 0.37540 0.94215
 C282 C 0.10245 0.65183 0.88983
 C283 C 0.08706 0.67040 0.87189
 C284 C 0.10124 0.69177 0.85685
 C285 C 0.13072 0.69481 0.85964
 C286 C 0.14539 0.67558 0.87750
 N287 N 0.13111 0.65478 0.89182
 C288 C 0.08828 0.62903 0.90639
 N289 N 0.10247 0.60449 0.91203
 C290 C 0.09062 0.58270 0.92713
 C291 C 0.06286 0.58498 0.93775
 C292 C 0.04814 0.61039 0.93261
 C293 C 0.06068 0.63233 0.91696
 H294 H 0.08901 0.70609 0.84338
 H295 H 0.16817 0.67689 0.87994
 H296 H 0.10276 0.56351 0.93042
 H297 H 0.02706 0.61357 0.94112
 H298 H 0.06435 0.66829 0.86915
 H299 H 0.04906 0.65188 0.91379
 C300 C 1.13823 0.12077 0.35687
 C301 C 1.16346 0.10990 0.34530
 C302 C 1.17855 0.12572 0.32496
 C303 C 1.16892 0.15264 0.31608
 C304 C 1.14403 0.16310 0.32905
 N305 N 1.12958 0.14712 0.34864
 C306 C 1.12067 0.10451 0.37772
 N307 N 1.10147 0.11880 0.39440
 C308 C 1.08406 0.10534 0.41342
 C309 C 1.08530 0.07563 0.41646
 C310 C 1.10481 0.06046 0.39940
 C311 C 1.12238 0.07471 0.37999
 H312 H 1.19779 0.11660 0.31642
 H313 H 1.13560 0.18371 0.32349
 H314 H 1.06939 0.11787 0.42626
 H315 H 1.10597 0.03744 0.40049
 H316 H 1.17182 0.08956 0.35195
 H317 H 1.13645 0.06224 0.36645
 C318 C 1.10759 -0.12467 0.64119
 C319 C 1.09409 -0.14739 0.65524
 C320 C 1.10784 -0.16118 0.67821
 C321 C 1.13507 -0.15244 0.68764
 C322 C 1.14790 -0.12977 0.67265
 N323 N 1.13399 -0.11665 0.65041
 C324 C 1.09360 -0.10802 0.61778
 N325 N 1.10394 -0.08157 0.61189
 C326 C 1.09188 -0.06438 0.59159
 C327 C 1.06774 -0.07348 0.57575
 C328 C 1.05713 -0.10096 0.58089
 C329 C 1.07001 -0.11831 0.60172
 H330 H 1.09670 -0.17839 0.68870
 H331 H 1.16878 -0.12201 0.67862
 H332 H 1.10118 -0.04361 0.58791
 H333 H 1.03849 -0.10885 0.56928
 H334 H 1.07283 -0.15411 0.64935
 H335 H 1.06146 -0.13944 0.60495
 C336 C 0.88501 -0.11924 0.34354
 C337 C 0.89070 -0.14799 0.33729
 C338 C 0.87463 -0.16256 0.31597
 C339 C 0.85271 -0.14871 0.30069
 C340 C 0.84782 -0.11982 0.30774
 N341 N 0.86394 -0.10608 0.32844
 C342 C 0.90182 -0.10249 0.36534
 N343 N 0.90384 -0.07372 0.36221
 C344 C 0.91903 -0.05687 0.38117
 C345 C 0.93317 -0.06883 0.40523
 C346 C 0.93100 -0.09837 0.40920
 C347 C 0.91540 -0.11526 0.38934
 H348 H 0.87960 -0.18468 0.31168
 H349 H 0.83152 -0.10782 0.29672
 H350 H 0.91980 -0.03411 0.37761
 H351 H 0.94164 -0.10843 0.42746
 H352 H 0.90776 -0.15907 0.34820
 H353 H 0.91374 -0.13793 0.39309
 C354 C 0.87760 0.11849 0.63886
 C355 C 0.85032 0.10966 0.64669
 C356 C 0.83638 0.12368 0.66945
 C357 C 0.84932 0.14676 0.68457
 C358 C 0.87631 0.15556 0.67518
 N359 N 0.88952 0.14137 0.65303
 C360 C 0.89385 0.10345 0.61580
 N361 N 0.91464 0.11773 0.60148
 C362 C 0.93088 0.10500 0.58064
 C363 C 0.92675 0.07607 0.57327
 C364 C 0.90559 0.06094 0.58797
 C365 C 0.88920 0.07445 0.60918
 H366 H 0.81546 0.11614 0.67497
 H367 H 0.88730 0.17334 0.68556
 H368 H 0.94686 0.11753 0.56978
 H369 H 0.90219 0.03841 0.58366
 H370 H 0.83959 0.09226 0.63530
 H371 H 0.87370 0.06198 0.62079
 C372 C 0.36800 1.13310 0.11575
 C373 C 0.35326 1.15593 0.10321
 C374 C 0.33287 1.17033 0.11957
 C375 C 0.32687 1.16204 0.14834
 C376 C 0.34232 1.13935 0.16016
 N377 N 0.36202 1.12560 0.14377
 C378 C 0.38866 1.11576 0.09904
 N379 N 0.39496 1.08920 0.10878
 C380 C 0.41279 1.07142 0.09427
 C381 C 0.42549 1.08000 0.06807
 C382 C 0.41988 1.10757 0.05800
 C383 C 0.40165 1.12551 0.07341
 H384 H 0.32134 1.18742 0.10928
 H385 H 0.33871 1.13230 0.18229
 H386 H 0.41696 1.05060 0.10322
 H387 H 0.42909 1.11508 0.03785
 H388 H 0.35655 1.16218 0.08077
 H389 H 0.39800 1.14669 0.06520
 C390 C 0.63806 1.12025 -0.12913
 C391 C 0.64440 1.14873 -0.12155
 C392 C 0.66673 1.16265 -0.13530
 C393 C 0.68280 1.14837 -0.15660
 C394 C 0.67546 1.12007 -0.16387
 N395 N 0.65382 1.10687 -0.14995
 C396 C 0.61602 1.10371 -0.11383
 N397 N 0.61856 1.07484 -0.11279
 C398 C 0.59995 1.05816 -0.09819
 C399 C 0.57702 1.07044 -0.08340
 C400 C 0.57350 1.10008 -0.08488
 C401 C 0.59289 1.11677 -0.10006
 H402 H 0.67151 1.18450 -0.12902
 H403 H 0.68734 1.10809 -0.17996
 H404 H 0.60314 1.03534 -0.09809
 H405 H 0.55613 1.11043 -0.07375
 H406 H 0.63298 1.15997 -0.10455
 H407 H 0.58964 1.13954 -0.10099
 C408 C 0.34900 0.87587 -0.12603
 C409 C 0.34395 0.87855 -0.15630
 C410 C 0.32117 0.86402 -0.16945
 C411 C 0.30338 0.84678 -0.15264
 C412 C 0.30934 0.84441 -0.12254
 N413 N 0.33148 0.85900 -0.11016
 C414 C 0.37181 0.89201 -0.11051
 N415 N 0.36887 0.89791 -0.08138
 C416 C 0.38846 0.91316 -0.06564
 C417 C 0.41294 0.92358 -0.07921
 C418 C 0.41667 0.91726 -0.10914
 C419 C 0.39625 0.90150 -0.12482
 H420 H 0.31744 0.86644 -0.19276
 H421 H 0.29604 0.83164 -0.10863
 H422 H 0.38451 0.91766 -0.04270
 H423 H 0.43551 0.92423 -0.12038
 H424 H 0.35683 0.89231 -0.16964
 H425 H 0.39988 0.89657 -0.14772
 C426 C 0.63676 0.87316 0.11249
 C427 C 0.64364 0.84485 0.10514
 C428 C 0.66595 0.83151 0.11970
 C429 C 0.68168 0.84619 0.14151
 C430 C 0.67398 0.87437 0.14835
 N431 N 0.65221 0.88694 0.13379
 C432 C 0.61428 0.88914 0.09688
 N433 N 0.61442 0.91813 0.09907
 C434 C 0.59525 0.93455 0.08478
 C435 C 0.57438 0.92187 0.06665
 C436 C 0.57340 0.89201 0.06452
 C437 C 0.59310 0.87558 0.07970
 H438 H 0.67091 0.80977 0.11360
 H439 H 0.68545 0.88671 0.16482
 H440 H 0.59686 0.95751 0.08693
 H441 H 0.55726 0.88137 0.05124
 H442 H 0.63262 0.83316 0.08787
 H443 H 0.59143 0.85264 0.07798
   
