data_POSCAR
  _audit_creation_date              2014-09-24
  _audit_creation_method            'ToBaCCo'
  _symmetry_space_group_name_H-M    'P1'
  _symmetry_Int_Tables_number       1
  _symmetry_cell_setting            triclinic
  loop_
  _symmetry_equiv_pos_as_xyz
 x,y,z
_cell_length_a 32.3371
_cell_length_b 32.3619
_cell_length_c 32.4628
_cell_angle_alpha 90.026600
_cell_angle_beta 90.061100
_cell_angle_gamma 89.936900
loop_
  _atom_site_label
  _atom_site_type_symbol
  _atom_site_fract_x
  _atom_site_fract_y
  _atom_site_fract_z
C1 C 0.32983 0.39107 1.36266
 C2 C 0.35940 0.39287 1.33114
 C3 C 0.39054 0.36347 1.32921
 C4 C 0.39248 0.33191 1.35875
 C5 C 0.36325 0.33016 1.38990
 C6 C 0.33176 0.35989 1.39187
 C7 C 0.29499 0.41414 1.37088
 N8 N 0.27612 0.39761 1.40426
 C9 C 0.29806 0.36447 1.41740
 C10 C 0.37137 0.29530 1.41282
 N11 N 0.40471 0.27618 1.39625
 C12 C 0.41795 0.29802 1.36321
 C13 C 0.41346 0.37157 1.29443
 N14 N 0.39692 0.40505 1.27554
 C15 C 0.36390 0.41838 1.29748
 H16 H 0.28367 0.44031 1.35337
 H17 H 0.28961 0.34466 1.44292
 H18 H 0.35380 0.28414 1.43893
 H19 H 0.44349 0.28938 1.34342
 H20 H 0.43958 0.35394 1.28314
 H21 H 0.34415 0.44406 1.28902
 C22 C 1.17067 0.61056 0.86501
 C23 C 1.14088 0.60863 0.83364
 C24 C 1.10965 0.63793 0.83184
 C25 C 1.10782 0.66951 0.86138
 C26 C 1.13727 0.67142 0.89238
 C27 C 1.16890 0.64178 0.89422
 C28 C 1.20559 0.58754 0.87304
 N29 N 1.22471 0.60411 0.90631
 C30 C 1.20282 0.63725 0.91957
 C31 C 1.12913 0.70630 0.91532
 N32 N 1.09556 0.72522 0.89890
 C33 C 1.08222 0.70327 0.86594
 C34 C 1.08652 0.62971 0.79716
 N35 N 1.10305 0.59627 0.77821
 C36 C 1.13625 0.58307 0.80000
 H37 H 1.21678 0.56136 0.85547
 H38 H 1.21144 0.65707 0.94507
 H39 H 1.14681 0.71758 0.94135
 H40 H 1.05650 0.71175 0.84626
 H41 H 1.06029 0.64726 0.78596
 H42 H 1.15604 0.55746 0.79146
 C43 C 0.67074 -0.11008 0.13506
 C44 C 0.64101 -0.10822 0.16642
 C45 C 0.60984 -0.13753 0.16812
 C46 C 0.60803 -0.16904 0.13853
 C47 C 0.63744 -0.17089 0.10753
 C48 C 0.66900 -0.14124 0.10578
 C49 C 0.70561 -0.08706 0.12712
 N50 N 0.72472 -0.10356 0.09384
 C51 C 0.70288 -0.13667 0.08048
 C52 C 0.62936 -0.20575 0.08456
 N53 N 0.59587 -0.22471 0.10096
 C54 C 0.58253 -0.20280 0.13393
 C55 C 0.58677 -0.12944 0.20283
 N56 N 0.60326 -0.09607 0.22189
 C57 C 0.63639 -0.08278 0.20014
 H58 H 0.71677 -0.06092 0.14476
 H59 H 0.71152 -0.15643 0.05495
 H60 H 0.64704 -0.21701 0.05854
 H61 H 0.55689 -0.21132 0.15361
 H62 H 0.56061 -0.14704 0.21397
 H63 H 0.65614 -0.05721 0.20879
 C64 C -0.17070 1.10895 -0.36286
 C65 C -0.14110 1.10716 -0.33131
 C66 C -0.10994 1.13647 -0.32945
 C67 C -0.10799 1.16791 -0.35908
 C68 C -0.13726 1.16967 -0.39027
 C69 C -0.16880 1.14003 -0.39217
 C70 C -0.20555 1.08593 -0.37102
 N71 N -0.22447 1.10238 -0.40446
 C72 C -0.20254 1.13543 -0.41771
 C73 C -0.12910 1.20445 -0.41328
 N74 N -0.09570 1.22347 -0.39672
 C75 C -0.08248 1.20168 -0.36361
 C76 C -0.08701 1.12842 -0.29460
 N77 N -0.10357 1.09507 -0.27561
 C78 C -0.13662 1.08177 -0.29755
 H79 H -0.21683 1.05984 -0.35343
 H80 H -0.21103 1.15515 -0.44332
 H81 H -0.14667 1.21560 -0.43945
 H82 H -0.05691 1.21027 -0.34381
 H83 H -0.06088 1.14602 -0.28332
 H84 H -0.15640 1.05620 -0.28901
 C85 C 0.66922 0.61057 0.63557
 C86 C 0.63949 0.60896 0.66693
 C87 C 0.60842 0.63844 0.66862
 C88 C 0.60671 0.66988 0.63896
 C89 C 0.63612 0.67146 0.60795
 C90 C 0.66757 0.64164 0.60625
 C91 C 0.70403 0.58739 0.62770
 N92 N 0.72324 0.60369 0.59443
 C93 C 0.70147 0.63684 0.58100
 C94 C 0.62818 0.70629 0.58490
 N95 N 0.59478 0.72551 0.60125
 C96 C 0.58134 0.70380 0.63428
 C97 C 0.58537 0.63055 0.70337
 N98 N 0.60178 0.59713 0.72246
 C99 C 0.63484 0.58362 0.70069
 H100 H 0.71516 0.56127 0.64538
 H101 H 0.71022 0.65649 0.55548
 H102 H 0.64591 0.71735 0.55885
 H103 H 0.55573 0.71255 0.65392
 H104 H 0.55928 0.64831 0.71452
 H105 H 0.65453 0.55797 0.70934
 C106 C 0.82911 0.39042 0.13796
 C107 C 0.85874 0.39191 0.16951
 C108 C 0.88977 0.36238 0.17124
 C109 C 0.89155 0.33101 0.14147
 C110 C 0.86226 0.32955 0.11030
 C111 C 0.83086 0.35942 0.10853
 C112 C 0.79438 0.41373 0.12986
 N113 N 0.77540 0.39752 0.09633
 C114 C 0.79717 0.36435 0.08298
 C115 C 0.87028 0.29483 0.08710
 N116 N 0.90362 0.27553 0.10353
 C117 C 0.91694 0.29711 0.13675
 C118 C 0.91282 0.37021 0.20606
 N119 N 0.89646 0.40364 0.22517
 C120 C 0.86343 0.41721 0.20334
 H121 H 0.78324 0.43986 0.14754
 H122 H 0.78861 0.34478 0.05727
 H123 H 0.85266 0.28390 0.06087
 H124 H 0.94250 0.28829 0.15648
 H125 H 0.93892 0.35243 0.21721
 H126 H 0.84381 0.44294 0.21196
 C127 C 0.32850 0.10851 0.86185
 C128 C 0.35808 0.10688 0.83032
 C129 C 0.38918 0.13626 0.82862
 C130 C 0.39109 0.16762 0.85839
 C131 C 0.36186 0.16921 0.88953
 C132 C 0.33039 0.13951 0.89129
 C133 C 0.29369 0.08541 0.86993
 N134 N 0.27482 0.10173 0.90344
 C135 C 0.29672 0.13478 0.91680
 C136 C 0.36997 0.20393 0.91267
 N137 N 0.40329 0.22311 0.89625
 C138 C 0.41651 0.20142 0.86309
 C139 C 0.41214 0.12837 0.79381
 N140 N 0.39567 0.09504 0.77466
 C141 C 0.36264 0.08159 0.79646
 H142 H 0.28243 0.05934 0.85225
 H143 H 0.28826 0.15441 0.94249
 H144 H 0.35242 0.21501 0.93885
 H145 H 0.44204 0.21017 0.84338
 H146 H 0.43826 0.14605 0.78269
 H147 H 0.34294 0.05598 0.78779
 C148 C 0.17064 0.89041 0.36452
 C149 C 0.14077 0.89219 0.33324
 C150 C 0.10964 0.86285 0.33161
 C151 C 0.10801 0.83137 0.36123
 C152 C 0.13755 0.82961 0.39214
 C153 C 0.16908 0.85930 0.39381
 C154 C 0.20554 0.91347 0.37234
 N155 N 0.22484 0.89702 0.40556
 C156 C 0.20310 0.86392 0.41901
 C157 C 0.12963 0.79475 0.41512
 N158 N 0.09613 0.77568 0.39882
 C159 C 0.08261 0.79756 0.36590
 C160 C 0.08643 0.87083 0.29693
 N161 N 0.10281 0.90419 0.27782
 C162 C 0.13600 0.91756 0.29950
 H163 H 0.21660 0.93958 0.35464
 H164 H 0.21189 0.84418 0.44449
 H165 H 0.14743 0.78352 0.44109
 H166 H 0.05690 0.78894 0.34632
 H167 H 0.06028 0.85316 0.28583
 H168 H 0.15571 0.94313 0.29079
 Zn169 Zn 0.04944 0.97458 0.01105
 Zn170 Zn 0.00976 1.04972 -0.02477
 Zn171 Zn -0.03252 0.96754 -0.03165
 Zn172 Zn -0.02612 1.01023 0.05012
 O173 O 0.00009 1.00047 0.00114
 O174 O 0.09303 1.00305 -0.00765
 O175 O -0.01480 1.05265 -0.07400
 O176 O -0.00782 0.91957 -0.04504
 O177 O 0.06354 1.05883 -0.03429
 O178 O 0.05259 0.92510 -0.01317
 O179 O -0.04608 0.99195 -0.07953
 O180 O -0.07548 0.98562 0.05292
 O181 O -0.00890 1.09339 0.00370
 O182 O -0.08055 0.95387 -0.00741
 O183 O -0.03568 1.06399 0.05923
 O184 O 0.00241 0.99171 0.09371
 O185 O 0.05858 0.96539 0.06470
 C186 C 0.09536 1.03740 -0.02623
 C187 C -0.03705 1.02728 -0.09381
 C188 C 0.02747 0.90523 -0.03562
 C189 C -0.09511 0.96309 0.02768
 C190 C -0.02748 1.09578 0.03798
 C191 C 0.03700 0.97344 0.09626
 Zn192 Zn 0.54985 -0.02511 0.48850
 Zn193 Zn 0.46783 -0.03199 0.53090
 Zn194 Zn 0.51019 0.05010 0.52423
 Zn195 Zn 0.47440 0.01059 0.44916
 O196 O 0.50052 0.00086 0.49824
 O197 O 0.55295 -0.07453 0.51282
 O198 O 0.45418 -0.00754 0.57871
 O199 O 0.56397 0.05921 0.53384
 O200 O 0.49244 -0.07994 0.54440
 O201 O 0.59345 0.00342 0.50722
 O202 O 0.48555 0.05311 0.57339
 O203 O 0.46499 0.06437 0.43999
 O204 O 0.41984 -0.04561 0.50650
 O205 O 0.49164 0.09374 0.49568
 O206 O 0.42498 -0.01391 0.44619
 O207 O 0.50295 -0.00805 0.40567
 O208 O 0.55902 -0.03445 0.43489
 C209 C 0.52773 -0.09433 0.53517
 C210 C 0.46320 0.02778 0.59307
 C211 C 0.59579 0.03781 0.52576
 C212 C 0.47319 0.09615 0.46130
 C213 C 0.40531 -0.03639 0.47138
 C214 C 0.53751 -0.02640 0.40324
 Zn215 Zn 1.01077 0.44911 0.47584
 Zn216 Zn 1.05019 0.52432 0.51174
 Zn217 Zn 0.96829 0.53121 0.46888
 Zn218 Zn 0.97471 0.48870 0.55073
 O219 O 1.00094 0.49838 0.50175
 O220 O 1.06459 0.44004 0.46640
 O221 O 1.05323 0.57374 0.48748
 O222 O 0.95479 0.50672 0.42101
 O223 O 1.09388 0.49585 0.49312
 O224 O 0.98623 0.44606 0.42658
 O225 O 0.99285 0.57916 0.45550
 O226 O 0.92527 0.51328 0.55343
 O227 O 1.05923 0.53366 0.56539
 O228 O 0.92022 0.54490 0.49305
 O229 O 1.00311 0.50735 0.59437
 O230 O 0.96528 0.43494 0.55983
 O231 O 0.99219 0.40550 0.50432
 C232 C 1.09633 0.46149 0.47453
 C233 C 1.02807 0.59355 0.46498
 C234 C 0.96390 0.47136 0.40675
 C235 C 0.90563 0.53574 0.52812
 C236 C 1.03763 0.52569 0.59695
 C237 C 0.97357 0.40314 0.53857
 Zn238 Zn 0.47414 0.49038 0.95017
 Zn239 Zn 0.54980 0.52587 0.98917
 Zn240 Zn 0.46792 0.53304 1.03195
 Zn241 Zn 0.51026 0.45083 1.02506
 O242 O 0.50048 0.50008 0.99914
 O243 O 0.50246 0.50899 0.90656
 O244 O 0.55300 0.57529 1.01344
 O245 O 0.41979 0.54677 1.00775
 O246 O 0.55871 0.53519 0.93552
 O247 O 0.42471 0.51498 0.94743
 O248 O 0.49264 0.58097 1.04531
 O249 O 0.48581 0.44791 1.07429
 O250 O 0.59349 0.49728 1.00776
 O251 O 0.45448 0.50864 1.07985
 O252 O 0.56407 0.44162 1.03451
 O253 O 0.49159 0.40722 0.99658
 O254 O 0.46468 0.43663 0.94102
 C255 C 0.53700 0.52726 0.90398
 C256 C 0.52790 0.59522 1.03588
 C257 C 0.40513 0.53753 0.97268
 C258 C 0.46357 0.47328 1.09411
 C259 C 0.59588 0.46293 1.02635
 C260 C 0.47297 0.40485 0.96229
 C261 C 1.24042 0.41026 0.41990
 C262 C 1.20777 0.42171 0.43372
 C263 C 1.16924 0.43522 0.44904
 C264 C 1.13607 0.44700 0.46125
 C265 C 0.26053 0.59137 0.92168
 C266 C 0.29330 0.57963 0.93507
 C267 C 0.33198 0.56550 0.94957
 C268 C 0.36526 0.55301 0.96082
 C269 C -0.23950 0.90921 0.07853
 C270 C -0.20678 0.92098 0.06521
 C271 C -0.16815 0.93513 0.05077
 C272 C -0.13491 0.94762 0.03955
 C273 C 0.73983 0.08968 0.57994
 C274 C 0.70718 0.07811 0.56622
 C275 C 0.66865 0.06441 0.55104
 C276 C 0.63550 0.05246 0.53896
 C277 C 0.42018 0.24040 0.40891
 C278 C 0.43370 0.20769 0.42053
 C279 C 0.44854 0.16909 0.43439
 C280 C 0.46032 0.13590 0.44650
 C281 C 0.91985 0.25916 0.59058
 C282 C 0.93351 0.29179 0.57898
 C283 C 0.94857 0.33030 0.56523
 C284 C 0.96053 0.36344 0.55324
 C285 C 0.07995 0.76094 -0.08843
 C286 C 0.06628 0.79361 -0.07684
 C287 C 0.05136 0.83220 -0.06299
 C288 C 0.03974 0.86542 -0.05078
 C289 C 0.58035 0.73955 1.08832
 C290 C 0.56673 0.70686 1.07680
 C291 C 0.55182 0.66826 1.06308
 C292 C 0.54019 0.63504 1.05096
 C293 C 0.41034 0.42150 1.23793
 C294 C 0.42199 0.43504 1.20537
 C295 C 0.43595 0.44978 1.16691
 C296 C 0.44828 0.46123 1.13379
 C297 C 0.58976 -0.07971 0.25953
 C298 C 0.57811 -0.06617 0.29210
 C299 C 0.56429 -0.05124 0.33056
 C300 C 0.55224 -0.03937 0.36363
 C301 C -0.09019 1.07875 -0.23790
 C302 C -0.07858 1.06531 -0.20525
 C303 C -0.06466 1.05068 -0.16670
 C304 C -0.05235 1.03930 -0.13353
 C305 C 1.08952 0.57974 0.74063
 C306 C 1.07788 0.56601 0.70810
 C307 C 1.06414 0.55085 0.66968
 C308 C 1.05220 0.53880 0.63661
 C309 C 0.76107 0.59001 0.57838
 C310 C 0.79382 0.57810 0.56523
 C311 C 0.83250 0.56381 0.55098
 C312 C 0.86578 0.55124 0.53989
 C313 C 0.73978 0.41052 1.08072
 C314 C 0.70720 0.42231 1.06694
 C315 C 0.66873 0.43618 1.05169
 C316 C 0.63561 0.44823 1.03955
 C317 C 0.23918 1.08896 -0.08095
 C318 C 0.20660 1.07739 -0.06714
 C319 C 0.16814 1.06378 -0.05179
 C320 C 0.13504 1.05194 -0.03956
 C321 C 0.26071 -0.09019 0.42072
 C322 C 0.29350 -0.07841 0.43392
 C323 C 0.33220 -0.06426 0.44825
 C324 C 0.36548 -0.05179 0.45944
 C325 C 0.57942 -0.23870 0.58846
 C326 C 0.56598 -0.20599 0.57674
 C327 C 0.55133 -0.16736 0.56275
 C328 C 0.53988 -0.13413 0.55042
 C329 C 1.07986 0.73792 0.41226
 C330 C 1.06640 0.70522 0.42385
 C331 C 1.05169 0.66660 0.43768
 C332 C 1.04021 0.63336 0.44986
 C333 C -0.08095 1.23982 0.09061
 C334 C -0.06739 1.20718 0.07882
 C335 C -0.05243 1.16865 0.06485
 C336 C -0.04051 1.13551 0.05273
 C337 C 0.41964 0.26082 0.90984
 C338 C 0.43318 0.29346 0.92157
 C339 C 0.44810 0.33198 0.93546
 C340 C 0.45998 0.36513 0.94755
 C341 C 0.58834 0.58087 0.76013
 C342 C 0.57682 0.56732 0.79273
 C343 C 0.56325 0.55231 0.83121
 C344 C 0.55145 0.54033 0.86432
 C345 C 0.40921 0.07884 0.73696
 C346 C 0.42102 0.06553 0.70434
 C347 C 0.43521 0.05107 0.66583
 C348 C 0.44773 0.03978 0.63272
 C349 C 0.08923 0.92043 0.24015
 C350 C 0.07754 0.93389 0.20754
 C351 C 0.06372 0.94874 0.16905
 C352 C 0.05170 0.96056 0.13593
 C353 C 0.91009 0.41987 0.26284
 C354 C 0.92192 0.43326 0.29545
 C355 C 0.93607 0.44786 0.33395
 C356 C 0.94852 0.45926 0.36707
   
