data_POSCAR
  _audit_creation_date              2014-09-24
  _audit_creation_method            'ToBaCCo'
  _symmetry_space_group_name_H-M    'P1'
  _symmetry_Int_Tables_number       1
  _symmetry_cell_setting            triclinic
  loop_
  _symmetry_equiv_pos_as_xyz
 x,y,z
_cell_length_a 24.8741
_cell_length_b 24.8228
_cell_length_c 60.9803
_cell_angle_alpha 88.176200
_cell_angle_beta 91.638500
_cell_angle_gamma 117.422300
loop_
  _atom_site_label
  _atom_site_type_symbol
  _atom_site_fract_x
  _atom_site_fract_y
  _atom_site_fract_z
C1 C -0.06462 0.05194 0.50742
 C2 C -0.11950 0.00769 0.49367
 C3 C -0.10707 -0.02829 0.48013
 C4 C -0.04036 -0.01659 0.48207
 C5 C -0.04306 0.01063 0.51971
 C6 C -0.03060 -0.02541 0.50670
 C7 C -0.01602 0.08694 0.49052
 C8 C -0.00304 0.05181 0.47730
 H9 H -0.16463 0.00243 0.49550
 H10 H -0.02732 -0.04386 0.47147
 H11 H -0.04399 0.00574 0.53744
 H12 H 0.00595 0.13605 0.48903
 C13 C 0.97911 -0.10081 0.18919
 C14 C 1.01733 -0.11138 0.17186
 C15 C 1.05557 -0.05944 0.16075
 C16 C 1.05097 -0.00254 0.16769
 C17 C 1.02350 -0.05371 0.20286
 C18 C 1.06369 0.00064 0.19134
 C19 C 0.94646 -0.07057 0.17623
 C20 C 0.98342 -0.01958 0.16487
 H21 H 1.01938 -0.15354 0.17008
 H22 H 1.08016 0.03841 0.15787
 H23 H 1.02478 -0.05955 0.22050
 H24 H 0.89756 -0.09157 0.17441
 C25 C 0.08568 1.03720 0.85019
 C26 C 0.09266 1.08947 0.83418
 C27 C 0.04226 1.07730 0.82134
 C28 C -0.01067 1.01373 0.82606
 C29 C 0.02955 1.02465 0.86329
 C30 C -0.02078 1.01245 0.85091
 C31 C 0.06613 0.98231 0.83556
 C32 C 0.01617 0.96981 0.82297
 H33 H 0.13203 1.13327 0.83392
 H34 H -0.05247 1.00114 0.81609
 H35 H 0.03087 1.02948 0.88093
 H36 H 0.09247 0.95790 0.83421
 O37 O 0.61116 0.05791 -0.01448
 O38 O 0.51078 0.06364 0.02837
 O39 O 0.62026 0.07265 0.02815
 O40 O 0.50929 0.06278 -0.01418
 O41 O 0.46298 -0.03707 -0.01068
 O42 O 0.57912 -0.02725 0.03065
 O43 O 0.47002 -0.03598 0.03203
 O44 O 0.56474 -0.04199 -0.01140
 Cu45 Cu 0.56748 0.07417 0.00678
 Cu46 Cu 0.51485 -0.04539 0.01058
 C47 C 0.60400 0.00624 -0.02046
 C48 C 0.47267 0.01410 0.03737
 C49 C 0.61967 0.02489 0.03641
 C50 C 0.46704 0.01167 -0.01968
 O51 O -0.07274 0.43886 0.68528
 O52 O -0.06656 0.55065 0.64215
 O53 O -0.07558 0.44207 0.64262
 O54 O -0.07770 0.54203 0.68495
 O55 O 0.02222 0.58939 0.68626
 O56 O 0.02418 0.48475 0.64466
 O57 O 0.03319 0.59314 0.64399
 O58 O 0.02703 0.48604 0.68739
 Cu59 Cu -0.08303 0.48916 0.66365
 Cu60 Cu 0.03647 0.54265 0.66584
 C61 C -0.02321 0.44353 0.69358
 C62 C -0.01497 0.59075 0.63557
 C63 C -0.02582 0.44572 0.63641
 C64 C -0.02863 0.58315 0.69269
 O65 O 0.46381 0.40406 0.31322
 O66 O 0.55107 0.50463 0.35840
 O67 O 0.44992 0.40180 0.35549
 O68 O 0.56668 0.50082 0.31666
 O69 O 0.51724 0.55441 0.31063
 O70 O 0.40101 0.45599 0.34984
 O71 O 0.50170 0.55827 0.35247
 O72 O 0.41439 0.45787 0.30776
 Cu73 Cu 0.51265 0.44733 0.33669
 Cu74 Cu 0.45372 0.51210 0.32976
 C75 C 0.42436 0.41415 0.30267
 C76 C 0.54206 0.54956 0.36284
 C77 C 0.40494 0.41121 0.35904
 C78 C 0.56167 0.54415 0.30682
 C79 C -0.12431 0.10248 0.52411
 C80 C -0.12624 0.14502 0.53823
 C81 C -0.07541 0.18191 0.55108
 C82 C -0.02307 0.17420 0.55005
 C83 C -0.02108 0.13203 0.53603
 C84 C -0.07146 0.09543 0.52283
 C85 C -0.07879 0.22632 0.56595
 C86 C -0.02966 0.27694 0.57223
 C87 C -0.03032 0.32050 0.58821
 C88 C 0.02492 0.36179 0.59781
 C89 C 0.02674 0.40287 0.61334
 C90 C -0.02677 0.40367 0.61956
 C91 C -0.08192 0.36324 0.60964
 C92 C -0.08374 0.32229 0.59409
 H93 H -0.16401 0.07623 0.51420
 H94 H -0.16734 0.14974 0.53891
 H95 H 0.01630 0.19986 0.56028
 H96 H 0.02034 0.12788 0.53546
 H97 H -0.12315 0.21623 0.57174
 H98 H 0.01408 0.28678 0.56580
 H99 H 0.06685 0.36176 0.59349
 H100 H 0.06996 0.43356 0.62062
 H101 H -0.12394 0.36315 0.61387
 H102 H -0.12708 0.29286 0.58670
 C103 C 0.92016 0.78469 0.19937
 C104 C 0.87503 0.73762 0.21165
 C105 C 0.84216 0.75034 0.22723
 C106 C 0.85700 0.81110 0.23102
 C107 C 0.90150 0.85772 0.21883
 C108 C 0.93375 0.84558 0.20274
 C109 C 0.79346 0.70029 0.23971
 C110 C 0.74549 0.70531 0.24694
 C111 C 0.69777 0.66019 0.26124
 C112 C 0.64545 0.66690 0.26429
 C113 C 0.60105 0.62888 0.27889
 C114 C 0.60797 0.58316 0.29086
 C115 C 0.65988 0.57569 0.28762
 C116 C 0.70449 0.61393 0.27303
 H117 H 0.94302 0.77269 0.18713
 H118 H 0.86483 0.69108 0.20864
 H119 H 0.83455 0.82304 0.24352
 H120 H 0.91059 0.90395 0.22187
 H121 H 0.79695 0.65876 0.24244
 H122 H 0.74042 0.74511 0.24211
 H123 H 0.63922 0.70235 0.25554
 H124 H 0.56155 0.63574 0.28094
 H125 H 0.66660 0.54096 0.29667
 H126 H 0.74462 0.60795 0.27160
 C127 C 0.19609 0.09533 -0.13537
 C128 C 0.24283 0.09799 -0.12136
 C129 C 0.23358 0.04962 -0.10681
 C130 C 0.17608 -0.00097 -0.10609
 C131 C 0.12953 -0.00362 -0.11998
 C132 C 0.13857 0.04430 -0.13485
 C133 C 0.28375 0.05430 -0.09199
 C134 C 0.28826 0.00553 -0.08386
 C135 C 0.33593 0.00840 -0.06801
 C136 C 0.32750 -0.04513 -0.05672
 C137 C 0.37021 -0.04457 -0.04118
 C138 C 0.42240 0.00969 -0.03662
 C139 C 0.43156 0.06297 -0.04825
 C140 C 0.38912 0.06238 -0.06383
 H141 H 0.20594 0.13321 -0.14651
 H142 H 0.28666 0.13777 -0.12205
 H143 H 0.16627 -0.03822 -0.09456
 H144 H 0.08581 -0.04351 -0.11910
 H145 H 0.31742 0.09957 -0.08788
 H146 H 0.25466 -0.03931 -0.08862
 H147 H 0.28724 -0.08749 -0.05972
 H148 H 0.36197 -0.08640 -0.03255
 H149 H 0.47176 0.10543 -0.04533
 H150 H 0.39887 0.10436 -0.07254
 C151 C -0.05853 0.86429 0.50993
 C152 C -0.05874 0.81542 0.52205
 C153 C -0.02173 0.82535 0.54085
 C154 C 0.01729 0.88557 0.54681
 C155 C 0.01745 0.93429 0.53466
 C156 C -0.02143 0.92407 0.51641
 C157 C -0.02937 0.77244 0.55491
 C158 C 0.01206 0.77446 0.56986
 C159 C 0.00270 0.72418 0.58555
 C160 C 0.05389 0.72353 0.59547
 C161 C 0.04780 0.67976 0.61144
 C162 C -0.00984 0.63562 0.61809
 C163 C -0.06136 0.63582 0.60811
 C164 C -0.05523 0.67977 0.59201
 H165 H -0.09046 0.85501 0.49649
 H166 H -0.08970 0.76963 0.51723
 H167 H 0.04536 0.89564 0.56148
 H168 H 0.04590 0.98007 0.54014
 H169 H -0.07072 0.73056 0.55278
 H170 H 0.05568 0.81436 0.57056
 H171 H 0.09895 0.75742 0.59096
 H172 H 0.08855 0.68104 0.61876
 H173 H -0.10634 0.60261 0.61296
 H174 H -0.09586 0.67978 0.58522
 C175 C 0.13670 0.03803 0.22199
 C176 C 0.18525 0.08458 0.23267
 C177 C 0.21193 0.14364 0.22386
 C178 C 0.19034 0.15501 0.20357
 C179 C 0.14189 0.10804 0.19263
 C180 C 0.11346 0.04872 0.20184
 C181 C 0.26173 0.19131 0.23657
 C182 C 0.27457 0.25000 0.23567
 C183 C 0.31708 0.29435 0.25149
 C184 C 0.30735 0.34333 0.25730
 C185 C 0.34283 0.38283 0.27367
 C186 C 0.38917 0.37437 0.28448
 C187 C 0.40076 0.32700 0.27796
 C188 C 0.36534 0.28758 0.26156
 H189 H 0.11935 -0.00677 0.22945
 H190 H 0.20165 0.07437 0.24810
 H191 H 0.21080 0.19993 0.19606
 H192 H 0.12573 0.11946 0.17744
 H193 H 0.28401 0.17594 0.24891
 H194 H 0.24835 0.26467 0.22485
 H195 H 0.27088 0.34990 0.24965
 H196 H 0.33310 0.41927 0.27815
 H197 H 0.43681 0.31994 0.28570
 H198 H 0.37575 0.25175 0.25692
 C199 C 0.89672 0.04277 -0.14633
 C200 C 0.85088 0.04518 -0.13427
 C201 C 0.83072 0.01106 -0.11469
 C202 C 0.85645 -0.02676 -0.10771
 C203 C 0.90219 -0.02902 -0.11975
 C204 C 0.92353 0.00655 -0.13893
 C205 C 0.78714 0.01989 -0.10100
 C206 C 0.75249 -0.02138 -0.08604
 C207 C 0.71309 -0.01176 -0.07052
 C208 C 0.66732 -0.06297 -0.06024
 C209 C 0.63173 -0.05676 -0.04427
 C210 C 0.64126 0.00103 -0.03799
 C211 C 0.68671 0.05259 -0.04839
 C212 C 0.72248 0.04633 -0.06449
 H213 H 0.91367 0.07208 -0.16062
 H214 H 0.83243 0.07522 -0.13987
 H215 H 0.84385 -0.05236 -0.09241
 H216 H 0.92274 -0.05678 -0.11359
 H217 H 0.78367 0.06155 -0.10347
 H218 H 0.75196 -0.06524 -0.08515
 H219 H 0.65939 -0.10817 -0.06443
 H220 H 0.59708 -0.09754 -0.03665
 H221 H 0.69528 0.09770 -0.04384
 H222 H 0.75840 0.08700 -0.07160
 C223 C 0.09250 -0.10251 0.13134
 C224 C 0.13808 -0.09793 0.11731
 C225 C 0.19530 -0.04664 0.11751
 C226 C 0.20629 -0.00042 0.13241
 C227 C 0.16072 -0.00489 0.14632
 C228 C 0.10329 -0.05576 0.14587
 C229 C 0.24268 -0.04434 0.10265
 C230 C 0.29274 0.00682 0.09730
 C231 C 0.33998 0.00823 0.08258
 C232 C 0.37836 0.06293 0.07174
 C233 C 0.42263 0.06562 0.05742
 C234 C 0.42955 0.01359 0.05375
 C235 C 0.39251 -0.04056 0.06518
 C236 C 0.34855 -0.04318 0.07950
 H237 H 0.04865 -0.14221 0.13064
 H238 H 0.12849 -0.13454 0.10618
 H239 H 0.25022 0.03873 0.13383
 H240 H 0.17107 0.03107 0.15781
 H241 H 0.23438 -0.08656 0.09525
 H242 H 0.29857 0.05002 0.10299
 H243 H 0.37335 0.10346 0.07406
 H244 H 0.45052 0.10803 0.04890
 H245 H 0.39719 -0.08131 0.06297
 H246 H 0.32188 -0.08553 0.08821
 C247 C 0.79165 0.92595 0.45990
 C248 C 0.74768 0.88083 0.44686
 C249 C 0.75681 0.83291 0.43934
 C250 C 0.81198 0.83236 0.44442
 C251 C 0.85598 0.87747 0.45732
 C252 C 0.84631 0.92454 0.46568
 C253 C 0.70950 0.78609 0.42539
 C254 C 0.70263 0.72929 0.42406
 C255 C 0.65842 0.68251 0.40921
 C256 C 0.66707 0.63190 0.40470
 C257 C 0.62851 0.58789 0.39008
 C258 C 0.58005 0.59331 0.37969
 C259 C 0.57003 0.64280 0.38477
 C260 C 0.60855 0.68680 0.39940
 H261 H 0.78267 0.96220 0.46511
 H262 H 0.70615 0.88319 0.44275
 H263 H 0.82208 0.79784 0.43811
 H264 H 0.89722 0.87434 0.46061
 H265 H 0.67994 0.79962 0.41608
 H266 H 0.73199 0.71638 0.43385
 H267 H 0.70470 0.62702 0.41215
 H268 H 0.63744 0.55028 0.38659
 H269 H 0.53273 0.64804 0.37721
 H270 H 0.59871 0.72371 0.40289
 C271 C 0.09082 0.16998 0.79632
 C272 C 0.08677 0.21215 0.78147
 C273 C 0.03027 0.20741 0.77486
 C274 C -0.02236 0.15821 0.78294
 C275 C -0.01836 0.11609 0.79777
 C276 C 0.03825 0.12167 0.80502
 C277 C 0.02856 0.25370 0.75918
 C278 C -0.01969 0.26395 0.75590
 C279 C -0.01983 0.31116 0.74036
 C280 C -0.07516 0.30441 0.73132
 C281 C -0.07680 0.34765 0.71635
 C282 C -0.02304 0.39886 0.71028
 C283 C 0.03206 0.40646 0.71985
 C284 C 0.03368 0.36338 0.73476
 H285 H 0.13537 0.17522 0.80068
 H286 H 0.12816 0.24894 0.77520
 H287 H -0.06696 0.15120 0.77773
 H288 H -0.06028 0.07963 0.80350
 H289 H 0.06955 0.28083 0.75018
 H290 H -0.06121 0.23668 0.76456
 H291 H -0.11715 0.26501 0.73558
 H292 H -0.11998 0.34059 0.70933
 H293 H 0.07429 0.44577 0.71578
 H294 H 0.07694 0.37175 0.74202
 C295 C 0.97470 0.01211 0.12626
 C296 C 0.93982 0.02210 0.10974
 C297 C 0.88845 0.02848 0.11502
 C298 C 0.87430 0.02762 0.13725
 C299 C 0.90865 0.01692 0.15368
 C300 C 0.95789 0.00716 0.14828
 C301 C 0.84654 0.02833 0.09721
 C302 C 0.80820 0.05195 0.09932
 C303 C 0.76110 0.04463 0.08263
 C304 C 0.74406 0.09088 0.07956
 C305 C 0.69817 0.08438 0.06450
 C306 C 0.66722 0.03069 0.05264
 C307 C 0.68335 -0.01625 0.05604
 C308 C 0.73018 -0.00921 0.07080
 H309 H 1.01193 0.00373 0.12172
 H310 H 0.95144 0.02223 0.09275
 H311 H 0.83439 0.03096 0.14200
 H312 H 0.89466 0.01272 0.17057
 H313 H 0.84669 0.00707 0.08198
 H314 H 0.81180 0.07855 0.11353
 H315 H 0.76666 0.13236 0.08872
 H316 H 0.68646 0.12120 0.06230
 H317 H 0.66027 -0.05805 0.04710
 H318 H 0.74121 -0.04639 0.07328
 C319 C 0.08820 0.06330 0.45707
 C320 C 0.13554 0.09684 0.44259
 C321 C 0.13658 0.14648 0.43048
 C322 C 0.08701 0.15887 0.43182
 C323 C 0.04028 0.12585 0.44632
 C324 C 0.04139 0.07910 0.45957
 C325 C 0.18988 0.18524 0.41690
 C326 C 0.20713 0.24461 0.41324
 C327 C 0.25910 0.28599 0.39961
 C328 C 0.26087 0.34071 0.39193
 C329 C 0.30845 0.38157 0.37900
 C330 C 0.35596 0.36900 0.37359
 C331 C 0.35502 0.31479 0.38162
 C332 C 0.30709 0.27363 0.39449
 H333 H 0.08977 0.02725 0.46711
 H334 H 0.17262 0.08564 0.44152
 H335 H 0.08440 0.19453 0.42190
 H336 H 0.00373 0.13780 0.44758
 H337 H 0.21579 0.16449 0.41045
 H338 H 0.18134 0.26463 0.42038
 H339 H 0.22480 0.35167 0.39576
 H340 H 0.30782 0.42292 0.37315
 H341 H 0.39108 0.30387 0.37779
 H342 H 0.30841 0.23285 0.40053
 C343 C -0.01235 0.93680 0.78425
 C344 C -0.01991 0.89599 0.76767
 C345 C -0.02071 0.84004 0.77281
 C346 C -0.01539 0.82495 0.79491
 C347 C -0.00698 0.86599 0.81137
 C348 C -0.00405 0.92274 0.80613
 C349 C -0.02119 0.80093 0.75487
 C350 C -0.04411 0.74056 0.75722
 C351 C -0.03968 0.70197 0.74012
 C352 C -0.08674 0.64293 0.73774
 C353 C -0.08308 0.60456 0.72225
 C354 C -0.03142 0.62392 0.70925
 C355 C 0.01637 0.68263 0.71193
 C356 C 0.01210 0.72157 0.72712
 H357 H -0.00939 0.98070 0.77983
 H358 H -0.02349 0.90878 0.75075
 H359 H -0.01435 0.78295 0.79946
 H360 H -0.00038 0.85441 0.82817
 H361 H -0.00221 0.82259 0.73929
 H362 H -0.06862 0.71805 0.77193
 H363 H -0.12667 0.62664 0.74778
 H364 H -0.12045 0.55938 0.72061
 H365 H 0.05664 0.69865 0.70210
 H366 H 0.04980 0.76640 0.72903
   
