data_POSCAR
  _audit_creation_date              2014-09-24
  _audit_creation_method            'ToBaCCo'
  _symmetry_space_group_name_H-M    'P1'
  _symmetry_Int_Tables_number       1
  _symmetry_cell_setting            triclinic
  loop_
  _symmetry_equiv_pos_as_xyz
 x,y,z
_cell_length_a 26.5537
_cell_length_b 26.5749
_cell_length_c 28.1744
_cell_angle_alpha 91.194100
_cell_angle_beta 91.348300
_cell_angle_gamma 87.634000
loop_
  _atom_site_label
  _atom_site_type_symbol
  _atom_site_fract_x
  _atom_site_fract_y
  _atom_site_fract_z
C1 C 0.35999 0.42786 1.37604
 C2 C 0.39833 0.43396 1.34387
 C3 C 0.43006 0.39381 1.33178
 C4 C 0.42493 0.34742 1.35321
 C5 C 0.38701 0.34076 1.38543
 C6 C 0.35288 0.38159 1.39617
 C7 C 0.32216 0.46047 1.39029
 N8 N 0.29041 0.43581 1.41775
 C9 C 0.30878 0.38730 1.42202
 C10 C 0.39366 0.29171 1.40115
 N11 N 0.43466 0.26972 1.37944
 C12 C 0.45307 0.30340 1.34958
 C13 C 0.46017 0.40917 1.29606
 N14 N 0.44706 0.45787 1.28650
 C15 C 0.40965 0.47351 1.31591
 H16 H 0.31674 0.49914 1.37916
 H17 H 0.29093 0.35822 1.44114
 H18 H 0.37153 0.27420 1.42752
 H19 H 0.48609 0.29706 1.32804
 H20 H 0.48780 0.38607 1.27697
 H21 H 0.38988 0.50994 1.31482
 C22 C 1.14497 0.58169 0.89184
 C23 C 1.11951 0.57283 0.84854
 C24 C 1.07860 0.60379 0.83499
 C25 C 1.06200 0.64352 0.86528
 C26 C 1.08708 0.65168 0.90819
 C27 C 1.12876 0.62084 0.92145
 C28 C 1.18996 0.56260 0.91056
 N29 N 1.20150 0.58970 0.95053
 C30 C 1.16391 0.62497 0.95776
 C31 C 1.06722 0.69546 0.92797
 N32 N 1.03052 0.71449 0.89828
 C33 C 1.02666 0.68275 0.85994
 C34 C 1.06490 0.58935 0.78935
 N35 N 1.09609 0.55021 0.77549
 C36 C 1.12950 0.53984 0.81140
 H37 H 1.21389 0.53333 0.89449
 H38 H 1.16379 0.65373 0.98558
 H39 H 1.08028 0.71313 0.96069
 H40 H 1.00209 0.68918 0.82926
 H41 H 1.03491 0.60641 0.76768
 H42 H 1.15981 0.51135 0.81000
 C43 C 0.67445 -0.07788 0.12779
 C44 C 0.64560 -0.09137 0.16683
 C45 C 0.61457 -0.13223 0.16207
 C46 C 0.61182 -0.16001 0.11931
 C47 C 0.63861 -0.14545 0.08118
 C48 C 0.66873 -0.10398 0.08508
 C49 C 0.70926 -0.04137 0.11999
 N50 N 0.72194 -0.04435 0.07334
 C51 C 0.69670 -0.08204 0.05202
 C52 C 0.63067 -0.17907 0.04459
 N53 N 0.59979 -0.21448 0.05960
 C54 C 0.58702 -0.20269 0.10513
 C55 C 0.58592 -0.13303 0.20168
 N56 N 0.59740 -0.09346 0.23046
 C57 C 0.63447 -0.06799 0.21007
 H58 H 0.72331 -0.01428 0.14574
 H59 H 0.70022 -0.09420 0.01524
 H60 H 0.64784 -0.17889 0.01009
 H61 H 0.56356 -0.22464 0.12701
 H62 H 0.55520 -0.15775 0.20703
 H63 H 0.64806 -0.03226 0.22298
 C64 C -0.15603 1.08950 -0.36280
 C65 C -0.11618 1.10121 -0.33137
 C66 C -0.08323 1.13773 -0.34295
 C67 C -0.08946 1.16290 -0.38603
 C68 C -0.12872 1.15137 -0.41711
 C69 C -0.16259 1.11445 -0.40534
 C70 C -0.19532 1.05784 -0.35935
 N71 N -0.22603 1.06296 -0.39841
 C72 C -0.20630 1.09751 -0.42692
 C73 C -0.12705 1.18397 -0.45442
 N74 N -0.08819 1.21513 -0.44640
 C75 C -0.06486 1.20229 -0.40471
 C76 C -0.05023 1.14339 -0.30502
 N77 N -0.06226 1.11119 -0.27068
 C78 C -0.10256 1.08515 -0.28642
 H79 H -0.20182 1.03376 -0.32973
 H80 H -0.22291 1.11025 -0.46024
 H81 H -0.15350 1.18615 -0.48424
 H82 H -0.03338 1.22115 -0.38826
 H83 H -0.02020 1.16972 -0.30221
 H84 H -0.12128 1.05742 -0.26633
 C85 C 0.65438 0.58646 0.65571
 C86 C 0.61020 0.59019 0.68185
 C87 C 0.57023 0.62195 0.66747
 C88 C 0.57469 0.65136 0.62694
 C89 C 0.61730 0.64513 0.59967
 C90 C 0.65734 0.61277 0.61419
 C91 C 0.70071 0.56262 0.66391
 N92 N 0.73120 0.57370 0.62800
 C93 C 0.70503 0.60395 0.59721
 C94 C 0.61257 0.67846 0.56324
 N95 N 0.56935 0.70673 0.56875
 C96 C 0.54565 0.69052 0.60757
 C97 C 0.53178 0.61584 0.69872
 N98 N 0.54791 0.58145 0.73131
 C99 C 0.59601 0.56626 0.72174
 H100 H 0.71196 0.54027 0.69435
 H101 H 0.72055 0.62066 0.56632
 H102 H 0.64043 0.68419 0.53659
 H103 H 0.51055 0.70649 0.62114
 H104 H 0.49466 0.63427 0.69743
 H105 H 0.61830 0.53826 0.74128
 C106 C 0.84288 0.40984 0.11720
 C107 C 0.87020 0.41999 0.15909
 C108 C 0.91382 0.39196 0.16990
 C109 C 0.93034 0.35300 0.13906
 C110 C 0.90372 0.34340 0.09719
 C111 C 0.85967 0.37220 0.08607
 C112 C 0.79625 0.42702 0.10111
 N113 N 0.78427 0.40099 0.06071
 C114 C 0.82296 0.36756 0.05101
 C115 C 0.92422 0.29947 0.07772
 N116 N 0.96176 0.28173 0.10732
 C117 C 0.96609 0.31454 0.14463
 C118 C 0.92934 0.40636 0.21492
 N119 N 0.89600 0.44223 0.23147
 C120 C 0.85964 0.45071 0.19771
 H121 H 0.77227 0.45534 0.11850
 H122 H 0.82327 0.34016 0.02200
 H123 H 0.90998 0.27994 0.04641
 H124 H 0.99109 0.30910 0.17519
 H125 H 0.96097 0.39007 0.23503
 H126 H 0.82684 0.47589 0.20175
 C127 C 0.35534 0.06944 0.86729
 C128 C 0.39013 0.08312 0.83363
 C129 C 0.41527 0.12755 0.83988
 C130 C 0.40671 0.15833 0.88019
 C131 C 0.37309 0.14422 0.91369
 C132 C 0.34663 0.10014 0.90676
 C133 C 0.32088 0.03211 0.86760
 N134 N 0.29074 0.04050 0.90551
 C135 C 0.30659 0.08173 0.92991
 C136 C 0.37155 0.18108 0.94862
 N137 N 0.40305 0.21743 0.93688
 C138 C 0.42444 0.20429 0.89488
 C139 C 0.44206 0.13417 0.79953
 N140 N 0.43384 0.09503 0.76901
 C141 C 0.40229 0.06344 0.78952
 H142 H 0.31579 0.00326 0.84039
 H143 H 0.28894 0.09862 0.96095
 H144 H 0.34912 0.18157 0.98024
 H145 H 0.45164 0.22600 0.87698
 H146 H 0.46393 0.16642 0.79188
 H147 H 0.38687 0.03040 0.77249
 C148 C 0.15424 0.90383 0.38124
 C149 C 0.12783 0.90310 0.33763
 C150 C 0.08564 0.87463 0.33173
 C151 C 0.07047 0.84502 0.36912
 C152 C 0.09702 0.84495 0.41213
 C153 C 0.13872 0.87559 0.41856
 C154 C 0.19735 0.92701 0.39593
 N155 N 0.20810 0.91450 0.44166
 C156 C 0.17249 0.88299 0.45586
 C157 C 0.07778 0.80774 0.43920
 N158 N 0.04044 0.78559 0.41356
 C159 C 0.03545 0.80855 0.37103
 C160 C 0.06972 0.87863 0.28488
 N161 N 0.10177 0.90826 0.26250
 C162 C 0.13747 0.92319 0.29435
 H163 H 0.21905 0.95143 0.37477
 H164 H 0.17178 0.86586 0.49036
 H165 H 0.09177 0.79584 0.47375
 H166 H 0.01045 0.79717 0.34220
 H167 H 0.03903 0.85916 0.26770
 H168 H 0.16912 0.94567 0.28615
 Zn169 Zn 0.04234 1.05487 -0.02050
 Zn170 Zn -0.04043 0.98741 -0.04756
 Zn171 Zn 0.05078 0.95025 -0.00087
 Zn172 Zn -0.01959 1.01199 0.05501
 O173 O 0.00679 1.00216 -0.00330
 O174 O 0.02405 1.07577 -0.07895
 O175 O -0.03526 0.92266 -0.06820
 O176 O 0.10161 0.95835 -0.04012
 O177 O -0.03812 1.02587 -0.09907
 O178 O 0.10901 1.03903 -0.02261
 O179 O 0.02356 0.89240 -0.01836
 O180 O 0.01128 0.97195 0.09928
 O181 O -0.10156 0.99609 -0.02348
 O182 O 0.07703 0.94383 0.05780
 O183 O -0.08709 1.00471 0.05432
 O184 O -0.01087 1.07539 0.07595
 O185 O 0.03325 1.10790 0.01881
 C186 C -0.00941 1.06122 -0.10858
 C187 C -0.00849 0.88592 -0.05187
 C188 C 0.12701 0.99771 -0.03990
 C189 C 0.05477 0.94995 0.09710
 C190 C -0.11733 1.00107 0.01873
 C191 C 0.01047 1.11217 0.05789
 Zn192 Zn 0.44717 0.04162 0.50803
 Zn193 Zn 0.54560 0.01868 0.46401
 Zn194 Zn 0.51271 -0.03201 0.55198
 Zn195 Zn 0.46839 -0.05222 0.45951
 O196 O 0.49441 -0.00557 0.49595
 O197 O 0.44834 0.09240 0.46742
 O198 O 0.60205 0.02333 0.50187
 O199 O 0.47627 -0.00450 0.60082
 O200 O 0.52670 0.07997 0.44194
 O201 O 0.45908 0.06787 0.56547
 O202 O 0.57650 -0.01643 0.56530
 O203 O 0.49692 -0.11197 0.47370
 O204 O 0.55954 -0.01963 0.41070
 O205 O 0.51195 -0.10036 0.55093
 O206 O 0.48069 -0.04156 0.39902
 O207 O 0.40201 -0.05534 0.46635
 O208 O 0.38506 0.01565 0.50696
 C209 C 0.48519 0.10587 0.44326
 C210 C 0.60994 0.00682 0.54380
 C211 C 0.46540 0.04267 0.60302
 C212 C 0.51001 -0.12903 0.51412
 C213 C 0.52457 -0.03602 0.38338
 C214 C 0.37124 -0.02568 0.48807
 Zn215 Zn 0.93711 0.47902 0.49078
 Zn216 Zn 1.03976 0.44688 0.52701
 Zn217 Zn 1.02122 0.51417 0.44770
 Zn218 Zn 0.99936 0.55057 0.54374
 O219 O 0.99965 0.49729 0.50352
 O220 O 0.93433 0.41225 0.49202
 O221 O 1.10179 0.44412 0.49940
 O222 O 0.98868 0.48308 0.39960
 O223 O 1.00982 0.38653 0.52045
 O224 O 0.91520 0.49770 0.43290
 O225 O 1.08667 0.50091 0.44355
 O226 O 1.00471 0.60985 0.51333
 O227 O 1.05162 0.45911 0.58937
 O228 O 1.01045 0.58009 0.43929
 O229 O 1.04772 0.54283 0.58864
 O230 O 0.94141 0.55530 0.57568
 O231 O 0.89343 0.50432 0.53276
 C232 C 0.96547 0.37729 0.50491
 C233 C 1.11694 0.47160 0.46642
 C234 C 0.94096 0.48798 0.39625
 C235 C 1.00586 0.61676 0.46873
 C236 C 1.05903 0.50168 0.60951
 C237 C 0.89968 0.53459 0.56763
 Zn238 Zn 0.51544 0.45207 1.04301
 Zn239 Zn 0.47060 0.55629 1.04044
 Zn240 Zn 0.54901 0.52350 0.97127
 Zn241 Zn 0.44727 0.48293 0.96168
 O242 O 0.49552 0.50367 1.00422
 O243 O 0.50460 0.46556 1.10493
 O244 O 0.50439 0.61263 1.03450
 O245 O 0.60488 0.48512 0.98130
 O246 O 0.47315 0.54379 1.10217
 O247 O 0.58125 0.43514 1.03803
 O248 O 0.56442 0.58665 0.98546
 O249 O 0.45993 0.49801 0.90128
 O250 O 0.40543 0.57101 1.02743
 O251 O 0.53744 0.52470 0.90897
 O252 O 0.38734 0.51340 0.97235
 O253 O 0.43829 0.41632 0.96386
 O254 O 0.48333 0.39583 1.02845
 C255 C 0.48697 0.50521 1.12549
 C256 C 0.54334 0.62076 1.01109
 C257 C 0.61445 0.45022 1.01055
 C258 C 0.49866 0.51599 0.88360
 C259 C 0.37410 0.55006 0.99950
 C260 C 0.45374 0.38424 0.99429
 N261 N 1.18796 0.51526 0.44050
 N262 N 1.23484 0.50723 0.42705
 C263 C 1.24669 0.45806 0.43373
 C264 C 1.20523 0.43579 0.45263
 N265 N 1.16928 0.47331 0.45573
 H266 H 1.20030 0.39644 0.45967
 N267 N 0.30431 0.60545 1.02572
 N268 N 0.25685 0.61698 1.01329
 C269 C 0.24542 0.58629 0.97617
 C270 C 0.28698 0.55543 0.96623
 N271 N 0.32290 0.56882 0.99785
 H272 H 0.29164 0.52772 0.93780
 N273 N -0.20263 0.99980 -0.01138
 N274 N -0.24767 0.98797 0.00244
 C275 C -0.24449 0.98244 0.04989
 C276 C -0.19552 0.99121 0.06501
 N277 N -0.17059 1.00116 0.02523
 H278 H -0.17829 0.98351 0.09945
 N279 N 0.66907 -0.00862 0.60895
 N280 N 0.71322 0.00571 0.62581
 C281 C 0.73023 0.03845 0.59463
 C282 C 0.69504 0.04368 0.55758
 N283 N 0.65733 0.01352 0.56825
 H284 H 0.69583 0.06776 0.52712
 N285 N 0.51308 0.16310 0.38444
 N286 N 0.50007 0.20725 0.36603
 C287 C 0.45728 0.22367 0.38732
 C288 C 0.44409 0.18809 0.41941
 N289 N 0.48022 0.15098 0.41644
 H290 H 0.41269 0.18946 0.44328
 N291 N 0.91186 0.31204 0.47424
 N292 N 0.89552 0.26801 0.48702
 C293 C 0.92243 0.25483 0.52629
 C294 C 0.95657 0.29176 0.53684
 N295 N 0.94847 0.32685 0.50342
 H296 H 0.98115 0.29531 0.56781
 N297 N -0.03960 0.82630 -0.11176
 N298 N -0.02906 0.77947 -0.12687
 C299 C 0.00563 0.75988 -0.09594
 C300 C 0.01570 0.79569 -0.06128
 N301 N -0.01307 0.83662 -0.07258
 H302 H 0.04371 0.79380 -0.03278
 N303 N 0.59281 0.68632 0.97945
 N304 N 0.60824 0.73166 0.99131
 C305 C 0.58836 0.74357 1.03392
 C306 C 0.55982 0.70446 1.04788
 N307 N 0.56389 0.66950 1.01279
 H308 H 0.53992 0.70069 1.08062
 N309 N 0.46589 0.54759 1.19987
 N310 N 0.45507 0.53637 1.24393
 C311 C 0.46379 0.48630 1.24770
 C312 C 0.48010 0.46690 1.20467
 N313 N 0.48075 0.50652 1.17577
 H314 H 0.48619 0.42774 1.19417
 N315 N 0.49671 -0.06590 0.30639
 N316 N 0.51453 -0.08169 0.26511
 C317 C 0.56456 -0.07535 0.26727
 C318 C 0.57733 -0.05513 0.31149
 N319 N 0.53342 -0.05003 0.33481
 H320 H 0.61444 -0.04775 0.32602
 N321 N 0.01427 1.12158 -0.16715
 N322 N 0.00131 1.13585 -0.21070
 C323 C -0.03717 1.10726 -0.22511
 C324 C -0.04761 1.07497 -0.18919
 N325 N -0.01457 1.08522 -0.15363
 H326 H -0.07598 1.04689 -0.18884
 N327 N 1.10501 0.46580 0.67758
 N328 N 1.11569 0.47768 0.72254
 C329 C 1.09500 0.52421 0.73042
 C330 C 1.07176 0.54090 0.68915
 N331 N 1.07905 0.50333 0.65702
 H332 H 1.05076 0.57608 0.68324
 N333 N 0.86194 0.55250 0.64458
 N334 N 0.81656 0.56137 0.66243
 C335 C 0.78370 0.56038 0.62523
 C336 C 0.80968 0.55092 0.58424
 N337 N 0.85834 0.54614 0.59789
 H338 H 0.79496 0.54867 0.54812
 N339 N 0.68383 0.39663 0.98078
 N340 N 0.73048 0.38218 0.99373
 C341 C 0.74011 0.40587 1.03560
 C342 C 0.69813 0.43493 1.04825
 N343 N 0.66408 0.42793 1.01314
 H344 H 0.69247 0.45857 1.07958
 N345 N 0.19099 0.96151 -0.09237
 N346 N 0.23563 0.97246 -0.10858
 C347 C 0.24890 1.01498 -0.08539
 C348 C 0.21124 1.03000 -0.05467
 N349 N 0.17578 0.99569 -0.06034
 H350 H 0.20849 1.06352 -0.03224
 N351 N 0.29977 -0.05991 0.52696
 N352 N 0.25565 -0.07878 0.51487
 C353 C 0.24816 -0.06980 0.46822
 C354 C 0.28878 -0.04485 0.45207
 N355 N 0.31983 -0.03903 0.48992
 H356 H 0.29670 -0.03467 0.41608
 N357 N 0.55643 -0.20212 0.48383
 N358 N 0.57435 -0.24667 0.49786
 C359 C 0.55546 -0.25360 0.54111
 C360 C 0.52566 -0.21170 0.55367
 N361 N 0.52763 -0.18044 0.51676
 H362 H 0.50745 -0.20328 0.58704
 N363 N 0.96947 0.67696 0.41349
 N364 N 0.97751 0.72236 0.39762
 C365 C 1.01464 0.74118 0.42523
 C366 C 1.02919 0.70584 0.45892
 N367 N 0.99975 0.66640 0.45024
 H368 H 1.06074 0.70664 0.48391
 N369 N 0.02850 1.16915 0.12429
 N370 N 0.01622 1.21583 0.13851
 C371 C -0.01347 1.23610 0.10371
 C372 C -0.01868 1.20086 0.06749
 N373 N 0.00810 1.15983 0.08187
 H374 H -0.04124 1.20358 0.03507
 N375 N 0.42816 0.30611 1.02786
 N376 N 0.41362 0.26100 1.01377
 C377 C 0.41390 0.26058 0.96594
 C378 C 0.42859 0.30661 0.95082
 N379 N 0.43700 0.33391 0.99073
 H380 H 0.43343 0.31878 0.91485
 N381 N 0.45664 0.54069 0.80922
 N382 N 0.46835 0.56065 0.76829
 C383 C 0.51903 0.56223 0.76864
 C384 C 0.53815 0.54259 0.81034
 N385 N 0.49803 0.52952 0.83474
 H386 H 0.57708 0.54014 0.82269
 N387 N 0.47213 0.11714 0.65306
 N388 N 0.46511 0.13253 0.69745
 C389 C 0.45000 0.09235 0.72086
 C390 C 0.44805 0.05154 0.68967
 N391 N 0.46221 0.06890 0.64770
 H392 H 0.43621 0.01388 0.69626
 N393 N 0.13055 0.92880 0.14339
 N394 N 0.14485 0.91852 0.18760
 C395 C 0.10234 0.91727 0.21259
 C396 C 0.06134 0.92734 0.18274
 N397 N 0.08080 0.93437 0.13974
 H398 H 0.02185 0.93054 0.19149
 N399 N 0.86877 0.49901 0.34229
 N400 N 0.85544 0.48789 0.29782
 C401 C 0.89588 0.46390 0.27836
 C402 C 0.93446 0.46063 0.31179
 N403 N 0.91588 0.48305 0.35117
 H404 H 0.97167 0.44289 0.30838
   
