data_POSCAR
  _audit_creation_date              2014-09-24
  _audit_creation_method            'ToBaCCo'
  _symmetry_space_group_name_H-M    'P1'
  _symmetry_Int_Tables_number       1
  _symmetry_cell_setting            triclinic
  loop_
  _symmetry_equiv_pos_as_xyz
 x,y,z
_cell_length_a 30.1768
_cell_length_b 17.6015
_cell_length_c 12.2124
_cell_angle_alpha 90.095500
_cell_angle_beta 89.821600
_cell_angle_gamma 90.086800
loop_
  _atom_site_label
  _atom_site_type_symbol
  _atom_site_fract_x
  _atom_site_fract_y
  _atom_site_fract_z
O1 O 0.69410 0.23251 0.39605
 O2 O 0.76992 0.16030 0.60737
 O3 O 0.69382 0.23269 0.60768
 O4 O 0.76981 0.15986 0.39609
 O5 O 0.80541 0.26981 0.39586
 O6 O 0.72935 0.34267 0.60741
 O7 O 0.80545 0.27029 0.60716
 O8 O 0.72969 0.34245 0.39579
 Cu9 Cu 0.72828 0.18530 0.50196
 Cu10 Cu 0.77106 0.31738 0.50166
 C11 C 0.69862 0.30006 0.36166
 C12 C 0.80114 0.20257 0.64099
 C13 C 0.69814 0.30046 0.64149
 C14 C 0.80098 0.20209 0.36191
 O15 O 0.22811 0.84128 0.60781
 O16 O 0.30511 0.77160 0.39547
 O17 O 0.22868 0.84105 0.39521
 O18 O 0.30497 0.77229 0.60780
 O19 O 0.27078 0.66108 0.60793
 O20 O 0.19443 0.72988 0.39535
 O21 O 0.27087 0.66043 0.39559
 O22 O 0.19391 0.73010 0.60796
 Cu23 Cu 0.27014 0.81773 0.50169
 Cu24 Cu 0.22903 0.68421 0.50186
 C25 C 0.19762 0.79778 0.64269
 C26 C 0.30129 0.70398 0.36058
 C27 C 0.19842 0.79732 0.36016
 C28 C 0.30119 0.70471 0.64251
 O29 O 0.30442 0.22759 -0.39521
 O30 O 0.22734 0.15883 -0.60709
 O31 O 0.30425 0.22749 -0.60751
 O32 O 0.22741 0.15904 -0.39435
 O33 O 0.19368 0.27046 -0.39386
 O34 O 0.27050 0.33893 -0.60703
 O35 O 0.19359 0.27025 -0.60659
 O36 O 0.27068 0.33903 -0.39473
 Cu37 Cu 0.26921 0.18203 -0.50107
 Cu38 Cu 0.22869 0.31584 -0.50048
 C39 C 0.30094 0.29525 -0.36031
 C40 C 0.19716 0.20267 -0.64182
 C41 C 0.30070 0.29509 -0.64218
 C42 C 0.19726 0.20291 -0.35899
 O43 O -0.23019 0.84099 -0.60311
 O44 O -0.30629 0.76728 -0.39212
 O45 O -0.23043 0.84048 -0.39170
 O46 O -0.30586 0.76770 -0.60371
 O47 O -0.27012 0.65807 -0.60439
 O48 O -0.19471 0.73084 -0.39234
 O49 O -0.27058 0.65765 -0.39279
 O50 O -0.19445 0.73137 -0.60377
 Cu51 Cu -0.27183 0.81513 -0.49752
 Cu52 Cu -0.22885 0.68345 -0.49832
 C53 C -0.19893 0.79906 -0.63745
 C54 C -0.30187 0.69956 -0.35850
 C55 C -0.19922 0.79845 -0.35805
 C56 C -0.30124 0.70018 -0.63833
 O57 O -0.06160 0.87039 0.20153
 O58 O -0.11070 0.93795 0.09621
 C59 C -0.10138 0.89010 0.17325
 O60 O 0.06268 1.13805 0.19361
 O61 O 0.11176 1.06635 0.09306
 C62 C 0.10244 1.11736 0.16629
 O63 O -0.06163 1.13149 0.20174
 O64 O -0.11063 1.06336 0.09625
 C65 C -0.10136 1.11146 0.17326
 O66 O 0.06265 0.86396 0.19265
 O67 O 0.11173 0.93568 0.09216
 C68 C 0.10238 0.88464 0.16510
 Zr69 Zr 0.00067 0.90474 0.13754
 O70 O 0.00515 0.90084 0.31037
 O71 O -0.00413 0.78475 0.13133
 Zr72 Zr 0.00062 1.09728 0.13794
 O73 O 0.00496 1.10144 0.31079
 O74 O -0.00409 1.21724 0.13151
 O75 O -0.03865 1.00088 0.16004
 O76 O 0.03887 1.00110 0.15770
 O77 O 0.06265 0.86369 -0.19400
 O78 O 0.11174 0.93558 -0.09412
 C79 C 0.10242 0.88440 -0.16702
 O80 O -0.06100 1.13202 -0.20189
 O81 O -0.10984 1.06426 -0.09570
 C82 C -0.10068 1.11214 -0.17292
 O83 O 0.06271 1.13795 -0.19386
 O84 O 0.11176 1.06655 -0.09399
 C85 C 0.10245 1.11744 -0.16693
 O86 O -0.06176 0.86975 -0.20020
 O87 O -0.11070 0.93772 -0.09394
 C88 C -0.10148 0.88960 -0.17104
 Zr89 Zr 0.00057 0.90450 -0.13790
 O90 O 0.00497 0.90111 -0.31087
 O91 O -0.00416 0.78451 -0.13238
 Zr92 Zr 0.00068 1.09712 -0.13755
 O93 O 0.00515 1.10102 -0.31043
 O94 O -0.00405 1.21707 -0.13000
 Zr95 Zr -0.06541 1.00065 0.00073
 Zr96 Zr 0.06691 1.00108 -0.00052
 O97 O 0.03886 1.00087 -0.15831
 O98 O -0.03873 1.00070 -0.15910
 O99 O 0.04055 0.88998 -0.00055
 O100 O -0.03817 1.11077 0.00052
 O101 O -0.03813 0.89070 0.00023
 O102 O 0.04061 1.11208 -0.00008
 H103 H 0.05823 1.00106 0.22305
 H104 H -0.05851 1.15492 0.00069
 H105 H 0.05828 1.00085 -0.22386
 H106 H -0.05846 0.84643 0.00050
 H107 H 0.02310 1.23655 0.09555
 H108 H 0.02323 1.23641 -0.09483
 H109 H -0.01627 1.06363 -0.33959
 H110 H -0.01806 0.93546 -0.33989
 H111 H 0.02269 0.76528 -0.09539
 H112 H 0.02282 0.76544 0.09438
 H113 H -0.01695 0.93690 0.33999
 H114 H -0.01713 1.06525 0.34022
 O115 O 0.56220 0.36919 -0.20298
 O116 O 0.61102 0.43712 -0.09684
 C117 C 0.60189 0.38917 -0.17415
 O118 O 0.43795 0.63704 -0.19355
 O119 O 0.38883 0.56499 -0.09365
 C120 C 0.39818 0.61632 -0.16610
 O121 O 0.56234 0.63040 -0.20220
 O122 O 0.61112 0.56247 -0.09657
 C123 C 0.60203 0.61044 -0.17363
 O124 O 0.43783 0.36254 -0.19496
 O125 O 0.38878 0.43431 -0.09449
 C126 C 0.39807 0.38317 -0.16749
 Zr127 Zr 0.49991 0.40341 -0.13940
 O128 O 0.49562 0.39973 -0.31228
 O129 O 0.50463 0.28344 -0.13367
 Zr130 Zr 0.50001 0.59612 -0.13866
 O131 O 0.49566 0.60006 -0.31150
 O132 O 0.50494 0.71608 -0.13212
 O133 O 0.53925 0.49981 -0.16091
 O134 O 0.46175 0.49975 -0.15919
 O135 O 0.43747 0.36227 0.19157
 O136 O 0.38860 0.43417 0.09184
 C137 C 0.39778 0.38294 0.16437
 O138 O 0.56190 0.63011 0.20051
 O139 O 0.61090 0.56237 0.09419
 C140 C 0.60163 0.61020 0.17165
 O141 O 0.43771 0.63667 0.19301
 O142 O 0.38874 0.56486 0.09278
 C143 C 0.39799 0.61597 0.16580
 O144 O 0.56177 0.36923 0.19980
 O145 O 0.61085 0.43715 0.09394
 C146 C 0.60153 0.38928 0.17118
 Zr147 Zr 0.49964 0.40318 0.13619
 O148 O 0.49496 0.39880 0.30901
 O149 O 0.50446 0.28324 0.12909
 Zr150 Zr 0.49975 0.59593 0.13693
 O151 O 0.49514 0.59988 0.30981
 O152 O 0.50465 0.71590 0.13078
 Zr153 Zr 0.56569 0.49973 -0.00130
 Zr154 Zr 0.43361 0.49960 -0.00107
 O155 O 0.46147 0.49950 0.15691
 O156 O 0.53891 0.49959 0.15836
 O157 O 0.45984 0.38854 -0.00159
 O158 O 0.53865 0.60981 -0.00088
 O159 O 0.53853 0.38959 -0.00169
 O160 O 0.45997 0.61071 -0.00072
 H161 H 0.44236 0.49982 -0.22449
 H162 H 0.55909 0.65392 -0.00076
 H163 H 0.44200 0.49941 0.22236
 H164 H 0.55893 0.34552 -0.00180
 H165 H 0.47800 0.73540 -0.09515
 H166 H 0.47758 0.73523 0.09488
 H167 H 0.51713 0.56368 0.33904
 H168 H 0.51673 0.43544 0.33858
 H169 H 0.47738 0.26388 0.09305
 H170 H 0.47760 0.26407 -0.09707
 H171 H 0.51792 0.43565 -0.34148
 H172 H 0.51780 0.56403 -0.34102
 C173 C 0.33305 0.32395 0.28230
 C174 C 0.36182 0.34990 0.22477
 C175 C -0.16637 0.83024 0.28959
 C176 C -0.13740 0.85732 0.23378
 C177 C 0.66646 0.66936 0.28819
 C178 C 0.63761 0.64260 0.23211
 C179 C 0.16672 1.17549 0.28632
 C180 C 0.13823 1.14990 0.22775
 C181 C 0.66713 0.32978 -0.28991
 C182 C 0.63804 0.35663 -0.23429
 C183 C 0.16697 0.82545 -0.28605
 C184 C 0.13830 0.85144 -0.22807
 C185 C 0.33353 0.67562 -0.28274
 C186 C 0.36230 0.64952 -0.22590
 C187 C -0.16604 1.17168 -0.28709
 C188 C -0.13684 1.14479 -0.23236
 C189 C 0.66720 0.67001 -0.28976
 C190 C 0.63819 0.64303 -0.23393
 C191 C 0.16679 1.17575 -0.28698
 C192 C 0.13826 1.15011 -0.22837
 C193 C 0.33338 0.32419 -0.28527
 C194 C 0.36216 0.35015 -0.22795
 C195 C -0.16664 0.82955 -0.28558
 C196 C -0.13758 0.85667 -0.23051
 C197 C 0.33348 0.67486 0.28473
 C198 C 0.36211 0.64885 0.22675
 C199 C -0.16643 1.17115 0.28903
 C200 C -0.13741 1.14418 0.23344
 C201 C 0.66630 0.33057 0.28809
 C202 C 0.63748 0.35710 0.23185
 C203 C 0.16656 0.82610 0.28395
 C204 C 0.13814 0.85191 0.22581
   
