data_POSCAR
  _audit_creation_date              2014-09-24
  _audit_creation_method            'ToBaCCo'
  _symmetry_space_group_name_H-M    'P1'
  _symmetry_Int_Tables_number       1
  _symmetry_cell_setting            triclinic
  loop_
  _symmetry_equiv_pos_as_xyz
 x,y,z
_cell_length_a 33.4816
_cell_length_b 33.5276
_cell_length_c 33.5032
_cell_angle_alpha 90.000100
_cell_angle_beta 89.999900
_cell_angle_gamma 90.001000
loop_
  _atom_site_label
  _atom_site_type_symbol
  _atom_site_fract_x
  _atom_site_fract_y
  _atom_site_fract_z
C1 C 0.26521 1.12340 -0.02068
 C2 C 0.26598 1.12358 0.02026
 C3 C 0.25712 1.08501 0.03244
 N4 N 0.25078 1.06147 0.00030
 C5 C 0.25600 1.08474 -0.03219
 C6 C 0.25230 1.07279 0.07252
 C7 C 0.24561 1.03273 0.08406
 C8 C 0.23291 1.02072 0.12165
 C9 C 0.23212 0.97973 0.12139
 C10 C 0.24439 0.96771 0.08369
 N11 N 0.25278 1.00018 0.06126
 C12 C 0.25001 0.92761 0.07199
 C13 C 0.25578 0.91511 0.03218
 C14 C 0.26477 0.87641 0.02065
 C15 C 0.26542 0.87623 -0.02029
 C16 C 0.25672 0.91483 -0.03246
 N17 N 0.25056 0.93840 -0.00030
 C18 C 0.25190 0.92708 -0.07254
 C19 C 0.24532 0.96716 -0.08407
 C20 C 0.23259 0.97922 -0.12163
 C21 C 0.23191 1.02022 -0.12136
 C22 C 0.24428 1.03220 -0.08369
 N23 N 0.25262 0.99969 -0.06127
 C24 C 0.25003 1.07228 -0.07198
 H25 H 0.27041 1.14893 -0.03977
 H26 H 0.27181 1.14927 0.03893
 H27 H 0.26687 0.99982 -0.03377
 H28 H 0.22530 1.03955 0.14677
 H29 H 0.22385 0.96091 0.14631
 H30 H 0.26991 0.85086 0.03973
 H31 H 0.27109 0.85050 -0.03897
 H32 H 0.22365 1.03907 -0.14626
 H33 H 0.26699 1.00000 0.03373
 H34 H 0.22488 0.96042 -0.14674
 C35 C 0.76465 0.47923 0.62385
 C36 C 0.76531 0.52016 0.62376
 C37 C 0.75689 0.53206 0.58500
 N38 N 0.75086 0.49982 0.56159
 C39 C 0.75593 0.46749 0.58515
 C40 C 0.75224 0.57201 0.57257
 C41 C 0.74585 0.58385 0.53259
 C42 C 0.73356 0.62160 0.52084
 C43 C 0.73303 0.62173 0.47978
 C44 C 0.74508 0.58408 0.46751
 N45 N 0.75308 0.56131 0.49991
 C46 C 0.75060 0.57255 0.42730
 C47 C 0.75612 0.53269 0.41491
 C48 C 0.76494 0.52094 0.37623
 C49 C 0.76558 0.48001 0.37633
 C50 C 0.75706 0.46812 0.41506
 N51 N 0.75100 0.50036 0.43846
 C52 C 0.75237 0.42816 0.42748
 C53 C 0.74594 0.41633 0.46746
 C54 C 0.73368 0.37856 0.47919
 C55 C 0.73309 0.37843 0.52024
 C56 C 0.74505 0.41610 0.53252
 N57 N 0.75308 0.43888 0.50015
 C58 C 0.75045 0.42764 0.57274
 H59 H 0.76965 0.46032 0.64956
 H60 H 0.77084 0.53899 0.64941
 H61 H 0.76703 0.46650 0.50029
 H62 H 0.72599 0.64658 0.53986
 H63 H 0.72503 0.64684 0.46110
 H64 H 0.77001 0.53984 0.35053
 H65 H 0.77117 0.46117 0.35069
 H66 H 0.72510 0.35331 0.53890
 H67 H 0.76708 0.53371 0.49978
 H68 H 0.72620 0.35356 0.46016
 C69 C 0.73546 0.87657 0.97934
 C70 C 0.73472 0.87639 1.02027
 C71 C 0.74343 0.91498 1.03247
 N72 N 0.74968 0.93855 1.00032
 C73 C 0.74452 0.91526 0.96782
 C74 C 0.74816 0.92721 1.07257
 C75 C 0.75474 0.96729 1.08414
 C76 C 0.76730 0.97932 1.12176
 C77 C 0.76807 1.02032 1.12151
 C78 C 0.75590 1.03233 1.08378
 N79 N 0.74761 0.99984 1.06131
 C80 C 0.75032 1.07244 1.07204
 C81 C 0.74457 1.08493 1.03223
 C82 C 0.73555 1.12363 1.02069
 C83 C 0.73492 1.12382 0.97975
 C84 C 0.74365 1.08522 0.96757
 N85 N 0.74980 1.06165 0.99973
 C86 C 0.74848 1.07299 0.92748
 C87 C 0.75500 1.03290 0.91592
 C88 C 0.76761 1.02084 0.87832
 C89 C 0.76829 0.97983 0.87857
 C90 C 0.75604 0.96784 0.91628
 N91 N 0.74777 1.00035 0.93873
 C92 C 0.75038 0.92774 0.92802
 H93 H 0.73034 0.85102 0.96026
 H94 H 0.72897 0.85067 1.03894
 H95 H 0.73362 1.00021 0.96628
 H96 H 0.77486 0.96049 1.14690
 H97 H 0.77625 1.03914 1.14645
 H98 H 0.73038 1.14917 1.03977
 H99 H 0.72923 1.14954 0.96107
 H100 H 0.77648 0.96099 0.85365
 H101 H 0.73350 1.00001 1.03374
 H102 H 0.77525 1.03965 0.85319
 C103 C 0.23454 0.37614 0.47940
 C104 C 0.23396 0.37632 0.52037
 C105 C 0.24239 0.41508 0.53218
 N106 N 0.24833 0.43840 0.49985
 C107 C 0.24322 0.41480 0.46753
 C108 C 0.24708 0.42759 0.57215
 C109 C 0.25354 0.46757 0.58390
 C110 C 0.26587 0.47937 0.62165
 C111 C 0.26645 0.52039 0.62170
 C112 C 0.25441 0.53259 0.58400
 N113 N 0.24635 0.50019 0.56128
 C114 C 0.24894 0.57277 0.57240
 C115 C 0.24345 0.58510 0.53249
 C116 C 0.23481 0.62377 0.52066
 C117 C 0.23409 0.62360 0.47970
 C118 C 0.24239 0.58483 0.46785
 N119 N 0.24841 0.56149 0.50016
 C120 C 0.24690 0.57233 0.42786
 C121 C 0.25316 0.53233 0.41607
 C122 C 0.26524 0.52051 0.37824
 C123 C 0.26577 0.47949 0.37819
 C124 C 0.25395 0.46729 0.41596
 N125 N 0.24606 0.49971 0.43872
 C126 C 0.24858 0.42711 0.42759
 H127 H 0.22951 0.35041 0.46054
 H128 H 0.22848 0.35072 0.53928
 H129 H 0.23225 0.49964 0.46644
 H130 H 0.27342 0.46041 0.64669
 H131 H 0.27449 0.53909 0.64678
 H132 H 0.22990 0.64951 0.53955
 H133 H 0.22859 0.64922 0.46082
 H134 H 0.27364 0.46079 0.35305
 H135 H 0.23235 0.50027 0.53366
 H136 H 0.27265 0.53947 0.35316
 C137 C 1.12418 0.26376 -0.02187
 C138 C 1.12446 0.26425 0.01907
 C139 C 1.08592 0.25516 0.03131
 N140 N 1.06229 0.24890 -0.00082
 C141 C 1.08546 0.25443 -0.03339
 C142 C 1.07382 0.25015 0.07143
 C143 C 1.03376 0.24353 0.08317
 C144 C 1.02188 0.23079 0.12079
 C145 C 0.98082 0.23045 0.12087
 C146 C 0.96864 0.24302 0.08333
 N147 N 1.00108 0.25111 0.06065
 C148 C 0.92848 0.24921 0.07197
 C149 C 0.91586 0.25512 0.03222
 C150 C 0.87719 0.26465 0.02086
 C151 C 0.87684 0.26523 -0.02009
 C152 C 0.91532 0.25596 -0.03242
 N153 N 0.93897 0.24954 -0.00036
 C154 C 0.92732 0.25085 -0.07254
 C155 C 0.96733 0.24390 -0.08433
 C156 C 0.97900 0.23095 -0.12193
 C157 C 1.02006 0.23021 -0.12208
 C158 C 1.03250 0.24277 -0.08458
 N159 N 1.00014 0.25121 -0.06188
 C160 C 1.07281 0.24867 -0.07325
 H161 H 1.14968 0.26921 -0.04097
 H162 H 1.15021 0.27010 0.03771
 H163 H 1.00051 0.26559 -0.03445
 H164 H 1.04085 0.22291 0.14575
 H165 H 0.96207 0.22230 0.14590
 H166 H 0.85177 0.27016 0.04004
 H167 H 0.85108 0.27122 -0.03867
 H168 H 1.03866 0.22182 -0.14715
 H169 H 1.00089 0.26545 0.03320
 H170 H 0.95991 0.22319 -0.14683
 C171 C 0.47994 0.76421 0.62402
 C172 C 0.52093 0.76477 0.62373
 C173 C 0.53263 0.75620 0.58494
 N174 N 0.50021 0.75018 0.56171
 C175 C 0.46797 0.75538 0.58540
 C176 C 0.57256 0.75146 0.57231
 C177 C 0.58411 0.74501 0.53226
 C178 C 0.62182 0.73268 0.52026
 C179 C 0.62166 0.73216 0.47921
 C180 C 0.58388 0.74423 0.46720
 N181 N 0.56131 0.75224 0.49973
 C182 C 0.57209 0.74983 0.42708
 C183 C 0.53211 0.75521 0.41487
 C184 C 0.52013 0.76392 0.37622
 C185 C 0.47915 0.76446 0.37651
 C186 C 0.46744 0.75601 0.41531
 N187 N 0.49986 0.75006 0.43857
 C188 C 0.42750 0.75134 0.42797
 C189 C 0.41595 0.74503 0.46804
 C190 C 0.37821 0.73281 0.48006
 C191 C 0.37838 0.73235 0.52111
 C192 C 0.41619 0.74433 0.53310
 N193 N 0.43877 0.75226 0.50055
 C194 C 0.42799 0.74993 0.57321
 H195 H 0.46114 0.76933 0.64980
 H196 H 0.53993 0.77035 0.64926
 H197 H 0.46642 0.76621 0.50049
 H198 H 0.64696 0.72511 0.53911
 H199 H 0.64667 0.72415 0.46036
 H200 H 0.53894 0.76897 0.35043
 H201 H 0.46015 0.76996 0.35095
 H202 H 0.35335 0.72444 0.53997
 H203 H 0.53370 0.76627 0.49976
 H204 H 0.35304 0.72529 0.46123
 C205 C -0.02059 0.73584 -0.12441
 C206 C 0.02037 0.73545 -0.12422
 C207 C 0.03216 0.74448 -0.08555
 N208 N -0.00027 0.75060 -0.06228
 C209 C -0.03259 0.74505 -0.08583
 C210 C 0.07217 0.74955 -0.07300
 C211 C 0.08348 0.75619 -0.03284
 C212 C 0.12101 0.76889 -0.02060
 C213 C 0.12062 0.76940 0.02044
 C214 C 0.08289 0.75697 0.03224
 N215 N 0.06056 0.74879 -0.00041
 C216 C 0.07106 0.75105 0.07229
 C217 C 0.03116 0.74518 0.08451
 C218 C 0.01937 0.73598 0.12310
 C219 C -0.02159 0.73525 0.12299
 C220 C -0.03353 0.74412 0.08430
 N221 N -0.00120 0.75044 0.06098
 C222 C -0.07356 0.74894 0.07181
 C223 C -0.08495 0.75558 0.03166
 C224 C -0.12253 0.76822 0.01952
 C225 C -0.12221 0.76884 -0.02150
 C226 C -0.08445 0.75651 -0.03347
 N227 N -0.06206 0.74831 -0.00085
 C228 C -0.07262 0.75066 -0.07362
 H229 H -0.03941 0.73041 -0.15012
 H230 H 0.03932 0.72971 -0.14976
 H231 H -0.03451 0.73414 -0.00086
 H232 H 0.14621 0.77665 -0.03929
 H233 H 0.14547 0.77757 0.03942
 H234 H 0.03830 0.73075 0.14877
 H235 H -0.04045 0.72942 0.14857
 H236 H -0.14714 0.77700 -0.04039
 H237 H 0.03305 0.73453 -0.00047
 H238 H -0.14771 0.77587 0.03828
 C239 C 0.62362 0.23594 0.52148
 C240 C 0.62374 0.23544 0.48052
 C241 C 0.58503 0.24390 0.46844
 N242 N 0.56144 0.24981 0.50062
 C243 C 0.58483 0.24462 0.53308
 C244 C 0.57277 0.24862 0.42841
 C245 C 0.53279 0.25500 0.41647
 C246 C 0.52114 0.26731 0.37867
 C247 C 0.48006 0.26778 0.37842
 C248 C 0.46769 0.25570 0.41605
 N249 N 0.50003 0.24772 0.43892
 C250 C 0.42743 0.25007 0.42745
 C251 C 0.41484 0.24458 0.46727
 C252 C 0.37607 0.23577 0.47885
 C253 C 0.37595 0.23521 0.51981
 C254 C 0.41464 0.24375 0.53189
 N255 N 0.43822 0.24976 0.49974
 C256 C 0.42687 0.24846 0.57192
 C257 C 0.46685 0.25477 0.58389
 C258 C 0.47849 0.26695 0.62174
 C259 C 0.51957 0.26742 0.62200
 C260 C 0.53195 0.25548 0.58433
 N261 N 0.49962 0.24757 0.56142
 C262 C 0.57221 0.24996 0.57292
 H263 H 0.64924 0.23087 0.54052
 H264 H 0.64951 0.22997 0.46178
 H265 H 0.49986 0.23366 0.53377
 H266 H 0.54024 0.27490 0.35373
 H267 H 0.46144 0.27577 0.35324
 H268 H 0.35046 0.23068 0.45980
 H269 H 0.35020 0.22965 0.53853
 H270 H 0.53818 0.27531 0.64721
 H271 H 0.49980 0.23370 0.46652
 H272 H 0.45939 0.27444 0.64670
 C273 C 1.12511 -0.02047 0.26498
 C274 C 1.12503 0.02045 0.26548
 C275 C 1.08634 0.03236 0.25658
 N276 N 1.06296 0.00006 0.25044
 C277 C 1.08645 -0.03230 0.25586
 C278 C 1.07389 0.07236 0.25161
 C279 C 1.03377 0.08387 0.24499
 C280 C 1.02169 0.12141 0.23222
 C281 C 0.98063 0.12126 0.23182
 C282 C 0.96865 0.08369 0.24437
 N283 N 1.00121 0.06120 0.25253
 C284 C 0.92852 0.07207 0.25034
 C285 C 0.91618 0.03226 0.25614
 C286 C 0.87752 0.02053 0.26521
 C287 C 0.87758 -0.02040 0.26583
 C288 C 0.91628 -0.03228 0.25706
 N289 N 0.93969 -0.00006 0.25087
 C290 C 0.92867 -0.07219 0.25217
 C291 C 0.96869 -0.08382 0.24555
 C292 C 0.98047 -0.12144 0.23295
 C293 C 1.02152 -0.12144 0.23227
 C294 C 1.03380 -0.08381 0.24454
 N295 N 1.00136 -0.06120 0.25279
 C296 C 1.07406 -0.07223 0.25026
 H297 H 1.15079 -0.03935 0.27030
 H298 H 1.15066 0.03928 0.27120
 H299 H 1.00153 -0.03368 0.26695
 H300 H 1.04053 0.14645 0.22434
 H301 H 0.96176 0.14616 0.22360
 H302 H 0.85184 0.03945 0.27039
 H303 H 0.85195 -0.03923 0.27152
 H304 H 1.04022 -0.14648 0.22408
 H305 H 1.00121 0.03377 0.26688
 H306 H 0.96147 -0.14643 0.22533
 C307 C 0.47882 0.62371 0.76599
 C308 C 0.51981 0.62376 0.76666
 C309 C 0.53184 0.58506 0.75831
 N310 N 0.49962 0.56155 0.75231
 C311 C 0.46716 0.58498 0.75730
 C312 C 0.57190 0.57274 0.75375
 C313 C 0.58371 0.53273 0.74753
 C314 C 0.62154 0.52093 0.73540
 C315 C 0.62157 0.47991 0.73484
 C316 C 0.58378 0.46770 0.74668
 N317 N 0.56103 0.50010 0.75463
 C318 C 0.57215 0.42752 0.75206
 C319 C 0.53224 0.41503 0.75741
 C320 C 0.52052 0.37629 0.76598
 C321 C 0.47953 0.37627 0.76649
 C322 C 0.46755 0.41498 0.75814
 N323 N 0.49982 0.43849 0.75230
 C324 C 0.42752 0.42734 0.75342
 C325 C 0.41578 0.46732 0.74701
 C326 C 0.37805 0.47911 0.73457
 C327 C 0.37802 0.52013 0.73399
 C328 C 0.41572 0.53233 0.74615
 N329 N 0.43842 0.49994 0.75427
 C330 C 0.42728 0.57248 0.75172
 H331 H 0.45980 0.64935 0.77092
 H332 H 0.53859 0.64945 0.77216
 H333 H 0.46601 0.50010 0.76835
 H334 H 0.64663 0.53989 0.72797
 H335 H 0.64671 0.46121 0.72693
 H336 H 0.53950 0.35064 0.77097
 H337 H 0.46070 0.35058 0.77187
 H338 H 0.35294 0.53882 0.72588
 H339 H 0.53331 0.49994 0.76845
 H340 H 0.35302 0.46015 0.72694
 C341 C 0.87753 0.97944 0.73457
 C342 C 0.87758 1.02036 0.73395
 C343 C 0.91627 1.03226 0.74276
 N344 N 0.93968 1.00005 0.74896
 C345 C 0.91620 0.96772 0.74366
 C346 C 0.92863 1.07217 0.74772
 C347 C 0.96861 1.08378 0.75455
 C348 C 0.98034 1.12132 0.76742
 C349 C 1.02139 1.12134 0.76819
 C350 C 1.03372 1.08380 0.75568
 N351 N 1.00130 1.06121 0.74724
 C352 C 1.07397 1.07229 0.74987
 C353 C 1.08639 1.03240 0.74407
 C354 C 1.12506 1.02064 0.73487
 C355 C 1.12502 0.97973 0.73420
 C356 C 1.08634 0.96775 0.74308
 N357 N 1.06294 1.00001 0.74938
 C358 C 1.07393 0.92773 0.74791
 C359 C 1.03382 0.91617 0.75452
 C360 C 1.02179 0.87858 0.76717
 C361 C 0.98073 0.87871 0.76766
 C362 C 0.96871 0.91632 0.75527
 N363 N 1.00124 0.93885 0.74711
 C364 C 0.92856 0.92793 0.74944
 H365 H 0.85187 0.96051 0.72936
 H366 H 0.85195 1.03919 0.72824
 H367 H 1.00120 0.96633 0.73287
 H368 H 0.96131 1.14625 0.77518
 H369 H 1.04007 1.14633 0.77658
 H370 H 1.15072 1.03958 0.72961
 H371 H 1.15065 0.96094 0.72839
 H372 H 0.96189 0.85377 0.77582
 H373 H 1.00151 1.03380 0.73287
 H374 H 1.04065 0.85352 0.77492
 C375 C 0.37583 0.47945 0.23432
 C376 C 0.37590 0.52038 0.23365
 C377 C 0.41468 0.53228 0.24201
 N378 N 0.43814 0.50005 0.24802
 C379 C 0.41459 0.46771 0.24301
 C380 C 0.42712 0.57223 0.24662
 C381 C 0.46719 0.58392 0.25290
 C382 C 0.47908 0.62164 0.26512
 C383 C 0.52016 0.62158 0.26571
 C384 C 0.53229 0.58384 0.25378
 N385 N 0.49981 0.56121 0.24576
 C386 C 0.57249 0.57215 0.24834
 C387 C 0.58489 0.53228 0.24288
 C388 C 0.62364 0.52051 0.23419
 C389 C 0.62356 0.47957 0.23362
 C390 C 0.58479 0.46769 0.24205
 N391 N 0.56135 0.49995 0.24799
 C392 C 0.57234 0.42774 0.24677
 C393 C 0.53228 0.41609 0.25319
 C394 C 0.52038 0.37844 0.26561
 C395 C 0.47931 0.37851 0.26623
 C396 C 0.46718 0.41620 0.25411
 N397 N 0.49967 0.43878 0.24597
 C398 C 0.42699 0.42787 0.24858
 H399 H 0.35010 0.46053 0.22938
 H400 H 0.35021 0.53920 0.22815
 H401 H 0.49957 0.46635 0.23192
 H402 H 0.46015 0.64672 0.27261
 H403 H 0.53894 0.64663 0.27368
 H404 H 0.64936 0.53942 0.22918
 H405 H 0.64924 0.46073 0.22815
 H406 H 0.46052 0.35352 0.27434
 H407 H 0.49990 0.53357 0.23185
 H408 H 0.53931 0.35339 0.27322
 O409 O 0.25075 0.14586 0.19389
 O410 O 0.29424 0.13470 0.24953
 O411 O 0.14625 0.19403 0.25056
 O412 O 0.13130 0.24572 0.28970
 O413 O 0.19480 0.24977 0.14505
 O414 O 0.25010 0.29350 0.13388
 O415 O 0.25065 0.30446 0.35249
 O416 O 0.20441 0.25210 0.36318
 O417 O 0.35291 0.25095 0.30423
 O418 O 0.36562 0.20616 0.24743
 O419 O 0.30440 0.35274 0.25028
 O420 O 0.24759 0.36514 0.20552
 O421 O 0.25051 0.35242 0.30443
 O422 O 0.20470 0.36411 0.24718
 O423 O 0.35266 0.30496 0.25032
 O424 O 0.36487 0.24787 0.20473
 O425 O 0.30492 0.25135 0.35234
 O426 O 0.25014 0.20524 0.36460
 O427 O 0.25091 0.19377 0.14565
 O428 O 0.29492 0.24965 0.13456
 O429 O 0.14652 0.24925 0.19295
 O430 O 0.13720 0.29618 0.24849
 O431 O 0.19444 0.14605 0.24978
 O432 O 0.24997 0.13503 0.29389
 Zr433 Zr 0.24846 0.17809 0.24781
 O434 O 0.28575 0.21238 0.28493
 Zr435 Zr 0.17813 0.24801 0.24736
 O436 O 0.21220 0.28510 0.28514
 Zr437 Zr 0.24863 0.24792 0.17746
 O438 O 0.28553 0.28551 0.21177
 Zr439 Zr 0.25084 0.25056 0.32039
 O440 O 0.21302 0.21295 0.28638
 Zr441 Zr 0.32097 0.25080 0.25013
 O442 O 0.28721 0.21282 0.21252
 Zr443 Zr 0.25042 0.32059 0.25021
 O444 O 0.21313 0.28649 0.21210
 O445 O 0.21143 0.21095 0.21049
 O446 O 0.28811 0.28813 0.28761
 C447 C 0.25170 0.15729 0.15732
 C448 C 0.15790 0.15755 0.25104
 C449 C 0.15821 0.25022 0.15646
 C450 C 0.25052 0.34095 0.34097
 C451 C 0.34144 0.25121 0.34076
 C452 C 0.34098 0.34137 0.25030
 H453 H 0.30242 0.19432 0.30121
 H454 H 0.30191 0.30206 0.19367
 H455 H 0.19445 0.19373 0.19353
 H456 H 0.19418 0.30131 0.30197
 H457 H 0.18404 0.23254 0.35441
 H458 H 0.13987 0.26137 0.31321
 H459 H 0.35946 0.26957 0.18547
 H460 H 0.31572 0.23082 0.14383
 H461 H 0.27085 0.18534 0.35785
 H462 H 0.23130 0.14441 0.31480
 H463 H 0.26821 0.35896 0.18531
 H464 H 0.23191 0.31475 0.14340
 H465 H 0.31555 0.14423 0.23140
 H466 H 0.35960 0.18610 0.26821
 H467 H 0.14529 0.31488 0.22711
 H468 H 0.18562 0.35877 0.26907
 O469 O 0.74962 0.85396 0.19386
 O470 O 0.70627 0.86536 0.24942
 O471 O 0.85390 0.80505 0.25046
 O472 O 0.86879 0.75324 0.28920
 O473 O 0.80480 0.74976 0.14482
 O474 O 0.74929 0.70636 0.13373
 O475 O 0.74908 0.69550 0.35254
 O476 O 0.79557 0.74751 0.36307
 O477 O 0.64706 0.74917 0.30438
 O478 O 0.63426 0.79394 0.24770
 O479 O 0.69506 0.64719 0.25022
 O480 O 0.75147 0.63430 0.20581
 O481 O 0.74885 0.64749 0.30452
 O482 O 0.79487 0.63571 0.24696
 O483 O 0.64698 0.69515 0.25032
 O484 O 0.63497 0.75247 0.20480
 O485 O 0.69513 0.74867 0.35242
 O486 O 0.75021 0.79480 0.36432
 O487 O 0.74904 0.80608 0.14560
 O488 O 0.70462 0.75038 0.13464
 O489 O 0.85315 0.74996 0.19265
 O490 O 0.86224 0.70284 0.24826
 O491 O 0.80601 0.85333 0.24977
 O492 O 0.75041 0.86466 0.29388
 Zr493 Zr 0.75176 0.82166 0.24774
 O494 O 0.71430 0.78756 0.28489
 Zr495 Zr 0.82169 0.75132 0.24714
 O496 O 0.78753 0.71449 0.28506
 Zr497 Zr 0.75107 0.75187 0.17737
 O498 O 0.71411 0.71440 0.21177
 Zr499 Zr 0.74912 0.74928 0.32033
 O500 O 0.78710 0.78661 0.28622
 Zr501 Zr 0.67887 0.74924 0.25018
 O502 O 0.71273 0.78712 0.21254
 Zr503 Zr 0.74911 0.67918 0.25019
 O504 O 0.78643 0.71306 0.21192
 O505 O 0.78854 0.78861 0.21035
 O506 O 0.71163 0.71182 0.28763
 C507 C 0.74852 0.84257 0.15729
 C508 C 0.84248 0.84159 0.25104
 C509 C 0.84141 0.74909 0.15618
 C510 C 0.74895 0.65901 0.34106
 C511 C 0.65859 0.74888 0.34090
 C512 C 0.65853 0.65867 0.25024
 H513 H 0.69773 0.80570 0.30118
 H514 H 0.69765 0.69792 0.19369
 H515 H 0.80560 0.80575 0.19339
 H516 H 0.80549 0.69822 0.30188
 H517 H 0.81608 0.76689 0.35424
 H518 H 0.86005 0.73800 0.31292
 H519 H 0.64020 0.73070 0.18557
 H520 H 0.68403 0.76945 0.14389
 H521 H 0.72920 0.81449 0.35789
 H522 H 0.76913 0.85524 0.31472
 H523 H 0.73147 0.64102 0.18516
 H524 H 0.76738 0.68500 0.14319
 H525 H 0.68478 0.85581 0.23152
 H526 H 0.64057 0.81413 0.26828
 H527 H 0.85419 0.68433 0.22669
 H528 H 0.81359 0.64052 0.26928
 O529 O 0.74994 0.14624 0.80615
 O530 O 0.70630 0.13487 0.75079
 O531 O 0.85402 0.19495 0.74890
 O532 O 0.86855 0.24662 0.70970
 O533 O 0.80586 0.25035 0.85463
 O534 O 0.75043 0.29391 0.86614
 O535 O 0.74870 0.30465 0.64742
 O536 O 0.79511 0.25248 0.63664
 O537 O 0.64689 0.25098 0.69619
 O538 O 0.63456 0.20621 0.75317
 O539 O 0.69534 0.35303 0.74998
 O540 O 0.75209 0.36578 0.79418
 O541 O 0.74887 0.35267 0.69544
 O542 O 0.79512 0.36447 0.75266
 O543 O 0.64723 0.30510 0.75017
 O544 O 0.63534 0.24797 0.79577
 O545 O 0.69469 0.25144 0.64789
 O546 O 0.74951 0.20545 0.63550
 O547 O 0.74982 0.19414 0.85439
 O548 O 0.70575 0.24993 0.86571
 O549 O 0.85385 0.25005 0.80644
 O550 O 0.86257 0.29711 0.75088
 O551 O 0.80606 0.14674 0.75000
 O552 O 0.75026 0.13544 0.70615
 Zr553 Zr 0.75187 0.17849 0.75223
 O554 O 0.71424 0.21261 0.71529
 Zr555 Zr 0.82190 0.24873 0.75227
 O556 O 0.78752 0.28562 0.71462
 Zr557 Zr 0.75180 0.24833 0.82256
 O558 O 0.71460 0.28579 0.78840
 Zr559 Zr 0.74886 0.25086 0.67962
 O560 O 0.78699 0.21345 0.71347
 Zr561 Zr 0.67906 0.25098 0.75021
 O562 O 0.71315 0.21312 0.78767
 Zr563 Zr 0.74936 0.32098 0.74974
 O564 O 0.78695 0.28706 0.78772
 O565 O 0.78896 0.21152 0.78933
 O566 O 0.71162 0.28836 0.71254
 C567 C 0.74908 0.15765 0.84273
 C568 C 0.84254 0.15843 0.74852
 C569 C 0.84239 0.25094 0.84299
 C570 C 0.74874 0.34114 0.65891
 C571 C 0.65822 0.25122 0.65961
 C572 C 0.65880 0.34157 0.75015
 H573 H 0.69755 0.19448 0.69912
 H574 H 0.69826 0.30229 0.80657
 H575 H 0.80608 0.19436 0.80622
 H576 H 0.80540 0.30187 0.69769
 H577 H 0.81557 0.23298 0.64532
 H578 H 0.85979 0.26220 0.68622
 H579 H 0.64084 0.26962 0.81505
 H580 H 0.68492 0.23110 0.85651
 H581 H 0.72886 0.18552 0.64235
 H582 H 0.76889 0.14482 0.68521
 H583 H 0.73208 0.35917 0.81486
 H584 H 0.76855 0.31518 0.85656
 H585 H 0.68495 0.14442 0.76885
 H586 H 0.64052 0.18616 0.73235
 H587 H 0.85461 0.31570 0.77242
 H588 H 0.81382 0.35951 0.73034
 O589 O 0.25049 0.85403 0.80604
 O590 O 0.29424 0.86509 0.75052
 O591 O 0.14614 0.80602 0.74898
 O592 O 0.13128 0.75437 0.70972
 O593 O 0.19419 0.75015 0.85464
 O594 O 0.24948 0.70636 0.86597
 O595 O 0.25077 0.69540 0.64744
 O596 O 0.20441 0.74781 0.63668
 O597 O 0.35279 0.74888 0.69587
 O598 O 0.36536 0.79369 0.75288
 O599 O 0.30407 0.64707 0.74985
 O600 O 0.24705 0.63484 0.79447
 O601 O 0.25043 0.64745 0.69553
 O602 O 0.20439 0.63581 0.75255
 O603 O 0.35237 0.69482 0.74986
 O604 O 0.36468 0.75178 0.79533
 O605 O 0.30492 0.74857 0.64763
 O606 O 0.25032 0.79456 0.63521
 O607 O 0.25039 0.80612 0.85428
 O608 O 0.29427 0.75025 0.86553
 O609 O 0.14611 0.75075 0.80653
 O610 O 0.13689 0.70392 0.75103
 O611 O 0.19440 0.85394 0.74995
 O612 O 0.25007 0.86492 0.70607
 Zr613 Zr 0.24835 0.82182 0.75210
 O614 O 0.28568 0.78748 0.71506
 Zr615 Zr 0.17793 0.75199 0.75227
 O616 O 0.21206 0.71482 0.71464
 Zr617 Zr 0.24817 0.75198 0.82244
 O618 O 0.28516 0.71437 0.78824
 Zr619 Zr 0.25082 0.74932 0.67950
 O620 O 0.21298 0.78702 0.71339
 Zr621 Zr 0.32075 0.74902 0.74995
 O622 O 0.28693 0.78701 0.78750
 Zr623 Zr 0.25014 0.67931 0.74971
 O624 O 0.21274 0.71346 0.78766
 O625 O 0.21114 0.78900 0.78927
 O626 O 0.28796 0.71172 0.71240
 C627 C 0.25128 0.84260 0.84261
 C628 C 0.15785 0.84249 0.74855
 C629 C 0.15764 0.74972 0.84307
 C630 C 0.25060 0.65891 0.65898
 C631 C 0.34140 0.74868 0.65930
 C632 C 0.34067 0.65840 0.74990
 H633 H 0.30240 0.80553 0.69883
 H634 H 0.30147 0.69782 0.80639
 H635 H 0.19412 0.80623 0.80619
 H636 H 0.19409 0.69862 0.69776
 H637 H 0.18414 0.76752 0.64532
 H638 H 0.13984 0.73856 0.68632
 H639 H 0.35900 0.73032 0.81476
 H640 H 0.31519 0.76895 0.85625
 H641 H 0.27078 0.81464 0.64221
 H642 H 0.23144 0.85559 0.68510
 H643 H 0.26770 0.64094 0.81468
 H644 H 0.23122 0.68518 0.85644
 H645 H 0.31544 0.85555 0.76878
 H646 H 0.35956 0.81363 0.73192
 H647 H 0.14495 0.68512 0.77234
 H648 H 0.18537 0.64118 0.73061
 O649 O 0.24813 0.35327 0.69516
 O650 O 0.20456 0.36459 0.75058
 O651 O 0.35245 0.30506 0.75211
 O652 O 0.36722 0.25345 0.79134
 O653 O 0.30415 0.24931 0.64654
 O654 O 0.24880 0.20572 0.63508
 O655 O 0.24769 0.19473 0.85345
 O656 O 0.29390 0.24710 0.86444
 O657 O 0.14560 0.24811 0.80510
 O658 O 0.13275 0.29267 0.74848
 O659 O 0.19446 0.14634 0.75121
 O660 O 0.25140 0.13422 0.70641
 O661 O 0.24802 0.14680 0.80533
 O662 O 0.29401 0.13508 0.74838
 O663 O 0.14610 0.19403 0.75122
 O664 O 0.13411 0.25145 0.70536
 O665 O 0.19349 0.24775 0.85331
 O666 O 0.24805 0.29385 0.86581
 O667 O 0.24811 0.30535 0.64692
 O668 O 0.20414 0.24965 0.63558
 O669 O 0.35228 0.24986 0.69460
 O670 O 0.36146 0.20300 0.75017
 O671 O 0.30432 0.35311 0.75120
 O672 O 0.24851 0.36406 0.79522
 Zr673 Zr 0.25025 0.32109 0.74907
 O674 O 0.21277 0.28678 0.78597
 Zr675 Zr 0.32053 0.25116 0.74883
 O676 O 0.28635 0.21406 0.78641
 Zr677 Zr 0.25023 0.25126 0.67870
 O678 O 0.21321 0.21364 0.71278
 Zr679 Zr 0.24761 0.24863 0.82150
 O680 O 0.28557 0.28625 0.78773
 Zr681 Zr 0.17767 0.24831 0.75108
 O682 O 0.21157 0.28636 0.71367
 Zr683 Zr 0.24830 0.17862 0.75124
 O684 O 0.28571 0.21272 0.71335
 O685 O 0.28735 0.28821 0.71186
 O686 O 0.21050 0.21102 0.78858
 C687 C 0.24731 0.34180 0.65862
 C688 C 0.34086 0.34155 0.75257
 C689 C 0.34069 0.24882 0.65810
 C690 C 0.24788 0.15829 0.84183
 C691 C 0.15701 0.24784 0.84165
 C692 C 0.15787 0.15762 0.75121
 H693 H 0.19604 0.30482 0.80220
 H694 H 0.19690 0.19710 0.69461
 H695 H 0.30441 0.30542 0.69495
 H696 H 0.30432 0.19786 0.80328
 H697 H 0.31424 0.26675 0.85583
 H698 H 0.35855 0.23785 0.81484
 H699 H 0.13920 0.22937 0.68645
 H700 H 0.18324 0.26835 0.64488
 H701 H 0.22749 0.31385 0.85889
 H702 H 0.26726 0.35477 0.81609
 H703 H 0.23056 0.14016 0.68636
 H704 H 0.26699 0.18446 0.64458
 H705 H 0.18320 0.35496 0.73257
 H706 H 0.13904 0.31307 0.76886
 H707 H 0.35350 0.18429 0.72874
 H708 H 0.31303 0.14041 0.77034
 O709 O 0.75124 0.64669 0.69508
 O710 O 0.79474 0.63511 0.75066
 O711 O 0.64707 0.69517 0.75211
 O712 O 0.63245 0.74697 0.79122
 O713 O 0.69579 0.75075 0.64648
 O714 O 0.75132 0.79433 0.63530
 O715 O 0.75216 0.80515 0.85351
 O716 O 0.70556 0.75297 0.86436
 O717 O 0.85400 0.75118 0.80540
 O718 O 0.86659 0.70631 0.74868
 O719 O 0.80595 0.85310 0.75131
 O720 O 0.74891 0.86546 0.70634
 O721 O 0.75223 0.85306 0.80537
 O722 O 0.70655 0.86518 0.74855
 O723 O 0.85400 0.80512 0.75140
 O724 O 0.86588 0.74779 0.70582
 O725 O 0.80603 0.75179 0.85354
 O726 O 0.75125 0.70604 0.86595
 O727 O 0.75154 0.69466 0.64689
 O728 O 0.79576 0.75007 0.63570
 O729 O 0.64759 0.75035 0.69446
 O730 O 0.63845 0.79729 0.74995
 O731 O 0.69501 0.64693 0.75118
 O732 O 0.75064 0.63562 0.79509
 Zr733 Zr 0.74919 0.67874 0.74908
 O734 O 0.78671 0.71285 0.78613
 Zr735 Zr 0.67921 0.74898 0.74878
 O736 O 0.71352 0.78595 0.78639
 Zr737 Zr 0.74962 0.74865 0.67877
 O738 O 0.78682 0.78599 0.71294
 Zr739 Zr 0.75200 0.75121 0.82159
 O740 O 0.71397 0.71374 0.78772
 Zr741 Zr 0.82208 0.75109 0.75129
 O742 O 0.78806 0.71331 0.71375
 Zr743 Zr 0.75185 0.82119 0.75132
 O744 O 0.71427 0.78731 0.71340
 O745 O 0.71228 0.71181 0.71185
 O746 O 0.78940 0.78859 0.78873
 C747 C 0.75217 0.65821 0.65854
 C748 C 0.65853 0.65862 0.75258
 C749 C 0.65924 0.75133 0.65798
 C750 C 0.75223 0.84160 0.84188
 C751 C 0.84253 0.75152 0.84194
 C752 C 0.84247 0.84158 0.75132
 H753 H 0.80330 0.69471 0.80241
 H754 H 0.80326 0.80243 0.69479
 H755 H 0.69518 0.69467 0.69493
 H756 H 0.69560 0.80226 0.80323
 H757 H 0.68520 0.73336 0.85572
 H758 H 0.64113 0.76261 0.81469
 H759 H 0.86070 0.76962 0.68665
 H760 H 0.81659 0.73131 0.64503
 H761 H 0.77160 0.68584 0.85899
 H762 H 0.73208 0.64507 0.81607
 H763 H 0.76999 0.85961 0.68651
 H764 H 0.73302 0.81553 0.64471
 H765 H 0.81610 0.64459 0.73257
 H766 H 0.86040 0.68622 0.76939
 H767 H 0.64663 0.81601 0.72862
 H768 H 0.68719 0.85963 0.77015
 O769 O 0.24828 0.64683 0.30501
 O770 O 0.20484 0.63552 0.24955
 O771 O 0.35271 0.69514 0.24825
 O772 O 0.36759 0.74684 0.20922
 O773 O 0.30417 0.75072 0.35387
 O774 O 0.24885 0.79436 0.36520
 O775 O 0.24803 0.80534 0.14676
 O776 O 0.29435 0.75313 0.13588
 O777 O 0.14599 0.75199 0.19493
 O778 O 0.13301 0.70741 0.25158
 O779 O 0.19465 0.85379 0.24901
 O780 O 0.25146 0.86602 0.29373
 O781 O 0.24825 0.85329 0.19487
 O782 O 0.29427 0.86500 0.25197
 O783 O 0.14632 0.80609 0.24887
 O784 O 0.13420 0.74870 0.29461
 O785 O 0.19397 0.75230 0.14679
 O786 O 0.24865 0.70618 0.13453
 O787 O 0.24811 0.69471 0.35329
 O788 O 0.20413 0.75046 0.36456
 O789 O 0.35237 0.75025 0.30589
 O790 O 0.36164 0.79723 0.25036
 O791 O 0.30458 0.64709 0.24906
 O792 O 0.24882 0.63610 0.20499
 Zr793 Zr 0.25049 0.67905 0.25116
 O794 O 0.21307 0.71335 0.21420
 Zr795 Zr 0.32076 0.74902 0.25157
 O796 O 0.28664 0.78609 0.21391
 Zr797 Zr 0.25032 0.74884 0.32157
 O798 O 0.21337 0.78647 0.28741
 Zr799 Zr 0.24799 0.75149 0.17874
 O800 O 0.28590 0.71391 0.21259
 Zr801 Zr 0.17791 0.75181 0.24904
 O802 O 0.21174 0.71376 0.28650
 Zr803 Zr 0.24851 0.82151 0.24900
 O804 O 0.28584 0.78742 0.28698
 O805 O 0.28752 0.71192 0.28845
 O806 O 0.21079 0.78910 0.21159
 C807 C 0.24735 0.65827 0.34156
 C808 C 0.34112 0.65865 0.24772
 C809 C 0.34073 0.75122 0.34237
 C810 C 0.24814 0.84179 0.15836
 C811 C 0.15747 0.75221 0.15840
 C812 C 0.15806 0.84250 0.24895
 H813 H 0.19638 0.69530 0.19794
 H814 H 0.19703 0.80301 0.30555
 H815 H 0.30455 0.69469 0.30537
 H816 H 0.30463 0.80230 0.19707
 H817 H 0.31473 0.73354 0.14455
 H818 H 0.35894 0.76237 0.18567
 H819 H 0.13934 0.77068 0.31362
 H820 H 0.18326 0.73173 0.35523
 H821 H 0.22794 0.68628 0.14129
 H822 H 0.26765 0.64536 0.18417
 H823 H 0.23081 0.85989 0.31393
 H824 H 0.26705 0.81562 0.35574
 H825 H 0.18341 0.64516 0.26748
 H826 H 0.13928 0.68708 0.23114
 H827 H 0.35365 0.81587 0.27184
 H828 H 0.31321 0.85979 0.22991
 O829 O 0.75110 0.35329 0.30513
 O830 O 0.79454 0.36488 0.24961
 O831 O 0.64690 0.30475 0.24811
 O832 O 0.63241 0.25300 0.20883
 O833 O 0.69543 0.24924 0.35369
 O834 O 0.75090 0.20567 0.36503
 O835 O 0.75214 0.19489 0.14674
 O836 O 0.70569 0.24703 0.13578
 O837 O 0.85399 0.24878 0.19513
 O838 O 0.86639 0.29369 0.25192
 O839 O 0.80583 0.14686 0.24893
 O840 O 0.74880 0.13441 0.29384
 O841 O 0.75212 0.14694 0.19484
 O842 O 0.70638 0.13481 0.25169
 O843 O 0.85388 0.19485 0.24898
 O844 O 0.86565 0.25208 0.29470
 O845 O 0.80610 0.24813 0.14691
 O846 O 0.75129 0.29402 0.13442
 O847 O 0.75133 0.30535 0.35336
 O848 O 0.79540 0.24981 0.36468
 O849 O 0.64730 0.24960 0.30564
 O850 O 0.63832 0.20263 0.25015
 O851 O 0.69485 0.35297 0.24908
 O852 O 0.75051 0.36427 0.20513
 Zr853 Zr 0.74904 0.32120 0.25119
 O854 O 0.78664 0.28711 0.21422
 Zr855 Zr 0.67906 0.25096 0.25140
 O856 O 0.71343 0.21402 0.21383
 Zr857 Zr 0.74935 0.25131 0.32152
 O858 O 0.78660 0.21395 0.28741
 Zr859 Zr 0.75198 0.24878 0.17871
 O860 O 0.71386 0.28621 0.21251
 Zr861 Zr 0.82194 0.24886 0.24914
 O862 O 0.78785 0.28665 0.28661
 Zr863 Zr 0.75171 0.17875 0.24894
 O864 O 0.71407 0.21264 0.28682
 O865 O 0.71208 0.28814 0.28838
 O866 O 0.78932 0.21139 0.21162
 C867 C 0.75203 0.34180 0.34167
 C868 C 0.65836 0.34129 0.24768
 C869 C 0.65889 0.24866 0.34214
 C870 C 0.75216 0.15843 0.15833
 C871 C 0.84258 0.24839 0.15858
 C872 C 0.84236 0.15838 0.24895
 H873 H 0.80327 0.30525 0.19799
 H874 H 0.80301 0.19750 0.30558
 H875 H 0.69497 0.30528 0.30529
 H876 H 0.69555 0.19771 0.19696
 H877 H 0.68524 0.26655 0.14443
 H878 H 0.64111 0.23730 0.18541
 H879 H 0.86047 0.23020 0.31381
 H880 H 0.81628 0.26853 0.35538
 H881 H 0.77181 0.31407 0.14129
 H882 H 0.73193 0.35483 0.18417
 H883 H 0.76977 0.14033 0.31377
 H884 H 0.73271 0.18442 0.35552
 H885 H 0.81594 0.35539 0.26764
 H886 H 0.86035 0.31369 0.23109
 H887 H 0.64646 0.18393 0.27152
 H888 H 0.68709 0.14030 0.23002
 C889 C 0.25251 0.10155 0.10166
 C890 C 0.25243 0.12696 0.12715
 C891 C 0.75258 0.60266 0.60295
 C892 C 0.75266 0.62804 0.62836
 C893 C 0.74791 0.89842 0.10169
 C894 C 0.74792 0.87295 0.12714
 C895 C 0.24676 0.39733 0.60296
 C896 C 0.24673 0.37203 0.62847
 C897 C 0.74836 0.10180 0.89835
 C898 C 0.74845 0.12727 0.87290
 C899 C 0.24664 0.60263 0.39711
 C900 C 0.24668 0.62800 0.37166
 C901 C 0.25205 0.89833 0.89830
 C902 C 0.25197 0.87293 0.87280
 C903 C 0.75264 0.39748 0.39712
 C904 C 0.75263 0.37202 0.37179
 C905 C 0.10267 0.25047 0.10052
 C906 C 0.12804 0.25059 0.12608
 C907 C 0.60348 0.75175 0.60248
 C908 C 0.62905 0.75181 0.62776
 C909 C 0.10155 0.74932 0.89846
 C910 C 0.12727 0.74928 0.87325
 C911 C 0.60325 0.24831 0.39778
 C912 C 0.62867 0.24822 0.37235
 C913 C 0.89714 0.74866 0.10044
 C914 C 0.87157 0.74860 0.12580
 C915 C 0.39636 0.24826 0.60251
 C916 C 0.37092 0.24829 0.62791
 C917 C 0.89836 0.25121 0.89850
 C918 C 0.87279 0.25135 0.87314
 C919 C 0.39656 0.75162 0.39781
 C920 C 0.37095 0.75167 0.37257
 C921 C 0.10252 0.10159 0.25184
 C922 C 0.12776 0.12723 0.25179
 C923 C 0.60264 0.60315 0.75380
 C924 C 0.62818 0.62849 0.75354
 C925 C 0.89826 0.10290 0.74752
 C926 C 0.87285 0.12832 0.74765
 C927 C 0.39673 0.60298 0.24655
 C928 C 0.37135 0.62845 0.24678
 C929 C 0.10257 0.89852 0.74765
 C930 C 0.12777 0.87286 0.74772
 C931 C 0.60269 0.39694 0.24664
 C932 C 0.62806 0.37145 0.24681
 C933 C 0.89827 0.89708 0.25223
 C934 C 0.87284 0.87167 0.25198
 C935 C 0.39672 0.39701 0.75358
 C936 C 0.37114 0.37172 0.75343
 C937 C 0.10138 0.24810 0.89743
 C938 C 0.12669 0.24783 0.87183
 C939 C 0.60281 0.74922 0.39658
 C940 C 0.62831 0.74894 0.37116
 C941 C 0.89835 0.75117 0.89752
 C942 C 0.87284 0.75144 0.87212
 C943 C 0.39714 0.25078 0.39653
 C944 C 0.37176 0.25113 0.37099
 C945 C 0.10171 0.75176 0.10280
 C946 C 0.12718 0.75212 0.12821
 C947 C 0.60248 0.25067 0.60387
 C948 C 0.62783 0.25105 0.62944
 C949 C 0.89825 0.24866 0.10290
 C950 C 0.87291 0.24842 0.12843
 C951 C 0.39731 0.74921 0.60374
 C952 C 0.37179 0.74883 0.62914
 C953 C 0.24895 0.10265 0.89735
 C954 C 0.24829 0.12805 0.87196
 C955 C 0.74973 0.60333 0.39685
 C956 C 0.74923 0.62878 0.37139
 C957 C 0.75130 0.10281 0.10275
 C958 C 0.75186 0.12819 0.12818
 C959 C 0.24982 0.60320 0.60320
 C960 C 0.25032 0.62861 0.62871
 C961 C 0.75138 0.89734 0.89734
 C962 C 0.75195 0.87189 0.87198
 C963 C 0.24950 0.39665 0.39680
 C964 C 0.25009 0.37125 0.37127
 C965 C 0.24905 0.89730 0.10271
 C966 C 0.24848 0.87198 0.12819
 C967 C 0.74953 0.39685 0.60317
 C968 C 0.74900 0.37138 0.62860
 C969 C 0.10264 0.10149 0.75055
 C970 C 0.12784 0.12717 0.75097
 C971 C 0.60293 0.60289 0.24927
 C972 C 0.62829 0.62840 0.24985
 C973 C 0.10278 0.89860 0.24961
 C974 C 0.12801 0.87294 0.24920
 C975 C 0.60299 0.39717 0.75116
 C976 C 0.62853 0.37182 0.75057
 C977 C 0.89807 0.10276 0.24958
 C978 C 0.87264 0.12819 0.24917
 C979 C 0.39641 0.60278 0.75082
 C980 C 0.37085 0.62809 0.75027
 C981 C 0.89812 0.89724 0.75037
 C982 C 0.87272 0.87179 0.75094
 C983 C 0.39654 0.39716 0.24949
 C984 C 0.37115 0.37169 0.25000
   
