data_POSCAR
  _audit_creation_date              2014-09-24
  _audit_creation_method            'ToBaCCo'
  _symmetry_space_group_name_H-M    'P1'
  _symmetry_Int_Tables_number       1
  _symmetry_cell_setting            triclinic
  loop_
  _symmetry_equiv_pos_as_xyz
 x,y,z
_cell_length_a 57.8228
_cell_length_b 57.8222
_cell_length_c 20.4434
_cell_angle_alpha 90.000000
_cell_angle_beta 90.000000
_cell_angle_gamma 120.000000
loop_
  _atom_site_label
  _atom_site_type_symbol
  _atom_site_fract_x
  _atom_site_fract_y
  _atom_site_fract_z
C1 C 0.19670 0.50009 0.43437
 C2 C 0.18377 0.50004 0.50005
 C3 C 0.19653 0.50009 0.56637
 C4 C 0.22333 0.49998 0.56532
 C5 C 0.23667 0.50000 0.50000
 C6 C 0.22335 0.49999 0.43473
 C7 C 0.23685 0.50000 0.37039
 C8 C 0.26315 0.50000 0.37038
 C9 C 0.27661 0.50002 0.43461
 C10 C 0.26331 0.50000 0.50000
 C11 C 0.23685 0.50000 0.62961
 C12 C 0.26315 0.50000 0.62962
 C13 C 0.27661 0.50002 0.56539
 C14 C 0.30281 0.49987 0.56610
 C15 C 0.31262 0.49649 0.50000
 C16 C 0.30280 0.49987 0.43390
 H17 H 0.22692 0.50000 0.32163
 H18 H 0.27308 0.50000 0.32164
 H19 H 0.22692 0.50000 0.67837
 H20 H 0.27308 0.50000 0.67836
 H21 H 0.16387 0.50000 0.49999
 H22 H 0.32197 0.47371 0.49997
 C23 C 0.49970 -0.30356 0.43351
 C24 C 0.50000 -0.31622 0.50000
 C25 C 0.49970 -0.30356 0.56649
 C26 C 0.49997 -0.27666 0.56533
 C27 C 0.50000 -0.26333 0.50000
 C28 C 0.49997 -0.27666 0.43467
 C29 C 0.50000 -0.26315 0.37039
 C30 C 0.50000 -0.23685 0.37040
 C31 C 0.49999 -0.22337 0.43472
 C32 C 0.50000 -0.23668 0.50000
 C33 C 0.50000 -0.26315 0.62961
 C34 C 0.50001 -0.23684 0.62961
 C35 C 0.49999 -0.22338 0.56531
 C36 C 0.50006 -0.19683 0.56493
 C37 C 0.49981 -0.18400 0.49950
 C38 C 0.49997 -0.19673 0.43425
 H39 H 0.50000 -0.27308 0.32163
 H40 H 0.50003 -0.22694 0.32165
 H41 H 0.50000 -0.27308 0.67837
 H42 H 0.50000 -0.22692 0.67836
 H43 H 0.50000 -0.33613 0.50000
 H44 H 0.49993 -0.16391 0.49979
 C45 C 1.19640 0.69661 0.56638
 C46 C 1.18375 0.68377 0.50005
 C47 C 1.19658 0.69677 0.43436
 C48 C 1.22336 0.72336 0.43473
 C49 C 1.23667 0.73667 0.50000
 C50 C 1.22335 0.72335 0.56532
 C51 C 1.23685 0.73685 0.62961
 C52 C 1.26315 0.76315 0.62961
 C53 C 1.27667 0.77664 0.56532
 C54 C 1.26333 0.76333 0.50000
 C55 C 1.23685 0.73684 0.37039
 C56 C 1.26315 0.76315 0.37039
 C57 C 1.27665 0.77663 0.43473
 C58 C 1.30332 0.80332 0.43433
 C59 C 1.31621 0.81626 0.50005
 C60 C 1.30348 0.80348 0.56643
 H61 H 1.22692 0.72692 0.67837
 H62 H 1.27307 0.77308 0.67837
 H63 H 1.22692 0.72692 0.32163
 H64 H 1.27307 0.77308 0.32164
 H65 H 1.16387 0.66387 0.50000
 H66 H 1.33613 0.83613 0.49999
 C67 C 0.69675 0.50016 0.43437
 C68 C 0.68377 0.50002 0.50005
 C69 C 0.69658 0.50017 0.56637
 C70 C 0.72334 0.49999 0.56532
 C71 C 0.73667 0.50000 0.50000
 C72 C 0.72336 0.50000 0.43473
 C73 C 0.73684 0.50000 0.37040
 C74 C 0.76310 0.50001 0.37057
 C75 C 0.77663 0.49999 0.43472
 C76 C 0.76333 0.50000 0.50000
 C77 C 0.73684 0.50000 0.62960
 C78 C 0.76310 0.50001 0.62943
 C79 C 0.77663 0.49997 0.56533
 C80 C 0.80339 0.49998 0.56656
 C81 C 0.81616 0.50001 0.50005
 C82 C 0.80324 0.49997 0.43422
 H83 H 0.72692 0.50000 0.32163
 H84 H 0.77254 0.50067 0.32318
 H85 H 0.72692 0.50000 0.67837
 H86 H 0.77253 0.50067 0.67682
 H87 H 0.66387 0.50000 0.49999
 H88 H 0.83579 0.49975 0.50000
 C89 C 0.49998 0.30328 0.43429
 C90 C 0.50004 0.31625 0.50005
 C91 C 0.49997 0.30344 0.56647
 C92 C 0.49996 0.27663 0.56532
 C93 C 0.50000 0.26333 0.50000
 C94 C 0.49999 0.27663 0.43472
 C95 C 0.50000 0.26315 0.37040
 C96 C 0.50000 0.23685 0.37039
 C97 C 0.49999 0.22336 0.43472
 C98 C 0.50000 0.23667 0.50000
 C99 C 0.50000 0.26315 0.62960
 C100 C 0.50000 0.23685 0.62961
 C101 C 0.50002 0.22336 0.56532
 C102 C 0.49991 0.19645 0.56637
 C103 C 0.49996 0.18375 0.50009
 C104 C 0.49972 0.19661 0.43427
 H105 H 0.50003 0.27306 0.32165
 H106 H 0.50000 0.22692 0.32163
 H107 H 0.50003 0.27306 0.67835
 H108 H 0.50000 0.22692 0.67837
 H109 H 0.49999 0.33612 0.49999
 H110 H 0.50000 0.16387 0.50001
 C111 C 0.69671 0.19661 0.43437
 C112 C 0.68378 0.18374 0.50005
 C113 C 0.69652 0.19648 0.56639
 C114 C 0.72333 0.22336 0.56532
 C115 C 0.73667 0.23667 0.50000
 C116 C 0.72335 0.22336 0.43473
 C117 C 0.73685 0.23685 0.37039
 C118 C 0.76315 0.26315 0.37039
 C119 C 0.77665 0.27663 0.43473
 C120 C 0.76333 0.26333 0.50000
 C121 C 0.73685 0.23685 0.62961
 C122 C 0.76315 0.26315 0.62961
 C123 C 0.77667 0.27663 0.56532
 C124 C 0.80348 0.30348 0.56643
 C125 C 0.81621 0.31626 0.50005
 C126 C 0.80332 0.30332 0.43433
 H127 H 0.72692 0.22692 0.32163
 H128 H 0.77307 0.27308 0.32164
 H129 H 0.72692 0.22692 0.67837
 H130 H 0.77307 0.27307 0.67836
 H131 H 0.66387 0.16387 0.49999
 H132 H 0.83613 0.33613 0.50000
 O133 O 0.97397 0.50563 -0.13167
 O134 O 1.02280 0.53111 0.14150
 O135 O 0.94216 0.49116 0.06562
 O136 O 1.05197 0.54692 -0.05674
 O137 O 0.97213 0.50634 0.14082
 O138 O 1.02447 0.53046 -0.13130
 O139 O 1.05201 0.54720 0.06365
 O140 O 0.94189 0.49067 -0.05739
 C141 C 0.95250 0.50762 -0.11410
 C142 C 1.04717 0.55509 0.11452
 C143 C 0.95250 0.50784 0.11451
 C144 C 1.04720 0.55494 -0.11413
 O145 O 1.02492 0.48729 -0.13190
 O146 O 0.97279 0.46282 0.13663
 O147 O 0.82221 0.46588 -0.14235
 O148 O 1.05500 0.50401 0.06572
 O149 O 1.02362 0.48808 0.14131
 O150 O 0.97399 0.46190 -0.13525
 O151 O 1.05389 0.50338 -0.05980
 O152 O 0.94366 0.44823 0.06627
 Co153 Co 1.04691 0.39334 0.06641
 Co154 Co 0.92959 0.40641 0.24342
 Co155 Co 0.87511 0.38035 0.11184
 Co156 Co 0.99091 0.44625 0.09590
 O157 O 0.99102 0.48802 0.01748
 C158 C 1.04763 0.49251 -0.11473
 C159 C 0.95230 0.44474 0.11511
 C160 C 0.94741 0.44551 -0.11641
 C161 C 1.04748 0.49222 0.11525
 O162 O 0.48586 0.46204 -0.13292
 O163 O 0.46124 0.48854 0.14007
 O164 O 0.50204 0.44754 0.06596
 O165 O 0.44681 0.50359 -0.06023
 O166 O 0.48622 0.46213 0.14086
 O167 O 0.46109 0.48826 -0.13434
 O168 O 0.44778 0.50423 0.06653
 O169 O 0.50097 0.44709 -0.05776
 C170 C 0.49243 0.44480 -0.11516
 C171 C 0.44446 0.49209 0.11435
 C172 C 0.49212 0.44465 0.11539
 C173 C 0.44422 0.49195 -0.11413
 O174 O 0.50320 0.53030 -0.13207
 O175 O 0.52848 0.50523 0.14154
 O176 O 0.54341 0.48986 -0.05617
 O177 O 0.48959 0.54661 0.06495
 O178 O 0.50337 0.53049 0.14132
 O179 O 0.52830 0.50514 -0.13199
 O180 O 0.48940 0.54650 -0.05761
 O181 O 0.54348 0.48988 0.06582
 Co182 Co 0.35965 0.40656 -0.01055
 Co183 Co 0.35977 0.40627 0.23986
 Co184 Co 0.38551 0.38098 0.11410
 Co185 Co 0.35787 0.44697 0.09338
 O186 O 0.48168 0.48887 0.01834
 C187 C 0.50723 0.55477 -0.11340
 C188 C 0.55485 0.50762 0.11435
 C189 C 0.55470 0.50748 -0.11373
 C190 C 0.50733 0.55486 0.11387
 O191 O 0.52868 0.01884 -0.13220
 O192 O 0.50425 -0.03104 0.14105
 O193 O 0.54473 0.05018 0.06440
 O194 O 0.48773 -0.06220 -0.05838
 O195 O 0.52863 0.01851 0.14125
 O196 O 0.50432 -0.03065 -0.13274
 O197 O 0.48797 -0.06193 0.06339
 O198 O 0.54457 0.04997 -0.05723
 C199 C 0.55476 0.04716 -0.11410
 C200 C 0.50775 -0.04778 0.11411
 C201 C 0.55484 0.04713 0.11491
 C202 C 0.50733 -0.04813 -0.11314
 O203 O 0.46103 -0.02983 -0.13372
 O204 O 0.48563 0.01884 0.14124
 O205 O 0.50161 0.05032 -0.05765
 O206 O 0.44267 -0.06867 0.06578
 O207 O 0.46132 -0.02990 0.14171
 O208 O 0.48550 0.01910 -0.13243
 O209 O 0.44418 -0.04705 -0.01962
 O210 O 0.50199 0.05090 0.06446
 Co211 Co 0.35583 -0.14548 0.02781
 Co212 Co 0.36498 -0.15563 0.22558
 Co213 Co 0.41435 -0.07332 0.07508
 Co214 Co 0.33127 -0.21397 0.07904
 O215 O 0.48148 -0.02279 0.01209
 C216 C 0.44390 -0.04864 -0.11025
 C217 C 0.49181 0.04710 0.11515
 C218 C 0.49218 0.04729 -0.11452
 C219 C 0.44005 -0.05304 0.12596
 C220 C 1.15076 0.51567 0.29937
 C221 C 1.13460 0.48788 0.27082
 C222 C 1.14140 0.46608 0.28728
 C223 C 1.16464 0.47221 0.33286
 C224 C 1.18123 0.49977 0.36376
 C225 C 1.17448 0.52173 0.34606
 O226 O 1.13980 0.53229 0.27491
 C227 C 1.11650 0.51565 0.23089
 C228 C 1.11281 0.48788 0.22719
 C229 C 1.09051 0.46607 0.18554
 C230 C 1.07174 0.47218 0.14711
 C231 C 1.07434 0.49921 0.15013
 C232 C 1.09739 0.52173 0.19350
 H233 H 1.12899 0.44513 0.26532
 H234 H 1.16964 0.45578 0.34526
 H235 H 1.18693 0.54258 0.36825
 H236 H 1.08801 0.44513 0.18335
 H237 H 1.05493 0.45572 0.11577
 H238 H 1.10850 0.53573 0.25297
 C239 C 0.48534 0.64143 0.27600
 C240 C 0.51134 0.64182 0.28889
 C241 C 0.53174 0.66158 0.33783
 C242 C 0.52604 0.68111 0.37410
 C243 C 0.50045 0.68161 0.36489
 C244 C 0.47962 0.66160 0.31389
 O245 O 0.46976 0.62027 0.22651
 C246 C 0.48533 0.60709 0.20738
 C247 C 0.51134 0.62001 0.24528
 C248 C 0.53174 0.61071 0.23613
 C249 C 0.52604 0.58831 0.18871
 C250 C 0.50078 0.57494 0.15070
 C251 C 0.47963 0.58399 0.15850
 H252 H 0.55133 0.66165 0.34709
 H253 H 0.54139 0.69596 0.41111
 H254 H 0.46015 0.66159 0.30479
 H255 H 0.55133 0.62067 0.26513
 H256 H 0.54149 0.58134 0.18191
 H257 H 0.46016 0.57400 0.12954
 C258 C 0.35297 -0.13364 0.31045
 C259 C 0.35421 -0.14515 0.27528
 C260 C 0.34757 -0.18098 0.26835
 C261 C 0.32836 -0.19490 0.31467
 C262 C 0.31873 -0.18138 0.36373
 C263 C 0.33094 -0.15089 0.36040
 O264 O 0.36852 -0.10451 0.29609
 C265 C 0.38784 -0.09957 0.24153
 C266 C 0.40652 -0.12402 0.24422
 C267 C 0.40117 -0.12749 0.16501
 C268 C 0.41870 -0.10581 0.11425
 C269 C 0.40978 -0.08243 0.14381
 C270 C 0.40769 -0.07364 0.20639
 H271 H 0.35736 -0.18852 0.22892
 H272 H 0.31939 -0.21758 0.31593
 H273 H 0.32364 -0.14079 0.39649
 H274 H 0.39838 -0.14747 0.14700
 H275 H 0.44008 -0.10195 0.13510
 H276 H 0.41121 -0.05319 0.22118
 C277 C 0.86520 0.50530 0.32116
 C278 C 0.85308 0.49590 0.25396
 C279 C 0.82412 0.48854 0.24011
 C280 C 0.80712 0.49059 0.29434
 C281 C 0.81874 0.49998 0.36374
 C282 C 0.84768 0.50735 0.37597
 O283 O 0.89337 0.51093 0.31967
 C284 C 0.89950 0.50529 0.25258
 C285 C 0.87488 0.49590 0.21036
 C286 C 0.87499 0.48852 0.13834
 C287 C 0.90004 0.49058 0.10837
 C288 C 0.92543 0.50030 0.14983
 C289 C 0.92507 0.50734 0.22142
 H290 H 0.81521 0.48145 0.18898
 H291 H 0.78587 0.48438 0.28207
 H292 H 0.85656 0.51452 0.42681
 H293 H 0.85620 0.48145 0.10702
 H294 H 0.90008 0.48505 0.05425
 H295 H 0.94395 0.51441 0.25226
 C296 C 0.51108 0.36636 0.31426
 C297 C 0.49144 0.35218 0.25930
 C298 C 0.47604 0.32159 0.25503
 C299 C 0.48036 0.30500 0.30658
 C300 C 0.49994 0.31867 0.36371
 C301 C 0.51535 0.34926 0.36655
 O302 O 0.52284 0.39577 0.30544
 C303 C 0.51109 0.40068 0.24566
 C304 C 0.49144 0.37398 0.21569
 C305 C 0.47604 0.37247 0.15326
 C306 C 0.48038 0.39793 0.12062
 C307 C 0.49935 0.42490 0.14964
 C308 C 0.51527 0.42672 0.21195
 H309 H 0.46124 0.31114 0.21313
 H310 H 0.46873 0.28210 0.30318
 H311 H 0.53008 0.35952 0.40871
 H312 H 0.46124 0.35213 0.13116
 H313 H 0.46874 0.39681 0.07369
 H314 H 0.53001 0.44707 0.23368
 C315 C 0.65112 0.13528 0.29818
 C316 C 0.63431 0.14655 0.27174
 C317 C 0.64059 0.17486 0.28982
 C318 C 0.66398 0.19205 0.33493
 C319 C 0.68122 0.18146 0.36377
 C320 C 0.67500 0.15305 0.34444
 O321 O 0.64027 0.10762 0.27227
 C322 C 0.61681 0.10098 0.22958
 C323 C 0.61252 0.12476 0.22816
 C324 C 0.58989 0.12410 0.18810
 C325 C 0.57379 0.10071 0.14510
 C326 C 0.57500 0.07460 0.15010
 C327 C 0.59756 0.07559 0.18959
 H328 H 0.62769 0.18311 0.26942
 H329 H 0.66860 0.21326 0.34857
 H330 H 0.68794 0.14493 0.36506
 H331 H 0.58671 0.14213 0.18745
 H332 H 0.55479 0.09922 0.11642
 H333 H 0.60036 0.05736 0.18986
 C334 C 0.48437 0.13502 -0.29964
 C335 C 0.51208 0.14676 -0.27060
 C336 C 0.53383 0.17543 -0.28665
 C337 C 0.52771 0.19253 -0.33236
 C338 C 0.50022 0.18163 -0.36450
 C339 C 0.47834 0.15268 -0.34653
 O340 O 0.46776 0.10707 -0.27529
 C341 C 0.48437 0.10071 -0.23106
 C342 C 0.51209 0.12496 -0.22701
 C343 C 0.53383 0.12456 -0.18496
 C344 C 0.52692 0.09945 -0.14769
 C345 C 0.49974 0.07453 -0.15036
 C346 C 0.47833 0.07524 -0.19162
 H347 H 0.55472 0.18404 -0.26429
 H348 H 0.54410 0.21401 -0.34444
 H349 H 0.45754 0.14421 -0.36904
 H350 H 0.55470 0.14306 -0.18231
 H351 H 0.53729 0.09834 -0.11965
 H352 H 0.45754 0.05664 -0.19383
 C353 C 0.65292 0.51630 -0.29190
 C354 C 0.63292 0.48740 -0.27659
 C355 C 0.63669 0.46473 -0.30341
 C356 C 0.66076 0.47110 -0.34602
 C357 C 0.68135 0.49968 -0.36457
 C358 C 0.67751 0.52260 -0.33587
 O359 O 0.64399 0.53361 -0.25931
 C360 C 0.61861 0.51629 -0.22330
 C361 C 0.61112 0.48740 -0.23298
 C362 C 0.58580 0.46472 -0.20166
 C363 C 0.56782 0.47114 -0.16005
 C364 C 0.57476 0.50027 -0.15022
 C365 C 0.60006 0.52259 -0.18085
 H366 H 0.62138 0.44296 -0.29141
 H367 H 0.66351 0.45403 -0.36628
 H368 H 0.69284 0.54427 -0.34800
 H369 H 0.58040 0.44296 -0.20945
 H370 H 0.54889 0.45410 -0.13659
 H371 H 0.60526 0.54427 -0.17279
 C372 C 0.85314 0.36624 -0.30975
 C373 C 0.86239 0.35226 -0.26278
 C374 C 0.85018 0.32184 -0.26478
 C375 C 0.82840 0.30520 -0.31455
 C376 C 0.81858 0.31848 -0.36449
 C377 C 0.83095 0.34908 -0.36041
 O378 O 0.86851 0.39553 -0.29614
 C379 C 0.88745 0.40057 -0.24115
 C380 C 0.88419 0.37407 -0.21918
 C381 C 0.90106 0.37272 -0.16302
 C382 C 0.92136 0.39813 -0.12862
 C383 C 0.92549 0.42481 -0.14979
 C384 C 0.90845 0.42663 -0.20553
 H385 H 0.85739 0.31155 -0.22890
 H386 H 0.81939 0.28242 -0.31592
 H387 H 0.82364 0.35921 -0.39648
 H388 H 0.89838 0.35253 -0.14694
 H389 H 0.93410 0.39713 -0.08641
 H390 H 0.91123 0.44680 -0.22130
 C391 C 0.48893 -0.15642 -0.26585
 C392 C 0.50857 -0.13000 -0.29636
 C393 C 0.52397 -0.12849 -0.35870
 C394 C 0.52012 -0.15334 -0.39166
 C395 C 0.51452 -0.16972 -0.37600
 C396 C 0.48398 -0.17897 -0.27218
 O397 O 0.47709 -0.15130 -0.21257
 C398 C 0.48896 -0.12226 -0.19803
 C399 C 0.50856 -0.10819 -0.25275
 C400 C 0.52397 -0.07763 -0.25704
 C401 C 0.51965 -0.06118 -0.20591
 C402 C 0.50066 -0.07415 -0.15105
 C403 C 0.48467 -0.10519 -0.14514
 H404 H 0.53876 -0.10815 -0.38089
 H405 H 0.53152 -0.15255 -0.43799
 H406 H 0.46615 -0.20947 -0.29302
 H407 H 0.53876 -0.06717 -0.29892
 H408 H 0.53134 -0.03812 -0.20927
 H409 H 0.47114 -0.11509 -0.10296
 C410 C 0.34446 0.49471 -0.25945
 C411 C 0.36910 0.50408 -0.30168
 C412 C 0.36898 0.51139 -0.37358
 C413 C 0.34432 0.50961 -0.40192
 C414 C 0.31903 0.50008 -0.36456
 C415 C 0.31875 0.49263 -0.29078
 O416 O 0.35061 0.48907 -0.19237
 C417 C 0.37878 0.49471 -0.19082
 C418 C 0.39090 0.50410 -0.25808
 C419 C 0.41987 0.51149 -0.27195
 C420 C 0.43682 0.50945 -0.21797
 C421 C 0.42546 0.49979 -0.15096
 C422 C 0.39638 0.49264 -0.13564
 H423 H 0.38778 0.51857 -0.40502
 H424 H 0.35276 0.52983 -0.41803
 H425 H 0.30003 0.48559 -0.25977
 H426 H 0.42876 0.51855 -0.32307
 H427 H 0.45859 0.51495 -0.22843
 H428 H 0.38763 0.48558 -0.08459
 C429 C 1.13758 0.65386 -0.28812
 C430 C 1.14478 0.63220 -0.27952
 C431 C 1.16990 0.63466 -0.31158
 C432 C 1.18796 0.65909 -0.35268
 C433 C 1.18168 0.68132 -0.36462
 C434 C 1.15624 0.67883 -0.33067
 O435 O 1.11235 0.64592 -0.25152
 C436 C 1.10327 0.61955 -0.21953
 C437 C 1.12299 0.61040 -0.23599
 C438 C 1.11895 0.58385 -0.20953
 C439 C 1.09424 0.56753 -0.16113
 C440 C 1.07433 0.57496 -0.15026
 C441 C 1.07876 0.60136 -0.17564
 H442 H 1.17509 0.61811 -0.30463
 H443 H 1.20679 0.66087 -0.37693
 H444 H 1.15116 0.69539 -0.33774
 H445 H 1.13413 0.57715 -0.22256
 H446 H 1.08484 0.55136 -0.09194
 H447 H 1.06358 0.60780 -0.16254
 C448 C 0.86520 0.50530 -0.32115
 C449 C 0.85308 0.49591 -0.25397
 C450 C 0.82412 0.48857 -0.24025
 C451 C 0.80711 0.49061 -0.29439
 C452 C 0.81859 0.49997 -0.36453
 C453 C 0.84767 0.50734 -0.37599
 O454 O 0.89337 0.51093 -0.31967
 C455 C 0.89951 0.50529 -0.25257
 C456 C 0.87486 0.49582 -0.21013
 C457 C 0.87301 0.48330 -0.13466
 C458 C 0.89940 0.48981 -0.10833
 C459 C 0.92543 0.50033 -0.14988
 C460 C 0.92507 0.50733 -0.22142
 H461 H 0.81483 0.48224 -0.19118
 H462 H 0.78587 0.48438 -0.28206
 H463 H 0.85656 0.51452 -0.42681
 H464 H 0.85716 0.48223 -0.10601
 H465 H 0.90006 0.48503 -0.05428
 H466 H 0.94395 0.51441 -0.25226
 C467 C 0.51108 0.36636 -0.31426
 C468 C 0.49144 0.35218 -0.25930
 C469 C 0.47604 0.32159 -0.25503
 C470 C 0.48038 0.30499 -0.30661
 C471 C 0.49994 0.31853 -0.36450
 C472 C 0.51533 0.34925 -0.36659
 O473 O 0.52284 0.39577 -0.30544
 C474 C 0.51109 0.40068 -0.24566
 C475 C 0.49144 0.37398 -0.21569
 C476 C 0.47604 0.37247 -0.15326
 C477 C 0.48038 0.39794 -0.12062
 C478 C 0.49939 0.42493 -0.14966
 C479 C 0.51528 0.42672 -0.21195
 H480 H 0.46124 0.31114 -0.21313
 H481 H 0.46873 0.28210 -0.30318
 H482 H 0.53008 0.35953 -0.40871
 H483 H 0.46124 0.35213 -0.13116
 H484 H 0.46874 0.39681 -0.07369
 H485 H 0.53001 0.44707 -0.23368
 C486 C 0.64899 0.13428 -0.30444
 C487 C 0.63596 0.14733 -0.26689
 C488 C 0.64521 0.17703 -0.27626
 C489 C 0.66780 0.19385 -0.32391
 C490 C 0.68142 0.18158 -0.36448
 C491 C 0.67202 0.15166 -0.35312
 O492 O 0.63588 0.10555 -0.28519
 C493 C 0.61467 0.09997 -0.23586
 C494 C 0.61415 0.12553 -0.22331
 C495 C 0.59433 0.12614 -0.17460
 C496 C 0.57542 0.10083 -0.13838
 C497 C 0.57482 0.07451 -0.15026
 C498 C 0.59459 0.07422 -0.19830
 H499 H 0.63515 0.18662 -0.24749
 H500 H 0.67461 0.21609 -0.33090
 H501 H 0.68215 0.14222 -0.38207
 H502 H 0.59420 0.14564 -0.16548
 H503 H 0.56685 0.10236 -0.09449
 H504 H 0.59458 0.05464 -0.20687
 C505 C 1.15076 0.51567 -0.29937
 C506 C 1.13460 0.48788 -0.27082
 C507 C 1.14140 0.46608 -0.28728
 C508 C 1.16466 0.47222 -0.33288
 C509 C 1.18141 0.49978 -0.36450
 C510 C 1.17447 0.52172 -0.34612
 O511 O 1.13980 0.53229 -0.27491
 C512 C 1.11650 0.51565 -0.23089
 C513 C 1.11281 0.48788 -0.22719
 C514 C 1.09051 0.46607 -0.18554
 C515 C 1.07174 0.47218 -0.14711
 C516 C 1.07434 0.49923 -0.15016
 C517 C 1.09739 0.52173 -0.19350
 H518 H 1.12899 0.44513 -0.26532
 H519 H 1.16964 0.45578 -0.34526
 H520 H 1.18693 0.54258 -0.36825
 H521 H 1.08801 0.44513 -0.18335
 H522 H 1.05493 0.45572 -0.11577
 H523 H 1.10850 0.53573 -0.25297
 C524 C 0.48534 0.64143 -0.27600
 C525 C 0.51134 0.64182 -0.28889
 C526 C 0.53174 0.66158 -0.33783
 C527 C 0.52604 0.68111 -0.37410
 C528 C 0.50045 0.68161 -0.36489
 C529 C 0.47962 0.66160 -0.31389
 O530 O 0.46976 0.62027 -0.22651
 C531 C 0.48533 0.60709 -0.20738
 C532 C 0.51134 0.62001 -0.24528
 C533 C 0.53174 0.61071 -0.23613
 C534 C 0.52604 0.58831 -0.18871
 C535 C 0.50081 0.57495 -0.15074
 C536 C 0.47963 0.58399 -0.15850
 H537 H 0.55133 0.66165 -0.34709
 H538 H 0.54139 0.69596 -0.41111
 H539 H 0.46015 0.66159 -0.30479
 H540 H 0.55133 0.62067 -0.26513
 H541 H 0.54149 0.58134 -0.18191
 H542 H 0.46016 0.57400 -0.12954
 C543 C 0.35314 -0.13376 -0.30975
 C544 C 0.36239 -0.14774 -0.26278
 C545 C 0.35018 -0.17816 -0.26478
 C546 C 0.32840 -0.19480 -0.31455
 C547 C 0.31858 -0.18152 -0.36449
 C548 C 0.33095 -0.15092 -0.36041
 O549 O 0.36851 -0.10447 -0.29615
 C550 C 0.38743 -0.09943 -0.24123
 C551 C 0.38416 -0.12595 -0.21914
 C552 C 0.40086 -0.12737 -0.16291
 C553 C 0.41588 -0.11495 -0.18446
 C554 C 0.42508 -0.07479 -0.15185
 C555 C 0.40835 -0.07347 -0.20566
 H556 H 0.35739 -0.18846 -0.22890
 H557 H 0.31939 -0.21758 -0.31592
 H558 H 0.32364 -0.14079 -0.39648
 H559 H 0.39908 -0.14455 -0.14840
 H560 H 0.44221 -0.12607 -0.11115
 H561 H 0.41120 -0.05321 -0.22128
 C562 C 0.51108 -0.13364 0.31426
 C563 C 0.49144 -0.14782 0.25930
 C564 C 0.47604 -0.17841 0.25503
 C565 C 0.48036 -0.19500 0.30658
 C566 C 0.49994 -0.18133 0.36371
 C567 C 0.51535 -0.15074 0.36655
 O568 O 0.52284 -0.10423 0.30544
 C569 C 0.51107 -0.09933 0.24568
 C570 C 0.49144 -0.12602 0.21569
 C571 C 0.47602 -0.12753 0.15327
 C572 C 0.48039 -0.10201 0.12057
 C573 C 0.50024 -0.07457 0.15003
 C574 C 0.51534 -0.07334 0.21188
 H575 H 0.46124 -0.18886 0.21313
 H576 H 0.46873 -0.21790 0.30318
 H577 H 0.53008 -0.14048 0.40871
 H578 H 0.46124 -0.14787 0.13116
 H579 H 0.46878 -0.10322 0.07364
 H580 H 0.53009 -0.05290 0.23352
 C581 C 0.34446 0.49471 0.25945
 C582 C 0.36910 0.50408 0.30168
 C583 C 0.36898 0.51139 0.37358
 C584 C 0.34432 0.50961 0.40192
 C585 C 0.31903 0.50008 0.36456
 C586 C 0.31875 0.49263 0.29078
 O587 O 0.35061 0.48907 0.19237
 C588 C 0.37878 0.49471 0.19083
 C589 C 0.39090 0.50410 0.25808
 C590 C 0.41987 0.51149 0.27195
 C591 C 0.43681 0.50945 0.21797
 C592 C 0.42543 0.49974 0.15101
 C593 C 0.39632 0.49264 0.13579
 H594 H 0.38778 0.51857 0.40502
 H595 H 0.35275 0.52982 0.41806
 H596 H 0.30003 0.48559 0.25977
 H597 H 0.42876 0.51855 0.32307
 H598 H 0.45859 0.51495 0.22843
 H599 H 0.38663 0.48517 0.08557
 C600 C 1.13758 0.65386 0.28812
 C601 C 1.14478 0.63220 0.27952
 C602 C 1.16990 0.63466 0.31158
 C603 C 1.18796 0.65908 0.35266
 C604 C 1.18149 0.68114 0.36389
 C605 C 1.15624 0.67883 0.33059
 O606 O 1.11235 0.64592 0.25152
 C607 C 1.10327 0.61955 0.21953
 C608 C 1.12299 0.61040 0.23599
 C609 C 1.11895 0.58385 0.20953
 C610 C 1.09424 0.56753 0.16113
 C611 C 1.07434 0.57497 0.15023
 C612 C 1.07876 0.60136 0.17564
 H613 H 1.17509 0.61811 0.30463
 H614 H 1.20679 0.66087 0.37693
 H615 H 1.15116 0.69539 0.33775
 H616 H 1.13413 0.57715 0.22256
 H617 H 1.08488 0.55137 0.09192
 H618 H 1.06358 0.60780 0.16254
 C619 C 0.48534 0.14143 0.27599
 C620 C 0.51134 0.14182 0.28888
 C621 C 0.53175 0.16159 0.33783
 C622 C 0.52605 0.18113 0.37407
 C623 C 0.50042 0.18143 0.36412
 C624 C 0.47962 0.16158 0.31383
 O625 O 0.46976 0.12027 0.22651
 C626 C 0.48534 0.10711 0.20738
 C627 C 0.51134 0.12002 0.24528
 C628 C 0.53172 0.11072 0.23615
 C629 C 0.52531 0.08795 0.18966
 C630 C 0.49983 0.07449 0.15042
 C631 C 0.47967 0.08409 0.15871
 H632 H 0.55133 0.16165 0.34709
 H633 H 0.54139 0.19596 0.41111
 H634 H 0.46015 0.16159 0.30479
 H635 H 0.55131 0.12066 0.26517
 H636 H 0.53800 0.07889 0.18688
 H637 H 0.46016 0.07400 0.12958
 C638 C 0.65293 0.51630 0.29189
 C639 C 0.63292 0.48740 0.27659
 C640 C 0.63669 0.46473 0.30341
 C641 C 0.66076 0.47110 0.34600
 C642 C 0.68117 0.49969 0.36383
 C643 C 0.67752 0.52260 0.33580
 O644 O 0.64399 0.53361 0.25931
 C645 C 0.61861 0.51629 0.22330
 C646 C 0.61112 0.48740 0.23298
 C647 C 0.58580 0.46472 0.20166
 C648 C 0.56782 0.47113 0.16005
 C649 C 0.57476 0.50025 0.15018
 C650 C 0.60006 0.52259 0.18085
 H651 H 0.62138 0.44296 0.29141
 H652 H 0.66351 0.45403 0.36629
 H653 H 0.69284 0.54427 0.34800
 H654 H 0.58040 0.44296 0.20945
 H655 H 0.54889 0.45410 0.13659
 H656 H 0.60526 0.54427 0.17279
 C657 C 0.85314 0.36625 0.30975
 C658 C 0.86239 0.35226 0.26278
 C659 C 0.85018 0.32184 0.26478
 C660 C 0.82844 0.30521 0.31453
 C661 C 0.81874 0.31863 0.36371
 C662 C 0.83094 0.34909 0.36036
 O663 O 0.86851 0.39553 0.29614
 C664 C 0.88744 0.40056 0.24114
 C665 C 0.88419 0.37406 0.21920
 C666 C 0.90111 0.37270 0.16310
 C667 C 0.92129 0.39809 0.12862
 C668 C 0.92548 0.42467 0.15044
 C669 C 0.90847 0.42664 0.20554
 H670 H 0.85739 0.31155 0.22890
 H671 H 0.81939 0.28242 0.31592
 H672 H 0.82364 0.35921 0.39649
 H673 H 0.89838 0.35253 0.14694
 H674 H 0.93410 0.39712 0.08641
 H675 H 0.91123 0.44680 0.22130
   
