data_POSCAR
  _audit_creation_date              2014-09-24
  _audit_creation_method            'ToBaCCo'
  _symmetry_space_group_name_H-M    'P1'
  _symmetry_Int_Tables_number       1
  _symmetry_cell_setting            triclinic
  loop_
  _symmetry_equiv_pos_as_xyz
 x,y,z
_cell_length_a 17.6709
_cell_length_b 17.6689
_cell_length_c 17.6050
_cell_angle_alpha 90.060600
_cell_angle_beta 89.901700
_cell_angle_gamma 90.194600
loop_
  _atom_site_label
  _atom_site_type_symbol
  _atom_site_fract_x
  _atom_site_fract_y
  _atom_site_fract_z
O1 O 0.42679 1.06651 -0.56863
 O2 O 0.58493 1.07164 -0.43377
 O3 O 0.57127 1.05568 -0.58086
 O4 O 0.43719 1.07687 -0.42237
 O5 O 0.43361 0.95259 -0.40778
 O6 O 0.56526 0.93151 -0.56788
 O7 O 0.57796 0.94766 -0.42107
 O8 O 0.41708 0.94265 -0.55405
 Cu9 Cu 0.50606 1.08019 -0.50237
 Cu10 Cu 0.49809 0.93093 -0.48712
 C11 C 0.39459 1.00409 -0.58392
 C12 C 0.60806 1.01074 -0.40348
 C13 C 0.59064 0.98974 -0.60168
 C14 C 0.41293 1.01835 -0.38810
 O15 O -0.57616 1.42934 0.07276
 O16 O -0.42480 1.57185 0.06083
 O17 O -0.57133 1.57740 0.06280
 O18 O -0.42837 1.42685 0.06525
 O19 O -0.43095 1.42187 -0.06022
 O20 O -0.57997 1.56731 -0.06175
 O21 O -0.43249 1.57051 -0.06446
 O22 O -0.57695 1.42035 -0.05217
 Cu23 Cu -0.50031 1.50179 0.07803
 Cu24 Cu -0.50554 1.49451 -0.07229
 C25 C -0.60129 1.39902 0.01236
 C26 C -0.40343 1.59602 -0.00355
 C27 C -0.60011 1.59840 0.00015
 C28 C -0.40480 1.39942 0.00293
 O29 O -0.06744 0.41664 0.44533
 O30 O -0.06076 0.57660 0.57896
 O31 O -0.07530 0.56393 0.43267
 O32 O -0.05813 0.43194 0.59259
 O33 O 0.06638 0.43762 0.58267
 O34 O 0.04863 0.56181 0.41561
 O35 O 0.06265 0.58526 0.56205
 O36 O 0.05734 0.41706 0.43802
 Cu37 Cu -0.07796 0.49683 0.51310
 Cu38 Cu 0.07134 0.50126 0.49871
 C39 C -0.00617 0.38865 0.41998
 C40 C 0.00206 0.60888 0.59298
 C41 C -0.01665 0.58466 0.39652
 C42 C 0.00710 0.41280 0.61534
 O43 O -0.18768 1.00622 -0.10863
 O44 O 0.20011 1.00350 -0.08686
 O45 O 0.01140 1.11549 -0.18180
 O46 O 0.01475 0.91036 -0.19749
 O47 O 0.00641 0.81127 -0.11221
 O48 O 0.00178 1.20038 -0.08228
 O49 O 0.11351 1.01277 -0.18425
 O50 O -0.09070 1.01559 -0.19619
 Zr51 Zr 0.00797 1.00829 -0.12862
 O52 O 0.07324 0.93491 -0.06558
 O53 O -0.06446 1.07228 -0.06305
 C54 C -0.16160 1.01292 -0.17706
 C55 C 0.18197 1.01003 -0.15802
 C56 C 0.00779 1.18339 -0.15371
 C57 C 0.01175 0.83899 -0.18022
 H58 H 0.10536 1.10601 -0.08225
 O59 O 0.07141 1.07144 -0.05411
 H60 H -0.09397 0.90496 -0.10881
 O61 O -0.06332 0.93491 -0.07265
 O62 O 0.18763 0.99823 0.11857
 O63 O -0.20027 0.98953 0.09408
 O64 O 0.10181 1.19291 0.02625
 O65 O 0.10431 0.80468 -0.00805
 O66 O -0.10139 0.80359 -0.00965
 O67 O -0.10274 1.19266 0.01210
 O68 O -0.00838 1.08489 0.20766
 O69 O -0.01497 0.88167 0.19098
 O70 O -0.00452 1.18454 0.12286
 O71 O -0.00595 0.79596 0.09256
 O72 O 0.19394 1.10042 0.02268
 O73 O -0.19387 1.10030 -0.00351
 O74 O -0.19340 0.89606 -0.01206
 O75 O 0.19519 0.89751 0.00823
 O76 O 0.09060 0.98581 0.20560
 O77 O -0.11423 0.97873 0.19204
 Zr78 Zr 0.13265 0.99862 0.01230
 Zr79 Zr -0.13207 0.99826 -0.00348
 Zr80 Zr -0.00052 1.13132 0.01525
 Zr81 Zr 0.00120 0.86514 -0.00528
 Zr82 Zr -0.00777 0.98802 0.13763
 O83 O -0.07180 0.92458 0.06365
 O84 O 0.06424 1.06183 0.08257
 C85 C 0.16140 0.99322 0.18725
 C86 C -0.18246 0.98102 0.16488
 C87 C 0.17154 1.17005 0.02656
 C88 C 0.17370 0.82795 -0.00111
 C89 C -0.17117 0.82618 -0.01155
 C90 C -0.17223 1.17021 0.00370
 C91 C -0.00656 1.15629 0.19087
 C92 C -0.01354 0.81344 0.16388
 H93 H -0.10677 1.09084 0.10730
 O94 O -0.07240 1.06122 0.07444
 H95 H 0.09550 0.89083 0.10405
 O96 O 0.06488 0.92495 0.07203
 C97 C 0.32850 1.05695 0.30377
 C98 C 0.33072 1.00405 0.36267
 C99 C 0.26934 0.95324 0.36968
 C100 C 0.21180 0.95137 0.31408
 C101 C 0.21649 0.99836 0.24949
 C102 C 0.27355 1.05336 0.24795
 C103 C 0.32827 1.07478 0.18687
 C104 C 0.38857 1.07909 0.24825
 H105 H 0.26694 0.91387 0.41673
 H106 H 0.16639 0.91036 0.31928
 H107 H 0.31501 1.13069 0.16157
 H108 H 0.33808 1.02841 0.14529
 H109 H 0.40971 1.13756 0.25834
 H110 H 0.43336 1.03539 0.24219
 C111 C -0.35865 1.03095 0.27239
 C112 C -0.35741 0.98065 0.33375
 C113 C -0.30497 0.92065 0.33116
 C114 C -0.24861 0.91882 0.27442
 C115 C -0.24548 0.97570 0.21858
 C116 C -0.30469 1.02771 0.21542
 C117 C -0.30246 1.11176 0.20699
 C118 C -0.36164 1.11538 0.26978
 H119 H -0.30417 0.87840 0.37567
 H120 H -0.20622 0.87480 0.27566
 H121 H -0.32421 1.13040 0.15084
 H122 H -0.24692 1.13655 0.22350
 H123 H -0.41744 1.13625 0.24978
 H124 H -0.34024 1.14235 0.32269
 C125 C -0.31577 0.94786 -0.30747
 C126 C -0.33493 1.01311 -0.34831
 C127 C -0.29845 1.08152 -0.32736
 C128 C -0.24023 1.08176 -0.27261
 C129 C -0.21821 1.01401 -0.23731
 C130 C -0.25985 0.94861 -0.25247
 C131 C -0.23256 0.87176 -0.27420
 C132 C -0.29370 0.87096 -0.33478
 H133 H -0.31324 1.13445 -0.35442
 H134 H -0.21208 1.13442 -0.25845
 H135 H -0.24269 0.82970 -0.22847
 H136 H -0.17410 0.87245 -0.29773
 H137 H -0.33864 0.82813 -0.32395
 H138 H -0.27082 0.87160 -0.39367
 C139 C 0.28953 1.06116 -0.33667
 C140 C 0.35946 1.02660 -0.32523
 C141 C 0.37459 0.99499 -0.25351
 C142 C 0.31775 0.99220 -0.19739
 C143 C 0.24415 1.01844 -0.21331
 C144 C 0.23276 1.05619 -0.28236
 C145 C 0.17292 1.04530 -0.34134
 C146 C 0.23512 1.05144 -0.40072
 H147 H 0.42911 0.96960 -0.24214
 H148 H 0.33009 0.96523 -0.14363
 H149 H 0.13242 1.09320 -0.34324
 H150 H 0.14637 0.98818 -0.33894
 H151 H 0.23088 1.10331 -0.43612
 H152 H 0.24431 0.99811 -0.43304
 C153 C 0.31424 1.31719 0.08641
 C154 C 0.34545 1.34032 0.01667
 C155 C 0.32368 1.29945 -0.04892
 C156 C 0.26760 1.24308 -0.04486
 C157 C 0.23104 1.22734 0.02427
 C158 C 0.25820 1.26198 0.09003
 C159 C 0.21652 1.30184 0.15178
 C160 C 0.27762 1.36262 0.14794
 H161 H 0.34850 1.31195 -0.10381
 H162 H 0.25071 1.21380 -0.09627
 H163 H 0.21705 1.26936 0.20583
 H164 H 0.15985 1.32199 0.13350
 H165 H 0.31304 1.36532 0.20000
 H166 H 0.25645 1.41815 0.12740
 C167 C 0.30887 0.67733 -0.06774
 C168 C 0.34719 0.65748 -0.00085
 C169 C 0.33294 0.70178 0.06461
 C170 C 0.27754 0.75881 0.06379
 C171 C 0.23363 0.77113 -0.00151
 C172 C 0.25307 0.73247 -0.06784
 C173 C 0.20460 0.68960 -0.12223
 C174 C 0.26548 0.62892 -0.12225
 H175 H 0.36342 0.69171 0.11694
 H176 H 0.26661 0.79084 0.11514
 H177 H 0.19925 0.71915 -0.17766
 H178 H 0.15027 0.67053 -0.09653
 H179 H 0.29491 0.62342 -0.17782
 H180 H 0.24648 0.57459 -0.09656
 C181 C -0.28587 0.65568 0.04583
 C182 C -0.34523 0.65540 -0.00656
 C183 C -0.35093 0.71696 -0.05702
 C184 C -0.29469 0.77372 -0.05819
 C185 C -0.23059 0.76808 -0.01101
 C186 C -0.22933 0.71016 0.04294
 C187 C -0.16892 0.65439 0.06142
 C188 C -0.23085 0.59451 0.06457
 H189 H -0.39844 0.72095 -0.09559
 H190 H -0.29988 0.82034 -0.09770
 H191 H -0.14271 0.66581 0.11763
 H192 H -0.12831 0.64591 0.01386
 H193 H -0.24007 0.57135 0.12254
 H194 H -0.22621 0.55131 0.01881
 C195 C -0.36071 1.26783 -0.02198
 C196 C -0.34634 1.34095 0.00481
 C197 C -0.27592 1.35551 0.03894
 C198 C -0.21870 1.30037 0.03770
 C199 C -0.23191 1.22843 0.00541
 C200 C -0.30501 1.21254 -0.02093
 C201 C -0.32932 1.18162 -0.09605
 C202 C -0.39027 1.24215 -0.09704
 H203 H -0.26392 1.41064 0.06313
 H204 H -0.16371 1.31481 0.06016
 H205 H -0.35246 1.12324 -0.09126
 H206 H -0.28560 1.18942 -0.14090
 H207 H -0.44854 1.21864 -0.09261
 H208 H -0.38193 1.28499 -0.14256
 C209 C -0.07394 1.30637 0.32669
 C210 C -0.00894 1.32247 0.36907
 C211 C 0.05403 1.27426 0.35995
 C212 C 0.05383 1.21738 0.30372
 C213 C -0.00849 1.20935 0.25471
 C214 C -0.07336 1.25156 0.27018
 C215 C -0.12045 1.29846 0.21837
 C216 C -0.12189 1.35822 0.28046
 H217 H 0.10443 1.28254 0.39390
 H218 H 0.10387 1.18304 0.29550
 H219 H -0.17673 1.27245 0.20734
 H220 H -0.08842 1.31686 0.16723
 H221 H -0.17895 1.36616 0.30585
 H222 H -0.09198 1.41142 0.26458
 C223 C -0.03684 1.36272 -0.25894
 C224 C 0.01418 1.36085 -0.31992
 C225 C 0.07221 1.30633 -0.31782
 C226 C 0.07137 1.24902 -0.26226
 C227 C 0.01380 1.24679 -0.20687
 C228 C -0.03602 1.30785 -0.20276
 C229 C -0.12013 1.30869 -0.19480
 C230 C -0.12109 1.36874 -0.25674
 H231 H 0.11480 1.30462 -0.36210
 H232 H 0.11393 1.20513 -0.26411
 H233 H -0.13841 1.33045 -0.13842
 H234 H -0.14684 1.25434 -0.21221
 H235 H -0.14011 1.42502 -0.23602
 H236 H -0.14834 1.34894 -0.31009
 C237 C -0.06014 0.68914 -0.31346
 C238 C 0.00370 0.67084 -0.35722
 C239 C 0.06865 0.71726 -0.34864
 C240 C 0.07071 0.77490 -0.29300
 C241 C 0.00910 0.78510 -0.24336
 C242 C -0.05699 0.74402 -0.25727
 C243 C -0.10550 0.69931 -0.20421
 C244 C -0.10952 0.63913 -0.26581
 H245 H 0.11850 0.70788 -0.38322
 H246 H 0.12176 0.80824 -0.28589
 H247 H -0.16074 0.72692 -0.19296
 H248 H -0.07459 0.68041 -0.15267
 H249 H -0.16709 0.63252 -0.29034
 H250 H -0.08136 0.58525 -0.24978
 C251 C -0.06020 0.70702 0.34432
 C252 C -0.02468 0.63751 0.33304
 C253 C 0.00515 0.62159 0.26056
 C254 C 0.00540 0.67757 0.20346
 C255 C -0.02171 0.75107 0.21906
 C256 C -0.05748 0.76300 0.28921
 C257 C -0.04576 0.82385 0.34720
 C258 C -0.04976 0.76251 0.40744
 H259 H 0.03077 0.56714 0.24913
 H260 H 0.03118 0.66482 0.14911
 H261 H -0.09389 0.86396 0.35013
 H262 H 0.01103 0.85089 0.34298
 H263 H -0.10087 0.76660 0.44409
 H264 H 0.00439 0.75448 0.43850
   
