data_POSCAR
  _audit_creation_date              2014-09-24
  _audit_creation_method            'ToBaCCo'
  _symmetry_space_group_name_H-M    'P1'
  _symmetry_Int_Tables_number       1
  _symmetry_cell_setting            triclinic
  loop_
  _symmetry_equiv_pos_as_xyz
 x,y,z
_cell_length_a 52.0387
_cell_length_b 51.9563
_cell_length_c 52.0241
_cell_angle_alpha 89.992700
_cell_angle_beta 89.996900
_cell_angle_gamma 89.992000
loop_
  _atom_site_label
  _atom_site_type_symbol
  _atom_site_fract_x
  _atom_site_fract_y
  _atom_site_fract_z
C1 C 0.60575 0.62474 0.64484
 C2 C 0.58675 0.64390 0.64470
 C3 C 0.58679 0.66297 0.62566
 C4 C 0.60581 0.66305 0.60661
 C5 C 0.62496 0.64403 0.60645
 C6 C 0.62496 0.62477 0.62564
 C7 C 0.60589 0.60555 0.66382
 C8 C 0.62496 0.58649 0.66377
 C9 C 0.64404 0.58650 0.64474
 C10 C 0.64418 0.60555 0.62562
 C11 C 0.66317 0.60573 0.60649
 C12 C 0.66313 0.62484 0.58749
 C13 C 0.64411 0.64392 0.58746
 H14 H 0.57193 0.64401 0.65936
 H15 H 0.60568 0.67789 0.59195
 H16 H 0.59117 0.60545 0.67860
 H17 H 0.65875 0.57169 0.64480
 H18 H 0.67799 0.59104 0.60633
 H19 H 0.64425 0.65863 0.57267
 C20 C 0.89484 0.37472 0.14419
 C21 C 0.91382 0.35554 0.14404
 C22 C 0.91377 0.33648 0.12497
 C23 C 0.89474 0.33649 0.10589
 C24 C 0.87564 0.35554 0.10575
 C25 C 0.87565 0.37476 0.12497
 C26 C 0.89470 0.39388 0.16320
 C27 C 0.87566 0.41294 0.16316
 C28 C 0.85661 0.41302 0.14413
 C29 C 0.85646 0.39402 0.12497
 C30 C 0.83749 0.39391 0.10582
 C31 C 0.83752 0.37484 0.08679
 C32 C 0.85651 0.35572 0.08675
 H33 H 0.92860 0.35543 0.15876
 H34 H 0.89481 0.32168 0.09117
 H35 H 0.90936 0.39399 0.17802
 H36 H 0.84196 0.42787 0.14427
 H37 H 0.82270 0.40862 0.10568
 H38 H 0.85635 0.34104 0.07193
 C39 C 0.39419 0.12474 -0.14494
 C40 C 0.41319 0.14390 -0.14482
 C41 C 0.41314 0.16297 -0.12578
 C42 C 0.39411 0.16305 -0.10673
 C43 C 0.37497 0.14403 -0.10656
 C44 C 0.37498 0.12477 -0.12574
 C45 C 0.39406 0.10555 -0.16392
 C46 C 0.37499 0.08649 -0.16386
 C47 C 0.35592 0.08649 -0.14483
 C48 C 0.35577 0.10554 -0.12572
 C49 C 0.33678 0.10571 -0.10658
 C50 C 0.33681 0.12483 -0.08759
 C51 C 0.35582 0.14391 -0.08757
 H52 H 0.42800 0.14401 -0.15948
 H53 H 0.39425 0.17790 -0.09208
 H54 H 0.40877 0.10545 -0.17870
 H55 H 0.34121 0.07168 -0.14490
 H56 H 0.32197 0.09102 -0.10643
 H57 H 0.35568 0.15863 -0.07278
 C58 C 0.10504 0.87472 0.35577
 C59 C 0.08605 0.85556 0.35592
 C60 C 0.08610 0.83650 0.37501
 C61 C 0.10514 0.83648 0.39408
 C62 C 0.12426 0.85552 0.39420
 C63 C 0.12424 0.87474 0.37498
 C64 C 0.10517 0.89388 0.33677
 C65 C 0.12420 0.91295 0.33680
 C66 C 0.14326 0.91301 0.35582
 C67 C 0.14343 0.89399 0.37497
 C68 C 0.16241 0.89387 0.39412
 C69 C 0.16239 0.87479 0.41315
 C70 C 0.14339 0.85568 0.41319
 H71 H 0.07127 0.85546 0.34122
 H72 H 0.10507 0.82167 0.40879
 H73 H 0.09050 0.89401 0.32196
 H74 H 0.15791 0.92786 0.35568
 H75 H 0.17720 0.90858 0.39426
 H76 H 0.14355 0.84099 0.42801
 N77 N 0.09407 0.16642 0.11431
 N78 N 0.08383 0.15573 0.13484
 C79 C 0.06302 0.16942 0.14199
 C80 C 0.06023 0.18958 0.12499
 C81 C 0.08013 0.18722 0.10768
 H82 H 0.05083 0.16514 0.15827
 H83 H 0.08414 0.19967 0.09152
 Cu84 Cu 0.09904 0.12515 0.15011
 Cu85 Cu 0.12465 0.15260 0.09765
 Cu86 Cu 0.15183 0.09797 0.12491
 N87 N 0.11427 0.09454 0.16537
 N88 N 0.13504 0.08407 0.15540
 C89 C 0.14175 0.06338 0.16946
 C90 C 0.12427 0.06087 0.18919
 C91 C 0.10709 0.08084 0.18617
 H92 H 0.15809 0.05109 0.16565
 H93 H 0.09069 0.08502 0.19823
 N94 N 0.16591 0.11490 0.09403
 N95 N 0.15557 0.13569 0.08366
 C96 C 0.16941 0.14248 0.06284
 C97 C 0.18925 0.12516 0.06013
 C98 C 0.18660 0.10794 0.08008
 H99 H 0.16538 0.15874 0.05050
 H100 H 0.19881 0.09158 0.08403
 H101 H 0.11954 0.11495 0.10920
 H102 H 0.14009 0.13564 0.13007
 N103 N 0.40505 0.83376 0.61514
 N104 N 0.41526 0.84446 0.63566
 C105 C 0.43618 0.83089 0.64272
 C106 C 0.43905 0.81076 0.62570
 C107 C 0.41909 0.81304 0.60845
 H108 H 0.44843 0.83527 0.65893
 H109 H 0.41514 0.80060 0.59227
 Cu110 Cu 0.40016 0.87510 0.65097
 Cu111 Cu 0.37449 0.84758 0.59849
 Cu112 Cu 0.34749 0.90243 0.62541
 N113 N 0.38480 0.90573 0.66603
 N114 N 0.36421 0.91634 0.65588
 C115 C 0.35756 0.93713 0.66984
 C116 C 0.37493 0.93955 0.68968
 C117 C 0.39196 0.91944 0.68683
 H118 H 0.34134 0.94953 0.66590
 H119 H 0.40827 0.91518 0.69899
 N120 N 0.33340 0.88542 0.59460
 N121 N 0.34361 0.86447 0.58442
 C122 C 0.32966 0.85752 0.56373
 C123 C 0.30989 0.87490 0.56090
 C124 C 0.31270 0.89232 0.58064
 H125 H 0.33354 0.84108 0.55159
 H126 H 0.30054 0.90875 0.58449
 H127 H 0.37983 0.88535 0.60992
 H128 H 0.35907 0.86488 0.63079
 N129 N 0.90626 0.66605 0.38591
 N130 N 0.91666 0.65518 0.36555
 C131 C 0.93738 0.66896 0.35829
 C132 C 0.93994 0.68935 0.37505
 C133 C 0.92000 0.68704 0.39232
 H134 H 0.94964 0.66460 0.34209
 H135 H 0.91581 0.69967 0.40830
 Cu136 Cu 0.90152 0.62438 0.35068
 Cu137 Cu 0.87563 0.65228 0.40260
 Cu138 Cu 0.84844 0.59761 0.37532
 N139 N 0.88624 0.59402 0.33504
 N140 N 0.86531 0.58372 0.34483
 C141 C 0.85841 0.56324 0.33056
 C142 C 0.87594 0.56071 0.31087
 C143 C 0.89335 0.58044 0.31413
 H144 H 0.84191 0.55113 0.33419
 H145 H 0.90983 0.58456 0.30215
 N146 N 0.83434 0.61459 0.40618
 N147 N 0.84468 0.63538 0.41656
 C148 C 0.83076 0.64224 0.43731
 C149 C 0.81088 0.62496 0.43997
 C150 C 0.81358 0.60770 0.42007
 H151 H 0.83475 0.65853 0.44960
 H152 H 0.80134 0.59137 0.41609
 H153 H 0.88047 0.61458 0.39135
 H154 H 0.86032 0.63526 0.37011
 N155 N 0.59464 0.33393 -0.11502
 N156 N 0.58459 0.34449 -0.13570
 C157 C 0.56374 0.33086 -0.14283
 C158 C 0.56076 0.31084 -0.12570
 C159 C 0.58057 0.31325 -0.10830
 H160 H 0.55160 0.33513 -0.15916
 H161 H 0.58443 0.30090 -0.09201
 Cu162 Cu 0.59978 0.37511 -0.15095
 Cu163 Cu 0.62520 0.34775 -0.09832
 Cu164 Cu 0.65264 0.40216 -0.12572
 N165 N 0.61520 0.40559 -0.16625
 N166 N 0.63593 0.41606 -0.15623
 C167 C 0.64258 0.43685 -0.17019
 C168 C 0.62507 0.43942 -0.18988
 C169 C 0.60794 0.41941 -0.18694
 H170 H 0.65886 0.44918 -0.16629
 H171 H 0.59145 0.41535 -0.19892
 N172 N 0.66665 0.38524 -0.09482
 N173 N 0.65616 0.36458 -0.08434
 C174 C 0.67002 0.35773 -0.06355
 C175 C 0.69002 0.37489 -0.06097
 C176 C 0.68745 0.39205 -0.08097
 H177 H 0.66592 0.34153 -0.05117
 H178 H 0.69980 0.40828 -0.08503
 H179 H 0.62015 0.38549 -0.11001
 H180 H 0.64071 0.36462 -0.13070
 C181 C -0.03195 0.28188 0.12505
 N182 N -0.00672 0.28841 0.12511
 N183 N 0.01136 0.27024 0.12519
 C184 C 0.00475 0.24499 0.12521
 N185 N -0.02048 0.23845 0.12513
 N186 N -0.03856 0.25663 0.12506
 C187 C -0.05141 0.30144 0.12500
 C188 C -0.06776 0.31789 0.12498
 C189 C 0.02423 0.22544 0.12524
 C190 C 0.04064 0.20905 0.12519
 C191 C 0.53140 0.71857 0.62583
 N192 N 0.50617 0.71204 0.62587
 N193 N 0.48808 0.73021 0.62593
 C194 C 0.49468 0.75546 0.62594
 N195 N 0.51992 0.76200 0.62588
 N196 N 0.53800 0.74383 0.62583
 C197 C 0.55087 0.69901 0.62575
 C198 C 0.56724 0.68258 0.62571
 C199 C 0.47519 0.77502 0.62593
 C200 C 0.45874 0.79137 0.62587
 C201 C 1.03181 0.78192 0.37491
 N202 N 1.03846 0.75668 0.37488
 N203 N 1.02041 0.73849 0.37477
 C204 C 0.99517 0.74499 0.37467
 N205 N 0.98852 0.77023 0.37472
 N206 N 1.00657 0.78843 0.37483
 C207 C 1.05125 0.80150 0.37497
 C208 C 1.06761 0.81794 0.37500
 C209 C 0.97574 0.72539 0.37465
 C210 C 0.95942 0.70893 0.37474
 C211 C 0.46854 0.21855 -0.12598
 N212 N 0.46193 0.24380 -0.12599
 N213 N 0.48001 0.26198 -0.12604
 C214 C 0.50524 0.25545 -0.12609
 N215 N 0.51185 0.23019 -0.12608
 N216 N 0.49378 0.21202 -0.12603
 C217 C 0.44907 0.19899 -0.12590
 C218 C 0.43270 0.18257 -0.12584
 C219 C 0.52472 0.27501 -0.12605
 C220 C 0.54113 0.29139 -0.12594
 C221 C 0.12402 -0.03149 0.28137
 N222 N 0.14022 -0.03311 0.26101
 N223 N 0.14018 -0.01493 0.24293
 C224 C 0.12394 0.00542 0.24466
 N225 N 0.10774 0.00704 0.26502
 N226 N 0.10778 -0.01114 0.28310
 C227 C 0.12409 -0.05103 0.30086
 C228 C 0.12415 -0.06745 0.31724
 C229 C 0.12395 0.02501 0.22521
 C230 C 0.12404 0.04141 0.20881
 C231 C 0.62487 0.53186 -0.28196
 N232 N 0.60898 0.51127 -0.28396
 N233 N 0.60892 0.49309 -0.26588
 C234 C 0.62475 0.49496 -0.24526
 N235 N 0.64064 0.51555 -0.24326
 N236 N 0.64070 0.53373 -0.26134
 C237 C 0.62491 0.55144 -0.30141
 C238 C 0.62494 0.56790 -0.31775
 C239 C 0.62473 0.47538 -0.22580
 C240 C 0.62481 0.45895 -0.20943
 C241 C 0.37510 1.03187 0.78187
 N242 N 0.35926 1.01123 0.78384
 N243 N 0.35932 0.99304 0.76578
 C244 C 0.37522 0.99493 0.74521
 N245 N 0.39104 1.01558 0.74323
 N246 N 0.39099 1.03377 0.76129
 C247 C 0.37504 1.05145 0.80132
 C248 C 0.37501 1.06790 0.81766
 C249 C 0.37522 0.97539 0.72571
 C250 C 0.37514 0.95901 0.70930
 C251 C 0.87576 0.46853 0.21855
 N252 N 0.89179 0.46670 0.23903
 N253 N 0.89189 0.48490 0.25708
 C254 C 0.87597 0.50549 0.25519
 N255 N 0.85993 0.50731 0.23472
 N256 N 0.85983 0.48911 0.21667
 C257 C 0.87570 0.44896 0.19909
 C258 C 0.87567 0.43253 0.18272
 C259 C 0.87603 0.52504 0.27468
 C260 C 0.87604 0.54137 0.29114
 C261 C 0.28129 0.12488 -0.03220
 N262 N 0.27212 0.10239 -0.02267
 N263 N 0.25401 0.10242 -0.00456
 C264 C 0.24450 0.12495 0.00456
 N265 N 0.25367 0.14744 -0.00498
 N266 N 0.27178 0.14741 -0.02308
 C267 C 0.30082 0.12485 -0.05168
 C268 C 0.31723 0.12485 -0.06804
 C269 C 0.22503 0.12499 0.02410
 C270 C 0.20870 0.12506 0.04053
 C271 C 0.71862 0.62489 0.53207
 N272 N 0.73456 0.64537 0.52938
 N273 N 0.75270 0.64538 0.51129
 C274 C 0.75544 0.62491 0.49534
 N275 N 0.73950 0.60444 0.49802
 N276 N 0.72136 0.60443 0.51611
 C277 C 0.69910 0.62487 0.55155
 C278 C 0.68270 0.62486 0.56793
 C279 C 0.77496 0.62493 0.47586
 C280 C 0.79136 0.62494 0.45949
 C281 C 0.78209 0.37491 0.03131
 N282 N 0.77256 0.39743 0.02220
 N283 N 0.75445 0.39744 0.00408
 C284 C 0.74534 0.37493 -0.00548
 N285 N 0.75487 0.35242 0.00364
 N286 N 0.77298 0.35240 0.02176
 C287 C 0.80159 0.37489 0.05082
 C288 C 0.81796 0.37487 0.06721
 C289 C 0.72586 0.37494 -0.02500
 C290 C 0.70950 0.37491 -0.04141
 C291 C 0.21784 0.87485 0.46860
 N292 N 0.22624 0.89734 0.47883
 N293 N 0.24434 0.89735 0.49695
 C294 C 0.25459 0.87488 0.50539
 N295 N 0.24619 0.85240 0.49515
 N296 N 0.22809 0.85238 0.47703
 C297 C 0.19833 0.87483 0.44910
 C298 C 0.18195 0.87480 0.43271
 C299 C 0.27406 0.87490 0.52493
 C300 C 0.29040 0.87490 0.54135
   
