data_POSCAR
  _audit_creation_date              2014-09-24
  _audit_creation_method            'ToBaCCo'
  _symmetry_space_group_name_H-M    'P1'
  _symmetry_Int_Tables_number       1
  _symmetry_cell_setting            triclinic
  loop_
  _symmetry_equiv_pos_as_xyz
 x,y,z
_cell_length_a 44.2452
_cell_length_b 42.5987
_cell_length_c 41.6351
_cell_angle_alpha 90.187600
_cell_angle_beta 89.970200
_cell_angle_gamma 92.243500
loop_
  _atom_site_label
  _atom_site_type_symbol
  _atom_site_fract_x
  _atom_site_fract_y
  _atom_site_fract_z
N1 N 0.58670 0.67658 0.60536
 N2 N 0.56909 0.65821 0.62325
 C3 C 0.54316 0.67269 0.62926
 C4 C 0.54484 0.70184 0.61469
 C5 C 0.57279 0.70355 0.59978
 H6 H 0.52483 0.66311 0.64387
 H7 H 0.58205 0.72278 0.58550
 Cu8 Cu 0.58214 0.61802 0.63904
 Cu9 Cu 0.62544 0.66336 0.58905
 Cu10 Cu 0.65433 0.59898 0.62596
 N11 N 0.60181 0.58691 0.66506
 N12 N 0.63042 0.58083 0.66089
 C13 C 0.63877 0.56020 0.68324
 C14 C 0.61395 0.55252 0.70253
 C15 C 0.59079 0.56994 0.68999
 H16 H 0.66118 0.55114 0.68477
 H17 H 0.56791 0.57116 0.69888
 N18 N 0.67479 0.62062 0.58996
 N19 N 0.66402 0.64557 0.57601
 C20 C 0.68214 0.65400 0.55123
 C21 C 0.70530 0.63311 0.54935
 C22 C 0.69991 0.61235 0.57439
 H23 H 0.67798 0.67297 0.53482
 H24 H 0.71296 0.59227 0.58043
 H25 H 0.61988 0.61564 0.59688
 H26 H 0.63244 0.64099 0.63196
 N27 N 0.91463 0.32443 0.10277
 N28 N 0.92298 0.33195 0.13216
 C29 C 0.94653 0.31477 0.14062
 C30 C 0.95370 0.29544 0.11502
 C31 C 0.93296 0.30251 0.09128
 H32 H 0.95775 0.31666 0.16362
 H33 H 0.93047 0.29167 0.06788
 Cu34 Cu 0.90265 0.36345 0.15697
 Cu35 Cu 0.87896 0.34172 0.08298
 Cu36 Cu 0.84633 0.40288 0.12362
 N37 N 0.88843 0.40186 0.17594
 N38 N 0.86554 0.41643 0.16361
 C39 C 0.85937 0.44119 0.18232
 C40 C 0.87978 0.44243 0.20748
 C41 C 0.89800 0.41719 0.20262
 H42 H 0.84171 0.45743 0.17771
 H43 H 0.91642 0.41017 0.21773
 N44 N 0.83040 0.38578 0.08277
 N45 N 0.84259 0.36231 0.06731
 C46 C 0.82599 0.35552 0.04086
 C47 C 0.80243 0.37593 0.03949
 C48 C 0.80600 0.39477 0.06643
 H49 H 0.83071 0.33718 0.02378
 H50 H 0.79146 0.41323 0.07393
 H51 H 0.88578 0.38435 0.10613
 H52 H 0.85729 0.35592 0.12412
 N53 N 0.41102 0.17350 -0.11186
 N54 N 0.43068 0.15558 -0.12586
 C55 C 0.45718 0.17184 -0.12909
 C56 C 0.45389 0.20173 -0.11671
 C57 C 0.42421 0.20197 -0.10610
 H58 H 0.47710 0.16289 -0.14043
 H59 H 0.41308 0.22124 -0.09472
 Cu60 Cu 0.41932 0.11347 -0.14053
 Cu61 Cu 0.36980 0.15849 -0.10234
 Cu62 Cu 0.35621 0.07838 -0.11160
 N63 N 0.40149 0.07586 -0.16066
 N64 N 0.37651 0.06228 -0.14939
 C65 C 0.36857 0.03749 -0.16805
 C66 C 0.38973 0.03540 -0.19242
 C67 C 0.41040 0.06009 -0.18686
 H68 H 0.34875 0.02229 -0.16422
 H69 H 0.42992 0.06670 -0.20134
 N70 N 0.33052 0.10469 -0.08527
 N71 N 0.33477 0.13544 -0.08287
 C72 C 0.31333 0.14671 -0.06346
 C73 C 0.29483 0.12177 -0.05305
 C74 C 0.30644 0.09550 -0.06746
 H75 H 0.31206 0.17106 -0.05638
 H76 H 0.29802 0.07144 -0.06524
 H77 H 0.38550 0.11508 -0.09421
 H78 H 0.36518 0.11995 -0.13307
 N79 N 0.09048 0.82540 0.38369
 N80 N 0.07105 0.84433 0.37101
 C81 C 0.04422 0.82877 0.36739
 C82 C 0.04701 0.79808 0.37793
 C83 C 0.07691 0.79691 0.38795
 H84 H 0.02454 0.83892 0.35686
 H85 H 0.08798 0.77720 0.39838
 Cu86 Cu 0.08318 0.88674 0.35813
 Cu87 Cu 0.13168 0.83937 0.39452
 Cu88 Cu 0.14764 0.91914 0.38701
 N89 N 0.10230 0.92384 0.33843
 N90 N 0.12799 0.93612 0.34940
 C91 C 0.13673 0.96072 0.33098
 C92 C 0.11527 0.96411 0.30720
 C93 C 0.09364 0.94036 0.31275
 H94 H 0.15715 0.97508 0.33470
 H95 H 0.07355 0.93497 0.29866
 N96 N 0.17189 0.89186 0.41361
 N97 N 0.16660 0.86124 0.41558
 C98 C 0.18657 0.84928 0.43618
 C99 C 0.20519 0.87364 0.44784
 C100 C 0.19523 0.90028 0.43283
 H101 H 0.18654 0.82491 0.44337
 H102 H 0.20403 0.92414 0.43586
 H103 H 0.11716 0.88326 0.40392
 H104 H 0.13707 0.87828 0.36472
 N105 N 0.08182 0.17323 0.09956
 N106 N 0.07050 0.16232 0.12671
 C107 C 0.04697 0.17957 0.13534
 C108 C 0.04305 0.20216 0.11215
 C109 C 0.06543 0.19740 0.08965
 H110 H 0.03360 0.17605 0.15686
 H111 H 0.07011 0.21125 0.06837
 Cu112 Cu 0.08739 0.12667 0.14836
 Cu113 Cu 0.11849 0.15700 0.08079
 Cu114 Cu 0.15119 0.09576 0.12108
 N115 N 0.10576 0.09199 0.17028
 N116 N 0.13129 0.08072 0.16010
 C117 C 0.13948 0.05769 0.17997
 C118 C 0.11774 0.05409 0.20369
 C119 C 0.09662 0.07620 0.19676
 H120 H 0.15943 0.04408 0.17701
 H121 H 0.07637 0.08066 0.21030
 N122 N 0.16796 0.11400 0.08118
 N123 N 0.15571 0.13742 0.06587
 C124 C 0.17276 0.14479 0.03992
 C125 C 0.19669 0.12483 0.03870
 C126 C 0.19286 0.10564 0.06522
 H127 H 0.16800 0.16311 0.02296
 H128 H 0.20747 0.08725 0.07260
 H129 H 0.11303 0.11212 0.09892
 H130 H 0.13583 0.14112 0.12351
 N131 N 0.41387 0.82247 0.60520
 N132 N 0.43136 0.84054 0.62362
 C133 C 0.45695 0.82568 0.63005
 C134 C 0.45520 0.79659 0.61517
 C135 C 0.42754 0.79530 0.59967
 H136 H 0.47519 0.83505 0.64496
 H137 H 0.41841 0.77632 0.58484
 Cu138 Cu 0.41878 0.88113 0.63898
 Cu139 Cu 0.37592 0.83659 0.58777
 Cu140 Cu 0.34797 0.90280 0.62281
 N141 N 0.39935 0.91329 0.66400
 N142 N 0.37138 0.92089 0.65824
 C143 C 0.36311 0.94238 0.67994
 C144 C 0.38725 0.94875 0.70037
 C145 C 0.40997 0.92993 0.68944
 H146 H 0.34121 0.95275 0.68067
 H147 H 0.43222 0.92782 0.69977
 N148 N 0.32787 0.88095 0.58657
 N149 N 0.33819 0.85527 0.57345
 C150 C 0.32028 0.84662 0.54853
 C151 C 0.29772 0.86809 0.54571
 C152 C 0.30324 0.88945 0.57032
 H153 H 0.32413 0.82698 0.53275
 H154 H 0.29055 0.90998 0.57574
 H155 H 0.38263 0.88430 0.59532
 H156 H 0.36795 0.86004 0.63008
 N157 N 0.91270 0.67222 0.38626
 N158 N 0.93189 0.65293 0.37354
 C159 C 0.95876 0.66829 0.36934
 C160 C 0.95606 0.69900 0.37955
 C161 C 0.92648 0.70072 0.38999
 H162 H 0.97851 0.65818 0.35880
 H163 H 0.91591 0.72100 0.40007
 Cu164 Cu 0.91939 0.61036 0.36125
 Cu165 Cu 0.87151 0.65879 0.39769
 Cu166 Cu 0.85478 0.57914 0.39085
 N167 N 0.89975 0.57318 0.34198
 N168 N 0.87390 0.56151 0.35314
 C169 C 0.86455 0.53699 0.33476
 C170 C 0.88580 0.53298 0.31087
 C171 C 0.90795 0.55626 0.31626
 H172 H 0.84384 0.52315 0.33853
 H173 H 0.92800 0.56114 0.30196
 N174 N 0.83102 0.60696 0.41752
 N175 N 0.83656 0.63757 0.41922
 C176 C 0.81679 0.64999 0.43986
 C177 C 0.79806 0.62593 0.45182
 C178 C 0.80774 0.59899 0.43696
 H179 H 0.81700 0.67447 0.44684
 H180 H 0.79874 0.57525 0.44020
 H181 H 0.88574 0.61494 0.40727
 H182 H 0.86567 0.61960 0.36816
 N183 N 0.58720 0.33149 -0.11022
 N184 N 0.56756 0.34989 -0.12343
 C185 C 0.54088 0.33393 -0.12674
 C186 C 0.54405 0.30375 -0.11526
 C187 C 0.57382 0.30305 -0.10505
 H188 H 0.52098 0.34325 -0.13766
 H189 H 0.58492 0.28342 -0.09446
 Cu190 Cu 0.57923 0.39207 -0.13743
 Cu191 Cu 0.62872 0.34571 -0.10108
 Cu192 Cu 0.64410 0.42534 -0.11054
 N193 N 0.59758 0.42907 -0.15805
 N194 N 0.62342 0.44166 -0.14783
 C195 C 0.63188 0.46572 -0.16707
 C196 C 0.61008 0.46845 -0.19061
 C197 C 0.58851 0.44490 -0.18406
 H198 H 0.65249 0.47997 -0.16427
 H199 H 0.56838 0.43898 -0.19787
 N200 N 0.66951 0.39859 -0.08465
 N201 N 0.66453 0.36796 -0.08214
 C202 C 0.68583 0.35629 -0.06292
 C203 C 0.70500 0.38086 -0.05275
 C204 C 0.69393 0.40731 -0.06711
 H205 H 0.68653 0.33196 -0.05572
 H206 H 0.70288 0.43121 -0.06494
 H207 H 0.61426 0.38956 -0.09228
 H208 H 0.63328 0.38393 -0.13184
 C209 C -0.01562 0.25862 0.08476
 C210 C -0.02373 0.27297 0.11395
 C211 C -0.00892 0.26398 0.14227
 C212 C 0.01257 0.24088 0.14155
 C213 C 0.02058 0.22683 0.11246
 C214 C 0.00665 0.23616 0.08400
 H215 H -0.02601 0.26495 0.06231
 H216 H -0.01440 0.27394 0.16536
 H217 H 0.02318 0.23417 0.16380
 H218 H 0.01250 0.22556 0.06127
 C219 C 0.53075 0.75805 0.61530
 C220 C 0.52188 0.72604 0.61509
 C221 C 0.49095 0.71736 0.61513
 C222 C 0.46923 0.74033 0.61479
 C223 C 0.47811 0.77233 0.61535
 C224 C 0.50904 0.78100 0.61588
 H225 H 0.55448 0.76531 0.61546
 H226 H 0.48358 0.69281 0.61482
 H227 H 0.44549 0.73308 0.61454
 H228 H 0.51642 0.80554 0.61614
 C229 C 1.03218 0.74233 0.38431
 C230 C 1.02458 0.77362 0.37828
 C231 C 0.99396 0.77981 0.37263
 C232 C 0.97171 0.75563 0.37348
 C233 C 0.97955 0.72456 0.37907
 C234 C 1.00997 0.71807 0.38424
 H235 H 1.05533 0.73619 0.38847
 H236 H 0.98682 0.80339 0.36821
 H237 H 0.94837 0.76118 0.36928
 H238 H 1.01655 0.69426 0.38874
 C239 C 0.50787 0.22166 -0.11597
 C240 C 0.47692 0.22786 -0.11576
 C241 C 0.46821 0.25921 -0.11495
 C242 C 0.49001 0.28387 -0.11486
 C243 C 0.52097 0.27766 -0.11504
 C244 C 0.52967 0.24631 -0.11536
 H245 H 0.51529 0.19775 -0.11634
 H246 H 0.44454 0.26473 -0.11497
 H247 H 0.48262 0.30779 -0.11438
 H248 H 0.55334 0.24077 -0.11572
 C249 C 0.08877 -0.00237 0.26774
 C250 C 0.11585 -0.01261 0.28095
 C251 C 0.14353 -0.00064 0.26872
 C252 C 0.14413 0.02086 0.24342
 C253 C 0.11706 0.03131 0.23038
 C254 C 0.08937 0.01968 0.24292
 H255 H 0.06713 -0.01111 0.27686
 H256 H 0.16474 -0.00831 0.27831
 H257 H 0.16578 0.02960 0.23433
 H258 H 0.06817 0.02721 0.23317
 C259 C 0.58499 0.52235 -0.25683
 C260 C 0.61281 0.53191 -0.27101
 C261 C 0.63959 0.52029 -0.25802
 C262 C 0.63860 0.50013 -0.23166
 C263 C 0.61086 0.49036 -0.21802
 C264 C 0.58405 0.50146 -0.23094
 H265 H 0.56377 0.53034 -0.26600
 H266 H 0.66157 0.52708 -0.26763
 H267 H 0.65962 0.49173 -0.22228
 H268 H 0.56235 0.49429 -0.22073
 C269 C 0.36192 0.99849 0.77012
 C270 C 0.38934 1.01277 0.78054
 C271 C 0.41622 1.00555 0.76463
 C272 C 0.41566 0.98438 0.73885
 C273 C 0.38814 0.97050 0.72814
 C274 C 0.36129 0.97778 0.74405
 H275 H 0.34080 1.00375 0.78172
 H276 H 0.43772 1.01606 0.77226
 H277 H 0.43669 0.97932 0.72695
 H278 H 0.33977 0.96725 0.73655
 C279 C 0.90943 0.47492 0.24751
 C280 C 0.88143 0.46552 0.23399
 C281 C 0.85494 0.47836 0.24597
 C282 C 0.85637 0.49996 0.27130
 C283 C 0.88438 0.50972 0.28451
 C284 C 0.91093 0.49719 0.27227
 H285 H 0.93018 0.46544 0.23855
 H286 H 0.83307 0.47134 0.23606
 H287 H 0.83559 0.50944 0.28018
 H288 H 0.93278 0.50428 0.28218
 C289 C 0.26055 0.09564 -0.01255
 C290 C 0.26927 0.12260 -0.03011
 C291 C 0.25360 0.15028 -0.02525
 C292 C 0.22967 0.15095 -0.00327
 C293 C 0.22129 0.12408 0.01462
 C294 C 0.23696 0.09643 0.00969
 H295 H 0.27227 0.07400 -0.01550
 H296 H 0.25966 0.17138 -0.03858
 H297 H 0.21814 0.17266 0.00012
 H298 H 0.23088 0.07524 0.02285
 C299 C 0.73790 0.65824 0.50644
 C300 C 0.72918 0.63159 0.52451
 C301 C 0.74326 0.60319 0.51841
 C302 C 0.76543 0.60139 0.49470
 C303 C 0.77429 0.62802 0.47670
 C304 C 0.76039 0.65652 0.48290
 H305 H 0.72758 0.68050 0.51067
 H306 H 0.73690 0.58212 0.53162
 H307 H 0.77585 0.57914 0.49081
 H308 H 0.76663 0.67742 0.46933
 C309 C 0.76311 0.40519 0.01020
 C310 C 0.77816 0.37719 0.01511
 C311 C 0.76940 0.35045 -0.00297
 C312 C 0.74563 0.35157 -0.02506
 C313 C 0.73051 0.37958 -0.02984
 C314 C 0.73969 0.40643 -0.01216
 H315 H 0.76950 0.42627 0.02352
 H316 H 0.78048 0.32850 0.00041
 H317 H 0.73920 0.33056 -0.03849
 H318 H 0.72839 0.42832 -0.01507
 C319 C 0.23813 0.89906 0.49014
 C320 C 0.22906 0.87205 0.47267
 C321 C 0.24274 0.84359 0.47942
 C322 C 0.26515 0.84226 0.50305
 C323 C 0.27404 0.86928 0.52064
 C324 C 0.26025 0.89766 0.51392
 H325 H 0.22789 0.92131 0.48581
 H326 H 0.23637 0.82240 0.46628
 H327 H 0.27523 0.82000 0.50776
 H328 H 0.26674 0.91900 0.52674
   
