data_POSCAR
  _audit_creation_date              2014-09-24
  _audit_creation_method            'ToBaCCo'
  _symmetry_space_group_name_H-M    'P1'
  _symmetry_Int_Tables_number       1
  _symmetry_cell_setting            triclinic
  loop_
  _symmetry_equiv_pos_as_xyz
 x,y,z
_cell_length_a 37.8171
_cell_length_b 38.3584
_cell_length_c 34.3821
_cell_angle_alpha 89.070000
_cell_angle_beta 90.326900
_cell_angle_gamma 90.541700
loop_
  _atom_site_label
  _atom_site_type_symbol
  _atom_site_fract_x
  _atom_site_fract_y
  _atom_site_fract_z
C1 C 1.27324 0.21171 0.27612
 C2 C 1.24907 0.23196 0.25523
 C3 C 1.22367 0.21620 0.23177
 C4 C 1.22163 0.17982 0.22915
 C5 C 1.24614 0.15932 0.25045
 C6 C 1.27222 0.17495 0.27454
 C7 C 1.25021 0.27002 0.25790
 C8 C 1.27443 0.28937 0.23585
 C9 C 1.27534 0.32615 0.23701
 C10 C 1.25141 0.34273 0.26228
 C11 C 1.22679 0.32311 0.28465
 C12 C 1.22664 0.28671 0.28214
 H13 H 1.29351 0.22527 0.29247
 H14 H 1.20591 0.23265 0.21500
 H15 H 1.29317 0.27508 0.21875
 H16 H 1.20853 0.27102 0.29954
 H17 H 1.24347 0.13126 0.24972
 H18 H 1.25030 0.37086 0.26312
 C19 C 0.76284 -0.28360 0.27343
 C20 C 0.73809 -0.26686 0.24934
 C21 C 0.71212 -0.28618 0.23016
 C22 C 0.71081 -0.32245 0.23443
 C23 C 0.73540 -0.33919 0.25884
 C24 C 0.76160 -0.32015 0.27919
 C25 C 0.73808 -0.22878 0.24539
 C26 C 0.76279 -0.21165 0.22160
 C27 C 0.76178 -0.17524 0.21660
 C28 C 0.73595 -0.15630 0.23630
 C29 C 0.71110 -0.17341 0.26024
 C30 C 0.71225 -0.20977 0.26443
 H31 H 0.78148 -0.26749 0.28919
 H32 H 0.69338 -0.27288 0.21125
 H33 H 0.78206 -0.22685 0.20619
 H34 H 0.69352 -0.22338 0.28312
 H35 H 0.73437 -0.36733 0.26085
 H36 H 0.73519 -0.12819 0.23307
 C37 C 0.76380 0.21755 -0.22540
 C38 C 0.73712 0.23283 -0.24805
 C39 C 0.71168 0.21189 -0.26616
 C40 C 0.71298 0.17546 -0.26233
 C41 C 0.73993 0.16027 -0.23966
 C42 C 0.76522 0.18120 -0.22088
 C43 C 0.73581 0.27080 -0.25324
 C44 C 0.76063 0.28801 -0.27685
 C45 C 0.75902 0.32441 -0.28338
 C46 C 0.73202 0.34289 -0.26459
 C47 C 0.70739 0.32573 -0.24037
 C48 C 0.70921 0.28954 -0.23530
 H49 H 0.78340 0.23395 -0.21136
 H50 H 0.69153 0.22407 -0.28418
 H51 H 0.77984 0.27227 -0.29157
 H52 H 0.69061 0.27592 -0.21644
 H53 H 0.74076 0.13219 -0.23582
 H54 H 0.73059 0.37096 -0.26737
 C55 C 1.27725 -0.29195 -0.23382
 C56 C 1.25006 -0.27105 -0.24827
 C57 C 1.22212 -0.28589 -0.26892
 C58 C 1.22140 -0.32167 -0.27661
 C59 C 1.24819 -0.34302 -0.26046
 C60 C 1.27656 -0.32843 -0.23875
 C61 C 1.25132 -0.23314 -0.24320
 C62 C 1.27617 -0.21313 -0.26373
 C63 C 1.27590 -0.17661 -0.26222
 C64 C 1.25095 -0.16036 -0.23837
 C65 C 1.22606 -0.18043 -0.21687
 C66 C 1.22653 -0.21692 -0.21980
 H67 H 1.29774 -0.27948 -0.21672
 H68 H 1.20121 -0.26911 -0.27965
 H69 H 1.29533 -0.22621 -0.28157
 H70 H 1.20795 -0.23302 -0.20352
 H71 H 1.24795 -0.37056 -0.26677
 H72 H 1.25015 -0.13217 -0.23766
 C73 C 0.21702 0.27934 0.72930
 C74 C 0.23648 0.25070 0.74212
 C75 C 0.21922 0.22170 0.75858
 C76 C 0.18231 0.22157 0.76513
 C77 C 0.16320 0.25118 0.75189
 C78 C 0.18024 0.27967 0.73337
 C79 C 0.27535 0.25187 0.74047
 C80 C 0.29373 0.27834 0.75967
 C81 C 0.33100 0.27890 0.76145
 C82 C 0.34931 0.25219 0.74224
 C83 C 0.33095 0.22576 0.72225
 C84 C 0.29390 0.22576 0.72183
 H85 H 0.23071 0.30103 0.71529
 H86 H 0.23540 0.19953 0.76606
 H87 H 0.27833 0.29693 0.77557
 H88 H 0.27929 0.20582 0.70640
 H89 H 0.13524 0.25346 0.75724
 H90 H 0.37790 0.25207 0.74193
 C91 C 0.72532 0.77561 0.73082
 C92 C 0.74357 0.75016 0.75229
 C93 C 0.72476 0.72460 0.77329
 C94 C 0.68742 0.72402 0.77350
 C95 C 0.66954 0.75000 0.75143
 C96 C 0.68800 0.77599 0.72970
 C97 C 0.78266 0.75002 0.75224
 C98 C 0.80178 0.77673 0.77045
 C99 C 0.83904 0.77734 0.77012
 C100 C 0.85666 0.75024 0.75095
 C101 C 0.83788 0.72304 0.73249
 C102 C 0.80068 0.72339 0.73349
 H103 H 0.74070 0.79559 0.71589
 H104 H 0.73974 0.70458 0.78838
 H105 H 0.78728 0.79648 0.78564
 H106 H 0.78537 0.70361 0.71864
 H107 H 0.64102 0.74995 0.75109
 H108 H 0.88518 0.75032 0.75028
 C109 C 0.72268 0.27563 0.22806
 C110 C 0.74142 0.25007 0.24908
 C111 C 0.72289 0.22430 0.27027
 C112 C 0.68568 0.22400 0.27107
 C113 C 0.66729 0.24960 0.24942
 C114 C 0.68545 0.27545 0.22760
 C115 C 0.78054 0.25019 0.24892
 C116 C 0.79947 0.27650 0.26806
 C117 C 0.83673 0.27686 0.26860
 C118 C 0.85458 0.25002 0.24923
 C119 C 0.83603 0.22329 0.22965
 C120 C 0.79878 0.22382 0.22990
 H121 H 0.73725 0.29501 0.21120
 H122 H 0.73763 0.20511 0.28700
 H123 H 0.78485 0.29604 0.28346
 H124 H 0.78363 0.20433 0.21444
 H125 H 0.63867 0.24941 0.24957
 H126 H 0.88311 0.24995 0.24940
 C127 C 0.21554 0.77174 0.23135
 C128 C 0.23318 0.74338 0.24799
 C129 C 0.21410 0.71509 0.26326
 C130 C 0.17684 0.71475 0.26287
 C131 C 0.15943 0.74347 0.24516
 C132 C 0.17834 0.77223 0.22904
 C133 C 0.27201 0.74346 0.24986
 C134 C 0.28991 0.76876 0.27133
 C135 C 0.32695 0.76890 0.27373
 C136 C 0.34602 0.74381 0.25325
 C137 C 0.32816 0.71829 0.23132
 C138 C 0.29104 0.71826 0.23016
 H139 H 0.23147 0.79234 0.21832
 H140 H 0.22891 0.69457 0.27765
 H141 H 0.27486 0.78828 0.28635
 H142 H 0.27677 0.69932 0.21290
 H143 H 0.13095 0.74352 0.24409
 H144 H 0.37462 0.74360 0.25517
 O145 O 1.06640 0.02951 0.04625
 O146 O 0.92617 -0.03259 0.01243
 O147 O 0.97407 0.06833 0.02499
 O148 O 1.02620 -0.04850 0.06207
 O149 O 0.94815 0.02202 0.04538
 O150 O 1.07484 -0.03457 0.03612
 O151 O 0.96668 -0.04441 0.05173
 O152 O 1.03763 0.07211 0.01726
 C153 C 1.05684 0.06060 0.04524
 C154 C 0.93517 -0.04801 0.04263
 C155 C 0.95484 0.05359 0.04971
 C156 C 1.05858 -0.04864 0.06344
 O157 O 1.07134 -0.02449 -0.03724
 O158 O 0.91663 0.02925 -0.01998
 O159 O 1.02664 0.04881 -0.05893
 O160 O 0.97416 -0.06362 -0.02491
 O161 O 0.95375 -0.01616 -0.05189
 O162 O 1.07407 0.04032 -0.02758
 O163 O 1.03881 -0.06826 -0.01430
 O164 O 0.96430 0.04790 -0.04941
 Co165 Co 1.06537 0.00271 0.00424
 Co166 Co 0.95373 0.00417 -0.00345
 Co167 Co 1.00134 0.05447 -0.01498
 Co168 Co 1.00175 -0.05188 0.01718
 O169 O 1.00721 0.00085 0.00220
 C170 C 1.06182 -0.05593 -0.03824
 C171 C 0.93123 0.05140 -0.04403
 C172 C 1.05911 0.05084 -0.05772
 C173 C 0.95907 -0.04852 -0.05336
 O174 O 1.05944 0.53540 0.54690
 O175 O 0.92342 0.46555 0.51386
 O176 O 0.96867 0.56775 0.52365
 O177 O 1.02351 0.45054 0.56372
 O178 O 0.94481 0.52100 0.54622
 O179 O 1.07187 0.47174 0.54217
 O180 O 0.96408 0.45376 0.55289
 O181 O 1.03139 0.57450 0.51254
 C182 C 1.04942 0.56593 0.54231
 C183 C 0.93261 0.45003 0.54385
 C184 C 0.95082 0.55285 0.54957
 C185 C 1.05557 0.45455 0.56735
 O186 O 1.07055 0.47680 0.46800
 O187 O 0.91182 0.52580 0.48151
 O188 O 1.02008 0.54613 0.43979
 O189 O 0.97261 0.43469 0.47633
 O190 O 0.95076 0.48160 0.44960
 O191 O 1.06845 0.54139 0.47093
 O192 O 1.03816 0.43196 0.48860
 O193 O 0.95807 0.54479 0.45042
 Co194 Co 1.06139 0.50613 0.50674
 Co195 Co 0.95032 0.50256 0.49774
 Co196 Co 0.99542 0.55350 0.48345
 Co197 Co 0.99970 0.44736 0.51863
 O198 O 1.00379 0.50077 0.50325
 C199 C 1.06244 0.44501 0.46679
 C200 C 0.92518 0.54800 0.45676
 C201 C 1.05258 0.54880 0.44004
 C202 C 0.95664 0.44935 0.44818
 O203 O 0.56193 0.01402 0.54827
 O204 O 0.44067 -0.01964 0.55004
 O205 O 0.48266 0.05703 0.54499
 O206 O 0.52202 -0.06110 0.55018
 O207 O 0.43356 0.03847 0.52388
 O208 O 0.57010 -0.04391 0.52547
 O209 O 0.46177 -0.06826 0.53260
 O210 O 0.54188 0.06244 0.52712
 C211 C 0.55767 0.04546 0.55323
 C212 C 0.44439 -0.05112 0.55656
 C213 C 0.45045 0.05517 0.54880
 C214 C 0.55448 -0.05985 0.55228
 O215 O 0.56072 -0.01949 0.45162
 O216 O 0.43958 0.01282 0.45137
 O217 O 0.52174 0.05500 0.44993
 O218 O 0.48112 -0.06335 0.45555
 O219 O 0.43268 -0.04535 0.47748
 O220 O 0.57011 0.03852 0.47433
 O221 O 0.54073 -0.06819 0.47291
 O222 O 0.46188 0.06161 0.46823
 Co223 Co 0.55904 -0.00276 0.49994
 Co224 Co 0.44319 -0.00340 0.50066
 Co225 Co 0.50201 0.05315 0.49771
 Co226 Co 0.50145 -0.05937 0.50266
 O227 O 0.50134 -0.00309 0.50024
 C228 C 0.55605 -0.05096 0.44662
 C229 C 0.44346 0.04435 0.44482
 C230 C 0.55418 0.05439 0.44769
 C231 C 0.44884 -0.06182 0.45223
 O232 O 0.55867 0.51702 0.04646
 O233 O 0.43738 0.48277 0.04719
 O234 O 0.47971 0.55958 0.04215
 O235 O 0.51883 0.44154 0.04951
 O236 O 0.43071 0.54063 0.02104
 O237 O 0.56713 0.45870 0.02515
 O238 O 0.45866 0.43399 0.03070
 O239 O 0.53898 0.56509 0.02399
 C240 C 0.55434 0.54854 0.05070
 C241 C 0.44108 0.45139 0.05421
 C242 C 0.44754 0.55721 0.04617
 C243 C 0.55132 0.44278 0.05188
 O244 O 0.55847 0.48176 -0.04944
 O245 O 0.43759 0.51467 -0.05174
 O246 O 0.51896 0.55687 -0.05275
 O247 O 0.47938 0.43817 -0.04582
 O248 O 0.43055 0.45661 -0.02538
 O249 O 0.56725 0.54009 -0.02811
 O250 O 0.53859 0.43341 -0.02723
 O251 O 0.45889 0.56363 -0.03444
 Co252 Co 0.55625 0.49936 -0.00150
 Co253 Co 0.44051 0.49871 -0.00221
 Co254 Co 0.49910 0.55538 -0.00504
 Co255 Co 0.49885 0.44268 0.00157
 O256 O 0.49860 0.49903 -0.00178
 C257 C 0.55389 0.45021 -0.05384
 C258 C 0.44152 0.54613 -0.05853
 C259 C 0.55141 0.55586 -0.05490
 C260 C 0.44730 0.44053 -0.05048
 C261 C 1.14225 0.13540 0.15362
 C262 C 1.13505 0.16564 0.17420
 C263 C 1.16043 0.17946 0.19950
 C264 C 1.19388 0.16379 0.20396
 C265 C 1.20091 0.13350 0.18300
 C266 C 1.17524 0.11931 0.15836
 C267 C 1.11507 0.11923 0.12863
 C268 C 1.10429 0.08497 0.13686
 C269 C 1.08261 0.06724 0.11093
 C270 C 1.07166 0.08317 0.07577
 C271 C 1.08024 0.11840 0.06873
 C272 C 1.10183 0.13644 0.09522
 H273 H 1.15364 0.20231 0.21584
 H274 H 1.22643 0.12104 0.18509
 H275 H 1.07599 0.04022 0.11741
 H276 H 1.07226 0.13118 0.04182
 H277 H 1.18120 0.09586 0.14263
 H278 H 1.11380 0.07147 0.16274
 H279 H 1.10953 0.17805 0.17136
 H280 H 1.10987 0.16304 0.08858
 C281 C 1.13848 0.63911 0.64805
 C282 C 1.15351 0.67231 0.64171
 C283 C 1.18071 0.68449 0.66565
 C284 C 1.19325 0.66421 0.69728
 C285 C 1.17828 0.63099 0.70372
 C286 C 1.15138 0.61852 0.67929
 C287 C 1.11061 0.62540 0.62127
 C288 C 1.08436 0.60221 0.63514
 C289 C 1.06172 0.58520 0.60926
 C290 C 1.06418 0.59169 0.56911
 C291 C 1.08814 0.61696 0.55529
 C292 C 1.11135 0.63353 0.58110
 H293 H 1.19211 0.70988 0.65905
 H294 H 1.18706 0.61471 0.72784
 H295 H 1.04361 0.56542 0.62036
 H296 H 1.09107 0.62160 0.52430
 H297 H 1.14112 0.59246 0.68463
 H298 H 1.08222 0.59605 0.66587
 H299 H 1.14422 0.68909 0.61828
 H300 H 1.13134 0.65090 0.56913
 C301 C 0.63867 0.11510 0.67130
 C302 C 0.62734 0.14430 0.69176
 C303 C 0.65123 0.16329 0.71437
 C304 C 0.68691 0.15351 0.71681
 C305 C 0.69794 0.12364 0.69738
 C306 C 0.67407 0.10463 0.67486
 C307 C 0.61448 0.09689 0.64426
 C308 C 0.61515 0.06042 0.64156
 C309 C 0.59554 0.04358 0.61287
 C310 C 0.57494 0.06291 0.58625
 C311 C 0.57285 0.09920 0.59014
 C312 C 0.59247 0.11605 0.61889
 H313 H 0.64188 0.18588 0.72961
 H314 H 0.72536 0.11577 0.69830
 H315 H 0.59737 0.01550 0.61080
 H316 H 0.55702 0.11469 0.57014
 H317 H 0.68367 0.08255 0.65891
 H318 H 0.63145 0.04499 0.66115
 H319 H 0.60009 0.15264 0.68994
 H320 H 0.59166 0.14422 0.62013
 C321 C 0.63528 0.61965 0.16716
 C322 C 0.62488 0.64976 0.18658
 C323 C 0.64924 0.66829 0.20908
 C324 C 0.68441 0.65705 0.21241
 C325 C 0.69459 0.62662 0.19349
 C326 C 0.67026 0.60810 0.17113
 C327 C 0.61060 0.60132 0.14086
 C328 C 0.61016 0.56475 0.13981
 C329 C 0.59060 0.54751 0.11143
 C330 C 0.57113 0.56654 0.08356
 C331 C 0.56989 0.60301 0.08598
 C332 C 0.58951 0.62028 0.11440
 H333 H 0.64065 0.69144 0.22380
 H334 H 0.72166 0.61773 0.19497
 H335 H 0.59167 0.51932 0.11053
 H336 H 0.55488 0.61827 0.06500
 H337 H 0.67917 0.58537 0.15583
 H338 H 0.62571 0.54954 0.16034
 H339 H 0.59798 0.65902 0.18423
 H340 H 0.58954 0.64851 0.11445
 C341 C 0.83581 -0.12206 0.14118
 C342 C 0.80031 -0.11168 0.14239
 C343 C 0.77630 -0.12906 0.16667
 C344 C 0.78729 -0.15704 0.19055
 C345 C 0.82277 -0.16747 0.18932
 C346 C 0.84674 -0.15025 0.16481
 C347 C 0.86138 -0.10334 0.11565
 C348 C 0.89618 -0.09702 0.12846
 C349 C 0.92020 -0.07919 0.10458
 C350 C 0.90982 -0.06705 0.06756
 C351 C 0.87511 -0.07327 0.05466
 C352 C 0.85114 -0.09137 0.07841
 H353 H 0.74902 -0.12073 0.16650
 H354 H 0.83213 -0.18872 0.20765
 H355 H 0.94683 -0.07461 0.11524
 H356 H 0.86656 -0.06436 0.02610
 H357 H 0.87380 -0.15918 0.16418
 H358 H 0.90474 -0.10538 0.15720
 H359 H 0.79114 -0.08980 0.12491
 H360 H 0.82471 -0.09632 0.06745
 C361 C 0.83295 0.37679 0.64265
 C362 C 0.79919 0.39053 0.64831
 C363 C 0.77495 0.37341 0.67254
 C364 C 0.78371 0.34187 0.69196
 C365 C 0.81783 0.32828 0.68593
 C366 C 0.84202 0.34552 0.66170
 C367 C 0.85864 0.39513 0.61703
 C368 C 0.89439 0.39793 0.62799
 C369 C 0.91850 0.41564 0.60406
 C370 C 0.90727 0.43091 0.56878
 C371 C 0.87162 0.42795 0.55766
 C372 C 0.84753 0.41021 0.58156
 H373 H 0.74890 0.38458 0.67454
 H374 H 0.82679 0.30499 0.70096
 H375 H 0.94586 0.41760 0.61331
 H376 H 0.86234 0.43933 0.53048
 H377 H 0.86786 0.33423 0.65773
 H378 H 0.90361 0.38692 0.65537
 H379 H 0.79152 0.41473 0.63412
 H380 H 0.82024 0.40802 0.57212
 C381 C 0.35192 -0.12057 0.66683
 C382 C 0.34424 -0.10907 0.70449
 C383 C 0.31903 -0.12670 0.72747
 C384 C 0.30102 -0.15608 0.71313
 C385 C 0.30805 -0.16680 0.67506
 C386 C 0.33321 -0.14939 0.65230
 C387 C 0.37871 -0.10249 0.64207
 C388 C 0.40176 -0.12183 0.61896
 C389 C 0.42436 -0.10507 0.59243
 C390 C 0.42432 -0.06859 0.58833
 C391 C 0.40255 -0.04915 0.61280
 C392 C 0.38003 -0.06593 0.63944
 H393 H 0.31431 -0.11793 0.75674
 H394 H 0.29399 -0.18877 0.66273
 H395 H 0.44098 -0.12075 0.57422
 H396 H 0.40198 -0.02096 0.61040
 H397 H 0.33778 -0.15829 0.62303
 H398 H 0.40181 -0.15003 0.62087
 H399 H 0.35825 -0.08692 0.71646
 H400 H 0.36251 -0.05034 0.65671
 C401 C 0.35004 0.38173 0.16609
 C402 C 0.33735 0.39649 0.20042
 C403 C 0.31235 0.37871 0.22352
 C404 C 0.29955 0.34537 0.21313
 C405 C 0.31198 0.33130 0.17803
 C406 C 0.33669 0.34912 0.15508
 C407 C 0.37617 0.40039 0.14083
 C408 C 0.40243 0.38180 0.12127
 C409 C 0.42447 0.39856 0.09417
 C410 C 0.42092 0.43436 0.08619
 C411 C 0.39596 0.45333 0.10720
 C412 C 0.37378 0.43653 0.13414
 H413 H 0.30452 0.39064 0.25038
 H414 H 0.30174 0.30697 0.16696
 H415 H 0.44370 0.38333 0.07876
 H416 H 0.39259 0.48100 0.10176
 H417 H 0.34476 0.33756 0.12805
 H418 H 0.40553 0.35407 0.12640
 H419 H 0.34727 0.42155 0.20988
 H420 H 0.35375 0.45161 0.14845
 C421 C 0.84184 0.13213 -0.14633
 C422 C 0.82224 0.16046 -0.13316
 C423 C 0.79797 0.17700 -0.15781
 C424 C 0.79252 0.16509 -0.19578
 C425 C 0.81245 0.13706 -0.20913
 C426 C 0.83716 0.12088 -0.18468
 C427 C 0.86565 0.11312 -0.11949
 C428 C 0.90034 0.10528 -0.13049
 C429 C 0.92219 0.08595 -0.10549
 C430 C 0.90932 0.07358 -0.06956
 C431 C 0.87477 0.08175 -0.05845
 C432 C 0.85321 0.10158 -0.08309
 H433 H 0.78271 0.19846 -0.14688
 H434 H 0.80876 0.12762 -0.23841
 H435 H 0.94878 0.07997 -0.11464
 H436 H 0.86438 0.07264 -0.03077
 H437 H 0.85184 0.09890 -0.19529
 H438 H 0.91046 0.11410 -0.15840
 H439 H 0.82555 0.16958 -0.10370
 H440 H 0.82644 0.10712 -0.07418
 C441 C 0.83279 0.62786 0.35645
 C442 C 0.84253 0.65969 0.33875
 C443 C 0.81922 0.67693 0.31346
 C444 C 0.78548 0.66267 0.30496
 C445 C 0.77610 0.63063 0.32316
 C446 C 0.79940 0.61355 0.34831
 C447 C 0.85721 0.60928 0.38327
 C448 C 0.89341 0.60681 0.37473
 C449 C 0.91581 0.58734 0.39897
 C450 C 0.90230 0.56992 0.43199
 C451 C 0.86639 0.57316 0.44107
 C452 C 0.84410 0.59271 0.41702
 H453 H 0.82853 0.70078 0.29962
 H454 H 0.75019 0.61896 0.31951
 H455 H 0.94348 0.58531 0.39144
 H456 H 0.85544 0.56041 0.46668
 H457 H 0.79122 0.58888 0.36131
 H458 H 0.90418 0.61910 0.34876
 H459 H 0.86814 0.67138 0.34461
 H460 H 0.81649 0.59476 0.42478
 C461 C 0.34868 0.11668 0.33960
 C462 C 0.33739 0.14932 0.35211
 C463 C 0.31203 0.16801 0.33114
 C464 C 0.29685 0.15480 0.29664
 C465 C 0.30753 0.12138 0.28484
 C466 C 0.33320 0.10273 0.30593
 C467 C 0.37572 0.09720 0.36263
 C468 C 0.37240 0.06102 0.36889
 C469 C 0.39558 0.04350 0.39414
 C470 C 0.42246 0.06182 0.41385
 C471 C 0.42693 0.09761 0.40607
 C472 C 0.40391 0.11507 0.38064
 H473 H 0.30355 0.19237 0.34325
 H474 H 0.29755 0.11008 0.25830
 H475 H 0.39145 0.01586 0.39952
 H476 H 0.44762 0.11234 0.42049
 H477 H 0.34146 0.07767 0.29536
 H478 H 0.35091 0.04649 0.35571
 H479 H 0.34766 0.16027 0.37877
 H480 H 0.40775 0.14279 0.37571
 C481 C 0.35392 0.61293 -0.17621
 C482 C 0.36238 0.64572 -0.19247
 C483 C 0.33751 0.66429 -0.21436
 C484 C 0.30324 0.65061 -0.22118
 C485 C 0.29589 0.61640 -0.20758
 C486 C 0.32072 0.59804 -0.18502
 C487 C 0.37873 0.59558 -0.14828
 C488 C 0.38156 0.55905 -0.14633
 C489 C 0.40286 0.54300 -0.11796
 C490 C 0.42196 0.56309 -0.09102
 C491 C 0.42017 0.59957 -0.09380
 C492 C 0.39869 0.61560 -0.12191
 H493 H 0.34556 0.68941 -0.22622
 H494 H 0.27003 0.60463 -0.21153
 H495 H 0.40385 0.51478 -0.11667
 H496 H 0.43442 0.61576 -0.07338
 H497 H 0.31314 0.57289 -0.17283
 H498 H 0.36709 0.54282 -0.16651
 H499 H 0.38819 0.65740 -0.18778
 H500 H 0.39678 0.64373 -0.12198
 C501 C 1.14960 -0.13268 -0.14213
 C502 C 1.14059 -0.16279 -0.16260
 C503 C 1.16516 -0.17796 -0.18732
 C504 C 1.19949 -0.16368 -0.19149
 C505 C 1.20847 -0.13376 -0.17043
 C506 C 1.18375 -0.11836 -0.14622
 C507 C 1.12324 -0.11482 -0.11801
 C508 C 1.11849 -0.07894 -0.12339
 C509 C 1.09672 -0.06066 -0.09869
 C510 C 1.07929 -0.07765 -0.06755
 C511 C 1.08222 -0.11402 -0.06340
 C512 C 1.10405 -0.13255 -0.08865
 H513 H 1.15700 -0.20058 -0.20362
 H514 H 1.23475 -0.12245 -0.17222
 H515 H 1.09453 -0.03274 -0.10324
 H516 H 1.06908 -0.12775 -0.03973
 H517 H 1.19138 -0.09524 -0.13043
 H518 H 1.13235 -0.06484 -0.14631
 H519 H 1.11428 -0.17399 -0.16028
 H520 H 1.10723 -0.16036 -0.08417
 C521 C 1.15275 0.37049 0.36244
 C522 C 1.14265 0.34140 0.34076
 C523 C 1.16642 0.32654 0.31494
 C524 C 1.20102 0.34010 0.31072
 C525 C 1.21110 0.36908 0.33275
 C526 C 1.18721 0.38414 0.35823
 C527 C 1.12705 0.38813 0.38769
 C528 C 1.12409 0.42438 0.38485
 C529 C 1.10191 0.44208 0.40960
 C530 C 1.08211 0.42413 0.43831
 C531 C 1.08368 0.38756 0.44020
 C532 C 1.10600 0.36962 0.41488
 H533 H 1.15751 0.30462 0.29791
 H534 H 1.23764 0.37979 0.33078
 H535 H 1.10090 0.47022 0.40661
 H536 H 1.06868 0.37306 0.46188
 H537 H 1.19572 0.40646 0.37488
 H538 H 1.13928 0.43919 0.36354
 H539 H 1.11610 0.33077 0.34302
 H540 H 1.10774 0.34151 0.41739
 C541 C 0.63580 -0.11781 0.32792
 C542 C 0.62546 -0.14808 0.30830
 C543 C 0.64966 -0.16568 0.28542
 C544 C 0.68464 -0.15338 0.28189
 C545 C 0.69467 -0.12260 0.30072
 C546 C 0.67050 -0.10500 0.32348
 C547 C 0.61142 -0.10067 0.35493
 C548 C 0.61046 -0.06417 0.35665
 C549 C 0.59117 -0.04799 0.38554
 C550 C 0.57249 -0.06803 0.41329
 C551 C 0.57177 -0.10448 0.41026
 C552 C 0.59113 -0.12068 0.38132
 H553 H 0.64110 -0.18907 0.27070
 H554 H 0.72159 -0.11283 0.29902
 H555 H 0.59183 -0.01979 0.38690
 H556 H 0.55740 -0.12051 0.43115
 H557 H 0.67937 -0.08207 0.33885
 H558 H 0.62536 -0.04814 0.33622
 H559 H 0.59875 -0.15826 0.31089
 H560 H 0.59159 -0.14889 0.38078
 C561 C 0.63259 0.38164 -0.17224
 C562 C 0.62213 0.35114 -0.19138
 C563 C 0.64613 0.33339 -0.21441
 C564 C 0.68102 0.34580 -0.21857
 C565 C 0.69119 0.37669 -0.20006
 C566 C 0.66723 0.39443 -0.17718
 C567 C 0.60846 0.39913 -0.14524
 C568 C 0.60758 0.43568 -0.14407
 C569 C 0.58863 0.45227 -0.11520
 C570 C 0.57019 0.43263 -0.08692
 C571 C 0.56939 0.39613 -0.08936
 C572 C 0.58841 0.37950 -0.11828
 H573 H 0.63751 0.30984 -0.22876
 H574 H 0.71808 0.38648 -0.20208
 H575 H 0.58934 0.48049 -0.11433
 H576 H 0.55518 0.38040 -0.06806
 H577 H 0.67624 0.41749 -0.16215
 H578 H 0.62229 0.45142 -0.16494
 H579 H 0.59548 0.34092 -0.18832
 H580 H 0.58881 0.35128 -0.11839
 C581 C 1.13163 0.13970 -0.16922
 C582 C 1.16855 0.14324 -0.16936
 C583 C 1.18507 0.16972 -0.19092
 C584 C 1.16540 0.19328 -0.21446
 C585 C 1.12829 0.18810 -0.21585
 C586 C 1.11174 0.16212 -0.19327
 C587 C 1.11406 0.11427 -0.14221
 C588 C 1.08153 0.09836 -0.15184
 C589 C 1.06392 0.07686 -0.12481
 C590 C 1.07887 0.07029 -0.08798
 C591 C 1.11194 0.08494 -0.07892
 C592 C 1.12911 0.10697 -0.10546
 H593 H 1.21328 0.17215 -0.18686
 H594 H 1.11140 0.20363 -0.23454
 H595 H 1.03845 0.06573 -0.13250
 H596 H 1.12387 0.08066 -0.05054
 H597 H 1.08317 0.16032 -0.19402
 H598 H 1.06942 0.10275 -0.18007
 H599 H 1.18496 0.12596 -0.15200
 H600 H 1.15358 0.11929 -0.09639
 C601 C 1.12203 0.63347 0.32392
 C602 C 1.15515 0.62731 0.30755
 C603 C 1.17262 0.65353 0.28631
 C604 C 1.15766 0.68701 0.28124
 C605 C 1.12359 0.69232 0.29669
 C606 C 1.10613 0.66595 0.31762
 C607 C 1.10507 0.60728 0.34997
 C608 C 1.06848 0.60107 0.34781
 C609 C 1.05166 0.58031 0.37594
 C610 C 1.07111 0.56561 0.40697
 C611 C 1.10799 0.57015 0.40787
 C612 C 1.12484 0.59074 0.37955
 H613 H 1.19768 0.64700 0.27346
 H614 H 1.11096 0.71747 0.29530
 H615 H 1.02321 0.57711 0.37435
 H616 H 1.12363 0.55900 0.43136
 H617 H 1.08083 0.67161 0.33057
 H618 H 1.05273 0.61317 0.32499
 H619 H 1.16766 0.60219 0.31139
 H620 H 1.15307 0.59528 0.38200
 C621 C 0.62901 0.14733 0.34121
 C622 C 0.65955 0.13804 0.32083
 C623 C 0.67779 0.16273 0.29790
 C624 C 0.66604 0.19740 0.29494
 C625 C 0.63549 0.20662 0.31539
 C626 C 0.61719 0.18192 0.33811
 C627 C 0.60983 0.12143 0.36630
 C628 C 0.57266 0.12069 0.36714
 C629 C 0.55459 0.09802 0.39257
 C630 C 0.57327 0.07567 0.41797
 C631 C 0.61041 0.07560 0.41633
 C632 C 0.62848 0.09816 0.39070
 H633 H 0.70089 0.15455 0.28212
 H634 H 0.62606 0.23318 0.31451
 H635 H 0.52597 0.09865 0.39302
 H636 H 0.62554 0.05867 0.43552
 H637 H 0.59416 0.19012 0.35401
 H638 H 0.55750 0.13787 0.34828
 H639 H 0.66912 0.11153 0.32227
 H640 H 0.65712 0.09824 0.39097
 C641 C 0.63001 0.64729 -0.15987
 C642 C 0.66410 0.65810 -0.14854
 C643 C 0.68306 0.68279 -0.17061
 C644 C 0.66843 0.69808 -0.20469
 C645 C 0.63421 0.68686 -0.21600
 C646 C 0.61550 0.66180 -0.19412
 C647 C 0.60937 0.62186 -0.13537
 C648 C 0.57250 0.62509 -0.13145
 C649 C 0.55347 0.60271 -0.10656
 C650 C 0.57086 0.57679 -0.08458
 C651 C 0.60746 0.57280 -0.08924
 C652 C 0.62645 0.59491 -0.11449
 H653 H 0.70852 0.69108 -0.15944
 H654 H 0.62206 0.69621 -0.24269
 H655 H 0.52530 0.60657 -0.10343
 H656 H 0.62152 0.55286 -0.07292
 H657 H 0.58971 0.65351 -0.20441
 H658 H 0.55841 0.64573 -0.14654
 H659 H 0.67589 0.64827 -0.12183
 H660 H 0.65461 0.59101 -0.11739
 C661 C 0.89661 -0.14226 -0.16683
 C662 C 0.86333 -0.13527 -0.18358
 C663 C 0.84522 -0.16076 -0.20499
 C664 C 0.85942 -0.19435 -0.20957
 C665 C 0.89316 -0.20083 -0.19369
 C666 C 0.91166 -0.17508 -0.17345
 C667 C 0.91450 -0.11689 -0.14016
 C668 C 0.93506 -0.12954 -0.10891
 C669 C 0.95062 -0.10693 -0.08248
 C670 C 0.94559 -0.07069 -0.08546
 C671 C 0.92553 -0.05753 -0.11686
 C672 C 0.91029 -0.08040 -0.14409
 H673 H 0.81987 -0.15405 -0.21760
 H674 H 0.90523 -0.22616 -0.19572
 H675 H 0.96569 -0.11827 -0.05865
 H676 H 0.92106 -0.02978 -0.11993
 H677 H 0.93768 -0.18139 -0.16235
 H678 H 0.93828 -0.15721 -0.10370
 H679 H 0.85062 -0.11050 -0.17922
 H680 H 0.89503 -0.06948 -0.16796
 C681 C 0.89371 0.35574 0.33466
 C682 C 0.90826 0.32261 0.32851
 C683 C 0.88995 0.29735 0.30730
 C684 C 0.85689 0.30458 0.29013
 C685 C 0.84312 0.33836 0.29454
 C686 C 0.86106 0.36340 0.31677
 C687 C 0.91151 0.38088 0.36169
 C688 C 0.90838 0.41742 0.35714
 C689 C 0.92372 0.44022 0.38436
 C690 C 0.94286 0.42695 0.41641
 C691 C 0.94667 0.39060 0.42018
 C692 C 0.93100 0.36806 0.39369
 H693 H 0.90159 0.27179 0.30542
 H694 H 0.81825 0.34555 0.28108
 H695 H 0.92017 0.46806 0.38067
 H696 H 0.96087 0.37919 0.44462
 H697 H 0.84872 0.38841 0.32078
 H698 H 0.89397 0.42848 0.33270
 H699 H 0.93378 0.31575 0.34061
 H700 H 0.93332 0.34035 0.39933
 C701 C 0.37815 -0.15382 0.34470
 C702 C 0.34825 -0.17222 0.35821
 C703 C 0.33196 -0.19744 0.33525
 C704 C 0.34519 -0.20497 0.29825
 C705 C 0.37522 -0.18682 0.28472
 C706 C 0.39148 -0.16141 0.30767
 C707 C 0.39605 -0.12786 0.36992
 C708 C 0.43312 -0.12603 0.37160
 C709 C 0.45011 -0.10367 0.39745
 C710 C 0.43043 -0.08270 0.42242
 C711 C 0.39339 -0.08356 0.41991
 C712 C 0.37635 -0.10591 0.39388
 H713 H 0.30917 -0.21143 0.34668
 H714 H 0.38571 -0.19183 0.25613
 H715 H 0.47874 -0.10359 0.39866
 H716 H 0.37759 -0.06751 0.43860
 H717 H 0.41427 -0.14745 0.29625
 H718 H 0.44910 -0.14282 0.35395
 H719 H 0.33780 -0.16765 0.38692
 H720 H 0.34773 -0.10626 0.39277
 C721 C 0.38200 0.35416 -0.16712
 C722 C 0.39834 0.32229 -0.17476
 C723 C 0.38228 0.29802 -0.19923
 C724 C 0.34905 0.30474 -0.21659
 C725 C 0.33355 0.33753 -0.20984
 C726 C 0.34973 0.36172 -0.18542
 C727 C 0.39818 0.37886 -0.13924
 C728 C 0.37723 0.39626 -0.11209
 C729 C 0.39293 0.41735 -0.08384
 C730 C 0.42984 0.42129 -0.08222
 C731 C 0.45060 0.40496 -0.11029
 C732 C 0.43496 0.38403 -0.13846
 H733 H 0.39518 0.27319 -0.20220
 H734 H 0.30915 0.34519 -0.22398
 H735 H 0.37633 0.42967 -0.06259
 H736 H 0.47913 0.40782 -0.11006
 H737 H 0.33699 0.38650 -0.18096
 H738 H 0.34881 0.39258 -0.11180
 H739 H 0.42303 0.31546 -0.16061
 H740 H 0.45173 0.37158 -0.15945
 C741 C 1.12700 -0.14387 0.16967
 C742 C 1.15990 -0.13863 0.18760
 C743 C 1.17643 -0.16589 0.20780
 C744 C 1.16066 -0.19947 0.21035
 C745 C 1.12711 -0.20410 0.19274
 C746 C 1.11062 -0.17673 0.17280
 C747 C 1.11033 -0.11584 0.14607
 C748 C 1.07377 -0.11034 0.14827
 C749 C 1.05725 -0.08702 0.12267
 C750 C 1.07696 -0.06884 0.09420
 C751 C 1.11382 -0.07290 0.09336
 C752 C 1.13038 -0.09618 0.11913
 H753 H 1.20120 -0.15998 0.22222
 H754 H 1.11409 -0.22928 0.19203
 H755 H 1.02882 -0.08426 0.12422
 H756 H 1.12965 -0.05920 0.07174
 H757 H 1.08553 -0.18169 0.15848
 H758 H 1.05782 -0.12476 0.16920
 H759 H 1.17280 -0.11331 0.18618
 H760 H 1.15860 -0.10008 0.11671
 C761 C 1.12457 0.36424 0.67784
 C762 C 1.15609 0.37075 0.69825
 C763 C 1.17337 0.34362 0.71792
 C764 C 1.15973 0.30935 0.71700
 C765 C 1.12756 0.30319 0.69757
 C766 C 1.11012 0.33036 0.67833
 C767 C 1.10767 0.39188 0.65395
 C768 C 1.07083 0.39549 0.65432
 C769 C 1.05417 0.41758 0.62756
 C770 C 1.07401 0.43642 0.59968
 C771 C 1.11107 0.43457 0.60091
 C772 C 1.12780 0.41248 0.62793
 H773 H 1.19774 0.34938 0.73331
 H774 H 1.11662 0.27707 0.69575
 H775 H 1.02556 0.41872 0.62765
 H776 H 1.12700 0.44880 0.57981
 H777 H 1.08607 0.32456 0.66235
 H778 H 1.05481 0.38028 0.67449
 H779 H 1.16751 0.39675 0.69862
 H780 H 1.15628 0.41000 0.62700
 C781 C 0.63217 -0.14876 0.66023
 C782 C 0.66626 -0.15945 0.64998
 C783 C 0.68475 -0.18358 0.67304
 C784 C 0.66961 -0.19843 0.70704
 C785 C 0.63544 -0.18727 0.71734
 C786 C 0.61722 -0.16274 0.69449
 C787 C 0.61191 -0.12412 0.63460
 C788 C 0.57504 -0.12785 0.63012
 C789 C 0.55628 -0.10613 0.60446
 C790 C 0.57392 -0.08041 0.58218
 C791 C 0.61056 -0.07601 0.58719
 C792 C 0.62930 -0.09746 0.61325
 H793 H 0.71023 -0.19187 0.66266
 H794 H 0.62295 -0.19630 0.74391
 H795 H 0.52806 -0.11029 0.60109
 H796 H 0.62481 -0.05620 0.57064
 H797 H 0.59143 -0.15447 0.70400
 H798 H 0.56071 -0.14833 0.64548
 H799 H 0.67839 -0.15001 0.62333
 H800 H 0.65749 -0.09322 0.61649
 C801 C 0.62757 0.35131 0.15822
 C802 C 0.65856 0.36107 0.17825
 C803 C 0.67722 0.33662 0.20089
 C804 C 0.66547 0.30175 0.20391
 C805 C 0.63448 0.29208 0.18379
 C806 C 0.61577 0.31652 0.16136
 C807 C 0.60799 0.37692 0.13332
 C808 C 0.57079 0.37691 0.13255
 C809 C 0.55236 0.39923 0.10717
 C810 C 0.57070 0.42200 0.08177
 C811 C 0.60785 0.42286 0.08340
 C812 C 0.62628 0.40065 0.10894
 H813 H 0.70066 0.34515 0.21640
 H814 H 0.62501 0.26536 0.18472
 H815 H 0.52373 0.39798 0.10671
 H816 H 0.62274 0.44011 0.06421
 H817 H 0.59242 0.30794 0.14570
 H818 H 0.55588 0.35937 0.15138
 H819 H 0.66816 0.38773 0.17678
 H820 H 0.65491 0.40117 0.10859
 C821 C 0.89078 0.14476 0.16310
 C822 C 0.90624 0.17767 0.16999
 C823 C 0.88866 0.20278 0.19138
 C824 C 0.85545 0.19558 0.20810
 C825 C 0.84081 0.16193 0.20310
 C826 C 0.85804 0.13703 0.18064
 C827 C 0.90782 0.12007 0.13558
 C828 C 0.90441 0.08342 0.13945
 C829 C 0.91989 0.06117 0.11217
 C830 C 0.93944 0.07517 0.08086
 C831 C 0.94298 0.11163 0.07747
 C832 C 0.92718 0.13357 0.10392
 H833 H 0.90096 0.22822 0.19369
 H834 H 0.81581 0.15473 0.21624
 H835 H 0.91651 0.03322 0.11547
 H836 H 0.95729 0.12359 0.05345
 H837 H 0.84510 0.11213 0.17612
 H838 H 0.88989 0.07190 0.16353
 H839 H 0.93191 0.18450 0.15822
 H840 H 0.92952 0.16138 0.09866
 C841 C 0.89093 0.64408 0.66533
 C842 C 0.90642 0.67716 0.67101
 C843 C 0.88946 0.70239 0.69280
 C844 C 0.85694 0.69513 0.71100
 C845 C 0.84245 0.66127 0.70734
 C846 C 0.85903 0.63622 0.68454
 C847 C 0.90684 0.61940 0.63711
 C848 C 0.90437 0.58276 0.64175
 C849 C 0.91879 0.56049 0.61382
 C850 C 0.93624 0.57451 0.58105
 C851 C 0.93873 0.61098 0.57682
 C852 C 0.92402 0.63292 0.60399
 H853 H 0.90159 0.72799 0.69413
 H854 H 0.81799 0.65409 0.72168
 H855 H 0.91629 0.53251 0.61780
 H856 H 0.95144 0.62292 0.55172
 H857 H 0.84616 0.61115 0.68098
 H858 H 0.89146 0.57130 0.66696
 H859 H 0.93151 0.68404 0.65786
 H860 H 0.92548 0.66071 0.59825
 C861 C 0.38372 0.14754 0.65613
 C862 C 0.39677 0.18196 0.65666
 C863 C 0.38013 0.20718 0.67875
 C864 C 0.35017 0.19846 0.70096
 C865 C 0.33766 0.16379 0.70114
 C866 C 0.35415 0.13863 0.67879
 C867 C 0.40052 0.12140 0.63115
 C868 C 0.37987 0.09932 0.60771
 C869 C 0.39597 0.07684 0.58164
 C870 C 0.43297 0.07599 0.57876
 C871 C 0.45355 0.09702 0.60344
 C872 C 0.43749 0.11954 0.62923
 H873 H 0.39005 0.23374 0.67745
 H874 H 0.31499 0.15612 0.71849
 H875 H 0.37952 0.06086 0.56304
 H876 H 0.48216 0.09677 0.60213
 H877 H 0.34387 0.11218 0.67929
 H878 H 0.35128 0.10039 0.60851
 H879 H 0.41925 0.18964 0.63902
 H880 H 0.45401 0.13585 0.64740
 C881 C 0.38127 0.64430 0.15967
 C882 C 0.39459 0.67846 0.16329
 C883 C 0.37802 0.70219 0.18745
 C884 C 0.34778 0.69225 0.20857
 C885 C 0.33511 0.65775 0.20581
 C886 C 0.35158 0.63409 0.18149
 C887 C 0.39794 0.61981 0.13249
 C888 C 0.37717 0.59890 0.10782
 C889 C 0.39312 0.57773 0.08026
 C890 C 0.43010 0.57705 0.07704
 C891 C 0.45079 0.59703 0.10268
 C892 C 0.43490 0.61819 0.13000
 H893 H 0.38812 0.72866 0.18849
 H894 H 0.31224 0.64910 0.22227
 H895 H 0.37657 0.56255 0.06095
 H896 H 0.47940 0.59686 0.10117
 H897 H 0.34111 0.60778 0.17975
 H898 H 0.34859 0.59981 0.10898
 H899 H 0.41721 0.68719 0.14645
 H900 H 0.45156 0.63353 0.14905
   
