data_POSCAR
  _audit_creation_date              2014-09-24
  _audit_creation_method            'ToBaCCo'
  _symmetry_space_group_name_H-M    'P1'
  _symmetry_Int_Tables_number       1
  _symmetry_cell_setting            triclinic
  loop_
  _symmetry_equiv_pos_as_xyz
 x,y,z
_cell_length_a 30.3479
_cell_length_b 25.3139
_cell_length_c 33.3814
_cell_angle_alpha 89.381900
_cell_angle_beta 90.249300
_cell_angle_gamma 90.551300
loop_
  _atom_site_label
  _atom_site_type_symbol
  _atom_site_fract_x
  _atom_site_fract_y
  _atom_site_fract_z
C1 C 1.23798 0.20733 0.24364
 C2 C 0.71272 -0.27250 0.24821
 C3 C 0.71879 0.23046 -0.26131
 C4 C 1.18936 -0.29426 -0.25111
 C5 C 0.21805 0.23078 0.75556
 C6 C 0.74088 0.71021 0.74276
 C7 C 0.69727 0.18785 0.24940
 C8 C 0.21324 0.70770 0.25116
 O9 O 1.04002 0.02239 0.03673
 O10 O 0.87118 -0.04969 0.02498
 O11 O 0.89920 0.05132 0.03698
 O12 O 1.00920 -0.07946 0.04697
 O13 O 0.89454 0.05065 0.03654
 O14 O 1.01065 -0.07663 0.04935
 O15 O 0.92462 -0.09753 0.05128
 O16 O 0.98641 0.08116 0.04581
 C17 C 1.02519 0.06446 0.05288
 C18 C 0.88561 -0.08089 0.05144
 C19 C 0.90051 0.03791 0.07364
 C20 C 1.02876 -0.12185 0.05532
 O21 O 1.00745 -0.08926 -0.03455
 O22 O 0.90178 0.05523 -0.04617
 O23 O 0.99721 0.07906 -0.02896
 O24 O 0.91716 -0.11037 -0.03199
 O25 O 0.88370 -0.03551 -0.05236
 O26 O 1.03918 0.01017 -0.04097
 O27 O 1.00531 -0.09317 -0.03139
 O28 O 0.92720 0.12387 -0.01250
 Co29 Co 1.02121 -0.03176 0.00196
 Co30 Co 0.89120 0.00210 -0.00799
 Co31 Co 0.95040 0.06154 0.00372
 Co32 Co 0.96335 -0.09389 0.00997
 O33 O 0.95574 -0.01605 -0.00005
 C34 C 1.02741 -0.13379 -0.03777
 C35 C 0.90364 0.10530 -0.04265
 C36 C 1.02995 0.05851 -0.04613
 C37 C 0.89297 -0.08186 -0.05918
 O38 O 1.02770 0.45551 0.54765
 O39 O 0.88616 0.43355 0.51924
 O40 O 0.94646 0.59053 0.51123
 O41 O 0.99555 0.36767 0.52743
 O42 O 0.92663 0.51304 0.53542
 O43 O 0.99613 0.36840 0.52748
 O44 O 0.91262 0.35623 0.50473
 O45 O 1.00245 0.53173 0.53108
 C46 C 1.02238 0.50246 0.55542
 C47 C 0.88545 0.38455 0.52257
 C48 C 0.93101 0.56421 0.54178
 C49 C 0.99801 0.33692 0.55751
 O50 O 1.02547 0.38120 0.45242
 O51 O 0.92980 0.52743 0.43562
 O52 O 1.01281 0.55361 0.46483
 O53 O 0.93344 0.35462 0.43172
 O54 O 0.88375 0.42399 0.43907
 O55 O 1.05783 0.48269 0.47727
 O56 O 1.01975 0.37437 0.45295
 O57 O 0.93074 0.53317 0.43909
 Co58 Co 1.02497 0.42460 0.50020
 Co59 Co 0.90891 0.47655 0.48197
 Co60 Co 0.96007 0.52811 0.48760
 Co61 Co 0.96445 0.36747 0.47788
 O62 O 0.96878 0.44981 0.46974
 C63 C 1.04615 0.33673 0.45174
 C64 C 0.92787 0.57833 0.42586
 C65 C 1.05117 0.53079 0.46357
 C66 C 0.89689 0.37601 0.42234
 O67 O 0.53757 -0.00395 0.54506
 O68 O 0.41484 -0.11413 0.54480
 O69 O 0.39579 0.01157 0.55048
 O70 O 0.50698 -0.10904 0.54655
 O71 O 0.39242 0.00286 0.55127
 O72 O 0.50816 -0.10587 0.54948
 O73 O 0.41875 -0.11697 0.54384
 O74 O 0.48176 0.04602 0.56419
 C75 C 0.52159 0.03013 0.56844
 C76 C 0.41158 -0.15271 0.57016
 C77 C 0.39703 0.00751 0.58892
 C78 C 0.53264 -0.14718 0.55206
 O79 O 0.56728 -0.07910 0.49472
 O80 O 0.36001 -0.01272 0.48231
 O81 O 0.48821 0.06609 0.48716
 O82 O 0.43359 -0.12694 0.45914
 O83 O 0.37108 -0.10586 0.48000
 O84 O 0.52907 -0.00166 0.46846
 O85 O 0.50985 -0.11811 0.46491
 O86 O 0.40881 0.04882 0.47315
 Co87 Co 0.51626 -0.05097 0.50742
 Co88 Co 0.38783 -0.05709 0.51647
 Co89 Co 0.44357 0.03795 0.51806
 Co90 Co 0.46513 -0.11594 0.50414
 O91 O 0.45268 -0.04019 0.50379
 C92 C 0.55165 -0.11003 0.46651
 C93 C 0.37389 0.02600 0.46249
 C94 C 0.51815 0.04639 0.46547
 C95 C 0.39363 -0.12551 0.45373
 O96 O 0.55676 0.52228 0.03026
 O97 O 0.39999 0.45079 0.04424
 O98 O 0.41324 0.54855 0.02140
 O99 O 0.53309 0.40930 0.04078
 O100 O 0.40778 0.54642 0.02058
 O101 O 0.53382 0.41670 0.04034
 O102 O 0.45045 0.39411 0.05262
 O103 O 0.50138 0.58260 0.02262
 C104 C 0.53871 0.56741 0.03766
 C105 C 0.41654 0.41497 0.06454
 C106 C 0.41427 0.55875 0.05801
 C107 C 0.53627 0.43176 0.07562
 O108 O 0.52544 0.40727 -0.03754
 O109 O 0.41845 0.51682 -0.05590
 O110 O 0.50487 0.56897 -0.05356
 O111 O 0.42895 0.40381 -0.02504
 O112 O 0.42480 0.40842 -0.02576
 O113 O 0.55733 0.50912 -0.04565
 O114 O 0.52176 0.40416 -0.03701
 O115 O 0.42093 0.52487 -0.05312
 Co116 Co 0.54080 0.46567 -0.00258
 Co117 Co 0.41399 0.47797 -0.00464
 Co118 Co 0.46200 0.55329 -0.01410
 Co119 Co 0.48122 0.40408 0.00690
 O120 O 0.47680 0.47999 0.00166
 C121 C 0.52288 0.37097 -0.06452
 C122 C 0.39341 0.55733 -0.06514
 C123 C 0.54181 0.54955 -0.06320
 C124 C 0.41713 0.36657 -0.04715
 C125 C 1.16718 0.14020 0.15997
 C126 C 1.13894 0.18087 0.15145
 C127 C 1.14368 0.23067 0.16770
 C128 C 1.17781 0.23859 0.19529
 C129 C 1.20597 0.19658 0.20784
 C130 C 1.20204 0.14736 0.18741
 O131 O 1.15578 0.09562 0.14146
 C132 C 1.11937 0.10870 0.12126
 C133 C 1.10782 0.16046 0.12663
 C134 C 1.07019 0.18249 0.10989
 C135 C 1.04310 0.14991 0.08651
 C136 C 1.05404 0.09629 0.07973
 C137 C 1.09309 0.07551 0.09732
 H138 H 1.12107 0.26210 0.16022
 H139 H 1.18046 0.27704 0.20890
 H140 H 1.22406 0.11491 0.19344
 H141 H 1.06186 0.22338 0.11480
 H142 H 1.01387 0.16698 0.07312
 H143 H 1.10251 0.03494 0.09275
 C144 C 1.10757 0.63799 0.67505
 C145 C 1.11897 0.58615 0.68102
 C146 C 1.15409 0.57069 0.70447
 C147 C 1.17759 0.60997 0.72417
 C148 C 1.16350 0.66390 0.72401
 C149 C 1.12886 0.67814 0.69698
 O150 O 1.07744 0.64371 0.64611
 C151 C 1.06972 0.59420 0.63433
 C152 C 1.09372 0.55783 0.65577
 C153 C 1.09190 0.50399 0.64906
 C154 C 1.06532 0.48656 0.61775
 C155 C 1.04273 0.52299 0.59252
 C156 C 1.04379 0.57771 0.60172
 H157 H 1.16471 0.52998 0.70578
 H158 H 1.20729 0.59726 0.73922
 H159 H 1.11937 0.71897 0.69290
 H160 H 1.11083 0.47632 0.66693
 H161 H 1.06395 0.44458 0.61228
 H162 H 1.02686 0.60641 0.58312
 C163 C 0.62577 0.15361 0.68497
 C164 C 0.64465 0.10511 0.68062
 C165 C 0.68642 0.09337 0.69560
 C166 C 0.70978 0.13326 0.71599
 C167 C 0.69084 0.18359 0.72249
 C168 C 0.64799 0.19336 0.70591
 O169 O 0.58773 0.15850 0.66512
 C170 C 0.58235 0.11177 0.64775
 C171 C 0.61630 0.07777 0.65661
 C172 C 0.61917 0.02801 0.64009
 C173 C 0.58647 0.01292 0.61273
 C174 C 0.55123 0.04717 0.60190
 C175 C 0.54873 0.09726 0.62050
 H176 H 0.70144 0.05553 0.69016
 H177 H 0.74333 0.12542 0.72510
 H178 H 0.63287 0.23175 0.70780
 H179 H 0.64636 0.00210 0.64714
 H180 H 0.58962 -0.02534 0.59897
 H181 H 0.52308 0.12488 0.61246
 C182 C 0.64717 0.64448 0.17045
 C183 C 0.60927 0.67331 0.16815
 C184 C 0.60004 0.71388 0.19381
 C185 C 0.63215 0.72725 0.22191
 C186 C 0.67396 0.70104 0.22421
 C187 C 0.67983 0.65689 0.19858
 O188 O 0.64946 0.60794 0.14224
 C189 C 0.61230 0.61469 0.12164
 C190 C 0.58682 0.65455 0.13631
 C191 C 0.54750 0.67023 0.11876
 C192 C 0.53317 0.64282 0.08496
 C193 C 0.55798 0.60020 0.06965
 C194 C 0.59847 0.58636 0.08817
 H195 H 0.56976 0.73597 0.19138
 H196 H 0.62459 0.76090 0.24012
 H197 H 0.70873 0.63304 0.19868
 H198 H 0.52839 0.70224 0.13079
 H199 H 0.50201 0.65397 0.07158
 H200 H 0.61813 0.55404 0.07738
 C201 C 0.79553 -0.19343 0.18146
 C202 C 0.76747 -0.15739 0.16458
 C203 C 0.72349 -0.15428 0.17436
 C204 C 0.70712 -0.19131 0.20174
 C205 C 0.73425 -0.23172 0.21887
 C206 C 0.78021 -0.22990 0.20983
 O207 O 0.83593 -0.19078 0.16630
 C208 C 0.83278 -0.15249 0.13895
 C209 C 0.79149 -0.13069 0.13718
 C210 C 0.77947 -0.09227 0.10960
 C211 C 0.81120 -0.07601 0.08201
 C212 C 0.85413 -0.09825 0.08240
 C213 C 0.86529 -0.13653 0.11183
 H214 H 0.70233 -0.12461 0.16110
 H215 H 0.67319 -0.18700 0.21000
 H216 H 0.80417 -0.25504 0.22400
 H217 H 0.74651 -0.07631 0.10869
 H218 H 0.80195 -0.04622 0.06011
 H219 H 0.89759 -0.15430 0.11281
 C220 C 0.78685 0.26952 0.64571
 C221 C 0.76040 0.30750 0.62894
 C222 C 0.72017 0.32161 0.64492
 C223 C 0.70699 0.29652 0.68043
 C224 C 0.73424 0.25836 0.69985
 C225 C 0.77376 0.24285 0.68051
 O226 O 0.82532 0.26501 0.62718
 C227 C 0.82305 0.30137 0.59823
 C228 C 0.78373 0.32803 0.59804
 C229 C 0.77498 0.37022 0.57255
 C230 C 0.80858 0.38675 0.54676
 C231 C 0.84993 0.36102 0.54683
 C232 C 0.85699 0.31666 0.57216
 H233 H 0.69997 0.35169 0.63099
 H234 H 0.67565 0.30758 0.69295
 H235 H 0.79459 0.21235 0.69306
 H236 H 0.74391 0.39078 0.57344
 H237 H 0.80274 0.42054 0.52732
 H238 H 0.88850 0.29693 0.57326
 C239 C 0.27674 -0.25129 0.67095
 C240 C 0.26686 -0.19873 0.66645
 C241 C 0.23021 -0.17612 0.68338
 C242 C 0.20369 -0.20834 0.70762
 C243 C 0.21604 -0.26130 0.71777
 C244 C 0.25162 -0.28382 0.69640
 O245 O 0.31244 -0.26493 0.65072
 C246 C 0.32548 -0.21965 0.63376
 C247 C 0.29909 -0.17788 0.64317
 C248 C 0.30905 -0.12607 0.63223
 C249 C 0.34720 -0.11736 0.60954
 C250 C 0.37244 -0.15991 0.59575
 C251 C 0.36231 -0.21177 0.60939
 H252 H 0.22193 -0.13521 0.67771
 H253 H 0.17395 -0.19090 0.71901
 H254 H 0.26054 -0.32477 0.70077
 H255 H 0.28920 -0.09341 0.64211
 H256 H 0.35748 -0.07779 0.60331
 H257 H 0.38257 -0.24496 0.60129
 C258 C 0.32753 0.27895 0.18118
 C259 C 0.31933 0.33076 0.19029
 C260 C 0.28716 0.34555 0.21692
 C261 C 0.26213 0.30549 0.23500
 C262 C 0.27009 0.25068 0.22757
 C263 C 0.30345 0.23787 0.19961
 O264 O 0.35665 0.27422 0.15179
 C265 C 0.36668 0.32411 0.14231
 C266 C 0.34466 0.36012 0.16511
 C267 C 0.34700 0.41435 0.15821
 C268 C 0.37247 0.43228 0.12585
 C269 C 0.39507 0.39614 0.10148
 C270 C 0.39301 0.34129 0.11042
 H271 H 0.28007 0.38675 0.22219
 H272 H 0.23502 0.31829 0.25323
 H273 H 0.30898 0.19731 0.19118
 H274 H 0.32869 0.44176 0.17624
 H275 H 0.37389 0.47412 0.11925
 H276 H 0.40899 0.31278 0.09153
 C277 C 0.78799 0.17019 -0.17461
 C278 C 0.82214 0.20613 -0.17244
 C279 C 0.82661 0.24763 -0.19956
 C280 C 0.79458 0.25270 -0.22978
 C281 C 0.75827 0.21637 -0.23326
 C282 C 0.75513 0.17493 -0.20417
 O283 O 0.78987 0.13348 -0.14591
 C284 C 0.82587 0.14671 -0.12528
 C285 C 0.84668 0.19129 -0.13988
 C286 C 0.88473 0.21231 -0.12214
 C287 C 0.90238 0.18564 -0.08842
 C288 C 0.88243 0.13839 -0.07394
 C289 C 0.84332 0.11917 -0.09250
 H290 H 0.85340 0.27591 -0.19710
 H291 H 0.79754 0.28662 -0.24959
 H292 H 0.72717 0.14815 -0.20358
 H293 H 0.90063 0.24752 -0.13418
 H294 H 0.93237 0.20044 -0.07467
 H295 H 0.82728 0.08309 -0.08216
 C296 C 0.79040 0.65744 0.32323
 C297 C 0.81746 0.62927 0.29885
 C298 C 0.81043 0.62684 0.25773
 C299 C 0.77528 0.65635 0.24136
 C300 C 0.74684 0.68707 0.26602
 C301 C 0.75477 0.68452 0.30817
 O302 O 0.80370 0.65936 0.36086
 C303 C 0.84022 0.63173 0.36058
 C304 C 0.85027 0.61149 0.32362
 C305 C 0.88751 0.58061 0.31765
 C306 C 0.91449 0.56980 0.35129
 C307 C 0.90444 0.59188 0.38903
 C308 C 0.86724 0.62355 0.39343
 H309 H 0.83287 0.60589 0.23858
 H310 H 0.77364 0.65940 0.20909
 H311 H 0.73633 0.70587 0.33010
 H312 H 0.89497 0.56454 0.28856
 H313 H 0.94279 0.54448 0.34815
 H314 H 0.85846 0.63967 0.42223
 C315 C 0.31415 0.12685 0.31148
 C316 C 0.28639 0.08551 0.32094
 C317 C 0.24671 0.07679 0.30128
 C318 C 0.23383 0.11360 0.27204
 C319 C 0.26100 0.15792 0.26138
 C320 C 0.30294 0.16273 0.28082
 O321 O 0.34738 0.13193 0.33750
 C322 C 0.34018 0.09301 0.36395
 C323 C 0.30324 0.06355 0.35493
 C324 C 0.28731 0.02351 0.37976
 C325 C 0.31077 0.01244 0.41501
 C326 C 0.34927 0.04178 0.42554
 C327 C 0.36417 0.08288 0.39936
 H328 H 0.22448 0.04537 0.31061
 H329 H 0.20033 0.11048 0.26108
 H330 H 0.32369 0.19722 0.27631
 H331 H 0.25760 0.00165 0.37236
 H332 H 0.29879 -0.01944 0.43406
 H333 H 0.39312 0.10636 0.40641
 C334 C 0.28504 0.64612 -0.18825
 C335 C 0.26131 0.60863 -0.16726
 C336 C 0.21584 0.60630 -0.16732
 C337 C 0.19381 0.64165 -0.19232
 C338 C 0.21718 0.67659 -0.21890
 C339 C 0.26375 0.68113 -0.21456
 O340 O 0.32783 0.64522 -0.17950
 C341 C 0.33080 0.60578 -0.15294
 C342 C 0.29102 0.58158 -0.14530
 C343 C 0.28552 0.54143 -0.11720
 C344 C 0.32217 0.52747 -0.09416
 C345 C 0.36319 0.55388 -0.09933
 C346 C 0.36779 0.59257 -0.13002
 H347 H 0.19787 0.57836 -0.14866
 H348 H 0.15821 0.63904 -0.19334
 H349 H 0.28294 0.71027 -0.23089
 H350 H 0.25354 0.52362 -0.11158
 H351 H 0.31701 0.49921 -0.07039
 H352 H 0.39797 0.61541 -0.13315
 C353 C 1.09064 -0.23960 -0.18670
 C354 C 1.11584 -0.19690 -0.17003
 C355 C 1.16179 -0.18283 -0.18084
 C356 C 1.18380 -0.21581 -0.20574
 C357 C 1.16145 -0.25746 -0.22471
 C358 C 1.11669 -0.26724 -0.21489
 O359 O 1.09140 -0.20240 -0.15715
 C360 C 1.05154 -0.19933 -0.13733
 C361 C 1.09206 -0.17120 -0.14463
 C362 C 1.10298 -0.12083 -0.12506
 C363 C 1.07797 -0.10682 -0.09249
 C364 C 1.04822 -0.14377 -0.07638
 C365 C 1.03738 -0.19077 -0.09672
 H366 H 1.17917 -0.15012 -0.16712
 H367 H 1.21856 -0.20849 -0.21088
 H368 H 1.09983 -0.29962 -0.22934
 H369 H 1.13068 -0.09645 -0.13426
 H370 H 1.08544 -0.07038 -0.07710
 H371 H 1.02363 -0.19781 -0.12636
 C372 C 1.13890 0.24428 0.31334
 C373 C 1.16504 0.27283 0.34184
 C374 C 1.21388 0.27471 0.34264
 C375 C 1.23619 0.25117 0.31207
 C376 C 1.21262 0.22777 0.28056
 C377 C 1.16648 0.22078 0.28479
 O378 O 1.13708 0.27507 0.34657
 C379 C 1.09405 0.28829 0.35466
 C380 C 1.13931 0.29973 0.36491
 C381 C 1.15200 0.33762 0.39642
 C382 C 1.11932 0.35408 0.42204
 C383 C 1.07783 0.32996 0.41979
 C384 C 1.06635 0.29516 0.38891
 H385 H 1.23200 0.29583 0.36550
 H386 H 1.27176 0.25461 0.31149
 H387 H 1.14889 0.19658 0.26347
 H388 H 1.18579 0.35023 0.40099
 H389 H 1.12748 0.38064 0.44626
 H390 H 1.06536 0.29937 0.35648
 C391 C 0.63740 -0.24140 0.34011
 C392 C 0.65692 -0.19146 0.34917
 C393 C 0.69629 -0.16831 0.32896
 C394 C 0.71334 -0.19414 0.29671
 C395 C 0.69345 -0.24115 0.28376
 C396 C 0.65939 -0.26404 0.30749
 O397 O 0.63362 -0.19744 0.36325
 C398 C 0.59816 -0.20300 0.38811
 C399 C 0.63486 -0.16972 0.37772
 C400 C 0.64577 -0.11822 0.39671
 C401 C 0.61826 -0.10006 0.42581
 C402 C 0.58117 -0.12978 0.43591
 C403 C 0.57239 -0.17842 0.41759
 H404 H 0.71096 -0.13124 0.33808
 H405 H 0.74214 -0.17737 0.28223
 H406 H 0.64808 -0.30344 0.30014
 H407 H 0.67421 -0.09477 0.38814
 H408 H 0.62537 -0.06245 0.43978
 H409 H 0.54368 -0.20060 0.42749
 C410 C 0.63366 0.28044 -0.18617
 C411 C 0.64777 0.33169 -0.18110
 C412 C 0.68331 0.35323 -0.20175
 C413 C 0.70505 0.32060 -0.22880
 C414 C 0.69125 0.26713 -0.23488
 C415 C 0.65550 0.24689 -0.21189
 O416 O 0.59934 0.26746 -0.16363
 C417 C 0.59184 0.31139 -0.14370
 C418 C 0.62089 0.35173 -0.15281
 C419 C 0.62050 0.40008 -0.13339
 C420 C 0.58881 0.40689 -0.10340
 C421 C 0.55751 0.36641 -0.09476
 C422 C 0.55911 0.31822 -0.11536
 H423 H 0.69405 0.39364 -0.19712
 H424 H 0.73307 0.33698 -0.24468
 H425 H 0.64522 0.20588 -0.21325
 H426 H 0.64421 0.43098 -0.14049
 H427 H 0.58884 0.44338 -0.08732
 H428 H 0.53601 0.28640 -0.10884
 C429 C 1.15315 0.14765 -0.16520
 C430 C 1.13310 0.18785 -0.14514
 C431 C 1.14045 0.24076 -0.15389
 C432 C 1.16900 0.25299 -0.18534
 C433 C 1.18933 0.21269 -0.20834
 C434 C 1.18205 0.15888 -0.19682
 O435 O 1.14061 0.09995 -0.15208
 C436 C 1.11184 0.11063 -0.12334
 C437 C 1.10619 0.16394 -0.11825
 C438 C 1.07672 0.18468 -0.09122
 C439 C 1.05194 0.14911 -0.06816
 C440 C 1.05697 0.09361 -0.07216
 C441 C 1.08765 0.07405 -0.10019
 H442 H 1.12417 0.27167 -0.13754
 H443 H 1.17403 0.29425 -0.19304
 H444 H 1.19747 0.12649 -0.21197
 H445 H 1.07265 0.22686 -0.08821
 H446 H 1.02890 0.16513 -0.04690
 H447 H 1.09200 0.03208 -0.10425
 C448 C 1.14001 0.64749 0.33347
 C449 C 1.16528 0.60525 0.34470
 C450 C 1.20331 0.59163 0.32467
 C451 C 1.21656 0.62323 0.29207
 C452 C 1.19237 0.66896 0.27941
 C453 C 1.15294 0.68045 0.30146
 O454 O 1.10485 0.65333 0.35678
 C455 C 1.10829 0.61384 0.38331
 C456 C 1.14507 0.58375 0.37740
 C457 C 1.15561 0.54077 0.40170
 C458 C 1.12627 0.52684 0.43250
 C459 C 1.08650 0.55506 0.43817
 C460 C 1.07817 0.60034 0.41370
 H461 H 1.22292 0.55837 0.33443
 H462 H 1.24726 0.61286 0.27816
 H463 H 1.13412 0.71587 0.29597
 H464 H 1.18487 0.51778 0.39646
 H465 H 1.13361 0.49221 0.45053
 H466 H 1.04812 0.62264 0.41667
 C467 C 0.61850 0.11710 0.32492
 C468 C 0.59915 0.16029 0.34184
 C469 C 0.60695 0.21138 0.32853
 C470 C 0.63714 0.21859 0.29745
 C471 C 0.65953 0.17510 0.27965
 C472 C 0.64778 0.12311 0.29283
 O473 O 0.60859 0.07223 0.34401
 C474 C 0.58272 0.08778 0.37361
 C475 C 0.57571 0.14130 0.37342
 C476 C 0.55088 0.16639 0.40240
 C477 C 0.53230 0.13489 0.43289
 C478 C 0.53914 0.07949 0.43402
 C479 C 0.56485 0.05575 0.40380
 H480 H 0.59183 0.24488 0.34273
 H481 H 0.64501 0.25889 0.28896
 H482 H 0.66157 0.08805 0.28010
 H483 H 0.54610 0.20874 0.40168
 H484 H 0.51278 0.15372 0.45565
 H485 H 0.57068 0.01360 0.40366
 C486 C 0.66360 0.65772 -0.17332
 C487 C 0.64792 0.61249 -0.19087
 C488 C 0.66255 0.59514 -0.22775
 C489 C 0.69429 0.62604 -0.24778
 C490 C 0.71191 0.67323 -0.23070
 C491 C 0.69485 0.68956 -0.19300
 O492 O 0.64545 0.66671 -0.13779
 C493 C 0.61763 0.62618 -0.13294
 C494 C 0.61762 0.59234 -0.16492
 C495 C 0.59083 0.54765 -0.16672
 C496 C 0.56443 0.53583 -0.13341
 C497 C 0.56491 0.56872 -0.09934
 C498 C 0.59118 0.61533 -0.09933
 H499 H 0.64949 0.55936 -0.24098
 H500 H 0.70417 0.61388 -0.27737
 H501 H 0.70429 0.72676 -0.17974
 H502 H 0.59068 0.52246 -0.19268
 H503 H 0.54427 0.50029 -0.13367
 H504 H 0.59225 0.64093 -0.07355
 C505 C 0.81360 -0.22479 -0.17576
 C506 C 0.82293 -0.17735 -0.19433
 C507 C 0.81002 -0.16553 -0.23318
 C508 C 0.78491 -0.20336 -0.25338
 C509 C 0.77129 -0.25141 -0.23415
 C510 C 0.78876 -0.26341 -0.19551
 O511 O 0.82786 -0.22694 -0.13806
 C512 C 0.84605 -0.17950 -0.13280
 C513 C 0.84369 -0.14776 -0.16643
 C514 C 0.85746 -0.09529 -0.16709
 C515 C 0.87391 -0.07424 -0.13140
 C516 C 0.87692 -0.10604 -0.09629
 C517 C 0.86353 -0.15973 -0.09712
 H518 H 0.81834 -0.12807 -0.24723
 H519 H 0.77463 -0.19421 -0.28374
 H520 H 0.78204 -0.30073 -0.18062
 H521 H 0.85452 -0.07106 -0.19386
 H522 H 0.88415 -0.03310 -0.13098
 H523 H 0.86487 -0.18444 -0.07046
 C524 C 0.77343 0.25282 0.32809
 C525 C 0.80923 0.26509 0.30468
 C526 C 0.81302 0.24897 0.26534
 C527 C 0.77736 0.22130 0.24877
 C528 C 0.73849 0.20992 0.27154
 C529 C 0.73827 0.22375 0.31278
 O530 O 0.77559 0.27363 0.36435
 C531 C 0.81357 0.29989 0.36366
 C532 C 0.83555 0.29560 0.32785
 C533 C 0.87600 0.31985 0.32046
 C534 C 0.89505 0.34866 0.35170
 C535 C 0.87294 0.35342 0.38877
 C536 C 0.83143 0.32941 0.39482
 H537 H 0.84169 0.25900 0.24754
 H538 H 0.77914 0.21115 0.21744
 H539 H 0.71122 0.21472 0.33260
 H540 H 0.89267 0.31588 0.29207
 H541 H 0.92740 0.36633 0.34743
 H542 H 0.81458 0.33170 0.42329
 C543 C 0.27714 -0.22640 0.33684
 C544 C 0.31101 -0.20252 0.31632
 C545 C 0.31387 -0.20364 0.27487
 C546 C 0.28107 -0.23166 0.25387
 C547 C 0.24703 -0.26139 0.27419
 C548 C 0.24505 -0.25571 0.31688
 O549 O 0.27930 -0.21925 0.37614
 C550 C 0.31576 -0.19065 0.38064
 C551 C 0.33676 -0.17973 0.34499
 C552 C 0.37664 -0.15224 0.34311
 C553 C 0.39539 -0.13524 0.37938
 C554 C 0.37381 -0.14521 0.41636
 C555 C 0.33324 -0.17302 0.41692
 H556 H 0.34005 -0.18294 0.25913
 H557 H 0.28216 -0.23035 0.22144
 H558 H 0.21952 -0.27339 0.33511
 H559 H 0.39300 -0.14475 0.31484
 H560 H 0.42632 -0.11353 0.37873
 H561 H 0.31633 -0.18161 0.44477
 C562 C 0.30356 0.27808 -0.16858
 C563 C 0.30355 0.33183 -0.17450
 C564 C 0.28052 0.35568 -0.20574
 C565 C 0.25504 0.32303 -0.23084
 C566 C 0.25358 0.26694 -0.22499
 C567 C 0.27964 0.24489 -0.19361
 O568 O 0.32606 0.26302 -0.13643
 C569 C 0.34061 0.30830 -0.12164
 C570 C 0.32792 0.35177 -0.14370
 C571 C 0.34065 0.40296 -0.13355
 C572 C 0.36851 0.40905 -0.10003
 C573 C 0.38152 0.36475 -0.07689
 C574 C 0.36712 0.31383 -0.08789
 H575 H 0.28052 0.39821 -0.20954
 H576 H 0.23468 0.34262 -0.25286
 H577 H 0.27863 0.20290 -0.18704
 H578 H 0.33097 0.43665 -0.15165
 H579 H 0.38210 0.44727 -0.09372
 H580 H 0.37800 0.27901 -0.07161
 C581 C 1.10867 -0.24551 0.19235
 C582 C 1.12187 -0.19185 0.18791
 C583 C 1.15790 -0.16679 0.21130
 C584 C 1.18609 -0.19890 0.23283
 C585 C 1.18005 -0.25449 0.23349
 C586 C 1.13896 -0.27280 0.21747
 O587 O 1.10241 -0.20031 0.16996
 C588 C 1.06901 -0.20766 0.14280
 C589 C 1.09788 -0.16916 0.16005
 C590 C 1.10027 -0.11254 0.14724
 C591 C 1.07632 -0.09651 0.11396
 C592 C 1.05112 -0.13381 0.09364
 C593 C 1.04769 -0.18586 0.10864
 H594 H 1.16469 -0.12486 0.20919
 H595 H 1.21268 -0.17881 0.24795
 H596 H 1.12847 -0.31275 0.22444
 H597 H 1.12163 -0.08447 0.16216
 H598 H 1.07909 -0.05626 0.10300
 H599 H 1.02540 -0.21251 0.09323
 C600 C 1.11145 0.27709 0.69719
 C601 C 1.13368 0.30096 0.66408
 C602 C 1.18244 0.30453 0.66001
 C603 C 1.20851 0.28288 0.68993
 C604 C 1.18891 0.26006 0.72392
 C605 C 1.14207 0.25753 0.72532
 O606 O 1.10544 0.30117 0.66079
 C607 C 1.06130 0.30416 0.65292
 C608 C 1.10425 0.31711 0.63807
 C609 C 1.11310 0.34277 0.59845
 C610 C 1.07799 0.35139 0.57281
 C611 C 1.03571 0.33710 0.58527
 C612 C 1.02889 0.31617 0.62381
 H613 H 1.19775 0.32220 0.63386
 H614 H 1.24400 0.28324 0.68655
 H615 H 1.12578 0.23659 0.74939
 H616 H 1.14619 0.35224 0.58873
 H617 H 1.08389 0.36711 0.54298
 H618 H 0.99526 0.30716 0.63250
 C619 C 0.65752 -0.24319 0.66224
 C620 C 0.63994 -0.20015 0.68096
 C621 C 0.65242 -0.18496 0.71908
 C622 C 0.68496 -0.21468 0.73840
 C623 C 0.70584 -0.25802 0.71921
 C624 C 0.68982 -0.27369 0.68106
 O625 O 0.64087 -0.25087 0.62595
 C626 C 0.61236 -0.21173 0.62179
 C627 C 0.61037 -0.17961 0.65465
 C628 C 0.58266 -0.13614 0.65653
 C629 C 0.55598 -0.12529 0.62300
 C630 C 0.55825 -0.15750 0.58856
 C631 C 0.58652 -0.20140 0.58819
 H632 H 0.63761 -0.15144 0.73351
 H633 H 0.69424 -0.20349 0.76849
 H634 H 0.70194 -0.30844 0.66629
 H635 H 0.58173 -0.11144 0.68277
 H636 H 0.53398 -0.09190 0.62374
 H637 H 0.58863 -0.22653 0.56220
 C638 C 0.61525 0.25458 0.17349
 C639 C 0.63102 0.30729 0.17872
 C640 C 0.67017 0.32257 0.20294
 C641 C 0.69295 0.28390 0.22271
 C642 C 0.67836 0.23116 0.22092
 C643 C 0.64085 0.21927 0.19703
 O644 O 0.60884 0.30641 0.16266
 C645 C 0.57474 0.31057 0.13582
 C646 C 0.60578 0.33986 0.15928
 C647 C 0.60931 0.39865 0.16031
 C648 C 0.58368 0.42761 0.13440
 C649 C 0.55652 0.40102 0.10787
 C650 C 0.55173 0.34558 0.11005
 H651 H 0.68102 0.36317 0.20551
 H652 H 0.72016 0.29683 0.24117
 H653 H 0.62987 0.17849 0.19639
 H654 H 0.63230 0.41898 0.17973
 H655 H 0.58724 0.47027 0.13313
 H656 H 0.52807 0.32714 0.09011
 C657 C 0.74819 0.10603 0.16512
 C658 C 0.77024 0.06872 0.18736
 C659 C 0.76480 0.06314 0.22849
 C660 C 0.73705 0.09885 0.24769
 C661 C 0.71435 0.13929 0.22598
 C662 C 0.71949 0.14096 0.18343
 O663 O 0.76288 0.11067 0.12780
 C664 C 0.79530 0.07596 0.12646
 C665 C 0.80116 0.04917 0.16220
 C666 C 0.83706 0.01660 0.16936
 C667 C 0.86841 0.01227 0.13884
 C668 C 0.86340 0.03978 0.10197
 C669 C 0.82565 0.07114 0.09526
 H670 H 0.78395 0.03503 0.24573
 H671 H 0.73673 0.09833 0.28013
 H672 H 0.70671 0.17256 0.16498
 H673 H 0.84188 -0.00284 0.19806
 H674 H 0.89729 -0.01166 0.14422
 H675 H 0.82165 0.09395 0.06790
 C676 C 0.82224 0.67030 0.65901
 C677 C 0.84179 0.62743 0.67694
 C678 C 0.82962 0.60854 0.71451
 C679 C 0.79596 0.63488 0.73460
 C680 C 0.77389 0.67894 0.71693
 C681 C 0.78891 0.69772 0.67878
 O682 O 0.83763 0.68034 0.62234
 C683 C 0.86752 0.64283 0.61710
 C684 C 0.87146 0.60978 0.64990
 C685 C 0.89874 0.56599 0.65041
 C686 C 0.92155 0.55443 0.61521
 C687 C 0.91706 0.58655 0.58036
 C688 C 0.89061 0.63240 0.58167
 H689 H 0.84570 0.57477 0.72809
 H690 H 0.78748 0.62119 0.76442
 H691 H 0.77551 0.73288 0.66488
 H692 H 0.90073 0.54007 0.67635
 H693 H 0.94086 0.51868 0.61440
 H694 H 0.88510 0.65628 0.55504
 C695 C 0.29949 0.13696 0.70227
 C696 C 0.26992 0.10587 0.68185
 C697 C 0.22468 0.11062 0.68577
 C698 C 0.20907 0.14926 0.71165
 C699 C 0.23833 0.18386 0.73262
 C700 C 0.28466 0.17708 0.72732
 O701 O 0.34124 0.12660 0.69324
 C702 C 0.33770 0.08849 0.66620
 C703 C 0.29465 0.07513 0.65786
 C704 C 0.28282 0.04053 0.62762
 C705 C 0.31670 0.01879 0.60494
 C706 C 0.36161 0.02977 0.61385
 C707 C 0.37225 0.06496 0.64526
 H708 H 0.20207 0.08585 0.66906
 H709 H 0.17377 0.15358 0.71438
 H710 H 0.30887 0.20315 0.74057
 H711 H 0.24861 0.03220 0.62066
 H712 H 0.30765 -0.00632 0.58037
 H713 H 0.40617 0.07560 0.65177
 C714 C 0.29977 0.63935 0.18462
 C715 C 0.27390 0.62335 0.15333
 C716 C 0.22874 0.62918 0.15310
 C717 C 0.20929 0.65454 0.18559
 C718 C 0.23460 0.67704 0.21784
 C719 C 0.28102 0.66449 0.21765
 O720 O 0.34239 0.62972 0.17883
 C721 C 0.34310 0.60756 0.14279
 C722 C 0.30186 0.60270 0.12605
 C723 C 0.29468 0.58250 0.08800
 C724 C 0.33158 0.56724 0.06591
 C725 C 0.37488 0.57209 0.08211
 C726 C 0.38049 0.59198 0.12141
 H727 H 0.20877 0.61424 0.12869
 H728 H 0.17419 0.65485 0.18427
 H729 H 0.30266 0.67364 0.24247
 H730 H 0.26183 0.57964 0.07540
 H731 H 0.32628 0.55236 0.03600
 H732 H 0.41305 0.59644 0.13441
   
