data_POSCAR
  _audit_creation_date              2014-09-24
  _audit_creation_method            'ToBaCCo'
  _symmetry_space_group_name_H-M    'P1'
  _symmetry_Int_Tables_number       1
  _symmetry_cell_setting            triclinic
  loop_
  _symmetry_equiv_pos_as_xyz
 x,y,z
_cell_length_a 21.5305
_cell_length_b 24.2163
_cell_length_c 8.9158
_cell_angle_alpha 89.177600
_cell_angle_beta 90.347300
_cell_angle_gamma 117.692000
loop_
  _atom_site_label
  _atom_site_type_symbol
  _atom_site_fract_x
  _atom_site_fract_y
  _atom_site_fract_z
C1 C 0.01060 0.35426 0.53091
 C2 C 0.04557 0.36263 0.39547
 C3 C 0.10389 0.35177 0.38866
 C4 C 0.14086 0.35435 0.52198
 C5 C 0.11299 0.36305 0.65885
 C6 C 0.04974 0.36700 0.66055
 C7 C 0.21412 0.36164 0.51586
 C8 C 0.24550 0.35317 0.64789
 C9 C 0.31745 0.37348 0.65226
 C10 C 0.35297 0.38150 0.51546
 C11 C 0.32821 0.39881 0.38779
 C12 C 0.25772 0.38743 0.38708
 H13 H -0.03713 0.35916 0.53300
 H14 H 0.12631 0.35234 0.28019
 H15 H 0.14505 0.37707 0.75864
 H16 H 0.21738 0.33980 0.75306
 H17 H 0.40668 0.38965 0.51660
 H18 H 0.23958 0.40339 0.29071
 C19 C 0.40712 -0.41105 0.48248
 C20 C 0.42770 -0.37691 0.34226
 C21 C 0.46223 -0.31177 0.35023
 C22 C 0.47479 -0.27975 0.48760
 C23 C 0.46088 -0.31529 0.62356
 C24 C 0.42846 -0.38081 0.62556
 C25 C 0.50996 -0.20907 0.48706
 C26 C 0.52713 -0.17533 0.62232
 C27 C 0.55985 -0.11015 0.61839
 C28 C 0.58866 -0.07905 0.48438
 C29 C 0.55460 -0.10762 0.35431
 C30 C 0.51844 -0.17345 0.35282
 H31 H 0.38422 -0.46127 0.48102
 H32 H 0.48177 -0.28637 0.24606
 H33 H 0.47966 -0.29284 0.72979
 H34 H 0.50669 -0.19799 0.72870
 H35 H 0.61749 -0.02895 0.48425
 H36 H 0.49102 -0.19545 0.25168
 C37 C 1.32167 0.87236 0.49048
 C38 C 1.33203 0.84474 0.35822
 C39 C 1.32420 0.78421 0.37326
 C40 C 1.30300 0.75085 0.50997
 C41 C 1.31112 0.78571 0.64220
 C42 C 1.32695 0.84908 0.63452
 C43 C 1.27044 0.68068 0.50961
 C44 C 1.25788 0.64599 0.64463
 C45 C 1.21451 0.58122 0.65093
 C46 C 1.19071 0.54954 0.51173
 C47 C 1.19988 0.58336 0.37379
 C48 C 1.23965 0.64814 0.37597
 H49 H 1.31544 0.91389 0.48464
 H50 H 1.33252 0.76235 0.27573
 H51 H 1.30733 0.76526 0.75207
 H52 H 1.27624 0.66922 0.75023
 H53 H 1.15434 0.50021 0.51376
 H54 H 1.24016 0.67302 0.27400
 C55 C 0.99873 0.63061 0.48458
 C56 C 0.95589 0.61390 0.35707
 C57 C 0.89359 0.61892 0.36181
 C58 C 0.87260 0.63773 0.49451
 C59 C 0.91292 0.64559 0.62552
 C60 C 0.97211 0.63585 0.62418
 C61 C 0.80209 0.63619 0.50232
 C62 C 0.76252 0.61987 0.63964
 C63 C 0.68983 0.59812 0.63537
 C64 C 0.66024 0.59482 0.49294
 C65 C 0.69643 0.61857 0.36037
 C66 C 0.76893 0.64010 0.36614
 H67 H 1.04878 0.63144 0.47713
 H68 H 0.85880 0.60227 0.26635
 H69 H 0.89582 0.65377 0.73269
 H70 H 0.78483 0.61553 0.74506
 H71 H 0.60781 0.56170 0.48017
 H72 H 0.79774 0.65382 0.26164
 C73 C 0.56429 0.41750 0.52838
 C74 C 0.54012 0.39356 0.38744
 C75 C 0.50434 0.32835 0.37091
 C76 C 0.48404 0.28885 0.50070
 C77 C 0.49127 0.31746 0.64093
 C78 C 0.53422 0.38123 0.65560
 C79 C 0.45450 0.21924 0.49538
 C80 C 0.45511 0.18562 0.62702
 C81 C 0.43067 0.12103 0.62441
 C82 C 0.39737 0.08965 0.49409
 C83 C 0.41040 0.12172 0.35636
 C84 C 0.43578 0.18660 0.35858
 H85 H 0.59679 0.46700 0.53912
 H86 H 0.49106 0.31008 0.25910
 H87 H 0.46386 0.29078 0.73939
 H88 H 0.48151 0.20998 0.72738
 H89 H 0.36568 0.04001 0.49990
 H90 H 0.44440 0.21085 0.25222
 C91 C 0.63782 0.10241 0.51118
 C92 C 0.64035 0.13745 0.38412
 C93 C 0.68300 0.20185 0.38724
 C94 C 0.72142 0.23139 0.51826
 C95 C 0.70535 0.19547 0.65290
 C96 C 0.66039 0.13041 0.65024
 C97 C 0.77381 0.29950 0.50949
 C98 C 0.79778 0.34043 0.63527
 C99 C 0.84492 0.40471 0.61165
 C100 C 0.85617 0.42742 0.46480
 C101 C 0.84189 0.38767 0.34387
 C102 C 0.80356 0.32393 0.36738
 H103 H 0.60716 0.05332 0.50560
 H104 H 0.68347 0.22896 0.28929
 H105 H 0.72478 0.21756 0.75963
 H106 H 0.78362 0.32254 0.74851
 H107 H 0.88330 0.47715 0.44735
 H108 H 0.79654 0.29382 0.27330
 O109 O 1.04174 0.60490 -0.22237
 O110 O 1.09279 0.55492 0.24471
 O111 O 0.95423 0.57856 0.10525
 O112 O 1.15943 0.50721 -0.15143
 O113 O 0.97666 0.52987 0.28686
 O114 O 1.13371 0.57887 -0.18289
 O115 O 1.16043 0.52523 0.14077
 O116 O 0.93347 0.56359 -0.17464
 C117 C 0.98497 0.60461 -0.24289
 C118 C 1.15014 0.55467 0.24428
 C119 C 0.96534 0.57414 0.24226
 C120 C 1.17330 0.55766 -0.21629
 O121 O 1.04985 0.46007 -0.29523
 O122 O 0.93360 0.41095 0.17649
 O123 O 0.86956 0.44313 -0.14309
 O124 O 1.05178 0.40821 0.16118
 O125 O 1.02688 0.44914 0.35919
 O126 O 0.95216 0.48575 -0.31737
 O127 O 1.04662 0.40155 -0.10569
 O128 O 0.87393 0.45843 0.14321
 Co129 Co 1.04354 0.53056 -0.23590
 Co130 Co 1.01450 0.48449 0.19682
 Co131 Co 0.91848 0.50997 -0.01584
 Co132 Co 1.09696 0.46662 0.00997
 O133 O 1.01804 0.50274 -0.01694
 C134 C 1.04457 0.40906 -0.24268
 C135 C 0.87957 0.41450 0.20358
 C136 C 0.88948 0.44554 -0.27767
 C137 C 1.04455 0.40836 0.30242
 O138 O 0.47645 0.42399 -0.22864
 O139 O 0.43076 0.49081 0.30504
 O140 O 0.55992 0.43103 0.13639
 O141 O 0.35966 0.41878 -0.10304
 O142 O 0.53864 0.48686 0.30336
 O143 O 0.39827 0.47335 -0.28293
 O144 O 0.36542 0.42935 0.13780
 O145 O 0.57910 0.44621 -0.14749
 C146 C 0.52695 0.41293 -0.22517
 C147 C 0.37881 0.44001 0.27140
 C148 C 0.54500 0.43834 0.26807
 C149 C 0.35693 0.42251 -0.23856
 O150 O 0.49759 0.58097 -0.26771
 O151 O 0.60617 0.60811 0.18220
 O152 O 0.65473 0.56805 -0.10780
 O153 O 0.38634 0.54659 0.15059
 O154 O 0.49298 0.60672 0.15844
 O155 O 0.57924 0.53702 -0.28258
 O156 O 0.39938 0.55518 -0.14736
 O157 O 0.64745 0.54580 0.16969
 Co158 Co 0.48913 0.50366 -0.23534
 Co159 Co 0.51583 0.54676 0.21749
 Co160 Co 0.59839 0.49908 0.01087
 Co161 Co 0.39006 0.49227 0.00410
 O162 O 0.49960 0.51134 0.00256
 C163 C 0.44396 0.58804 -0.25152
 C164 C 0.65397 0.59544 0.21935
 C165 C 0.64132 0.56813 -0.24436
 C166 C 0.43419 0.59532 0.20446
 O167 O 0.58641 0.03970 -0.20314
 O168 O 0.49304 -0.05000 0.30047
 O169 O 0.59814 0.12646 0.13035
 O170 O 0.53531 -0.07486 -0.15007
 O171 O 0.52852 0.06202 0.30360
 O172 O 0.50450 -0.04495 -0.35941
 O173 O 0.54123 -0.07214 0.11589
 O174 O 0.58622 0.12527 -0.15527
 C175 C 0.61385 0.09743 -0.22067
 C176 C 0.53251 -0.07147 0.25218
 C177 C 0.58722 0.10710 0.26474
 C178 C 0.52895 -0.07965 -0.29120
 O179 O 0.39470 -0.05027 -0.24575
 O180 O 0.39591 0.03593 0.20691
 O181 O 0.45736 0.10654 -0.13019
 O182 O 0.40274 -0.13321 0.14662
 O183 O 0.36497 -0.07008 0.19416
 O184 O 0.47679 0.05502 -0.30711
 O185 O 0.39277 -0.12852 -0.13548
 O186 O 0.47877 0.12337 0.15036
 Co187 Co 0.48934 -0.00609 -0.20637
 Co188 Co 0.44824 -0.00477 0.23060
 Co189 Co 0.52488 0.10846 -0.00186
 Co190 Co 0.46771 -0.09205 -0.00524
 O191 O 0.47971 0.00436 0.01036
 C192 C 0.36873 -0.10803 -0.23771
 C193 C 0.42443 0.09272 0.22344
 C194 C 0.45313 0.09157 -0.26590
 C195 C 0.36192 -0.12106 0.22234
   
