data_POSCAR
  _audit_creation_date              2014-09-24
  _audit_creation_method            'ToBaCCo'
  _symmetry_space_group_name_H-M    'P1'
  _symmetry_Int_Tables_number       1
  _symmetry_cell_setting            triclinic
  loop_
  _symmetry_equiv_pos_as_xyz
 x,y,z
_cell_length_a 36.1789
_cell_length_b 32.1770
_cell_length_c 18.2590
_cell_angle_alpha 90.045100
_cell_angle_beta 89.929300
_cell_angle_gamma 111.983200
loop_
  _atom_site_label
  _atom_site_type_symbol
  _atom_site_fract_x
  _atom_site_fract_y
  _atom_site_fract_z
C1 C 0.44037 0.89162 0.50157
 C2 C 0.45385 0.91440 0.56808
 C3 C 0.48479 0.95709 0.56538
 C4 C 0.50466 0.97537 0.49928
 C5 C 0.49224 0.94956 0.43490
 C6 C 0.45935 0.90891 0.43541
 C7 C 0.53734 1.02136 0.49748
 C8 C 0.54779 1.04617 0.43169
 C9 C 0.57826 1.08930 0.42914
 C10 C 0.59657 1.10877 0.49547
 C11 C 0.58505 1.08601 0.56203
 C12 C 0.55730 1.04179 0.56204
 H13 H 0.41698 0.85861 0.50080
 H14 H 0.49186 0.97667 0.61500
 H15 H 0.50749 0.96061 0.38346
 H16 H 0.53283 1.03162 0.38166
 H17 H 0.61727 1.14330 0.49671
 H18 H 0.55112 1.02425 0.61374
 C19 C 0.10513 0.56140 0.49750
 C20 C 0.08729 0.54344 0.56467
 C21 C 0.04705 0.51377 0.56463
 C22 C 0.02341 0.50574 0.50056
 C23 C 0.04269 0.52423 0.43419
 C24 C 0.08360 0.55024 0.43198
 C25 C -0.02114 0.48002 0.50372
 C26 C -0.04366 0.46241 0.43965
 C27 C -0.08580 0.44319 0.44099
 C28 C -0.10510 0.43819 0.50929
 C29 C -0.08338 0.45232 0.57378
 C30 C -0.04202 0.47432 0.57074
 H31 H 0.13674 0.58153 0.49532
 H32 H 0.03392 0.49885 0.61583
 H33 H 0.02648 0.51962 0.38337
 H34 H -0.02870 0.46535 0.38784
 H35 H -0.13706 0.42057 0.51358
 H36 H -0.02702 0.48727 0.62164
 C37 C 0.41440 0.54266 0.49522
 C38 C 0.42109 0.52556 0.56261
 C39 C 0.44609 0.50070 0.56305
 C40 C 0.46780 0.49756 0.49982
 C41 C 0.46229 0.51860 0.43492
 C42 C 0.43440 0.53903 0.43168
 C43 C 0.49638 0.47323 0.50132
 C44 C 0.51041 0.46103 0.43544
 C45 C 0.53862 0.44078 0.43584
 C46 C 0.55145 0.42983 0.50263
 C47 C 0.53724 0.43997 0.56886
 C48 C 0.51052 0.46232 0.56810
 H49 H 0.39279 0.55846 0.49110
 H50 H 0.44986 0.48569 0.61364
 H51 H 0.47885 0.51900 0.38563
 H52 H 0.49945 0.46624 0.38274
 H53 H 0.57284 0.41359 0.50312
 H54 H 0.50218 0.47189 0.62030
 O55 O 0.36243 0.66824 -0.08776
 O56 O 0.36718 0.74926 -0.06150
 C57 C 0.34248 0.75926 -0.10020
 O58 O 0.30564 0.74510 -0.08594
 O59 O 0.23778 0.68082 -0.06455
 C60 C 0.23180 0.64516 -0.10105
 O61 O 0.24849 0.61797 -0.08645
 O62 O 0.31336 0.60224 -0.06645
 C63 C 0.34249 0.62789 -0.10458
 O64 O 0.36475 0.65157 0.05734
 O65 O 0.36485 0.73141 0.08301
 C66 C 0.34715 0.75774 0.09748
 O67 O 0.31733 0.75838 0.06095
 O68 O 0.25078 0.69090 0.08204
 C69 C 0.23210 0.64990 0.09679
 O70 O 0.23594 0.61827 0.05939
 O71 O 0.30218 0.60615 0.07997
 C72 C 0.33903 0.62042 0.09412
 Cr73 Cr 0.36269 0.69916 -0.00216
 Cr74 Cr 0.27887 0.71736 -0.00178
 Cr75 Cr 0.27614 0.61351 -0.00329
 O76 O 0.30581 0.67665 -0.00213
 O77 O 0.62651 0.33973 -0.06586
 O78 O 0.64729 0.27185 -0.09358
 C79 C 0.67299 0.25482 -0.10643
 O80 O 0.70428 0.26320 -0.06793
 O81 O 0.75863 0.34386 -0.07889
 C82 C 0.76852 0.38573 -0.08726
 O83 O 0.75526 0.40945 -0.04705
 O84 O 0.68266 0.40020 -0.07574
 C85 C 0.64791 0.37630 -0.09711
 O86 O 0.62672 0.32005 0.07902
 O87 O 0.64433 0.25112 0.05001
 C88 C 0.67208 0.24916 0.09105
 O89 O 0.70855 0.27273 0.08005
 O90 O 0.76589 0.35090 0.06782
 C91 C 0.76075 0.37971 0.11013
 O92 O 0.73539 0.39723 0.09734
 O93 O 0.66360 0.39270 0.06839
 C94 C 0.63670 0.36013 0.10019
 Cr95 Cr 0.63824 0.29717 -0.00744
 Cr96 Cr 0.73284 0.30851 0.00018
 Cr97 Cr 0.70870 0.39761 0.01042
 O98 O 0.69324 0.33445 0.00038
 C99 C 0.46215 0.90243 -0.30065
 C100 C 0.43798 0.89394 -0.36400
 C101 C 0.39847 0.86245 -0.35871
 C102 C 0.38420 0.83874 -0.29364
 C103 C 0.40957 0.84592 -0.23227
 C104 C 0.44823 0.87840 -0.23598
 C105 C 0.39595 0.82013 -0.16862
 C106 C 0.35687 0.78809 -0.16518
 C107 C 0.33144 0.78252 -0.22562
 C108 C 0.34504 0.80737 -0.28942
 H109 H 0.37829 0.85666 -0.40473
 H110 H 0.46805 0.88461 -0.18931
 H111 H 0.41562 0.82497 -0.12194
 H112 H 0.32506 0.80162 -0.33579
 H113 H 0.49289 0.92554 -0.30183
 H114 H 0.30125 0.75791 -0.22429
 C115 C 0.10340 0.52388 -0.31226
 C116 C 0.10936 0.55525 -0.36939
 C117 C 0.13762 0.59918 -0.35893
 C118 C 0.15912 0.61143 -0.29329
 C119 C 0.15397 0.57896 -0.23820
 C120 C 0.12594 0.53541 -0.24807
 C121 C 0.17721 0.59051 -0.17447
 C122 C 0.20449 0.63455 -0.16395
 C123 C 0.20792 0.66725 -0.21707
 C124 C 0.18576 0.65567 -0.28177
 H125 H 0.14177 0.62455 -0.40056
 H126 H 0.12152 0.51015 -0.20618
 H127 H 0.17433 0.56527 -0.13317
 H128 H 0.18975 0.68115 -0.32306
 H129 H 0.08275 0.48957 -0.31829
 H130 H 0.22899 0.70128 -0.20984
 C131 C 0.39488 0.50619 -0.31076
 C132 C 0.40414 0.53505 -0.37216
 C133 C 0.39726 0.57535 -0.36654
 C134 C 0.38185 0.58660 -0.30269
 C135 C 0.37229 0.55725 -0.24206
 C136 C 0.37877 0.51698 -0.24687
 C137 C 0.35754 0.56949 -0.17740
 C138 C 0.35384 0.61141 -0.17283
 C139 C 0.36339 0.64003 -0.23379
 C140 C 0.37691 0.62762 -0.29829
 H141 H 0.40604 0.59982 -0.41033
 H142 H 0.37165 0.49394 -0.20103
 H143 H 0.35059 0.54753 -0.13012
 H144 H 0.38418 0.65052 -0.34436
 H145 H 0.39862 0.47439 -0.31236
 H146 H 0.36052 0.67235 -0.23131
 C147 C 0.56768 0.10875 -0.31650
 C148 C 0.59725 0.11059 -0.36778
 C149 C 0.63709 0.13878 -0.35420
 C150 C 0.64698 0.16561 -0.29078
 C151 C 0.61652 0.16464 -0.24142
 C152 C 0.57717 0.13560 -0.25410
 C153 C 0.62564 0.19343 -0.18090
 C154 C 0.66497 0.22279 -0.16774
 C155 C 0.69550 0.22226 -0.21482
 C156 C 0.68652 0.19414 -0.27638
 H157 H 0.66009 0.14026 -0.39338
 H158 H 0.55355 0.13434 -0.21654
 H159 H 0.60203 0.19325 -0.14407
 H160 H 0.71035 0.19516 -0.31319
 H161 H 0.53677 0.08777 -0.32625
 H162 H 0.72602 0.24467 -0.20536
 C163 C 0.90399 0.41031 -0.30891
 C164 C 0.89606 0.44082 -0.35501
 C165 C 0.86651 0.45724 -0.33553
 C166 C 0.84430 0.44238 -0.27103
 C167 C 0.85118 0.40994 -0.22673
 C168 C 0.88153 0.39471 -0.24547
 C169 C 0.82696 0.39242 -0.16549
 C170 C 0.79651 0.40761 -0.14685
 C171 C 0.79120 0.44152 -0.18877
 C172 C 0.81467 0.45849 -0.25086
 H173 H 0.86051 0.48092 -0.37116
 H174 H 0.88739 0.37013 -0.21183
 H175 H 0.83141 0.36654 -0.13283
 H176 H 0.80918 0.48359 -0.28377
 H177 H 0.92661 0.39729 -0.32362
 H178 H 0.76779 0.45355 -0.17521
 C179 C 0.52372 0.40262 -0.30808
 C180 C 0.55112 0.42750 -0.36132
 C181 C 0.59199 0.43827 -0.34979
 C182 C 0.60543 0.42353 -0.28677
 C183 C 0.57770 0.39722 -0.23436
 C184 C 0.53687 0.38737 -0.24522
 C185 C 0.59136 0.38121 -0.17240
 C186 C 0.63243 0.39219 -0.16173
 C187 C 0.65958 0.41908 -0.21376
 C188 C 0.64623 0.43435 -0.27583
 H189 H 0.61330 0.45790 -0.39035
 H190 H 0.51514 0.36750 -0.20558
 H191 H 0.57023 0.36080 -0.13230
 H192 H 0.66785 0.45454 -0.31539
 H193 H 0.49205 0.39384 -0.31628
 H194 H 0.69134 0.42778 -0.20703
 C195 C 0.90626 0.41394 0.31419
 C196 C 0.89152 0.42959 0.37569
 C197 C 0.85339 0.43198 0.37032
 C198 C 0.83081 0.41930 0.30606
 C199 C 0.84570 0.40286 0.24580
 C200 C 0.88345 0.40034 0.25045
 C201 C 0.82266 0.38955 0.18184
 C202 C 0.78536 0.39365 0.17692
 C203 C 0.77126 0.41086 0.23688
 C204 C 0.79363 0.42327 0.30101
 H205 H 0.84170 0.44570 0.41487
 H206 H 0.89536 0.38777 0.20478
 H207 H 0.83396 0.37666 0.13568
 H208 H 0.78183 0.43602 0.34665
 H209 H 0.93472 0.41016 0.31582
 H210 H 0.74254 0.41410 0.23462
 C211 C 0.56153 0.10730 0.30496
 C212 C 0.58937 0.11323 0.36214
 C213 C 0.62880 0.14393 0.35091
 C214 C 0.63995 0.16805 0.28526
 C215 C 0.61139 0.16239 0.22968
 C216 C 0.57237 0.13177 0.23995
 C217 C 0.62219 0.18792 0.16523
 C218 C 0.66142 0.21888 0.15533
 C219 C 0.68989 0.22309 0.21017
 C220 C 0.67924 0.19802 0.27454
 H221 H 0.65146 0.14817 0.39211
 H222 H 0.55000 0.12711 0.19800
 H223 H 0.59992 0.18417 0.12342
 H224 H 0.70163 0.20261 0.31641
 H225 H 0.53060 0.08550 0.31121
 H226 H 0.72027 0.24679 0.20435
 C227 C 0.57123 0.46623 0.31413
 C228 C 0.55572 0.43206 0.36645
 C229 C 0.55844 0.39026 0.35401
 C230 C 0.57702 0.38281 0.29069
 C231 C 0.59359 0.41774 0.23920
 C232 C 0.59020 0.45923 0.25118
 C233 C 0.61336 0.41056 0.17694
 C234 C 0.61594 0.36857 0.16495
 C235 C 0.59865 0.33394 0.21598
 C236 C 0.57960 0.34105 0.27841
 H237 H 0.54617 0.36361 0.39383
 H238 H 0.60252 0.48635 0.21227
 H239 H 0.62634 0.43737 0.13769
 H240 H 0.56700 0.31391 0.31721
 H241 H 0.56964 0.49881 0.32305
 H242 H 0.60043 0.30135 0.20825
 C243 C 0.09852 0.53170 0.30493
 C244 C 0.10462 0.56361 0.36090
 C245 C 0.13313 0.60707 0.35080
 C246 C 0.15621 0.61811 0.28672
 C247 C 0.15086 0.58531 0.23186
 C248 C 0.12149 0.54240 0.24104
 C249 C 0.17540 0.59577 0.16943
 C250 C 0.20493 0.63883 0.16075
 C251 C 0.20915 0.67147 0.21487
 C252 C 0.18515 0.66117 0.27732
 H253 H 0.13776 0.63203 0.39337
 H254 H 0.11681 0.51686 0.19951
 H255 H 0.17163 0.57041 0.12789
 H256 H 0.18958 0.68676 0.31868
 H257 H 0.07696 0.49787 0.31184
 H258 H 0.23171 0.70487 0.20975
 C259 C 0.47134 0.87110 0.32329
 C260 C 0.44515 0.88339 0.36694
 C261 C 0.40493 0.87007 0.34635
 C262 C 0.39083 0.84414 0.28315
 C263 C 0.41717 0.83071 0.24082
 C264 C 0.45741 0.84469 0.26094
 C265 C 0.40272 0.80306 0.17964
 C266 C 0.36241 0.78916 0.15927
 C267 C 0.33676 0.80394 0.20010
 C268 C 0.35079 0.83097 0.26191
 H269 H 0.38473 0.87989 0.37969
 H270 H 0.47802 0.83487 0.22884
 H271 H 0.42285 0.79221 0.14796
 H272 H 0.33026 0.84119 0.29350
 H273 H 0.50238 0.88100 0.33860
 H274 H 0.30558 0.79350 0.18547
 C275 C 0.45428 0.58542 0.31680
 C276 C 0.42455 0.55562 0.36163
 C277 C 0.38444 0.54287 0.34144
 C278 C 0.37379 0.56078 0.27889
 C279 C 0.40360 0.59188 0.23497
 C280 C 0.44387 0.60353 0.25393
 C281 C 0.39247 0.61110 0.17376
 C282 C 0.35189 0.59940 0.15624
 C283 C 0.32280 0.56766 0.19997
 C284 C 0.33362 0.54860 0.26055
 H285 H 0.36140 0.51934 0.37530
 H286 H 0.46721 0.62715 0.22088
 H287 H 0.41524 0.63537 0.14052
 H288 H 0.31048 0.52471 0.29364
 H289 H 0.48540 0.59567 0.33163
 H290 H 0.29135 0.55784 0.18810
   
