data_POSCAR
  _audit_creation_date              2014-09-24
  _audit_creation_method            'ToBaCCo'
  _symmetry_space_group_name_H-M    'P1'
  _symmetry_Int_Tables_number       1
  _symmetry_cell_setting            triclinic
  loop_
  _symmetry_equiv_pos_as_xyz
 x,y,z
_cell_length_a 17.7617
_cell_length_b 17.3597
_cell_length_c 17.2529
_cell_angle_alpha 90.082000
_cell_angle_beta 90.545500
_cell_angle_gamma 88.801600
loop_
  _atom_site_label
  _atom_site_type_symbol
  _atom_site_fract_x
  _atom_site_fract_y
  _atom_site_fract_z
C1 C 0.49844 1.01819 -0.46796
 C2 C 0.49103 1.00550 -0.54536
 C3 C 0.41637 0.99835 -0.58348
 C4 C 0.55648 0.98982 -0.59700
 C5 C 0.57253 1.02582 -0.42823
 C6 C 0.43291 1.01835 -0.41526
 C7 C 0.37355 0.93240 -0.57156
 C8 C 0.31883 0.91167 -0.62615
 C9 C 0.30633 0.95703 -0.69242
 C10 C 0.34348 1.02684 -0.70005
 C11 C 0.39834 1.04737 -0.64587
 C12 C 0.61835 1.03891 -0.60040
 C13 C 0.67731 1.02293 -0.65170
 C14 C 0.67348 0.95966 -0.70232
 C15 C 0.61166 0.91166 -0.70001
 C16 C 0.55446 0.92556 -0.64688
 C17 C 0.58216 1.08724 -0.37614
 C18 C 0.64533 1.08938 -0.32771
 C19 C 0.70078 1.03099 -0.33194
 C20 C 0.69346 0.97169 -0.38638
 C21 C 0.62880 0.96788 -0.43294
 C22 C 0.37290 1.07209 -0.42227
 C23 C 0.31652 1.07522 -0.36585
 C24 C 0.32085 1.02542 -0.30165
 C25 C 0.38005 0.97167 -0.29556
 C26 C 0.43526 0.96768 -0.35195
 H27 H 0.38772 0.89312 -0.52467
 H28 H 0.29118 0.85697 -0.62015
 H29 H 0.33499 1.06192 -0.75145
 H30 H 0.43152 1.09790 -0.65639
 H31 H 0.62048 1.09001 -0.56447
 H32 H 0.72402 1.06188 -0.65473
 H33 H 0.50772 0.88657 -0.64581
 H34 H 0.53905 1.13196 -0.37081
 H35 H 0.65041 1.13573 -0.28605
 H36 H 0.73575 0.92596 -0.38939
 H37 H 0.62154 0.91846 -0.47041
 H38 H 0.37083 1.11259 -0.46995
 H39 H 0.27088 1.11722 -0.37138
 H40 H 0.38345 0.93278 -0.24654
 H41 H 0.48106 0.92592 -0.34533
 H42 H 0.60767 0.86356 -0.73979
 C43 C -0.53939 1.49902 0.01392
 C44 C -0.46362 1.51043 0.01543
 C45 C -0.43028 1.58805 0.00639
 C46 C -0.40691 1.44612 0.02253
 C47 C -0.57295 1.42185 0.02416
 C48 C -0.59452 1.56210 -0.00545
 C49 C -0.44278 1.63336 -0.06039
 C50 C -0.40012 1.69935 -0.07288
 C51 C -0.34268 1.71854 -0.02049
 C52 C -0.33158 1.67461 0.04678
 C53 C -0.37546 1.61063 0.06053
 C54 C -0.40710 1.39249 0.08367
 C55 C -0.34861 1.33713 0.09097
 C56 C -0.28832 1.33668 0.03860
 C57 C -0.28794 1.39050 -0.02131
 C58 C -0.34686 1.44389 -0.02997
 C59 C -0.63105 1.41414 0.07801
 C60 C -0.67426 1.34797 0.07908
 C61 C -0.66001 1.28777 0.02634
 C62 C -0.59925 1.29330 -0.02454
 C63 C -0.55644 1.36027 -0.02638
 C64 C -0.59858 1.63153 0.03669
 C65 C -0.64927 1.69050 0.01376
 C66 C -0.69719 1.67973 -0.05027
 C67 C -0.69531 1.60963 -0.09011
 C68 C -0.64455 1.55131 -0.06793
 H69 H -0.48312 1.61605 -0.10415
 H70 H -0.40915 1.73300 -0.12505
 H71 H -0.28792 1.68946 0.08809
 H72 H -0.36427 1.57637 0.11197
 H73 H -0.45159 1.39417 0.12613
 H74 H -0.34989 1.29569 0.13773
 H75 H -0.34503 1.48456 -0.07745
 H76 H -0.64516 1.46111 0.11704
 H77 H -0.72048 1.34503 0.11936
 H78 H -0.58781 1.24757 -0.06580
 H79 H -0.51315 1.36554 -0.06970
 H80 H -0.56163 1.64056 0.08599
 H81 H -0.64974 1.74494 0.04453
 H82 H -0.73137 1.60110 -0.14028
 H83 H -0.64283 1.49827 -0.10108
 H84 H -0.24225 1.39008 -0.06246
 C85 C 0.00475 0.53454 0.49572
 C86 C 0.00757 0.45740 0.50670
 C87 C 0.01283 0.40353 0.44086
 C88 C 0.00470 0.42114 0.58434
 C89 C 0.00397 0.59052 0.56087
 C90 C -0.00409 0.56809 0.41698
 C91 C -0.05183 0.38269 0.39920
 C92 C -0.04939 0.31814 0.35066
 C93 C 0.01782 0.27522 0.34309
 C94 C 0.08372 0.30036 0.37920
 C95 C 0.08118 0.36403 0.42834
 C96 C -0.05186 0.36784 0.59979
 C97 C -0.05418 0.33031 0.67126
 C98 C 0.00051 0.34492 0.72779
 C99 C 0.05783 0.39696 0.71234
 C100 C 0.06020 0.43470 0.64082
 C101 C -0.06038 0.60161 0.60664
 C102 C -0.06721 0.66674 0.65459
 C103 C -0.00944 0.72064 0.65777
 C104 C 0.05686 0.70648 0.61638
 C105 C 0.06338 0.64214 0.56797
 C106 C 0.05266 0.56108 0.36083
 C107 C 0.04585 0.60146 0.29052
 C108 C -0.01754 0.64934 0.27650
 C109 C -0.07528 0.65297 0.33093
 C110 C -0.06890 0.61259 0.40036
 H111 H -0.10505 0.41254 0.40902
 H112 H -0.10098 0.29819 0.32413
 H113 H 0.13557 0.26668 0.37481
 H114 H 0.13130 0.37945 0.46059
 H115 H -0.09498 0.35614 0.55686
 H116 H -0.09959 0.29146 0.68315
 H117 H 0.10515 0.47423 0.62952
 H118 H -0.10731 0.56311 0.60090
 H119 H -0.11949 0.67777 0.68488
 H120 H 0.10126 0.74835 0.61697
 H121 H 0.11299 0.63502 0.53241
 H122 H 0.10353 0.52765 0.37302
 H123 H 0.09200 0.59970 0.24997
 H124 H -0.12364 0.69093 0.32134
 H125 H -0.11336 0.61855 0.44262
 H126 H 0.09970 0.40965 0.75636
 O127 O -0.11871 1.05632 -0.18035
 O128 O -0.08123 0.94400 0.20023
 O129 O -0.19193 0.89653 -0.01535
 O130 O -0.19338 1.09276 0.05132
 O131 O -0.10350 1.18460 0.07281
 O132 O -0.10021 0.80805 -0.05182
 O133 O -0.18136 0.96964 0.11781
 O134 O -0.20126 1.02478 -0.08375
 Zr135 Zr -0.13080 0.99647 0.01172
 O136 O -0.06107 1.04106 0.09585
 O137 O -0.07285 0.95410 -0.08212
 C138 C -0.18556 1.04394 -0.15425
 C139 C -0.15243 0.95440 0.18550
 C140 C -0.16939 0.82825 -0.03702
 C141 C -0.17276 1.16153 0.06968
 H142 H -0.08911 0.86873 0.07544
 O143 O -0.05994 0.90940 0.05022
 H144 H -0.10899 1.12702 -0.05524
 O145 O -0.07378 1.08636 -0.03605
 O146 O 0.12096 0.92991 0.17776
 O147 O 0.08229 1.06589 -0.19625
 O148 O 0.01491 0.77616 0.03741
 O149 O 0.00594 1.15089 0.16788
 O150 O -0.00719 1.22048 -0.02882
 O151 O -0.01349 0.84410 -0.16276
 O152 O 0.19420 0.90471 -0.05192
 O153 O 0.19282 1.10217 0.01444
 O154 O 0.10426 0.81275 -0.07320
 O155 O 0.10106 1.18804 0.05656
 O156 O 0.01816 0.83819 0.15556
 O157 O -0.02297 0.96468 -0.21905
 O158 O -0.01459 1.16518 -0.15027
 O159 O 0.01894 1.03057 0.22298
 O160 O 0.20287 0.95937 0.07990
 O161 O 0.18220 1.03462 -0.11528
 Zr162 Zr 0.01397 0.95533 0.12869
 Zr163 Zr -0.01214 1.04398 -0.12690
 Zr164 Zr 0.00138 0.86910 -0.04296
 Zr165 Zr -0.00008 1.12684 0.04712
 Zr166 Zr 0.13233 1.00095 -0.01051
 O167 O 0.06163 1.08929 -0.04715
 O168 O 0.07593 0.91066 0.03825
 C169 C 0.18752 0.93252 0.14788
 C170 C 0.15350 1.05635 -0.18146
 C171 C 0.01808 0.77688 0.11288
 C172 C 0.01308 1.10460 0.22690
 C173 C -0.01164 1.22429 -0.10346
 C174 C -0.02307 0.88995 -0.22188
 C175 C 0.17295 0.83724 -0.07441
 C176 C 0.16998 1.16939 0.03926
 H177 H 0.08841 0.93678 -0.13820
 O178 O 0.06076 0.95675 -0.09279
 H179 H 0.11136 1.06313 0.12377
 O180 O 0.07572 1.04323 0.08452
 N181 N 0.27459 0.92853 0.24942
 N182 N 0.24840 0.89860 0.19069
 N183 N -0.27312 0.94945 0.23722
 N184 N -0.20268 0.95387 0.24939
 N185 N -0.23800 1.02798 -0.27782
 N186 N -0.24680 1.04913 -0.20781
 N187 N 0.26644 1.02666 -0.24136
 N188 N 0.20399 1.06363 -0.24463
 N189 N 0.28954 1.22452 0.01912
 N190 N 0.22377 1.22889 0.04775
 N191 N 0.26303 0.73719 -0.07921
 N192 N 0.22826 0.79015 -0.11182
 N193 N -0.29376 0.78109 -0.03532
 N194 N -0.22298 0.76814 -0.03662
 N195 N -0.22863 1.28012 0.04095
 N196 N -0.23186 1.21750 0.07866
 N197 N 0.01583 1.20426 0.31876
 N198 N 0.01500 1.13520 0.30334
 N199 N -0.00732 1.31879 -0.20186
 N200 N -0.01503 1.30095 -0.13347
 N201 N -0.02281 0.79003 -0.31506
 N202 N -0.03567 0.85775 -0.29708
 N203 N -0.01805 0.70761 0.21826
 N204 N 0.01778 0.70589 0.15468
   
