data_POSCAR
  _audit_creation_date              2014-09-24
  _audit_creation_method            'ToBaCCo'
  _symmetry_space_group_name_H-M    'P1'
  _symmetry_Int_Tables_number       1
  _symmetry_cell_setting            triclinic
  loop_
  _symmetry_equiv_pos_as_xyz
 x,y,z
_cell_length_a 30.7515
_cell_length_b 29.0726
_cell_length_c 15.6810
_cell_angle_alpha 88.654000
_cell_angle_beta 89.172300
_cell_angle_gamma 89.780100
loop_
  _atom_site_label
  _atom_site_type_symbol
  _atom_site_fract_x
  _atom_site_fract_y
  _atom_site_fract_z
C1 C 0.18926 0.19969 0.09706
 C2 C 0.17320 0.24163 0.06337
 C3 C 0.19186 0.28372 0.08193
 C4 C 0.22947 0.28502 0.13223
 C5 C 0.24752 0.24336 0.16504
 C6 C 0.22723 0.20064 0.14823
 C7 C 0.24651 0.16005 0.18080
 C8 C 0.28381 0.16124 0.22958
 C9 C 0.30490 0.20295 0.24627
 C10 C 0.28599 0.24453 0.21472
 C11 C 0.24980 0.32686 0.14938
 C12 C 0.28673 0.32806 0.19910
 C13 C 0.30554 0.28735 0.23216
 C14 C 0.34306 0.28868 0.28300
 C15 C 0.36074 0.24755 0.31579
 C16 C 0.34334 0.20430 0.29602
 H17 H 0.23369 0.12640 0.16836
 H18 H 0.29513 0.12858 0.25498
 H19 H 0.23742 0.35924 0.12426
 H20 H 0.30021 0.36151 0.21158
 H21 H 0.14322 0.24267 0.02801
 H22 H 0.39089 0.24958 0.35033
 C23 C 0.67105 0.20647 0.39250
 C24 C 0.65438 0.24956 0.41502
 C25 C 0.67597 0.29070 0.39415
 C26 C 0.71594 0.28914 0.34866
 C27 C 0.73223 0.24639 0.31992
 C28 C 0.70906 0.20500 0.33907
 C29 C 0.72233 0.16485 0.29715
 C30 C 0.76047 0.16360 0.24852
 C31 C 0.78585 0.20318 0.23524
 C32 C 0.77087 0.24537 0.26870
 C33 C 0.73969 0.32946 0.32992
 C34 C 0.77775 0.32829 0.28115
 C35 C 0.79393 0.28669 0.24951
 C36 C 0.83192 0.28542 0.19749
 C37 C 0.84694 0.24311 0.16779
 C38 C 0.82462 0.20207 0.18568
 H39 H 0.70252 0.13431 0.29746
 H40 H 0.76900 0.13152 0.21876
 H41 H 0.72922 0.36255 0.35289
 H42 H 0.79389 0.36067 0.26764
 H43 H 0.62366 0.25121 0.44972
 H44 H 0.87752 0.24192 0.13260
 C45 C 0.68027 0.69916 0.67833
 C46 C 0.65987 0.74015 0.65161
 C47 C 0.67522 0.78324 0.67499
 C48 C 0.71251 0.78573 0.72659
 C49 C 0.73411 0.74473 0.75330
 C50 C 0.71796 0.70133 0.72911
 C51 C 0.74022 0.66129 0.75564
 C52 C 0.77640 0.66356 0.80779
 C53 C 0.79201 0.70603 0.83555
 C54 C 0.77155 0.74715 0.80553
 C55 C 0.72852 0.82820 0.75302
 C56 C 0.76472 0.83049 0.80444
 C57 C 0.78818 0.79071 0.82809
 C58 C 0.82587 0.79291 0.87918
 C59 C 0.84174 0.75220 0.91662
 C60 C 0.82739 0.70866 0.89243
 H61 H 0.73005 0.62761 0.73603
 H62 H 0.79195 0.63143 0.82550
 H63 H 0.71325 0.86043 0.73488
 H64 H 0.77321 0.86398 0.82744
 H65 H 0.62980 0.73847 0.61666
 H66 H 0.86756 0.75461 0.96252
 C67 C 0.15166 0.70440 0.82795
 C68 C 0.13135 0.74646 0.84549
 C69 C 0.15139 0.78894 0.82868
 C70 C 0.19551 0.78938 0.80008
 C71 C 0.21578 0.74750 0.77613
 C72 C 0.19301 0.70515 0.78578
 C73 C 0.21120 0.66595 0.74796
 C74 C 0.25331 0.66637 0.71441
 C75 C 0.27836 0.70665 0.71361
 C76 C 0.25899 0.74795 0.74219
 C77 C 0.22084 0.82963 0.79954
 C78 C 0.26326 0.82991 0.76774
 C79 C 0.28282 0.78960 0.73749
 C80 C 0.32550 0.78993 0.70251
 C81 C 0.34423 0.74873 0.67483
 C82 C 0.32167 0.70694 0.68186
 H83 H 0.19266 0.63484 0.74091
 H84 H 0.26568 0.63494 0.68732
 H85 H 0.20876 0.86126 0.82593
 H86 H 0.28049 0.86229 0.76718
 H87 H 0.09868 0.74616 0.87290
 H88 H 0.37767 0.74885 0.65187
 O89 O 1.03811 -0.04013 -0.01808
 O90 O 0.95622 0.04856 0.02687
 O91 O 0.95389 -0.03872 -0.00405
 O92 O 1.04073 0.04766 0.00960
 O93 O 1.03469 0.06337 -0.12826
 O94 O 0.94884 -0.02350 -0.14220
 O95 O 0.95074 0.06440 -0.11101
 O96 O 1.03334 -0.02456 -0.15620
 Cu97 Cu 0.99780 0.00284 0.01747
 Cu98 Cu 0.99130 0.02142 -0.14834
 C99 C 1.04965 -0.04758 -0.09449
 C100 C 0.93959 0.07169 -0.03420
 C101 C 0.93680 -0.04602 -0.07566
 C102 C 1.05231 0.07037 -0.05714
 O103 O 0.54188 0.55693 0.42128
 O104 O 0.45793 0.46788 0.39775
 O105 O 0.45750 0.55762 0.42284
 O106 O 0.54180 0.46952 0.39100
 O107 O 0.54248 0.45439 0.52971
 O108 O 0.45828 0.54358 0.56179
 O109 O 0.45835 0.45405 0.53678
 O110 O 0.54309 0.54182 0.55992
 Cu111 Cu 0.49934 0.51454 0.39439
 Cu112 Cu 0.50032 0.49715 0.56105
 C113 C 0.55698 0.56427 0.49467
 C114 C 0.44484 0.44482 0.46308
 C115 C 0.44426 0.56646 0.49766
 C116 C 0.55627 0.44672 0.45450
 O117 O 0.04613 0.52579 -0.05193
 O118 O -0.03602 0.44051 0.01717
 O119 O -0.03856 0.52185 -0.05705
 O120 O 0.04855 0.44463 0.01843
 O121 O 0.04491 0.47539 0.14579
 O122 O -0.04135 0.55362 0.06953
 O123 O -0.03987 0.47185 0.14396
 O124 O 0.04208 0.55730 0.07487
 Cu125 Cu 0.00520 0.47995 -0.03103
 Cu126 Cu 0.00089 0.51748 0.12150
 C127 C 0.05795 0.55617 -0.00018
 C128 C -0.05174 0.44144 0.09252
 C129 C -0.05395 0.55175 -0.00715
 C130 C 0.06175 0.44697 0.09459
 O131 O 0.46331 1.05466 0.58129
 O132 O 0.54015 0.96236 0.63748
 O133 O 0.54661 1.04982 0.59794
 O134 O 0.45723 0.96505 0.61245
 O135 O 0.46577 0.95166 0.47518
 O136 O 0.55714 1.03243 0.46277
 O137 O 0.54857 0.94573 0.50147
 O138 O 0.47336 1.04087 0.44451
 Cu139 Cu 0.50064 1.00947 0.62089
 Cu140 Cu 0.51186 0.99126 0.45721
 C141 C 0.45621 1.06451 0.50357
 C142 C 0.55710 0.93802 0.57967
 C143 C 0.56721 1.05522 0.52760
 C144 C 0.44701 0.94321 0.54628
 C145 C 1.16532 0.15878 0.08514
 C146 C 1.13869 0.15271 0.01929
 C147 C 1.10956 0.11278 0.01596
 C148 C 1.08559 0.10632 -0.05310
 H149 H 1.13796 0.17733 -0.03358
 H150 H 1.10639 0.08980 0.07115
 H151 H 1.16757 0.13087 0.13164
 H152 H 1.08975 0.12899 -0.10850
 C153 C 0.65847 0.65487 0.66077
 C154 C 0.63871 0.64729 0.58694
 C155 C 0.61040 0.60709 0.57694
 C156 C 0.58998 0.60034 0.50358
 H157 H 0.64158 0.67228 0.53475
 H158 H 0.60447 0.58421 0.63143
 H159 H 0.65645 0.62903 0.71160
 H160 H 0.59656 0.62295 0.44898
 C161 C -0.14217 0.32725 0.17607
 C162 C -0.12606 0.33496 0.09703
 C163 C -0.09704 0.37336 0.07079
 C164 C -0.08347 0.40653 0.12199
 H165 H -0.13372 0.31099 0.04759
 H166 H -0.08545 0.37314 0.00523
 H167 H -0.13609 0.35095 0.22644
 H168 H -0.09459 0.40802 0.18752
 C169 C 0.35217 0.83232 0.69922
 C170 C 0.37080 0.84784 0.62674
 C171 C 0.39805 0.88949 0.62473
 C172 C 0.41464 0.90599 0.55100
 H173 H 0.36605 0.82935 0.56833
 H174 H 0.40603 0.90554 0.68420
 H175 H 0.35555 0.85162 0.75705
 H176 H 0.40665 0.88936 0.49209
 C177 C -0.15014 0.66690 -0.07182
 C178 C -0.10783 0.66730 -0.05193
 C179 C -0.08535 0.62865 -0.00966
 C180 C -0.08501 0.58614 -0.04023
 H181 H -0.08846 0.69787 -0.06294
 H182 H -0.06308 0.63726 0.04043
 H183 H -0.16855 0.63579 -0.05904
 H184 H -0.10339 0.57856 -0.09661
 C185 C 0.36609 1.16346 0.31918
 C186 C 0.39166 1.15896 0.38742
 C187 C 0.41537 1.11560 0.40501
 C188 C 0.42930 1.10527 0.48344
 H189 H 0.39378 1.18624 0.43303
 H190 H 0.42146 1.09211 0.35346
 H191 H 0.36244 1.13331 0.28087
 H192 H 0.42144 1.12815 0.53511
 C193 C 1.12557 -0.17167 -0.15669
 C194 C 1.12774 -0.13223 -0.20295
 C195 C 1.09778 -0.09329 -0.18764
 C196 C 1.08165 -0.08421 -0.10998
 H197 H 1.14883 -0.12966 -0.25871
 H198 H 1.08968 -0.07115 -0.24166
 H199 H 1.09829 -0.17559 -0.11253
 H200 H 1.09200 -0.10451 -0.05507
 C201 C 0.65389 0.33497 0.41293
 C202 C 0.63104 0.34153 0.48521
 C203 C 0.60357 0.38243 0.50101
 C204 C 0.58837 0.41018 0.43869
 H205 H 0.63194 0.31550 0.53573
 H206 H 0.59261 0.38731 0.56613
 H207 H 0.65585 0.36207 0.36470
 H208 H 0.59721 0.40452 0.37278
 C209 C 0.85029 -0.16692 -0.10677
 C210 C 0.85621 -0.13292 -0.16536
 C211 C 0.88687 -0.09437 -0.15546
 C212 C 0.90328 -0.08177 -0.08078
 H213 H 0.84209 -0.13555 -0.22785
 H214 H 0.89655 -0.07598 -0.21350
 H215 H 0.87086 -0.16723 -0.05134
 H216 H 0.89301 -0.09846 -0.02156
 C217 C 0.36704 0.33228 0.29451
 C218 C 0.37953 0.34646 0.37077
 C219 C 0.40428 0.38955 0.37814
 C220 C 0.41526 0.40544 0.45418
 H221 H 0.37166 0.32607 0.42766
 H222 H 0.41503 0.40756 0.32031
 H223 H 0.37385 0.35365 0.23835
 H224 H 0.40467 0.38712 0.51177
 C225 C 0.12844 0.66460 -0.14513
 C226 C 0.14579 0.62370 -0.12274
 C227 C 0.11774 0.58578 -0.09150
 C228 C 0.08911 0.59180 -0.02768
 H229 H 0.18041 0.61739 -0.12456
 H230 H 0.12145 0.55243 -0.12014
 H231 H 0.09369 0.66847 -0.13398
 H232 H 0.08839 0.62411 0.00548
 C233 C 0.64686 1.16793 0.42259
 C234 C 0.66280 1.12572 0.43967
 C235 C 0.63342 1.08709 0.46090
 C236 C 0.60164 1.09003 0.51976
 H237 H 0.69710 1.11809 0.43349
 H238 H 0.63749 1.05591 0.42510
 H239 H 0.61275 1.17360 0.43806
 H240 H 0.59972 1.11962 0.56043
 C241 C 0.16885 0.32523 0.05005
 C242 C 0.14985 0.35448 0.10352
 C243 C 0.11862 0.38899 0.07162
 C244 C 0.09645 0.41593 0.12486
 H245 H 0.15492 0.35059 0.17163
 H246 H 0.11222 0.39088 0.00379
 H247 H 0.16132 0.32732 -0.01728
 H248 H 0.10322 0.41447 0.19252
 C249 C 0.64927 0.82479 0.65193
 C250 C 0.63186 0.83128 0.57455
 C251 C 0.60446 0.87132 0.54983
 C252 C 0.58619 0.90011 0.60563
 H253 H 0.63860 0.80649 0.52552
 H254 H 0.59775 0.87584 0.48252
 H255 H 0.64481 0.85028 0.70020
 H256 H 0.59090 0.89529 0.67338
 C257 C 0.84466 0.15823 0.15814
 C258 C 0.86368 0.15404 0.08145
 C259 C 0.89002 0.11328 0.06130
 C260 C 0.90801 0.10847 -0.01612
 H261 H 0.86165 0.18199 0.03464
 H262 H 0.89656 0.08811 0.11167
 H263 H 0.84538 0.12950 0.20343
 H264 H 0.90052 0.13304 -0.06692
 C265 C 0.34537 0.66343 0.66509
 C266 C 0.36972 0.65740 0.59499
 C267 C 0.39547 0.61496 0.58421
 C268 C 0.41385 0.60525 0.50899
 H269 H 0.37106 0.68421 0.54576
 H270 H 0.40037 0.59214 0.63894
 H271 H 0.34245 0.63559 0.71201
 H272 H 0.40774 0.62760 0.45411
   
