data_POSCAR
  _audit_creation_date              2014-09-24
  _audit_creation_method            'ToBaCCo'
  _symmetry_space_group_name_H-M    'P1'
  _symmetry_Int_Tables_number       1
  _symmetry_cell_setting            triclinic
  loop_
  _symmetry_equiv_pos_as_xyz
 x,y,z
_cell_length_a 19.4010
_cell_length_b 19.4012
_cell_length_c 19.4021
_cell_angle_alpha 90.306300
_cell_angle_beta 90.000100
_cell_angle_gamma 90.008300
loop_
  _atom_site_label
  _atom_site_type_symbol
  _atom_site_fract_x
  _atom_site_fract_y
  _atom_site_fract_z
C1 C 0.50044 1.00026 -0.68719
 C2 C 0.43844 0.99286 -0.65116
 C3 C 0.43878 0.99040 -0.57906
 C4 C 0.50045 1.00004 -0.54133
 C5 C 0.56212 1.00979 -0.57893
 C6 C 0.56245 1.00754 -0.65106
 C7 C 0.50045 0.99993 -0.46371
 C8 C 0.56207 0.98988 -0.42606
 C9 C 0.56229 0.99206 -0.35399
 C10 C 0.50045 0.99971 -0.31793
 C11 C 0.43860 1.00747 -0.35389
 C12 C 0.43883 1.00987 -0.42593
 H13 H 0.50044 1.00033 -0.74315
 H14 H 0.39037 0.98065 -0.55340
 H15 H 0.61053 1.01946 -0.55314
 H16 H 0.61055 0.98003 -0.45159
 H17 H 0.50045 0.99964 -0.26202
 H18 H 0.39035 1.01980 -0.45132
 C19 C -0.68721 1.50020 0.00043
 C20 C -0.65120 1.43810 -0.00678
 C21 C -0.57908 1.43834 -0.00914
 C22 C -0.54133 1.50003 0.00044
 C23 C -0.57892 1.56182 0.01001
 C24 C -0.65104 1.56222 0.00765
 C25 C -0.46371 1.49994 0.00044
 C26 C -0.42592 1.56144 -0.00970
 C27 C -0.35386 1.56160 -0.00742
 C28 C -0.31792 1.49977 0.00043
 C29 C -0.35402 1.43803 0.00828
 C30 C -0.42608 1.43835 0.01057
 H31 H -0.74317 1.50026 0.00043
 H32 H -0.55341 1.38983 -0.01875
 H33 H -0.55313 1.61027 0.01962
 H34 H -0.45132 1.60987 -0.01970
 H35 H -0.26201 1.49971 0.00043
 H36 H -0.45160 1.38998 0.02057
 C37 C 0.00034 0.31534 0.50005
 C38 C -0.00716 0.35117 0.43816
 C39 C -0.00943 0.42331 0.43861
 C40 C 0.00044 0.46117 0.50035
 C41 C 0.01025 0.42365 0.56190
 C42 C 0.00788 0.35161 0.56201
 C43 C 0.00052 0.53880 0.50056
 C44 C -0.00927 0.57668 0.56230
 C45 C -0.00684 0.64881 0.56276
 C46 C 0.00073 0.68463 0.50087
 C47 C 0.00819 0.64836 0.43891
 C48 C 0.01041 0.57631 0.43902
 H49 H 0.00031 0.25940 0.50014
 H50 H -0.01922 0.44886 0.39027
 H51 H 0.02004 0.44928 0.61044
 H52 H -0.01912 0.55114 0.61064
 H53 H 0.00081 0.74057 0.50079
 H54 H 0.02014 0.55066 0.39047
 O55 O -0.09345 0.99673 -0.17693
 O56 O -0.09378 1.00303 0.17770
 O57 O -0.17685 0.90587 -0.00292
 O58 O -0.17705 1.09369 0.00369
 O59 O -0.09239 1.17739 0.00391
 O60 O -0.09203 0.82236 -0.00298
 O61 O -0.17722 1.00257 0.09277
 O62 O -0.17706 0.99694 -0.09220
 Zr63 Zr -0.12091 0.99985 0.00038
 O64 O -0.06209 1.06238 0.06315
 O65 O -0.06196 0.93740 -0.06228
 C66 C -0.15694 0.99517 -0.15575
 C67 C -0.15728 1.00440 0.15635
 C68 C -0.15559 0.84240 -0.00463
 C69 C -0.15591 1.15721 0.00548
 H70 H -0.09130 0.90822 0.09184
 O71 O -0.06189 0.93764 0.06254
 H72 H -0.09148 1.09158 -0.09099
 O73 O -0.06202 1.06223 -0.06168
 O74 O 0.09467 0.99733 0.17764
 O75 O 0.09434 1.00285 -0.17687
 O76 O 0.00349 0.82280 0.09376
 O77 O -0.00276 1.17736 0.09530
 O78 O 0.00315 1.17721 -0.09281
 O79 O -0.00242 0.82258 -0.09435
 O80 O 0.17774 0.90598 0.00301
 O81 O 0.17754 1.09440 -0.00222
 O82 O 0.09290 0.82244 0.00240
 O83 O 0.09254 1.17776 -0.00146
 O84 O 0.00320 0.90771 0.17766
 O85 O -0.00217 0.90732 -0.17750
 O86 O 0.00305 1.09228 -0.17669
 O87 O -0.00232 1.09263 0.17847
 O88 O 0.17812 0.99767 0.09273
 O89 O 0.17796 1.00277 -0.09215
 Zr90 Zr 0.00043 1.00012 0.12182
 Zr91 Zr 0.00043 0.99986 -0.12086
 Zr92 Zr 0.00047 0.87864 -0.00006
 Zr93 Zr 0.00023 1.12134 0.00099
 Zr94 Zr 0.12179 1.00013 0.00039
 O95 O 0.06275 1.06243 -0.06169
 O96 O 0.06288 0.93773 0.06256
 C97 C 0.15817 0.99595 0.15629
 C98 C 0.15784 1.00443 -0.15567
 C99 C 0.00498 0.84414 0.15735
 C100 C -0.00416 1.15616 0.15871
 C101 C 0.00470 1.15586 -0.15639
 C102 C -0.00388 0.84378 -0.15775
 C103 C 0.15645 0.84246 0.00425
 C104 C 0.15613 1.15788 -0.00338
 H105 H 0.09228 0.90818 -0.09173
 O106 O 0.06283 0.93761 -0.06217
 H107 H 0.09210 1.09197 0.09258
 O108 O 0.06270 1.06247 0.06304
 C109 C 0.37741 0.99025 0.31398
 C110 C 0.32375 0.98981 0.28256
 C111 C 0.26241 0.99106 0.24337
 C112 C 0.21260 0.99306 0.20626
 C113 C -0.37652 1.01021 0.31410
 C114 C -0.32286 1.01067 0.28269
 C115 C -0.26152 1.00941 0.24348
 C116 C -0.21171 1.00738 0.20634
 C117 C -0.37350 0.98893 -0.31691
 C118 C -0.32043 0.98848 -0.28461
 C119 C -0.26002 0.98985 -0.24411
 C120 C -0.21095 0.99202 -0.20609
 C121 C 0.37439 1.01055 -0.31677
 C122 C 0.32132 1.01097 -0.28447
 C123 C 0.26091 1.00962 -0.24399
 C124 C 0.21183 1.00749 -0.20600
 C125 C 0.31388 1.37710 -0.00931
 C126 C 0.28241 1.32346 -0.00967
 C127 C 0.24318 1.26214 -0.00834
 C128 C 0.20606 1.21234 -0.00630
 C129 C 0.31418 0.62330 0.01018
 C130 C 0.28280 0.67698 0.01054
 C131 C 0.24361 0.73831 0.00921
 C132 C 0.20647 0.78809 0.00716
 C133 C -0.31669 0.62575 -0.01065
 C134 C -0.28436 0.67880 -0.01117
 C135 C -0.24387 0.73923 -0.00988
 C136 C -0.20588 0.78834 -0.00776
 C137 C -0.31700 1.37380 0.01151
 C138 C -0.28475 1.32070 0.01203
 C139 C -0.24430 1.26026 0.01074
 C140 C -0.20629 1.21118 0.00862
 C141 C -0.00995 1.31597 0.37719
 C142 C -0.01047 1.28399 0.32372
 C143 C -0.00923 1.24403 0.26271
 C144 C -0.00717 1.20638 0.21312
 C145 C 0.01082 1.31488 -0.37371
 C146 C 0.01119 1.28317 -0.32044
 C147 C 0.00982 1.24345 -0.25969
 C148 C 0.00772 1.20596 -0.21040
 C149 C -0.00960 0.68401 -0.37627
 C150 C -0.01010 0.71598 -0.32280
 C151 C -0.00886 0.75593 -0.26178
 C152 C -0.00683 0.79357 -0.21218
 C153 C 0.01117 0.68508 0.37463
 C154 C 0.01155 0.71680 0.32136
 C155 C 0.01018 0.75654 0.26063
 C156 C 0.00805 0.79404 0.21134
   
