data_POSCAR
  _audit_creation_date              2014-09-24
  _audit_creation_method            'ToBaCCo'
  _symmetry_space_group_name_H-M    'P1'
  _symmetry_Int_Tables_number       1
  _symmetry_cell_setting            triclinic
  loop_
  _symmetry_equiv_pos_as_xyz
 x,y,z
_cell_length_a 35.0147
_cell_length_b 36.0036
_cell_length_c 35.8357
_cell_angle_alpha 90.069600
_cell_angle_beta 90.036600
_cell_angle_gamma 90.062100
loop_
  _atom_site_label
  _atom_site_type_symbol
  _atom_site_fract_x
  _atom_site_fract_y
  _atom_site_fract_z
C1 C 0.32799 0.36925 1.36988
 C2 C 0.34578 0.38820 1.34025
 C3 C 0.37814 0.37335 1.32241
 C4 C 0.39404 0.34001 1.33587
 C5 C 0.37731 0.32084 1.36593
 C6 C 0.34396 0.33556 1.38219
 H7 H 0.33352 0.41383 1.32997
 H8 H 0.41922 0.32873 1.32249
 H9 H 0.33058 0.32096 1.40513
 C10 C 1.17329 0.62975 0.87467
 C11 C 1.15387 0.66007 0.89067
 C12 C 1.12091 0.67499 0.87385
 C13 C 1.10659 0.65842 0.84114
 C14 C 1.12571 0.62840 0.82456
 C15 C 1.15892 0.61441 0.84132
 H16 H 1.16483 0.67261 0.91598
 H17 H 1.08140 0.66968 0.82775
 H18 H 1.17335 0.59118 0.82826
 C19 C 0.67184 -0.12358 0.12453
 C20 C 0.65446 -0.15553 0.10938
 C21 C 0.62210 -0.17157 0.12616
 C22 C 0.60661 -0.15488 0.15819
 C23 C 0.62328 -0.12289 0.17379
 C24 C 0.65570 -0.10742 0.15670
 H25 H 0.66651 -0.16846 0.08476
 H26 H 0.58187 -0.16722 0.17140
 H27 H 0.66870 -0.08298 0.16895
 C28 C -0.17626 1.12494 -0.37207
 C29 C -0.15862 1.15701 -0.38670
 C30 C -0.12816 1.17415 -0.36786
 C31 C -0.11443 1.15851 -0.33467
 C32 C -0.13053 1.12584 -0.32014
 C33 C -0.16147 1.10936 -0.33893
 H34 H -0.16939 1.16964 -0.41203
 H35 H -0.09079 1.17174 -0.32036
 H36 H -0.17430 1.08455 -0.32733
 C37 C 0.67376 0.63215 0.62364
 C38 C 0.65476 0.66263 0.60756
 C39 C 0.62353 0.67953 0.62585
 C40 C 0.61063 0.66423 0.65979
 C41 C 0.62886 0.63347 0.67569
 C42 C 0.66050 0.61791 0.65775
 H43 H 0.66523 0.67396 0.58151
 H44 H 0.58653 0.67638 0.67430
 H45 H 0.67458 0.59431 0.67042
 C46 C 0.83182 0.37216 0.12232
 C47 C 0.84895 0.33976 0.10840
 C48 C 0.87915 0.32252 0.12764
 C49 C 0.89208 0.33860 0.16119
 C50 C 0.87596 0.37164 0.17502
 C51 C 0.84598 0.38841 0.15516
 H52 H 0.83791 0.32755 0.08292
 H53 H 0.91518 0.32563 0.17645
 H54 H 0.83259 0.41328 0.16601
 C55 C 0.32986 0.12913 0.87707
 C56 C 0.34535 0.11218 0.84498
 C57 C 0.37289 0.13061 0.82340
 C58 C 0.38656 0.16542 0.83487
 C59 C 0.37360 0.18152 0.86817
 C60 C 0.34498 0.16353 0.88880
 H61 H 0.33441 0.08571 0.83527
 H62 H 0.40815 0.17942 0.81839
 H63 H 0.33424 0.17677 0.91385
 C64 C 0.16675 0.87043 0.37851
 C65 C 0.14928 0.88819 0.34795
 C66 C 0.12012 0.87045 0.32780
 C67 C 0.10648 0.83578 0.33961
 C68 C 0.12204 0.81843 0.37118
 C69 C 0.15255 0.83564 0.38999
 H70 H 0.15996 0.91467 0.33806
 H71 H 0.08386 0.82230 0.32399
 H72 H 0.16511 0.82191 0.41389
 Zn73 Zn 0.04768 0.97579 0.01009
 Zn74 Zn 0.01292 1.04465 -0.02054
 Zn75 Zn -0.02875 0.97190 -0.02735
 Zn76 Zn -0.01953 1.00990 0.04727
 O77 O 0.00295 1.00045 0.00226
 O78 O 0.08870 1.00050 -0.00672
 O79 O -0.00898 1.04768 -0.06523
 O80 O -0.00757 0.92792 -0.04062
 O81 O 0.06286 1.05256 -0.02775
 O82 O 0.04859 0.93198 -0.01249
 O83 O -0.04136 0.99498 -0.07039
 O84 O -0.06571 0.98928 0.05037
 O85 O -0.00453 1.08404 0.00471
 O86 O -0.07303 0.96083 -0.00413
 O87 O -0.02668 1.05825 0.05631
 O88 O 0.00693 0.99224 0.08609
 O89 O 0.05626 0.96566 0.05825
 C90 C 0.09181 1.03231 -0.02162
 C91 C -0.03114 1.02634 -0.08327
 C92 C 0.02489 0.91436 -0.03255
 C93 C -0.08533 0.96959 0.02807
 C94 C -0.02028 1.08665 0.03642
 C95 C 0.03763 0.97367 0.08750
 Zn96 Zn 0.48584 -0.04474 0.47687
 Zn97 Zn 0.51763 -0.00957 0.54483
 Zn98 Zn 0.52747 0.02801 0.47003
 Zn99 Zn 0.45084 0.02431 0.50685
 O100 O 0.49560 -0.00038 0.49956
 O101 O 0.50398 -0.08391 0.50191
 O102 O 0.56366 0.01132 0.54820
 O103 O 0.54003 0.00475 0.42705
 O104 O 0.52526 -0.05794 0.55387
 O105 O 0.50717 -0.04768 0.43199
 O106 O 0.57163 0.03930 0.49358
 O107 O 0.44971 0.06762 0.48344
 O108 O 0.49068 0.00826 0.58346
 O109 O 0.50620 0.07172 0.45605
 O110 O 0.44199 0.03510 0.55480
 O111 O 0.41000 -0.00080 0.49035
 O112 O 0.43595 -0.05311 0.46999
 C113 C 0.51959 -0.08638 0.53372
 C114 C 0.58356 0.03080 0.52601
 C115 C 0.52931 -0.02640 0.41393
 C116 C 0.47342 0.08504 0.46330
 C117 C 0.46011 0.02711 0.58436
 C118 C 0.40696 -0.03284 0.47590
 Zn119 Zn 0.97778 0.48759 0.54648
 Zn120 Zn 0.97119 0.52362 0.47114
 Zn121 Zn 1.04723 0.51758 0.50962
 Zn122 Zn 1.00987 0.44959 0.47998
 O123 O 1.00141 0.49469 0.50171
 O124 O 0.93231 0.50951 0.54814
 O125 O 0.99443 0.56622 0.45745
 O126 O 1.05660 0.52715 0.55792
 O127 O 0.92691 0.53704 0.49311
 O128 O 1.00393 0.50649 0.58504
 O129 O 1.04989 0.56125 0.48680
 O130 O 1.05945 0.44025 0.47164
 O131 O 0.95834 0.50017 0.42841
 O132 O 1.08701 0.49179 0.49201
 O133 O 0.98745 0.44601 0.43557
 O134 O 0.99161 0.41152 0.50662
 O135 O 0.96907 0.43960 0.55696
 C136 C 0.91377 0.52937 0.52524
 C137 C 1.02717 0.57898 0.46583
 C138 C 1.03628 0.52226 0.58682
 C139 C 1.08898 0.46007 0.47674
 C140 C 0.96690 0.46796 0.41658
 C141 C 0.97523 0.41033 0.53815
 Zn142 Zn 0.47923 0.49542 0.95334
 Zn143 Zn 0.47192 0.53139 1.02887
 Zn144 Zn 0.51129 0.45765 1.01975
 Zn145 Zn 0.54818 0.52593 0.99055
 O146 O 0.50253 0.50272 0.99827
 O147 O 0.43361 0.51666 0.95160
 O148 O 0.46007 0.50798 1.07209
 O149 O 0.49278 0.41950 0.99320
 O150 O 0.42709 0.54373 1.00681
 O151 O 0.47088 0.44749 0.94261
 O152 O 0.48983 0.45416 1.06455
 O153 O 0.58822 0.50019 1.00756
 O154 O 0.49455 0.57475 1.04190
 O155 O 0.56095 0.44829 1.02714
 O156 O 0.55036 0.56978 1.01317
 O157 O 0.55762 0.53545 0.94240
 O158 O 0.50528 0.51444 0.91492
 C159 C 0.41438 0.53589 0.97449
 C160 C 0.46942 0.47595 1.08392
 C161 C 0.47676 0.41827 0.96147
 C162 C 0.59043 0.46810 1.02193
 C163 C 0.52721 0.58775 1.03350
 C164 C 0.53757 0.53031 0.91338
 C165 C 1.22894 0.40878 0.41824
 N166 N 1.24171 0.37409 0.42586
 N167 N 1.27390 0.36164 0.41059
 C168 C 1.29439 0.38305 0.38657
 N169 N 1.28132 0.41779 0.37887
 N170 N 1.24940 0.43050 0.39461
 C171 C 1.19311 0.42212 0.43464
 N172 N 1.18668 0.45902 0.43915
 N173 N 1.15383 0.47102 0.45351
 C174 C 1.12606 0.44659 0.46341
 N175 N 1.13244 0.40970 0.45877
 N176 N 1.16553 0.39767 0.44496
 C177 C 0.27240 0.58849 0.92152
 N178 N 0.25826 0.57406 0.88939
 N179 N 0.22617 0.58719 0.87456
 C180 C 0.20682 0.61547 0.89109
 N181 N 0.22102 0.62977 0.92347
 N182 N 0.25315 0.61655 0.93841
 C183 C 0.30862 0.57443 0.93663
 N184 N 0.32287 0.58672 0.96974
 N185 N 0.35636 0.57423 0.98239
 C186 C 0.37675 0.54914 0.96224
 N187 N 0.36235 0.53689 0.92929
 N188 N 0.32894 0.54921 0.91679
 C189 C -0.22847 0.91847 0.07958
 N190 N -0.24661 0.88948 0.06305
 N191 N -0.27899 0.87613 0.07731
 C192 C -0.29463 0.89127 0.10860
 N193 N -0.27647 0.92058 0.12473
 N194 N -0.24406 0.93383 0.11061
 C195 C -0.19188 0.93234 0.06517
 N196 N -0.17172 0.95781 0.08499
 N197 N -0.13794 0.96972 0.07289
 C198 C -0.12308 0.95677 0.04042
 N199 N -0.14333 0.93146 0.02038
 N200 N -0.17710 0.91937 0.03261
 C201 C 0.72602 0.08183 0.57976
 N202 N 0.74077 0.06671 0.61127
 N203 N 0.77266 0.08020 0.62634
 C204 C 0.79113 0.10953 0.61070
 N205 N 0.77642 0.12438 0.57886
 N206 N 0.74455 0.11079 0.56366
 C207 C 0.68973 0.06790 0.56460
 N208 N 0.67546 0.08083 0.53181
 N209 N 0.64183 0.06879 0.51906
 C210 C 0.62121 0.04359 0.53882
 N211 N 0.63558 0.03068 0.57149
 N212 N 0.66920 0.04254 0.58410
 C213 C 0.42233 0.22266 0.40635
 N214 N 0.44011 0.24104 0.37820
 N215 N 0.42571 0.27277 0.36504
 C216 C 0.39302 0.28738 0.37953
 N217 N 0.37559 0.26878 0.40777
 N218 N 0.38984 0.23715 0.42081
 C219 C 0.43689 0.18726 0.42098
 N220 N 0.41599 0.16849 0.44660
 N221 N 0.42805 0.13616 0.46000
 C222 C 0.46162 0.12130 0.44848
 N223 N 0.48282 0.14009 0.42292
 N224 N 0.47061 0.17254 0.40934
 C225 C 0.91902 0.27354 0.59221
 N226 N 0.90450 0.24801 0.56813
 N227 N 0.88942 0.21643 0.58075
 C228 C 0.88869 0.20902 0.61790
 N229 N 0.90346 0.23450 0.64191
 N230 N 0.91814 0.26625 0.62933
 C231 C 0.93476 0.30875 0.57842
 N232 N 0.93922 0.33816 0.60179
 N233 N 0.95244 0.37048 0.58908
 C234 C 0.96217 0.37439 0.55263
 N235 N 0.95807 0.34487 0.52934
 N236 N 0.94444 0.31268 0.54197
 C237 C 0.07358 0.77374 -0.08403
 N238 N 0.05635 0.75558 -0.11270
 N239 N 0.07086 0.72385 -0.12573
 C240 C 0.10305 0.70904 -0.11052
 N241 N 0.11986 0.72718 -0.08161
 N242 N 0.10547 0.75884 -0.06867
 C243 C 0.05950 0.80975 -0.07046
 N244 N 0.08034 0.82887 -0.04498
 N245 N 0.06894 0.86202 -0.03305
 C246 C 0.03617 0.87740 -0.04599
 N247 N 0.01502 0.85824 -0.07138
 N248 N 0.02657 0.82500 -0.08350
 C249 C 0.57745 0.72791 1.08517
 N250 N 0.61018 0.74236 1.07103
 N251 N 0.62396 0.77445 1.08370
 C252 C 0.60564 0.79344 1.11112
 N253 N 0.57272 0.77900 1.12514
 N254 N 0.55884 0.74689 1.11239
 C255 C 0.56340 0.69184 1.07168
 N256 N 0.52976 0.67735 1.08382
 N257 N 0.51783 0.64424 1.07166
 C258 C 0.53928 0.62445 1.04710
 N259 N 0.57281 0.63903 1.03505
 N260 N 0.58462 0.67207 1.04705
 C261 C 0.42039 0.42202 1.22411
 N262 N 0.43490 0.38951 1.23695
 N263 N 0.42205 0.37457 1.26850
 C264 C 0.39410 0.39145 1.28856
 N265 N 0.37982 0.42420 1.27579
 N266 N 0.39274 0.43923 1.24422
 C267 C 0.43358 0.43716 1.18826
 N268 N 0.42049 0.47020 1.17509
 N269 N 0.43197 0.48297 1.14197
 C270 C 0.45679 0.46302 1.12081
 N271 N 0.46983 0.43010 1.13409
 N272 N 0.45850 0.41744 1.16714
 C273 C 0.58099 -0.07804 0.27389
 N274 N 0.60918 -0.06044 0.25487
 N275 N 0.62231 -0.07443 0.22291
 C276 C 0.60776 -0.10650 0.20867
 N277 N 0.57936 -0.12386 0.22770
 N278 N 0.56627 -0.10994 0.25966
 C279 C 0.56720 -0.06367 0.30980
 N280 N 0.54106 -0.08326 0.32959
 N281 N 0.52902 -0.07109 0.36261
 C282 C 0.54258 -0.03884 0.37713
 N283 N 0.56863 -0.01905 0.35730
 N284 N 0.58079 -0.03131 0.32422
 C285 C -0.08739 1.08018 -0.22077
 N286 N -0.07365 1.11277 -0.23421
 N287 N -0.08729 1.12708 -0.26573
 C288 C -0.11532 1.10947 -0.28513
 N289 N -0.12902 1.07677 -0.27164
 N290 N -0.11534 1.06238 -0.24007
 C291 C -0.07247 1.06517 -0.18555
 N292 N -0.08506 1.03224 -0.17166
 N293 N -0.07170 1.01942 -0.13925
 C294 C -0.04535 1.03914 -0.11963
 N295 N -0.03278 1.07193 -0.13365
 N296 N -0.04603 1.08467 -0.16598
 C297 C 1.08734 0.58160 0.72406
 N298 N 1.12510 0.58237 0.73250
 N299 N 1.13715 0.59715 0.76449
 C300 C 1.11199 0.61212 0.78910
 N301 N 1.07419 0.61160 0.78050
 N302 N 1.06208 0.59643 0.74865
 C303 C 1.07421 0.56530 0.68872
 N304 N 1.03701 0.55583 0.68385
 N305 N 1.02512 0.54139 0.65161
 C306 C 1.04993 0.53619 0.62296
 N307 N 1.08712 0.54572 0.62781
 N308 N 1.09909 0.55977 0.66019
 C309 C 0.77289 0.58644 0.57613
 N310 N 0.75397 0.61422 0.55838
 N311 N 0.72222 0.62858 0.57308
 C312 C 0.70820 0.61567 0.60602
 N313 N 0.72715 0.58772 0.62341
 N314 N 0.75879 0.57345 0.60882
 C315 C 0.80879 0.57118 0.56152
 N316 N 0.82834 0.54592 0.58204
 N317 N 0.86152 0.53253 0.57009
 C318 C 0.87645 0.54373 0.53706
 N319 N 0.85683 0.56885 0.51625
 N320 N 0.82357 0.58241 0.52832
 C321 C 0.73220 0.41409 1.07325
 N322 N 0.75712 0.43730 1.09062
 N323 N 0.78909 0.42415 1.10588
 C324 C 0.79750 0.38737 1.10391
 N325 N 0.77272 0.36431 1.08612
 N326 N 0.74059 0.37738 1.07126
 C327 C 0.69595 0.42806 1.05835
 N328 N 0.66642 0.40440 1.05202
 N329 N 0.63287 0.41712 1.04007
 C330 C 0.62780 0.45391 1.03357
 N331 N 0.65745 0.47753 1.03948
 N332 N 0.69088 0.46487 1.05187
 C333 C 0.23453 1.08491 -0.07189
 N334 N 0.24722 1.11933 -0.06273
 N335 N 0.27873 1.13304 -0.07831
 C336 C 0.29851 1.11320 -0.10420
 N337 N 0.28580 1.07856 -0.11305
 N338 N 0.25460 1.06459 -0.09703
 C339 C 0.19832 1.07102 -0.05680
 N340 N 0.19127 1.03400 -0.05465
 N341 N 0.15761 1.02161 -0.04252
 C342 C 0.12962 1.04582 -0.03274
 N343 N 0.13667 1.08282 -0.03498
 N344 N 0.17052 1.09519 -0.04652
 C345 C 0.26399 -0.08593 0.42673
 N346 N 0.24273 -0.06516 0.40295
 N347 N 0.21102 -0.07901 0.38773
 C348 C 0.19903 -0.11399 0.39605
 N349 N 0.22010 -0.13432 0.42050
 N350 N 0.25207 -0.12072 0.43529
 C351 C 0.30040 -0.07195 0.44126
 N352 N 0.32851 -0.09603 0.45090
 N353 N 0.36240 -0.08355 0.46224
 C354 C 0.36918 -0.04653 0.46492
 N355 N 0.34090 -0.02241 0.45576
 N356 N 0.30718 -0.03490 0.44385
 C357 C 0.57486 -0.22433 0.58503
 N358 N 0.59949 -0.24424 0.56371
 N359 N 0.61510 -0.27540 0.57673
 C360 C 0.60628 -0.28820 0.61139
 N361 N 0.58111 -0.26836 0.63233
 N362 N 0.56597 -0.23694 0.61957
 C363 C 0.55916 -0.18904 0.57162
 N364 N 0.55559 -0.18231 0.53452
 N365 N 0.54211 -0.14986 0.52249
 C366 C 0.53226 -0.12281 0.54710
 N367 N 0.53598 -0.12949 0.58418
 N368 N 0.54888 -0.16215 0.59623
 C369 C 1.07957 0.71640 0.40988
 N370 N 1.06051 0.73549 0.38307
 N371 N 1.07405 0.76780 0.37054
 C372 C 1.10707 0.78222 0.38439
 N373 N 1.12598 0.76296 0.41118
 N374 N 1.11256 0.73070 0.42361
 C375 C 1.06524 0.68082 0.42411
 N376 N 1.08631 0.66145 0.44915
 N377 N 1.07391 0.62913 0.46235
 C378 C 1.03987 0.61495 0.45116
 N379 N 1.01860 0.63431 0.42614
 N380 N 1.03111 0.66671 0.41280
 C381 C -0.07375 1.22499 0.08836
 N382 N -0.09765 1.24520 0.06660
 N383 N -0.11289 1.27664 0.07929
 C384 C -0.10445 1.28946 0.11406
 N385 N -0.08008 1.26927 0.13555
 N386 N -0.06530 1.23752 0.12310
 C387 C -0.05825 1.18964 0.07493
 N388 N -0.04878 1.16240 0.09940
 N389 N -0.03633 1.12963 0.08715
 C390 C -0.03228 1.12319 0.05003
 N391 N -0.04127 1.15060 0.02559
 N392 N -0.05430 1.18316 0.03782
 C393 C 0.42045 0.28168 0.90673
 N394 N 0.41871 0.27435 0.86960
 N395 N 0.40395 0.24247 0.85727
 C396 C 0.38993 0.21696 0.88160
 N397 N 0.39157 0.22444 0.91872
 N398 N 0.40669 0.25612 0.93106
 C399 C 0.43643 0.31683 0.92050
 N400 N 0.44636 0.32058 0.95693
 N401 N 0.45997 0.35271 0.96978
 C402 C 0.46382 0.38236 0.94673
 N403 N 0.45389 0.37863 0.91027
 N404 N 0.44065 0.34636 0.89734
 C405 C 0.59018 0.58793 0.77636
 N406 N 0.56518 0.60339 0.75194
 N407 N 0.57748 0.61818 0.72007
 C408 C 0.61520 0.61771 0.71128
 N409 N 0.64015 0.60208 0.73567
 N410 N 0.62790 0.58767 0.76773
 C411 C 0.57671 0.57206 0.81165
 N412 N 0.60134 0.56642 0.84035
 N413 N 0.58895 0.55283 0.87272
 C414 C 0.55158 0.54391 0.87735
 N415 N 0.52702 0.54921 0.84852
 N416 N 0.53933 0.56321 0.81630
 C417 C 0.40928 0.08462 0.72218
 N418 N 0.40542 0.06290 0.75290
 N419 N 0.39374 0.07745 0.78516
 C420 C 0.38615 0.11434 0.78797
 N421 N 0.39033 0.13606 0.75730
 N422 N 0.40143 0.12142 0.72495
 C423 C 0.42166 0.06880 0.68646
 N424 N 0.41205 0.08567 0.65394
 N425 N 0.42371 0.07186 0.62141
 C426 C 0.44585 0.04097 0.62022
 N427 N 0.45561 0.02413 0.65275
 N428 N 0.44345 0.03764 0.68530
 C429 C 0.08442 0.91634 0.22650
 N430 N 0.08853 0.93822 0.25713
 N431 N 0.09961 0.92367 0.28957
 C432 C 0.10622 0.88663 0.29264
 N433 N 0.10167 0.86476 0.26208
 N434 N 0.09119 0.87938 0.22956
 C435 C 0.07323 0.93218 0.19049
 N436 N 0.08345 0.91503 0.15827
 N437 N 0.07285 0.92885 0.12542
 C438 C 0.05122 0.96005 0.12363
 N439 N 0.04089 0.97717 0.15586
 N440 N 0.05201 0.96366 0.18873
 C441 C 0.91470 0.41572 0.27687
 N442 N 0.92788 0.38266 0.26411
 N443 N 0.91571 0.36894 0.23173
 C444 C 0.88980 0.38765 0.21075
 N445 N 0.87665 0.42084 0.22354
 N446 N 0.88889 0.43466 0.25598
 C447 C 0.92809 0.43005 0.31295
 N448 N 0.91678 0.46375 0.32601
 N449 N 0.92911 0.47613 0.35901
 C450 C 0.95308 0.45515 0.38008
 N451 N 0.96429 0.42154 0.36695
 N452 N 0.95208 0.40925 0.33403
   
