data_POSCAR
  _audit_creation_date              2014-09-24
  _audit_creation_method            'ToBaCCo'
  _symmetry_space_group_name_H-M    'P1'
  _symmetry_Int_Tables_number       1
  _symmetry_cell_setting            triclinic
  loop_
  _symmetry_equiv_pos_as_xyz
 x,y,z
_cell_length_a 27.6427
_cell_length_b 26.0948
_cell_length_c 66.2348
_cell_angle_alpha 85.939500
_cell_angle_beta 87.598100
_cell_angle_gamma 117.524100
loop_
  _atom_site_label
  _atom_site_type_symbol
  _atom_site_fract_x
  _atom_site_fract_y
  _atom_site_fract_z
C1 C -0.06476 0.10121 0.49644
 H2 H -0.03647 0.10886 0.48348
 C3 C -0.05561 0.14636 0.50831
 H4 H -0.02018 0.18825 0.50430
 C5 C -0.14488 0.03773 0.51739
 H6 H -0.17865 -0.00540 0.52120
 C7 C -0.13677 0.08147 0.52993
 H8 H -0.16447 0.07131 0.54338
 N9 N -0.10656 0.04708 0.50203
 C10 C -0.10575 -0.12109 0.50674
 H11 H -0.10606 -0.13013 0.49104
 C12 C -0.10848 -0.16221 0.52214
 H13 H -0.11150 -0.20314 0.51825
 C14 C -0.10144 -0.05697 0.53097
 H15 H -0.09659 -0.01529 0.53449
 C16 C -0.10444 -0.09672 0.54676
 H17 H -0.10295 -0.08539 0.56223
 Zn18 Zn -0.10648 -0.01769 0.49050
 N19 N -0.10459 -0.07059 0.51145
 C20 C 0.00707 0.03706 0.48001
 N21 N -0.04259 0.00807 0.47253
 C22 C -0.04667 -0.00053 0.45253
 C23 C 0.00010 0.02385 0.43895
 C24 C 0.05489 0.06287 0.46691
 C25 C -0.17712 -0.01956 0.46129
 C26 C -0.21670 -0.04429 0.44761
 C27 C -0.24313 -0.13844 0.46532
 C28 C -0.20343 -0.11158 0.47879
 N29 N -0.16948 -0.05356 0.47591
 H30 H 0.00924 0.04237 0.49605
 H31 H -0.08626 -0.02502 0.44692
 H32 H -0.00418 0.01869 0.42294
 H33 H 0.09395 0.08776 0.47295
 H34 H -0.15072 0.02689 0.45973
 H35 H -0.22100 -0.01444 0.43661
 H36 H -0.26506 -0.18519 0.46767
 H37 H -0.19822 -0.13791 0.49093
 C38 C -0.10939 -0.15066 0.54249
 C39 C -0.08973 0.13564 0.52611
 C40 C -0.24906 -0.10552 0.44847
 C41 C 0.05153 0.05735 0.44602
 C42 C 1.13385 0.01983 0.14948
 H43 H 1.14100 0.06311 0.15210
 C44 C 1.17012 0.01269 0.13611
 H45 H 1.20519 0.05075 0.12862
 C46 C 1.07694 -0.08202 0.15471
 H47 H 1.04000 -0.11870 0.16163
 C48 C 1.11190 -0.09110 0.14125
 H49 H 1.10181 -0.13492 0.13810
 N50 N 1.08799 -0.02712 0.15830
 C51 C 0.94102 -0.00562 0.16061
 H52 H 0.93284 -0.00404 0.17661
 C53 C 0.90282 -0.00823 0.14694
 H54 H 0.86532 -0.00833 0.15243
 C55 C 0.99836 -0.01067 0.13403
 H56 H 1.03523 -0.01229 0.12900
 C57 C 0.96118 -0.01409 0.11998
 H58 H 0.97004 -0.01787 0.10423
 Zn59 Zn 1.03530 -0.01288 0.17267
 N60 N 0.98748 -0.00738 0.15397
 C61 C 1.05399 0.09707 0.18513
 N62 N 1.07212 0.05665 0.18521
 C63 C 1.11584 0.06271 0.19542
 C64 C 1.14201 0.10977 0.20669
 C65 C 1.07866 0.14461 0.19643
 C66 C 0.95369 -0.12579 0.18723
 C67 C 0.91816 -0.17012 0.20188
 C68 C 0.96354 -0.10888 0.22796
 C69 C 0.99805 -0.06583 0.21285
 N70 N 0.99260 -0.07480 0.19291
 H71 H 1.01940 0.09166 0.17684
 H72 H 1.12919 0.02975 0.19534
 H73 H 1.17537 0.11254 0.21534
 H74 H 1.06291 0.17564 0.19671
 H75 H 0.94917 -0.13141 0.17127
 H76 H 0.88718 -0.21023 0.19706
 H77 H 0.96759 -0.09994 0.24369
 H78 H 1.02819 -0.02472 0.21716
 C79 C 0.91236 -0.01385 0.12644
 C80 C 1.15866 -0.04326 0.13150
 C81 C 0.92252 -0.16169 0.22258
 C82 C 1.12278 0.15085 0.20762
 C83 C 0.14450 0.97706 0.85203
 H84 H 0.11542 0.93817 0.84597
 C85 C 0.17970 0.97322 0.86576
 H86 H 0.17827 0.93153 0.86974
 C87 C 0.17849 1.07740 0.85547
 H88 H 0.17632 1.11732 0.85199
 C89 C 0.21451 1.07541 0.86942
 H90 H 0.23989 1.11399 0.87657
 N91 N 0.14348 1.02818 0.84751
 C92 C -0.02260 1.00574 0.84893
 H93 H -0.02967 1.01018 0.83311
 C94 C -0.05908 1.00659 0.86412
 H95 H -0.09388 1.01170 0.85958
 C96 C 0.03443 0.99955 0.87361
 H97 H 0.07111 0.99750 0.87742
 C98 C 0.00005 1.00148 0.88912
 H99 H 0.01043 0.99866 0.90459
 Zn100 Zn 0.08223 1.02220 0.83390
 N101 N 0.02403 1.00424 0.85390
 C102 C 0.01424 0.92028 0.81446
 N103 N 0.06546 0.96416 0.81589
 C104 C 0.10894 0.97043 0.80366
 C105 C 0.10169 0.93356 0.78862
 C106 C 0.00507 0.88209 0.79950
 C107 C 0.09867 1.13789 0.82885
 C108 C 0.09804 1.18591 0.81824
 C109 C 0.09361 1.14146 0.78715
 C110 C 0.09417 1.09447 0.79831
 N111 N 0.09584 1.09293 0.81883
 H112 H -0.01964 0.91593 0.82447
 H113 H 0.14926 1.00543 0.80526
 H114 H 0.13682 0.94009 0.77881
 H115 H -0.03611 0.84867 0.79793
 H116 H 0.09836 1.13506 0.84523
 H117 H 0.09868 1.22047 0.82653
 H118 H 0.08928 1.13991 0.77101
 H119 H 0.09027 1.05795 0.79056
 C120 C -0.04627 1.00798 0.88455
 C121 C 0.21375 1.02220 0.87524
 C122 C 0.09426 1.18747 0.79712
 C123 C 0.04908 0.88959 0.78605
 C124 C 0.44483 0.04431 0.00416
 C125 C 0.47574 0.05614 -0.01448
 C126 C 0.52747 0.05811 -0.01489
 C127 C 0.54701 0.04445 0.00304
 C128 C 0.51397 0.03103 0.02148
 C129 C 0.46392 0.03250 0.02220
 C130 C 0.60041 0.04213 0.00266
 C131 C 0.62817 0.04804 0.02050
 C132 C 0.67446 0.03938 0.02102
 C133 C 0.69594 0.02923 0.00316
 C134 C 0.67219 0.02767 -0.01524
 C135 C 0.62339 0.03218 -0.01523
 H136 H 0.40600 0.04524 0.00464
 H137 H 0.55148 0.06928 -0.02931
 H138 H 0.52583 0.01788 0.03546
 H139 H 0.61360 0.05820 0.03427
 H140 H 0.73193 0.02288 0.00364
 H141 H 0.60377 0.02785 -0.02921
 C142 C -0.05520 0.60398 0.66759
 C143 C -0.05009 0.57784 0.68608
 C144 C -0.04823 0.52482 0.68635
 C145 C -0.04873 0.49958 0.66816
 C146 C -0.05145 0.52831 0.64972
 C147 C -0.05555 0.57986 0.64935
 C148 C -0.04390 0.44494 0.66795
 C149 C -0.06857 0.40671 0.65314
 C150 C -0.05796 0.35990 0.65072
 C151 C -0.02502 0.34894 0.66401
 C152 C -0.00234 0.38444 0.67957
 C153 C -0.01159 0.43257 0.68143
 H154 H -0.05746 0.64438 0.66730
 H155 H -0.04523 0.50411 0.70064
 H156 H -0.04992 0.51102 0.63547
 H157 H -0.09452 0.41441 0.64287
 H158 H -0.01747 0.31216 0.66234
 H159 H 0.00843 0.46146 0.69280
 C160 C 0.58571 0.61930 0.33417
 C161 C 0.57554 0.58949 0.31678
 C162 C 0.52590 0.53876 0.31635
 C163 C 0.48530 0.51870 0.33276
 C164 C 0.49609 0.55023 0.34992
 C165 C 0.54643 0.60001 0.35086
 C166 C 0.43190 0.46531 0.33187
 C167 C 0.40246 0.42970 0.34974
 C168 C 0.35217 0.37973 0.34897
 C169 C 0.33191 0.36454 0.33004
 C170 C 0.36100 0.39833 0.31204
 C171 C 0.41022 0.44910 0.31308
 H172 H 0.62441 0.65794 0.33466
 H173 H 0.51968 0.51471 0.30321
 H174 H 0.46509 0.53704 0.36246
 H175 H 0.41902 0.43977 0.36430
 H176 H 0.29347 0.32579 0.32925
 H177 H 0.43101 0.47602 0.29910
 C178 C -0.11001 0.18556 0.55416
 C179 C -0.09284 0.22014 0.57040
 C180 C -0.03693 0.24676 0.57426
 C181 C 0.00092 0.23959 0.56168
 C182 C -0.01641 0.20510 0.54570
 C183 C -0.07198 0.17721 0.54183
 C184 C -0.01968 0.27936 0.59084
 C185 C -0.05749 0.28595 0.60369
 C186 C -0.11324 0.26063 0.59969
 C187 C -0.13063 0.22774 0.58307
 C188 C -0.15054 0.26856 0.61247
 C189 C -0.13274 0.30099 0.62908
 C190 C -0.07760 0.32519 0.63332
 C191 C -0.04021 0.31759 0.62051
 H192 H -0.15289 0.16461 0.55130
 H193 H 0.04386 0.25964 0.56446
 H194 H 0.01369 0.19851 0.53684
 H195 H 0.02315 0.29918 0.59386
 H196 H -0.17348 0.20773 0.58011
 H197 H -0.19339 0.24975 0.60963
 H198 H -0.16210 0.30662 0.63878
 H199 H 0.00261 0.33711 0.62351
 C200 C 0.82651 0.76541 0.23551
 C201 C 0.78795 0.72926 0.25142
 C202 C 0.80573 0.72140 0.27056
 C203 C 0.86182 0.74804 0.27324
 C204 C 0.89987 0.78420 0.25738
 C205 C 0.88262 0.79432 0.23851
 C206 C 0.76716 0.68858 0.28688
 C207 C 0.71098 0.66424 0.28439
 C208 C 0.69319 0.67047 0.26508
 C209 C 0.73180 0.70263 0.24869
 C210 C 0.63699 0.64587 0.26265
 C211 C 0.59875 0.61752 0.27936
 C212 C 0.61601 0.61317 0.29877
 C213 C 0.67228 0.63545 0.30107
 H214 H 0.81254 0.77324 0.22112
 H215 H 0.87621 0.74204 0.28774
 H216 H 0.94289 0.80507 0.25998
 H217 H 0.78083 0.68352 0.30166
 H218 H 0.71810 0.70835 0.23398
 H219 H 0.62262 0.64998 0.24795
 H220 H 0.55564 0.60099 0.27724
 H221 H 0.68593 0.63155 0.31594
 C222 C 0.29744 0.05526 -0.10500
 C223 C 0.32347 0.04778 -0.08803
 C224 C 0.29381 0.00038 -0.07307
 C225 C 0.23929 -0.03883 -0.07532
 C226 C 0.21405 -0.03141 -0.09220
 C227 C 0.24264 0.01543 -0.10721
 C228 C 0.31882 -0.00713 -0.05599
 C229 C 0.37329 0.03191 -0.05358
 C230 C 0.40362 0.07891 -0.06854
 C231 C 0.37845 0.08667 -0.08570
 C232 C 0.45847 0.11734 -0.06596
 C233 C 0.48260 0.10968 -0.04858
 C234 C 0.45213 0.06373 -0.03347
 C235 C 0.39767 0.02469 -0.03625
 H236 H 0.31977 0.09144 -0.11652
 H237 H 0.21604 -0.07520 -0.06395
 H238 H 0.17154 -0.06200 -0.09338
 H239 H 0.29575 -0.04330 -0.04450
 H240 H 0.40149 0.12289 -0.09716
 H241 H 0.48252 0.15354 -0.07728
 H242 H 0.52464 0.14036 -0.04671
 H243 H 0.37417 -0.01153 -0.02484
 C244 C -0.08513 0.77577 0.55923
 C245 C -0.08903 0.73799 0.57617
 C246 C -0.12553 0.72916 0.59325
 C247 C -0.15802 0.75737 0.59302
 C248 C -0.15330 0.79542 0.57630
 C249 C -0.11641 0.80560 0.55940
 C250 C -0.12811 0.69344 0.61050
 C251 C -0.09386 0.66727 0.61112
 C252 C -0.05784 0.67529 0.59401
 C253 C -0.05597 0.71022 0.57655
 C254 C -0.02342 0.64924 0.59485
 C255 C -0.02354 0.61703 0.61267
 C256 C -0.05830 0.61005 0.62991
 C257 C -0.09413 0.63444 0.62884
 H258 H -0.05638 0.78369 0.54629
 H259 H -0.18636 0.75087 0.60594
 H260 H -0.17835 0.81733 0.57660
 H261 H -0.15574 0.68724 0.62364
 H262 H -0.02794 0.71689 0.56350
 H263 H 0.00445 0.65484 0.58190
 H264 H 0.00478 0.59907 0.61317
 H265 H -0.12171 0.62854 0.64195
 C266 C 0.20284 0.22686 0.22299
 C267 C 0.22432 0.26371 0.23832
 C268 C 0.18847 0.27096 0.25234
 C269 C 0.13207 0.24349 0.25016
 C270 C 0.11103 0.20670 0.23491
 C271 C 0.14600 0.19680 0.22156
 C272 C 0.20928 0.30360 0.26874
 C273 C 0.26537 0.32836 0.27146
 C274 C 0.30153 0.32335 0.25693
 C275 C 0.28082 0.29141 0.24036
 C276 C 0.35761 0.34847 0.25966
 C277 C 0.37730 0.37557 0.27715
 C278 C 0.34129 0.37807 0.29219
 C279 C 0.28555 0.35591 0.28894
 H280 H 0.23013 0.21998 0.21258
 H281 H 0.10405 0.24883 0.26069
 H282 H 0.06709 0.18376 0.23417
 H283 H 0.18159 0.30787 0.27978
 H284 H 0.30840 0.28631 0.22951
 H285 H 0.38595 0.34537 0.24861
 H286 H 0.42035 0.39212 0.27938
 H287 H 0.25764 0.35837 0.30037
 C288 C 0.86737 0.00219 -0.10045
 C289 C 0.83907 0.01433 -0.08483
 C290 C 0.86833 0.04721 -0.06932
 C291 C 0.92446 0.06597 -0.06923
 C292 C 0.95176 0.05192 -0.08420
 C293 C 0.92407 0.01994 -0.10012
 C294 C 0.84107 0.06006 -0.05382
 C295 C 0.78426 0.03802 -0.05291
 C296 C 0.75416 0.00374 -0.06795
 C297 C 0.78192 -0.00692 -0.08412
 C298 C 0.69682 -0.02020 -0.06619
 C299 C 0.66972 -0.01187 -0.04932
 C300 C 0.69961 0.02173 -0.03418
 C301 C 0.75710 0.04818 -0.03663
 H302 H 0.84461 -0.02346 -0.11218
 H303 H 0.94738 0.09133 -0.05745
 H304 H 0.99552 0.06888 -0.08367
 H305 H 0.86392 0.08564 -0.04205
 H306 H 0.75900 -0.03294 -0.09578
 H307 H 0.67285 -0.04681 -0.07751
 H308 H 0.62542 -0.03312 -0.04788
 H309 H 0.78107 0.07586 -0.02553
 C310 C 0.25011 -0.01839 0.11392
 C311 C 0.28196 -0.02008 0.09716
 C312 C 0.25605 -0.05466 0.08149
 C313 C 0.19901 -0.08869 0.08327
 C314 C 0.16764 -0.08677 0.10000
 C315 C 0.19272 -0.05074 0.11525
 C316 C 0.28736 -0.05343 0.06407
 C317 C 0.34423 -0.01784 0.06205
 C318 C 0.37039 0.01501 0.07806
 C319 C 0.33911 0.01357 0.09553
 C320 C 0.42735 0.04991 0.07609
 C321 C 0.45790 0.05387 0.05816
 C322 C 0.43202 0.02325 0.04187
 C323 C 0.37522 -0.01341 0.04406
 H324 H 0.26980 0.00906 0.12573
 H325 H 0.17851 -0.11563 0.07145
 H326 H 0.12349 -0.11166 0.10059
 H327 H 0.26733 -0.07905 0.05188
 H328 H 0.35907 0.03970 0.10761
 H329 H 0.44812 0.07512 0.08824
 H330 H 0.50161 0.08253 0.05674
 H331 H 0.35511 -0.03771 0.03163
 C332 C 0.67921 0.80843 0.43550
 C333 C 0.65257 0.77988 0.41894
 C334 C 0.66261 0.81143 0.39973
 C335 C 0.69744 0.87115 0.39753
 C336 C 0.72495 0.89912 0.41385
 C337 C 0.71837 0.86833 0.43321
 C338 C 0.63921 0.78257 0.38284
 C339 C 0.60704 0.72205 0.38484
 C340 C 0.59553 0.69041 0.40418
 C341 C 0.61763 0.71965 0.42118
 C342 C 0.56384 0.62979 0.40604
 C343 C 0.54601 0.60054 0.38877
 C344 C 0.55911 0.63142 0.36937
 C345 C 0.58818 0.69246 0.36764
 H346 H 0.66846 0.78279 0.45004
 H347 H 0.70539 0.89608 0.38286
 H348 H 0.75419 0.94427 0.41028
 H349 H 0.64788 0.80690 0.36800
 H350 H 0.60959 0.69519 0.43595
 H351 H 0.55446 0.60482 0.42075
 H352 H 0.52392 0.55353 0.39053
 H353 H 0.59759 0.71688 0.35282
 C354 C 0.10694 0.25265 0.76541
 C355 C 0.08938 0.28593 0.75318
 C356 C 0.05070 0.30160 0.76148
 C357 C 0.03202 0.28566 0.78209
 C358 C 0.04868 0.25126 0.79404
 C359 C 0.08497 0.23288 0.78567
 C360 C 0.02937 0.33035 0.74883
 C361 C 0.04486 0.34176 0.72787
 C362 C 0.08478 0.32752 0.71974
 C363 C 0.10753 0.30075 0.73250
 C364 C 0.09938 0.33765 0.69878
 C365 C 0.07251 0.35855 0.68583
 C366 C 0.03129 0.37070 0.69363
 C367 C 0.01897 0.36419 0.71475
 H368 H 0.13571 0.23970 0.75886
 H369 H 0.00253 0.29744 0.78874
 H370 H 0.03072 0.23642 0.80953
 H371 H -0.00120 0.34122 0.75511
 H372 H 0.13722 0.28874 0.72615
 H373 H 0.13007 0.32729 0.69231
 H374 H 0.08293 0.36389 0.66960
 H375 H -0.01309 0.37314 0.72082
 C376 C 0.84820 0.01556 0.10935
 C377 C 0.81263 0.00949 0.09406
 C378 C 0.79867 -0.03635 0.08156
 C379 C 0.81962 -0.07565 0.08469
 C380 C 0.85565 -0.06862 0.09959
 C381 C 0.87084 -0.02269 0.11184
 C382 C 0.76529 -0.04135 0.06573
 C383 C 0.74675 -0.00027 0.06179
 C384 C 0.75982 0.04518 0.07435
 C385 C 0.79223 0.04943 0.09058
 C386 C 0.74139 0.08641 0.07005
 C387 C 0.71213 0.08380 0.05305
 C388 C 0.70061 0.03974 0.04017
 C389 C 0.71683 -0.00301 0.04501
 H390 H 0.86004 0.05121 0.11872
 H391 H 0.80913 -0.11108 0.07530
 H392 H 0.87217 -0.09892 0.10148
 H393 H 0.75521 -0.07616 0.05605
 H394 H 0.80285 0.08465 0.10010
 H395 H 0.75083 0.12150 0.07952
 H396 H 0.70012 0.11729 0.04960
 H397 H 0.70717 -0.03785 0.03539
 C398 C 0.13533 0.14894 0.43277
 C399 C 0.17734 0.18186 0.41745
 C400 C 0.18541 0.15480 0.40080
 C401 C 0.15221 0.09511 0.40000
 C402 C 0.10983 0.06295 0.41509
 C403 C 0.10044 0.08968 0.43141
 C404 C 0.22509 0.18816 0.38486
 C405 C 0.25569 0.24850 0.38506
 C406 C 0.24843 0.27546 0.40188
 C407 C 0.20979 0.24184 0.41810
 C408 C 0.27865 0.33590 0.40185
 C409 C 0.31388 0.36964 0.38494
 C410 C 0.31993 0.34349 0.36784
 C411 C 0.29186 0.28258 0.36832
 H412 H 0.12793 0.17009 0.44517
 H413 H 0.15798 0.07365 0.38739
 H414 H 0.08372 0.01725 0.41385
 H415 H 0.23067 0.16750 0.37195
 H416 H 0.20361 0.26264 0.43087
 H417 H 0.27370 0.35729 0.41463
 H418 H 0.33476 0.41643 0.38493
 H419 H 0.29704 0.26176 0.35540
 C420 C 0.00785 0.79412 0.77069
 C421 C 0.00261 0.76204 0.75395
 C422 C 0.03012 0.79144 0.73488
 C423 C 0.06179 0.85187 0.73276
 C424 C 0.06697 0.88320 0.74939
 C425 C 0.04067 0.85485 0.76853
 C426 C 0.02575 0.76017 0.71817
 C427 C -0.00598 0.69973 0.72011
 C428 C -0.03374 0.66983 0.73903
 C429 C -0.02920 0.70121 0.75590
 C430 C -0.06564 0.60913 0.74063
 C431 C -0.07057 0.57868 0.72356
 C432 C -0.04359 0.60846 0.70465
 C433 C -0.01059 0.66895 0.70324
 H434 H -0.01246 0.77192 0.78541
 H435 H 0.08277 0.87497 0.71822
 H436 H 0.09160 0.92998 0.74727
 H437 H 0.04693 0.78295 0.70360
 H438 H -0.05038 0.67841 0.77046
 H439 H -0.08724 0.58532 0.75499
 H440 H -0.09638 0.53209 0.72505
 H441 H 0.01160 0.69233 0.68888
   
