data_POSCAR
  _audit_creation_date              2014-09-24
  _audit_creation_method            'ToBaCCo'
  _symmetry_space_group_name_H-M    'P1'
  _symmetry_Int_Tables_number       1
  _symmetry_cell_setting            triclinic
  loop_
  _symmetry_equiv_pos_as_xyz
 x,y,z
_cell_length_a 35.1110
_cell_length_b 36.6314
_cell_length_c 25.3429
_cell_angle_alpha 89.820500
_cell_angle_beta 90.015000
_cell_angle_gamma 90.035900
loop_
  _atom_site_label
  _atom_site_type_symbol
  _atom_site_fract_x
  _atom_site_fract_y
  _atom_site_fract_z
C1 C 1.28323 0.21085 0.26953
 C2 C 1.25127 0.23012 0.25123
 C3 C 1.21938 0.21076 0.23307
 C4 C 1.21946 0.17263 0.23314
 C5 C 1.25133 0.15352 0.25146
 C6 C 1.28323 0.17267 0.26970
 C7 C 1.25124 0.27038 0.25093
 C8 C 1.28312 0.28971 0.23252
 C9 C 1.28298 0.32788 0.23196
 C10 C 1.25100 0.34698 0.24995
 C11 C 1.21918 0.32780 0.26840
 C12 C 1.21925 0.28967 0.26885
 H13 H 1.30776 0.22558 0.28447
 H14 H 1.19479 0.22534 0.21796
 H15 H 1.30770 0.27503 0.21770
 H16 H 1.19469 0.27504 0.28398
 H17 H 1.25126 0.12389 0.25146
 H18 H 1.25080 0.37660 0.24959
 C19 C 0.78222 -0.29005 0.26842
 C20 C 0.75017 -0.27074 0.25060
 C21 C 0.71823 -0.29004 0.23250
 C22 C 0.71837 -0.32816 0.23218
 C23 C 0.75036 -0.34733 0.24998
 C24 C 0.78230 -0.32821 0.26813
 C25 C 0.75009 -0.23049 0.25075
 C26 C 0.78205 -0.21106 0.23286
 C27 C 0.78193 -0.17293 0.23290
 C28 C 0.74994 -0.15392 0.25083
 C29 C 0.71801 -0.17318 0.26871
 C30 C 0.71804 -0.21131 0.26868
 H31 H 0.80678 -0.27537 0.28337
 H32 H 0.69357 -0.27543 0.21773
 H33 H 0.80671 -0.22555 0.21799
 H34 H 0.69342 -0.22600 0.28347
 H35 H 0.75034 -0.37696 0.24967
 H36 H 0.74988 -0.12431 0.25084
 C37 C 0.78256 0.21154 -0.23270
 C38 C 0.75058 0.23076 -0.25092
 C39 C 0.71865 0.21138 -0.26890
 C40 C 0.71877 0.17325 -0.26869
 C41 C 0.75071 0.15420 -0.25046
 C42 C 0.78257 0.17342 -0.23246
 C43 C 0.75051 0.27099 -0.25117
 C44 C 0.78243 0.29034 -0.26938
 C45 C 0.78233 0.32850 -0.26964
 C46 C 0.75036 0.34757 -0.25161
 C47 C 0.71851 0.32835 -0.23340
 C48 C 0.71853 0.29023 -0.23320
 H49 H 0.80714 0.22620 -0.21783
 H50 H 0.69402 0.22591 -0.28394
 H51 H 0.80702 0.27569 -0.28423
 H52 H 0.69396 0.27559 -0.21816
 H53 H 0.75076 0.12459 -0.25028
 H54 H 0.75021 0.37720 -0.25171
 C55 C 1.28213 -0.29022 -0.23113
 C56 C 1.25010 -0.27084 -0.24881
 C57 C 1.21806 -0.29004 -0.26672
 C58 C 1.21807 -0.32814 -0.26692
 C59 C 1.25004 -0.34741 -0.24932
 C60 C 1.28208 -0.32836 -0.23143
 C61 C 1.25015 -0.23064 -0.24868
 C62 C 1.28220 -0.21131 -0.26644
 C63 C 1.28219 -0.17320 -0.26635
 C64 C 1.25022 -0.15409 -0.24863
 C65 C 1.21822 -0.17327 -0.23093
 C66 C 1.21813 -0.21138 -0.23089
 H67 H 1.30678 -0.27561 -0.21630
 H68 H 1.19340 -0.27537 -0.28141
 H69 H 1.30686 -0.22586 -0.28123
 H70 H 1.19344 -0.22600 -0.21618
 H71 H 1.24992 -0.37703 -0.24959
 H72 H 1.25025 -0.12448 -0.24863
 C73 C 0.20891 0.27931 0.72932
 C74 C 0.22922 0.25002 0.75164
 C75 C 0.20907 0.22055 0.77382
 C76 C 0.16907 0.22047 0.77428
 C77 C 0.14908 0.24969 0.75131
 C78 C 0.16896 0.27904 0.72854
 C79 C 0.27146 0.25017 0.75162
 C80 C 0.29164 0.27963 0.77354
 C81 C 0.33164 0.27971 0.77396
 C82 C 0.35161 0.25049 0.75120
 C83 C 0.33170 0.22115 0.72869
 C84 C 0.29175 0.22090 0.72951
 H85 H 0.22425 0.30198 0.71173
 H86 H 0.22461 0.19801 0.79144
 H87 H 0.27611 0.30216 0.79099
 H88 H 0.27639 0.19823 0.71212
 H89 H 0.11818 0.24965 0.75108
 H90 H 0.38250 0.25053 0.75095
 C91 C 0.70783 0.77956 0.72826
 C92 C 0.72800 0.75012 0.75039
 C93 C 0.70773 0.72065 0.77235
 C94 C 0.66773 0.72071 0.77280
 C95 C 0.64784 0.75008 0.75004
 C96 C 0.66784 0.77946 0.72744
 C97 C 0.77025 0.75011 0.75041
 C98 C 0.79054 0.77944 0.77248
 C99 C 0.83051 0.77937 0.77295
 C100 C 0.85039 0.75016 0.75013
 C101 C 0.83041 0.72093 0.72745
 C102 C 0.79045 0.72080 0.72820
 H103 H 0.72335 0.80221 0.71086
 H104 H 0.72318 0.69800 0.78982
 H105 H 0.77519 0.80202 0.79005
 H106 H 0.77503 0.69823 0.71068
 H107 H 0.61693 0.75006 0.74988
 H108 H 0.88127 0.75017 0.75000
 C109 C 0.70910 0.27934 0.22697
 C110 C 0.72933 0.24996 0.24915
 C111 C 0.70913 0.22055 0.27134
 C112 C 0.66919 0.22064 0.27194
 C113 C 0.64924 0.24990 0.24918
 C114 C 0.66916 0.27918 0.22640
 C115 C 0.77151 0.25002 0.24922
 C116 C 0.79167 0.27944 0.27120
 C117 C 0.83161 0.27937 0.27191
 C118 C 0.85160 0.25013 0.24946
 C119 C 0.83172 0.22083 0.22689
 C120 C 0.79178 0.22066 0.22736
 H121 H 0.72447 0.30199 0.20939
 H122 H 0.72453 0.19794 0.28894
 H123 H 0.77625 0.30205 0.28855
 H124 H 0.77644 0.19800 0.20994
 H125 H 0.61836 0.24987 0.24920
 H126 H 0.88249 0.25017 0.24956
 C127 C 0.20795 0.77936 0.22748
 C128 C 0.22811 0.75000 0.24982
 C129 C 0.20786 0.72069 0.27220
 C130 C 0.16788 0.72083 0.27289
 C131 C 0.14797 0.75011 0.24991
 C132 C 0.16797 0.77933 0.22688
 C133 C 0.27032 0.74996 0.24984
 C134 C 0.29057 0.77914 0.27231
 C135 C 0.33052 0.77899 0.27299
 C136 C 0.35043 0.74987 0.24998
 C137 C 0.33045 0.72079 0.22689
 C138 C 0.29050 0.72073 0.22744
 H139 H 0.22349 0.80190 0.20981
 H140 H 0.22332 0.69812 0.28986
 H141 H 0.27520 0.80165 0.29004
 H142 H 0.27507 0.69825 0.20968
 H143 H 0.11706 0.75016 0.24995
 H144 H 0.38131 0.74985 0.25003
 N145 N 1.06830 0.03789 0.05685
 N146 N 1.09586 0.06101 0.06803
 N147 N 1.04169 -0.03894 0.09396
 N148 N 1.04769 -0.06561 0.12820
 N149 N 1.06806 -0.03889 0.05717
 N150 N 1.09273 -0.06555 0.06540
 N151 N 1.04239 0.03781 0.09423
 N152 N 1.05182 0.06087 0.13206
 C153 C 1.08480 0.07556 0.11434
 C154 C 1.07948 -0.08201 0.10965
 N155 N 0.93349 -0.03819 0.05693
 N156 N 0.90594 -0.06133 0.06819
 N157 N 0.96009 0.03848 0.09400
 N158 N 0.95407 0.06496 0.12828
 N159 N 0.93367 0.03853 0.05727
 N160 N 0.90894 0.06508 0.06556
 N161 N 0.95944 -0.03824 0.09428
 N162 N 0.95003 -0.06141 0.13217
 Mn163 Mn 1.00090 -0.00022 0.09467
 C164 C 0.91705 -0.07603 0.11451
 C165 C 0.92221 0.08135 0.10976
 N166 N 1.06792 -0.03803 -0.05644
 N167 N 1.09514 -0.06149 -0.06744
 N168 N 1.04169 0.03889 -0.09352
 N169 N 1.04782 0.06553 -0.12779
 N170 N 1.06812 0.03873 -0.05679
 N171 N 1.09294 0.06528 -0.06509
 N172 N 1.04194 -0.03785 -0.09374
 N173 N 1.05096 -0.06119 -0.13135
 Mn174 Mn 1.06842 -0.00007 0.00019
 C175 C 1.08376 -0.07612 -0.11356
 C176 C 1.07974 0.08180 -0.10931
 N177 N 0.93350 0.03829 -0.05628
 N178 N 0.90607 0.06159 -0.06737
 N179 N 0.95971 -0.03841 -0.09352
 N180 N 0.95347 -0.06482 -0.12790
 N181 N 0.93338 -0.03848 -0.05669
 N182 N 0.90850 -0.06494 -0.06502
 N183 N 0.95941 0.03835 -0.09365
 N184 N 0.95013 0.06168 -0.13138
 Mn185 Mn 0.93320 0.00004 0.00031
 Mn186 Mn 1.00069 0.00025 -0.09416
 Cl187 Cl 1.00080 0.00000 0.00026
 C188 C 0.91725 0.07638 -0.11361
 C189 C 0.92157 -0.08118 -0.10936
 N190 N 1.06703 0.53840 0.55643
 N191 N 1.09442 0.56164 0.56778
 N192 N 1.04058 0.46146 0.59325
 N193 N 1.04665 0.43486 0.62760
 N194 N 1.06709 0.46164 0.55665
 N195 N 1.09191 0.43514 0.56512
 N196 N 1.04100 0.53818 0.59365
 N197 N 1.05016 0.56126 0.63154
 C198 C 1.08309 0.57611 0.61401
 C199 C 1.07862 0.41863 0.60930
 N200 N 0.93246 0.46214 0.55561
 N201 N 0.90487 0.43899 0.56666
 N202 N 0.95879 0.53879 0.59309
 N203 N 0.95260 0.56517 0.62749
 N204 N 0.93250 0.53891 0.55618
 N205 N 0.90770 0.56541 0.56448
 N206 N 0.95830 0.46204 0.59308
 N207 N 0.94880 0.43881 0.63087
 Mn208 Mn 0.99967 0.50011 0.59381
 C209 C 0.91587 0.42422 0.61299
 C210 C 0.92077 0.58159 0.60889
 N211 N 1.06745 0.46257 0.44302
 N212 N 1.09499 0.43944 0.43198
 N213 N 1.04103 0.53944 0.40591
 N214 N 1.04715 0.56610 0.37169
 N215 N 1.06734 0.53935 0.44280
 N216 N 1.09210 0.56599 0.43465
 N217 N 1.04162 0.46269 0.40552
 N218 N 1.05110 0.43963 0.36771
 Mn219 Mn 1.06755 0.50050 0.49973
 C220 C 1.08401 0.42491 0.38560
 C221 C 1.07895 0.58247 0.39035
 N222 N 0.93278 0.53872 0.44256
 N223 N 0.90522 0.56179 0.43119
 N224 N 0.95932 0.46206 0.40544
 N225 N 0.95337 0.43555 0.37116
 N226 N 0.93283 0.46199 0.44206
 N227 N 0.90812 0.43540 0.43370
 N228 N 0.95875 0.53877 0.40526
 N229 N 0.94934 0.56189 0.36728
 Mn230 Mn 0.93234 0.50045 0.49909
 Mn231 Mn 1.00018 0.50074 0.40498
 Cl232 Cl 0.99994 0.50044 0.49940
 C233 C 0.91633 0.57647 0.38487
 C234 C 0.92148 0.41913 0.38955
 N235 N 0.56766 0.03769 0.55682
 N236 N 0.59518 0.06092 0.56762
 N237 N 0.54106 -0.03898 0.59452
 N238 N 0.54714 -0.06551 0.62896
 N239 N 0.56734 -0.03909 0.55761
 N240 N 0.59202 -0.06573 0.56595
 N241 N 0.54180 0.03778 0.59425
 N242 N 0.55121 0.06109 0.63176
 C243 C 0.58413 0.07572 0.61377
 C244 C 0.57888 -0.08201 0.61039
 N245 N 0.43282 -0.03812 0.55782
 N246 N 0.40546 -0.06145 0.56908
 N247 N 0.45954 0.03863 0.59442
 N248 N 0.45359 0.06515 0.62868
 N249 N 0.43302 0.03864 0.55781
 N250 N 0.40832 0.06521 0.56617
 N251 N 0.45886 -0.03810 0.59503
 N252 N 0.44975 -0.06143 0.63284
 Mn253 Mn 0.50031 -0.00016 0.59511
 C254 C 0.41682 -0.07618 0.61526
 C255 C 0.42168 0.08155 0.61030
 N256 N 0.56702 -0.03857 0.44399
 N257 N 0.59439 -0.06185 0.43281
 N258 N 0.54077 0.03829 0.40663
 N259 N 0.54685 0.06483 0.37223
 N260 N 0.56728 0.03816 0.44325
 N261 N 0.59212 0.06465 0.43476
 N262 N 0.54102 -0.03843 0.40671
 N263 N 0.55020 -0.06162 0.36895
 Mn264 Mn 0.56764 -0.00046 0.50041
 C265 C 0.58310 -0.07644 0.38662
 C266 C 0.57883 0.08107 0.39054
 N267 N 0.43264 0.03805 0.44419
 N268 N 0.40522 0.06135 0.43310
 N269 N 0.45876 -0.03880 0.40731
 N270 N 0.45254 -0.06532 0.37316
 N271 N 0.43246 -0.03873 0.44419
 N272 N 0.40760 -0.06525 0.43610
 N273 N 0.45847 0.03796 0.40671
 N274 N 0.44911 0.06120 0.36887
 Mn275 Mn 0.43241 -0.00004 0.50101
 Mn276 Mn 0.49976 -0.00024 0.40629
 Cl277 Cl 0.50003 -0.00022 0.50070
 C278 C 0.41628 0.07600 0.38671
 C279 C 0.42068 -0.08164 0.39185
 N280 N 0.56663 0.53848 0.05534
 N281 N 0.59417 0.56158 0.06665
 N282 N 0.54045 0.46157 0.09263
 N283 N 0.54661 0.43499 0.12695
 N284 N 0.56685 0.46175 0.05588
 N285 N 0.59170 0.43527 0.06420
 N286 N 0.54072 0.53827 0.09273
 N287 N 0.55014 0.56124 0.13069
 C288 C 0.58308 0.57601 0.11302
 C289 C 0.57853 0.41879 0.10845
 N290 N 0.43223 0.46173 0.05559
 N291 N 0.40473 0.43853 0.06693
 N292 N 0.45845 0.53858 0.09247
 N293 N 0.45232 0.56509 0.12668
 N294 N 0.43205 0.53851 0.05571
 N295 N 0.40722 0.56500 0.06394
 N296 N 0.45816 0.46183 0.09296
 N297 N 0.44880 0.43871 0.13095
 Mn298 Mn 0.49945 0.50006 0.09324
 C299 C 0.41586 0.42395 0.11333
 C300 C 0.42041 0.58138 0.10814
 N301 N 0.56693 0.46235 -0.05769
 N302 N 0.59451 0.43930 -0.06879
 N303 N 0.54026 0.53905 -0.09509
 N304 N 0.54632 0.56561 -0.12952
 N305 N 0.56662 0.53912 -0.05828
 N306 N 0.59134 0.56575 -0.06666
 N307 N 0.54099 0.46229 -0.09504
 N308 N 0.55042 0.43919 -0.13279
 Mn309 Mn 0.56706 0.50043 -0.00118
 C310 C 0.58342 0.42463 -0.11502
 C311 C 0.57814 0.58208 -0.11103
 N312 N 0.43208 0.53799 -0.05789
 N313 N 0.40461 0.56120 -0.06904
 N314 N 0.45870 0.46132 -0.09481
 N315 N 0.45266 0.43477 -0.12902
 N316 N 0.43231 0.46124 -0.05804
 N317 N 0.40761 0.43461 -0.06625
 N318 N 0.45801 0.53806 -0.09525
 N319 N 0.44868 0.56132 -0.13305
 Mn320 Mn 0.43185 0.49987 -0.00116
 Mn321 Mn 0.49948 0.50018 -0.09560
 Cl322 Cl 0.49946 0.50013 -0.00118
 C323 C 0.41576 0.57595 -0.11530
 C324 C 0.42084 0.41830 -0.11045
 C325 C 1.18741 0.15318 0.21216
 C326 C 1.16129 0.13669 0.19292
 C327 C 1.13219 0.11670 0.16813
 C328 C 1.10919 0.09860 0.14475
 C329 C 1.18586 0.65265 0.71241
 C330 C 1.15957 0.63645 0.69324
 C331 C 1.13035 0.61682 0.66835
 C332 C 1.10734 0.59896 0.64474
 C333 C 0.68671 0.15375 0.71062
 C334 C 0.66057 0.13722 0.69159
 C335 C 0.63147 0.11715 0.66704
 C336 C 0.60849 0.09893 0.64387
 C337 C 0.68624 0.65251 0.21132
 C338 C 0.65997 0.63625 0.19209
 C339 C 0.63070 0.61659 0.16721
 C340 C 0.60756 0.59876 0.14368
 C341 C 0.81406 -0.15342 0.21225
 C342 C 0.84030 -0.13697 0.19318
 C343 C 0.86954 -0.11707 0.16847
 C344 C 0.89263 -0.09903 0.14506
 C345 C 0.81269 0.34693 0.71053
 C346 C 0.83895 0.36335 0.69142
 C347 C 0.86822 0.38320 0.66673
 C348 C 0.89136 0.40122 0.64339
 C349 C 0.31437 -0.15380 0.71312
 C350 C 0.34061 -0.13739 0.69409
 C351 C 0.36975 -0.11747 0.66933
 C352 C 0.39267 -0.09934 0.64585
 C353 C 0.31325 0.34633 0.21180
 C354 C 0.33940 0.36281 0.19243
 C355 C 0.36851 0.38279 0.16748
 C356 C 0.39150 0.40089 0.14395
 C357 C 0.81469 0.15408 -0.21152
 C358 C 0.84088 0.13767 -0.19227
 C359 C 0.86999 0.11771 -0.16744
 C360 C 0.89296 0.09956 -0.14403
 C361 C 0.81281 0.65340 0.28758
 C362 C 0.83922 0.63704 0.30641
 C363 C 0.86863 0.61728 0.33091
 C364 C 0.89184 0.59935 0.35425
 C365 C 0.31360 0.15424 0.28956
 C366 C 0.33980 0.13768 0.30861
 C367 C 0.36895 0.11754 0.33317
 C368 C 0.39195 0.09926 0.35638
 C369 C 0.31256 0.65320 -0.21216
 C370 C 0.33893 0.63680 -0.19344
 C371 C 0.36827 0.61698 -0.16903
 C372 C 0.39140 0.59896 -0.14576
 C373 C 1.18604 -0.15393 -0.21053
 C374 C 1.15981 -0.13752 -0.19166
 C375 C 1.13071 -0.11755 -0.16715
 C376 C 1.10783 -0.09936 -0.14388
 C377 C 1.18700 0.34722 0.28895
 C378 C 1.16075 0.36370 0.30783
 C379 C 1.13152 0.38371 0.33223
 C380 C 1.10844 0.40184 0.35535
 C381 C 0.68580 -0.15389 0.28931
 C382 C 0.65953 -0.13752 0.30828
 C383 C 0.63033 -0.11762 0.33286
 C384 C 0.60734 -0.09953 0.35617
 C385 C 0.68637 0.34767 -0.21265
 C386 C 0.66014 0.36400 -0.19353
 C387 C 0.63093 0.38377 -0.16880
 C388 C 0.60786 0.40172 -0.14544
 C389 C 1.14983 0.19218 -0.20243
 C390 C 1.13324 0.16708 -0.18138
 C391 C 1.11425 0.13754 -0.15633
 C392 C 1.09836 0.11221 -0.13487
 C393 C 1.14861 0.69270 0.29649
 C394 C 1.13211 0.66770 0.31784
 C395 C 1.11327 0.63821 0.34318
 C396 C 1.09751 0.61289 0.36481
 C397 C 0.64884 0.19088 0.29668
 C398 C 0.63228 0.16591 0.31790
 C399 C 0.61330 0.13653 0.34315
 C400 C 0.59742 0.11133 0.36480
 C401 C 0.64838 0.69242 -0.20406
 C402 C 0.63170 0.66733 -0.18312
 C403 C 0.61262 0.63780 -0.15816
 C404 C 0.59671 0.61248 -0.13669
 C405 C 0.85098 -0.19088 -0.20249
 C406 C 0.86767 -0.16593 -0.18147
 C407 C 0.88682 -0.13657 -0.15645
 C408 C 0.90283 -0.11140 -0.13498
 C409 C 0.85191 0.30916 0.29642
 C410 C 0.86840 0.33416 0.31745
 C411 C 0.88727 0.36358 0.34249
 C412 C 0.90304 0.38883 0.36398
 C413 C 0.35088 -0.19139 0.29799
 C414 C 0.36736 -0.16649 0.31939
 C415 C 0.38621 -0.13713 0.34476
 C416 C 0.40202 -0.11193 0.36637
 C417 C 0.35090 0.30798 -0.20298
 C418 C 0.36749 0.33306 -0.18211
 C419 C 0.38647 0.36258 -0.15725
 C420 C 0.40231 0.38789 -0.13591
 C421 C 1.14879 -0.19247 0.20336
 C422 C 1.13235 -0.16740 0.18208
 C423 C 1.11360 -0.13785 0.15681
 C424 C 1.09792 -0.11249 0.13521
 C425 C 1.14855 0.30875 0.70360
 C426 C 1.13200 0.33370 0.68222
 C427 C 1.11306 0.36310 0.65681
 C428 C 1.09722 0.38832 0.63508
 C429 C 0.64862 -0.19229 0.70405
 C430 C 0.63209 -0.16723 0.68288
 C431 C 0.61319 -0.13771 0.65768
 C432 C 0.59740 -0.11240 0.63608
 C433 C 0.64877 0.30894 0.20176
 C434 C 0.63215 0.33392 0.18065
 C435 C 0.61312 0.36331 0.15555
 C436 C 0.59719 0.38852 0.13404
 C437 C 0.85215 0.19110 0.20253
 C438 C 0.86878 0.16615 0.18162
 C439 C 0.88780 0.13679 0.15670
 C440 C 0.90368 0.11160 0.13530
 C441 C 0.85074 0.69122 0.70265
 C442 C 0.86728 0.66630 0.68141
 C443 C 0.88624 0.63696 0.65616
 C444 C 0.90212 0.61181 0.63455
 C445 C 0.35207 0.19145 0.70396
 C446 C 0.36858 0.16650 0.68276
 C447 C 0.38745 0.13709 0.65754
 C448 C 0.40321 0.11187 0.63594
 C449 C 0.35076 0.69114 0.20197
 C450 C 0.36721 0.66622 0.18063
 C451 C 0.38604 0.63685 0.15530
 C452 C 0.40182 0.61166 0.13369
   
