data_POSCAR
  _audit_creation_date              2014-09-24
  _audit_creation_method            'ToBaCCo'
  _symmetry_space_group_name_H-M    'P1'
  _symmetry_Int_Tables_number       1
  _symmetry_cell_setting            triclinic
  loop_
  _symmetry_equiv_pos_as_xyz
 x,y,z
_cell_length_a 22.2609
_cell_length_b 23.1654
_cell_length_c 27.9589
_cell_angle_alpha 89.888000
_cell_angle_beta 89.870200
_cell_angle_gamma 90.042400
loop_
  _atom_site_label
  _atom_site_type_symbol
  _atom_site_fract_x
  _atom_site_fract_y
  _atom_site_fract_z
B1 B 0.27743 0.23219 0.30085
 B2 B 0.20402 0.22753 0.28855
 B3 B 0.23649 0.29236 0.29395
 B4 B 0.30578 0.28840 0.27046
 B5 B 0.31583 0.21934 0.25027
 B6 B 0.25222 0.18129 0.26207
 B7 B 0.22310 0.26830 0.20020
 B8 B 0.29666 0.27285 0.21250
 B9 B 0.26412 0.20819 0.20696
 B10 B 0.19487 0.21201 0.23055
 B11 B 0.18475 0.28100 0.25081
 B12 B 0.24845 0.31913 0.23887
 B13 B 0.73391 0.79095 0.20536
 B14 B 0.70242 0.72572 0.21294
 B15 B 0.77580 0.73116 0.19951
 B16 B 0.80352 0.78883 0.22811
 B17 B 0.74617 0.81976 0.25962
 B18 B 0.68304 0.78031 0.24956
 B19 B 0.76448 0.71025 0.29433
 B20 B 0.79581 0.77547 0.28666
 B21 B 0.72241 0.76993 0.30004
 B22 B 0.69481 0.71223 0.27150
 B23 B 0.75211 0.68131 0.24000
 B24 B 0.81530 0.72079 0.25003
 B25 B 0.73397 0.22576 -0.19958
 B26 B 0.72782 0.29593 -0.21450
 B27 B 0.79574 0.26591 -0.20899
 B28 B 0.79228 0.19826 -0.22996
 B29 B 0.72019 0.18644 -0.24867
 B30 B 0.67977 0.24747 -0.23836
 B31 B 0.76832 0.27378 -0.30290
 B32 B 0.77476 0.20374 -0.28795
 B33 B 0.70675 0.23364 -0.29347
 B34 B 0.71013 0.30135 -0.27246
 B35 B 0.78229 0.31314 -0.25388
 B36 B 0.82265 0.25220 -0.26411
 B37 B 0.27809 0.76622 -0.29898
 B38 B 0.20467 0.77326 -0.28659
 B39 B 0.23475 0.70747 -0.29220
 B40 B 0.30401 0.70894 -0.26876
 B41 B 0.31673 0.77746 -0.24836
 B42 B 0.25458 0.81772 -0.26009
 B43 B 0.22206 0.73162 -0.19823
 B44 B 0.29542 0.72439 -0.21068
 B45 B 0.26538 0.79026 -0.20504
 B46 B 0.19608 0.78882 -0.22852
 B47 B 0.18337 0.72028 -0.24882
 B48 B 0.24545 0.68004 -0.23716
 B49 B 1.23352 1.29099 0.70567
 B50 B 1.20144 1.22605 0.71326
 B51 B 1.27471 1.23097 0.69939
 B52 B 1.30332 1.28832 0.72789
 B53 B 1.24656 1.31962 0.75983
 B54 B 1.18293 1.28070 0.75010
 B55 B 1.26421 1.20995 0.79406
 B56 B 1.29612 1.27488 0.78639
 B57 B 1.22281 1.26984 0.80023
 B58 B 1.19430 1.21247 0.77177
 B59 B 1.25103 1.18120 0.73986
 B60 B 1.31470 1.22014 0.74954
 B61 B 0.77797 0.73229 0.80077
 B62 B 0.70434 0.72799 0.78904
 B63 B 0.73719 0.79272 0.79408
 B64 B 0.80616 0.78834 0.76999
 B65 B 0.81555 0.71918 0.74983
 B66 B 0.75194 0.68147 0.76222
 B67 B 0.72235 0.76851 0.70037
 B68 B 0.79615 0.77267 0.71208
 B69 B 0.76323 0.70813 0.70693
 B70 B 0.69431 0.71238 0.73111
 B71 B 0.68484 0.78147 0.75134
 B72 B 0.74854 0.81927 0.73880
 B73 B 1.23530 0.70971 0.29331
 B74 B 1.20637 0.77594 0.28672
 B75 B 1.27973 0.76790 0.29852
 B76 B 1.30437 0.70957 0.26917
 B77 B 1.24508 0.68081 0.23872
 B78 B 1.18371 0.72231 0.25025
 B79 B 1.26640 0.78988 0.20422
 B80 B 1.29550 0.72381 0.21090
 B81 B 1.22211 0.73173 0.19904
 B82 B 1.19741 0.79008 0.22842
 B83 B 1.25674 0.81885 0.25881
 B84 B 1.31801 0.77742 0.24731
 B85 B 0.77816 1.26681 0.20129
 B86 B 0.70453 1.27338 0.21328
 B87 B 0.73514 1.20782 0.20788
 B88 B 0.80411 1.20964 0.23172
 B89 B 0.81613 1.27821 0.25219
 B90 B 0.75387 1.31811 0.24008
 B91 B 0.72120 1.23172 0.30175
 B92 B 0.79474 1.22499 0.28972
 B93 B 0.76419 1.29059 0.29514
 B94 B 0.69520 1.28882 0.27128
 B95 B 0.68318 1.22022 0.25089
 B96 B 0.74539 1.18035 0.26294
 O97 O 0.58047 1.10236 0.08865
 O98 O 0.65078 1.05205 0.04518
 C99 C 0.63535 1.08863 0.07863
 O100 O 0.41984 0.89256 0.08102
 O101 O 0.34985 0.94749 0.04142
 C102 C 0.36504 0.90722 0.07205
 O103 O 0.58154 0.89877 0.08543
 O104 O 0.65108 0.95211 0.04344
 C105 C 0.63613 0.91359 0.07595
 O106 O 0.41777 1.10622 0.08460
 O107 O 0.34874 1.05189 0.04349
 C108 C 0.36322 1.09105 0.07524
 Zr109 Zr 0.49925 1.07202 0.06086
 O110 O 0.49843 1.05772 0.13560
 O111 O 0.49823 1.16273 0.06998
 Zr112 Zr 0.50082 0.92869 0.05747
 O113 O 0.49881 0.93393 0.13302
 O114 O 0.50657 0.83744 0.05660
 O115 O 0.55461 1.00073 0.06844
 O116 O 0.44651 0.99954 0.06803
 O117 O 0.41786 1.10944 -0.08312
 O118 O 0.34888 1.05386 -0.04276
 C119 C 0.36337 1.09388 -0.07387
 O120 O 0.58270 0.90526 -0.09075
 O121 O 0.65189 0.95515 -0.04618
 C122 C 0.63730 0.91869 -0.08007
 O123 O 0.42046 0.89820 -0.08665
 O124 O 0.35017 0.95010 -0.04457
 C125 C 0.36554 0.91158 -0.07657
 O126 O 0.57941 1.10992 -0.08542
 O127 O 0.65020 1.05916 -0.04303
 C128 C 0.63438 1.09831 -0.07468
 Zr129 Zr 0.49934 1.07654 -0.05837
 O130 O 0.49389 1.07774 -0.13406
 O131 O 0.50250 1.16786 -0.05465
 Zr132 Zr 0.50129 0.93212 -0.06116
 O133 O 0.49584 0.93067 -0.13675
 O134 O 0.50486 0.84108 -0.05584
 Zr135 Zr 0.59263 1.00389 -0.00069
 Zr136 Zr 0.40797 1.00149 -0.00052
 O137 O 0.44767 1.00391 -0.06886
 O138 O 0.55473 1.00547 -0.06973
 O139 O 0.44469 1.08540 0.00147
 O140 O 0.55493 0.92061 -0.00213
 O141 O 0.55232 1.08590 0.00148
 O142 O 0.44635 0.91836 -0.00215
 H143 H 0.42002 0.99847 0.09655
 H144 H 0.58200 0.88667 -0.00272
 H145 H 0.42202 1.00422 -0.09778
 H146 H 0.57844 1.12049 0.00247
 H147 H 0.47887 0.82337 0.03156
 H148 H 0.50531 0.82609 -0.08903
 H149 H 0.52363 0.96047 -0.14914
 H150 H 0.52929 1.05718 -0.14698
 H151 H 0.46888 1.18080 -0.03405
 H152 H 0.51397 1.18033 0.04030
 H153 H 0.49573 1.09632 0.15067
 H154 H 0.49764 0.89370 0.14518
 O155 O 1.07883 0.59953 0.59002
 O156 O 1.14903 0.55090 0.54518
 C157 C 1.13372 0.58678 0.57928
 O158 O 0.92060 0.38737 0.58056
 O159 O 0.84949 0.44090 0.54095
 C160 C 0.86564 0.39946 0.57045
 O161 O 1.08117 0.39616 0.58542
 O162 O 1.15031 0.45064 0.54416
 C163 C 1.13562 0.41172 0.57622
 O164 O 0.91652 0.60253 0.58624
 O165 O 0.84735 0.54873 0.54478
 C166 C 0.86191 0.58778 0.57667
 Zr167 Zr 0.99795 0.56896 0.56188
 O168 O 0.99724 0.55467 0.63662
 O169 O 0.99544 0.65984 0.57002
 Zr170 Zr 1.00006 0.42577 0.55792
 O171 O 0.99764 0.43161 0.63342
 O172 O 1.00641 0.33457 0.55785
 O173 O 1.05359 0.49774 0.56919
 O174 O 0.94512 0.49620 0.56877
 O175 O 0.91716 0.60793 0.41812
 O176 O 0.84786 0.55181 0.45775
 C177 C 0.86258 0.59229 0.42691
 O178 O 1.08131 0.40284 0.40978
 O179 O 1.15051 0.45213 0.45477
 C180 C 1.13590 0.41611 0.42063
 O181 O 0.91849 0.39649 0.41400
 O182 O 0.84830 0.44826 0.45631
 C183 C 0.86363 0.41002 0.42418
 O184 O 1.07933 0.60498 0.41443
 O185 O 1.14935 0.55184 0.45560
 C186 C 1.13412 0.59022 0.42338
 Zr187 Zr 0.99831 0.57454 0.44299
 O188 O 0.99219 0.57954 0.36750
 O189 O 1.00260 0.66561 0.44920
 Zr190 Zr 0.99976 0.42991 0.43914
 O191 O 0.99396 0.42988 0.36352
 O192 O 1.00314 0.33876 0.44299
 Zr193 Zr 1.09120 0.50085 0.49997
 Zr194 Zr 0.90657 0.49862 0.50028
 O195 O 0.94646 0.50195 0.43198
 O196 O 1.05300 0.50316 0.43105
 O197 O 0.94327 0.58257 0.50270
 O198 O 1.05355 0.41770 0.49813
 O199 O 1.05158 0.58312 0.50251
 O200 O 0.94546 0.41572 0.49823
 H201 H 0.91823 0.49432 0.59704
 H202 H 1.08063 0.38376 0.49752
 H203 H 0.92089 0.50257 0.40303
 H204 H 1.07855 0.61714 0.50281
 H205 H 0.98270 0.32040 0.53039
 H206 H 1.00311 0.32451 0.40957
 H207 H 1.02444 0.45718 0.35116
 H208 H 1.02290 0.55347 0.35388
 H209 H 0.96843 0.67818 0.46938
 H210 H 1.01912 0.67726 0.54377
 H211 H 0.99460 0.59326 0.65172
 H212 H 0.99744 0.39147 0.64579
 O213 O 1.10582 0.42237 0.08905
 O214 O 1.05528 0.35511 0.04421
 C215 C 1.09422 0.36970 0.07710
 O216 O 0.88542 0.57583 0.08259
 O217 O 0.94168 0.64355 0.04229
 C218 C 0.89907 0.62864 0.07236
 O219 O 0.89196 0.42037 0.08657
 O220 O 0.94633 0.35413 0.04338
 C221 C 0.90583 0.36797 0.07562
 O222 O 1.10930 0.57801 0.08503
 O223 O 1.05420 0.64474 0.04299
 C224 C 1.09580 0.63052 0.07398
 Zr225 Zr 1.07234 0.50016 0.06217
 O226 O 1.05674 0.50063 0.13679
 O227 O 1.16662 0.50076 0.07176
 Zr228 Zr 0.92368 0.49839 0.05920
 O229 O 0.93012 0.49997 0.13467
 O230 O 0.82872 0.49306 0.05918
 O231 O 0.99849 0.44633 0.07005
 O232 O 0.99725 0.55120 0.06945
 O233 O 1.11209 0.57911 -0.08123
 O234 O 1.05477 0.64539 -0.04076
 C235 C 1.09751 0.63147 -0.07094
 O236 O 0.90062 0.42008 -0.09020
 O237 O 0.95323 0.35396 -0.04555
 C238 C 0.91599 0.36771 -0.07987
 O239 O 0.89058 0.57665 -0.08480
 O240 O 0.94279 0.64401 -0.04117
 C241 C 0.90246 0.62938 -0.07305
 O242 O 1.10942 0.42345 -0.08532
 O243 O 1.05752 0.35565 -0.04163
 C244 C 1.09717 0.37067 -0.07403
 Zr245 Zr 1.07642 0.50084 -0.05766
 O246 O 1.07108 0.50312 -0.13318
 O247 O 1.17154 0.49760 -0.05745
 Zr248 Zr 0.92686 0.49888 -0.06002
 O249 O 0.92679 0.50425 -0.13562
 O250 O 0.83208 0.49455 -0.05569
 Zr251 Zr 1.00146 0.41100 0.00064
 Zr252 Zr 0.99905 0.58828 0.00078
 O253 O 1.00125 0.55124 -0.06775
 O254 O 1.00285 0.44768 -0.06840
 O255 O 1.08608 0.55246 0.00247
 O256 O 0.91485 0.44712 -0.00084
 O257 O 1.08668 0.45008 0.00229
 O258 O 0.91277 0.55077 -0.00060
 H259 H 0.99643 0.57718 0.09758
 H260 H 0.87959 0.42101 -0.00193
 H261 H 1.00144 0.57692 -0.09613
 H262 H 1.12314 0.42562 0.00249
 H263 H 0.81413 0.51705 0.03230
 H264 H 0.81712 0.49340 -0.08905
 H265 H 0.96095 0.48085 -0.14730
 H266 H 1.11296 0.50395 -0.14531
 H267 H 1.18592 0.52650 -0.03408
 H268 H 1.18503 0.48920 0.04108
 H269 H 1.09679 0.50322 0.15204
 H270 H 0.88839 0.50053 0.14713
 O271 O 0.39397 0.92099 0.41194
 O272 O 0.44640 0.85439 0.45631
 C273 C 0.40720 0.86851 0.42333
 O274 O 0.61018 1.07896 0.41832
 O275 O 0.55325 1.14514 0.45939
 C276 C 0.59586 1.13131 0.42892
 O277 O 0.60687 0.92362 0.41373
 O278 O 0.55502 0.85578 0.45749
 C279 C 0.59468 0.87081 0.42501
 O280 O 0.38660 1.07672 0.41669
 O281 O 0.44111 1.14406 0.45837
 C282 C 0.39962 1.12943 0.42758
 Zr283 Zr 0.42507 0.99909 0.43941
 O284 O 0.43947 1.00069 0.36464
 O285 O 0.33059 0.99790 0.43094
 Zr286 Zr 0.57365 1.00096 0.44145
 O287 O 0.56586 1.00311 0.36607
 O288 O 0.66871 0.99776 0.43999
 O289 O 0.50026 0.94715 0.43101
 O290 O 0.49875 1.05202 0.43186
 O291 O 0.38454 1.07561 0.58351
 O292 O 0.43825 1.14344 0.54124
 C293 C 0.39687 1.12841 0.57224
 O294 O 0.60284 0.92277 0.58957
 O295 O 0.55327 0.85535 0.54417
 C296 C 0.59174 0.87004 0.57744
 O297 O 0.60309 1.07972 0.58715
 O298 O 0.54745 1.14557 0.54460
 C299 C 0.58726 1.13206 0.57707
 O300 O 0.39117 0.91999 0.58683
 O301 O 0.44514 0.85387 0.54324
 C302 C 0.40500 0.86763 0.57568
 Zr303 Zr 0.42184 0.99825 0.55910
 O304 O 0.42202 1.00250 0.63479
 O305 O 0.32690 0.99204 0.55682
 Zr306 Zr 0.57182 1.00058 0.56071
 O307 O 0.57661 0.99793 0.63637
 O308 O 0.66644 1.00190 0.55392
 Zr309 Zr 0.49921 0.91101 0.50033
 Zr310 Zr 0.49643 1.08827 0.50070
 O311 O 0.49558 1.05032 0.56905
 O312 O 0.49742 0.94707 0.56950
 O313 O 0.41034 1.05034 0.49928
 O314 O 0.58468 0.94984 0.50121
 O315 O 0.41281 0.94766 0.49910
 O316 O 0.58392 1.05338 0.50143
 H317 H 0.49893 1.07824 0.40380
 H318 H 0.62116 0.92535 0.50149
 H319 H 0.49358 1.07577 0.59741
 H320 H 0.37730 0.92190 0.49893
 H321 H 0.68346 1.02202 0.46658
 H322 H 0.68276 1.00103 0.58687
 H323 H 0.54341 1.02147 0.64937
 H324 H 0.45065 0.97311 0.64663
 H325 H 0.31198 1.02283 0.53531
 H326 H 0.31301 0.98179 0.46055
 H327 H 0.39916 1.00274 0.34978
 H328 H 0.60736 1.00446 0.35316
 O329 O 1.10685 1.10570 0.43672
 O330 O 1.05079 1.05509 0.38214
 C331 C 1.08894 1.09493 0.39375
 O332 O 1.10718 0.89364 0.56420
 O333 O 1.04929 0.94383 0.61804
 C334 C 1.08787 0.90403 0.60689
 O335 O 1.11450 0.90258 0.43337
 O336 O 1.05459 0.95202 0.38053
 C337 C 1.09529 0.91392 0.39080
 O338 O 1.09948 1.10789 0.56726
 O339 O 1.04455 1.05253 0.61969
 C340 C 1.08113 1.09468 0.60964
 Zr341 Zr 1.07498 1.07255 0.50166
 O342 O 1.16945 1.06384 0.50395
 O343 O 1.08131 1.16361 0.49988
 Zr344 Zr 1.08023 0.93023 0.49929
 O345 O 1.17413 0.94342 0.50196
 O346 O 1.08965 0.83952 0.49531
 O347 O 1.08961 1.00296 0.45668
 O348 O 1.08738 1.00065 0.54375
 O349 O 0.89277 1.09956 0.56618
 O350 O 0.94458 1.04276 0.61930
 C351 C 0.90478 1.08160 0.60879
 O352 O 0.89547 0.89672 0.43162
 O353 O 0.95392 0.94893 0.37950
 C354 C 0.91429 0.90944 0.38926
 O355 O 0.90023 0.88720 0.56228
 O356 O 0.95339 0.94008 0.61719
 C357 C 0.91729 0.89861 0.60527
 O358 O 0.89054 1.09941 0.43495
 O359 O 0.95103 1.05200 0.38136
 C360 C 0.91028 1.08969 0.39231
 Zr361 Zr 0.92233 1.06792 0.50033
 O362 O 0.82768 1.05898 0.50469
 O363 O 0.91386 1.15888 0.49735
 Zr364 Zr 0.92783 0.92438 0.49783
 O365 O 0.83287 0.92070 0.50224
 O366 O 0.93551 0.83344 0.49412
 Zr367 Zr 1.00203 1.00074 0.42824
 Zr368 Zr 0.99970 0.99698 0.57142
 O369 O 0.91342 0.99440 0.54112
 O370 O 0.91385 0.99701 0.45550
 O371 O 0.99733 1.08124 0.54322
 O372 O 1.00492 0.91717 0.45751
 O373 O 0.99891 1.08269 0.46064
 O374 O 1.00367 0.91457 0.54022
 H375 H 1.12135 1.00130 0.56664
 H376 H 1.00610 0.88251 0.43683
 H377 H 0.87782 0.99170 0.56237
 H378 H 0.99811 1.11881 0.44164
 H379 H 1.05093 0.82282 0.50594
 H380 H 0.89400 0.81793 0.49324
 H381 H 0.81655 0.94566 0.47664
 H382 H 0.81302 1.04495 0.47341
 H383 H 0.94283 1.17531 0.52038
 H384 H 1.04259 1.17865 0.51182
 H385 H 1.18580 1.10359 0.50525
 H386 H 1.19249 0.90447 0.50210
 O387 O 0.60677 0.60594 -0.06318
 O388 O 0.55063 0.55566 -0.11788
 C389 C 0.58880 0.59544 -0.10614
 O390 O 0.60708 0.39378 0.06481
 O391 O 0.54891 0.44414 0.11832
 C392 C 0.58762 0.40437 0.10740
 O393 O 0.61661 0.40333 -0.06543
 O394 O 0.56181 0.45701 -0.11896
 C395 C 0.60396 0.42060 -0.10812
 O396 O 0.60036 0.60708 0.06717
 O397 O 0.54535 0.55196 0.11968
 C398 C 0.58217 0.59388 0.10957
 Zr399 Zr 0.57456 0.57271 0.00153
 O400 O 0.66916 0.56515 0.00356
 O401 O 0.57821 0.66399 -0.00060
 Zr402 Zr 0.58034 0.42989 -0.00026
 O403 O 0.67430 0.44264 0.00319
 O404 O 0.58903 0.33911 -0.00453
 O405 O 0.58982 0.50292 -0.04264
 O406 O 0.58731 0.50082 0.04366
 O407 O 0.39300 0.60075 0.06462
 O408 O 0.44868 0.54838 0.11836
 C409 C 0.41077 0.58877 0.10736
 O410 O 0.39721 0.39492 -0.06853
 O411 O 0.45604 0.44685 -0.12064
 C412 C 0.41633 0.40737 -0.11088
 O413 O 0.40098 0.38671 0.06239
 O414 O 0.45257 0.44121 0.11726
 C415 C 0.41722 0.39906 0.10544
 O416 O 0.39069 0.59775 -0.06623
 O417 O 0.45174 0.55046 -0.11950
 C418 C 0.41073 0.58801 -0.10878
 Zr419 Zr 0.42145 0.56626 -0.00047
 O420 O 0.32735 0.55279 0.00379
 O421 O 0.40745 0.65645 -0.00325
 Zr422 Zr 0.42867 0.42342 -0.00228
 O423 O 0.33370 0.41952 0.00186
 O424 O 0.43716 0.33256 -0.00570
 Zr425 Zr 0.50284 0.50011 -0.07202
 Zr426 Zr 0.49977 0.49721 0.07130
 O427 O 0.41348 0.49365 0.04126
 O428 O 0.41435 0.49540 -0.04527
 O429 O 0.49665 0.58096 0.04224
 O430 O 0.50612 0.41655 -0.04290
 O431 O 0.49840 0.58197 -0.03964
 O432 O 0.50397 0.41443 0.04066
 H433 H 0.62133 0.50142 0.06649
 H434 H 0.50897 0.38258 -0.06427
 H435 H 0.37857 0.49194 0.06330
 H436 H 0.49735 0.61811 -0.05861
 H437 H 0.55129 0.32250 0.00824
 H438 H 0.39578 0.31671 -0.00625
 H439 H 0.31736 0.44313 -0.02461
 H440 H 0.31249 0.54390 -0.02871
 H441 H 0.44493 0.67467 0.00807
 H442 H 0.54445 0.67845 0.01905
 H443 H 0.68505 0.60509 0.00471
 H444 H 0.69252 0.40363 0.00386
 N445 N 0.26099 1.10207 0.10779
 N446 N 0.23415 1.13094 0.14290
 C447 C 0.27560 1.16632 0.16270
 C448 C 0.32856 1.15822 0.13816
 N449 N 0.31784 1.11816 0.10419
 H450 H 0.37155 1.17817 0.14551
 N451 N 0.75927 0.60103 0.60826
 N452 N 0.73245 0.63102 0.64275
 C453 C 0.77431 0.66578 0.66277
 C454 C 0.82757 0.65600 0.63903
 N455 N 0.81660 0.61567 0.60530
 H456 H 0.87088 0.67509 0.64675
 N457 N 0.73852 0.89887 0.10707
 N458 N 0.76501 0.86780 0.14102
 C459 C 0.72282 0.83301 0.16092
 C460 C 0.66959 0.84404 0.13777
 N461 N 0.68099 0.88511 0.10449
 H462 H 0.62608 0.82530 0.14563
 N463 N 1.23774 0.39907 0.60802
 N464 N 1.26434 0.36858 0.64223
 C465 C 1.22251 0.33296 0.66155
 C466 C 1.16955 0.34267 0.63785
 N467 N 1.18065 0.38394 0.60479
 H468 H 1.12634 0.32300 0.64521
 N469 N 0.73570 1.13915 -0.08815
 N470 N 0.76201 1.17570 -0.11842
 C471 C 0.71984 1.19466 -0.14961
 C472 C 0.66694 1.16719 -0.13752
 N473 N 0.67846 1.13289 -0.09946
 H474 H 0.62462 1.16954 -0.15646
 N475 N 1.23675 0.60379 0.39272
 N476 N 1.26430 0.63394 0.35866
 C477 C 1.22283 0.66852 0.33792
 C478 C 1.16887 0.65832 0.36060
 N479 N 1.17927 0.61793 0.39451
 H480 H 1.12568 0.67717 0.35211
 N481 N 0.26298 0.89698 -0.10658
 N482 N 0.23576 0.86665 -0.14049
 C483 C 0.27752 0.83223 -0.16108
 C484 C 0.33124 0.84259 -0.13838
 N485 N 0.32048 0.88297 -0.10464
 H486 H 0.37456 0.82387 -0.14677
 N487 N 0.76123 0.39668 0.39369
 N488 N 0.73409 0.36689 0.35943
 C489 C 0.77581 0.33221 0.33911
 C490 C 0.82927 0.34171 0.36226
 N491 N 0.81851 0.38193 0.39602
 H492 H 0.87248 0.32261 0.35413
 N493 N 1.13353 0.27147 0.08930
 N494 N 1.17012 0.24438 0.11936
 C495 C 1.19029 0.28367 0.15133
 C496 C 1.16376 0.33561 0.14004
 N497 N 1.12867 0.32636 0.10153
 H498 H 1.16740 0.37583 0.15950
 N499 N 0.63180 0.77198 0.58962
 N500 N 0.66876 0.74500 0.61949
 C501 C 0.68862 0.78414 0.65170
 C502 C 0.66137 0.83597 0.64069
 N503 N 0.62624 0.82673 0.60213
 H504 H 0.66481 0.87613 0.66027
 N505 N 1.13066 0.73112 -0.08760
 N506 N 1.16533 0.75816 -0.11928
 C507 C 1.18911 0.71785 -0.14881
 C508 C 1.16691 0.66522 -0.13426
 N509 N 1.13082 0.67507 -0.09626
 H510 H 1.17379 0.62388 -0.15145
 N511 N 0.62934 1.23100 0.41237
 N512 N 0.66409 1.25804 0.38073
 C513 C 0.68779 1.21779 0.35108
 C514 C 0.66540 1.16516 0.36558
 N515 N 0.62933 1.17497 0.40365
 H516 H 0.67223 1.12384 0.34834
 N517 N 0.86325 0.72754 0.08697
 N518 N 0.82896 0.75502 0.11849
 C519 C 0.80749 0.71549 0.14994
 C520 C 0.83069 0.66273 0.13657
 N521 N 0.86510 0.67192 0.09740
 H522 H 0.82570 0.62198 0.15522
 N523 N 0.35988 1.22702 0.58598
 N524 N 0.32575 1.25456 0.61756
 C525 C 0.30547 1.21520 0.64964
 C526 C 0.32914 1.16258 0.63664
 N527 N 0.36271 1.17162 0.59705
 H528 H 0.32510 1.12209 0.65581
 N529 N 0.90581 0.26848 -0.10994
 N530 N 0.87590 0.24082 -0.14399
 C531 C 0.84011 0.27980 -0.16604
 C532 C 0.84926 0.33224 -0.14420
 N533 N 0.89020 0.32354 -0.10942
 H534 H 0.82859 0.37314 -0.15318
 N535 N 0.37029 0.76969 0.40928
 N536 N 0.33433 0.74281 0.37865
 C537 C 0.31379 0.78255 0.34708
 C538 C 0.33954 0.83454 0.35916
 N539 N 0.37440 0.82492 0.39782
 H540 H 0.33503 0.87526 0.34042
 N541 N 1.06777 1.16268 0.33132
 N542 N 1.09566 1.20370 0.30719
 C543 C 1.15391 1.20213 0.32053
 C544 C 1.16095 1.15861 0.35340
 N545 N 1.10665 1.13449 0.35815
 H546 H 1.20184 1.14352 0.37012
 N547 N 0.56766 0.66518 -0.16702
 N548 N 0.59590 0.70626 -0.19083
 C549 C 0.65445 0.70298 -0.17856
 C550 C 0.66129 0.65832 -0.14673
 N551 N 0.60655 0.63526 -0.14153
 H552 H 0.70226 0.64185 -0.13103
 N553 N 0.83650 1.06755 0.67405
 N554 N 0.79608 1.09764 0.69789
 C555 C 0.80042 1.15289 0.68259
 C556 C 0.84525 1.15589 0.64903
 N557 N 0.86716 1.10217 0.64552
 H558 H 0.86205 1.19359 0.63032
 N559 N 0.43120 0.65549 0.17025
 N560 N 0.40342 0.69700 0.19366
 C561 C 0.34524 0.69565 0.18009
 C562 C 0.33811 0.65156 0.14787
 N563 N 0.39242 0.62709 0.14359
 H564 H 0.29729 0.63699 0.13072
 N565 N 1.06798 0.83852 0.67137
 N566 N 1.09632 0.79861 0.69625
 C567 C 1.15439 0.79965 0.68211
 C568 C 1.16087 0.84179 0.64790
 N569 N 1.10627 0.86543 0.64303
 H570 H 1.20151 0.85602 0.63008
 N571 N 0.56759 0.33750 0.17082
 N572 N 0.59609 0.29727 0.19523
 C573 C 0.65438 0.29954 0.18179
 C574 C 0.66083 0.34280 0.14858
 N575 N 0.60600 0.36588 0.14358
 H576 H 0.70156 0.35802 0.13146
 N577 N 0.93290 0.84502 0.32399
 N578 N 0.90455 0.80358 0.30086
 C579 C 0.84694 0.80378 0.31622
 C580 C 0.84078 0.84736 0.34910
 N581 N 0.89496 0.87257 0.35217
 H582 H 0.80056 0.86087 0.36781
 N583 N 0.43441 0.34262 -0.17619
 N584 N 0.40542 0.30172 -0.19953
 C585 C 0.34779 0.30264 -0.18420
 C586 C 0.34227 0.34611 -0.15117
 N587 N 0.39682 0.37052 -0.14795
 H588 H 0.30222 0.36010 -0.13246
 N589 N 1.13657 0.27278 -0.08695
 N590 N 1.17232 0.24594 -0.11780
 C591 C 1.19129 0.28537 -0.15034
 C592 C 1.16494 0.33717 -0.13851
 N593 N 1.13116 0.32765 -0.09914
 H594 H 1.16775 0.37744 -0.15814
 N595 N 0.63471 0.77300 0.41236
 N596 N 0.67095 0.74625 0.38180
 C597 C 0.68996 0.78559 0.34921
 C598 C 0.66302 0.83729 0.36071
 N599 N 0.62891 0.82778 0.39996
 H600 H 0.66582 0.87751 0.34102
 N601 N 0.86618 0.72840 -0.08721
 N602 N 0.83165 0.75607 -0.11846
 C603 C 0.81056 0.71677 -0.15004
 C604 C 0.83427 0.66402 -0.13708
 N605 N 0.86861 0.67292 -0.09800
 H606 H 0.82938 0.62343 -0.15582
 N607 N 0.36486 1.22867 0.41289
 N608 N 0.33093 1.25646 0.38134
 C609 C 0.30912 1.21698 0.35023
 C610 C 0.33164 1.16405 0.36374
 N611 N 0.36603 1.17300 0.40270
 H612 H 0.32617 1.12331 0.34532
 N613 N 1.13076 0.72983 0.08877
 N614 N 1.16589 0.75706 0.11977
 C615 C 1.18857 0.71714 0.15023
 C616 C 1.16520 0.66455 0.13696
 N617 N 1.12952 0.67407 0.09876
 H618 H 1.17123 0.62354 0.15498
 N619 N 0.59623 1.23085 0.60794
 N620 N 0.62547 1.25832 0.64245
 C621 C 0.66268 1.21976 0.66345
 C622 C 0.65529 1.16782 0.64036
 N623 N 0.61383 1.17640 0.60596
 H624 H 0.67701 1.12720 0.64858
 N625 N 0.87019 0.26863 0.09071
 N626 N 0.83435 0.24156 0.12157
 C627 C 0.81219 0.28139 0.15232
 C628 C 0.83685 0.33374 0.13938
 N629 N 0.87268 0.32420 0.10111
 H630 H 0.83124 0.37466 0.15752
 N631 N 0.36963 0.76824 0.59045
 N632 N 0.33384 0.74102 0.62123
 C633 C 0.31165 0.78077 0.65202
 C634 C 0.33620 0.83317 0.63926
 N635 N 0.37204 0.82376 0.60104
 H636 H 0.33058 0.87401 0.65752
 N637 N 0.26161 1.10400 -0.10662
 N638 N 0.23486 1.13259 -0.14186
 C639 C 0.27596 1.16886 -0.16128
 C640 C 0.32861 1.16167 -0.13636
 N641 N 0.31803 1.12113 -0.10257
 H642 H 0.37137 1.18231 -0.14350
 N643 N 0.76092 0.60371 0.39375
 N644 N 0.73457 0.63287 0.35860
 C645 C 0.77598 0.66893 0.33929
 C646 C 0.82858 0.66084 0.36430
 N647 N 0.81756 0.62009 0.39797
 H648 H 0.87159 0.68107 0.35728
 N649 N 0.73794 1.10198 0.10903
 N650 N 0.76524 1.13199 0.14310
 C651 C 0.72338 1.16602 0.16400
 C652 C 0.66962 1.15576 0.14151
 N653 N 0.68037 1.11584 0.10751
 H654 H 0.62634 1.17449 0.15000
 N655 N 1.23672 0.60176 0.60851
 N656 N 1.26425 0.63217 0.64224
 C657 C 1.22236 0.66551 0.66388
 C658 C 1.16822 0.65429 0.64213
 N659 N 1.17886 0.61457 0.60784
 H660 H 1.12482 0.67232 0.65125
 N661 N 0.74089 0.90141 -0.10849
 N662 N 0.76826 0.86911 -0.14122
 C663 C 0.72591 0.83594 -0.16245
 C664 C 0.67172 0.84940 -0.14156
 N665 N 0.68264 0.89014 -0.10818
 H666 H 0.62805 0.83202 -0.15066
 N667 N 1.23936 0.40023 0.39178
 N668 N 1.26691 0.36868 0.35867
 C669 C 1.22482 0.33521 0.33747
 C670 C 1.17064 0.34761 0.35875
 N671 N 1.18132 0.38809 0.39236
 H672 H 1.12714 0.32973 0.34978
 N673 N 0.26319 0.89481 0.10423
 N674 N 0.23654 0.86586 0.13942
 C675 C 0.27806 0.83053 0.15920
 C676 C 0.33097 0.83872 0.13456
 N677 N 0.32002 0.87888 0.10056
 H678 H 0.37410 0.81915 0.14209
 N679 N 0.76407 0.36008 0.58566
 N680 N 0.73816 0.32433 0.61677
 C681 C 0.78122 0.30418 0.64670
 C682 C 0.83429 0.32988 0.63290
 N683 N 0.82201 0.36437 0.59511
 H684 H 0.87726 0.32667 0.65080
 N685 N 1.06234 1.16025 0.67456
 N686 N 1.09168 1.20059 0.69834
 C687 C 1.14958 1.19877 0.68365
 C688 C 1.15488 1.15537 0.65059
 N689 N 1.09997 1.13190 0.64668
 H690 H 1.19498 1.14073 0.63232
 N691 N 0.56399 0.65872 0.17491
 N692 N 0.59313 0.69928 0.19850
 C693 C 0.65084 0.69809 0.18336
 C694 C 0.65621 0.65484 0.15014
 N695 N 0.60147 0.63085 0.14661
 H696 H 0.69623 0.64068 0.13150
 N697 N 1.07336 0.84899 0.32704
 N698 N 1.09950 0.80653 0.30361
 C699 C 1.15744 0.80516 0.31777
 C700 C 1.16610 0.84865 0.35043
 N701 N 1.11296 0.87549 0.35433
 H702 H 1.20729 0.86129 0.36807
 N703 N 0.67071 0.43373 -0.17482
 N704 N 0.70857 0.40258 -0.20032
 C705 C 0.70352 0.34738 -0.18495
 C706 C 0.66106 0.34546 -0.14951
 N707 N 0.64126 0.39982 -0.14496
 H708 H 0.64425 0.30815 -0.13027
 N709 N 0.93088 1.15883 0.33095
 N710 N 0.90291 1.20074 0.30812
 C711 C 0.84451 1.19811 0.32115
 C712 C 0.83749 1.15283 0.35244
 N713 N 0.89200 1.12890 0.35663
 H714 H 0.79654 1.13693 0.36876
 N715 N 0.43131 0.65646 -0.17074
 N716 N 0.40358 0.69872 -0.19334
 C717 C 0.34536 0.69696 -0.17967
 C718 C 0.33822 0.65180 -0.14828
 N719 N 0.39245 0.62710 -0.14459
 H720 H 0.29733 0.63655 -0.13145
 N721 N 0.93572 0.82838 0.66641
 N722 N 0.90541 0.78966 0.69128
 C723 C 0.84689 0.79632 0.67985
 C724 C 0.84211 0.84057 0.64750
 N725 N 0.89820 0.85993 0.64101
 H726 H 0.80186 0.85898 0.63206
 N727 N 0.43576 0.33144 0.16854
 N728 N 0.40591 0.29266 0.19367
 C729 C 0.34763 0.29704 0.18080
 C730 C 0.34251 0.33991 0.14723
 N731 N 0.39815 0.36078 0.14148
 H732 H 0.30225 0.35651 0.13048
   
