data_POSCAR
  _audit_creation_date              2014-09-24
  _audit_creation_method            'ToBaCCo'
  _symmetry_space_group_name_H-M    'P1'
  _symmetry_Int_Tables_number       1
  _symmetry_cell_setting            triclinic
  loop_
  _symmetry_equiv_pos_as_xyz
 x,y,z
_cell_length_a 25.5683
_cell_length_b 25.3452
_cell_length_c 25.5127
_cell_angle_alpha 89.735400
_cell_angle_beta 89.692700
_cell_angle_gamma 90.344600
loop_
  _atom_site_label
  _atom_site_type_symbol
  _atom_site_fract_x
  _atom_site_fract_y
  _atom_site_fract_z
N1 N 0.21472 0.20153 0.19799
 N2 N -0.21231 0.78047 0.22513
 N3 N -0.20642 0.21148 -0.21674
 N4 N 0.22530 0.77929 -0.21943
 N5 N 0.20929 1.19613 0.80510
 N6 N 0.80199 0.79033 0.79168
 N7 N 0.19560 0.81660 1.18598
 N8 N 0.81985 1.18641 1.18784
 N9 N 0.56867 1.05213 1.08701
 N10 N 0.60895 1.05900 1.11845
 N11 N 0.45788 1.08888 1.05276
 N12 N 0.41643 1.11939 1.05815
 N13 N 0.45860 1.05291 1.08989
 N14 N 0.41819 1.05845 1.12174
 N15 N 0.56864 1.08810 1.04980
 N16 N 0.60896 1.12040 1.05489
 C17 C 0.63348 1.10202 1.09818
 C18 C 0.39169 1.09972 1.10131
 N19 N 0.45432 1.04984 0.90471
 N20 N 0.41714 1.05908 0.87031
 N21 N 0.56588 1.08704 0.93640
 N22 N 0.60109 1.12310 0.92259
 N23 N 0.56320 1.04996 0.90078
 N24 N 0.59564 1.06016 0.86186
 N25 N 0.45620 1.08754 0.93983
 N26 N 0.42034 1.12345 0.93029
 Mn27 Mn 0.51226 1.08858 0.99486
 C28 C 0.39647 1.10522 0.88671
 C29 C 0.62028 1.10498 0.87630
 N30 N 0.45725 0.93902 1.09147
 N31 N 0.41578 0.93484 1.12229
 N32 N 0.56662 0.90159 1.05394
 N33 N 0.60186 0.86530 1.06473
 N34 N 0.56735 0.93889 1.08948
 N35 N 0.60318 0.92914 1.12522
 N36 N 0.45687 0.90165 1.05596
 N37 N 0.41537 0.87100 1.06161
 Mn38 Mn 0.51294 0.99579 1.09007
 C39 C 0.39055 0.89192 1.10338
 C40 C 0.62445 0.88318 1.10922
 N41 N 0.56406 0.93634 0.90402
 N42 N 0.60472 0.93070 0.87241
 N43 N 0.45448 0.89961 0.94338
 N44 N 0.41801 0.86355 0.93488
 N45 N 0.45355 0.93609 0.90674
 N46 N 0.41642 0.92596 0.87240
 N47 N 0.56437 0.90005 0.94094
 N48 N 0.60475 0.86842 0.93520
 Mn49 Mn 0.50870 0.99293 0.90359
 Mn50 Mn 0.51064 0.90018 0.99856
 Cl51 Cl 0.51114 0.99444 0.99672
 C52 C 0.62967 0.88817 0.89248
 C53 C 0.39457 0.88060 0.89045
 N54 N -0.08708 0.44662 0.06251
 N55 N -0.11604 0.40352 0.06627
 N56 N -0.04903 0.55718 0.09644
 N57 N -0.05896 0.59241 0.13299
 N58 N -0.08530 0.55788 0.06020
 N59 N -0.12102 0.59364 0.07129
 N60 N -0.05027 0.44652 0.09825
 N61 N -0.05370 0.40376 0.12781
 C62 C -0.09495 0.37750 0.10734
 C63 C -0.10386 0.61493 0.11671
 N64 N 0.09827 0.55751 0.05687
 N65 N 0.13110 0.59742 0.06288
 N66 N 0.06263 0.44603 0.09657
 N67 N 0.07014 0.40676 0.12989
 N68 N 0.09891 0.44636 0.05997
 N69 N 0.13197 0.40723 0.06714
 N70 N 0.06297 0.55704 0.09441
 N71 N 0.07069 0.59656 0.12696
 Mn72 Mn 0.00657 0.50156 0.09698
 C73 C 0.11357 0.62111 0.10704
 C74 C 0.11335 0.38287 0.11069
 N75 N -0.08649 0.55482 -0.05364
 N76 N -0.12031 0.59258 -0.06398
 N77 N -0.05339 0.44082 -0.08579
 N78 N -0.06538 0.40296 -0.11917
 N79 N -0.08966 0.44426 -0.04943
 N80 N -0.12696 0.40900 -0.05709
 N81 N -0.05127 0.55168 -0.09119
 N82 N -0.06006 0.58730 -0.12793
 Mn83 Mn -0.08766 0.50122 0.00502
 C84 C -0.10337 0.61234 -0.11057
 C85 C -0.11114 0.38270 -0.10023
 N86 N 0.09801 0.44355 -0.05217
 N87 N 0.13163 0.40478 -0.05768
 N88 N 0.06117 0.55122 -0.09284
 N89 N 0.07045 0.58647 -0.13003
 N90 N 0.09714 0.55394 -0.05637
 N91 N 0.13199 0.59088 -0.06788
 N92 N 0.06073 0.44015 -0.08720
 N93 N 0.06810 0.39863 -0.11748
 Mn94 Mn 0.09862 0.50061 0.00208
 Mn95 Mn 0.00434 0.49566 -0.08991
 Cl96 Cl 0.00543 0.49980 0.00343
 C97 C 0.11223 0.37650 -0.09799
 C98 C 0.11482 0.61079 -0.11395
 N99 N 1.06850 0.09621 0.55519
 N100 N 1.07356 0.12786 0.59573
 N101 N 1.10648 0.05940 0.44622
 N102 N 1.14290 0.06850 0.41043
 N103 N 1.07073 0.09628 0.44520
 N104 N 1.08188 0.13158 0.40858
 N105 N 1.10416 0.05914 0.55608
 N106 N 1.13479 0.06480 0.59718
 C107 C 1.11488 0.10764 0.62160
 C108 C 1.12720 0.11383 0.38744
 N109 N 1.06599 -0.08941 0.44427
 N110 N 1.06791 -0.11625 0.40001
 N111 N 1.10258 -0.05461 0.55561
 N112 N 1.13808 -0.06505 0.59144
 N113 N 1.06601 -0.09118 0.55537
 N114 N 1.07562 -0.12749 0.59139
 N115 N 1.10347 -0.05369 0.44533
 N116 N 1.13194 -0.05556 0.40209
 Mn117 Mn 1.10470 0.00244 0.50094
 C118 C 1.10937 -0.09472 0.37418
 C119 C 1.12076 -0.11053 0.61352
 N120 N 0.95771 0.09755 0.44443
 N121 N 0.95264 0.12985 0.40423
 N122 N 0.92007 0.06153 0.55506
 N123 N 0.88711 0.06949 0.59415
 N124 N 0.95655 0.09816 0.55408
 N125 N 0.94932 0.13238 0.59217
 N126 N 0.92029 0.06190 0.44467
 N127 N 0.88889 0.06920 0.40435
 Mn128 Mn 1.01337 0.09760 0.49957
 C129 C 0.90959 0.11197 0.37927
 C130 C 0.90614 0.11367 0.61688
 N131 N 0.95284 -0.08976 0.55550
 N132 N 0.94193 -0.12545 0.59193
 N133 N 0.91736 -0.05210 0.44563
 N134 N 0.87983 -0.06310 0.41198
 N135 N 0.95297 -0.08923 0.44536
 N136 N 0.94053 -0.12645 0.41147
 N137 N 0.91776 -0.05211 0.55589
 N138 N 0.88248 -0.06098 0.59288
 Mn139 Mn 1.00960 -0.09055 0.50012
 Mn140 Mn 0.91829 0.00487 0.50033
 Cl141 Cl 1.01140 0.00353 0.50021
 C142 C 0.89767 -0.10713 0.61487
 C143 C 0.89482 -0.10957 0.39092
 C144 C 1.23007 0.16690 0.28967
 C145 C 1.19604 0.18333 0.24879
 C146 C 1.14186 0.17866 0.25639
 C147 C 1.12121 0.15615 0.30160
 C148 C 1.15344 0.13879 0.34186
 C149 C 1.20848 0.14472 0.33676
 C150 C 1.28488 0.17284 0.28546
 C151 C 1.31757 0.15719 0.32612
 C152 C 1.29652 0.13620 0.37209
 C153 C 1.24255 0.13036 0.37773
 H154 H 1.30326 0.19035 0.25141
 H155 H 1.35951 0.16207 0.32220
 H156 H 1.32213 0.12489 0.40381
 H157 H 1.22809 0.11541 0.41479
 H158 H 1.11517 0.18967 0.22556
 H159 H 1.07944 0.15012 0.30454
 C160 C 0.78359 -0.17486 0.31302
 C161 C 0.81253 -0.19283 0.26884
 C162 C 0.86705 -0.18604 0.26835
 C163 C 0.89259 -0.16082 0.30927
 C164 C 0.86469 -0.13913 0.35107
 C165 C 0.80970 -0.14704 0.35401
 C166 C 0.72972 -0.18614 0.31868
 C167 C 0.70170 -0.16866 0.36218
 C168 C 0.72687 -0.14085 0.40160
 C169 C 0.78039 -0.13066 0.39809
 H170 H 0.70884 -0.20983 0.29068
 H171 H 0.66037 -0.17758 0.36575
 H172 H 0.70504 -0.12813 0.43570
 H173 H 0.79836 -0.11126 0.43103
 H174 H 0.89023 -0.20029 0.23578
 H175 H 0.93472 -0.15734 0.30793
 C176 C 0.85792 0.14364 0.75495
 C177 C 0.82922 0.19019 0.74481
 C178 C 0.82989 0.21207 0.69420
 C179 C 0.85709 0.18774 0.65373
 C180 C 0.88179 0.13940 0.66205
 C181 C 0.88214 0.11653 0.71268
 C182 C 0.86099 0.12232 0.80581
 C183 C 0.88630 0.07462 0.81476
 C184 C 0.90788 0.04671 0.77306
 C185 C 0.90598 0.06735 0.72233
 H186 H 0.84458 0.14262 0.83895
 H187 H 0.88898 0.05919 0.85427
 H188 H 0.92713 0.00947 0.78018
 H189 H 0.92434 0.04516 0.69120
 H190 H 0.80697 0.24677 0.68551
 H191 H 0.85643 0.20528 0.61493
 C192 C 1.22925 -0.17892 0.69125
 C193 C 1.20094 -0.19286 0.73738
 C194 C 1.14747 -0.18099 0.74052
 C195 C 1.12213 -0.15523 0.69964
 C196 C 1.14950 -0.13971 0.65449
 C197 C 1.20342 -0.15204 0.64956
 C198 C 1.28210 -0.19337 0.68455
 C199 C 1.30934 -0.18047 0.63878
 C200 C 1.28432 -0.15403 0.59829
 C201 C 1.23181 -0.14040 0.60318
 H202 H 1.30267 -0.21589 0.71373
 H203 H 1.34986 -0.19183 0.63437
 H204 H 1.30547 -0.14484 0.56250
 H205 H 1.21376 -0.12186 0.56972
 H206 H 1.12516 -0.19154 0.77524
 H207 H 1.08090 -0.14638 0.70376
 C208 C 0.25685 1.11663 1.16884
 C209 C 0.25306 1.17259 1.16721
 C210 C 0.29131 1.20117 1.13933
 C211 C 0.33439 1.17623 1.11714
 C212 C 0.34234 1.12187 1.12349
 C213 C 0.30307 1.09129 1.14985
 C214 C 0.21525 1.08506 1.18808
 C215 C 0.22138 1.03114 1.19593
 C216 C 0.26801 1.00715 1.18214
 C217 C 0.30749 1.03613 1.15722
 H218 H 0.17727 1.10133 1.19629
 H219 H 0.18966 1.00778 1.21238
 H220 H 0.27287 0.96540 1.18919
 H221 H 0.34058 1.01402 1.14374
 H222 H 0.28912 1.24372 1.13661
 H223 H 0.36327 1.20037 1.09691
 C224 C 0.31409 0.77320 0.82159
 C225 C 0.26931 0.80299 0.80759
 C226 C 0.26760 0.85670 0.82034
 C227 C 0.30854 0.88082 0.84713
 C228 C 0.35235 0.85199 0.86282
 C229 C 0.35578 0.79774 0.84964
 C230 C 0.31945 0.72010 0.80611
 C231 C 0.36379 0.69132 0.81916
 C232 C 0.40421 0.71503 0.84680
 C233 C 0.40072 0.76780 0.86144
 H234 H 0.29037 0.70058 0.78259
 H235 H 0.36718 0.65061 0.80700
 H236 H 0.43890 0.69268 0.85616
 H237 H 0.43410 0.78474 0.88101
 H238 H 0.23389 0.88007 0.80987
 H239 H 0.30568 0.92241 0.85632
 C240 C 0.69926 0.77590 1.18355
 C241 C 0.74455 0.80508 1.19788
 C242 C 0.74819 0.85857 1.18417
 C243 C 0.70875 0.88296 1.15567
 C244 C 0.66468 0.85455 1.13927
 C245 C 0.65910 0.80069 1.15387
 C246 C 0.69205 0.72314 1.20014
 C247 C 0.64720 0.69493 1.18674
 C248 C 0.60813 0.71893 1.15759
 C249 C 0.61355 0.77138 1.14173
 H250 H 0.72010 0.70355 1.22476
 H251 H 0.64234 0.65449 1.19978
 H252 H 0.57301 0.69706 1.14797
 H253 H 0.58114 0.78862 1.12098
 H254 H 0.78239 0.88139 1.19492
 H255 H 0.71312 0.92432 1.14548
 C256 C 0.72730 1.13657 0.77394
 C257 C 0.74053 1.18918 0.78938
 C258 C 0.70374 1.21560 0.82069
 C259 C 0.66503 1.18756 0.84804
 C260 C 0.66058 1.13251 0.84365
 C261 C 0.69180 1.10639 0.80539
 C262 C 0.74623 1.11340 0.72734
 C263 C 0.74045 1.05963 0.71804
 C264 C 0.71383 1.02819 0.75399
 C265 C 0.68908 1.05122 0.79685
 H266 H 0.76360 1.13654 0.69644
 H267 H 0.75683 1.04235 0.68291
 H268 H 0.71079 0.98604 0.74778
 H269 H 0.66882 1.02463 0.82282
 H270 H 0.70850 1.25721 0.82887
 H271 H 0.63975 1.20897 0.87457
 C272 C 0.20507 0.29943 0.19392
 C273 C 0.19108 0.24837 0.17631
 C274 C 0.15124 0.24275 0.13930
 C275 C 0.12523 0.28676 0.11962
 C276 C 0.13916 0.33760 0.13567
 C277 C 0.17909 0.34444 0.17324
 C278 C 0.24486 0.30673 0.23119
 C279 C 0.25868 0.35720 0.24794
 C280 C 0.23327 0.40123 0.22780
 C281 C 0.19384 0.39514 0.19071
 H282 H 0.26578 0.27374 0.24737
 H283 H 0.28936 0.36219 0.27661
 H284 H 0.24419 0.44031 0.24093
 H285 H 0.17500 0.43032 0.17602
 H286 H 0.13998 0.20379 0.12604
 H287 H 0.09474 0.28117 0.09080
 C288 C -0.19157 0.25620 -0.12855
 C289 C -0.18587 0.25429 -0.18431
 C290 C -0.15773 0.29531 -0.20901
 C291 C -0.13454 0.33568 -0.18079
 C292 C -0.14125 0.33977 -0.12659
 C293 C -0.17347 0.30160 -0.10037
 C294 C -0.21419 0.21407 -0.09967
 C295 C -0.22755 0.21989 -0.04709
 C296 C -0.21614 0.26665 -0.02139
 C297 C -0.18780 0.30634 -0.04695
 H298 H -0.22332 0.17665 -0.11740
 H299 H -0.24691 0.18798 -0.02618
 H300 H -0.22690 0.27112 0.01946
 H301 H -0.17791 0.34009 -0.02369
 H302 H -0.15232 0.29617 -0.25091
 H303 H -0.11150 0.36478 -0.20212
 C304 C 0.18283 0.68993 -0.22352
 C305 C 0.19756 0.73559 -0.19491
 C306 C 0.18542 0.73833 -0.14136
 C307 C 0.15878 0.69742 -0.11613
 C308 C 0.14263 0.65262 -0.14367
 C309 C 0.15501 0.64817 -0.19779
 C310 C 0.19736 0.68376 -0.27659
 C311 C 0.18371 0.63845 -0.30413
 C312 C 0.15641 0.59786 -0.27920
 C313 C 0.14265 0.60219 -0.22647
 H314 H 0.22057 0.71296 -0.29707
 H315 H 0.19516 0.63443 -0.34482
 H316 H 0.14663 0.56238 -0.30058
 H317 H 0.12337 0.56862 -0.20859
 H318 H 0.19641 0.77278 -0.11893
 H319 H 0.15005 0.70109 -0.07469
 C320 C -0.17186 0.69063 0.22728
 C321 C -0.18564 0.73720 0.19963
 C322 C -0.17362 0.74134 0.14604
 C323 C -0.14790 0.70095 0.11992
 C324 C -0.13252 0.65537 0.14660
 C325 C -0.14498 0.64942 0.20064
 C326 C -0.18618 0.68323 0.28034
 C327 C -0.17332 0.63702 0.30695
 C328 C -0.14699 0.59688 0.28111
 C329 C -0.13337 0.60257 0.22841
 H330 H -0.20849 0.71229 0.30150
 H331 H -0.18457 0.63200 0.34764
 H332 H -0.13780 0.56074 0.30180
 H333 H -0.11477 0.56941 0.20973
 H334 H -0.18383 0.77656 0.12430
 H335 H -0.13895 0.70581 0.07860
 C336 C 1.13013 0.15695 0.76220
 C337 C 1.18352 0.17248 0.76059
 C338 C 1.21250 0.16486 0.71447
 C339 C 1.18962 0.14283 0.67039
 C340 C 1.13639 0.13005 0.67007
 C341 C 1.10569 0.13800 0.71582
 C342 C 1.10077 0.15855 0.80917
 C343 C 1.04741 0.14771 0.80929
 C344 C 1.02280 0.13292 0.76326
 C345 C 1.05161 0.12627 0.71725
 H346 H 1.11849 0.16745 0.84635
 H347 H 1.02506 0.15062 0.84531
 H348 H 0.98132 0.12583 0.76370
 H349 H 1.03099 0.11196 0.68326
 H350 H 1.25338 0.17621 0.71269
 H351 H 1.21343 0.13700 0.63565
 C352 C 0.79011 -0.16270 0.70721
 C353 C 0.82214 -0.18778 0.74580
 C354 C 0.87650 -0.18939 0.73659
 C355 C 0.89940 -0.16346 0.69406
 C356 C 0.86933 -0.13506 0.65811
 C357 C 0.81387 -0.13570 0.66361
 C358 C 0.73496 -0.16785 0.70824
 C359 C 0.70391 -0.14357 0.67070
 C360 C 0.72688 -0.11590 0.62954
 C361 C 0.78109 -0.11298 0.62516
 H362 H 0.71491 -0.19264 0.73627
 H363 H 0.66177 -0.14767 0.67267
 H364 H 0.70256 -0.09823 0.59970
 H365 H 0.79615 -0.09445 0.59013
 H366 H 0.90213 -0.20859 0.76433
 H367 H 0.94160 -0.16443 0.69008
 C368 C 1.11714 -0.14673 0.23314
 C369 C 1.17183 -0.15581 0.22964
 C370 C 1.20408 -0.13815 0.27042
 C371 C 1.18298 -0.11749 0.31617
 C372 C 1.12890 -0.11235 0.32244
 C373 C 1.09563 -0.12403 0.27963
 C374 C 1.08365 -0.15720 0.19060
 C375 C 1.03086 -0.14417 0.19292
 C376 C 1.01035 -0.12041 0.23742
 C377 C 1.04202 -0.11101 0.28077
 H378 H 1.09795 -0.17331 0.15431
 H379 H 1.00597 -0.15138 0.15948
 H380 H 0.96979 -0.10852 0.23795
 H381 H 1.02452 -0.09155 0.31410
 H382 H 1.24600 -0.14335 0.26822
 H383 H 1.20919 -0.10716 0.34780
 C384 C 0.89934 0.16879 0.23988
 C385 C 0.84452 0.16258 0.23029
 C386 C 0.81451 0.13703 0.26952
 C387 C 0.83672 0.12103 0.31667
 C388 C 0.88863 0.13377 0.32920
 C389 C 0.91936 0.16193 0.29146
 C390 C 0.93514 0.18148 0.19929
 C391 C 0.98458 0.20127 0.21064
 C392 C 1.00003 0.20570 0.26242
 C393 C 0.96923 0.18382 0.30236
 H394 H 0.92492 0.17705 0.15866
 H395 H 1.01035 0.21439 0.17932
 H396 H 1.03680 0.22471 0.27157
 H397 H 0.98465 0.18707 0.34124
 H398 H 0.77288 0.13085 0.26490
 H399 H 0.81207 0.10028 0.34472
 C400 C 0.18397 0.24396 -0.11199
 C401 C 0.18520 0.24011 -0.16764
 C402 C 0.16091 0.27944 -0.19754
 C403 C 0.13679 0.32227 -0.17396
 C404 C 0.13726 0.32852 -0.11952
 C405 C 0.16143 0.28929 -0.08778
 C406 C 0.20234 0.20271 -0.07962
 C407 C 0.20442 0.20822 -0.02551
 C408 C 0.18545 0.25352 -0.00218
 C409 C 0.16218 0.29267 -0.03242
 H410 H 0.21403 0.16517 -0.09499
 H411 H 0.22009 0.17681 -0.00147
 H412 H 0.18772 0.25765 0.03975
 H413 H 0.14452 0.32469 -0.01132
 H414 H 0.16094 0.27706 -0.23990
 H415 H 0.11868 0.35166 -0.19880
 C416 C -0.14435 0.23510 0.11226
 C417 C -0.15909 0.23180 0.16619
 C418 C -0.14599 0.27408 0.19948
 C419 C -0.12510 0.32074 0.17970
 C420 C -0.11373 0.32595 0.12642
 C421 C -0.11988 0.28205 0.09287
 C422 C -0.14682 0.19057 0.07917
 C423 C -0.12448 0.19177 0.02921
 C424 C -0.09981 0.23730 0.01082
 C425 C -0.09814 0.28237 0.04186
 H426 H -0.16294 0.15343 0.09239
 H427 H -0.12582 0.15695 0.00482
 H428 H -0.08233 0.23789 -0.02793
 H429 H -0.07793 0.31665 0.02623
 H430 H -0.15454 0.27156 0.24107
 H431 H -0.11848 0.35341 0.20616
 C432 C -0.16638 0.69889 -0.21687
 C433 C -0.17670 0.74513 -0.18682
 C434 C -0.16529 0.74416 -0.13281
 C435 C -0.14226 0.70068 -0.10930
 C436 C -0.12898 0.65632 -0.13857
 C437 C -0.14150 0.65465 -0.19272
 C438 C -0.18373 0.69392 -0.26917
 C439 C -0.17367 0.64853 -0.29801
 C440 C -0.14782 0.60635 -0.27506
 C441 C -0.13257 0.60885 -0.22280
 H442 H -0.20669 0.72401 -0.28804
 H443 H -0.18693 0.64568 -0.33813
 H444 H -0.14079 0.57090 -0.29747
 H445 H -0.11510 0.57393 -0.20620
 H446 H -0.17284 0.77833 -0.10865
 H447 H -0.13351 0.70228 -0.06781
 C448 C 0.16986 0.72202 0.20341
 C449 C 0.17746 0.76540 0.16865
 C450 C 0.16836 0.75838 0.11499
 C451 C 0.14878 0.71101 0.09586
 C452 C 0.13734 0.66899 0.12976
 C453 C 0.14875 0.67369 0.18394
 C454 C 0.18500 0.72453 0.25645
 C455 C 0.17716 0.68174 0.29013
 C456 C 0.15548 0.63511 0.27147
 C457 C 0.14200 0.63067 0.21883
 H458 H 0.20464 0.75851 0.27224
 H459 H 0.18888 0.68448 0.33074
 H460 H 0.15019 0.60175 0.29766
 H461 H 0.12760 0.59282 0.20582
 H462 H 0.17521 0.79061 0.08777
 H463 H 0.14104 0.70770 0.05427
 C464 C 0.30371 1.20862 0.82969
 C465 C 0.25990 1.17564 0.81973
 C466 C 0.26464 1.12091 0.82627
 C467 C 0.30985 1.09905 0.84652
 C468 C 0.35188 1.13114 0.86114
 C469 C 0.34993 1.18630 0.85138
 C470 C 0.30335 1.26282 0.81690
 C471 C 0.34656 1.29481 0.82725
 C472 C 0.39133 1.27330 0.84925
 C473 C 0.39344 1.21952 0.86068
 H474 H 0.27058 1.28077 0.79737
 H475 H 0.34562 1.33637 0.81732
 H476 H 0.42502 1.29823 0.85650
 H477 H 0.42989 1.20436 0.87551
 H478 H 0.23179 1.09512 0.81806
 H479 H 0.31112 1.05677 0.85291
 C480 C 0.24395 0.87897 1.12723
 C481 C 0.24354 0.83655 1.16347
 C482 C 0.29059 0.81239 1.17738
 C483 C 0.33804 0.83090 1.15745
 C484 C 0.33945 0.87339 1.12237
 C485 C 0.29235 0.89706 1.10581
 C486 C 0.19729 0.90362 1.11161
 C487 C 0.19823 0.94488 1.07522
 C488 C 0.24552 0.96210 1.05364
 C489 C 0.29229 0.93848 1.06859
 H490 H 0.15989 0.89124 1.12721
 H491 H 0.16209 0.96351 1.06364
 H492 H 0.24600 0.99410 1.02539
 H493 H 0.32825 0.95314 1.05114
 H494 H 0.29035 0.77954 1.20467
 H495 H 0.37395 0.81213 1.16968
 C496 C 0.72891 1.20178 1.15867
 C497 C 0.77218 1.16788 1.16973
 C498 C 0.76614 1.11353 1.16017
 C499 C 0.72108 1.09336 1.13712
 C500 C 0.68033 1.12656 1.12190
 C501 C 0.68367 1.18127 1.13294
 C502 C 0.72719 1.25432 1.17696
 C503 C 0.68556 1.28738 1.16513
 C504 C 0.64323 1.26828 1.13710
 C505 C 0.64152 1.21557 1.12218
 H506 H 0.75609 1.26985 1.20312
 H507 H 0.68551 1.32765 1.17910
 H508 H 0.61055 1.29388 1.12872
 H509 H 0.60606 1.20219 1.10371
 H510 H 0.79775 1.08661 1.16872
 H511 H 0.71857 1.05132 1.12988
 C512 C 0.76645 0.87018 0.83319
 C513 C 0.76356 0.81567 0.82005
 C514 C 0.72000 0.78614 0.83756
 C515 C 0.67750 0.81040 0.86131
 C516 C 0.67741 0.86480 0.86984
 C517 C 0.72294 0.89484 0.85821
 C518 C 0.81323 0.89938 0.82677
 C519 C 0.81651 0.95173 0.84260
 C520 C 0.77382 0.97610 0.86587
 C521 C 0.72754 0.94791 0.87416
 H522 H 0.84860 0.88165 0.81213
 H523 H 0.85303 0.97278 0.83820
 H524 H 0.77697 1.01666 0.87867
 H525 H 0.69621 0.96758 0.89476
 H526 H 0.71755 0.74424 0.82963
 H527 H 0.64363 0.78659 0.87170
   
