data_POSCAR
  _audit_creation_date              2014-09-24
  _audit_creation_method            'ToBaCCo'
  _symmetry_space_group_name_H-M    'P1'
  _symmetry_Int_Tables_number       1
  _symmetry_cell_setting            triclinic
  loop_
  _symmetry_equiv_pos_as_xyz
 x,y,z
_cell_length_a 64.6288
_cell_length_b 64.5426
_cell_length_c 16.9922
_cell_angle_alpha 90.023400
_cell_angle_beta 89.997300
_cell_angle_gamma 119.615900
loop_
  _atom_site_label
  _atom_site_type_symbol
  _atom_site_fract_x
  _atom_site_fract_y
  _atom_site_fract_z
C1 C 0.23269 0.50730 0.45582
 C2 C 0.23332 0.50837 0.54017
 C3 C 0.25058 0.50513 0.58039
 C4 C 0.26866 0.50328 0.54048
 C5 C 0.26899 0.50406 0.45695
 C6 C 0.25128 0.50616 0.41627
 H7 H 0.25099 0.50462 0.35272
 H8 H 0.25136 0.50632 0.64407
 C9 C 0.47781 -0.27822 0.45886
 C10 C 0.47667 -0.27871 0.54286
 C11 C 0.47571 -0.26028 0.58352
 C12 C 0.47448 -0.24187 0.54366
 C13 C 0.47421 -0.24210 0.46009
 C14 C 0.47560 -0.26021 0.41921
 H15 H 0.47726 -0.25874 0.35572
 H16 H 0.47484 -0.26092 0.64729
 C17 C 1.27643 0.76649 0.45223
 C18 C 1.27849 0.76564 0.53560
 C19 C 1.26167 0.74577 0.57778
 C20 C 1.24243 0.72690 0.53961
 C21 C 1.23995 0.72765 0.45732
 C22 C 1.25677 0.74741 0.41471
 H23 H 1.25483 0.74740 0.35134
 H24 H 1.26275 0.74565 0.64147
 C25 C 0.76136 0.48765 0.45923
 C26 C 0.76512 0.49579 0.53900
 C27 C 0.74734 0.49916 0.57556
 C28 C 0.72713 0.49622 0.53436
 C29 C 0.72325 0.48695 0.45641
 C30 C 0.74043 0.48305 0.42024
 H31 H 0.73737 0.47613 0.36063
 H32 H 0.75061 0.50680 0.63410
 C33 C 0.48897 0.26354 0.46249
 C34 C 0.48640 0.26236 0.54609
 C35 C 0.48356 0.24178 0.58508
 C36 C 0.48463 0.22326 0.54473
 C37 C 0.48725 0.22485 0.46157
 C38 C 0.48954 0.24487 0.42216
 H39 H 0.49049 0.24528 0.35839
 H40 H 0.48270 0.24116 0.64878
 C41 C 0.74612 0.22549 0.46407
 C42 C 0.74656 0.22577 0.54691
 C43 C 0.76545 0.24479 0.58627
 C44 C 0.78417 0.26399 0.54514
 C45 C 0.78312 0.26359 0.46087
 C46 C 0.76425 0.24426 0.42225
 H47 H 0.76350 0.24392 0.35844
 H48 H 0.76584 0.24391 0.64988
 N49 N 0.97877 0.51731 -0.14982
 N50 N 0.96199 0.51093 -0.20378
 N51 N 1.02673 0.55747 -0.08757
 N52 N 1.04464 0.57940 -0.09504
 N53 N 1.02873 0.54320 -0.13826
 N54 N 1.04818 0.55497 -0.18104
 N55 N 0.97675 0.53092 -0.09636
 N56 N 0.95837 0.53389 -0.11178
 C57 C 0.94938 0.52135 -0.17898
 C58 C 1.05786 0.57756 -0.15354
 N59 N 1.02420 0.54417 0.13732
 N60 N 1.04254 0.55611 0.18468
 N61 N 0.97398 0.53159 0.07274
 N62 N 0.95412 0.53270 0.07359
 N63 N 0.97406 0.51808 0.13029
 N64 N 0.95425 0.50956 0.17158
 N65 N 1.02400 0.55808 0.08132
 N66 N 1.04208 0.57990 0.08942
 Mn67 Mn 1.00029 0.54474 -0.00750
 C68 C 1.05344 0.57844 0.15433
 C69 C 0.94203 0.51894 0.13595
 N70 N 1.03007 0.49930 -0.13078
 N71 N 1.04994 0.50699 -0.17155
 N72 N 0.97887 0.45937 -0.08377
 N73 N 0.96200 0.43721 -0.09680
 N74 N 0.98018 0.47327 -0.14227
 N75 N 0.96448 0.46086 -0.19736
 N76 N 1.02897 0.48490 -0.07440
 N77 N 1.04804 0.48243 -0.07517
 Mn78 Mn 1.00450 0.50830 -0.14131
 C79 C 1.06095 0.49623 -0.13624
 C80 C 0.95316 0.43847 -0.16772
 N81 N 0.97531 0.47452 0.13814
 N82 N 0.95655 0.46324 0.18403
 N83 N 1.02626 0.48563 0.09341
 N84 N 1.04431 0.48208 0.10809
 N85 N 1.02515 0.49993 0.14608
 N86 N 1.04210 0.50607 0.19927
 N87 N 0.97607 0.45995 0.08585
 N88 N 0.95782 0.43822 0.09514
 Mn89 Mn 0.99976 0.50926 0.13890
 Mn90 Mn 1.00246 0.47216 0.00527
 Cl91 Cl 1.00174 0.50859 -0.00122
 C92 C 0.94579 0.44061 0.15671
 C93 C 1.05396 0.49492 0.17424
 N94 N 0.52312 0.55070 0.09640
 N95 N 0.52618 0.57218 0.11005
 N96 N 0.53403 0.51010 0.14498
 N97 N 0.54480 0.50059 0.18519
 N98 N 0.54882 0.52594 0.09463
 N99 N 0.56993 0.52761 0.09924
 N100 N 0.50893 0.53546 0.14912
 N101 N 0.50220 0.54618 0.20097
 C102 C 0.51303 0.56900 0.17551
 C103 C 0.56731 0.51191 0.15626
 N104 N 0.47610 0.45269 0.07690
 N105 N 0.47068 0.43026 0.08655
 N106 N 0.46466 0.49155 0.13691
 N107 N 0.45314 0.49930 0.18119
 N108 N 0.45095 0.47799 0.07971
 N109 N 0.42954 0.47579 0.08463
 N110 N 0.48939 0.46591 0.13529
 N111 N 0.49308 0.45280 0.18686
 Mn112 Mn 0.49926 0.50070 0.14256
 C113 C 0.48158 0.43073 0.15501
 C114 C 0.43121 0.48911 0.14849
 N115 N 0.55140 0.52900 -0.07313
 N116 N 0.57302 0.53180 -0.07692
 N117 N 0.51249 0.54048 -0.13044
 N118 N 0.50464 0.55215 -0.17361
 N119 N 0.52571 0.55386 -0.07231
 N120 N 0.52732 0.57506 -0.07464
 N121 N 0.53827 0.51582 -0.13174
 N122 N 0.55074 0.50962 -0.17794
 Mn123 Mn 0.53747 0.54016 0.01148
 C124 C 0.57237 0.51976 -0.14283
 C125 C 0.51418 0.57377 -0.13848
 N126 N 0.45354 0.48120 -0.09059
 N127 N 0.43219 0.47869 -0.10260
 N128 N 0.49414 0.47121 -0.14240
 N129 N 0.50184 0.46052 -0.19093
 N130 N 0.47878 0.45587 -0.09211
 N131 N 0.47569 0.43434 -0.10499
 N132 N 0.46886 0.49622 -0.14158
 N133 N 0.45848 0.50437 -0.18925
 Mn134 Mn 0.46453 0.46666 -0.00661
 Mn135 Mn 0.50349 0.50591 -0.13748
 Cl136 Cl 0.50116 0.50332 0.00252
 C137 C 0.43562 0.49330 -0.16460
 C138 C 0.49015 0.43750 -0.16699
 N139 N 0.45652 -0.02450 0.08756
 N140 N 0.43575 -0.04410 0.09711
 N141 N 0.49508 0.02730 0.13446
 N142 N 0.50227 0.04676 0.17705
 N143 N 0.47971 0.02566 0.08082
 N144 N 0.47573 0.04382 0.08632
 N145 N 0.47151 -0.02282 0.14266
 N146 N 0.46145 -0.04116 0.19081
 C147 C 0.43913 -0.05424 0.16219
 C148 C 0.48993 0.05678 0.14669
 N149 N 0.55484 0.02816 0.08541
 N150 N 0.57643 0.04652 0.09483
 N151 N 0.51638 -0.02163 0.14528
 N152 N 0.50899 -0.04010 0.19295
 N153 N 0.53126 -0.02173 0.09286
 N154 N 0.53477 -0.03999 0.10439
 N155 N 0.54015 0.02868 0.13768
 N156 N 0.55124 0.04756 0.18346
 Mn157 Mn 0.50579 0.00294 0.14095
 C158 C 0.57386 0.05849 0.15610
 C159 C 0.52078 -0.05122 0.16710
 N160 N 0.47964 0.02361 -0.08881
 N161 N 0.47562 0.04151 -0.10163
 N162 N 0.47114 -0.02667 -0.13486
 N163 N 0.46072 -0.04621 -0.17791
 N164 N 0.45626 -0.02652 -0.08250
 N165 N 0.43515 -0.04583 -0.08950
 N166 N 0.49441 0.02348 -0.14159
 N167 N 0.50084 0.04122 -0.19159
 Mn168 Mn 0.46770 -0.00047 -0.00074
 C169 C 0.48896 0.05232 -0.16618
 C170 C 0.43827 -0.05789 -0.14937
 N171 N 0.53077 -0.02417 -0.07664
 N172 N 0.53284 -0.04354 -0.07866
 N173 N 0.53976 0.02516 -0.13845
 N174 N 0.55065 0.04313 -0.18796
 N175 N 0.55457 0.02601 -0.08397
 N176 N 0.57597 0.04451 -0.09520
 N177 N 0.51625 -0.02494 -0.13204
 N178 N 0.50805 -0.04479 -0.17296
 Mn179 Mn 0.54313 0.00206 0.00437
 Mn180 Mn 0.50542 -0.00070 -0.13765
 Cl181 Cl 0.50551 0.00097 0.00174
 C182 C 0.51864 -0.05616 -0.13959
 C183 C 0.57325 0.05502 -0.16040
 C184 C 1.19683 0.51364 0.29344
 C185 C 1.17364 0.50230 0.32575
 C186 C 1.17051 0.49210 0.40153
 C187 C 1.18957 0.49208 0.44053
 C188 C 1.21295 0.50486 0.41093
 C189 C 1.21609 0.51511 0.33563
 C190 C 1.14849 0.48246 0.43912
 C191 C 1.12969 0.48370 0.40447
 C192 C 1.13185 0.49345 0.32864
 C193 C 1.15362 0.50132 0.28653
 C194 C 1.15442 0.50734 0.20630
 C195 C 1.13473 0.50618 0.16898
 C196 C 1.11402 0.50031 0.21113
 C197 C 1.11264 0.49481 0.29241
 C198 C 1.09227 0.49137 0.33449
 C199 C 1.07360 0.49223 0.29624
 C200 C 1.07441 0.49587 0.21505
 C201 C 1.09463 0.49996 0.17264
 H202 H 1.20088 0.52274 0.23758
 H203 H 1.18612 0.48243 0.49549
 H204 H 1.23367 0.52540 0.31028
 H205 H 1.14598 0.47459 0.49716
 H206 H 1.11325 0.47596 0.43722
 H207 H 1.16979 0.51202 0.16992
 H208 H 1.13590 0.51037 0.10679
 H209 H 1.09060 0.48867 0.39732
 H210 H 1.05818 0.48941 0.32987
 H211 H 1.09542 0.50336 0.10987
 C212 C 0.47635 0.68152 0.29702
 C213 C 0.49050 0.67238 0.32831
 C214 C 0.50060 0.68039 0.40373
 C215 C 0.49772 0.69781 0.44335
 C216 C 0.48249 0.70582 0.41441
 C217 C 0.47228 0.69772 0.33959
 C218 C 0.51325 0.67072 0.44010
 C219 C 0.51520 0.65240 0.40463
 C220 C 0.50556 0.64390 0.32927
 C221 C 0.49449 0.65519 0.28833
 C222 C 0.48834 0.64933 0.20849
 C223 C 0.49227 0.63248 0.17061
 C224 C 0.50125 0.61995 0.21183
 C225 C 0.50724 0.62490 0.29257
 C226 C 0.51402 0.61016 0.33394
 C227 C 0.51552 0.59182 0.29571
 C228 C 0.51101 0.58809 0.21513
 C229 C 0.50399 0.60221 0.17316
 H230 H 0.46718 0.67555 0.24154
 H231 H 0.50759 0.70516 0.49722
 H232 H 0.46016 0.70300 0.31478
 H233 H 0.52111 0.67687 0.49777
 H234 H 0.52520 0.64581 0.43644
 H235 H 0.48128 0.65821 0.17283
 H236 H 0.48770 0.62883 0.10884
 H237 H 0.51742 0.61181 0.39640
 H238 H 0.52054 0.58067 0.32903
 H239 H 0.49988 0.59881 0.11099
 C240 C 0.30322 -0.18509 0.30131
 C241 C 0.32778 -0.17377 0.32019
 C242 C 0.33477 -0.18387 0.38149
 C243 C 0.31786 -0.20393 0.42262
 C244 C 0.29345 -0.21420 0.40655
 C245 C 0.28649 -0.20496 0.34342
 C246 C 0.35865 -0.17391 0.40218
 C247 C 0.37589 -0.15360 0.36496
 C248 C 0.36995 -0.14229 0.30500
 C249 C 0.34556 -0.15279 0.28108
 C250 C 0.33978 -0.14184 0.21949
 C251 C 0.35703 -0.12110 0.18368
 C252 C 0.38072 -0.11028 0.20784
 C253 C 0.38759 -0.12073 0.26861
 C254 C 0.41184 -0.10887 0.29131
 C255 C 0.42827 -0.08753 0.25612
 C256 C 0.42134 -0.07721 0.19678
 C257 C 0.39756 -0.08882 0.17212
 H258 H 0.29621 -0.17887 0.25525
 H259 H 0.32391 -0.21200 0.46606
 H260 H 0.26785 -0.21236 0.32860
 H261 H 0.36408 -0.18174 0.44860
 H262 H 0.39381 -0.14722 0.38510
 H263 H 0.32195 -0.14880 0.19744
 H264 H 0.35168 -0.11328 0.13702
 H265 H 0.41880 -0.11531 0.33677
 H266 H 0.44659 -0.07902 0.27590
 H267 H 0.39207 -0.08094 0.12607
 C268 C 0.80615 0.46835 0.40551
 C269 C 0.81805 0.48349 0.34073
 C270 C 0.80823 0.49711 0.30940
 C271 C 0.78866 0.49695 0.34550
 C272 C 0.77864 0.48363 0.41372
 C273 C 0.78670 0.46844 0.44120
 C274 C 0.81851 0.51163 0.24406
 C275 C 0.83906 0.51387 0.21061
 C276 C 0.85048 0.50189 0.24211
 C277 C 0.83961 0.48615 0.30753
 C278 C 0.85113 0.47431 0.33936
 C279 C 0.87279 0.47815 0.31008
 C280 C 0.88387 0.49385 0.24783
 C281 C 0.87276 0.50565 0.21180
 C282 C 0.88475 0.52112 0.14791
 C283 C 0.90703 0.52518 0.12308
 C284 C 0.91812 0.51400 0.16062
 C285 C 0.90628 0.49808 0.22223
 H286 H 0.81170 0.45666 0.43133
 H287 H 0.78214 0.50844 0.32346
 H288 H 0.77872 0.45758 0.49293
 H289 H 0.81082 0.52179 0.21930
 H290 H 0.84585 0.52571 0.16095
 H291 H 0.84414 0.46225 0.38844
 H292 H 0.88114 0.46895 0.33738
 H293 H 0.87760 0.53055 0.11593
 H294 H 0.91572 0.53735 0.07464
 H295 H 0.91462 0.48909 0.25103
 C296 C 0.50585 0.31251 0.31121
 C297 C 0.48904 0.32011 0.32524
 C298 C 0.47200 0.30847 0.38558
 C299 C 0.47122 0.28927 0.42679
 C300 C 0.48849 0.28252 0.41392
 C301 C 0.50563 0.29416 0.35535
 C302 C 0.45612 0.31634 0.40566
 C303 C 0.45729 0.33612 0.36911
 C304 C 0.47387 0.34828 0.30853
 C305 C 0.48898 0.33924 0.28305
 C306 C 0.50317 0.34933 0.21548
 C307 C 0.50326 0.36818 0.17576
 C308 C 0.48997 0.37833 0.20345
 C309 C 0.47550 0.36890 0.27139
 C310 C 0.46377 0.38095 0.30058
 C311 C 0.46595 0.40109 0.26258
 C312 C 0.47940 0.40951 0.19391
 C313 C 0.49130 0.39810 0.16416
 H314 H 0.52002 0.32105 0.26888
 H315 H 0.45767 0.28010 0.47124
 H316 H 0.51925 0.28936 0.34476
 H317 H 0.44299 0.30745 0.45152
 H318 H 0.44437 0.34104 0.38793
 H319 H 0.51389 0.34248 0.19021
 H320 H 0.51423 0.37519 0.12362
 H321 H 0.45346 0.37574 0.35405
 H322 H 0.45699 0.41010 0.28674
 H323 H 0.50213 0.40506 0.11165
 C324 C 0.71374 0.16701 0.35553
 C325 C 0.69157 0.16541 0.33784
 C326 C 0.68778 0.18418 0.36373
 C327 C 0.70603 0.20421 0.40155
 C328 C 0.72756 0.20517 0.41958
 C329 C 0.73135 0.18656 0.39637
 C330 C 0.66572 0.18270 0.35285
 C331 C 0.64695 0.16261 0.31909
 C332 C 0.64984 0.14351 0.29192
 C333 C 0.67289 0.14561 0.29720
 C334 C 0.67661 0.12813 0.26029
 C335 C 0.65823 0.10876 0.22208
 C336 C 0.63525 0.10554 0.22172
 C337 C 0.63057 0.12258 0.25815
 C338 C 0.60664 0.11759 0.26116
 C339 C 0.58834 0.09676 0.22817
 C340 C 0.59330 0.08055 0.18982
 C341 C 0.61680 0.08511 0.18611
 H342 H 0.71769 0.15306 0.34124
 H343 H 0.70327 0.21882 0.41912
 H344 H 0.74796 0.18711 0.41048
 H345 H 0.66276 0.19704 0.37222
 H346 H 0.63050 0.16288 0.31267
 H347 H 0.69384 0.12934 0.25774
 H348 H 0.66196 0.09589 0.19387
 H349 H 0.60137 0.12899 0.29097
 H350 H 0.57020 0.09339 0.23235
 H351 H 0.62062 0.07231 0.15779
 C352 C 0.46737 0.17462 -0.30667
 C353 C 0.48184 0.16471 -0.32827
 C354 C 0.49795 0.17559 -0.39140
 C355 C 0.49919 0.19519 -0.43098
 C356 C 0.48396 0.20415 -0.41187
 C357 C 0.46855 0.19401 -0.34746
 C358 C 0.51286 0.16693 -0.41524
 C359 C 0.51194 0.14730 -0.37885
 C360 C 0.49602 0.13546 -0.31635
 C361 C 0.48094 0.14450 -0.28977
 C362 C 0.46551 0.13301 -0.22582
 C363 C 0.46458 0.11329 -0.18955
 C364 C 0.47880 0.10401 -0.21564
 C365 C 0.49470 0.11488 -0.27950
 C366 C 0.50848 0.10450 -0.30420
 C367 C 0.50651 0.08436 -0.26707
 C368 C 0.49084 0.07378 -0.20406
 C369 C 0.47707 0.08375 -0.17834
 H370 H 0.45468 0.16768 -0.25929
 H371 H 0.51277 0.20403 -0.47535
 H372 H 0.45655 0.20041 -0.33028
 H373 H 0.52529 0.17530 -0.46333
 H374 H 0.52415 0.14196 -0.40137
 H375 H 0.45382 0.13885 -0.20193
 H376 H 0.45243 0.10509 -0.14069
 H377 H 0.52084 0.11126 -0.35247
 H378 H 0.51738 0.07703 -0.28812
 H379 H 0.46485 0.07563 -0.12961
 C380 C 0.68505 0.51968 -0.44491
 C381 C 0.67610 0.51231 -0.36824
 C382 C 0.68764 0.50335 -0.31941
 C383 C 0.70521 0.49883 -0.35059
 C384 C 0.71189 0.50356 -0.43027
 C385 C 0.70289 0.51577 -0.47450
 C386 C 0.68111 0.49839 -0.24044
 C387 C 0.66333 0.50213 -0.20901
 C388 C 0.65049 0.50979 -0.25673
 C389 C 0.65625 0.51380 -0.33845
 C390 C 0.64129 0.51793 -0.38874
 C391 C 0.62161 0.51871 -0.35982
 C392 C 0.61666 0.51642 -0.27947
 C393 C 0.63146 0.51270 -0.22629
 C394 C 0.62675 0.51242 -0.14479
 C395 C 0.60775 0.51504 -0.11796
 C396 C 0.59256 0.51739 -0.17131
 C397 C 0.59701 0.51797 -0.25192
 H398 H 0.67893 0.52895 -0.48278
 H399 H 0.71252 0.49028 -0.31385
 H400 H 0.70955 0.52224 -0.53301
 H401 H 0.68990 0.49164 -0.20240
 H402 H 0.65917 0.49767 -0.14776
 H403 H 0.64371 0.51948 -0.45170
 H404 H 0.61031 0.52143 -0.40078
 H405 H 0.63785 0.51091 -0.10038
 H406 H 0.60468 0.51487 -0.05522
 H407 H 0.58553 0.52035 -0.29313
 C408 C 0.81667 0.30856 -0.29533
 C409 C 0.84010 0.32125 -0.32510
 C410 C 0.84464 0.31425 -0.39910
 C411 C 0.82673 0.29430 -0.43839
 C412 C 0.80307 0.28253 -0.41089
 C413 C 0.79856 0.28986 -0.33778
 C414 C 0.86693 0.32745 -0.43435
 C415 C 0.88455 0.34811 -0.39914
 C416 C 0.88095 0.35559 -0.32482
 C417 C 0.85897 0.34101 -0.28496
 C418 C 0.85681 0.34630 -0.20577
 C419 C 0.87530 0.36561 -0.16752
 C420 C 0.89611 0.38107 -0.20774
 C421 C 0.89890 0.37677 -0.28786
 C422 C 0.91929 0.39416 -0.32819
 C423 C 0.93654 0.41447 -0.28939
 C424 C 0.93433 0.41771 -0.20914
 C425 C 0.91414 0.40097 -0.16846
 H426 H 0.81147 0.31355 -0.24140
 H427 H 0.83148 0.28807 -0.49074
 H428 H 0.78069 0.28195 -0.31431
 H429 H 0.87056 0.32219 -0.49103
 H430 H 0.90126 0.35742 -0.43013
 H431 H 0.84132 0.33515 -0.17074
 H432 H 0.87308 0.36874 -0.10620
 H433 H 0.92200 0.39290 -0.39024
 H434 H 0.95194 0.42747 -0.32185
 H435 H 0.91220 0.40381 -0.10658
 C436 C 0.46023 -0.19485 -0.39603
 C437 C 0.47756 -0.18235 -0.33747
 C438 C 0.49200 -0.19204 -0.31303
 C439 C 0.48994 -0.21254 -0.34940
 C440 C 0.47418 -0.22336 -0.41258
 C441 C 0.45865 -0.21488 -0.43254
 C442 C 0.50897 -0.18080 -0.25417
 C443 C 0.51266 -0.15959 -0.22082
 C444 C 0.49953 -0.14860 -0.24546
 C445 C 0.48136 -0.16042 -0.30371
 C446 C 0.46806 -0.14957 -0.32801
 C447 C 0.47277 -0.12765 -0.29874
 C448 C 0.49085 -0.11558 -0.24402
 C449 C 0.50428 -0.12592 -0.21522
 C450 C 0.52216 -0.11282 -0.15844
 C451 C 0.52671 -0.09030 -0.13331
 C452 C 0.51374 -0.08011 -0.16399
 C453 C 0.49571 -0.09296 -0.21873
 H454 H 0.44767 -0.18961 -0.41584
 H455 H 0.50190 -0.21901 -0.33211
 H456 H 0.44486 -0.22404 -0.47604
 H457 H 0.51988 -0.18826 -0.23458
 H458 H 0.52633 -0.15206 -0.17654
 H459 H 0.45401 -0.15733 -0.37093
 H460 H 0.46229 -0.11989 -0.32012
 H461 H 0.53308 -0.11930 -0.13253
 H462 H 0.54063 -0.08074 -0.09036
 H463 H 0.48540 -0.08529 -0.24231
 C464 C 0.29727 0.48402 -0.30672
 C465 C 0.32152 0.49631 -0.32959
 C466 C 0.32778 0.51208 -0.39443
 C467 C 0.31040 0.51468 -0.43547
 C468 C 0.28625 0.50140 -0.41520
 C469 C 0.28007 0.48667 -0.34850
 C470 C 0.35138 0.52524 -0.41859
 C471 C 0.36911 0.52303 -0.38038
 C472 C 0.36394 0.50736 -0.31609
 C473 C 0.33973 0.49364 -0.29050
 C474 C 0.33452 0.47748 -0.22762
 C475 C 0.35222 0.47467 -0.19120
 C476 C 0.37587 0.48791 -0.21527
 C477 C 0.38216 0.50467 -0.27739
 C478 C 0.40650 0.51799 -0.29835
 C479 C 0.42354 0.51424 -0.26106
 C480 C 0.41714 0.49727 -0.20123
 C481 C 0.39329 0.48434 -0.17784
 H482 H 0.29089 0.47213 -0.25705
 H483 H 0.31595 0.52785 -0.48176
 H484 H 0.26166 0.47630 -0.33014
 H485 H 0.35623 0.53732 -0.46824
 H486 H 0.38674 0.53373 -0.40392
 H487 H 0.31676 0.46636 -0.20561
 H488 H 0.34730 0.46188 -0.14371
 H489 H 0.41314 0.53152 -0.34320
 H490 H 0.44192 0.52476 -0.27957
 H491 H 0.38822 0.47130 -0.13103
 C492 C 1.20304 0.66807 -0.36015
 C493 C 1.18297 0.67028 -0.33936
 C494 C 1.18445 0.69274 -0.35089
 C495 C 1.20426 0.71130 -0.38842
 C496 C 1.22321 0.70822 -0.41259
 C497 C 1.22294 0.68692 -0.39570
 C498 C 1.16598 0.69647 -0.32632
 C499 C 1.14596 0.67839 -0.29006
 C500 C 1.14322 0.65546 -0.27960
 C501 C 1.16157 0.65107 -0.30769
 C502 C 1.15749 0.62746 -0.30637
 C503 C 1.13626 0.60879 -0.27809
 C504 C 1.11870 0.61301 -0.24711
 C505 C 1.12226 0.63652 -0.24480
 C506 C 1.10474 0.64010 -0.20710
 C507 C 1.08411 0.62097 -0.17652
 C508 C 1.08011 0.59769 -0.18342
 C509 C 1.09751 0.59380 -0.21833
 H510 H 1.20398 0.65211 -0.34902
 H511 H 1.20480 0.72806 -0.40046
 H512 H 1.23783 0.68460 -0.41253
 H513 H 1.16703 0.71360 -0.33509
 H514 H 1.13237 0.68265 -0.27403
 H515 H 1.17001 0.62266 -0.33007
 H516 H 1.13366 0.59086 -0.27996
 H517 H 1.10668 0.65752 -0.19867
 H518 H 1.07104 0.62438 -0.14841
 H519 H 1.09473 0.57581 -0.22191
 C520 C 0.80506 0.49958 -0.29515
 C521 C 0.82741 0.50869 -0.33264
 C522 C 0.82875 0.51440 -0.41355
 C523 C 0.80874 0.51213 -0.45345
 C524 C 0.78613 0.50128 -0.41774
 C525 C 0.78486 0.49577 -0.33708
 C526 C 0.84990 0.52182 -0.45497
 C527 C 0.86952 0.52259 -0.41864
 C528 C 0.86910 0.51715 -0.33801
 C529 C 0.84829 0.51171 -0.29325
 C530 C 0.84921 0.50994 -0.21066
 C531 C 0.86956 0.51270 -0.17329
 C532 C 0.88931 0.51614 -0.21688
 C533 C 0.88907 0.51763 -0.30012
 C534 C 0.90861 0.51892 -0.34210
 C535 C 0.92787 0.51956 -0.30257
 C536 C 0.92856 0.51958 -0.22037
 C537 C 0.90926 0.51791 -0.17773
 H538 H 0.80231 0.49394 -0.23450
 H539 H 0.81096 0.51877 -0.51305
 H540 H 0.76794 0.48728 -0.30657
 H541 H 0.85105 0.52628 -0.51694
 H542 H 0.88516 0.52835 -0.45464
 H543 H 0.83469 0.50731 -0.17294
 H544 H 0.86964 0.51163 -0.10962
 H545 H 0.90916 0.51870 -0.40551
 H546 H 0.94252 0.52051 -0.33642
 H547 H 0.90954 0.51735 -0.11394
 C548 C 0.47109 0.29464 -0.30239
 C549 C 0.48582 0.31883 -0.32366
 C550 C 0.50190 0.32377 -0.38684
 C551 C 0.50284 0.30522 -0.42690
 C552 C 0.48711 0.28120 -0.40844
 C553 C 0.47180 0.27631 -0.34383
 C554 C 0.51679 0.34720 -0.41082
 C555 C 0.51571 0.36596 -0.37501
 C556 C 0.49971 0.36208 -0.31275
 C557 C 0.48491 0.33817 -0.28536
 C558 C 0.46965 0.33441 -0.22088
 C559 C 0.46839 0.35314 -0.18556
 C560 C 0.48209 0.37638 -0.21305
 C561 C 0.49798 0.38129 -0.27695
 C562 C 0.51123 0.40525 -0.30285
 C563 C 0.50870 0.42332 -0.26684
 C564 C 0.49296 0.41828 -0.20391
 C565 C 0.47979 0.39476 -0.17704
 H566 H 0.45828 0.28909 -0.25539
 H567 H 0.51594 0.30961 -0.47303
 H568 H 0.45926 0.25811 -0.32741
 H569 H 0.52922 0.35108 -0.45887
 H570 H 0.52782 0.38340 -0.39768
 H571 H 0.45839 0.31710 -0.19569
 H572 H 0.45633 0.34931 -0.13641
 H573 H 0.52352 0.41070 -0.35137
 H574 H 0.51909 0.44136 -0.28880
 H575 H 0.46754 0.39067 -0.12833
 C576 C 0.71560 0.17179 -0.32074
 C577 C 0.69146 0.16620 -0.32505
 C578 C 0.68611 0.18120 -0.37151
 C579 C 0.70429 0.20120 -0.40955
 C580 C 0.72784 0.20594 -0.40661
 C581 C 0.73341 0.19131 -0.36128
 C582 C 0.66261 0.17601 -0.38086
 C583 C 0.64405 0.15578 -0.34709
 C584 C 0.64833 0.14017 -0.30056
 C585 C 0.67248 0.14607 -0.28632
 C586 C 0.67682 0.13186 -0.23308
 C587 C 0.65827 0.11216 -0.19682
 C588 C 0.63464 0.10538 -0.21363
 C589 C 0.62927 0.11902 -0.26671
 C590 C 0.60500 0.11060 -0.28487
 C591 C 0.58699 0.08986 -0.25052
 C592 C 0.59245 0.07691 -0.19650
 C593 C 0.61632 0.08483 -0.17804
 H594 H 0.72122 0.16101 -0.28883
 H595 H 0.70006 0.21296 -0.44268
 H596 H 0.75159 0.19475 -0.35851
 H597 H 0.65845 0.18750 -0.41600
 H598 H 0.62647 0.15319 -0.35709
 H599 H 0.69450 0.13585 -0.21658
 H600 H 0.66249 0.10189 -0.15593
 H601 H 0.59932 0.11927 -0.32686
 H602 H 0.56866 0.08398 -0.26616
 H603 H 0.62069 0.07469 -0.13706
 C604 C 1.19439 0.53369 -0.40494
 C605 C 1.18151 0.51923 -0.34030
 C606 C 1.18909 0.50369 -0.30914
 C607 C 1.20734 0.50137 -0.34567
 C608 C 1.21811 0.51390 -0.41511
 C609 C 1.21234 0.53109 -0.44124
 C610 C 1.17777 0.48974 -0.24351
 C611 C 1.15834 0.48997 -0.20983
 C612 C 1.14910 0.50398 -0.24135
 C613 C 1.16110 0.51915 -0.30697
 C614 C 1.15171 0.53298 -0.33902
 C615 C 1.13098 0.53155 -0.30986
 C616 C 1.11875 0.51642 -0.24745
 C617 C 1.12784 0.50278 -0.21104
 C618 C 1.11487 0.48807 -0.14684
 C619 C 1.09347 0.48633 -0.12241
 C620 C 1.08421 0.49918 -0.16054
 C621 C 1.09716 0.51454 -0.22218
 H622 H 1.19082 0.54693 -0.42999
 H623 H 1.21163 0.48818 -0.32354
 H624 H 1.22131 0.54214 -0.49177
 H625 H 1.18370 0.47809 -0.21870
 H626 H 1.15059 0.47836 -0.16006
 H627 H 1.15963 0.54474 -0.38838
 H628 H 1.12424 0.54218 -0.33744
 H629 H 1.12056 0.47746 -0.11436
 H630 H 1.08398 0.47459 -0.07382
 H631 H 1.09028 0.52482 -0.25136
 C632 C 0.45940 0.65860 -0.39385
 C633 C 0.47737 0.66260 -0.33830
 C634 C 0.49294 0.68647 -0.31480
 C635 C 0.49166 0.70544 -0.35037
 C636 C 0.47508 0.70115 -0.41001
 C637 C 0.45833 0.67761 -0.42887
 C638 C 0.51027 0.69142 -0.25783
 C639 C 0.51299 0.67329 -0.22459
 C640 C 0.49871 0.64932 -0.24825
 C641 C 0.48070 0.64390 -0.30649
 C642 C 0.46725 0.62014 -0.33316
 C643 C 0.47134 0.60232 -0.30482
 C644 C 0.48872 0.60728 -0.24801
 C645 C 0.50233 0.63069 -0.21742
 C646 C 0.51913 0.63442 -0.15763
 C647 C 0.52274 0.61592 -0.13184
 C648 C 0.50986 0.59313 -0.16458
 C649 C 0.49269 0.58887 -0.22207
 H650 H 0.44605 0.64105 -0.41232
 H651 H 0.50447 0.72367 -0.33487
 H652 H 0.44496 0.67396 -0.47341
 H653 H 0.52211 0.70963 -0.23932
 H654 H 0.52708 0.67886 -0.18201
 H655 H 0.45377 0.61475 -0.37792
 H656 H 0.46082 0.58443 -0.32811
 H657 H 0.52971 0.65135 -0.12904
 H658 H 0.53588 0.61956 -0.08646
 H659 H 0.48231 0.57114 -0.24676
 C660 C 0.30673 -0.17332 -0.37115
 C661 C 0.32755 -0.17126 -0.33610
 C662 C 0.33192 -0.19064 -0.34467
 C663 C 0.31522 -0.21171 -0.38250
 C664 C 0.29509 -0.21309 -0.41826
 C665 C 0.29096 -0.19384 -0.41232
 C666 C 0.35317 -0.18864 -0.31723
 C667 C 0.37066 -0.16746 -0.28423
 C668 C 0.36705 -0.14777 -0.27396
 C669 C 0.34452 -0.15033 -0.29536
 C670 C 0.33954 -0.13210 -0.27407
 C671 C 0.35641 -0.11155 -0.23624
 C672 C 0.37920 -0.10789 -0.22132
 C673 C 0.38505 -0.12571 -0.24166
 C674 C 0.40894 -0.12034 -0.23138
 C675 C 0.42607 -0.09832 -0.20142
 C676 C 0.41987 -0.08127 -0.17873
 C677 C 0.39635 -0.08624 -0.18773
 H678 H 0.30271 -0.15898 -0.37076
 H679 H 0.31849 -0.22659 -0.38806
 H680 H 0.27550 -0.19467 -0.44024
 H681 H 0.35660 -0.20339 -0.32327
 H682 H 0.38662 -0.16728 -0.26474
 H683 H 0.32236 -0.13360 -0.28360
 H684 H 0.35174 -0.09811 -0.22034
 H685 H 0.41513 -0.13240 -0.24895
 H686 H 0.44427 -0.09463 -0.19556
 H687 H 0.39168 -0.07280 -0.17176
 C688 C 0.46068 -0.20090 0.34002
 C689 C 0.48275 -0.17936 0.34173
 C690 C 0.50256 -0.17994 0.37519
 C691 C 0.49962 -0.20058 0.41269
 C692 C 0.47736 -0.22124 0.41426
 C693 C 0.45820 -0.22163 0.37481
 C694 C 0.52514 -0.15986 0.37186
 C695 C 0.52863 -0.13919 0.33496
 C696 C 0.50935 -0.13744 0.30335
 C697 C 0.48590 -0.15740 0.31084
 C698 C 0.46634 -0.15442 0.29057
 C699 C 0.46963 -0.13273 0.26276
 C700 C 0.49247 -0.11363 0.25010
 C701 C 0.51267 -0.11602 0.26729
 C702 C 0.53536 -0.09700 0.24634
 C703 C 0.53783 -0.07618 0.21263
 C704 C 0.51794 -0.07342 0.20085
 C705 C 0.49529 -0.09215 0.21966
 H706 H 0.44518 -0.20231 0.31108
 H707 H 0.51460 -0.20059 0.44146
 H708 H 0.44103 -0.23776 0.37395
 H709 H 0.54034 -0.16019 0.39742
 H710 H 0.54656 -0.12437 0.33553
 H711 H 0.44817 -0.16830 0.29918
 H712 H 0.45411 -0.13103 0.24983
 H713 H 0.55143 -0.09801 0.25297
 H714 H 0.55542 -0.06199 0.19685
 H715 H 0.47981 -0.09022 0.20834
 C716 C 0.29818 0.47120 0.36823
 C717 C 0.31821 0.48963 0.32935
 C718 C 0.32143 0.51301 0.33269
 C719 C 0.30445 0.51727 0.36969
 C720 C 0.28526 0.49895 0.40996
 C721 C 0.28218 0.47595 0.40873
 C722 C 0.34190 0.53211 0.30121
 C723 C 0.35985 0.52873 0.26969
 C724 C 0.35747 0.50581 0.26504
 C725 C 0.33561 0.48581 0.29009
 C726 C 0.33173 0.46270 0.27395
 C727 C 0.34908 0.45925 0.23763
 C728 C 0.37132 0.47859 0.21951
 C729 C 0.37606 0.50216 0.23488
 C730 C 0.39952 0.52106 0.22223
 C731 C 0.41730 0.51663 0.19452
 C732 C 0.41214 0.49345 0.17619
 C733 C 0.38908 0.47450 0.18775
 H734 H 0.29506 0.45320 0.37160
 H735 H 0.30692 0.53515 0.37165
 H736 H 0.26746 0.46166 0.44015
 H737 H 0.34441 0.55000 0.30311
 H738 H 0.37518 0.54437 0.24685
 H739 H 0.31505 0.44687 0.28645
 H740 H 0.34525 0.44120 0.22561
 H741 H 0.40489 0.53931 0.23641
 H742 H 0.43519 0.53144 0.18689
 H743 H 0.38527 0.45647 0.17527
 C744 C 1.19533 0.66607 0.38520
 C745 C 1.17758 0.66985 0.35022
 C746 C 1.18221 0.69368 0.34367
 C747 C 1.20285 0.71254 0.37697
 C748 C 1.21943 0.70816 0.41552
 C749 C 1.21595 0.68500 0.41671
 C750 C 1.16607 0.69853 0.30489
 C751 C 1.14545 0.68027 0.27174
 C752 C 1.13970 0.65619 0.27840
 C753 C 1.15559 0.65086 0.32105
 C754 C 1.14859 0.62673 0.33554
 C755 C 1.12709 0.60841 0.30788
 C756 C 1.11198 0.61328 0.26281
 C757 C 1.11827 0.63720 0.24576
 C758 C 1.10295 0.64106 0.19581
 C759 C 1.08206 0.62197 0.16613
 C760 C 1.07556 0.59849 0.18588
 C761 C 1.09060 0.59426 0.23430
 H762 H 1.19401 0.64878 0.38803
 H763 H 1.20580 0.73059 0.37455
 H764 H 1.22916 0.68150 0.44308
 H765 H 1.16948 0.71669 0.29976
 H766 H 1.13386 0.68558 0.24360
 H767 H 1.15904 0.62140 0.37070
 H768 H 1.12233 0.59017 0.32139
 H769 H 1.10686 0.65856 0.17694
 H770 H 1.07084 0.62563 0.12787
 H771 H 1.08590 0.57607 0.24849
 C772 C 0.45938 0.16396 0.36699
 C773 C 0.47906 0.16412 0.32975
 C774 C 0.50158 0.18508 0.33603
 C775 C 0.50380 0.20537 0.37430
 C776 C 0.48428 0.20451 0.41294
 C777 C 0.46211 0.18378 0.40878
 C778 C 0.52186 0.18542 0.30631
 C779 C 0.52050 0.16503 0.27377
 C780 C 0.49850 0.14376 0.26628
 C781 C 0.47731 0.14389 0.28940
 C782 C 0.45512 0.12395 0.27040
 C783 C 0.45369 0.10409 0.23330
 C784 C 0.47421 0.10285 0.21716
 C785 C 0.49692 0.12245 0.23522
 C786 C 0.51707 0.11956 0.22431
 C787 C 0.51464 0.09818 0.19580
 C788 C 0.49227 0.07937 0.17500
 C789 C 0.47213 0.08187 0.18472
 H790 H 0.44193 0.14838 0.36816
 H791 H 0.52103 0.22139 0.37861
 H792 H 0.44692 0.18288 0.43895
 H793 H 0.53910 0.20141 0.31046
 H794 H 0.53695 0.16665 0.25248
 H795 H 0.43848 0.12355 0.28125
 H796 H 0.43628 0.08926 0.21915
 H797 H 0.53480 0.13312 0.24046
 H798 H 0.53036 0.09637 0.18956
 H799 H 0.45473 0.06705 0.17031
 C800 C 0.65833 0.46474 0.41224
 C801 C 0.65975 0.47813 0.34431
 C802 C 0.68227 0.49111 0.30707
 C803 C 0.70260 0.49204 0.34023
 C804 C 0.70115 0.48073 0.41178
 C805 C 0.67876 0.46608 0.44524
 C806 C 0.68470 0.50408 0.23895
 C807 C 0.66566 0.50584 0.20934
 C808 C 0.64331 0.49485 0.24745
 C809 C 0.64000 0.47995 0.31410
 C810 C 0.61729 0.46807 0.34978
 C811 C 0.59877 0.47141 0.32364
 C812 C 0.60209 0.48685 0.26152
 C813 C 0.62433 0.49866 0.22202
 C814 C 0.62688 0.51446 0.16027
 C815 C 0.60831 0.51848 0.13964
 C816 C 0.58648 0.50692 0.17913
 C817 C 0.58336 0.49088 0.23955
 H818 H 0.64195 0.45382 0.44326
 H819 H 0.71992 0.50320 0.31377
 H820 H 0.67729 0.45679 0.49986
 H821 H 0.70174 0.51354 0.20923
 H822 H 0.66924 0.51631 0.15666
 H823 H 0.61324 0.45619 0.39900
 H824 H 0.58177 0.46215 0.35363
 H825 H 0.64310 0.52446 0.12748
 H826 H 0.61121 0.53093 0.09250
 H827 H 0.56648 0.48181 0.27036
 C828 C 0.83053 0.29658 0.30746
 C829 C 0.83676 0.32067 0.32023
 C830 C 0.82391 0.32542 0.37849
 C831 C 0.80560 0.30673 0.42129
 C832 C 0.80051 0.28319 0.41003
 C833 C 0.81277 0.27827 0.35182
 C834 C 0.82978 0.34882 0.39524
 C835 C 0.84869 0.36780 0.35751
 C836 C 0.86238 0.36412 0.30018
 C837 C 0.85570 0.34015 0.27896
 C838 C 0.86822 0.33646 0.21739
 C839 C 0.88733 0.35542 0.18036
 C840 C 0.89495 0.37881 0.20344
 C841 C 0.88259 0.38359 0.26345
 C842 C 0.89141 0.40768 0.28540
 C843 C 0.91165 0.42599 0.24988
 C844 C 0.92379 0.42107 0.19113
 C845 C 0.91515 0.39745 0.16740
 H846 H 0.83955 0.29126 0.26569
 H847 H 0.79595 0.31054 0.46595
 H848 H 0.80908 0.26015 0.34235
 H849 H 0.81992 0.35255 0.43929
 H850 H 0.85197 0.38525 0.37440
 H851 H 0.86358 0.31904 0.19559
 H852 H 0.89649 0.35167 0.13382
 H853 H 0.88348 0.41304 0.33105
 H854 H 0.91794 0.44414 0.26918
 H855 H 0.92447 0.39349 0.12199
   
