data_POSCAR
  _audit_creation_date              2014-09-24
  _audit_creation_method            'ToBaCCo'
  _symmetry_space_group_name_H-M    'P1'
  _symmetry_Int_Tables_number       1
  _symmetry_cell_setting            triclinic
  loop_
  _symmetry_equiv_pos_as_xyz
 x,y,z
_cell_length_a 34.3724
_cell_length_b 24.2731
_cell_length_c 25.0026
_cell_angle_alpha 89.909800
_cell_angle_beta 90.060000
_cell_angle_gamma 90.197500
loop_
  _atom_site_label
  _atom_site_type_symbol
  _atom_site_fract_x
  _atom_site_fract_y
  _atom_site_fract_z
C1 C 0.22142 0.21822 0.22107
 C2 C 0.22147 0.27634 0.22116
 C3 C 0.25005 0.30498 0.24993
 C4 C 0.27861 0.27640 0.27864
 C5 C 0.27861 0.21827 0.27858
 C6 C 0.25000 0.18957 0.24979
 H7 H 0.24998 0.14482 0.24974
 H8 H 0.25007 0.34968 0.24999
 C9 C 0.77910 0.28071 0.22076
 C10 C 0.77894 0.22258 0.22075
 C11 C 0.75028 0.19391 0.24938
 C12 C 0.72180 0.22253 0.27803
 C13 C 0.72196 0.28056 0.27810
 C14 C 0.75058 0.30931 0.24948
 H15 H 0.75060 0.35403 0.24961
 H16 H 0.75013 0.14922 0.24937
 C17 C 0.72192 0.72305 0.72171
 C18 C 0.72192 0.78108 0.72173
 C19 C 0.75045 0.80985 0.75049
 C20 C 0.77904 0.78129 0.77927
 C21 C 0.77903 0.72315 0.77922
 C22 C 0.75046 0.69446 0.75043
 H23 H 0.75044 0.64977 0.75039
 H24 H 0.75035 0.85457 0.75041
 C25 C 0.27803 0.77748 0.72176
 C26 C 0.27804 0.71945 0.72189
 C27 C 0.24955 0.69064 0.75070
 C28 C 0.22101 0.71916 0.77944
 C29 C 0.22103 0.77730 0.77930
 C30 C 0.24954 0.80603 0.75046
 H31 H 0.24956 0.85072 0.75034
 H32 H 0.24965 0.64592 0.75069
 O33 O 1.03754 -0.07023 -0.00674
 O34 O 0.96216 0.00438 0.06820
 O35 O 0.96181 -0.06968 -0.00701
 O36 O 1.03792 0.00381 0.06850
 O37 O 1.03838 0.06953 0.00749
 O38 O 0.96228 -0.00396 -0.06802
 O39 O 0.96264 0.07010 0.00719
 O40 O 1.03802 -0.00450 -0.06774
 Cu41 Cu 0.99981 -0.03951 0.03686
 Cu42 Cu 1.00038 0.03938 -0.03638
 C43 C 1.05070 -0.05016 -0.05009
 C44 C 0.94947 0.05003 0.05053
 C45 C 0.94901 -0.04942 -0.05045
 C46 C 1.05120 0.04927 0.05094
 O47 O 0.46218 0.49553 0.43205
 O48 O 0.53783 0.57037 0.50719
 O49 O 0.53793 0.49630 0.43198
 O50 O 0.46209 0.56964 0.50723
 O51 O 0.46232 0.50394 0.56826
 O52 O 0.53815 0.43060 0.49300
 O53 O 0.53806 0.50466 0.56821
 O54 O 0.46243 0.42984 0.49309
 Cu55 Cu 0.49998 0.53955 0.46350
 Cu56 Cu 0.50026 0.46068 0.53676
 C57 C 0.44935 0.44984 0.44969
 C58 C 0.55091 0.55035 0.55058
 C59 C 0.55103 0.45087 0.44958
 C60 C 0.44921 0.54937 0.55064
 O61 O 0.03798 0.50394 -0.06792
 O62 O -0.03805 0.43017 0.00747
 O63 O -0.03777 0.50449 -0.06772
 O64 O 0.03768 0.42960 0.00726
 O65 O 0.03822 0.49511 0.06829
 O66 O -0.03723 0.57000 -0.00670
 O67 O -0.03753 0.49567 0.06851
 O68 O 0.03850 0.56944 -0.00689
 Cu69 Cu -0.00009 0.46049 -0.03634
 Cu70 Cu 0.00054 0.53912 0.03692
 C71 C 0.05127 0.54934 -0.05033
 C72 C -0.05082 0.45027 0.05091
 C73 C -0.05043 0.55008 -0.05007
 C74 C 0.05088 0.44952 0.05063
 O75 O 0.53730 1.00481 0.43125
 O76 O 0.46171 0.93012 0.50665
 O77 O 0.46153 1.00415 0.43117
 O78 O 0.53745 0.93079 0.50671
 O79 O 0.53735 0.99654 0.56749
 O80 O 0.46143 1.06989 0.49195
 O81 O 0.46161 0.99587 0.56743
 O82 O 0.53718 1.07056 0.49203
 Cu83 Cu 0.49951 0.96088 0.46285
 Cu84 Cu 0.49938 1.03981 0.53581
 C85 C 0.55021 1.05047 0.44874
 C86 C 0.44872 0.95018 0.54998
 C87 C 0.44847 1.04960 0.44862
 C88 C 0.55041 0.95109 0.55004
 C89 C 1.13991 0.13515 0.13906
 C90 C 1.12563 0.15722 0.09121
 C91 C 1.09677 0.12931 0.06248
 C92 C 1.19389 0.18918 0.19337
 C93 C 1.09640 0.05697 0.12945
 C94 C 1.12525 0.08499 0.15811
 C95 C 1.16937 0.16424 0.16871
 C96 C 1.08181 0.07884 0.08129
 H97 H 1.13679 0.19602 0.07611
 H98 H 1.08619 0.14728 0.02559
 H99 H 1.08551 0.01823 0.14503
 H100 H 1.13608 0.06758 0.19515
 C101 C 0.63907 0.63771 0.63836
 C102 C 0.62442 0.65964 0.59067
 C103 C 0.59573 0.63126 0.56205
 C104 C 0.69288 0.69228 0.69247
 C105 C 0.59627 0.55874 0.62884
 C106 C 0.62495 0.58723 0.65738
 C107 C 0.66843 0.66718 0.66787
 C108 C 0.58132 0.58045 0.58082
 H109 H 0.63516 0.69869 0.57560
 H110 H 0.58485 0.64911 0.52527
 H111 H 0.58581 0.51976 0.64439
 H112 H 0.63608 0.56991 0.69429
 C113 C -0.13939 0.36401 0.13894
 C114 C -0.12474 0.41411 0.15802
 C115 C -0.09593 0.44226 0.12939
 C116 C -0.19335 0.30980 0.19315
 C117 C -0.09635 0.37015 0.06240
 C118 C -0.12516 0.34212 0.09110
 C119 C -0.16884 0.33481 0.16855
 C120 C -0.08139 0.42057 0.08124
 H121 H -0.13554 0.43139 0.19505
 H122 H -0.08504 0.48095 0.14499
 H123 H -0.08580 0.35232 0.02551
 H124 H -0.13632 0.30336 0.07598
 C125 C 0.36071 0.86287 0.63812
 C126 C 0.37485 0.91337 0.65694
 C127 C 0.40348 0.94185 0.62827
 C128 C 0.30701 0.80829 0.69244
 C129 C 0.40391 0.86928 0.56176
 C130 C 0.37529 0.84091 0.59050
 C131 C 0.33142 0.83341 0.66775
 C132 C 0.41835 0.92011 0.58034
 H133 H 0.36378 0.93072 0.69379
 H134 H 0.41396 0.98085 0.64367
 H135 H 0.41473 0.85140 0.52504
 H136 H 0.36453 0.80184 0.57558
 C137 C -0.13834 0.63757 -0.13765
 C138 C -0.12358 0.65934 -0.08995
 C139 C -0.09498 0.63091 -0.06140
 C140 C -0.19199 0.69225 -0.19162
 C141 C -0.09581 0.55867 -0.12826
 C142 C -0.12441 0.58721 -0.15674
 C143 C -0.16761 0.66709 -0.16709
 C144 C -0.08075 0.58022 -0.08024
 H145 H -0.13418 0.69829 -0.07483
 H146 H -0.08401 0.64864 -0.02461
 H147 H -0.08550 0.51979 -0.14386
 H148 H -0.13563 0.57002 -0.19365
 C149 C 0.35998 1.13536 0.36050
 C150 C 0.37444 1.15746 0.40822
 C151 C 0.40323 1.12959 0.43695
 C152 C 0.30610 1.18930 0.30623
 C153 C 0.40317 1.05722 0.37022
 C154 C 0.37439 1.08521 0.34156
 C155 C 0.33057 1.16440 0.33086
 C156 C 0.41794 1.07913 0.41825
 H157 H 0.36347 1.19625 0.42323
 H158 H 0.41395 1.14758 0.47374
 H159 H 0.41386 1.01849 0.35473
 H160 H 0.36341 1.06777 0.30462
 C161 C 1.13852 -0.13733 -0.13762
 C162 C 1.12381 -0.15927 -0.08995
 C163 C 1.09524 -0.13094 -0.06141
 C164 C 1.19210 -0.19186 -0.19156
 C165 C 1.09601 -0.05846 -0.12823
 C166 C 1.12458 -0.08689 -0.15670
 C167 C 1.16776 -0.16676 -0.16705
 C168 C 1.08100 -0.08018 -0.08024
 H169 H 1.13441 -0.19828 -0.07483
 H170 H 1.08431 -0.14881 -0.02464
 H171 H 1.08568 -0.01951 -0.14383
 H172 H 1.13576 -0.06957 -0.19360
 C173 C 0.63927 0.36503 0.36158
 C174 C 0.62491 0.34293 0.40939
 C175 C 0.59621 0.37083 0.43809
 C176 C 0.69300 0.31114 0.30732
 C177 C 0.59616 0.44323 0.37117
 C178 C 0.62486 0.41521 0.34254
 C179 C 0.66859 0.33598 0.33197
 C180 C 0.58149 0.42132 0.41928
 H181 H 0.63588 0.30411 0.42448
 H182 H 0.58556 0.35284 0.47495
 H183 H 0.58546 0.48197 0.35559
 H184 H 0.63576 0.43265 0.30554
 C185 C 0.86041 -0.13546 -0.13865
 C186 C 0.87502 -0.08526 -0.15769
 C187 C 0.90384 -0.05718 -0.12899
 C188 C 0.80653 -0.18961 -0.19302
 C189 C 0.90350 -0.12953 -0.06203
 C190 C 0.87469 -0.15750 -0.09079
 C191 C 0.83100 -0.16461 -0.16834
 C192 C 0.91842 -0.07903 -0.08083
 H193 H 0.86419 -0.06787 -0.19473
 H194 H 0.91469 -0.01842 -0.14456
 H195 H 0.91408 -0.14749 -0.02513
 H196 H 0.86356 -0.19633 -0.07571
 C197 C 0.36129 0.36225 0.36192
 C198 C 0.37585 0.34049 0.40974
 C199 C 0.40450 0.36896 0.43836
 C200 C 0.30761 0.30741 0.30784
 C201 C 0.40409 0.44125 0.37133
 C202 C 0.37545 0.41266 0.34278
 C203 C 0.33200 0.33266 0.33241
 C204 C 0.41896 0.41969 0.41946
 H205 H 0.36508 0.30151 0.42491
 H206 H 0.41531 0.35122 0.47523
 H207 H 0.41460 0.48016 0.35568
 H208 H 0.36439 0.42985 0.30577
 C209 C 0.13975 0.63569 -0.13845
 C210 C 0.12512 0.58556 -0.15751
 C211 C 0.09634 0.55738 -0.12884
 C212 C 0.19356 0.69001 -0.19282
 C213 C 0.09676 0.62949 -0.06185
 C214 C 0.12554 0.65756 -0.09059
 C215 C 0.16913 0.66495 -0.16812
 C216 C 0.08182 0.57906 -0.08067
 H217 H 0.13590 0.56830 -0.19455
 H218 H 0.08547 0.51868 -0.14443
 H219 H 0.08622 0.64732 -0.02495
 H220 H 0.13668 0.69634 -0.07549
 C221 C 0.63860 1.13746 0.36102
 C222 C 0.62440 1.08703 0.34211
 C223 C 0.59562 1.05867 0.37062
 C224 C 0.69264 1.19180 0.30711
 C225 C 0.59514 1.13125 0.43712
 C226 C 0.62392 1.15950 0.40855
 C227 C 0.66808 1.16678 0.33160
 C228 C 0.58066 1.08048 0.41847
 H229 H 0.63555 1.06963 0.30533
 H230 H 0.58511 1.01971 0.35517
 H231 H 0.58426 1.14918 0.47378
 H232 H 0.63472 1.19851 0.42353
 C233 C 0.13882 0.36202 0.13815
 C234 C 0.12488 0.41235 0.15727
 C235 C 0.09627 0.44090 0.12882
 C236 C 0.19249 0.30729 0.19205
 C237 C 0.09545 0.36871 0.06191
 C238 C 0.12407 0.34028 0.09044
 C239 C 0.16810 0.33248 0.16756
 C240 C 0.08121 0.41937 0.08079
 H241 H 0.13609 0.42952 0.19420
 H242 H 0.08594 0.47976 0.14445
 H243 H 0.08449 0.35100 0.02511
 H244 H 0.13467 0.30135 0.07528
 C245 C 0.63892 0.86540 0.63819
 C246 C 0.62456 0.91561 0.65704
 C247 C 0.59577 0.94356 0.62838
 C248 C 0.69285 0.81162 0.69249
 C249 C 0.59560 0.87104 0.56181
 C250 C 0.62439 0.84320 0.59054
 C251 C 0.66835 0.83642 0.66783
 C252 C 0.58094 0.92157 0.58042
 H253 H 0.63559 0.93312 0.69392
 H254 H 0.58512 0.98235 0.64380
 H255 H 0.58482 0.85298 0.52507
 H256 H 0.63531 0.80435 0.57561
 C257 C 0.86151 0.13713 0.13789
 C258 C 0.87550 0.08675 0.15703
 C259 C 0.90412 0.05834 0.12863
 C260 C 0.80787 0.19167 0.19169
 C261 C 0.90487 0.13075 0.06174
 C262 C 0.87624 0.15905 0.09021
 C263 C 0.83224 0.16655 0.16724
 C264 C 0.91914 0.08004 0.08064
 H265 H 0.86431 0.06944 0.19394
 H266 H 0.91447 0.01942 0.14428
 H267 H 0.91580 0.14860 0.02497
 H268 H 0.86561 0.19802 0.07504
 C269 C 0.36087 0.63513 0.63852
 C270 C 0.37525 0.58493 0.65755
 C271 C 0.40399 0.55694 0.62897
 C272 C 0.30705 0.68894 0.69269
 C273 C 0.40404 0.62942 0.56213
 C274 C 0.37530 0.65729 0.59078
 C275 C 0.33150 0.66414 0.66808
 C276 C 0.41872 0.57890 0.58092
 H277 H 0.36430 0.56744 0.69450
 H278 H 0.41466 0.51817 0.64453
 H279 H 0.41474 0.64745 0.52531
 H280 H 0.36436 0.69613 0.57571
   
