data_POSCAR
  _audit_creation_date              2014-09-24
  _audit_creation_method            'ToBaCCo'
  _symmetry_space_group_name_H-M    'P1'
  _symmetry_Int_Tables_number       1
  _symmetry_cell_setting            triclinic
  loop_
  _symmetry_equiv_pos_as_xyz
 x,y,z
_cell_length_a 23.4679
_cell_length_b 22.6301
_cell_length_c 31.8842
_cell_angle_alpha 89.202600
_cell_angle_beta 89.252400
_cell_angle_gamma 120.811600
loop_
  _atom_site_label
  _atom_site_type_symbol
  _atom_site_fract_x
  _atom_site_fract_y
  _atom_site_fract_z
C1 C -0.02345 0.47892 1.21113
 C2 C 0.03513 0.47553 1.20475
 C3 C 0.07040 0.47428 1.23974
 C4 C 0.05032 0.47756 1.28086
 C5 C -0.01192 0.47273 1.28751
 C6 C -0.04466 0.47957 1.25265
 H7 H -0.09177 0.47681 1.25745
 H8 H 0.11695 0.47579 1.23459
 C9 C 0.51097 0.47101 1.21719
 C10 C 0.47374 0.50269 1.20935
 C11 C 0.44054 0.51292 1.24278
 C12 C 0.44673 0.49579 1.28411
 C13 C 0.48902 0.46975 1.29280
 C14 C 0.51894 0.45577 1.25861
 H15 H 0.54554 0.42890 1.26368
 H16 H 0.41090 0.53625 1.23677
 C17 C 0.45279 0.95231 1.29452
 C18 C 0.48659 1.02520 1.29201
 C19 C 0.50066 1.05757 1.25176
 C20 C 0.47935 1.01878 1.21482
 C21 C 0.43798 0.94645 1.21916
 C22 C 0.42688 0.91419 1.25845
 H23 H 0.39905 0.85839 1.26083
 H24 H 0.52890 1.11289 1.24920
 C25 C 1.02836 0.51280 0.78580
 C26 C 0.97115 0.51634 0.79447
 C27 C 0.93507 0.52139 0.76154
 C28 C 0.95380 0.52102 0.71984
 C29 C 1.01247 0.51949 0.71058
 C30 C 1.04812 0.51358 0.74410
 H31 H 1.09420 0.51463 0.73843
 H32 H 0.88980 0.52166 0.76845
 C33 C 0.55460 0.51237 0.71449
 C34 C 0.50627 0.53054 0.70772
 C35 C 0.46083 0.52005 0.74010
 C36 C 0.46485 0.49560 0.77988
 C37 C 0.51663 0.48205 0.78775
 C38 C 0.56041 0.48998 0.75454
 H39 H 0.59724 0.47534 0.75923
 H40 H 0.42365 0.53409 0.73487
 C41 C 0.56862 0.04833 0.71175
 C42 C 0.51158 -0.01916 0.71063
 C43 C 0.47635 -0.04936 0.74885
 C44 C 0.49846 -0.01641 0.78728
 C45 C 0.55639 0.04933 0.78818
 C46 C 0.59099 0.08031 0.75048
 H47 H 0.63491 0.13129 0.75114
 H48 H 0.43387 -0.10106 0.75004
 O49 O 0.42493 0.62568 0.97021
 O50 O 0.45407 0.75252 0.95597
 C51 C 0.43677 0.79542 0.94560
 O52 O 0.38801 0.79668 0.96291
 O53 O 0.26856 0.70169 0.94280
 C54 C 0.23074 0.64137 0.92994
 O55 O 0.22617 0.58799 0.94709
 O56 O 0.32457 0.56382 0.94354
 C57 C 0.38588 0.58354 0.94413
 O58 O 0.40444 0.63704 1.05080
 O59 O 0.44358 0.76675 1.03790
 C60 C 0.40728 0.78381 1.05725
 O61 O 0.34963 0.76672 1.04564
 O62 O 0.23077 0.67459 1.02438
 C63 C 0.20353 0.61471 1.04116
 O64 O 0.21941 0.57063 1.03148
 O65 O 0.31393 0.54255 1.02836
 C66 C 0.35978 0.57384 1.05462
 Cr67 Cr 0.42807 0.69432 1.00333
 Cr68 Cr 0.31045 0.73247 0.99391
 Cr69 Cr 0.27347 0.56994 0.98775
 O70 O 0.33696 0.66552 0.99467
 O71 O 0.60297 0.39126 0.96215
 O72 O 0.56415 0.26206 0.95560
 C73 C 0.57942 0.21708 0.94808
 O74 O 0.62060 0.20991 0.96971
 O75 O 0.74533 0.30125 0.95610
 C76 C 0.79054 0.36256 0.94702
 O77 O 0.79805 0.41447 0.96672
 O78 O 0.71303 0.45345 0.95248
 C79 C 0.65461 0.43558 0.94172
 O80 O 0.59617 0.37578 1.04686
 O81 O 0.55419 0.24662 1.04057
 C82 C 0.58295 0.22352 1.06315
 O83 O 0.63881 0.23045 1.05348
 O84 O 0.76565 0.31609 1.03880
 C85 C 0.79351 0.37286 1.05761
 O86 O 0.78104 0.42026 1.05000
 O87 O 0.69902 0.46433 1.03597
 C88 C 0.64347 0.43513 1.05550
 Cr89 Cr 0.58297 0.31971 1.00131
 Cr90 Cr 0.69156 0.26711 1.00455
 Cr91 Cr 0.74477 0.43436 1.00136
 O92 O 0.67306 0.34048 1.00239
 O93 O 0.65644 0.43934 0.53806
 O94 O 0.76270 0.43439 0.55283
 C95 C 0.79185 0.40083 0.55795
 O96 O 0.78789 0.35664 0.53235
 O97 O 0.67432 0.24070 0.53634
 C98 C 0.61152 0.20858 0.54123
 O99 O 0.57396 0.22083 0.51889
 O100 O 0.57117 0.33095 0.53833
 C101 C 0.60098 0.39112 0.55268
 O102 O 0.69072 0.45939 0.45530
 O103 O 0.79887 0.46031 0.47013
 C104 C 0.80779 0.42362 0.44406
 O105 O 0.77977 0.35868 0.44803
 O106 O 0.67199 0.23954 0.45140
 C107 C 0.62775 0.23690 0.42789
 O108 O 0.59320 0.26334 0.43722
 O109 O 0.58643 0.37056 0.45676
 C110 C 0.63270 0.42729 0.44109
 Cr111 Cr 0.72535 0.44473 0.50386
 Cr112 Cr 0.72676 0.30064 0.49226
 Cr113 Cr 0.58476 0.29819 0.48813
 O114 O 0.67871 0.34781 0.49508
 O115 O 0.34305 0.55362 0.52487
 O116 O 0.22554 0.53061 0.54167
 C117 C 0.18981 0.55223 0.55696
 O118 O 0.19003 0.60485 0.54239
 O119 O 0.29066 0.71771 0.56919
 C120 C 0.35092 0.75710 0.57801
 O121 O 0.39838 0.76599 0.55382
 O122 O 0.41027 0.65633 0.55271
 C123 C 0.38366 0.59118 0.55243
 O124 O 0.33188 0.58432 0.44450
 O125 O 0.21130 0.55639 0.45978
 C126 C 0.19753 0.60094 0.44665
 O127 O 0.21808 0.65831 0.46387
 O128 O 0.31576 0.77384 0.49092
 C129 C 0.36638 0.79486 0.46685
 O130 O 0.40539 0.77148 0.46889
 O131 O 0.42731 0.66868 0.46860
 C132 C 0.39427 0.62355 0.44165
 Cr133 Cr 0.27897 0.55956 0.49310
 Cr134 Cr 0.25576 0.68744 0.51622
 Cr135 Cr 0.40721 0.71366 0.51083
 O136 O 0.31387 0.65345 0.50652
 C137 C 0.40936 0.50795 0.31703
 C138 C 0.43993 0.55452 0.34651
 C139 C 0.40127 0.56619 0.37851
 C140 C 0.43120 0.61514 0.40686
 H141 H 0.49372 0.58376 0.34704
 H142 H 0.34770 0.53306 0.37948
 H143 H 0.35579 0.48139 0.31498
 H144 H 0.48477 0.64813 0.40563
 C145 C 0.45412 0.91409 0.33204
 C146 C 0.41730 0.90414 0.36648
 C147 C 0.41681 0.86057 0.40133
 C148 C 0.37794 0.84785 0.43516
 H149 H 0.38578 0.92617 0.36824
 H150 H 0.44535 0.83534 0.39814
 H151 H 0.48275 0.88888 0.32959
 H152 H 0.34817 0.87184 0.43749
 C153 C 0.09518 0.48993 0.31359
 C154 C 0.09812 0.52546 0.34776
 C155 C 0.14458 0.53890 0.38196
 C156 C 0.15377 0.58536 0.41073
 H157 H 0.06727 0.54815 0.35017
 H158 H 0.17090 0.51118 0.38367
 H159 H 0.13329 0.47686 0.30907
 H160 H 0.12943 0.61491 0.40726
 C161 C 0.49794 0.45393 0.33427
 C162 C 0.55265 0.45419 0.34596
 C163 C 0.55982 0.43383 0.38859
 C164 C 0.62040 0.45627 0.40322
 H165 H 0.59442 0.47165 0.32423
 H166 H 0.51595 0.39799 0.40691
 H167 H 0.46126 0.44505 0.35840
 H168 H 0.66342 0.49458 0.38515
 C169 C 0.50344 0.06354 0.32910
 C170 C 0.54873 0.13055 0.33161
 C171 C 0.55751 0.16540 0.37155
 C172 C 0.61742 0.20204 0.38785
 H173 H 0.58224 0.15940 0.30569
 H174 H 0.51400 0.15760 0.38885
 H175 H 0.47880 0.03734 0.35822
 H176 H 0.65977 0.20405 0.37229
 C177 C 0.95488 0.44931 0.32692
 C178 C 0.90742 0.46021 0.34152
 C179 C 0.87292 0.42789 0.38169
 C180 C 0.85082 0.45876 0.40695
 H181 H 0.89513 0.49421 0.32501
 H182 H 0.86512 0.37773 0.39039
 H183 H 0.97013 0.42162 0.34756
 H184 H 0.86211 0.51050 0.39912
 C185 C 0.52943 0.43982 1.18323
 C186 C 0.57401 0.47604 1.15278
 C187 C 0.58490 0.43970 1.11848
 C188 C 0.63377 0.47248 1.08976
 H189 H 0.60160 0.53178 1.15299
 H190 H 0.55200 0.38442 1.11686
 H191 H 0.50512 0.38414 1.18390
 H192 H 0.66843 0.52725 1.09216
 C193 C 0.93478 0.47714 1.17898
 C194 C 0.92348 0.44210 1.14353
 C195 C 0.87263 0.43605 1.11412
 C196 C 0.84405 0.38293 1.08835
 H197 H 0.94649 0.41189 1.13786
 H198 H 0.85725 0.47377 1.11448
 H199 H 0.90273 0.49750 1.18582
 H200 H 0.85829 0.34430 1.08978
 C201 C 0.50194 0.04952 1.17438
 C202 C 0.52984 0.11662 1.16492
 C203 C 0.55897 0.14317 1.12277
 C204 C 0.55005 0.19017 1.10336
 H205 H 0.52979 0.15237 1.18705
 H206 H 0.58711 0.12338 1.10746
 H207 H 0.49701 0.01682 1.14854
 H208 H 0.51751 0.20544 1.11769
 C209 C 0.47121 0.52806 1.16699
 C210 C 0.41470 0.51728 1.15081
 C211 C 0.41583 0.55297 1.11183
 C212 C 0.36030 0.53427 1.09124
 H213 H 0.36780 0.48404 1.16719
 H214 H 0.46263 0.59622 1.10031
 H215 H 0.51739 0.55894 1.14949
 H216 H 0.31417 0.48884 1.10142
 C217 C 0.06651 0.47966 1.16321
 C218 C 0.08321 0.53103 1.13533
 C219 C 0.12650 0.54069 1.09853
 C220 C 0.15209 0.59762 1.07414
 H221 H 0.06903 0.56886 1.14136
 H222 H 0.14105 0.50300 1.09305
 H223 H 0.08489 0.44497 1.15820
 H224 H 0.13834 0.63570 1.08050
 C225 C 0.40340 0.90295 1.18337
 C226 C 0.43404 0.88144 1.15797
 C227 C 0.40142 0.84123 1.12086
 C228 C 0.43571 0.82555 1.09439
 H229 H 0.48489 0.89581 1.16409
 H230 H 0.34993 0.82462 1.11523
 H231 H 0.35261 0.88921 1.17801
 H232 H 0.48706 0.84242 1.10085
 C233 C 0.59426 0.50861 0.67935
 C234 C 0.56373 0.46924 0.64663
 C235 C 0.60026 0.45849 0.61268
 C236 C 0.56799 0.40529 0.58727
 H237 H 0.50994 0.44176 0.64581
 H238 H 0.65345 0.49285 0.60910
 H239 H 0.64738 0.53172 0.68248
 H240 H 0.51543 0.36932 0.59278
 C241 C 0.60548 0.08958 0.67353
 C242 C 0.57451 0.09701 0.64068
 C243 C 0.61153 0.14522 0.60534
 C244 C 0.57882 0.15470 0.57439
 H245 H 0.52072 0.06957 0.64082
 H246 H 0.66526 0.17545 0.60577
 H247 H 0.65912 0.12075 0.67459
 H248 H 0.52500 0.12499 0.57505
 C249 C 0.90705 0.51465 0.68694
 C250 C 0.88740 0.46530 0.65870
 C251 C 0.84382 0.45799 0.62403
 C252 C 0.83324 0.41244 0.59451
 H253 H 0.90578 0.43005 0.66059
 H254 H 0.82201 0.49011 0.62215
 H255 H 0.88649 0.54796 0.68729
 H256 H 0.85647 0.38165 0.59706
 C257 C 0.50589 0.56538 0.66821
 C258 C 0.44966 0.54668 0.64847
 C259 C 0.44752 0.58548 0.61179
 C260 C 0.39680 0.55491 0.58593
 H261 H 0.40382 0.50204 0.65993
 H262 H 0.48571 0.63903 0.60683
 H263 H 0.55262 0.60666 0.65521
 H264 H 0.36119 0.50037 0.59040
 C265 C 0.49450 0.94331 0.67290
 C266 C 0.43697 0.88460 0.66627
 C267 C 0.42539 0.84801 0.62633
 C268 C 0.36538 0.79471 0.61764
 H269 H 0.39678 0.86355 0.68928
 H270 H 0.46603 0.86532 0.60370
 H271 H 0.53044 0.96302 0.64712
 H272 H 0.32457 0.77917 0.63992
 C273 C 0.03727 0.53047 0.66893
 C274 C 0.08089 0.51393 0.65436
 C275 C 0.10945 0.53674 0.61184
 C276 C 0.14838 0.51644 0.59438
 H277 H 0.09661 0.48507 0.67337
 H278 H 0.10221 0.57491 0.59581
 H279 H 0.01957 0.55394 0.64678
 H280 H 0.15488 0.47753 0.61004
 C281 C 0.41633 0.49022 0.81227
 C282 C 0.43579 0.51816 0.84969
 C283 C 0.39154 0.52663 0.87909
 C284 C 0.41721 0.55894 0.91462
 H285 H 0.48758 0.54097 0.85754
 H286 H 0.34139 0.51168 0.87066
 H287 H 0.36584 0.47226 0.80302
 H288 H 0.46806 0.57391 0.92136
 C289 C 0.07153 0.51425 0.81953
 C290 C 0.10320 0.56938 0.84345
 C291 C 0.14855 0.57380 0.87635
 C292 C 0.18852 0.63397 0.89428
 H293 H 0.09615 0.61267 0.83814
 H294 H 0.14856 0.52778 0.88624
 H295 H 0.08129 0.47249 0.82241
 H296 H 0.18891 0.67970 0.88317
 C297 C 0.46226 0.94491 0.82592
 C298 C 0.49137 0.92651 0.85483
 C299 C 0.45283 0.88038 0.89046
 C300 C 0.47606 0.84640 0.91211
 H301 H 0.54329 0.94241 0.85074
 H302 H 0.40362 0.87132 0.89754
 H303 H 0.40924 0.92456 0.82811
 H304 H 0.52382 0.85305 0.90329
 C305 C 0.52292 0.45517 0.82915
 C306 C 0.58202 0.47524 0.84593
 C307 C 0.58743 0.44708 0.88670
 C308 C 0.64681 0.46741 0.90316
 H309 H 0.62714 0.51291 0.82936
 H310 H 0.54249 0.40773 0.90266
 H311 H 0.47797 0.41994 0.84678
 H312 H 0.69144 0.50631 0.88669
 C313 C 0.94426 0.50923 0.83729
 C314 C 0.91873 0.44950 0.85853
 C315 C 0.87948 0.43795 0.89715
 C316 C 0.83643 0.37436 0.91173
 H317 H 0.92187 0.40729 0.84536
 H318 H 0.88232 0.48217 0.91201
 H319 H 0.93630 0.54945 0.84862
 H320 H 0.83205 0.33017 0.89590
 C321 C 0.58307 0.08721 0.82757
 C322 C 0.54659 0.10035 0.85429
 C323 C 0.57639 0.14167 0.89192
 C324 C 0.54754 0.17116 0.91249
 H325 H 0.49523 0.08271 0.84751
 H326 H 0.62425 0.15076 0.90174
 H327 H 0.63566 0.10964 0.83284
 H328 H 0.50178 0.16554 0.90102
   
