data_POSCAR
  _audit_creation_date              2014-09-24
  _audit_creation_method            'ToBaCCo'
  _symmetry_space_group_name_H-M    'P1'
  _symmetry_Int_Tables_number       1
  _symmetry_cell_setting            triclinic
  loop_
  _symmetry_equiv_pos_as_xyz
 x,y,z
_cell_length_a 53.0357
_cell_length_b 37.2299
_cell_length_c 37.0448
_cell_angle_alpha 89.997000
_cell_angle_beta 89.964500
_cell_angle_gamma 89.836500
loop_
  _atom_site_label
  _atom_site_type_symbol
  _atom_site_fract_x
  _atom_site_fract_y
  _atom_site_fract_z
C1 C 1.20928 0.25653 0.29638
 H2 H 1.20706 0.22828 0.29035
 C3 C 1.19141 0.27415 0.31769
 H4 H 1.17559 0.25911 0.32823
 C5 C 1.23217 0.31057 0.28873
 H6 H 1.24778 0.32482 0.27673
 C7 C 1.21491 0.32918 0.31034
 H8 H 1.21749 0.35767 0.31482
 N9 N 1.22901 0.27492 0.28209
 C10 C 1.23305 0.18881 0.21072
 H11 H 1.24888 0.17496 0.22274
 C12 C 1.21598 0.16974 0.18934
 H13 H 1.21891 0.14126 0.18505
 C14 C 1.20945 0.24239 0.20282
 H15 H 1.20690 0.27064 0.20866
 C16 C 1.19179 0.22431 0.18173
 H17 H 1.17576 0.23901 0.17117
 Zn18 Zn 1.25029 0.24995 0.24954
 N19 N 1.22940 0.22443 0.21718
 C20 C 1.29214 0.20523 0.25648
 N21 N 1.27171 0.21784 0.27465
 C22 C 1.26787 0.20958 0.30996
 C23 C 1.28516 0.18800 0.32852
 C24 C 1.31014 0.18419 0.27404
 C25 C 1.26790 0.28889 0.18830
 C26 C 1.28501 0.31047 0.16954
 C27 C 1.30841 0.31838 0.22490
 C28 C 1.29071 0.29711 0.24266
 N29 N 1.27112 0.28252 0.22417
 H30 H 1.29477 0.21235 0.22842
 H31 H 1.25159 0.22012 0.32399
 H32 H 1.28162 0.18224 0.35674
 H33 H 1.32639 0.17526 0.25872
 H34 H 1.25239 0.27665 0.17401
 H35 H 1.28243 0.31471 0.14086
 H36 H 1.32414 0.32913 0.24003
 H37 H 1.29295 0.29131 0.27110
 C38 C 1.19477 0.18739 0.17509
 C39 C 1.19396 0.31106 0.32462
 C40 C 1.30585 0.32498 0.18776
 C41 C 1.30709 0.17546 0.31087
 C42 C 0.70889 -0.24339 0.29530
 H43 H 0.70676 -0.27170 0.28947
 C44 C 0.69102 -0.22572 0.31654
 H45 H 0.67525 -0.24077 0.32723
 C46 C 0.73166 -0.18929 0.28724
 H47 H 0.74722 -0.17504 0.27510
 C48 C 0.71439 -0.17063 0.30878
 H49 H 0.71692 -0.14210 0.31306
 N50 N 0.72855 -0.22498 0.28084
 C51 C 0.73256 -0.31118 0.20980
 H52 H 0.74822 -0.32517 0.22210
 C53 C 0.71556 -0.33017 0.18827
 H54 H 0.71838 -0.35869 0.18416
 C55 C 0.70925 -0.25742 0.20140
 H56 H 0.70679 -0.22912 0.20711
 C57 C 0.69164 -0.27542 0.18016
 H58 H 0.67574 -0.26063 0.16935
 Zn59 Zn 0.74985 -0.25004 0.24850
 N60 N 0.72904 -0.27550 0.21605
 C61 C 0.79090 -0.29624 0.25523
 N62 N 0.77112 -0.28210 0.27379
 C63 C 0.76787 -0.28881 0.30958
 C64 C 0.78511 -0.31041 0.32818
 C65 C 0.80873 -0.31754 0.27282
 C66 C 0.76765 -0.21106 0.18746
 C67 C 0.78479 -0.18937 0.16890
 C68 C 0.80807 -0.18177 0.22442
 C69 C 0.79035 -0.20316 0.24196
 N70 N 0.77080 -0.21761 0.22330
 H71 H 0.79313 -0.29019 0.22685
 H72 H 0.75218 -0.27693 0.32392
 H73 H 0.78247 -0.31500 0.35680
 H74 H 0.82457 -0.32803 0.25763
 H75 H 0.75216 -0.22319 0.17303
 H76 H 0.78226 -0.18495 0.14023
 H77 H 0.82376 -0.17109 0.23968
 H78 H 0.79252 -0.20910 0.27038
 C79 C 0.69452 -0.31237 0.17370
 C80 C 0.69351 -0.18877 0.32322
 C81 C 0.80556 -0.17494 0.18731
 C82 C 0.80609 -0.32459 0.30986
 C83 C 0.70960 0.25659 -0.20667
 H84 H 0.70747 0.22834 -0.21272
 C85 C 0.69153 0.27420 -0.18573
 H86 H 0.67563 0.25913 -0.17546
 C87 C 0.73254 0.31066 -0.21395
 H88 H 0.74828 0.32487 -0.22568
 C89 C 0.71506 0.32926 -0.19266
 H90 H 0.71759 0.35775 -0.18813
 N91 N 0.72943 0.27502 -0.22065
 C92 C 0.73288 0.18922 -0.29206
 H93 H 0.74852 0.17493 -0.28006
 C94 C 0.71547 0.17058 -0.31327
 H95 H 0.71800 0.14202 -0.31750
 C96 C 0.70996 0.24340 -0.29989
 H97 H 0.70775 0.27170 -0.29401
 C98 C 0.69196 0.22575 -0.32078
 H99 H 0.67607 0.24084 -0.33120
 Zn100 Zn 0.75077 0.24999 -0.25301
 N101 N 0.72974 0.22494 -0.28565
 C102 C 0.79159 0.20307 -0.24598
 N103 N 0.77186 0.21761 -0.22760
 C104 C 0.76868 0.21146 -0.19168
 C105 C 0.78597 0.19020 -0.17276
 C106 C 0.80948 0.18211 -0.22806
 C107 C 0.76825 0.29068 -0.31329
 C108 C 0.78548 0.31235 -0.33174
 C109 C 0.81016 0.31638 -0.27705
 C110 C 0.79220 0.29527 -0.25961
 N111 N 0.77197 0.28247 -0.27793
 H112 H 0.79381 0.20870 -0.27446
 H113 H 0.75306 0.22366 -0.17746
 H114 H 0.78339 0.18616 -0.14405
 H115 H 0.82532 0.17140 -0.24310
 H116 H 0.75213 0.27997 -0.32745
 H117 H 0.78204 0.31803 -0.35999
 H118 H 0.82627 0.32543 -0.26162
 H119 H 0.79476 0.28818 -0.23152
 C120 C 0.69442 0.18876 -0.32735
 C121 C 0.69398 0.31111 -0.17880
 C122 C 0.80724 0.32502 -0.31393
 C123 C 0.80695 0.17577 -0.19086
 C124 C 1.20943 -0.24383 -0.20494
 H125 H 1.20738 -0.27210 -0.21098
 C126 C 1.19145 -0.22641 -0.18371
 H127 H 1.17568 -0.24161 -0.17322
 C128 C 1.23208 -0.18954 -0.21251
 H129 H 1.24763 -0.17514 -0.22449
 C130 C 1.21470 -0.17113 -0.19096
 H131 H 1.21712 -0.14261 -0.18647
 N132 N 1.22907 -0.22520 -0.21916
 C133 C 1.23254 -0.31080 -0.29043
 H134 H 1.24817 -0.32505 -0.27836
 C135 C 1.21522 -0.32946 -0.31171
 H136 H 1.21777 -0.35802 -0.31591
 C137 C 1.20959 -0.25664 -0.29839
 H138 H 1.20738 -0.22834 -0.29256
 C139 C 1.19167 -0.27430 -0.31936
 H140 H 1.17580 -0.25924 -0.32989
 Zn141 Zn 1.25030 -0.25001 -0.25164
 N142 N 1.22933 -0.27510 -0.28406
 C143 C 1.29126 -0.29647 -0.24505
 N144 N 1.27151 -0.28221 -0.22651
 C145 C 1.26831 -0.28870 -0.19066
 C146 C 1.28560 -0.31012 -0.17197
 C147 C 1.30914 -0.31759 -0.22736
 C148 C 1.26801 -0.21095 -0.31256
 C149 C 1.28510 -0.18923 -0.33114
 C150 C 1.30847 -0.18165 -0.27568
 C151 C 1.29078 -0.20308 -0.25810
 N152 N 1.27121 -0.21752 -0.27673
 H153 H 1.29345 -0.29056 -0.27348
 H154 H 1.25267 -0.27671 -0.17633
 H155 H 1.28301 -0.31448 -0.14331
 H156 H 1.32499 -0.32812 -0.24251
 H157 H 1.25252 -0.22309 -0.32696
 H158 H 1.28253 -0.18480 -0.35979
 H159 H 1.32418 -0.17097 -0.26046
 H160 H 1.29299 -0.20906 -0.22970
 C161 C 1.19420 -0.31129 -0.32588
 C162 C 1.19382 -0.18950 -0.17680
 C163 C 1.30590 -0.17480 -0.31277
 C164 C 1.30657 -0.32434 -0.19025
 C165 C 0.26430 0.19715 0.70108
 H166 H 0.24476 0.18892 0.70154
 C167 C 0.28160 0.17915 0.67882
 H168 H 0.27522 0.15688 0.66243
 C169 C 0.29630 0.23642 0.72151
 H170 H 0.30198 0.25929 0.73741
 C171 C 0.31406 0.21942 0.69974
 H172 H 0.33326 0.22924 0.69991
 N173 N 0.27206 0.22465 0.72255
 C174 C 0.21401 0.23452 0.80563
 H175 H 0.21341 0.26357 0.80623
 C176 C 0.19671 0.21490 0.82577
 H177 H 0.18309 0.22944 0.84198
 C178 C 0.23236 0.18113 0.78273
 H179 H 0.24624 0.16816 0.76577
 C180 C 0.21573 0.16023 0.80327
 H181 H 0.21697 0.13125 0.80150
 Zn182 Zn 0.24948 0.24921 0.75388
 N183 N 0.23063 0.21759 0.78347
 C184 C 0.20216 0.26626 0.72469
 N185 N 0.22669 0.27676 0.72541
 C186 C 0.23462 0.30555 0.70581
 C187 C 0.21724 0.32620 0.68615
 C188 C 0.18428 0.28605 0.70569
 C189 C 0.28518 0.25932 0.80658
 C190 C 0.30244 0.27725 0.82834
 C191 C 0.28393 0.33362 0.80958
 C192 C 0.26714 0.31450 0.78767
 N193 N 0.26861 0.27804 0.78582
 H194 H 0.19629 0.24233 0.73877
 H195 H 0.25435 0.31280 0.70589
 H196 H 0.22375 0.34947 0.67136
 H197 H 0.16485 0.27720 0.70611
 H198 H 0.28567 0.23031 0.80495
 H199 H 0.31606 0.26175 0.84361
 H200 H 0.28314 0.36268 0.80990
 H201 H 0.25342 0.32886 0.77164
 C202 C 0.19692 0.17713 0.82423
 C203 C 0.30696 0.19006 0.67831
 C204 C 0.30234 0.31491 0.82945
 C205 C 0.19159 0.31679 0.68649
 C206 C 0.76413 0.69822 0.70084
 H207 H 0.74457 0.69007 0.70119
 C208 C 0.78149 0.67999 0.67884
 H209 H 0.77512 0.65765 0.66254
 C210 C 0.79614 0.73745 0.72130
 H211 H 0.80182 0.76038 0.73712
 C212 C 0.81396 0.72022 0.69979
 H213 H 0.83318 0.72994 0.70007
 N214 N 0.77187 0.72581 0.72222
 C215 C 0.71338 0.73597 0.80483
 H216 H 0.71271 0.76502 0.80532
 C217 C 0.69601 0.71632 0.82483
 H218 H 0.68224 0.73083 0.84082
 C219 C 0.73201 0.68260 0.78236
 H220 H 0.74602 0.66965 0.76562
 C221 C 0.71531 0.66169 0.80278
 H222 H 0.71665 0.63270 0.80114
 Zn223 Zn 0.74921 0.75061 0.75336
 N224 N 0.73019 0.71906 0.78294
 C225 C 0.70199 0.76753 0.72368
 N226 N 0.72650 0.77816 0.72464
 C227 C 0.73443 0.80697 0.70508
 C228 C 0.71709 0.82750 0.68521
 C229 C 0.68415 0.78719 0.70447
 C230 C 0.78486 0.76070 0.80623
 C231 C 0.80218 0.77857 0.82795
 C232 C 0.78394 0.83501 0.80893
 C233 C 0.76708 0.81595 0.78705
 N234 N 0.76838 0.77947 0.78535
 H235 H 0.69612 0.74358 0.73771
 H236 H 0.75415 0.81433 0.70532
 H237 H 0.72361 0.85079 0.67044
 H238 H 0.66474 0.77823 0.70470
 H239 H 0.78524 0.73168 0.80470
 H240 H 0.81571 0.76301 0.84332
 H241 H 0.78327 0.86408 0.80913
 H242 H 0.75345 0.83037 0.77092
 C243 C 0.69633 0.67854 0.82345
 C244 C 0.80689 0.69075 0.67848
 C245 C 0.80224 0.81623 0.82892
 C246 C 0.69146 0.81795 0.68528
 C247 C 0.76818 0.21392 0.18838
 H248 H 0.75223 0.22589 0.17476
 C249 C 0.78561 0.19365 0.16867
 H250 H 0.78286 0.19012 0.13993
 C251 C 0.79171 0.20509 0.24206
 H252 H 0.79407 0.21012 0.27062
 C253 C 0.80977 0.18518 0.22333
 H254 H 0.82592 0.17467 0.23780
 N255 N 0.77162 0.21937 0.22435
 C256 C 0.70914 0.24098 0.29645
 H257 H 0.70662 0.26941 0.29156
 C258 C 0.69112 0.22207 0.31613
 H259 H 0.67486 0.23628 0.32664
 C260 C 0.73297 0.18777 0.28731
 H261 H 0.74899 0.17440 0.27524
 C262 C 0.71559 0.16789 0.30739
 H263 H 0.71846 0.13927 0.31069
 Zn264 Zn 0.75031 0.25029 0.25091
 N265 N 0.72934 0.22358 0.28206
 C266 C 0.70929 0.25871 0.20495
 N267 N 0.72915 0.27654 0.21951
 C268 C 0.73245 0.31234 0.21392
 C269 C 0.71511 0.33171 0.19317
 C270 C 0.69133 0.27710 0.18458
 C271 C 0.76758 0.28701 0.31356
 C272 C 0.78478 0.30753 0.33328
 C273 C 0.80886 0.31640 0.27859
 C274 C 0.79104 0.29625 0.25987
 N275 N 0.77111 0.28162 0.27758
 H276 H 0.70704 0.23029 0.21010
 H277 H 0.74822 0.32606 0.22611
 H278 H 0.71774 0.36032 0.18952
 H279 H 0.67537 0.26252 0.17384
 H280 H 0.75177 0.27476 0.32717
 H281 H 0.78200 0.31097 0.36203
 H282 H 0.82490 0.32714 0.26412
 H283 H 0.79347 0.29126 0.23131
 C284 C 0.69408 0.18496 0.32141
 C285 C 0.80698 0.17959 0.18607
 C286 C 0.80601 0.32188 0.31587
 C287 C 0.69398 0.31416 0.17881
 C288 C 0.26837 0.71375 0.18954
 H289 H 0.25246 0.72596 0.17603
 C290 C 0.28571 0.69345 0.16964
 H291 H 0.28292 0.69013 0.14088
 C292 C 0.29191 0.70436 0.24309
 H293 H 0.29434 0.70920 0.27167
 C294 C 0.30989 0.68443 0.22418
 H295 H 0.32601 0.67370 0.23855
 N296 N 0.27185 0.71897 0.22554
 C297 C 0.20958 0.74094 0.29829
 H298 H 0.20698 0.76933 0.29324
 C299 C 0.19158 0.72205 0.31806
 H300 H 0.17528 0.73625 0.32849
 C301 C 0.23348 0.68779 0.28939
 H302 H 0.24950 0.67439 0.27735
 C303 C 0.21612 0.66793 0.30956
 H304 H 0.21903 0.63933 0.31297
 Zn305 Zn 0.25072 0.75017 0.25236
 N306 N 0.22982 0.72358 0.28396
 C307 C 0.20925 0.75876 0.20696
 N308 N 0.22935 0.77644 0.22107
 C309 C 0.23278 0.81217 0.21519
 C310 C 0.21533 0.83164 0.19467
 C311 C 0.19118 0.77725 0.18685
 C312 C 0.26765 0.78940 0.31396
 C313 C 0.28490 0.81022 0.33335
 C314 C 0.31049 0.81448 0.27950
 C315 C 0.29249 0.79433 0.26110
 N316 N 0.27182 0.78172 0.27858
 H317 H 0.20690 0.73039 0.21229
 H318 H 0.24877 0.82575 0.22697
 H319 H 0.21809 0.86019 0.19078
 H320 H 0.17505 0.76278 0.17649
 H321 H 0.25115 0.77891 0.32741
 H322 H 0.28112 0.81549 0.36160
 H323 H 0.32697 0.82332 0.26471
 H324 H 0.29537 0.78777 0.23295
 C325 C 0.19456 0.68496 0.32352
 C326 C 0.30706 0.67910 0.18688
 C327 C 0.30715 0.82248 0.31646
 C328 C 0.19395 0.81426 0.18080
 O329 O 1.03619 0.06458 0.06274
 O330 O 1.06391 0.02966 0.03032
 C331 C 1.05880 0.05441 0.05395
 O332 O 0.96461 -0.06173 0.06621
 O333 O 0.93688 -0.02880 0.03186
 C334 C 0.94199 -0.05246 0.05655
 O335 O 1.03488 -0.06094 0.06864
 O336 O 1.06323 -0.03066 0.03305
 C337 C 1.05768 -0.05289 0.05882
 O338 O 0.96597 0.06878 0.06032
 O339 O 0.93754 0.03436 0.02893
 C340 C 0.94316 0.05965 0.05163
 Zr341 Zr 1.00088 0.04739 0.04287
 O342 O 0.99945 0.05252 0.09971
 O343 O 1.00214 0.10359 0.03506
 Zr344 Zr 0.99994 -0.04294 0.04783
 O345 O 0.99925 -0.03609 0.10445
 O346 O 1.00094 -0.09959 0.05225
 O347 O 1.02300 0.00192 0.05236
 O348 O 0.97838 0.00307 0.05206
 O349 O 0.96586 0.06193 -0.06732
 O350 O 0.93752 0.03148 -0.03185
 C351 C 0.94306 0.05415 -0.05725
 O352 O 1.03464 -0.06745 -0.06239
 O353 O 1.06307 -0.03367 -0.03039
 C354 C 1.05745 -0.05821 -0.05385
 O355 O 0.96408 -0.06845 -0.05856
 O356 O 0.93663 -0.03080 -0.02892
 C357 C 0.94151 -0.05748 -0.05033
 O358 O 1.03610 0.05794 -0.06923
 O359 O 1.06378 0.02619 -0.03372
 C360 C 1.05870 0.04856 -0.05957
 Zr361 Zr 1.00080 0.04285 -0.04744
 O362 O 1.00087 0.04505 -0.10448
 O363 O 1.00160 0.09947 -0.04356
 Zr364 Zr 0.99967 -0.04790 -0.04288
 O365 O 0.99742 -0.05175 -0.09981
 O366 O 1.00008 -0.10433 -0.03659
 Zr367 Zr 1.03819 -0.00133 -0.00010
 Zr368 Zr 0.96253 0.00079 0.00009
 O369 O 0.97833 -0.00232 -0.05189
 O370 O 1.02265 -0.00355 -0.05247
 O371 O 0.97819 0.05269 -0.00261
 O372 O 1.02179 -0.05261 0.00269
 O373 O 1.02320 0.05094 -0.00268
 O374 O 0.97715 -0.05179 0.00290
 H375 H 0.96716 0.00433 0.07342
 H376 H 1.03277 -0.07416 0.00377
 H377 H 0.96700 -0.00339 -0.07310
 H378 H 1.03489 0.07163 -0.00376
 H379 H 0.99080 -0.10923 0.03207
 H380 H 0.99984 -0.11454 -0.06129
 H381 H 1.01090 -0.03638 -0.10991
 H382 H 0.99535 0.02128 -0.11323
 H383 H 1.00241 0.10850 -0.06869
 H384 H 1.00256 0.11436 0.05952
 H385 H 1.00873 0.03175 0.10982
 H386 H 0.99881 -0.06057 0.11493
 O387 O 1.03459 0.56680 0.56287
 O388 O 1.06275 0.53219 0.53090
 C389 C 1.05732 0.55696 0.55431
 O390 O 0.96445 0.43906 0.56743
 O391 O 0.93648 0.47074 0.53232
 C392 C 0.94176 0.44760 0.55743
 O393 O 1.03477 0.44207 0.57040
 O394 O 1.06292 0.47200 0.53420
 C395 C 1.05752 0.45035 0.56053
 O396 O 0.96428 0.57009 0.55879
 O397 O 0.93634 0.53390 0.52858
 C398 C 0.94158 0.56024 0.55024
 Zr399 Zr 0.99953 0.54862 0.54284
 O400 O 0.99755 0.55395 0.59962
 O401 O 1.00045 0.60481 0.53478
 Zr402 Zr 0.99965 0.45829 0.54880
 O403 O 0.99858 0.46548 0.60537
 O404 O 1.00150 0.40170 0.55353
 O405 O 1.02214 0.50380 0.55293
 O406 O 0.97752 0.50389 0.55239
 O407 O 0.96471 0.56097 0.43235
 O408 O 0.93660 0.52946 0.46728
 C409 C 0.94198 0.55237 0.44204
 O410 O 1.03508 0.43337 0.43917
 O411 O 1.06303 0.46825 0.47080
 C412 C 1.05776 0.44321 0.44767
 O413 O 0.96480 0.43161 0.44122
 O414 O 0.93662 0.46725 0.47197
 C415 C 0.94206 0.44148 0.44969
 O416 O 1.03500 0.55861 0.43078
 O417 O 1.06304 0.52838 0.46708
 C418 C 1.05772 0.55027 0.44088
 Zr419 Zr 0.99983 0.54307 0.45262
 O420 O 0.99989 0.54485 0.39556
 O421 O 0.99998 0.59973 0.45598
 Zr422 Zr 0.99988 0.45241 0.45819
 O423 O 0.99823 0.44741 0.40131
 O424 O 1.00061 0.39614 0.46572
 Zr425 Zr 1.03760 0.50036 0.50062
 Zr426 Zr 0.96190 0.50055 0.50036
 O427 O 0.97800 0.49731 0.44855
 O428 O 1.02231 0.49722 0.44819
 O429 O 0.97693 0.55280 0.49713
 O430 O 1.02185 0.44870 0.50398
 O431 O 1.02197 0.55222 0.49742
 O432 O 0.97716 0.44838 0.50379
 H433 H 0.96615 0.50530 0.57359
 H434 H 1.03312 0.42748 0.50543
 H435 H 0.96688 0.49579 0.42714
 H436 H 1.03341 0.57319 0.49620
 H437 H 0.99069 0.39164 0.53428
 H438 H 1.00071 0.38542 0.44124
 H439 H 1.01130 0.46340 0.39112
 H440 H 0.99544 0.52056 0.38702
 H441 H 1.00074 0.60854 0.43077
 H442 H 1.00059 0.61572 0.55918
 H443 H 1.00737 0.53381 0.60998
 H444 H 0.99853 0.44106 0.61603
 O445 O 0.53448 0.06741 0.56085
 O446 O 0.56257 0.03278 0.52875
 C447 C 0.55721 0.05756 0.55221
 O448 O 0.46436 -0.06049 0.56539
 O449 O 0.43627 -0.02866 0.53060
 C450 C 0.44165 -0.05189 0.55557
 O451 O 0.53464 -0.05741 0.56825
 O452 O 0.56272 -0.02746 0.53197
 C453 C 0.55737 -0.04915 0.55830
 O454 O 0.46411 0.07059 0.55706
 O455 O 0.43611 0.03433 0.52703
 C456 C 0.44140 0.06068 0.54865
 Zr457 Zr 0.49936 0.04919 0.54097
 O458 O 0.49748 0.05444 0.59777
 O459 O 0.50026 0.10539 0.53299
 Zr460 Zr 0.49949 -0.04108 0.54685
 O461 O 0.49849 -0.03379 0.60341
 O462 O 0.50137 -0.09765 0.55176
 O463 O 0.52200 0.00438 0.55092
 O464 O 0.47735 0.00446 0.55055
 O465 O 0.46429 0.06174 0.43059
 O466 O 0.43628 0.03095 0.46632
 C467 C 0.44159 0.05355 0.44076
 O468 O 0.53463 -0.06595 0.43703
 O469 O 0.56266 -0.03113 0.46861
 C470 C 0.55733 -0.05615 0.44549
 O471 O 0.46432 -0.06749 0.43901
 O472 O 0.43623 -0.03209 0.47018
 C473 C 0.44160 -0.05769 0.44765
 O474 O 0.53454 0.05916 0.42870
 O475 O 0.56265 0.02894 0.46490
 C476 C 0.55727 0.05078 0.43870
 Zr477 Zr 0.49943 0.04373 0.45072
 O478 O 0.49938 0.04558 0.39367
 O479 O 0.49961 0.10039 0.45416
 Zr480 Zr 0.49946 -0.04691 0.45616
 O481 O 0.49779 -0.05181 0.39927
 O482 O 0.50010 -0.10318 0.46360
 Zr483 Zr 0.53731 0.00097 0.49854
 Zr484 Zr 0.46161 0.00114 0.49858
 O485 O 0.47754 -0.00197 0.44668
 O486 O 0.52190 -0.00212 0.44616
 O487 O 0.47666 0.05338 0.49537
 O488 O 0.52153 -0.05068 0.50187
 O489 O 0.52169 0.05283 0.49543
 O490 O 0.47689 -0.05102 0.50190
 H491 H 0.46604 0.00582 0.57181
 H492 H 0.53279 -0.07192 0.50327
 H493 H 0.46632 -0.00335 0.42537
 H494 H 0.53314 0.07379 0.49419
 H495 H 0.49085 -0.10778 0.53222
 H496 H 0.50018 -0.11386 0.43910
 H497 H 0.51081 -0.03574 0.38909
 H498 H 0.49476 0.02135 0.38511
 H499 H 0.50039 0.10923 0.42897
 H500 H 0.50041 0.11626 0.55740
 H501 H 0.50748 0.03445 0.60807
 H502 H 0.49843 -0.05820 0.61410
 O503 O 0.53606 0.56432 0.06205
 O504 O 0.56379 0.52966 0.02934
 C505 C 0.55868 0.55429 0.05309
 O506 O 0.46472 0.43774 0.06530
 O507 O 0.43687 0.47075 0.03124
 C508 C 0.44206 0.44700 0.05580
 O509 O 0.53499 0.43884 0.06741
 O510 O 0.56322 0.46936 0.03184
 C511 C 0.55775 0.44702 0.05753
 O512 O 0.46584 0.56826 0.06003
 O513 O 0.43740 0.53392 0.02857
 C514 C 0.44301 0.55912 0.05139
 Zr515 Zr 0.50076 0.54706 0.04230
 O516 O 0.49946 0.55190 0.09916
 O517 O 0.50188 0.60330 0.03475
 Zr518 Zr 0.49999 0.45673 0.04683
 O519 O 0.49941 0.46329 0.10349
 O520 O 0.50110 0.40007 0.05096
 O521 O 0.52299 0.50165 0.05145
 O522 O 0.47836 0.50263 0.05137
 O523 O 0.46552 0.56190 -0.06769
 O524 O 0.43730 0.53119 -0.03225
 C525 C 0.44277 0.55397 -0.05756
 O526 O 0.53459 0.43284 -0.06369
 O527 O 0.56301 0.46658 -0.03165
 C528 C 0.55741 0.44211 -0.05522
 O529 O 0.46405 0.43143 -0.05943
 O530 O 0.43658 0.46868 -0.02935
 C531 C 0.44149 0.44216 -0.05093
 O532 O 0.53576 0.55834 -0.06988
 O533 O 0.56358 0.52650 -0.03466
 C534 C 0.55841 0.54901 -0.06036
 Zr535 Zr 0.50053 0.54293 -0.04806
 O536 O 0.50053 0.54532 -0.10510
 O537 O 0.50121 0.59954 -0.04397
 Zr538 Zr 0.49960 0.45216 -0.04390
 O539 O 0.49722 0.44863 -0.10083
 O540 O 0.50018 0.39571 -0.03788
 Zr541 Zr 0.53809 0.49870 -0.00109
 Zr542 Zr 0.46243 0.50054 -0.00055
 O543 O 0.47813 0.49768 -0.05260
 O544 O 0.52247 0.49665 -0.05340
 O545 O 0.47798 0.55249 -0.00309
 O546 O 0.52179 0.44734 0.00157
 O547 O 0.52298 0.55091 -0.00334
 O548 O 0.47716 0.44801 0.00195
 H549 H 0.46719 0.50376 0.07279
 H550 H 0.53283 0.42584 0.00249
 H551 H 0.46673 0.49661 -0.07374
 H552 H 0.53462 0.57167 -0.00438
 H553 H 0.49091 0.39049 0.03079
 H554 H 0.49992 0.38561 -0.06263
 H555 H 0.51062 0.46413 -0.11091
 H556 H 0.49473 0.52172 -0.11392
 H557 H 0.50192 0.60867 -0.06907
 H558 H 0.50233 0.61396 0.05925
 H559 H 0.50882 0.53113 0.10913
 H560 H 0.49903 0.43876 0.11385
 C561 C 1.13833 0.12991 0.12089
 N562 N 1.16183 0.11576 0.12445
 N563 N 1.17989 0.13408 0.14137
 C564 C 1.17518 0.16732 0.15508
 N565 N 1.15171 0.18145 0.15117
 N566 N 1.13365 0.16308 0.13452
 C567 C 1.11796 0.10972 0.10341
 N568 N 1.09383 0.12152 0.10626
 N569 N 1.07510 0.10358 0.09072
 C570 C 1.07976 0.07324 0.07152
 N571 N 1.10393 0.06139 0.06852
 N572 N 1.12270 0.07924 0.08435
 C573 C 1.13700 0.63225 0.62073
 N574 N 1.13262 0.66546 0.63445
 N575 N 1.15094 0.68354 0.65084
 C576 C 1.17434 0.66907 0.65435
 N577 N 1.17872 0.63580 0.64055
 N578 N 1.16042 0.61778 0.62389
 C579 C 1.11649 0.61231 0.60345
 N580 N 1.12113 0.58177 0.58448
 N581 N 1.10230 0.56397 0.56880
 C582 C 1.07817 0.57593 0.57185
 N583 N 1.07357 0.60634 0.59096
 N584 N 1.09238 0.62424 0.60638
 C585 C 0.63707 0.13250 0.61910
 N586 N 0.63275 0.16571 0.63287
 N587 N 0.65110 0.18371 0.64933
 C588 C 0.67448 0.16914 0.65289
 N589 N 0.67879 0.13585 0.63906
 N590 N 0.66046 0.11792 0.62233
 C591 C 0.61650 0.11265 0.60165
 N592 N 0.62110 0.08213 0.58261
 N593 N 0.60225 0.06445 0.56681
 C594 C 0.57813 0.07649 0.56979
 N595 N 0.57358 0.10688 0.58897
 N596 N 0.59241 0.12467 0.60450
 C597 C 0.63816 0.63016 0.11948
 N598 N 0.63347 0.66336 0.13301
 N599 N 0.65153 0.68176 0.14963
 C600 C 0.67498 0.66762 0.15360
 N601 N 0.67970 0.63435 0.13997
 N602 N 0.66165 0.61600 0.12308
 C603 C 0.61780 0.60989 0.10213
 N604 N 0.62257 0.57940 0.08311
 N605 N 0.60379 0.56144 0.06741
 C606 C 0.57961 0.57320 0.07055
 N607 N 0.57493 0.60354 0.08972
 N608 N 0.59366 0.62159 0.10511
 C609 C 0.86222 -0.11952 0.13146
 N610 N 0.83894 -0.12322 0.11670
 N611 N 0.82080 -0.14053 0.13451
 C612 C 0.82522 -0.15450 0.16784
 N613 N 0.84846 -0.15044 0.18259
 N614 N 0.86661 -0.13340 0.16472
 C615 C 0.88266 -0.10173 0.11170
 N616 N 0.90672 -0.10452 0.12380
 N617 N 0.92553 -0.08891 0.10602
 C618 C 0.92100 -0.06970 0.07557
 N619 N 0.89691 -0.06672 0.06346
 N620 N 0.87807 -0.08262 0.08114
 C621 C 0.86204 0.37983 0.63204
 N622 N 0.84016 0.37110 0.61527
 N623 N 0.82214 0.35342 0.63296
 C624 C 0.82513 0.34400 0.66825
 N625 N 0.84700 0.35337 0.68494
 N626 N 0.86509 0.37070 0.66720
 C627 C 0.88250 0.39785 0.61245
 N628 N 0.90619 0.39787 0.62627
 N629 N 0.92500 0.41359 0.60855
 C630 C 0.92082 0.43019 0.57649
 N631 N 0.89709 0.43040 0.56270
 N632 N 0.87828 0.41431 0.58027
 C633 C 0.36237 -0.11935 0.63108
 N634 N 0.33907 -0.12318 0.61641
 N635 N 0.32100 -0.14048 0.63434
 C636 C 0.32549 -0.15434 0.66769
 N637 N 0.34875 -0.15016 0.68236
 N638 N 0.36684 -0.13311 0.66438
 C639 C 0.38271 -0.10152 0.61119
 N640 N 0.40680 -0.10395 0.62327
 N641 N 0.42550 -0.08826 0.60533
 C642 C 0.42082 -0.06934 0.57474
 N643 N 0.39671 -0.06674 0.56266
 N644 N 0.37798 -0.08270 0.58050
 C645 C 0.36246 0.37993 0.13126
 N646 N 0.33912 0.37628 0.11670
 N647 N 0.32101 0.35912 0.13470
 C648 C 0.32550 0.34524 0.16805
 N649 N 0.34881 0.34924 0.18261
 N650 N 0.36694 0.36613 0.16455
 C651 C 0.38288 0.39765 0.11132
 N652 N 0.40699 0.39479 0.12321
 N653 N 0.42575 0.41039 0.10530
 C654 C 0.42112 0.42966 0.07492
 N655 N 0.39698 0.43270 0.06301
 N656 N 0.37819 0.41681 0.08082
 C657 C 0.86381 0.12149 -0.13377
 N658 N 0.84047 0.12543 -0.11920
 N659 N 0.82230 0.14239 -0.13739
 C660 C 0.82672 0.15577 -0.17095
 N661 N 0.85005 0.15150 -0.18552
 N662 N 0.86824 0.13480 -0.16726
 C663 C 0.88421 0.10383 -0.11359
 N664 N 0.90832 0.10585 -0.12568
 N665 N 0.92701 0.09020 -0.10753
 C666 C 0.92229 0.07173 -0.07668
 N667 N 0.89816 0.06956 -0.06458
 N668 N 0.87946 0.08547 -0.08264
 C669 C 0.86264 0.61953 0.36585
 N670 N 0.86712 0.63337 0.33260
 N671 N 0.84901 0.65059 0.31469
 C672 C 0.82573 0.65486 0.32938
 N673 N 0.82124 0.64092 0.36268
 N674 N 0.83933 0.62345 0.38054
 C675 C 0.88300 0.60154 0.38573
 N676 N 0.87826 0.58291 0.41652
 N677 N 0.89700 0.56699 0.43448
 C678 C 0.92113 0.56943 0.42242
 N679 N 0.92581 0.58812 0.39171
 N680 N 0.90709 0.60378 0.37365
 C681 C 0.36189 0.12069 0.36521
 N682 N 0.33990 0.12939 0.38184
 N683 N 0.32188 0.14705 0.36404
 C684 C 0.32499 0.15650 0.32879
 N685 N 0.34697 0.14717 0.31223
 N686 N 0.36506 0.12984 0.33008
 C687 C 0.38234 0.10272 0.38495
 N688 N 0.40605 0.10247 0.37118
 N689 N 0.42486 0.08689 0.38911
 C690 C 0.42065 0.07067 0.42135
 N691 N 0.39690 0.07069 0.43509
 N692 N 0.37809 0.08662 0.41729
 C693 C 0.36341 0.62107 -0.13367
 N694 N 0.34006 0.62479 -0.11908
 N695 N 0.32188 0.64182 -0.13714
 C696 C 0.32632 0.65550 -0.17057
 N697 N 0.34964 0.65144 -0.18517
 N698 N 0.36784 0.63465 -0.16704
 C699 C 0.38382 0.60343 -0.11362
 N700 N 0.40791 0.60568 -0.12572
 N701 N 0.42664 0.59008 -0.10763
 C702 C 0.42197 0.57147 -0.07687
 N703 N 0.39786 0.56908 -0.06476
 N704 N 0.37911 0.58493 -0.08275
 C705 C 1.13675 -0.13372 -0.12182
 N706 N 1.13238 -0.16671 -0.13597
 N707 N 1.15065 -0.18459 -0.15289
 C708 C 1.17398 -0.17011 -0.15653
 N709 N 1.17836 -0.13706 -0.14229
 N710 N 1.16011 -0.11925 -0.12512
 C711 C 1.11632 -0.11391 -0.10396
 N712 N 1.12107 -0.08359 -0.08478
 N713 N 1.10233 -0.06577 -0.06872
 C714 C 1.07818 -0.07748 -0.07156
 N715 N 1.07347 -0.10769 -0.09086
 N716 N 1.09219 -0.12563 -0.10667
 C717 C 1.13726 0.36737 0.38011
 N718 N 1.16058 0.38184 0.37624
 N719 N 1.17871 0.36388 0.35892
 C720 C 1.17426 0.33067 0.34507
 N721 N 1.15097 0.31619 0.34928
 N722 N 1.13282 0.33422 0.36635
 C723 C 1.11685 0.38733 0.39801
 N724 N 1.09277 0.37538 0.39569
 N725 N 1.07403 0.39338 0.41141
 C726 C 1.07867 0.42391 0.43025
 N727 N 1.10278 0.43587 0.43274
 N728 N 1.12154 0.41796 0.41676
 C729 C 0.63678 -0.13227 0.37832
 N730 N 0.63234 -0.16547 0.36468
 N731 N 0.65050 -0.18356 0.34774
 C732 C 0.67380 -0.16911 0.34356
 N733 N 0.67825 -0.13586 0.35730
 N734 N 0.66010 -0.11783 0.37449
 C735 C 0.61637 -0.11223 0.39606
 N736 N 0.62107 -0.08157 0.41475
 N737 N 0.60232 -0.06358 0.43063
 C738 C 0.57819 -0.07548 0.42809
 N739 N 0.57354 -0.10604 0.40930
 N740 N 0.59228 -0.12412 0.39368
 C741 C 0.63677 0.36710 -0.12404
 N742 N 0.63240 0.33413 -0.13829
 N743 N 0.65069 0.31624 -0.15519
 C744 C 0.67406 0.33066 -0.15872
 N745 N 0.67842 0.36369 -0.14443
 N746 N 0.66016 0.38152 -0.12727
 C747 C 0.61631 0.38686 -0.10604
 N748 N 0.62105 0.41707 -0.08666
 N749 N 0.60232 0.43474 -0.07039
 C750 C 0.57817 0.42300 -0.07318
 N751 N 0.57346 0.39290 -0.09267
 N752 N 0.59218 0.37511 -0.10870
 C753 C 1.14013 0.11976 -0.12625
 N754 N 1.16044 0.10238 -0.14029
 N755 N 1.17896 0.12080 -0.15611
 C756 C 1.17808 0.15731 -0.15796
 N757 N 1.15785 0.17444 -0.14330
 N758 N 1.13921 0.15608 -0.12802
 C759 C 1.11904 0.10009 -0.11006
 N760 N 1.09574 0.11521 -0.10949
 N761 N 1.07647 0.09827 -0.09411
 C762 C 1.07983 0.06578 -0.07826
 N763 N 1.10317 0.05059 -0.07872
 N764 N 1.12241 0.06733 -0.09463
 C765 C 1.13728 0.62534 0.37344
 N766 N 1.16122 0.61237 0.37222
 N767 N 1.17952 0.63132 0.35655
 C768 C 1.17461 0.66409 0.34189
 N769 N 1.15067 0.67702 0.34341
 N770 N 1.13237 0.65799 0.35876
 C771 C 1.11681 0.60467 0.39017
 N772 N 1.09249 0.61472 0.38484
 N773 N 1.07374 0.59680 0.40044
 C774 C 1.07858 0.56825 0.42215
 N775 N 1.10292 0.55808 0.42749
 N776 N 1.12171 0.57587 0.41161
 C777 C 0.63676 0.12540 0.37105
 N778 N 0.66070 0.11242 0.36994
 N779 N 0.67902 0.13136 0.35434
 C780 C 0.67412 0.16412 0.33967
 N781 N 0.65019 0.17706 0.34106
 N782 N 0.63186 0.15804 0.35634
 C783 C 0.61631 0.10480 0.38774
 N784 N 0.59200 0.11491 0.38240
 N785 N 0.57325 0.09708 0.39807
 C786 C 0.57808 0.06860 0.41985
 N787 N 0.60241 0.05836 0.42519
 N788 N 0.62120 0.07605 0.40924
 C789 C 0.63960 0.62090 -0.12709
 N790 N 0.66002 0.60364 -0.14095
 N791 N 0.67851 0.62214 -0.15676
 C792 C 0.67748 0.65864 -0.15879
 N793 N 0.65714 0.67566 -0.14434
 N794 N 0.63853 0.65721 -0.12907
 C795 C 0.61857 0.60109 -0.11085
 N796 N 0.59522 0.61605 -0.11020
 N797 N 0.57601 0.59895 -0.09481
 C798 C 0.57949 0.56644 -0.07904
 N799 N 0.60287 0.55142 -0.07956
 N800 N 0.62206 0.56832 -0.09547
 C801 C 0.86007 -0.12974 -0.11628
 N802 N 0.86276 -0.16463 -0.12608
 N803 N 0.84419 -0.18176 -0.14292
 C804 C 0.82223 -0.16466 -0.15092
 N805 N 0.81954 -0.12966 -0.14113
 N806 N 0.83808 -0.11257 -0.12396
 C807 C 0.88100 -0.11093 -0.09856
 N808 N 0.87744 -0.07860 -0.08233
 N809 N 0.89665 -0.06169 -0.06660
 C810 C 0.92015 -0.07635 -0.06683
 N811 N 0.92368 -0.10861 -0.08314
 N812 N 0.90445 -0.12565 -0.09855
 C813 C 0.86287 0.37334 0.37481
 N814 N 0.83907 0.37149 0.38818
 N815 N 0.82088 0.35532 0.36944
 C816 C 0.82578 0.34078 0.33650
 N817 N 0.84958 0.34293 0.32316
 N818 N 0.86777 0.35878 0.34198
 C819 C 0.88323 0.39046 0.39526
 N820 N 0.90752 0.38574 0.38481
 N821 N 0.92620 0.40155 0.40266
 C822 C 0.92129 0.42288 0.43152
 N823 N 0.89698 0.42765 0.44208
 N824 N 0.87826 0.41156 0.42435
 C825 C 0.36209 -0.12563 0.37294
 N826 N 0.33975 -0.13358 0.38890
 N827 N 0.32169 -0.15036 0.37043
 C828 C 0.32510 -0.15953 0.33515
 N829 N 0.34744 -0.15095 0.31930
 N830 N 0.36556 -0.13458 0.33782
 C831 C 0.38255 -0.10836 0.39317
 N832 N 0.40653 -0.11021 0.38057
 N833 N 0.42529 -0.09452 0.39838
 C834 C 0.42077 -0.07609 0.42932
 N835 N 0.39675 -0.07410 0.44197
 N836 N 0.37798 -0.09019 0.42432
 C837 C 0.36009 0.36927 -0.11604
 N838 N 0.36289 0.33443 -0.12594
 N839 N 0.34433 0.31718 -0.14267
 C840 C 0.32228 0.33410 -0.15045
 N841 N 0.31946 0.36905 -0.14055
 N842 N 0.33799 0.38627 -0.12349
 C843 C 0.38100 0.38823 -0.09853
 N844 N 0.37737 0.42049 -0.08221
 N845 N 0.39658 0.43757 -0.06668
 C846 C 0.42014 0.42314 -0.06723
 N847 N 0.42375 0.39095 -0.08364
 N848 N 0.40452 0.37375 -0.09884
 C849 C 1.13684 -0.12762 0.12825
 N850 N 1.16061 -0.11426 0.13015
 N851 N 1.17884 -0.13271 0.14669
 C852 C 1.17404 -0.16536 0.16163
 N853 N 1.15029 -0.17869 0.15946
 N854 N 1.13204 -0.16015 0.14321
 C855 C 1.11645 -0.10741 0.11063
 N856 N 1.09215 -0.11780 0.11507
 N857 N 1.07349 -0.10002 0.09895
 C858 C 1.07842 -0.07130 0.07755
 N859 N 1.10274 -0.06085 0.07303
 N860 N 1.12143 -0.07849 0.08944
 C861 C 1.13603 0.37771 0.63354
 N862 N 1.16085 0.38443 0.62743
 N863 N 1.17863 0.36527 0.64424
 C864 C 1.17223 0.33858 0.66759
 N865 N 1.14740 0.33210 0.67356
 N866 N 1.12969 0.35125 0.65693
 C867 C 1.11603 0.39795 0.61505
 N868 N 1.09156 0.39143 0.62338
 N869 N 1.07306 0.40859 0.60628
 C870 C 1.07829 0.43295 0.58013
 N871 N 1.10279 0.43969 0.57181
 N872 N 1.12136 0.42252 0.58902
 C873 C 0.63593 -0.12161 0.63159
 N874 N 0.66076 -0.11469 0.62577
 N875 N 0.67853 -0.13370 0.64280
 C876 C 0.67211 -0.16042 0.66611
 N877 N 0.64727 -0.16710 0.67179
 N878 N 0.62958 -0.14811 0.65494
 C879 C 0.61592 -0.10148 0.61293
 N880 N 0.59144 -0.10812 0.62112
 N881 N 0.57295 -0.09102 0.60396
 C882 C 0.57817 -0.06659 0.57787
 N883 N 0.60268 -0.05973 0.56967
 N884 N 0.62125 -0.07685 0.58696
 C885 C 0.63697 0.37217 0.12622
 N886 N 0.66069 0.38565 0.12830
 N887 N 0.67891 0.36719 0.14482
 C888 C 0.67414 0.33444 0.15952
 N889 N 0.65044 0.32098 0.15714
 N890 N 0.63220 0.33952 0.14093
 C891 C 0.61658 0.39240 0.10877
 N892 N 0.59231 0.38191 0.11322
 N893 N 0.57362 0.39974 0.09727
 C894 C 0.57850 0.42861 0.07606
 N895 N 0.60279 0.43917 0.07154
 N896 N 0.62152 0.42147 0.08778
 C897 C 0.86409 0.12828 0.12701
 N898 N 0.86892 0.14272 0.15989
 N899 N 0.85066 0.15855 0.17876
 C900 C 0.82687 0.16078 0.16541
 N901 N 0.82205 0.14636 0.13242
 N902 N 0.84030 0.13023 0.11364
 C903 C 0.88447 0.11108 0.10648
 N904 N 0.87948 0.09039 0.07715
 N905 N 0.89817 0.07420 0.05931
 C906 C 0.92248 0.07846 0.06997
 N907 N 0.92741 0.09939 0.09908
 N908 N 0.90876 0.11531 0.11706
 C909 C 0.86252 0.63590 0.61916
 N910 N 0.86842 0.66483 0.63967
 N911 N 0.85065 0.68226 0.65804
 C912 C 0.82622 0.67154 0.65679
 N913 N 0.82027 0.64260 0.63608
 N914 N 0.83809 0.62510 0.61759
 C915 C 0.88266 0.61641 0.60008
 N916 N 0.87761 0.58763 0.57874
 N917 N 0.89630 0.56983 0.56242
 C918 C 0.92066 0.58015 0.56696
 N919 N 0.92561 0.60896 0.58819
 N920 N 0.90698 0.62676 0.60438
 C921 C 0.36246 0.13586 0.61820
 N922 N 0.36836 0.16478 0.63871
 N923 N 0.35063 0.18202 0.65733
 C924 C 0.32624 0.17110 0.65632
 N925 N 0.32028 0.14217 0.63560
 N926 N 0.33807 0.12487 0.61687
 C927 C 0.38256 0.11655 0.59892
 N928 N 0.37750 0.08775 0.57761
 N929 N 0.39616 0.07005 0.56115
 C930 C 0.42051 0.08051 0.56550
 N931 N 0.42547 0.10934 0.58668
 N932 N 0.40687 0.12703 0.60302
 C933 C 0.36402 0.62764 0.12741
 N934 N 0.36888 0.64180 0.16041
 N935 N 0.35068 0.65768 0.17938
 C936 C 0.32690 0.66026 0.16604
 N937 N 0.32204 0.64611 0.13293
 N938 N 0.34023 0.62994 0.11404
 C939 C 0.38437 0.61040 0.10674
 N940 N 0.37934 0.58990 0.07728
 N941 N 0.39799 0.57373 0.05930
 C942 C 0.42233 0.57782 0.06996
 N943 N 0.42730 0.59855 0.09921
 N944 N 0.40868 0.61444 0.11731
   
