data_POSCAR
  _audit_creation_date              2014-09-24
  _audit_creation_method            'ToBaCCo'
  _symmetry_space_group_name_H-M    'P1'
  _symmetry_Int_Tables_number       1
  _symmetry_cell_setting            triclinic
  loop_
  _symmetry_equiv_pos_as_xyz
 x,y,z
_cell_length_a 46.0837
_cell_length_b 45.8251
_cell_length_c 46.1280
_cell_angle_alpha 89.950700
_cell_angle_beta 90.011200
_cell_angle_gamma 90.070000
loop_
  _atom_site_label
  _atom_site_type_symbol
  _atom_site_fract_x
  _atom_site_fract_y
  _atom_site_fract_z
N1 N 0.59134 0.67220 0.61307
 N2 N 0.57903 0.65909 0.63521
 C3 C 0.55554 0.67445 0.64339
 C4 C 0.55297 0.69850 0.62537
 C5 C 0.57618 0.69637 0.60643
 H6 H 0.54154 0.66869 0.66130
 H7 H 0.58152 0.71106 0.58887
 Cu8 Cu 0.59432 0.62305 0.65137
 Cu9 Cu 0.62573 0.65678 0.59434
 Cu10 Cu 0.65640 0.59489 0.62467
 N11 N 0.61354 0.58987 0.66924
 N12 N 0.63730 0.57853 0.65840
 C13 C 0.64510 0.55524 0.67435
 C14 C 0.62525 0.55183 0.69679
 C15 C 0.60559 0.57444 0.69276
 H16 H 0.66422 0.54229 0.67014
 H17 H 0.58652 0.57908 0.70554
 N18 N 0.67244 0.61457 0.59038
 N19 N 0.66064 0.63792 0.57856
 C20 C 0.67634 0.64571 0.55517
 C21 C 0.69916 0.62627 0.55208
 C22 C 0.69592 0.60689 0.57490
 H23 H 0.67150 0.66422 0.54150
 H24 H 0.70949 0.58836 0.57985
 H25 H 0.62018 0.61352 0.60634
 H26 H 0.64144 0.63703 0.63191
 N27 N 0.90951 0.32864 0.11292
 N28 N 0.92069 0.34017 0.13645
 C29 C 0.94444 0.32488 0.14409
 C30 C 0.94823 0.30215 0.12449
 C31 C 0.92543 0.30537 0.10502
 H32 H 0.95754 0.32963 0.16292
 H33 H 0.92079 0.29209 0.08624
 Cu34 Cu 0.90287 0.37361 0.15551
 Cu35 Cu 0.87521 0.34460 0.09425
 Cu36 Cu 0.84451 0.40608 0.12519
 N37 N 0.88600 0.40910 0.17146
 N38 N 0.86345 0.42168 0.15937
 C39 C 0.85637 0.44564 0.17455
 C40 C 0.87549 0.44843 0.19756
 C41 C 0.89405 0.42475 0.19484
 H42 H 0.83845 0.45982 0.16921
 H43 H 0.91210 0.41928 0.20877
 N44 N 0.82844 0.38704 0.09040
 N45 N 0.84032 0.36382 0.07845
 C46 C 0.82459 0.35610 0.05507
 C47 C 0.80157 0.37532 0.05207
 C48 C 0.80479 0.39465 0.07496
 H49 H 0.82953 0.33772 0.04132
 H50 H 0.79101 0.41300 0.08000
 H51 H 0.88163 0.38714 0.10879
 H52 H 0.85703 0.36340 0.13073
 N53 N 0.40875 0.17176 -0.11329
 N54 N 0.42020 0.15978 -0.13649
 C55 C 0.44380 0.17524 -0.14438
 C56 C 0.44741 0.19825 -0.12513
 C57 C 0.42463 0.19521 -0.10566
 H58 H 0.45743 0.16995 -0.16266
 H59 H 0.42002 0.20881 -0.08709
 Cu60 Cu 0.40285 0.12511 -0.15387
 Cu61 Cu 0.37435 0.15572 -0.09438
 Cu62 Cu 0.34348 0.09381 -0.12520
 N63 N 0.38550 0.09044 -0.17122
 N64 N 0.36232 0.07839 -0.15971
 C65 C 0.35483 0.05476 -0.17527
 C66 C 0.37429 0.05170 -0.19798
 C67 C 0.39347 0.07485 -0.19465
 H68 H 0.33658 0.04083 -0.17023
 H69 H 0.41210 0.07976 -0.20799
 N70 N 0.32768 0.11289 -0.09024
 N71 N 0.33945 0.13632 -0.07845
 C72 C 0.32381 0.14391 -0.05497
 C73 C 0.30101 0.12440 -0.05174
 C74 C 0.30425 0.10505 -0.07460
 H75 H 0.32861 0.16243 -0.04133
 H76 H 0.29059 0.08653 -0.07950
 H77 H 0.37980 0.11293 -0.10785
 H78 H 0.35632 0.13644 -0.13103
 N79 N 0.09125 0.82606 0.38646
 N80 N 0.07854 0.83953 0.36478
 C81 C 0.05443 0.82470 0.35732
 C82 C 0.05179 0.80047 0.37531
 C83 C 0.07576 0.80222 0.39355
 H84 H 0.03994 0.83126 0.34012
 H85 H 0.08166 0.78753 0.41088
 Cu86 Cu 0.09519 0.87483 0.34825
 Cu87 Cu 0.12627 0.84092 0.40489
 Cu88 Cu 0.15512 0.90490 0.37620
 N89 N 0.11188 0.91016 0.33169
 N90 N 0.13547 0.92174 0.34278
 C91 C 0.14308 0.94528 0.32707
 C92 C 0.12322 0.94873 0.30474
 C93 C 0.10370 0.92594 0.30844
 H94 H 0.16205 0.95846 0.33136
 H95 H 0.08502 0.92108 0.29514
 N96 N 0.17195 0.88457 0.40992
 N97 N 0.16141 0.85999 0.42053
 C98 C 0.17757 0.85192 0.44354
 C99 C 0.19930 0.87244 0.44767
 C100 C 0.19499 0.89275 0.42588
 H101 H 0.17368 0.83262 0.45645
 H102 H 0.20746 0.91234 0.42214
 H103 H 0.11952 0.88395 0.39436
 H104 H 0.14230 0.86221 0.36891
 C105 C 0.10270 0.14709 0.12586
 C106 C 0.12426 0.14666 0.10428
 C107 C 0.14594 0.12507 0.10408
 C108 C 0.14572 0.10361 0.12591
 C109 C 0.12435 0.10350 0.14769
 C110 C 0.10303 0.12545 0.14748
 H111 H 0.12412 0.16321 0.08755
 H112 H 0.16225 0.08688 0.12591
 H113 H 0.08656 0.12567 0.16419
 C114 C 0.39712 0.85265 0.62500
 C115 C 0.37647 0.85355 0.60269
 C116 C 0.35463 0.87493 0.60241
 C117 C 0.35423 0.89603 0.62456
 C118 C 0.37495 0.89567 0.64695
 C119 C 0.39606 0.87361 0.64711
 H120 H 0.37785 0.83785 0.58519
 H121 H 0.33769 0.91275 0.62443
 H122 H 0.41145 0.87231 0.66481
 C123 C 0.89712 0.64704 0.37480
 C124 C 0.89614 0.62600 0.35279
 C125 C 0.87498 0.60390 0.35298
 C126 C 0.85419 0.60361 0.37532
 C127 C 0.85461 0.62478 0.39743
 C128 C 0.87645 0.64621 0.39706
 H129 H 0.91161 0.62729 0.33516
 H130 H 0.83763 0.58687 0.37549
 H131 H 0.87785 0.66200 0.41447
 C132 C 0.60373 0.35431 -0.12600
 C133 C 0.62562 0.35454 -0.10473
 C134 C 0.64728 0.37620 -0.10453
 C135 C 0.64679 0.39792 -0.12605
 C136 C 0.62517 0.39821 -0.14755
 C137 C 0.60374 0.37632 -0.14729
 H138 H 0.62580 0.33776 -0.08824
 H139 H 0.66332 0.41469 -0.12611
 H140 H 0.58700 0.37642 -0.16374
 C141 C 0.01366 0.23680 0.12503
 C142 C -0.01013 0.23474 0.10610
 C143 C -0.03154 0.25633 0.10574
 C144 C -0.02996 0.28052 0.12457
 C145 C -0.00604 0.28241 0.14357
 C146 C 0.01550 0.26094 0.14367
 C147 C 0.03646 0.21387 0.12529
 C148 C 0.04832 0.20395 0.15158
 C149 C 0.06974 0.18235 0.15179
 C150 C 0.07979 0.17006 0.12571
 C151 C 0.06776 0.17992 0.09943
 C152 C 0.04646 0.20161 0.09922
 H153 H -0.04960 0.25345 0.09106
 H154 H -0.00341 0.30072 0.15809
 H155 H 0.07864 0.17552 0.17243
 H156 H 0.07458 0.17066 0.07896
 H157 H 0.03388 0.26347 0.15809
 H158 H 0.04079 0.21267 0.17205
 H159 H -0.01247 0.21612 0.09184
 H160 H 0.03799 0.20900 0.07859
 C161 C 0.48637 0.76422 0.62588
 C162 C 0.48211 0.73768 0.64047
 C163 C 0.50384 0.71643 0.64060
 C164 C 0.53015 0.72124 0.62588
 C165 C 0.53430 0.74784 0.61127
 C166 C 0.51267 0.76914 0.61134
 C167 C 0.46345 0.78676 0.62579
 C168 C 0.47032 0.81590 0.63221
 C169 C 0.44874 0.83725 0.63202
 C170 C 0.41993 0.82991 0.62522
 C171 C 0.41308 0.80074 0.61877
 C172 C 0.43464 0.77933 0.61917
 H173 H 0.49978 0.69614 0.65190
 H174 H 0.55431 0.75235 0.59985
 H175 H 0.45463 0.85960 0.63691
 H176 H 0.39098 0.79444 0.61375
 H177 H 0.51631 0.78933 0.59968
 H178 H 0.49234 0.82208 0.63768
 H179 H 0.46205 0.73352 0.65201
 H180 H 0.42889 0.75701 0.61398
 C181 C 0.98594 0.73576 0.37453
 C182 C 0.98460 0.75940 0.35534
 C183 C 1.00638 0.78065 0.35543
 C184 C 1.02981 0.77897 0.37510
 C185 C 1.03073 0.75510 0.39446
 C186 C 1.00917 0.73367 0.39397
 C187 C 0.96318 0.71318 0.37426
 C188 C 0.97048 0.68391 0.36936
 C189 C 0.94897 0.66242 0.36931
 C190 C 0.91987 0.66986 0.37456
 C191 C 0.91265 0.69920 0.37964
 C192 C 0.93413 0.72073 0.37927
 H193 H 1.00459 0.79829 0.33998
 H194 H 1.04805 0.75265 0.41007
 H195 H 0.95512 0.63993 0.36559
 H196 H 0.89035 0.70549 0.38362
 H197 H 1.01037 0.71557 0.40906
 H198 H 0.99282 0.67777 0.36536
 H199 H 0.96688 0.76115 0.33999
 H200 H 0.92820 0.74323 0.38332
 C201 C 0.51441 0.26446 -0.12563
 C202 C 0.51521 0.24119 -0.14544
 C203 C 0.49358 0.21973 -0.14525
 C204 C 0.47056 0.22098 -0.12525
 C205 C 0.46978 0.24434 -0.10548
 C206 C 0.49141 0.26579 -0.10568
 C207 C 0.53745 0.28727 -0.12575
 C208 C 0.54844 0.29845 -0.09958
 C209 C 0.56978 0.32017 -0.09966
 C210 C 0.58094 0.33112 -0.12593
 C211 C 0.57010 0.31969 -0.15210
 C212 C 0.54857 0.29814 -0.15201
 H213 H 0.49512 0.20217 -0.16081
 H214 H 0.45236 0.24640 -0.08994
 H215 H 0.57725 0.32862 -0.07906
 H216 H 0.57841 0.32719 -0.17276
 H217 H 0.48984 0.28370 -0.09045
 H218 H 0.54067 0.29024 -0.07897
 H219 H 0.53281 0.23933 -0.16089
 H220 H 0.54035 0.29024 -0.17255
 C221 C 0.12375 0.01395 0.23705
 C222 C 0.10368 -0.00912 0.23646
 C223 C 0.10348 -0.03021 0.25840
 C224 C 0.12334 -0.02873 0.28151
 C225 C 0.14345 -0.00561 0.28205
 C226 C 0.14365 0.01544 0.26010
 C227 C 0.12388 0.03653 0.21388
 C228 C 0.15019 0.04755 0.20302
 C229 C 0.15036 0.06932 0.18176
 C230 C 0.12419 0.08039 0.17052
 C231 C 0.09787 0.06910 0.18123
 C232 C 0.09771 0.04754 0.20270
 H233 H 0.08781 -0.04773 0.25700
 H234 H 0.15900 -0.00350 0.29949
 H235 H 0.17107 0.07768 0.17442
 H236 H 0.07728 0.07672 0.17286
 H237 H 0.15912 0.03319 0.26145
 H238 H 0.17073 0.03923 0.21085
 H239 H 0.08831 -0.01116 0.21881
 H240 H 0.07707 0.03978 0.21086
 C241 C 0.62491 0.48724 -0.23714
 C242 C 0.64366 0.48483 -0.26099
 C243 C 0.64387 0.50613 -0.28268
 C244 C 0.62507 0.53034 -0.28128
 C245 C 0.60607 0.53246 -0.25739
 C246 C 0.60612 0.51127 -0.23558
 C247 C 0.62498 0.46473 -0.21397
 C248 C 0.59879 0.45448 -0.20217
 C249 C 0.59884 0.43310 -0.18054
 C250 C 0.62511 0.42131 -0.17032
 C251 C 0.65133 0.43175 -0.18209
 C252 C 0.65125 0.45325 -0.20359
 H253 H 0.65839 0.50305 -0.30083
 H254 H 0.59150 0.55077 -0.25493
 H255 H 0.57826 0.42603 -0.17165
 H256 H 0.67198 0.42308 -0.17498
 H257 H 0.59177 0.51397 -0.21717
 H258 H 0.57820 0.46274 -0.20993
 H259 H 0.65792 0.46618 -0.26309
 H260 H 0.67180 0.46105 -0.21198
 C261 C 0.37457 0.98477 0.73622
 C262 C 0.35470 0.98365 0.75925
 C263 C 0.35472 1.00525 0.78059
 C264 C 0.37456 1.02859 0.77941
 C265 C 0.39443 1.02968 0.75627
 C266 C 0.39444 1.00801 0.73494
 C267 C 0.37458 0.96177 0.71360
 C268 C 0.40085 0.95026 0.70329
 C269 C 0.40092 0.92892 0.68170
 C270 C 0.37471 0.91832 0.67008
 C271 C 0.34841 0.92964 0.68071
 C272 C 0.34836 0.95118 0.70214
 H273 H 0.33912 1.00345 0.79800
 H274 H 0.40986 1.04737 0.75432
 H275 H 0.42160 0.92097 0.67390
 H276 H 0.32779 0.92170 0.67269
 H277 H 0.40971 1.00967 0.71716
 H278 H 0.42138 0.95759 0.71209
 H279 H 0.33933 0.96584 0.76098
 H280 H 0.32778 0.95979 0.70954
 C281 C 0.87542 0.51507 0.26352
 C282 C 0.85559 0.51621 0.24046
 C283 C 0.85571 0.49470 0.21904
 C284 C 0.87566 0.47149 0.22018
 C285 C 0.89560 0.47050 0.24324
 C286 C 0.89549 0.49205 0.26465
 C287 C 0.87518 0.53783 0.28633
 C288 C 0.90132 0.54942 0.29686
 C289 C 0.90119 0.57065 0.31853
 C290 C 0.87488 0.58110 0.32998
 C291 C 0.84868 0.56957 0.31926
 C292 C 0.84884 0.54809 0.29776
 H293 H 0.84012 0.49650 0.20163
 H294 H 0.91125 0.45303 0.24500
 H295 H 0.92181 0.57869 0.32646
 H296 H 0.82797 0.57732 0.32719
 H297 H 0.91085 0.49045 0.28235
 H298 H 0.92193 0.54226 0.28814
 H299 H 0.84018 0.53396 0.23878
 H300 H 0.82835 0.53930 0.29025
 C301 C 0.23461 0.12448 0.01444
 C302 C 0.23350 0.10439 -0.00854
 C303 C 0.25501 0.10429 -0.02994
 C304 C 0.27815 0.12435 -0.02893
 C305 C 0.27920 0.14440 -0.00587
 C306 C 0.25772 0.14446 0.01552
 C307 C 0.21182 0.12460 0.03726
 C308 C 0.20116 0.15106 0.04835
 C309 C 0.18004 0.15120 0.07009
 C310 C 0.16870 0.12489 0.08107
 C311 C 0.17932 0.09842 0.06982
 C312 C 0.20070 0.09829 0.04831
 H313 H 0.25325 0.08855 -0.04729
 H314 H 0.29667 0.16005 -0.00405
 H315 H 0.17283 0.17202 0.07850
 H316 H 0.17095 0.07770 0.07740
 H317 H 0.25947 0.15992 0.03318
 H318 H 0.20901 0.17172 0.04004
 H319 H 0.21577 0.08895 -0.01020
 H320 H 0.20878 0.07753 0.04054
 C321 C 0.76563 0.62533 0.48634
 C322 C 0.76633 0.60532 0.50937
 C323 C 0.74479 0.60566 0.53062
 C324 C 0.72199 0.62601 0.52937
 C325 C 0.72126 0.64596 0.50619
 C326 C 0.74284 0.64561 0.48492
 C327 C 0.78865 0.62508 0.46391
 C328 C 0.80040 0.65136 0.45357
 C329 C 0.82175 0.65122 0.43210
 C330 C 0.83216 0.62475 0.42068
 C331 C 0.82071 0.59841 0.43149
 C332 C 0.79908 0.59859 0.45272
 H333 H 0.74630 0.58997 0.54806
 H334 H 0.70400 0.66181 0.50424
 H335 H 0.82977 0.67196 0.42421
 H336 H 0.82853 0.57758 0.42373
 H337 H 0.74148 0.66099 0.46713
 H338 H 0.79322 0.67208 0.46225
 H339 H 0.78380 0.58964 0.51122
 H340 H 0.79026 0.57798 0.46015
 C341 C 0.73593 0.37569 -0.01487
 C342 C 0.73451 0.39554 0.00831
 C343 C 0.75565 0.39536 0.03007
 C344 C 0.77876 0.37532 0.02922
 C345 C 0.77996 0.35533 0.00611
 C346 C 0.75887 0.35555 -0.01565
 C347 C 0.71351 0.37589 -0.03807
 C348 C 0.70287 0.34958 -0.04955
 C349 C 0.68172 0.34970 -0.07127
 C350 C 0.67036 0.37614 -0.08183
 C351 C 0.68117 0.40249 -0.07042
 C352 C 0.70257 0.40235 -0.04892
 H353 H 0.75366 0.41093 0.04756
 H354 H 0.79728 0.33953 0.00451
 H355 H 0.67446 0.32899 -0.07990
 H356 H 0.67288 0.42330 -0.07778
 H357 H 0.76081 0.34017 -0.03335
 H358 H 0.71065 0.32882 -0.04149
 H359 H 0.71681 0.41099 0.00983
 H360 H 0.71072 0.42302 -0.04094
 C361 C 0.26516 0.87424 0.51404
 C362 C 0.26596 0.89417 0.49094
 C363 C 0.24463 0.89356 0.46947
 C364 C 0.22192 0.87302 0.47060
 C365 C 0.22107 0.85320 0.49388
 C366 C 0.24244 0.85381 0.51535
 C367 C 0.28815 0.87454 0.53650
 C368 C 0.30004 0.84827 0.54667
 C369 C 0.32159 0.84844 0.56792
 C370 C 0.33206 0.87493 0.57930
 C371 C 0.32040 0.90125 0.56873
 C372 C 0.29857 0.90104 0.54772
 H373 H 0.24627 0.90908 0.45189
 H374 H 0.20383 0.83728 0.49576
 H375 H 0.32975 0.82772 0.57568
 H376 H 0.32823 0.92210 0.57651
 H377 H 0.24103 0.83849 0.53320
 H378 H 0.29281 0.82754 0.53801
 H379 H 0.28339 0.90994 0.48919
 H380 H 0.28963 0.92163 0.54044
   
