data_POSCAR
  _audit_creation_date              2014-09-24
  _audit_creation_method            'ToBaCCo'
  _symmetry_space_group_name_H-M    'P1'
  _symmetry_Int_Tables_number       1
  _symmetry_cell_setting            triclinic
  loop_
  _symmetry_equiv_pos_as_xyz
 x,y,z
_cell_length_a 49.7632
_cell_length_b 28.1391
_cell_length_c 20.3880
_cell_angle_alpha 89.933000
_cell_angle_beta 89.963700
_cell_angle_gamma 90.042000
loop_
  _atom_site_label
  _atom_site_type_symbol
  _atom_site_fract_x
  _atom_site_fract_y
  _atom_site_fract_z
O1 O 0.76228 0.19063 0.56217
 O2 O 0.71605 0.23357 0.43427
 O3 O 0.76246 0.19033 0.43499
 O4 O 0.71591 0.23389 0.56190
 O5 O 0.73662 0.30320 0.56155
 O6 O 0.78313 0.25961 0.43467
 O7 O 0.73676 0.30288 0.43395
 O8 O 0.78298 0.25997 0.56182
 Cu9 Cu 0.73707 0.20520 0.49835
 Cu10 Cu 0.76190 0.28838 0.49795
 C11 C 0.78073 0.21778 0.58342
 C12 C 0.71839 0.27568 0.41243
 C13 C 0.78101 0.21728 0.41352
 C14 C 0.71822 0.27610 0.58327
 O15 O 0.26243 0.69053 0.56452
 O16 O 0.21589 0.73419 0.43766
 O17 O 0.26219 0.69063 0.43735
 O18 O 0.21611 0.73404 0.56529
 O19 O 0.23695 0.80323 0.56506
 O20 O 0.28301 0.75984 0.43714
 O21 O 0.23674 0.80338 0.43746
 O22 O 0.28323 0.75969 0.56429
 Cu23 Cu 0.23703 0.70545 0.50124
 Cu24 Cu 0.26203 0.78849 0.50097
 C25 C 0.28105 0.71741 0.58572
 C26 C 0.21827 0.77635 0.41602
 C27 C 0.28067 0.71763 0.41582
 C28 C 0.21855 0.77616 0.58687
 O29 O 0.28187 0.23948 -0.43659
 O30 O 0.23557 0.19620 -0.56395
 O31 O 0.28195 0.23957 -0.56370
 O32 O 0.23551 0.19617 -0.43632
 O33 O 0.21481 0.26536 -0.43639
 O34 O 0.26124 0.30885 -0.56380
 O35 O 0.21486 0.26538 -0.56405
 O36 O 0.26118 0.30877 -0.43666
 Cu37 Cu 0.26075 0.21089 -0.50015
 Cu38 Cu 0.23591 0.29397 -0.50025
 C39 C 0.27965 0.28172 -0.41531
 C40 C 0.21714 0.22322 -0.58572
 C41 C 0.27975 0.28184 -0.58503
 C42 C 0.21708 0.22320 -0.41458
 O43 O -0.28420 0.76656 -0.43798
 O44 O -0.23774 0.81000 -0.56529
 O45 O -0.28410 0.76644 -0.56564
 O46 O -0.23783 0.80998 -0.43815
 O47 O -0.21710 0.74072 -0.43797
 O48 O -0.26333 0.69725 -0.56543
 O49 O -0.21701 0.74083 -0.56507
 O50 O -0.26345 0.69734 -0.43781
 Cu51 Cu -0.26309 0.79514 -0.50181
 Cu52 Cu -0.23819 0.71207 -0.50157
 C53 C -0.28185 0.72443 -0.41626
 C54 C -0.21915 0.78311 -0.58652
 C55 C -0.28173 0.72429 -0.58715
 C56 C -0.21936 0.78296 -0.41672
 O57 O -0.03688 0.91900 0.12250
 O58 O -0.06662 0.96059 0.05828
 C59 C -0.06098 0.93102 0.10500
 O60 O 0.03822 1.08644 0.11592
 O61 O 0.06793 1.04141 0.05615
 C62 C 0.06232 1.07379 0.09915
 O63 O -0.03701 1.08246 0.12141
 O64 O -0.06667 1.03996 0.05816
 C65 C -0.06109 1.06996 0.10431
 O66 O 0.03820 0.91423 0.11576
 O67 O 0.06793 0.95948 0.05605
 C68 C 0.06231 0.92701 0.09906
 Zr69 Zr 0.00057 0.93984 0.08234
 O70 O 0.00138 0.93216 0.18550
 O71 O -0.00045 0.86528 0.07048
 Zr72 Zr 0.00056 1.06029 0.08333
 O73 O 0.00307 1.06087 0.18699
 O74 O -0.00236 1.13536 0.08127
 O75 O -0.02327 1.00001 0.09579
 O76 O 0.02379 1.00008 0.09525
 O77 O 0.03845 0.91422 -0.11402
 O78 O 0.06805 0.95980 -0.05462
 C79 C 0.06253 0.92716 -0.09733
 O80 O -0.03676 1.08284 -0.12052
 O81 O -0.06655 1.04024 -0.05752
 C82 C -0.06087 1.07035 -0.10357
 O83 O 0.03840 1.08709 -0.11408
 O84 O 0.06800 1.04180 -0.05434
 C85 C 0.06247 1.07434 -0.09725
 O86 O -0.03677 0.91839 -0.12097
 O87 O -0.06656 0.96076 -0.05788
 C88 C -0.06089 0.93083 -0.10407
 Zr89 Zr 0.00070 0.94049 -0.08228
 O90 O 0.00378 0.93950 -0.18583
 O91 O -0.00199 0.86540 -0.07990
 Zr92 Zr 0.00071 1.06083 -0.08180
 O93 O 0.00376 1.06284 -0.18531
 O94 O -0.00235 1.13586 -0.07833
 Zr95 Zr -0.03966 1.00036 0.00032
 Zr96 Zr 0.04071 1.00053 0.00068
 O97 O 0.02396 1.00072 -0.09410
 O98 O -0.02320 1.00067 -0.09510
 O99 O 0.02482 0.93107 0.00019
 O100 O -0.02292 1.06909 0.00070
 O101 O -0.02308 0.93158 0.00005
 O102 O 0.02475 1.06992 0.00091
 H103 H 0.03577 1.00009 0.13403
 H104 H -0.03516 1.09685 0.00071
 H105 H 0.03596 1.00080 -0.13289
 H106 H -0.03542 0.90393 0.00007
 H107 H 0.01351 1.14766 0.05743
 H108 H 0.01379 1.14807 -0.05559
 H109 H -0.00999 1.04096 -0.20300
 H110 H -0.01034 0.96072 -0.20331
 H111 H 0.01275 0.85365 -0.05164
 H112 H -0.00091 0.85175 0.11534
 H113 H 0.00448 0.96412 0.20395
 H114 H -0.01133 1.03988 0.20391
 O115 O 0.46303 0.41820 0.12092
 O116 O 0.43320 0.45983 0.05701
 C117 C 0.43890 0.43025 0.10367
 O118 O 0.53817 0.58558 0.11393
 O119 O 0.56781 0.54061 0.05386
 C120 C 0.56225 0.57295 0.09696
 O121 O 0.46294 0.58165 0.11994
 O122 O 0.43317 0.53919 0.05692
 C123 C 0.43884 0.56918 0.10302
 O124 O 0.53795 0.41313 0.11369
 O125 O 0.56759 0.45829 0.05371
 C126 C 0.56203 0.42581 0.09673
 Zr127 Zr 0.50043 0.43903 0.08042
 O128 O 0.50137 0.43135 0.18357
 O129 O 0.49935 0.36449 0.06835
 Zr130 Zr 0.50046 0.55946 0.08159
 O131 O 0.50311 0.55993 0.18523
 O132 O 0.49755 0.63454 0.07971
 O133 O 0.47662 0.49920 0.09417
 O134 O 0.52371 0.49925 0.09320
 O135 O 0.53806 0.41361 -0.11638
 O136 O 0.56777 0.45916 -0.05720
 C137 C 0.56217 0.42656 -0.09994
 O138 O 0.46283 0.58217 -0.12194
 O139 O 0.43313 0.53954 -0.05875
 C140 C 0.43874 0.56968 -0.10483
 O141 O 0.53802 0.58643 -0.11591
 O142 O 0.56773 0.54107 -0.05657
 C143 C 0.56212 0.57370 -0.09929
 O144 O 0.46281 0.41769 -0.12249
 O145 O 0.43311 0.46005 -0.05912
 C146 C 0.43872 0.43011 -0.10533
 Zr147 Zr 0.50035 0.43981 -0.08418
 O148 O 0.50325 0.43890 -0.18777
 O149 O 0.49770 0.36471 -0.08186
 Zr150 Zr 0.50034 0.56010 -0.08352
 O151 O 0.50327 0.56215 -0.18705
 O152 O 0.49727 0.63513 -0.08009
 Zr153 Zr 0.46009 0.49962 -0.00116
 Zr154 Zr 0.54051 0.49979 -0.00150
 O155 O 0.52360 0.50004 -0.09612
 O156 O 0.47642 0.49997 -0.09672
 O157 O 0.52459 0.43035 -0.00194
 O158 O 0.47685 0.56834 -0.00081
 O159 O 0.47667 0.43084 -0.00167
 O160 O 0.52451 0.56916 -0.00103
 H161 H 0.53574 0.49920 0.13187
 H162 H 0.46461 0.59610 -0.00069
 H163 H 0.53553 0.50019 -0.13502
 H164 H 0.46432 0.40319 -0.00156
 H165 H 0.51338 0.64686 0.05574
 H166 H 0.51339 0.64735 -0.05725
 H167 H 0.48949 0.54031 -0.20467
 H168 H 0.48907 0.46007 -0.20508
 H169 H 0.51251 0.35296 -0.05382
 H170 H 0.49881 0.35090 0.11317
 H171 H 0.50453 0.46329 0.20200
 H172 H 0.48869 0.53903 0.20224
 C173 C 0.33994 0.28935 0.30130
 C174 C 0.33858 0.33670 0.28052
 C175 C 0.31738 0.36556 0.30156
 C176 C 0.29786 0.34743 0.34414
 C177 C 0.29934 0.30012 0.36637
 C178 C 0.32045 0.27113 0.34388
 C179 C 0.35955 0.35621 0.23994
 C180 C 0.37742 0.37280 0.20716
 C181 C 0.39863 0.39251 0.17004
 C182 C 0.41694 0.40959 0.13927
 H183 H 0.35630 0.26673 0.28543
 H184 H 0.31617 0.40231 0.28589
 H185 H 0.28189 0.37069 0.36054
 H186 H 0.32219 0.23459 0.36007
 C187 C -0.18265 0.86587 0.30183
 C188 C -0.16138 0.83712 0.28103
 C189 C -0.15992 0.78987 0.30201
 C190 C -0.17935 0.77159 0.34470
 C191 C -0.20057 0.80049 0.36733
 C192 C -0.20213 0.84776 0.34451
 C193 C -0.14042 0.85670 0.24051
 C194 C -0.12255 0.87336 0.20784
 C195 C -0.10132 0.89316 0.17092
 C196 C -0.08299 0.91031 0.14036
 H197 H -0.18394 0.90255 0.28591
 H198 H -0.14350 0.76733 0.28623
 H199 H -0.17740 0.73506 0.36080
 H200 H -0.21811 0.87118 0.36047
 C201 C 0.65924 0.71718 0.29561
 C202 C 0.66116 0.67018 0.27371
 C203 C 0.68227 0.64141 0.29552
 C204 C 0.70117 0.65927 0.33984
 C205 C 0.69915 0.70622 0.36309
 C206 C 0.67812 0.73514 0.33994
 C207 C 0.64073 0.65072 0.23155
 C208 C 0.62327 0.63384 0.19786
 C209 C 0.60242 0.61337 0.16041
 C210 C 0.58426 0.59528 0.13030
 H211 H 0.64292 0.73971 0.27925
 H212 H 0.68389 0.60492 0.27909
 H213 H 0.71710 0.63608 0.35666
 H214 H 0.67599 0.77141 0.35685
 C215 C 0.15923 1.21745 0.29870
 C216 C 0.16107 1.17048 0.27680
 C217 C 0.18205 1.14154 0.29881
 C218 C 0.20090 1.15917 0.34340
 C219 C 0.19899 1.20618 0.36696
 C220 C 0.17804 1.23526 0.34330
 C221 C 0.14068 1.15121 0.23439
 C222 C 0.12325 1.13447 0.20051
 C223 C 0.10242 1.11412 0.16288
 C224 C 0.08429 1.09609 0.13264
 H225 H 0.14300 1.24012 0.28210
 H226 H 0.18360 1.10506 0.28230
 H227 H 0.21669 1.13562 0.36009
 H228 H 0.17584 1.27160 0.35992
 C229 C 0.65914 0.28293 -0.29944
 C230 C 0.66100 0.32995 -0.27760
 C231 C 0.68206 0.35886 -0.29955
 C232 C 0.70098 0.34110 -0.34392
 C233 C 0.69903 0.29412 -0.36707
 C234 C 0.67804 0.26507 -0.34382
 C235 C 0.64058 0.34926 -0.23529
 C236 C 0.62313 0.36601 -0.20143
 C237 C 0.60229 0.38633 -0.16378
 C238 C 0.58415 0.40432 -0.13349
 H239 H 0.64286 0.26029 -0.28297
 H240 H 0.68363 0.39537 -0.28317
 H241 H 0.71688 0.36440 -0.36082
 H242 H 0.67597 0.22877 -0.36065
 C243 C 0.15964 0.78306 -0.29545
 C244 C 0.16156 0.83006 -0.27357
 C245 C 0.18266 0.85889 -0.29548
 C246 C 0.20154 0.84109 -0.33992
 C247 C 0.19949 0.79416 -0.36318
 C248 C 0.17849 0.76516 -0.33990
 C249 C 0.14113 0.84947 -0.23143
 C250 C 0.12364 0.86632 -0.19779
 C251 C 0.10275 0.88674 -0.16048
 C252 C 0.08456 0.90483 -0.13051
 H253 H 0.14331 0.76049 -0.27901
 H254 H 0.18428 0.89539 -0.27906
 H255 H 0.21746 0.86433 -0.35685
 H256 H 0.17634 0.72890 -0.35682
 C257 C 0.31736 0.63475 -0.30227
 C258 C 0.33861 0.66353 -0.28134
 C259 C 0.34014 0.71075 -0.30248
 C260 C 0.32080 0.72895 -0.34539
 C261 C 0.29959 0.70003 -0.36810
 C262 C 0.29797 0.65278 -0.34518
 C263 C 0.35946 0.64405 -0.24049
 C264 C 0.37725 0.62745 -0.20759
 C265 C 0.39842 0.60769 -0.17048
 C266 C 0.41673 0.59051 -0.13991
 H267 H 0.31601 0.59809 -0.28625
 H268 H 0.35654 0.73333 -0.28663
 H269 H 0.32281 0.76547 -0.36156
 H270 H 0.28200 0.62934 -0.36119
 C271 C -0.15948 1.21096 -0.30186
 C272 C -0.16091 1.16371 -0.28068
 C273 C -0.18204 1.13469 -0.30183
 C274 C -0.20141 1.15256 -0.34492
 C275 C -0.19984 1.19976 -0.36754
 C276 C -0.17881 1.22893 -0.34495
 C277 C -0.14006 1.14441 -0.23971
 C278 C -0.12227 1.12793 -0.20670
 C279 C -0.10112 1.10828 -0.16949
 C280 C -0.08284 1.09116 -0.13881
 H281 H -0.14316 1.23369 -0.28592
 H282 H -0.18329 1.09801 -0.28587
 H283 H -0.21731 1.12918 -0.36139
 H284 H -0.17702 1.26539 -0.36143
 C285 C 0.65914 0.71772 -0.29879
 C286 C 0.66101 0.67076 -0.27661
 C287 C 0.68207 0.64186 -0.29835
 C288 C 0.70098 0.65957 -0.34288
 C289 C 0.69901 0.70648 -0.36640
 C290 C 0.67802 0.73553 -0.34333
 C291 C 0.64058 0.65146 -0.23426
 C292 C 0.62311 0.63468 -0.20042
 C293 C 0.60225 0.61428 -0.16285
 C294 C 0.58410 0.59616 -0.13268
 H295 H 0.64285 0.74034 -0.28248
 H296 H 0.68364 0.60539 -0.28170
 H297 H 0.71687 0.63628 -0.35963
 H298 H 0.67593 0.77178 -0.36044
 C299 C 0.15928 1.21759 -0.29843
 C300 C 0.16113 1.17065 -0.27624
 C301 C 0.18207 1.14166 -0.29836
 C302 C 0.20086 1.15920 -0.34329
 C303 C 0.19895 1.20619 -0.36708
 C304 C 0.17802 1.23531 -0.34336
 C305 C 0.14082 1.15149 -0.23339
 C306 C 0.12343 1.13483 -0.19916
 C307 C 0.10263 1.11459 -0.16117
 C308 C 0.08449 1.09662 -0.13075
 H309 H 0.14308 1.24030 -0.28177
 H310 H 0.18364 1.10520 -0.28165
 H311 H 0.21663 1.13562 -0.36001
 H312 H 0.17582 1.27163 -0.36016
 C313 C 0.33965 0.28902 -0.30131
 C314 C 0.33828 0.33635 -0.28062
 C315 C 0.31712 0.36526 -0.30179
 C316 C 0.29765 0.34720 -0.34444
 C317 C 0.29915 0.29992 -0.36661
 C318 C 0.32021 0.27086 -0.34396
 C319 C 0.35923 0.35582 -0.24014
 C320 C 0.37711 0.37241 -0.20754
 C321 C 0.39835 0.39215 -0.17074
 C322 C 0.41670 0.40931 -0.14035
 H323 H 0.35599 0.26636 -0.28534
 H324 H 0.31591 0.40200 -0.28620
 H325 H 0.28172 0.37050 -0.36097
 H326 H 0.32196 0.23434 -0.36010
 C327 C -0.15954 0.79022 -0.30209
 C328 C -0.16094 0.83754 -0.28135
 C329 C -0.18204 0.86649 -0.30279
 C330 C -0.20143 0.84846 -0.34572
 C331 C -0.19990 0.80118 -0.36788
 C332 C -0.17889 0.77210 -0.34501
 C333 C -0.14009 0.85694 -0.24044
 C334 C -0.12230 0.87344 -0.20744
 C335 C -0.10115 0.89307 -0.17018
 C336 C -0.08286 0.91012 -0.13943
 H337 H -0.14325 0.76754 -0.28592
 H338 H -0.18327 0.90321 -0.28717
 H339 H -0.21732 0.87178 -0.36242
 H340 H -0.17712 0.73559 -0.36113
 C341 C 0.31771 0.63412 0.30142
 C342 C 0.33888 0.66299 0.27997
 C343 C 0.34041 0.71027 0.30081
 C344 C 0.32112 0.72843 0.34388
 C345 C 0.30005 0.69942 0.36678
 C346 C 0.29839 0.65219 0.34449
 C347 C 0.35969 0.64350 0.23904
 C348 C 0.37745 0.62690 0.20607
 C349 C 0.39858 0.60714 0.16888
 C350 C 0.41686 0.58998 0.13824
 H351 H 0.31639 0.59742 0.28573
 H352 H 0.35676 0.73288 0.28463
 H353 H 0.32298 0.76491 0.36010
 H354 H 0.28245 0.62892 0.36121
 C355 C -0.15991 1.21078 0.30149
 C356 C -0.16136 1.16352 0.28068
 C357 C -0.18254 1.13464 0.30190
 C358 C -0.20196 1.15264 0.34476
 C359 C -0.20042 1.19994 0.36736
 C360 C -0.17928 1.22895 0.34436
 C361 C -0.14047 1.14408 0.23989
 C362 C -0.12265 1.12752 0.20702
 C363 C -0.10145 1.10783 0.16995
 C364 C -0.08312 1.09072 0.13940
 H365 H -0.14356 1.23343 0.28542
 H366 H -0.18382 1.09795 0.28614
 H367 H -0.21788 1.12913 0.36100
 H368 H -0.17734 1.26551 0.36027
 C369 C 0.68226 0.35806 0.29461
 C370 C 0.66117 0.32910 0.27309
 C371 C 0.65934 0.28213 0.29527
 C372 C 0.67826 0.26438 0.33964
 C373 C 0.69926 0.29350 0.36255
 C374 C 0.70121 0.34041 0.33898
 C375 C 0.64068 0.34837 0.23099
 C376 C 0.62315 0.36511 0.19738
 C377 C 0.60223 0.38545 0.16005
 C378 C 0.58404 0.40349 0.13003
 H379 H 0.68381 0.39454 0.27796
 H380 H 0.64303 0.25946 0.27912
 H381 H 0.67619 0.22813 0.35680
 H382 H 0.71711 0.36375 0.35561
 C383 C 0.18218 0.85918 0.29863
 C384 C 0.16106 0.83035 0.27697
 C385 C 0.15914 0.78337 0.29909
 C386 C 0.17803 0.76546 0.34344
 C387 C 0.19909 0.79443 0.36639
 C388 C 0.20110 0.84137 0.34298
 C389 C 0.14066 0.84971 0.23466
 C390 C 0.12322 0.86649 0.20079
 C391 C 0.10240 0.88682 0.16308
 C392 C 0.08427 0.90480 0.13273
 H393 H 0.18380 0.89566 0.28203
 H394 H 0.14281 0.76079 0.28284
 H395 H 0.17590 0.72919 0.36048
 H396 H 0.21705 0.86460 0.35964
   
