data_POSCAR
  _audit_creation_date              2014-09-24
  _audit_creation_method            'ToBaCCo'
  _symmetry_space_group_name_H-M    'P1'
  _symmetry_Int_Tables_number       1
  _symmetry_cell_setting            triclinic
  loop_
  _symmetry_equiv_pos_as_xyz
 x,y,z
_cell_length_a 29.4437
_cell_length_b 29.5764
_cell_length_c 22.7876
_cell_angle_alpha 90.104700
_cell_angle_beta 90.216500
_cell_angle_gamma 119.804200
loop_
  _atom_site_label
  _atom_site_type_symbol
  _atom_site_fract_x
  _atom_site_fract_y
  _atom_site_fract_z
O1 O 0.02541 0.57163 -0.09674
 O2 O 0.07385 0.50597 0.00281
 O3 O 0.01177 0.48308 -0.09427
 O4 O 0.09408 0.60389 -0.01524
 O5 O 0.02978 0.58444 0.04719
 O6 O -0.05015 0.45654 -0.02723
 O7 O 0.01102 0.49086 0.06565
 O8 O -0.04110 0.54933 -0.03658
 Cu9 Cu 0.05843 0.54188 -0.05492
 Cu10 Cu -0.01922 0.51841 0.01829
 C11 C -0.01744 0.56986 -0.08402
 C12 C 0.05164 0.48896 0.05212
 C13 C -0.03313 0.44982 -0.07599
 C14 C 0.07608 0.61522 0.02925
 O15 O 0.45991 0.46703 -0.08449
 O16 O 0.51399 0.57945 0.01475
 O17 O 0.54994 0.55208 -0.07309
 O18 O 0.42807 0.49095 0.01409
 O19 O 0.46388 0.45788 0.07287
 O20 O 0.57889 0.50838 -0.02151
 O21 O 0.55129 0.54437 0.06796
 O22 O 0.48697 0.42603 -0.02541
 Cu23 Cu 0.48426 0.52556 -0.03810
 Cu24 Cu 0.52325 0.48011 0.02901
 C25 C 0.46454 0.42772 -0.07259
 C26 C 0.54232 0.58153 0.05784
 C27 C 0.58472 0.53952 -0.06275
 C28 C 0.42688 0.46640 0.06049
 O29 O 0.54908 1.01148 0.07809
 O30 O 0.48958 1.06779 -0.01939
 O31 O 0.46121 1.01196 0.07681
 O32 O 0.57995 1.07100 -0.01437
 O33 O 0.54428 1.00163 -0.07199
 O34 O 0.42747 0.94067 0.02228
 O35 O 0.45551 0.99644 -0.07406
 O36 O 0.51598 0.94142 0.02157
 Cu37 Cu 0.52325 1.04769 0.03578
 Cu38 Cu 0.48244 0.96278 -0.03079
 C39 C 0.54190 0.96635 0.06664
 C40 C 0.46344 1.04194 -0.06406
 C41 C 0.42480 0.96590 0.06614
 C42 C 0.58165 1.04699 -0.05988
 O43 O 0.93923 0.51624 0.52107
 O44 O 0.99283 0.46323 0.41401
 O45 O 0.93741 0.42464 0.51574
 O46 O 0.99635 0.54808 0.43351
 O47 O 1.06813 0.57577 0.48704
 O48 O 1.01004 0.45200 0.56738
 O49 O 1.06234 0.48647 0.47030
 O50 O 1.00745 0.53876 0.57928
 Cu51 Cu 0.95844 0.48271 0.46728
 Cu52 Cu 1.04406 0.51600 0.53167
 C53 C 0.96431 0.53717 0.56796
 C54 C 1.03735 0.46742 0.42263
 C55 C 0.96340 0.41751 0.55581
 C56 C 1.04297 0.58281 0.44595
 O57 O 0.54150 0.53073 0.42102
 O58 O 0.47661 0.41217 0.51329
 O59 O 0.45337 0.44433 0.41391
 O60 O 0.56827 0.49387 0.50948
 O61 O 0.53870 0.53632 0.56252
 O62 O 0.41810 0.47868 0.47137
 O63 O 0.44810 0.45292 0.57074
 O64 O 0.50499 0.56614 0.47482
 Cu65 Cu 0.51250 0.46594 0.45867
 Cu66 Cu 0.47359 0.51159 0.52566
 C67 C 0.53360 0.56844 0.43226
 C68 C 0.45401 0.41421 0.55999
 C69 C 0.41713 0.45427 0.42481
 C70 C 0.57367 0.52417 0.55163
 O71 O 0.51974 -0.06653 0.50028
 O72 O 0.45742 -0.01152 0.59400
 O73 O 0.43170 -0.06764 0.49689
 O74 O 0.54495 -0.01045 0.59728
 O75 O 0.58138 0.06073 0.54307
 O76 O 0.46708 0.00429 0.44410
 O77 O 0.49228 0.05984 0.54007
 O78 O 0.55521 0.00501 0.44674
 Cu79 Cu 0.48479 -0.04631 0.55236
 Cu80 Cu 0.52773 0.03977 0.48835
 C81 C 0.54700 -0.04066 0.45667
 C82 C 0.46493 0.03381 0.58353
 C83 C 0.43045 -0.04197 0.45277
 C84 C 0.58209 0.03531 0.58763
 C85 C 0.31774 0.38290 0.20754
 C86 C 0.31597 0.38086 0.26790
 C87 C 0.29353 0.41014 0.28572
 N88 N 0.28073 0.42910 0.23843
 C89 C 0.29622 0.41326 0.19068
 C90 C 0.28935 0.42399 0.34414
 C91 C 0.25068 0.43707 0.35893
 C92 C 0.24941 0.46179 0.41020
 C93 C 0.20353 0.46347 0.40898
 C94 C 0.17805 0.43981 0.35696
 N95 N 0.20716 0.42405 0.32667
 C96 C 0.12772 0.43008 0.33994
 C97 C 0.11090 0.41847 0.28086
 C98 C 0.05958 0.39420 0.26093
 C99 C 0.06175 0.39695 0.20063
 C100 C 0.11431 0.42265 0.18596
 N101 N 0.14415 0.43504 0.23496
 C102 C 0.13518 0.43948 0.12924
 C103 C 0.18605 0.44933 0.11546
 C104 C 0.21480 0.47635 0.06676
 C105 C 0.26031 0.47397 0.06789
 C106 C 0.25808 0.44555 0.11726
 N107 N 0.21278 0.43085 0.14603
 C108 C 0.29539 0.43091 0.13321
 H109 H 0.33346 0.36457 0.17936
 H110 H 0.32999 0.36058 0.29549
 H111 H 0.19862 0.40525 0.18138
 H112 H 0.27835 0.47716 0.44499
 H113 H 0.19068 0.48037 0.44265
 H114 H 0.02431 0.37670 0.28702
 H115 H 0.02854 0.38220 0.17103
 H116 H 0.29137 0.49138 0.03593
 H117 H 0.19541 0.40097 0.28890
 H118 H 0.20436 0.49590 0.03376
 C119 C 0.52195 0.89291 0.29076
 C120 C 0.52134 0.89429 0.23065
 C121 C 0.54770 0.86926 0.21108
 N122 N 0.56424 0.85250 0.25734
 C123 C 0.54850 0.86691 0.30613
 C124 C 0.55680 0.86248 0.15155
 C125 C 0.56946 0.82431 0.13377
 C126 C 0.58739 0.82107 0.07857
 C127 C 0.58714 0.77437 0.07623
 C128 C 0.56892 0.75042 0.13001
 N129 N 0.55879 0.78136 0.16492
 C130 C 0.55575 0.69875 0.14346
 C131 C 0.54352 0.67927 0.20114
 C132 C 0.51295 0.62721 0.21594
 C133 C 0.51217 0.62515 0.27594
 C134 C 0.54244 0.67603 0.29573
 N135 N 0.56137 0.70912 0.24994
 C136 C 0.55348 0.69155 0.35505
 C137 C 0.56771 0.74255 0.37341
 C138 C 0.58589 0.76293 0.42895
 C139 C 0.58721 0.81013 0.43156
 C140 C 0.56984 0.81720 0.37751
 N141 N 0.55858 0.77611 0.34226
 C142 C 0.55827 0.85703 0.36429
 H143 H 0.50354 0.90802 0.31962
 H144 H 0.50228 0.91064 0.20460
 H145 H 0.53822 0.76772 0.30272
 H146 H 0.59786 0.84865 0.04300
 H147 H 0.59732 0.75897 0.03854
 H148 H 0.49213 0.59421 0.18674
 H149 H 0.49056 0.59023 0.30179
 H150 H 0.59792 0.83545 0.46957
 H151 H 0.53825 0.77028 0.20413
 H152 H 0.59538 0.74482 0.46455
 C153 C 0.10465 0.63439 0.28608
 C154 C 0.10036 0.63786 0.22665
 C155 C 0.12914 0.69031 0.21289
 N156 N 0.15005 0.71912 0.26192
 C157 C 0.13481 0.68498 0.30691
 C158 C 0.13471 0.71075 0.15592
 C159 C 0.17665 0.76023 0.14032
 C160 C 0.18098 0.78562 0.08777
 C161 C 0.23059 0.82855 0.08672
 C162 C 0.25483 0.82845 0.13897
 N163 N 0.22162 0.78691 0.17140
 C164 C 0.30785 0.86283 0.15329
 C165 C 0.32729 0.86803 0.21136
 C166 C 0.37965 0.89021 0.22692
 C167 C 0.38151 0.88901 0.28702
 C168 C 0.33024 0.86605 0.30635
 N169 N 0.29714 0.85322 0.26002
 C170 C 0.31442 0.85785 0.36583
 C171 C 0.26312 0.82066 0.38268
 C172 C 0.24300 0.81560 0.43881
 C173 C 0.19539 0.77026 0.43922
 C174 C 0.18770 0.74915 0.38328
 N175 N 0.22890 0.78027 0.34904
 C176 C 0.14653 0.69966 0.36659
 H177 H 0.08808 0.59844 0.31061
 H178 H 0.07968 0.60533 0.19677
 H179 H 0.23672 0.77044 0.30797
 H180 H 0.15209 0.77358 0.05300
 H181 H 0.24730 0.85608 0.05109
 H182 H 0.41308 0.90481 0.19812
 H183 H 0.41659 0.90239 0.31323
 H184 H 0.17001 0.75397 0.47678
 H185 H 0.23174 0.77362 0.20867
 H186 H 0.26148 0.84098 0.47614
 C187 C 0.62585 0.51773 0.71790
 C188 C 0.62813 0.52129 0.77746
 C189 C 0.68031 0.54210 0.79350
 N190 N 0.70972 0.54979 0.74500
 C191 C 0.67655 0.53592 0.69852
 C192 C 0.69857 0.54941 0.85248
 C193 C 0.74961 0.56041 0.86871
 C194 C 0.76344 0.55193 0.92418
 C195 C 0.81518 0.56527 0.92195
 C196 C 0.83237 0.58288 0.86551
 N197 N 0.79216 0.58028 0.83353
 C198 C 0.88424 0.60172 0.84529
 C199 C 0.89756 0.61310 0.78564
 C200 C 0.94778 0.64417 0.76435
 C201 C 0.94480 0.63712 0.70461
 C202 C 0.89279 0.60255 0.69164
 N203 N 0.86395 0.58827 0.74104
 C204 C 0.87326 0.57989 0.63623
 C205 C 0.81994 0.55917 0.62040
 C206 C 0.79738 0.53270 0.56850
 C207 C 0.74623 0.52155 0.56854
 C208 C 0.73822 0.54018 0.62114
 N209 N 0.78358 0.56385 0.65203
 C210 C 0.68979 0.53472 0.63900
 H211 H 0.58999 0.50039 0.69249
 H212 H 0.59414 0.50695 0.80528
 H213 H 0.79035 0.58578 0.69004
 H214 H 0.73882 0.53652 0.96238
 H215 H 0.83700 0.56179 0.95821
 H216 H 0.98307 0.66797 0.78955
 H217 H 0.97721 0.65456 0.67429
 H218 H 0.71810 0.50081 0.53403
 H219 H 0.79468 0.59496 0.79156
 H220 H 0.81541 0.52222 0.53381
 C221 C 0.37437 0.05595 0.72722
 C222 C 0.37445 0.05785 0.78758
 C223 C 0.40291 0.11006 0.80310
 N224 N 0.41925 0.13998 0.75460
 C225 C 0.40267 0.10706 0.70826
 C226 C 0.41985 0.13029 0.86019
 C227 C 0.43239 0.18184 0.87386
 C228 C 0.46009 0.21007 0.92292
 C229 C 0.46088 0.25697 0.92088
 C230 C 0.43365 0.25607 0.87063
 N231 N 0.41654 0.21020 0.84226
 C232 C 0.42219 0.29522 0.85346
 C233 C 0.40582 0.29666 0.79534
 C234 C 0.37793 0.32049 0.77705
 C235 C 0.37594 0.31758 0.71669
 C236 C 0.40299 0.29237 0.70024
 N237 N 0.42034 0.27884 0.74843
 C238 C 0.41683 0.28667 0.64230
 C239 C 0.42875 0.24709 0.62869
 C240 C 0.45494 0.24522 0.57906
 C241 C 0.45566 0.19906 0.58136
 C242 C 0.42970 0.17388 0.63223
 N243 N 0.41356 0.20352 0.66077
 C244 C 0.41882 0.12373 0.65023
 H245 H 0.35645 0.02104 0.70041
 H246 H 0.35672 0.02469 0.81672
 H247 H 0.38930 0.19251 0.69741
 H248 H 0.47814 0.19847 0.95665
 H249 H 0.47965 0.28810 0.95279
 H250 H 0.36105 0.33830 0.80428
 H251 H 0.35729 0.33282 0.68819
 H252 H 0.47359 0.18601 0.54919
 H253 H 0.39119 0.19701 0.80625
 H254 H 0.47220 0.27414 0.54487
 C255 C 0.69519 0.07094 0.73956
 C256 C 0.69550 0.07445 0.79986
 C257 C 0.71089 0.12586 0.81329
 N258 N 0.72176 0.15407 0.76359
 C259 C 0.71137 0.12052 0.71858
 C260 C 0.70971 0.14639 0.86901
 C261 C 0.74576 0.19946 0.88192
 C262 C 0.74313 0.22827 0.92869
 C263 C 0.78781 0.27656 0.92687
 C264 C 0.81645 0.27611 0.87894
 N265 N 0.79051 0.22909 0.85193
 C266 C 0.86649 0.31672 0.86216
 C267 C 0.88517 0.31602 0.80508
 C268 C 0.93696 0.33904 0.78765
 C269 C 0.93680 0.33861 0.72733
 C270 C 0.88476 0.31234 0.71001
 N271 N 0.85343 0.29837 0.75758
 C272 C 0.86509 0.30583 0.65220
 C273 C 0.81560 0.26322 0.63804
 C274 C 0.78744 0.25750 0.58697
 C275 C 0.74371 0.20865 0.58890
 C276 C 0.74668 0.18592 0.64098
 N277 N 0.79062 0.21941 0.67043
 C278 C 0.71166 0.13459 0.65940
 H279 H 0.68413 0.03603 0.71408
 H280 H 0.68506 0.04274 0.83024
 H281 H 0.80519 0.21095 0.70810
 H282 H 0.71240 0.21639 0.96084
 H283 H 0.79756 0.30826 0.95726
 H284 H 0.97146 0.35568 0.81543
 H285 H 0.97136 0.35509 0.70043
 H286 H 0.71350 0.19210 0.55553
 H287 H 0.80489 0.21629 0.81779
 H288 H 0.79758 0.28514 0.55155
 C289 C 0.07441 0.47002 0.09653
 C290 C 0.10555 0.45051 0.08344
 H291 H 0.06706 0.47518 0.14184
 H292 H 0.11300 0.44677 0.03766
 C293 C 0.56243 0.62586 0.09877
 C294 C 0.54830 0.66243 0.09450
 H295 H 0.58446 0.62533 0.13672
 H296 H 0.52784 0.66412 0.05566
 C297 C 0.38096 0.94112 0.10771
 C298 C 0.34473 0.89054 0.10445
 H299 H 0.38145 0.96383 0.14535
 H300 H 0.34275 0.86799 0.06601
 C301 C 0.94179 0.55767 0.61073
 C302 C 0.90832 0.57367 0.59402
 H303 H 0.94946 0.55520 0.65678
 H304 H 0.90186 0.57580 0.54754
 C305 C 0.43882 0.37446 0.60578
 C306 C 0.42314 0.32437 0.59492
 H307 H 0.44441 0.38876 0.65041
 H308 H 0.41907 0.31177 0.54959
 C309 C 0.62430 0.06053 0.63119
 C310 C 0.67245 0.09776 0.61622
 H311 H 0.61340 0.05149 0.67670
 H312 H 0.68117 0.10512 0.56993
 C313 C 0.44549 0.06579 0.89206
 C314 C 0.42959 0.09972 0.90567
 H315 H 0.44851 0.05668 0.84679
 H316 H 0.42793 0.10841 0.95156
 C317 C 0.62830 0.55855 0.90095
 C318 C 0.66002 0.53801 0.90031
 H319 H 0.63318 0.58696 0.86790
 H320 H 0.65528 0.50928 0.93275
 C321 C 0.93658 0.40772 0.88719
 C322 C 0.89725 0.36122 0.90422
 H323 H 0.94740 0.41478 0.84167
 H324 H 0.88742 0.35552 0.95037
 C325 C 0.56661 0.93544 0.41443
 C326 C 0.54952 0.88417 0.41430
 H327 H 0.59077 0.95928 0.37868
 H328 H 0.52639 0.86048 0.45070
 C329 C 0.37690 0.44145 0.37941
 C330 C 0.32734 0.42841 0.39090
 H331 H 0.39045 0.44627 0.33463
 H332 H 0.31558 0.42480 0.43641
 C333 C 0.06694 0.62734 0.41132
 C334 C 0.11854 0.66097 0.41366
 H335 H 0.04367 0.63152 0.37703
 H336 H 0.14207 0.65850 0.44890
 C337 C 0.95750 0.58685 0.87243
 C338 C 0.92380 0.60290 0.88752
 H339 H 0.96197 0.57900 0.82708
 H340 H 0.92053 0.60993 0.93352
 C341 C 0.44691 0.38579 0.88344
 C342 C 0.43058 0.33618 0.89764
 H343 H 0.45081 0.39743 0.83795
 H344 H 0.42773 0.32635 0.94377
 C345 C 0.62310 0.07096 0.90072
 C346 C 0.66835 0.11470 0.91331
 H347 H 0.61585 0.05368 0.85758
 H348 H 0.67402 0.12953 0.95777
 C349 C 0.06160 0.45332 0.37508
 C350 C 0.09437 0.43515 0.38581
 H351 H 0.05466 0.46157 0.33080
 H352 H 0.10040 0.42804 0.43104
 C353 C 0.55552 0.61411 0.39362
 C354 C 0.54347 0.65196 0.40068
 H355 H 0.57764 0.61421 0.35568
 H356 H 0.52310 0.65282 0.43983
 C357 C 0.38996 0.93506 0.41164
 C358 C 0.35356 0.88445 0.41347
 H359 H 0.39015 0.95850 0.37501
 H360 H 0.35211 0.86102 0.45074
 C361 C 0.56154 0.94186 0.10813
 C362 C 0.54641 0.89109 0.10461
 H363 H 0.58493 0.96474 0.14515
 H364 H 0.52428 0.86876 0.06664
 C365 C 0.38477 0.45102 0.10353
 C366 C 0.33566 0.43776 0.08887
 H367 H 0.39616 0.45381 0.14914
 H368 H 0.32600 0.43614 0.04271
 C369 C 0.11121 0.66292 0.06220
 C370 C 0.09610 0.67617 0.11136
 H371 H 0.15217 0.68346 0.05006
 H372 H 0.05555 0.65372 0.12478
 C373 C 0.44484 0.05758 0.62505
 C374 C 0.42904 0.09096 0.60814
 H375 H 0.44694 0.04973 0.67098
 H376 H 0.42802 0.09769 0.56157
 C377 C 0.62004 0.54421 0.58969
 C378 C 0.64821 0.52001 0.59369
 H379 H 0.62839 0.57643 0.61889
 H380 H 0.63926 0.48743 0.56490
 C381 C 0.93916 0.36969 0.59099
 C382 C 0.88998 0.34942 0.60977
 H383 H 0.96323 0.35354 0.60495
 H384 H 0.86661 0.36613 0.59448
   
