data_POSCAR
  _audit_creation_date              2014-09-24
  _audit_creation_method            'ToBaCCo'
  _symmetry_space_group_name_H-M    'P1'
  _symmetry_Int_Tables_number       1
  _symmetry_cell_setting            triclinic
  loop_
  _symmetry_equiv_pos_as_xyz
 x,y,z
_cell_length_a 26.3803
_cell_length_b 26.3797
_cell_length_c 26.3613
_cell_angle_alpha 89.951900
_cell_angle_beta 90.141900
_cell_angle_gamma 90.000000
loop_
  _atom_site_label
  _atom_site_type_symbol
  _atom_site_fract_x
  _atom_site_fract_y
  _atom_site_fract_z
O1 O -0.13078 0.06842 0.00140
 O2 O 0.12977 0.06849 -0.00212
 O3 O -0.00232 0.13016 0.06813
 O4 O 0.00118 0.13035 -0.06913
 O5 O 0.00111 0.06873 -0.13086
 O6 O -0.00226 0.06837 0.12996
 O7 O 0.06804 0.13027 -0.00224
 O8 O -0.06900 0.13017 0.00145
 Zr9 Zr -0.00049 0.08902 -0.00048
 O10 O 0.04544 0.04602 -0.04643
 O11 O -0.04637 0.04581 0.04548
 C12 C -0.11591 0.11533 0.00244
 C13 C 0.11498 0.11544 -0.00311
 C14 C -0.00325 0.11530 0.11510
 C15 C 0.00204 0.11578 -0.11622
 H16 H 0.06699 0.06732 0.06716
 O17 O 0.04530 0.04570 0.04549
 H18 H -0.06810 0.06744 -0.06800
 O19 O -0.04643 0.04579 -0.04630
 O20 O 0.12963 -0.06854 0.00169
 O21 O -0.13093 -0.06872 -0.00231
 O22 O 0.06814 -0.00216 0.13001
 O23 O 0.06790 0.00182 -0.13075
 O24 O -0.06923 -0.00184 -0.13079
 O25 O -0.06888 0.00183 0.12991
 O26 O 0.00125 -0.13050 0.06851
 O27 O -0.00270 -0.13023 -0.06875
 O28 O 0.00138 -0.06882 0.13018
 O29 O -0.00268 -0.06845 -0.13062
 O30 O 0.12977 -0.00203 0.06823
 O31 O -0.13073 0.00185 0.06804
 O32 O -0.13084 -0.00202 -0.06914
 O33 O 0.12969 0.00173 -0.06884
 O34 O 0.06789 -0.13033 0.00178
 O35 O -0.06928 -0.13042 -0.00210
 Zr36 Zr 0.08848 -0.00004 -0.00033
 Zr37 Zr -0.08962 -0.00013 -0.00048
 Zr38 Zr -0.00044 -0.00019 0.08878
 Zr39 Zr -0.00063 0.00008 -0.08952
 Zr40 Zr -0.00066 -0.08917 -0.00019
 O41 O -0.04654 -0.04599 -0.04639
 O42 O 0.04546 -0.04608 0.04571
 C43 C 0.11481 -0.11546 0.00275
 C44 C -0.11633 -0.11578 -0.00312
 C45 C 0.11502 -0.00312 0.11516
 C46 C 0.11486 0.00269 -0.11584
 C47 C -0.11622 -0.00291 -0.11617
 C48 C -0.11582 0.00285 0.11501
 C49 C 0.00223 -0.11589 0.11560
 C50 C -0.00372 -0.11535 -0.11570
 H51 H -0.06801 -0.06760 0.06718
 O52 O -0.04640 -0.04596 0.04554
 H53 H 0.06671 -0.06748 -0.06770
 O54 O 0.04509 -0.04585 -0.04608
 O55 O 0.36982 0.56899 0.00210
 O56 O 0.63045 0.56920 -0.00133
 O57 O 0.49833 0.63083 0.06914
 O58 O 0.50205 0.63070 -0.06806
 O59 O 0.50189 0.56894 -0.12983
 O60 O 0.49840 0.56912 0.13087
 O61 O 0.56868 0.63094 -0.00132
 O62 O 0.43157 0.63077 0.00228
 Zr63 Zr 0.50012 0.58961 0.00052
 O64 O 0.54590 0.54646 -0.04550
 O65 O 0.45413 0.54646 0.04634
 C66 C 0.38465 0.61590 0.00316
 C67 C 0.61565 0.61616 -0.00229
 C68 C 0.49745 0.61618 0.11623
 C69 C 0.50303 0.61581 -0.11496
 H70 H 0.56768 0.56802 0.06807
 O71 O 0.54602 0.54639 0.04640
 H72 H 0.43256 0.56799 -0.06716
 O73 O 0.45423 0.54635 -0.04546
 O74 O 0.63030 0.43203 0.00253
 O75 O 0.36969 0.43196 -0.00164
 O76 O 0.56883 0.49860 0.13088
 O77 O 0.56838 0.50237 -0.12992
 O78 O 0.43120 0.49879 -0.13013
 O79 O 0.43166 0.50243 0.13069
 O80 O 0.50203 0.37030 0.06894
 O81 O 0.49813 0.37019 -0.06814
 O82 O 0.50217 0.43199 0.13077
 O83 O 0.49800 0.43192 -0.13000
 O84 O 0.63043 0.49862 0.06921
 O85 O 0.36984 0.50236 0.06877
 O86 O 0.36960 0.49880 -0.06848
 O87 O 0.63025 0.50249 -0.06806
 O88 O 0.56849 0.37031 0.00244
 O89 O 0.43146 0.37022 -0.00149
 Zr90 Zr 0.58916 0.50060 0.00054
 Zr91 Zr 0.41096 0.50049 0.00023
 Zr92 Zr 0.50019 0.50057 0.08957
 Zr93 Zr 0.49987 0.50046 -0.08872
 Zr94 Zr 0.49999 0.41149 0.00039
 O95 O 0.45391 0.45449 -0.04572
 O96 O 0.54603 0.45462 0.04644
 C97 C 0.61541 0.38513 0.00349
 C98 C 0.38452 0.38502 -0.00253
 C99 C 0.61585 0.49763 0.11626
 C100 C 0.61534 0.50339 -0.11505
 C101 C 0.38415 0.49791 -0.11556
 C102 C 0.38471 0.50336 0.11576
 C103 C 0.50312 0.38509 0.11588
 C104 C 0.49712 0.38498 -0.11513
 H105 H 0.43268 0.43309 0.06783
 O106 O 0.45430 0.45475 0.04620
 H107 H 0.56741 0.43311 -0.06698
 O108 O 0.54581 0.45475 -0.04535
 O109 O -0.13051 0.56882 0.50169
 O110 O 0.13006 0.56859 0.49829
 O111 O -0.00214 0.63032 0.56839
 O112 O 0.00152 0.63060 0.43117
 O113 O 0.00149 0.56887 0.36941
 O114 O -0.00200 0.56855 0.63027
 O115 O 0.06832 0.63038 0.49804
 O116 O -0.06884 0.63050 0.50165
 Zr117 Zr -0.00024 0.58923 0.49985
 O118 O 0.04575 0.54610 0.45406
 O119 O -0.04602 0.54605 0.54593
 C120 C -0.11589 0.61588 0.50259
 C121 C 0.11523 0.61551 0.49718
 C122 C -0.00310 0.61545 0.61534
 C123 C 0.00241 0.61584 0.38417
 H124 H 0.06729 0.56755 0.56754
 O125 O 0.04563 0.54591 0.54588
 H126 H -0.06778 0.56768 0.43231
 O127 O -0.04611 0.54602 0.45399
 O128 O 0.13019 0.43155 0.50212
 O129 O -0.13040 0.43165 0.49795
 O130 O 0.06865 0.49830 0.63066
 O131 O 0.06829 0.50215 0.36975
 O132 O -0.06892 0.49828 0.36951
 O133 O -0.06854 0.50191 0.63038
 O134 O 0.00170 0.36966 0.56875
 O135 O -0.00209 0.36990 0.43152
 O136 O 0.00180 0.43135 0.63057
 O137 O -0.00219 0.43167 0.36966
 O138 O 0.13032 0.49836 0.56893
 O139 O -0.13037 0.50208 0.56848
 O140 O -0.13058 0.49829 0.43127
 O141 O 0.13007 0.50203 0.43170
 O142 O 0.06844 0.36979 0.50203
 O143 O -0.06862 0.36991 0.49806
 Zr144 Zr 0.08892 0.50009 0.50022
 Zr145 Zr -0.08925 0.50021 0.49991
 Zr146 Zr -0.00001 0.50000 0.58923
 Zr147 Zr -0.00027 0.50024 0.41081
 Zr148 Zr -0.00010 0.41105 0.50012
 O149 O -0.04611 0.45426 0.45403
 O150 O 0.04595 0.45405 0.54622
 C151 C 0.11538 0.38460 0.50303
 C152 C -0.11553 0.38474 0.49699
 C153 C 0.11560 0.49745 0.61591
 C154 C 0.11523 0.50308 0.38470
 C155 C -0.11584 0.49731 0.38431
 C156 C -0.11549 0.50297 0.61548
 C157 C 0.00265 0.38439 0.61576
 C158 C -0.00313 0.38474 0.38454
 H159 H -0.06754 0.43266 0.56747
 O160 O -0.04592 0.45431 0.54584
 H161 H 0.06721 0.43274 0.43266
 O162 O 0.04559 0.45438 0.45427
 O163 O 0.37010 0.06809 0.50173
 O164 O 0.63067 0.06804 0.49820
 O165 O 0.49864 0.12988 0.56858
 O166 O 0.50225 0.12979 0.43151
 O167 O 0.50220 0.06809 0.36969
 O168 O 0.49870 0.06814 0.63043
 O169 O 0.56887 0.12977 0.49812
 O170 O 0.43185 0.12985 0.50178
 Zr171 Zr 0.50038 0.08859 0.50005
 O172 O 0.54628 0.04545 0.45413
 O173 O 0.45444 0.04556 0.54602
 C174 C 0.38491 0.11503 0.50270
 C175 C 0.61579 0.11495 0.49715
 C176 C 0.49772 0.11508 0.61556
 C177 C 0.50322 0.11499 0.38458
 H178 H 0.56797 0.06699 0.56758
 O179 O 0.54633 0.04534 0.54590
 H180 H 0.43289 0.06700 0.43243
 O181 O 0.45457 0.04535 0.45411
 O182 O 0.63087 -0.06910 0.50201
 O183 O 0.37024 -0.06894 0.49801
 O184 O 0.56907 -0.00233 0.63048
 O185 O 0.56876 0.00155 0.36972
 O186 O 0.43176 -0.00239 0.36963
 O187 O 0.43196 0.00133 0.63037
 O188 O 0.50260 -0.13064 0.56852
 O189 O 0.49857 -0.13083 0.43132
 O190 O 0.50258 -0.06887 0.63028
 O191 O 0.49846 -0.06902 0.36953
 O192 O 0.63078 -0.00244 0.56877
 O193 O 0.37017 0.00131 0.56846
 O194 O 0.37011 -0.00236 0.43139
 O195 O 0.63063 0.00153 0.43157
 O196 O 0.56913 -0.13087 0.50189
 O197 O 0.43198 -0.13073 0.49801
 Zr198 Zr 0.58954 -0.00052 0.50012
 Zr199 Zr 0.41139 -0.00044 0.49996
 Zr200 Zr 0.50050 -0.00039 0.58915
 Zr201 Zr 0.50033 -0.00049 0.41088
 Zr202 Zr 0.50054 -0.08957 0.49993
 O203 O 0.45443 -0.04642 0.45399
 O204 O 0.54643 -0.04641 0.54605
 C205 C 0.61609 -0.11607 0.50291
 C206 C 0.38507 -0.11586 0.49702
 C207 C 0.61598 -0.00338 0.61570
 C208 C 0.61570 0.00257 0.38461
 C209 C 0.38488 -0.00338 0.38446
 C210 C 0.38500 0.00224 0.61546
 C211 C 0.50364 -0.11574 0.61543
 C212 C 0.49755 -0.11599 0.38433
 H213 H 0.43314 -0.06793 0.56742
 O214 O 0.45476 -0.04629 0.54577
 H215 H 0.56790 -0.06793 0.43253
 O216 O 0.54629 -0.04631 0.45416
 C217 C 0.22999 0.23044 -0.00568
 C218 C 0.17872 0.24469 -0.00599
 C219 C 0.14127 0.20697 -0.00550
 C220 C 0.15475 0.15520 -0.00458
 C221 C 0.20652 0.14172 -0.00465
 C222 C 0.24424 0.17918 -0.00513
 C223 C 0.26953 0.26999 -0.00558
 C224 C 0.32080 0.25575 -0.00494
 C225 C 0.35824 0.29347 -0.00429
 C226 C 0.34475 0.34524 -0.00413
 C227 C 0.29299 0.35871 -0.00513
 C228 C 0.25528 0.32126 -0.00580
 C229 C 0.29596 0.16640 -0.00480
 C230 C 0.33359 0.20403 -0.00471
 C231 C 0.16593 0.29640 -0.00650
 C232 C 0.20356 0.33404 -0.00641
 H233 H 0.30745 0.12696 -0.00443
 H234 H 0.37302 0.19254 -0.00427
 H235 H 0.12650 0.30789 -0.00680
 H236 H 0.19207 0.37347 -0.00664
 H237 H 0.10170 0.21803 -0.00557
 H238 H 0.21759 0.10216 -0.00405
 H239 H 0.39781 0.28241 -0.00363
 H240 H 0.28192 0.39828 -0.00515
 C241 C 0.23034 -0.26988 0.49408
 C242 C 0.17911 -0.25549 0.49413
 C243 C 0.14160 -0.29309 0.49479
 C244 C 0.15500 -0.34485 0.49553
 C245 C 0.20671 -0.35849 0.49508
 C246 C 0.24449 -0.32117 0.49443
 C247 C 0.26995 -0.23048 0.49405
 C248 C 0.32118 -0.24487 0.49436
 C249 C 0.35870 -0.20726 0.49496
 C250 C 0.34529 -0.15550 0.49538
 C251 C 0.29359 -0.14186 0.49465
 C252 C 0.25580 -0.17918 0.49406
 C253 C 0.29616 -0.33412 0.49441
 C254 C 0.33387 -0.29660 0.49438
 C255 C 0.16642 -0.20376 0.49381
 C256 C 0.20414 -0.16624 0.49377
 H257 H 0.30754 -0.37358 0.49461
 H258 H 0.37328 -0.30818 0.49456
 H259 H 0.12702 -0.19218 0.49377
 H260 H 0.19275 -0.12677 0.49371
 H261 H 0.10205 -0.28194 0.49500
 H262 H 0.21769 -0.39809 0.49552
 H263 H 0.39824 -0.21841 0.49540
 H264 H 0.28261 -0.10226 0.49484
 C265 C 0.77035 0.77090 -0.00553
 C266 C 0.75613 0.82215 -0.00563
 C267 C 0.79384 0.85966 -0.00519
 C268 C 0.84583 0.84639 -0.00450
 C269 C 0.85910 0.79440 -0.00482
 C270 C 0.82160 0.75668 -0.00525
 C271 C 0.73077 0.73131 -0.00538
 C272 C 0.74500 0.68004 -0.00497
 C273 C 0.70726 0.64256 -0.00428
 C274 C 0.65546 0.65599 -0.00388
 C275 C 0.64202 0.70779 -0.00465
 C276 C 0.67949 0.74553 -0.00534
 C277 C 0.83435 0.70494 -0.00514
 C278 C 0.79672 0.66729 -0.00499
 C279 C 0.70439 0.83490 -0.00588
 C280 C 0.66674 0.79726 -0.00574
 H281 H 0.87378 0.69343 -0.00498
 H282 H 0.80823 0.62786 -0.00473
 H283 H 0.69287 0.87432 -0.00602
 H284 H 0.62731 0.80876 -0.00578
 H285 H 0.78243 0.89914 -0.00511
 H286 H 0.89858 0.78297 -0.00445
 H287 H 0.71834 0.60299 -0.00380
 H288 H 0.60245 0.71885 -0.00447
 C289 C 0.76983 0.26964 0.49393
 C290 C 0.75545 0.32088 0.49386
 C291 C 0.79306 0.35839 0.49448
 C292 C 0.84482 0.34498 0.49530
 C293 C 0.85845 0.29326 0.49496
 C294 C 0.82112 0.25549 0.49435
 C295 C 0.73042 0.23005 0.49397
 C296 C 0.74480 0.17881 0.49442
 C297 C 0.70719 0.14131 0.49510
 C298 C 0.65543 0.15472 0.49546
 C299 C 0.64179 0.20643 0.49460
 C300 C 0.67913 0.24420 0.49392
 C301 C 0.83405 0.20382 0.49446
 C302 C 0.79652 0.16611 0.49449
 C303 C 0.70372 0.33358 0.49347
 C304 C 0.66619 0.29587 0.49351
 H305 H 0.87351 0.19242 0.49471
 H306 H 0.80810 0.12670 0.49477
 H307 H 0.69215 0.37299 0.49334
 H308 H 0.62673 0.30727 0.49340
 H309 H 0.78192 0.39794 0.49460
 H310 H 0.89804 0.28227 0.49547
 H311 H 0.71833 0.10176 0.49563
 H312 H 0.60220 0.21741 0.49473
 C313 C 0.76946 0.23041 0.00596
 C314 C 0.75508 0.17918 0.00550
 C315 C 0.79269 0.14167 0.00469
 C316 C 0.84445 0.15509 0.00420
 C317 C 0.85808 0.20680 0.00504
 C318 C 0.82075 0.24457 0.00586
 C319 C 0.73005 0.27001 0.00617
 C320 C 0.74443 0.32124 0.00625
 C321 C 0.70682 0.35875 0.00579
 C322 C 0.65505 0.34535 0.00510
 C323 C 0.64142 0.29363 0.00544
 C324 C 0.67876 0.25585 0.00590
 C325 C 0.83368 0.29623 0.00629
 C326 C 0.79615 0.33394 0.00648
 C327 C 0.70335 0.16648 0.00558
 C328 C 0.66582 0.20418 0.00578
 H329 H 0.87314 0.30763 0.00629
 H330 H 0.80773 0.37335 0.00662
 H331 H 0.69178 0.12707 0.00530
 H332 H 0.62636 0.19279 0.00563
 H333 H 0.78155 0.10212 0.00417
 H334 H 0.89767 0.21778 0.00481
 H335 H 0.71796 0.39830 0.00566
 H336 H 0.60183 0.28265 0.00503
 C337 C 0.77081 -0.27080 0.50547
 C338 C 0.75659 -0.32205 0.50527
 C339 C 0.79430 -0.35956 0.50464
 C340 C 0.84629 -0.34629 0.50406
 C341 C 0.85956 -0.29430 0.50466
 C342 C 0.82206 -0.25659 0.50529
 C343 C 0.73123 -0.23122 0.50555
 C344 C 0.74546 -0.17995 0.50543
 C345 C 0.70772 -0.14246 0.50493
 C346 C 0.65592 -0.15590 0.50442
 C347 C 0.64248 -0.20769 0.50491
 C348 C 0.67996 -0.24544 0.50541
 C349 C 0.83482 -0.20485 0.50548
 C350 C 0.79718 -0.16720 0.50555
 C351 C 0.70485 -0.33480 0.50544
 C352 C 0.66720 -0.29717 0.50550
 H353 H 0.87425 -0.19334 0.50541
 H354 H 0.80869 -0.12777 0.50553
 H355 H 0.69334 -0.37423 0.50535
 H356 H 0.62777 -0.30867 0.50546
 H357 H 0.78287 -0.39904 0.50435
 H358 H 0.89904 -0.28289 0.50438
 H359 H 0.71879 -0.10289 0.50467
 H360 H 0.60291 -0.21876 0.50463
 C361 C 0.23038 0.26958 0.50571
 C362 C 0.24463 0.32085 0.50564
 C363 C 0.20691 0.35830 0.50513
 C364 C 0.15515 0.34483 0.50456
 C365 C 0.14166 0.29306 0.50500
 C366 C 0.17911 0.25533 0.50551
 C367 C 0.26992 0.23003 0.50563
 C368 C 0.25566 0.17877 0.50537
 C369 C 0.29338 0.14131 0.50474
 C370 C 0.34514 0.15479 0.50425
 C371 C 0.35863 0.20656 0.50487
 C372 C 0.32118 0.24428 0.50550
 C373 C 0.16632 0.20362 0.50555
 C374 C 0.20395 0.16599 0.50548
 C375 C 0.29635 0.33363 0.50580
 C376 C 0.33397 0.29599 0.50574
 H377 H 0.12689 0.19213 0.50546
 H378 H 0.19245 0.12655 0.50534
 H379 H 0.30784 0.37306 0.50581
 H380 H 0.37341 0.30748 0.50570
 H381 H 0.21798 0.39787 0.50490
 H382 H 0.10209 0.28200 0.50467
 H383 H 0.28231 0.10175 0.50438
 H384 H 0.39820 0.21762 0.50461
 C385 C 0.22993 0.76992 0.00597
 C386 C 0.24407 0.82121 0.00603
 C387 C 0.20629 0.85854 0.00534
 C388 C 0.15458 0.84490 0.00446
 C389 C 0.14118 0.79313 0.00481
 C390 C 0.17870 0.75553 0.00549
 C391 C 0.26953 0.73052 0.00602
 C392 C 0.25539 0.67923 0.00560
 C393 C 0.29317 0.64191 0.00503
 C394 C 0.34488 0.65555 0.00475
 C395 C 0.35829 0.70731 0.00557
 C396 C 0.32077 0.74491 0.00614
 C397 C 0.16601 0.70380 0.00540
 C398 C 0.20372 0.66628 0.00545
 C399 C 0.29574 0.83416 0.00647
 C400 C 0.33345 0.79664 0.00653
 H401 H 0.12660 0.69222 0.00510
 H402 H 0.19234 0.62681 0.00519
 H403 H 0.30712 0.87362 0.00659
 H404 H 0.37286 0.80822 0.00669
 H405 H 0.21726 0.89813 0.00521
 H406 H 0.10163 0.78198 0.00425
 H407 H 0.28219 0.60231 0.00452
 H408 H 0.39783 0.71845 0.00548
 C409 C -0.00615 0.23025 0.23006
 C410 C -0.00587 0.17898 0.24436
 C411 C -0.00528 0.14154 0.20665
 C412 C -0.00484 0.15504 0.15485
 C413 C -0.00550 0.20680 0.14131
 C414 C -0.00609 0.24451 0.17874
 C415 C -0.00614 0.26978 0.26958
 C416 C -0.00606 0.32104 0.25528
 C417 C -0.00544 0.35848 0.29299
 C418 C -0.00477 0.34499 0.34479
 C419 C -0.00523 0.29323 0.35834
 C420 C -0.00585 0.25552 0.32090
 C421 C -0.00634 0.29622 0.16590
 C422 C -0.00632 0.33384 0.20352
 C423 C -0.00590 0.16618 0.29612
 C424 C -0.00589 0.20381 0.33374
 H425 H -0.00636 0.30771 0.12643
 H426 H -0.00633 0.37328 0.19199
 H427 H -0.00576 0.12675 0.30765
 H428 H -0.00573 0.19232 0.37321
 H429 H -0.00490 0.10197 0.21775
 H430 H -0.00529 0.21787 0.10170
 H431 H -0.00521 0.39806 0.28188
 H432 H -0.00483 0.28216 0.39794
 C433 C 0.49459 0.26981 0.76996
 C434 C 0.49439 0.32107 0.75561
 C435 C 0.49485 0.35857 0.79329
 C436 C 0.49564 0.34516 0.84512
 C437 C 0.49547 0.29339 0.85870
 C438 C 0.49501 0.25563 0.82130
 C439 C 0.49471 0.23022 0.73047
 C440 C 0.49524 0.17897 0.74482
 C441 C 0.49590 0.14147 0.70714
 C442 C 0.49616 0.15489 0.65531
 C443 C 0.49528 0.20665 0.64173
 C444 C 0.49461 0.24441 0.67914
 C445 C 0.49525 0.20392 0.83419
 C446 C 0.49536 0.16624 0.79660
 C447 C 0.49400 0.33379 0.70383
 C448 C 0.49411 0.29611 0.66625
 H449 H 0.49552 0.19247 0.87367
 H450 H 0.49571 0.12683 0.80818
 H451 H 0.49378 0.37321 0.69225
 H452 H 0.49397 0.30756 0.62676
 H453 H 0.49486 0.39813 0.78214
 H454 H 0.49598 0.28237 0.89832
 H455 H 0.49647 0.10191 0.71829
 H456 H 0.49535 0.21767 0.60211
 C457 C -0.00671 0.76980 0.76955
 C458 C -0.00691 0.82105 0.75519
 C459 C -0.00634 0.85848 0.79286
 C460 C -0.00543 0.84496 0.84463
 C461 C -0.00566 0.79324 0.85824
 C462 C -0.00623 0.75554 0.82086
 C463 C -0.00658 0.73029 0.73008
 C464 C -0.00599 0.67904 0.74443
 C465 C -0.00521 0.64162 0.70677
 C466 C -0.00489 0.65514 0.65500
 C467 C -0.00590 0.70685 0.64138
 C468 C -0.00668 0.74454 0.67877
 C469 C -0.00599 0.70385 0.83376
 C470 C -0.00587 0.66623 0.79617
 C471 C -0.00736 0.83386 0.70345
 C472 C -0.00724 0.79623 0.66586
 H473 H -0.00568 0.69239 0.87324
 H474 H -0.00548 0.62680 0.80771
 H475 H -0.00759 0.87329 0.69191
 H476 H -0.00740 0.80769 0.62638
 H477 H -0.00631 0.89805 0.78174
 H478 H -0.00509 0.78219 0.89785
 H479 H -0.00457 0.60206 0.71790
 H480 H -0.00580 0.71790 0.60177
 C481 C 0.49475 -0.27059 0.22956
 C482 C 0.49497 -0.32185 0.24381
 C483 C 0.49554 -0.35933 0.20608
 C484 C 0.49602 -0.34602 0.15406
 C485 C 0.49540 -0.29403 0.14076
 C486 C 0.49483 -0.25634 0.17828
 C487 C 0.49475 -0.23104 0.26915
 C488 C 0.49483 -0.17976 0.25490
 C489 C 0.49540 -0.14230 0.29266
 C490 C 0.49600 -0.15578 0.34449
 C491 C 0.49554 -0.20758 0.35796
 C492 C 0.49498 -0.24530 0.32047
 C493 C 0.49462 -0.20460 0.16549
 C494 C 0.49462 -0.16697 0.20314
 C495 C 0.49490 -0.33464 0.29559
 C496 C 0.49491 -0.29703 0.33325
 H497 H 0.49462 -0.19307 0.12603
 H498 H 0.49462 -0.12753 0.19162
 H499 H 0.49502 -0.37408 0.30711
 H500 H 0.49502 -0.30855 0.37271
 H501 H 0.49586 -0.39882 0.21752
 H502 H 0.49561 -0.28259 0.10125
 H503 H 0.49563 -0.10273 0.28157
 H504 H 0.49589 -0.21868 0.39756
 C505 C 0.00492 0.77070 0.22915
 C506 C 0.00467 0.75650 0.17787
 C507 C 0.00410 0.79424 0.14029
 C508 C 0.00365 0.84624 0.15352
 C509 C 0.00428 0.85948 0.20555
 C510 C 0.00484 0.82195 0.24333
 C511 C 0.00495 0.73109 0.26880
 C512 C 0.00490 0.74529 0.32011
 C513 C 0.00440 0.70752 0.35766
 C514 C 0.00384 0.65571 0.34426
 C515 C 0.00423 0.64231 0.29242
 C516 C 0.00473 0.67982 0.25461
 C517 C 0.00508 0.83468 0.29511
 C518 C 0.00511 0.79702 0.33282
 C519 C 0.00473 0.70476 0.16516
 C520 C 0.00476 0.66709 0.20285
 H521 H 0.00508 0.87410 0.30661
 H522 H 0.00513 0.80852 0.37227
 H523 H 0.00459 0.69325 0.12571
 H524 H 0.00464 0.62766 0.19136
 H525 H 0.00377 0.78282 0.10079
 H526 H 0.00409 0.89896 0.21695
 H527 H 0.00421 0.71859 0.39724
 H528 H 0.00390 0.60275 0.28136
 C529 C 0.50664 -0.26967 0.77003
 C530 C 0.50606 -0.32094 0.75584
 C531 C 0.50525 -0.35826 0.79361
 C532 C 0.50487 -0.34461 0.84532
 C533 C 0.50588 -0.29290 0.85879
 C534 C 0.50670 -0.25530 0.82129
 C535 C 0.50677 -0.23028 0.73044
 C536 C 0.50694 -0.17901 0.74463
 C537 C 0.50633 -0.14168 0.70685
 C538 C 0.50541 -0.15533 0.65515
 C539 C 0.50570 -0.20705 0.64169
 C540 C 0.50630 -0.24465 0.67919
 C541 C 0.50724 -0.20361 0.83403
 C542 C 0.50736 -0.16607 0.79631
 C543 C 0.50598 -0.33388 0.70416
 C544 C 0.50610 -0.29635 0.66644
 H545 H 0.50737 -0.19207 0.87347
 H546 H 0.50757 -0.12661 0.80770
 H547 H 0.50561 -0.37334 0.69277
 H548 H 0.50581 -0.30788 0.62700
 H549 H 0.50462 -0.39784 0.78263
 H550 H 0.50574 -0.28179 0.89837
 H551 H 0.50627 -0.10210 0.71784
 H552 H 0.50512 -0.21816 0.60211
 C553 C 0.50629 0.26986 0.23052
 C554 C 0.50584 0.25577 0.17919
 C555 C 0.50519 0.29359 0.14186
 C556 C 0.50484 0.34529 0.15553
 C557 C 0.50571 0.35863 0.20733
 C558 C 0.50637 0.32107 0.24494
 C559 C 0.50630 0.23021 0.26993
 C560 C 0.50638 0.24430 0.32126
 C561 C 0.50574 0.20648 0.35859
 C562 C 0.50488 0.15479 0.34492
 C563 C 0.50521 0.14144 0.29312
 C564 C 0.50585 0.17900 0.25551
 C565 C 0.50679 0.33370 0.29671
 C566 C 0.50680 0.29595 0.33424
 C567 C 0.50574 0.20412 0.16621
 C568 C 0.50574 0.16636 0.20374
 H569 H 0.50692 0.37310 0.30831
 H570 H 0.50694 0.30729 0.37374
 H571 H 0.50545 0.19278 0.12671
 H572 H 0.50546 0.12697 0.19214
 H573 H 0.50465 0.28266 0.10223
 H574 H 0.50558 0.39817 0.21849
 H575 H 0.50564 0.21741 0.39822
 H576 H 0.50468 0.10191 0.28196
 C577 C 0.00486 0.22933 0.77047
 C578 C 0.00458 0.17810 0.75619
 C579 C 0.00394 0.14051 0.79389
 C580 C 0.00345 0.15368 0.84594
 C581 C 0.00410 0.20565 0.85926
 C582 C 0.00474 0.24344 0.82177
 C583 C 0.00499 0.26899 0.73090
 C584 C 0.00498 0.32024 0.74519
 C585 C 0.00456 0.35781 0.70745
 C586 C 0.00404 0.34448 0.65560
 C587 C 0.00440 0.29270 0.64210
 C588 C 0.00482 0.25487 0.67957
 C589 C 0.00502 0.29516 0.83458
 C590 C 0.00514 0.33289 0.79696
 C591 C 0.00469 0.16545 0.70439
 C592 C 0.00480 0.20317 0.66676
 H593 H 0.00499 0.30659 0.87405
 H594 H 0.00519 0.37230 0.80852
 H595 H 0.00453 0.12605 0.69283
 H596 H 0.00473 0.19174 0.62729
 H597 H 0.00359 0.10105 0.78243
 H598 H 0.00389 0.21701 0.89878
 H599 H 0.00439 0.39736 0.71857
 H600 H 0.00410 0.28170 0.60250
 C601 C 0.23015 -0.00636 0.23005
 C602 C 0.24429 -0.00600 0.17875
 C603 C 0.20650 -0.00531 0.14133
 C604 C 0.15481 -0.00485 0.15488
 C605 C 0.14141 -0.00562 0.20664
 C606 C 0.17893 -0.00631 0.24435
 C607 C 0.26976 -0.00640 0.26956
 C608 C 0.25562 -0.00639 0.32086
 C609 C 0.29341 -0.00577 0.35829
 C610 C 0.34510 -0.00504 0.34474
 C611 C 0.35849 -0.00547 0.29298
 C612 C 0.32098 -0.00608 0.25527
 C613 C 0.16625 -0.00664 0.29608
 C614 C 0.20396 -0.00668 0.33371
 C615 C 0.29595 -0.00602 0.16591
 C616 C 0.33366 -0.00606 0.20354
 H617 H 0.12684 -0.00667 0.30758
 H618 H 0.19259 -0.00674 0.37318
 H619 H 0.30732 -0.00581 0.12644
 H620 H 0.37307 -0.00588 0.19204
 H621 H 0.21746 -0.00485 0.10173
 H622 H 0.10187 -0.00540 0.21772
 H623 H 0.28244 -0.00558 0.39789
 H624 H 0.39803 -0.00503 0.28190
 C625 C 0.27063 0.49520 0.77092
 C626 C 0.25650 0.49538 0.82219
 C627 C 0.29428 0.49598 0.85976
 C628 C 0.34625 0.49653 0.84653
 C629 C 0.35943 0.49598 0.79451
 C630 C 0.32185 0.49538 0.75673
 C631 C 0.23097 0.49510 0.73127
 C632 C 0.24510 0.49521 0.67997
 C633 C 0.20729 0.49564 0.64242
 C634 C 0.15551 0.49608 0.65582
 C635 C 0.14217 0.49564 0.70765
 C636 C 0.17972 0.49520 0.74546
 C637 C 0.33451 0.49521 0.70497
 C638 C 0.29681 0.49513 0.66725
 C639 C 0.20478 0.49520 0.83491
 C640 C 0.16706 0.49511 0.79721
 H641 H 0.37392 0.49530 0.69348
 H642 H 0.30825 0.49515 0.62781
 H643 H 0.19333 0.49528 0.87435
 H644 H 0.12765 0.49513 0.80870
 H645 H 0.28292 0.49624 0.89926
 H646 H 0.39890 0.49626 0.78312
 H647 H 0.21830 0.49588 0.60284
 H648 H 0.10262 0.49587 0.71870
 C649 C 0.77056 -0.00613 0.77048
 C650 C 0.75636 -0.00604 0.82173
 C651 C 0.79407 -0.00532 0.85927
 C652 C 0.84599 -0.00452 0.84600
 C653 C 0.85928 -0.00505 0.79404
 C654 C 0.82178 -0.00577 0.75629
 C655 C 0.73100 -0.00622 0.73087
 C656 C 0.74521 -0.00595 0.67959
 C657 C 0.70747 -0.00540 0.64208
 C658 C 0.65574 -0.00499 0.65552
 C659 C 0.64228 -0.00567 0.70728
 C660 C 0.67975 -0.00622 0.74506
 C661 C 0.83454 -0.00584 0.70456
 C662 C 0.79689 -0.00593 0.66685
 C663 C 0.70466 -0.00638 0.83447
 C664 C 0.66700 -0.00647 0.79678
 H665 H 0.87396 -0.00564 0.69312
 H666 H 0.80834 -0.00578 0.62741
 H667 H 0.69321 -0.00639 0.87392
 H668 H 0.62758 -0.00654 0.80822
 H669 H 0.78269 -0.00510 0.89877
 H670 H 0.89875 -0.00463 0.78267
 H671 H 0.71850 -0.00500 0.60250
 H672 H 0.60272 -0.00549 0.71829
 C673 C -0.27073 0.49455 0.22959
 C674 C -0.25660 0.49474 0.17832
 C675 C -0.29437 0.49541 0.14080
 C676 C -0.34630 0.49605 0.15410
 C677 C -0.35950 0.49543 0.20609
 C678 C -0.32194 0.49477 0.24382
 C679 C -0.23109 0.49449 0.26918
 C680 C -0.24523 0.49464 0.32048
 C681 C -0.20742 0.49519 0.35797
 C682 C -0.15569 0.49572 0.34449
 C683 C -0.14232 0.49517 0.29270
 C684 C -0.17986 0.49462 0.25494
 C685 C -0.33461 0.49459 0.29558
 C686 C -0.29691 0.49454 0.33325
 C687 C -0.20490 0.49454 0.16554
 C688 C -0.16719 0.49448 0.20320
 H689 H -0.37402 0.49469 0.30708
 H690 H -0.30832 0.49459 0.37271
 H691 H -0.19349 0.49462 0.12609
 H692 H -0.12778 0.49452 0.19171
 H693 H -0.28303 0.49571 0.10130
 H694 H -0.39896 0.49575 0.21750
 H695 H -0.21841 0.49549 0.39756
 H696 H -0.10277 0.49545 0.28163
 C697 C 0.23012 0.00519 0.76951
 C698 C 0.24426 0.00489 0.82087
 C699 C 0.20645 0.00442 0.85818
 C700 C 0.15470 0.00413 0.84448
 C701 C 0.14133 0.00478 0.79262
 C702 C 0.17887 0.00526 0.75503
 C703 C 0.26976 0.00511 0.73011
 C704 C 0.25561 0.00510 0.67875
 C705 C 0.29342 0.00448 0.64144
 C706 C 0.34517 0.00375 0.65514
 C707 C 0.35854 0.00411 0.70700
 C708 C 0.32100 0.00472 0.74459
 C709 C 0.16620 0.00554 0.70321
 C710 C 0.20392 0.00546 0.66573
 C711 C 0.29595 0.00479 0.83389
 C712 C 0.33367 0.00471 0.79640
 H713 H 0.12680 0.00565 0.69153
 H714 H 0.19251 0.00551 0.62621
 H715 H 0.30736 0.00461 0.87341
 H716 H 0.37308 0.00447 0.80809
 H717 H 0.21746 0.00402 0.89782
 H718 H 0.10177 0.00467 0.78138
 H719 H 0.28241 0.00433 0.60179
 H720 H 0.39809 0.00365 0.71824
 C721 C 0.26974 0.50620 0.23051
 C722 C 0.25550 0.50592 0.17917
 C723 C 0.29321 0.50536 0.14181
 C724 C 0.34497 0.50494 0.15545
 C725 C 0.35846 0.50561 0.20727
 C726 C 0.32101 0.50617 0.24491
 C727 C 0.23021 0.50615 0.26996
 C728 C 0.24445 0.50607 0.32130
 C729 C 0.20673 0.50542 0.35867
 C730 C 0.15498 0.50472 0.34502
 C731 C 0.14149 0.50518 0.29319
 C732 C 0.17894 0.50583 0.25556
 C733 C 0.33379 0.50641 0.29669
 C734 C 0.29615 0.50637 0.33424
 C735 C 0.20379 0.50592 0.16623
 C736 C 0.16616 0.50587 0.20378
 H737 H 0.37322 0.50646 0.30830
 H738 H 0.30764 0.50638 0.37374
 H739 H 0.19231 0.50577 0.12673
 H740 H 0.12673 0.50569 0.19217
 H741 H 0.28215 0.50497 0.10219
 H742 H 0.39803 0.50541 0.21845
 H743 H 0.21779 0.50520 0.39829
 H744 H 0.10193 0.50475 0.28202
 C745 C 0.76963 0.00586 0.23002
 C746 C 0.75521 0.00571 0.17873
 C747 C 0.79279 0.00511 0.14125
 C748 C 0.84457 0.00452 0.15475
 C749 C 0.85824 0.00508 0.20652
 C750 C 0.82093 0.00568 0.24427
 C751 C 0.73024 0.00581 0.26959
 C752 C 0.74467 0.00558 0.32088
 C753 C 0.70709 0.00490 0.35836
 C754 C 0.65531 0.00431 0.34486
 C755 C 0.64164 0.00494 0.29309
 C756 C 0.67894 0.00563 0.25534
 C757 C 0.83391 0.00579 0.29600
 C758 C 0.79641 0.00574 0.33367
 C759 C 0.70347 0.00586 0.16594
 C760 C 0.66597 0.00582 0.20361
 H761 H 0.87338 0.00571 0.30747
 H762 H 0.80802 0.00563 0.37313
 H763 H 0.69186 0.00581 0.12648
 H764 H 0.62650 0.00574 0.19214
 H765 H 0.78161 0.00481 0.10165
 H766 H 0.89784 0.00475 0.21758
 H767 H 0.71827 0.00454 0.39795
 H768 H 0.60204 0.00462 0.28203
 C769 C -0.26982 0.50613 0.76997
 C770 C -0.25550 0.50578 0.82129
 C771 C -0.29316 0.50526 0.85873
 C772 C -0.34495 0.50495 0.84519
 C773 C -0.35851 0.50568 0.79337
 C774 C -0.32111 0.50621 0.75566
 C775 C -0.23034 0.50605 0.73044
 C776 C -0.24466 0.50607 0.67912
 C777 C -0.20699 0.50540 0.64168
 C778 C -0.15521 0.50460 0.65523
 C779 C -0.14165 0.50497 0.70705
 C780 C -0.17905 0.50563 0.74475
 C781 C -0.33397 0.50654 0.70389
 C782 C -0.29639 0.50647 0.66627
 C783 C -0.20376 0.50567 0.83414
 C784 C -0.16619 0.50559 0.79652
 H785 H -0.37342 0.50667 0.69235
 H786 H -0.30794 0.50655 0.62680
 H787 H -0.19222 0.50545 0.87361
 H788 H -0.12674 0.50533 0.80806
 H789 H -0.28203 0.50480 0.89833
 H790 H -0.39809 0.50558 0.78226
 H791 H -0.21811 0.50525 0.60207
 H792 H -0.10207 0.50447 0.71817
   
