data_POSCAR
  _audit_creation_date              2014-09-24
  _audit_creation_method            'ToBaCCo'
  _symmetry_space_group_name_H-M    'P1'
  _symmetry_Int_Tables_number       1
  _symmetry_cell_setting            triclinic
  loop_
  _symmetry_equiv_pos_as_xyz
 x,y,z
_cell_length_a 52.3714
_cell_length_b 52.3692
_cell_length_c 49.9322
_cell_angle_alpha 89.968400
_cell_angle_beta 89.974200
_cell_angle_gamma 90.004000
loop_
  _atom_site_label
  _atom_site_type_symbol
  _atom_site_fract_x
  _atom_site_fract_y
  _atom_site_fract_z
O1 O 0.02107 0.28317 -0.02512
 O2 O -0.02961 0.28201 0.02590
 O3 O 0.02008 0.28283 0.02702
 O4 O -0.02861 0.28167 -0.02621
 O5 O -0.02759 0.23957 -0.02610
 O6 O 0.02099 0.24073 0.02702
 O7 O -0.02870 0.23994 0.02601
 O8 O 0.02209 0.24107 -0.02511
 Cu9 Cu -0.00436 0.28663 0.00039
 Cu10 Cu -0.00320 0.23611 0.00046
 C11 C 0.03027 0.26234 -0.03388
 C12 C -0.03790 0.26081 0.03476
 C13 C 0.02887 0.26194 0.03613
 C14 C -0.03645 0.26039 -0.03526
 O15 O 0.53033 0.78215 0.47420
 O16 O 0.48019 0.78254 0.52592
 O17 O 0.52991 0.78214 0.52624
 O18 O 0.48061 0.78255 0.47367
 O19 O 0.48025 0.74044 0.47368
 O20 O 0.52955 0.74002 0.52625
 O21 O 0.47982 0.74043 0.52593
 O22 O 0.52997 0.74003 0.47421
 Cu23 Cu 0.50525 0.78656 0.50000
 Cu24 Cu 0.50482 0.73601 0.50002
 C25 C 0.53881 0.76102 0.46541
 C26 C 0.47147 0.76156 0.53485
 C27 C 0.53825 0.76100 0.53518
 C28 C 0.47204 0.76157 0.46460
 O29 O 0.98013 0.71783 -0.02665
 O30 O 1.03040 0.71811 0.02493
 O31 O 0.98068 0.71780 0.02560
 O32 O 1.02985 0.71810 -0.02712
 O33 O 1.02959 0.76017 -0.02715
 O34 O 0.98042 0.75991 0.02557
 O35 O 1.03013 0.76023 0.02489
 O36 O 0.97987 0.75990 -0.02667
 Cu37 Cu 1.00524 0.71375 -0.00081
 Cu38 Cu 1.00493 0.76426 -0.00085
 C39 C 0.97139 0.73881 -0.03561
 C40 C 1.03893 0.73923 0.03369
 C41 C 0.97218 0.73880 0.03469
 C42 C 1.03827 0.73918 -0.03615
 O43 O 0.52138 0.21645 0.52558
 O44 O 0.47088 0.21752 0.47445
 O45 O 0.52058 0.21686 0.47345
 O46 O 0.47170 0.21786 0.52657
 O47 O 0.47263 0.25996 0.52650
 O48 O 0.52139 0.25897 0.47350
 O49 O 0.47169 0.25962 0.47439
 O50 O 0.52231 0.25855 0.52563
 Cu51 Cu 0.49605 0.21295 0.50001
 Cu52 Cu 0.49709 0.26349 0.50001
 C53 C 0.53051 0.23728 0.53439
 C54 C 0.46262 0.23872 0.46564
 C55 C 0.52935 0.23778 0.46438
 C56 C 0.46379 0.23911 0.53562
 O57 O 0.71681 -0.02947 0.02754
 O58 O 0.71513 0.02106 -0.02371
 O59 O 0.71594 -0.02872 -0.02450
 O60 O 0.71629 0.02021 0.02845
 O61 O 0.75839 0.02077 0.02751
 O62 O 0.75804 -0.02808 -0.02538
 O63 O 0.75719 0.02167 -0.02462
 O64 O 0.75891 -0.02890 0.02664
 Cu65 Cu 0.71183 -0.00426 0.00201
 Cu66 Cu 0.76235 -0.00355 0.00092
 C67 C 0.73814 -0.03788 0.03585
 C68 C 0.73586 0.03010 -0.03298
 C69 C 0.73696 -0.03688 -0.03392
 C70 C 0.73742 0.02884 0.03709
 O71 O 0.21544 0.47931 0.52349
 O72 O 0.21704 0.52968 0.47207
 O73 O 0.21661 0.47998 0.47133
 O74 O 0.21622 0.52910 0.52413
 O75 O 0.25832 0.52853 0.52495
 O76 O 0.25871 0.47948 0.47220
 O77 O 0.25914 0.52917 0.47290
 O78 O 0.25753 0.47875 0.52434
 Cu79 Cu 0.21211 0.50454 0.49769
 Cu80 Cu 0.26264 0.50391 0.49870
 C81 C 0.23620 0.47037 0.53271
 C82 C 0.23835 0.53809 0.46370
 C83 C 0.23774 0.47135 0.46268
 C84 C 0.23723 0.53732 0.53349
 O85 O 0.28022 1.03055 0.02335
 O86 O 0.27997 0.98015 -0.02800
 O87 O 0.27906 1.02978 -0.02874
 O88 O 0.28081 0.98083 0.02421
 O89 O 0.23871 0.98023 0.02509
 O90 O 0.23700 1.02916 -0.02782
 O91 O 0.23788 0.97951 -0.02715
 O92 O 0.23816 1.02997 0.02429
 Cu93 Cu 0.28422 1.00537 -0.00236
 Cu94 Cu 0.23373 1.00463 -0.00128
 C95 C 0.25925 1.03899 0.03265
 C96 C 0.25890 0.97127 -0.03648
 C97 C 0.25773 1.03788 -0.03744
 C98 C 0.26004 0.97216 0.03375
 O99 O 0.78089 0.52049 0.52819
 O100 O 0.78112 0.47025 0.47672
 O101 O 0.78170 0.51997 0.47598
 O102 O 0.77989 0.47087 0.52880
 O103 O 0.73779 0.47154 0.52789
 O104 O 0.73960 0.52060 0.47513
 O105 O 0.73902 0.47087 0.47580
 O106 O 0.73879 0.52118 0.52736
 Cu107 Cu 0.78512 0.49535 0.50249
 Cu108 Cu 0.73458 0.49614 0.50143
 C109 C 0.75982 0.52936 0.53670
 C110 C 0.76013 0.46191 0.46747
 C111 C 0.76094 0.52867 0.46647
 C112 C 0.75852 0.46281 0.53742
 C113 C 0.23860 0.26259 0.24875
 C114 C 0.25694 0.24410 0.24861
 C115 C 0.25833 0.22462 0.22700
 C116 C 0.27645 0.24240 0.27012
 C117 C 0.23885 0.28372 0.26861
 C118 C 0.21731 0.26259 0.22911
 C119 C 0.25854 0.19855 0.23361
 C120 C 0.25928 0.18005 0.21347
 C121 C 0.26001 0.18740 0.18651
 C122 C 0.26032 0.21336 0.17979
 C123 C 0.25962 0.23190 0.19993
 C124 C 0.26922 0.24082 0.29719
 C125 C 0.28779 0.23992 0.31727
 C126 C 0.31373 0.24033 0.31049
 C127 C 0.32104 0.24133 0.28353
 C128 C 0.30250 0.24225 0.26344
 C129 C 0.26042 0.29944 0.27163
 C130 C 0.26049 0.31901 0.29067
 C131 C 0.23893 0.32321 0.30668
 C132 C 0.21723 0.30792 0.30342
 C133 C 0.21715 0.28834 0.28442
 C134 C 0.21271 0.28437 0.21344
 C135 C 0.19295 0.28450 0.19465
 C136 C 0.17746 0.26292 0.19149
 C137 C 0.18165 0.24129 0.20739
 C138 C 0.20139 0.24115 0.22622
 H139 H 0.25771 0.19256 0.25436
 H140 H 0.25910 0.16002 0.21890
 H141 H 0.26102 0.21926 0.15900
 H142 H 0.25996 0.25190 0.19442
 H143 H 0.24923 0.24042 0.30272
 H144 H 0.28193 0.23901 0.33806
 H145 H 0.30844 0.24331 0.24269
 H146 H 0.27717 0.29651 0.25928
 H147 H 0.27734 0.33081 0.29294
 H148 H 0.20043 0.31104 0.31565
 H149 H 0.20029 0.27653 0.28229
 H150 H 0.22466 0.30113 0.21550
 H151 H 0.18983 0.30135 0.18249
 H152 H 0.16970 0.22453 0.20519
 H153 H 0.20432 0.22434 0.23848
 H154 H 0.34106 0.24158 0.27807
 C155 C 0.76567 0.73619 0.25110
 C156 C 0.74720 0.75456 0.25104
 C157 C 0.74572 0.77414 0.22955
 C158 C 0.72751 0.75599 0.27242
 C159 C 0.76543 0.71491 0.27079
 C160 C 0.78696 0.73646 0.23142
 C161 C 0.74530 0.80016 0.23632
 C162 C 0.74416 0.81878 0.21631
 C163 C 0.74323 0.81159 0.18933
 C164 C 0.74321 0.78567 0.18244
 C165 C 0.74432 0.76702 0.20245
 C166 C 0.73450 0.75744 0.29956
 C167 C 0.71574 0.75849 0.31947
 C168 C 0.68986 0.75836 0.31243
 C169 C 0.68281 0.75738 0.28542
 C170 C 0.70153 0.75629 0.26551
 C171 C 0.74389 0.69911 0.27360
 C172 C 0.74367 0.67958 0.29270
 C173 C 0.76506 0.67547 0.30896
 C174 C 0.78678 0.69078 0.30584
 C175 C 0.78700 0.71033 0.28678
 C176 C 0.79158 0.71488 0.21547
 C177 C 0.81106 0.71517 0.19633
 C178 C 0.82626 0.73695 0.19311
 C179 C 0.82213 0.75834 0.20936
 C180 C 0.80267 0.75806 0.22853
 H181 H 0.74620 0.80602 0.25710
 H182 H 0.74411 0.83877 0.22186
 H183 H 0.74235 0.77990 0.16162
 H184 H 0.74411 0.74705 0.19683
 H185 H 0.75444 0.75773 0.30528
 H186 H 0.72141 0.75938 0.34031
 H187 H 0.69577 0.75534 0.24470
 H188 H 0.72724 0.70201 0.26111
 H189 H 0.72681 0.66776 0.29486
 H190 H 0.80345 0.68773 0.31828
 H191 H 0.80384 0.72220 0.28480
 H192 H 0.77977 0.69800 0.21750
 H193 H 0.81413 0.69849 0.18390
 H194 H 0.83386 0.77525 0.20712
 H195 H 0.79972 0.77472 0.24099
 H196 H 0.66284 0.75733 0.27975
 C197 C 0.73894 0.23712 0.25125
 C198 C 0.75735 0.25553 0.25113
 C199 C 0.77679 0.25705 0.22950
 C200 C 0.75894 0.27508 0.27262
 C201 C 0.71777 0.23726 0.27107
 C202 C 0.73900 0.21591 0.23151
 C203 C 0.80286 0.25724 0.23604
 C204 C 0.82133 0.25807 0.21585
 C205 C 0.81394 0.25893 0.18893
 C206 C 0.78797 0.25927 0.18227
 C207 C 0.76947 0.25846 0.20245
 C208 C 0.76042 0.26791 0.29971
 C209 C 0.76125 0.28652 0.31975
 C210 C 0.76086 0.31245 0.31291
 C211 C 0.75995 0.31970 0.28594
 C212 C 0.75910 0.30112 0.26588
 C213 C 0.70194 0.25875 0.27403
 C214 C 0.68227 0.25871 0.29297
 C215 C 0.67809 0.23712 0.30894
 C216 C 0.69350 0.21550 0.30574
 C217 C 0.71318 0.21553 0.28683
 C218 C 0.71723 0.21135 0.21582
 C219 C 0.71717 0.19173 0.19687
 C220 C 0.73879 0.17634 0.19357
 C221 C 0.76040 0.18046 0.20950
 C222 C 0.76047 0.20007 0.22849
 H223 H 0.80888 0.25631 0.25677
 H224 H 0.84137 0.25788 0.22123
 H225 H 0.78203 0.26008 0.16150
 H226 H 0.74946 0.25883 0.19701
 H227 H 0.76081 0.24793 0.30529
 H228 H 0.76208 0.28070 0.34056
 H229 H 0.75812 0.30703 0.24512
 H230 H 0.70485 0.27552 0.26169
 H231 H 0.67038 0.27550 0.29520
 H232 H 0.69039 0.19867 0.31795
 H233 H 0.72506 0.19872 0.28473
 H234 H 0.70044 0.22326 0.21797
 H235 H 0.70033 0.18867 0.18469
 H236 H 0.77719 0.16858 0.20719
 H237 H 0.77727 0.20296 0.24076
 H238 H 0.75971 0.33971 0.28042
 C239 C 0.26519 0.76418 0.24860
 C240 C 0.24681 0.74572 0.24853
 C241 C 0.22719 0.74427 0.22708
 C242 C 0.24534 0.72607 0.26995
 C243 C 0.28644 0.76393 0.26832
 C244 C 0.26488 0.78555 0.22902
 C245 C 0.20118 0.74375 0.23392
 C246 C 0.18253 0.74265 0.21395
 C247 C 0.18967 0.74185 0.18694
 C248 C 0.21558 0.74194 0.17998
 C249 C 0.23427 0.74301 0.19994
 C250 C 0.24381 0.73312 0.29707
 C251 C 0.24275 0.71441 0.31702
 C252 C 0.24296 0.68851 0.31006
 C253 C 0.24402 0.68139 0.28307
 C254 C 0.24510 0.70007 0.26310
 C255 C 0.30222 0.74238 0.27116
 C256 C 0.32167 0.74214 0.29034
 C257 C 0.32570 0.76350 0.30666
 C258 C 0.31042 0.78523 0.30349
 C259 C 0.29096 0.78549 0.28435
 C260 C 0.28645 0.79030 0.21306
 C261 C 0.28615 0.80992 0.19408
 C262 C 0.26436 0.82514 0.19103
 C263 C 0.24298 0.82087 0.20728
 C264 C 0.24327 0.80126 0.22628
 H265 H 0.19535 0.74454 0.25471
 H266 H 0.16255 0.74252 0.21957
 H267 H 0.22132 0.74120 0.15915
 H268 H 0.25423 0.74288 0.19427
 H269 H 0.24347 0.75307 0.30273
 H270 H 0.24179 0.72013 0.33785
 H271 H 0.24610 0.69426 0.24231
 H272 H 0.29937 0.72575 0.25865
 H273 H 0.33346 0.72527 0.29253
 H274 H 0.31341 0.80188 0.31596
 H275 H 0.27910 0.80232 0.28235
 H276 H 0.30334 0.77850 0.21498
 H277 H 0.30281 0.81310 0.18166
 H278 H 0.22607 0.83261 0.20517
 H279 H 0.22662 0.79823 0.23875
 H280 H 0.24411 0.66141 0.27746
 C281 C 0.75375 0.25485 0.75223
 C282 C 0.73546 0.23631 0.75216
 C283 C 0.71605 0.23472 0.73053
 C284 C 0.73397 0.21673 0.77365
 C285 C 0.77482 0.25496 0.77213
 C286 C 0.75371 0.27593 0.73230
 C287 C 0.68997 0.23476 0.73707
 C288 C 0.67153 0.23416 0.71686
 C289 C 0.67897 0.23329 0.68994
 C290 C 0.70494 0.23263 0.68331
 C291 C 0.72341 0.23320 0.70350
 C292 C 0.73244 0.22384 0.80075
 C293 C 0.73172 0.20519 0.82079
 C294 C 0.73226 0.17927 0.81393
 C295 C 0.73322 0.17208 0.78694
 C296 C 0.73396 0.19070 0.76690
 C297 C 0.79084 0.23364 0.77526
 C298 C 0.81051 0.23400 0.79418
 C299 C 0.81449 0.25575 0.80994
 C300 C 0.79885 0.27719 0.80660
 C301 C 0.77918 0.27684 0.78772
 C302 C 0.77552 0.28039 0.71662
 C303 C 0.77563 0.29990 0.69752
 C304 C 0.75402 0.31527 0.69404
 C305 C 0.73236 0.31123 0.70994
 C306 C 0.73223 0.29173 0.72908
 H307 H 0.68394 0.23578 0.75779
 H308 H 0.65148 0.23462 0.72222
 H309 H 0.71090 0.23182 0.66255
 H310 H 0.74343 0.23266 0.69808
 H311 H 0.73193 0.24381 0.80635
 H312 H 0.73086 0.21097 0.84160
 H313 H 0.73498 0.18483 0.74613
 H314 H 0.78811 0.21677 0.76305
 H315 H 0.82259 0.21735 0.79652
 H316 H 0.80181 0.29413 0.81864
 H317 H 0.76714 0.29352 0.78547
 H318 H 0.79231 0.26852 0.71892
 H319 H 0.79252 0.30290 0.68538
 H320 H 0.71558 0.32310 0.70750
 H321 H 0.71540 0.28891 0.74133
 H322 H 0.73358 0.15208 0.78141
 C323 C 0.24355 0.74529 0.74818
 C324 C 0.26186 0.76381 0.74813
 C325 C 0.28322 0.76359 0.72852
 C326 C 0.26147 0.78513 0.76777
 C327 C 0.22394 0.74379 0.76964
 C328 C 0.24217 0.72558 0.72684
 C329 C 0.29903 0.74205 0.72577
 C330 C 0.31865 0.74186 0.70678
 C331 C 0.32283 0.76327 0.69054
 C332 C 0.30751 0.78498 0.69359
 C333 C 0.28787 0.78518 0.71256
 C334 C 0.28297 0.78981 0.78384
 C335 C 0.28252 0.80925 0.80300
 C336 C 0.26066 0.82436 0.80615
 C337 C 0.23937 0.82019 0.78977
 C338 C 0.23981 0.80076 0.77057
 C339 C 0.19793 0.74340 0.76284
 C340 C 0.17930 0.74231 0.78284
 C341 C 0.18647 0.74140 0.80982
 C342 C 0.21238 0.74133 0.81674
 C343 C 0.23104 0.74239 0.79675
 C344 C 0.24080 0.73252 0.69967
 C345 C 0.23964 0.71373 0.67982
 C346 C 0.23959 0.68785 0.68693
 C347 C 0.24053 0.68085 0.71397
 C348 C 0.24171 0.69960 0.73382
 H349 H 0.29608 0.72539 0.73825
 H350 H 0.33048 0.72501 0.70468
 H351 H 0.31062 0.80167 0.68118
 H352 H 0.27600 0.80202 0.71448
 H353 H 0.29989 0.77807 0.78189
 H354 H 0.29912 0.81236 0.81552
 H355 H 0.22321 0.79777 0.75803
 H356 H 0.19209 0.74431 0.74205
 H357 H 0.15930 0.74231 0.77726
 H358 H 0.21813 0.74049 0.83756
 H359 H 0.25101 0.74216 0.80238
 H360 H 0.24062 0.75245 0.69389
 H361 H 0.23880 0.71936 0.65896
 H362 H 0.24043 0.66089 0.71969
 H363 H 0.24259 0.69386 0.75464
 H364 H 0.22241 0.83184 0.79193
 C365 C 0.25382 0.24450 0.74829
 C366 C 0.23558 0.26308 0.74843
 C367 C 0.23414 0.28270 0.72697
 C368 C 0.21617 0.26468 0.77008
 C369 C 0.25373 0.22339 0.76818
 C370 C 0.27489 0.24436 0.72836
 C371 C 0.23420 0.30872 0.73377
 C372 C 0.23351 0.32738 0.71376
 C373 C 0.23253 0.32023 0.68677
 C374 C 0.23192 0.29433 0.67986
 C375 C 0.23259 0.27564 0.69986
 C376 C 0.22352 0.26611 0.79711
 C377 C 0.20504 0.26671 0.81732
 C378 C 0.17907 0.26617 0.81070
 C379 C 0.17164 0.26538 0.78378
 C380 C 0.19009 0.26474 0.76357
 C381 C 0.23220 0.20763 0.77139
 C382 C 0.23225 0.18814 0.79054
 C383 C 0.25389 0.18406 0.80645
 C384 C 0.27554 0.19937 0.80298
 C385 C 0.27551 0.21887 0.78387
 C386 C 0.27920 0.22249 0.71274
 C387 C 0.29887 0.22212 0.69382
 C388 C 0.31456 0.24352 0.69047
 C389 C 0.31063 0.26526 0.70626
 C390 C 0.29097 0.26565 0.72522
 H391 H 0.23524 0.31455 0.75455
 H392 H 0.23393 0.34737 0.71933
 H393 H 0.23105 0.28858 0.65904
 H394 H 0.23203 0.25568 0.69423
 H395 H 0.24354 0.26655 0.80253
 H396 H 0.21100 0.26745 0.83808
 H397 H 0.18406 0.26379 0.74284
 H398 H 0.21539 0.21050 0.75913
 H399 H 0.21544 0.17632 0.79298
 H400 H 0.29240 0.19633 0.81514
 H401 H 0.29233 0.23071 0.78159
 H402 H 0.26712 0.20583 0.71498
 H403 H 0.30178 0.20517 0.68176
 H404 H 0.32274 0.28189 0.70392
 H405 H 0.28828 0.28251 0.73744
 H406 H 0.15160 0.26502 0.77844
 C407 C 0.74422 0.75484 0.75200
 C408 C 0.76258 0.73638 0.75230
 C409 C 0.76233 0.71495 0.73280
 C410 C 0.78383 0.73674 0.77203
 C411 C 0.74264 0.77463 0.77323
 C412 C 0.72471 0.75617 0.73044
 C413 C 0.74072 0.69925 0.73005
 C414 C 0.74036 0.67978 0.71091
 C415 C 0.76168 0.67565 0.69455
 C416 C 0.78350 0.69081 0.69767
 C417 C 0.78387 0.71030 0.71678
 C418 C 0.78849 0.71520 0.78806
 C419 C 0.80807 0.71550 0.80707
 C420 C 0.82334 0.73725 0.81011
 C421 C 0.81913 0.75862 0.79382
 C422 C 0.79956 0.75834 0.77478
 C423 C 0.74219 0.80058 0.76612
 C424 C 0.74084 0.81940 0.78587
 C425 C 0.73972 0.81249 0.81293
 C426 C 0.73976 0.78665 0.82017
 C427 C 0.74108 0.76779 0.80041
 C428 C 0.73193 0.75743 0.70335
 C429 C 0.71335 0.75841 0.68327
 C430 C 0.68741 0.75840 0.69009
 C431 C 0.68012 0.75760 0.71705
 C432 C 0.69866 0.75659 0.73713
 H433 H 0.72409 0.70223 0.74256
 H434 H 0.72343 0.66808 0.70875
 H435 H 0.80012 0.68773 0.68516
 H436 H 0.80075 0.72210 0.71871
 H437 H 0.77668 0.69832 0.78614
 H438 H 0.81120 0.69883 0.81951
 H439 H 0.79661 0.77496 0.76225
 H440 H 0.74321 0.80622 0.74527
 H441 H 0.74076 0.83934 0.78006
 H442 H 0.73878 0.78110 0.84105
 H443 H 0.74090 0.74788 0.80628
 H444 H 0.75192 0.75763 0.69780
 H445 H 0.71920 0.75916 0.66248
 H446 H 0.66010 0.75765 0.72254
 H447 H 0.69272 0.75579 0.75789
 H448 H 0.83091 0.77551 0.79590
 C449 C 0.28277 0.08770 0.08116
 C450 C 0.25977 0.09704 0.09148
 C451 C 0.23658 0.08713 0.08225
 C452 C 0.23635 0.06794 0.06278
 C453 C 0.25941 0.05832 0.05220
 C454 C 0.28264 0.06852 0.06169
 C455 C 0.25997 0.11668 0.11166
 C456 C 0.26012 0.13304 0.12863
 C457 C 0.26023 0.15210 0.14863
 C458 C 0.26021 0.16826 0.16582
 H459 H 0.30084 0.09523 0.08818
 H460 H 0.21865 0.09422 0.09013
 H461 H 0.21807 0.06068 0.05609
 H462 H 0.30080 0.06172 0.05414
 C463 C 0.78297 0.57680 0.58864
 C464 C 0.75989 0.58645 0.59845
 C465 C 0.73675 0.57761 0.58794
 C466 C 0.73669 0.55912 0.56774
 C467 C 0.75981 0.54923 0.55779
 C468 C 0.78297 0.55832 0.56845
 C469 C 0.75998 0.60540 0.61931
 C470 C 0.76021 0.62131 0.63674
 C471 C 0.76062 0.64003 0.65705
 C472 C 0.76107 0.65616 0.67425
 H473 H 0.80099 0.58352 0.59662
 H474 H 0.71877 0.58496 0.59538
 H475 H 0.71854 0.55252 0.55998
 H476 H 0.80109 0.55111 0.56126
 C477 C 0.71658 0.91216 0.08600
 C478 C 0.73999 0.90274 0.09520
 C479 C 0.76280 0.91274 0.08504
 C480 C 0.76224 0.93208 0.06573
 C481 C 0.73879 0.94168 0.05634
 C482 C 0.71596 0.93149 0.06669
 C483 C 0.74060 0.88292 0.11516
 C484 C 0.74112 0.86639 0.13196
 C485 C 0.74177 0.84715 0.15175
 C486 C 0.74238 0.83085 0.16879
 H487 H 0.69880 0.90456 0.09375
 H488 H 0.78103 0.90560 0.09205
 H489 H 0.78015 0.93950 0.05818
 H490 H 0.69760 0.93845 0.05989
 C491 C 0.25765 0.42057 0.58311
 C492 C 0.23421 0.41123 0.59237
 C493 C 0.21143 0.42122 0.58216
 C494 C 0.21205 0.44048 0.56275
 C495 C 0.23552 0.45001 0.55331
 C496 C 0.25833 0.43983 0.56371
 C497 C 0.23356 0.39148 0.61242
 C498 C 0.23309 0.37500 0.62929
 C499 C 0.23268 0.35580 0.64914
 C500 C 0.23250 0.33952 0.66621
 H501 H 0.27540 0.41298 0.59089
 H502 H 0.19318 0.41414 0.58920
 H503 H 0.19416 0.44789 0.55517
 H504 H 0.27670 0.44672 0.55687
 C505 C 0.91321 0.28317 0.08368
 C506 C 0.90404 0.25995 0.09361
 C507 C 0.91408 0.23698 0.08394
 C508 C 0.93326 0.23720 0.06445
 C509 C 0.94274 0.26049 0.05429
 C510 C 0.93238 0.28350 0.06420
 C511 C 0.88445 0.25972 0.11384
 C512 C 0.86813 0.25959 0.13087
 C513 C 0.84914 0.25945 0.15093
 C514 C 0.83302 0.25928 0.16818
 H515 H 0.90558 0.30107 0.09105
 H516 H 0.90711 0.21888 0.09151
 H517 H 0.94065 0.21908 0.05741
 H518 H 0.93907 0.30183 0.05698
 C519 C 0.42292 0.73884 0.58601
 C520 C 0.41372 0.76203 0.59602
 C521 C 0.42332 0.78507 0.58599
 C522 C 0.44208 0.78494 0.56605
 C523 C 0.45148 0.76172 0.55586
 C524 C 0.44168 0.73865 0.56606
 C525 C 0.39440 0.76220 0.61654
 C526 C 0.37816 0.76238 0.63366
 C527 C 0.35906 0.76263 0.65362
 C528 C 0.34263 0.76289 0.67054
 H529 H 0.41561 0.72089 0.59362
 H530 H 0.41632 0.80314 0.59359
 H531 H 0.44922 0.80303 0.55864
 H532 H 0.44850 0.72046 0.55867
 C533 C 0.08875 0.71651 0.08343
 C534 C 0.09830 0.73971 0.09306
 C535 C 0.08841 0.76274 0.08334
 C536 C 0.06906 0.76261 0.06406
 C537 C 0.05933 0.73938 0.05422
 C538 C 0.06940 0.71632 0.06414
 C539 C 0.11817 0.73991 0.11297
 C540 C 0.13474 0.74018 0.12972
 C541 C 0.15403 0.74062 0.14945
 C542 C 0.17037 0.74111 0.16645
 H543 H 0.09626 0.69856 0.09083
 H544 H 0.09565 0.78081 0.09068
 H545 H 0.06175 0.78069 0.05685
 H546 H 0.06234 0.69812 0.05699
 C547 C 0.57911 0.21274 0.58443
 C548 C 0.58924 0.23555 0.59439
 C549 C 0.58025 0.25896 0.58468
 C550 C 0.56116 0.25957 0.56512
 C551 C 0.55081 0.23673 0.55501
 C552 C 0.56003 0.21329 0.56488
 C553 C 0.60873 0.23492 0.61469
 C554 C 0.62497 0.23438 0.63178
 C555 C 0.64388 0.23381 0.65189
 C556 C 0.65993 0.23346 0.66917
 H557 H 0.58592 0.19451 0.59182
 H558 H 0.58796 0.27674 0.59227
 H559 H 0.55450 0.27792 0.55795
 H560 H 0.55248 0.19537 0.55753
 C561 C 0.71107 0.07834 0.91864
 C562 C 0.73383 0.08835 0.90840
 C563 C 0.75726 0.07903 0.91762
 C564 C 0.75799 0.05976 0.93700
 C565 C 0.73519 0.04947 0.94751
 C566 C 0.71169 0.05907 0.93802
 C567 C 0.73316 0.10810 0.88835
 C568 C 0.73271 0.12457 0.87148
 C569 C 0.73233 0.14376 0.85161
 C570 C 0.73218 0.16002 0.83452
 H571 H 0.69282 0.08542 0.91162
 H572 H 0.77500 0.08664 0.90980
 H573 H 0.77645 0.05298 0.94369
 H574 H 0.69372 0.05174 0.94552
 C575 C 0.21665 0.58788 0.41344
 C576 C 0.24003 0.59732 0.40417
 C577 C 0.26287 0.58739 0.41431
 C578 C 0.26236 0.56809 0.43367
 C579 C 0.23894 0.55847 0.44314
 C580 C 0.21608 0.56858 0.43280
 C581 C 0.24058 0.61712 0.38418
 C582 C 0.24105 0.63364 0.36737
 C583 C 0.24163 0.65288 0.34758
 C584 C 0.24218 0.66920 0.33056
 H585 H 0.19885 0.59542 0.40571
 H586 H 0.28108 0.59456 0.40725
 H587 H 0.28029 0.56073 0.44121
 H588 H 0.19774 0.56161 0.43966
 C589 C 0.28199 0.92358 0.91175
 C590 C 0.25889 0.91390 0.90201
 C591 C 0.23577 0.92281 0.91252
 C592 C 0.23573 0.94140 0.93263
 C593 C 0.25887 0.95132 0.94250
 C594 C 0.28201 0.94215 0.93185
 C595 C 0.25896 0.89484 0.88123
 C596 C 0.25916 0.87886 0.86385
 C597 C 0.25956 0.86006 0.84360
 C598 C 0.26001 0.84388 0.82643
 H599 H 0.30000 0.91680 0.90377
 H600 H 0.21777 0.91544 0.90513
 H601 H 0.21760 0.94804 0.94038
 H602 H 0.30014 0.94938 0.93898
 C603 C 0.73747 0.41288 0.41689
 C604 C 0.76067 0.40297 0.40766
 C605 C 0.78369 0.41230 0.41798
 C606 C 0.78353 0.43148 0.43745
 C607 C 0.76029 0.44159 0.44685
 C608 C 0.73725 0.43206 0.43636
 C609 C 0.76088 0.38333 0.38752
 C610 C 0.76104 0.36694 0.37058
 C611 C 0.76115 0.34785 0.35065
 C612 C 0.76111 0.33165 0.33351
 H613 H 0.71954 0.40580 0.40902
 H614 H 0.80176 0.40478 0.41097
 H615 H 0.80159 0.43838 0.44511
 H616 H 0.71905 0.43943 0.44317
 C617 C 0.07899 0.28689 0.91613
 C618 C 0.08919 0.26407 0.90623
 C619 C 0.08021 0.24067 0.91597
 C620 C 0.06106 0.24006 0.93550
 C621 C 0.05064 0.26291 0.94555
 C622 C 0.05986 0.28634 0.93565
 C623 C 0.10872 0.26469 0.88595
 C624 C 0.12500 0.26521 0.86888
 C625 C 0.14394 0.26574 0.84877
 C626 C 0.16002 0.26605 0.83149
 H627 H 0.08579 0.30511 0.90871
 H628 H 0.08796 0.22289 0.90843
 H629 H 0.05441 0.22172 0.94269
 H630 H 0.05226 0.30426 0.94295
 C631 C 0.58868 0.78368 0.41567
 C632 C 0.59821 0.76046 0.40605
 C633 C 0.58826 0.73744 0.41574
 C634 C 0.56889 0.73760 0.43501
 C635 C 0.55920 0.76083 0.44485
 C636 C 0.56931 0.78389 0.43495
 C637 C 0.61812 0.76025 0.38618
 C638 C 0.63474 0.75998 0.36948
 C639 C 0.65409 0.75956 0.34981
 C640 C 0.67049 0.75909 0.33287
 H641 H 0.59623 0.80161 0.40829
 H642 H 0.59549 0.71936 0.40840
 H643 H 0.56155 0.71952 0.44221
 H644 H 0.56228 0.80209 0.44211
 C645 C 0.92396 0.71543 0.91441
 C646 C 0.91439 0.73847 0.90442
 C647 C 0.92367 0.76163 0.91440
 C648 C 0.94249 0.76179 0.93426
 C649 C 0.95236 0.73870 0.94451
 C650 C 0.94278 0.71549 0.93427
 C651 C 0.89501 0.73835 0.88397
 C652 C 0.87873 0.73820 0.86689
 C653 C 0.85959 0.73796 0.84698
 C654 C 0.84315 0.73768 0.83009
 H655 H 0.91689 0.69738 0.90683
 H656 H 0.91638 0.77959 0.90682
 H657 H 0.94927 0.78006 0.94153
 H658 H 0.94979 0.69730 0.94154
 C659 C 0.41303 0.21623 0.41563
 C660 C 0.40383 0.23945 0.40568
 C661 C 0.41378 0.26246 0.41537
 C662 C 0.43290 0.26227 0.43492
 C663 C 0.44231 0.23901 0.44502
 C664 C 0.43213 0.21599 0.43517
 C665 C 0.38429 0.23963 0.38542
 C666 C 0.36800 0.23971 0.36839
 C667 C 0.34901 0.23981 0.34835
 C668 C 0.33287 0.23997 0.33115
 H669 H 0.40547 0.19831 0.40825
 H670 H 0.40680 0.28055 0.40779
 H671 H 0.44031 0.28032 0.44208
 H672 H 0.43894 0.19776 0.44251
 C673 C 0.71387 0.91361 0.91625
 C674 C 0.73701 0.90440 0.90609
 C675 C 0.76009 0.91454 0.91533
 C676 C 0.76008 0.93375 0.93474
 C677 C 0.73693 0.94309 0.94518
 C678 C 0.71381 0.93284 0.93568
 C679 C 0.73713 0.88450 0.88623
 C680 C 0.73744 0.86786 0.86959
 C681 C 0.73803 0.84844 0.85003
 C682 C 0.73871 0.83197 0.83321
 H683 H 0.69589 0.90589 0.90922
 H684 H 0.77811 0.90755 0.90758
 H685 H 0.77821 0.94122 0.94163
 H686 H 0.69567 0.93959 0.94331
 C687 C 0.26143 0.42334 0.41154
 C688 C 0.23844 0.41422 0.40095
 C689 C 0.21521 0.42380 0.41050
 C690 C 0.21494 0.44240 0.43058
 C691 C 0.23796 0.45168 0.44138
 C692 C 0.26122 0.44194 0.43161
 C693 C 0.23869 0.39493 0.38043
 C694 C 0.23888 0.37868 0.36334
 C695 C 0.23904 0.35954 0.34345
 C696 C 0.23907 0.34306 0.32660
 H697 H 0.27952 0.41604 0.40431
 H698 H 0.19730 0.41685 0.40246
 H699 H 0.19672 0.44949 0.43764
 H700 H 0.27927 0.44867 0.43948
 C701 C 0.23290 0.08415 0.91216
 C702 C 0.25565 0.09377 0.90151
 C703 C 0.27909 0.08485 0.91112
 C704 C 0.27983 0.06637 0.93132
 C705 C 0.25704 0.05649 0.94227
 C706 C 0.23354 0.06567 0.93236
 C707 C 0.25496 0.11290 0.88082
 C708 C 0.25447 0.12900 0.86357
 C709 C 0.25406 0.14798 0.84351
 C710 C 0.25387 0.16433 0.82652
 H711 H 0.21464 0.09095 0.90487
 H712 H 0.29682 0.09220 0.90301
 H713 H 0.29830 0.05988 0.93831
 H714 H 0.21557 0.05862 0.94018
 C715 C 0.73939 0.57652 0.41411
 C716 C 0.76279 0.58547 0.40437
 C717 C 0.78561 0.57589 0.41495
 C718 C 0.78505 0.55742 0.43518
 C719 C 0.76160 0.54829 0.44511
 C720 C 0.73877 0.55806 0.43434
 C721 C 0.76337 0.60455 0.38362
 C722 C 0.76380 0.62060 0.36631
 C723 C 0.76425 0.63952 0.34617
 C724 C 0.76462 0.65581 0.32911
 H725 H 0.72161 0.58382 0.40608
 H726 H 0.80384 0.58270 0.40757
 H727 H 0.80296 0.55031 0.44303
 H728 H 0.72041 0.55144 0.44152
 C729 C 0.08598 0.76258 0.91417
 C730 C 0.09570 0.73954 0.90436
 C731 C 0.08627 0.71637 0.91419
 C732 C 0.06722 0.71620 0.93381
 C733 C 0.05727 0.73930 0.94395
 C734 C 0.06693 0.76251 0.93379
 C735 C 0.11535 0.73969 0.88421
 C736 C 0.13177 0.73990 0.86730
 C737 C 0.15093 0.74027 0.84743
 C738 C 0.16720 0.74071 0.83036
 H739 H 0.09315 0.78063 0.90667
 H740 H 0.09366 0.69842 0.90671
 H741 H 0.06036 0.69793 0.94103
 H742 H 0.05986 0.78070 0.94098
 C743 C 0.57752 0.26038 0.41286
 C744 C 0.58658 0.23719 0.40272
 C745 C 0.57687 0.21415 0.41266
 C746 C 0.55821 0.21429 0.43270
 C747 C 0.54901 0.23753 0.44306
 C748 C 0.55887 0.26058 0.43288
 C749 C 0.60597 0.23707 0.38229
 C750 C 0.62230 0.23707 0.36528
 C751 C 0.64156 0.23714 0.34551
 C752 C 0.65813 0.23717 0.32875
 H753 H 0.58492 0.27833 0.40532
 H754 H 0.58377 0.19608 0.40496
 H755 H 0.55102 0.19623 0.44009
 H756 H 0.55221 0.27879 0.44041
 C757 C 0.91504 0.28196 0.91309
 C758 C 0.90631 0.25853 0.90321
 C759 C 0.91637 0.23574 0.91332
 C760 C 0.93505 0.23634 0.93330
 C761 C 0.94391 0.25979 0.94343
 C762 C 0.93373 0.28261 0.93307
 C763 C 0.88687 0.25785 0.88288
 C764 C 0.87047 0.25725 0.86596
 C765 C 0.85115 0.25658 0.84630
 C766 C 0.83452 0.25611 0.82965
 H767 H 0.90736 0.29972 0.90540
 H768 H 0.90972 0.21750 0.90583
 H769 H 0.94248 0.21843 0.94083
 H770 H 0.94014 0.30097 0.94043
 C771 C 0.42476 0.78511 0.41261
 C772 C 0.41531 0.76208 0.40244
 C773 C 0.42434 0.73888 0.41264
 C774 C 0.44277 0.73868 0.43290
 C775 C 0.45241 0.76174 0.44325
 C776 C 0.44318 0.78497 0.43287
 C777 C 0.39629 0.76226 0.38162
 C778 C 0.38031 0.76245 0.36425
 C779 C 0.36148 0.76274 0.34403
 C780 C 0.34527 0.76305 0.32689
 H781 H 0.41788 0.80318 0.40488
 H782 H 0.41714 0.72093 0.40492
 H783 H 0.44946 0.72048 0.44042
 H784 H 0.45020 0.80305 0.44038
 C785 C 0.23846 0.92436 0.08618
 C786 C 0.26187 0.91540 0.09589
 C787 C 0.28468 0.92497 0.08529
 C788 C 0.28413 0.94344 0.06506
 C789 C 0.26068 0.95257 0.05515
 C790 C 0.23785 0.94282 0.06595
 C791 C 0.26245 0.89628 0.11661
 C792 C 0.26291 0.88019 0.13387
 C793 C 0.26342 0.86122 0.15395
 C794 C 0.26385 0.84487 0.17095
 H795 H 0.22068 0.91706 0.09423
 H796 H 0.30291 0.91815 0.09265
 H797 H 0.30204 0.95054 0.05719
 H798 H 0.21949 0.94944 0.05879
 C799 C 0.73349 0.41550 0.58862
 C800 C 0.75622 0.40581 0.59926
 C801 C 0.77971 0.41473 0.58969
 C802 C 0.78049 0.43328 0.56956
 C803 C 0.75774 0.44315 0.55872
 C804 C 0.73422 0.43405 0.56848
 C805 C 0.75546 0.38661 0.61987
 C806 C 0.75490 0.37046 0.63706
 C807 C 0.75438 0.35142 0.65706
 C808 C 0.75411 0.33503 0.67401
 H809 H 0.71521 0.40871 0.59586
 H810 H 0.79742 0.40733 0.59778
 H811 H 0.79890 0.43987 0.56250
 H812 H 0.71636 0.44125 0.56058
 C813 C 0.71486 0.07610 0.08952
 C814 C 0.73809 0.08565 0.09907
 C815 C 0.76108 0.07663 0.08840
 C816 C 0.76088 0.05813 0.06824
 C817 C 0.73763 0.04841 0.05846
 C818 C 0.71460 0.05759 0.06935
 C819 C 0.73833 0.10484 0.11967
 C820 C 0.73854 0.12102 0.13682
 C821 C 0.73874 0.14008 0.15676
 C822 C 0.73883 0.15652 0.17364
 H823 H 0.69695 0.08298 0.09763
 H824 H 0.77917 0.08391 0.09564
 H825 H 0.77894 0.05146 0.06030
 H826 H 0.69639 0.05051 0.06228
 C827 C 0.26032 0.58603 0.58416
 C828 C 0.23723 0.59614 0.59345
 C829 C 0.21410 0.58687 0.58333
 C830 C 0.21405 0.56763 0.56391
 C831 C 0.23719 0.55741 0.55436
 C832 C 0.26033 0.56680 0.56475
 C833 C 0.23733 0.61602 0.61335
 C834 C 0.23760 0.63264 0.63003
 C835 C 0.23811 0.65202 0.64966
 C836 C 0.23870 0.66844 0.66655
 H837 H 0.27833 0.59306 0.59187
 H838 H 0.19611 0.59455 0.59040
 H839 H 0.19592 0.56083 0.55632
 H840 H 0.27846 0.55937 0.55784
 C841 C 0.92501 0.71536 0.08687
 C842 C 0.91565 0.73842 0.09708
 C843 C 0.92470 0.76160 0.08685
 C844 C 0.94306 0.76176 0.06651
 C845 C 0.95262 0.73867 0.05612
 C846 C 0.94337 0.71546 0.06653
 C847 C 0.89671 0.73826 0.11797
 C848 C 0.88077 0.73807 0.13540
 C849 C 0.86200 0.73777 0.15568
 C850 C 0.84581 0.73743 0.17285
 H851 H 0.91812 0.69731 0.09462
 H852 H 0.91757 0.77956 0.09460
 H853 H 0.94978 0.77994 0.05895
 H854 H 0.95033 0.69737 0.05899
 C855 C 0.41643 0.26362 0.58700
 C856 C 0.40640 0.24080 0.59710
 C857 C 0.41520 0.21740 0.58720
 C858 C 0.43393 0.21680 0.56724
 C859 C 0.44409 0.23965 0.55690
 C860 C 0.43515 0.26308 0.56705
 C861 C 0.38693 0.24143 0.61743
 C862 C 0.37053 0.24201 0.63436
 C863 C 0.35120 0.24267 0.65404
 C864 C 0.33457 0.24314 0.67073
 H865 H 0.40974 0.28184 0.59450
 H866 H 0.40754 0.19962 0.59487
 H867 H 0.44039 0.19846 0.55987
 H868 H 0.44257 0.28101 0.55954
 C869 C 0.07696 0.23953 0.08777
 C870 C 0.08594 0.26277 0.09787
 C871 C 0.07620 0.28577 0.08788
 C872 C 0.05758 0.28555 0.06783
 C873 C 0.04847 0.26227 0.05749
 C874 C 0.05835 0.23926 0.06772
 C875 C 0.10530 0.26296 0.11829
 C876 C 0.12163 0.26300 0.13528
 C877 C 0.14089 0.26297 0.15503
 C878 C 0.15748 0.26293 0.17174
 H879 H 0.08438 0.22162 0.09534
 H880 H 0.08305 0.30386 0.09556
 H881 H 0.05037 0.30359 0.06039
 H882 H 0.05175 0.22102 0.06021
 C883 C 0.58695 0.73742 0.58565
 C884 C 0.59677 0.76044 0.59545
 C885 C 0.58738 0.78365 0.58565
 C886 C 0.56828 0.78387 0.56610
 C887 C 0.55831 0.76082 0.55607
 C888 C 0.56786 0.73758 0.56609
 C889 C 0.61643 0.76022 0.61558
 C890 C 0.63286 0.75996 0.63248
 C891 C 0.65199 0.75954 0.65237
 C892 C 0.66822 0.75909 0.66947
 H893 H 0.59407 0.71934 0.59310
 H894 H 0.59484 0.80159 0.59312
 H895 H 0.56137 0.80208 0.55881
 H896 H 0.56061 0.71951 0.55880
   
