data_POSCAR
  _audit_creation_date              2014-09-24
  _audit_creation_method            'ToBaCCo'
  _symmetry_space_group_name_H-M    'P1'
  _symmetry_Int_Tables_number       1
  _symmetry_cell_setting            triclinic
  loop_
  _symmetry_equiv_pos_as_xyz
 x,y,z
_cell_length_a 26.9922
_cell_length_b 26.8123
_cell_length_c 26.9727
_cell_angle_alpha 89.886600
_cell_angle_beta 89.981000
_cell_angle_gamma 89.987500
loop_
  _atom_site_label
  _atom_site_type_symbol
  _atom_site_fract_x
  _atom_site_fract_y
  _atom_site_fract_z
C1 C 0.52200 0.99799 -0.50053
 C2 C 0.47173 0.99701 -0.49864
 C3 C 0.43990 0.99746 -0.54365
 C4 C 0.44499 0.99518 -0.45070
 C5 C 0.55274 0.99546 -0.45496
 C6 C 0.55016 1.00037 -0.54779
 C7 C 0.44252 1.03592 -0.57871
 C8 C 0.40848 1.03830 -0.61789
 C9 C 0.36990 1.00249 -0.62294
 C10 C 0.36905 0.96324 -0.58758
 C11 C 0.40321 0.96102 -0.54886
 C12 C 0.41749 1.03675 -0.43544
 C13 C 0.38684 1.03380 -0.39382
 C14 C 0.38237 0.98884 -0.36738
 C15 C 0.41091 0.94751 -0.38204
 C16 C 0.44232 0.95078 -0.42324
 C17 C 0.58614 0.95584 -0.44923
 C18 C 0.62048 0.95592 -0.41060
 C19 C 0.62257 0.99596 -0.37709
 C20 C 0.58768 1.03474 -0.38166
 C21 C 0.55310 1.03456 -0.42043
 C22 C 0.54742 0.96193 -0.58293
 C23 C 0.58006 0.96119 -0.62339
 C24 C 0.61612 0.99876 -0.62917
 C25 C 0.61733 1.03805 -0.59478
 C26 C 0.58492 1.03868 -0.55449
 H27 H 0.46980 1.06526 -0.57475
 H28 H 0.41123 1.07054 -0.64175
 H29 H 0.34336 0.93249 -0.59001
 H30 H 0.40078 0.93055 -0.52253
 H31 H 0.41883 1.07110 -0.45661
 H32 H 0.36486 1.06599 -0.38366
 H33 H 0.46295 0.91821 -0.43495
 H34 H 0.58644 0.92539 -0.47557
 H35 H 0.64612 0.92500 -0.40754
 H36 H 0.58860 1.06630 -0.35670
 H37 H 0.52813 1.06588 -0.42476
 H38 H 0.52152 0.93149 -0.57791
 H39 H 0.57841 0.93016 -0.64894
 H40 H 0.64385 1.06810 -0.59864
 H41 H 0.58774 1.06857 -0.52767
 H42 H 0.40820 0.91250 -0.36213
 C43 C -0.50260 1.52525 0.00582
 C44 C -0.50104 1.47485 0.00632
 C45 C -0.54645 1.44429 0.00586
 C46 C -0.45403 1.44668 0.00528
 C47 C -0.45723 1.55595 0.00238
 C48 C -0.54981 1.55331 0.00787
 C49 C -0.57478 1.43762 0.04893
 C50 C -0.61421 1.40374 0.04911
 C51 C -0.62598 1.37681 0.00602
 C52 C -0.59814 1.38464 -0.03726
 C53 C -0.55841 1.41777 -0.03717
 C54 C -0.44357 1.41339 0.04396
 C55 C -0.40286 1.38162 0.04101
 C56 C -0.37208 1.38219 -0.00099
 C57 C -0.38167 1.41679 -0.03909
 C58 C -0.42251 1.44874 -0.03603
 C59 C -0.45196 1.58871 -0.03778
 C60 C -0.41308 1.62279 -0.03903
 C61 C -0.37898 1.62520 0.00022
 C62 C -0.38306 1.59087 0.03955
 C63 C -0.42207 1.55649 0.04067
 C64 C -0.58462 1.55023 -0.03047
 C65 C -0.62557 1.58221 -0.03127
 C66 C -0.63229 1.61872 0.00601
 C67 C -0.59771 1.61982 0.04534
 C68 C -0.55707 1.58778 0.04602
 H69 H -0.56543 1.45749 0.08257
 H70 H -0.63538 1.39838 0.08281
 H71 H -0.60619 1.36395 -0.07075
 H72 H -0.53638 1.42222 -0.07047
 H73 H -0.46763 1.41131 0.07606
 H74 H -0.39584 1.35606 0.07135
 H75 H -0.43062 1.47367 -0.06661
 H76 H -0.47877 1.58865 -0.06766
 H77 H -0.41029 1.64804 -0.07029
 H78 H -0.35750 1.59214 0.07045
 H79 H -0.42603 1.53180 0.07225
 H80 H -0.57891 1.52467 -0.06097
 H81 H -0.64972 1.58011 -0.06314
 H82 H -0.60195 1.64486 0.07642
 H83 H -0.53057 1.59049 0.07606
 H84 H -0.35883 1.41773 -0.07208
 C85 C 0.00919 0.47480 0.50034
 C86 C 0.00523 0.52508 0.49906
 C87 C 0.00600 0.55583 0.54454
 C88 C 0.00162 0.55291 0.45193
 C89 C 0.01261 0.44446 0.45464
 C90 C 0.01026 0.44696 0.54765
 C91 C -0.03310 0.55448 0.57859
 C92 C -0.03415 0.58764 0.61855
 C93 C 0.00368 0.62365 0.62504
 C94 C 0.04336 0.62357 0.59082
 C95 C 0.04431 0.59028 0.55121
 C96 C -0.04303 0.57660 0.43980
 C97 C -0.04570 0.60825 0.39879
 C98 C -0.00343 0.61745 0.36982
 C99 C 0.04111 0.59285 0.38146
 C100 C 0.04353 0.56049 0.42214
 C101 C 0.05509 0.41589 0.44612
 C102 C 0.05729 0.38302 0.40623
 C103 C 0.01666 0.37721 0.37366
 C104 C -0.02523 0.40806 0.38142
 C105 C -0.02725 0.44099 0.42162
 C106 C 0.05507 0.43767 0.57199
 C107 C 0.05659 0.40530 0.61269
 C108 C 0.01300 0.38207 0.63054
 C109 C -0.03226 0.39403 0.60699
 C110 C -0.03336 0.42540 0.56563
 H111 H -0.06376 0.52903 0.57320
 H112 H -0.06639 0.58658 0.64229
 H113 H 0.07470 0.64834 0.59482
 H114 H 0.07495 0.59170 0.52529
 H115 H -0.07549 0.57146 0.46289
 H116 H -0.08028 0.62715 0.39090
 H117 H 0.07839 0.54283 0.43151
 H118 H 0.08666 0.41872 0.47071
 H119 H 0.09160 0.36295 0.40088
 H120 H -0.05804 0.40489 0.35869
 H121 H -0.06067 0.46241 0.42802
 H122 H 0.08908 0.45435 0.55857
 H123 H 0.09203 0.39927 0.63041
 H124 H -0.06670 0.37656 0.61788
 H125 H -0.06818 0.43181 0.54668
 H126 H 0.07409 0.59922 0.35948
 O127 O -0.12738 1.00546 -0.07040
 O128 O 0.12769 0.99543 -0.06474
 O129 O 0.00302 1.06758 -0.12831
 O130 O 0.00089 0.93199 -0.12770
 O131 O -0.00250 0.87215 -0.06638
 O132 O 0.00127 1.12824 -0.06773
 O133 O 0.06856 0.99501 -0.12650
 O134 O -0.06562 1.00388 -0.12946
 Zr135 Zr 0.00059 1.00001 -0.08788
 O136 O 0.04332 0.95395 -0.04430
 O137 O -0.04407 1.04671 -0.04679
 C138 C -0.11181 1.00583 -0.11600
 C139 C 0.11407 0.99355 -0.11087
 C140 C 0.00249 1.11369 -0.11359
 C141 C -0.00034 0.88598 -0.11241
 H142 H 0.06768 1.06449 -0.06525
 O143 O 0.04543 1.04393 -0.04446
 H144 H -0.06789 0.93586 -0.06747
 O145 O -0.04650 0.95668 -0.04614
 O146 O 0.12475 0.99988 0.06887
 O147 O -0.13026 1.00213 0.06345
 O148 O 0.06801 1.12662 0.00168
 O149 O 0.06157 0.87070 -0.00092
 O150 O -0.07188 0.87442 0.00094
 O151 O -0.06440 1.13034 -0.00413
 O152 O -0.00028 1.06771 0.12708
 O153 O -0.00661 0.93253 0.12755
 O154 O 0.00228 1.12844 0.06649
 O155 O -0.00835 0.87254 0.06645
 O156 O 0.12766 1.06511 0.00371
 O157 O -0.12674 1.07179 -0.00541
 O158 O -0.13046 0.93688 -0.00066
 O159 O 0.12406 0.92924 0.00058
 O160 O 0.06372 1.00105 0.12872
 O161 O -0.07179 0.99980 0.12576
 Zr162 Zr 0.08582 0.99817 0.00135
 Zr163 Zr -0.08842 1.00308 -0.00244
 Zr164 Zr 0.00076 1.08762 -0.00057
 Zr165 Zr -0.00391 0.91326 -0.00010
 Zr166 Zr -0.00315 1.00027 0.08723
 O167 O -0.04852 0.95680 0.04377
 O168 O 0.04368 1.04425 0.04545
 C169 C 0.10983 1.00164 0.11455
 C170 C -0.11730 1.00014 0.10974
 C171 C 0.11354 1.11149 0.00335
 C172 C 0.10786 0.88361 -0.00095
 C173 C -0.11727 0.89037 0.00117
 C174 C -0.11058 1.11742 -0.00625
 C175 C 0.00225 1.11379 0.11245
 C176 C -0.00905 0.88662 0.11238
 H177 H -0.06699 1.06851 0.06418
 O178 O -0.04593 1.04656 0.04361
 H179 H 0.06163 0.93249 0.06712
 O180 O 0.04137 0.95431 0.04556
 C181 C 0.26238 1.00974 0.26431
 C182 C 0.30654 1.03677 0.25939
 C183 C 0.34220 1.03477 0.29685
 C184 C 0.33481 1.00564 0.34013
 C185 C 0.28879 0.98009 0.34340
 N186 N 0.25475 0.98300 0.30639
 C187 C 0.22377 1.00934 0.22513
 N188 N 0.17584 0.99934 0.23771
 C189 C 0.13876 0.99716 0.20351
 C190 C 0.14912 1.00454 0.15299
 C191 C 0.19838 1.01460 0.13931
 C192 C 0.23560 1.01700 0.17503
 H193 H 0.37635 1.05449 0.28977
 H194 H 0.27804 0.95946 0.37605
 H195 H 0.10144 0.98908 0.21580
 H196 H 0.20836 1.02056 0.10086
 H197 H 0.31373 1.05954 0.22703
 H198 H 0.27329 1.02356 0.16309
 C199 C -0.27474 0.99421 0.25496
 C200 C -0.32358 0.97880 0.24497
 C201 C -0.35917 0.98008 0.28261
 C202 C -0.34642 0.99639 0.33033
 C203 C -0.29697 1.01035 0.33901
 N204 N -0.26304 1.00891 0.30178
 C205 C -0.23533 0.99483 0.21644
 N206 N -0.18693 0.99579 0.23089
 C207 C -0.14872 0.99736 0.19793
 C208 C -0.15814 0.99842 0.14672
 C209 C -0.20782 0.99782 0.13107
 C210 C -0.24629 0.99621 0.16556
 H211 H -0.39678 0.96891 0.27419
 H212 H -0.28509 1.02200 0.37550
 H213 H -0.11113 0.99790 0.21184
 H214 H -0.21719 0.99889 0.09205
 H215 H -0.33446 0.96536 0.20883
 H216 H -0.28399 0.99712 0.15212
 C217 C -0.26056 1.00370 -0.26960
 C218 C -0.25066 0.98601 -0.31757
 C219 C -0.28875 0.98365 -0.35234
 C220 C -0.33702 0.99839 -0.33969
 C221 C -0.34554 1.01560 -0.29127
 N222 N -0.30774 1.01751 -0.25788
 C223 C -0.22137 1.00619 -0.23109
 N224 N -0.23456 1.00464 -0.18236
 C225 C -0.20056 1.00531 -0.14510
 C226 C -0.14963 1.00746 -0.15594
 C227 C -0.13536 1.01033 -0.20592
 C228 C -0.17091 1.00995 -0.24341
 H229 H -0.28024 0.97064 -0.38935
 H230 H -0.38229 1.02685 -0.27977
 H231 H -0.21342 1.00345 -0.10714
 H232 H -0.09665 1.01278 -0.21622
 H233 H -0.21422 0.97319 -0.32825
 H234 H -0.15870 1.01307 -0.28147
 C235 C 0.26978 0.98166 -0.25614
 C236 C 0.27383 0.94307 -0.29103
 C237 C 0.31171 0.94450 -0.32626
 C238 C 0.34529 0.98442 -0.32707
 C239 C 0.34071 1.02159 -0.29079
 N240 N 0.30372 1.01923 -0.25660
 C241 C 0.22923 0.98288 -0.21927
 N242 N 0.23774 1.00341 -0.17394
 C243 C 0.20181 1.00673 -0.13872
 C244 C 0.15361 0.98975 -0.14867
 C245 C 0.14386 0.96907 -0.19541
 C246 C 0.18156 0.96529 -0.23064
 H247 H 0.31387 0.91524 -0.35380
 H248 H 0.36623 1.05271 -0.28993
 H249 H 0.21078 1.02333 -0.10329
 H250 H 0.10720 0.95549 -0.20459
 H251 H 0.24810 0.91211 -0.29113
 H252 H 0.17314 0.94986 -0.26671
 C253 C 0.26073 1.26604 0.00371
 C254 C 0.26275 1.30203 -0.03412
 C255 C 0.29929 1.33861 -0.03289
 C256 C 0.33366 1.33964 0.00598
 C257 C 0.33040 1.30313 0.04321
 N258 N 0.29470 1.26740 0.04098
 C259 C 0.22257 1.22669 0.00349
 N260 N 0.23364 1.18025 0.02090
 C261 C 0.19985 1.14252 0.02093
 C262 C 0.15163 1.15099 0.00335
 C263 C 0.13953 1.19884 -0.01407
 C264 C 0.17475 1.23659 -0.01413
 H265 H 0.30079 1.36610 -0.06234
 H266 H 0.35686 1.30236 0.07335
 H267 H 0.21048 1.10629 0.03516
 H268 H 0.10280 1.20714 -0.02799
 H269 H 0.23703 1.30138 -0.06489
 H270 H 0.16433 1.27334 -0.02714
 C271 C 0.25288 0.72616 -0.00193
 C272 C 0.24697 0.68015 -0.02585
 C273 C 0.28460 0.64454 -0.02318
 C274 C 0.32861 0.65419 0.00338
 C275 C 0.33274 0.70133 0.02639
 N276 N 0.29566 0.73534 0.02289
 C277 C 0.21456 0.76559 -0.00336
 N278 N 0.22844 0.81379 0.00441
 C279 C 0.19540 0.85205 0.00482
 C280 C 0.14473 0.84273 -0.00230
 C281 C 0.12961 0.79323 -0.01016
 C282 C 0.16424 0.75468 -0.01066
 H283 H 0.27798 0.60897 -0.04077
 H284 H 0.36611 0.71258 0.04542
 H285 H 0.20877 0.88954 0.01125
 H286 H 0.09092 0.78411 -0.01569
 H287 H 0.21402 0.67164 -0.04700
 H288 H 0.15132 0.71684 -0.01551
 C289 C -0.27119 0.74201 0.00373
 C290 C -0.31957 0.75218 -0.01248
 C291 C -0.35449 0.71406 -0.01338
 C292 C -0.34151 0.66557 0.00130
 C293 C -0.29273 0.65676 0.01702
 N294 N -0.25918 0.69462 0.01756
 C295 C -0.23257 0.78111 0.00458
 N296 N -0.18411 0.76747 0.00118
 C297 C -0.14673 0.80143 0.00048
 C298 C -0.15727 0.85269 0.00313
 C299 C -0.20693 0.86744 0.00780
 C300 C -0.24453 0.83192 0.00878
 H301 H -0.39185 0.72267 -0.02527
 H302 H -0.28110 0.61978 0.02818
 H303 H -0.10895 0.78828 -0.00265
 H304 H -0.21686 0.90645 0.01086
 H305 H -0.33042 0.78883 -0.02525
 H306 H -0.28235 0.84438 0.01339
 C307 C -0.25598 1.27421 -0.01183
 C308 C -0.24746 1.32320 -0.02854
 C309 C -0.28530 1.35854 -0.02527
 C310 C -0.33156 1.34522 -0.00565
 C311 C -0.33890 1.29563 0.00942
 N312 N -0.30153 1.26198 0.00602
 C313 C -0.21732 1.23514 -0.01271
 N314 N -0.23153 1.18647 -0.00988
 C315 C -0.19843 1.14832 -0.00842
 C316 C -0.14739 1.15821 -0.00921
 C317 C -0.13191 1.20816 -0.01217
 C318 C -0.16659 1.24661 -0.01379
 H319 H -0.27818 1.39637 -0.03745
 H320 H -0.37441 1.28344 0.02361
 H321 H -0.21213 1.11046 -0.00610
 H322 H -0.09294 1.21773 -0.01269
 H323 H -0.21235 1.33432 -0.04437
 H324 H -0.15343 1.28467 -0.01448
 C325 C 0.01516 1.26498 0.26326
 C326 C 0.04638 1.26008 0.30440
 C327 C 0.04738 1.29730 0.34027
 C328 C 0.01735 1.34024 0.33583
 C329 C -0.01263 1.34390 0.29300
 N330 N -0.01273 1.30697 0.25843
 C331 C 0.01191 1.22545 0.22520
 N332 N 0.00129 1.23793 0.17740
 C333 C -0.00193 1.20321 0.14078
 C334 C 0.00521 1.15239 0.15157
 C335 C 0.01538 1.13880 0.20081
 C336 C 0.01872 1.17503 0.23756
 H337 H 0.07019 1.29060 0.37252
 H338 H -0.03510 1.37649 0.28591
 H339 H -0.01030 1.21534 0.10342
 H340 H 0.02099 1.10012 0.21103
 H341 H 0.06999 1.22779 0.30906
 H342 H 0.02576 1.16341 0.27535
 C343 C 0.01449 1.26970 -0.25931
 C344 C 0.05684 1.27776 -0.28823
 C345 C 0.05708 1.31599 -0.32340
 C346 C 0.01474 1.34599 -0.33086
 C347 C -0.02648 1.33707 -0.29979
 N348 N -0.02538 1.30007 -0.26528
 C349 C 0.01215 1.22890 -0.22259
 N350 N -0.01227 1.23633 -0.17906
 C351 C -0.01589 1.20015 -0.14383
 C352 C 0.00495 1.15289 -0.15202
 C353 C 0.02934 1.14412 -0.19708
 C354 C 0.03337 1.18212 -0.23227
 H355 H 0.08968 1.31978 -0.34642
 H356 H -0.05932 1.36006 -0.30185
 H357 H -0.03538 1.20819 -0.10968
 H358 H 0.04600 1.10819 -0.20474
 H359 H 0.08948 1.25470 -0.28379
 H360 H 0.05214 1.17473 -0.26697
 C361 C -0.00146 0.73093 -0.25991
 C362 C -0.02673 0.68558 -0.25421
 C363 C -0.02518 0.65018 -0.29201
 C364 C 0.00160 0.65935 -0.33604
 C365 C 0.02581 0.70595 -0.34011
 N366 N 0.02340 0.73982 -0.30281
 C367 C -0.00163 0.76981 -0.22105
 N368 N 0.00589 0.81830 -0.23429
 C369 C 0.00652 0.85598 -0.20059
 C370 C -0.00032 0.84573 -0.14998
 C371 C -0.00735 0.79584 -0.13554
 C372 C -0.00796 0.75794 -0.17076
 H373 H -0.04368 0.61504 -0.28541
 H374 H 0.04509 0.71683 -0.37352
 H375 H 0.01248 0.89378 -0.21343
 H376 H -0.01242 0.78590 -0.09693
 H377 H -0.04802 0.67743 -0.22119
 H378 H -0.01243 0.71982 -0.15839
 C379 C -0.01111 0.72899 0.25687
 C380 C -0.04788 0.69200 0.25926
 C381 C -0.04501 0.65508 0.29565
 C382 C -0.00547 0.65468 0.32933
 C383 C 0.03066 0.69211 0.32553
 N384 N 0.02677 0.72808 0.29016
 C385 C -0.01289 0.76934 0.21957
 N386 N 0.00618 0.81492 0.23104
 C387 C 0.00660 0.85337 0.19805
 C388 C -0.01199 0.84660 0.14996
 C389 C -0.03169 0.79986 0.13740
 C390 C -0.03239 0.76129 0.17206
 H391 H -0.07370 0.62691 0.29759
 H392 H 0.06126 0.69349 0.35142
 H393 H 0.02257 0.88870 0.20902
 H394 H -0.04639 0.79302 0.10067
 H395 H -0.07912 0.69216 0.23413
 H396 H -0.04681 0.72526 0.16124
   
