data_POSCAR
  _audit_creation_date              2014-09-24
  _audit_creation_method            'ToBaCCo'
  _symmetry_space_group_name_H-M    'P1'
  _symmetry_Int_Tables_number       1
  _symmetry_cell_setting            triclinic
  loop_
  _symmetry_equiv_pos_as_xyz
 x,y,z
_cell_length_a 32.4983
_cell_length_b 32.5352
_cell_length_c 32.5471
_cell_angle_alpha 89.745100
_cell_angle_beta 90.053400
_cell_angle_gamma 89.983500
loop_
  _atom_site_label
  _atom_site_type_symbol
  _atom_site_fract_x
  _atom_site_fract_y
  _atom_site_fract_z
C1 C 0.19840 0.14565 0.19741
 C2 C 0.18442 0.13186 0.23590
 C3 C 0.15169 0.15180 0.25646
 C4 C 0.13355 0.18633 0.23699
 C5 C 0.14680 0.19999 0.19828
 C6 C 0.17920 0.17945 0.17835
 C7 C 0.23165 0.12617 0.17798
 C8 C 0.24616 0.13963 0.13918
 C9 C 0.22536 0.17279 0.12006
 C10 C 0.19256 0.19288 0.13944
 C11 C 0.17311 0.22645 0.12046
 C12 C 0.14114 0.24779 0.14032
 C13 C 0.12835 0.23428 0.17945
 H14 H 0.19863 0.10465 0.24870
 H15 H 0.10958 0.20359 0.25219
 H16 H 0.24698 0.10169 0.19451
 H17 H 0.23412 0.18299 0.08963
 H18 H 0.18304 0.23601 0.09013
 H19 H 0.10446 0.25069 0.19574
 C20 C -0.20512 0.84916 0.20292
 C21 C -0.18842 0.86521 0.23926
 C22 C -0.15781 0.84371 0.26163
 C23 C -0.14367 0.80594 0.24557
 C24 C -0.15973 0.78993 0.20895
 C25 C -0.19061 0.81156 0.18759
 C26 C -0.23644 0.87025 0.18195
 C27 C -0.25481 0.85398 0.14612
 C28 C -0.23904 0.81647 0.13075
 C29 C -0.20711 0.79545 0.15104
 C30 C -0.19189 0.75818 0.13552
 C31 C -0.16117 0.73598 0.15673
 C32 C -0.14572 0.75218 0.19378
 H33 H -0.19909 0.89501 0.24921
 H34 H -0.12104 0.78792 0.26213
 H35 H -0.24607 0.89976 0.19373
 H36 H -0.25239 0.80205 0.10405
 H37 H -0.20386 0.74695 0.10665
 H38 H -0.12290 0.73527 0.21123
 C39 C -0.20190 0.14769 -0.20221
 C40 C -0.18451 0.13041 -0.23768
 C41 C -0.15224 0.15040 -0.25869
 C42 C -0.13637 0.18713 -0.24234
 C43 C -0.15258 0.20400 -0.20629
 C44 C -0.18565 0.18441 -0.18629
 C45 C -0.23623 0.12948 -0.18336
 C46 C -0.25588 0.14811 -0.14936
 C47 C -0.23756 0.18377 -0.13260
 C48 C -0.20294 0.20198 -0.15084
 C49 C -0.18641 0.23853 -0.13505
 C50 C -0.15373 0.25875 -0.15514
 C51 C -0.13707 0.24101 -0.19082
 H52 H -0.19672 0.10170 -0.24912
 H53 H -0.11202 0.20341 -0.25825
 H54 H -0.24732 0.10079 -0.19577
 H55 H -0.25151 0.19927 -0.10679
 H56 H -0.19934 0.25116 -0.10719
 H57 H -0.11252 0.25644 -0.20726
 C58 C 0.19463 0.85755 -0.19849
 C59 C 0.17427 0.87696 -0.23118
 C60 C 0.14022 0.85844 -0.25084
 C61 C 0.12597 0.82032 -0.23520
 C62 C 0.14603 0.80064 -0.20228
 C63 C 0.18090 0.81900 -0.18438
 C64 C 0.22867 0.87623 -0.17976
 C65 C 0.25024 0.85635 -0.14782
 C66 C 0.23697 0.81717 -0.13486
 C67 C 0.20218 0.79874 -0.15246
 C68 C 0.18852 0.76025 -0.13865
 C69 C 0.15311 0.74186 -0.15547
 C70 C 0.13200 0.76255 -0.18733
 H71 H 0.18494 0.90700 -0.24082
 H72 H 0.10056 0.80446 -0.24956
 H73 H 0.23818 0.90649 -0.19002
 H74 H 0.25372 0.80065 -0.11124
 H75 H 0.20573 0.74455 -0.11477
 H76 H 0.10435 0.74946 -0.20037
 C77 C 0.14251 1.19883 0.79966
 C78 C 0.12541 1.18171 0.76397
 C79 C 0.14520 1.14923 0.74297
 C80 C 0.18170 1.13301 0.76039
 C81 C 0.19857 1.14930 0.79649
 C82 C 0.17906 1.18247 0.81605
 C83 C 0.12417 1.23310 0.81826
 C84 C 0.14269 1.25276 0.85231
 C85 C 0.17831 1.23442 0.86947
 C86 C 0.19655 1.19978 0.85157
 C87 C 0.23313 1.18336 0.86770
 C88 C 0.25354 1.15079 0.84788
 C89 C 0.23568 1.13389 0.81230
 H90 H 0.09652 1.19409 0.75307
 H91 H 0.19849 1.10883 0.74502
 H92 H 0.09551 1.24421 0.80554
 H93 H 0.19378 1.24837 0.89533
 H94 H 0.24570 1.19638 0.89556
 H95 H 0.25119 1.10935 0.79612
 C96 C 0.84319 0.79295 0.79033
 C97 C 0.86207 0.81245 0.75679
 C98 C 0.84386 0.84698 0.73743
 C99 C 0.80784 0.86357 0.75524
 C100 C 0.78900 0.84470 0.78918
 C101 C 0.80625 0.80873 0.80615
 C102 C 0.86043 0.75727 0.80759
 C103 C 0.84052 0.73579 0.83981
 C104 C 0.80326 0.75217 0.85503
 C105 C 0.78628 0.78829 0.83863
 C106 C 0.74899 0.80366 0.85370
 C107 C 0.73174 0.84012 0.83773
 C108 C 0.75241 0.86062 0.80558
 H109 H 0.89108 0.80024 0.74616
 H110 H 0.79268 0.88985 0.74147
 H111 H 0.88976 0.74701 0.79583
 H112 H 0.78628 0.73621 0.87882
 H113 H 0.73321 0.78674 0.87767
 H114 H 0.74034 0.88906 0.79313
 C115 C 0.14615 0.79809 1.19979
 C116 C 0.12639 0.81804 1.23240
 C117 C 0.14461 0.85207 1.25195
 C118 C 0.18308 0.86619 1.23773
 C119 C 0.20285 0.84700 1.20463
 C120 C 0.18442 0.81265 1.18585
 C121 C 0.12806 0.76373 1.18106
 C122 C 0.14705 0.74380 1.14738
 C123 C 0.18543 0.75930 1.13389
 C124 C 0.20428 0.79287 1.15312
 C125 C 0.24275 0.80700 1.13977
 C126 C 0.26140 0.84174 1.15762
 C127 C 0.24080 0.86167 1.19005
 H128 H 0.09648 0.80718 1.24226
 H129 H 0.19826 0.89164 1.25273
 H130 H 0.09959 0.75254 1.19396
 H131 H 0.20064 0.74630 1.10747
 H132 H 0.25827 0.79042 1.11557
 H133 H 0.25369 0.88897 1.20385
 C134 C 0.85970 1.19214 1.19032
 C135 C 0.87829 1.17332 1.22443
 C136 C 0.85890 1.14064 1.24561
 C137 C 0.82025 1.12701 1.23107
 C138 C 0.80146 1.14553 1.19685
 C139 C 0.82114 1.17828 1.17647
 C140 C 0.87907 1.22496 1.17014
 C141 C 0.85986 1.24540 1.13704
 C142 C 0.82131 1.23106 1.12329
 C143 C 0.80211 1.19741 1.14247
 C144 C 0.76388 1.18298 1.12850
 C145 C 0.74369 1.15036 1.14879
 C146 C 0.76283 1.13214 1.18320
 H147 H 0.90843 1.18391 1.23386
 H148 H 0.80350 1.10311 1.24708
 H149 H 0.90915 1.23474 1.18057
 H150 H 0.80548 1.24656 1.09840
 H151 H 0.75028 1.19709 1.10155
 H152 H 0.74748 1.10767 1.19985
 N153 N 0.54197 1.07381 0.95583
 N154 N 0.57378 1.09863 0.95122
 N155 N 0.45525 1.04516 0.92691
 N156 N 0.42419 1.05025 0.90128
 N157 N 0.45531 1.07396 0.95500
 N158 N 0.42447 1.09975 0.94899
 N159 N 0.54185 1.04551 0.92717
 N160 N 0.57338 1.05047 0.90214
 C161 C 0.59304 1.08369 0.91754
 C162 C 0.40527 1.08440 0.91544
 N163 N 0.45501 0.92859 0.95554
 N164 N 0.42152 0.90582 0.95244
 N165 N 0.54173 0.95691 0.92670
 N166 N 0.57023 0.94928 0.89889
 N167 N 0.54183 0.92846 0.95542
 N168 N 0.57067 0.90091 0.94816
 N169 N 0.45550 0.95698 0.92672
 N170 N 0.42266 0.95409 0.90309
 Mn171 Mn 0.49863 1.00119 0.92643
 C172 C 0.40189 0.92187 0.91928
 C173 C 0.58828 0.91444 0.91294
 N174 N 0.45451 1.07322 1.04356
 N175 N 0.42030 1.09503 1.04519
 N176 N 0.54130 1.04499 1.07247
 N177 N 0.57239 1.05013 1.09801
 N178 N 0.54107 1.07394 1.04428
 N179 N 0.57175 1.09987 1.05010
 N180 N 0.45440 1.04439 1.07198
 N181 N 0.42001 1.04577 1.09351
 Mn182 Mn 0.49823 1.07428 0.99969
 C183 C 0.39927 1.07784 1.07677
 C184 C 0.59106 1.08449 1.08369
 N185 N 0.54237 0.92844 1.04384
 N186 N 0.57614 0.90598 1.04654
 N187 N 0.45555 0.95586 1.07284
 N188 N 0.42676 0.94811 1.10042
 N189 N 0.45551 0.92776 1.04406
 N190 N 0.42644 0.90030 1.05103
 N191 N 0.54195 0.95665 1.07260
 N192 N 0.57518 0.95392 1.09578
 Mn193 Mn 0.49866 0.92780 0.99972
 Mn194 Mn 0.49829 1.00055 1.07297
 Cl195 Cl 0.49846 1.00090 0.99971
 C196 C 0.59608 0.92198 1.07936
 C197 C 0.40864 0.91351 1.08618
 N198 N 0.04240 0.45622 0.07108
 N199 N 0.04457 0.42220 0.09331
 N200 N 0.07150 0.54284 0.04289
 N201 N 0.09535 0.57544 0.04621
 N202 N 0.04248 0.54329 0.07094
 N203 N 0.04562 0.57653 0.09389
 N204 N 0.07125 0.45653 0.04287
 N205 N 0.09399 0.42303 0.04538
 C206 C 0.07719 0.40204 0.07717
 C207 C 0.07901 0.59605 0.07830
 N208 N 0.04359 0.54361 -0.07430
 N209 N 0.05036 0.57367 -0.10083
 N210 N 0.07145 0.45671 -0.04545
 N211 N 0.09563 0.42437 -0.04956
 N212 N 0.04325 0.45728 -0.07434
 N213 N 0.04756 0.42551 -0.09901
 N214 N 0.07179 0.54344 -0.04540
 N215 N 0.09825 0.57366 -0.05118
 Mn216 Mn 0.07199 0.49988 -0.00124
 C217 C 0.08444 0.59228 -0.08582
 C218 C 0.08036 0.40526 -0.08318
 N219 N -0.04619 0.54301 0.07072
 N220 N -0.05315 0.57241 0.09764
 N221 N -0.07413 0.45608 0.04154
 N222 N -0.09544 0.42154 0.04286
 N223 N -0.04608 0.45650 0.07063
 N224 N -0.04787 0.42245 0.09270
 N225 N -0.07492 0.54277 0.04235
 N226 N -0.10234 0.57190 0.04931
 Mn227 Mn -0.00181 0.49984 0.07140
 C228 C -0.08818 0.59032 0.08378
 C229 C -0.07900 0.40111 0.07528
 N230 N -0.04499 0.45734 -0.07483
 N231 N -0.05033 0.42680 -0.10081
 N232 N -0.07393 0.54364 -0.04617
 N233 N -0.10060 0.57354 -0.05266
 N234 N -0.04532 0.54374 -0.07467
 N235 N -0.05191 0.57359 -0.10146
 N236 N -0.07405 0.45737 -0.04686
 N237 N -0.10028 0.42710 -0.05332
 Mn238 Mn -0.00086 0.50056 -0.07502
 Mn239 Mn -0.07476 0.49999 -0.00225
 Cl240 Cl -0.00138 0.50015 -0.00177
 C241 C -0.08491 0.40821 -0.08696
 C242 C -0.08636 0.59205 -0.08715
 N243 N 1.04316 -0.07289 0.45598
 N244 N 1.04570 -0.09609 0.42296
 N245 N 1.07118 -0.04390 0.54209
 N246 N 1.09382 -0.04632 0.57570
 N247 N 1.04222 -0.07203 0.54256
 N248 N 1.04426 -0.09417 0.57661
 N249 N 1.07147 -0.04409 0.45528
 N250 N 1.09380 -0.04675 0.42149
 C251 C 1.07761 -0.07965 0.40190
 C252 C 1.07688 -0.07804 0.59677
 N253 N 1.04277 0.07319 0.54080
 N254 N 1.04744 0.09849 0.57204
 N255 N 1.07211 0.04451 0.45492
 N256 N 1.09875 0.05074 0.42490
 N257 N 1.04335 0.07285 0.45437
 N258 N 1.04943 0.09894 0.42383
 N259 N 1.07122 0.04453 0.54142
 N260 N 1.09591 0.04944 0.57325
 Mn261 Mn 1.07206 0.00019 0.49839
 C262 C 1.08068 0.08324 0.59204
 C263 C 1.08404 0.08471 0.40566
 N264 N 0.95374 -0.07198 0.54138
 N265 N 0.94763 -0.09774 0.57216
 N266 N 0.92604 -0.04423 0.45463
 N267 N 0.89948 -0.05092 0.42472
 N268 N 0.95466 -0.07270 0.45505
 N269 N 0.94844 -0.09947 0.42532
 N270 N 0.92545 -0.04316 0.54102
 N271 N 0.89948 -0.04834 0.57176
 Mn272 Mn 0.99853 -0.07291 0.49877
 C273 C 0.91380 -0.08249 0.59092
 C274 C 0.91398 -0.08534 0.40654
 N275 N 0.95488 0.07294 0.45354
 N276 N 0.95274 0.09553 0.41983
 N277 N 0.92537 0.04512 0.53975
 N278 N 0.89974 0.05042 0.57071
 N279 N 0.95433 0.07322 0.54013
 N280 N 0.94942 0.09823 0.57154
 N281 N 0.92651 0.04420 0.45323
 N282 N 0.90450 0.04632 0.41919
 Mn283 Mn 0.99879 0.07356 0.49722
 Mn284 Mn 0.92534 0.00053 0.49714
 Cl285 Cl 0.99869 0.00035 0.49785
 C286 C 0.92094 0.07878 0.39888
 C287 C 0.91521 0.08364 0.59029
 C288 C 1.09905 0.15078 0.31126
 C289 C 1.13738 0.13802 0.29556
 C290 C 1.16070 0.11132 0.32135
 C291 C 1.14395 0.09475 0.35778
 C292 C 1.10371 0.10468 0.37001
 C293 C 1.08288 0.13468 0.34739
 C294 C 1.04008 0.13409 0.33103
 C295 C 1.05744 0.15143 0.29134
 H296 H 1.19183 0.10255 0.31390
 H297 H 1.16213 0.07324 0.37566
 H298 H 1.01992 0.15606 0.34748
 H299 H 1.02751 0.10247 0.32787
 H300 H 1.04642 0.18315 0.28485
 H301 H 1.05514 0.12983 0.26505
 C302 C 0.89497 -0.15581 0.31647
 C303 C 0.85782 -0.14108 0.29952
 C304 C 0.83647 -0.11127 0.32314
 C305 C 0.85417 -0.09398 0.35857
 C306 C 0.89353 -0.10605 0.37191
 C307 C 0.91223 -0.13879 0.35160
 C308 C 0.95502 -0.14249 0.33560
 C309 C 0.93643 -0.16091 0.29704
 H310 H 0.80607 -0.10074 0.31477
 H311 H 0.83745 -0.07024 0.37475
 H312 H 0.97360 -0.16483 0.35369
 H313 H 0.96992 -0.11215 0.33029
 H314 H 0.94488 -0.19374 0.29289
 H315 H 0.94045 -0.14125 0.26929
 C316 C 0.90297 0.14551 0.68715
 C317 C 0.86369 0.13455 0.70138
 C318 C 0.83921 0.11036 0.67482
 C319 C 0.85565 0.09411 0.63827
 C320 C 0.89661 0.10241 0.62686
 C321 C 0.91886 0.13015 0.65079
 C322 C 0.96116 0.12633 0.66830
 C323 C 0.94378 0.14307 0.70820
 H324 H 0.80760 0.10322 0.68229
 H325 H 0.83659 0.07439 0.61947
 H326 H 0.98327 0.14763 0.65319
 H327 H 0.97167 0.09387 0.67070
 H328 H 0.95609 0.17392 0.71606
 H329 H 0.94409 0.12032 0.73380
 C330 C 1.14279 -0.09228 0.69131
 C331 C 1.12165 -0.12239 0.71435
 C332 C 1.08150 -0.13254 0.70037
 C333 C 1.06624 -0.11718 0.66275
 C334 C 1.09040 -0.09107 0.63806
 C335 C 1.12762 -0.07723 0.65425
 C336 C 1.16909 -0.07655 0.63472
 C337 C 1.18594 -0.09274 0.67511
 H338 H 1.06160 -0.15269 0.71778
 H339 H 1.03610 -0.12690 0.65241
 H340 H 1.17963 -0.04491 0.62736
 H341 H 1.17188 -0.09887 0.60909
 H342 H 1.20606 -0.07015 0.69093
 H343 H 1.19883 -0.12432 0.67289
 C344 C 0.30231 1.14079 1.08786
 C345 C 0.28086 1.12101 1.12000
 C346 C 0.29628 1.08184 1.13203
 C347 C 0.33408 1.06695 1.11693
 C348 C 0.35745 1.09035 1.08901
 C349 C 0.33938 1.12582 1.07286
 C350 C 0.35717 1.16766 1.06732
 C351 C 0.31689 1.18434 1.08389
 H352 H 0.28003 1.06245 1.15358
 H353 H 0.34567 1.03787 1.12841
 H354 H 0.36230 1.17527 1.03439
 H355 H 0.38387 1.17343 1.08790
 H356 H 0.29930 1.20200 1.06043
 H357 H 0.32016 1.19980 1.11413
 C358 C 0.30960 0.90632 0.85067
 C359 C 0.28636 0.87666 0.87182
 C360 C 0.29874 0.86730 0.91249
 C361 C 0.33600 0.88261 0.92835
 C362 C 0.36126 0.90841 0.90451
 C363 C 0.34593 0.92194 0.86669
 C364 C 0.36621 0.92293 0.82558
 C365 C 0.32643 0.90587 0.80799
 H366 H 0.28064 0.84707 0.93175
 H367 H 0.34577 0.87305 0.95860
 H368 H 0.39253 0.90119 0.82344
 H369 H 0.37291 0.95480 0.81513
 H370 H 0.32962 0.87424 0.79557
 H371 H 0.31031 0.92802 0.78745
 C372 C 0.68882 0.90522 1.14748
 C373 C 0.71154 0.87463 1.12684
 C374 C 0.69838 0.86557 1.08620
 C375 C 0.66149 0.88189 1.07024
 C376 C 0.63690 0.90833 1.09380
 C377 C 0.65269 0.92156 1.13134
 C378 C 0.63215 0.92325 1.17220
 C379 C 0.67139 0.90538 1.19012
 H380 H 0.71565 0.84540 1.06641
 H381 H 0.65144 0.87254 1.04007
 H382 H 0.60536 0.90211 1.17449
 H383 H 0.62612 0.95530 1.18220
 H384 H 0.66739 0.87390 1.20296
 H385 H 0.68760 0.92730 1.21063
 C386 C 0.69008 1.14637 0.90423
 C387 C 0.70593 1.13311 0.86619
 C388 C 0.68006 1.10660 0.84307
 C389 C 0.64302 1.09124 0.85938
 C390 C 0.63014 1.10205 0.89909
 C391 C 0.65326 1.13138 0.92008
 C392 C 0.66929 1.13012 0.96298
 C393 C 0.70966 1.14626 0.94594
 H394 H 0.68757 1.09752 0.81211
 H395 H 0.62489 1.07019 0.84110
 H396 H 0.67153 1.09832 0.97549
 H397 H 0.65331 1.15246 0.98320
 H398 H 0.73538 1.12384 0.94847
 H399 H 0.71693 1.17774 0.95690
 C400 C 0.14387 0.30830 0.09183
 C401 C 0.12187 0.28441 0.12028
 C402 C 0.08112 0.29700 0.12907
 C403 C 0.06586 0.33490 0.11430
 C404 C 0.09076 0.36070 0.08991
 C405 C 0.12867 0.34530 0.07694
 C406 C 0.17013 0.36502 0.07761
 C407 C 0.18685 0.32444 0.09379
 H408 H 0.06139 0.27851 0.14849
 H409 H 0.03524 0.34457 0.12316
 H410 H 0.17221 0.39044 0.10024
 H411 H 0.18134 0.37275 0.04628
 H412 H 0.19876 0.32630 0.12577
 H413 H 0.20757 0.30883 0.07162
 C414 C -0.09785 0.31222 -0.14990
 C415 C -0.13779 0.29899 -0.14014
 C416 C -0.16247 0.32636 -0.11714
 C417 C -0.14563 0.36249 -0.10036
 C418 C -0.10405 0.37262 -0.10700
 C419 C -0.08154 0.34819 -0.13405
 C420 C -0.03979 0.32970 -0.12901
 C421 C -0.05764 0.29020 -0.14628
 H422 H -0.19449 0.31968 -0.11108
 H423 H -0.16483 0.38184 -0.08133
 H424 H -0.03028 0.32704 -0.09627
 H425 H -0.01673 0.34429 -0.14963
 H426 H -0.05860 0.26458 -0.12356
 H427 H -0.04464 0.28206 -0.17676
 C428 C 0.14909 0.68747 -0.10004
 C429 C 0.13876 0.70108 -0.13975
 C430 C 0.11497 0.67398 -0.16403
 C431 C 0.09793 0.63791 -0.14691
 C432 C 0.10505 0.62755 -0.10545
 C433 C 0.13299 0.65156 -0.08349
 C434 C 0.12924 0.66976 -0.04165
 C435 C 0.14676 0.70919 -0.05973
 H436 H 0.10831 0.68095 -0.19585
 H437 H 0.07822 0.61889 -0.16576
 H438 H 0.15019 0.65474 -0.01912
 H439 H 0.09674 0.67274 -0.03142
 H440 H 0.17770 0.71685 -0.04736
 H441 H 0.12441 0.73508 -0.06012
 C442 C -0.10657 0.68095 0.15326
 C443 C -0.14512 0.69598 0.14080
 C444 C -0.16779 0.67103 0.11329
 C445 C -0.14983 0.63595 0.09524
 C446 C -0.10916 0.62440 0.10495
 C447 C -0.08930 0.64603 0.13614
 C448 C -0.04702 0.66370 0.13718
 C449 C -0.06582 0.70209 0.15575
 H450 H -0.19890 0.67894 0.10454
 H451 H -0.16729 0.61875 0.07278
 H452 H -0.03407 0.66878 0.10595
 H453 H -0.02675 0.64673 0.15894
 H454 H -0.06393 0.72948 0.13528
 H455 H -0.05586 0.70731 0.18799
 C456 C 1.14453 0.09703 0.68801
 C457 C 1.13025 0.13433 0.70463
 C458 C 1.10224 0.15703 0.67974
 C459 C 1.08670 0.14087 0.64277
 C460 C 1.09879 0.10177 0.62910
 C461 C 1.12933 0.08137 0.65136
 C462 C 1.12996 0.03819 0.66677
 C463 C 1.14632 0.05502 0.70699
 H464 H 1.09204 0.18746 0.68800
 H465 H 1.06452 0.15872 0.62537
 H466 H 1.15278 0.01919 0.65006
 H467 H 1.09869 0.02455 0.66938
 H468 H 1.17835 0.04490 0.71349
 H469 H 1.12450 0.05133 0.73304
 C470 C 0.84748 -0.09790 0.68492
 C471 C 0.85987 -0.13664 0.70009
 C472 C 0.88685 -0.15946 0.67447
 C473 C 0.90372 -0.14218 0.63859
 C474 C 0.89389 -0.10183 0.62664
 C475 C 0.86393 -0.08110 0.64919
 C476 C 0.86507 -0.03875 0.66641
 C477 C 0.84732 -0.05686 0.70563
 H478 H 0.89523 -0.19086 0.68133
 H479 H 0.92516 -0.16023 0.62068
 H480 H 0.84349 -0.01765 0.65024
 H481 H 0.89693 -0.02683 0.67012
 H482 H 0.81567 -0.04565 0.71207
 H483 H 0.86886 -0.05553 0.73215
 C484 C 1.09460 -0.14913 0.31119
 C485 C 1.12342 -0.12768 0.28721
 C486 C 1.13123 -0.08634 0.29826
 C487 C 1.11548 -0.06999 0.33511
 C488 C 1.09084 -0.09424 0.36125
 C489 C 1.07853 -0.13275 0.34701
 C490 C 1.07877 -0.17340 0.36841
 C491 C 1.09640 -0.19142 0.32921
 H492 H 1.15065 -0.06690 0.27950
 H493 H 1.12380 -0.03898 0.34379
 H494 H 1.04717 -0.18447 0.37534
 H495 H 1.10057 -0.17441 0.39476
 H496 H 1.07487 -0.21293 0.31374
 H497 H 1.12845 -0.20290 0.33274
 C498 C 0.90792 0.14377 0.30341
 C499 C 0.87771 0.12259 0.28076
 C500 C 0.86711 0.08276 0.29529
 C501 C 0.88213 0.06784 0.33311
 C502 C 0.90825 0.09208 0.35748
 C503 C 0.92255 0.12898 0.34080
 C504 C 0.92317 0.17068 0.35963
 C505 C 0.90754 0.18707 0.31883
 H506 H 0.84691 0.06285 0.27805
 H507 H 0.87211 0.03792 0.34384
 H508 H 0.95477 0.18120 0.36712
 H509 H 0.90052 0.17389 0.38501
 H510 H 0.93044 0.20678 0.30279
 H511 H 0.87598 0.20018 0.32057
 C512 C 0.14137 0.30713 -0.09476
 C513 C 0.12775 0.29102 -0.13256
 C514 C 0.10117 0.31679 -0.15600
 C515 C 0.08634 0.35419 -0.14029
 C516 C 0.09779 0.36754 -0.10091
 C517 C 0.12693 0.34430 -0.07954
 C518 C 0.12561 0.32885 -0.03641
 C519 C 0.14109 0.28808 -0.05276
 H520 H 0.09169 0.30902 -0.18679
 H521 H 0.06530 0.37229 -0.15880
 H522 H 0.09383 0.32729 -0.02385
 H523 H 0.14834 0.34473 -0.01654
 H524 H 0.11826 0.26279 -0.04987
 H525 H 0.17252 0.28046 -0.04156
 C526 C -0.09155 0.30575 0.14001
 C527 C -0.12017 0.28218 0.11797
 C528 C -0.12931 0.29549 0.07748
 C529 C -0.11505 0.33379 0.06279
 C530 C -0.09068 0.35921 0.08791
 C531 C -0.07696 0.34298 0.12524
 C532 C -0.07652 0.36181 0.16695
 C533 C -0.09266 0.32106 0.18323
 H534 H -0.14869 0.27736 0.05753
 H535 H -0.12439 0.34409 0.03250
 H536 H -0.09891 0.38747 0.16997
 H537 H -0.04475 0.36883 0.17748
 H538 H -0.12447 0.32299 0.19565
 H539 H -0.07017 0.30489 0.20336
 C540 C -0.15701 0.68218 -0.10622
 C541 C -0.14342 0.69831 -0.14412
 C542 C -0.11411 0.67421 -0.16569
 C543 C -0.09622 0.63907 -0.14768
 C544 C -0.10726 0.62654 -0.10781
 C545 C -0.13949 0.64732 -0.08871
 C546 C -0.14178 0.66420 -0.04627
 C547 C -0.16076 0.70250 -0.06515
 H548 H -0.10446 0.68192 -0.19651
 H549 H -0.07294 0.62241 -0.16461
 H550 H -0.11092 0.66962 -0.03252
 H551 H -0.16353 0.64662 -0.02657
 H552 H -0.14094 0.73021 -0.06242
 H553 H -0.19333 0.70701 -0.05579
 C554 C 0.15003 0.68547 0.09858
 C555 C 0.12829 0.70964 0.12726
 C556 C 0.08651 0.69826 0.13385
 C557 C 0.07016 0.66186 0.11723
 C558 C 0.09432 0.63613 0.09257
 C559 C 0.13334 0.65008 0.08155
 C560 C 0.17325 0.62762 0.08242
 C561 C 0.19177 0.66592 0.10131
 H562 H 0.06586 0.71652 0.15218
 H563 H 0.03898 0.65324 0.12472
 H564 H 0.18493 0.62122 0.05100
 H565 H 0.17292 0.60075 0.10365
 H566 H 0.21463 0.68087 0.08073
 H567 H 0.20217 0.66136 0.13358
 C568 C 0.30814 1.09586 0.85309
 C569 C 0.29417 1.13542 0.86298
 C570 C 0.32129 1.16043 0.88605
 C571 C 0.35792 1.14420 0.90272
 C572 C 0.36889 1.10294 0.89586
 C573 C 0.34462 1.08019 0.86881
 C574 C 0.32700 1.03811 0.87374
 C575 C 0.28696 1.05524 0.85664
 H576 H 0.31407 1.19225 0.89221
 H577 H 0.37707 1.16362 0.92174
 H578 H 0.32481 1.02828 0.90644
 H579 H 0.34192 1.01559 0.85297
 H580 H 0.26149 1.05553 0.87943
 H581 H 0.27884 1.04228 0.82615
 C582 C 0.31655 0.84528 1.10312
 C583 C 0.30210 0.85673 1.14207
 C584 C 0.32827 0.88242 1.16554
 C585 C 0.36381 0.90020 1.14797
 C586 C 0.37467 0.89184 1.10696
 C587 C 0.35202 0.86193 1.08633
 C588 C 0.33441 0.86264 1.04407
 C589 C 0.29532 0.84478 1.06234
 H590 H 0.32099 0.89015 1.19695
 H591 H 0.38185 0.92152 1.16599
 H592 H 0.35070 0.84086 1.02352
 H593 H 0.33048 0.89436 1.03178
 H594 H 0.28894 0.81308 1.05144
 H595 H 0.26868 0.86620 1.06097
 C596 C 0.68894 1.09563 1.14464
 C597 C 0.70254 1.13544 1.13483
 C598 C 0.67495 1.16066 1.11234
 C599 C 0.63813 1.14448 1.09616
 C600 C 0.62748 1.10306 1.10297
 C601 C 0.65229 1.08003 1.12946
 C602 C 0.67005 1.03814 1.12381
 C603 C 0.71028 1.05518 1.14034
 H604 H 0.68200 1.19255 1.10613
 H605 H 0.61862 1.16405 1.07747
 H606 H 0.67170 1.02892 1.09099
 H607 H 0.65564 1.01518 1.14463
 H608 H 0.73533 1.05601 1.11710
 H609 H 0.71902 1.04168 1.17055
 C610 C 0.67848 0.84449 0.89381
 C611 C 0.69207 0.85604 0.85451
 C612 C 0.66596 0.88257 0.83174
 C613 C 0.63136 0.90098 0.85024
 C614 C 0.62146 0.89248 0.89153
 C615 C 0.64394 0.86185 0.91160
 C616 C 0.66287 0.86178 0.95332
 C617 C 0.70093 0.84305 0.93389
 H618 H 0.67262 0.89037 0.80013
 H619 H 0.61328 0.92282 0.83268
 H620 H 0.64671 0.84029 0.97446
 H621 H 0.66797 0.89329 0.96544
 H622 H 0.70685 0.81108 0.94452
 H623 H 0.72815 0.86376 0.93443
   
