data_POSCAR
  _audit_creation_date              2014-09-24
  _audit_creation_method            'ToBaCCo'
  _symmetry_space_group_name_H-M    'P1'
  _symmetry_Int_Tables_number       1
  _symmetry_cell_setting            triclinic
  loop_
  _symmetry_equiv_pos_as_xyz
 x,y,z
_cell_length_a 27.4615
_cell_length_b 27.4611
_cell_length_c 27.4364
_cell_angle_alpha 89.944000
_cell_angle_beta 90.166000
_cell_angle_gamma 90.000000
loop_
  _atom_site_label
  _atom_site_type_symbol
  _atom_site_fract_x
  _atom_site_fract_y
  _atom_site_fract_z
O1 O -0.12596 0.06568 0.00116
 O2 O 0.12473 0.06570 -0.00202
 O3 O -0.00223 0.12514 0.06542
 O4 O 0.00094 0.12533 -0.06654
 O5 O 0.00084 0.06593 -0.12602
 O6 O -0.00217 0.06562 0.12498
 O7 O 0.06530 0.12521 -0.00213
 O8 O -0.06646 0.12516 0.00121
 Zr9 Zr -0.00060 0.08558 -0.00053
 O10 O 0.04350 0.04410 -0.04469
 O11 O -0.04469 0.04394 0.04363
 C12 C -0.11133 0.11055 0.00208
 C13 C 0.11019 0.11061 -0.00290
 C14 C -0.00305 0.11052 0.11035
 C15 C 0.00171 0.11086 -0.11152
 H16 H 0.06422 0.06453 0.06443
 O17 O 0.04338 0.04377 0.04361
 H18 H -0.06553 0.06468 -0.06540
 O19 O -0.04473 0.04388 -0.04455
 O20 O 0.12457 -0.06605 0.00148
 O21 O -0.12614 -0.06610 -0.00221
 O22 O 0.06539 -0.00208 0.12505
 O23 O 0.06507 0.00155 -0.12588
 O24 O -0.06671 -0.00178 -0.12597
 O25 O -0.06634 0.00158 0.12493
 O26 O 0.00099 -0.12566 0.06579
 O27 O -0.00267 -0.12542 -0.06618
 O28 O 0.00114 -0.06622 0.12522
 O29 O -0.00266 -0.06590 -0.12576
 O30 O 0.12474 -0.00199 0.06556
 O31 O -0.12591 0.00161 0.06532
 O32 O -0.12607 -0.00192 -0.06654
 O33 O 0.12461 0.00146 -0.06626
 O34 O 0.06508 -0.12552 0.00157
 O35 O -0.06674 -0.12559 -0.00202
 Zr36 Zr 0.08501 -0.00017 -0.00038
 Zr37 Zr -0.08639 -0.00020 -0.00055
 Zr38 Zr -0.00055 -0.00027 0.08538
 Zr39 Zr -0.00078 -0.00004 -0.08624
 Zr40 Zr -0.00079 -0.08592 -0.00026
 O41 O -0.04489 -0.04429 -0.04465
 O42 O 0.04354 -0.04438 0.04386
 C43 C 0.10996 -0.11091 0.00243
 C44 C -0.11167 -0.11105 -0.00294
 C45 C 0.11022 -0.00294 0.11045
 C46 C 0.10999 0.00231 -0.11123
 C47 C -0.11158 -0.00273 -0.11146
 C48 C -0.11123 0.00250 0.11025
 C49 C 0.00190 -0.11118 0.11077
 C50 C -0.00358 -0.11076 -0.11109
 H51 H -0.06544 -0.06500 0.06445
 O52 O -0.04468 -0.04422 0.04365
 H53 H 0.06390 -0.06492 -0.06509
 O54 O 0.04315 -0.04414 -0.04433
 O55 O 0.37476 0.56642 0.00202
 O56 O 0.62551 0.56653 -0.00105
 O57 O 0.49851 0.62592 0.06656
 O58 O 0.50187 0.62581 -0.06530
 O59 O 0.50172 0.56636 -0.12483
 O60 O 0.49855 0.56644 0.12606
 O61 O 0.56604 0.62599 -0.00106
 O62 O 0.43427 0.62588 0.00219
 Zr63 Zr 0.50013 0.58627 0.00060
 O64 O 0.54412 0.54470 -0.04361
 O65 O 0.45594 0.54469 0.04464
 C66 C 0.38939 0.61128 0.00296
 C67 C 0.61096 0.61145 -0.00191
 C68 C 0.49770 0.61138 0.11153
 C69 C 0.50272 0.61118 -0.11017
 H70 H 0.56501 0.56534 0.06551
 O71 O 0.54420 0.54456 0.04468
 H72 H 0.43524 0.56536 -0.06441
 O73 O 0.45605 0.54456 -0.04356
 O74 O 0.62536 0.43471 0.00247
 O75 O 0.37462 0.43465 -0.00140
 O76 O 0.56615 0.49874 0.12609
 O77 O 0.56572 0.50225 -0.12489
 O78 O 0.43388 0.49897 -0.12514
 O79 O 0.43432 0.50227 0.12586
 O80 O 0.50185 0.37524 0.06642
 O81 O 0.49826 0.37517 -0.06541
 O82 O 0.50198 0.43467 0.12596
 O83 O 0.49815 0.43464 -0.12498
 O84 O 0.62552 0.49877 0.06667
 O85 O 0.37477 0.50224 0.06621
 O86 O 0.37451 0.49898 -0.06574
 O87 O 0.62531 0.50234 -0.06529
 O88 O 0.56585 0.37526 0.00239
 O89 O 0.43410 0.37518 -0.00126
 Zr90 Zr 0.58581 0.50061 0.00065
 Zr91 Zr 0.41430 0.50054 0.00032
 Zr92 Zr 0.50018 0.50057 0.08633
 Zr93 Zr 0.49988 0.50051 -0.08529
 Zr94 Zr 0.49999 0.41486 0.00050
 O95 O 0.45572 0.45634 -0.04382
 O96 O 0.54423 0.45642 0.04475
 C97 C 0.61073 0.38985 0.00332
 C98 C 0.38920 0.38975 -0.00219
 C99 C 0.61105 0.49786 0.11161
 C100 C 0.61064 0.50315 -0.11025
 C101 C 0.38895 0.49817 -0.11071
 C102 C 0.38942 0.50311 0.11116
 C103 C 0.50282 0.38981 0.11133
 C104 C 0.49736 0.38973 -0.11037
 H105 H 0.43535 0.43578 0.06524
 O106 O 0.45611 0.45658 0.04447
 H107 H 0.56471 0.43581 -0.06420
 O108 O 0.54398 0.45659 -0.04343
 O109 O -0.12565 0.56605 0.50152
 O110 O 0.12508 0.56594 0.49848
 O111 O -0.00202 0.62532 0.56577
 O112 O 0.00131 0.62558 0.43384
 O113 O 0.00129 0.56613 0.37437
 O114 O -0.00187 0.56583 0.62538
 O115 O 0.06558 0.62541 0.49824
 O116 O -0.06622 0.62551 0.50149
 Zr117 Zr -0.00029 0.58582 0.49987
 O118 O 0.04390 0.54426 0.45588
 O119 O -0.04427 0.54419 0.54413
 C120 C -0.11115 0.61099 0.50233
 C121 C 0.11045 0.61080 0.49749
 C122 C -0.00285 0.61069 0.61068
 C123 C 0.00211 0.61107 0.38888
 H124 H 0.06457 0.56483 0.56491
 O125 O 0.04377 0.54404 0.54409
 H126 H -0.06515 0.56493 0.43498
 O127 O -0.04433 0.54413 0.45582
 O128 O 0.12522 0.43418 0.50201
 O129 O -0.12551 0.43425 0.49811
 O130 O 0.06594 0.49840 0.62575
 O131 O 0.06556 0.50193 0.37470
 O132 O -0.06629 0.49838 0.37443
 O133 O -0.06591 0.50169 0.62545
 O134 O 0.00154 0.37457 0.56614
 O135 O -0.00196 0.37478 0.43420
 O136 O 0.00163 0.43398 0.62566
 O137 O -0.00207 0.43427 0.37461
 O138 O 0.12533 0.49847 0.56631
 O139 O -0.12547 0.50183 0.56582
 O140 O -0.12568 0.49837 0.43388
 O141 O 0.12508 0.50184 0.43438
 O142 O 0.06576 0.37469 0.50192
 O143 O -0.06601 0.37477 0.49824
 Zr144 Zr 0.08553 0.50006 0.50025
 Zr145 Zr -0.08594 0.50013 0.49990
 Zr146 Zr -0.00005 0.49995 0.58589
 Zr147 Zr -0.00032 0.50018 0.41419
 Zr148 Zr -0.00014 0.41435 0.50015
 O149 O -0.04436 0.45599 0.45583
 O150 O 0.04411 0.45581 0.54445
 C151 C 0.11065 0.38927 0.50282
 C152 C -0.11089 0.38938 0.49728
 C153 C 0.11085 0.49764 0.61126
 C154 C 0.11046 0.50276 0.38942
 C155 C -0.11117 0.49750 0.38897
 C156 C -0.11082 0.50263 0.61078
 C157 C 0.00240 0.38906 0.61111
 C158 C -0.00290 0.38938 0.38926
 H159 H -0.06488 0.43527 0.56481
 O160 O -0.04413 0.45607 0.54403
 H161 H 0.06450 0.43538 0.43538
 O162 O 0.04372 0.45615 0.45613
 O163 O 0.37511 0.06523 0.50158
 O164 O 0.62581 0.06521 0.49840
 O165 O 0.49886 0.12475 0.56596
 O166 O 0.50212 0.12468 0.43413
 O167 O 0.50206 0.06524 0.37461
 O168 O 0.49895 0.06527 0.62552
 O169 O 0.56630 0.12467 0.49831
 O170 O 0.43455 0.12472 0.50162
 Zr171 Zr 0.50045 0.08507 0.50005
 O172 O 0.54455 0.04350 0.45594
 O173 O 0.45633 0.04356 0.54423
 C174 C 0.38966 0.11013 0.50243
 C175 C 0.61117 0.11008 0.49747
 C176 C 0.49806 0.11018 0.61091
 C177 C 0.50296 0.11010 0.38923
 H178 H 0.56537 0.06414 0.56494
 O179 O 0.54458 0.04335 0.54411
 H180 H 0.43562 0.06413 0.43512
 O181 O 0.45645 0.04334 0.45595
 O182 O 0.62600 -0.06659 0.50190
 O183 O 0.37525 -0.06652 0.49819
 O184 O 0.56652 -0.00235 0.62558
 O185 O 0.56618 0.00123 0.37468
 O186 O 0.43447 -0.00240 0.37456
 O187 O 0.43477 0.00097 0.62546
 O188 O 0.50253 -0.12591 0.56587
 O189 O 0.49881 -0.12604 0.43400
 O190 O 0.50252 -0.06644 0.62539
 O191 O 0.49867 -0.06651 0.37448
 O192 O 0.62594 -0.00243 0.56616
 O193 O 0.37522 0.00095 0.56586
 O194 O 0.37510 -0.00239 0.43403
 O195 O 0.62576 0.00121 0.43428
 O196 O 0.56656 -0.12608 0.50176
 O197 O 0.43476 -0.12599 0.49819
 Zr198 Zr 0.58626 -0.00068 0.50015
 Zr199 Zr 0.41481 -0.00064 0.49997
 Zr200 Zr 0.50061 -0.00060 0.58582
 Zr201 Zr 0.50039 -0.00066 0.41425
 Zr202 Zr 0.50063 -0.08638 0.49995
 O203 O 0.45630 -0.04480 0.45579
 O204 O 0.54474 -0.04480 0.54429
 C205 C 0.61147 -0.11151 0.50268
 C206 C 0.38988 -0.11138 0.49731
 C207 C 0.61138 -0.00326 0.61105
 C208 C 0.61107 0.00214 0.38935
 C209 C 0.38963 -0.00327 0.38914
 C210 C 0.38985 0.00178 0.61082
 C211 C 0.50346 -0.11127 0.61074
 C212 C 0.49788 -0.11144 0.38904
 H213 H 0.43592 -0.06545 0.56476
 O214 O 0.45667 -0.04466 0.54397
 H215 H 0.56529 -0.06541 0.43523
 O216 O 0.54454 -0.04465 0.45601
 C217 C 0.28551 0.23732 0.02617
 C218 C 0.23156 0.24531 0.04041
 C219 C 0.21587 0.21627 -0.00483
 C220 C 0.26925 0.20770 -0.01907
 C221 C 0.28357 0.28405 -0.00462
 C222 C 0.26790 0.25502 -0.04987
 C223 C 0.23018 0.29261 0.00962
 C224 C 0.21391 0.26299 -0.03563
 C225 C 0.17815 0.17853 -0.00456
 C226 C 0.14712 0.14751 -0.00398
 C227 C 0.32127 0.32179 -0.00415
 C228 C 0.35229 0.35283 -0.00342
 H229 H 0.31536 0.22718 0.05159
 H230 H 0.21620 0.24091 0.07754
 H231 H 0.28489 0.17237 -0.03087
 H232 H 0.28327 0.25943 -0.08699
 H233 H 0.21453 0.32794 0.02142
 H234 H 0.18405 0.27312 -0.06104
 C235 C 0.28604 -0.26337 0.52570
 C236 C 0.23223 -0.25510 0.54025
 C237 C 0.21617 -0.28396 0.49505
 C238 C 0.26941 -0.29283 0.48050
 C239 C 0.28415 -0.21662 0.49498
 C240 C 0.26812 -0.24547 0.44977
 C241 C 0.23091 -0.20777 0.50953
 C242 C 0.21426 -0.23722 0.46432
 C243 C 0.17837 -0.32146 0.49550
 C244 C 0.14731 -0.35237 0.49624
 C245 C 0.32196 -0.17912 0.49536
 C246 C 0.35302 -0.14821 0.49606
 H247 H 0.31600 -0.27368 0.55094
 H248 H 0.21703 -0.25950 0.57744
 H249 H 0.28477 -0.32824 0.46857
 H250 H 0.28333 -0.24105 0.41258
 H251 H 0.21555 -0.17236 0.52146
 H252 H 0.18430 -0.22693 0.43909
 C253 C 0.72135 0.75722 -0.04339
 C254 C 0.72951 0.79529 -0.00251
 C255 C 0.78449 0.78513 -0.00468
 C256 C 0.77692 0.74765 -0.04557
 C257 C 0.71673 0.71730 -0.00437
 C258 C 0.77171 0.70715 -0.00655
 C259 C 0.72431 0.75480 0.03650
 C260 C 0.77985 0.74521 0.03432
 C261 C 0.82226 0.82293 -0.00448
 C262 C 0.85333 0.85399 -0.00394
 C263 C 0.67897 0.67950 -0.00386
 C264 C 0.64792 0.64843 -0.00312
 H265 H 0.69689 0.76177 -0.07536
 H266 H 0.71253 0.83193 -0.00085
 H267 H 0.79896 0.74510 -0.07933
 H268 H 0.78869 0.67050 -0.00821
 H269 H 0.70229 0.75736 0.07026
 H270 H 0.80430 0.74065 0.06629
 C271 C 0.72098 0.25568 0.45596
 C272 C 0.72886 0.29373 0.49689
 C273 C 0.78384 0.28369 0.49489
 C274 C 0.77657 0.24624 0.45396
 C275 C 0.71642 0.21578 0.49497
 C276 C 0.77140 0.20574 0.49296
 C277 C 0.72371 0.25324 0.53588
 C278 C 0.77926 0.24379 0.53388
 C279 C 0.82137 0.32146 0.49527
 C280 C 0.85229 0.35251 0.49600
 C281 C 0.67889 0.17801 0.49543
 C282 C 0.64798 0.14695 0.49619
 H283 H 0.69657 0.26010 0.42394
 H284 H 0.71182 0.33035 0.49851
 H285 H 0.79876 0.24383 0.42029
 H286 H 0.78843 0.16912 0.49135
 H287 H 0.70153 0.25567 0.56956
 H288 H 0.80366 0.23935 0.56590
 C289 C 0.74567 0.26948 -0.03967
 C290 C 0.79245 0.26989 -0.00801
 C291 C 0.78340 0.21622 0.00493
 C292 C 0.73720 0.21524 -0.02674
 C293 C 0.71599 0.28413 0.00535
 C294 C 0.70693 0.23046 0.01830
 C295 C 0.76218 0.28514 0.03704
 C296 C 0.75374 0.23085 0.04998
 C297 C 0.82093 0.17845 0.00430
 C298 C 0.85185 0.14741 0.00343
 C299 C 0.67845 0.32191 0.00514
 C300 C 0.64754 0.35297 0.00453
 H301 H 0.74191 0.28581 -0.07652
 H302 H 0.82804 0.28564 -0.01883
 H303 H 0.72738 0.18606 -0.05296
 H304 H 0.67133 0.21472 0.02912
 H305 H 0.77199 0.31433 0.06325
 H306 H 0.75751 0.21451 0.08682
 C307 C 0.74698 -0.23221 0.45970
 C308 C 0.79384 -0.23150 0.49127
 C309 C 0.78505 -0.28517 0.50453
 C310 C 0.73875 -0.28643 0.47295
 C311 C 0.71729 -0.21734 0.50469
 C312 C 0.70849 -0.27101 0.51795
 C313 C 0.76358 -0.21607 0.53627
 C314 C 0.75537 -0.27032 0.54953
 C315 C 0.82282 -0.32297 0.50409
 C316 C 0.85387 -0.35403 0.50340
 C317 C 0.67952 -0.17954 0.50441
 C318 C 0.64846 -0.14848 0.50381
 H319 H 0.74316 -0.21614 0.42274
 H320 H 0.82934 -0.21564 0.48029
 H321 H 0.72892 -0.31575 0.44690
 H322 H 0.67299 -0.28686 0.52893
 H323 H 0.77341 -0.18674 0.56232
 H324 H 0.75922 -0.28640 0.58648
 C325 C 0.27669 0.25350 0.46393
 C326 C 0.22114 0.24389 0.46576
 C327 C 0.21631 0.28358 0.50487
 C328 C 0.27129 0.29377 0.50305
 C329 C 0.28401 0.21581 0.50472
 C330 C 0.27920 0.25550 0.54385
 C331 C 0.22903 0.20562 0.50655
 C332 C 0.22362 0.24590 0.54568
 C333 C 0.17860 0.32133 0.50458
 C334 C 0.14758 0.35236 0.50397
 C335 C 0.32172 0.17807 0.50428
 C336 C 0.35274 0.14704 0.50359
 H337 H 0.29892 0.25622 0.43031
 H338 H 0.19686 0.23952 0.43364
 H339 H 0.28825 0.33044 0.50161
 H340 H 0.30350 0.25985 0.57596
 H341 H 0.21208 0.16895 0.50799
 H342 H 0.20137 0.24320 0.57929
 C343 C 0.27637 0.75417 -0.03566
 C344 C 0.22088 0.74424 -0.03409
 C345 C 0.21569 0.78386 0.00502
 C346 C 0.27061 0.79437 0.00346
 C347 C 0.28368 0.71652 0.00515
 C348 C 0.27851 0.75613 0.04428
 C349 C 0.22877 0.70601 0.00672
 C350 C 0.22298 0.74623 0.04585
 C351 C 0.17789 0.82136 0.00454
 C352 C 0.14682 0.85227 0.00376
 C353 C 0.32148 0.67902 0.00480
 C354 C 0.35254 0.64811 0.00414
 H355 H 0.29877 0.75699 -0.06917
 H356 H 0.19675 0.73979 -0.06631
 H357 H 0.28734 0.83114 0.00211
 H358 H 0.30266 0.76056 0.07649
 H359 H 0.21203 0.66924 0.00806
 H360 H 0.20057 0.74342 0.07935
 C361 C -0.03354 0.28720 0.23540
 C362 C 0.01217 0.26866 0.20812
 C363 C -0.00525 0.21608 0.21596
 C364 C -0.05096 0.23401 0.24265
 C365 C -0.00524 0.28379 0.28366
 C366 C -0.02266 0.23121 0.29152
 C367 C 0.04046 0.26584 0.25696
 C368 C 0.02304 0.21269 0.26423
 C369 C -0.00488 0.17839 0.17826
 C370 C -0.00421 0.14739 0.14725
 C371 C -0.00483 0.32149 0.32136
 C372 C -0.00413 0.35250 0.35237
 H373 H -0.05680 0.31826 0.22398
 H374 H 0.02649 0.28363 0.17340
 H375 H -0.08854 0.22048 0.23632
 H376 H -0.03698 0.21625 0.32624
 H377 H 0.07805 0.27935 0.26327
 H378 H 0.04631 0.18163 0.27566
 C379 C 0.49104 0.27081 0.70619
 C380 C 0.45345 0.27483 0.74801
 C381 C 0.49540 0.28390 0.78406
 C382 C 0.53298 0.28047 0.74282
 C383 C 0.49564 0.21599 0.71648
 C384 C 0.53757 0.22508 0.75253
 C385 C 0.45805 0.21940 0.75771
 C386 C 0.50000 0.22908 0.79435
 C387 C 0.49566 0.32172 0.82172
 C388 C 0.49624 0.35279 0.85271
 C389 C 0.49613 0.17817 0.67882
 C390 C 0.49686 0.14710 0.64783
 H391 H 0.48736 0.28756 0.66952
 H392 H 0.41886 0.29570 0.74657
 H393 H 0.56379 0.30599 0.73709
 H394 H 0.57217 0.20422 0.75399
 H395 H 0.42725 0.19387 0.76342
 H396 H 0.50368 0.21233 0.83101
 C397 C -0.00973 0.77095 0.70570
 C398 C -0.04762 0.77516 0.74722
 C399 C -0.00586 0.78382 0.78356
 C400 C 0.03201 0.78021 0.74264
 C401 C -0.00561 0.71612 0.71600
 C402 C 0.03612 0.72480 0.75235
 C403 C -0.04350 0.71970 0.75691
 C404 C -0.00175 0.72898 0.79385
 C405 C -0.00555 0.82146 0.82115
 C406 C -0.00486 0.85244 0.85210
 C407 C -0.00505 0.67847 0.67842
 C408 C -0.00421 0.64750 0.64748
 H409 H -0.01300 0.78772 0.66901
 H410 H -0.08202 0.79633 0.74560
 H411 H 0.06303 0.80554 0.73724
 H412 H 0.07053 0.70365 0.75399
 H413 H -0.07452 0.69436 0.76229
 H414 H 0.00152 0.71221 0.83055
 C415 C 0.46708 -0.21390 0.23504
 C416 C 0.51273 -0.23219 0.20750
 C417 C 0.49564 -0.28489 0.21537
 C418 C 0.44999 -0.26720 0.24234
 C419 C 0.49565 -0.21714 0.28318
 C420 C 0.47856 -0.26985 0.29107
 C421 C 0.54129 -0.23486 0.25620
 C422 C 0.52421 -0.28812 0.26351
 C423 C 0.49601 -0.32264 0.17759
 C424 C 0.49665 -0.35368 0.14652
 C425 C 0.49603 -0.17940 0.32097
 C426 C 0.49669 -0.14837 0.35205
 H427 H 0.44358 -0.18297 0.22373
 H428 H 0.52679 -0.21709 0.17273
 H429 H 0.41243 -0.28090 0.23623
 H430 H 0.46450 -0.28494 0.32584
 H431 H 0.57885 -0.22117 0.26229
 H432 H 0.54771 -0.31904 0.27483
 C433 C -0.03783 0.75306 0.27386
 C434 C -0.00022 0.79491 0.26979
 C435 C 0.00403 0.78488 0.21487
 C436 C -0.03358 0.74358 0.21838
 C437 C 0.00409 0.71702 0.28280
 C438 C 0.00834 0.70699 0.22787
 C439 C 0.04171 0.75831 0.27930
 C440 C 0.04596 0.74886 0.22379
 C441 C 0.00364 0.82272 0.17698
 C442 C 0.00298 0.85381 0.14584
 C443 C 0.00377 0.67918 0.32068
 C444 C 0.00319 0.64809 0.35181
 H445 H -0.07232 0.75442 0.29482
 H446 H -0.00375 0.83146 0.28668
 H447 H -0.06457 0.73789 0.19294
 H448 H 0.01186 0.67045 0.21099
 H449 H 0.07269 0.76400 0.30475
 H450 H 0.08044 0.74751 0.20281
 C451 C 0.50581 -0.27134 0.70625
 C452 C 0.54567 -0.27789 0.74579
 C453 C 0.50559 -0.28372 0.78426
 C454 C 0.46574 -0.27777 0.74534
 C455 C 0.50585 -0.21636 0.71635
 C456 C 0.46578 -0.22221 0.75483
 C457 C 0.54571 -0.22228 0.75526
 C458 C 0.50563 -0.22873 0.79436
 C459 C 0.50500 -0.32117 0.82199
 C460 C 0.50412 -0.35206 0.85302
 C461 C 0.50551 -0.17890 0.67861
 C462 C 0.50478 -0.14802 0.64757
 H463 H 0.50588 -0.28835 0.66956
 H464 H 0.57848 -0.30128 0.74260
 H465 H 0.43288 -0.30106 0.74176
 H466 H 0.43296 -0.19884 0.75805
 H467 H 0.57856 -0.19897 0.75882
 H468 H 0.50555 -0.21173 0.83105
 C469 C 0.46340 0.25198 0.27532
 C470 C 0.50106 0.29378 0.27153
 C471 C 0.50528 0.28398 0.21660
 C472 C 0.46761 0.24276 0.21981
 C473 C 0.50530 0.21592 0.28396
 C474 C 0.50952 0.20611 0.22903
 C475 C 0.54298 0.25712 0.28076
 C476 C 0.54720 0.24793 0.22522
 C477 C 0.50485 0.32183 0.17909
 C478 C 0.50411 0.35292 0.14817
 C479 C 0.50489 0.17807 0.32147
 C480 C 0.50418 0.14698 0.35239
 H481 H 0.42895 0.25319 0.29636
 H482 H 0.49759 0.33028 0.28853
 H483 H 0.43663 0.23732 0.19431
 H484 H 0.51299 0.16961 0.21203
 H485 H 0.57395 0.26254 0.30628
 H486 H 0.58164 0.24673 0.20416
 C487 C 0.00408 0.22797 0.70659
 C488 C 0.04397 0.22104 0.74606
 C489 C 0.00396 0.21493 0.78464
 C490 C -0.03592 0.22128 0.74574
 C491 C 0.00422 0.28296 0.71693
 C492 C -0.03578 0.27683 0.75552
 C493 C 0.04412 0.27663 0.75582
 C494 C 0.00411 0.26992 0.79498
 C495 C 0.00349 0.17702 0.82240
 C496 C 0.00279 0.14589 0.85346
 C497 C 0.00399 0.32088 0.67918
 C498 C 0.00346 0.35202 0.64812
 H499 H 0.00407 0.21109 0.66984
 H500 H 0.07678 0.19770 0.74255
 H501 H -0.06885 0.19813 0.74196
 H502 H -0.06859 0.30015 0.75904
 H503 H 0.07704 0.29979 0.75959
 H504 H 0.00411 0.28680 0.83173
 C505 C 0.24270 0.03211 0.28012
 C506 C 0.25204 0.03639 0.22464
 C507 C 0.21598 -0.00549 0.21596
 C508 C 0.20605 -0.00977 0.27086
 C509 C 0.28389 -0.00558 0.28361
 C510 C 0.24784 -0.04747 0.27495
 C511 C 0.29382 -0.00130 0.22871
 C512 C 0.25716 -0.04319 0.21943
 C513 C 0.17821 -0.00502 0.17832
 C514 C 0.14714 -0.00425 0.14733
 C515 C 0.32166 -0.00521 0.32125
 C516 C 0.35273 -0.00451 0.35225
 H517 H 0.23722 0.06306 0.30551
 H518 H 0.25331 0.07086 0.20351
 H519 H 0.16952 -0.01325 0.28772
 H520 H 0.24659 -0.08194 0.29609
 H521 H 0.33036 0.00218 0.21185
 H522 H 0.26263 -0.07413 0.19402
 C523 C 0.27186 0.49877 0.70719
 C524 C 0.27686 0.53727 0.74815
 C525 C 0.28490 0.49604 0.78523
 C526 C 0.28048 0.45753 0.74484
 C527 C 0.21693 0.49585 0.71732
 C528 C 0.22495 0.45460 0.75439
 C529 C 0.22136 0.53435 0.75772
 C530 C 0.22996 0.49311 0.79536
 C531 C 0.32278 0.49647 0.82309
 C532 C 0.35391 0.49713 0.85422
 C533 C 0.17903 0.49609 0.67946
 C534 C 0.14790 0.49662 0.64834
 H535 H 0.28872 0.50110 0.67054
 H536 H 0.29859 0.57128 0.74595
 H537 H 0.30519 0.42593 0.73993
 H538 H 0.20321 0.42059 0.75657
 H539 H 0.19667 0.56595 0.76264
 H540 H 0.21311 0.49079 0.83201
 C541 C 0.77194 -0.00286 0.70674
 C542 C 0.77705 0.03585 0.74746
 C543 C 0.78476 -0.00523 0.78473
 C544 C 0.78024 -0.04395 0.74461
 C545 C 0.71701 -0.00542 0.71686
 C546 C 0.72470 -0.04651 0.75413
 C547 C 0.72155 0.03329 0.75700
 C548 C 0.72983 -0.00779 0.79486
 C549 C 0.82246 -0.00472 0.82250
 C550 C 0.85350 -0.00393 0.85358
 C551 C 0.67931 -0.00511 0.67909
 C552 C 0.64828 -0.00446 0.64801
 H553 H 0.78880 -0.00084 0.67007
 H554 H 0.79901 0.06971 0.74516
 H555 H 0.80482 -0.07570 0.73997
 H556 H 0.70272 -0.08037 0.75641
 H557 H 0.69699 0.06504 0.76165
 H558 H 0.71298 -0.00981 0.83153
 C559 C -0.25844 0.53286 0.27980
 C560 C -0.24911 0.53741 0.22433
 C561 C -0.28504 0.49544 0.21542
 C562 C -0.29495 0.49089 0.27032
 C563 C -0.21709 0.49532 0.28318
 C564 C -0.25300 0.45333 0.27429
 C565 C -0.20718 0.49986 0.22828
 C566 C -0.24369 0.45788 0.21879
 C567 C -0.32287 0.49591 0.17767
 C568 C -0.35397 0.49667 0.14660
 C569 C -0.17925 0.49565 0.32093
 C570 C -0.14814 0.49631 0.35199
 H571 H -0.26409 0.56369 0.30530
 H572 H -0.24793 0.57199 0.20337
 H573 H -0.33146 0.48720 0.28718
 H574 H -0.25417 0.41876 0.29527
 H575 H -0.17067 0.50356 0.21141
 H576 H -0.23806 0.42706 0.19327
 C577 C 0.22901 0.00272 0.70552
 C578 C 0.22297 -0.03645 0.74572
 C579 C 0.21590 0.00423 0.78345
 C580 C 0.22135 0.04342 0.74383
 C581 C 0.28396 0.00406 0.71615
 C582 C 0.27690 0.04475 0.75387
 C583 C 0.27848 -0.03512 0.75578
 C584 C 0.27085 0.00557 0.79408
 C585 C 0.17801 0.00396 0.82098
 C586 C 0.14691 0.00339 0.85189
 C587 C 0.32184 0.00361 0.67862
 C588 C 0.35294 0.00293 0.64770
 H589 H 0.21221 0.00155 0.66869
 H590 H 0.20038 -0.06985 0.74276
 H591 H 0.19744 0.07571 0.73933
 H592 H 0.29951 0.07814 0.75681
 H593 H 0.30239 -0.06742 0.76030
 H594 H 0.28765 0.00674 0.83091
 C595 C 0.26725 0.48352 0.29068
 C596 C 0.26257 0.45915 0.23999
 C597 C 0.28384 0.50529 0.21655
 C598 C 0.28910 0.52966 0.26667
 C599 C 0.21607 0.50518 0.28406
 C600 C 0.23732 0.55134 0.26065
 C601 C 0.21083 0.48081 0.23394
 C602 C 0.23267 0.52696 0.20993
 C603 C 0.32156 0.50494 0.17896
 C604 C 0.35257 0.50429 0.14801
 C605 C 0.17835 0.50474 0.32165
 C606 C 0.14733 0.50401 0.35259
 H607 H 0.28103 0.46565 0.32430
 H608 H 0.27338 0.42125 0.23107
 H609 H 0.32171 0.54975 0.27968
 H610 H 0.22649 0.58923 0.26958
 H611 H 0.17823 0.46073 0.22092
 H612 H 0.21890 0.54482 0.17629
 C613 C 0.76729 -0.01730 0.28992
 C614 C 0.76218 -0.04131 0.23912
 C615 C 0.78359 0.00484 0.21587
 C616 C 0.78929 0.02887 0.26609
 C617 C 0.71623 0.00473 0.28371
 C618 C 0.73762 0.05090 0.26048
 C619 C 0.71055 -0.01929 0.23348
 C620 C 0.73254 0.02687 0.20964
 C621 C 0.82110 0.00447 0.17812
 C622 C 0.85199 0.00376 0.14710
 C623 C 0.67873 0.00425 0.32146
 C624 C 0.64784 0.00347 0.35249
 H625 H 0.78113 -0.03546 0.32337
 H626 H 0.77272 -0.07922 0.22989
 H627 H 0.82210 0.04867 0.27904
 H628 H 0.72707 0.08880 0.26973
 H629 H 0.67774 -0.03909 0.22052
 H630 H 0.71871 0.04503 0.17619
 C631 C -0.27131 0.50379 0.70610
 C632 C -0.27712 0.46459 0.74630
 C633 C -0.28391 0.50525 0.78411
 C634 C -0.27869 0.54446 0.74449
 C635 C -0.21630 0.50508 0.71639
 C636 C -0.22308 0.54575 0.75418
 C637 C -0.22154 0.46588 0.75602
 C638 C -0.22890 0.50653 0.79440
 C639 C -0.32156 0.50494 0.82183
 C640 C -0.35252 0.50431 0.85285
 C641 C -0.17865 0.50461 0.67867
 C642 C -0.14768 0.50387 0.64766
 H643 H -0.28834 0.50266 0.66937
 H644 H -0.29975 0.43121 0.74347
 H645 H -0.30261 0.57678 0.74017
 H646 H -0.20043 0.57912 0.75699
 H647 H -0.19763 0.43355 0.76035
 H648 H -0.21188 0.50766 0.83113
   
