data_POSCAR
  _audit_creation_date              2014-09-24
  _audit_creation_method            'ToBaCCo'
  _symmetry_space_group_name_H-M    'P1'
  _symmetry_Int_Tables_number       1
  _symmetry_cell_setting            triclinic
  loop_
  _symmetry_equiv_pos_as_xyz
 x,y,z
_cell_length_a 15.7608
_cell_length_b 21.6091
_cell_length_c 18.6399
_cell_angle_alpha 90.000000
_cell_angle_beta 90.000000
_cell_angle_gamma 90.194100
loop_
  _atom_site_label
  _atom_site_type_symbol
  _atom_site_fract_x
  _atom_site_fract_y
  _atom_site_fract_z
B1 B -0.04936 -0.05878 0.03380
 B2 B 0.05137 -0.04302 0.06016
 B3 B 0.03143 -0.07074 -0.02312
 B4 B -0.06029 -0.04021 -0.05391
 B5 B -0.09812 0.00759 0.01134
 B6 B -0.02892 0.00486 0.08224
 B7 B 0.05489 0.05243 -0.03298
 B8 B -0.04541 0.03672 -0.05947
 B9 B -0.02644 0.06423 0.02327
 B10 B 0.06523 0.03418 0.05405
 B11 B 0.10322 -0.01408 -0.01091
 B12 B 0.03467 -0.01122 -0.08146
 B13 B 0.53320 0.48098 0.57913
 B14 B 0.42916 0.48013 0.55703
 B15 B 0.48301 0.54858 0.55798
 B16 B 0.58196 0.53420 0.52786
 B17 B 0.58929 0.45776 0.50692
 B18 B 0.49396 0.42513 0.52625
 B19 B 0.46860 0.50918 0.41993
 B20 B 0.57257 0.51020 0.44162
 B21 B 0.51876 0.44174 0.44092
 B22 B 0.42016 0.45602 0.47108
 B23 B 0.41280 0.53245 0.49196
 B24 B 0.50811 0.56501 0.47270
 B25 B 0.55489 0.05243 0.53298
 B26 B 0.45459 0.03672 0.55947
 B27 B 0.47356 0.06423 0.47673
 B28 B 0.56523 0.03418 0.44595
 B29 B 0.60322 -0.01408 0.51091
 B30 B 0.53467 -0.01122 0.58146
 B31 B 0.45064 -0.05878 0.46620
 B32 B 0.55137 -0.04302 0.43984
 B33 B 0.53143 -0.07074 0.52312
 B34 B 0.43971 -0.04021 0.55391
 B35 B 0.40188 0.00759 0.48866
 B36 B 0.47108 0.00486 0.41776
 B37 B -0.03140 0.50918 0.08007
 B38 B 0.07257 0.51020 0.05838
 B39 B 0.01876 0.44174 0.05908
 B40 B -0.07984 0.45602 0.02892
 B41 B -0.08720 0.53245 0.00804
 B42 B 0.00811 0.56501 0.02730
 B43 B 0.03320 0.48098 -0.07913
 B44 B -0.07084 0.48013 -0.05703
 B45 B -0.01699 0.54858 -0.05798
 B46 B 0.08196 0.53420 -0.02786
 B47 B 0.08929 0.45776 -0.00692
 B48 B -0.00604 0.42513 -0.02625
 B49 B 0.02762 0.43375 0.46362
 B50 B -0.07112 0.46098 0.45440
 B51 B -0.03708 0.43447 0.53463
 B52 B 0.06606 0.45307 0.54472
 B53 B 0.09539 0.49280 0.47013
 B54 B 0.00977 0.49700 0.41409
 B55 B -0.02852 0.55718 0.53766
 B56 B 0.07010 0.52989 0.54682
 B57 B 0.03603 0.55654 0.46672
 B58 B -0.06705 0.53789 0.45652
 B59 B -0.09642 0.49822 0.53107
 B60 B -0.01073 0.49401 0.58711
 B61 B 0.42868 -0.02122 -0.06043
 B62 B 0.53136 -0.04240 -0.06609
 B63 B 0.50557 0.03309 -0.07331
 B64 B 0.42346 0.04708 -0.01674
 B65 B 0.40108 -0.02076 0.02577
 B66 B 0.46873 -0.07601 -0.00563
 B67 B 0.56477 0.01197 0.05998
 B68 B 0.46162 0.03215 0.06649
 B69 B 0.48792 -0.04255 0.07276
 B70 B 0.56990 -0.05616 0.01649
 B71 B 0.59212 0.01157 -0.02643
 B72 B 0.52444 0.06679 0.00553
 B73 B 0.47148 0.55718 -0.03766
 B74 B 0.57010 0.52989 -0.04682
 B75 B 0.53603 0.55654 0.03328
 B76 B 0.43295 0.53789 0.04348
 B77 B 0.40358 0.49822 -0.03107
 B78 B 0.48927 0.49401 -0.08711
 B79 B 0.52762 0.43375 0.03638
 B80 B 0.42888 0.46098 0.04560
 B81 B 0.46292 0.43447 -0.03463
 B82 B 0.56606 0.45307 -0.04472
 B83 B 0.59539 0.49280 0.02987
 B84 B 0.50977 0.49700 0.08590
 B85 B 0.06477 0.01197 0.44002
 B86 B -0.03838 0.03215 0.43351
 B87 B -0.01208 -0.04255 0.42724
 B88 B 0.06990 -0.05616 0.48351
 B89 B 0.09212 0.01157 0.52643
 B90 B 0.02444 0.06679 0.49447
 B91 B -0.07132 -0.02122 0.56043
 B92 B 0.03136 -0.04240 0.56609
 B93 B 0.00557 0.03309 0.57330
 B94 B -0.07654 0.04708 0.51674
 B95 B -0.09892 -0.02076 0.47423
 B96 B -0.03127 -0.07601 0.50563
 B97 B 0.76006 0.30941 0.27792
 B98 B 0.67220 0.26740 0.29458
 B99 B 0.68457 0.29452 0.21310
 B100 B 0.78839 0.29408 0.19109
 B101 B 0.84159 0.26125 0.26108
 B102 B 0.76866 0.24487 0.32717
 B103 B 0.72938 0.17500 0.21068
 B104 B 0.81368 0.21828 0.18836
 B105 B 0.80328 0.18921 0.27200
 B106 B 0.69930 0.19118 0.29585
 B107 B 0.64810 0.22170 0.22514
 B108 B 0.71893 0.23879 0.15935
 B109 B 0.69614 0.80084 0.77485
 B110 B 0.68649 0.77301 0.69085
 B111 B 0.77015 0.81632 0.71411
 B112 B 0.80006 0.79929 0.79900
 B113 B 0.73123 0.74473 0.82914
 B114 B 0.65879 0.72878 0.76254
 B115 B 0.81623 0.69710 0.71442
 B116 B 0.82809 0.72324 0.79637
 B117 B 0.74074 0.68096 0.77873
 B118 B 0.71248 0.69728 0.69215
 B119 B 0.78145 0.75330 0.66162
 B120 B 0.85197 0.76997 0.72781
 B121 B 0.27775 0.19338 0.72099
 B122 B 0.17382 0.20688 0.71161
 B123 B 0.21397 0.20137 0.79456
 B124 B 0.31134 0.23019 0.79478
 B125 B 0.33243 0.25895 0.71140
 B126 B 0.24580 0.24456 0.65861
 B127 B 0.19733 0.32223 0.76708
 B128 B 0.30119 0.30517 0.77916
 B129 B 0.26155 0.31504 0.69673
 B130 B 0.16169 0.28372 0.69336
 B131 B 0.14141 0.25609 0.77709
 B132 B 0.22762 0.27099 0.82962
 B133 B 0.22872 0.79891 0.22108
 B134 B 0.33247 0.78100 0.21402
 B135 B 0.29041 0.79208 0.29506
 B136 B 0.19117 0.76513 0.29555
 B137 B 0.17057 0.73406 0.21330
 B138 B 0.25919 0.74452 0.16141
 B139 B 0.30122 0.66911 0.27341
 B140 B 0.19847 0.68897 0.28326
 B141 B 0.23894 0.67569 0.20179
 B142 B 0.34001 0.70394 0.19934
 B143 B 0.35998 0.73384 0.28222
 B144 B 0.27224 0.72347 0.33358
 B145 B 0.31623 0.69710 0.78558
 B146 B 0.32809 0.72324 0.70363
 B147 B 0.24074 0.68096 0.72127
 B148 B 0.21248 0.69728 0.80785
 B149 B 0.28145 0.75330 0.83838
 B150 B 0.35197 0.76997 0.77219
 B151 B 0.19614 0.80084 0.72515
 B152 B 0.18649 0.77301 0.80915
 B153 B 0.27015 0.81632 0.78589
 B154 B 0.30006 0.79929 0.70100
 B155 B 0.23123 0.74473 0.67086
 B156 B 0.15879 0.72878 0.73746
 B157 B 0.22938 0.17500 0.28932
 B158 B 0.31368 0.21828 0.31164
 B159 B 0.30328 0.18921 0.22800
 B160 B 0.19930 0.19118 0.20415
 B161 B 0.14810 0.22170 0.27486
 B162 B 0.21893 0.23879 0.34065
 B163 B 0.26006 0.30941 0.22208
 B164 B 0.17220 0.26740 0.20542
 B165 B 0.18457 0.29452 0.28690
 B166 B 0.28839 0.29408 0.30891
 B167 B 0.34159 0.26125 0.23892
 B168 B 0.26866 0.24487 0.17283
 B169 B 0.80122 0.66911 0.22659
 B170 B 0.69847 0.68897 0.21674
 B171 B 0.73894 0.67569 0.29821
 B172 B 0.84001 0.70394 0.30066
 B173 B 0.85998 0.73384 0.21778
 B174 B 0.77224 0.72347 0.16642
 B175 B 0.72872 0.79891 0.27892
 B176 B 0.83247 0.78100 0.28598
 B177 B 0.79041 0.79208 0.20494
 B178 B 0.69117 0.76513 0.20445
 B179 B 0.67057 0.73406 0.28670
 B180 B 0.75919 0.74452 0.33859
 B181 B 0.71397 0.20137 0.70544
 B182 B 0.67382 0.20688 0.78839
 B183 B 0.77775 0.19338 0.77901
 B184 B 0.81134 0.23019 0.70522
 B185 B 0.72762 0.27099 0.67038
 B186 B 0.64141 0.25609 0.72291
 B187 B 0.76155 0.31504 0.80327
 B188 B 0.80119 0.30517 0.72084
 B189 B 0.69733 0.32223 0.73292
 B190 B 0.66169 0.28372 0.80664
 B191 B 0.74580 0.24456 0.84139
 B192 B 0.83243 0.25895 0.78860
 N193 N 0.18790 0.44410 0.78031
 N194 N 0.14140 0.48526 0.81536
 C195 C 0.07621 0.45634 0.84834
 C196 C 0.08247 0.39340 0.83143
 C197 C 0.15457 0.38702 0.78971
 H198 H 0.04645 0.35571 0.85478
 H199 H 0.24532 0.45494 0.75554
 H200 H 0.15949 0.53140 0.82267
 N201 N 0.30751 0.54733 0.28689
 N202 N 0.35614 0.50544 0.31844
 C203 C 0.42403 0.53360 0.34837
 C204 C 0.41744 0.59669 0.33273
 C205 C 0.34214 0.60400 0.29585
 H206 H 0.45579 0.63393 0.35434
 H207 H 0.24841 0.53717 0.26466
 H208 H 0.33798 0.45935 0.32597
 N209 N 0.77634 0.93850 0.70626
 N210 N 0.81519 0.98036 0.66556
 C211 C 0.85654 0.95135 0.61210
 C212 C 0.83782 0.88867 0.61705
 C213 C 0.79019 0.88176 0.67848
 H214 H 0.86397 0.85155 0.58506
 H215 H 0.74363 0.94875 0.75347
 H216 H 0.81437 1.02765 0.67510
 N217 N 0.72636 0.05276 0.19902
 N218 N 0.68432 0.01096 0.16044
 C219 C 0.63684 0.04034 0.11110
 C220 C 0.65327 0.10336 0.11723
 C221 C 0.70772 0.10987 0.17447
 H222 H 0.62290 0.14070 0.08842
 H223 H 0.76527 0.04228 0.24258
 H224 H 0.68687 -0.03661 0.16878
 N225 N 0.94307 0.12904 0.27435
 N226 N 0.97827 0.08343 0.30968
 C227 C 0.92915 0.06901 0.36632
 C228 C 0.85509 0.10313 0.36220
 C229 C 0.86587 0.13969 0.30198
 H230 H 0.80305 0.10418 0.39986
 H231 H 0.97453 0.15403 0.23458
 H232 H 1.03510 0.06357 0.29380
 N233 N 0.23802 0.39617 0.59927
 N234 N 0.27591 0.44467 0.57066
 C235 C 0.35185 0.45409 0.60268
 C236 C 0.35919 0.41021 0.65705
 C237 C 0.28625 0.37409 0.65209
 H238 H 0.41384 0.40094 0.69009
 H239 H 0.18441 0.37447 0.57834
 H240 H 0.25586 0.46468 0.52272
 N241 N 0.55405 0.85739 0.77627
 N242 N 0.51501 0.90036 0.81302
 C243 C 0.56285 0.91590 0.87011
 C244 C 0.63901 0.88436 0.86590
 C245 C 0.63132 0.84865 0.80470
 H246 H 0.69127 0.88538 0.90323
 H247 H 0.52544 0.83334 0.73428
 H248 H 0.45842 0.91962 0.79586
 N249 N 0.26313 0.59380 0.10508
 N250 N 0.22526 0.54588 0.07513
 C251 C 0.14854 0.53675 0.10561
 C252 C 0.14033 0.58053 0.16036
 C253 C 0.21401 0.61613 0.15726
 H254 H 0.08512 0.58997 0.19262
 H255 H 0.31757 0.61517 0.08536
 H256 H 0.24615 0.52601 0.02739
 N257 N 0.48324 0.83340 0.20911
 N258 N 0.52138 0.88119 0.17822
 C259 C 0.46548 0.91020 0.13553
 C260 C 0.38884 0.87763 0.13926
 C261 C 0.40206 0.82953 0.18624
 H262 H 0.33233 0.88519 0.10762
 H263 H 0.51260 0.80452 0.24630
 H264 H 0.58561 0.89149 0.18390
 N265 N 0.55998 0.27655 0.39480
 N266 N 0.52183 0.32089 0.43109
 C267 C 0.53292 0.37667 0.39845
 C268 C 0.57841 0.36531 0.33613
 C269 C 0.59711 0.30122 0.33717
 H270 H 0.60656 0.40024 0.30191
 H271 H 0.56820 0.23145 0.41360
 H272 H 0.49586 0.31287 0.48170
 N273 N 0.93623 0.71383 0.89886
 N274 N 0.97404 0.66951 0.93535
 C275 C 0.96721 0.61423 0.90072
 C276 C 0.92440 0.62609 0.83700
 C277 C 0.90330 0.68984 0.83913
 H278 H 0.89900 0.59139 0.80101
 H279 H 0.92478 0.75817 0.91883
 H280 H 0.99719 0.67729 0.98699
 N281 N 0.13165 0.09166 0.71978
 N282 N 0.08012 0.04999 0.69314
 C283 C 0.03354 0.07487 0.64025
 C284 C 0.05493 0.13854 0.63734
 C285 C 0.11769 0.14727 0.68927
 H286 H 0.03550 0.17189 0.59731
 H287 H 0.18055 0.07932 0.75446
 H288 H 0.08425 0.00404 0.70828
 N289 N 0.03593 0.30874 0.33854
 N290 N 0.00301 0.33416 0.39600
 C291 C 0.05708 0.37726 0.41992
 C292 C 0.12998 0.37666 0.37806
 C293 C 0.11437 0.33260 0.32664
 H294 H 0.18672 0.40459 0.38410
 H295 H 0.00624 0.27267 0.31105
 H296 H -0.05649 0.32278 0.41688
 N297 N 0.46402 0.68407 0.83947
 N298 N 0.49659 0.65762 0.89645
 C299 C 0.44263 0.61374 0.91869
 C300 C 0.37049 0.61446 0.87599
 C301 C 0.38627 0.65963 0.82600
 H302 H 0.31413 0.58592 0.88059
 H303 H 0.49349 0.72099 0.81334
 H304 H 0.55585 0.66873 0.91801
 N305 N 0.74430 0.13400 0.59476
 N306 N 0.70143 0.10212 0.54666
 C307 C 0.61854 0.10103 0.56504
 C308 C 0.60851 0.13463 0.62733
 C309 C 0.68997 0.15375 0.64530
 H310 H 0.55072 0.14279 0.65700
 H311 H 0.80963 0.14199 0.59238
 H312 H 0.72977 0.07869 0.50404
 N313 N 0.76301 0.85561 0.09152
 N314 N 0.80763 0.88590 0.04316
 C315 C 0.88738 0.89358 0.06754
 C316 C 0.89293 0.86761 0.13489
 C317 C 0.81307 0.84332 0.14837
 H318 H 0.94780 0.86710 0.16873
 H319 H 0.70001 0.84191 0.08399
 H320 H 0.78250 0.90308 -0.00456
 N321 N 0.88025 0.10060 0.76612
 N322 N 0.92508 0.06271 0.80672
 C323 C 0.90616 0.07196 0.87633
 C324 C 0.84198 0.11633 0.87900
 C325 C 0.82720 0.13348 0.80743
 H326 H 0.81339 0.13603 0.92650
 H327 H 0.88987 0.10677 0.71125
 H328 H 0.96971 0.03169 0.78697
 N329 N 0.25557 0.62021 0.60086
 N330 N 0.21301 0.58327 0.55836
 C331 C 0.14383 0.56292 0.59201
 C332 C 0.14630 0.58581 0.66305
 C333 C 0.22002 0.62278 0.66722
 H334 H 0.09571 0.58333 0.70220
 H335 H 0.29875 0.65070 0.57823
 H336 H 0.22775 0.57761 0.50432
 N337 N 0.71469 0.91821 0.30084
 N338 N 0.66998 0.95667 0.34105
 C339 C 0.61013 0.92507 0.37845
 C340 C 0.61836 0.86308 0.35928
 C341 C 0.68585 0.86037 0.31064
 H342 H 0.58187 0.82437 0.37817
 H343 H 0.76683 0.93127 0.26971
 H344 H 0.68301 1.00396 0.34458
 N345 N 0.24569 0.36792 0.09997
 N346 N 0.28742 0.40513 0.05710
 C347 C 0.35546 0.42735 0.09093
 C348 C 0.35305 0.40523 0.16239
 C349 C 0.28068 0.36683 0.16663
 H350 H 0.40301 0.40927 0.20195
 H351 H 0.20272 0.33680 0.07799
 H352 H 0.27303 0.40992 0.00287
 N353 N 0.55017 0.67879 0.16332
 N354 N 0.51515 0.65449 0.10573
 C355 C 0.56863 0.61273 0.07776
 C356 C 0.64173 0.61181 0.11942
 C357 C 0.62786 0.65440 0.17311
 H358 H 0.69661 0.58257 0.11313
 H359 H 0.52206 0.71326 0.19388
 H360 H 0.45384 0.66439 0.08813
 N361 N 0.10311 0.77031 0.93027
 N362 N 0.06284 0.80918 0.97344
 C363 C 0.06456 0.86598 0.94393
 C364 C 0.10562 0.86176 0.87862
 C365 C 0.12683 0.80029 0.87020
 H366 H 0.12059 0.89941 0.84260
 H367 H 0.11726 0.72448 0.94300
 H368 H 0.03325 0.79616 1.02100
 N369 N 0.39109 0.22096 0.43608
 N370 N 0.43200 0.18226 0.47915
 C371 C 0.43865 0.12729 0.44577
 C372 C 0.39922 0.13180 0.38000
 C373 C 0.37346 0.19227 0.37345
 H374 H 0.38578 0.09422 0.34355
 H375 H 0.37128 0.26520 0.45092
 H376 H 0.45190 0.19290 0.53116
 N377 N 0.94957 0.31476 0.66753
 N378 N 0.98363 0.33760 0.60872
 C379 C 0.93011 0.37905 0.58024
 C380 C 0.85777 0.38142 0.62293
 C381 C 0.87208 0.33993 0.67763
 H382 H 0.80285 0.41068 0.61645
 H383 H 0.97716 0.27939 0.69761
 H384 H 1.04427 0.32676 0.59025
 N385 N 0.80751 0.54733 0.21311
 N386 N 0.85614 0.50544 0.18156
 C387 C 0.92403 0.53360 0.15163
 C388 C 0.91744 0.59669 0.16727
 C389 C 0.84214 0.60400 0.20415
 H390 H 0.95579 0.63393 0.14566
 H391 H 0.74841 0.53717 0.23534
 H392 H 0.83798 0.45935 0.17403
 N393 N 0.68790 0.44410 0.71969
 N394 N 0.64140 0.48526 0.68464
 C395 C 0.57621 0.45634 0.65166
 C396 C 0.58247 0.39340 0.66857
 C397 C 0.65457 0.38702 0.71029
 H398 H 0.54645 0.35571 0.64522
 H399 H 0.74532 0.45494 0.74446
 H400 H 0.65949 0.53140 0.67733
 N401 N 0.22636 0.05276 0.30097
 N402 N 0.18432 0.01096 0.33956
 C403 C 0.13684 0.04034 0.38890
 C404 C 0.15327 0.10336 0.38277
 C405 C 0.20772 0.10987 0.32553
 H406 H 0.12290 0.14070 0.41158
 H407 H 0.26527 0.04228 0.25742
 H408 H 0.18687 -0.03661 0.33122
 N409 N 0.27634 0.93850 0.79374
 N410 N 0.31519 0.98036 0.83444
 C411 C 0.35654 0.95135 0.88790
 C412 C 0.33782 0.88867 0.88295
 C413 C 0.29019 0.88176 0.82152
 H414 H 0.36397 0.85155 0.91494
 H415 H 0.24363 0.94875 0.74653
 H416 H 0.31437 1.02765 0.82490
 N417 N 0.05405 0.85739 0.72373
 N418 N 0.01501 0.90036 0.68698
 C419 C 0.06285 0.91590 0.62989
 C420 C 0.13901 0.88436 0.63410
 C421 C 0.13132 0.84865 0.69530
 H422 H 0.19127 0.88538 0.59677
 H423 H 0.02544 0.83334 0.76572
 H424 H -0.04158 0.91962 0.70414
 N425 N 0.76313 0.59380 0.39492
 N426 N 0.72526 0.54588 0.42487
 C427 C 0.64854 0.53675 0.39439
 C428 C 0.64033 0.58053 0.33964
 C429 C 0.71401 0.61613 0.34274
 H430 H 0.58512 0.58997 0.30738
 H431 H 0.81757 0.61517 0.41464
 H432 H 0.74615 0.52601 0.47261
 N433 N 0.44307 0.12904 0.22565
 N434 N 0.47827 0.08343 0.19032
 C435 C 0.42915 0.06901 0.13368
 C436 C 0.35509 0.10313 0.13780
 C437 C 0.36587 0.13969 0.19802
 H438 H 0.30305 0.10418 0.10014
 H439 H 0.47453 0.15403 0.26542
 H440 H 0.53510 0.06357 0.20620
 N441 N 0.73802 0.39617 0.90073
 N442 N 0.77591 0.44467 0.92934
 C443 C 0.85185 0.45409 0.89732
 C444 C 0.85919 0.41021 0.84295
 C445 C 0.78625 0.37409 0.84791
 H446 H 0.91384 0.40094 0.80991
 H447 H 0.68441 0.37447 0.92166
 H448 H 0.75586 0.46468 0.97728
 N449 N 0.63165 0.09166 0.78022
 N450 N 0.58012 0.04999 0.80686
 C451 C 0.53354 0.07487 0.85975
 C452 C 0.55493 0.13854 0.86266
 C453 C 0.61769 0.14727 0.81073
 H454 H 0.53550 0.17189 0.90269
 H455 H 0.68055 0.07932 0.74554
 H456 H 0.58425 0.00404 0.79172
 N457 N 0.43623 0.71383 0.60114
 N458 N 0.47404 0.66951 0.56465
 C459 C 0.46721 0.61423 0.59928
 C460 C 0.42440 0.62609 0.66300
 C461 C 0.40330 0.68984 0.66087
 H462 H 0.39900 0.59139 0.69899
 H463 H 0.42478 0.75817 0.58117
 H464 H 0.49719 0.67729 0.51301
 N465 N 0.05998 0.27655 0.10520
 N466 N 0.02183 0.32089 0.06891
 C467 C 0.03292 0.37667 0.10155
 C468 C 0.07841 0.36531 0.16387
 C469 C 0.09711 0.30122 0.16283
 H470 H 0.10656 0.40024 0.19809
 H471 H 0.06820 0.23145 0.08640
 H472 H -0.00414 0.31287 0.01829
 N473 N 0.98324 0.83340 0.29089
 N474 N 1.02138 0.88119 0.32178
 C475 C 0.96548 0.91020 0.36447
 C476 C 0.88884 0.87763 0.36074
 C477 C 0.90206 0.82953 0.31376
 H478 H 0.83233 0.88519 0.39238
 H479 H 1.01260 0.80452 0.25370
 H480 H 1.08561 0.89149 0.31610
 N481 N 0.96402 0.68407 0.66053
 N482 N 0.99659 0.65762 0.60355
 C483 C 0.94263 0.61374 0.58131
 C484 C 0.87049 0.61446 0.62401
 C485 C 0.88627 0.65963 0.67400
 H486 H 0.81413 0.58592 0.61941
 H487 H 0.99349 0.72099 0.68666
 H488 H 1.05585 0.66873 0.58199
 N489 N 0.53593 0.30874 0.16146
 N490 N 0.50301 0.33416 0.10400
 C491 C 0.55708 0.37726 0.08008
 C492 C 0.62998 0.37666 0.12194
 C493 C 0.61437 0.33260 0.17336
 H494 H 0.68672 0.40459 0.11590
 H495 H 0.50624 0.27267 0.18895
 H496 H 0.44351 0.32278 0.08312
 N497 N 0.26301 0.85561 0.40848
 N498 N 0.30763 0.88590 0.45684
 C499 C 0.38738 0.89358 0.43246
 C500 C 0.39293 0.86761 0.36511
 C501 C 0.31307 0.84332 0.35163
 H502 H 0.44780 0.86710 0.33127
 H503 H 0.20001 0.84191 0.41601
 H504 H 0.28250 0.90308 0.50456
 N505 N 0.24430 0.13400 0.90524
 N506 N 0.20143 0.10212 0.95334
 C507 C 0.11854 0.10103 0.93496
 C508 C 0.10851 0.13463 0.87267
 C509 C 0.18997 0.15375 0.85470
 H510 H 0.05072 0.14279 0.84300
 H511 H 0.30963 0.14199 0.90762
 H512 H 0.22977 0.07869 0.99596
 N513 N 0.21469 0.91821 0.19916
 N514 N 0.16998 0.95667 0.15895
 C515 C 0.11013 0.92507 0.12155
 C516 C 0.11836 0.86308 0.14072
 C517 C 0.18585 0.86037 0.18936
 H518 H 0.08187 0.82437 0.12183
 H519 H 0.26683 0.93127 0.23029
 H520 H 0.18301 1.00396 0.15542
 N521 N 0.74569 0.36792 0.40003
 N522 N 0.78742 0.40513 0.44290
 C523 C 0.85546 0.42735 0.40907
 C524 C 0.85305 0.40523 0.33761
 C525 C 0.78068 0.36683 0.33337
 H526 H 0.90301 0.40927 0.29805
 H527 H 0.70272 0.33680 0.42201
 H528 H 0.77303 0.40992 0.49713
 N529 N 0.38025 0.10060 0.73388
 N530 N 0.42508 0.06271 0.69328
 C531 C 0.40616 0.07196 0.62367
 C532 C 0.34198 0.11633 0.62100
 C533 C 0.32720 0.13348 0.69257
 H534 H 0.31339 0.13603 0.57350
 H535 H 0.38987 0.10677 0.78875
 H536 H 0.46971 0.03169 0.71303
 N537 N 0.75557 0.62021 0.89914
 N538 N 0.71301 0.58327 0.94164
 C539 C 0.64383 0.56292 0.90799
 C540 C 0.64630 0.58581 0.83695
 C541 C 0.72002 0.62278 0.83278
 H542 H 0.59571 0.58333 0.79780
 H543 H 0.79875 0.65070 0.92177
 H544 H 0.72775 0.57761 0.99568
 N545 N 0.44957 0.31476 0.83247
 N546 N 0.48363 0.33760 0.89128
 C547 C 0.43011 0.37905 0.91976
 C548 C 0.35777 0.38142 0.87707
 C549 C 0.37208 0.33993 0.82237
 H550 H 0.30285 0.41068 0.88355
 H551 H 0.47716 0.27939 0.80239
 H552 H 0.54427 0.32676 0.90975
 N553 N 0.89109 0.22096 0.06392
 N554 N 0.93200 0.18226 0.02085
 C555 C 0.93865 0.12729 0.05423
 C556 C 0.89922 0.13180 0.12000
 C557 C 0.87346 0.19227 0.12655
 H558 H 0.88578 0.09422 0.15645
 H559 H 0.87128 0.26520 0.04908
 H560 H 0.95190 0.19290 -0.03116
 N561 N 0.60311 0.77031 0.56973
 N562 N 0.56284 0.80918 0.52656
 C563 C 0.56456 0.86598 0.55607
 C564 C 0.60562 0.86176 0.62138
 C565 C 0.62683 0.80029 0.62980
 H566 H 0.62059 0.89941 0.65740
 H567 H 0.61726 0.72448 0.55700
 H568 H 0.53325 0.79616 0.47900
 N569 N 0.05017 0.67879 0.33668
 N570 N 0.01515 0.65449 0.39427
 C571 C 0.06863 0.61273 0.42224
 C572 C 0.14173 0.61181 0.38058
 C573 C 0.12786 0.65440 0.32689
 H574 H 0.19661 0.58257 0.38687
 H575 H 0.02206 0.71326 0.30612
 H576 H -0.04616 0.66439 0.41187
   
