data_POSCAR
  _audit_creation_date              2014-09-24
  _audit_creation_method            'ToBaCCo'
  _symmetry_space_group_name_H-M    'P1'
  _symmetry_Int_Tables_number       1
  _symmetry_cell_setting            triclinic
  loop_
  _symmetry_equiv_pos_as_xyz
 x,y,z
_cell_length_a 41.8563
_cell_length_b 41.8570
_cell_length_c 41.8488
_cell_angle_alpha 89.952700
_cell_angle_beta 89.933000
_cell_angle_gamma 90.013700
loop_
  _atom_site_label
  _atom_site_type_symbol
  _atom_site_fract_x
  _atom_site_fract_y
  _atom_site_fract_z
C1 C 0.17105 0.17042 0.21228
 C2 C 0.19859 0.15704 0.19798
 C3 C 0.21284 0.17051 0.17044
 C4 C 0.19877 0.19818 0.15731
 C5 C 0.17150 0.21200 0.17098
 C6 C 0.15787 0.19806 0.19823
 H7 H 0.21060 0.13763 0.20996
 H8 H 0.20832 0.20886 0.13580
 H9 H 0.13586 0.20814 0.20727
 C10 C -0.17068 0.82948 0.21291
 C11 C -0.19835 0.84269 0.19874
 C12 C -0.21216 0.82908 0.17136
 C13 C -0.19824 0.80181 0.15783
 C14 C -0.17083 0.78808 0.17126
 C15 C -0.15726 0.80198 0.19861
 H16 H -0.20900 0.86418 0.20827
 H17 H -0.20835 0.79169 0.13627
 H18 H -0.13719 0.78998 0.20957
 C19 C -0.17046 0.17078 -0.21283
 C20 C -0.15735 0.19844 -0.19876
 C21 C -0.17104 0.21225 -0.17149
 C22 C -0.19829 0.19832 -0.15787
 C23 C -0.21231 0.17068 -0.17105
 C24 C -0.19800 0.15732 -0.19858
 H25 H -0.13584 0.20912 -0.20831
 H26 H -0.20734 0.20839 -0.13585
 H27 H -0.20997 0.13791 -0.21060
 C28 C 0.17077 0.82985 -0.21146
 C29 C 0.19816 0.84341 -0.19762
 C30 C 0.21252 0.82992 -0.17018
 C31 C 0.19833 0.80224 -0.15695
 C32 C 0.17092 0.78843 -0.17050
 C33 C 0.15733 0.80242 -0.19771
 H34 H 0.20860 0.86406 -0.20912
 H35 H 0.20736 0.79209 -0.13498
 H36 H 0.13670 0.79140 -0.20877
 C37 C 0.17082 1.17081 0.78779
 C38 C 0.19817 1.15726 0.80172
 C39 C 0.21202 1.17079 0.82911
 C40 C 0.19814 1.19820 0.84261
 C41 C 0.17079 1.21211 0.82903
 C42 C 0.15730 1.19822 0.80164
 H43 H 0.20924 1.13664 0.79068
 H44 H 0.20869 1.20878 0.86372
 H45 H 0.13574 1.20833 0.79153
 C46 C 0.82993 0.82922 0.78769
 C47 C 0.84338 0.80171 0.80196
 C48 C 0.83000 0.78749 0.82958
 C49 C 0.80249 0.80169 0.84290
 C50 C 0.78861 0.82893 0.82926
 C51 C 0.80237 0.84244 0.80187
 H52 H 0.86443 0.79124 0.79146
 H53 H 0.79045 0.79068 0.86297
 H54 H 0.79226 0.86443 0.79281
 C55 C 0.17030 0.82950 1.21243
 C56 C 0.19799 0.84272 1.19826
 C57 C 0.21182 0.82915 1.17084
 C58 C 0.19789 0.80192 1.15727
 C59 C 0.17044 0.78819 1.17071
 C60 C 0.15686 0.80205 1.19810
 H61 H 0.20866 0.86419 1.20781
 H62 H 0.20802 0.79182 1.13569
 H63 H 0.13676 0.79004 1.20907
 C64 C 0.82929 1.17039 1.21259
 C65 C 0.80162 1.15726 1.19856
 C66 C 0.78777 1.17095 1.17131
 C67 C 0.80166 1.19821 1.15769
 C68 C 0.82931 1.21225 1.17084
 C69 C 0.84271 1.19794 1.19834
 H70 H 0.79097 1.13574 1.20811
 H71 H 0.79156 1.20726 1.13570
 H72 H 0.86212 1.20993 1.21034
 N73 N 0.46656 1.05660 1.03407
 N74 N 0.44236 1.07642 1.03814
 N75 N 0.53376 1.03439 1.05630
 N76 N 0.55792 1.03847 1.07613
 N77 N 0.53381 1.05657 1.03408
 N78 N 0.55801 1.07639 1.03816
 N79 N 0.46652 1.03441 1.05629
 N80 N 0.44230 1.03851 1.07610
 C81 C 0.42757 1.06477 1.06442
 C82 C 0.57270 1.06473 1.06445
 N83 N 0.53373 0.94336 1.03421
 N84 N 0.55791 0.92353 1.03832
 N85 N 0.46648 0.96559 1.05636
 N86 N 0.44224 0.96153 1.07617
 N87 N 0.46650 0.94339 1.03419
 N88 N 0.44227 0.92360 1.03828
 N89 N 0.53372 0.96556 1.05638
 N90 N 0.55789 0.96147 1.07620
 Mn91 Mn 0.50012 0.99999 1.05671
 C92 C 0.57264 0.93520 1.06458
 C93 C 0.42749 0.93527 1.06452
 N94 N 0.53391 1.05655 0.96523
 N95 N 0.55814 1.07634 0.96113
 N96 N 0.46668 1.03438 0.94305
 N97 N 0.44250 1.03845 0.92323
 N98 N 0.46667 1.05658 0.96522
 N99 N 0.44247 1.07639 0.96112
 N100 N 0.53392 1.03435 0.94306
 N101 N 0.55816 1.03840 0.92325
 Mn102 Mn 0.50024 1.05696 0.99965
 C103 C 0.57292 1.06466 0.93488
 C104 C 0.42774 1.06472 0.93487
 N105 N 0.46658 0.94337 0.96536
 N106 N 0.44234 0.92359 0.96132
 N107 N 0.53387 0.96552 0.94315
 N108 N 0.55811 0.96141 0.92335
 N109 N 0.53382 0.94334 0.96537
 N110 N 0.55801 0.92351 0.96133
 N111 N 0.46663 0.96555 0.94313
 N112 N 0.44241 0.96150 0.92335
 Mn113 Mn 0.50016 0.94299 0.99978
 Mn114 Mn 0.50028 0.99995 0.94272
 Cl115 Cl 0.50020 0.99997 0.99971
 C116 C 0.42761 0.93526 0.93506
 C117 C 0.57282 0.93515 0.93506
 N118 N 0.03426 0.46620 0.05677
 N119 N 0.03839 0.44197 0.07656
 N120 N 0.05637 0.53351 0.03461
 N121 N 0.07614 0.55775 0.03866
 N122 N 0.03419 0.53344 0.05685
 N123 N 0.03825 0.55762 0.07667
 N124 N 0.05644 0.46627 0.03453
 N125 N 0.07628 0.44209 0.03855
 C126 C 0.06466 0.42727 0.06483
 C127 C 0.06448 0.57244 0.06496
 N128 N 0.03410 0.53368 -0.05638
 N129 N 0.03816 0.55792 -0.07619
 N130 N 0.05638 0.46642 -0.03431
 N131 N 0.07620 0.44224 -0.03844
 N132 N 0.03417 0.46644 -0.05646
 N133 N 0.03825 0.44227 -0.07630
 N134 N 0.05631 0.53366 -0.03423
 N135 N 0.07612 0.55788 -0.03834
 Mn136 Mn 0.05675 0.49997 0.00015
 C137 C 0.06443 0.57267 -0.06457
 C138 C 0.06452 0.42752 -0.06470
 N139 N -0.03463 0.53336 0.05699
 N140 N -0.03869 0.55754 0.07682
 N141 N -0.05677 0.46613 0.03476
 N142 N -0.07656 0.44190 0.03885
 N143 N -0.03456 0.46612 0.05691
 N144 N -0.03860 0.44187 0.07671
 N145 N -0.05684 0.53338 0.03484
 N146 N -0.07665 0.55757 0.03897
 Mn147 Mn -0.00018 0.49978 0.05726
 C148 C -0.06497 0.57230 0.06521
 C149 C -0.06486 0.42711 0.06508
 N150 N -0.03466 0.46635 -0.05632
 N151 N -0.03874 0.44219 -0.07617
 N152 N -0.05690 0.53351 -0.03400
 N153 N -0.07674 0.55770 -0.03801
 N154 N -0.03473 0.53358 -0.05624
 N155 N -0.03885 0.55782 -0.07601
 N156 N -0.05683 0.46627 -0.03408
 N157 N -0.07663 0.44205 -0.03817
 Mn158 Mn -0.00028 0.50001 -0.05673
 Mn159 Mn -0.05722 0.49982 0.00038
 Cl160 Cl -0.00023 0.49989 0.00027
 C161 C -0.06497 0.42738 -0.06448
 C162 C -0.06512 0.57252 -0.06428
 N163 N 0.96570 0.05658 0.46615
 N164 N 0.96164 0.07638 0.44191
 N165 N 0.94346 0.03453 0.53348
 N166 N 0.92365 0.03867 0.55770
 N167 N 0.96569 0.05669 0.53341
 N168 N 0.96164 0.07653 0.55758
 N169 N 0.94347 0.03443 0.46622
 N170 N 0.92365 0.03851 0.44204
 C171 C 0.93536 0.06474 0.42722
 C172 C 0.93536 0.06493 0.57240
 N173 N 0.96548 -0.05652 0.53366
 N174 N 0.96138 -0.07628 0.55793
 N175 N 0.94334 -0.03440 0.46638
 N176 N 0.92353 -0.03849 0.44220
 N177 N 0.96549 -0.05663 0.46642
 N178 N 0.96138 -0.07647 0.44226
 N179 N 0.94333 -0.03430 0.53363
 N180 N 0.92352 -0.03830 0.55789
 Mn181 Mn 0.94302 0.00007 0.49993
 C182 C 0.93515 -0.06455 0.57269
 C183 C 0.93515 -0.06480 0.42750
 N184 N 1.03452 0.05657 0.53332
 N185 N 1.03863 0.07640 0.55750
 N186 N 1.05668 0.03424 0.46610
 N187 N 1.07651 0.03825 0.44187
 N188 N 1.03453 0.05647 0.46607
 N189 N 1.03867 0.07624 0.44181
 N190 N 1.05667 0.03434 0.53335
 N191 N 1.07648 0.03841 0.55754
 Mn192 Mn 1.00011 0.05696 0.49974
 C193 C 1.06486 0.06471 0.57225
 C194 C 1.06491 0.06451 0.42706
 N195 N 1.03431 -0.05674 0.46635
 N196 N 1.03834 -0.07659 0.44218
 N197 N 1.05654 -0.03448 0.53353
 N198 N 1.07634 -0.03856 0.55773
 N199 N 1.03431 -0.05663 0.53360
 N200 N 1.03834 -0.07641 0.55786
 N201 N 1.05654 -0.03459 0.46627
 N202 N 1.07633 -0.03873 0.44204
 Mn203 Mn 0.99990 -0.05701 0.50001
 Mn204 Mn 1.05699 -0.00012 0.49981
 Cl205 Cl 1.00000 -0.00003 0.49987
 C206 C 1.06461 -0.06498 0.42736
 C207 C 1.06462 -0.06477 0.57256
 C208 C 1.14723 0.11009 0.27439
 C209 C 1.12963 0.12897 0.29553
 C210 C 1.12563 0.16148 0.28923
 C211 C 1.13916 0.17516 0.26190
 C212 C 1.15717 0.15654 0.24012
 C213 C 1.16087 0.12362 0.24704
 C214 C 1.11570 0.11500 0.32374
 C215 C 1.10405 0.10337 0.34740
 C216 C 1.09041 0.08981 0.37513
 C217 C 1.07877 0.07825 0.39883
 H218 H 1.15025 0.08478 0.27891
 H219 H 1.11225 0.17640 0.30562
 H220 H 1.13640 0.20066 0.25885
 H221 H 1.17319 0.10771 0.23084
 C222 C 0.88951 -0.14695 0.27507
 C223 C 0.87063 -0.12931 0.29617
 C224 C 0.83815 -0.12522 0.28984
 C225 C 0.82450 -0.13868 0.26252
 C226 C 0.84313 -0.15671 0.24076
 C227 C 0.87602 -0.16052 0.24772
 C228 C 0.88457 -0.11544 0.32436
 C229 C 0.89619 -0.10382 0.34799
 C230 C 0.90977 -0.09022 0.37568
 C231 C 0.92135 -0.07862 0.39934
 H232 H 0.91481 -0.15004 0.27961
 H233 H 0.82322 -0.11182 0.30621
 H234 H 0.79901 -0.13587 0.25950
 H235 H 0.89195 -0.17286 0.23156
 C236 C 0.85348 0.11056 0.72512
 C237 C 0.87093 0.12950 0.70388
 C238 C 0.87480 0.16204 0.71010
 C239 C 0.86129 0.17568 0.73743
 C240 C 0.84342 0.15699 0.75931
 C241 C 0.83986 0.12405 0.75248
 C242 C 0.88482 0.11558 0.67566
 C243 C 0.89644 0.10395 0.65200
 C244 C 0.91001 0.09036 0.62428
 C245 C 0.92159 0.07876 0.60059
 H246 H 0.85056 0.08523 0.72068
 H247 H 0.88806 0.17702 0.69363
 H248 H 0.86392 0.20120 0.74038
 H249 H 0.82766 0.10809 0.76876
 C250 C 1.10950 -0.13934 0.72923
 C251 C 1.12909 -0.12892 0.70418
 C252 C 1.16229 -0.13196 0.70666
 C253 C 1.17588 -0.14535 0.73408
 C254 C 1.15639 -0.15588 0.75941
 C255 C 1.12304 -0.15276 0.75667
 C256 C 1.11515 -0.11514 0.67593
 C257 C 1.10352 -0.10360 0.65224
 C258 C 1.08995 -0.09008 0.62449
 C259 C 1.07839 -0.07854 0.60079
 H260 H 1.08377 -0.13704 0.72759
 H261 H 1.17767 -0.12407 0.68736
 H262 H 1.20160 -0.14786 0.73528
 H263 H 1.10746 -0.16034 0.77591
 C264 C 0.27489 1.11029 1.14649
 C265 C 0.29612 1.12924 1.12903
 C266 C 0.28991 1.16178 1.12518
 C267 C 0.26258 1.17542 1.13870
 C268 C 0.24071 1.15672 1.15657
 C269 C 0.24754 1.12377 1.16013
 C270 C 0.32433 1.11531 1.11510
 C271 C 0.34797 1.10370 1.10345
 C272 C 0.37569 1.09014 1.08983
 C273 C 0.39937 1.07857 1.07822
 H274 H 0.27935 1.08495 1.14940
 H275 H 0.30637 1.17676 1.11191
 H276 H 0.25963 1.20094 1.13608
 H277 H 0.23127 1.10781 1.17233
 C278 C 0.28945 0.83855 0.87510
 C279 C 0.29588 0.87103 0.87105
 C280 C 0.27480 0.89001 0.85351
 C281 C 0.24739 0.87661 0.83996
 C282 C 0.24035 0.84372 0.84369
 C283 C 0.26206 0.82500 0.86166
 C284 C 0.32417 0.88488 0.88483
 C285 C 0.34787 0.89645 0.89635
 C286 C 0.37565 0.90998 0.90982
 C287 C 0.39938 0.92152 0.92133
 H288 H 0.30579 0.82355 0.88843
 H289 H 0.27942 0.91531 0.85046
 H290 H 0.23127 0.89264 0.82772
 H291 H 0.25893 0.79951 0.86443
 C292 C 0.70640 0.83750 1.13246
 C293 C 0.70393 0.87069 1.12923
 C294 C 0.72889 0.89031 1.13966
 C295 C 0.75622 0.87683 1.15333
 C296 C 0.75890 0.84349 1.15674
 C297 C 0.73371 0.82396 1.14610
 C298 C 0.67575 0.88459 1.11528
 C299 C 0.65213 0.89621 1.10363
 C300 C 0.62445 0.90979 1.09002
 C301 C 0.60079 0.92138 1.07840
 H302 H 0.68718 0.82209 1.12453
 H303 H 0.72727 0.91603 1.13718
 H304 H 0.77540 0.89245 1.16087
 H305 H 0.73495 0.79825 1.14873
 C306 C 0.72560 1.11035 0.85274
 C307 C 0.70444 1.12922 0.87033
 C308 C 0.71073 1.16173 0.87433
 C309 C 0.73806 1.17541 0.86082
 C310 C 0.75985 1.15680 0.84282
 C311 C 0.75296 1.12389 0.83912
 C312 C 0.67623 1.11525 0.88423
 C313 C 0.65257 1.10360 0.89585
 C314 C 0.62484 1.09002 0.90946
 C315 C 0.60114 1.07843 0.92106
 H316 H 0.72110 1.08504 0.84972
 H317 H 0.69432 1.17665 0.88770
 H318 H 0.74109 1.20091 0.86357
 H319 H 0.76917 1.10798 0.82681
 C320 C 0.13270 0.29351 0.16246
 C321 C 0.12936 0.29591 0.12927
 C322 C 0.13968 0.27086 0.10968
 C323 C 0.15335 0.24354 0.12318
 C324 C 0.15687 0.24093 0.15652
 C325 C 0.14635 0.26620 0.17602
 C326 C 0.11541 0.32408 0.11535
 C327 C 0.10375 0.34772 0.10372
 C328 C 0.09013 0.37542 0.09015
 C329 C 0.07851 0.39908 0.07858
 H330 H 0.12485 0.31278 0.17785
 H331 H 0.13711 0.27243 0.08396
 H332 H 0.16081 0.22429 0.10760
 H333 H 0.14905 0.26501 0.20173
 C334 C -0.16258 0.29373 -0.13265
 C335 C -0.12940 0.29612 -0.12928
 C336 C -0.10979 0.27109 -0.13961
 C337 C -0.12328 0.24378 -0.15331
 C338 C -0.15660 0.24118 -0.15685
 C339 C -0.17611 0.26644 -0.14632
 C340 C -0.11550 0.32427 -0.11528
 C341 C -0.10390 0.34788 -0.10359
 C342 C -0.09034 0.37556 -0.08995
 C343 C -0.07876 0.39921 -0.07832
 H344 H -0.17798 0.31299 -0.12479
 H345 H -0.08409 0.27265 -0.13702
 H346 H -0.10768 0.22454 -0.16077
 H347 H -0.20181 0.26525 -0.14904
 C348 C 0.16229 0.70691 -0.13157
 C349 C 0.12907 0.70421 -0.12895
 C350 C 0.10949 0.72902 -0.13985
 C351 C 0.12306 0.75642 -0.15335
 C352 C 0.15644 0.75936 -0.15610
 C353 C 0.17592 0.73429 -0.14505
 C354 C 0.11509 0.67598 -0.11511
 C355 C 0.10342 0.65231 -0.10353
 C356 C 0.08981 0.62458 -0.08996
 C357 C 0.07822 0.60088 -0.07838
 H358 H 0.17767 0.68781 -0.12329
 H359 H 0.08374 0.72722 -0.13786
 H360 H 0.10746 0.77548 -0.16128
 H361 H 0.20166 0.73568 -0.14720
 C362 C -0.10962 0.72857 0.14055
 C363 C -0.12928 0.70382 0.12969
 C364 C -0.16249 0.70657 0.13238
 C365 C -0.17603 0.73396 0.14586
 C366 C -0.15647 0.75898 0.15688
 C367 C -0.12310 0.75598 0.15407
 C368 C -0.11539 0.67558 0.11582
 C369 C -0.10381 0.65192 0.10421
 C370 C -0.09028 0.62419 0.09062
 C371 C -0.07873 0.60050 0.07903
 H372 H -0.08388 0.72672 0.13852
 H373 H -0.17793 0.68751 0.12413
 H374 H -0.20177 0.73539 0.14807
 H375 H -0.10745 0.77499 0.16198
 C376 C 1.14036 0.10953 0.72832
 C377 C 1.12927 0.12917 0.70363
 C378 C 1.13172 0.16240 0.70642
 C379 C 1.14521 0.17596 0.73378
 C380 C 1.15645 0.15642 0.75874
 C381 C 1.15387 0.12304 0.75570
 C382 C 1.11541 0.11526 0.67543
 C383 C 1.10381 0.10364 0.65179
 C384 C 1.09024 0.09007 0.62409
 C385 C 1.07867 0.07849 0.60042
 H386 H 1.13850 0.08378 0.72644
 H387 H 1.12330 0.17782 0.68741
 H388 H 1.14724 0.20171 0.73524
 H389 H 1.16194 0.10740 0.77466
 C390 C 0.83837 -0.12551 0.71066
 C391 C 0.87097 -0.12896 0.70445
 C392 C 0.89011 -0.14608 0.72574
 C393 C 0.87675 -0.15982 0.75312
 C394 C 0.84374 -0.15671 0.75991
 C395 C 0.82487 -0.13913 0.73802
 C396 C 0.88477 -0.11502 0.67618
 C397 C 0.89631 -0.10338 0.65247
 C398 C 0.90981 -0.08982 0.62469
 C399 C 0.92136 -0.07827 0.60095
 H400 H 0.82326 -0.11249 0.69416
 H401 H 0.91549 -0.14864 0.72130
 H402 H 0.89289 -0.17166 0.76943
 H403 H 0.79931 -0.13684 0.74101
 C404 C 1.16148 -0.12538 0.28948
 C405 C 1.12898 -0.12943 0.29583
 C406 C 1.11008 -0.14699 0.27471
 C407 C 1.12358 -0.16052 0.24731
 C408 C 1.15648 -0.15673 0.24033
 C409 C 1.17512 -0.13879 0.26211
 C410 C 1.11504 -0.11559 0.32406
 C411 C 1.10343 -0.10400 0.34773
 C412 C 1.08989 -0.09042 0.37546
 C413 C 1.07835 -0.07882 0.39915
 H414 H 1.17641 -0.11203 0.30586
 H415 H 1.08477 -0.15005 0.27927
 H416 H 1.10764 -0.17279 0.23114
 H417 H 1.20062 -0.13602 0.25907
 C418 C 0.88962 0.14651 0.27450
 C419 C 0.87071 0.12907 0.29579
 C420 C 0.83817 0.12517 0.28964
 C421 C 0.82448 0.13865 0.26232
 C422 C 0.84313 0.15652 0.24042
 C423 C 0.87608 0.16010 0.24717
 C424 C 0.88469 0.11522 0.32399
 C425 C 0.89635 0.10364 0.34763
 C426 C 0.90997 0.09009 0.37534
 C427 C 0.92156 0.07853 0.39902
 H428 H 0.91496 0.14944 0.27890
 H429 H 0.82323 0.11191 0.30614
 H430 H 0.79896 0.13600 0.25943
 H431 H 0.89201 0.17230 0.23085
 C432 C 0.13164 0.29346 -0.16251
 C433 C 0.12897 0.29615 -0.12928
 C434 C 0.13989 0.27138 -0.10965
 C435 C 0.15347 0.24403 -0.12316
 C436 C 0.15629 0.24110 -0.15655
 C437 C 0.14520 0.26612 -0.17608
 C438 C 0.11508 0.32435 -0.11535
 C439 C 0.10347 0.34798 -0.10372
 C440 C 0.08989 0.37568 -0.09013
 C441 C 0.07831 0.39935 -0.07853
 H442 H 0.12334 0.31253 -0.17792
 H443 H 0.13785 0.27319 -0.08390
 H444 H 0.16141 0.22500 -0.10753
 H445 H 0.14740 0.26473 -0.20182
 C446 C -0.11042 0.27435 0.14701
 C447 C -0.12932 0.29552 0.12949
 C448 C -0.16184 0.28923 0.12553
 C449 C -0.17549 0.26189 0.13902
 C450 C -0.15685 0.24009 0.15696
 C451 C -0.12392 0.24698 0.16062
 C452 C -0.11538 0.32376 0.11563
 C453 C -0.10375 0.34743 0.10403
 C454 C -0.09018 0.37517 0.09046
 C455 C -0.07861 0.39887 0.07887
 H456 H -0.08510 0.27886 0.14999
 H457 H -0.17677 0.30565 0.11221
 H458 H -0.20099 0.25885 0.13631
 H459 H -0.10799 0.23076 0.17288
 C460 C -0.14652 0.72547 -0.10998
 C461 C -0.12931 0.70403 -0.12888
 C462 C -0.12552 0.71006 -0.16148
 C463 C -0.13882 0.73744 -0.17522
 C464 C -0.15637 0.75955 -0.15656
 C465 C -0.15993 0.75287 -0.12357
 C466 C -0.11557 0.67581 -0.11485
 C467 C -0.10404 0.65214 -0.10317
 C468 C -0.09052 0.62441 -0.08958
 C469 C -0.07894 0.60072 -0.07802
 H470 H -0.14939 0.72115 -0.08460
 H471 H -0.11248 0.69342 -0.17642
 H472 H -0.13632 0.74019 -0.20078
 H473 H -0.17194 0.76930 -0.10766
 C474 C 0.16206 0.70671 0.13182
 C475 C 0.12884 0.70398 0.12917
 C476 C 0.10920 0.72876 0.14004
 C477 C 0.12270 0.75615 0.15354
 C478 C 0.15607 0.75912 0.15631
 C479 C 0.17561 0.73409 0.14528
 C480 C 0.11494 0.67575 0.11536
 C481 C 0.10333 0.65208 0.10380
 C482 C 0.08978 0.62434 0.09028
 C483 C 0.07823 0.60065 0.07873
 H484 H 0.17748 0.68763 0.12356
 H485 H 0.08346 0.72693 0.13803
 H486 H 0.10707 0.77518 0.16146
 H487 H 0.20135 0.73549 0.14747
 C488 C 0.27150 1.10953 0.85968
 C489 C 0.29626 1.12916 0.87057
 C490 C 0.29352 1.16238 0.86796
 C491 C 0.26613 1.17595 0.85450
 C492 C 0.24110 1.15642 0.84347
 C493 C 0.24410 1.12304 0.84620
 C494 C 0.32449 1.11525 0.88439
 C495 C 0.34815 1.10363 0.89596
 C496 C 0.37587 1.09006 0.90951
 C497 C 0.39955 1.07849 0.92108
 H498 H 0.27335 1.08379 0.86166
 H499 H 0.31258 1.17780 0.87623
 H500 H 0.26472 1.20169 0.85234
 H501 H 0.22508 1.10741 0.83827
 C502 C 0.29336 0.83758 1.13200
 C503 C 0.29588 0.87078 1.12884
 C504 C 0.27089 0.89040 1.13926
 C505 C 0.24351 0.87691 1.15288
 C506 C 0.24079 0.84356 1.15624
 C507 C 0.26600 0.82404 1.14559
 C508 C 0.32412 0.88469 1.11497
 C509 C 0.34780 0.89632 1.10339
 C510 C 0.37555 0.90991 1.08986
 C511 C 0.39926 0.92149 1.07830
 H512 H 0.31259 0.82218 1.12406
 H513 H 0.27255 0.91612 1.13683
 H514 H 0.22432 0.89252 1.16043
 H515 H 0.26472 0.79832 1.14817
 C516 C 0.70627 1.16242 1.13259
 C517 C 0.70392 1.12925 1.12918
 C518 C 0.72898 1.10966 1.13946
 C519 C 0.75628 1.12316 1.15314
 C520 C 0.75885 1.15649 1.15671
 C521 C 0.73355 1.17598 1.14624
 C522 C 0.67577 1.11533 1.11520
 C523 C 0.65217 1.10371 1.10353
 C524 C 0.62450 1.09012 1.08989
 C525 C 0.60086 1.07854 1.07827
 H526 H 0.68698 1.17781 1.12477
 H527 H 0.72745 1.08395 1.13684
 H528 H 0.77555 1.10758 1.16056
 H529 H 0.73471 1.20168 1.14899
 C530 C 0.70703 0.86769 0.83762
 C531 C 0.70434 0.87053 0.87083
 C532 C 0.72915 0.85980 0.89049
 C533 C 0.75655 0.84626 0.87701
 C534 C 0.75950 0.84330 0.84364
 C535 C 0.73441 0.85417 0.82409
 C536 C 0.67611 0.88444 0.88471
 C537 C 0.65245 0.89609 0.89628
 C538 C 0.62472 0.90971 0.90979
 C539 C 0.60103 0.92133 0.92131
 H540 H 0.68792 0.87584 0.82219
 H541 H 0.72734 0.86196 0.91623
 H542 H 0.77562 0.83845 0.89265
 H543 H 0.73582 0.85186 0.79836
   
