data_POSCAR
  _audit_creation_date              2014-09-24
  _audit_creation_method            'ToBaCCo'
  _symmetry_space_group_name_H-M    'P1'
  _symmetry_Int_Tables_number       1
  _symmetry_cell_setting            triclinic
  loop_
  _symmetry_equiv_pos_as_xyz
 x,y,z
_cell_length_a 32.8809
_cell_length_b 33.8593
_cell_length_c 32.9977
_cell_angle_alpha 89.845100
_cell_angle_beta 90.006900
_cell_angle_gamma 89.781600
loop_
  _atom_site_label
  _atom_site_type_symbol
  _atom_site_fract_x
  _atom_site_fract_y
  _atom_site_fract_z
N1 N 0.57845 0.69000 0.61010
 N2 N 0.56388 0.67419 0.64349
 C3 C 0.53150 0.69545 0.65588
 C4 C 0.52561 0.72602 0.62877
 C5 C 0.55579 0.72177 0.60007
 H6 H 0.51354 0.68929 0.68258
 H7 H 0.56098 0.74060 0.57408
 Cu8 Cu 0.58856 0.62737 0.66749
 Cu9 Cu 0.62606 0.66864 0.58267
 Cu10 Cu 0.67016 0.58453 0.62418
 N11 N 0.61284 0.57953 0.68967
 N12 N 0.64501 0.56311 0.67294
 C13 C 0.65527 0.53049 0.69413
 C14 C 0.62789 0.52629 0.72554
 C15 C 0.60136 0.55779 0.72190
 H16 H 0.68028 0.51090 0.68689
 H17 H 0.57551 0.56415 0.74108
 N18 N 0.69110 0.61062 0.57495
 N19 N 0.67438 0.64275 0.55930
 C20 C 0.69580 0.65377 0.52639
 C21 C 0.72726 0.62727 0.52112
 C22 C 0.72348 0.60028 0.55223
 H23 H 0.68919 0.67925 0.50768
 H24 H 0.74319 0.57526 0.55799
 H25 H 0.61797 0.61092 0.60183
 H26 H 0.65232 0.64242 0.63301
 N27 N 0.91848 0.30879 0.11271
 N28 N 0.93241 0.32370 0.14673
 C29 C 0.96417 0.30174 0.15960
 C30 C 0.97026 0.27165 0.13209
 C31 C 0.94090 0.27692 0.10271
 H32 H 0.98176 0.30738 0.18664
 H33 H 0.93631 0.25894 0.07607
 Cu34 Cu 0.90833 0.37083 0.17047
 Cu35 Cu 0.87235 0.33167 0.08409
 Cu36 Cu 0.82943 0.41649 0.12459
 N37 N 0.88494 0.41937 0.19173
 N38 N 0.85386 0.43688 0.17404
 C39 C 0.84422 0.46981 0.19482
 C40 C 0.87086 0.47309 0.22693
 C41 C 0.89630 0.44073 0.22415
 H42 H 0.82021 0.49030 0.18678
 H43 H 0.92142 0.43361 0.24403
 N44 N 0.80912 0.39130 0.07474
 N45 N 0.82550 0.35894 0.05945
 C46 C 0.80460 0.34850 0.02609
 C47 C 0.77378 0.37560 0.02014
 C48 C 0.77742 0.40236 0.05134
 H49 H 0.81094 0.32286 0.00768
 H50 H 0.75795 0.42759 0.05681
 H51 H 0.88163 0.38895 0.10401
 H52 H 0.84526 0.35810 0.13379
 N53 N 0.42335 0.18886 -0.10958
 N54 N 0.43987 0.17076 -0.14077
 C55 C 0.47220 0.19169 -0.15361
 C56 C 0.47605 0.22434 -0.12900
 C57 C 0.44474 0.22168 -0.10136
 H58 H 0.49154 0.18384 -0.17884
 H59 H 0.43794 0.24231 -0.07731
 Cu60 Cu 0.41764 0.12160 -0.16148
 Cu61 Cu 0.37496 0.16909 -0.08251
 Cu62 Cu 0.33289 0.08310 -0.12031
 N63 N 0.39296 0.07380 -0.18277
 N64 N 0.35969 0.05911 -0.16667
 C65 C 0.34848 0.02691 -0.18764
 C66 C 0.37623 0.02117 -0.21839
 C67 C 0.40408 0.05129 -0.21455
 H68 H 0.32190 0.00925 -0.18128
 H69 H 0.43001 0.05665 -0.23392
 N70 N 0.31014 0.11159 -0.07358
 N71 N 0.32602 0.14449 -0.05926
 C72 C 0.30353 0.15688 -0.02758
 C73 C 0.27226 0.13045 -0.02182
 C74 C 0.27725 0.10214 -0.05131
 H75 H 0.30948 0.18303 -0.00984
 H76 H 0.25822 0.07659 -0.05603
 H77 H 0.38381 0.11031 -0.09666
 H78 H 0.35208 0.14006 -0.13256
 N79 N 0.07965 0.80868 0.38733
 N80 N 0.06346 0.82583 0.35530
 C81 C 0.03082 0.80494 0.34332
 C82 C 0.02644 0.77325 0.36935
 C83 C 0.05776 0.77646 0.39695
 H84 H 0.01165 0.81220 0.31773
 H85 H 0.06424 0.75668 0.42194
 Cu86 Cu 0.08651 0.87386 0.33258
 Cu87 Cu 0.12820 0.82902 0.41381
 Cu88 Cu 0.17016 0.91422 0.37328
 N89 N 0.11016 0.92190 0.31042
 N90 N 0.14318 0.93721 0.32634
 C91 C 0.15355 0.96973 0.30531
 C92 C 0.12550 0.97507 0.27472
 C93 C 0.09833 0.94435 0.27871
 H94 H 0.17954 0.98814 0.31177
 H95 H 0.07219 0.93877 0.25972
 N96 N 0.19310 0.88674 0.42071
 N97 N 0.17730 0.85422 0.43616
 C98 C 0.19941 0.84320 0.46873
 C99 C 0.23029 0.87018 0.47388
 C100 C 0.22550 0.89732 0.44306
 H101 H 0.19317 0.81796 0.48783
 H102 H 0.24394 0.92318 0.43778
 H103 H 0.11917 0.88725 0.39743
 H104 H 0.15169 0.85666 0.36324
 C105 C 0.08970 0.15528 0.13091
 C106 C 0.11917 0.15766 0.10031
 C107 C 0.15035 0.12943 0.09794
 C108 C 0.15184 0.09860 0.12630
 C109 C 0.12255 0.09590 0.15703
 C110 C 0.09143 0.12425 0.15913
 H111 H 0.11766 0.18156 0.07851
 H112 H 0.17593 0.07684 0.12421
 H113 H 0.06882 0.12204 0.18284
 C114 C 0.40567 0.84524 0.63187
 C115 C 0.40474 0.87495 0.66141
 C116 C 0.37434 0.90406 0.66066
 C117 C 0.34492 0.90353 0.62992
 C118 C 0.34569 0.87414 0.60007
 C119 C 0.37607 0.84501 0.60127
 H120 H 0.42751 0.87564 0.68506
 H121 H 0.32157 0.92600 0.62917
 H122 H 0.37676 0.82221 0.57828
 C123 C 0.90866 0.65605 0.36830
 C124 C 0.90786 0.62579 0.33939
 C125 C 0.87767 0.59666 0.34084
 C126 C 0.84799 0.59815 0.37130
 C127 C 0.84855 0.62822 0.40043
 C128 C 0.87909 0.65700 0.39887
 H129 H 0.93068 0.62492 0.31588
 H130 H 0.82451 0.57579 0.37244
 H131 H 0.88006 0.68025 0.42127
 C132 C 0.59388 0.34455 -0.13342
 C133 C 0.62329 0.34438 -0.10271
 C134 C 0.65327 0.37369 -0.10135
 C135 C 0.65338 0.40359 -0.13084
 C136 C 0.62380 0.40432 -0.16148
 C137 C 0.59422 0.37458 -0.16273
 H138 H 0.62259 0.32129 -0.07999
 H139 H 0.67639 0.42640 -0.12984
 H140 H 0.57143 0.37487 -0.18629
 C141 C 0.02331 0.19037 0.16530
 C142 C 0.03178 0.23532 0.16719
 C143 C 0.00064 0.24190 0.13305
 C144 C -0.00829 0.19744 0.13117
 C145 C 0.03401 0.23774 0.10074
 C146 C 0.06558 0.23071 0.13485
 C147 C 0.05681 0.18612 0.13293
 C148 C 0.02556 0.19285 0.09886
 H149 H 0.01845 0.17113 0.19212
 H150 H 0.03436 0.25290 0.19541
 H151 H -0.03901 0.18404 0.12962
 H152 H 0.03815 0.25753 0.07420
 H153 H 0.09628 0.24414 0.13638
 H154 H 0.02326 0.17506 0.07075
 C155 C 0.47128 0.80763 0.66475
 C156 C 0.46235 0.76277 0.66444
 C157 C 0.49375 0.75754 0.63033
 C158 C 0.50304 0.80198 0.63059
 C159 C 0.46064 0.76363 0.59800
 C160 C 0.42884 0.76928 0.63212
 C161 C 0.43806 0.81381 0.63238
 C162 C 0.46950 0.80848 0.59827
 H163 H 0.47621 0.82535 0.69253
 H164 H 0.45946 0.74377 0.69174
 H165 H 0.53390 0.81512 0.62989
 H166 H 0.45658 0.74520 0.57054
 H167 H 0.39801 0.75606 0.63279
 H168 H 0.47220 0.82762 0.57104
 C169 C 0.97319 0.69241 0.40046
 C170 C 1.00587 0.69902 0.36732
 C171 C 0.99633 0.74347 0.36814
 C172 C 0.96413 0.73730 0.40128
 C173 C 0.96412 0.73860 0.33476
 C174 C 0.97324 0.69369 0.33395
 C175 C 0.94090 0.68739 0.36712
 C176 C 0.93149 0.73196 0.36791
 H177 H 0.97668 0.67308 0.42747
 H178 H 1.03679 0.68574 0.36713
 H179 H 0.96066 0.75554 0.42897
 H180 H 0.96033 0.75770 0.30762
 H181 H 0.97749 0.67613 0.30592
 H182 H 0.90058 0.74527 0.36812
 C183 C 0.52997 0.30528 -0.16711
 C184 C 0.53963 0.26051 -0.16482
 C185 C 0.50738 0.25607 -0.13141
 C186 C 0.49733 0.30038 -0.13367
 C187 C 0.53942 0.26350 -0.09842
 C188 C 0.57208 0.26836 -0.13183
 C189 C 0.56211 0.31278 -0.13405
 C190 C 0.52979 0.30820 -0.10068
 H191 H 0.52567 0.32214 -0.19568
 H192 H 0.54357 0.24066 -0.19125
 H193 H 0.46623 0.31324 -0.13436
 H194 H 0.54301 0.24597 -0.07016
 H195 H 0.60314 0.25542 -0.13111
 H196 H 0.52596 0.32814 -0.07429
 C197 C 0.12453 0.07048 0.23390
 C198 C 0.09142 0.03847 0.23914
 C199 C 0.12502 0.00705 0.24346
 C200 C 0.15812 0.03867 0.23863
 C201 C 0.12474 -0.00031 0.19754
 C202 C 0.09114 0.03157 0.19278
 C203 C 0.12427 0.06321 0.18788
 C204 C 0.15788 0.03166 0.19231
 H205 H 0.12448 0.09992 0.24864
 H206 H 0.06410 0.04095 0.25873
 H207 H 0.18579 0.04159 0.25765
 H208 H 0.12478 -0.02978 0.18289
 H209 H 0.06357 0.02892 0.17357
 H210 H 0.18561 0.02824 0.17348
 C211 C 0.59128 0.44505 -0.22488
 C212 C 0.59248 0.48950 -0.21410
 C213 C 0.62646 0.49530 -0.24555
 C214 C 0.62529 0.45129 -0.25669
 C215 C 0.65920 0.48742 -0.21325
 C216 C 0.62519 0.48113 -0.18140
 C217 C 0.62401 0.43700 -0.19243
 C218 C 0.65800 0.44292 -0.22390
 H219 H 0.56297 0.42815 -0.23027
 H220 H 0.56537 0.50869 -0.20992
 H221 H 0.62539 0.43928 -0.28796
 H222 H 0.68714 0.50518 -0.20873
 H223 H 0.62510 0.49316 -0.15014
 H224 H 0.68493 0.42341 -0.22770
 C225 C 0.34104 0.96773 0.69851
 C226 C 0.34142 0.95927 0.74462
 C227 C 0.37537 0.98996 0.74973
 C228 C 0.37503 0.99874 0.70403
 C229 C 0.40811 0.95795 0.74398
 C230 C 0.37414 0.92686 0.73843
 C231 C 0.37380 0.93559 0.69263
 C232 C 0.40777 0.96630 0.69784
 H233 H 0.31306 0.97240 0.68030
 H234 H 0.31403 0.95639 0.76405
 H235 H 0.37547 1.02865 0.69018
 H236 H 0.43570 0.95424 0.76303
 H237 H 0.37372 0.89698 0.75235
 H238 H 0.43506 0.96896 0.67824
 C239 C 0.84302 0.55920 0.27822
 C240 C 0.87584 0.54969 0.24596
 C241 C 0.87289 0.50574 0.25724
 C242 C 0.84005 0.51479 0.28907
 C243 C 0.90662 0.51040 0.28915
 C244 C 0.90962 0.55476 0.27817
 C245 C 0.87677 0.56394 0.31013
 C246 C 0.87382 0.51989 0.32136
 H247 H 0.81687 0.57962 0.27395
 H248 H 0.87659 0.56166 0.21462
 H249 H 0.81142 0.49800 0.29327
 H250 H 0.93288 0.49017 0.29365
 H251 H 0.93862 0.57067 0.27314
 H252 H 0.87305 0.50784 0.35267
 C253 C 0.18850 0.09892 0.03370
 C254 C 0.19408 0.13103 0.00069
 C255 C 0.23990 0.13156 0.00987
 C256 C 0.23470 0.09948 0.04247
 C257 C 0.23378 0.16426 0.04155
 C258 C 0.18749 0.16373 0.03279
 C259 C 0.18227 0.13156 0.06547
 C260 C 0.22818 0.13214 0.07455
 H261 H 0.16954 0.07203 0.03070
 H262 H 0.18040 0.13052 -0.03006
 H263 H 0.25446 0.07305 0.04615
 H264 H 0.25266 0.19118 0.04467
 H265 H 0.16832 0.19042 0.02837
 H266 H 0.24195 0.13261 0.10526
 C267 C 0.77058 0.62851 0.42421
 C268 C 0.76532 0.59589 0.45676
 C269 C 0.75932 0.62805 0.48903
 C270 C 0.76416 0.66066 0.45688
 C271 C 0.80521 0.62865 0.49785
 C272 C 0.81163 0.59649 0.46515
 C273 C 0.81656 0.62911 0.43297
 C274 C 0.81046 0.66129 0.46536
 H275 H 0.75657 0.62849 0.39361
 H276 H 0.74642 0.56899 0.45354
 H277 H 0.74445 0.68715 0.45350
 H278 H 0.81915 0.62864 0.52849
 H279 H 0.83150 0.57008 0.46831
 H280 H 0.82859 0.68855 0.46947
 C281 C 0.73113 0.37432 -0.07712
 C282 C 0.73600 0.40705 -0.04479
 C283 C 0.74199 0.37500 -0.01223
 C284 C 0.73756 0.34229 -0.04415
 C285 C 0.69607 0.37415 -0.00369
 C286 C 0.68962 0.40619 -0.03671
 C287 C 0.68511 0.37344 -0.06864
 C288 C 0.69125 0.34139 -0.03593
 H289 H 0.74533 0.37434 -0.10764
 H290 H 0.75474 0.43406 -0.04811
 H291 H 0.75742 0.31590 -0.04725
 H292 H 0.68193 0.37416 0.02685
 H293 H 0.66955 0.43248 -0.03390
 H294 H 0.67336 0.31400 -0.03159
 C295 C 0.28142 0.90516 0.55895
 C296 C 0.29210 0.90444 0.51331
 C297 C 0.26103 0.87116 0.50719
 C298 C 0.25005 0.87182 0.55244
 C299 C 0.29400 0.83970 0.51482
 C300 C 0.32545 0.87302 0.52139
 C301 C 0.31453 0.87371 0.56674
 C302 C 0.28346 0.84038 0.56056
 H303 H 0.27551 0.93248 0.57652
 H304 H 0.29573 0.93091 0.49375
 H305 H 0.21871 0.87125 0.56490
 H306 H 0.29886 0.81277 0.49631
 H307 H 0.35678 0.87357 0.50886
 H308 H 0.28014 0.81404 0.58036
   
