data_POSCAR
  _audit_creation_date              2014-09-24
  _audit_creation_method            'ToBaCCo'
  _symmetry_space_group_name_H-M    'P1'
  _symmetry_Int_Tables_number       1
  _symmetry_cell_setting            triclinic
  loop_
  _symmetry_equiv_pos_as_xyz
 x,y,z
_cell_length_a 36.4437
_cell_length_b 35.9905
_cell_length_c 35.8376
_cell_angle_alpha 90.780100
_cell_angle_beta 89.979900
_cell_angle_gamma 89.821800
loop_
  _atom_site_label
  _atom_site_type_symbol
  _atom_site_fract_x
  _atom_site_fract_y
  _atom_site_fract_z
N1 N 0.18712 1.26507 0.16666
 N2 N 0.15727 1.25858 0.18612
 C3 C 0.13236 1.28536 0.17941
 C4 C 0.14747 1.30981 0.15439
 C5 C 0.18224 1.29628 0.14692
 H6 H 0.10489 1.28623 0.19081
 H7 H 0.20171 1.30730 0.12719
 Cu8 Cu 0.15220 1.21446 0.21629
 Cu9 Cu 0.22799 1.23013 0.16487
 Cu10 Cu 0.22473 1.15723 0.22658
 N11 N 0.15402 1.17771 0.25545
 N12 N 0.18271 1.15600 0.26003
 C13 C 0.17621 1.13290 0.28852
 C14 C 0.14152 1.14048 0.30219
 C15 C 0.12816 1.16903 0.28068
 H16 H 0.19473 1.11139 0.29781
 H17 H 0.10149 1.18214 0.28288
 N18 N 0.26475 1.16336 0.19031
 N19 N 0.26638 1.19156 0.16718
 C20 C 0.29508 1.18640 0.14395
 C21 C 0.31195 1.15331 0.15274
 C22 C 0.29217 1.13941 0.18221
 H23 H 0.30184 1.20404 0.12077
 H24 H 0.29633 1.11292 0.19545
 H25 H 0.20052 1.18276 0.18113
 H26 H 0.21868 1.21390 0.21917
 N27 N 0.80694 0.73667 0.15951
 N28 N 0.82652 0.73178 0.18987
 C29 C 0.85083 0.70410 0.18376
 C30 C 0.84617 0.69118 0.14764
 C31 C 0.81814 0.71233 0.13302
 H32 H 0.87101 0.69473 0.20369
 H33 H 0.80715 0.71055 0.10504
 Cu34 Cu 0.82002 0.76359 0.23356
 Cu35 Cu 0.76914 0.77484 0.15627
 Cu36 Cu 0.76560 0.83926 0.22862
 N37 N 0.82369 0.80417 0.26957
 N38 N 0.80266 0.83382 0.26735
 C39 C 0.81319 0.85884 0.29344
 C40 C 0.84222 0.84393 0.31299
 C41 C 0.84826 0.80923 0.29722
 H42 H 0.80175 0.88645 0.29684
 H43 H 0.87007 0.78999 0.30392
 N44 N 0.73097 0.83966 0.18639
 N45 N 0.73280 0.81541 0.15845
 C46 C 0.70707 0.82398 0.13301
 C47 C 0.68820 0.85490 0.14565
 C48 C 0.70388 0.86420 0.17952
 H49 H 0.70270 0.80932 0.10686
 H50 H 0.69677 0.88770 0.19722
 H51 H 0.79818 0.81051 0.19099
 H52 H 0.75967 0.78404 0.21273
 N53 N 0.82404 1.25715 -0.15453
 N54 N 0.84762 1.25833 -0.18227
 C55 C 0.87227 1.28535 -0.17522
 C56 C 0.86371 1.30160 -0.14123
 C57 C 0.83303 1.28315 -0.12879
 H58 H 0.89529 1.29216 -0.19286
 H59 H 0.81853 1.28809 -0.10286
 Cu60 Cu 0.84520 1.22262 -0.22339
 Cu61 Cu 0.78363 1.22191 -0.15371
 Cu62 Cu 0.77697 1.16010 -0.22856
 N63 N 0.84226 1.18669 -0.26426
 N64 N 0.81513 1.16275 -0.26653
 C65 C 0.82098 1.13961 -0.29579
 C66 C 0.85363 1.14946 -0.31241
 C67 C 0.86645 1.17942 -0.29185
 H68 H 0.80390 1.11612 -0.30319
 H69 H 0.89217 1.19374 -0.29575
 N70 N 0.74133 1.16165 -0.18716
 N71 N 0.74455 1.18443 -0.15814
 C72 C 0.71795 1.17680 -0.13332
 C73 C 0.69708 1.14802 -0.14750
 C74 C 0.71245 1.13910 -0.18162
 H75 H 0.71442 1.19055 -0.10656
 H76 H 0.70397 1.11685 -0.20023
 H77 H 0.80894 1.18066 -0.18542
 H78 H 0.77998 1.21488 -0.21084
 N79 N 0.18661 0.74038 -0.16063
 N80 N 0.15838 0.74293 -0.18331
 C81 C 0.13386 0.71640 -0.17483
 C82 C 0.14762 0.69626 -0.14547
 C83 C 0.18113 0.71203 -0.13716
 H84 H 0.10762 0.71248 -0.18836
 H85 H 0.19937 0.70437 -0.11473
 Cu86 Cu 0.15573 0.78146 -0.22077
 Cu87 Cu 0.22642 0.77635 -0.16062
 Cu88 Cu 0.22277 0.84501 -0.22747
 N89 N 0.15500 0.81914 -0.25919
 N90 N 0.18168 0.84346 -0.26214
 C91 C 0.17432 0.86632 -0.29064
 C92 C 0.14121 0.85582 -0.30611
 C93 C 0.12962 0.82584 -0.28561
 H94 H 0.19128 0.88938 -0.29897
 H95 H 0.10450 0.81037 -0.28946
 N96 N 0.26212 0.84195 -0.18995
 N97 N 0.26389 0.81542 -0.16491
 C98 C 0.29240 0.82226 -0.14191
 C99 C 0.30907 0.85464 -0.15297
 C100 C 0.28931 0.86644 -0.18338
 H101 H 0.29934 0.80612 -0.11768
 H102 H 0.29357 0.89188 -0.19847
 H103 H 0.19684 0.81986 -0.18300
 H104 H 0.22205 0.78884 -0.21652
 C105 C 0.55376 1.05855 -0.01573
 H106 H 0.55170 1.06212 0.01422
 C107 C 0.57974 1.07862 -0.03565
 H108 H 0.59757 1.09794 -0.02103
 C109 C 0.53390 1.02808 -0.07118
 H110 H 0.51664 1.00765 -0.08476
 C111 C 0.55985 1.04729 -0.09212
 H112 H 0.56189 1.04190 -0.12181
 N113 N 0.53135 1.03402 -0.03368
 C114 C 0.44780 1.01870 0.05181
 H115 H 0.44939 0.98884 0.05460
 C116 C 0.42324 1.03921 0.07376
 H117 H 0.40600 1.02514 0.09369
 C118 C 0.46760 1.07335 0.02169
 H119 H 0.48435 1.08641 0.00076
 C120 C 0.44301 1.09489 0.04278
 H121 H 0.44145 1.12451 0.03827
 Zn122 Zn 0.49982 1.00531 -0.00378
 N123 N 0.46957 1.03597 0.02661
 C124 C 0.53360 0.98021 0.06314
 N125 N 0.53056 0.97502 0.02558
 C126 C 0.55182 0.94974 0.00703
 C127 C 0.57687 0.92785 0.02638
 C128 C 0.55864 0.95914 0.08354
 C129 C 0.44654 0.99427 -0.05855
 C130 C 0.42125 0.97478 -0.08046
 C131 C 0.43978 0.91823 -0.05010
 C132 C 0.46504 0.93873 -0.02902
 N133 N 0.46808 0.97605 -0.03375
 H134 H 0.51741 1.00133 0.07720
 H135 H 0.54951 0.94690 -0.02297
 H136 H 0.59372 0.90813 0.01105
 H137 H 0.56131 0.96380 0.11333
 H138 H 0.44892 1.02408 -0.06110
 H139 H 0.40421 0.98982 -0.09985
 H140 H 0.43717 0.88862 -0.04580
 H141 H 0.48152 0.92493 -0.00830
 C142 C 0.42041 1.07767 0.06901
 C143 C 0.58325 1.07267 -0.07418
 C144 C 0.41768 0.93632 -0.07622
 C145 C 0.58050 0.93259 0.06507
 C146 C -0.00894 0.55999 1.05471
 H147 H 0.02063 0.56240 1.05560
 C148 C -0.03078 0.58518 1.07476
 H149 H -0.01801 0.60701 1.09124
 C150 C -0.06177 0.52950 1.03104
 H151 H -0.07384 0.50851 1.01316
 C152 C -0.08461 0.55392 1.05090
 H153 H -0.11404 0.55115 1.04831
 N154 N -0.02465 0.53274 1.03350
 C155 C 0.05885 0.44701 1.01897
 H156 H 0.05944 0.44539 0.98881
 C157 C 0.07922 0.42187 1.03984
 H158 H 0.09564 0.40086 1.02571
 C159 C 0.03523 0.47519 1.07419
 H160 H 0.01726 0.49533 1.08742
 C161 C 0.05544 0.45069 1.09617
 H162 H 0.05301 0.45235 1.12624
 Zn163 Zn 0.00708 0.50167 1.00506
 N164 N 0.03720 0.47278 1.03631
 C165 C 0.07284 0.53539 0.97993
 N166 N 0.03588 0.53307 0.97510
 C167 C 0.01800 0.55523 0.95058
 C168 C 0.03744 0.58085 0.92948
 C169 C 0.09328 0.56100 0.95968
 C170 C -0.04207 0.44341 0.99338
 C171 C -0.06174 0.41658 0.97340
 C172 C -0.03454 0.43900 0.91653
 C173 C -0.01574 0.46582 0.93756
 N174 N -0.02000 0.46767 0.97527
 H175 H 0.08640 0.51806 1.00013
 H176 H -0.01149 0.55323 0.94778
 H177 H 0.02290 0.59850 0.91016
 H178 H 0.12257 0.56284 0.96416
 H179 H -0.04428 0.44493 1.02347
 H180 H -0.07943 0.39759 0.98811
 H181 H -0.03082 0.43780 0.88659
 H182 H 0.00272 0.48461 0.92377
 C183 C 0.07735 0.42341 1.07885
 C184 C -0.06905 0.58220 1.07294
 C185 C -0.05779 0.41404 0.93459
 C186 C 0.07542 0.58422 0.93434
 C187 C 1.04629 -0.01378 0.55499
 H188 H 1.04468 0.01623 0.55640
 C189 C 1.06670 -0.03302 0.58144
 H190 H 1.08095 -0.01779 0.60328
 C191 C 1.02837 -0.07038 0.52577
 H192 H 1.01269 -0.08486 0.50459
 C193 C 1.04882 -0.09070 0.55146
 H194 H 1.04879 -0.12073 0.54968
 N195 N 1.02751 -0.03261 0.52799
 C196 C 1.00876 0.04546 0.43803
 H197 H 0.97908 0.04600 0.43746
 C198 C 1.02868 0.06574 0.41209
 H199 H 1.01429 0.08223 0.39166
 C200 C 1.06373 0.02255 0.46474
 H201 H 1.07724 0.00524 0.48499
 C202 C 1.08472 0.04203 0.43891
 H203 H 1.11432 0.03988 0.43978
 Zn204 Zn 0.99742 -0.00429 0.49607
 N205 N 1.02645 0.02463 0.46384
 C206 C 0.96690 0.06393 0.52332
 N207 N 0.96751 0.02634 0.52695
 C208 C 0.94853 0.00944 0.55462
 C209 C 0.92792 0.03051 0.58006
 C210 C 0.94629 0.08601 0.54794
 C211 C 0.98609 -0.05572 0.43853
 C212 C 0.96632 -0.07761 0.41322
 C213 C 0.91034 -0.05823 0.44404
 C214 C 0.93116 -0.03648 0.46866
 N215 N 0.96836 -0.03568 0.46550
 H216 H 0.98293 0.07701 0.50188
 H217 H 0.95004 -0.02043 0.55730
 H218 H 0.91344 0.01682 0.60238
 H219 H 0.94651 0.11588 0.54499
 H220 H 1.01566 -0.05419 0.43638
 H221 H 0.98093 -0.09306 0.39179
 H222 H 0.88073 -0.05849 0.44653
 H223 H 0.91753 -0.01986 0.48984
 C224 C 1.06705 0.06375 0.41213
 C225 C 1.06799 -0.07190 0.57983
 C226 C 0.92797 -0.07874 0.41573
 C227 C 0.92671 0.06922 0.57679
 C228 C 0.10030 0.39190 1.14382
 C229 C 0.08903 0.35046 1.14153
 C230 C 0.12962 0.33968 1.13645
 C231 C 0.14120 0.38064 1.13907
 C232 C 0.12605 0.34201 1.09382
 C233 C 0.08530 0.35315 1.09864
 C234 C 0.09671 0.39424 1.10109
 C235 C 0.13733 0.38341 1.09612
 H236 H 0.08990 0.41242 1.16469
 H237 H 0.06899 0.33688 1.16021
 H238 H 0.16442 0.39162 1.15591
 H239 H 0.13676 0.32121 1.07337
 H240 H 0.06212 0.34206 1.08182
 H241 H 0.15707 0.39725 1.07728
 C242 C -0.13481 0.60970 1.09682
 C243 C -0.13104 0.62060 1.13862
 C244 C -0.13188 0.66179 1.12793
 C245 C -0.13590 0.65127 1.08640
 C246 C -0.08986 0.66234 1.12431
 C247 C -0.08870 0.62073 1.13471
 C248 C -0.09269 0.61020 1.09313
 C249 C -0.09360 0.65148 1.08257
 H250 H -0.15379 0.58815 1.08580
 H251 H -0.14666 0.60821 1.16193
 H252 H -0.15538 0.66397 1.06644
 H253 H -0.07159 0.68430 1.13580
 H254 H -0.06910 0.60788 1.15445
 H255 H -0.07801 0.66398 1.05929
 C256 C -0.07893 0.34347 0.92493
 C257 C -0.12108 0.34326 0.91966
 C258 C -0.11554 0.33164 0.87859
 C259 C -0.07366 0.33149 0.88365
 C260 C -0.11478 0.37250 0.86673
 C261 C -0.12006 0.38451 0.90810
 C262 C -0.07815 0.38445 0.91319
 C263 C -0.07261 0.37277 0.87205
 H264 H -0.06394 0.33167 0.94901
 H265 H -0.14111 0.33096 0.93925
 H266 H -0.05477 0.30933 0.87344
 H267 H -0.12981 0.38413 0.84260
 H268 H -0.13898 0.40665 0.91829
 H269 H -0.05262 0.38463 0.85215
 C270 C 0.10077 0.61306 0.87065
 C271 C 0.08866 0.65430 0.86987
 C272 C 0.12887 0.66602 0.87531
 C273 C 0.14127 0.62518 0.87581
 C274 C 0.12410 0.66639 0.91793
 C275 C 0.08371 0.65433 0.91275
 C276 C 0.09599 0.61337 0.91331
 C277 C 0.13627 0.62515 0.91873
 H278 H 0.09104 0.59079 0.85137
 H279 H 0.06904 0.66642 0.84969
 H280 H 0.16513 0.61350 0.86032
 H281 H 0.13383 0.68867 0.93719
 H282 H 0.05990 0.66618 0.92819
 H283 H 0.15621 0.61346 0.93883
 C284 C 1.12969 0.08057 0.37431
 C285 C 1.12049 0.07856 0.33212
 C286 C 1.12277 0.12114 0.33055
 C287 C 1.13226 0.12347 0.37228
 C288 C 1.08157 0.12477 0.33923
 C289 C 1.07909 0.08192 0.34120
 C290 C 1.08842 0.08418 0.38306
 C291 C 1.09075 0.12680 0.38137
 H292 H 1.14980 0.06237 0.38848
 H293 H 1.13284 0.05886 0.31155
 H294 H 1.15431 0.14083 0.38478
 H295 H 1.06165 0.14295 0.32473
 H296 H 1.05710 0.06458 0.32857
 H297 H 1.07838 0.14646 0.40196
 C298 C 1.09654 -0.13472 0.61028
 C299 C 1.13605 -0.12590 0.62375
 C300 C 1.12244 -0.12661 0.66432
 C301 C 1.08324 -0.13570 0.65131
 C302 C 1.11413 -0.08473 0.66364
 C303 C 1.12743 -0.08375 0.62262
 C304 C 1.08817 -0.09275 0.60954
 C305 C 1.07472 -0.09354 0.65023
 H306 H 1.08960 -0.15560 0.58837
 H307 H 1.16150 -0.13940 0.61318
 H308 H 1.06491 -0.15709 0.66319
 H309 H 1.12150 -0.06431 0.68587
 H310 H 1.14549 -0.06225 0.61053
 H311 H 1.04928 -0.08005 0.66087
 C312 C 0.92014 -0.12135 0.35302
 C313 C 0.89542 -0.15482 0.36259
 C314 C 0.86427 -0.13738 0.33976
 C315 C 0.88866 -0.10420 0.32986
 C316 C 0.84960 -0.11672 0.37451
 C317 C 0.88112 -0.13378 0.39778
 C318 C 0.90561 -0.10057 0.38791
 C319 C 0.87436 -0.08327 0.36497
 H320 H 0.94905 -0.12357 0.34353
 H321 H 0.90399 -0.18444 0.36164
 H322 H 0.89153 -0.09217 0.30165
 H323 H 0.82037 -0.11501 0.38309
 H324 H 0.87827 -0.14578 0.42599
 H325 H 0.86591 -0.05361 0.36610
 C326 C 0.86705 0.08426 0.61876
 C327 C 0.88026 0.08802 0.65969
 C328 C 0.87214 0.12993 0.65857
 C329 C 0.85861 0.12648 0.61809
 C330 C 0.91143 0.13790 0.64527
 C331 C 0.91974 0.09571 0.64601
 C332 C 0.90638 0.09215 0.60541
 C333 C 0.89820 0.13415 0.60433
 H334 H 0.84893 0.06202 0.60757
 H335 H 0.87275 0.06920 0.68275
 H336 H 0.83325 0.13935 0.60692
 H337 H 0.92986 0.15999 0.65619
 H338 H 0.94508 0.08285 0.65727
 H339 H 0.90530 0.15344 0.58157
 C340 C 0.35184 1.08767 0.09294
 C341 C 0.35272 1.09301 0.13582
 C342 C 0.34149 1.13390 0.13100
 C343 C 0.34031 1.12873 0.08836
 C344 C 0.38192 1.14574 0.12922
 C345 C 0.39354 1.10455 0.13376
 C346 C 0.39238 1.09936 0.09110
 C347 C 0.38113 1.14032 0.08626
 H348 H 0.33957 1.06365 0.07777
 H349 H 0.34094 1.07349 0.15629
 H350 H 0.31808 1.13882 0.06986
 H351 H 0.39400 1.16982 0.14445
 H352 H 0.41575 1.09445 0.15226
 H353 H 0.39255 1.16011 0.06586
 C354 C 0.65322 1.09220 -0.08257
 C355 C 0.66519 1.08605 -0.12360
 C356 C 0.66636 1.12839 -0.12855
 C357 C 0.65472 1.13478 -0.08771
 C358 C 0.62610 1.12872 -0.14129
 C359 C 0.62452 1.08609 -0.13609
 C360 C 0.61284 1.09248 -0.09517
 C361 C 0.61406 1.13485 -0.10015
 H362 H 0.66422 1.07694 -0.05828
 H363 H 0.68657 1.06616 -0.13338
 H364 H 0.66726 1.15488 -0.06776
 H365 H 0.61527 1.14402 -0.16563
 H366 H 0.61237 1.06606 -0.15635
 H367 H 0.59269 1.15476 -0.09037
 C368 C 0.36621 0.92896 -0.13073
 C369 C 0.37304 0.89166 -0.15170
 C370 C 0.33869 0.87557 -0.13310
 C371 C 0.33154 0.91256 -0.11238
 C372 C 0.36174 0.86131 -0.10030
 C373 C 0.39651 0.87774 -0.11862
 C374 C 0.38933 0.91478 -0.09784
 C375 C 0.35492 0.89857 -0.07934
 H376 H 0.36778 0.95669 -0.14377
 H377 H 0.38022 0.88853 -0.18169
 H378 H 0.30450 0.92666 -0.10995
 H379 H 0.35977 0.83330 -0.08789
 H380 H 0.42353 0.86361 -0.12108
 H381 H 0.34764 0.90165 -0.04938
 C382 C 0.63121 0.87761 0.07167
 C383 C 0.66625 0.89542 0.08828
 C384 C 0.65899 0.87542 0.12515
 C385 C 0.62425 0.85737 0.10884
 C386 C 0.63654 0.90870 0.14004
 C387 C 0.64345 0.92896 0.10288
 C388 C 0.60867 0.91098 0.08644
 C389 C 0.60139 0.89092 0.12338
 H390 H 0.62931 0.86424 0.04366
 H391 H 0.69325 0.89715 0.07408
 H392 H 0.61663 0.82769 0.11158
 H393 H 0.63889 0.92137 0.16834
 H394 H 0.65115 0.95861 0.10017
 H395 H 0.57440 0.88917 0.13761
   
