data_POSCAR
  _audit_creation_date              2014-09-24
  _audit_creation_method            'ToBaCCo'
  _symmetry_space_group_name_H-M    'P1'
  _symmetry_Int_Tables_number       1
  _symmetry_cell_setting            triclinic
  loop_
  _symmetry_equiv_pos_as_xyz
 x,y,z
_cell_length_a 42.2838
_cell_length_b 42.5741
_cell_length_c 34.4649
_cell_angle_alpha 90.302100
_cell_angle_beta 89.884200
_cell_angle_gamma 91.459600
loop_
  _atom_site_label
  _atom_site_type_symbol
  _atom_site_fract_x
  _atom_site_fract_y
  _atom_site_fract_z
O1 O 0.03050 0.31267 -0.03547
 O2 O -0.03082 0.31919 0.04119
 O3 O 0.03150 0.31556 0.03981
 O4 O -0.03109 0.31902 -0.03399
 O5 O -0.03572 0.26720 -0.03340
 O6 O 0.02546 0.26391 0.04181
 O7 O -0.03549 0.26754 0.04215
 O8 O 0.02465 0.26104 -0.03336
 Cu9 Cu 0.00061 0.32186 0.00287
 Cu10 Cu -0.00586 0.25980 0.00454
 C11 C 0.03792 0.28548 -0.04742
 C12 C -0.04391 0.29420 0.05450
 C13 C 0.03926 0.28913 0.05319
 C14 C -0.04393 0.29365 -0.04636
 O15 O 0.46974 0.83118 0.53244
 O16 O 0.53196 0.83253 0.45746
 O17 O 0.46965 0.83127 0.45768
 O18 O 0.53222 0.83016 0.53247
 O19 O 0.53016 0.77828 0.53145
 O20 O 0.46944 0.77938 0.45569
 O21 O 0.53079 0.78067 0.45612
 O22 O 0.46880 0.77927 0.53118
 Cu23 Cu 0.50105 0.83652 0.49523
 Cu24 Cu 0.49968 0.77424 0.49347
 C25 C 0.45834 0.80501 0.54411
 C26 C 0.54221 0.80680 0.44426
 C27 C 0.45879 0.80532 0.44420
 C28 C 0.54199 0.80391 0.54442
 O29 O 0.96991 0.69050 -0.04421
 O30 O 1.03159 0.69516 0.03201
 O31 O 0.96959 0.68758 0.03072
 O32 O 1.03200 0.69800 -0.04377
 O33 O 1.02615 0.74924 -0.04101
 O34 O 0.96573 0.73916 0.03465
 O35 O 1.02658 0.74657 0.03442
 O36 O 0.96538 0.74189 -0.04079
 Cu37 Cu 1.00140 0.68763 -0.00666
 Cu38 Cu 0.99550 0.74929 -0.00286
 C39 C 0.95684 0.71551 -0.05529
 C40 C 1.03956 0.72183 0.04623
 C41 C 0.95704 0.71177 0.04525
 C42 C 1.03966 0.72551 -0.05533
 O43 O 0.52575 0.18763 0.53725
 O44 O 0.46038 0.19372 0.46739
 O45 O 0.52245 0.19456 0.46251
 O46 O 0.46395 0.18931 0.54251
 O47 O 0.46775 0.24090 0.54945
 O48 O 0.52270 0.24633 0.46758
 O49 O 0.46190 0.24530 0.47436
 O50 O 0.52834 0.23933 0.54219
 Cu51 Cu 0.49290 0.18607 0.50174
 Cu52 Cu 0.49534 0.24811 0.50900
 C53 C 0.53833 0.21250 0.55151
 C54 C 0.44988 0.22054 0.45909
 C55 C 0.53230 0.22153 0.45136
 C56 C 0.45632 0.21444 0.55987
 O57 O 0.70171 0.03349 -0.04016
 O58 O 0.69611 -0.02943 0.03254
 O59 O 0.69981 0.03277 0.03575
 O60 O 0.70079 -0.02800 -0.04191
 O61 O 0.75274 -0.02940 -0.03617
 O62 O 0.75198 0.03288 0.03670
 O63 O 0.74797 -0.02749 0.03924
 O64 O 0.75382 0.03094 -0.03892
 Cu65 Cu 0.69429 0.00246 -0.00360
 Cu66 Cu 0.75679 0.00173 0.00062
 C67 C 0.72873 0.04225 -0.05273
 C68 C 0.72105 -0.03922 0.04845
 C69 C 0.72605 0.04325 0.04926
 C70 C 0.72724 -0.03920 -0.05190
 O71 O 0.20070 0.46489 0.53267
 O72 O 0.20860 0.52564 0.45726
 O73 O 0.20560 0.46384 0.45800
 O74 O 0.20553 0.52654 0.53290
 O75 O 0.25754 0.52398 0.53680
 O76 O 0.25761 0.46228 0.46242
 O77 O 0.26062 0.52301 0.46063
 O78 O 0.25274 0.46341 0.53731
 Cu79 Cu 0.19987 0.49559 0.49476
 Cu80 Cu 0.26233 0.49318 0.49967
 C81 C 0.22537 0.45362 0.54759
 C82 C 0.23596 0.53441 0.44580
 C83 C 0.23176 0.45212 0.44787
 C84 C 0.23169 0.53559 0.54789
 O85 O 0.32059 1.03100 0.03631
 O86 O 0.32366 0.96996 -0.04014
 O87 O 0.32031 1.03149 -0.03862
 O88 O 0.32379 0.96904 0.03510
 O89 O 0.27171 0.96429 0.03399
 O90 O 0.26825 1.02834 -0.03670
 O91 O 0.27150 0.96726 -0.04083
 O92 O 0.26877 1.02440 0.03928
 Cu93 Cu 0.32734 1.00079 -0.00184
 Cu94 Cu 0.26486 0.99584 -0.00120
 C95 C 0.29409 1.03792 0.05119
 C96 C 0.29798 0.95809 -0.05342
 C97 C 0.29360 1.04102 -0.04986
 C98 C 0.29827 0.95563 0.04663
 O99 O 0.80322 0.53261 0.53921
 O100 O 0.80256 0.47232 0.46130
 O101 O 0.80765 0.53399 0.46397
 O102 O 0.80018 0.47100 0.53661
 O103 O 0.74816 0.47271 0.53249
 O104 O 0.75561 0.53642 0.46144
 O105 O 0.75065 0.47595 0.45715
 O106 O 0.75101 0.53313 0.53680
 Cu107 Cu 0.80868 0.50228 0.50056
 Cu108 Cu 0.74618 0.50479 0.49659
 C109 C 0.77698 0.54276 0.55148
 C110 C 0.77632 0.46408 0.44588
 C111 C 0.78284 0.54607 0.45046
 C112 C 0.77286 0.46104 0.54686
 C113 C 0.17984 0.19828 0.16931
 C114 C 0.20222 0.17568 0.16931
 C115 C 0.22279 0.18280 0.19963
 N116 N 0.21395 0.20961 0.21747
 C117 C 0.18739 0.21886 0.19936
 C118 C 0.24985 0.16518 0.20896
 C119 C 0.27106 0.17307 0.23963
 C120 C 0.30033 0.15972 0.24516
 C121 C 0.31342 0.17350 0.27769
 C122 C 0.29158 0.19439 0.29196
 N123 N 0.26573 0.19373 0.26881
 C124 C 0.29557 0.21238 0.32644
 C125 C 0.27483 0.23615 0.33841
 C126 C 0.27570 0.25074 0.37450
 C127 C 0.25386 0.27393 0.37362
 C128 C 0.24022 0.27271 0.33711
 N129 N 0.25309 0.24962 0.31562
 C130 C 0.21781 0.29411 0.32356
 C131 C 0.20046 0.28977 0.28881
 C132 C 0.18113 0.31204 0.27270
 C133 C 0.16736 0.29843 0.24050
 C134 C 0.17914 0.26839 0.23721
 N135 N 0.19889 0.26316 0.26716
 C136 C 0.17054 0.24644 0.20786
 H137 H 0.16064 0.19971 0.14873
 H138 H 0.20337 0.15661 0.14855
 H139 H 0.20807 0.24167 0.27453
 H140 H 0.31141 0.14185 0.22783
 H141 H 0.33636 0.16837 0.28960
 H142 H 0.29069 0.24539 0.39889
 H143 H 0.24870 0.28995 0.39715
 H144 H 0.15064 0.30965 0.22173
 H145 H 0.24454 0.20445 0.27473
 H146 H 0.17705 0.33559 0.28320
 C147 C 0.69974 0.73022 0.34944
 C148 C 0.72107 0.70659 0.34986
 C149 C 0.73807 0.70882 0.31549
 N150 N 0.72781 0.73306 0.29414
 C151 C 0.70437 0.74621 0.31487
 C152 C 0.76115 0.68732 0.30355
 C153 C 0.78182 0.69238 0.27172
 C154 C 0.80214 0.67023 0.25692
 C155 C 0.81914 0.68463 0.22765
 C156 C 0.80838 0.71505 0.22484
 N157 N 0.78600 0.71967 0.25222
 C158 C 0.82007 0.73780 0.19828
 C159 C 0.80485 0.76629 0.18981
 C160 C 0.81536 0.78757 0.16204
 C161 C 0.79415 0.81123 0.16150
 C162 C 0.77125 0.80405 0.18922
 N163 N 0.77757 0.77617 0.20590
 C164 C 0.74466 0.82285 0.19731
 C165 C 0.72042 0.81464 0.22433
 C166 C 0.69173 0.82962 0.22785
 C167 C 0.67485 0.81453 0.25664
 C168 C 0.69388 0.79124 0.27089
 N169 N 0.72170 0.79173 0.25133
 C170 C 0.68566 0.77125 0.30227
 H171 H 0.68272 0.73505 0.37207
 H172 H 0.72368 0.68963 0.37284
 H173 H 0.74145 0.77913 0.25837
 H174 H 0.80473 0.64624 0.26640
 H175 H 0.83726 0.67372 0.21040
 H176 H 0.83582 0.78598 0.14329
 H177 H 0.79534 0.83109 0.14208
 H178 H 0.65136 0.82044 0.26626
 H179 H 0.77658 0.74107 0.25980
 H180 H 0.68346 0.84942 0.21160
 C181 C 0.75809 0.21474 0.13946
 C182 C 0.78329 0.23559 0.14108
 C183 C 0.78461 0.24697 0.17882
 N184 N 0.76102 0.23384 0.20024
 C185 C 0.74481 0.21409 0.17626
 C186 C 0.80923 0.26658 0.19375
 C187 C 0.80731 0.28227 0.22996
 C188 C 0.83216 0.29863 0.24770
 C189 C 0.82030 0.31164 0.28114
 C190 C 0.78868 0.30230 0.28343
 N191 N 0.78086 0.28484 0.25184
 C192 C 0.76763 0.31119 0.31323
 C193 C 0.73836 0.29542 0.32077
 C194 C 0.71749 0.30369 0.34995
 C195 C 0.69340 0.28157 0.34965
 C196 C 0.70010 0.26049 0.32014
 N197 N 0.72783 0.26879 0.30287
 C198 C 0.68173 0.23305 0.31150
 C199 C 0.68759 0.21299 0.27954
 C200 C 0.67364 0.18341 0.27417
 C201 C 0.68459 0.17210 0.23936
 C202 C 0.70465 0.19517 0.22415
 N203 N 0.70603 0.22016 0.24856
 C204 C 0.72039 0.19298 0.18806
 H205 H 0.75077 0.20110 0.11430
 H206 H 0.79920 0.24129 0.11735
 H207 H 0.71645 0.24195 0.24265
 H208 H 0.85630 0.30123 0.23754
 H209 H 0.83362 0.32616 0.30147
 H210 H 0.71969 0.32319 0.37011
 H211 H 0.67352 0.28091 0.36946
 H212 H 0.67834 0.14948 0.22667
 H213 H 0.75807 0.27789 0.24385
 H214 H 0.65720 0.17114 0.29319
 C215 C 0.28981 0.69114 0.33572
 C216 C 0.31279 0.71428 0.33379
 C217 C 0.30381 0.73475 0.30492
 N218 N 0.27588 0.72486 0.28936
 C219 C 0.26748 0.69785 0.30770
 C220 C 0.32048 0.76303 0.29552
 C221 C 0.31015 0.78463 0.26746
 C222 C 0.32112 0.81550 0.26423
 C223 C 0.30556 0.82835 0.23342
 C224 C 0.28607 0.80481 0.21792
 N225 N 0.28918 0.77819 0.23873
 C226 C 0.26733 0.80797 0.18424
 C227 C 0.24520 0.78477 0.17135
 C228 C 0.23097 0.78451 0.13516
 C229 C 0.20946 0.75990 0.13504
 C230 C 0.21111 0.74598 0.17124
 N231 N 0.23302 0.76121 0.19337
 C232 C 0.19076 0.72127 0.18414
 C233 C 0.19541 0.70468 0.21910
 C234 C 0.17350 0.68393 0.23548
 C235 C 0.18717 0.67217 0.26834
 C236 C 0.21703 0.68630 0.27155
 N237 N 0.22200 0.70567 0.24098
 C238 C 0.23914 0.67998 0.30129
 H239 H 0.28952 0.67195 0.35615
 H240 H 0.33330 0.71619 0.35246
 H241 H 0.24332 0.71657 0.23344
 H242 H 0.33841 0.82776 0.28218
 H243 H 0.30864 0.85227 0.22336
 H244 H 0.23551 0.80050 0.11136
 H245 H 0.19411 0.75325 0.11113
 H246 H 0.17622 0.65503 0.28749
 H247 H 0.28016 0.75609 0.23138
 H248 H 0.15008 0.67775 0.22482
 C249 C 0.78576 0.19430 0.83743
 C250 C 0.81085 0.21503 0.83466
 C251 C 0.80355 0.23617 0.80576
 N252 N 0.77454 0.22912 0.79111
 C253 C 0.76376 0.20318 0.81003
 C254 C 0.82281 0.26258 0.79558
 C255 C 0.81507 0.28436 0.76648
 C256 C 0.82968 0.31365 0.76173
 C257 C 0.81591 0.32721 0.73008
 C258 C 0.79364 0.30565 0.71587
 N259 N 0.79349 0.27950 0.73804
 C260 C 0.77510 0.31003 0.68231
 C261 C 0.74937 0.28993 0.67186
 C262 C 0.73378 0.29068 0.63654
 C263 C 0.70856 0.27001 0.63930
 C264 C 0.70964 0.25717 0.67614
 N265 N 0.73460 0.26938 0.69601
 C266 C 0.68623 0.23660 0.69172
 C267 C 0.69003 0.21948 0.72637
 C268 C 0.66627 0.20186 0.74437
 C269 C 0.67972 0.18789 0.77599
 C270 C 0.71126 0.19775 0.77690
 N271 N 0.71742 0.21652 0.74611
 C272 C 0.73361 0.18837 0.80486
 H273 H 0.78383 0.17534 0.85813
 H274 H 0.83172 0.21491 0.85277
 H275 H 0.73961 0.22433 0.73694
 H276 H 0.84828 0.32433 0.77923
 H277 H 0.82184 0.35028 0.71875
 H278 H 0.73973 0.30495 0.61153
 H279 H 0.69120 0.26519 0.61686
 H280 H 0.66746 0.17225 0.79592
 H281 H 0.78178 0.25837 0.73182
 H282 H 0.64183 0.19907 0.73547
 C283 C 0.28541 0.69460 0.65193
 C284 C 0.30933 0.71679 0.65422
 C285 C 0.30050 0.73836 0.68227
 N286 N 0.27174 0.73011 0.69686
 C287 C 0.26265 0.70306 0.67878
 C288 C 0.31805 0.76615 0.69176
 C289 C 0.30813 0.78837 0.71967
 C290 C 0.31988 0.81900 0.72295
 C291 C 0.30456 0.83251 0.75380
 C292 C 0.28444 0.80957 0.76924
 N293 N 0.28692 0.78271 0.74838
 C294 C 0.26583 0.81331 0.80306
 C295 C 0.24343 0.79047 0.81592
 C296 C 0.23021 0.78977 0.85273
 C297 C 0.20807 0.76570 0.85269
 C298 C 0.20821 0.75271 0.81569
 N299 N 0.22995 0.76785 0.79330
 C300 C 0.18667 0.72913 0.80228
 C301 C 0.19022 0.71349 0.76625
 C302 C 0.16708 0.69476 0.74859
 C303 C 0.18031 0.68269 0.71541
 C304 C 0.21111 0.69465 0.71338
 N305 N 0.21702 0.71313 0.74473
 C306 C 0.23337 0.68674 0.68440
 H307 H 0.28477 0.67481 0.63210
 H308 H 0.33041 0.71731 0.63637
 H309 H 0.23900 0.72207 0.75323
 H310 H 0.33758 0.83065 0.70507
 H311 H 0.30827 0.85640 0.76398
 H312 H 0.23590 0.80507 0.87704
 H313 H 0.19330 0.75883 0.87704
 H314 H 0.16852 0.66673 0.69530
 H315 H 0.27731 0.76087 0.75570
 H316 H 0.14317 0.69005 0.75865
 C317 C 0.20584 0.23642 0.86603
 C318 C 0.22422 0.21038 0.86480
 C319 C 0.23671 0.20883 0.82763
 N320 N 0.22670 0.23318 0.80623
 C321 C 0.20789 0.25011 0.82969
 C322 C 0.25531 0.18412 0.81337
 C323 C 0.27119 0.18537 0.77718
 C324 C 0.28497 0.15995 0.75906
 C325 C 0.29977 0.17125 0.72623
 C326 C 0.29429 0.20321 0.72485
 N327 N 0.27708 0.21164 0.75617
 C328 C 0.30688 0.22394 0.69653
 C329 C 0.29623 0.25484 0.69072
 C330 C 0.30890 0.27569 0.66371
 C331 C 0.29125 0.30215 0.66561
 C332 C 0.26828 0.29678 0.69374
 N333 N 0.27112 0.26765 0.70866
 C334 C 0.24405 0.31791 0.70315
 C335 C 0.22112 0.31223 0.73242
 C336 C 0.19350 0.32880 0.73693
 C337 C 0.17824 0.31680 0.76905
 C338 C 0.19717 0.29357 0.78377
 N339 N 0.22335 0.29113 0.76144
 C340 C 0.19066 0.27648 0.81807
 H341 H 0.19241 0.24435 0.89084
 H342 H 0.22778 0.19433 0.88855
 H343 H 0.24310 0.27819 0.76798
 H344 H 0.28473 0.13579 0.76867
 H345 H 0.31319 0.15745 0.70589
 H346 H 0.32843 0.27209 0.64400
 H347 H 0.29467 0.32270 0.64760
 H348 H 0.15589 0.32459 0.78047
 H349 H 0.27290 0.23448 0.76507
 H350 H 0.18508 0.34764 0.71907
 C351 C 0.75997 0.79000 0.86019
 C352 C 0.78525 0.77055 0.85837
 C353 C 0.78650 0.75920 0.82062
 N354 N 0.76270 0.77091 0.79944
 C355 C 0.74649 0.78977 0.82357
 C356 C 0.81107 0.74083 0.80546
 C357 C 0.80891 0.72512 0.76920
 C358 C 0.83373 0.71042 0.75079
 C359 C 0.82157 0.69663 0.71765
 C360 C 0.78977 0.70381 0.71623
 N361 N 0.78218 0.72080 0.74802
 C362 C 0.76836 0.69322 0.68717
 C363 C 0.73830 0.70634 0.68088
 C364 C 0.71701 0.69604 0.65271
 C365 C 0.69189 0.71570 0.65429
 C366 C 0.69843 0.73744 0.68346
 N367 N 0.72705 0.73193 0.69928
 C368 C 0.67894 0.76296 0.69311
 C369 C 0.68556 0.78434 0.72384
 C370 C 0.67086 0.81282 0.72933
 C371 C 0.68324 0.82603 0.76261
 C372 C 0.70471 0.80504 0.77709
 N373 N 0.70575 0.77957 0.75351
 C374 C 0.72167 0.80924 0.81212
 H375 H 0.75261 0.80319 0.88544
 H376 H 0.80121 0.76571 0.88198
 H377 H 0.71712 0.75882 0.75941
 H378 H 0.85804 0.70941 0.76032
 H379 H 0.83482 0.68294 0.69703
 H380 H 0.71950 0.67681 0.63238
 H381 H 0.67147 0.71438 0.63544
 H382 H 0.67682 0.84843 0.77490
 H383 H 0.75942 0.72617 0.75671
 H384 H 0.65300 0.82323 0.71144
 C385 C 0.31710 0.08362 0.08511
 C386 C 0.29249 0.06101 0.08031
 C387 C 0.26563 0.06259 0.10444
 C388 C 0.26316 0.08652 0.13231
 C389 C 0.28676 0.11055 0.13454
 C390 C 0.31385 0.10864 0.11121
 C391 C 0.28261 0.13619 0.15973
 C392 C 0.25619 0.13697 0.18455
 C393 C 0.23427 0.11161 0.18429
 C394 C 0.23729 0.08698 0.15777
 H395 H 0.24682 0.04489 0.10204
 H396 H 0.33248 0.12654 0.11303
 H397 H 0.29965 0.15565 0.15981
 H398 H 0.21929 0.06841 0.15699
 H399 H 0.33816 0.08301 0.06720
 H400 H 0.21393 0.11172 0.20344
 C401 C 0.75470 0.56137 0.61380
 C402 C 0.77610 0.56600 0.58309
 C403 C 0.79430 0.59400 0.58114
 C404 C 0.78992 0.61793 0.60877
 C405 C 0.76816 0.61303 0.63955
 C406 C 0.75113 0.58447 0.64220
 C407 C 0.76274 0.63726 0.66623
 C408 C 0.77769 0.66679 0.66167
 C409 C 0.79932 0.67157 0.63120
 C410 C 0.80577 0.64715 0.60525
 H411 H 0.81044 0.59779 0.55703
 H412 H 0.73427 0.58042 0.66547
 H413 H 0.74574 0.63375 0.68952
 H414 H 0.82234 0.65143 0.58173
 H415 H 0.74047 0.53989 0.61553
 H416 H 0.81077 0.69438 0.62719
 C417 C 0.69259 0.91556 0.07605
 C418 C 0.71903 0.93638 0.07556
 C419 C 0.74393 0.93155 0.10175
 C420 C 0.74265 0.90616 0.12751
 C421 C 0.71734 0.88390 0.12524
 C422 C 0.69220 0.88906 0.09983
 C423 C 0.71785 0.85674 0.14812
 C424 C 0.74214 0.85274 0.17529
 C425 C 0.76569 0.87638 0.17961
 C426 C 0.76643 0.90247 0.15525
 H427 H 0.76406 0.94784 0.10264
 H428 H 0.67230 0.87257 0.09826
 H429 H 0.69961 0.83859 0.14459
 H430 H 0.78567 0.91964 0.15795
 H431 H 0.67296 0.91869 0.05641
 H432 H 0.78445 0.87376 0.20062
 C433 C 0.19770 0.40565 0.57342
 C434 C 0.22236 0.42825 0.57641
 C435 C 0.24505 0.42552 0.60581
 C436 C 0.24353 0.40009 0.63153
 C437 C 0.21945 0.37665 0.62718
 C438 C 0.19642 0.37987 0.59837
 C439 C 0.21924 0.35012 0.65120
 C440 C 0.24231 0.34719 0.68010
 C441 C 0.26524 0.37123 0.68537
 C442 C 0.26603 0.39738 0.66107
 H443 H 0.26395 0.44309 0.60849
 H444 H 0.17767 0.36227 0.59481
 H445 H 0.20157 0.33150 0.64710
 H446 H 0.28448 0.41523 0.66502
 H447 H 0.18004 0.40734 0.55085
 H448 H 0.28317 0.36916 0.70756
 C449 C 0.91776 0.32419 0.09239
 C450 C 0.93171 0.29556 0.08226
 C451 C 0.91980 0.26765 0.09929
 C452 C 0.89390 0.26802 0.12460
 C453 C 0.87903 0.29662 0.13301
 C454 C 0.89148 0.32465 0.11724
 C455 C 0.85168 0.29645 0.15638
 C456 C 0.83951 0.26803 0.17164
 C457 C 0.85545 0.24006 0.16446
 C458 C 0.88226 0.23999 0.14095
 H459 H 0.93042 0.24533 0.09260
 H460 H 0.88062 0.34687 0.12365
 H461 H 0.83951 0.31811 0.16204
 H462 H 0.89360 0.21792 0.13508
 H463 H 0.92639 0.34615 0.08007
 H464 H 0.84654 0.21804 0.17636
 C465 C 0.40697 0.82537 0.56740
 C466 C 0.43176 0.80437 0.57175
 C467 C 0.42994 0.78148 0.60088
 C468 C 0.40325 0.77918 0.62506
 C469 C 0.37763 0.79938 0.61920
 C470 C 0.37993 0.82267 0.59065
 C471 C 0.34998 0.79549 0.64145
 C472 C 0.34809 0.77242 0.67037
 C473 C 0.37419 0.75350 0.67722
 C474 C 0.40144 0.75661 0.65449
 H475 H 0.44918 0.76540 0.60448
 H476 H 0.36066 0.83851 0.58596
 H477 H 0.32976 0.80999 0.63597
 H478 H 0.42093 0.74113 0.65961
 H479 H 0.40798 0.84305 0.54491
 H480 H 0.37296 0.73557 0.69940
 C481 C 0.06798 0.75280 0.09769
 C482 C 0.06435 0.72461 0.07650
 C483 C 0.08523 0.70002 0.08351
 C484 C 0.11012 0.70408 0.11030
 C485 C 0.11370 0.73280 0.13082
 C486 C 0.09227 0.75678 0.12471
 C487 C 0.13922 0.73750 0.15625
 C488 C 0.16181 0.71422 0.16081
 C489 C 0.15784 0.68546 0.14112
 C490 C 0.13207 0.68034 0.11618
 H491 H 0.08276 0.67822 0.06730
 H492 H 0.09468 0.77890 0.14026
 H493 H 0.14229 0.75972 0.17148
 H494 H 0.12975 0.65815 0.10077
 H495 H 0.05213 0.77201 0.09314
 H496 H 0.17512 0.66732 0.14434
 C497 C 0.58247 0.18289 0.58160
 C498 C 0.56503 0.21047 0.57890
 C499 C 0.57382 0.23663 0.60180
 C500 C 0.60020 0.23568 0.62623
 C501 C 0.61826 0.20819 0.62785
 C502 C 0.60894 0.18179 0.60579
 C503 C 0.64575 0.20796 0.65067
 C504 C 0.65527 0.23494 0.67158
 C505 C 0.63658 0.26169 0.67084
 C506 C 0.60924 0.26208 0.64836
 H507 H 0.56036 0.25793 0.60029
 H508 H 0.62240 0.16049 0.60676
 H509 H 0.66030 0.18736 0.65118
 H510 H 0.59558 0.28326 0.64759
 H511 H 0.57610 0.16240 0.56428
 H512 H 0.64377 0.28262 0.68689
 C513 C 0.75341 0.06186 0.88621
 C514 C 0.73114 0.06556 0.91600
 C515 C 0.71161 0.09175 0.91598
 C516 C 0.71513 0.11473 0.88711
 C517 C 0.73739 0.11059 0.85691
 C518 C 0.75617 0.08394 0.85652
 C519 C 0.74144 0.13379 0.82853
 C520 C 0.72500 0.16195 0.83120
 C521 C 0.70303 0.16600 0.86128
 C522 C 0.69765 0.14229 0.88861
 H523 H 0.69462 0.09480 0.93923
 H524 H 0.77349 0.08054 0.83376
 H525 H 0.75875 0.13088 0.80560
 H526 H 0.68070 0.14598 0.91170
 H527 H 0.76850 0.04168 0.88575
 H528 H 0.69052 0.18779 0.86398
 C529 C 0.26358 0.55584 0.38731
 C530 C 0.23920 0.55803 0.41482
 C531 C 0.21826 0.58307 0.41283
 C532 C 0.22219 0.60623 0.38422
 C533 C 0.24652 0.60353 0.35625
 C534 C 0.26693 0.57814 0.35789
 C535 C 0.25065 0.62680 0.32787
 C536 C 0.23193 0.65357 0.32834
 C537 C 0.20802 0.65624 0.35640
 C538 C 0.20281 0.63249 0.38371
 H539 H 0.19963 0.58505 0.43431
 H540 H 0.28583 0.57584 0.33687
 H541 H 0.26936 0.62491 0.30648
 H542 H 0.18422 0.63508 0.40510
 H543 H 0.27985 0.53661 0.38833
 H544 H 0.19364 0.67692 0.35735
 C545 C 0.32617 0.91534 0.91126
 C546 C 0.29865 0.93259 0.91725
 C547 C 0.27097 0.92391 0.89692
 C548 C 0.27040 0.89776 0.87202
 C549 C 0.29785 0.87982 0.86729
 C550 C 0.32576 0.88912 0.88658
 C551 C 0.29665 0.85256 0.84407
 C552 C 0.26838 0.84328 0.82541
 C553 C 0.24159 0.86187 0.82934
 C554 C 0.24254 0.88882 0.85251
 H555 H 0.24964 0.93714 0.90105
 H556 H 0.34708 0.87578 0.88317
 H557 H 0.31734 0.83821 0.84112
 H558 H 0.22134 0.90240 0.85565
 H559 H 0.34778 0.92151 0.92663
 H560 H 0.21968 0.85508 0.81496
 C561 C 0.75326 0.44309 0.38449
 C562 C 0.77504 0.44017 0.41486
 C563 C 0.79342 0.41321 0.41701
 C564 C 0.78887 0.38862 0.39004
 C565 C 0.76666 0.39175 0.35972
 C566 C 0.74942 0.41929 0.35681
 C567 C 0.76114 0.36683 0.33370
 C568 C 0.77664 0.33839 0.33833
 C569 C 0.79871 0.33534 0.36834
 C570 C 0.80512 0.36044 0.39373
 H571 H 0.80992 0.41069 0.44077
 H572 H 0.73225 0.42201 0.33384
 H573 H 0.74381 0.36898 0.31076
 H574 H 0.82205 0.35751 0.41690
 H575 H 0.73893 0.46375 0.38243
 H576 H 0.81058 0.31335 0.37238
 C577 C 0.06287 0.25353 0.90083
 C578 C 0.06245 0.28159 0.92249
 C579 C 0.08657 0.30449 0.91682
 C580 C 0.11159 0.29871 0.89098
 C581 C 0.11193 0.27007 0.86999
 C582 C 0.08723 0.24792 0.87464
 C583 C 0.13737 0.26360 0.84545
 C584 C 0.16290 0.28505 0.84202
 C585 C 0.16235 0.31369 0.86234
 C586 C 0.13677 0.32056 0.88655
 H587 H 0.08655 0.32610 0.93359
 H588 H 0.08713 0.22591 0.85868
 H589 H 0.13782 0.24151 0.82966
 H590 H 0.13698 0.34262 0.90237
 H591 H 0.04443 0.23565 0.90448
 H592 H 0.18195 0.33044 0.85989
 C593 C 0.59002 0.83266 0.41420
 C594 C 0.56839 0.80707 0.41582
 C595 C 0.57307 0.78085 0.39180
 C596 C 0.59959 0.77967 0.36740
 C597 C 0.62202 0.80491 0.36724
 C598 C 0.61672 0.83152 0.39027
 C599 C 0.64971 0.80267 0.34491
 C600 C 0.65498 0.77563 0.32255
 C601 C 0.63188 0.75135 0.32156
 C602 C 0.60447 0.75327 0.34392
 H603 H 0.55634 0.76113 0.39257
 H604 H 0.63352 0.85117 0.39035
 H605 H 0.66755 0.82141 0.34571
 H606 H 0.58741 0.73384 0.34346
 H607 H 0.58689 0.85310 0.43252
 H608 H 0.63563 0.73042 0.30431
 C609 C 0.91862 0.68534 0.90491
 C610 C 0.93245 0.71425 0.91696
 C611 C 0.92060 0.74222 0.90161
 C612 C 0.89502 0.74147 0.87580
 C613 C 0.88032 0.71244 0.86549
 C614 C 0.89260 0.68449 0.87979
 C615 C 0.85329 0.71202 0.84170
 C616 C 0.84127 0.74030 0.82769
 C617 C 0.85717 0.76882 0.83655
 C618 C 0.88360 0.76945 0.86066
 H619 H 0.93113 0.76477 0.90982
 H620 H 0.88186 0.66197 0.87192
 H621 H 0.84120 0.68995 0.83478
 H622 H 0.89483 0.79187 0.86789
 H623 H 0.92718 0.66333 0.91589
 H624 H 0.84844 0.79077 0.82562
 C625 C 0.41842 0.25174 0.41256
 C626 C 0.42341 0.22315 0.43150
 C627 C 0.40268 0.19740 0.42439
 C628 C 0.37682 0.20042 0.39928
 C629 C 0.37216 0.22931 0.38032
 C630 C 0.39318 0.25472 0.38694
 C631 C 0.34620 0.23253 0.35564
 C632 C 0.32421 0.20761 0.35048
 C633 C 0.32891 0.17897 0.36934
 C634 C 0.35520 0.17529 0.39332
 H635 H 0.40619 0.17532 0.43910
 H636 H 0.38987 0.27702 0.37269
 H637 H 0.34255 0.25467 0.34109
 H638 H 0.35832 0.15302 0.40771
 H639 H 0.43417 0.27183 0.41743
 H640 H 0.31204 0.15961 0.36574
 C641 C 0.75726 0.93260 0.89727
 C642 C 0.72897 0.93604 0.91814
 C643 C 0.70354 0.91472 0.91164
 C644 C 0.70695 0.88941 0.88571
 C645 C 0.73579 0.88606 0.86539
 C646 C 0.76056 0.90801 0.87091
 C647 C 0.73978 0.86034 0.84063
 C648 C 0.71568 0.83739 0.83640
 C649 C 0.68689 0.84089 0.85611
 C650 C 0.68248 0.86685 0.88047
 H651 H 0.68172 0.91709 0.92784
 H652 H 0.78276 0.90576 0.85550
 H653 H 0.76198 0.85763 0.82528
 H654 H 0.66022 0.86896 0.89578
 H655 H 0.77706 0.94889 0.90160
 H656 H 0.66811 0.82329 0.85302
 C657 C 0.26076 0.41956 0.39990
 C658 C 0.23251 0.42586 0.41970
 C659 C 0.20600 0.40566 0.41440
 C660 C 0.20815 0.37876 0.39079
 C661 C 0.23690 0.37252 0.37153
 C662 C 0.26287 0.39328 0.37581
 C663 C 0.23949 0.34522 0.34901
 C664 C 0.21394 0.32371 0.34595
 C665 C 0.18532 0.33009 0.36477
 C666 C 0.18238 0.35752 0.38690
 H667 H 0.18419 0.41016 0.42982
 H668 H 0.28504 0.38884 0.36120
 H669 H 0.26157 0.34028 0.33439
 H670 H 0.16018 0.36186 0.40147
 H671 H 0.28144 0.43484 0.40340
 H672 H 0.16543 0.31364 0.36260
 C673 C 0.31977 0.08232 0.91166
 C674 C 0.29204 0.06602 0.92372
 C675 C 0.26263 0.07587 0.90962
 C676 C 0.26090 0.10177 0.88475
 C677 C 0.28884 0.11846 0.87398
 C678 C 0.31814 0.10836 0.88728
 C679 C 0.28695 0.14516 0.85042
 C680 C 0.25748 0.15511 0.83709
 C681 C 0.22995 0.13777 0.84694
 C682 C 0.23160 0.11145 0.87079
 H683 H 0.24094 0.06358 0.91811
 H684 H 0.33982 0.12075 0.87908
 H685 H 0.30825 0.15844 0.84275
 H686 H 0.20995 0.09880 0.87850
 H687 H 0.34283 0.07543 0.92171
 H688 H 0.20710 0.14497 0.83657
 C689 C 0.81287 0.59112 0.42017
 C690 C 0.78545 0.57184 0.42206
 C691 C 0.75988 0.57798 0.39753
 C692 C 0.76124 0.60359 0.37218
 C693 C 0.78844 0.62364 0.37151
 C694 C 0.81429 0.61694 0.39524
 C695 C 0.78890 0.65044 0.34790
 C696 C 0.76255 0.65722 0.32499
 C697 C 0.73624 0.63644 0.32462
 C698 C 0.73553 0.60987 0.34812
 H699 H 0.73877 0.56299 0.39845
 H700 H 0.83539 0.63193 0.39497
 H701 H 0.80921 0.66651 0.34817
 H702 H 0.71462 0.59461 0.34807
 H703 H 0.83286 0.58678 0.43881
 H704 H 0.71582 0.64140 0.30695
 C705 C 0.06953 0.76027 0.90117
 C706 C 0.06330 0.73003 0.91634
 C707 C 0.08172 0.70489 0.90322
 C708 C 0.10659 0.71017 0.87669
 C709 C 0.11242 0.74070 0.86197
 C710 C 0.09355 0.76544 0.87402
 C711 C 0.13762 0.74625 0.83628
 C712 C 0.15806 0.72202 0.82628
 C713 C 0.15203 0.69164 0.84065
 C714 C 0.12628 0.68568 0.86537
 H715 H 0.07751 0.68144 0.91455
 H716 H 0.09778 0.78898 0.86304
 H717 H 0.14213 0.76969 0.82506
 H718 H 0.12226 0.66212 0.87638
 H719 H 0.05581 0.78017 0.91025
 H720 H 0.16759 0.67270 0.83322
 C721 C 0.55273 0.24887 0.39259
 C722 C 0.55548 0.22457 0.41964
 C723 C 0.58177 0.20511 0.41808
 C724 C 0.60589 0.21084 0.39071
 C725 C 0.60289 0.23544 0.36359
 C726 C 0.57600 0.25398 0.36440
 C727 C 0.62728 0.24176 0.33693
 C728 C 0.65512 0.22459 0.33793
 C729 C 0.65807 0.20030 0.36495
 C730 C 0.63346 0.19319 0.39085
 H731 H 0.58420 0.18667 0.43937
 H732 H 0.57339 0.27298 0.34395
 H733 H 0.62518 0.26067 0.31621
 H734 H 0.63629 0.17441 0.41155
 H735 H 0.53259 0.26410 0.39350
 H736 H 0.67955 0.18700 0.36604
 C737 C 0.90719 0.31695 0.92730
 C738 C 0.93100 0.29470 0.92430
 C739 C 0.92999 0.27248 0.89413
 C740 C 0.90492 0.27192 0.86759
 C741 C 0.88008 0.29333 0.87199
 C742 C 0.88169 0.31606 0.90156
 C743 C 0.85372 0.29101 0.84742
 C744 C 0.85232 0.26808 0.81805
 C745 C 0.87784 0.24810 0.81252
 C746 C 0.90388 0.24983 0.83731
 H747 H 0.94861 0.25553 0.89154
 H748 H 0.86301 0.33280 0.90514
 H749 H 0.83392 0.30636 0.85170
 H750 H 0.92284 0.23346 0.83333
 H751 H 0.90773 0.33424 0.95048
 H752 H 0.87690 0.23027 0.78999
 C753 C 0.40742 0.82530 0.42040
 C754 C 0.43272 0.80488 0.41593
 C755 C 0.43166 0.78209 0.38636
 C756 C 0.40516 0.77906 0.36212
 C757 C 0.37897 0.79855 0.36814
 C758 C 0.38057 0.82197 0.39692
 C759 C 0.35144 0.79374 0.34592
 C760 C 0.35026 0.77039 0.31697
 C761 C 0.37692 0.75220 0.31000
 C762 C 0.40407 0.75628 0.33261
 H763 H 0.45129 0.76642 0.38266
 H764 H 0.36086 0.83730 0.40174
 H765 H 0.33080 0.80768 0.35147
 H766 H 0.42401 0.74132 0.32741
 H767 H 0.40780 0.84289 0.44324
 H768 H 0.37624 0.73409 0.28780
 C769 C 0.32672 0.91194 0.07908
 C770 C 0.29910 0.92916 0.07418
 C771 C 0.27144 0.91981 0.09413
 C772 C 0.27100 0.89311 0.11772
 C773 C 0.29856 0.87524 0.12144
 C774 C 0.32642 0.88511 0.10240
 C775 C 0.29755 0.84760 0.14357
 C776 C 0.26939 0.83794 0.16226
 C777 C 0.24248 0.85641 0.15927
 C778 C 0.24321 0.88369 0.13707
 H779 H 0.25006 0.93306 0.09086
 H780 H 0.34782 0.87183 0.10507
 H781 H 0.31835 0.83337 0.14589
 H782 H 0.22195 0.89722 0.13469
 H783 H 0.34829 0.91866 0.06394
 H784 H 0.22069 0.84933 0.17373
 C785 C 0.74095 0.43116 0.59589
 C786 C 0.76956 0.43556 0.57559
 C787 C 0.79452 0.41505 0.58227
 C788 C 0.79059 0.38989 0.60818
 C789 C 0.76164 0.38573 0.62834
 C790 C 0.73712 0.40663 0.62227
 C791 C 0.75738 0.36030 0.65355
 C792 C 0.78125 0.33832 0.65805
 C793 C 0.81005 0.34263 0.63824
 C794 C 0.81480 0.36840 0.61369
 H795 H 0.81660 0.41812 0.56654
 H796 H 0.71478 0.40371 0.63748
 H797 H 0.73514 0.35699 0.66892
 H798 H 0.83712 0.37116 0.59843
 H799 H 0.72148 0.44677 0.59140
 H800 H 0.82863 0.32579 0.64140
 C801 C 0.75492 0.07153 0.10212
 C802 C 0.72726 0.06776 0.07979
 C803 C 0.70220 0.08841 0.08568
 C804 C 0.70545 0.11338 0.11246
 C805 C 0.73377 0.11714 0.13399
 C806 C 0.75808 0.09584 0.12906
 C807 C 0.73778 0.14263 0.15940
 C808 C 0.71415 0.16489 0.16329
 C809 C 0.68575 0.16089 0.14264
 C810 C 0.68137 0.13521 0.11743
 H811 H 0.68084 0.08577 0.06852
 H812 H 0.77984 0.09838 0.14547
 H813 H 0.75966 0.14575 0.17551
 H814 H 0.65948 0.13277 0.10128
 H815 H 0.77443 0.05577 0.09844
 H816 H 0.66731 0.17795 0.14554
 C817 C 0.25424 0.55714 0.60925
 C818 C 0.23253 0.55968 0.57873
 C819 C 0.21312 0.58593 0.57701
 C820 C 0.21641 0.61015 0.60474
 C821 C 0.23838 0.60729 0.63537
 C822 C 0.25683 0.58051 0.63765
 C823 C 0.24242 0.63175 0.66241
 C824 C 0.22585 0.65966 0.65834
 C825 C 0.20404 0.66243 0.62798
 C826 C 0.19900 0.63767 0.60167
 H827 H 0.19661 0.58815 0.55320
 H828 H 0.27385 0.57803 0.66083
 H829 H 0.25949 0.62979 0.68566
 H830 H 0.18221 0.64039 0.57830
 H831 H 0.26928 0.53698 0.61107
 H832 H 0.19128 0.68396 0.62441
 C833 C 0.90616 0.68712 0.06773
 C834 C 0.93151 0.70843 0.07406
 C835 C 0.93102 0.72860 0.10635
 C836 C 0.90489 0.72837 0.13143
 C837 C 0.87850 0.70823 0.12357
 C838 C 0.87966 0.68722 0.09211
 C839 C 0.85110 0.71031 0.14646
 C840 C 0.85017 0.73176 0.17753
 C841 C 0.87716 0.75022 0.18649
 C842 C 0.90425 0.74873 0.16346
 H843 H 0.95074 0.74489 0.11142
 H844 H 0.85981 0.67142 0.08584
 H845 H 0.83020 0.69613 0.13946
 H846 H 0.92437 0.76409 0.17009
 H847 H 0.90621 0.67149 0.04283
 H848 H 0.87666 0.76688 0.21035
 C849 C 0.44005 0.23207 0.62538
 C850 C 0.43380 0.21353 0.59238
 C851 C 0.40475 0.19702 0.58910
 C852 C 0.38126 0.20069 0.61758
 C853 C 0.38766 0.21989 0.65045
 C854 C 0.41736 0.23482 0.65453
 C855 C 0.36370 0.22532 0.67759
 C856 C 0.33302 0.21307 0.67146
 C857 C 0.32685 0.19355 0.63929
 C858 C 0.35095 0.18700 0.61279
 H859 H 0.39974 0.18310 0.56329
 H860 H 0.42258 0.24967 0.67946
 H861 H 0.36827 0.24069 0.70225
 H862 H 0.34555 0.17236 0.58774
 H863 H 0.46238 0.24492 0.62823
 H864 H 0.30316 0.18417 0.63418
 C865 C 0.09145 0.30801 0.07902
 C866 C 0.06508 0.28741 0.08157
 C867 C 0.06426 0.26400 0.11008
 C868 C 0.08981 0.26078 0.13545
 C869 C 0.11692 0.28071 0.13161
 C870 C 0.11735 0.30449 0.10361
 C871 C 0.14322 0.27620 0.15549
 C872 C 0.14227 0.25273 0.18394
 C873 C 0.11485 0.23385 0.18851
 C874 C 0.08889 0.23763 0.16422
 H875 H 0.04379 0.24824 0.11237
 H876 H 0.13781 0.32012 0.10046
 H877 H 0.16449 0.29067 0.15189
 H878 H 0.06823 0.22232 0.16772
 H879 H 0.09248 0.32613 0.05708
 H880 H 0.11394 0.21562 0.21032
 C881 C 0.59281 0.82548 0.57166
 C882 C 0.56813 0.80280 0.57261
 C883 C 0.56978 0.77761 0.59863
 C884 C 0.59611 0.77469 0.62293
 C885 C 0.62154 0.79683 0.62052
 C886 C 0.61947 0.82236 0.59516
 C887 C 0.64867 0.79284 0.64323
 C888 C 0.65013 0.76769 0.66936
 C889 C 0.62430 0.74650 0.67253
 C890 C 0.59764 0.74974 0.64920
 H891 H 0.55068 0.76015 0.59970
 H892 H 0.63861 0.83969 0.59317
 H893 H 0.66861 0.80923 0.64077
 H894 H 0.57827 0.73270 0.65161
 H895 H 0.59204 0.84496 0.55161
 H896 H 0.62512 0.72707 0.69264
   
