data_POSCAR
  _audit_creation_date              2014-09-24
  _audit_creation_method            'ToBaCCo'
  _symmetry_space_group_name_H-M    'P1'
  _symmetry_Int_Tables_number       1
  _symmetry_cell_setting            triclinic
  loop_
  _symmetry_equiv_pos_as_xyz
 x,y,z
_cell_length_a 58.2923
_cell_length_b 58.5084
_cell_length_c 42.4934
_cell_angle_alpha 90.044100
_cell_angle_beta 89.917900
_cell_angle_gamma 120.326800
loop_
  _atom_site_label
  _atom_site_type_symbol
  _atom_site_fract_x
  _atom_site_fract_y
  _atom_site_fract_z
C1 C 0.06813 0.54613 0.05074
 C2 C 0.06823 0.52276 0.05070
 C3 C 0.04385 0.50367 0.03878
 N4 N 0.02889 0.51456 0.03148
 C5 C 0.04369 0.54052 0.03885
 C6 C 0.03473 0.47629 0.03780
 C7 C 0.01141 0.45801 0.02174
 C8 C -0.00199 0.43086 0.02631
 C9 C -0.02298 0.42020 0.00559
 C10 C -0.02153 0.44113 -0.01145
 N11 N -0.00058 0.46413 -0.00130
 C12 C -0.03881 0.43885 -0.03626
 C13 C -0.04027 0.46111 -0.04665
 C14 C -0.04932 0.46333 -0.07600
 C15 C -0.04942 0.48665 -0.07597
 C16 C -0.04042 0.49799 -0.04660
 N17 N -0.03443 0.48254 -0.02876
 C18 C -0.03913 0.52163 -0.03615
 C19 C -0.02194 0.53677 -0.01129
 C20 C -0.02356 0.55613 0.00583
 C21 C -0.00259 0.56669 0.02656
 C22 C 0.01099 0.55320 0.02192
 N23 N -0.00088 0.53503 -0.00117
 C24 C 0.03436 0.55855 0.03796
 H25 H 0.08401 0.56500 0.05914
 H26 H 0.08421 0.52001 0.05905
 H27 H 0.00642 0.52382 -0.01152
 H28 H 0.00271 0.41989 0.04304
 H29 H -0.03769 0.39939 0.00352
 H30 H -0.05513 0.44959 -0.09549
 H31 H -0.05531 0.49446 -0.09544
 H32 H 0.00198 0.58234 0.04336
 H33 H 0.00658 0.48268 -0.01158
 H34 H -0.03839 0.56199 0.00381
 C35 C 0.45130 0.52065 0.05011
 C36 C 0.47471 0.54439 0.05084
 C37 C 0.49406 0.53975 0.03864
 N38 N 0.48327 0.51400 0.03047
 C39 C 0.45712 0.50230 0.03747
 C40 C 0.52148 0.55864 0.03760
 C41 C 0.54015 0.55442 0.02130
 C42 C 0.56752 0.56986 0.02443
 C43 C 0.57846 0.55994 0.00363
 C44 C 0.55744 0.53875 -0.01156
 N45 N 0.53420 0.53564 -0.00083
 C46 C 0.55997 0.52389 -0.03605
 C47 C 0.53853 0.49968 -0.04686
 C48 C 0.53858 0.48753 -0.07480
 C49 C 0.51521 0.46383 -0.07564
 C50 C 0.50179 0.46200 -0.04787
 N51 N 0.51601 0.48413 -0.03040
 C52 C 0.47742 0.43961 -0.03840
 C53 C 0.46144 0.44134 -0.01431
 C54 C 0.44128 0.41993 0.00178
 C55 C 0.43039 0.42993 0.02245
 C56 C 0.44441 0.45718 0.01884
 N57 N 0.46323 0.46401 -0.00367
 C58 C 0.43897 0.47485 0.03541
 H59 H 0.43224 0.51719 0.05840
 H60 H 0.47726 0.56287 0.05975
 H61 H 0.47494 0.48282 -0.01323
 H62 H 0.57848 0.58659 0.03997
 H63 H 0.59947 0.56757 -0.00003
 H64 H 0.55385 0.49503 -0.09276
 H65 H 0.50883 0.44956 -0.09461
 H66 H 0.41418 0.41844 0.03859
 H67 H 0.51556 0.52322 -0.01048
 H68 H 0.43518 0.39923 -0.00078
 C69 C 0.45122 0.93143 0.05187
 C70 C 0.47452 0.93102 0.05258
 C71 C 0.49397 0.95498 0.04022
 N72 N 0.48336 0.97001 0.03199
 C73 C 0.45722 0.95562 0.03910
 C74 C 0.52134 0.96344 0.03904
 C75 C 0.54007 0.98628 0.02256
 C76 C 0.56744 0.99820 0.02555
 C77 C 0.57844 1.01896 0.00457
 C78 C 0.55747 1.01910 -0.01059
 N79 N 0.53419 0.99904 0.00035
 C80 C 0.56006 1.03636 -0.03524
 C81 C 0.53872 1.03915 -0.04605
 C82 C 0.53877 1.05118 -0.07411
 C83 C 0.51550 1.05158 -0.07493
 C84 C 0.50216 1.04021 -0.04704
 N85 N 0.51631 1.03237 -0.02950
 C86 C 0.47791 1.03837 -0.03752
 C87 C 0.46198 1.02084 -0.01322
 C88 C 0.44201 1.02230 0.00291
 C89 C 0.43105 1.00151 0.02376
 C90 C 0.44485 0.98812 0.02022
 N91 N 0.46360 0.99993 -0.00241
 C92 C 0.43924 0.96502 0.03695
 H93 H 0.43212 0.91585 0.06024
 H94 H 0.47693 0.91504 0.06154
 H95 H 0.47513 0.99267 -0.01194
 H96 H 0.57835 0.99246 0.04111
 H97 H 0.59947 1.03231 0.00075
 H98 H 0.55396 1.05878 -0.09217
 H99 H 0.50915 1.05937 -0.09397
 H100 H 0.41495 0.99695 0.03996
 H101 H 0.51553 0.99278 -0.00922
 H102 H 0.43607 1.03698 0.00023
 C103 C 0.93142 0.45324 0.55035
 C104 C 0.93124 0.47658 0.55042
 C105 C 0.95562 0.49575 0.53858
 N106 N 0.97068 0.48495 0.53121
 C107 C 0.95592 0.45897 0.53847
 C108 C 0.96468 0.52311 0.53774
 C109 C 0.98803 0.54148 0.52175
 C110 C 1.00134 0.56863 0.52644
 C111 C 1.02239 0.57941 0.50576
 C112 C 1.02107 0.55855 0.48862
 N113 N 1.00013 0.53549 0.49868
 C114 C 1.03843 0.56097 0.46379
 C115 C 1.04007 0.53882 0.45333
 C116 C 1.04925 0.53671 0.42397
 C117 C 1.04945 0.51345 0.42392
 C118 C 1.04038 0.50201 0.45325
 N119 N 1.03425 0.51736 0.47114
 C120 C 1.03913 0.47837 0.46359
 C121 C 1.02186 0.46312 0.48838
 C122 C 1.02348 0.44373 0.50541
 C123 C 1.00242 0.43304 0.52607
 C124 C 0.98879 0.44648 0.52149
 N125 N 1.00072 0.46475 0.49850
 C126 C 0.96534 0.44101 0.53751
 H127 H 0.91556 0.43433 0.55869
 H128 H 0.91519 0.47923 0.55881
 H129 H 0.99342 0.47595 0.48820
 H130 H 0.99653 0.57951 0.54323
 H131 H 1.03705 0.60023 0.50377
 H132 H 1.05506 0.55048 0.40452
 H133 H 1.05545 0.50572 0.40442
 H134 H 0.99782 0.41734 0.54278
 H135 H 0.99306 0.51699 0.48831
 H136 H 1.03836 0.43794 0.50336
 C137 C 0.53956 0.48405 0.57116
 C138 C 0.51601 0.46044 0.57111
 C139 C 0.50201 0.46070 0.54491
 N140 N 0.51624 0.48366 0.52893
 C141 C 0.53919 0.49800 0.54499
 C142 C 0.47736 0.43919 0.53506
 C143 C 0.46182 0.44102 0.51079
 C144 C 0.44035 0.41955 0.49656
 C145 C 0.43010 0.42965 0.47515
 C146 C 0.44558 0.45701 0.47691
 N147 N 0.46471 0.46376 0.49888
 C148 C 0.44107 0.47489 0.45940
 C149 C 0.45974 0.50225 0.45699
 C150 C 0.45461 0.52076 0.44346
 C151 C 0.47812 0.54441 0.44361
 C152 C 0.49688 0.53959 0.45721
 N153 N 0.48561 0.51379 0.46532
 C154 C 0.52423 0.55850 0.45987
 C155 C 0.54232 0.55421 0.47734
 C156 C 0.56975 0.56994 0.47569
 C157 C 0.58005 0.55981 0.49701
 C158 C 0.55861 0.53818 0.51108
 N159 N 0.53569 0.53505 0.49917
 C160 C 0.56062 0.52272 0.53526
 H161 H 0.55525 0.49017 0.58839
 H162 H 0.50999 0.44478 0.58829
 H163 H 0.51671 0.52235 0.50773
 H164 H 0.43284 0.39876 0.50113
 H165 H 0.41314 0.41814 0.46004
 H166 H 0.43591 0.51753 0.43422
 H167 H 0.48111 0.56299 0.43449
 H168 H 0.60094 0.56753 0.50163
 H169 H 0.47723 0.48270 0.50754
 H170 H 0.58118 0.58697 0.46071
 C171 C 0.45263 -0.06859 0.45050
 C172 C 0.47589 -0.06896 0.45064
 C173 C 0.49590 -0.04347 0.45789
 N174 N 0.48557 -0.02757 0.46268
 C175 C 0.45909 -0.04290 0.45769
 C176 C 0.52339 -0.03496 0.45845
 C177 C 0.54154 -0.01225 0.47580
 C178 C 0.56897 0.00157 0.47206
 C179 C 0.57909 0.02138 0.49427
 C180 C 0.55757 0.01940 0.51060
 N181 N 0.53478 -0.00112 0.49925
 C182 C 0.55940 0.03566 0.53614
 C183 C 0.53764 0.03777 0.54689
 C184 C 0.53747 0.05063 0.57422
 C185 C 0.51407 0.05087 0.57424
 C186 C 0.50077 0.03816 0.54692
 N187 N 0.51517 0.03011 0.53025
 C188 C 0.47710 0.03654 0.53620
 C189 C 0.46240 0.02056 0.51053
 C190 C 0.44330 0.02312 0.49413
 C191 C 0.43316 0.00344 0.47175
 C192 C 0.44603 -0.01090 0.47548
 N193 N 0.46395 -0.00020 0.49908
 C194 C 0.44078 -0.03369 0.45802
 H195 H 0.43310 -0.08539 0.44582
 H196 H 0.47786 -0.08609 0.44609
 H197 H 0.47479 -0.00818 0.50876
 H198 H 0.58054 -0.00209 0.45500
 H199 H 0.59990 0.03575 0.49781
 H200 H 0.55283 0.05938 0.59197
 H201 H 0.50781 0.05984 0.59203
 H202 H 0.41811 0.00022 0.45459
 H203 H 0.51588 -0.00868 0.50891
 H204 H 0.43747 0.03780 0.49770
 O205 O 0.23078 0.41716 0.27926
 O206 O 0.18518 0.41738 0.21910
 O207 O 0.22982 0.41669 0.21801
 O208 O 0.18612 0.41771 0.28042
 O209 O 0.20895 0.46137 0.27985
 O210 O 0.25215 0.46036 0.21768
 O211 O 0.20795 0.46105 0.21886
 O212 O 0.25319 0.46083 0.27863
 Cu213 Cu 0.20568 0.41283 0.24922
 Cu214 Cu 0.23279 0.46524 0.24870
 C215 C 0.24993 0.43905 0.28907
 C216 C 0.18872 0.43935 0.20885
 C217 C 0.24862 0.43844 0.20736
 C218 C 0.19006 0.43982 0.29071
 O219 O 0.58081 0.81291 0.28077
 O220 O 0.57973 0.76771 0.21929
 O221 O 0.57966 0.81248 0.21954
 O222 O 0.58065 0.76800 0.28053
 O223 O 0.53682 0.74616 0.28144
 O224 O 0.53584 0.79026 0.22079
 O225 O 0.53591 0.74587 0.22049
 O226 O 0.53698 0.79065 0.28175
 Cu227 Cu 0.58464 0.79250 0.24993
 Cu228 Cu 0.53203 0.76605 0.25123
 C229 C 0.55898 0.80957 0.29160
 C230 C 0.55757 0.74892 0.20955
 C231 C 0.55749 0.80904 0.20992
 C232 C 0.55880 0.74931 0.29123
 O233 O 0.18454 0.76978 0.28089
 O234 O 0.22868 0.81462 0.21863
 O235 O 0.18386 0.76913 0.21953
 O236 O 0.22926 0.81526 0.27990
 O237 O 0.25148 0.79394 0.27962
 O238 O 0.20651 0.74825 0.21962
 O239 O 0.25085 0.79326 0.21868
 O240 O 0.20725 0.74896 0.28059
 Cu241 Cu 0.20430 0.79432 0.24972
 Cu242 Cu 0.23124 0.76900 0.24960
 C243 C 0.18837 0.75161 0.29129
 C244 C 0.24748 0.81167 0.20821
 C245 C 0.18739 0.75067 0.20941
 C246 C 0.24826 0.81251 0.28993
 O247 O 0.76834 0.58143 0.78054
 O248 O 0.81369 0.58118 0.71986
 O249 O 0.76872 0.58124 0.71918
 O250 O 0.81319 0.58127 0.78118
 O251 O 0.79068 0.53760 0.78113
 O252 O 0.74678 0.53757 0.71943
 O253 O 0.79129 0.53752 0.72016
 O254 O 0.74628 0.53776 0.78041
 Cu255 Cu 0.79322 0.58570 0.75015
 Cu256 Cu 0.76655 0.53328 0.75027
 C257 C 0.74946 0.55954 0.79076
 C258 C 0.81031 0.55922 0.70981
 C259 C 0.75002 0.55930 0.70884
 C260 C 0.80952 0.55932 0.79166
 O261 O 0.41998 0.18723 0.78024
 O262 O 0.42000 0.23196 0.71880
 O263 O 0.42012 0.18720 0.71888
 O264 O 0.41983 0.23195 0.78017
 O265 O 0.46366 0.25386 0.78004
 O266 O 0.46395 0.20957 0.71913
 O267 O 0.46383 0.25388 0.71906
 O268 O 0.46381 0.20961 0.78011
 Cu269 Cu 0.41555 0.20735 0.74951
 Cu270 Cu 0.46816 0.23393 0.74958
 C271 C 0.44200 0.19078 0.79058
 C272 C 0.44202 0.25069 0.70856
 C273 C 0.44218 0.19072 0.70866
 C274 C 0.44181 0.25066 0.79048
 O275 O 0.81350 0.23077 0.78058
 O276 O 0.76880 0.18609 0.71865
 O277 O 0.81402 0.23118 0.71926
 O278 O 0.76841 0.18573 0.78002
 O279 O 0.74670 0.20755 0.77974
 O280 O 0.79196 0.25266 0.71942
 O281 O 0.74722 0.20804 0.71876
 O282 O 0.79133 0.25214 0.78039
 Cu283 Cu 0.79339 0.20624 0.74960
 Cu284 Cu 0.76713 0.23224 0.74955
 C285 C 0.81003 0.24919 0.79099
 C286 C 0.75024 0.18941 0.70826
 C287 C 0.81085 0.24984 0.70913
 C288 C 0.74967 0.18888 0.79019
 C289 C 0.08062 0.45136 0.09118
 C290 C 0.07856 0.44785 0.05846
 C291 C 0.06291 0.45518 0.04107
 C292 C 0.04939 0.46624 0.05629
 C293 C 0.05091 0.46898 0.08916
 C294 C 0.06648 0.46161 0.10649
 C295 C 0.09866 0.44642 0.10897
 C296 C 0.11431 0.44363 0.12462
 C297 C 0.13357 0.44194 0.14411
 C298 C 0.15679 0.46521 0.15260
 C299 C 0.17494 0.46424 0.17315
 C300 C 0.17014 0.43993 0.18557
 C301 C 0.14700 0.41651 0.17640
 C302 C 0.12878 0.41755 0.15582
 H303 H 0.08954 0.44007 0.04636
 H304 H 0.06195 0.45298 0.01571
 H305 H 0.04053 0.47741 0.10124
 H306 H 0.06803 0.46454 0.13175
 H307 H 0.16066 0.48420 0.14375
 H308 H 0.19256 0.48263 0.17966
 H309 H 0.14272 0.39750 0.18558
 H310 H 0.11081 0.39941 0.14948
 C311 C 0.54526 0.62951 0.09062
 C312 C 0.54798 0.63082 0.05779
 C313 C 0.54101 0.60786 0.04047
 C314 C 0.53114 0.58345 0.05589
 C315 C 0.52914 0.58240 0.08884
 C316 C 0.53614 0.60532 0.10610
 C317 C 0.54997 0.65240 0.10845
 C318 C 0.55268 0.67077 0.12417
 C319 C 0.55443 0.69163 0.14382
 C320 C 0.57904 0.71181 0.15481
 C321 C 0.58022 0.73093 0.17566
 C322 C 0.55675 0.72996 0.18583
 C323 C 0.53220 0.70990 0.17410
 C324 C 0.53108 0.69090 0.15328
 H325 H 0.55487 0.64942 0.04558
 H326 H 0.54259 0.60894 0.01506
 H327 H 0.52158 0.56370 0.10106
 H328 H 0.53384 0.60405 0.13145
 H329 H 0.59724 0.71249 0.14773
 H330 H 0.59942 0.74610 0.18429
 H331 H 0.51376 0.70859 0.18140
 H332 H 0.51192 0.67532 0.14499
 C333 C 0.36707 0.91986 0.08924
 C334 C 0.39128 0.93480 0.10500
 C335 C 0.41464 0.95022 0.08796
 C336 C 0.41401 0.95078 0.05496
 C337 C 0.38959 0.93652 0.03925
 C338 C 0.36619 0.92102 0.05636
 C339 C 0.34380 0.90176 0.10687
 C340 C 0.32521 0.88601 0.12248
 C341 C 0.30424 0.86661 0.14204
 C342 C 0.28455 0.87112 0.15428
 C343 C 0.26552 0.85290 0.17522
 C344 C 0.26612 0.83006 0.18424
 C345 C 0.28564 0.82548 0.17120
 C346 C 0.30452 0.84362 0.15028
 H347 H 0.39223 0.93393 0.13040
 H348 H 0.43333 0.96114 0.10040
 H349 H 0.38883 0.93673 0.01380
 H350 H 0.34759 0.90939 0.04393
 H351 H 0.28423 0.88893 0.14816
 H352 H 0.25078 0.85700 0.18491
 H353 H 0.28664 0.80809 0.17756
 H354 H 0.31971 0.83996 0.14102
 C355 C 0.91848 0.54765 0.59137
 C356 C 0.93267 0.53744 0.60659
 C357 C 0.94834 0.53020 0.58917
 C358 C 0.94991 0.53304 0.55631
 C359 C 0.93634 0.54405 0.54119
 C360 C 0.92059 0.55126 0.55867
 C361 C 0.90037 0.55248 0.60926
 C362 C 0.88467 0.55517 0.62500
 C363 C 0.86539 0.55677 0.64462
 C364 C 0.86997 0.58117 0.65609
 C365 C 0.85177 0.58215 0.67681
 C366 C 0.82885 0.55867 0.68637
 C367 C 0.82425 0.53434 0.67419
 C368 C 0.84238 0.53344 0.65350
 H369 H 0.93109 0.53444 0.63184
 H370 H 0.95875 0.52179 0.60118
 H371 H 0.93735 0.54633 0.51585
 H372 H 0.90959 0.55901 0.54665
 H373 H 0.88778 0.59936 0.64945
 H374 H 0.85590 0.60117 0.68580
 H375 H 0.80680 0.51592 0.68100
 H376 H 0.83867 0.51444 0.64484
 C377 C 0.45385 0.36644 0.58363
 C378 C 0.43906 0.37912 0.58738
 C379 C 0.44608 0.40236 0.57066
 C380 C 0.46803 0.41311 0.55024
 C381 C 0.48225 0.39987 0.54583
 C382 C 0.47520 0.37666 0.56248
 C383 C 0.44876 0.34433 0.60326
 C384 C 0.44595 0.32662 0.62028
 C385 C 0.44438 0.30654 0.64120
 C386 C 0.41989 0.28663 0.65289
 C387 C 0.41894 0.26806 0.67444
 C388 C 0.44253 0.26930 0.68459
 C389 C 0.46696 0.28918 0.67229
 C390 C 0.46784 0.30761 0.65078
 H391 H 0.42262 0.37148 0.60385
 H392 H 0.43500 0.41242 0.57437
 H393 H 0.49925 0.40796 0.53017
 H394 H 0.48688 0.36712 0.55955
 H395 H 0.40160 0.28566 0.64569
 H396 H 0.39984 0.25302 0.68351
 H397 H 0.48549 0.29070 0.67953
 H398 H 0.48690 0.32296 0.64193
 C399 C 0.63298 0.08531 0.58387
 C400 C 0.62125 0.05771 0.58542
 C401 C 0.59770 0.04143 0.56900
 C402 C 0.58567 0.05268 0.55111
 C403 C 0.59796 0.08034 0.54887
 C404 C 0.62147 0.09655 0.56521
 C405 C 0.65549 0.10223 0.60326
 C406 C 0.67352 0.11714 0.62010
 C407 C 0.69393 0.13575 0.64084
 C408 C 0.69351 0.15850 0.64998
 C409 C 0.71214 0.17613 0.67145
 C410 C 0.73156 0.17129 0.68416
 C411 C 0.73220 0.14862 0.67441
 C412 C 0.71342 0.13090 0.65290
 H413 H 0.62990 0.04881 0.59996
 H414 H 0.58841 0.02012 0.57098
 H415 H 0.58894 0.08930 0.53512
 H416 H 0.63028 0.11786 0.56398
 H417 H 0.67848 0.16242 0.64084
 H418 H 0.71109 0.19340 0.67837
 H419 H 0.74688 0.14432 0.68381
 H420 H 0.71387 0.11330 0.64604
 C421 C 0.45568 0.08795 0.91505
 C422 C 0.43674 0.06135 0.92044
 C423 C 0.44376 0.04505 0.93691
 C424 C 0.46998 0.05511 0.94787
 C425 C 0.48852 0.08219 0.94311
 C426 C 0.48143 0.09837 0.92682
 C427 C 0.44964 0.10445 0.89578
 C428 C 0.44636 0.11912 0.87893
 C429 C 0.44457 0.13754 0.85811
 C430 C 0.42007 0.13244 0.84607
 C431 C 0.41904 0.14999 0.82448
 C432 C 0.44255 0.17275 0.81463
 C433 C 0.46696 0.17783 0.82730
 C434 C 0.46793 0.16036 0.84885
 H435 H 0.41676 0.05304 0.91126
 H436 H 0.42903 0.02430 0.93976
 H437 H 0.50863 0.09087 0.95199
 H438 H 0.49623 0.11897 0.92288
 H439 H 0.40187 0.11477 0.85301
 H440 H 0.39995 0.14552 0.81511
 H441 H 0.48542 0.19517 0.82031
 H442 H 0.48700 0.16447 0.85797
 C443 C 0.63344 0.54806 0.91600
 C444 C 0.62152 0.56365 0.91391
 C445 C 0.59809 0.55645 0.93057
 C446 C 0.58640 0.53352 0.94926
 C447 C 0.59893 0.51848 0.95206
 C448 C 0.62231 0.52572 0.93549
 C449 C 0.65564 0.55334 0.89621
 C450 C 0.67337 0.55615 0.87906
 C451 C 0.69342 0.55759 0.85801
 C452 C 0.71352 0.58194 0.84635
 C453 C 0.73212 0.58274 0.82478
 C454 C 0.73070 0.55915 0.81458
 C455 C 0.71060 0.53486 0.82680
 C456 C 0.69214 0.53413 0.84832
 H457 H 0.62986 0.58086 0.89870
 H458 H 0.58857 0.56815 0.92805
 H459 H 0.59011 0.50071 0.96633
 H460 H 0.63126 0.51342 0.93712
 H461 H 0.71465 0.60022 0.85364
 H462 H 0.74734 0.60173 0.81578
 H463 H 0.70894 0.51635 0.81951
 H464 H 0.67663 0.51518 0.85714
 C465 C 0.91225 0.36637 0.91623
 C466 C 0.93852 0.37381 0.92356
 C467 C 0.95459 0.39735 0.94006
 C468 C 0.94464 0.41394 0.94916
 C469 C 0.91787 0.40564 0.94236
 C470 C 0.90192 0.38216 0.92606
 C471 C 0.89605 0.34356 0.89697
 C472 C 0.88150 0.32543 0.88006
 C473 C 0.86310 0.30506 0.85914
 C474 C 0.84017 0.30524 0.84999
 C475 C 0.82275 0.28677 0.82825
 C476 C 0.82798 0.26774 0.81528
 C477 C 0.85085 0.26732 0.82504
 C478 C 0.86836 0.28596 0.84681
 H479 H 0.94678 0.36181 0.91584
 H480 H 0.97516 0.40320 0.94430
 H481 H 0.90922 0.41740 0.94969
 H482 H 0.88159 0.37655 0.92059
 H483 H 0.83593 0.31997 0.85931
 H484 H 0.80532 0.28762 0.82135
 H485 H 0.85544 0.25294 0.81544
 H486 H 0.88613 0.28572 0.85366
 C487 C 0.54776 0.91878 0.40700
 C488 C 0.53044 0.92595 0.39353
 C489 C 0.52298 0.94169 0.41021
 C490 C 0.53263 0.95060 0.44087
 C491 C 0.55082 0.94395 0.45380
 C492 C 0.55819 0.92804 0.43701
 C493 C 0.55325 0.90064 0.39036
 C494 C 0.55617 0.88475 0.37545
 C495 C 0.55768 0.86511 0.35659
 C496 C 0.53425 0.84162 0.34928
 C497 C 0.53484 0.82327 0.32879
 C498 C 0.55893 0.82815 0.31525
 C499 C 0.58256 0.85149 0.32338
 C500 C 0.58190 0.86992 0.34388
 H501 H 0.52231 0.91896 0.37027
 H502 H 0.50958 0.94696 0.39904
 H503 H 0.55833 0.94996 0.47748
 H504 H 0.57149 0.92244 0.44775
 H505 H 0.51538 0.83774 0.35888
 H506 H 0.51631 0.80549 0.32311
 H507 H 0.60140 0.85584 0.31329
 H508 H 0.60014 0.88812 0.34926
 C509 C 0.36949 0.44952 0.40684
 C510 C 0.39348 0.45730 0.39118
 C511 C 0.41660 0.46468 0.40834
 C512 C 0.41596 0.46439 0.44136
 C513 C 0.39173 0.45576 0.45702
 C514 C 0.36856 0.44841 0.43979
 C515 C 0.34656 0.44486 0.38900
 C516 C 0.32819 0.44233 0.37333
 C517 C 0.30738 0.44094 0.35380
 C518 C 0.28695 0.41661 0.34257
 C519 C 0.26781 0.41583 0.32200
 C520 C 0.26900 0.43942 0.31234
 C521 C 0.28935 0.46369 0.32426
 C522 C 0.30836 0.46441 0.34481
 H523 H 0.39446 0.45839 0.36572
 H524 H 0.43517 0.47133 0.39596
 H525 H 0.39097 0.45554 0.48249
 H526 H 0.35015 0.44259 0.45215
 H527 H 0.28606 0.39833 0.34930
 H528 H 0.25242 0.39684 0.31320
 H529 H 0.29084 0.48221 0.31737
 H530 H 0.32412 0.48336 0.35329
 C531 C 0.08703 0.63366 0.41645
 C532 C 0.06070 0.62601 0.42384
 C533 C 0.04474 0.60239 0.44026
 C534 C 0.05486 0.58593 0.44923
 C535 C 0.08168 0.59443 0.44235
 C536 C 0.09752 0.61799 0.42612
 C537 C 0.10313 0.65657 0.39728
 C538 C 0.11757 0.67483 0.38044
 C539 C 0.13582 0.69537 0.35957
 C540 C 0.13015 0.71416 0.34722
 C541 C 0.14750 0.73294 0.32543
 C542 C 0.17062 0.73297 0.31567
 C543 C 0.17627 0.71426 0.32870
 C544 C 0.15901 0.69565 0.35045
 H545 H 0.05232 0.63792 0.41624
 H546 H 0.02414 0.59639 0.44456
 H547 H 0.09046 0.58278 0.44958
 H548 H 0.11790 0.62375 0.42060
 H549 H 0.11218 0.71405 0.35405
 H550 H 0.14259 0.74706 0.31579
 H551 H 0.19390 0.71376 0.32179
 H552 H 0.16356 0.68116 0.35979
 C553 C 0.91170 0.54462 0.91648
 C554 C 0.90148 0.51842 0.92615
 C555 C 0.91751 0.51106 0.94239
 C556 C 0.94424 0.52979 0.94928
 C557 C 0.95407 0.55638 0.94031
 C558 C 0.93793 0.56368 0.92387
 C559 C 0.89542 0.55108 0.89732
 C560 C 0.88085 0.55460 0.88051
 C561 C 0.86247 0.55656 0.85969
 C562 C 0.83939 0.53338 0.85066
 C563 C 0.82200 0.53442 0.82898
 C564 C 0.82742 0.55874 0.81594
 C565 C 0.85042 0.58209 0.82559
 C566 C 0.86790 0.58097 0.84731
 H567 H 0.88118 0.50351 0.92063
 H568 H 0.90895 0.49059 0.94962
 H569 H 0.97460 0.57130 0.94461
 H570 H 0.94610 0.58401 0.91627
 H571 H 0.83503 0.51437 0.86003
 H572 H 0.80446 0.51609 0.82216
 H573 H 0.85515 0.60110 0.81593
 H574 H 0.88578 0.59903 0.85406
 C575 C 0.45502 0.36739 0.91459
 C576 C 0.43616 0.37512 0.91966
 C577 C 0.44323 0.39856 0.93601
 C578 C 0.46940 0.41479 0.94718
 C579 C 0.48783 0.40617 0.94277
 C580 C 0.48070 0.38277 0.92659
 C581 C 0.44900 0.34478 0.89538
 C582 C 0.44577 0.32678 0.87858
 C583 C 0.44407 0.30653 0.85783
 C584 C 0.41961 0.28689 0.84578
 C585 C 0.41868 0.26828 0.82425
 C586 C 0.44225 0.26925 0.81447
 C587 C 0.46662 0.28884 0.82715
 C588 C 0.46748 0.30729 0.84863
 H589 H 0.41625 0.36342 0.91029
 H590 H 0.42858 0.40464 0.93859
 H591 H 0.50789 0.41764 0.95182
 H592 H 0.49544 0.37694 0.92290
 H593 H 0.40136 0.28618 0.85267
 H594 H 0.39962 0.25347 0.81488
 H595 H 0.48512 0.29013 0.82020
 H596 H 0.48652 0.32244 0.85775
 C597 C 0.63347 0.08516 0.91623
 C598 C 0.62129 0.05753 0.91444
 C599 C 0.59788 0.04148 0.93128
 C600 C 0.58646 0.05301 0.94985
 C601 C 0.59923 0.08068 0.95234
 C602 C 0.62260 0.09666 0.93560
 C603 C 0.65566 0.10189 0.89627
 C604 C 0.67339 0.11667 0.87896
 C605 C 0.69346 0.13512 0.85774
 C606 C 0.69238 0.15735 0.84786
 C607 C 0.71088 0.17495 0.82622
 C608 C 0.73082 0.17060 0.81408
 C609 C 0.73204 0.14839 0.82447
 C610 C 0.71340 0.13072 0.84616
 H611 H 0.62943 0.04844 0.89933
 H612 H 0.58817 0.02016 0.92900
 H613 H 0.59062 0.08985 0.96652
 H614 H 0.63174 0.11800 0.93700
 H615 H 0.67700 0.16092 0.85663
 H616 H 0.70938 0.19185 0.81879
 H617 H 0.74714 0.14449 0.81554
 H618 H 0.71437 0.11352 0.85361
 C619 C 0.08855 0.45566 0.41603
 C620 C 0.09869 0.48183 0.42580
 C621 C 0.08258 0.48910 0.44210
 C622 C 0.05585 0.47031 0.44896
 C623 C 0.04609 0.44375 0.43988
 C624 C 0.06231 0.43654 0.42339
 C625 C 0.10488 0.44927 0.39682
 C626 C 0.11942 0.44568 0.37995
 C627 C 0.13767 0.44350 0.35904
 C628 C 0.16069 0.46656 0.34955
 C629 C 0.17792 0.46524 0.32778
 C630 C 0.17239 0.44075 0.31511
 C631 C 0.14944 0.41754 0.32523
 C632 C 0.13213 0.41894 0.34704
 H633 H 0.11899 0.49679 0.42031
 H634 H 0.09109 0.50954 0.44941
 H635 H 0.02556 0.42879 0.44415
 H636 H 0.05420 0.41624 0.41571
 H637 H 0.16514 0.48569 0.35862
 H638 H 0.19542 0.48347 0.32058
 H639 H 0.14462 0.39840 0.31587
 H640 H 0.11430 0.40097 0.35415
 C641 C 0.54916 0.63023 0.40831
 C642 C 0.55007 0.63080 0.44127
 C643 C 0.54284 0.60760 0.45816
 C644 C 0.53452 0.58367 0.44217
 C645 C 0.53442 0.58339 0.40914
 C646 C 0.54168 0.60656 0.39231
 C647 C 0.55373 0.65320 0.39079
 C648 C 0.55620 0.67160 0.37537
 C649 C 0.55751 0.69245 0.35610
 C650 C 0.58177 0.71231 0.34384
 C651 C 0.58240 0.73133 0.32331
 C652 C 0.55871 0.73057 0.31470
 C653 C 0.53454 0.71084 0.32773
 C654 C 0.53398 0.69195 0.34824
 H655 H 0.55565 0.64897 0.45388
 H656 H 0.54292 0.60807 0.48365
 H657 H 0.52802 0.56506 0.39650
 H658 H 0.54075 0.60585 0.36684
 H659 H 0.60010 0.71280 0.34969
 H660 H 0.60131 0.74623 0.31364
 H661 H 0.51595 0.70970 0.32167
 H662 H 0.51509 0.67663 0.35752
 C663 C 0.36991 0.92157 0.40556
 C664 C 0.36874 0.93082 0.43557
 C665 C 0.39214 0.94628 0.45267
 C666 C 0.41706 0.95245 0.44009
 C667 C 0.41783 0.94359 0.40942
 C668 C 0.39452 0.92831 0.39243
 C669 C 0.34610 0.90371 0.38868
 C670 C 0.32716 0.88796 0.37358
 C671 C 0.30591 0.86835 0.35456
 C672 C 0.30605 0.84523 0.34659
 C673 C 0.28692 0.82684 0.32614
 C674 C 0.26727 0.83128 0.31331
 C675 C 0.26683 0.85427 0.32204
 C676 C 0.28613 0.87276 0.34250
 H677 H 0.34974 0.92553 0.44605
 H678 H 0.39060 0.95226 0.47634
 H679 H 0.43659 0.94850 0.39853
 H680 H 0.39567 0.92131 0.36919
 H681 H 0.32132 0.84166 0.35569
 H682 H 0.28780 0.80933 0.32000
 H683 H 0.25199 0.85827 0.31251
 H684 H 0.28592 0.89067 0.34841
 C685 C 0.54499 0.91634 0.09187
 C686 C 0.53591 0.93139 0.10742
 C687 C 0.52893 0.94729 0.09023
 C688 C 0.53089 0.94824 0.05728
 C689 C 0.54068 0.93370 0.04179
 C690 C 0.54765 0.91774 0.05904
 C691 C 0.54974 0.89820 0.10963
 C692 C 0.55249 0.88256 0.12526
 C693 C 0.55428 0.86343 0.14478
 C694 C 0.53094 0.84062 0.15415
 C695 C 0.53209 0.82268 0.17479
 C696 C 0.55666 0.82729 0.18642
 C697 C 0.58011 0.84999 0.17635
 C698 C 0.57890 0.86800 0.15569
 H699 H 0.53366 0.93035 0.13278
 H700 H 0.52143 0.95842 0.10250
 H701 H 0.54224 0.93421 0.01637
 H702 H 0.55451 0.90606 0.04677
 H703 H 0.51178 0.83692 0.14592
 H704 H 0.51367 0.80539 0.18200
 H705 H 0.59932 0.85413 0.18493
 H706 H 0.59708 0.88565 0.14867
 C707 C 0.36705 0.44846 0.08784
 C708 C 0.39122 0.45748 0.10354
 C709 C 0.41447 0.46517 0.08645
 C710 C 0.41379 0.46398 0.05345
 C711 C 0.38939 0.45405 0.03779
 C712 C 0.36609 0.44640 0.05495
 C713 C 0.34394 0.44359 0.10553
 C714 C 0.32552 0.44099 0.12121
 C715 C 0.30476 0.43966 0.14088
 C716 C 0.28492 0.41549 0.15323
 C717 C 0.26610 0.41488 0.17427
 C718 C 0.26705 0.43851 0.18330
 C719 C 0.28673 0.46258 0.17016
 C720 C 0.30541 0.46312 0.14913
 H721 H 0.39222 0.45931 0.12894
 H722 H 0.43316 0.47279 0.09885
 H723 H 0.38860 0.45309 0.01233
 H724 H 0.34752 0.43961 0.04256
 H725 H 0.28431 0.39721 0.14709
 H726 H 0.25123 0.39604 0.18402
 H727 H 0.28801 0.48112 0.17653
 H728 H 0.32072 0.48195 0.13980
 C729 C 0.07980 0.62973 0.09144
 C730 C 0.06585 0.60523 0.10672
 C731 C 0.05042 0.58217 0.08935
 C732 C 0.04887 0.58337 0.05648
 C733 C 0.06221 0.60805 0.04131
 C734 C 0.07771 0.63116 0.05874
 C735 C 0.09772 0.65288 0.10927
 C736 C 0.11329 0.67146 0.12494
 C737 C 0.13248 0.69256 0.14447
 C738 C 0.12763 0.71213 0.15611
 C739 C 0.14577 0.73151 0.17674
 C740 C 0.16889 0.73140 0.18604
 C741 C 0.17375 0.71192 0.17369
 C742 C 0.15568 0.69268 0.15309
 H743 H 0.06742 0.60388 0.13197
 H744 H 0.04019 0.56328 0.10139
 H745 H 0.06122 0.60927 0.01596
 H746 H 0.08855 0.64999 0.04667
 H747 H 0.10967 0.71216 0.14967
 H748 H 0.14145 0.74621 0.18588
 H749 H 0.19136 0.71128 0.18029
 H750 H 0.15960 0.67759 0.14429
 C751 C 0.45466 0.08671 0.58441
 C752 C 0.47771 0.09779 0.56594
 C753 C 0.48454 0.08143 0.54945
 C754 C 0.46841 0.05379 0.55135
 C755 C 0.44484 0.04272 0.56905
 C756 C 0.43804 0.05915 0.58562
 C757 C 0.44943 0.10372 0.60387
 C758 C 0.44652 0.11863 0.62076
 C759 C 0.44483 0.13716 0.64155
 C760 C 0.46823 0.15981 0.65104
 C761 C 0.46726 0.17740 0.67246
 C762 C 0.44279 0.17259 0.68476
 C763 C 0.41926 0.14998 0.67470
 C764 C 0.42031 0.13233 0.65324
 H765 H 0.49078 0.11907 0.56496
 H766 H 0.50275 0.09025 0.53584
 H767 H 0.43223 0.02143 0.57076
 H768 H 0.42024 0.05037 0.59999
 H769 H 0.48733 0.16372 0.64220
 H770 H 0.48574 0.19461 0.67964
 H771 H 0.40013 0.14572 0.68377
 H772 H 0.40207 0.11480 0.64610
 C773 C 0.63379 0.54684 0.58374
 C774 C 0.62374 0.52562 0.56256
 C775 C 0.60039 0.51836 0.54596
 C776 C 0.58681 0.53223 0.55046
 C777 C 0.59737 0.55405 0.57092
 C778 C 0.62077 0.56128 0.58758
 C779 C 0.65606 0.55214 0.60331
 C780 C 0.67391 0.55508 0.62029
 C781 C 0.69412 0.55677 0.64118
 C782 C 0.69327 0.53346 0.65060
 C783 C 0.71176 0.53441 0.67216
 C784 C 0.73145 0.55875 0.68469
 C785 C 0.73250 0.58220 0.67468
 C786 C 0.71387 0.58118 0.65308
 H787 H 0.63355 0.51420 0.55956
 H788 H 0.59245 0.50147 0.53027
 H789 H 0.58705 0.56487 0.57469
 H790 H 0.62826 0.57762 0.60408
 H791 H 0.67804 0.51446 0.64159
 H792 H 0.71040 0.51600 0.67929
 H793 H 0.74740 0.60123 0.68394
 H794 H 0.71465 0.59935 0.64600
 C795 C 0.91961 0.36985 0.59090
 C796 C 0.93377 0.39430 0.60622
 C797 C 0.94934 0.41735 0.58888
 C798 C 0.95084 0.41618 0.55599
 C799 C 0.93733 0.39153 0.54077
 C800 C 0.92168 0.36843 0.55818
 C801 C 0.90145 0.34677 0.60870
 C802 C 0.88568 0.32830 0.62438
 C803 C 0.86628 0.30736 0.64395
 C804 C 0.84328 0.30766 0.65261
 C805 C 0.82503 0.28861 0.67329
 C806 C 0.82950 0.26890 0.68566
 C807 C 0.85240 0.26836 0.67630
 C808 C 0.87073 0.28755 0.65561
 H809 H 0.93221 0.39565 0.63149
 H810 H 0.95970 0.43622 0.60095
 H811 H 0.93827 0.39033 0.51541
 H812 H 0.91067 0.34963 0.54608
 H813 H 0.83967 0.32294 0.64381
 H814 H 0.80760 0.28958 0.67993
 H815 H 0.85643 0.25347 0.68546
 H816 H 0.88853 0.28720 0.64914
   
