data_POSCAR
  _audit_creation_date              2014-09-24
  _audit_creation_method            'ToBaCCo'
  _symmetry_space_group_name_H-M    'P1'
  _symmetry_Int_Tables_number       1
  _symmetry_cell_setting            triclinic
  loop_
  _symmetry_equiv_pos_as_xyz
 x,y,z
_cell_length_a 24.5103
_cell_length_b 27.1735
_cell_length_c 21.8006
_cell_angle_alpha 90.014400
_cell_angle_beta 89.898300
_cell_angle_gamma 90.038300
loop_
  _atom_site_label
  _atom_site_type_symbol
  _atom_site_fract_x
  _atom_site_fract_y
  _atom_site_fract_z
O1 O 0.26998 0.28280 0.14574
 O2 O 0.32160 0.21359 0.27911
 O3 O 0.27131 0.19042 0.17940
 O4 O 0.31992 0.30613 0.24795
 O5 O 0.24198 0.31404 0.29820
 O6 O 0.18947 0.20386 0.21835
 O7 O 0.24064 0.21988 0.32310
 O8 O 0.19306 0.29730 0.19557
 Cu9 Cu 0.30371 0.24746 0.20830
 Cu10 Cu 0.20833 0.25943 0.26377
 C11 C 0.22300 0.30243 0.14846
 C12 C 0.28946 0.20419 0.32329
 C13 C 0.22172 0.17794 0.18601
 C14 C 0.28953 0.32934 0.28523
 O15 O 0.82070 0.29171 0.21760
 O16 O 0.76606 0.22351 0.35099
 O17 O 0.82604 0.20125 0.25569
 O18 O 0.77052 0.31519 0.31909
 O19 O 0.69359 0.30480 0.26803
 O20 O 0.74666 0.18567 0.21177
 O21 O 0.68775 0.21397 0.30237
 O22 O 0.74477 0.27527 0.16714
 Cu23 Cu 0.80356 0.25935 0.29060
 Cu24 Cu 0.71065 0.24412 0.23167
 C25 C 0.79214 0.29385 0.16905
 C26 C 0.71726 0.20735 0.34932
 C27 C 0.79544 0.17340 0.22438
 C28 C 0.72281 0.32920 0.30547
 O29 O 0.75785 0.80796 0.69662
 O30 O 0.80474 0.70247 0.78814
 O31 O 0.75827 0.71135 0.68215
 O32 O 0.80462 0.79680 0.80173
 O33 O 0.72414 0.79161 0.84708
 O34 O 0.67684 0.70796 0.72570
 O35 O 0.72371 0.69771 0.83243
 O36 O 0.67656 0.80261 0.74022
 Cu37 Cu 0.78934 0.75513 0.73707
 Cu38 Cu 0.69199 0.74963 0.79052
 C39 C 0.70940 0.82344 0.70344
 C40 C 0.77250 0.68274 0.82660
 C41 C 0.70989 0.69479 0.68399
 C42 C 0.77274 0.80787 0.84557
 O43 O 0.29964 0.80717 0.71663
 O44 O 0.24323 0.71856 0.82623
 O45 O 0.30607 0.71067 0.73059
 O46 O 0.22834 0.81129 0.80721
 O47 O 0.16519 0.80268 0.73604
 O48 O 0.23306 0.69366 0.67512
 O49 O 0.17061 0.70893 0.76752
 O50 O 0.23638 0.78695 0.64914
 Cu51 Cu 0.27655 0.76363 0.77598
 Cu52 Cu 0.19420 0.74721 0.70084
 C53 C 0.27884 0.81118 0.66370
 C54 C 0.19709 0.69916 0.81624
 C55 C 0.28125 0.68377 0.69164
 C56 C 0.18341 0.82452 0.78312
 C57 C 1.04215 0.06638 0.18200
 C58 C 0.98651 0.06544 0.19057
 C59 C 0.96425 0.04719 0.13690
 N60 N 1.00414 0.03736 0.09574
 C61 C 1.05188 0.04950 0.12289
 C62 C 0.90802 0.04230 0.12438
 C63 C 0.88909 0.01391 0.07466
 C64 C 0.83813 0.01825 0.04753
 C65 C 0.83331 -0.02006 0.00677
 C66 C 0.88160 -0.04640 0.00991
 N67 N 0.91571 -0.02509 0.05073
 C68 C 0.89265 -0.09035 -0.02202
 C69 C 0.94681 -0.10454 -0.03473
 C70 C 0.96332 -0.14886 -0.06025
 C71 C 1.01777 -0.14375 -0.07393
 C72 C 1.03276 -0.09708 -0.05466
 N73 N 0.98950 -0.07331 -0.03071
 C74 C 1.08262 -0.07393 -0.06817
 C75 C 1.10080 -0.03210 -0.03572
 C76 C 1.14348 -0.00186 -0.05342
 C77 C 1.14903 0.03322 -0.00815
 C78 C 1.10970 0.02323 0.03609
 N79 N 1.08044 -0.01660 0.01879
 C80 C 1.10297 0.04876 0.09235
 H81 H 1.07176 0.07790 0.21579
 H82 H 0.96503 0.07642 0.23176
 H83 H 1.05138 -0.03472 0.04550
 H84 H 0.80734 0.04586 0.05650
 H85 H 0.79831 -0.02750 -0.02197
 H86 H 0.93873 -0.18106 -0.06952
 H87 H 1.04324 -0.17076 -0.09661
 H88 H 1.17839 0.06297 -0.00826
 H89 H 0.95231 -0.03975 0.06681
 H90 H 1.16807 -0.00480 -0.09454
 C91 C 0.47602 0.58922 0.64454
 C92 C 0.53174 0.59299 0.63924
 C93 C 0.54449 0.58137 0.57896
 N94 N 0.49863 0.57011 0.54764
 C95 C 0.45681 0.57494 0.58752
 C96 C 0.59684 0.58293 0.55187
 C97 C 0.60704 0.55915 0.49546
 C98 C 0.65081 0.56851 0.45673
 C99 C 0.65108 0.53171 0.41337
 C100 C 0.60705 0.50145 0.42649
 N101 N 0.57976 0.51897 0.47568
 C102 C 0.59711 0.45525 0.39942
 C103 C 0.54356 0.43608 0.39693
 C104 C 0.52827 0.38954 0.37742
 C105 C 0.47222 0.38875 0.37732
 C106 C 0.45514 0.43406 0.39938
 N107 N 0.49877 0.46292 0.41068
 C108 C 0.40069 0.45045 0.40422
 C109 C 0.38575 0.49084 0.44176
 C110 C 0.33508 0.51359 0.44180
 C111 C 0.33531 0.54713 0.48918
 C112 C 0.38591 0.54376 0.51722
 N113 N 0.41646 0.50958 0.48783
 C114 C 0.40155 0.56885 0.57144
 H115 H 0.45257 0.59545 0.68591
 H116 H 0.55943 0.60219 0.67606
 H117 H 0.45367 0.49579 0.50305
 H118 H 0.68060 0.59776 0.46055
 H119 H 0.68118 0.52676 0.37751
 H120 H 0.55397 0.35889 0.36499
 H121 H 0.44755 0.35778 0.36347
 H122 H 0.30168 0.57083 0.50192
 H123 H 0.54967 0.50007 0.50001
 H124 H 0.30088 0.50607 0.41194
 C125 C -0.04348 0.62640 -0.07391
 C126 C 0.01227 0.62985 -0.07532
 C127 C 0.03212 0.58218 -0.07208
 N128 N -0.00962 0.54972 -0.06910
 C129 C -0.05594 0.57670 -0.07017
 C130 C 0.08790 0.56935 -0.07362
 C131 C 0.10761 0.52183 -0.05885
 C132 C 0.16056 0.50591 -0.06918
 C133 C 0.16495 0.46002 -0.04325
 C134 C 0.11426 0.44849 -0.01862
 N135 N 0.07969 0.48661 -0.02811
 C136 C 0.10241 0.40538 0.01559
 C137 C 0.04871 0.38993 0.03056
 C138 C 0.03591 0.34781 0.06362
 C139 C -0.01977 0.34507 0.06618
 C140 C -0.03963 0.38534 0.03427
 N141 N 0.00233 0.41218 0.01164
 C142 C -0.09556 0.39455 0.02312
 C143 C -0.11485 0.43491 -0.01173
 C144 C -0.16715 0.43907 -0.03550
 C145 C -0.17050 0.48439 -0.06295
 C146 C -0.12075 0.50751 -0.05391
 N147 N -0.08696 0.47700 -0.02291
 C148 C -0.10927 0.55689 -0.07003
 H149 H -0.07146 0.65716 -0.07456
 H150 H 0.03544 0.66371 -0.07748
 H151 H -0.04982 0.48676 -0.00362
 H152 H 0.19315 0.52565 -0.09198
 H153 H 0.20186 0.43834 -0.04209
 H154 H 0.06338 0.32073 0.08260
 H155 H -0.04272 0.31565 0.08750
 H156 H -0.20612 0.49886 -0.08596
 H157 H 0.04162 0.49110 -0.00807
 H158 H -0.20015 0.41280 -0.03314
 C159 C 0.52176 0.90757 0.65022
 C160 C 0.46674 0.90246 0.64086
 C161 C 0.45345 0.93222 0.59142
 N162 N 0.49905 0.95386 0.56912
 C163 C 0.54097 0.93854 0.60460
 C164 C 0.40123 0.93639 0.56422
 C165 C 0.38735 0.97533 0.52382
 C166 C 0.33910 0.97843 0.49074
 C167 C 0.33904 1.02342 0.46199
 C168 C 0.38695 1.04703 0.47854
 N169 N 0.41609 1.01756 0.51632
 C170 C 0.40105 1.09567 0.46141
 C171 C 0.45475 1.11430 0.46581
 C172 C 0.46970 1.16305 0.45715
 C173 C 0.52557 1.16485 0.46147
 C174 C 0.54280 1.11718 0.47282
 N175 N 0.49951 1.08638 0.47537
 C176 C 0.59765 1.10186 0.47718
 C177 C 0.61204 1.05448 0.49803
 C178 C 0.66193 1.03193 0.48754
 C179 C 0.66147 0.98860 0.51998
 C180 C 0.61140 0.98600 0.54955
 N181 N 0.58114 1.02594 0.53520
 C182 C 0.59640 0.94967 0.59267
 H183 H 0.54444 0.89024 0.68675
 H184 H 0.44029 0.87948 0.66818
 H185 H 0.54454 1.03610 0.55599
 H186 H 0.30632 0.95187 0.48854
 H187 H 0.30693 1.03729 0.43272
 H188 H 0.44324 1.19416 0.44867
 H189 H 0.55051 1.19752 0.45697
 H190 H 0.69449 0.96224 0.52199
 H191 H 0.45047 1.02805 0.54095
 H192 H 0.69538 1.04541 0.45976
 N193 N 1.20290 0.06328 0.11012
 N194 N 1.23592 0.10033 0.13413
 C195 C 1.20298 0.13525 0.15749
 C196 C 1.14888 0.12206 0.14793
 C197 C 1.15037 0.07693 0.11752
 H198 H 1.11325 0.14388 0.15892
 H199 H 1.21741 0.03084 0.09028
 H200 H 1.27853 0.09971 0.13460
 N201 N 0.69497 0.59289 0.58246
 N202 N 0.72500 0.62330 0.61547
 C203 C 0.69240 0.65851 0.63857
 C204 C 0.63954 0.65083 0.61878
 C205 C 0.64271 0.60859 0.58320
 H206 H 0.60387 0.67264 0.62958
 H207 H 0.71000 0.56099 0.56174
 H208 H 0.76655 0.61855 0.62424
 N209 N -0.17090 0.33193 0.01746
 N210 N -0.20118 0.30633 0.05623
 C211 C -0.18553 0.31725 0.11386
 C212 C -0.14392 0.35154 0.11191
 C213 C -0.13613 0.36015 0.04988
 H214 H -0.12216 0.36778 0.15005
 H215 H -0.17349 0.32930 -0.03024
 H216 H -0.23099 0.28093 0.04322
 N217 N 0.33906 0.86781 0.53191
 N218 N 0.30570 0.83562 0.55775
 C219 C 0.30534 0.84350 0.61869
 C220 C 0.33908 0.88291 0.63217
 C221 C 0.36010 0.89714 0.57585
 H222 H 0.34786 0.89830 0.67687
 H223 H 0.34839 0.86865 0.48516
 H224 H 0.28554 0.80751 0.53422
 N225 N -0.20254 0.59348 -0.05622
 N226 N -0.23407 0.62589 -0.08413
 C227 C -0.20756 0.64297 -0.13392
 C228 C -0.15724 0.62027 -0.13828
 C229 C -0.15549 0.58922 -0.08793
 H230 H -0.12584 0.62625 -0.17246
 H231 H -0.21272 0.57553 -0.01541
 H232 H -0.27235 0.63699 -0.06821
 N233 N 0.30839 1.13478 0.46138
 N234 N 0.27895 1.16311 0.42495
 C235 C 0.30897 1.17447 0.37511
 C236 C 0.35976 1.15253 0.38001
 C237 C 0.35772 1.12767 0.43546
 H238 H 0.39300 1.15350 0.34728
 H239 H 0.29469 1.12039 0.50309
 H240 H 0.23887 1.17399 0.43402
 N241 N 1.08266 -0.08672 -0.18002
 N242 N 1.10940 -0.11752 -0.22113
 C243 C 1.15234 -0.13748 -0.19183
 C244 C 1.15461 -0.11945 -0.13200
 C245 C 1.10938 -0.08874 -0.12620
 H246 H 1.18095 -0.13207 -0.09546
 H247 H 1.04469 -0.07049 -0.18787
 H248 H 1.09551 -0.12572 -0.26525
 N249 N 0.69276 0.42581 0.41048
 N250 N 0.72618 0.39374 0.38511
 C251 C 0.70099 0.37267 0.33701
 C252 C 0.64945 0.39303 0.33060
 C253 C 0.64539 0.42619 0.37908
 H254 H 0.61891 0.38352 0.29686
 H255 H 0.70155 0.44523 0.45062
 H256 H 0.76450 0.38468 0.40270
 N257 N 0.79883 -0.12690 -0.01623
 N258 N 0.76452 -0.15413 -0.05432
 C259 C 0.79192 -0.16289 -0.10678
 C260 C 0.84303 -0.14114 -0.10403
 C261 C 0.84609 -0.11934 -0.04659
 H262 H 0.87395 -0.14107 -0.13955
 H263 H 0.78914 -0.11553 0.02823
 H264 H 0.72567 -0.16672 -0.04230
 N265 N 0.33637 0.45098 0.31573
 N266 N 0.30669 0.41911 0.28444
 C267 C 0.30953 0.37509 0.31242
 C268 C 0.34236 0.37887 0.36377
 C269 C 0.35891 0.42772 0.36401
 H270 H 0.35492 0.34964 0.39434
 H271 H 0.34315 0.48742 0.30248
 H272 H 0.28696 0.42694 0.24315
 N273 N 0.17185 0.61963 -0.05602
 N274 N 0.20023 0.65384 -0.08488
 C275 C 0.17516 0.66454 -0.13820
 C276 C 0.12860 0.63594 -0.14357
 C277 C 0.12820 0.60783 -0.09042
 H278 H 0.09998 0.63473 -0.18129
 H279 H 0.18249 0.60450 -0.01365
 H280 H 0.23652 0.66908 -0.06846
 N281 N 0.68870 1.14307 0.48796
 N282 N 0.72265 1.17219 0.45149
 C283 C 0.69574 1.18153 0.39896
 C284 C 0.64468 1.15937 0.40078
 C285 C 0.64195 1.13547 0.45685
 H286 H 0.61435 1.15865 0.36473
 H287 H 0.69911 1.12876 0.53083
 H288 H 0.76219 1.18308 0.46306
 N289 N 0.18466 0.35090 0.00212
 N290 N 0.21720 0.32442 0.03747
 C291 C 0.20203 0.33083 0.09635
 C292 C 0.15879 0.36337 0.09873
 C293 C 0.14872 0.37506 0.03803
 H294 H 0.13591 0.37492 0.13874
 H295 H 0.18573 0.35068 -0.04578
 H296 H 0.24733 0.30058 0.02119
 N297 N 0.68810 0.94369 0.64319
 N298 N 0.71873 0.91009 0.67007
 C299 C 0.69151 0.86715 0.67008
 C300 C 0.64182 0.87325 0.64121
 C301 C 0.64092 0.92264 0.62487
 H302 H 0.61093 0.84548 0.63352
 H303 H 0.69894 0.98072 0.63910
 H304 H 0.75651 0.91712 0.69040
 N305 N 0.81765 0.04928 0.17739
 N306 N 0.78708 0.08441 0.20120
 C307 C 0.81656 0.12610 0.20308
 C308 C 0.86819 0.11738 0.17963
 C309 C 0.86692 0.06821 0.16275
 H310 H 0.90044 0.14386 0.17174
 H311 H 0.80419 0.01334 0.16955
 H312 H 0.74662 0.07988 0.21524
 N313 N 0.31087 0.56707 0.62446
 N314 N 0.27960 0.59737 0.65615
 C315 C 0.30689 0.63971 0.66552
 C316 C 0.35783 0.63650 0.63822
 C317 C 0.35848 0.58979 0.61194
 H318 H 0.38828 0.66518 0.63411
 H319 H 0.29910 0.53183 0.61060
 H320 H 0.23968 0.58948 0.66984
   
