data_POSCAR
  _audit_creation_date              2014-09-24
  _audit_creation_method            'ToBaCCo'
  _symmetry_space_group_name_H-M    'P1'
  _symmetry_Int_Tables_number       1
  _symmetry_cell_setting            triclinic
  loop_
  _symmetry_equiv_pos_as_xyz
 x,y,z
_cell_length_a 49.6628
_cell_length_b 49.6634
_cell_length_c 40.3862
_cell_angle_alpha 89.965700
_cell_angle_beta 89.965600
_cell_angle_gamma 89.961200
loop_
  _atom_site_label
  _atom_site_type_symbol
  _atom_site_fract_x
  _atom_site_fract_y
  _atom_site_fract_z
O1 O 0.02585 0.30697 -0.03155
 O2 O -0.02704 0.30683 0.03282
 O3 O 0.02571 0.30697 0.03294
 O4 O -0.02688 0.30690 -0.03168
 O5 O -0.02660 0.26237 -0.03151
 O6 O 0.02567 0.26244 0.03277
 O7 O -0.02675 0.26230 0.03264
 O8 O 0.02581 0.26244 -0.03139
 Cu9 Cu -0.00060 0.31144 0.00064
 Cu10 Cu -0.00046 0.25792 0.00063
 C11 C 0.03486 0.28465 -0.04214
 C12 C -0.03593 0.28446 0.04340
 C13 C 0.03467 0.28464 0.04356
 C14 C -0.03573 0.28454 -0.04230
 O15 O 0.47364 0.80657 0.53216
 O16 O 0.52625 0.80646 0.46749
 O17 O 0.47351 0.80652 0.46766
 O18 O 0.52638 0.80644 0.53199
 O19 O 0.52617 0.76191 0.53187
 O20 O 0.47363 0.76199 0.46788
 O21 O 0.52605 0.76193 0.46770
 O22 O 0.47375 0.76204 0.53204
 Cu23 Cu 0.49995 0.81102 0.49982
 Cu24 Cu 0.49989 0.75750 0.49988
 C25 C 0.46471 0.78425 0.54282
 C26 C 0.53514 0.78411 0.45688
 C27 C 0.46454 0.78419 0.45711
 C28 C 0.53531 0.78408 0.54259
 O29 O 1.02738 0.69421 0.03211
 O30 O 0.97458 0.69413 -0.03229
 O31 O 1.02732 0.69419 -0.03239
 O32 O 0.97464 0.69408 0.03221
 O33 O 0.97469 0.73861 0.03203
 O34 O 1.02705 0.73872 -0.03224
 O35 O 0.97462 0.73866 -0.03214
 O36 O 1.02711 0.73873 0.03193
 Cu37 Cu 1.00099 0.68963 -0.00009
 Cu38 Cu 1.00086 0.74314 -0.00011
 C39 C 1.03627 0.71656 0.04271
 C40 C 0.96558 0.71646 -0.04289
 C41 C 1.03618 0.71655 -0.04303
 C42 C 0.96567 0.71640 0.04282
 O43 O 0.52633 0.19249 0.53224
 O44 O 0.47375 0.19246 0.46761
 O45 O 0.52649 0.19259 0.46774
 O46 O 0.47360 0.19246 0.53212
 O47 O 0.47367 0.23699 0.53196
 O48 O 0.52623 0.23712 0.46793
 O49 O 0.47381 0.23699 0.46780
 O50 O 0.52608 0.23702 0.53209
 Cu51 Cu 0.50005 0.18798 0.49993
 Cu52 Cu 0.49993 0.24149 0.49995
 C53 C 0.53519 0.21484 0.54287
 C54 C 0.46480 0.21479 0.45699
 C55 C 0.53539 0.21495 0.45717
 C56 C 0.46460 0.21478 0.54272
 O57 O 0.69311 -0.02607 0.03156
 O58 O 0.69318 0.02682 -0.03282
 O59 O 0.69312 -0.02592 -0.03294
 O60 O 0.69311 0.02666 0.03168
 O61 O 0.73764 0.02645 0.03151
 O62 O 0.73765 -0.02582 -0.03277
 O63 O 0.73771 0.02660 -0.03264
 O64 O 0.73765 -0.02596 0.03139
 Cu65 Cu 0.68861 0.00038 -0.00063
 Cu66 Cu 0.74213 0.00031 -0.00063
 C67 C 0.71545 -0.03505 0.04215
 C68 C 0.71554 0.03575 -0.04340
 C69 C 0.71546 -0.03485 -0.04356
 C70 C 0.71545 0.03554 0.04230
 O71 O 0.19336 0.52633 0.46783
 O72 O 0.19348 0.47372 0.53250
 O73 O 0.19341 0.52646 0.53234
 O74 O 0.19351 0.47360 0.46801
 O75 O 0.23804 0.47382 0.46814
 O76 O 0.23794 0.52637 0.53213
 O77 O 0.23801 0.47395 0.53230
 O78 O 0.23789 0.52625 0.46796
 Cu79 Cu 0.18892 0.50003 0.50018
 Cu80 Cu 0.24243 0.50011 0.50013
 C81 C 0.21568 0.53527 0.45717
 C82 C 0.21584 0.46484 0.54311
 C83 C 0.21573 0.53544 0.54290
 C84 C 0.21588 0.46468 0.45742
 O85 O 0.30579 1.02740 0.03230
 O86 O 0.30591 0.97460 -0.03211
 O87 O 0.30583 1.02734 -0.03220
 O88 O 0.30593 0.97466 0.03239
 O89 O 0.26140 0.97476 0.03224
 O90 O 0.26131 1.02712 -0.03201
 O91 O 0.26138 0.97470 -0.03192
 O92 O 0.26126 1.02718 0.03215
 Cu93 Cu 0.31038 1.00101 0.00009
 Cu94 Cu 0.25687 1.00094 0.00012
 C95 C 0.28343 1.03632 0.04291
 C96 C 0.28358 0.96563 -0.04268
 C97 C 0.28348 1.03623 -0.04282
 C98 C 0.28361 0.96571 0.04302
 O99 O 0.80746 0.52605 0.53239
 O100 O 0.80740 0.47347 0.46776
 O101 O 0.80746 0.52621 0.46789
 O102 O 0.80731 0.47331 0.53226
 O103 O 0.76278 0.47360 0.53207
 O104 O 0.76293 0.52616 0.46804
 O105 O 0.76287 0.47374 0.46792
 O106 O 0.76293 0.52601 0.53220
 Cu107 Cu 0.81193 0.49975 0.50008
 Cu108 Cu 0.75841 0.49989 0.50006
 C109 C 0.78513 0.53501 0.54300
 C110 C 0.78505 0.46463 0.45713
 C111 C 0.78514 0.53521 0.45729
 C112 C 0.78494 0.46442 0.54283
 C113 C 0.24277 0.20815 0.19403
 C114 C 0.21953 0.21963 0.18063
 C115 C 0.20814 0.24283 0.19425
 C116 C 0.22016 0.25511 0.22210
 C117 C 0.24378 0.24363 0.23597
 C118 C 0.25517 0.22003 0.22189
 C119 C 0.27857 0.20900 0.23603
 C120 C 0.29060 0.22092 0.26351
 C121 C 0.27966 0.24430 0.27784
 C122 C 0.25604 0.25577 0.26396
 C123 C 0.20922 0.27849 0.23642
 C124 C 0.22126 0.29041 0.26389
 C125 C 0.24467 0.27938 0.27803
 C126 C 0.25706 0.29127 0.30588
 C127 C 0.28029 0.27978 0.31930
 C128 C 0.29167 0.25657 0.30570
 H129 H 0.28778 0.19103 0.22594
 H130 H 0.30859 0.21163 0.27346
 H131 H 0.19123 0.28777 0.22648
 H132 H 0.21205 0.30839 0.27398
 H133 H 0.21014 0.21035 0.15921
 H134 H 0.28967 0.28906 0.34072
 C135 C 0.74346 0.70843 0.30568
 C136 C 0.72017 0.71976 0.31915
 C137 C 0.70863 0.74291 0.30558
 C138 C 0.72055 0.75530 0.27770
 C139 C 0.74424 0.74398 0.26376
 C140 C 0.75577 0.72043 0.27780
 C141 C 0.77924 0.70957 0.26361
 C142 C 0.79119 0.72159 0.23611
 C143 C 0.78010 0.74492 0.22182
 C144 C 0.75641 0.75623 0.23576
 C145 C 0.70947 0.77862 0.26341
 C146 C 0.72142 0.79065 0.23591
 C147 C 0.74488 0.77978 0.22172
 C148 C 0.75719 0.79178 0.19384
 C149 C 0.78049 0.78046 0.18037
 C150 C 0.79202 0.75731 0.19395
 H151 H 0.78857 0.69163 0.27367
 H152 H 0.80923 0.71243 0.22612
 H153 H 0.69142 0.78779 0.27340
 H154 H 0.71209 0.80858 0.22585
 H155 H 0.71085 0.71039 0.34058
 H156 H 0.78981 0.78982 0.15894
 C157 C 0.79189 0.24317 0.19374
 C158 C 0.78046 0.22000 0.18018
 C159 C 0.75727 0.20854 0.19374
 C160 C 0.74496 0.22041 0.22169
 C161 C 0.75639 0.24398 0.23571
 C162 C 0.77997 0.25544 0.22169
 C163 C 0.79094 0.27880 0.23597
 C164 C 0.77899 0.29070 0.26353
 C165 C 0.75563 0.27968 0.27781
 C166 C 0.74421 0.25611 0.26379
 C167 C 0.72161 0.20939 0.23596
 C168 C 0.70966 0.22129 0.26353
 C169 C 0.72063 0.24464 0.27781
 C170 C 0.70871 0.25691 0.30577
 C171 C 0.72014 0.28009 0.31932
 C172 C 0.74331 0.29156 0.30575
 H173 H 0.80890 0.28807 0.22592
 H174 H 0.78823 0.30866 0.27359
 H175 H 0.71236 0.19143 0.22591
 H176 H 0.69170 0.21202 0.27358
 H177 H 0.78977 0.21071 0.15870
 H178 H 0.71082 0.28937 0.34080
 C179 C 0.20797 0.75734 0.19381
 C180 C 0.21935 0.78061 0.18038
 C181 C 0.24251 0.79205 0.19397
 C182 C 0.25486 0.78005 0.22181
 C183 C 0.24349 0.75639 0.23571
 C184 C 0.21992 0.74496 0.22167
 C185 C 0.20899 0.72152 0.23583
 C186 C 0.22097 0.70950 0.26331
 C187 C 0.24432 0.72049 0.27760
 C188 C 0.25570 0.74414 0.26369
 C189 C 0.27821 0.79104 0.23610
 C190 C 0.29020 0.77901 0.26356
 C191 C 0.27927 0.75557 0.27772
 C192 C 0.29124 0.74318 0.30557
 C193 C 0.27984 0.71993 0.31902
 C194 C 0.25666 0.70850 0.30545
 H195 H 0.19104 0.71227 0.22576
 H196 H 0.21176 0.69148 0.27328
 H197 H 0.28742 0.80906 0.22613
 H198 H 0.30815 0.78826 0.27362
 H199 H 0.21002 0.78999 0.15897
 H200 H 0.28918 0.71055 0.34043
 C201 C 0.70827 0.25651 0.69425
 C202 C 0.71974 0.27969 0.68068
 C203 C 0.74292 0.29112 0.69423
 C204 C 0.75519 0.27920 0.72218
 C205 C 0.74373 0.25562 0.73621
 C206 C 0.72015 0.24420 0.72219
 C207 C 0.70914 0.22084 0.73647
 C208 C 0.72105 0.20888 0.76403
 C209 C 0.74440 0.21986 0.77831
 C210 C 0.75585 0.24345 0.76429
 C211 C 0.77854 0.29017 0.73646
 C212 C 0.79044 0.27823 0.76403
 C213 C 0.77942 0.25487 0.77831
 C214 C 0.79130 0.24257 0.80626
 C215 C 0.77985 0.21938 0.81982
 C216 C 0.75667 0.20794 0.80626
 H217 H 0.69118 0.21159 0.72642
 H218 H 0.71178 0.19092 0.77408
 H219 H 0.78781 0.30813 0.72641
 H220 H 0.80839 0.28748 0.77409
 H221 H 0.71045 0.28900 0.65920
 H222 H 0.78913 0.21007 0.84130
 C223 C 0.29140 0.74328 0.69445
 C224 C 0.27996 0.72007 0.68097
 C225 C 0.25673 0.70869 0.69450
 C226 C 0.24439 0.72068 0.72236
 C227 C 0.25582 0.74429 0.73630
 C228 C 0.27944 0.75567 0.72229
 C229 C 0.29043 0.77906 0.73647
 C230 C 0.27844 0.79109 0.76393
 C231 C 0.25504 0.78016 0.77820
 C232 C 0.24362 0.75654 0.76428
 C233 C 0.22100 0.70975 0.73663
 C234 C 0.20902 0.72177 0.76411
 C235 C 0.22000 0.74516 0.77829
 C236 C 0.20805 0.75754 0.80615
 C237 C 0.21948 0.78077 0.81960
 C238 C 0.24269 0.79216 0.80605
 H239 H 0.30842 0.78827 0.72642
 H240 H 0.28769 0.80907 0.77391
 H241 H 0.21175 0.69177 0.72665
 H242 H 0.19103 0.71256 0.77416
 H243 H 0.28931 0.71070 0.65956
 H244 H 0.21014 0.79013 0.84101
 C245 C 0.24271 0.20825 0.80645
 C246 C 0.21955 0.21980 0.81998
 C247 C 0.20821 0.24305 0.80643
 C248 C 0.22020 0.25531 0.77851
 C249 C 0.24375 0.24376 0.76451
 C250 C 0.25508 0.22011 0.77853
 C251 C 0.27841 0.20900 0.76426
 C252 C 0.29042 0.22089 0.73672
 C253 C 0.27954 0.24432 0.72245
 C254 C 0.25599 0.25588 0.73646
 C255 C 0.20932 0.27874 0.76424
 C256 C 0.22134 0.29064 0.73671
 C257 C 0.24467 0.27953 0.72245
 C258 C 0.25704 0.29140 0.69454
 C259 C 0.28019 0.27984 0.68099
 C260 C 0.29152 0.25657 0.69452
 H261 H 0.28759 0.19099 0.77431
 H262 H 0.30835 0.21155 0.72668
 H263 H 0.19138 0.28808 0.77428
 H264 H 0.21216 0.30866 0.72667
 H265 H 0.21019 0.21052 0.84145
 H266 H 0.28955 0.28911 0.65952
 C267 C 0.74348 0.70831 0.69409
 C268 C 0.72024 0.71968 0.68055
 C269 C 0.70877 0.74291 0.69399
 C270 C 0.72072 0.75531 0.72181
 C271 C 0.74436 0.74395 0.73581
 C272 C 0.75581 0.72033 0.72190
 C273 C 0.77923 0.70940 0.73615
 C274 C 0.79120 0.72145 0.76358
 C275 C 0.78019 0.74485 0.77774
 C276 C 0.75655 0.75622 0.76375
 C277 C 0.70971 0.77872 0.73597
 C278 C 0.72168 0.79076 0.76340
 C279 C 0.74510 0.77984 0.77765
 C280 C 0.75743 0.79186 0.80546
 C281 C 0.78067 0.78049 0.81900
 C282 C 0.79214 0.75726 0.80556
 H283 H 0.78850 0.69141 0.72618
 H284 H 0.80921 0.71225 0.77361
 H285 H 0.69171 0.78792 0.72594
 H286 H 0.71241 0.80875 0.77337
 H287 H 0.71092 0.71028 0.65917
 H288 H 0.78999 0.78988 0.84038
 C289 C 0.27848 0.09719 0.10723
 N290 N 0.26277 0.09489 0.13458
 N291 N 0.25777 0.11631 0.15349
 C292 C 0.26832 0.14067 0.14564
 N293 N 0.28413 0.14294 0.11839
 N294 N 0.28913 0.12153 0.09947
 C295 C 0.28154 0.07483 0.08504
 C296 C 0.28298 0.05648 0.06558
 C297 C 0.26064 0.16422 0.16395
 C298 C 0.25310 0.18415 0.17825
 C299 C 0.77997 0.59705 0.60845
 N300 N 0.76400 0.59487 0.63558
 N301 N 0.75882 0.61636 0.65428
 C302 C 0.76945 0.64069 0.64642
 N303 N 0.78552 0.64285 0.61939
 N304 N 0.79070 0.62136 0.60069
 C305 C 0.78317 0.57465 0.58640
 C306 C 0.78469 0.55627 0.56701
 C307 C 0.76158 0.66430 0.66444
 C308 C 0.75390 0.68427 0.67852
 C309 C 0.72064 0.90278 0.10756
 N310 N 0.71026 0.87838 0.09962
 N311 N 0.71543 0.85692 0.11842
 C312 C 0.73115 0.85922 0.14572
 N313 N 0.74143 0.88365 0.15374
 N314 N 0.73626 0.90510 0.13495
 C315 C 0.71743 0.92520 0.08547
 C316 C 0.71590 0.94362 0.06610
 C317 C 0.73902 0.83567 0.16391
 C318 C 0.74671 0.81575 0.17812
 C319 C 0.22107 0.40275 0.60860
 N320 N 0.21018 0.37850 0.60097
 N321 N 0.21530 0.35700 0.61971
 C322 C 0.23146 0.35910 0.64664
 N323 N 0.24225 0.38338 0.65436
 N324 N 0.23713 0.40488 0.63562
 C325 C 0.21789 0.42517 0.58652
 C326 C 0.21634 0.44357 0.56713
 C327 C 0.23921 0.33547 0.66473
 C328 C 0.24677 0.31547 0.67888
 C329 C 0.90303 0.27937 0.10753
 N330 N 0.90529 0.26364 0.13485
 N331 N 0.88381 0.25853 0.15365
 C332 C 0.85943 0.26900 0.14569
 N333 N 0.85720 0.28483 0.11845
 N334 N 0.87867 0.28994 0.09966
 C335 C 0.92545 0.28251 0.08543
 C336 C 0.94385 0.28399 0.06603
 C337 C 0.83585 0.26120 0.16385
 C338 C 0.81590 0.25358 0.17805
 C339 C 0.40266 0.77924 0.60838
 N340 N 0.40483 0.76329 0.63553
 N341 N 0.38335 0.75822 0.65430
 C342 C 0.35903 0.76893 0.64651
 N343 N 0.35689 0.78497 0.61945
 N344 N 0.37837 0.79005 0.60068
 C345 C 0.42506 0.78236 0.58627
 C346 C 0.44344 0.78384 0.56686
 C347 C 0.33543 0.76118 0.66462
 C348 C 0.31544 0.75360 0.67879
 C349 C 0.09711 0.72150 0.10705
 N350 N 0.12149 0.71090 0.09928
 N351 N 0.14289 0.71591 0.11820
 C352 C 0.14057 0.73167 0.14547
 N353 N 0.11617 0.74216 0.15333
 N354 N 0.09477 0.73715 0.13441
 C355 C 0.07477 0.71844 0.08485
 C356 C 0.05642 0.71700 0.06539
 C357 C 0.16409 0.73938 0.16377
 C358 C 0.18400 0.74696 0.17806
 C359 C 0.59720 0.22008 0.60834
 N360 N 0.62154 0.20941 0.60059
 N361 N 0.64300 0.21460 0.61932
 C362 C 0.64077 0.23062 0.64637
 N363 N 0.61640 0.24119 0.65421
 N364 N 0.59494 0.23600 0.63548
 C365 C 0.57481 0.21686 0.58627
 C366 C 0.55644 0.21531 0.56688
 C367 C 0.66434 0.23848 0.66444
 C368 C 0.68428 0.24613 0.67859
 C369 C 0.72055 0.09679 0.89247
 N370 N 0.73626 0.09453 0.86513
 N371 N 0.74134 0.11601 0.84633
 C372 C 0.73088 0.14039 0.85431
 N373 N 0.71507 0.14262 0.88156
 N374 N 0.70998 0.12114 0.90036
 C375 C 0.71744 0.07436 0.91457
 C376 C 0.71598 0.05596 0.93397
 C377 C 0.73866 0.16397 0.83614
 C378 C 0.74628 0.18393 0.82194
 C379 C 0.22066 0.59727 0.39152
 N380 N 0.23665 0.59509 0.36441
 N381 N 0.24172 0.61655 0.34561
 C382 C 0.23096 0.64086 0.35334
 N383 N 0.21487 0.64302 0.38035
 N384 N 0.20980 0.62155 0.39916
 C385 C 0.21755 0.57488 0.41367
 C386 C 0.21608 0.55652 0.43311
 C387 C 0.23872 0.66446 0.33521
 C388 C 0.24631 0.68445 0.32106
 C389 C 0.27858 0.90344 0.89199
 N390 N 0.28928 0.87912 0.89983
 N391 N 0.28424 0.85763 0.88108
 C392 C 0.26834 0.85980 0.85391
 N393 N 0.25774 0.88414 0.84599
 N394 N 0.26278 0.90563 0.86474
 C395 C 0.28169 0.92587 0.91404
 C396 C 0.28317 0.94429 0.93338
 C397 C 0.26062 0.83619 0.83580
 C398 C 0.25305 0.81621 0.82165
 C399 C 0.77977 0.40262 0.39166
 N400 N 0.79045 0.37827 0.39940
 N401 N 0.78525 0.35682 0.38067
 C402 C 0.76921 0.35905 0.35364
 N403 N 0.75864 0.38342 0.34581
 N404 N 0.76384 0.40488 0.36454
 C405 C 0.78301 0.42501 0.41373
 C406 C 0.78457 0.44337 0.43312
 C407 C 0.76135 0.33548 0.33556
 C408 C 0.75369 0.31555 0.32142
 C409 C 0.09708 0.27954 0.89251
 N410 N 0.09480 0.26392 0.86512
 N411 N 0.11628 0.25877 0.84636
 C412 C 0.14070 0.26908 0.85441
 N413 N 0.14295 0.28480 0.88171
 N414 N 0.12147 0.28996 0.90047
 C415 C 0.07464 0.28272 0.91457
 C416 C 0.05621 0.28424 0.93392
 C417 C 0.16427 0.26122 0.83627
 C418 C 0.18422 0.25353 0.82209
 C419 C 0.59723 0.77889 0.39139
 N420 N 0.59512 0.76279 0.36441
 N421 N 0.61663 0.75767 0.34568
 C422 C 0.64089 0.76851 0.35336
 N423 N 0.64297 0.78472 0.38025
 N424 N 0.62146 0.78983 0.39898
 C425 C 0.57480 0.78208 0.41347
 C426 C 0.55641 0.78362 0.43286
 C427 C 0.66453 0.76076 0.33530
 C428 C 0.68454 0.75319 0.32119
 C429 C 0.90341 0.72149 0.89175
 N430 N 0.87911 0.71077 0.89957
 N431 N 0.85763 0.71581 0.88078
 C432 C 0.85978 0.73172 0.85361
 N433 N 0.88411 0.74234 0.84570
 N434 N 0.90559 0.73730 0.86448
 C435 C 0.92584 0.71838 0.91382
 C436 C 0.94425 0.71689 0.93317
 C437 C 0.83617 0.73942 0.83544
 C438 C 0.81619 0.74696 0.82124
 C439 C 0.40282 0.21998 0.39146
 N440 N 0.37850 0.20927 0.39918
 N441 N 0.35703 0.21446 0.38044
 C442 C 0.35923 0.23052 0.35341
 N443 N 0.38358 0.24113 0.34559
 N444 N 0.40504 0.23594 0.36433
 C445 C 0.42520 0.21677 0.41355
 C446 C 0.44356 0.21524 0.43297
 C447 C 0.33565 0.23842 0.33536
 C448 C 0.31568 0.24611 0.32126
 C449 C 0.72074 0.90309 0.89103
 N450 N 0.71005 0.87877 0.89880
 N451 N 0.71529 0.85728 0.88012
 C452 C 0.73138 0.85945 0.85311
 N453 N 0.74196 0.88380 0.84524
 N454 N 0.73673 0.90529 0.86392
 C455 C 0.71749 0.92550 0.91307
 C456 C 0.71593 0.94388 0.93244
 C457 C 0.73929 0.83585 0.83511
 C458 C 0.74699 0.81588 0.82104
 C459 C 0.22112 0.40246 0.39214
 N460 N 0.21049 0.37813 0.39999
 N461 N 0.21558 0.35666 0.38122
 C462 C 0.23145 0.35885 0.35402
 N463 N 0.24199 0.38320 0.34608
 N464 N 0.23690 0.40468 0.36485
 C465 C 0.21793 0.42490 0.41418
 C466 C 0.21638 0.44333 0.43351
 C467 C 0.23919 0.33526 0.33584
 C468 C 0.24675 0.31530 0.32162
 C469 C 0.27853 0.09708 0.89280
 N470 N 0.26262 0.09488 0.86565
 N471 N 0.25757 0.11634 0.84681
 C472 C 0.26829 0.14064 0.85454
 N473 N 0.28430 0.14282 0.88159
 N474 N 0.28935 0.12136 0.90044
 C475 C 0.28160 0.07471 0.91498
 C476 C 0.28304 0.05636 0.93446
 C477 C 0.26056 0.16423 0.83636
 C478 C 0.25301 0.18421 0.82215
 C479 C 0.78000 0.59740 0.39191
 N480 N 0.76441 0.59509 0.36450
 N481 N 0.75924 0.61655 0.34571
 C482 C 0.76950 0.64098 0.35377
 N483 N 0.78520 0.64327 0.38109
 N484 N 0.79037 0.62181 0.39987
 C485 C 0.78320 0.57497 0.41399
 C486 C 0.78472 0.55655 0.43335
 C487 C 0.76163 0.66454 0.33560
 C488 C 0.75394 0.68447 0.32139
 C489 C 0.09700 0.72154 0.89256
 N490 N 0.12132 0.71078 0.90023
 N491 N 0.14276 0.71585 0.88137
 C492 C 0.14053 0.73184 0.85427
 N493 N 0.11619 0.74249 0.84651
 N494 N 0.09475 0.73742 0.86537
 C495 C 0.07465 0.71844 0.91476
 C496 C 0.05631 0.71700 0.93424
 C497 C 0.16410 0.73960 0.83607
 C498 C 0.18404 0.74720 0.82185
 C499 C 0.59761 0.22035 0.39187
 N500 N 0.62200 0.20985 0.39975
 N501 N 0.64348 0.21507 0.38100
 C502 C 0.64122 0.23094 0.35380
 N503 N 0.61680 0.24133 0.34583
 N504 N 0.59533 0.23612 0.36458
 C505 C 0.57518 0.21708 0.41391
 C506 C 0.55674 0.21548 0.43325
 C507 C 0.66478 0.23881 0.33566
 C508 C 0.68472 0.24648 0.32147
 C509 C 0.90228 0.27920 0.89222
 N510 N 0.90458 0.26329 0.86508
 N511 N 0.88313 0.25805 0.84635
 C512 C 0.85874 0.26856 0.85419
 N513 N 0.85647 0.28457 0.88123
 N514 N 0.87791 0.28981 0.89997
 C515 C 0.92466 0.28247 0.91429
 C516 C 0.94302 0.28405 0.93369
 C517 C 0.83519 0.26065 0.83610
 C518 C 0.81527 0.25297 0.82195
 C519 C 0.40235 0.77913 0.39179
 N520 N 0.40461 0.76344 0.36444
 N521 N 0.38314 0.75838 0.34566
 C522 C 0.35876 0.76885 0.35365
 N523 N 0.35653 0.78464 0.38091
 N524 N 0.37799 0.78970 0.39969
 C525 C 0.42478 0.78226 0.41384
 C526 C 0.44320 0.78376 0.43319
 C527 C 0.33518 0.76112 0.33547
 C528 C 0.31524 0.75354 0.32126
 C529 C 0.27855 0.90354 0.10840
 N530 N 0.28942 0.87928 0.10065
 N531 N 0.28431 0.85775 0.11933
 C532 C 0.26819 0.85982 0.14633
 N533 N 0.25744 0.88410 0.15417
 N534 N 0.26254 0.90563 0.13549
 C535 C 0.28169 0.92599 0.08637
 C536 C 0.28319 0.94441 0.06700
 C537 C 0.26043 0.83616 0.16434
 C538 C 0.25284 0.81614 0.17841
 C539 C 0.77951 0.40220 0.60813
 N540 N 0.79001 0.37781 0.60026
 N541 N 0.78478 0.35634 0.61900
 C542 C 0.76890 0.35860 0.64619
 N543 N 0.75851 0.38302 0.65415
 N544 N 0.76373 0.40449 0.63541
 C545 C 0.78280 0.42464 0.58609
 C546 C 0.78441 0.44307 0.56676
 C547 C 0.76102 0.33504 0.66433
 C548 C 0.75335 0.31510 0.67852
 C549 C 0.72072 0.09753 0.10779
 N550 N 0.73661 0.09524 0.13495
 N551 N 0.74182 0.11670 0.15368
 C552 C 0.73132 0.14109 0.14582
 N553 N 0.71532 0.14335 0.11875
 N554 N 0.71010 0.12190 0.10002
 C555 C 0.71747 0.07515 0.08571
 C556 C 0.71592 0.05679 0.06632
 C557 C 0.73921 0.16464 0.16391
 C558 C 0.74688 0.18456 0.17806
 C559 C 0.22076 0.59758 0.60830
 N560 N 0.23649 0.59532 0.63561
 N561 N 0.24154 0.61677 0.65441
 C562 C 0.23102 0.64115 0.64649
 N563 N 0.21519 0.64338 0.61927
 N564 N 0.21013 0.62193 0.60047
 C565 C 0.21764 0.57517 0.58621
 C566 C 0.21615 0.55677 0.56684
 C567 C 0.23876 0.66472 0.66467
 C568 C 0.24635 0.68467 0.67886
 C569 C 0.90351 0.72143 0.10823
 N570 N 0.87927 0.71054 0.10053
 N571 N 0.85775 0.71563 0.11924
 C572 C 0.85980 0.73175 0.14621
 N573 N 0.88407 0.74253 0.15400
 N574 N 0.90560 0.73744 0.13530
 C575 C 0.92596 0.71830 0.08618
 C576 C 0.94437 0.71681 0.06681
 C577 C 0.83615 0.73948 0.16425
 C578 C 0.81612 0.74703 0.17835
 C579 C 0.40247 0.21994 0.60818
 N580 N 0.37804 0.20959 0.60025
 N581 N 0.35660 0.21477 0.61907
 C582 C 0.35893 0.23046 0.64639
 N583 N 0.38337 0.24071 0.65441
 N584 N 0.40482 0.23553 0.63559
 C585 C 0.42487 0.21674 0.58607
 C586 C 0.44328 0.21521 0.56668
 C587 C 0.33539 0.23835 0.66459
 C588 C 0.31548 0.24606 0.67882
 C589 C 0.09678 0.27945 0.10890
 N590 N 0.09463 0.26346 0.13601
 N591 N 0.11615 0.25825 0.15465
 C592 C 0.14047 0.26886 0.14675
 N593 N 0.14260 0.28495 0.11973
 N594 N 0.12108 0.29017 0.10109
 C595 C 0.07435 0.28267 0.08690
 C596 C 0.05595 0.28421 0.06754
 C597 C 0.16410 0.26096 0.16470
 C598 C 0.18410 0.25327 0.17873
 C599 C 0.59752 0.77886 0.60787
 N600 N 0.59533 0.76303 0.63512
 N601 N 0.61681 0.75794 0.65388
 C602 C 0.64115 0.76852 0.64596
 N603 N 0.64332 0.78445 0.61880
 N604 N 0.62184 0.78954 0.60004
 C605 C 0.57508 0.78204 0.58583
 C606 C 0.55665 0.78359 0.56650
 C607 C 0.66475 0.76079 0.66411
 C608 C 0.68473 0.75322 0.67831
   
