data_POSCAR
  _audit_creation_date              2014-09-24
  _audit_creation_method            'ToBaCCo'
  _symmetry_space_group_name_H-M    'P1'
  _symmetry_Int_Tables_number       1
  _symmetry_cell_setting            triclinic
  loop_
  _symmetry_equiv_pos_as_xyz
 x,y,z
_cell_length_a 25.7222
_cell_length_b 24.8980
_cell_length_c 46.4104
_cell_angle_alpha 85.300500
_cell_angle_beta 95.517800
_cell_angle_gamma 82.132800
loop_
  _atom_site_label
  _atom_site_type_symbol
  _atom_site_fract_x
  _atom_site_fract_y
  _atom_site_fract_z
C1 C -0.00688 0.38769 1.02555
 C2 C -0.00602 0.36682 0.99823
 C3 C 0.00271 0.39785 0.97333
 C4 C 0.01005 0.45257 0.97474
 C5 C 0.01112 0.47514 1.00182
 C6 C 0.00519 0.44203 1.02759
 C7 C 0.01618 0.46313 1.05438
 C8 C 0.02624 0.51629 1.05585
 C9 C 0.02613 0.55173 1.03066
 C10 C 0.02108 0.53008 1.00328
 C11 C 0.01985 0.48403 0.94996
 C12 C 0.02958 0.53713 0.95138
 C13 C 0.02843 0.56218 0.97749
 C14 C 0.03931 0.61651 0.97910
 C15 C 0.04600 0.63582 1.00660
 C16 C 0.03667 0.60618 1.03221
 H17 H 0.02118 0.43844 1.07485
 H18 H 0.03741 0.52775 1.07725
 H19 H 0.02165 0.46738 0.92920
 H20 H 0.04085 0.55671 0.93184
 H21 H -0.01285 0.32536 0.99571
 H22 H 0.05342 0.67745 1.00769
 C23 C 0.39570 -0.01392 0.53164
 C24 C 0.36188 -0.01695 0.50665
 C25 C 0.38011 -0.01887 0.47927
 C26 C 0.43472 -0.01897 0.47687
 C27 C 0.46971 -0.01527 0.50211
 C28 C 0.45004 -0.01306 0.52957
 C29 C 0.48559 -0.01342 0.55444
 C30 C 0.53928 -0.01433 0.55249
 C31 C 0.56007 -0.01301 0.52542
 C32 C 0.52475 -0.01585 0.50005
 C33 C 0.45577 -0.02550 0.45035
 C34 C 0.50940 -0.02663 0.44833
 C35 C 0.54444 -0.02144 0.47275
 C36 C 0.59907 -0.02466 0.47083
 C37 C 0.63316 -0.02101 0.49558
 C38 C 0.61520 -0.01293 0.52287
 H39 H 0.47247 -0.01481 0.57592
 H40 H 0.56380 -0.01909 0.57291
 H41 H 0.43153 -0.03164 0.43093
 H42 H 0.52320 -0.03292 0.42740
 H43 H 0.32016 -0.01693 0.50857
 H44 H 0.67465 -0.02209 0.49279
 C45 C 0.05553 -0.00864 0.27210
 H46 H 0.05978 0.00051 0.24940
 C47 C 0.09833 -0.00726 0.29292
 H48 H 0.13539 0.00178 0.28589
 C49 C 0.00200 -0.02931 0.30901
 H50 H -0.03566 -0.03656 0.31556
 C51 C 0.04381 -0.02915 0.33043
 H52 H 0.03753 -0.03694 0.35305
 N53 N 0.00860 -0.02042 0.28034
 C54 C -0.06241 -0.12303 0.22625
 H55 H -0.09624 -0.12370 0.23825
 C56 C -0.05113 -0.16330 0.20753
 H57 H -0.07606 -0.19483 0.20582
 C58 C 0.00882 -0.07960 0.21233
 H59 H 0.03095 -0.04591 0.21337
 C60 C 0.02135 -0.11878 0.19331
 H61 H 0.05388 -0.11508 0.18046
 Zn62 Zn -0.04924 -0.02391 0.25169
 N63 N -0.03229 -0.08232 0.22849
 C64 C -0.08853 0.03829 0.19973
 N65 N -0.06221 0.04091 0.22629
 C66 C -0.04195 0.08653 0.23310
 C67 C -0.04580 0.13113 0.21222
 C68 C -0.09270 0.08153 0.17816
 C69 C -0.10977 -0.07977 0.28818
 C70 C -0.15010 -0.08487 0.30580
 C71 C -0.19223 0.00506 0.28608
 C72 C -0.15098 0.00842 0.26875
 N73 N -0.11016 -0.03314 0.27065
 H74 H -0.10429 0.00153 0.19492
 H75 H -0.02139 0.08772 0.25443
 H76 H -0.02781 0.16636 0.21766
 H77 H -0.11212 0.07776 0.15681
 H78 H -0.07657 -0.11199 0.28960
 H79 H -0.14772 -0.12161 0.32036
 H80 H -0.22325 0.03946 0.28510
 H81 H -0.15041 0.04524 0.25479
 C82 C -0.00898 -0.16123 0.19055
 C83 C 0.09290 -0.01844 0.32252
 C84 C -0.19133 -0.04149 0.30553
 C85 C -0.07008 0.12823 0.18406
 C86 C -0.01588 0.13772 0.76764
 H87 H -0.05134 0.13196 0.75459
 C88 C -0.01813 0.17860 0.78665
 H89 H -0.05553 0.20363 0.78802
 C90 C 0.07532 0.11131 0.78250
 H91 H 0.11180 0.08515 0.78076
 C92 C 0.07485 0.15139 0.80178
 H93 H 0.11113 0.15515 0.81486
 N94 N 0.03007 0.10391 0.76660
 C95 C 0.11400 -0.01860 0.72105
 H96 H 0.09574 -0.05289 0.72876
 C97 C 0.15574 -0.02671 0.70405
 H98 H 0.16960 -0.06761 0.69908
 C99 C 0.11603 0.07659 0.71708
 H100 H 0.09923 0.11689 0.72155
 C101 C 0.15813 0.07030 0.70011
 H102 H 0.17366 0.10607 0.69182
 Zn103 Zn 0.03270 0.04084 0.74594
 N104 N 0.09471 0.03244 0.72694
 C105 C -0.01702 0.04447 0.68915
 N106 N -0.02663 0.04544 0.71743
 C107 C -0.07663 0.04698 0.72502
 C108 C -0.11904 0.04620 0.70383
 C109 C -0.05801 0.04334 0.66739
 C110 C 0.07493 -0.02901 0.79551
 C111 C 0.07775 -0.07173 0.81723
 C112 C 0.00076 -0.09963 0.79213
 C113 C -0.00076 -0.05600 0.77090
 N114 N 0.03542 -0.02104 0.77326
 H115 H 0.02272 0.04354 0.68335
 H116 H -0.08341 0.04713 0.74766
 H117 H -0.15832 0.04616 0.71038
 H118 H -0.04898 0.04166 0.64515
 H119 H 0.10428 -0.00201 0.79661
 H120 H 0.10917 -0.07655 0.83493
 H121 H -0.02893 -0.12641 0.79012
 H122 H -0.03101 -0.05019 0.75267
 C123 C 0.17782 0.01817 0.69292
 C124 C 0.02736 0.18465 0.80471
 C125 C 0.03994 -0.10735 0.81595
 C126 C -0.10977 0.04344 0.67461
 C127 C 0.02544 -0.30534 0.10369
 N128 N -0.00028 -0.34915 0.10139
 N129 N 0.00443 -0.37876 0.07884
 C130 C 0.03506 -0.36595 0.05768
 N131 N 0.06048 -0.32181 0.06020
 N132 N 0.05605 -0.29239 0.08273
 C133 C 0.01841 -0.27038 0.12744
 N134 N 0.04608 -0.22802 0.12971
 N135 N 0.03799 -0.19412 0.15009
 C136 C 0.00176 -0.20103 0.16900
 N137 N -0.02566 -0.24378 0.16685
 N138 N -0.01747 -0.27786 0.14648
 C139 C -0.04579 0.28447 0.09262
 N140 N -0.03610 0.26632 0.06668
 N141 N -0.02366 0.29976 0.04542
 C142 C -0.02023 0.35298 0.04893
 N143 N -0.03171 0.37117 0.07478
 N144 N -0.04361 0.33764 0.09630
 C145 C -0.05629 0.24615 0.11640
 N146 N -0.05139 0.25823 0.14446
 N147 N -0.05693 0.22130 0.16602
 C148 C -0.06803 0.17113 0.16031
 N149 N -0.07370 0.15960 0.13219
 N150 N -0.06774 0.19625 0.11069
 C151 C 0.31873 -0.00588 0.60690
 N152 N 0.31884 -0.04975 0.59137
 N153 N 0.34475 -0.05290 0.56795
 C154 C 0.37205 -0.01260 0.55935
 N155 N 0.37240 0.03115 0.57499
 N156 N 0.34614 0.03448 0.59836
 C157 C 0.28609 -0.00072 0.63108
 N158 N 0.27675 0.04711 0.64310
 N159 N 0.24338 0.05282 0.66329
 C160 C 0.21822 0.01089 0.67229
 N161 N 0.22836 -0.03713 0.66053
 N162 N 0.26149 -0.04278 0.64029
 C163 C -0.27149 0.01563 0.58757
 N164 N -0.25755 -0.00683 0.56333
 N165 N -0.29419 -0.01622 0.54288
 C166 C -0.34659 -0.00388 0.54564
 N167 N -0.36018 0.01974 0.56980
 N168 N -0.32355 0.02892 0.59045
 C169 C -0.23037 0.02478 0.61012
 N170 N -0.24245 0.03974 0.63646
 N171 N -0.20433 0.04619 0.65696
 C172 C -0.15279 0.03823 0.65181
 N173 N -0.14106 0.02364 0.62537
 N174 N -0.17901 0.01694 0.60498
 C175 C 0.04144 -0.27062 0.90866
 N176 N 0.06939 -0.26701 0.93453
 N177 N 0.06899 -0.30375 0.95698
 C178 C 0.04126 -0.34625 0.95450
 N179 N 0.01272 -0.34915 0.92857
 N180 N 0.01288 -0.31226 0.90608
 C181 C 0.04159 -0.22937 0.88419
 N182 N 0.00944 -0.22864 0.85914
 N183 N 0.00907 -0.19018 0.83733
 C184 C 0.04100 -0.15116 0.83971
 N185 N 0.07327 -0.15228 0.86477
 N186 N 0.07351 -0.19053 0.88658
 C187 C 0.01484 0.31612 0.89843
 N188 N -0.02712 0.35499 0.89995
 N189 N -0.03089 0.38167 0.92362
 C190 C 0.00706 0.37013 0.94659
 N191 N 0.04879 0.33117 0.94510
 N192 N 0.05270 0.30481 0.92142
 C193 C 0.01874 0.28503 0.87297
 N194 N 0.06313 0.24989 0.87093
 N195 N 0.06619 0.21925 0.84881
 C196 C 0.02496 0.22230 0.82784
 N197 N -0.01937 0.25790 0.82977
 N198 N -0.02237 0.28881 0.85188
 C199 C -0.32550 -0.03968 0.39526
 N200 N -0.31277 -0.07761 0.41849
 N201 N -0.33786 -0.07349 0.44216
 C202 C -0.37700 -0.03155 0.44342
 N203 N -0.38997 0.00636 0.42015
 N204 N -0.36466 0.00235 0.39648
 C205 C -0.29443 -0.04220 0.37033
 N206 N -0.30094 -0.00042 0.34897
 N207 N -0.26933 -0.00088 0.32782
 C208 C -0.23009 -0.04318 0.32716
 N209 N -0.22437 -0.08531 0.34830
 N210 N -0.25583 -0.08481 0.36946
 C211 C 0.26231 -0.02147 0.41042
 N212 N 0.26317 -0.05251 0.43592
 N213 N 0.30132 -0.05239 0.45740
 C214 C 0.34024 -0.02132 0.45426
 N215 N 0.33904 0.01026 0.42881
 N216 N 0.30099 0.00990 0.40720
 C217 C 0.21910 -0.02093 0.38725
 N218 N 0.22038 0.00420 0.36028
 N219 N 0.18051 0.00481 0.33957
 C220 C 0.13772 -0.01930 0.34516
 N221 N 0.13666 -0.04435 0.37216
 N222 N 0.17657 -0.04527 0.39276
   
