data_POSCAR
  _audit_creation_date              2014-09-24
  _audit_creation_method            'ToBaCCo'
  _symmetry_space_group_name_H-M    'P1'
  _symmetry_Int_Tables_number       1
  _symmetry_cell_setting            triclinic
  loop_
  _symmetry_equiv_pos_as_xyz
 x,y,z
_cell_length_a 70.4445
_cell_length_b 70.3771
_cell_length_c 28.8729
_cell_angle_alpha 90.015800
_cell_angle_beta 89.945200
_cell_angle_gamma 119.973100
loop_
  _atom_site_label
  _atom_site_type_symbol
  _atom_site_fract_x
  _atom_site_fract_y
  _atom_site_fract_z
C1 C 0.18628 0.47581 0.50154
 C2 C 0.19407 0.47224 0.45985
 C3 C 0.21373 0.47180 0.45901
 C4 C 0.22650 0.47606 0.49957
 C5 C 0.21853 0.48019 0.54115
 C6 C 0.19832 0.47951 0.54226
 C7 C 0.24795 0.47630 0.49850
 C8 C 0.25675 0.47248 0.53915
 C9 C 0.27704 0.47333 0.53824
 C10 C 0.28832 0.47689 0.49649
 C11 C 0.27971 0.48016 0.45575
 C12 C 0.25997 0.48042 0.45683
 H13 H 0.17083 0.47575 0.50229
 H14 H 0.21882 0.46801 0.42660
 H15 H 0.22794 0.48411 0.57283
 H16 H 0.24802 0.46872 0.57172
 H17 H 0.30385 0.47715 0.49572
 H18 H 0.25430 0.48401 0.42500
 C19 C 0.52420 -0.28967 0.49784
 C20 C 0.52052 -0.28126 0.45718
 C21 C 0.51991 -0.26166 0.45839
 C22 C 0.52409 -0.24959 0.50001
 C23 C 0.52833 -0.25817 0.54050
 C24 C 0.52782 -0.27833 0.53956
 C25 C 0.52399 -0.22829 0.50120
 C26 C 0.51996 -0.22035 0.54293
 C27 C 0.52036 -0.20026 0.54407
 C28 C 0.52369 -0.18833 0.50333
 C29 C 0.52717 -0.19609 0.46156
 C30 C 0.52788 -0.21561 0.46059
 H31 H 0.52421 -0.30510 0.49703
 H32 H 0.51601 -0.25612 0.42676
 H33 H 0.53215 -0.24932 0.57293
 H34 H 0.51634 -0.22962 0.57475
 H35 H 0.52354 -0.17299 0.50413
 H36 H 0.53157 -0.22062 0.42799
 C37 C 1.28953 0.81257 0.50239
 C38 C 1.27827 0.80499 0.46059
 C39 C 1.25804 0.78545 0.45953
 C40 C 1.24933 0.77262 0.50000
 C41 C 1.26133 0.78038 0.54167
 C42 C 1.28098 0.80046 0.54295
 C43 C 1.22798 0.75132 0.49874
 C44 C 1.21516 0.74264 0.53923
 C45 C 1.19557 0.72246 0.53817
 C46 C 1.18792 0.71122 0.49633
 C47 C 1.20003 0.71974 0.45576
 C48 C 1.22015 0.73934 0.45704
 H49 H 1.30501 0.82791 0.50345
 H50 H 1.24925 0.78050 0.42705
 H51 H 1.25571 0.77097 0.57333
 H52 H 1.22016 0.75142 0.57174
 H53 H 1.17254 0.69578 0.49527
 H54 H 1.22954 0.74493 0.42536
 C55 C 0.81202 0.52351 0.50371
 C56 C 0.80421 0.52694 0.46198
 C57 C 0.78469 0.52763 0.46114
 C58 C 0.77207 0.52377 0.50185
 C59 C 0.78006 0.51979 0.54351
 C60 C 0.80013 0.52020 0.54451
 C61 C 0.75076 0.52382 0.50083
 C62 C 0.74218 0.52803 0.54140
 C63 C 0.72199 0.52743 0.54058
 C64 C 0.71064 0.52375 0.49890
 C65 C 0.71906 0.52010 0.45825
 C66 C 0.73867 0.51959 0.45930
 H67 H 0.82735 0.52337 0.50442
 H68 H 0.77964 0.53128 0.42858
 H69 H 0.77082 0.51618 0.57538
 H70 H 0.75104 0.53190 0.57380
 H71 H 0.69520 0.52368 0.49803
 H72 H 0.74416 0.51572 0.42756
 C73 C 0.47525 0.28821 0.49931
 C74 C 0.47874 0.27968 0.45862
 C75 C 0.47914 0.26000 0.45972
 C76 C 0.47496 0.24794 0.50135
 C77 C 0.47092 0.25663 0.54195
 C78 C 0.47162 0.27688 0.54106
 C79 C 0.47483 0.22653 0.50241
 C80 C 0.47898 0.21858 0.54397
 C81 C 0.47837 0.19837 0.54499
 C82 C 0.47471 0.18635 0.50422
 C83 C 0.47111 0.19413 0.46263
 C84 C 0.47062 0.21377 0.46184
 H85 H 0.47540 0.30370 0.49840
 H86 H 0.48287 0.25440 0.42795
 H87 H 0.46711 0.24779 0.57440
 H88 H 0.48285 0.22798 0.57567
 H89 H 0.47470 0.17092 0.50475
 H90 H 0.46684 0.21881 0.42940
 C91 C 0.71149 0.18835 0.50284
 C92 C 0.72284 0.19604 0.46116
 C93 C 0.74302 0.21559 0.46025
 C94 C 0.75165 0.22835 0.50082
 C95 C 0.73956 0.22047 0.54242
 C96 C 0.71993 0.20037 0.54351
 C97 C 0.77297 0.24967 0.49971
 C98 C 0.78570 0.25832 0.54029
 C99 C 0.80528 0.27851 0.53936
 C100 C 0.81300 0.28981 0.49759
 C101 C 0.80099 0.28132 0.45693
 C102 C 0.78089 0.26171 0.45808
 H103 H 0.69605 0.17299 0.50362
 H104 H 0.75182 0.22057 0.42777
 H105 H 0.74510 0.22982 0.57416
 H106 H 0.78064 0.24949 0.57275
 H107 H 0.82838 0.30526 0.49663
 H108 H 0.77157 0.25614 0.42633
 N109 N 0.97775 0.52305 0.04934
 N110 N 0.96293 0.52876 0.05883
 N111 N 1.02380 0.53248 0.08056
 N112 N 1.03998 0.54315 0.11015
 N113 N 1.02387 0.54583 0.04868
 N114 N 1.04014 0.56602 0.05575
 N115 N 0.97776 0.50977 0.08130
 N116 N 0.96294 0.50607 0.11338
 C117 C 0.95368 0.51777 0.09848
 C118 C 1.05003 0.56395 0.09404
 N119 N 1.02339 0.47811 0.04865
 N120 N 1.03835 0.47253 0.05759
 N121 N 0.97745 0.46870 0.08095
 N122 N 0.96137 0.45808 0.11082
 N123 N 0.97726 0.45531 0.04900
 N124 N 0.96100 0.43514 0.05630
 N125 N 1.02350 0.49142 0.08068
 N126 N 1.03854 0.49528 0.11227
 Mn127 Mn 1.00063 0.50059 0.08131
 C128 C 1.04779 0.48362 0.09699
 C129 C 0.95125 0.43726 0.09482
 N130 N 1.02351 0.54579 -0.05124
 N131 N 1.03861 0.56626 -0.06039
 N132 N 0.97732 0.50946 -0.08256
 N133 N 0.96113 0.50405 -0.11205
 N134 N 0.97738 0.52278 -0.05060
 N135 N 0.96118 0.52682 -0.05752
 N136 N 1.02338 0.53247 -0.08328
 N137 N 1.03838 0.54350 -0.11509
 Mn138 Mn 1.00063 0.53458 -0.00096
 C139 C 1.04787 0.56444 -0.09995
 C140 C 0.95121 0.51490 -0.09582
 N141 N 0.97723 0.45523 -0.05093
 N142 N 0.96212 0.43475 -0.05987
 N143 N 1.02329 0.49152 -0.08317
 N144 N 1.03935 0.49688 -0.11305
 N145 N 1.02336 0.47824 -0.05129
 N146 N 1.03952 0.47418 -0.05864
 N147 N 0.97724 0.46851 -0.08289
 N148 N 0.96213 0.45743 -0.11444
 Mn149 Mn 1.00031 0.46650 -0.00114
 Mn150 Mn 1.00031 0.50049 -0.08342
 Cl151 Cl 1.00047 0.50054 -0.00105
 C152 C 0.95272 0.43651 -0.09921
 C153 C 1.04933 0.48604 -0.09713
 N154 N 0.47741 0.45434 0.05064
 N155 N 0.47337 0.43412 0.05799
 N156 N 0.46754 0.49073 0.08219
 N157 N 0.45678 0.49618 0.11175
 N158 N 0.45430 0.47748 0.05020
 N159 N 0.43410 0.47353 0.05713
 N160 N 0.49058 0.46767 0.08262
 N161 N 0.49588 0.45696 0.11258
 C162 C 0.48513 0.43615 0.09658
 C163 C 0.43605 0.48543 0.09550
 N164 N 0.52162 0.54486 0.05061
 N165 N 0.52570 0.56510 0.05793
 N166 N 0.53133 0.50847 0.08282
 N167 N 0.54196 0.50304 0.11272
 N168 N 0.54472 0.52172 0.05098
 N169 N 0.56490 0.52569 0.05835
 N170 N 0.50830 0.53152 0.08244
 N171 N 0.50294 0.54225 0.11227
 Mn172 Mn 0.49944 0.49960 0.08296
 C173 C 0.51380 0.56307 0.09634
 C174 C 0.56278 0.51380 0.09682
 N175 N 0.45449 0.47735 -0.04974
 N176 N 0.43400 0.47172 -0.05927
 N177 N 0.49086 0.46757 -0.08124
 N178 N 0.49488 0.45645 -0.11277
 N179 N 0.47753 0.45431 -0.04928
 N180 N 0.47212 0.43381 -0.05823
 N181 N 0.46782 0.49062 -0.08168
 N182 N 0.45677 0.49438 -0.11377
 Mn183 Mn 0.46572 0.46565 0.00049
 C184 C 0.43580 0.48274 -0.09889
 C185 C 0.48331 0.43553 -0.09755
 N186 N 0.54499 0.52184 -0.04895
 N187 N 0.56550 0.52732 -0.05785
 N188 N 0.50878 0.53163 -0.08142
 N189 N 0.50488 0.54274 -0.11317
 N190 N 0.52195 0.54488 -0.04933
 N191 N 0.52739 0.56538 -0.05839
 N192 N 0.53182 0.50857 -0.08103
 N193 N 0.54299 0.50465 -0.11259
 Mn194 Mn 0.53354 0.53355 0.00086
 Mn195 Mn 0.49982 0.49960 -0.08178
 Cl196 Cl 0.49963 0.49960 0.00057
 C197 C 0.56387 0.51622 -0.09726
 C198 C 0.51637 0.56366 -0.09793
 N199 N 0.45497 -0.02316 0.04982
 N200 N 0.43452 -0.03827 0.05900
 N201 N 0.49107 0.02307 0.08151
 N202 N 0.49493 0.03814 0.11309
 N203 N 0.47775 0.02293 0.04950
 N204 N 0.47218 0.03791 0.05846
 N205 N 0.46828 -0.02303 0.08183
 N206 N 0.45726 -0.03806 0.11362
 C207 C 0.43633 -0.04756 0.09851
 C208 C 0.48327 0.04738 0.09783
 N209 N 0.54546 0.02336 0.04947
 N210 N 0.56591 0.03849 0.05845
 N211 N 0.50939 -0.02277 0.08180
 N212 N 0.50571 -0.03762 0.11379
 N213 N 0.52268 -0.02272 0.04978
 N214 N 0.52841 -0.03754 0.05914
 N215 N 0.53217 0.02333 0.08149
 N216 N 0.54322 0.03844 0.11309
 Mn217 Mn 0.50023 0.00015 0.08210
 C218 C 0.56413 0.04788 0.09784
 C219 C 0.51743 -0.04684 0.09876
 N220 N 0.47783 0.02288 -0.05042
 N221 N 0.47368 0.03899 -0.05777
 N222 N 0.46832 -0.02325 -0.08203
 N223 N 0.45768 -0.03941 -0.11172
 N224 N 0.45497 -0.02337 -0.05011
 N225 N 0.43481 -0.03966 -0.05721
 N226 N 0.49110 0.02285 -0.08234
 N227 N 0.49637 0.03888 -0.11226
 Mn228 Mn 0.46616 -0.00018 -0.00034
 C229 C 0.48549 0.04882 -0.09630
 C230 C 0.43690 -0.04951 -0.09561
 N231 N 0.52252 -0.02295 -0.05017
 N232 N 0.52663 -0.03910 -0.05730
 N233 N 0.53201 0.02311 -0.08235
 N234 N 0.54262 0.03923 -0.11217
 N235 N 0.54538 0.02330 -0.05044
 N236 N 0.56552 0.03962 -0.05769
 N237 N 0.50922 -0.02299 -0.08207
 N238 N 0.50391 -0.03911 -0.11177
 Mn239 Mn 0.53423 0.00025 -0.00038
 Mn240 Mn 0.50016 -0.00007 -0.08265
 Cl241 Cl 0.50019 0.00004 -0.00025
 C242 C 0.51479 -0.04902 -0.09570
 C243 C 0.56340 0.04938 -0.09616
 C244 C 1.18276 0.47003 0.42004
 C245 C 1.17251 0.46881 0.38564
 C246 C 1.15996 0.46820 0.34580
 C247 C 1.13737 0.45352 0.34453
 C248 C 1.12471 0.45447 0.30835
 C249 C 1.13446 0.47022 0.27298
 C250 C 1.15729 0.48450 0.27388
 C251 C 1.16993 0.48351 0.31010
 C252 C 1.12069 0.47254 0.23700
 C253 C 1.12485 0.49348 0.22335
 C254 C 1.11091 0.49573 0.19225
 C255 C 1.09265 0.47712 0.17425
 C256 C 1.08866 0.45621 0.18672
 C257 C 1.10258 0.45392 0.21785
 C258 C 1.07730 0.47947 0.14538
 C259 C 1.06406 0.48142 0.12255
 H260 H 1.12945 0.44175 0.37222
 H261 H 1.10715 0.44346 0.30905
 H262 H 1.16531 0.49663 0.24689
 H263 H 1.18739 0.49502 0.31085
 H264 H 1.13845 0.50813 0.23797
 H265 H 1.11406 0.51199 0.18311
 H266 H 1.07454 0.44168 0.17306
 H267 H 1.09908 0.43759 0.22727
 C268 C 0.51816 0.70800 0.41644
 C269 C 0.51672 0.69814 0.38125
 C270 C 0.51575 0.68587 0.34056
 C271 C 0.53491 0.68694 0.32388
 C272 C 0.53394 0.67350 0.28726
 C273 C 0.51372 0.65873 0.26680
 C274 C 0.49460 0.65825 0.28290
 C275 C 0.49562 0.67171 0.31961
 C276 C 0.51250 0.64292 0.23114
 C277 C 0.49550 0.62093 0.23256
 C278 C 0.49539 0.60551 0.20192
 C279 C 0.51223 0.61182 0.16939
 C280 C 0.52889 0.63377 0.16675
 C281 C 0.52902 0.64925 0.19737
 C282 C 0.51307 0.59538 0.14121
 C283 C 0.51357 0.58098 0.11959
 H284 H 0.55056 0.69771 0.34008
 H285 H 0.54890 0.67405 0.27625
 H286 H 0.47883 0.64725 0.26752
 H287 H 0.48068 0.67072 0.33232
 H288 H 0.48274 0.61543 0.25855
 H289 H 0.48250 0.58853 0.20450
 H290 H 0.54202 0.63882 0.14175
 H291 H 0.54219 0.66610 0.19505
 C292 C 0.28753 -0.18361 0.42092
 C293 C 0.29669 -0.17327 0.38666
 C294 C 0.30877 -0.16059 0.34700
 C295 C 0.31445 -0.17042 0.31158
 C296 C 0.32817 -0.15766 0.27553
 C297 C 0.33646 -0.13486 0.27453
 C298 C 0.33014 -0.12524 0.30962
 C299 C 0.31643 -0.13804 0.34563
 C300 C 0.35261 -0.12094 0.23871
 C301 C 0.35190 -0.10296 0.21927
 C302 C 0.36812 -0.08892 0.18822
 C303 C 0.38522 -0.09267 0.17612
 C304 C 0.38579 -0.11079 0.19442
 C305 C 0.36959 -0.12485 0.22545
 C306 C 0.40287 -0.07723 0.14720
 C307 C 0.41799 -0.06391 0.12427
 H308 H 0.30869 -0.18786 0.31241
 H309 H 0.33253 -0.16557 0.24875
 H310 H 0.33648 -0.10771 0.31024
 H311 H 0.31232 -0.13022 0.37311
 H312 H 0.33892 -0.09966 0.22839
 H313 H 0.36755 -0.07492 0.17431
 H314 H 0.39904 -0.11375 0.18557
 H315 H 0.37079 -0.13833 0.24029
 C316 C 0.81604 0.52890 0.41989
 C317 C 0.82622 0.52974 0.38561
 C318 C 0.83871 0.52992 0.34597
 C319 C 0.83361 0.51014 0.32432
 C320 C 0.84694 0.50982 0.28879
 C321 C 0.86562 0.52931 0.27448
 C322 C 0.87025 0.54922 0.29558
 C323 C 0.85689 0.54950 0.33116
 C324 C 0.88084 0.52863 0.23973
 C325 C 0.90365 0.54136 0.24610
 C326 C 0.91803 0.53961 0.21537
 C327 C 0.90987 0.52516 0.17782
 C328 C 0.88724 0.51273 0.17057
 C329 C 0.87279 0.51446 0.20129
 C330 C 0.92480 0.52245 0.14819
 C331 C 0.93774 0.52024 0.12474
 H332 H 0.81968 0.49486 0.33579
 H333 H 0.84308 0.49420 0.27378
 H334 H 0.88435 0.56453 0.28495
 H335 H 0.86103 0.56489 0.34777
 H336 H 0.91038 0.55215 0.27570
 H337 H 0.93552 0.54921 0.22147
 H338 H 0.88074 0.50149 0.14160
 H339 H 0.85534 0.50463 0.19516
 C340 C 0.48124 0.29105 0.41561
 C341 C 0.48262 0.30095 0.38053
 C342 C 0.48354 0.31327 0.33998
 C343 C 0.50364 0.32748 0.31894
 C344 C 0.50461 0.34098 0.28236
 C345 C 0.48546 0.34048 0.26651
 C346 C 0.46527 0.32566 0.28706
 C347 C 0.46434 0.31218 0.32354
 C348 C 0.48662 0.35631 0.23099
 C349 C 0.47008 0.34999 0.19734
 C350 C 0.47017 0.36548 0.16684
 C351 C 0.48681 0.38744 0.16948
 C352 C 0.50366 0.39375 0.20189
 C353 C 0.50360 0.37832 0.23241
 C354 C 0.48593 0.40387 0.14139
 C355 C 0.48539 0.41826 0.11982
 H356 H 0.51861 0.32849 0.33146
 H357 H 0.52036 0.35202 0.26690
 H358 H 0.45028 0.32509 0.27624
 H359 H 0.44871 0.30137 0.33983
 H360 H 0.45693 0.33313 0.19501
 H361 H 0.45702 0.36042 0.14192
 H362 H 0.51653 0.41074 0.20447
 H363 H 0.51637 0.38381 0.25831
 C364 C 0.71314 0.18404 0.41919
 C365 C 0.70397 0.17372 0.38496
 C366 C 0.69186 0.16107 0.34535
 C367 C 0.68609 0.17089 0.31012
 C368 C 0.67235 0.15813 0.27413
 C369 C 0.66414 0.13534 0.27301
 C370 C 0.67056 0.12574 0.30789
 C371 C 0.68429 0.13853 0.34384
 C372 C 0.64798 0.12141 0.23728
 C373 C 0.64873 0.10350 0.21764
 C374 C 0.63249 0.08944 0.18671
 C375 C 0.61531 0.09311 0.17494
 C376 C 0.61469 0.11117 0.19344
 C377 C 0.63092 0.12525 0.22434
 C378 C 0.59764 0.07763 0.14619
 C379 C 0.58250 0.06428 0.12341
 H380 H 0.69179 0.18831 0.31105
 H381 H 0.66792 0.16603 0.24750
 H382 H 0.66429 0.10821 0.30841
 H383 H 0.68847 0.13072 0.37117
 H384 H 0.66178 0.10025 0.22652
 H385 H 0.63311 0.07548 0.17265
 H386 H 0.60139 0.11407 0.18484
 H387 H 0.62967 0.13869 0.23935
 C388 C 0.48075 0.18993 -0.41438
 C389 C 0.48222 0.18145 -0.37932
 C390 C 0.48323 0.17008 -0.33882
 C391 C 0.46408 0.15200 -0.32207
 C392 C 0.46509 0.13945 -0.28571
 C393 C 0.48535 0.14479 -0.26559
 C394 C 0.50446 0.16341 -0.28173
 C395 C 0.50340 0.17594 -0.31819
 C396 C 0.48660 0.13010 -0.23024
 C397 C 0.50354 0.12503 -0.23212
 C398 C 0.50367 0.10965 -0.20174
 C399 C 0.48693 0.09914 -0.16901
 C400 C 0.47033 0.10450 -0.16592
 C401 C 0.47017 0.11991 -0.19628
 C402 C 0.48614 0.08184 -0.14101
 C403 C 0.48567 0.06694 -0.11950
 H404 H 0.44840 0.14721 -0.33805
 H405 H 0.45013 0.12505 -0.27466
 H406 H 0.52026 0.16810 -0.26660
 H407 H 0.51834 0.18988 -0.33095
 H408 H 0.51622 0.13229 -0.25826
 H409 H 0.51652 0.10551 -0.20466
 H410 H 0.45727 0.09643 -0.14076
 H411 H 0.45705 0.12365 -0.19361
 C412 C 0.71284 0.52963 -0.41963
 C413 C 0.70376 0.53084 -0.38526
 C414 C 0.69175 0.53144 -0.34548
 C415 C 0.68391 0.54620 -0.34416
 C416 C 0.67023 0.54524 -0.30805
 C417 C 0.66412 0.52942 -0.27280
 C418 C 0.67260 0.51507 -0.27373
 C419 C 0.68630 0.51606 -0.30989
 C420 C 0.64797 0.52711 -0.23691
 C421 C 0.63114 0.50618 -0.22346
 C422 C 0.61489 0.50394 -0.19245
 C423 C 0.61527 0.52257 -0.17435
 C424 C 0.63223 0.54347 -0.18661
 C425 C 0.64849 0.54574 -0.21765
 C426 C 0.59754 0.52025 -0.14556
 C427 C 0.58233 0.51834 -0.12278
 H428 H 0.68785 0.55802 -0.37177
 H429 H 0.66374 0.55631 -0.30872
 H430 H 0.66841 0.50289 -0.24683
 H431 H 0.69219 0.50449 -0.31067
 H432 H 0.63007 0.49152 -0.23816
 H433 H 0.60175 0.48769 -0.18347
 H434 H 0.63266 0.55800 -0.17287
 H435 H 0.66137 0.56207 -0.22692
 C436 C 0.81660 0.28771 -0.42090
 C437 C 0.82687 0.29682 -0.38658
 C438 C 0.83949 0.30886 -0.34687
 C439 C 0.86198 0.31630 -0.34522
 C440 C 0.87475 0.33000 -0.30921
 C441 C 0.86518 0.33651 -0.27439
 C442 C 0.84244 0.32843 -0.27564
 C443 C 0.82970 0.31472 -0.31170
 C444 C 0.87910 0.35266 -0.23861
 C445 C 0.87538 0.36982 -0.22574
 C446 C 0.88947 0.38603 -0.19482
 C447 C 0.90743 0.38530 -0.17622
 C448 C 0.91098 0.36802 -0.18791
 C449 C 0.89691 0.35178 -0.21887
 C450 C 0.92293 0.40297 -0.14748
 C451 C 0.93631 0.41812 -0.12472
 H452 H 0.86976 0.31205 -0.37251
 H453 H 0.89224 0.33617 -0.30963
 H454 H 0.83456 0.33293 -0.24907
 H455 H 0.81232 0.30913 -0.31274
 H456 H 0.86203 0.37115 -0.24083
 H457 H 0.88666 0.39942 -0.18628
 H458 H 0.92486 0.36731 -0.17378
 H459 H 0.90007 0.33866 -0.22769
 C460 C 0.51801 -0.19130 -0.41288
 C461 C 0.51674 -0.18269 -0.37783
 C462 C 0.51595 -0.17116 -0.33735
 C463 C 0.49592 -0.17703 -0.31599
 C464 C 0.49505 -0.16437 -0.27956
 C465 C 0.51422 -0.14561 -0.26417
 C466 C 0.53435 -0.14026 -0.28504
 C467 C 0.53518 -0.15294 -0.32137
 C468 C 0.51315 -0.13081 -0.22886
 C469 C 0.52982 -0.12038 -0.19555
 C470 C 0.52979 -0.10485 -0.16528
 C471 C 0.51308 -0.09963 -0.16781
 C472 C 0.49611 -0.11038 -0.19988
 C473 C 0.49611 -0.12587 -0.23017
 C474 C 0.51400 -0.08222 -0.13999
 C475 C 0.51454 -0.06723 -0.11865
 H476 H 0.48092 -0.19107 -0.32817
 H477 H 0.47935 -0.16906 -0.26386
 H478 H 0.54935 -0.12576 -0.27457
 H479 H 0.55075 -0.14815 -0.33791
 H480 H 0.54302 -0.12401 -0.19331
 H481 H 0.54304 -0.09660 -0.14064
 H482 H 0.48318 -0.10634 -0.20238
 H483 H 0.48323 -0.13331 -0.25581
 C484 C 0.28694 0.47140 -0.41973
 C485 C 0.29630 0.47058 -0.38551
 C486 C 0.30865 0.47043 -0.34597
 C487 C 0.30743 0.45089 -0.33138
 C488 C 0.32110 0.45121 -0.29591
 C489 C 0.33624 0.47112 -0.27469
 C490 C 0.33688 0.49057 -0.28877
 C491 C 0.32320 0.49021 -0.32419
 C492 C 0.35219 0.47186 -0.24006
 C493 C 0.35818 0.48594 -0.20148
 C494 C 0.37436 0.48770 -0.17083
 C495 C 0.38472 0.47540 -0.17829
 C496 C 0.37857 0.46104 -0.21600
 C497 C 0.36242 0.45926 -0.24666
 C498 C 0.40233 0.47811 -0.14867
 C499 C 0.41745 0.48031 -0.12520
 H500 H 0.29628 0.43550 -0.34809
 H501 H 0.32003 0.43593 -0.28545
 H502 H 0.34854 0.50620 -0.27367
 H503 H 0.32441 0.50546 -0.33549
 H504 H 0.35044 0.49567 -0.19518
 H505 H 0.37899 0.49887 -0.14173
 H506 H 0.38657 0.45154 -0.22225
 H507 H 0.35847 0.44854 -0.27637
 C508 C 1.18416 0.71321 -0.42215
 C509 C 1.17382 0.70407 -0.38789
 C510 C 1.16114 0.69199 -0.34823
 C511 C 1.17091 0.68620 -0.31293
 C512 C 1.15812 0.67248 -0.27690
 C513 C 1.13536 0.66431 -0.27579
 C514 C 1.12582 0.67075 -0.31075
 C515 C 1.13863 0.68445 -0.34674
 C516 C 1.12141 0.64816 -0.23999
 C517 C 1.10353 0.64898 -0.22041
 C518 C 1.08946 0.63277 -0.18938
 C519 C 1.09308 0.61556 -0.17746
 C520 C 1.11110 0.61488 -0.19591
 C521 C 1.12519 0.63107 -0.22691
 C522 C 1.07759 0.59792 -0.14857
 C523 C 1.06424 0.58279 -0.12567
 H524 H 1.18831 0.69186 -0.31385
 H525 H 1.16598 0.66803 -0.25021
 H526 H 1.10832 0.66450 -0.31128
 H527 H 1.13087 0.68865 -0.37413
 H528 H 1.10032 0.66206 -0.22939
 H529 H 1.07553 0.63343 -0.17536
 H530 H 1.11396 0.60154 -0.18719
 H531 H 1.13860 0.62978 -0.24187
 C532 C 0.80910 0.51788 -0.41249
 C533 C 0.81768 0.51664 -0.37742
 C534 C 0.82916 0.51587 -0.33691
 C535 C 0.82318 0.49585 -0.31534
 C536 C 0.83578 0.49498 -0.27883
 C537 C 0.85457 0.51416 -0.26358
 C538 C 0.86003 0.53429 -0.28465
 C539 C 0.84741 0.53510 -0.32105
 C540 C 0.86932 0.51307 -0.22824
 C541 C 0.87982 0.52982 -0.19508
 C542 C 0.89534 0.52981 -0.16488
 C543 C 0.90048 0.51303 -0.16733
 C544 C 0.88965 0.49597 -0.19922
 C545 C 0.87417 0.49596 -0.22944
 C546 C 0.91793 0.51398 -0.13970
 C547 C 0.93295 0.51458 -0.11854
 H548 H 0.80910 0.48085 -0.32741
 H549 H 0.83101 0.47929 -0.26297
 H550 H 0.87456 0.54928 -0.27429
 H551 H 0.85229 0.55067 -0.33775
 H552 H 0.87626 0.54309 -0.19294
 H553 H 0.90366 0.54313 -0.14037
 H554 H 0.89363 0.48299 -0.20165
 H555 H 0.86667 0.48301 -0.25498
 C556 C 0.46955 0.28611 -0.41916
 C557 C 0.46844 0.29525 -0.38480
 C558 C 0.46795 0.30732 -0.34503
 C559 C 0.45303 0.31495 -0.34329
 C560 C 0.45407 0.32869 -0.30724
 C561 C 0.47012 0.33507 -0.27250
 C562 C 0.48463 0.32680 -0.27383
 C563 C 0.48356 0.31304 -0.30992
 C564 C 0.47249 0.35130 -0.23674
 C565 C 0.49342 0.36835 -0.22403
 C566 C 0.49568 0.38466 -0.19315
 C567 C 0.47709 0.38412 -0.17446
 C568 C 0.45621 0.36694 -0.18599
 C569 C 0.45390 0.35062 -0.21689
 C570 C 0.47940 0.40188 -0.14579
 C571 C 0.48127 0.41710 -0.12307
 H572 H 0.44103 0.31080 -0.37054
 H573 H 0.44287 0.33502 -0.30760
 H574 H 0.49699 0.33120 -0.24730
 H575 H 0.49525 0.30730 -0.31103
 H576 H 0.50803 0.36953 -0.23921
 H577 H 0.51191 0.39796 -0.18474
 H578 H 0.44170 0.36639 -0.17178
 H579 H 0.43759 0.33758 -0.22560
 C580 C 0.70853 0.19151 -0.41351
 C581 C 0.69860 0.18300 -0.37846
 C582 C 0.68626 0.17161 -0.33793
 C583 C 0.68767 0.15375 -0.32089
 C584 C 0.67416 0.14114 -0.28453
 C585 C 0.65896 0.14620 -0.26470
 C586 C 0.65814 0.16462 -0.28112
 C587 C 0.67168 0.17721 -0.31758
 C588 C 0.64308 0.13141 -0.22942
 C589 C 0.62097 0.12597 -0.23164
 C590 C 0.60553 0.11045 -0.20137
 C591 C 0.61192 0.10018 -0.16842
 C592 C 0.63396 0.10592 -0.16498
 C593 C 0.64947 0.12147 -0.19522
 C594 C 0.59552 0.08272 -0.14059
 C595 C 0.58119 0.06768 -0.11921
 H596 H 0.69878 0.14916 -0.33664
 H597 H 0.67498 0.12690 -0.27325
 H598 H 0.64680 0.16909 -0.26622
 H599 H 0.67042 0.19097 -0.33059
 H600 H 0.61543 0.13303 -0.25797
 H601 H 0.58847 0.10601 -0.20456
 H602 H 0.63908 0.09804 -0.13963
 H603 H 0.66640 0.12550 -0.19229
 C604 C 1.18989 0.48184 -0.41704
 C605 C 1.18146 0.48325 -0.38184
 C606 C 1.17018 0.48420 -0.34112
 C607 C 1.17621 0.50433 -0.31998
 C608 C 1.16379 0.50534 -0.28322
 C609 C 1.14512 0.48622 -0.26728
 C610 C 1.13961 0.46600 -0.28793
 C611 C 1.15205 0.46503 -0.32460
 C612 C 1.13054 0.48744 -0.23161
 C613 C 1.12030 0.47087 -0.19797
 C614 C 1.10493 0.47099 -0.16739
 C615 C 1.09969 0.48770 -0.16996
 C616 C 1.11028 0.50459 -0.20234
 C617 C 1.12561 0.50450 -0.23293
 C618 C 1.08240 0.48684 -0.14188
 C619 C 1.06748 0.48631 -0.12033
 H620 H 1.19019 0.51929 -0.33257
 H621 H 1.16859 0.52112 -0.26769
 H622 H 1.12517 0.45103 -0.27704
 H623 H 1.14713 0.44938 -0.34096
 H624 H 1.12393 0.45766 -0.19573
 H625 H 1.09680 0.45781 -0.14250
 H626 H 1.10623 0.51752 -0.20486
 H627 H 1.13292 0.51730 -0.25883
 C628 C 0.53002 0.71252 -0.42069
 C629 C 0.53123 0.70346 -0.38631
 C630 C 0.53182 0.69148 -0.34650
 C631 C 0.54651 0.68357 -0.34522
 C632 C 0.54553 0.66990 -0.30906
 C633 C 0.52976 0.66389 -0.27375
 C634 C 0.51548 0.67244 -0.27465
 C635 C 0.51650 0.68613 -0.31084
 C636 C 0.52741 0.64774 -0.23784
 C637 C 0.50647 0.63094 -0.22435
 C638 C 0.50420 0.61468 -0.19333
 C639 C 0.52278 0.61502 -0.17526
 C640 C 0.54368 0.63195 -0.18756
 C641 C 0.54600 0.64822 -0.21861
 C642 C 0.52042 0.59728 -0.14644
 C643 C 0.51849 0.58208 -0.12359
 H644 H 0.55829 0.68743 -0.37288
 H645 H 0.55654 0.66335 -0.30976
 H646 H 0.50334 0.66832 -0.24769
 H647 H 0.50499 0.69208 -0.31160
 H648 H 0.49185 0.62990 -0.23904
 H649 H 0.48795 0.60156 -0.18432
 H650 H 0.55818 0.63234 -0.17383
 H651 H 0.56232 0.66107 -0.22792
 C652 C 0.29228 -0.19080 -0.41397
 C653 C 0.30212 -0.18239 -0.37880
 C654 C 0.31435 -0.17111 -0.33813
 C655 C 0.32872 -0.17691 -0.31754
 C656 C 0.34217 -0.16444 -0.28090
 C657 C 0.34146 -0.14596 -0.26453
 C658 C 0.32647 -0.14070 -0.28460
 C659 C 0.31304 -0.15318 -0.32115
 C660 C 0.35727 -0.13129 -0.22906
 C661 C 0.35088 -0.12127 -0.19501
 C662 C 0.36635 -0.10580 -0.16463
 C663 C 0.38836 -0.10023 -0.16780
 C664 C 0.39474 -0.11059 -0.20059
 C665 C 0.37933 -0.12602 -0.23098
 C666 C 0.40475 -0.08281 -0.13993
 C667 C 0.41909 -0.06779 -0.11857
 H668 H 0.32990 -0.19073 -0.33050
 H669 H 0.35335 -0.16906 -0.26582
 H670 H 0.32574 -0.12639 -0.27337
 H671 H 0.30210 -0.14844 -0.33708
 H672 H 0.33398 -0.12516 -0.19230
 H673 H 0.36123 -0.09784 -0.13943
 H674 H 0.41177 -0.10627 -0.20357
 H675 H 0.38488 -0.13315 -0.25720
 C676 C 0.52914 -0.18424 0.41954
 C677 C 0.52998 -0.17406 0.38526
 C678 C 0.53014 -0.16160 0.34562
 C679 C 0.54966 -0.14331 0.33096
 C680 C 0.54935 -0.12998 0.29539
 C681 C 0.52946 -0.13475 0.27414
 C682 C 0.51003 -0.15354 0.28828
 C683 C 0.51039 -0.16684 0.32380
 C684 C 0.52871 -0.11954 0.23947
 C685 C 0.51466 -0.12764 0.20091
 C686 C 0.51283 -0.11323 0.17028
 C687 C 0.52505 -0.09057 0.17776
 C688 C 0.53940 -0.08236 0.21544
 C689 C 0.54125 -0.09671 0.24606
 C690 C 0.52224 -0.07568 0.14825
 C691 C 0.51996 -0.06277 0.12490
 H692 H 0.56504 -0.13906 0.34771
 H693 H 0.56461 -0.11578 0.28489
 H694 H 0.49442 -0.15750 0.27315
 H695 H 0.49515 -0.18086 0.33515
 H696 H 0.50497 -0.14511 0.19461
 H697 H 0.50167 -0.11976 0.14121
 H698 H 0.54885 -0.06485 0.22170
 H699 H 0.55194 -0.08996 0.27577
 C700 C 0.29102 0.48258 0.41271
 C701 C 0.30087 0.48389 0.37760
 C702 C 0.31312 0.48471 0.33701
 C703 C 0.31202 0.46545 0.32072
 C704 C 0.32546 0.46630 0.28425
 C705 C 0.34026 0.48647 0.26356
 C706 C 0.34078 0.50567 0.27923
 C707 C 0.32731 0.50478 0.31580
 C708 C 0.35611 0.48755 0.22816
 C709 C 0.37810 0.50452 0.22963
 C710 C 0.39355 0.50447 0.19936
 C711 C 0.38728 0.48751 0.16714
 C712 C 0.36533 0.47089 0.16442
 C713 C 0.34981 0.47092 0.19467
 C714 C 0.40374 0.48649 0.13945
 C715 C 0.41814 0.48583 0.11826
 H716 H 0.30122 0.44985 0.33714
 H717 H 0.32489 0.45127 0.27357
 H718 H 0.35182 0.52140 0.26366
 H719 H 0.32834 0.51980 0.32821
 H720 H 0.38357 0.51736 0.25542
 H721 H 0.41053 0.51733 0.20200
 H722 H 0.36030 0.45766 0.13966
 H723 H 0.33296 0.45777 0.19232
 C724 C 1.19123 0.70847 0.41266
 C725 C 1.18279 0.69867 0.37747
 C726 C 1.17149 0.68647 0.33677
 C727 C 1.15344 0.68765 0.32026
 C728 C 1.14096 0.67426 0.28366
 C729 C 1.14635 0.65945 0.26305
 C730 C 1.16495 0.65887 0.27895
 C731 C 1.17741 0.67228 0.31565
 C732 C 1.13171 0.64366 0.22750
 C733 C 1.12664 0.62163 0.22895
 C734 C 1.11123 0.60623 0.19851
 C735 C 1.10070 0.61258 0.16616
 C736 C 1.10607 0.63457 0.16345
 C737 C 1.12152 0.65004 0.19386
 C738 C 1.08330 0.59617 0.13830
 C739 C 1.06829 0.58180 0.11696
 H740 H 1.14861 0.69845 0.33660
 H741 H 1.12657 0.67487 0.27279
 H742 H 1.16967 0.64783 0.26345
 H743 H 1.19133 0.67121 0.32823
 H744 H 1.13390 0.61610 0.25484
 H745 H 1.10707 0.58921 0.20114
 H746 H 1.09798 0.63966 0.13858
 H747 H 1.12526 0.66692 0.19153
 C748 C 0.46880 0.18219 0.42056
 C749 C 0.46767 0.17194 0.38619
 C750 C 0.46717 0.15940 0.34637
 C751 C 0.48250 0.16944 0.31075
 C752 C 0.48359 0.15682 0.27452
 C753 C 0.46938 0.13397 0.27356
 C754 C 0.45360 0.12415 0.30883
 C755 C 0.45255 0.13679 0.34502
 C756 C 0.47181 0.12023 0.23760
 C757 C 0.45327 0.10209 0.21832
 C758 C 0.45567 0.08818 0.18725
 C759 C 0.47659 0.09223 0.17498
 C760 C 0.49513 0.11052 0.19310
 C761 C 0.49278 0.12445 0.22414
 C762 C 0.47904 0.07690 0.14618
 C763 C 0.48104 0.06365 0.12339
 H764 H 0.49396 0.18692 0.31156
 H765 H 0.49574 0.16489 0.24760
 H766 H 0.44264 0.10657 0.30947
 H767 H 0.44076 0.12882 0.37265
 H768 H 0.43692 0.09855 0.22761
 H769 H 0.44120 0.07404 0.17349
 H770 H 0.51141 0.11372 0.18411
 H771 H 0.50737 0.13807 0.23887
 C772 C 0.70767 0.51753 0.41529
 C773 C 0.69776 0.51610 0.38023
 C774 C 0.68545 0.51512 0.33968
 C775 C 0.68670 0.53435 0.32279
 C776 C 0.67324 0.53339 0.28633
 C777 C 0.65825 0.51313 0.26625
 C778 C 0.65758 0.49395 0.28255
 C779 C 0.67107 0.49495 0.31911
 C780 C 0.64242 0.51196 0.23081
 C781 C 0.62037 0.49514 0.23273
 C782 C 0.60495 0.49512 0.20230
 C783 C 0.61132 0.51186 0.16949
 C784 C 0.63332 0.52833 0.16636
 C785 C 0.64880 0.52837 0.19676
 C786 C 0.59493 0.51281 0.14151
 C787 C 0.58059 0.51342 0.12001
 H788 H 0.69765 0.55003 0.33871
 H789 H 0.67393 0.54841 0.27515
 H790 H 0.64640 0.47814 0.26746
 H791 H 0.66993 0.47995 0.33199
 H792 H 0.61484 0.48248 0.25894
 H793 H 0.58793 0.48238 0.20525
 H794 H 0.63842 0.54138 0.14113
 H795 H 0.66569 0.54140 0.19407
 C796 C 0.80987 0.29265 0.41390
 C797 C 0.81838 0.30251 0.37877
 C798 C 0.82975 0.31476 0.33814
 C799 C 0.84779 0.31356 0.32157
 C800 C 0.86032 0.32698 0.28500
 C801 C 0.85499 0.34185 0.26450
 C802 C 0.83641 0.34246 0.28048
 C803 C 0.82390 0.32901 0.31714
 C804 C 0.86967 0.35764 0.22896
 C805 C 0.87478 0.37969 0.23047
 C806 C 0.89019 0.39508 0.19997
 C807 C 0.90068 0.38871 0.16749
 C808 C 0.89527 0.36671 0.16474
 C809 C 0.87982 0.35125 0.19522
 C810 C 0.91805 0.40510 0.13948
 C811 C 0.93303 0.41945 0.11798
 H812 H 0.85257 0.30271 0.33781
 H813 H 0.87470 0.32634 0.27408
 H814 H 0.83174 0.35354 0.26506
 H815 H 0.80998 0.33011 0.32977
 H816 H 0.86755 0.38523 0.25644
 H817 H 0.89438 0.41210 0.20263
 H818 H 0.90332 0.36160 0.13977
 H819 H 0.87605 0.33436 0.19283
   
