data_POSCAR
  _audit_creation_date              2014-09-24
  _audit_creation_method            'ToBaCCo'
  _symmetry_space_group_name_H-M    'P1'
  _symmetry_Int_Tables_number       1
  _symmetry_cell_setting            triclinic
  loop_
  _symmetry_equiv_pos_as_xyz
 x,y,z
_cell_length_a 20.8258
_cell_length_b 21.0003
_cell_length_c 20.8406
_cell_angle_alpha 90.044600
_cell_angle_beta 90.163800
_cell_angle_gamma 90.034700
loop_
  _atom_site_label
  _atom_site_type_symbol
  _atom_site_fract_x
  _atom_site_fract_y
  _atom_site_fract_z
C1 C 0.53162 0.99582 -0.50222
 C2 C 0.46697 0.99304 -0.50071
 C3 C 0.42666 0.99300 -0.55924
 C4 C 0.43215 0.99546 -0.43927
 C5 C 0.56942 0.99261 -0.44258
 C6 C 0.56882 0.99416 -0.56239
 C7 C 0.42918 1.04343 -0.60310
 C8 C 0.38379 1.04773 -0.65250
 C9 C 0.33337 1.00279 -0.65796
 C10 C 0.33425 0.95028 -0.61547
 C11 C 0.38004 0.94567 -0.56710
 C12 C 0.41626 1.05469 -0.41283
 C13 C 0.37367 1.05818 -0.36145
 C14 C 0.34474 1.00259 -0.33772
 C15 C 0.36447 0.94307 -0.36115
 C16 C 0.40851 0.93952 -0.41134
 C17 C 0.58830 0.93301 -0.41913
 C18 C 0.63133 0.92909 -0.36801
 C19 C 0.65654 0.98482 -0.34069
 C20 C 0.63490 1.04447 -0.36179
 C21 C 0.59132 1.04836 -0.41267
 C22 C 0.56649 0.94062 -0.60271
 C23 C 0.60961 0.93502 -0.65371
 C24 C 0.65558 0.98271 -0.66442
 C25 C 0.65595 1.03737 -0.62591
 C26 C 0.61306 1.04292 -0.57503
 H27 H 0.46522 1.08032 -0.59818
 H28 H 0.38911 1.08589 -0.68698
 H29 H 0.29679 0.91451 -0.61606
 H30 H 0.37747 0.90578 -0.53446
 H31 H 0.43484 1.09817 -0.43368
 H32 H 0.36055 1.10439 -0.34246
 H33 H 0.42169 0.89340 -0.43044
 H34 H 0.57146 0.88972 -0.44196
 H35 H 0.64740 0.88279 -0.35168
 H36 H 0.65383 1.08778 -0.34071
 H37 H 0.57662 1.09461 -0.43032
 H38 H 0.53325 0.90215 -0.59302
 H39 H 0.60869 0.89270 -0.68345
 H40 H 0.69096 1.07468 -0.63393
 H41 H 0.61559 1.08452 -0.54442
 H42 H 0.34377 0.89958 -0.34242
 C43 C -0.46557 1.49175 -0.00132
 C44 C -0.53033 1.49629 0.00295
 C45 C -0.57290 1.44003 0.00307
 C46 C -0.56340 1.55854 0.00347
 C47 C -0.42455 1.54930 0.00049
 C48 C -0.43134 1.42981 -0.00688
 C49 C -0.60111 1.41907 -0.05434
 C50 C -0.64940 1.37275 -0.05328
 C51 C -0.67022 1.34695 0.00528
 C52 C -0.63980 1.36606 0.06240
 C53 C -0.59263 1.41333 0.06142
 C54 C -0.59204 1.58072 0.06000
 C55 C -0.63102 1.63483 0.05877
 C56 C -0.64196 1.66742 0.00094
 C57 C -0.61257 1.64568 -0.05548
 C58 C -0.57337 1.59163 -0.05418
 C59 C -0.39867 1.57010 0.05899
 C60 C -0.35153 1.61758 0.06018
 C61 C -0.32771 1.64328 0.00248
 C62 C -0.35747 1.62528 -0.05565
 C63 C -0.40543 1.57879 -0.05657
 C64 C -0.43529 1.38353 0.04160
 C65 C -0.39774 1.32832 0.03862
 C66 C -0.35428 1.31907 -0.01205
 C67 C -0.34958 1.36600 -0.05977
 C68 C -0.38837 1.42011 -0.05777
 H69 H -0.58726 1.44019 -0.09964
 H70 H -0.67180 1.35830 -0.09795
 H71 H -0.65413 1.34581 0.10795
 H72 H -0.57248 1.43013 0.10631
 H73 H -0.58563 1.55509 0.10463
 H74 H -0.65415 1.65036 0.10256
 H75 H -0.55270 1.57420 -0.09846
 H76 H -0.41324 1.54780 0.10349
 H77 H -0.33059 1.63084 0.10592
 H78 H -0.34291 1.64662 -0.10063
 H79 H -0.42581 1.56401 -0.10207
 H80 H -0.46538 1.39110 0.08305
 H81 H -0.40127 1.29360 0.07686
 H82 H -0.31483 1.36143 -0.09806
 H83 H -0.38346 1.45519 -0.09540
 H84 H -0.62110 1.66980 -0.10062
 C85 C -0.00551 0.49326 0.53414
 C86 C -0.00775 0.49322 0.46903
 C87 C -0.01224 0.43332 0.43174
 C88 C -0.00384 0.55197 0.42999
 C89 C -0.00225 0.55244 0.57327
 C90 C -0.00602 0.43290 0.57097
 C91 C 0.04108 0.39327 0.42607
 C92 C 0.03967 0.34184 0.38353
 C93 C -0.01585 0.32806 0.34682
 C94 C -0.06904 0.36919 0.35274
 C95 C -0.06714 0.42114 0.39468
 C96 C -0.05214 0.59859 0.43207
 C97 C -0.05134 0.64935 0.38841
 C98 C -0.00235 0.65362 0.34248
 C99 C 0.04641 0.60785 0.34137
 C100 C 0.04557 0.55736 0.38463
 C101 C -0.04650 0.56078 0.62312
 C102 C -0.04010 0.61103 0.66635
 C103 C 0.01141 0.65439 0.66166
 C104 C 0.05389 0.64780 0.60936
 C105 C 0.04763 0.59688 0.56614
 C106 C -0.06357 0.40031 0.58196
 C107 C -0.06515 0.34868 0.62433
 C108 C -0.00870 0.32708 0.65527
 C109 C 0.04906 0.36007 0.64289
 C110 C 0.05022 0.41239 0.60151
 H111 H 0.08476 0.40355 0.45245
 H112 H 0.08323 0.31435 0.37758
 H113 H -0.11274 0.36073 0.32577
 H114 H -0.10827 0.45255 0.39763
 H115 H -0.09117 0.59460 0.46605
 H116 H -0.08908 0.68478 0.38984
 H117 H 0.08302 0.52169 0.38204
 H118 H -0.08544 0.52724 0.62968
 H119 H -0.07401 0.61389 0.70558
 H120 H 0.09189 0.68215 0.60163
 H121 H 0.08263 0.59134 0.52823
 H122 H -0.10779 0.41682 0.56015
 H123 H -0.11140 0.32782 0.63520
 H124 H 0.09381 0.34520 0.66479
 H125 H 0.09494 0.43764 0.59400
 H126 H 0.08471 0.61095 0.30644
 O127 O -0.16314 0.97833 -0.08892
 O128 O 0.16580 1.00691 -0.08494
 O129 O -0.00881 1.07984 -0.16378
 O130 O 0.01149 0.90955 -0.16583
 O131 O 0.01860 0.83092 -0.08861
 O132 O -0.01477 1.15746 -0.08553
 O133 O 0.08819 1.00022 -0.16366
 O134 O -0.08455 0.98896 -0.16530
 Zr135 Zr 0.00153 0.99415 -0.11224
 O136 O 0.06411 0.94041 -0.05806
 O137 O -0.06160 1.04674 -0.05809
 C138 C -0.14369 0.98102 -0.14794
 C139 C 0.14714 1.00562 -0.14430
 C140 C -0.01501 1.13841 -0.14499
 C141 C 0.01761 0.85087 -0.14764
 H142 H 0.07894 1.08600 -0.08338
 O143 O 0.05389 1.05622 -0.05655
 H144 H -0.07573 0.90166 -0.08661
 O145 O -0.05134 0.93115 -0.05872
 O146 O 0.16486 1.00908 0.08689
 O147 O -0.16531 0.97710 0.08339
 O148 O 0.07426 1.16390 0.00493
 O149 O 0.10157 0.83663 -0.00021
 O150 O -0.07225 0.82218 0.00040
 O151 O -0.09908 1.15020 -0.00060
 O152 O -0.00738 1.07554 0.16685
 O153 O 0.00270 0.90650 0.16441
 O154 O -0.00950 1.15497 0.09096
 O155 O 0.01183 0.82884 0.08684
 O156 O 0.15806 1.09215 0.00544
 O157 O -0.17052 1.06603 -0.00628
 O158 O -0.15665 0.89345 -0.00032
 O159 O 0.17245 0.92092 -0.00172
 O160 O 0.08621 0.99991 0.16410
 O161 O -0.08810 0.98135 0.16286
 Zr162 Zr 0.11288 1.00240 0.00089
 Zr163 Zr -0.11185 0.98372 -0.00177
 Zr164 Zr -0.00856 1.10546 0.00160
 Zr165 Zr 0.01037 0.88079 -0.00058
 Zr166 Zr -0.00086 0.99185 0.11223
 O167 O -0.05327 0.92982 0.05665
 O168 O 0.05321 1.05481 0.05938
 C169 C 0.14524 1.00699 0.14557
 C170 C -0.14697 0.97605 0.14281
 C171 C 0.13490 1.14946 0.00739
 C172 C 0.15915 0.86053 -0.00036
 C173 C -0.13301 0.83624 -0.00002
 C174 C -0.15633 1.12631 -0.00524
 C175 C -0.00725 1.13483 0.15014
 C176 C 0.00840 0.84785 0.14621
 H177 H -0.09256 1.06992 0.08495
 O178 O -0.06276 1.04538 0.05758
 H179 H 0.09195 0.91515 0.08572
 O180 O 0.06265 0.94001 0.05802
 C181 C 0.25998 1.06743 0.27479
 C182 C 0.28644 1.00789 0.29631
 C183 C 0.26311 0.95139 0.26754
 C184 C 0.21793 0.95269 0.21884
 C185 C 0.19463 1.01012 0.19546
 C186 C 0.21656 1.06818 0.22164
 C187 C 0.26959 1.12540 0.30838
 C188 C 0.24500 1.18270 0.28511
 C189 C 0.20863 1.18368 0.22913
 C190 C 0.19378 1.12694 0.19783
 H191 H 0.29404 1.12713 0.35410
 H192 H 0.25368 1.22654 0.31109
 H193 H 0.18983 1.22832 0.21133
 H194 H 0.16265 1.12921 0.15620
 H195 H 0.28223 0.90504 0.27984
 H196 H 0.20189 0.90802 0.19823
 C197 C -0.24388 0.93073 0.29179
 C198 C -0.29485 0.97513 0.28577
 C199 C -0.29722 1.01581 0.23276
 C200 C -0.24962 1.01393 0.18624
 C201 C -0.19801 0.97150 0.19147
 C202 C -0.19564 0.92807 0.24353
 C203 C -0.23920 0.88958 0.34519
 C204 C -0.18964 0.84514 0.34956
 C205 C -0.14417 0.84064 0.30100
 C206 C -0.14709 0.88143 0.24832
 H207 H -0.27355 0.89132 0.38397
 H208 H -0.18681 0.81367 0.39059
 H209 H -0.10646 0.80537 0.30420
 H210 H -0.11171 0.87538 0.21112
 H211 H -0.33582 1.05008 0.22794
 H212 H -0.25216 1.04726 0.14661
 C213 C -0.22938 0.95753 -0.31023
 C214 C -0.29096 0.98066 -0.29345
 C215 C -0.30343 0.99930 -0.23049
 C216 C -0.25558 0.99670 -0.18409
 C217 C -0.19340 0.97560 -0.19903
 C218 C -0.18069 0.95273 -0.26228
 C219 C -0.21497 0.93983 -0.37407
 C220 C -0.15540 0.91420 -0.38969
 C221 C -0.10931 0.90540 -0.34226
 C222 C -0.12165 0.92416 -0.27935
 H223 H -0.24939 0.94564 -0.41257
 H224 H -0.14529 0.90030 -0.43866
 H225 H -0.06366 0.88383 -0.35422
 H226 H -0.08479 0.91404 -0.24476
 H227 H -0.35057 1.01671 -0.21729
 H228 H -0.26714 1.01323 -0.13626
 C229 C 0.23616 1.04304 -0.29996
 C230 C 0.29268 1.00646 -0.28973
 C231 C 0.30026 0.97266 -0.23235
 C232 C 0.25308 0.97410 -0.18543
 C233 C 0.19730 1.01035 -0.19385
 C234 C 0.18958 1.04743 -0.25030
 C235 C 0.22417 1.07455 -0.35875
 C236 C 0.17055 1.11360 -0.36633
 C237 C 0.12795 1.12212 -0.31581
 C238 C 0.13723 1.08957 -0.25829
 H239 H 0.25554 1.06905 -0.39958
 H240 H 0.16242 1.13792 -0.41140
 H241 H 0.08727 1.15376 -0.32132
 H242 H 0.10371 1.09885 -0.22005
 H243 H 0.34303 0.94446 -0.22398
 H244 H 0.25976 0.94568 -0.14253
 C245 C 0.22113 1.30734 0.04536
 C246 C 0.27670 1.29962 0.00667
 C247 C 0.28337 1.24433 -0.03025
 C248 C 0.23695 1.19674 -0.02893
 C249 C 0.18237 1.20216 0.00996
 C250 C 0.17486 1.25726 0.04891
 C251 C 0.21011 1.36401 0.08024
 C252 C 0.15763 1.36945 0.12122
 C253 C 0.11514 1.31889 0.12822
 C254 C 0.12350 1.26334 0.09258
 H255 H 0.24149 1.40479 0.07595
 H256 H 0.15028 1.41290 0.14819
 H257 H 0.07541 1.32278 0.16134
 H258 H 0.09027 1.22502 0.10097
 H259 H 0.32537 1.23762 -0.06006
 H260 H 0.24373 1.15515 -0.05897
 C261 C 0.32086 0.77761 0.03504
 C262 C 0.31189 0.72111 -0.00108
 C263 C 0.25520 0.71282 -0.03624
 C264 C 0.20691 0.75851 -0.03496
 C265 C 0.21359 0.81463 0.00100
 C266 C 0.27096 0.82421 0.03738
 C267 C 0.37855 0.78860 0.06909
 C268 C 0.38614 0.84281 0.10690
 C269 C 0.33653 0.88673 0.11186
 C270 C 0.27948 0.87756 0.07792
 H271 H 0.41833 0.75559 0.06663
 H272 H 0.43050 0.85044 0.13300
 H273 H 0.34224 0.92818 0.14228
 H274 H 0.24227 0.91221 0.08521
 H275 H 0.24751 0.66965 -0.06374
 H276 H 0.16350 0.74959 -0.06225
 C277 C -0.22261 0.68109 -0.04040
 C278 C -0.27536 0.68635 0.00290
 C279 C -0.27623 0.73745 0.04649
 C280 C -0.22972 0.78503 0.04446
 C281 C -0.17974 0.78299 -0.00027
 C282 C -0.17573 0.73066 -0.04331
 C283 C -0.21304 0.62581 -0.07814
 C284 C -0.16235 0.62186 -0.12139
 C285 C -0.11976 0.67233 -0.12773
 C286 C -0.12633 0.72636 -0.08947
 H287 H -0.24341 0.58434 -0.07353
 H288 H -0.15602 0.57934 -0.15007
 H289 H -0.08073 0.66900 -0.16168
 H290 H -0.09220 0.76428 -0.09656
 H291 H -0.31515 0.74262 0.08048
 H292 H -0.23307 0.82429 0.07809
 C293 C -0.29704 1.22611 -0.06696
 C294 C -0.30902 1.26412 -0.01173
 C295 C -0.27252 1.25364 0.04402
 C296 C -0.22396 1.20813 0.04537
 C297 C -0.20981 1.17198 -0.00911
 C298 C -0.24561 1.18129 -0.06618
 C299 C -0.33496 1.23142 -0.12300
 C300 C -0.31939 1.19743 -0.17833
 C301 C -0.26647 1.15704 -0.17875
 C302 C -0.23027 1.14824 -0.12308
 H303 H -0.37699 1.26159 -0.12458
 H304 H -0.34830 1.20275 -0.22124
 H305 H -0.25392 1.13180 -0.22223
 H306 H -0.19003 1.11578 -0.12508
 H307 H -0.28028 1.28239 0.08647
 H308 H -0.19638 1.20178 0.08909
 C309 C 0.01294 1.21684 0.31533
 C310 C -0.01663 1.27665 0.30235
 C311 C -0.04395 1.28627 0.24121
 C312 C -0.03936 1.24044 0.19306
 C313 C -0.00663 1.18304 0.20314
 C314 C 0.02173 1.17181 0.26472
 C315 C 0.03103 1.19914 0.37845
 C316 C 0.06517 1.14337 0.39004
 C317 C 0.08099 1.10351 0.33943
 C318 C 0.05927 1.11724 0.27774
 H319 H 0.01830 1.22774 0.41964
 H320 H 0.07996 1.13140 0.43839
 H321 H 0.10941 1.06119 0.34805
 H322 H 0.07408 1.08529 0.24070
 H323 H -0.06677 1.33099 0.22901
 H324 H -0.06164 1.25031 0.14709
 C325 C -0.05007 1.22180 -0.30518
 C326 C -0.01062 1.27713 -0.29855
 C327 C 0.02525 1.28425 -0.24146
 C328 C 0.02113 1.24027 -0.19169
 C329 C -0.01936 1.18739 -0.19617
 C330 C -0.05710 1.17896 -0.25241
 C331 C -0.07961 1.20547 -0.36420
 C332 C -0.12167 1.15401 -0.36857
 C333 C -0.13423 1.11696 -0.31487
 C334 C -0.10193 1.12874 -0.25747
 H335 H -0.06975 1.23142 -0.40783
 H336 H -0.14493 1.14307 -0.41378
 H337 H -0.16834 1.07830 -0.31808
 H338 H -0.11305 1.09875 -0.21702
 H339 H 0.05533 1.32564 -0.23367
 H340 H 0.05070 1.24732 -0.14939
 C341 C 0.07753 0.72214 -0.26310
 C342 C 0.01784 0.70394 -0.29226
 C343 C -0.03837 0.73596 -0.27302
 C344 C -0.03692 0.78367 -0.22696
 C345 C 0.02072 0.80246 -0.19865
 C346 C 0.07873 0.77317 -0.21753
 C347 C 0.13526 0.68822 -0.27372
 C348 C 0.19294 0.70797 -0.24585
 C349 C 0.19443 0.76075 -0.20555
 C350 C 0.13784 0.79276 -0.19076
 H351 H 0.13662 0.64514 -0.30191
 H352 H 0.23669 0.68180 -0.25520
 H353 H 0.23939 0.77594 -0.18426
 H354 H 0.14063 0.83250 -0.15770
 H355 H -0.08448 0.72459 -0.29437
 H356 H -0.08173 0.80544 -0.21249
 C357 C 0.03559 0.76203 0.30703
 C358 C -0.00059 0.70619 0.29560
 C359 C -0.03058 0.69720 0.23615
 C360 C -0.02571 0.74295 0.18804
 C361 C 0.00973 0.79897 0.19769
 C362 C 0.04190 0.80839 0.25752
 C363 C 0.06639 0.77221 0.36665
 C364 C 0.10362 0.82637 0.37710
 C365 C 0.11165 0.87072 0.32832
 C366 C 0.08181 0.86168 0.26902
 H367 H 0.06198 0.73845 0.40562
 H368 H 0.12696 0.83359 0.42301
 H369 H 0.14150 0.91220 0.33634
 H370 H 0.09174 0.89625 0.23235
 H371 H -0.05774 0.65414 0.22683
 H372 H -0.05080 0.73493 0.14313
   
