data_POSCAR
  _audit_creation_date              2014-09-24
  _audit_creation_method            'ToBaCCo'
  _symmetry_space_group_name_H-M    'P1'
  _symmetry_Int_Tables_number       1
  _symmetry_cell_setting            triclinic
  loop_
  _symmetry_equiv_pos_as_xyz
 x,y,z
_cell_length_a 36.0664
_cell_length_b 36.0956
_cell_length_c 28.7880
_cell_angle_alpha 90.108700
_cell_angle_beta 90.006400
_cell_angle_gamma 90.874500
loop_
  _atom_site_label
  _atom_site_type_symbol
  _atom_site_fract_x
  _atom_site_fract_y
  _atom_site_fract_z
O1 O 0.03655 0.31472 -0.03814
 O2 O -0.03868 0.31177 0.04913
 O3 O 0.03489 0.31336 0.05230
 O4 O -0.03626 0.31386 -0.04008
 O5 O -0.03635 0.25264 -0.04060
 O6 O 0.03574 0.25228 0.04906
 O7 O -0.03541 0.25083 0.05053
 O8 O 0.03541 0.25361 -0.04054
 Cu9 Cu -0.00079 0.31965 0.00613
 Cu10 Cu -0.00030 0.24625 0.00434
 C11 C 0.04870 0.28443 -0.05432
 C12 C -0.04977 0.28063 0.06490
 C13 C 0.04779 0.28264 0.06595
 C14 C -0.04860 0.28314 -0.05567
 O15 O 0.46602 0.81541 0.53928
 O16 O 0.53896 0.81281 0.44912
 O17 O 0.46595 0.81347 0.44886
 O18 O 0.53916 0.81461 0.53882
 O19 O 0.53672 0.75344 0.54109
 O20 O 0.46498 0.75234 0.45084
 O21 O 0.53655 0.75161 0.45062
 O22 O 0.46491 0.75429 0.54087
 Cu23 Cu 0.50261 0.82028 0.49388
 Cu24 Cu 0.50066 0.74684 0.49610
 C25 C 0.45286 0.78513 0.55521
 C26 C 0.55019 0.78163 0.43474
 C27 C 0.45295 0.78254 0.43460
 C28 C 0.55054 0.78407 0.55493
 O29 O 1.03977 0.68528 0.03578
 O30 O 0.96403 0.68890 -0.05063
 O31 O 1.03411 0.69069 -0.05690
 O32 O 0.96440 0.68467 0.03759
 O33 O 0.96405 0.74577 0.04044
 O34 O 1.04568 0.74809 -0.03472
 O35 O 0.97060 0.74973 -0.04990
 O36 O 1.03156 0.74425 0.05200
 Cu37 Cu 1.00134 0.68092 -0.00800
 Cu38 Cu 1.00303 0.75327 0.00040
 C39 C 1.04782 0.71397 0.05984
 C40 C 0.95496 0.72051 -0.06574
 C41 C 1.05340 0.72035 -0.05990
 C42 C 0.95111 0.71462 0.05353
 O43 O 0.53414 0.18527 0.55063
 O44 O 0.46065 0.18331 0.46112
 O45 O 0.53369 0.18393 0.46032
 O46 O 0.46111 0.18475 0.55095
 O47 O 0.46262 0.24598 0.55007
 O48 O 0.53367 0.24508 0.45917
 O49 O 0.46207 0.24452 0.45948
 O50 O 0.53423 0.24641 0.54908
 Cu51 Cu 0.49738 0.17810 0.50589
 Cu52 Cu 0.49812 0.25159 0.50432
 C53 C 0.54683 0.21632 0.56491
 C54 C 0.44888 0.21376 0.44523
 C55 C 0.54615 0.21453 0.44447
 C56 C 0.44954 0.21567 0.56578
 O57 O 0.68535 0.03363 -0.04298
 O58 O 0.68746 -0.04236 0.04322
 O59 O 0.68428 0.03089 0.04688
 O60 O 0.68731 -0.03893 -0.04682
 O61 O 0.74848 -0.03594 -0.04547
 O62 O 0.74552 0.03336 0.04752
 O63 O 0.74848 -0.03828 0.04451
 O64 O 0.74663 0.03532 -0.04298
 Cu65 Cu 0.67989 -0.00450 0.00020
 Cu66 Cu 0.75335 -0.00102 0.00111
 C67 C 0.71587 0.04714 -0.05780
 C68 C 0.71852 -0.05362 0.05826
 C69 C 0.71451 0.04429 0.06269
 C70 C 0.71854 -0.04939 -0.06202
 O71 O 0.18866 0.53737 0.45911
 O72 O 0.18889 0.46529 0.54989
 O73 O 0.18986 0.53805 0.54980
 O74 O 0.18859 0.46435 0.46025
 O75 O 0.24985 0.46569 0.45921
 O76 O 0.25102 0.53833 0.54847
 O77 O 0.25017 0.46680 0.54968
 O78 O 0.24984 0.53730 0.45828
 Cu79 Cu 0.18278 0.50133 0.50479
 Cu80 Cu 0.25631 0.50209 0.50381
 C81 C 0.21934 0.54962 0.44322
 C82 C 0.21969 0.45378 0.56505
 C83 C 0.22083 0.55075 0.56440
 C84 C 0.21917 0.45235 0.44482
 O85 O 0.30805 1.03836 0.04883
 O86 O 0.30994 0.96887 -0.04581
 O87 O 0.30881 1.04142 -0.04083
 O88 O 0.31050 0.96514 0.04436
 O89 O 0.24925 0.96333 0.04434
 O90 O 0.24771 1.03852 -0.04106
 O91 O 0.24866 0.96747 -0.04641
 O92 O 0.24699 1.03500 0.04892
 Cu93 Cu 0.31552 1.00356 0.00183
 Cu94 Cu 0.24208 1.00071 0.00159
 C95 C 0.27700 1.04905 0.06458
 C96 C 0.27945 0.95674 -0.06245
 C97 C 0.27785 1.05315 -0.05544
 C98 C 0.28005 0.95121 0.05868
 O99 O 0.81406 0.46113 0.45626
 O100 O 0.81573 0.53629 0.54336
 O101 O 0.81422 0.46321 0.54644
 O102 O 0.81424 0.53406 0.45353
 O103 O 0.75298 0.53289 0.45413
 O104 O 0.75304 0.46351 0.54697
 O105 O 0.75447 0.53523 0.54470
 O106 O 0.75286 0.46139 0.45706
 Cu107 Cu 0.82077 0.49869 0.49986
 Cu108 Cu 0.74725 0.49831 0.50085
 C109 C 0.78307 0.44835 0.44198
 C110 C 0.78527 0.54862 0.55862
 C111 C 0.78342 0.45106 0.56222
 C112 C 0.78342 0.54549 0.43814
 C113 C 0.19874 0.22770 0.12674
 C114 C 0.22467 0.20036 0.12661
 C115 C 0.24019 0.19996 0.17068
 N116 N 0.22473 0.22630 0.19760
 C117 C 0.19937 0.24327 0.17079
 C118 C 0.26595 0.17360 0.18639
 C119 C 0.28626 0.17796 0.22819
 C120 C 0.30768 0.15080 0.24840
 C121 C 0.32462 0.16666 0.28651
 C122 C 0.31252 0.20291 0.28919
 N123 N 0.28951 0.20966 0.25320
 C124 C 0.32442 0.22921 0.32277
 C125 C 0.30605 0.26294 0.33177
 C126 C 0.31745 0.28891 0.36457
 C127 C 0.29162 0.31627 0.36462
 C128 C 0.26509 0.30637 0.33183
 N129 N 0.27371 0.27343 0.31230
 C130 C 0.23253 0.32667 0.32280
 C131 C 0.20592 0.31632 0.28883
 C132 C 0.17055 0.33070 0.28548
 C133 C 0.15400 0.31441 0.24740
 C134 C 0.17990 0.29103 0.22793
 N135 N 0.21153 0.29258 0.25318
 C136 C 0.17454 0.27049 0.18653
 H137 H 0.18120 0.23511 0.09779
 H138 H 0.23111 0.18258 0.09749
 H139 H 0.23669 0.28119 0.24379
 H140 H 0.31116 0.12256 0.23672
 H141 H 0.34369 0.15287 0.30947
 H142 H 0.34142 0.28800 0.38711
 H143 H 0.29208 0.34028 0.38718
 H144 H 0.12619 0.31962 0.23519
 H145 H 0.27998 0.23549 0.24344
 H146 H 0.15779 0.35088 0.30794
 C147 C 0.68182 0.70341 0.35310
 C148 C 0.70803 0.67642 0.35299
 C149 C 0.73378 0.68606 0.31915
 N150 N 0.72430 0.71850 0.29913
 C151 C 0.69221 0.72893 0.31940
 C152 C 0.76651 0.66607 0.30970
 C153 C 0.79229 0.67596 0.27456
 C154 C 0.82770 0.66180 0.27044
 C155 C 0.84345 0.67770 0.23166
 C156 C 0.81706 0.70069 0.21259
 N157 N 0.78585 0.69916 0.23867
 C158 C 0.82183 0.72123 0.17115
 C159 C 0.79660 0.74818 0.15576
 C160 C 0.79719 0.76415 0.11201
 C161 C 0.77109 0.79134 0.11234
 C162 C 0.75551 0.79125 0.15636
 N163 N 0.77109 0.76476 0.18281
 C164 C 0.72974 0.81748 0.17256
 C165 C 0.70974 0.81308 0.21458
 C166 C 0.68835 0.84021 0.23504
 C167 C 0.67196 0.82449 0.27349
 C168 C 0.68438 0.78836 0.27620
 N169 N 0.70698 0.78151 0.23979
 C170 C 0.67330 0.76233 0.31043
 H171 H 0.65831 0.70443 0.37638
 H172 H 0.70836 0.65287 0.37615
 H173 H 0.71669 0.75570 0.23008
 H174 H 0.84103 0.64207 0.29292
 H175 H 0.87111 0.67261 0.21884
 H176 H 0.81492 0.75720 0.08303
 H177 H 0.76467 0.80943 0.08359
 H178 H 0.65308 0.83835 0.29669
 H179 H 0.76049 0.71040 0.22995
 H180 H 0.68458 0.86838 0.22339
 C181 C 0.78285 0.18259 0.13687
 C182 C 0.80997 0.20942 0.13645
 C183 C 0.80312 0.23287 0.17365
 N184 N 0.77184 0.22156 0.19587
 C185 C 0.75975 0.19041 0.17398
 C186 C 0.82542 0.26442 0.18532
 C187 C 0.81712 0.28952 0.22186
 C188 C 0.83476 0.32354 0.22904
 C189 C 0.81844 0.33952 0.26706
 C190 C 0.79194 0.31451 0.28323
 N191 N 0.79165 0.28402 0.25579
 C192 C 0.76999 0.31996 0.32342
 C193 C 0.74150 0.29533 0.33827
 C194 C 0.72413 0.29717 0.38117
 C195 C 0.69676 0.27049 0.38109
 C196 C 0.69819 0.25316 0.33813
 N197 N 0.72557 0.26839 0.31203
 C198 C 0.67276 0.22547 0.32292
 C199 C 0.67756 0.20407 0.28218
 C200 C 0.65126 0.17957 0.26419
 C201 C 0.66693 0.16323 0.22593
 C202 C 0.70216 0.17870 0.22090
 N203 N 0.70860 0.20306 0.25582
 C204 C 0.72752 0.16929 0.18541
 H205 H 0.78009 0.16031 0.11183
 H206 H 0.83182 0.21155 0.11082
 H207 H 0.73392 0.21535 0.26378
 H208 H 0.85713 0.33602 0.20931
 H209 H 0.82576 0.36637 0.28142
 H210 H 0.73046 0.31589 0.40960
 H211 H 0.67786 0.26464 0.40943
 H212 H 0.65358 0.14249 0.20424
 H213 H 0.77723 0.25962 0.26227
 H214 H 0.62369 0.17378 0.27739
 C215 C 0.21101 0.81011 0.13223
 C216 C 0.18433 0.78282 0.13275
 C217 C 0.19346 0.75862 0.16824
 N218 N 0.22556 0.76999 0.18857
 C219 C 0.23600 0.80189 0.16719
 C220 C 0.17260 0.72619 0.17983
 C221 C 0.18266 0.70109 0.21535
 C222 C 0.16708 0.66603 0.22159
 C223 C 0.18382 0.65094 0.25990
 C224 C 0.20862 0.67740 0.27679
 N225 N 0.20747 0.70794 0.24967
 C226 C 0.23018 0.67338 0.31752
 C227 C 0.25799 0.69902 0.33175
 C228 C 0.27510 0.69878 0.37489
 C229 C 0.30216 0.72577 0.37382
 C230 C 0.30075 0.74169 0.33008
 N231 N 0.27372 0.72528 0.30442
 C232 C 0.32599 0.76906 0.31375
 C233 C 0.32059 0.78955 0.27250
 C234 C 0.34654 0.81372 0.25323
 C235 C 0.33010 0.82949 0.21513
 C236 C 0.29476 0.81398 0.21149
 N237 N 0.28905 0.79014 0.24703
 C238 C 0.26843 0.82324 0.17707
 H239 H 0.21214 0.83300 0.10803
 H240 H 0.16121 0.78088 0.10890
 H241 H 0.26385 0.77805 0.25609
 H242 H 0.14582 0.65245 0.20098
 H243 H 0.17794 0.62371 0.27399
 H244 H 0.26887 0.68087 0.40406
 H245 H 0.32087 0.73276 0.40202
 H246 H 0.34298 0.84998 0.19276
 H247 H 0.21999 0.73330 0.25695
 H248 H 0.37432 0.81977 0.26557
 C249 C 0.81739 0.20900 0.86219
 C250 C 0.79019 0.18220 0.86238
 C251 C 0.76435 0.19225 0.82922
 N252 N 0.77477 0.22473 0.80929
 C253 C 0.80754 0.23478 0.82888
 C254 C 0.73089 0.17238 0.82011
 C255 C 0.70458 0.18306 0.78638
 C256 C 0.66869 0.16889 0.78307
 C257 C 0.65258 0.18549 0.74533
 C258 C 0.67921 0.20890 0.72603
 N259 N 0.71087 0.20702 0.75107
 C260 C 0.67430 0.22982 0.68502
 C261 C 0.69987 0.25715 0.66941
 C262 C 0.69883 0.27373 0.62603
 C263 C 0.72605 0.30059 0.62582
 C264 C 0.74291 0.29960 0.66907
 N265 N 0.72686 0.27301 0.69568
 C266 C 0.77074 0.32485 0.68426
 C267 C 0.79194 0.31969 0.72505
 C268 C 0.81595 0.34596 0.74405
 C269 C 0.83241 0.32974 0.78183
 C270 C 0.81757 0.29416 0.78546
 N271 N 0.79336 0.28812 0.75027
 C272 C 0.82784 0.26789 0.81943
 H273 H 0.84125 0.20965 0.88496
 H274 H 0.78930 0.15848 0.88528
 H275 H 0.78150 0.26277 0.74123
 H276 H 0.65531 0.14865 0.80536
 H277 H 0.62452 0.18052 0.73326
 H278 H 0.68022 0.26729 0.59754
 H279 H 0.73255 0.31894 0.59716
 H280 H 0.85299 0.34287 0.80396
 H281 H 0.73639 0.21832 0.74169
 H282 H 0.82138 0.37384 0.73179
 C283 C 0.27315 0.70427 0.61990
 C284 C 0.29939 0.73210 0.61774
 C285 C 0.29900 0.74986 0.66046
 N286 N 0.27346 0.73385 0.68865
 C287 C 0.25775 0.70587 0.66397
 C288 C 0.32444 0.77784 0.67446
 C289 C 0.31867 0.80018 0.71407
 C290 C 0.34509 0.82328 0.73446
 C291 C 0.32777 0.84126 0.77051
 C292 C 0.29133 0.82836 0.77135
 N293 N 0.28596 0.80373 0.73647
 C294 C 0.26327 0.84111 0.80141
 C295 C 0.22863 0.82259 0.80584
 C296 C 0.19727 0.83717 0.82636
 C297 C 0.17128 0.80911 0.82789
 C298 C 0.18797 0.77785 0.80990
 N299 N 0.22286 0.78632 0.79587
 C300 C 0.17308 0.74130 0.81177
 C301 C 0.18749 0.71284 0.78332
 C302 C 0.18130 0.67506 0.78906
 C303 C 0.19756 0.65763 0.75177
 C304 C 0.21387 0.68517 0.72491
 N305 N 0.20761 0.71865 0.74425
 C306 C 0.23265 0.67941 0.68258
 H307 H 0.26671 0.68464 0.59251
 H308 H 0.31714 0.73823 0.58833
 H309 H 0.21342 0.74422 0.72895
 H310 H 0.37377 0.82706 0.72423
 H311 H 0.34054 0.86179 0.79305
 H312 H 0.19331 0.86492 0.83939
 H313 H 0.14356 0.81132 0.84191
 H314 H 0.19766 0.62807 0.74539
 H315 H 0.26051 0.79281 0.72569
 H316 H 0.16660 0.66133 0.81705
 C317 C 0.29364 0.32105 0.64842
 C318 C 0.31958 0.29380 0.64843
 C319 C 0.30846 0.26806 0.68151
 N320 N 0.27620 0.27858 0.70123
 C321 C 0.26733 0.31129 0.68153
 C322 C 0.32685 0.23438 0.69041
 C323 C 0.31514 0.20846 0.72437
 C324 C 0.32692 0.17211 0.72708
 C325 C 0.31009 0.15665 0.76542
 C326 C 0.28909 0.18416 0.78574
 N327 N 0.29250 0.21568 0.76062
 C328 C 0.26895 0.18022 0.82766
 C329 C 0.24351 0.20679 0.84358
 C330 C 0.22804 0.20728 0.88767
 C331 C 0.20188 0.23438 0.88749
 C332 C 0.20241 0.24972 0.84340
 N333 N 0.22788 0.23285 0.81662
 C334 C 0.17720 0.27637 0.82741
 C335 C 0.18243 0.29666 0.78594
 C336 C 0.15629 0.31954 0.76617
 C337 C 0.17266 0.33546 0.72782
 C338 C 0.20817 0.32135 0.72468
 N339 N 0.21405 0.29821 0.76069
 C340 C 0.23463 0.33139 0.69048
 H341 H 0.29385 0.34485 0.62564
 H342 H 0.34338 0.29277 0.62563
 H343 H 0.23936 0.28717 0.77012
 H344 H 0.34565 0.15798 0.70396
 H345 H 0.31334 0.12842 0.77714
 H346 H 0.23453 0.18955 0.91676
 H347 H 0.18417 0.24170 0.91633
 H348 H 0.15969 0.35520 0.70502
 H349 H 0.28323 0.24164 0.77042
 H350 H 0.12843 0.32461 0.77832
 C351 C 0.71269 0.68439 0.63461
 C352 C 0.68582 0.71073 0.63443
 C353 C 0.69627 0.73727 0.66698
 N354 N 0.72908 0.72817 0.68642
 C355 C 0.73893 0.69550 0.66721
 C356 C 0.67644 0.77013 0.67607
 C357 C 0.68722 0.79679 0.70981
 C358 C 0.67274 0.83209 0.71353
 C359 C 0.68936 0.84867 0.75136
 C360 C 0.71313 0.82291 0.77023
 N361 N 0.71145 0.79132 0.74492
 C362 C 0.73405 0.82836 0.81128
 C363 C 0.76188 0.80399 0.82633
 C364 C 0.77832 0.80512 0.86986
 C365 C 0.80564 0.77920 0.86951
 C366 C 0.80502 0.76306 0.82579
 N367 N 0.77826 0.77827 0.79941
 C368 C 0.83044 0.73636 0.81016
 C369 C 0.82519 0.71528 0.76912
 C370 C 0.85144 0.69223 0.74977
 C371 C 0.83484 0.67486 0.71247
 C372 C 0.79905 0.68824 0.70943
 N373 N 0.79331 0.71252 0.74444
 C374 C 0.77221 0.67641 0.67647
 H375 H 0.71309 0.66024 0.61232
 H376 H 0.66175 0.71055 0.61202
 H377 H 0.76791 0.72322 0.75402
 H378 H 0.65219 0.84473 0.69155
 H379 H 0.68411 0.87640 0.76383
 H380 H 0.77144 0.82286 0.89886
 H381 H 0.82390 0.77300 0.89821
 H382 H 0.84782 0.65456 0.69038
 H383 H 0.72299 0.76625 0.75411
 H384 H 0.87951 0.68790 0.76165
 C385 C 0.30733 0.09822 0.11057
 C386 C 0.27545 0.07731 0.09824
 C387 C 0.24127 0.08676 0.11842
 C388 C 0.23878 0.11689 0.14860
 C389 C 0.27011 0.13902 0.15853
 C390 C 0.30455 0.12908 0.13992
 H391 H 0.33416 0.09185 0.09593
 H392 H 0.21613 0.07120 0.11047
 H393 H 0.21202 0.12378 0.16307
 H394 H 0.32909 0.14577 0.14719
 C395 C 0.80871 0.61042 0.58522
 C396 C 0.78526 0.57950 0.59194
 C397 C 0.75964 0.57957 0.62858
 C398 C 0.75702 0.61041 0.65764
 C399 C 0.77912 0.64207 0.64953
 C400 C 0.80522 0.64180 0.61338
 H401 H 0.82837 0.61099 0.55676
 H402 H 0.74131 0.55596 0.63425
 H403 H 0.73662 0.61028 0.68526
 H404 H 0.82217 0.66618 0.60634
 C405 C 0.68844 0.89467 0.09979
 C406 C 0.72021 0.91629 0.08918
 C407 C 0.75443 0.90607 0.10862
 C408 C 0.75699 0.87482 0.13678
 C409 C 0.72568 0.85238 0.14547
 C410 C 0.69127 0.86276 0.12718
 H411 H 0.66160 0.90155 0.08560
 H412 H 0.77952 0.92205 0.10188
 H413 H 0.78372 0.86757 0.15101
 H414 H 0.66676 0.84581 0.13352
 C415 C 0.19693 0.39316 0.59589
 C416 C 0.22045 0.42432 0.60010
 C417 C 0.24668 0.42587 0.63605
 C418 C 0.24980 0.39636 0.66697
 C419 C 0.22757 0.36443 0.66141
 C420 C 0.20091 0.36309 0.62591
 H421 H 0.17680 0.39137 0.56802
 H422 H 0.26504 0.44972 0.63979
 H423 H 0.27061 0.39770 0.69409
 H424 H 0.18382 0.33846 0.62091
 C425 C 0.91713 0.24725 0.12591
 C426 C 0.92142 0.27871 0.09750
 C427 C 0.89513 0.30704 0.10070
 C428 C 0.86377 0.30253 0.12891
 C429 C 0.85967 0.27109 0.15726
 C430 C 0.88735 0.24419 0.15662
 H431 H 0.93706 0.22511 0.12485
 H432 H 0.89738 0.33148 0.07902
 H433 H 0.84244 0.32332 0.12815
 H434 H 0.88484 0.21980 0.17834
 C435 C 0.41396 0.75282 0.61475
 C436 C 0.42248 0.78523 0.58973
 C437 C 0.40016 0.81651 0.59577
 C438 C 0.36884 0.81470 0.62454
 C439 C 0.35967 0.78173 0.64795
 C440 C 0.38303 0.75118 0.64375
 H441 H 0.43079 0.72838 0.61116
 H442 H 0.40604 0.84182 0.57685
 H443 H 0.35111 0.83854 0.62737
 H444 H 0.37655 0.72560 0.66186
 C445 C 0.07849 0.74184 0.12695
 C446 C 0.07572 0.71319 0.09379
 C447 C 0.10329 0.68595 0.09298
 C448 C 0.13462 0.68948 0.12156
 C449 C 0.13773 0.71891 0.15339
 C450 C 0.10863 0.74404 0.15716
 H451 H 0.05756 0.76298 0.12922
 H452 H 0.10214 0.66357 0.06787
 H453 H 0.15694 0.66996 0.11785
 H454 H 0.11043 0.76679 0.18171
 C455 C 0.58451 0.25104 0.62367
 C456 C 0.57721 0.21795 0.59932
 C457 C 0.60062 0.18761 0.60601
 C458 C 0.63174 0.19097 0.63489
 C459 C 0.63956 0.22453 0.65787
 C460 C 0.61523 0.25419 0.65288
 H461 H 0.56682 0.27478 0.61949
 H462 H 0.59569 0.16183 0.58756
 H463 H 0.65029 0.16782 0.63835
 H464 H 0.62074 0.28021 0.67059
 C465 C 0.74183 0.07691 0.87131
 C466 C 0.71612 0.07727 0.90786
 C467 C 0.69297 0.10789 0.91333
 C468 C 0.69693 0.13863 0.88403
 C469 C 0.72323 0.13851 0.84805
 C470 C 0.74493 0.10704 0.84118
 H471 H 0.75991 0.05351 0.86655
 H472 H 0.67323 0.10878 0.94165
 H473 H 0.68025 0.16285 0.89011
 H474 H 0.76546 0.10659 0.81373
 C475 C 0.25232 0.58508 0.38112
 C476 C 0.22008 0.57901 0.40760
 C477 C 0.18978 0.60259 0.40153
 C478 C 0.19243 0.63277 0.37113
 C479 C 0.22520 0.63937 0.34599
 C480 C 0.25474 0.61480 0.35039
 H481 H 0.27598 0.56718 0.38476
 H482 H 0.16465 0.59857 0.42160
 H483 H 0.16943 0.65156 0.36820
 H484 H 0.28016 0.61944 0.33109
 C485 C 0.25669 0.93452 0.86065
 C486 C 0.27931 0.92938 0.89971
 C487 C 0.29926 0.89654 0.90412
 C488 C 0.29486 0.86825 0.87123
 C489 C 0.27137 0.87292 0.83282
 C490 C 0.25335 0.90676 0.82691
 H491 H 0.24117 0.95978 0.85670
 H492 H 0.31662 0.89204 0.93423
 H493 H 0.30888 0.84225 0.87641
 H494 H 0.23532 0.91092 0.79734
 C495 C 0.74947 0.41107 0.38196
 C496 C 0.78167 0.41743 0.40839
 C497 C 0.81129 0.39274 0.40445
 C498 C 0.80803 0.36133 0.37604
 C499 C 0.77539 0.35464 0.35064
 C500 C 0.74649 0.38013 0.35309
 H501 H 0.72632 0.42976 0.38410
 H502 H 0.83634 0.39694 0.42466
 H503 H 0.83053 0.34182 0.37465
 H504 H 0.72116 0.37540 0.33358
 C505 C 0.10273 0.31559 0.90582
 C506 C 0.07927 0.28443 0.91151
 C507 C 0.08679 0.25193 0.88652
 C508 C 0.11782 0.25009 0.85785
 C509 C 0.14218 0.28056 0.85388
 C510 C 0.13413 0.31360 0.87731
 H511 H 0.09763 0.34095 0.92478
 H512 H 0.06910 0.22757 0.88987
 H513 H 0.12355 0.22445 0.83977
 H514 H 0.15272 0.33734 0.87461
 C515 C 0.61186 0.80238 0.40442
 C516 C 0.57999 0.77983 0.40001
 C517 C 0.57803 0.75340 0.36427
 C518 C 0.60772 0.74920 0.33370
 C519 C 0.64028 0.77052 0.33936
 C520 C 0.64210 0.79731 0.37475
 H521 H 0.61401 0.82261 0.43217
 H522 H 0.55368 0.73573 0.36040
 H523 H 0.60597 0.72829 0.30672
 H524 H 0.66719 0.81366 0.37994
 C525 C 0.90132 0.69313 0.88995
 C526 C 0.92529 0.72342 0.89902
 C527 C 0.91929 0.75710 0.87603
 C528 C 0.88935 0.76074 0.84568
 C529 C 0.86457 0.73094 0.83821
 C530 C 0.87109 0.69694 0.86001
 H531 H 0.90517 0.66685 0.90725
 H532 H 0.93736 0.78086 0.88211
 H533 H 0.88478 0.78717 0.82903
 H534 H 0.85217 0.67371 0.85482
 C535 C 0.42055 0.23905 0.37353
 C536 C 0.41897 0.21390 0.41058
 C537 C 0.38725 0.19136 0.41645
 C538 C 0.35667 0.19545 0.38708
 C539 C 0.35801 0.22123 0.35064
 C540 C 0.39052 0.24225 0.34332
 H541 H 0.44480 0.25666 0.36850
 H542 H 0.38542 0.17209 0.44519
 H543 H 0.33162 0.17933 0.39349
 H544 H 0.39188 0.26239 0.31551
 C545 C 0.69059 0.89723 0.89370
 C546 C 0.72052 0.92185 0.90162
 C547 C 0.75355 0.91730 0.87652
 C548 C 0.75712 0.88790 0.84549
 C549 C 0.72796 0.86221 0.83945
 C550 C 0.69438 0.86743 0.86299
 H551 H 0.66486 0.90010 0.91266
 H552 H 0.77694 0.93604 0.88161
 H553 H 0.78316 0.88433 0.82738
 H554 H 0.67165 0.84776 0.85874
 C555 C 0.19557 0.39122 0.41563
 C556 C 0.21952 0.42198 0.41063
 C557 C 0.24591 0.42222 0.37481
 C558 C 0.24872 0.39193 0.34484
 C559 C 0.22599 0.36043 0.35115
 C560 C 0.19920 0.36036 0.38654
 H561 H 0.17531 0.39035 0.44340
 H562 H 0.26465 0.44569 0.37041
 H563 H 0.26962 0.39237 0.31782
 H564 H 0.18170 0.33613 0.39218
 C565 C 0.24261 0.09317 0.89333
 C566 C 0.27662 0.08279 0.91312
 C567 C 0.30882 0.10355 0.90192
 C568 C 0.30661 0.13494 0.87364
 C569 C 0.27242 0.14553 0.85503
 C570 C 0.24069 0.12382 0.86417
 H571 H 0.21725 0.07774 0.90048
 H572 H 0.33552 0.09643 0.91633
 H573 H 0.33141 0.15137 0.86695
 H574 H 0.21412 0.13132 0.84967
 C575 C 0.75572 0.57222 0.36670
 C576 C 0.78248 0.57430 0.40204
 C577 C 0.80607 0.60553 0.40477
 C578 C 0.80161 0.63514 0.37401
 C579 C 0.77431 0.63332 0.33925
 C580 C 0.75208 0.60124 0.33508
 H581 H 0.73726 0.54836 0.36403
 H582 H 0.82662 0.60780 0.43211
 H583 H 0.81875 0.65984 0.37799
 H584 H 0.73080 0.59946 0.30858
 C585 C 0.08333 0.70400 0.86675
 C586 C 0.08349 0.72281 0.90957
 C587 C 0.11434 0.74514 0.92124
 C588 C 0.14441 0.74834 0.89108
 C589 C 0.14289 0.73273 0.84628
 C590 C 0.11193 0.71031 0.83458
 H591 H 0.05987 0.68666 0.85676
 H592 H 0.11584 0.75914 0.95454
 H593 H 0.16844 0.76435 0.90226
 H594 H 0.10952 0.69810 0.80031
 C595 C 0.58275 0.24736 0.38325
 C596 C 0.57616 0.21517 0.40954
 C597 C 0.60000 0.18498 0.40435
 C598 C 0.63094 0.18771 0.37508
 C599 C 0.63808 0.22047 0.35022
 C600 C 0.61326 0.24987 0.35366
 H601 H 0.56469 0.27095 0.38626
 H602 H 0.59561 0.15990 0.42433
 H603 H 0.64989 0.16479 0.37283
 H604 H 0.61830 0.27527 0.33453
 C605 C 0.89134 0.30596 0.91356
 C606 C 0.92185 0.28253 0.90917
 C607 C 0.92261 0.25656 0.87290
 C608 C 0.89291 0.25351 0.84196
 C609 C 0.86150 0.27551 0.84783
 C610 C 0.86103 0.30204 0.88353
 H611 H 0.89015 0.32594 0.94163
 H612 H 0.94596 0.23828 0.86896
 H613 H 0.89358 0.23278 0.81473
 H614 H 0.83683 0.31893 0.88883
 C615 C 0.41598 0.74827 0.37477
 C616 C 0.42291 0.78116 0.39968
 C617 C 0.39940 0.81144 0.39310
 C618 C 0.36842 0.80813 0.36391
 C619 C 0.36091 0.77471 0.34048
 C620 C 0.38545 0.74518 0.34523
 H621 H 0.43378 0.72460 0.37883
 H622 H 0.40405 0.83706 0.41199
 H623 H 0.34969 0.83115 0.36071
 H624 H 0.38015 0.71925 0.32725
 C625 C 0.25336 0.91852 0.12719
 C626 C 0.28002 0.92019 0.09175
 C627 C 0.30477 0.89083 0.08629
 C628 C 0.30169 0.85942 0.11459
 C629 C 0.27466 0.85762 0.14964
 C630 C 0.25108 0.88773 0.15634
 H631 H 0.23404 0.94090 0.13195
 H632 H 0.32527 0.89148 0.05880
 H633 H 0.31978 0.83623 0.10857
 H634 H 0.22994 0.88668 0.18306
 C635 C 0.74958 0.41455 0.62281
 C636 C 0.78232 0.42133 0.59754
 C637 C 0.81259 0.39774 0.60391
 C638 C 0.80943 0.36690 0.63326
 C639 C 0.77613 0.35952 0.65700
 C640 C 0.74662 0.38412 0.65243
 H641 H 0.72589 0.43236 0.61892
 H642 H 0.83810 0.40222 0.58475
 H643 H 0.83246 0.34817 0.63635
 H644 H 0.72079 0.37897 0.67070
 C645 C 0.74111 0.07463 0.13300
 C646 C 0.71408 0.07376 0.09798
 C647 C 0.68913 0.10310 0.09427
 C648 C 0.69257 0.13390 0.12362
 C649 C 0.72022 0.13509 0.15793
 C650 C 0.74381 0.10483 0.16317
 H651 H 0.76064 0.05228 0.13634
 H652 H 0.66838 0.10310 0.06705
 H653 H 0.67449 0.15726 0.11874
 H654 H 0.76545 0.10547 0.18928
 C655 C 0.25608 0.59031 0.62095
 C656 C 0.22226 0.58091 0.59933
 C657 C 0.19077 0.60202 0.60935
 C658 C 0.19364 0.63317 0.63833
 C659 C 0.22795 0.64349 0.65781
 C660 C 0.25884 0.62116 0.65006
 H661 H 0.28075 0.57437 0.61440
 H662 H 0.16433 0.59539 0.59330
 H663 H 0.16952 0.65011 0.64398
 H664 H 0.28548 0.62856 0.66510
 C665 C 0.91241 0.74620 0.11277
 C666 C 0.92001 0.71407 0.08703
 C667 C 0.89639 0.68293 0.09170
 C668 C 0.86481 0.68461 0.12005
 C669 C 0.85677 0.71731 0.14433
 C670 C 0.88125 0.74772 0.14123
 H671 H 0.93024 0.77053 0.11028
 H672 H 0.90156 0.65786 0.07219
 H673 H 0.84615 0.66088 0.12210
 H674 H 0.87559 0.77307 0.15996
 C675 C 0.42230 0.24270 0.63726
 C676 C 0.42002 0.21687 0.60088
 C677 C 0.38801 0.19458 0.59610
 C678 C 0.35785 0.19950 0.62594
 C679 C 0.35991 0.22587 0.66180
 C680 C 0.39269 0.24673 0.66797
 H681 H 0.44678 0.26016 0.64141
 H682 H 0.38565 0.17480 0.56787
 H683 H 0.33259 0.18349 0.62039
 H684 H 0.39462 0.26732 0.69533
 C685 C 0.10162 0.31227 0.10800
 C686 C 0.07781 0.28158 0.10080
 C687 C 0.08454 0.24848 0.12476
 C688 C 0.11516 0.24562 0.15396
 C689 C 0.13995 0.27561 0.15940
 C690 C 0.13266 0.30921 0.13694
 H691 H 0.09712 0.33804 0.08981
 H692 H 0.06652 0.22448 0.12018
 H693 H 0.12023 0.21957 0.17130
 H694 H 0.15157 0.33262 0.14076
 C695 C 0.61189 0.80730 0.58371
 C696 C 0.58088 0.78370 0.58909
 C697 C 0.58046 0.75755 0.62509
 C698 C 0.61085 0.75459 0.65483
 C699 C 0.64259 0.77691 0.64809
 C700 C 0.64281 0.80351 0.61257
 H701 H 0.61289 0.82736 0.55578
 H702 H 0.55681 0.73908 0.62977
 H703 H 0.61030 0.73385 0.68198
 H704 H 0.66722 0.82071 0.60663
   
