data_POSCAR
  _audit_creation_date              2014-09-24
  _audit_creation_method            'ToBaCCo'
  _symmetry_space_group_name_H-M    'P1'
  _symmetry_Int_Tables_number       1
  _symmetry_cell_setting            triclinic
  loop_
  _symmetry_equiv_pos_as_xyz
 x,y,z
_cell_length_a 26.0643
_cell_length_b 26.4613
_cell_length_c 25.6157
_cell_angle_alpha 89.571800
_cell_angle_beta 90.037800
_cell_angle_gamma 90.528100
loop_
  _atom_site_label
  _atom_site_type_symbol
  _atom_site_fract_x
  _atom_site_fract_y
  _atom_site_fract_z
C1 C -0.06942 0.51008 0.26896
 C2 C -0.02269 0.52049 0.24391
 C3 C -0.01459 0.56740 0.21936
 C4 C -0.05339 0.60435 0.21813
 C5 C -0.10062 0.59231 0.24296
 C6 C -0.10925 0.54558 0.26862
 C7 C 0.01763 0.48160 0.24303
 C8 C 0.00748 0.43415 0.22074
 C9 C 0.04400 0.39522 0.22309
 C10 C 0.09052 0.40489 0.24967
 C11 C 0.10182 0.45280 0.27021
 C12 C 0.06544 0.49124 0.26618
 H13 H -0.07505 0.47333 0.28710
 H14 H 0.02134 0.57326 0.19903
 H15 H -0.02873 0.42838 0.20090
 H16 H 0.07328 0.52779 0.28343
 H17 H -0.12964 0.62096 0.24649
 H18 H 0.11836 0.37522 0.25504
 C19 C -0.06952 0.49495 0.74127
 C20 C -0.02024 0.48371 0.75914
 C21 C -0.00934 0.43481 0.77707
 C22 C -0.04831 0.39780 0.78082
 C23 C -0.09803 0.40992 0.76267
 C24 C -0.10826 0.45779 0.74042
 C25 C 0.02044 0.52282 0.75679
 C26 C 0.01238 0.57115 0.77758
 C27 C 0.05069 0.60928 0.77412
 C28 C 0.09628 0.59768 0.74707
 C29 C 0.10451 0.54949 0.72675
 C30 C 0.06690 0.51204 0.73232
 H31 H -0.07715 0.53262 0.72651
 H32 H 0.02892 0.42685 0.79135
 H33 H -0.02293 0.57740 0.79861
 H34 H 0.07302 0.47501 0.71572
 H35 H -0.12760 0.38090 0.76258
 H36 H 0.12559 0.62619 0.74028
 C37 C 0.28836 -0.06740 0.51144
 C38 C 0.26719 -0.02035 0.52332
 C39 C 0.25053 -0.01068 0.57428
 C40 C 0.25448 -0.04770 0.61316
 C41 C 0.27798 -0.09374 0.60175
 C42 C 0.29539 -0.10420 0.55079
 C43 C 0.26110 0.01878 0.48252
 C44 C 0.23674 0.00743 0.43519
 C45 C 0.22488 0.04604 0.39911
 C46 C 0.23984 0.09617 0.41099
 C47 C 0.26797 0.10735 0.45658
 C48 C 0.27766 0.06821 0.49230
 H49 H 0.30199 -0.07385 0.47213
 H50 H 0.23169 0.02465 0.58295
 H51 H 0.22362 -0.03096 0.42857
 H52 H 0.29925 0.07556 0.52761
 H53 H 0.27970 -0.12250 0.63205
 H54 H 0.23149 0.12633 0.38363
 C55 C 0.72137 -0.07249 0.49212
 C56 C 0.73830 -0.02313 0.48037
 C57 C 0.76063 -0.01245 0.43177
 C58 C 0.76627 -0.05061 0.39490
 C59 C 0.74653 -0.09911 0.40588
 C60 C 0.72436 -0.11185 0.45498
 C61 C 0.73558 0.01701 0.52012
 C62 C 0.75796 0.00970 0.56942
 C63 C 0.76156 0.04971 0.60525
 C64 C 0.73897 0.09630 0.59184
 C65 C 0.71379 0.10331 0.54370
 C66 C 0.71337 0.06363 0.50764
 H67 H 0.70695 -0.07905 0.53102
 H68 H 0.77605 0.02500 0.42380
 H69 H 0.77636 -0.02601 0.57783
 H70 H 0.69614 0.06899 0.46951
 H71 H 0.74825 -0.12592 0.37450
 H72 H 0.73876 0.12650 0.62013
 C73 C 0.49983 0.25353 1.07283
 C74 C 0.48455 0.23638 1.02356
 C75 C 0.43423 0.21850 1.01580
 C76 C 0.40055 0.21318 1.05839
 C77 C 0.41722 0.22911 1.10786
 C78 C 0.46558 0.25170 1.11458
 C79 C 0.52195 0.23621 0.98071
 C80 C 0.56956 0.21313 0.98827
 C81 C 0.60669 0.21257 0.94832
 C82 C 0.59434 0.23647 0.90047
 C83 C 0.54713 0.26054 0.89308
 C84 C 0.51081 0.25985 0.93320
 H85 H 0.53746 0.27060 1.07787
 H86 H 0.42283 0.20532 0.97750
 H87 H 0.57755 0.19729 1.02640
 H88 H 0.47413 0.27813 0.92769
 H89 H 0.39100 0.22777 1.14070
 H90 H 0.62074 0.23601 0.86797
 C91 C 0.51064 0.74338 1.07236
 C92 C 0.51991 0.76363 1.02278
 C93 C 0.56683 0.78756 1.01195
 C94 C 0.60582 0.78967 1.05016
 C95 C 0.59613 0.76781 1.09977
 C96 C 0.54855 0.74507 1.11101
 C97 C 0.48049 0.75778 0.98218
 C98 C 0.43413 0.78311 0.98724
 C99 C 0.39321 0.77373 0.95284
 C100 C 0.40027 0.73885 0.91217
 C101 C 0.44791 0.71432 0.90504
 C102 C 0.48741 0.72365 0.94138
 H103 H 0.47407 0.72507 1.08045
 H104 H 0.57354 0.80226 0.97291
 H105 H 0.42932 0.80841 1.01995
 H106 H 0.52323 0.70343 0.93939
 H107 H 0.62513 0.76889 1.13007
 H108 H 0.36962 0.73380 0.88416
 B109 B 1.00234 1.05224 0.03150
 B110 B 1.00512 1.05506 -0.03544
 B111 B 1.05719 1.03334 -0.00033
 B112 B 1.03442 0.99845 0.05205
 B113 B 0.96869 0.99875 0.05037
 B114 B 0.94979 1.03231 -0.00517
 B115 B 1.00475 0.94876 -0.03954
 B116 B 1.00180 0.94615 0.02891
 B117 B 0.94971 0.96712 -0.00703
 B118 B 0.97257 1.00222 -0.05972
 B119 B 1.03837 1.00312 -0.05711
 B120 B 1.05691 0.96764 -0.00315
 B121 B 0.55285 0.49774 0.46719
 B122 B 0.50023 0.53336 0.44688
 B123 B 0.49855 0.46755 0.44546
 B124 B 0.53035 0.44532 0.49986
 B125 B 0.55252 0.49700 0.53514
 B126 B 0.53473 0.55033 0.50172
 B127 B 0.44538 0.49940 0.53349
 B128 B 0.49742 0.46484 0.55442
 B129 B 0.49979 0.52999 0.55593
 B130 B 0.46862 0.55286 0.50139
 B131 B 0.44535 0.50102 0.46674
 B132 B 0.46415 0.44677 0.49958
 C133 C 1.01685 1.25039 0.14771
 C134 C 1.06729 1.26848 0.15700
 C135 C 1.07544 1.31580 0.18001
 C136 C 1.03420 1.34504 0.19763
 C137 C 0.98408 1.32578 0.19044
 C138 C 0.97546 1.27954 0.16530
 C139 C 1.01029 1.20054 0.12042
 C140 C 0.96266 1.18057 0.10440
 C141 C 0.95965 1.13446 0.07761
 C142 C 1.00364 1.10586 0.06568
 C143 C 1.05030 1.12552 0.08529
 C144 C 1.05450 1.17245 0.10957
 C145 C 1.10959 1.23889 0.14415
 C146 C 1.10327 1.19133 0.12232
 H147 H 1.14824 1.25233 0.15195
 H148 H 1.13729 1.16962 0.11379
 H149 H 1.11443 1.32972 0.18372
 H150 H 0.95114 1.34601 0.20471
 H151 H 0.92258 1.12403 0.06286
 H152 H 1.08402 1.10331 0.08596
 H153 H 0.93627 1.26675 0.16081
 H154 H 0.92749 1.20094 0.11048
 C155 C 0.96823 0.74916 0.14533
 C156 C 1.01119 0.72051 0.16037
 C157 C 1.00417 0.67295 0.18461
 C158 C 0.95443 0.65222 0.19293
 C159 C 0.91229 0.68066 0.17487
 C160 C 0.91900 0.72807 0.15175
 C161 C 0.97695 0.80013 0.12118
 C162 C 0.93733 0.83428 0.11280
 C163 C 0.94690 0.87988 0.08720
 C164 C 0.99524 0.89315 0.06533
 C165 C 1.03586 0.86268 0.08361
 C166 C 1.02731 0.81601 0.10946
 C167 C 1.06081 0.73938 0.15042
 C168 C 1.06869 0.78567 0.12465
 H169 H 1.09406 0.71753 0.16163
 H170 H 1.10771 0.79793 0.11666
 H171 H 1.03791 0.65336 0.19827
 H172 H 0.87351 0.66590 0.17637
 H173 H 0.91476 0.90511 0.08469
 H174 H 1.07453 0.87460 0.07988
 H175 H 0.88513 0.74715 0.13787
 H176 H 0.89877 0.82696 0.12644
 C177 C 0.98594 1.25753 -0.14523
 C178 C 0.94074 1.28412 -0.13275
 C179 C 0.92780 1.32825 -0.16042
 C180 C 0.96226 1.35016 -0.19639
 C181 C 1.00898 1.32537 -0.20593
 C182 C 1.02001 1.27900 -0.18189
 C183 C 0.99627 1.20870 -0.11702
 C184 C 1.03281 1.17343 -0.13319
 C185 C 1.03697 1.12637 -0.10778
 C186 C 1.00623 1.11258 -0.06416
 C187 C 0.97433 1.15133 -0.04594
 C188 C 0.96570 1.19620 -0.07367
 C189 C 0.91019 1.26804 -0.09079
 C190 C 0.92376 1.22638 -0.06041
 H191 H 0.87620 1.28891 -0.08020
 H192 H 0.89946 1.21615 -0.02758
 H193 H 0.89278 1.34785 -0.15056
 H194 H 1.03650 1.34103 -0.23343
 H195 H 1.06403 1.10095 -0.12375
 H196 H 0.94962 1.14442 -0.01416
 H197 H 1.05598 1.26117 -0.19109
 H198 H 1.05668 1.18057 -0.16696
 C199 C 1.03365 0.75454 -0.15690
 C200 C 0.98978 0.72555 -0.16979
 C201 C 0.99528 0.67785 -0.19295
 C202 C 1.04437 0.65754 -0.20260
 C203 C 1.08757 0.68648 -0.18738
 C204 C 1.08236 0.73391 -0.16503
 C205 C 1.02644 0.80528 -0.13299
 C206 C 1.06689 0.83929 -0.12513
 C207 C 1.05866 0.88454 -0.09936
 C208 C 1.01066 0.89772 -0.07758
 C209 C 0.96942 0.86686 -0.09415
 C210 C 0.97665 0.82075 -0.12006
 C211 C 0.94077 0.74411 -0.15866
 C212 C 0.93436 0.79034 -0.13356
 H213 H 0.90690 0.72204 -0.16836
 H214 H 0.89576 0.80243 -0.12454
 H215 H 0.96090 0.65770 -0.20466
 H216 H 1.12610 0.67196 -0.19026
 H217 H 1.09155 0.90909 -0.09730
 H218 H 0.93107 0.87759 -0.08857
 H219 H 1.11701 0.75324 -0.15307
 H220 H 1.10517 0.83207 -0.13909
 C221 C 1.14406 1.01371 0.25841
 C222 C 1.13336 1.05777 0.28731
 C223 C 1.16132 1.06888 0.33263
 C224 C 1.19778 1.03493 0.35257
 C225 C 1.20567 0.98939 0.32555
 C226 C 1.17998 0.97937 0.27868
 C227 C 1.11567 1.00538 0.20813
 C228 C 1.12806 0.96749 0.17210
 C229 C 1.10232 0.96417 0.12407
 C230 C 1.06304 0.99808 0.11002
 C231 C 1.04810 1.03223 0.14917
 C232 C 1.07563 1.03855 0.19541
 C233 C 1.09374 1.08985 0.27170
 C234 C 1.06435 1.07948 0.22768
 H235 H 1.08475 1.12307 0.29432
 H236 H 1.03377 1.10525 0.21746
 H237 H 1.15230 1.10285 0.35404
 H238 H 1.23357 0.96226 0.33922
 H239 H 1.11757 0.93838 0.09615
 H240 H 1.01442 1.05482 0.14462
 H241 H 1.18822 0.94436 0.25913
 H242 H 1.15941 0.94193 0.17909
 C243 C 1.16314 0.97575 -0.25037
 C244 C 1.20940 1.00339 -0.25658
 C245 C 1.24000 0.99566 -0.30111
 C246 C 1.22616 0.95853 -0.33757
 C247 C 1.18234 0.92876 -0.32901
 C248 C 1.15104 0.93723 -0.28606
 C249 C 1.12959 0.98736 -0.20498
 C250 C 1.07930 0.96915 -0.20126
 C251 C 1.05054 0.97746 -0.15669
 C252 C 1.07057 1.00321 -0.11284
 C253 C 1.11900 1.02678 -0.11995
 C254 C 1.14831 1.01938 -0.16551
 C255 C 1.22482 1.03760 -0.21783
 C256 C 1.19567 1.04424 -0.17245
 H257 H 1.26058 1.05845 -0.22194
 H258 H 1.20997 1.06978 -0.14281
 H259 H 1.27451 1.01808 -0.30734
 H260 H 1.17150 0.89972 -0.35663
 H261 H 1.01363 0.95916 -0.15615
 H262 H 1.13380 1.05231 -0.09121
 H263 H 1.11778 0.91305 -0.28125
 H264 H 1.06152 0.94776 -0.23221
 C265 C 0.85830 0.97481 0.25697
 C266 C 0.81921 1.00933 0.26964
 C267 C 0.78933 1.00151 0.31494
 C268 C 0.79676 0.95852 0.34663
 C269 C 0.83458 0.92377 0.33272
 C270 C 0.86489 0.93165 0.28861
 C271 C 0.88976 0.98449 0.20907
 C272 C 0.93349 0.95686 0.19738
 C273 C 0.95891 0.96441 0.15025
 C274 C 0.94078 0.99725 0.11021
 C275 C 0.90356 1.03168 0.12810
 C276 C 0.87670 1.02462 0.17552
 C277 C 0.80970 1.05054 0.23628
 C278 C 0.83728 1.05757 0.18982
 H279 H 0.77968 1.07705 0.24558
 H280 H 0.82748 1.08916 0.16466
 H281 H 0.75964 1.02817 0.32494
 H282 H 0.84120 0.89047 0.35656
 H283 H 0.99319 0.94273 0.14616
 H284 H 0.89436 1.06441 0.10628
 H285 H 0.89275 0.90313 0.27951
 H286 H 0.94916 0.92951 0.22435
 C287 C 0.85082 1.03102 -0.25719
 C288 C 0.81696 0.99218 -0.27314
 C289 C 0.78834 0.99791 -0.31936
 C290 C 0.78934 1.04392 -0.34760
 C291 C 0.81964 1.08400 -0.32822
 C292 C 0.85067 1.07736 -0.28432
 C293 C 0.88390 1.02196 -0.21051
 C294 C 0.92695 1.05172 -0.19927
 C295 C 0.95599 1.04211 -0.15468
 C296 C 0.94178 1.00566 -0.11681
 C297 C 0.90196 0.97244 -0.13230
 C298 C 0.87393 0.97948 -0.17875
 C299 C 0.81084 0.94880 -0.24182
 C300 C 0.83723 0.94354 -0.19452
 H301 H 0.78410 0.91927 -0.25320
 H302 H 0.82998 0.91015 -0.17080
 H303 H 0.76328 0.96735 -0.33179
 H304 H 0.82182 1.11993 -0.34865
 H305 H 0.99069 1.06252 -0.15149
 H306 H 0.89192 0.94041 -0.10966
 H307 H 0.87390 1.10899 -0.27162
 H308 H 0.93987 1.08126 -0.22564
 C309 C 1.25443 1.14511 0.04071
 C310 C 1.27045 1.18260 0.00480
 C311 C 1.31999 1.20376 0.00919
 C312 C 1.35135 1.19171 0.05242
 C313 C 1.33214 1.15841 0.09087
 C314 C 1.28478 1.13480 0.08473
 C315 C 1.20518 1.11825 0.03101
 C316 C 1.19381 1.07217 0.05487
 C317 C 1.14906 1.04655 0.04258
 C318 C 1.11176 1.06542 0.00773
 C319 C 1.12311 1.11353 -0.01423
 C320 C 1.17098 1.13763 -0.00638
 C321 C 1.23605 1.19944 -0.03371
 C322 C 1.18625 1.17912 -0.03738
 H323 H 1.24729 1.22948 -0.06042
 H324 H 1.16059 1.19398 -0.06692
 H325 H 1.33292 1.23156 -0.01932
 H326 H 1.35490 1.14838 0.12474
 H327 H 1.14653 1.00961 0.05796
 H328 H 1.09619 1.13314 -0.03737
 H329 H 1.27217 1.10897 0.11507
 H330 H 1.22064 1.05364 0.08068
 C331 C 0.75107 1.14099 -0.03202
 C332 C 0.70957 1.12700 0.00036
 C333 C 0.66184 1.15027 -0.00641
 C334 C 0.65504 1.18923 -0.04395
 C335 C 0.69822 1.20480 -0.07333
 C336 C 0.74527 1.18114 -0.06753
 C337 C 0.80006 1.11313 -0.02651
 C338 C 0.83868 1.11637 -0.06409
 C339 C 0.88384 1.08988 -0.05754
 C340 C 0.89467 1.06176 -0.01189
 C341 C 0.85255 1.05338 0.02181
 C342 C 0.80581 1.07868 0.01514
 C343 C 0.71631 1.09021 0.03949
 C344 C 0.76389 1.06747 0.04761
 H345 H 0.68467 1.07958 0.06484
 H346 H 0.76760 1.03998 0.07894
 H347 H 0.62995 1.13618 0.01662
 H348 H 0.69690 1.23677 -0.09981
 H349 H 0.91071 1.09365 -0.08870
 H350 H 0.85318 1.02207 0.04874
 H351 H 0.77705 1.19558 -0.09038
 H352 H 0.83424 1.13809 -0.09963
 C353 C 1.25500 0.85428 -0.02616
 C354 C 1.25283 0.80183 -0.03515
 C355 C 1.29852 0.77545 -0.04548
 C356 C 1.34671 0.80003 -0.04107
 C357 C 1.34795 0.85152 -0.02773
 C358 C 1.30289 0.87844 -0.02131
 C359 C 1.20609 0.88215 -0.02029
 C360 C 1.20365 0.93412 -0.02810
 C361 C 1.15719 0.95883 -0.02450
 C362 C 1.11152 0.93510 -0.00734
 C363 C 1.11392 0.88143 -0.00465
 C364 C 1.16009 0.85498 -0.01292
 C365 C 1.20533 0.77638 -0.03141
 C366 C 1.16027 0.80215 -0.01824
 H367 H 1.20324 0.73588 -0.03707
 H368 H 1.12481 0.78074 -0.01438
 H369 H 1.29674 0.73526 -0.05327
 H370 H 1.38406 0.87181 -0.02412
 H371 H 1.15872 0.99710 -0.03628
 H372 H 1.07890 0.85951 -0.00289
 H373 H 1.30608 0.91796 -0.01135
 H374 H 1.23691 0.95589 -0.04029
 C375 C 0.75062 0.85506 0.01326
 C376 C 0.70514 0.87842 -0.00400
 C377 C 0.65743 0.85551 0.00650
 C378 C 0.65393 0.81189 0.03835
 C379 C 0.69951 0.79116 0.05843
 C380 C 0.74722 0.81184 0.04527
 C381 C 0.80065 0.87949 -0.00001
 C382 C 0.84737 0.85430 0.00382
 C383 C 0.89325 0.88060 -0.00451
 C384 C 0.89502 0.93363 -0.01163
 C385 C 0.84759 0.95483 -0.02684
 C386 C 0.80082 0.92880 -0.02060
 C387 C 0.70769 0.92561 -0.02932
 C388 C 0.75450 0.95110 -0.03586
 H389 H 0.67289 0.94407 -0.04209
 H390 H 0.75447 0.98856 -0.05327
 H391 H 0.62281 0.87371 -0.00729
 H392 H 0.69872 0.75739 0.08257
 H393 H 0.92791 0.85870 -0.00307
 H394 H 0.84643 0.99005 -0.04764
 H395 H 0.78111 0.79442 0.06142
 H396 H 0.84904 0.81437 0.01280
 C397 C 0.74750 0.51495 0.34343
 C398 C 0.79364 0.49791 0.36616
 C399 C 0.84066 0.50609 0.34020
 C400 C 0.84315 0.53490 0.29357
 C401 C 0.79694 0.55388 0.27295
 C402 C 0.74992 0.54351 0.29699
 C403 C 0.69815 0.50460 0.37154
 C404 C 0.65009 0.51160 0.34844
 C405 C 0.60542 0.50496 0.37768
 C406 C 0.60609 0.49439 0.43168
 C407 C 0.65423 0.48004 0.45190
 C408 C 0.69983 0.48496 0.42270
 C409 C 0.79264 0.47496 0.41575
 C410 C 0.74695 0.47005 0.44408
 H411 H 0.82796 0.46235 0.43376
 H412 H 0.74847 0.45392 0.48307
 H413 H 0.87565 0.49292 0.35844
 H414 H 0.79660 0.57543 0.23686
 H415 H 0.57055 0.50803 0.35702
 H416 H 0.65764 0.46525 0.49029
 H417 H 0.71587 0.55918 0.27937
 H418 H 0.64626 0.52138 0.30761
 C419 C 0.24205 0.47565 0.35626
 C420 C 0.23211 0.50541 0.31138
 C421 C 0.18567 0.49884 0.28384
 C422 C 0.15021 0.46126 0.29928
 C423 C 0.16129 0.43059 0.34246
 C424 C 0.20641 0.43768 0.37075
 C425 C 0.29098 0.48465 0.38555
 C426 C 0.30133 0.46099 0.43317
 C427 C 0.34805 0.46827 0.45802
 C428 C 0.38789 0.49918 0.43728
 C429 C 0.37541 0.52545 0.39053
 C430 C 0.32769 0.51883 0.36508
 C431 C 0.26917 0.54041 0.29381
 C432 C 0.31636 0.54617 0.31942
 H433 H 0.26204 0.56293 0.25910
 H434 H 0.34413 0.57287 0.30356
 H435 H 0.17763 0.52192 0.24972
 H436 H 0.13459 0.40115 0.35458
 H437 H 0.35182 0.44809 0.49422
 H438 H 0.40294 0.55007 0.37233
 H439 H 0.21292 0.41243 0.40326
 H440 H 0.27372 0.43665 0.45242
 C441 C 0.74960 0.48820 0.65857
 C442 C 0.74973 0.45680 0.70366
 C443 C 0.79564 0.44801 0.73104
 C444 C 0.84230 0.46863 0.71322
 C445 C 0.84201 0.49881 0.66771
 C446 C 0.79646 0.50880 0.64104
 C447 C 0.69993 0.49573 0.62989
 C448 C 0.69461 0.52787 0.58633
 C449 C 0.64841 0.52979 0.55843
 C450 C 0.60563 0.49892 0.57150
 C451 C 0.61106 0.46994 0.61786
 C452 C 0.65661 0.46826 0.64678
 C453 C 0.70434 0.43305 0.72020
 C454 C 0.65902 0.43794 0.69188
 H455 H 0.70421 0.40897 0.75462
 H456 H 0.62534 0.41733 0.70538
 H457 H 0.79499 0.42470 0.76600
 H458 H 0.87741 0.51399 0.65172
 H459 H 0.64901 0.55262 0.52376
 H460 H 0.58211 0.44519 0.63113
 H461 H 0.79898 0.53161 0.60603
 H462 H 0.72602 0.55114 0.57243
 C463 C 0.24511 0.51931 0.64644
 C464 C 0.21317 0.55931 0.62975
 C465 C 0.16746 0.56907 0.65639
 C466 C 0.15232 0.53864 0.69866
 C467 C 0.18281 0.49791 0.71403
 C468 C 0.22887 0.48839 0.68845
 C469 C 0.29468 0.51164 0.61838
 C470 C 0.33091 0.47574 0.63402
 C471 C 0.37718 0.47106 0.60736
 C472 C 0.38972 0.50141 0.56388
 C473 C 0.35198 0.53623 0.54770
 C474 C 0.30598 0.54250 0.57481
 C475 C 0.22681 0.58903 0.58643
 C476 C 0.27191 0.58028 0.55901
 H477 H 0.20211 0.61933 0.57334
 H478 H 0.28079 0.60418 0.52559
 H479 H 0.14322 0.60001 0.64392
 H480 H 0.17129 0.47392 0.74650
 H481 H 0.40216 0.44337 0.62238
 H482 H 0.35771 0.55887 0.51355
 H483 H 0.25094 0.45665 0.70207
 H484 H 0.32484 0.45137 0.66742
 C485 C 0.51895 0.66729 0.25625
 C486 C 0.51209 0.64292 0.20762
 C487 C 0.52144 0.66905 0.16100
 C488 C 0.53922 0.71903 0.16138
 C489 C 0.54758 0.74310 0.20929
 C490 C 0.53721 0.71765 0.25639
 C491 C 0.50896 0.63717 0.30514
 C492 C 0.51041 0.65738 0.35571
 C493 C 0.50457 0.62582 0.39969
 C494 C 0.49960 0.57253 0.39543
 C495 C 0.49370 0.55481 0.34436
 C496 C 0.49767 0.58544 0.30011
 C497 C 0.49745 0.59207 0.20555
 C498 C 0.49134 0.56366 0.25084
 H499 H 0.49225 0.57350 0.16832
 H500 H 0.48171 0.52387 0.24722
 H501 H 0.51608 0.65000 0.12400
 H502 H 0.56154 0.78176 0.21020
 H503 H 0.50684 0.64402 0.43703
 H504 H 0.48875 0.51640 0.33723
 H505 H 0.54438 0.73749 0.29237
 H506 H 0.51633 0.69731 0.36203
 C507 C 0.47038 0.62495 0.76608
 C508 C 0.51343 0.64392 0.79295
 C509 C 0.50634 0.67284 0.83831
 C510 C 0.45668 0.68034 0.85921
 C511 C 0.41502 0.65573 0.83505
 C512 C 0.42160 0.62896 0.78894
 C513 C 0.47836 0.60141 0.71408
 C514 C 0.43812 0.59570 0.67889
 C515 C 0.44691 0.57672 0.62959
 C516 C 0.49530 0.55926 0.61293
 C517 C 0.53641 0.56715 0.64843
 C518 C 0.52852 0.59030 0.69743
 C519 C 0.56289 0.63364 0.77410
 C520 C 0.57024 0.60552 0.72846
 H521 H 0.59634 0.64692 0.79525
 H522 H 0.60911 0.59798 0.71592
 H523 H 0.53959 0.69039 0.85610
 H524 H 0.37682 0.65722 0.85138
 H525 H 0.41533 0.58002 0.60362
 H526 H 0.57513 0.55938 0.63739
 H527 H 0.38815 0.61127 0.77176
 H528 H 0.39995 0.60879 0.68759
 C529 C 0.49328 0.34197 0.25046
 C530 C 0.44714 0.34563 0.22138
 C531 C 0.43911 0.31550 0.17790
 C532 C 0.47604 0.28105 0.16207
 C533 C 0.52232 0.27751 0.18979
 C534 C 0.53083 0.30750 0.23394
 C535 C 0.49914 0.37468 0.29768
 C536 C 0.54273 0.37542 0.33025
 C537 C 0.54394 0.40556 0.37526
 C538 C 0.50137 0.43497 0.39032
 C539 C 0.46050 0.43565 0.35489
 C540 C 0.45829 0.40658 0.31029
 C541 C 0.40880 0.37926 0.23559
 C542 C 0.41427 0.40919 0.27918
 H543 H 0.37374 0.38211 0.21299
 H544 H 0.38312 0.43424 0.28916
 H545 H 0.40394 0.31938 0.15557
 H546 H 0.55156 0.25132 0.17753
 H547 H 0.57848 0.40464 0.39837
 H548 H 0.42859 0.45870 0.36188
 H549 H 0.56665 0.30323 0.25460
 H550 H 0.57596 0.35286 0.32181
 C551 C 0.52066 0.34009 0.74897
 C552 C 0.51024 0.36354 0.79723
 C553 C 0.51776 0.33690 0.84409
 C554 C 0.53648 0.28739 0.84361
 C555 C 0.54711 0.26438 0.79586
 C556 C 0.53941 0.29030 0.74907
 C557 C 0.51211 0.36966 0.69989
 C558 C 0.51806 0.34875 0.65030
 C559 C 0.51064 0.37788 0.60570
 C560 C 0.49716 0.42940 0.60764
 C561 C 0.48835 0.44905 0.65807
 C562 C 0.49579 0.42012 0.70352
 C563 C 0.49326 0.41359 0.79839
 C564 C 0.48653 0.44143 0.75251
 H565 H 0.48552 0.43168 0.83534
 H566 H 0.47381 0.48020 0.75545
 H567 H 0.51039 0.35514 0.88108
 H568 H 0.56147 0.22612 0.79473
 H569 H 0.51197 0.35772 0.56993
 H570 H 0.47295 0.48582 0.66315
 H571 H 0.54899 0.27079 0.71367
 H572 H 0.52749 0.30958 0.64473
 C573 C 0.66246 0.73926 0.48146
 C574 C 0.65428 0.77730 0.51858
 C575 C 0.67450 0.82625 0.51010
 C576 C 0.70581 0.83780 0.46605
 C577 C 0.71815 0.79690 0.43309
 C578 C 0.69636 0.74908 0.44011
 C579 C 0.63479 0.68989 0.48788
 C580 C 0.63190 0.65435 0.44789
 C581 C 0.60139 0.61133 0.45342
 C582 C 0.57276 0.60067 0.49907
 C583 C 0.58058 0.63420 0.54097
 C584 C 0.60756 0.68020 0.53441
 C585 C 0.62604 0.76597 0.56396
 C586 C 0.60489 0.71780 0.57262
 H587 H 0.62060 0.79459 0.59343
 H588 H 0.58361 0.71087 0.60835
 H589 H 0.66376 0.85480 0.53771
 H590 H 0.74557 0.80028 0.40176
 H591 H 0.59804 0.58867 0.41939
 H592 H 0.56490 0.62630 0.57853
 H593 H 0.70727 0.71991 0.41316
 H594 H 0.65031 0.66056 0.41063
 C595 C 0.63621 0.24439 0.51244
 C596 C 0.68366 0.24368 0.53947
 C597 C 0.70928 0.19796 0.54793
 C598 C 0.68787 0.15196 0.53135
 C599 C 0.64083 0.15269 0.50446
 C600 C 0.61540 0.19820 0.49491
 C601 C 0.60978 0.29425 0.50524
 C602 C 0.56324 0.30013 0.47810
 C603 C 0.53961 0.34743 0.47473
 C604 C 0.56115 0.39105 0.49805
 C605 C 0.60805 0.38417 0.52414
 C606 C 0.63255 0.33748 0.52744
 C607 C 0.70487 0.28842 0.55905
 C608 C 0.67961 0.33420 0.55368
 H609 H 0.74112 0.28791 0.57980
 H610 H 0.69723 0.36763 0.57049
 H611 H 0.74595 0.19825 0.56791
 H612 H 0.62291 0.11779 0.49181
 H613 H 0.50426 0.34915 0.45341
 H614 H 0.62633 0.41419 0.54372
 H615 H 0.57912 0.19633 0.47471
 H616 H 0.54432 0.26868 0.45937
 C617 C 0.36819 0.75641 0.51858
 C618 C 0.37831 0.78257 0.56550
 C619 C 0.35256 0.82742 0.57654
 C620 C 0.31950 0.84953 0.53969
 C621 C 0.31236 0.82514 0.49146
 C622 C 0.33549 0.77872 0.48145
 C623 C 0.39394 0.70671 0.51029
 C624 C 0.38149 0.67359 0.46953
 C625 C 0.40512 0.62636 0.46607
 C626 C 0.44192 0.60977 0.50260
 C627 C 0.45716 0.64609 0.53944
 C628 C 0.43179 0.69176 0.54611
 C629 C 0.41536 0.76475 0.60045
 C630 C 0.44282 0.72120 0.59003
 H631 H 0.42397 0.78530 0.63588
 H632 H 0.47167 0.70926 0.61793
 H633 H 0.36086 0.84672 0.61283
 H634 H 0.28695 0.84068 0.46210
 H635 H 0.39373 0.60342 0.43458
 H636 H 0.48719 0.63887 0.56593
 H637 H 0.32795 0.76119 0.44427
 H638 H 0.35262 0.68284 0.44087
 C639 C 0.34043 0.25263 0.48371
 C640 C 0.33124 0.23553 0.43225
 C641 C 0.30704 0.18878 0.42380
 C642 C 0.28970 0.15892 0.46586
 C643 C 0.29607 0.17754 0.51682
 C644 C 0.32151 0.22343 0.52573
 C645 C 0.36970 0.30123 0.49076
 C646 C 0.38388 0.32087 0.53953
 C647 C 0.41203 0.36620 0.54300
 C648 C 0.42841 0.39380 0.49848
 C649 C 0.40951 0.37507 0.45100
 C650 C 0.38327 0.32918 0.44603
 C651 C 0.34629 0.26514 0.38937
 C652 C 0.37071 0.31153 0.39615
 H653 H 0.33869 0.25246 0.34994
 H654 H 0.38122 0.33328 0.36172
 H655 H 0.30312 0.17518 0.38420
 H656 H 0.28169 0.15647 0.55018
 H657 H 0.41942 0.37854 0.58149
 H658 H 0.41073 0.39770 0.41766
 H659 H 0.32590 0.23541 0.56566
 H660 H 0.37382 0.30176 0.57550
   
