data_POSCAR
  _audit_creation_date              2014-09-24
  _audit_creation_method            'ToBaCCo'
  _symmetry_space_group_name_H-M    'P1'
  _symmetry_Int_Tables_number       1
  _symmetry_cell_setting            triclinic
  loop_
  _symmetry_equiv_pos_as_xyz
 x,y,z
_cell_length_a 26.6794
_cell_length_b 27.3408
_cell_length_c 27.6822
_cell_angle_alpha 90.496100
_cell_angle_beta 91.062500
_cell_angle_gamma 91.965300
loop_
  _atom_site_label
  _atom_site_type_symbol
  _atom_site_fract_x
  _atom_site_fract_y
  _atom_site_fract_z
C1 C 0.27371 0.24372 0.21267
 C2 C 0.23915 0.28115 0.21354
 C3 C 0.20384 0.28307 0.25030
 C4 C 0.20367 0.24781 0.28683
 C5 C 0.23827 0.21034 0.28615
 C6 C 0.27334 0.20851 0.24917
 H7 H 0.23895 0.30808 0.18502
 H8 H 0.17593 0.24878 0.31491
 H9 H 0.29978 0.17929 0.24836
 C10 C 0.73295 -0.23203 0.20616
 C11 C 0.73542 -0.19700 0.24372
 C12 C 0.76676 -0.20316 0.28417
 C13 C 0.79563 -0.24477 0.28782
 C14 C 0.79340 -0.28087 0.25122
 C15 C 0.76214 -0.27384 0.21045
 H16 H 0.71187 -0.16547 0.24235
 H17 H 0.82086 -0.24823 0.31866
 H18 H 0.76030 -0.30129 0.18191
 C19 C 0.70145 0.24705 0.78955
 C20 C 0.70166 0.20981 0.75456
 C21 C 0.73947 0.20926 0.72003
 C22 C 0.77581 0.24765 0.71958
 C23 C 0.77519 0.28653 0.75344
 C24 C 0.73849 0.28461 0.78944
 H25 H 0.67241 0.18129 0.75423
 H26 H 0.80360 0.24782 0.69152
 H27 H 0.73877 0.31205 0.81794
 C28 C 0.28913 -0.24102 0.78525
 C29 C 0.25045 -0.27696 0.78565
 C30 C 0.21355 -0.27970 0.74842
 C31 C 0.21835 -0.24710 0.70943
 C32 C 0.25705 -0.21109 0.70888
 C33 C 0.29202 -0.20783 0.74718
 H34 H 0.24806 -0.30125 0.81633
 H35 H 0.19261 -0.25018 0.67871
 H36 H 0.32157 -0.17960 0.74729
 C37 C 0.72198 -0.24174 0.78336
 C38 C 0.72574 -0.20646 0.74734
 C39 C 0.76432 -0.20806 0.71394
 C40 C 0.79994 -0.24446 0.71726
 C41 C 0.79709 -0.28027 0.75375
 C42 C 0.75618 -0.27934 0.78536
 H43 H 0.69931 -0.17724 0.74589
 H44 H 0.83079 -0.24336 0.69236
 H45 H 0.75064 -0.30772 0.81199
 C46 C 0.27347 0.24131 0.78361
 C47 C 0.24163 0.28094 0.77975
 C48 C 0.20789 0.28401 0.74058
 C49 C 0.20656 0.24767 0.70451
 C50 C 0.23859 0.20824 0.70785
 C51 C 0.27204 0.20520 0.74727
 H52 H 0.24293 0.30935 0.80735
 H53 H 0.18025 0.24971 0.67435
 H54 H 0.29665 0.17456 0.74981
 C55 C 0.28989 -0.23618 0.19950
 C56 C 0.25218 -0.27383 0.19738
 C57 C 0.21777 -0.27962 0.23483
 C58 C 0.22058 -0.24791 0.27476
 C59 C 0.25821 -0.21118 0.27809
 C60 C 0.29308 -0.20607 0.24119
 H61 H 0.24824 -0.29783 0.16610
 H62 H 0.19353 -0.25191 0.30333
 H63 H 0.32333 -0.17887 0.24579
 C64 C 0.69953 0.24999 0.22232
 C65 C 0.70059 0.21236 0.25633
 C66 C 0.74009 0.21057 0.29054
 C67 C 0.77752 0.24802 0.29137
 C68 C 0.77559 0.28666 0.25856
 C69 C 0.73696 0.28715 0.22361
 H70 H 0.67072 0.18447 0.25605
 H71 H 0.80790 0.24742 0.31788
 H72 H 0.73596 0.31648 0.19755
 O73 O 0.20453 0.03882 0.44699
 O74 O 0.21495 -0.05560 0.54029
 O75 O 0.20459 0.03855 0.54176
 O76 O 0.21470 -0.05561 0.44722
 O77 O 0.29684 -0.04407 0.44821
 O78 O 0.28691 0.05057 0.54264
 O79 O 0.29700 -0.04359 0.54262
 O80 O 0.28687 0.05034 0.44859
 Cu81 Cu 0.20137 -0.00927 0.49387
 Cu82 Cu 0.30016 0.00451 0.49561
 C83 C 0.24397 0.06017 0.43140
 C84 C 0.25782 -0.06627 0.55707
 C85 C 0.24407 0.06004 0.55880
 C86 C 0.25755 -0.06665 0.43208
 O87 O 0.78885 0.05478 0.55207
 O88 O 0.80192 -0.03726 0.45562
 O89 O 0.78873 0.05628 0.45774
 O90 O 0.80205 -0.03897 0.54970
 O91 O 0.71992 -0.05138 0.54884
 O92 O 0.70661 0.04212 0.45508
 O93 O 0.71992 -0.05122 0.45457
 O94 O 0.70653 0.04208 0.54995
 Cu95 Cu 0.80362 0.01013 0.50399
 Cu96 Cu 0.70497 -0.00593 0.50198
 C97 C 0.74562 0.06373 0.56762
 C98 C 0.76301 -0.05940 0.43812
 C99 C 0.74563 0.06466 0.44016
 C100 C 0.76311 -0.06074 0.56573
 O101 O 0.43901 0.20101 0.04690
 O102 O 0.53681 0.20501 -0.04524
 O103 O 0.53602 0.20630 0.05010
 O104 O 0.43929 0.20174 -0.04674
 O105 O 0.43831 0.28262 -0.04617
 O106 O 0.53507 0.28694 0.05012
 O107 O 0.53560 0.28568 -0.04499
 O108 O 0.43767 0.28163 0.04695
 Cu109 Cu 0.48832 0.19540 0.00116
 Cu110 Cu 0.48707 0.29235 0.00157
 C111 C 0.42099 0.24055 0.06207
 C112 C 0.55174 0.24599 -0.06193
 C113 C 0.55075 0.24747 0.06776
 C114 C 0.42213 0.24145 -0.06248
 O115 O 0.56129 0.81607 0.04223
 O116 O 0.46239 0.81042 -0.05230
 O117 O 0.46338 0.81372 0.04070
 O118 O 0.56009 0.81062 -0.05190
 O119 O 0.55580 0.72983 -0.05145
 O120 O 0.46528 0.73390 0.04729
 O121 O 0.45820 0.72990 -0.04688
 O122 O 0.56306 0.73584 0.04160
 Cu123 Cu 0.51208 0.82079 -0.00561
 Cu124 Cu 0.51027 0.72424 -0.00200
 C125 C 0.58051 0.77704 0.05707
 C126 C 0.44233 0.76932 -0.06461
 C127 C 0.44806 0.77457 0.06059
 C128 C 0.57453 0.76968 -0.06741
 O129 O 0.04154 0.45265 0.20872
 O130 O -0.05501 0.54578 0.21391
 O131 O 0.04243 0.54869 0.20319
 O132 O -0.05496 0.45136 0.21348
 O133 O -0.04918 0.45706 0.29316
 O134 O 0.05267 0.55080 0.28247
 O135 O -0.04354 0.55195 0.29267
 O136 O 0.04808 0.45471 0.28827
 Cu137 Cu -0.00687 0.49958 0.20181
 Cu138 Cu 0.00325 0.50394 0.29707
 C139 C 0.05968 0.43631 0.24792
 C140 C -0.06640 0.56438 0.25440
 C141 C 0.06368 0.56688 0.24091
 C142 C -0.06916 0.43824 0.25498
 O143 O 0.05292 0.54634 0.78736
 O144 O -0.04801 0.45145 0.79258
 O145 O 0.04993 0.45134 0.78495
 O146 O -0.04316 0.54674 0.79331
 O147 O -0.05434 0.54437 0.71454
 O148 O 0.04420 0.45387 0.70544
 O149 O -0.05332 0.44986 0.71277
 O150 O 0.04258 0.54971 0.70804
 Cu151 Cu 0.00370 0.49851 0.79756
 Cu152 Cu -0.00574 0.49930 0.70213
 C153 C 0.06369 0.56524 0.74700
 C154 C -0.06789 0.43474 0.75355
 C155 C 0.06395 0.43719 0.74369
 C156 C -0.06544 0.56160 0.75564
 C157 C 0.38331 0.27603 0.13451
 C158 C 0.34815 0.27686 0.17095
 C159 C 0.30968 0.24098 0.17290
 C160 C 0.30567 0.20414 0.13662
 C161 C 0.34124 0.20338 0.09906
 C162 C 0.38111 0.23936 0.09868
 C163 C 0.33426 0.16755 0.06240
 N164 N 0.29531 0.13447 0.06420
 N165 N 0.26250 0.13488 0.09981
 C166 C 0.26620 0.16864 0.13593
 H167 H 0.41305 0.30403 0.13479
 H168 H 0.35130 0.30549 0.19826
 H169 H 0.35835 0.16586 0.03164
 H170 H 0.23788 0.16771 0.16337
 C171 C 0.63045 0.73493 0.11891
 C172 C 0.66787 0.73192 0.15408
 C173 C 0.69906 0.77254 0.16662
 C174 C 0.69419 0.81647 0.13980
 C175 C 0.65617 0.81949 0.10298
 C176 C 0.62282 0.77828 0.09340
 C177 C 0.65479 0.86309 0.07605
 N178 N 0.68856 0.90028 0.08523
 N179 N 0.72441 0.89700 0.11889
 C180 C 0.72876 0.85636 0.14596
 H181 H 0.60642 0.70271 0.11241
 H182 H 0.67042 0.69787 0.17361
 H183 H 0.62865 0.86838 0.04680
 H184 H 0.76029 0.85525 0.17090
 C185 C 0.62918 0.21658 -0.09854
 C186 C 0.66532 0.21671 -0.13427
 C187 C 0.66156 0.24754 -0.17413
 C188 C 0.61996 0.27803 -0.17879
 C189 C 0.58275 0.27756 -0.14277
 C190 C 0.58820 0.24727 -0.10163
 C191 C 0.54051 0.30630 -0.15029
 N192 N 0.53702 0.33455 -0.19016
 N193 N 0.57252 0.33572 -0.22332
 C194 C 0.61375 0.30836 -0.21911
 H195 H 0.63367 0.19277 -0.06778
 H196 H 0.69681 0.19293 -0.13057
 H197 H 0.50967 0.30606 -0.12561
 H198 H 0.64093 0.31012 -0.24759
 C199 C 0.40132 0.73128 -0.13696
 C200 C 0.36464 0.72893 -0.17342
 C201 C 0.32624 0.76247 -0.17458
 C202 C 0.32370 0.79819 -0.13750
 C203 C 0.36060 0.80025 -0.09988
 C204 C 0.40056 0.76718 -0.10051
 C205 C 0.35509 0.83447 -0.06216
 N206 N 0.31636 0.86532 -0.06330
 N207 N 0.28247 0.86405 -0.09923
 C208 C 0.28471 0.83149 -0.13626
 H209 H 0.43122 0.70546 -0.13782
 H210 H 0.36664 0.70118 -0.20144
 H211 H 0.38034 0.83651 -0.03123
 H212 H 0.25571 0.83163 -0.16409
 C213 C 0.13667 0.39831 0.27845
 C214 C 0.17138 0.36139 0.27937
 C215 C 0.16531 0.32056 0.24883
 C216 C 0.12290 0.31619 0.21740
 C217 C 0.08712 0.35346 0.21674
 C218 C 0.09480 0.39550 0.24698
 C219 C 0.04406 0.34624 0.18693
 N220 N 0.03845 0.30544 0.15887
 N221 N 0.07260 0.27109 0.15882
 C222 C 0.11452 0.27496 0.18718
 H223 H 0.14293 0.42974 0.30218
 H224 H 0.20358 0.36494 0.30374
 H225 H 0.01423 0.37186 0.18608
 H226 H 0.14058 0.24554 0.18620
 C227 C 0.14925 0.59863 0.76269
 C228 C 0.18534 0.63656 0.76416
 C229 C 0.17403 0.68421 0.74935
 C230 C 0.12342 0.69345 0.73513
 C231 C 0.08717 0.65411 0.73214
 C232 C 0.10059 0.60648 0.74585
 C233 C 0.03768 0.66424 0.71788
 N234 N 0.02491 0.71090 0.70916
 N235 N 0.05803 0.74814 0.71436
 C236 C 0.10640 0.74118 0.72765
 H237 H 0.15967 0.56246 0.77404
 H238 H 0.22312 0.62770 0.77513
 H239 H 0.00873 0.63576 0.71448
 H240 H 0.13039 0.77331 0.73377
 C241 C -0.11350 0.62928 0.21442
 C242 C -0.14800 0.66615 0.21302
 C243 C -0.17592 0.67796 0.25374
 C244 C -0.17129 0.64858 0.29579
 C245 C -0.13631 0.61026 0.29708
 C246 C -0.10588 0.60164 0.25616
 C247 C -0.13506 0.58069 0.33864
 N248 N -0.16625 0.58890 0.37567
 N249 N -0.19938 0.62407 0.37403
 C250 C -0.20341 0.65366 0.33532
 H251 H -0.09146 0.62327 0.18254
 H252 H -0.15063 0.68752 0.18033
 H253 H -0.11122 0.54996 0.34210
 H254 H -0.23291 0.67972 0.33538
 C255 C -0.09962 0.34964 0.74389
 C256 C -0.13801 0.31387 0.74270
 C257 C -0.18805 0.32534 0.75224
 C258 C -0.19896 0.37549 0.76111
 C259 C -0.15920 0.41141 0.76421
 C260 C -0.10945 0.39811 0.75530
 C261 C -0.17077 0.46027 0.77418
 N262 N -0.21921 0.47278 0.77812
 N263 N -0.25677 0.43988 0.77221
 C264 C -0.24843 0.39205 0.76318
 H265 H -0.06168 0.33926 0.73639
 H266 H -0.12774 0.27646 0.73608
 H267 H -0.14185 0.48873 0.77820
 H268 H -0.28069 0.36801 0.75620
 C269 C 0.26588 0.14245 0.40058
 C270 C 0.26397 0.17907 0.36596
 C271 C 0.23660 0.17148 0.32282
 C272 C 0.21050 0.12620 0.31431
 C273 C 0.21249 0.08876 0.34944
 C274 C 0.24019 0.09733 0.39317
 C275 C 0.18799 0.04345 0.33862
 N276 N 0.16222 0.03696 0.29622
 N277 N 0.15955 0.07248 0.26376
 C278 C 0.18284 0.11681 0.27129
 H279 H 0.28742 0.14950 0.43363
 H280 H 0.28444 0.21346 0.37263
 H281 H 0.18951 0.01287 0.36295
 H282 H 0.17964 0.14422 0.24355
 C283 C 0.74080 0.14881 0.59696
 C284 C 0.73975 0.18376 0.63383
 C285 C 0.73996 0.16996 0.68259
 C286 C 0.74110 0.11948 0.69415
 C287 C 0.74053 0.08392 0.65646
 C288 C 0.74117 0.09898 0.60767
 C289 C 0.74029 0.03419 0.66894
 N290 N 0.74229 0.02113 0.71604
 N291 N 0.74460 0.05447 0.75143
 C292 C 0.74434 0.10309 0.74215
 H293 H 0.74154 0.16075 0.55974
 H294 H 0.73893 0.22206 0.62422
 H295 H 0.73856 0.00564 0.64170
 H296 H 0.74732 0.12828 0.77242
 C297 C 0.22064 -0.10936 0.62641
 C298 C 0.22003 -0.14416 0.66270
 C299 C 0.25977 -0.17565 0.66881
 C300 C 0.30068 -0.17264 0.63697
 C301 C 0.30156 -0.13705 0.59974
 C302 C 0.26102 -0.10461 0.59476
 C303 C 0.34233 -0.13669 0.56808
 N304 N 0.37931 -0.16906 0.57376
 N305 N 0.37834 -0.20221 0.60864
 C306 C 0.34026 -0.20526 0.64026
 H307 H 0.18920 -0.08544 0.62344
 H308 H 0.18838 -0.14620 0.68668
 H309 H 0.34538 -0.11180 0.53845
 H310 H 0.34104 -0.23363 0.66718
 C311 C 0.73978 -0.13961 0.40120
 C312 C 0.74088 -0.17454 0.36438
 C313 C 0.76904 -0.16583 0.32306
 C314 C 0.79729 -0.12138 0.31892
 C315 C 0.79653 -0.08574 0.35650
 C316 C 0.76737 -0.09519 0.39814
 C317 C 0.82379 -0.04130 0.35004
 N318 N 0.85056 -0.03395 0.30941
 N319 N 0.85189 -0.06781 0.27467
 C320 C 0.82619 -0.11122 0.27799
 H321 H 0.71723 -0.14743 0.43255
 H322 H 0.71900 -0.20842 0.36781
 H323 H 0.82359 -0.01184 0.37618
 H324 H 0.82851 -0.13734 0.24861
 C325 C 0.60537 0.73701 -0.14442
 C326 C 0.64061 0.73447 -0.18080
 C327 C 0.68505 0.76307 -0.17809
 C328 C 0.69475 0.79426 -0.13767
 C329 C 0.65918 0.79655 -0.10038
 C330 C 0.61365 0.76821 -0.10438
 C331 C 0.67145 0.82589 -0.05951
 N332 N 0.71552 0.85210 -0.05720
 N333 N 0.74841 0.85066 -0.09271
 C334 C 0.73965 0.82257 -0.13276
 H335 H 0.57105 0.71476 -0.14777
 H336 H 0.63318 0.71007 -0.21134
 H337 H 0.64707 0.82766 -0.02897
 H338 H 0.76804 0.82237 -0.16015
 C339 C 0.39677 0.23697 -0.14834
 C340 C 0.36077 0.23657 -0.18544
 C341 C 0.30956 0.23855 -0.17523
 C342 C 0.29438 0.23962 -0.12636
 C343 C 0.33117 0.24124 -0.08871
 C344 C 0.38258 0.23983 -0.10008
 C345 C 0.31519 0.24393 -0.04069
 N346 N 0.26551 0.24336 -0.03115
 N347 N 0.23086 0.24030 -0.06640
 C348 C 0.24353 0.23824 -0.11358
 H349 H 0.43607 0.23582 -0.15737
 H350 H 0.37304 0.23564 -0.22252
 H351 H 0.34169 0.24640 -0.01073
 H352 H 0.21371 0.23495 -0.14049
 C353 C 0.38444 0.73033 0.10923
 C354 C 0.34473 0.72737 0.14096
 C355 C 0.32566 0.76949 0.16229
 C356 C 0.34639 0.81597 0.14829
 C357 C 0.38999 0.81884 0.11937
 C358 C 0.40817 0.77533 0.09791
 C359 C 0.41325 0.86553 0.11340
 N360 N 0.39052 0.90622 0.12885
 N361 N 0.34639 0.90365 0.15035
 C362 C 0.32335 0.86007 0.16010
 H363 H 0.39693 0.69646 0.09370
 H364 H 0.33061 0.69117 0.15041
 H365 H 0.44969 0.87080 0.09795
 H366 H 0.28694 0.86037 0.17656
 C367 C 0.62602 0.21649 0.10905
 C368 C 0.66182 0.21693 0.14631
 C369 C 0.65951 0.25021 0.18478
 C370 C 0.61954 0.28282 0.18661
 C371 C 0.58245 0.28193 0.14912
 C372 C 0.58666 0.24920 0.10924
 C373 C 0.54157 0.31279 0.15400
 N374 N 0.53938 0.34339 0.19267
 N375 N 0.57487 0.34494 0.22713
 C376 C 0.61475 0.31563 0.22553
 H377 H 0.62958 0.19085 0.07935
 H378 H 0.69209 0.19156 0.14476
 H379 H 0.51071 0.31242 0.12827
 H380 H 0.64195 0.31782 0.25498
 C381 C -0.11696 0.62325 0.71522
 C382 C -0.14854 0.66255 0.71443
 C383 C -0.16682 0.68272 0.75726
 C384 C -0.15041 0.66269 0.80212
 C385 C -0.12228 0.61933 0.80269
 C386 C -0.10311 0.60076 0.75862
 C387 C -0.11453 0.59675 0.84776
 N388 N -0.12696 0.61979 0.88916
 N389 N -0.14701 0.66363 0.88875
 C390 C -0.15854 0.68608 0.84679
 H391 H -0.10347 0.61023 0.68092
 H392 H -0.16011 0.67583 0.67936
 H393 H -0.10008 0.56067 0.85114
 H394 H -0.17335 0.72232 0.84887
 C395 C -0.09919 0.35238 0.24663
 C396 C -0.13665 0.31568 0.24781
 C397 C -0.18564 0.32654 0.26049
 C398 C -0.19687 0.37518 0.27337
 C399 C -0.15876 0.41250 0.27204
 C400 C -0.10967 0.40075 0.25859
 C401 C -0.17137 0.46068 0.28346
 N402 N -0.21875 0.47034 0.29662
 N403 N -0.25432 0.43510 0.29896
 C404 C -0.24503 0.38789 0.28786
 H405 H -0.06177 0.34301 0.23615
 H406 H -0.12760 0.27863 0.23791
 H407 H -0.14410 0.49066 0.28177
 H408 H -0.27528 0.36079 0.29069
 C409 C 0.10013 0.36139 0.77397
 C410 C 0.13448 0.32432 0.77312
 C411 C 0.17235 0.32423 0.73889
 C412 C 0.17637 0.36288 0.70533
 C413 C 0.14179 0.40126 0.70656
 C414 C 0.10265 0.39980 0.74077
 C415 C 0.14905 0.44057 0.67460
 N416 N 0.18713 0.44033 0.64283
 N417 N 0.21884 0.40384 0.64112
 C418 C 0.21492 0.36525 0.67138
 H419 H 0.07083 0.35970 0.80057
 H420 H 0.13131 0.29513 0.79926
 H421 H 0.12576 0.47206 0.67501
 H422 H 0.24229 0.33711 0.66894
 C423 C 0.14582 0.60452 0.26511
 C424 C 0.18331 0.64109 0.26318
 C425 C 0.17823 0.68121 0.23267
 C426 C 0.13423 0.68487 0.20376
 C427 C 0.09558 0.64796 0.20610
 C428 C 0.10196 0.60701 0.23670
 C429 C 0.05105 0.65465 0.17915
 N430 N 0.04663 0.69456 0.15085
 N431 N 0.08334 0.72857 0.14799
 C432 C 0.12686 0.72522 0.17359
 H433 H 0.15121 0.57384 0.28895
 H434 H 0.21656 0.63826 0.28594
 H435 H 0.01922 0.62933 0.18084
 H436 H 0.15506 0.75432 0.17042
 C437 C 0.73508 -0.13926 0.60086
 C438 C 0.73534 -0.17497 0.63631
 C439 C 0.76796 -0.17039 0.67626
 C440 C 0.80106 -0.12900 0.68079
 C441 C 0.80067 -0.09217 0.64491
 C442 C 0.76735 -0.09772 0.60426
 C443 C 0.83230 -0.05031 0.65237
 N444 N 0.86274 -0.04664 0.69211
 N445 N 0.86358 -0.08164 0.72519
 C446 C 0.83370 -0.12258 0.72100
 H447 H 0.70924 -0.14415 0.57040
 H448 H 0.70956 -0.20635 0.63275
 H449 H 0.83266 -0.01983 0.62796
 H450 H 0.83547 -0.14951 0.74932
 C451 C 0.22096 -0.10951 0.36040
 C452 C 0.22061 -0.14443 0.32364
 C453 C 0.25997 -0.17650 0.31937
 C454 C 0.30013 -0.17409 0.35354
 C455 C 0.30062 -0.13853 0.39135
 C456 C 0.26068 -0.10534 0.39433
 C457 C 0.34043 -0.13886 0.42549
 N458 N 0.37707 -0.17172 0.42139
 N459 N 0.37661 -0.20470 0.38575
 C460 C 0.33935 -0.20715 0.35184
 H461 H 0.18999 -0.08494 0.36185
 H462 H 0.18964 -0.14595 0.29771
 H463 H 0.34287 -0.11412 0.45582
 H464 H 0.34045 -0.23534 0.32428
 C465 C 0.74733 0.14994 0.41225
 C466 C 0.74651 0.18491 0.37602
 C467 C 0.74118 0.17113 0.32714
 C468 C 0.73660 0.12057 0.31482
 C469 C 0.73504 0.08517 0.35200
 C470 C 0.74132 0.10019 0.40087
 C471 C 0.72856 0.03553 0.33886
 N472 N 0.72601 0.02224 0.29157
 N473 N 0.72962 0.05523 0.25661
 C474 C 0.73515 0.10379 0.26655
 H475 H 0.75248 0.16179 0.44953
 H476 H 0.75005 0.22322 0.38629
 H477 H 0.72580 0.00717 0.36569
 H478 H 0.73916 0.12853 0.23657
 C479 C 0.26321 0.14295 0.59121
 C480 C 0.26126 0.17905 0.62685
 C481 C 0.23697 0.16960 0.67031
 C482 C 0.21364 0.12310 0.67792
 C483 C 0.21551 0.08630 0.64164
 C484 C 0.24037 0.09665 0.59784
 C485 C 0.19364 0.03990 0.65126
 N486 N 0.17038 0.03174 0.69374
 N487 N 0.16774 0.06666 0.72733
 C488 C 0.18857 0.11202 0.72092
 H489 H 0.28250 0.15130 0.55801
 H490 H 0.27945 0.21446 0.62081
 H491 H 0.19518 0.00986 0.62582
 H492 H 0.18537 0.13894 0.74946
   
