data_POSCAR
  _audit_creation_date              2014-09-24
  _audit_creation_method            'ToBaCCo'
  _symmetry_space_group_name_H-M    'P1'
  _symmetry_Int_Tables_number       1
  _symmetry_cell_setting            triclinic
  loop_
  _symmetry_equiv_pos_as_xyz
 x,y,z
_cell_length_a 17.5364
_cell_length_b 17.9103
_cell_length_c 23.5780
_cell_angle_alpha 91.896100
_cell_angle_beta 89.128300
_cell_angle_gamma 123.650200
loop_
  _atom_site_label
  _atom_site_type_symbol
  _atom_site_fract_x
  _atom_site_fract_y
  _atom_site_fract_z
C1 C 0.04595 0.56849 1.30049
 C2 C -0.04861 0.50128 1.30067
 C3 C -0.09932 0.47752 1.24988
 C4 C -0.05463 0.51467 1.19848
 C5 C 0.04114 0.56967 1.19744
 C6 C 0.09086 0.59970 1.24856
 H7 H 0.16426 0.64858 1.24807
 H8 H -0.17306 0.43039 1.25042
 C9 C 0.50858 0.46069 1.20775
 C10 C 0.44550 0.48473 1.20231
 C11 C 0.39774 0.48639 1.25040
 C12 C 0.41269 0.46443 1.30376
 C13 C 0.47827 0.44302 1.30941
 C14 C 0.52687 0.44301 1.26131
 H15 H 0.57527 0.42380 1.26493
 H16 H 0.34827 0.50420 1.24634
 C17 C 0.53818 0.95774 1.29834
 C18 C 0.52608 1.02818 1.30836
 C19 C 0.52858 1.07853 1.26325
 C20 C 0.54069 1.05791 1.20761
 C21 C 0.54673 0.98352 1.19698
 C22 C 0.54887 0.93621 1.24270
 H23 H 0.55435 0.87937 1.23495
 H24 H 0.52007 1.13345 1.27139
 C25 C 1.06405 0.55641 0.79900
 C26 C 0.96926 0.49648 0.79539
 C27 C 0.92598 0.47580 0.74238
 C28 C 0.97696 0.51894 0.69343
 C29 C 1.07030 0.58858 0.69902
 C30 C 1.11406 0.60492 0.75160
 H31 H 1.18679 0.65555 0.75579
 H32 H 0.85273 0.42702 0.73935
 C33 C 0.47535 0.43807 0.69348
 C34 C 0.42223 0.47416 0.69097
 C35 C 0.39638 0.49742 0.74145
 C36 C 0.42051 0.48211 0.79394
 C37 C 0.46684 0.43867 0.79680
 C38 C 0.49474 0.41715 0.74607
 H39 H 0.53418 0.38741 0.74750
 H40 H 0.36215 0.53244 0.74011
 C41 C 0.52891 0.01931 0.69406
 C42 C 0.53429 -0.05603 0.69796
 C43 C 0.53024 -0.09007 0.75162
 C44 C 0.52516 -0.04676 0.80090
 C45 C 0.52510 0.03079 0.79669
 C46 C 0.52383 0.06172 0.74374
 H47 H 0.52488 0.12261 0.74162
 H48 H 0.53023 -0.15028 0.75495
 O49 O 0.43382 0.61229 0.94010
 O50 O 0.51860 0.78375 0.95222
 C51 C 0.48232 0.81502 0.92290
 O52 O 0.40876 0.80841 0.93682
 O53 O 0.23633 0.71323 0.96126
 C54 C 0.20139 0.64338 0.92906
 O55 O 0.20551 0.57692 0.94016
 O56 O 0.29302 0.50223 0.96424
 C57 C 0.36259 0.53464 0.93220
 O58 O 0.42779 0.59155 1.05403
 O59 O 0.50711 0.76336 1.06753
 C60 C 0.50020 0.82900 1.07754
 O61 O 0.45597 0.84793 1.04568
 O62 O 0.28438 0.74332 1.07344
 C63 C 0.21354 0.66773 1.08465
 O64 O 0.18266 0.59947 1.05131
 O65 O 0.28117 0.53663 1.07509
 C66 C 0.35771 0.54877 1.08611
 Cr67 Cr 0.46852 0.68742 1.00356
 Cr68 Cr 0.34634 0.77499 1.00441
 Cr69 Cr 0.24389 0.55736 1.00764
 O70 O 0.35347 0.67337 1.00513
 O71 O 0.50716 0.27238 0.92835
 O72 O 0.55388 0.16363 0.95198
 C73 C 0.62277 0.17699 0.92371
 O74 O 0.70484 0.23949 0.93561
 O75 O 0.82605 0.41144 0.94771
 C76 C 0.80602 0.44911 0.91115
 O77 O 0.74491 0.46530 0.91984
 O78 O 0.57867 0.41869 0.94476
 C79 C 0.52714 0.34871 0.91435
 O80 O 0.49746 0.30676 1.04192
 O81 O 0.55026 0.19918 1.06504
 C82 C 0.61325 0.18711 1.07638
 O83 O 0.68672 0.22117 1.04803
 O84 O 0.80064 0.39483 1.06352
 C85 C 0.81703 0.47322 1.06816
 O86 O 0.79338 0.50504 1.03018
 O87 O 0.62369 0.44469 1.05589
 C88 C 0.54344 0.38147 1.06978
 Cr89 Cr 0.53104 0.23878 0.99698
 Cr90 Cr 0.75170 0.31768 0.99871
 Cr91 Cr 0.68434 0.45466 0.98797
 O92 O 0.65516 0.33623 0.99489
 O93 O 0.69555 0.46076 0.56582
 O94 O 0.82830 0.44070 0.54357
 C95 C 0.81991 0.38181 0.57644
 O96 O 0.76500 0.29826 0.56655
 O97 O 0.59920 0.15876 0.54989
 C98 C 0.54829 0.16778 0.58412
 O99 O 0.52200 0.21965 0.57548
 O100 O 0.54771 0.37190 0.54618
 C101 C 0.61257 0.42752 0.57865
 O102 O 0.66448 0.45755 0.45130
 O103 O 0.79552 0.43058 0.43106
 C104 C 0.82183 0.37753 0.42362
 O105 O 0.79375 0.30960 0.45368
 O106 O 0.62138 0.17432 0.43800
 C107 C 0.53487 0.13623 0.43694
 O108 O 0.49393 0.16379 0.46667
 O109 O 0.53253 0.32306 0.43785
 C110 C 0.58981 0.40418 0.42443
 Cr111 Cr 0.74256 0.44347 0.49783
 Cr112 Cr 0.69417 0.23828 0.50170
 Cr113 Cr 0.52819 0.27101 0.50619
 O114 O 0.65523 0.31760 0.50021
 O115 O 0.25844 0.53739 0.56817
 O116 O 0.17500 0.61705 0.55165
 C117 C 0.20883 0.69255 0.57706
 O118 O 0.28378 0.76217 0.56276
 O119 O 0.45809 0.84462 0.54458
 C120 C 0.50391 0.81922 0.56916
 O121 O 0.49904 0.74772 0.55514
 O122 O 0.39727 0.57314 0.54236
 C123 C 0.33083 0.53984 0.57705
 O124 O 0.25401 0.49998 0.45539
 O125 O 0.17920 0.59167 0.43782
 C126 C 0.18823 0.66535 0.42674
 O127 O 0.24749 0.74025 0.45086
 O128 O 0.42436 0.82269 0.43021
 C129 C 0.49187 0.81731 0.41781
 O130 O 0.50784 0.76569 0.44270
 O131 O 0.39940 0.59023 0.42860
 C132 C 0.32134 0.51700 0.42424
 Cr133 Cr 0.22143 0.56556 0.50270
 Cr134 Cr 0.35294 0.78786 0.49681
 Cr135 Cr 0.44649 0.66938 0.49219
 O136 O 0.34032 0.67467 0.49649
 N137 N 0.36074 0.45834 0.34642
 N138 N 0.30665 0.44804 0.38430
 N139 N 0.54396 0.91383 0.33971
 N140 N 0.55624 0.87256 0.37533
 N141 N 0.08812 0.61460 0.34709
 N142 N 0.12683 0.66661 0.38808
 N143 N 0.49231 0.41561 0.36242
 N144 N 0.57226 0.43742 0.37580
 N145 N 0.50400 0.04267 0.35840
 N146 N 0.47880 0.05599 0.40414
 N147 N 0.91604 0.44834 0.34379
 N148 N 0.88811 0.39324 0.38153
 N149 N 0.55076 0.44880 1.15890
 N150 N 0.50217 0.39423 1.11862
 N151 N 0.90026 0.51629 1.15519
 N152 N 0.86446 0.53090 1.11627
 N153 N 0.54650 0.11300 1.16268
 N154 N 0.60270 0.13199 1.12225
 N155 N 0.43480 0.51249 1.14854
 N156 N 0.36504 0.51392 1.13754
 N157 N 0.08655 0.59058 1.14381
 N158 N 0.16766 0.65815 1.13695
 N159 N 0.53078 0.94534 1.14087
 N160 N 0.53691 0.87912 1.12914
 N161 N 0.50572 0.41956 0.64178
 N162 N 0.58984 0.45286 0.63098
 N163 N 0.54052 0.05987 0.64084
 N164 N 0.52238 0.11884 0.63473
 N165 N 0.93317 0.49266 0.63898
 N166 N 0.87192 0.41045 0.62774
 N167 N 0.40569 0.49786 0.63719
 N168 N 0.33922 0.50622 0.62906
 N169 N 0.54927 0.90867 0.65297
 N170 N 0.56766 0.87487 0.61310
 N171 N 0.11518 0.64390 0.65784
 N172 N 0.15968 0.70193 0.62252
 N173 N 0.41180 0.52514 0.84290
 N174 N 0.36124 0.48279 0.88475
 N175 N 0.10895 0.56513 0.85092
 N176 N 0.15487 0.63902 0.87884
 N177 N 0.50277 0.91214 0.85454
 N178 N 0.52446 0.85976 0.87165
 N179 N 0.49494 0.42706 0.85086
 N180 N 0.49160 0.35623 0.86209
 N181 N 0.91785 0.46340 0.84674
 N182 N 0.85597 0.47763 0.85912
 N183 N 0.53483 0.08364 0.84616
 N184 N 0.60794 0.12030 0.87553
   
