data_POSCAR
  _audit_creation_date              2014-09-24
  _audit_creation_method            'ToBaCCo'
  _symmetry_space_group_name_H-M    'P1'
  _symmetry_Int_Tables_number       1
  _symmetry_cell_setting            triclinic
  loop_
  _symmetry_equiv_pos_as_xyz
 x,y,z
_cell_length_a 37.3175
_cell_length_b 35.5105
_cell_length_c 35.5182
_cell_angle_alpha 89.907600
_cell_angle_beta 90.017300
_cell_angle_gamma 89.981200
loop_
  _atom_site_label
  _atom_site_type_symbol
  _atom_site_fract_x
  _atom_site_fract_y
  _atom_site_fract_z
C1 C 0.30428 0.30154 0.23555
 H2 H 0.30575 0.30220 0.26596
 C3 C 0.32753 0.32370 0.21412
 H4 H 0.34692 0.34163 0.22801
 C5 C 0.27750 0.27707 0.18016
 H6 H 0.25837 0.25848 0.16700
 C7 C 0.30027 0.29877 0.15769
 H8 H 0.29834 0.29710 0.12730
 N9 N 0.27959 0.27919 0.21837
 C10 C 0.19471 0.26387 0.30148
 H11 H 0.19314 0.23346 0.30221
 C12 C 0.17161 0.28538 0.32370
 H13 H 0.15225 0.27155 0.34174
 C14 C 0.22159 0.31918 0.27681
 H15 H 0.24070 0.33228 0.25812
 C16 C 0.19899 0.34173 0.29856
 H17 H 0.20103 0.37212 0.29683
 Zn18 Zn 0.24942 0.24972 0.24955
 N19 N 0.21938 0.28097 0.27901
 C20 C 0.27737 0.22239 0.31901
 N21 N 0.27946 0.22013 0.28081
 C22 C 0.30408 0.19763 0.26373
 C23 C 0.32729 0.17546 0.28525
 C24 C 0.30009 0.20070 0.34157
 C25 C 0.19469 0.23582 0.19755
 C26 C 0.17147 0.21443 0.17536
 C27 C 0.19859 0.15794 0.20056
 C28 C 0.22132 0.18038 0.22227
 N29 N 0.21929 0.21861 0.22004
 H30 H 0.25831 0.24111 0.33209
 H31 H 0.30556 0.19686 0.23332
 H32 H 0.34664 0.15743 0.27144
 H33 H 0.29817 0.20250 0.37195
 H34 H 0.19325 0.26625 0.19679
 H35 H 0.15215 0.22835 0.15732
 H36 H 0.20048 0.12754 0.20233
 H37 H 0.24038 0.16718 0.24098
 C38 C 0.17390 0.32466 0.32231
 C39 C 0.32540 0.32238 0.17484
 C40 C 0.17355 0.17514 0.17680
 C41 C 0.32517 0.17695 0.32453
 C42 C 0.80517 0.80288 0.23501
 H43 H 0.80670 0.80364 0.26542
 C44 C 0.82826 0.82512 0.21346
 H45 H 0.84756 0.84319 0.22734
 C46 C 0.77840 0.77807 0.17978
 H47 H 0.75934 0.75931 0.16674
 C48 C 0.80099 0.79982 0.15716
 H49 H 0.79892 0.79797 0.12678
 N50 N 0.78056 0.78033 0.21798
 C51 C 0.69581 0.76482 0.30121
 H52 H 0.69434 0.73440 0.30196
 C53 C 0.67264 0.78625 0.32342
 H54 H 0.65333 0.77236 0.34147
 C55 C 0.72249 0.82021 0.27650
 H56 H 0.74155 0.83338 0.25780
 C57 C 0.69981 0.84269 0.29823
 H58 H 0.70175 0.87309 0.29649
 Zn59 Zn 0.75055 0.75081 0.24929
 N60 N 0.72042 0.78199 0.27872
 C61 C 0.77855 0.72362 0.31879
 N62 N 0.78070 0.72139 0.28059
 C63 C 0.80536 0.69889 0.26355
 C64 C 0.82848 0.67667 0.28511
 C65 C 0.80118 0.70187 0.34139
 C66 C 0.69579 0.73654 0.19740
 C67 C 0.67263 0.71497 0.17531
 C68 C 0.70001 0.65868 0.20064
 C69 C 0.72267 0.68129 0.22226
 N70 N 0.72049 0.71949 0.21991
 H71 H 0.75945 0.74233 0.33185
 H72 H 0.80688 0.69813 0.23314
 H73 H 0.84783 0.65860 0.27133
 H74 H 0.79917 0.70362 0.37176
 H75 H 0.69423 0.76695 0.19656
 H76 H 0.65323 0.72875 0.15725
 H77 H 0.70202 0.62830 0.20250
 H78 H 0.74180 0.66823 0.24098
 C79 C 0.67478 0.82554 0.32200
 C80 C 0.82605 0.82367 0.17416
 C81 C 0.67488 0.67569 0.17687
 C82 C 0.82625 0.67808 0.32437
 C83 C 0.80566 0.30081 0.73680
 H84 H 0.80721 0.30152 0.76721
 C85 C 0.82877 0.32304 0.71527
 H86 H 0.84813 0.34107 0.72907
 C87 C 0.77878 0.27619 0.68154
 H88 H 0.75967 0.25753 0.66845
 C89 C 0.80140 0.29795 0.65896
 H90 H 0.79937 0.29626 0.62858
 N91 N 0.78097 0.27837 0.71974
 C92 C 0.69611 0.26320 0.80291
 H93 H 0.69455 0.23278 0.80372
 C94 C 0.67296 0.28476 0.82502
 H95 H 0.65356 0.27097 0.84305
 C96 C 0.72300 0.31845 0.77813
 H97 H 0.74213 0.33151 0.75943
 C98 C 0.70035 0.34105 0.79976
 H99 H 0.70236 0.37144 0.79794
 Zn100 Zn 0.75083 0.24893 0.75100
 N101 N 0.72081 0.28024 0.78043
 C102 C 0.77874 0.22155 0.82045
 N103 N 0.78086 0.21933 0.78226
 C104 C 0.80544 0.19678 0.76518
 C105 C 0.82856 0.17449 0.78668
 C106 C 0.80134 0.19976 0.84305
 C107 C 0.69603 0.23509 0.69908
 C108 C 0.67283 0.21373 0.67685
 C109 C 0.69998 0.15720 0.70192
 C110 C 0.72270 0.17961 0.72368
 N111 N 0.72066 0.21784 0.72152
 H112 H 0.75969 0.24031 0.83352
 H113 H 0.80693 0.19605 0.73477
 H114 H 0.84783 0.15644 0.77270
 H115 H 0.79925 0.20165 0.87344
 H116 H 0.69460 0.26551 0.69838
 H117 H 0.65351 0.22769 0.65883
 H118 H 0.70189 0.12681 0.70361
 H119 H 0.74177 0.16638 0.74235
 C120 C 0.67521 0.32404 0.82350
 C121 C 0.82649 0.32169 0.67600
 C122 C 0.67494 0.17444 0.67819
 C123 C 0.82640 0.17589 0.82601
 C124 C 0.30440 0.80234 0.73618
 H125 H 0.30588 0.80310 0.76659
 C126 C 0.32761 0.82449 0.71468
 H127 H 0.34697 0.84251 0.72850
 C128 C 0.27768 0.77762 0.68088
 H129 H 0.25861 0.75892 0.66778
 C130 C 0.30040 0.79929 0.65833
 H131 H 0.29847 0.79750 0.62795
 N132 N 0.27977 0.77986 0.71909
 C133 C 0.19497 0.76438 0.80228
 H134 H 0.19352 0.73396 0.80308
 C135 C 0.17174 0.78584 0.82439
 H136 H 0.15239 0.77197 0.84243
 C137 C 0.22164 0.81974 0.77749
 H138 H 0.24071 0.83289 0.75878
 C139 C 0.19890 0.84225 0.79913
 H140 H 0.20080 0.87264 0.79730
 Zn141 Zn 0.24971 0.75034 0.75034
 N142 N 0.21959 0.78153 0.77979
 C143 C 0.27775 0.72297 0.81977
 N144 N 0.27985 0.72085 0.78156
 C145 C 0.30453 0.69846 0.76441
 C146 C 0.32775 0.67626 0.78586
 C147 C 0.30049 0.70123 0.84226
 C148 C 0.19499 0.73619 0.69836
 C149 C 0.17188 0.71468 0.67618
 C150 C 0.19920 0.65833 0.70144
 C151 C 0.22183 0.68089 0.72315
 N152 N 0.21965 0.71910 0.72088
 H153 H 0.25863 0.74159 0.83291
 H154 H 0.30601 0.69780 0.73400
 H155 H 0.34714 0.65830 0.77199
 H156 H 0.29854 0.70290 0.87265
 H157 H 0.19345 0.76661 0.69758
 H158 H 0.15251 0.72850 0.65811
 H159 H 0.20121 0.62794 0.70323
 H160 H 0.24093 0.66779 0.74188
 C161 C 0.17383 0.82513 0.82287
 C162 C 0.32548 0.82302 0.67540
 C163 C 0.17412 0.67540 0.67765
 C164 C 0.32560 0.67758 0.82514
 C165 C -0.00130 0.00027 -0.00045
 C166 C 0.00001 0.49993 0.50021
 C167 C 0.50041 0.00012 0.50005
 C168 C 0.50055 0.49982 0.00006
 C169 C 0.15034 -0.15218 -0.15442
 C170 C 0.13077 -0.13310 -0.13534
 C171 C 0.10756 -0.11024 -0.11248
 C172 C 0.08622 -0.12696 -0.08464
 C173 C 0.06393 -0.10468 -0.06218
 C174 C 0.06289 -0.06559 -0.06747
 C175 C 0.08416 -0.04887 -0.09537
 C176 C 0.10645 -0.07115 -0.11782
 C177 C 0.04026 -0.04261 -0.04411
 C178 C 0.02142 -0.02328 -0.02445
 H179 H 0.08689 -0.15716 -0.08025
 H180 H 0.04760 -0.11788 -0.04067
 H181 H 0.08358 -0.01867 -0.09967
 H182 H 0.12287 -0.05793 -0.13925
 C183 C 0.15060 0.34739 0.34519
 C184 C 0.13122 0.36651 0.36445
 C185 C 0.10823 0.38941 0.38752
 C186 C 0.10833 0.42865 0.38333
 C187 C 0.08624 0.45095 0.40598
 C188 C 0.06395 0.43410 0.43290
 C189 C 0.06379 0.39485 0.43704
 C190 C 0.08589 0.37255 0.41439
 C191 C 0.04145 0.45707 0.45640
 C192 C 0.02269 0.47639 0.47615
 H193 H 0.12553 0.44197 0.36267
 H194 H 0.08658 0.48127 0.40257
 H195 H 0.04667 0.38154 0.45778
 H196 H 0.08562 0.34223 0.41787
 C197 C 0.65141 -0.15181 0.34488
 C198 C 0.63196 -0.13278 0.36414
 C199 C 0.60888 -0.11000 0.38723
 C200 C 0.58749 -0.12686 0.41494
 C201 C 0.56532 -0.10466 0.43762
 C202 C 0.56446 -0.06552 0.43267
 C203 C 0.58579 -0.04867 0.40490
 C204 C 0.60796 -0.07087 0.38223
 C205 C 0.54191 -0.04263 0.45620
 C206 C 0.52311 -0.02337 0.47598
 H207 H 0.58802 -0.15709 0.41907
 H208 H 0.54895 -0.11797 0.45902
 H209 H 0.58534 -0.01842 0.40086
 H210 H 0.62441 -0.05754 0.36091
 C211 C 0.65180 0.34683 -0.15380
 C212 C 0.63232 0.36601 -0.13472
 C213 C 0.60921 0.38899 -0.11187
 C214 C 0.61000 0.42827 -0.11550
 C215 C 0.58778 0.45065 -0.09306
 C216 C 0.56468 0.43383 -0.06690
 C217 C 0.56382 0.39454 -0.06331
 C218 C 0.58604 0.37216 -0.08576
 C219 C 0.54209 0.45688 -0.04356
 C220 C 0.52327 0.47625 -0.02392
 H221 H 0.62783 0.44157 -0.13559
 H222 H 0.58867 0.48100 -0.09604
 H223 H 0.54607 0.38125 -0.04314
 H224 H 0.58523 0.34181 -0.08270
 C225 C -0.15239 0.15508 -0.15331
 C226 C -0.13293 0.13583 -0.13417
 C227 C -0.10987 0.11280 -0.11122
 C228 C -0.11081 0.11611 -0.07193
 C229 C -0.08863 0.09350 -0.04959
 C230 C -0.06542 0.06750 -0.06645
 C231 C -0.06442 0.06424 -0.10574
 C232 C -0.08661 0.08685 -0.12809
 C233 C -0.04284 0.04404 -0.04343
 C234 C -0.02403 0.02431 -0.02406
 H235 H -0.12872 0.13606 -0.05860
 H236 H -0.08963 0.09623 -0.01923
 H237 H -0.04659 0.04421 -0.11906
 H238 H -0.08568 0.08405 -0.15844
 C239 C -0.15046 0.65516 0.34717
 C240 C -0.13109 0.63588 0.36634
 C241 C -0.10814 0.61277 0.38933
 C242 C -0.10790 0.61731 0.42851
 C243 C -0.08584 0.59462 0.45089
 C244 C -0.06393 0.56731 0.43419
 C245 C -0.06410 0.56282 0.39501
 C246 C -0.08616 0.58551 0.37262
 C247 C -0.04145 0.54378 0.45726
 C248 C -0.02269 0.52401 0.47663
 H249 H -0.12480 0.63828 0.44172
 H250 H -0.08592 0.59831 0.48117
 H251 H -0.04727 0.54177 0.38181
 H252 H -0.08616 0.58175 0.34235
 C253 C 0.34866 0.15422 0.34728
 C254 C 0.36822 0.13513 0.36643
 C255 C 0.39143 0.11228 0.38938
 C256 C 0.38976 0.11482 0.42871
 C257 C 0.41207 0.09237 0.45105
 C258 C 0.43615 0.06728 0.43415
 C259 C 0.43790 0.06479 0.39483
 C260 C 0.41558 0.08725 0.37249
 C261 C 0.45882 0.04390 0.45716
 C262 C 0.47768 0.02419 0.47650
 H263 H 0.37117 0.13406 0.44206
 H264 H 0.41049 0.09448 0.48143
 H265 H 0.45640 0.04546 0.38149
 H266 H 0.41707 0.08504 0.34211
 C267 C 0.34907 0.65473 -0.15220
 C268 C 0.36862 0.63550 -0.13317
 C269 C 0.39182 0.61246 -0.11039
 C270 C 0.39555 0.61990 -0.07186
 C271 C 0.41782 0.59728 -0.04964
 C272 C 0.43644 0.56712 -0.06585
 C273 C 0.43278 0.55973 -0.10440
 C274 C 0.41051 0.58236 -0.12663
 C275 C 0.45904 0.54363 -0.04290
 C276 C 0.47786 0.52387 -0.02356
 H277 H 0.38120 0.64308 -0.05902
 H278 H 0.42044 0.60322 -0.01985
 H279 H 0.44704 0.53647 -0.11721
 H280 H 0.40780 0.57634 -0.15639
 C281 C -0.15190 -0.15467 0.15259
 C282 C -0.13250 -0.13543 0.13341
 C283 C -0.10950 -0.11238 0.11044
 C284 C -0.10963 -0.11657 0.07122
 C285 C -0.08752 -0.09395 0.04885
 C286 C -0.06520 -0.06704 0.06560
 C287 C -0.06501 -0.06290 0.10483
 C288 C -0.08712 -0.08553 0.12720
 C289 C -0.04270 -0.04355 0.04254
 C290 C -0.02396 -0.02380 0.02316
 H291 H -0.12685 -0.13723 0.05797
 H292 H -0.08789 -0.09737 0.01854
 H293 H -0.04786 -0.04217 0.11806
 H294 H -0.08683 -0.08204 0.15750
 C295 C -0.15023 0.34462 0.65323
 C296 C -0.13088 0.36391 0.63406
 C297 C -0.10795 0.38702 0.61108
 C298 C -0.08503 0.41334 0.62789
 C299 C -0.06300 0.43604 0.60550
 C300 C -0.06380 0.43250 0.56623
 C301 C -0.08666 0.40613 0.54943
 C302 C -0.10869 0.38343 0.57181
 C303 C -0.04136 0.45605 0.54317
 C304 C -0.02264 0.47584 0.52380
 H305 H -0.08427 0.41636 0.65823
 H306 H -0.04543 0.45636 0.61878
 H307 H -0.08750 0.40318 0.51908
 H308 H -0.12633 0.36319 0.55852
 C309 C 0.34896 -0.15425 0.65267
 C310 C 0.36851 -0.13513 0.63355
 C311 C 0.39170 -0.11224 0.61064
 C312 C 0.41452 -0.08586 0.62750
 C313 C 0.43680 -0.06336 0.60519
 C314 C 0.43633 -0.06715 0.56593
 C315 C 0.41358 -0.09359 0.54908
 C316 C 0.39131 -0.11609 0.57139
 C317 C 0.45894 -0.04372 0.54294
 C318 C 0.47775 -0.02398 0.52361
 H319 H 0.41501 -0.08264 0.65783
 H320 H 0.45427 -0.04297 0.61850
 H321 H 0.41299 -0.09672 0.51875
 H322 H 0.37374 -0.13638 0.55807
 C323 C 0.34890 0.34517 0.15219
 C324 C 0.36848 0.36435 0.13317
 C325 C 0.39170 0.38733 0.11038
 C326 C 0.39340 0.38163 0.07139
 C327 C 0.41569 0.40420 0.04918
 C328 C 0.43638 0.43256 0.06586
 C329 C 0.43475 0.43820 0.10485
 C330 C 0.41245 0.41563 0.12707
 C331 C 0.45901 0.45603 0.04293
 C332 C 0.47784 0.47577 0.02363
 H333 H 0.37744 0.35985 0.05820
 H334 H 0.41673 0.39963 0.01905
 H335 H 0.45061 0.46007 0.11803
 H336 H 0.41132 0.42029 0.15719
 C337 C 0.15008 0.15252 0.15400
 C338 C 0.13053 0.13352 0.13482
 C339 C 0.10734 0.11075 0.11184
 C340 C 0.09074 0.12634 0.08004
 C341 C 0.06849 0.10410 0.05749
 C342 C 0.06274 0.06619 0.06667
 C343 C 0.07926 0.05063 0.09852
 C344 C 0.10152 0.07286 0.12107
 C345 C 0.04017 0.04320 0.04326
 C346 C 0.02137 0.02386 0.02356
 H347 H 0.09508 0.15559 0.07264
 H348 H 0.05586 0.11640 0.03291
 H349 H 0.07502 0.02134 0.10585
 H350 H 0.11424 0.06052 0.14558
 C351 C 0.15078 0.65266 0.65482
 C352 C 0.13137 0.63352 0.63562
 C353 C 0.10834 0.61060 0.61263
 C354 C 0.08658 0.62735 0.58514
 C355 C 0.06445 0.60501 0.56256
 C356 C 0.06399 0.56584 0.56738
 C357 C 0.08569 0.54911 0.59492
 C358 C 0.10782 0.57144 0.61750
 C359 C 0.04148 0.54282 0.54394
 C360 C 0.02270 0.52348 0.52423
 H361 H 0.08680 0.65760 0.58111
 H362 H 0.04779 0.61823 0.54132
 H363 H 0.08555 0.51885 0.59887
 H364 H 0.12455 0.55820 0.63865
 C365 C 0.65152 0.15188 0.65528
 C366 C 0.63202 0.13293 0.63599
 C367 C 0.60888 0.11026 0.61285
 C368 C 0.59466 0.12508 0.57945
 C369 C 0.57246 0.10292 0.55677
 C370 C 0.56440 0.06586 0.56740
 C371 C 0.57856 0.05108 0.60084
 C372 C 0.60075 0.07324 0.62353
 C373 C 0.54187 0.04294 0.54388
 C374 C 0.52309 0.02365 0.52412
 H375 H 0.60079 0.15366 0.57092
 H376 H 0.56167 0.11461 0.53095
 H377 H 0.57251 0.02245 0.60931
 H378 H 0.61164 0.06150 0.64928
 C379 C 0.65148 0.65290 0.15416
 C380 C 0.63201 0.63372 0.13506
 C381 C 0.60892 0.61075 0.11218
 C382 C 0.58817 0.62726 0.08370
 C383 C 0.56600 0.60487 0.06123
 C384 C 0.56449 0.56588 0.06713
 C385 C 0.58517 0.54939 0.09567
 C386 C 0.60734 0.57178 0.11814
 C387 C 0.54197 0.54280 0.04377
 C388 C 0.52321 0.52341 0.02408
 H389 H 0.58921 0.65737 0.07884
 H390 H 0.55014 0.61791 0.03922
 H391 H 0.58422 0.51926 0.10045
 H392 H 0.62329 0.55872 0.14007
   
