data_POSCAR
  _audit_creation_date              2014-09-24
  _audit_creation_method            'ToBaCCo'
  _symmetry_space_group_name_H-M    'P1'
  _symmetry_Int_Tables_number       1
  _symmetry_cell_setting            triclinic
  loop_
  _symmetry_equiv_pos_as_xyz
 x,y,z
_cell_length_a 51.0614
_cell_length_b 49.6058
_cell_length_c 50.9028
_cell_angle_alpha 89.963900
_cell_angle_beta 90.008100
_cell_angle_gamma 90.008000
loop_
  _atom_site_label
  _atom_site_type_symbol
  _atom_site_fract_x
  _atom_site_fract_y
  _atom_site_fract_z
N1 N 0.59485 0.66737 0.61296
 N2 N 0.58463 0.65653 0.63416
 C3 C 0.56325 0.67071 0.64115
 C4 C 0.55985 0.69161 0.62337
 C5 C 0.58036 0.68879 0.60575
 H6 H 0.55119 0.66624 0.65803
 H7 H 0.58441 0.70121 0.58878
 Cu8 Cu 0.60032 0.62495 0.65050
 Cu9 Cu 0.62614 0.65292 0.59622
 Cu10 Cu 0.65445 0.59665 0.62505
 N11 N 0.61638 0.59336 0.66649
 N12 N 0.63753 0.58242 0.65644
 C13 C 0.64452 0.56100 0.67108
 C14 C 0.62675 0.55820 0.69161
 C15 C 0.60915 0.57926 0.68791
 H16 H 0.66133 0.54850 0.66691
 H17 H 0.59230 0.58408 0.69981
 N18 N 0.66863 0.61399 0.59322
 N19 N 0.65783 0.63536 0.58224
 C20 C 0.67192 0.64234 0.56093
 C21 C 0.69265 0.62451 0.55827
 C22 C 0.68986 0.60682 0.57917
 H23 H 0.66730 0.65912 0.54823
 H24 H 0.70241 0.58999 0.58393
 H25 H 0.62119 0.61365 0.60888
 H26 H 0.64199 0.63599 0.62974
 N27 N 0.90668 0.33275 0.11190
 N28 N 0.91729 0.34407 0.13264
 C29 C 0.93862 0.32988 0.13976
 C30 C 0.94168 0.30837 0.12252
 C31 C 0.92087 0.31100 0.10508
 H32 H 0.95088 0.33493 0.15632
 H33 H 0.91620 0.29816 0.08861
 Cu34 Cu 0.90216 0.37622 0.14844
 Cu35 Cu 0.87522 0.34693 0.09529
 Cu36 Cu 0.84699 0.40335 0.12370
 N37 N 0.88559 0.40745 0.16454
 N38 N 0.86408 0.41794 0.15477
 C39 C 0.85685 0.43916 0.16954
 C40 C 0.87477 0.44221 0.18977
 C41 C 0.89275 0.42163 0.18592
 H42 H 0.83966 0.45129 0.16587
 H43 H 0.90987 0.41738 0.19768
 N44 N 0.83262 0.38569 0.09218
 N45 N 0.84337 0.36423 0.08135
 C46 C 0.82914 0.35703 0.06020
 C47 C 0.80836 0.37480 0.05751
 C48 C 0.81128 0.39269 0.07822
 H49 H 0.83372 0.34015 0.04764
 H50 H 0.79877 0.40958 0.08287
 H51 H 0.88007 0.38646 0.10710
 H52 H 0.86011 0.36427 0.12898
 N53 N 0.40604 0.16689 -0.11206
 N54 N 0.41653 0.15573 -0.13295
 C55 C 0.43783 0.16999 -0.14007
 C56 C 0.44094 0.19124 -0.12266
 C57 C 0.42033 0.18855 -0.10513
 H58 H 0.45025 0.16513 -0.15658
 H59 H 0.41583 0.20150 -0.08868
 Cu60 Cu 0.40132 0.12369 -0.14887
 Cu61 Cu 0.37459 0.15265 -0.09546
 Cu62 Cu 0.34630 0.09634 -0.12408
 N63 N 0.38480 0.09248 -0.16504
 N64 N 0.36335 0.08187 -0.15523
 C65 C 0.35616 0.06066 -0.17003
 C66 C 0.37404 0.05774 -0.19031
 C67 C 0.39195 0.07837 -0.18646
 H68 H 0.33903 0.04844 -0.16634
 H69 H 0.40904 0.08271 -0.19824
 N70 N 0.33197 0.11389 -0.09248
 N71 N 0.34274 0.13530 -0.08159
 C72 C 0.32850 0.14247 -0.06045
 C73 C 0.30768 0.12473 -0.05783
 C74 C 0.31060 0.10687 -0.07857
 H75 H 0.33304 0.15938 -0.04790
 H76 H 0.29811 0.08998 -0.08326
 H77 H 0.37942 0.11319 -0.10751
 H78 H 0.35934 0.13547 -0.12918
 N79 N 0.09302 0.83271 0.38811
 N80 N 0.08250 0.84401 0.36731
 C81 C 0.06113 0.82989 0.36020
 C82 C 0.05793 0.80846 0.37753
 C83 C 0.07871 0.81105 0.39500
 H84 H 0.04893 0.83494 0.34359
 H85 H 0.08330 0.79823 0.41152
 Cu86 Cu 0.09779 0.87603 0.35138
 Cu87 Cu 0.12453 0.84682 0.40469
 Cu88 Cu 0.15306 0.90301 0.37604
 N89 N 0.11450 0.90713 0.33516
 N90 N 0.13605 0.91758 0.34489
 C91 C 0.14336 0.93873 0.33004
 C92 C 0.12544 0.94178 0.30979
 C93 C 0.10740 0.92128 0.31373
 H94 H 0.16059 0.95082 0.33366
 H95 H 0.09025 0.91707 0.30199
 N96 N 0.16732 0.88538 0.40765
 N97 N 0.15646 0.86402 0.41857
 C98 C 0.17063 0.85683 0.43976
 C99 C 0.19150 0.87450 0.44238
 C100 C 0.18870 0.89232 0.42159
 H101 H 0.16598 0.83999 0.45237
 H102 H 0.20128 0.90913 0.41686
 H103 H 0.11987 0.88632 0.39268
 H104 H 0.13976 0.86395 0.37094
 N105 N 0.09296 0.16720 0.11230
 N106 N 0.08255 0.15603 0.13329
 C107 C 0.06118 0.17021 0.14040
 C108 C 0.05822 0.19118 0.12290
 C109 C 0.07859 0.18881 0.10532
 H110 H 0.04871 0.16569 0.15701
 H111 H 0.08264 0.20181 0.08874
 Cu112 Cu 0.09796 0.12412 0.14928
 Cu113 Cu 0.12433 0.15294 0.09560
 Cu114 Cu 0.15283 0.09673 0.12429
 N115 N 0.11452 0.09293 0.16547
 N116 N 0.13598 0.08232 0.15559
 C117 C 0.14327 0.06112 0.17042
 C118 C 0.12543 0.05845 0.19055
 C119 C 0.10744 0.07883 0.18697
 H120 H 0.16024 0.04860 0.16684
 H121 H 0.09055 0.08299 0.19911
 N122 N 0.16697 0.11418 0.09254
 N123 N 0.15611 0.13560 0.08160
 C124 C 0.17022 0.14273 0.06033
 C125 C 0.19078 0.12494 0.05793
 C126 C 0.18827 0.10712 0.07851
 H127 H 0.16593 0.15955 0.04752
 H128 H 0.20102 0.09031 0.08288
 H129 H 0.11961 0.11350 0.10783
 H130 H 0.13982 0.13587 0.12927
 N131 N 0.40664 0.83261 0.61219
 N132 N 0.41715 0.84391 0.63307
 C133 C 0.43863 0.82987 0.64010
 C134 C 0.44157 0.80884 0.62267
 C135 C 0.42106 0.81105 0.60522
 H136 H 0.45118 0.83449 0.65661
 H137 H 0.41695 0.79795 0.58875
 Cu138 Cu 0.40169 0.87576 0.64906
 Cu139 Cu 0.37506 0.84664 0.59568
 Cu140 Cu 0.34645 0.90273 0.62443
 N141 N 0.38506 0.90685 0.66530
 N142 N 0.36344 0.91729 0.65557
 C143 C 0.35612 0.93844 0.67043
 C144 C 0.37410 0.94125 0.69042
 C145 C 0.39220 0.92100 0.68672
 H146 H 0.33903 0.95082 0.66699
 H147 H 0.40922 0.91696 0.69875
 N148 N 0.33217 0.88514 0.59282
 N149 N 0.34308 0.86377 0.58187
 C150 C 0.32889 0.85657 0.56067
 C151 C 0.30823 0.87425 0.55834
 C152 C 0.31077 0.89209 0.57889
 H153 H 0.33322 0.83979 0.54784
 H154 H 0.29799 0.90888 0.58326
 H155 H 0.37964 0.88614 0.60774
 H156 H 0.35976 0.86368 0.62942
 N157 N 0.90622 0.66760 0.38726
 N158 N 0.91611 0.65716 0.36568
 C159 C 0.93747 0.67140 0.35863
 C160 C 0.94094 0.69170 0.37677
 C161 C 0.92090 0.68884 0.39467
 H162 H 0.94958 0.66739 0.34166
 H163 H 0.91728 0.70126 0.41174
 Cu164 Cu 0.90013 0.62598 0.34893
 Cu165 Cu 0.87509 0.65296 0.40410
 Cu166 Cu 0.84680 0.59672 0.37529
 N167 N 0.88438 0.59405 0.33336
 N168 N 0.86352 0.58270 0.34377
 C169 C 0.85669 0.56113 0.32926
 C170 C 0.87422 0.55896 0.30880
 C171 C 0.89154 0.58003 0.31186
 H172 H 0.84024 0.54802 0.33326
 H173 H 0.90805 0.58472 0.29936
 N174 N 0.83274 0.61384 0.40724
 N175 N 0.84353 0.63527 0.41821
 C176 C 0.82946 0.64221 0.43956
 C177 C 0.80901 0.62429 0.44199
 C178 C 0.81153 0.60659 0.42132
 H179 H 0.83369 0.65903 0.45238
 H180 H 0.79881 0.58975 0.41691
 H181 H 0.88027 0.61391 0.39088
 H182 H 0.85875 0.63625 0.37071
 N183 N 0.59337 0.33307 -0.11244
 N184 N 0.58285 0.34437 -0.13331
 C185 C 0.56139 0.33030 -0.14035
 C186 C 0.55849 0.30923 -0.12293
 C187 C 0.57899 0.31146 -0.10547
 H188 H 0.54884 0.33493 -0.15686
 H189 H 0.58312 0.29835 -0.08900
 Cu190 Cu 0.59826 0.37632 -0.14925
 Cu191 Cu 0.62490 0.34713 -0.09587
 Cu192 Cu 0.65343 0.40335 -0.12450
 N193 N 0.61488 0.40748 -0.16543
 N194 N 0.63645 0.41795 -0.15565
 C195 C 0.64378 0.43915 -0.17046
 C196 C 0.62583 0.44198 -0.19048
 C197 C 0.60776 0.42169 -0.18685
 H198 H 0.66085 0.45155 -0.16697
 H199 H 0.59078 0.41764 -0.19892
 N200 N 0.66770 0.38571 -0.09290
 N201 N 0.65682 0.36428 -0.08199
 C202 C 0.67101 0.35704 -0.06081
 C203 C 0.69164 0.37475 -0.05843
 C204 C 0.68908 0.39266 -0.07894
 H205 H 0.66671 0.34020 -0.04802
 H206 H 0.70185 0.40947 -0.08329
 H207 H 0.62024 0.38664 -0.10789
 H208 H 0.64020 0.36429 -0.12957
 C209 C 0.00097 0.24856 0.12287
 C210 C -0.01863 0.24808 0.10372
 C211 C -0.03822 0.26776 0.10357
 C212 C -0.03858 0.28841 0.12267
 C213 C -0.01862 0.28855 0.14189
 C214 C 0.00092 0.26881 0.14194
 C215 C 0.02114 0.22831 0.12293
 C216 C 0.03806 0.21136 0.12294
 H217 H -0.01877 0.23247 0.08884
 H218 H -0.05294 0.26656 0.08837
 H219 H -0.01783 0.30380 0.15702
 H220 H 0.01603 0.26937 0.15688
 C221 C 0.49912 0.75176 0.62295
 C222 C 0.52084 0.75449 0.60642
 C223 C 0.54059 0.73497 0.60654
 C224 C 0.53889 0.71238 0.62323
 C225 C 0.51692 0.70987 0.63978
 C226 C 0.49720 0.72942 0.63961
 C227 C 0.47882 0.77188 0.62282
 C228 C 0.46182 0.78874 0.62274
 H229 H 0.52254 0.77174 0.59347
 H230 H 0.55721 0.73778 0.59367
 H231 H 0.51474 0.69275 0.65275
 H232 H 0.48044 0.72709 0.65246
 C233 C 0.99842 0.74886 0.37715
 C234 C 0.99860 0.76908 0.35803
 C235 C 1.01821 0.78876 0.35811
 C236 C 1.03810 0.78858 0.37740
 C237 C 1.03759 0.76797 0.39655
 C238 C 1.01794 0.74835 0.39639
 C239 C 0.97818 0.72867 0.37704
 C240 C 0.96120 0.71178 0.37692
 H241 H 0.98355 0.76967 0.34303
 H242 H 1.01752 0.80399 0.34294
 H243 H 1.05225 0.76676 0.41182
 H244 H 1.01797 0.73276 0.41131
 C245 C 0.50116 0.25192 -0.12291
 C246 C 0.49786 0.23509 -0.14469
 C247 C 0.47829 0.21537 -0.14465
 C248 C 0.46170 0.21220 -0.12276
 C249 C 0.46520 0.22929 -0.10096
 C250 C 0.48479 0.24898 -0.10106
 C251 C 0.52135 0.27216 -0.12295
 C252 C 0.53829 0.28909 -0.12296
 H253 H 0.51040 0.23723 -0.16174
 H254 H 0.47610 0.20283 -0.16188
 H255 H 0.45302 0.22737 -0.08368
 H256 H 0.48721 0.26188 -0.08406
 C257 C 0.12556 0.00166 0.24858
 C258 C 0.10851 -0.02036 0.24714
 C259 C 0.10847 -0.03984 0.26700
 C260 C 0.12552 -0.03758 0.28863
 C261 C 0.14261 -0.01532 0.28984
 C262 C 0.14260 0.00413 0.26995
 C263 C 0.12555 0.02171 0.22813
 C264 C 0.12550 0.03849 0.21099
 H265 H 0.09526 -0.02249 0.23065
 H266 H 0.09518 -0.05671 0.26520
 H267 H 0.15588 -0.01271 0.30620
 H268 H 0.15586 0.02113 0.27128
 C269 C 0.62621 0.49890 -0.24839
 C270 C 0.64578 0.49867 -0.26757
 C271 C 0.64602 0.51821 -0.28737
 C272 C 0.62658 0.53844 -0.28839
 C273 C 0.60695 0.53835 -0.26883
 C274 C 0.60682 0.51876 -0.24907
 C275 C 0.62605 0.47880 -0.22799
 C276 C 0.62594 0.46198 -0.21089
 H277 H 0.66092 0.48336 -0.26722
 H278 H 0.66155 0.51721 -0.30176
 H279 H 0.59156 0.55329 -0.26853
 H280 H 0.59155 0.51913 -0.23429
 C281 C 0.37399 0.99797 0.74845
 C282 C 0.35712 0.99531 0.76995
 C283 C 0.35712 1.01471 0.78985
 C284 C 0.37402 1.03711 0.78854
 C285 C 0.39090 1.03956 0.76679
 C286 C 0.39086 1.02013 0.74692
 C287 C 0.37400 0.97795 0.72799
 C288 C 0.37404 0.96120 0.71085
 H289 H 0.34400 0.97820 0.77135
 H290 H 0.34399 1.01195 0.80630
 H291 H 0.40403 1.05655 0.76492
 H292 H 0.40397 1.02241 0.73033
 C293 C 0.87456 0.50210 0.25091
 C294 C 0.89165 0.48012 0.25238
 C295 C 0.89176 0.46065 0.23253
 C296 C 0.87471 0.46288 0.21088
 C297 C 0.85759 0.48511 0.20964
 C298 C 0.85754 0.50455 0.22951
 C299 C 0.87447 0.52213 0.27135
 C300 C 0.87437 0.53893 0.28845
 H301 H 0.90489 0.47801 0.26889
 H302 H 0.90508 0.44381 0.23435
 H303 H 0.84433 0.48770 0.19327
 H304 H 0.84424 0.52151 0.22816
 C305 C 0.24756 0.12494 0.00152
 C306 C 0.24768 0.10503 -0.01791
 C307 C 0.26717 0.10494 -0.03720
 C308 C 0.28689 0.12482 -0.03735
 C309 C 0.28650 0.14478 -0.01767
 C310 C 0.26698 0.14480 0.00159
 C311 C 0.22752 0.12496 0.02140
 C312 C 0.21074 0.12497 0.03806
 H313 H 0.23272 0.08954 -0.01815
 H314 H 0.26666 0.08923 -0.05190
 H315 H 0.30118 0.16045 -0.01701
 H316 H 0.26707 0.16033 0.01655
 C317 C 0.75237 0.62424 0.49852
 C318 C 0.75115 0.60333 0.51692
 C319 C 0.73177 0.60338 0.53632
 C320 C 0.71327 0.62440 0.53762
 C321 C 0.71471 0.64533 0.51896
 C322 C 0.73411 0.64522 0.49958
 C323 C 0.77235 0.62420 0.47859
 C324 C 0.78908 0.62421 0.46188
 H325 H 0.76519 0.58697 0.51627
 H326 H 0.73134 0.58684 0.55014
 H327 H 0.70100 0.66193 0.51926
 H328 H 0.73488 0.66154 0.48544
 C329 C 0.74839 0.37466 -0.00199
 C330 C 0.76683 0.35385 -0.00103
 C331 C 0.78629 0.35385 0.01828
 C332 C 0.78763 0.37473 0.03698
 C333 C 0.76891 0.39557 0.03580
 C334 C 0.74947 0.39550 0.01646
 C335 C 0.72838 0.37465 -0.02190
 C336 C 0.71161 0.37467 -0.03857
 H337 H 0.76616 0.33759 -0.01522
 H338 H 0.80016 0.33739 0.01849
 H339 H 0.76921 0.41205 0.04967
 H340 H 0.73528 0.41173 0.01590
 C341 C 0.25148 0.87423 0.50189
 C342 C 0.23257 0.85385 0.50139
 C343 C 0.21309 0.85390 0.48209
 C344 C 0.21222 0.87440 0.46294
 C345 C 0.23139 0.89482 0.46368
 C346 C 0.25085 0.89470 0.48300
 C347 C 0.27150 0.87419 0.52180
 C348 C 0.28826 0.87419 0.53848
 H349 H 0.23288 0.83788 0.51593
 H350 H 0.19884 0.83779 0.48227
 H351 H 0.23146 0.91100 0.44945
 H352 H 0.26539 0.91061 0.48322
   
