data_POSCAR
  _audit_creation_date              2014-09-24
  _audit_creation_method            'ToBaCCo'
  _symmetry_space_group_name_H-M    'P1'
  _symmetry_Int_Tables_number       1
  _symmetry_cell_setting            triclinic
  loop_
  _symmetry_equiv_pos_as_xyz
 x,y,z
_cell_length_a 28.8696
_cell_length_b 31.8688
_cell_length_c 15.3395
_cell_angle_alpha 89.950200
_cell_angle_beta 90.025500
_cell_angle_gamma 134.017200
loop_
  _atom_site_label
  _atom_site_type_symbol
  _atom_site_fract_x
  _atom_site_fract_y
  _atom_site_fract_z
C1 C 0.49932 0.88884 0.50136
 C2 C 0.50160 0.91123 0.58179
 C3 C 0.50289 0.95622 0.58201
 C4 C 0.49463 0.97458 0.50456
 C5 C 0.48615 0.94677 0.42595
 C6 C 0.49065 0.90567 0.42359
 C7 C 0.49349 1.02131 0.50595
 C8 C 0.50320 1.05107 0.42903
 C9 C 0.49985 1.09322 0.42887
 C10 C 0.49059 1.10834 0.50864
 C11 C 0.48677 1.08334 0.58672
 C12 C 0.48490 1.03826 0.58451
 H13 H 0.49950 0.85498 0.49929
 H14 H 0.51043 0.97645 0.64356
 H15 H 0.47566 0.95630 0.36573
 H16 H 0.51413 1.04219 0.36863
 H17 H 0.49189 1.14314 0.51130
 H18 H 0.47760 1.01771 0.64573
 C19 C 0.14652 0.52847 0.48815
 C20 C 0.12385 0.52994 0.56819
 C21 C 0.06703 0.51859 0.56863
 C22 C 0.03063 0.50243 0.49199
 C23 C 0.05539 0.50175 0.41325
 C24 C 0.11433 0.51759 0.41044
 C25 C -0.03128 0.48849 0.49361
 C26 C -0.05819 0.48806 0.41609
 C27 C -0.11728 0.47253 0.41614
 C28 C -0.14610 0.46398 0.49648
 C29 C -0.12093 0.46394 0.57444
 C30 C -0.06511 0.47419 0.57229
 H31 H 0.19209 0.54063 0.48496
 H32 H 0.05193 0.52312 0.62923
 H33 H 0.03033 0.48992 0.35225
 H34 H -0.03389 0.49969 0.35453
 H35 H -0.19097 0.45308 0.49838
 H36 H -0.04901 0.47046 0.63267
 C37 C 0.50711 0.61880 0.50118
 C38 C 0.50949 0.59939 0.58194
 C39 C 0.51017 0.55555 0.58269
 C40 C 0.50200 0.52687 0.50540
 C41 C 0.49227 0.54313 0.42707
 C42 C 0.49681 0.58982 0.42414
 C43 C 0.50216 0.47960 0.50597
 C44 C 0.51293 0.46358 0.42835
 C45 C 0.50997 0.41778 0.42688
 C46 C 0.50043 0.38967 0.50465
 C47 C 0.49559 0.40819 0.58393
 C48 C 0.49363 0.45104 0.58377
 H49 H 0.50730 0.65290 0.49842
 H50 H 0.51738 0.54448 0.64430
 H51 H 0.48064 0.51963 0.36729
 H52 H 0.52433 0.48664 0.36807
 H53 H 0.50208 0.35672 0.50413
 H54 H 0.48593 0.46167 0.64540
 O55 O 0.48628 0.70977 -0.09719
 O56 O 0.48589 0.78984 -0.07178
 C57 C 0.44619 0.78561 -0.11797
 O58 O 0.38606 0.74854 -0.10417
 O59 O 0.27674 0.64032 -0.08286
 C60 C 0.27201 0.60473 -0.12975
 O61 O 0.30156 0.58952 -0.11301
 O62 O 0.40632 0.61354 -0.07838
 C63 C 0.45637 0.65782 -0.11786
 O64 O 0.48171 0.69297 0.07853
 O65 O 0.47631 0.76990 0.10292
 C66 C 0.44417 0.78270 0.11718
 O67 O 0.39790 0.76543 0.06907
 O68 O 0.29248 0.65562 0.09003
 C69 C 0.26442 0.60345 0.10548
 O70 O 0.27396 0.57619 0.06138
 O71 O 0.38138 0.60518 0.09255
 C72 C 0.43957 0.64392 0.11664
 Cr73 Cr 0.47918 0.73843 0.00287
 Cr74 Cr 0.34016 0.70166 -0.00692
 Cr75 Cr 0.34234 0.59912 -0.00933
 O76 O 0.38735 0.67975 -0.00410
 O77 O 0.51807 0.29587 -0.09309
 O78 O 0.51314 0.21252 -0.06682
 C79 C 0.55203 0.21395 -0.10965
 O80 O 0.61168 0.24880 -0.09302
 O81 O 0.72312 0.35572 -0.07166
 C82 C 0.73086 0.39264 -0.11971
 O83 O 0.70357 0.41030 -0.10510
 O84 O 0.60154 0.39148 -0.07449
 C85 C 0.55049 0.34839 -0.11384
 O86 O 0.52203 0.31262 0.08237
 O87 O 0.52110 0.23199 0.10894
 C88 C 0.55095 0.21715 0.12582
 O89 O 0.59704 0.23256 0.07965
 O90 O 0.70468 0.34118 0.10171
 C91 C 0.73512 0.39411 0.11541
 O92 O 0.72900 0.42300 0.06877
 O93 O 0.62380 0.39869 0.09716
 C94 C 0.56534 0.36133 0.12064
 Cr95 Cr 0.52197 0.26527 0.00763
 Cr96 Cr 0.65748 0.29563 0.00408
 Cr97 Cr 0.66271 0.40275 -0.00334
 O98 O 0.61385 0.32114 0.00272
 N99 N 0.48375 0.89722 -0.26321
 C100 C 0.49678 0.88545 -0.33961
 N101 N 0.49787 0.84345 -0.33967
 N102 N 0.48511 0.81374 -0.26746
 C103 C 0.47039 0.82463 -0.19231
 N104 N 0.47019 0.86702 -0.19118
 N105 N 0.20973 0.55029 -0.35202
 C106 C 0.15924 0.54575 -0.35444
 N107 N 0.14482 0.55843 -0.28074
 N108 N 0.18007 0.57617 -0.20883
 C109 C 0.23045 0.58081 -0.20691
 N110 N 0.24442 0.56715 -0.27961
 N111 N 0.51031 0.66523 -0.33882
 C112 C 0.50491 0.61928 -0.33956
 N113 N 0.48795 0.58894 -0.26419
 N114 N 0.47456 0.60242 -0.19254
 C115 C 0.47905 0.64770 -0.19268
 N116 N 0.49814 0.67945 -0.26668
 N117 N 0.53638 0.11925 -0.26917
 C118 C 0.49578 0.11057 -0.32905
 N119 N 0.47070 0.13350 -0.31385
 N120 N 0.48594 0.16408 -0.24147
 C121 C 0.52766 0.17365 -0.18267
 N122 N 0.55242 0.15057 -0.19777
 N123 N 0.84669 0.42226 -0.27727
 C124 C 0.84405 0.44913 -0.34295
 N125 N 0.80577 0.45932 -0.33316
 N126 N 0.77109 0.44286 -0.26097
 C127 C 0.77300 0.41517 -0.19603
 N128 N 0.81159 0.40534 -0.20537
 N129 N 0.53531 0.42733 -0.26599
 C130 C 0.50170 0.38892 -0.33291
 N131 N 0.48130 0.33570 -0.32534
 N132 N 0.49439 0.32169 -0.25383
 C133 C 0.52927 0.36073 -0.18791
 N134 N 0.54912 0.41364 -0.19512
 N135 N 0.87017 0.45562 0.26123
 C136 C 0.85018 0.46059 0.33746
 N137 N 0.79415 0.44746 0.33730
 N138 N 0.75911 0.42903 0.26501
 C139 C 0.77849 0.42268 0.19004
 N140 N 0.83474 0.43652 0.18911
 N141 N 0.53093 0.11633 0.27776
 C142 C 0.50928 0.12204 0.35115
 N143 N 0.49868 0.15749 0.34808
 N144 N 0.50973 0.18621 0.27536
 C145 C 0.53254 0.18116 0.20298
 N146 N 0.54299 0.14575 0.20552
 N147 N 0.56985 0.44519 0.29061
 C148 C 0.52200 0.40253 0.34500
 N149 N 0.48681 0.34595 0.32365
 N150 N 0.49914 0.33259 0.25053
 C151 C 0.54758 0.37538 0.19678
 N152 N 0.58280 0.43188 0.21829
 N153 N 0.14561 0.56321 0.26662
 C154 C 0.14696 0.53240 0.32584
 N155 N 0.18457 0.52206 0.30954
 N156 N 0.21960 0.54206 0.23670
 C157 C 0.21907 0.57391 0.17854
 N158 N 0.18138 0.58400 0.19477
 N159 N 0.44560 0.87025 0.27551
 C160 C 0.48216 0.87715 0.34088
 N161 N 0.50818 0.85472 0.33058
 N162 N 0.49763 0.82609 0.25819
 C163 C 0.46027 0.81844 0.19354
 N164 N 0.43459 0.84118 0.20340
 N165 N 0.43777 0.56180 0.28692
 C166 C 0.48493 0.60477 0.34156
 N167 N 0.51895 0.66115 0.32022
 N168 N 0.50610 0.67399 0.24692
 C169 C 0.45828 0.63083 0.19298
 N170 N 0.42433 0.57457 0.21442
   
