data_POSCAR
  _audit_creation_date              2014-09-24
  _audit_creation_method            'ToBaCCo'
  _symmetry_space_group_name_H-M    'P1'
  _symmetry_Int_Tables_number       1
  _symmetry_cell_setting            triclinic
  loop_
  _symmetry_equiv_pos_as_xyz
 x,y,z
_cell_length_a 21.0303
_cell_length_b 20.2746
_cell_length_c 14.2698
_cell_angle_alpha 86.648800
_cell_angle_beta 88.834900
_cell_angle_gamma 90.910100
loop_
  _atom_site_label
  _atom_site_type_symbol
  _atom_site_fract_x
  _atom_site_fract_y
  _atom_site_fract_z
O1 O 0.30990 0.22660 0.24503
 O2 O 0.17760 0.34428 0.24676
 O3 O 0.28961 0.34396 0.29936
 O4 O 0.20033 0.24206 0.14757
 O5 O 0.14672 0.19344 0.26733
 O6 O 0.25501 0.28222 0.42355
 O7 O 0.14028 0.29534 0.37956
 O8 O 0.25863 0.16572 0.35618
 Cu9 Cu 0.24838 0.29173 0.22103
 Cu10 Cu 0.19510 0.22642 0.36647
 C11 C 0.30734 0.17675 0.30349
 C12 C 0.13950 0.34275 0.31790
 C13 C 0.28909 0.33029 0.38688
 C14 C 0.15545 0.20473 0.17919
 O15 O 0.78090 0.32956 0.20335
 O16 O 0.71471 0.16566 0.27645
 O17 O 0.79971 0.21378 0.14958
 O18 O 0.69046 0.28800 0.31602
 O19 O 0.61448 0.28473 0.21124
 O20 O 0.73467 0.24096 0.03474
 O21 O 0.65102 0.17053 0.15523
 O22 O 0.69941 0.34575 0.10954
 Cu23 Cu 0.75319 0.24646 0.24792
 Cu24 Cu 0.66754 0.25881 0.11586
 C25 C 0.75029 0.36650 0.14585
 C26 C 0.67208 0.14001 0.22824
 C27 C 0.78851 0.22167 0.06261
 C28 C 0.63352 0.29880 0.29164
 O29 O 0.80980 0.81381 0.80372
 O30 O 0.71388 0.66537 0.80362
 O31 O 0.83333 0.68461 0.81546
 O32 O 0.69614 0.78572 0.73426
 O33 O 0.73324 0.77823 0.58976
 O34 O 0.86066 0.67269 0.66697
 O35 O 0.74152 0.65054 0.65593
 O36 O 0.85139 0.79599 0.66443
 Cu37 Cu 0.76077 0.74013 0.80123
 Cu38 Cu 0.79709 0.72524 0.62908
 C39 C 0.85079 0.82745 0.73950
 C40 C 0.71271 0.63106 0.73281
 C41 C 0.86850 0.65922 0.75321
 C42 C 0.69150 0.79766 0.64595
 O43 O 0.18491 0.79190 0.80773
 O44 O 0.32381 0.69777 0.73273
 O45 O 0.21419 0.66701 0.80713
 O46 O 0.29542 0.82067 0.72821
 O47 O 0.34452 0.82543 0.86308
 O48 O 0.26026 0.66957 0.94466
 O49 O 0.36682 0.70711 0.87164
 O50 O 0.22773 0.80125 0.94632
 Cu51 Cu 0.24942 0.74385 0.75596
 Cu52 Cu 0.30041 0.75281 0.92286
 C53 C 0.18342 0.81362 0.88925
 C54 C 0.36992 0.68884 0.78815
 C55 C 0.22523 0.64068 0.88741
 C56 C 0.33710 0.84662 0.77840
 O57 O 1.04947 -0.04979 -0.00801
 O58 O 0.91354 0.06176 0.02636
 O59 O 0.93096 -0.03847 -0.07446
 O60 O 1.03068 0.07315 0.05957
 O61 O 1.06399 0.12189 -0.07584
 O62 O 0.96640 0.01063 -0.20824
 O63 O 0.94478 0.11542 -0.10613
 O64 O 1.07989 0.00735 -0.13779
 Cu65 Cu 0.98024 0.00382 0.01389
 Cu66 Cu 1.01477 0.06778 -0.14298
 C67 C 1.08764 -0.04013 -0.07779
 C68 C 0.90873 0.11008 -0.03360
 C69 C 0.93050 -0.03163 -0.16384
 C70 C 1.05963 0.12069 0.01295
 O71 O 0.44086 0.49608 0.42985
 O72 O 0.58237 0.55511 0.55318
 O73 O 0.56824 0.48189 0.42031
 O74 O 0.47108 0.59045 0.55249
 O75 O 0.45037 0.51095 0.66195
 O76 O 0.54251 0.39652 0.51799
 O77 O 0.56524 0.47056 0.65638
 O78 O 0.42100 0.41896 0.54265
 Cu79 Cu 0.51394 0.53758 0.47524
 Cu80 Cu 0.49222 0.44113 0.60449
 C81 C 0.40788 0.44684 0.46411
 C82 C 0.59657 0.52193 0.62811
 C83 C 0.57297 0.42153 0.44596
 C84 C 0.44962 0.57165 0.63313
 O85 O -0.07334 0.41512 0.03214
 O86 O 0.09102 0.45424 -0.04962
 O87 O 0.04121 0.41421 0.10874
 O88 O -0.01911 0.48392 -0.11321
 O89 O -0.03011 0.58176 -0.05352
 O90 O 0.03218 0.51222 0.16837
 O91 O 0.08273 0.55381 0.00381
 O92 O -0.08106 0.51417 0.08640
 Cu93 Cu 0.00941 0.43125 -0.01085
 Cu94 Cu 0.00055 0.54726 0.05607
 C95 C -0.10557 0.45834 0.07127
 C96 C 0.11431 0.51108 -0.03814
 C97 C 0.04892 0.45227 0.17529
 C98 C -0.03353 0.54470 -0.12204
 O99 O 0.54671 0.95950 0.33701
 O100 O 0.42698 0.90815 0.51445
 O101 O 0.42381 0.98580 0.36863
 O102 O 0.54889 0.89575 0.50137
 O103 O 0.57204 0.98573 0.57472
 O104 O 0.44754 1.07429 0.44478
 O105 O 0.44854 0.99417 0.59742
 O106 O 0.56835 1.04952 0.41116
 Cu107 Cu 0.48512 0.92905 0.42177
 Cu108 Cu 0.51098 1.03511 0.51390
 C109 C 0.57909 1.01193 0.34419
 C110 C 0.41730 0.94090 0.58579
 C111 C 0.41319 1.04526 0.38749
 C112 C 0.58182 0.92571 0.56034
 N113 N 1.11349 0.18632 0.11923
 N114 N 1.07476 0.18046 0.05636
 N115 N 0.68287 0.56759 0.74459
 N116 N 0.64182 0.54596 0.68908
 N117 N -0.22788 0.43255 0.12370
 N118 N -0.17068 0.44462 0.09921
 N119 N 0.38189 0.89260 0.73316
 N120 N 0.36957 0.91560 0.65102
 N121 N -0.08926 0.61525 -0.22378
 N122 N -0.05062 0.57080 -0.21208
 N123 N 0.36264 1.13765 0.31844
 N124 N 0.35824 1.07815 0.35220
 N125 N 1.13208 -0.14538 -0.08525
 N126 N 1.13997 -0.08292 -0.09136
 N127 N 0.59183 0.33237 0.35164
 N128 N 0.61300 0.38236 0.39124
 N129 N 0.90059 -0.12710 -0.24098
 N130 N 0.88695 -0.07072 -0.21319
 N131 N 0.33042 0.36685 0.44340
 N132 N 0.35902 0.41944 0.40885
 N133 N 0.20021 0.58247 -0.09072
 N134 N 0.17412 0.52820 -0.07833
 N135 N 0.65001 1.08118 0.25433
 N136 N 0.63134 1.02509 0.28024
 N137 N 0.09942 0.39794 0.33070
 N138 N 0.07412 0.42635 0.25754
 N139 N 0.63758 0.83046 0.60765
 N140 N 0.63301 0.89283 0.60692
 N141 N 0.84118 0.21929 -0.00143
 N142 N 0.86794 0.16709 -0.01493
 N143 N 0.42968 0.66855 0.75206
 N144 N 0.43615 0.62286 0.69814
   
