data_POSCAR
  _audit_creation_date              2014-09-24
  _audit_creation_method            'ToBaCCo'
  _symmetry_space_group_name_H-M    'P1'
  _symmetry_Int_Tables_number       1
  _symmetry_cell_setting            triclinic
  loop_
  _symmetry_equiv_pos_as_xyz
 x,y,z
_cell_length_a 33.7317
_cell_length_b 31.1597
_cell_length_c 44.4027
_cell_angle_alpha 89.632900
_cell_angle_beta 89.813500
_cell_angle_gamma 122.462900
loop_
  _atom_site_label
  _atom_site_type_symbol
  _atom_site_fract_x
  _atom_site_fract_y
  _atom_site_fract_z
C1 C -0.04111 0.48081 1.21295
 C2 C 0.00807 0.50134 1.21267
 C3 C 0.03294 0.51386 1.23978
 C4 C 0.01070 0.50889 1.26748
 C5 C -0.03875 0.48740 1.26810
 C6 C -0.06340 0.47632 1.24078
 H7 H -0.10123 0.45849 1.24153
 H8 H 0.07081 0.53200 1.23893
 C9 C 0.53237 0.50553 1.22783
 C10 C 0.51100 0.53377 1.22973
 C11 C 0.49051 0.53438 1.25714
 C12 C 0.49047 0.50713 1.28255
 C13 C 0.51184 0.47838 1.28054
 C14 C 0.53225 0.47810 1.25289
 H15 H 0.54977 0.45751 1.25084
 H16 H 0.47315 0.55522 1.25846
 C17 C 0.49476 0.97392 1.28443
 C18 C 0.52595 1.02746 1.28627
 C19 C 0.54692 1.05499 1.25946
 C20 C 0.53552 1.03159 1.23111
 C21 C 0.50196 0.97848 1.22958
 C22 C 0.48208 0.95049 1.25623
 H23 H 0.45923 0.90940 1.25514
 H24 H 0.56951 1.09607 1.26023
 C25 C 1.01713 0.49819 0.78690
 C26 C 0.96834 0.46234 0.78617
 C27 C 0.94632 0.44441 0.75834
 C28 C 0.97182 0.46183 0.73117
 C29 C 1.02077 0.49901 0.73168
 C30 C 1.04250 0.51667 0.75982
 H31 H 1.08009 0.54402 0.76086
 H32 H 0.90864 0.41736 0.75779
 C33 C 0.55775 0.55211 0.72067
 C34 C 0.51897 0.55757 0.71840
 C35 C 0.49414 0.55463 0.74458
 C36 C 0.50800 0.54753 0.77300
 C37 C 0.54797 0.54406 0.77517
 C38 C 0.57240 0.54649 0.74904
 H39 H 0.60168 0.54133 0.75068
 H40 H 0.46461 0.55931 0.74293
 C41 C 0.51950 -0.03164 0.77120
 C42 C 0.55128 0.02198 0.76826
 C43 C 0.55865 0.04536 0.73995
 C44 C 0.53555 0.01723 0.71433
 C45 C 0.50527 -0.03613 0.71667
 C46 C 0.49641 -0.05977 0.74511
 H47 H 0.47380 -0.10087 0.74651
 H48 H 0.58097 0.08646 0.73808
 O49 O 0.41617 0.67832 0.97534
 O50 O 0.40017 0.75061 0.97701
 C51 C 0.36787 0.74920 0.96118
 O52 O 0.32456 0.72212 0.96812
 O53 O 0.25235 0.62959 0.97313
 C54 C 0.25412 0.59628 0.95791
 O55 O 0.28030 0.58029 0.96486
 O56 O 0.36162 0.59567 0.97720
 C57 C 0.39964 0.63331 0.96688
 O58 O 0.40773 0.66631 1.03629
 O59 O 0.39258 0.73911 1.03833
 C60 C 0.36263 0.75046 1.04379
 O61 O 0.32567 0.73368 1.02841
 O62 O 0.25756 0.63937 1.03349
 C63 C 0.24317 0.59329 1.03892
 O64 O 0.25735 0.56894 1.02432
 O65 O 0.34055 0.58968 1.03641
 C66 C 0.37931 0.62266 1.04811
 Cr67 Cr 0.40141 0.70664 1.00658
 Cr68 Cr 0.29192 0.68040 1.00084
 Cr69 Cr 0.31099 0.58658 1.00077
 O70 O 0.33502 0.65799 1.00274
 O71 O 0.57307 0.31966 0.96076
 O72 O 0.57508 0.23885 0.97217
 C73 C 0.60521 0.23427 0.95788
 O74 O 0.64885 0.26140 0.96330
 O75 O 0.72594 0.35015 0.97144
 C76 C 0.73022 0.38707 0.95607
 O77 O 0.70784 0.40808 0.96222
 O78 O 0.62798 0.40087 0.96943
 C79 C 0.59316 0.36659 0.95464
 O80 O 0.56775 0.33347 1.01993
 O81 O 0.57430 0.25505 1.03097
 C82 C 0.59782 0.23542 1.03730
 O83 O 0.63575 0.24705 1.02377
 O84 O 0.71107 0.33707 1.03186
 C85 C 0.72779 0.38327 1.03832
 O86 O 0.71996 0.41233 1.02278
 O87 O 0.63867 0.40088 1.02973
 C88 C 0.59489 0.37345 1.03473
 Cr89 Cr 0.57529 0.28851 0.99599
 Cr90 Cr 0.67905 0.30018 0.99758
 Cr91 Cr 0.67258 0.40276 0.99602
 O92 O 0.64238 0.33048 0.99662
 O93 O 0.68608 0.42914 0.54327
 O94 O 0.77168 0.45413 0.52879
 C95 C 0.78198 0.42523 0.54235
 O96 O 0.76514 0.37967 0.53466
 O97 O 0.69840 0.28875 0.52038
 C98 C 0.66241 0.27228 0.53722
 O99 O 0.63359 0.28626 0.53413
 O100 O 0.61716 0.35944 0.53116
 C101 C 0.64239 0.39799 0.54785
 O102 O 0.66741 0.43683 0.48585
 O103 O 0.74927 0.45499 0.46979
 C104 C 0.77518 0.43956 0.46082
 O105 O 0.78057 0.40856 0.47625
 O106 O 0.71045 0.31893 0.46223
 C107 C 0.66765 0.28785 0.45616
 O108 O 0.63417 0.28147 0.47305
 O109 O 0.62105 0.35707 0.47033
 C110 C 0.63496 0.40378 0.46916
 Cr111 Cr 0.71808 0.44145 0.50682
 Cr112 Cr 0.73715 0.34969 0.49850
 Cr113 Cr 0.62871 0.32263 0.50221
 O114 O 0.69440 0.37101 0.50277
 O115 O 0.31124 0.55757 0.52346
 O116 O 0.22685 0.54032 0.52725
 C117 C 0.20337 0.55927 0.53535
 O118 O 0.20807 0.59879 0.52335
 O119 O 0.27945 0.68778 0.53654
 C120 C 0.32204 0.71536 0.54440
 O121 O 0.35507 0.71659 0.52994
 O122 O 0.36346 0.63847 0.53587
 C123 C 0.34376 0.59089 0.54012
 O124 O 0.30948 0.56770 0.46259
 O125 O 0.22498 0.54879 0.46639
 C126 C 0.21486 0.57814 0.45341
 O127 O 0.22601 0.62103 0.46384
 O128 O 0.29591 0.71141 0.47678
 C129 C 0.33425 0.72649 0.46284
 O130 O 0.36184 0.71215 0.46979
 O131 O 0.37542 0.63849 0.47620
 C132 C 0.35268 0.60114 0.45877
 Cr133 Cr 0.26911 0.55644 0.49515
 Cr134 Cr 0.25395 0.65364 0.50009
 Cr135 Cr 0.36118 0.67454 0.50287
 O136 O 0.29460 0.62802 0.49948
 C137 C 0.47419 0.55173 0.32251
 C138 C 0.44767 0.55157 0.34693
 C139 C 0.40978 0.50496 0.35850
 C140 C 0.39964 0.45915 0.34558
 C141 C 0.42638 0.45967 0.32124
 C142 C 0.46369 0.50595 0.30949
 C143 C 0.38264 0.50506 0.38260
 C144 C 0.39330 0.55121 0.39540
 C145 C 0.43179 0.59759 0.38393
 C146 C 0.45846 0.59747 0.35976
 C147 C 0.44326 0.64364 0.39684
 C148 C 0.41721 0.64402 0.42106
 C149 C 0.37872 0.59845 0.43275
 C150 C 0.36651 0.55197 0.41960
 H151 H 0.50303 0.58750 0.31351
 H152 H 0.37080 0.42301 0.35411
 H153 H 0.41750 0.42399 0.31123
 H154 H 0.35340 0.46936 0.39139
 H155 H 0.48771 0.63317 0.35095
 H156 H 0.47258 0.67945 0.38829
 H157 H 0.42703 0.68037 0.43055
 H158 H 0.33701 0.51665 0.42854
 C159 C 0.43560 0.90932 0.32088
 C160 C 0.42476 0.87994 0.34728
 C161 C 0.46110 0.88048 0.36350
 C162 C 0.50771 0.91124 0.35343
 C163 C 0.51832 0.94152 0.32771
 C164 C 0.48246 0.94083 0.31136
 C165 C 0.45037 0.85057 0.38959
 C166 C 0.40391 0.82099 0.40013
 C167 C 0.36778 0.82165 0.38447
 C168 C 0.37834 0.85066 0.35796
 C169 C 0.32159 0.79310 0.39555
 C170 C 0.31112 0.76351 0.42162
 C171 C 0.34653 0.76145 0.43689
 C172 C 0.39299 0.79059 0.42607
 H173 H 0.40802 0.90909 0.30826
 H174 H 0.53599 0.91227 0.36562
 H175 H 0.55461 0.96554 0.32043
 H176 H 0.47818 0.85055 0.40178
 H177 H 0.35053 0.85072 0.34579
 H178 H 0.29349 0.79331 0.38393
 H179 H 0.27496 0.74106 0.42935
 H180 H 0.42060 0.78946 0.43775
 C181 C 0.07287 0.51931 0.30141
 C182 C 0.09601 0.53514 0.32927
 C183 C 0.08724 0.56508 0.34863
 C184 C 0.05503 0.57802 0.34009
 C185 C 0.03053 0.56012 0.31316
 C186 C 0.03847 0.52990 0.29363
 C187 C 0.10995 0.58071 0.37652
 C188 C 0.13991 0.56502 0.38597
 C189 C 0.14757 0.53375 0.36705
 C190 C 0.12636 0.51985 0.33861
 C191 C 0.17595 0.51636 0.37705
 C192 C 0.19661 0.52984 0.40545
 C193 C 0.19014 0.56182 0.42422
 C194 C 0.16184 0.57953 0.41423
 H195 H 0.07910 0.49565 0.28687
 H196 H 0.04794 0.60102 0.35458
 H197 H 0.00541 0.57032 0.30742
 H198 H 0.10345 0.60407 0.39116
 H199 H 0.13257 0.49616 0.32408
 H200 H 0.18207 0.49219 0.36294
 H201 H 0.21868 0.51616 0.41247
 H202 H 0.15647 0.60403 0.42858
 C203 C 0.53050 0.47574 0.33368
 C204 C 0.54182 0.45328 0.35682
 C205 C 0.53689 0.40581 0.35212
 C206 C 0.52006 0.38123 0.32456
 C207 C 0.51043 0.40456 0.30133
 C208 C 0.51601 0.45239 0.30535
 C209 C 0.55081 0.38470 0.37450
 C210 C 0.57138 0.41145 0.40106
 C211 C 0.57608 0.45882 0.40583
 C212 C 0.56044 0.47895 0.38396
 C213 C 0.59786 0.48619 0.43197
 C214 C 0.61630 0.46774 0.45269
 C215 C 0.61258 0.42111 0.44796
 C216 C 0.58906 0.39254 0.42238
 H217 H 0.53694 0.51338 0.33703
 H218 H 0.51584 0.34472 0.32059
 H219 H 0.49840 0.38493 0.28006
 H220 H 0.54744 0.34852 0.37070
 H221 H 0.56454 0.51553 0.38754
 H222 H 0.60168 0.52249 0.43603
 H223 H 0.63385 0.49024 0.47240
 H224 H 0.58621 0.35668 0.41844
 C225 C 0.57963 0.09799 0.31938
 C226 C 0.58795 0.12650 0.34552
 C227 C 0.55150 0.11121 0.36687
 C228 C 0.50732 0.06745 0.36168
 C229 C 0.49911 0.03951 0.33541
 C230 C 0.53506 0.05415 0.31378
 C231 C 0.55969 0.14021 0.39286
 C232 C 0.60394 0.18440 0.39768
 C233 C 0.64039 0.19942 0.37627
 C234 C 0.63220 0.17039 0.35042
 C235 C 0.68459 0.24333 0.38102
 C236 C 0.69292 0.27199 0.40686
 C237 C 0.65718 0.25750 0.42849
 C238 C 0.61251 0.21373 0.42361
 H239 H 0.60842 0.10964 0.30367
 H240 H 0.47874 0.05542 0.37761
 H241 H 0.46367 0.00801 0.33142
 H242 H 0.53165 0.12851 0.40921
 H243 H 0.66021 0.18213 0.33403
 H244 H 0.71283 0.25544 0.36480
 H245 H 0.72759 0.30573 0.40987
 H246 H 0.58473 0.20209 0.44014
 C247 C 0.90286 0.48284 0.30360
 C248 C 0.88327 0.47176 0.33283
 C249 C 0.89432 0.44470 0.35330
 C250 C 0.92450 0.42923 0.34443
 C251 C 0.94527 0.44219 0.31601
 C252 C 0.93575 0.47018 0.29549
 C253 C 0.87579 0.43422 0.38256
 C254 C 0.84714 0.45140 0.39208
 C255 C 0.83644 0.47911 0.37200
 C256 C 0.85421 0.48873 0.34236
 C257 C 0.80803 0.49654 0.38200
 C258 C 0.78963 0.48562 0.41135
 C259 C 0.79934 0.45709 0.43122
 C260 C 0.82872 0.44075 0.42141
 H261 H 0.89532 0.50453 0.28808
 H262 H 0.93302 0.40817 0.35977
 H263 H 0.96918 0.43040 0.31001
 H264 H 0.88417 0.41319 0.39806
 H265 H 0.84595 0.50990 0.32691
 H266 H 0.79948 0.51797 0.36701
 H267 H 0.76674 0.49831 0.41818
 H268 H 0.83646 0.41857 0.43637
 C269 C 0.52437 0.46988 1.17665
 C270 C 0.54405 0.46079 1.15154
 C271 C 0.59343 0.48483 1.14922
 C272 C 0.62225 0.51790 1.17190
 C273 C 0.60225 0.52567 1.19718
 C274 C 0.55336 0.50155 1.19970
 C275 C 0.61311 0.47419 1.12480
 C276 C 0.58403 0.43873 1.10313
 C277 C 0.53470 0.41481 1.10541
 C278 C 0.51506 0.42653 1.12937
 C279 C 0.50575 0.37862 1.08405
 C280 C 0.52537 0.36543 1.06099
 C281 C 0.57435 0.38866 1.05864
 C282 C 0.60350 0.42585 1.07964
 H283 H 0.48654 0.45083 1.17895
 H284 H 0.66010 0.53655 1.17052
 H285 H 0.62480 0.54992 1.21504
 H286 H 0.65094 0.49235 1.12314
 H287 H 0.47721 0.40791 1.13123
 H288 H 0.46790 0.35993 1.08544
 H289 H 0.50211 0.33690 1.04500
 H290 H 0.64130 0.44389 1.07818
 C291 C 0.89488 0.46902 1.18008
 C292 C 0.86866 0.45013 1.15342
 C293 C 0.87729 0.42058 1.13366
 C294 C 0.91285 0.41175 1.14033
 C295 C 0.93989 0.43220 1.16617
 C296 C 0.93157 0.46124 1.18646
 C297 C 0.85047 0.40050 1.10744
 C298 C 0.81621 0.41117 1.10004
 C299 C 0.80893 0.44257 1.11912
 C300 C 0.83455 0.46107 1.14593
 C301 C 0.77629 0.45523 1.11095
 C302 C 0.75099 0.43684 1.08424
 C303 C 0.75687 0.40437 1.06559
 C304 C 0.78943 0.39142 1.07369
 H305 H 0.88814 0.49173 1.19511
 H306 H 0.91988 0.38906 1.12551
 H307 H 0.96623 0.42337 1.17087
 H308 H 0.85673 0.37718 1.09260
 H309 H 0.82840 0.48452 1.16072
 H310 H 0.77043 0.47949 1.12515
 H311 H 0.72582 0.44698 1.07849
 H312 H 0.79440 0.36672 1.05925
 C313 C 0.52918 0.05726 1.17990
 C314 C 0.54924 0.09051 1.15518
 C315 C 0.59770 0.12865 1.15508
 C316 C 0.62512 0.13326 1.17993
 C317 C 0.60458 0.10114 1.20490
 C318 C 0.55644 0.06242 1.20518
 C319 C 0.61761 0.16261 1.13063
 C320 C 0.58921 0.16032 1.10691
 C321 C 0.54051 0.12273 1.10737
 C322 C 0.52107 0.08742 1.13114
 C323 C 0.51171 0.12196 1.08446
 C324 C 0.53072 0.15881 1.06169
 C325 C 0.57900 0.19602 1.06094
 C326 C 0.60836 0.19612 1.08326
 H327 H 0.49166 0.02961 1.18021
 H328 H 0.66228 0.16238 1.18032
 H329 H 0.62671 0.10594 1.22386
 H330 H 0.65481 0.19185 1.13056
 H331 H 0.48376 0.05858 1.13140
 H332 H 0.47434 0.09358 1.08452
 H333 H 0.50772 0.15819 1.04448
 H334 H 0.64557 0.22524 1.08284
 C335 C 0.46147 0.54692 1.19423
 C336 C 0.45552 0.56825 1.16813
 C337 C 0.49497 0.60306 1.15040
 C338 C 0.53999 0.61652 1.15959
 C339 C 0.54560 0.59492 1.18572
 C340 C 0.50630 0.55945 1.20297
 C341 C 0.48855 0.62311 1.12367
 C342 C 0.44308 0.60816 1.11438
 C343 C 0.40396 0.57365 1.13256
 C344 C 0.41046 0.55432 1.15930
 C345 C 0.35857 0.55803 1.12353
 C346 C 0.35155 0.57508 1.09632
 C347 C 0.38970 0.60854 1.07754
 C348 C 0.43571 0.62601 1.08698
 H349 H 0.43102 0.51942 1.20741
 H350 H 0.57076 0.64332 1.14646
 H351 H 0.58059 0.60570 1.19239
 H352 H 0.51871 0.64949 1.10991
 H353 H 0.38027 0.52761 1.17297
 H354 H 0.32833 0.53190 1.13730
 H355 H 0.31583 0.56180 1.08985
 H356 H 0.46531 0.65183 1.07267
 C357 C 0.06450 0.50161 1.17551
 C358 C 0.09200 0.52060 1.14916
 C359 C 0.09170 0.55887 1.13201
 C360 C 0.06284 0.57626 1.14087
 C361 C 0.03504 0.55656 1.16677
 C362 C 0.03593 0.51951 1.18435
 C363 C 0.12060 0.57961 1.10645
 C364 C 0.14945 0.56221 1.09755
 C365 C 0.14851 0.52262 1.11396
 C366 C 0.11999 0.50226 1.13979
 C367 C 0.17658 0.50453 1.10441
 C368 C 0.20615 0.52631 1.07929
 C369 C 0.20865 0.56700 1.06359
 C370 C 0.17971 0.58434 1.07267
 H371 H 0.06504 0.47288 1.18909
 H372 H 0.06203 0.60537 1.12792
 H373 H 0.01337 0.57090 1.17347
 H374 H 0.12092 0.60957 1.09364
 H375 H 0.11984 0.47248 1.15268
 H376 H 0.17610 0.47399 1.11656
 H377 H 0.22818 0.51236 1.07272
 H378 H 0.18103 0.61537 1.06050
 C379 C 0.44779 0.92231 1.18890
 C380 C 0.43979 0.89575 1.16185
 C381 C 0.47740 0.89583 1.14755
 C382 C 0.52238 0.92311 1.16016
 C383 C 0.53012 0.94999 1.18677
 C384 C 0.49303 0.94979 1.20129
 C385 C 0.46950 0.86842 1.12099
 C386 C 0.42456 0.84110 1.10835
 C387 C 0.38713 0.84192 1.12210
 C388 C 0.39494 0.86915 1.14885
 C389 C 0.34242 0.81495 1.10898
 C390 C 0.33462 0.78645 1.08293
 C391 C 0.37135 0.78420 1.06964
 C392 C 0.41642 0.81233 1.08234
 H393 H 0.41921 0.92235 1.20011
 H394 H 0.55155 0.92364 1.14946
 H395 H 0.56510 0.97084 1.19620
 H396 H 0.49827 0.86805 1.11028
 H397 H 0.36614 0.86938 1.15961
 H398 H 0.31333 0.81531 1.11911
 H399 H 0.29956 0.76504 1.07367
 H400 H 0.44520 0.81132 1.07221
 C401 C 0.55391 0.50120 0.67673
 C402 C 0.57604 0.49001 0.65414
 C403 C 0.62446 0.52433 0.64808
 C404 C 0.64979 0.56933 0.66466
 C405 C 0.62770 0.57942 0.68771
 C406 C 0.57980 0.54536 0.69391
 C407 C 0.64698 0.51255 0.62607
 C408 C 0.62190 0.46653 0.61042
 C409 C 0.57356 0.43217 0.61658
 C410 C 0.55086 0.44429 0.63826
 C411 C 0.54873 0.38615 0.60099
 C412 C 0.57138 0.37448 0.57919
 C413 C 0.61932 0.40855 0.57260
 C414 C 0.64443 0.45442 0.58859
 H415 H 0.51707 0.47449 0.68198
 H416 H 0.68691 0.59597 0.66038
 H417 H 0.64806 0.61333 0.70110
 H418 H 0.68410 0.53885 0.62141
 H419 H 0.51380 0.41787 0.64303
 H420 H 0.51170 0.35933 0.60549
 H421 H 0.55112 0.33895 0.56722
 H422 H 0.68135 0.48124 0.58371
 C423 C 0.58615 0.07834 0.67348
 C424 C 0.59187 0.10761 0.64774
 C425 C 0.55218 0.10408 0.63441
 C426 C 0.50730 0.06996 0.64645
 C427 C 0.50190 0.04061 0.67190
 C428 C 0.54125 0.04510 0.68581
 C429 C 0.55808 0.13520 0.60959
 C430 C 0.60311 0.16947 0.59774
 C431 C 0.64253 0.17155 0.61044
 C432 C 0.63669 0.14084 0.63541
 C433 C 0.68734 0.20481 0.59815
 C434 C 0.69328 0.23641 0.57386
 C435 C 0.65465 0.23589 0.56159
 C436 C 0.60950 0.20206 0.57358
 H437 H 0.61653 0.08163 0.68413
 H438 H 0.47646 0.06651 0.63645
 H439 H 0.46706 0.01532 0.68126
 H440 H 0.52772 0.13309 0.59970
 H441 H 0.66708 0.14315 0.64542
 H442 H 0.71788 0.20675 0.60752
 H443 H 0.72845 0.26236 0.56516
 H444 H 0.57946 0.20115 0.56413
 C445 C 0.94171 0.48015 0.68471
 C446 C 0.91297 0.46361 0.65919
 C447 C 0.88774 0.41143 0.65165
 C448 C 0.89169 0.37680 0.66967
 C449 C 0.91964 0.39348 0.69532
 C450 C 0.94476 0.44508 0.70294
 C451 C 0.85821 0.39447 0.62661
 C452 C 0.85280 0.42874 0.60932
 C453 C 0.87779 0.48085 0.61679
 C454 C 0.90812 0.49809 0.64156
 C455 C 0.87145 0.51462 0.59955
 C456 C 0.84034 0.49681 0.57529
 C457 C 0.81539 0.44503 0.56773
 C458 C 0.82211 0.41135 0.58487
 H459 H 0.96067 0.51993 0.69092
 H460 H 0.87250 0.33672 0.66422
 H461 H 0.92161 0.36614 0.70936
 H462 H 0.83879 0.35443 0.62089
 H463 H 0.92726 0.53804 0.64741
 H464 H 0.89026 0.55469 0.60496
 H465 H 0.83586 0.52356 0.56244
 H466 H 0.80293 0.37121 0.57949
 C467 C 0.45978 0.53998 0.67865
 C468 C 0.44649 0.55433 0.65241
 C469 C 0.47967 0.59967 0.63697
 C470 C 0.52593 0.62887 0.64744
 C471 C 0.53892 0.61407 0.67341
 C472 C 0.50587 0.57001 0.68938
 C473 C 0.46595 0.61549 0.61162
 C474 C 0.41959 0.58631 0.60128
 C475 C 0.38686 0.54005 0.61606
 C476 C 0.40045 0.52450 0.64162
 C477 C 0.34092 0.51029 0.60514
 C478 C 0.32730 0.52648 0.58007
 C479 C 0.35913 0.57309 0.56578
 C480 C 0.40534 0.60279 0.57646
 H481 H 0.43430 0.50586 0.69095
 H482 H 0.55185 0.66357 0.63583
 H483 H 0.57451 0.63782 0.68159
 H484 H 0.49121 0.65067 0.60009
 H485 H 0.37512 0.48945 0.65324
 H486 H 0.31546 0.47462 0.61607
 H487 H 0.29146 0.50305 0.57224
 H488 H 0.43025 0.63853 0.56534
 C489 C 0.43983 0.89758 0.68408
 C490 C 0.42479 0.86893 0.65739
 C491 C 0.45866 0.87480 0.63602
 C492 C 0.50653 0.90890 0.64146
 C493 C 0.52102 0.93724 0.66777
 C494 C 0.48805 0.93222 0.68918
 C495 C 0.44437 0.84643 0.60953
 C496 C 0.39660 0.81208 0.60387
 C497 C 0.36240 0.80615 0.62484
 C498 C 0.37670 0.83467 0.65156
 C499 C 0.31460 0.77150 0.61869
 C500 C 0.30102 0.74257 0.59228
 C501 C 0.33502 0.74778 0.57157
 C502 C 0.38276 0.78317 0.57755
 H503 H 0.41430 0.89361 0.70060
 H504 H 0.53283 0.91368 0.62534
 H505 H 0.55828 0.96326 0.67151
 H506 H 0.47053 0.85094 0.59333
 H507 H 0.35056 0.83008 0.66777
 H508 H 0.28776 0.76639 0.63444
 H509 H 0.26401 0.71551 0.58835
 H510 H 0.40955 0.78798 0.56183
 C511 C 0.04558 0.48639 0.68193
 C512 C 0.07569 0.50631 0.65668
 C513 C 0.10771 0.55945 0.65397
 C514 C 0.11026 0.59152 0.67682
 C515 C 0.08180 0.57130 0.70240
 C516 C 0.04860 0.51866 0.70522
 C517 C 0.13749 0.57977 0.62878
 C518 C 0.13725 0.54757 0.60682
 C519 C 0.10671 0.49428 0.60994
 C520 C 0.07539 0.47398 0.63457
 C521 C 0.10866 0.46236 0.58855
 C522 C 0.14059 0.48313 0.56437
 C523 C 0.16992 0.53607 0.56077
 C524 C 0.16791 0.56800 0.58204
 H525 H 0.02181 0.44556 0.68423
 H526 H 0.13484 0.63230 0.67516
 H527 H 0.08482 0.59726 0.71969
 H528 H 0.16164 0.62062 0.62662
 H529 H 0.05154 0.43313 0.63685
 H530 H 0.08584 0.42140 0.59068
 H531 H 0.14182 0.45797 0.54821
 H532 H 0.19117 0.60894 0.57966
 C533 C 0.50484 0.58058 0.82350
 C534 C 0.47981 0.58068 0.84872
 C535 C 0.43066 0.54574 0.85063
 C536 C 0.40753 0.51102 0.82727
 C537 C 0.43275 0.51145 0.80210
 C538 C 0.48151 0.54614 0.80006
 C539 C 0.40540 0.54685 0.87551
 C540 C 0.42857 0.58318 0.89814
 C541 C 0.47780 0.61789 0.89615
 C542 C 0.50311 0.61601 0.87169
 C543 C 0.50085 0.65498 0.91826
 C544 C 0.47529 0.65890 0.94161
 C545 C 0.42632 0.62520 0.94366
 C546 C 0.40320 0.58657 0.92221
 H547 H 0.54236 0.60802 0.82174
 H548 H 0.36990 0.48399 0.82830
 H549 H 0.41427 0.48463 0.78417
 H550 H 0.36766 0.52034 0.87687
 H551 H 0.54079 0.64287 0.87015
 H552 H 0.53851 0.68179 0.91709
 H553 H 0.49383 0.68878 0.95799
 H554 H 0.36536 0.56080 0.92347
 C555 C 0.07883 0.50692 0.82129
 C556 C 0.10538 0.52510 0.84759
 C557 C 0.09623 0.55301 0.86840
 C558 C 0.06011 0.56155 0.86262
 C559 C 0.03377 0.54322 0.83627
 C560 C 0.04316 0.51603 0.81546
 C561 C 0.12361 0.57223 0.89441
 C562 C 0.15989 0.56380 0.89984
 C563 C 0.16843 0.53522 0.87918
 C564 C 0.14116 0.51611 0.85320
 C565 C 0.20433 0.52641 0.88474
 C566 C 0.23183 0.54596 0.91046
 C567 C 0.22412 0.57493 0.93103
 C568 C 0.18793 0.58363 0.92555
 H569 H 0.08592 0.48578 0.80519
 H570 H 0.05256 0.58280 0.87831
 H571 H 0.00653 0.55083 0.83188
 H572 H 0.11689 0.59395 0.91029
 H573 H 0.14797 0.49452 0.83726
 H574 H 0.21127 0.50455 0.86915
 H575 H 0.25955 0.53881 0.91405
 H576 H 0.18146 0.60569 0.94130
 C577 C 0.46474 0.90498 0.80808
 C578 C 0.45543 0.88214 0.83677
 C579 C 0.49286 0.89472 0.85653
 C580 C 0.53902 0.93060 0.84732
 C581 C 0.54792 0.95449 0.81914
 C582 C 0.51092 0.94257 0.79921
 C583 C 0.48346 0.87151 0.88519
 C584 C 0.43692 0.83681 0.89462
 C585 C 0.39960 0.82560 0.87501
 C586 C 0.40907 0.84778 0.84620
 C587 C 0.35318 0.79219 0.88443
 C588 C 0.34351 0.76923 0.91277
 C589 C 0.38001 0.77861 0.93243
 C590 C 0.42691 0.81294 0.92320
 H591 H 0.43562 0.89561 0.79336
 H592 H 0.56827 0.94059 0.86203
 H593 H 0.58407 0.98164 0.81267
 H594 H 0.51225 0.88075 0.90019
 H595 H 0.38027 0.83861 0.83120
 H596 H 0.32420 0.78341 0.86975
 H597 H 0.30704 0.74289 0.91892
 H598 H 0.45544 0.82062 0.93800
 C599 C 0.53387 0.48579 0.81814
 C600 C 0.54975 0.47283 0.84365
 C601 C 0.59455 0.50830 0.85553
 C602 C 0.62259 0.55619 0.84170
 C603 C 0.60695 0.56824 0.81584
 C604 C 0.56268 0.53310 0.80393
 C605 C 0.61110 0.49485 0.88049
 C606 C 0.58395 0.44595 0.89322
 C607 C 0.53925 0.41050 0.88124
 C608 C 0.52218 0.42438 0.85679
 C609 C 0.51265 0.36136 0.89359
 C610 C 0.53032 0.34718 0.91737
 C611 C 0.57470 0.38205 0.92950
 C612 C 0.60119 0.43162 0.91741
 H613 H 0.49993 0.45848 0.80859
 H614 H 0.65702 0.58378 0.85045
 H615 H 0.62950 0.60480 0.80488
 H616 H 0.64550 0.52196 0.88955
 H617 H 0.48797 0.39711 0.84755
 H618 H 0.47836 0.33373 0.88466
 H619 H 0.50904 0.30886 0.92637
 H620 H 0.63556 0.45878 0.92644
 C621 C 0.90643 0.45795 0.81915
 C622 C 0.87898 0.44196 0.84553
 C623 C 0.88380 0.41105 0.86678
 C624 C 0.91672 0.39747 0.86141
 C625 C 0.94441 0.41421 0.83522
 C626 C 0.93927 0.44432 0.81394
 C627 C 0.85567 0.39431 0.89295
 C628 C 0.82319 0.40858 0.89827
 C629 C 0.81928 0.44038 0.87722
 C630 C 0.84695 0.45660 0.85097
 C631 C 0.78755 0.45538 0.88268
 C632 C 0.75949 0.43871 0.90856
 C633 C 0.76223 0.40632 0.92951
 C634 C 0.79442 0.39151 0.92421
 H635 H 0.90278 0.48157 0.80277
 H636 H 0.92108 0.37401 0.87746
 H637 H 0.96973 0.40353 0.83144
 H638 H 0.85905 0.37025 0.90912
 H639 H 0.84357 0.48065 0.83477
 H640 H 0.78423 0.47984 0.86682
 H641 H 0.73493 0.45057 0.91188
 H642 H 0.79706 0.36671 0.94018
 C643 C 0.54268 0.05476 0.81754
 C644 C 0.56164 0.08849 0.84172
 C645 C 0.61063 0.12436 0.84296
 C646 C 0.63984 0.12534 0.82004
 C647 C 0.62060 0.09158 0.79596
 C648 C 0.57197 0.05604 0.79458
 C649 C 0.62940 0.15912 0.86677
 C650 C 0.59968 0.15875 0.88915
 C651 C 0.55076 0.12241 0.88789
 C652 C 0.53215 0.08741 0.86435
 C653 C 0.52095 0.12209 0.90996
 C654 C 0.53909 0.15807 0.93276
 C655 C 0.58753 0.19502 0.93419
 C656 C 0.61784 0.19467 0.91246
 H657 H 0.50503 0.02800 0.81626
 H658 H 0.67744 0.15253 0.82055
 H659 H 0.64362 0.09320 0.77832
 H660 H 0.66691 0.18690 0.86761
 H661 H 0.49459 0.05983 0.86339
 H662 H 0.48344 0.09441 0.90937
 H663 H 0.51489 0.15703 0.94929
 H664 H 0.65521 0.22297 0.91325
   
