data_POSCAR
  _audit_creation_date              2014-09-24
  _audit_creation_method            'ToBaCCo'
  _symmetry_space_group_name_H-M    'P1'
  _symmetry_Int_Tables_number       1
  _symmetry_cell_setting            triclinic
  loop_
  _symmetry_equiv_pos_as_xyz
 x,y,z
_cell_length_a 30.4614
_cell_length_b 30.5149
_cell_length_c 30.7690
_cell_angle_alpha 88.706200
_cell_angle_beta 94.195900
_cell_angle_gamma 87.433500
loop_
  _atom_site_label
  _atom_site_type_symbol
  _atom_site_fract_x
  _atom_site_fract_y
  _atom_site_fract_z
C1 C 0.56297 0.36076 -0.01157
 C2 C 0.60005 0.38464 -0.01070
 C3 C 0.58767 0.42658 0.00171
 N4 N 0.54391 0.42945 0.00668
 C5 C 0.52876 0.38932 -0.00152
 C6 C 0.61629 0.46116 0.01058
 C7 C 0.59872 0.50445 0.01533
 C8 C 0.61926 0.53627 0.03986
 C9 C 0.59301 0.57396 0.03412
 C10 C 0.55719 0.56430 0.00601
 N11 N 0.56033 0.52149 -0.00448
 C12 C 0.52407 0.59539 -0.01120
 C13 C 0.48134 0.58216 -0.02504
 C14 C 0.44929 0.60743 -0.04984
 C15 C 0.41193 0.58393 -0.05227
 C16 C 0.42278 0.54430 -0.03042
 N17 N 0.46514 0.54339 -0.01364
 C18 C 0.39328 0.51084 -0.02360
 C19 C 0.40772 0.46794 -0.00893
 C20 C 0.38051 0.43547 0.00388
 C21 C 0.40666 0.39795 0.01194
 C22 C 0.44912 0.40822 0.00342
 N23 N 0.44942 0.45081 -0.00956
 C24 C 0.48520 0.37748 0.00359
 H25 H 0.56155 0.32640 -0.01914
 H26 H 0.63238 0.37225 -0.01822
 H27 H 0.47546 0.46579 -0.02294
 H28 H 0.64995 0.53263 0.05996
 H29 H 0.59964 0.60508 0.04885
 H30 H 0.45224 0.63957 -0.06461
 H31 H 0.38060 0.59496 -0.06853
 H32 H 0.39517 0.36631 0.02133
 H33 H 0.54002 0.50618 -0.02771
 H34 H 0.34523 0.43772 0.00599
 C35 C -0.01210 0.58659 0.61215
 C36 C -0.00732 0.62066 0.58341
 C37 C 0.00219 0.60230 0.54408
 N38 N 0.00160 0.55803 0.54758
 C39 C -0.00722 0.54844 0.58916
 C40 C 0.01401 0.62618 0.50674
 C41 C 0.01673 0.60621 0.46562
 C42 C 0.04028 0.62209 0.43213
 C43 C 0.03635 0.59289 0.39890
 C44 C 0.01066 0.55969 0.41282
 N45 N -0.00164 0.56829 0.45334
 C46 C -0.00128 0.52332 0.38744
 C47 C -0.02106 0.48602 0.40384
 C48 C -0.03864 0.45323 0.37838
 C49 C -0.04996 0.42078 0.40653
 C50 C -0.03821 0.43451 0.44821
 N51 N -0.02066 0.47442 0.44647
 C52 C -0.04035 0.40891 0.48676
 C53 C -0.02787 0.42448 0.52863
 C54 C -0.01796 0.39776 0.56539
 C55 C -0.00817 0.42490 0.59934
 C56 C -0.01224 0.46762 0.58250
 N57 N -0.02487 0.46706 0.53944
 C58 C -0.00697 0.50563 0.60758
 H59 H -0.01863 0.58982 0.64602
 H60 H -0.00999 0.65508 0.59098
 H61 H -0.03499 0.49419 0.51961
 H62 H 0.05946 0.65109 0.43202
 H63 H 0.05123 0.59561 0.36813
 H64 H -0.04228 0.45251 0.34315
 H65 H -0.06405 0.39011 0.39730
 H66 H 0.00026 0.41414 0.63277
 H67 H -0.02375 0.55094 0.47043
 H68 H -0.01762 0.36229 0.56758
 C69 C 0.39443 0.00027 0.57760
 C70 C 0.42921 -0.00761 0.60821
 C71 C 0.46661 0.00551 0.58919
 N72 N 0.45590 0.01958 0.54761
 C73 C 0.41197 0.01635 0.54052
 C74 C 0.51002 0.00554 0.60915
 C75 C 0.54542 0.01235 0.58280
 C76 C 0.58453 0.03114 0.59655
 C77 C 0.61234 0.02564 0.56379
 C78 C 0.58929 0.00400 0.53084
 N79 N 0.54805 -0.00291 0.54209
 C80 C 0.60802 -0.01324 0.49378
 C81 C 0.58171 -0.01869 0.45475
 C82 C 0.59382 -0.04235 0.41927
 C83 C 0.55817 -0.03957 0.38910
 C84 C 0.52557 -0.01430 0.40724
 N85 N 0.54008 -0.00156 0.44729
 C86 C 0.48379 -0.00179 0.38663
 C87 C 0.44986 0.01802 0.40950
 C88 C 0.41341 0.04186 0.39032
 C89 C 0.38619 0.05122 0.42302
 C90 C 0.40660 0.03243 0.46116
 N91 N 0.44563 0.01270 0.45270
 C92 C 0.38745 0.03003 0.50159
 H93 H 0.36029 -0.00610 0.58173
 H94 H 0.42696 -0.02200 0.64036
 H95 H 0.46555 -0.00797 0.47398
 H96 H 0.59257 0.04595 0.62759
 H97 H 0.64617 0.03524 0.56455
 H98 H 0.62463 -0.06053 0.41581
 H99 H 0.55634 -0.05494 0.35771
 H100 H 0.35446 0.06880 0.41890
 H101 H 0.52542 -0.02258 0.52576
 H102 H 0.40681 0.05090 0.35617
 O103 O 0.47644 -0.01124 -0.06932
 O104 O 0.45505 -0.02644 0.04611
 O105 O 0.45276 0.04046 -0.00717
 O106 O 0.48063 -0.07772 -0.01390
 O107 O 0.55028 -0.06601 0.00568
 O108 O 0.52299 0.05166 0.01061
 O109 O 0.52444 -0.01361 0.06550
 O110 O 0.54659 -0.00187 -0.04995
 Cu111 Cu 0.45917 -0.01978 -0.01330
 Cu112 Cu 0.54307 -0.00608 0.00979
 C113 C 0.51549 -0.00534 -0.07930
 C114 C 0.48592 -0.02209 0.07552
 C115 C 0.48329 0.06584 0.00382
 C116 C 0.52023 -0.09193 -0.00522
 O117 O -0.06320 0.51218 1.00029
 O118 O 0.05079 0.54373 0.98912
 O119 O -0.01137 0.51895 0.93598
 O120 O 0.00218 0.53310 1.05573
 O121 O 0.03047 0.46520 1.06341
 O122 O 0.01715 0.45127 0.94606
 O123 O 0.07499 0.47453 0.99957
 O124 O -0.03922 0.44325 1.01037
 Cu125 Cu -0.00836 0.53390 0.99475
 Cu126 Cu 0.02062 0.45119 1.00605
 C127 C -0.07066 0.47220 1.00728
 C128 C 0.08194 0.51446 0.99119
 C129 C 0.00337 0.48320 0.92082
 C130 C 0.01994 0.50162 1.07969
 O131 O 0.00843 -0.04425 0.46814
 O132 O -0.02207 0.07476 0.45894
 O133 O 0.05261 0.02745 0.46434
 O134 O -0.06546 0.00218 0.46403
 O135 O -0.05862 0.00043 0.53599
 O136 O 0.05380 0.03715 0.53531
 O137 O -0.02414 0.07625 0.53051
 O138 O 0.01814 -0.03869 0.53958
 Cu139 Cu -0.00693 0.01493 0.45652
 Cu140 Cu -0.00216 0.01932 0.54247
 C141 C 0.01890 -0.06160 0.50563
 C142 C -0.02948 0.09536 0.49330
 C143 C 0.07290 0.03752 0.50006
 C144 C -0.08146 -0.00471 0.50049
 C145 C -0.26292 0.47336 1.00474
 C146 C -0.24628 0.43572 1.02648
 C147 C -0.27304 0.40571 1.04476
 C148 C -0.31881 0.41464 1.04004
 C149 C -0.33728 0.45270 1.01648
 C150 C -0.30822 0.48260 0.99911
 O151 O -0.23194 0.49806 0.99047
 C152 C -0.19490 0.47546 1.00342
 C153 C -0.20178 0.43690 1.02536
 C154 C -0.16741 0.40797 1.04120
 C155 C -0.12422 0.41943 1.03436
 C156 C -0.11627 0.45948 1.01254
 C157 C -0.15232 0.48776 0.99680
 H158 H -0.25918 0.37669 1.06250
 H159 H -0.33972 0.39229 1.05570
 H160 H -0.32050 0.51180 0.98064
 H161 H -0.17360 0.37770 1.05823
 H162 H -0.09700 0.39750 1.04674
 H163 H -0.14743 0.51843 0.97982
 C164 C 0.27222 0.52652 0.99407
 C165 C 0.25471 0.53392 0.95191
 C166 C 0.28060 0.53500 0.91648
 C167 C 0.32633 0.52780 0.92487
 C168 C 0.34516 0.52098 0.96814
 C169 C 0.31766 0.52118 1.00326
 O170 O 0.24185 0.52224 1.02249
 C171 C 0.20429 0.52728 0.99781
 C172 C 0.21033 0.53517 0.95445
 C173 C 0.17547 0.53993 0.92262
 C174 C 0.13274 0.53571 0.93594
 C175 C 0.12597 0.52594 0.98010
 C176 C 0.16212 0.52196 1.01157
 H177 H 0.26599 0.53961 0.88347
 H178 H 0.34709 0.52689 0.89777
 H179 H 0.33122 0.51514 1.03649
 H180 H 0.18103 0.54569 0.88866
 H181 H 0.10507 0.53795 0.91164
 H182 H 0.15763 0.51355 1.04529
 C183 C 0.01979 -0.25252 0.48991
 C184 C 0.04767 -0.24295 0.52524
 C185 C 0.06697 -0.27499 0.55420
 C186 C 0.05657 -0.31865 0.54696
 C187 C 0.02666 -0.32975 0.51155
 C188 C 0.00903 -0.29588 0.48195
 O189 O 0.00341 -0.21690 0.46762
 C190 C 0.02123 -0.18420 0.48950
 C191 C 0.04851 -0.19846 0.52509
 C192 C 0.06830 -0.16987 0.55426
 C193 C 0.05920 -0.12472 0.54681
 C194 C 0.03111 -0.10901 0.51043
 C195 C 0.01240 -0.13930 0.48097
 H196 H 0.08884 -0.26662 0.58178
 H197 H 0.07177 -0.34392 0.56914
 H198 H -0.01421 -0.30277 0.45490
 H199 H 0.08908 -0.18193 0.58243
 H200 H 0.07358 -0.10199 0.56970
 H201 H -0.01002 -0.12835 0.45355
 C202 C -0.03653 0.28625 0.46955
 C203 C -0.07273 0.27472 0.49072
 C204 C -0.10111 0.30547 0.50821
 C205 C -0.09137 0.34986 0.50444
 C206 C -0.05359 0.36258 0.48389
 C207 C -0.02613 0.33030 0.46559
 O208 O -0.01254 0.25178 0.45741
 C209 C -0.03390 0.21779 0.47148
 C210 C -0.07080 0.23010 0.49233
 C211 C -0.09594 0.20001 0.51287
 C212 C -0.08233 0.15547 0.51218
 C213 C -0.04474 0.14189 0.49053
 C214 C -0.02049 0.17344 0.46936
 H215 H -0.12907 0.29556 0.52520
 H216 H -0.11220 0.37431 0.51897
 H217 H 0.00351 0.33910 0.45075
 H218 H -0.12424 0.21055 0.52992
 H219 H -0.10076 0.13152 0.52882
 H220 H 0.00908 0.16393 0.45375
 C221 C 0.50283 0.00937 -0.26977
 C222 C 0.54174 -0.01284 -0.25596
 C223 C 0.57037 -0.03077 -0.28443
 C224 C 0.55867 -0.02533 -0.32911
 C225 C 0.51933 -0.00111 -0.34504
 C226 C 0.49108 0.01643 -0.31423
 O227 O 0.47962 0.02236 -0.23706
 C228 C 0.50464 0.00810 -0.20193
 C229 C 0.54329 -0.01310 -0.21184
 C230 C 0.57481 -0.03004 -0.18024
 C231 C 0.56586 -0.02551 -0.13651
 C232 C 0.52556 -0.00523 -0.12534
 C233 C 0.49454 0.01200 -0.15856
 H234 H 0.60040 -0.04893 -0.27268
 H235 H 0.58026 -0.04065 -0.35138
 H236 H 0.46170 0.03643 -0.32420
 H237 H 0.60507 -0.04640 -0.18895
 H238 H 0.58963 -0.03918 -0.11136
 H239 H 0.46353 0.02762 -0.15087
 C240 C 0.49271 -0.00463 0.26465
 C241 C 0.45681 -0.02849 0.25229
 C242 C 0.42853 -0.04421 0.28187
 C243 C 0.43779 -0.03517 0.32602
 C244 C 0.47450 -0.01045 0.33956
 C245 C 0.50214 0.00529 0.30826
 O246 O 0.51566 0.00683 0.23153
 C247 C 0.49375 -0.01009 0.19751
 C248 C 0.45736 -0.03185 0.20840
 C249 C 0.42932 -0.05139 0.17763
 C250 C 0.43909 -0.04817 0.13382
 C251 C 0.47665 -0.02617 0.12180
 C252 C 0.50443 -0.00706 0.15430
 H253 H 0.40057 -0.06305 0.27140
 H254 H 0.41659 -0.04754 0.34979
 H255 H 0.53024 0.02439 0.31769
 H256 H 0.40077 -0.06819 0.18697
 H257 H 0.41752 -0.06294 0.10932
 H258 H 0.53302 0.01039 0.14613
 C259 C 0.51385 -0.28269 -0.00469
 C260 C 0.55434 -0.27166 -0.01731
 C261 C 0.58604 -0.30267 -0.02846
 C262 C 0.57548 -0.34690 -0.02667
 C263 C 0.53393 -0.35957 -0.01325
 C264 C 0.50302 -0.32640 -0.00169
 O265 O 0.48806 -0.24822 0.00371
 C266 C 0.51289 -0.21465 -0.00373
 C267 C 0.55392 -0.22722 -0.01628
 C268 C 0.58551 -0.19736 -0.02490
 C269 C 0.57424 -0.15268 -0.02051
 C270 C 0.53178 -0.13894 -0.00849
 C271 C 0.50068 -0.17044 -0.00005
 H272 H 0.61754 -0.29314 -0.03876
 H273 H 0.59943 -0.37124 -0.03667
 H274 H 0.47167 -0.33427 0.01024
 H275 H 0.61767 -0.20805 -0.03452
 H276 H 0.59825 -0.12876 -0.02720
 H277 H 0.46818 -0.16084 0.00952
 C278 C 0.47239 0.25605 -0.00981
 C279 C 0.46549 0.24356 0.03233
 C280 C 0.46424 0.27302 0.06607
 C281 C 0.47055 0.31719 0.05597
 C282 C 0.47744 0.33081 0.01276
 C283 C 0.47778 0.29995 -0.02074
 O284 O 0.47578 0.22247 -0.03619
 C285 C 0.47089 0.18805 -0.01016
 C286 C 0.46416 0.19926 0.03203
 C287 C 0.46055 0.16833 0.06530
 C288 C 0.46478 0.12398 0.05478
 C289 C 0.47264 0.11182 0.01182
 C290 C 0.47528 0.14410 -0.02128
 H291 H 0.45962 0.26225 0.09911
 H292 H 0.47048 0.34085 0.08168
 H293 H 0.48350 0.30971 -0.05383
 H294 H 0.45589 0.17798 0.09834
 H295 H 0.46351 0.09908 0.08027
 H296 H 0.48244 0.13527 -0.05400
 C297 C -0.27227 -0.02030 0.47545
 C298 C -0.25659 -0.04379 0.51245
 C299 C -0.28378 -0.06004 0.54262
 C300 C -0.32908 -0.05094 0.53498
 C301 C -0.34664 -0.02611 0.49744
 C302 C -0.31761 -0.01173 0.46652
 O303 O -0.24029 -0.00424 0.45347
 C304 C -0.20380 -0.01782 0.47728
 C305 C -0.21220 -0.04227 0.51361
 C306 C -0.17959 -0.05677 0.54517
 C307 C -0.13647 -0.04513 0.53949
 C308 C -0.12669 -0.01946 0.50270
 C309 C -0.16076 -0.00633 0.47060
 H310 H -0.27048 -0.07775 0.57188
 H311 H -0.35064 -0.06270 0.55875
 H312 H -0.32955 0.00851 0.43839
 H313 H -0.18727 -0.07526 0.57385
 H314 H -0.11074 -0.05549 0.56422
 H315 H -0.15436 0.01412 0.44276
 C316 C 0.26290 0.03355 0.48471
 C317 C 0.25229 0.06592 0.51306
 C318 C 0.28387 0.08836 0.53743
 C319 C 0.32826 0.07684 0.53253
 C320 C 0.34015 0.04321 0.50395
 C321 C 0.30693 0.02145 0.47946
 O322 O 0.22781 0.01501 0.46623
 C323 C 0.19437 0.03601 0.48345
 C324 C 0.20767 0.06738 0.51240
 C325 C 0.17850 0.09121 0.53649
 C326 C 0.13383 0.08187 0.53105
 C327 C 0.11921 0.04961 0.50153
 C328 C 0.14985 0.02689 0.47678
 H329 H 0.27465 0.11339 0.55985
 H330 H 0.35351 0.09359 0.55141
 H331 H 0.31520 -0.00481 0.45798
 H332 H 0.18988 0.11520 0.55959
 H333 H 0.11064 0.09928 0.55029
 H334 H 0.13967 0.00132 0.45490
 C335 C 0.00271 0.53206 1.26482
 C336 C 0.04224 0.50959 1.26029
 C337 C 0.06914 0.49226 1.29553
 C338 C 0.05462 0.49807 1.33725
 C339 C 0.01391 0.52072 1.34286
 C340 C -0.01234 0.53836 1.30622
 O341 O -0.01873 0.54372 1.22681
 C342 C 0.00779 0.52811 1.19775
 C343 C 0.04546 0.50692 1.21671
 C344 C 0.07648 0.48553 1.19280
 C345 C 0.06806 0.48532 1.14746
 C346 C 0.02941 0.50664 1.12693
 C347 C -0.00084 0.52908 1.15239
 H348 H 0.09980 0.47421 1.29101
 H349 H 0.07457 0.48432 1.36528
 H350 H -0.04387 0.55514 1.30988
 H351 H 0.10551 0.46853 1.20858
 H352 H 0.09136 0.46796 1.12829
 H353 H -0.03109 0.54468 1.13760
 C354 C -0.01432 0.50218 0.73021
 C355 C 0.02622 0.48252 0.74304
 C356 C 0.05748 0.47153 0.71395
 C357 C 0.04636 0.48076 0.66962
 C358 C 0.00424 0.49953 0.65522
 C359 C -0.02657 0.51054 0.68599
 O360 O -0.03849 0.51105 0.76351
 C361 C -0.01271 0.49631 0.79799
 C362 C 0.02696 0.47804 0.78699
 C363 C 0.05860 0.45949 0.81752
 C364 C 0.04921 0.46008 0.86136
 C365 C 0.00921 0.47987 0.87392
 C366 C -0.02227 0.49839 0.84177
 H367 H 0.08933 0.45652 0.72499
 H368 H 0.07009 0.47244 0.64622
 H369 H -0.05893 0.52488 0.67572
 H370 H 0.08946 0.44513 0.80795
 H371 H 0.07379 0.44638 0.88575
 H372 H -0.05298 0.51377 0.85056
   
