data_POSCAR
  _audit_creation_date              2014-09-24
  _audit_creation_method            'ToBaCCo'
  _symmetry_space_group_name_H-M    'P1'
  _symmetry_Int_Tables_number       1
  _symmetry_cell_setting            triclinic
  loop_
  _symmetry_equiv_pos_as_xyz
 x,y,z
_cell_length_a 30.6663
_cell_length_b 31.8364
_cell_length_c 31.5337
_cell_angle_alpha 90.267000
_cell_angle_beta 90.226600
_cell_angle_gamma 90.968000
loop_
  _atom_site_label
  _atom_site_type_symbol
  _atom_site_fract_x
  _atom_site_fract_y
  _atom_site_fract_z
N1 N 0.34018 0.34190 1.34269
 N2 N 1.15211 0.65050 0.84797
 N3 N 0.63856 -0.14015 0.13948
 N4 N -0.14287 1.13829 -0.36394
 N5 N 0.64628 0.66535 0.65508
 N6 N 0.86185 0.34532 0.14266
 N7 N 0.37189 0.13938 0.86044
 N8 N 0.13065 0.85592 0.35802
 Zn9 Zn -0.01908 0.94691 0.01273
 Zn10 Zn -0.04181 1.03031 -0.02155
 Zn11 Zn 0.03934 1.02058 0.03134
 Zn12 Zn 0.03406 0.98354 -0.05626
 O13 O 0.00323 0.99556 -0.00843
 O14 O -0.07672 0.94731 0.01968
 O15 O -0.03750 1.07949 0.00617
 O16 O 0.04637 0.98925 0.07852
 O17 O -0.09403 1.00929 -0.00609
 O18 O 0.00361 0.93468 0.06279
 O19 O 0.02026 1.07127 0.04760
 O20 O 0.08905 1.00299 -0.05359
 O21 O -0.04538 1.04161 -0.07754
 O22 O 0.09345 1.02964 0.01137
 O23 O 0.01140 1.00718 -0.10220
 O24 O 0.03641 0.92805 -0.06793
 O25 O -0.00730 0.90213 -0.01875
 C26 C -0.10485 0.97485 0.01140
 C27 C -0.01154 1.09309 0.03481
 C28 C 0.03073 0.95313 0.08724
 C29 C 0.11046 1.02165 -0.02436
 C30 C -0.02125 1.03039 -0.10815
 C31 C 0.01724 0.89696 -0.05050
 Zn32 Zn 0.46123 0.01373 0.44789
 Zn33 Zn 0.45466 -0.02408 0.53399
 Zn34 Zn 0.53581 -0.03555 0.48182
 Zn35 Zn 0.51473 0.04834 0.51836
 O36 O 0.49167 0.00039 0.49553
 O37 O 0.40592 -0.00396 0.44978
 O38 O 0.47264 -0.07503 0.54911
 O39 O 0.53695 -0.04804 0.42610
 O40 O 0.39975 -0.03034 0.51433
 O41 O 0.48305 -0.00966 0.40136
 O42 O 0.53201 -0.08440 0.51054
 O43 O 0.57257 0.04901 0.51874
 O44 O 0.45181 0.00421 0.58336
 O45 O 0.58918 -0.01377 0.49403
 O46 O 0.49987 0.05550 0.57237
 O47 O 0.49830 0.09485 0.49160
 O48 O 0.45884 0.06918 0.43848
 C49 C 0.38332 -0.02145 0.47849
 C50 C 0.50511 -0.09697 0.53854
 C51 C 0.51391 -0.03505 0.39539
 C52 C 0.60066 0.02185 0.50907
 C53 C 0.47360 0.03595 0.59648
 C54 C 0.47475 0.10027 0.45898
 Zn55 Zn 0.96844 0.49909 0.55357
 Zn56 Zn 0.96543 0.53733 0.46663
 Zn57 Zn 1.04935 0.50921 0.50274
 Zn58 Zn 0.98341 0.44549 0.47683
 O59 O 0.99139 0.49779 0.50000
 O60 O 0.92338 0.53434 0.55732
 O61 O 1.00218 0.57900 0.45050
 O62 O 1.06804 0.51824 0.55513
 O63 O 0.92161 0.56287 0.49330
 O64 O 1.00801 0.51537 0.59366
 O65 O 1.06435 0.55608 0.47621
 O66 O 1.03349 0.42076 0.46205
 O67 O 0.94310 0.51487 0.41865
 O68 O 1.08221 0.46942 0.48027
 O69 O 0.95309 0.44685 0.42840
 O70 O 0.95598 0.40986 0.51192
 O71 O 0.94698 0.44880 0.56949
 C72 C 0.90667 0.55924 0.53063
 C73 C 1.04296 0.58349 0.45645
 C74 C 1.04888 0.52215 0.59042
 C75 C 1.07271 0.43403 0.46384
 C76 C 0.93957 0.47701 0.40593
 C77 C 0.94287 0.41398 0.54986
 Zn78 Zn 0.49947 0.44566 1.02408
 Zn79 Zn 0.48317 0.49969 0.94862
 Zn80 Zn 0.47929 0.53628 1.03593
 Zn81 Zn 0.56447 0.51156 0.99973
 O82 O 0.50655 0.49829 1.00206
 O83 O 0.47250 0.40998 0.98825
 O84 O 0.43650 0.53271 0.94567
 O85 O 0.45843 0.51304 1.08358
 O86 O 0.46370 0.44913 0.93114
 O87 O 0.46942 0.44530 1.07269
 O88 O 0.43387 0.56000 1.01029
 O89 O 0.57889 0.55674 1.03092
 O90 O 0.52131 0.51866 0.90929
 O91 O 0.51461 0.57842 1.05297
 O92 O 0.58170 0.52490 0.94755
 O93 O 0.59857 0.47040 1.01801
 O94 O 0.55027 0.42188 1.03718
 C95 C 0.45978 0.41418 0.95016
 C96 C 0.41849 0.55605 0.97303
 C97 C 0.45553 0.47509 1.09558
 C98 C 0.55565 0.58312 1.05035
 C99 C 0.56160 0.52832 0.91250
 C100 C 0.58950 0.43467 1.03364
 C101 C 1.23882 0.38556 0.38977
 C102 C 1.21168 0.35071 0.38877
 C103 C 1.22471 0.31232 0.37228
 C104 C 1.26746 0.30981 0.35657
 C105 C 1.29593 0.34544 0.35720
 C106 C 1.28104 0.38388 0.37390
 O107 O 1.22071 0.41886 0.40732
 C108 C 1.18123 0.40485 0.41758
 C109 C 1.17381 0.36342 0.40683
 C110 C 1.13419 0.34285 0.41450
 C111 C 1.10090 0.36608 0.43371
 C112 C 1.10801 0.40885 0.44522
 C113 C 1.14899 0.42822 0.43709
 H114 H 1.20292 0.28522 0.37185
 H115 H 1.27831 0.28022 0.34383
 H116 H 1.30185 0.41150 0.37565
 H117 H 1.12899 0.31023 0.40573
 H118 H 1.06968 0.35079 0.43952
 H119 H 1.15547 0.46088 0.44495
 C120 C 0.25512 0.60508 0.89238
 C121 C 0.26483 0.63372 0.92388
 C122 C 0.23874 0.66785 0.93262
 C123 C 0.20135 0.67299 0.90755
 C124 C 0.19039 0.64406 0.87435
 C125 C 0.21761 0.60900 0.86765
 O126 O 0.28471 0.57535 0.88867
 C127 C 0.31368 0.58548 0.91854
 C128 C 0.30286 0.62076 0.94124
 C129 C 0.32825 0.63648 0.97453
 C130 C 0.36644 0.61496 0.98479
 C131 C 0.37865 0.57879 0.96145
 C132 C 0.35181 0.56401 0.92774
 H133 H 0.24716 0.69010 0.95751
 H134 H 0.18134 0.69989 0.91398
 H135 H 0.21014 0.58543 0.84378
 H136 H 0.31881 0.66408 0.99219
 H137 H 0.38659 0.62662 1.01070
 H138 H 0.35993 0.53622 0.90970
 C139 C -0.26271 0.89517 0.07828
 C140 C -0.27030 0.93742 0.07465
 C141 C -0.30744 0.95595 0.09086
 C142 C -0.33767 0.92994 0.11203
 C143 C -0.33071 0.88602 0.11627
 C144 C -0.29271 0.86863 0.09821
 O145 O -0.22420 0.88409 0.06334
 C146 C -0.20704 0.92013 0.04996
 C147 C -0.23400 0.95374 0.05577
 C148 C -0.22161 0.99465 0.04536
 C149 C -0.17951 1.00117 0.02890
 C150 C -0.15068 0.96708 0.02382
 C151 C -0.16508 0.92591 0.03405
 H152 H -0.31254 0.98938 0.08812
 H153 H -0.36635 0.94427 0.12519
 H154 H -0.28552 0.83566 0.10055
 H155 H -0.24317 1.02071 0.05059
 H156 H -0.16884 1.03293 0.02170
 H157 H -0.14381 0.89926 0.03098
 C158 C 0.75751 0.10461 0.57567
 C159 C 0.76899 0.06501 0.56264
 C160 C 0.80949 0.04813 0.57190
 C161 C 0.83897 0.07292 0.59588
 C162 C 0.82765 0.11382 0.60977
 C163 C 0.78647 0.12991 0.59887
 O164 O 0.71665 0.11384 0.56632
 C165 C 0.70188 0.07934 0.54703
 C166 C 0.73254 0.04849 0.54366
 C167 C 0.72289 0.00904 0.52640
 C168 C 0.67971 0.00089 0.51297
 C169 C 0.64724 0.03187 0.51756
 C170 C 0.65909 0.07195 0.53397
 H171 H 0.81776 0.01673 0.56181
 H172 H 0.87048 0.06027 0.60382
 H173 H 0.77658 0.16061 0.60970
 H174 H 0.74739 -0.01496 0.52437
 H175 H 0.67134 -0.02990 0.50038
 H176 H 0.63528 0.09630 0.53834
 C177 C 0.39638 0.24410 0.37481
 C178 C 0.42101 0.25899 0.40840
 C179 C 0.42111 0.30089 0.42115
 C180 C 0.39453 0.32845 0.39848
 C181 C 0.36886 0.31373 0.36389
 C182 C 0.37022 0.27110 0.35153
 O183 O 0.39911 0.20288 0.36930
 C184 C 0.42601 0.19147 0.40008
 C185 C 0.44050 0.22462 0.42478
 C186 C 0.46772 0.21951 0.45965
 C187 C 0.47995 0.17849 0.46991
 C188 C 0.46474 0.14355 0.44546
 C189 C 0.43781 0.15045 0.40963
 H190 H 0.44020 0.31177 0.44809
 H191 H 0.39317 0.36104 0.40819
 H192 H 0.35076 0.25926 0.32524
 H193 H 0.47856 0.24607 0.47873
 H194 H 0.50043 0.17395 0.49749
 H195 H 0.42530 0.12462 0.39044
 C196 C 0.88221 0.24381 0.59092
 C197 C 0.87524 0.26893 0.62580
 C198 C 0.86070 0.25306 0.66437
 C199 C 0.85367 0.20949 0.66718
 C200 C 0.86089 0.18307 0.63168
 C201 C 0.87474 0.20055 0.59287
 O202 O 0.89844 0.26469 0.55811
 C203 C 0.90183 0.30381 0.57257
 C204 C 0.88793 0.30817 0.61373
 C205 C 0.89024 0.34622 0.63553
 C206 C 0.90777 0.38115 0.61406
 C207 C 0.92277 0.37740 0.57165
 C208 C 0.91940 0.33801 0.55070
 H209 H 0.85596 0.27333 0.69155
 H210 H 0.84315 0.19611 0.69701
 H211 H 0.88134 0.18072 0.56575
 H212 H 0.87944 0.34881 0.66806
 H213 H 0.91008 0.41092 0.63071
 H214 H 0.93092 0.33376 0.51859
 C215 C 0.09355 0.74986 -0.13129
 C216 C 0.06279 0.73604 -0.10268
 C217 C 0.05841 0.69410 -0.09084
 C218 C 0.08735 0.66538 -0.10879
 C219 C 0.11924 0.67900 -0.13819
 C220 C 0.12195 0.72166 -0.15016
 O221 O 0.09496 0.79136 -0.13528
 C222 C 0.06446 0.80406 -0.10859
 C223 C 0.04368 0.77142 -0.08804
 C224 C 0.01263 0.77766 -0.05681
 C225 C 0.00294 0.81922 -0.04591
 C226 C 0.02455 0.85363 -0.06596
 C227 C 0.05532 0.84570 -0.09828
 H228 H 0.03470 0.68414 -0.06746
 H229 H 0.08599 0.63282 -0.09906
 H230 H 0.14723 0.73271 -0.17144
 H231 H -0.00279 0.75148 -0.04063
 H232 H -0.02055 0.82445 -0.02098
 H233 H 0.07299 0.87106 -0.11367
 C234 C 0.59727 0.75494 1.10338
 C235 C 0.62912 0.72937 1.11930
 C236 C 0.66422 0.74478 1.14318
 C237 C 0.66672 0.78833 1.15047
 C238 C 0.63527 0.81530 1.13273
 C239 C 0.59975 0.79828 1.10944
 O240 O 0.56630 0.73413 1.08217
 C241 C 0.57897 0.69458 1.08442
 C242 C 0.61746 0.68994 1.10639
 C243 C 0.63753 0.65131 1.11083
 C244 C 0.61701 0.61611 1.09192
 C245 C 0.57682 0.62012 1.07004
 C246 C 0.55750 0.65990 1.06642
 H247 H 0.68856 0.72406 1.15594
 H248 H 0.69333 0.80131 1.16931
 H249 H 0.57503 0.81833 1.09625
 H250 H 0.66811 0.64845 1.12775
 H251 H 0.63208 0.58570 1.09461
 H252 H 0.52723 0.66386 1.04918
 C253 C 0.37864 0.38782 1.24074
 C254 C 0.39322 0.42679 1.25421
 C255 C 0.39207 0.43933 1.29651
 C256 C 0.37476 0.41070 1.32597
 C257 C 0.35810 0.37099 1.31253
 C258 C 0.36051 0.35925 1.26941
 O259 O 0.38461 0.38130 1.19958
 C260 C 0.40315 0.41699 1.18674
 C261 C 0.40878 0.44601 1.21884
 C262 C 0.42764 0.48549 1.21233
 C263 C 0.44156 0.49531 1.17112
 C264 C 0.43716 0.46549 1.13770
 C265 C 0.41749 0.42580 1.14575
 H266 H 0.40473 0.46974 1.30656
 H267 H 0.37453 0.41931 1.35918
 H268 H 0.34896 0.32865 1.25878
 H269 H 0.43183 0.50780 1.23809
 H270 H 0.45705 0.52560 1.16555
 H271 H 0.41384 0.40235 1.12095
 C272 C 0.59731 -0.10402 0.24414
 C273 C 0.55745 -0.08851 0.23239
 C274 C 0.54242 -0.08927 0.19069
 C275 C 0.56965 -0.10674 0.15984
 C276 C 0.61095 -0.12249 0.17124
 C277 C 0.62495 -0.12126 0.21392
 O278 O 0.60544 -0.10012 0.28537
 C279 C 0.56997 -0.08166 0.29996
 C280 C 0.53971 -0.07381 0.26880
 C281 C 0.50056 -0.05404 0.27689
 C282 C 0.49229 -0.04171 0.31880
 C283 C 0.52295 -0.04939 0.35167
 C284 C 0.56231 -0.06994 0.34195
 H285 H 0.51095 -0.07683 0.18226
 H286 H 0.55902 -0.10771 0.12708
 H287 H 0.65643 -0.13326 0.22304
 H288 H 0.47737 -0.04804 0.25177
 H289 H 0.46192 -0.02621 0.32557
 H290 H 0.58652 -0.07602 0.36614
 C291 C -0.10635 1.09050 -0.26257
 C292 C -0.06253 1.08650 -0.27054
 C293 C -0.04358 1.09796 -0.30892
 C294 C -0.07093 1.11443 -0.34024
 C295 C -0.11613 1.11852 -0.33278
 C296 C -0.13422 1.10611 -0.29359
 O297 O -0.11734 1.07972 -0.22334
 C298 C -0.07966 1.06856 -0.20622
 C299 C -0.04522 1.07188 -0.23391
 C300 C -0.00279 1.06207 -0.22263
 C301 C 0.00447 1.04809 -0.18115
 C302 C -0.03033 1.04492 -0.15167
 C303 C -0.07306 1.05544 -0.16447
 H304 H -0.00890 1.09519 -0.31417
 H305 H -0.05715 1.12453 -0.37014
 H306 H -0.16858 1.11001 -0.28717
 H307 H 0.02377 1.06505 -0.24496
 H308 H 0.03738 1.04033 -0.17181
 H309 H -0.10031 1.05313 -0.14281
 C310 C 1.10360 0.59459 0.75381
 C311 C 1.13908 0.59393 0.72733
 C312 C 1.17909 0.61239 0.73795
 C313 C 1.18289 0.63180 0.77784
 C314 C 1.14733 0.63155 0.80652
 C315 C 1.10689 0.61316 0.79389
 O316 O 1.06802 0.57697 0.73674
 C317 C 1.08139 0.56479 0.69867
 C318 C 1.12471 0.57417 0.69160
 C319 C 1.14548 0.56491 0.65380
 C320 C 1.12043 0.54596 0.62155
 C321 C 1.07518 0.53706 0.62725
 C322 C 1.05562 0.54611 0.66683
 H323 H 1.20624 0.61227 0.71614
 H324 H 1.21351 0.64694 0.78658
 H325 H 1.07898 0.61309 0.81478
 H326 H 1.17962 0.57263 0.64903
 H327 H 1.13623 0.53940 0.59166
 H328 H 1.02121 0.54020 0.67220
 C329 C 0.74278 0.61488 0.60450
 C330 C 0.76221 0.64876 0.58488
 C331 C 0.74507 0.68891 0.58676
 C332 C 0.70645 0.69429 0.60988
 C333 C 0.68472 0.65949 0.62911
 C334 C 0.70354 0.61918 0.62611
 O335 O 0.76574 0.58001 0.60145
 C336 C 0.80030 0.59206 0.57913
 C337 C 0.79949 0.63369 0.56766
 C338 C 0.83224 0.65257 0.54354
 C339 C 0.86716 0.62748 0.53076
 C340 C 0.86928 0.58483 0.54334
 C341 C 0.83539 0.56698 0.56800
 H342 H 0.76164 0.71541 0.57221
 H343 H 0.69407 0.72572 0.61356
 H344 H 0.68862 0.59217 0.64135
 H345 H 0.83082 0.68531 0.53465
 H346 H 0.89296 0.64138 0.51181
 H347 H 0.83614 0.53444 0.57781
 C348 C 0.76175 0.37755 1.08469
 C349 C 0.73112 0.35117 1.10279
 C350 C 0.74185 0.32132 1.13304
 C351 C 0.78580 0.31899 1.14541
 C352 C 0.81775 0.34591 1.12715
 C353 C 0.80566 0.37507 1.09584
 O354 O 0.74454 0.40571 1.05898
 C355 C 0.70215 0.39701 1.06088
 C356 C 0.69217 0.36371 1.08694
 C357 C 0.64950 0.35053 1.09480
 C358 C 0.61578 0.37302 1.07559
 C359 C 0.62522 0.40831 1.04958
 C360 C 0.66921 0.41989 1.04168
 H361 H 0.71714 0.30141 1.14743
 H362 H 0.79509 0.29690 1.16968
 H363 H 0.82953 0.39597 1.08158
 H364 H 0.64237 0.32444 1.11567
 H365 H 0.58236 0.36378 1.08219
 H366 H 0.67765 0.44680 1.02231
 C367 C 0.26718 1.09035 -0.10437
 C368 C 0.27885 1.07620 -0.06479
 C369 C 0.32118 1.08033 -0.04896
 C370 C 0.35249 1.10010 -0.07489
 C371 C 0.34071 1.11588 -0.11516
 C372 C 0.29753 1.11087 -0.13011
 O373 O 0.22543 1.08352 -0.11355
 C374 C 0.21023 1.06491 -0.07896
 C375 C 0.24139 1.06006 -0.04792
 C376 C 0.23171 1.04325 -0.00830
 C377 C 0.18821 1.03096 -0.00048
 C378 C 0.15591 1.03476 -0.03247
 C379 C 0.16723 1.05183 -0.07229
 H380 H 0.32972 1.06899 -0.01777
 H381 H 0.38564 1.10404 -0.06343
 H382 H 0.28785 1.12328 -0.16056
 H383 H 0.25659 1.04022 0.01589
 H384 H 0.17974 1.01809 0.03019
 H385 H 0.14300 1.05579 -0.09697
 C386 C 0.22370 -0.07530 0.39146
 C387 C 0.21387 -0.06990 0.43369
 C388 C 0.17450 -0.08336 0.45110
 C389 C 0.14493 -0.10480 0.42431
 C390 C 0.15521 -0.11250 0.38117
 C391 C 0.19454 -0.09615 0.36422
 O392 O 0.26428 -0.06383 0.38208
 C393 C 0.28054 -0.05129 0.41917
 C394 C 0.25117 -0.05456 0.45188
 C395 C 0.26287 -0.04729 0.49404
 C396 C 0.30651 -0.03596 0.50272
 C397 C 0.33721 -0.03203 0.46939
 C398 C 0.32375 -0.03948 0.42701
 H399 H 0.16774 -0.07944 0.48453
 H400 H 0.11521 -0.11787 0.43762
 H401 H 0.20395 -0.10314 0.33194
 H402 H 0.23954 -0.05131 0.51943
 H403 H 0.31643 -0.03045 0.53530
 H404 H 0.34673 -0.03801 0.40104
 C405 C 0.58031 -0.25498 0.59563
 C406 C 0.55696 -0.23786 0.62832
 C407 C 0.56016 -0.25187 0.66981
 C408 C 0.58930 -0.28427 0.67819
 C409 C 0.61389 -0.30317 0.64512
 C410 C 0.60773 -0.28889 0.60284
 O411 O 0.57646 -0.23375 0.55959
 C412 C 0.55006 -0.20262 0.56988
 C413 C 0.53666 -0.20423 0.61143
 C414 C 0.51065 -0.17381 0.62967
 C415 C 0.49839 -0.13994 0.60429
 C416 C 0.51322 -0.13636 0.56182
 C417 C 0.53907 -0.16855 0.54423
 H418 H 0.54243 -0.23697 0.69523
 H419 H 0.59361 -0.29346 0.71089
 H420 H 0.62531 -0.30238 0.57653
 H421 H 0.50106 -0.17553 0.66262
 H422 H 0.47916 -0.11538 0.61849
 H423 H 0.55148 -0.16638 0.51220
 C424 C 1.08604 0.75236 0.39477
 C425 C 1.12392 0.73355 0.40753
 C426 C 1.16444 0.75371 0.40637
 C427 C 1.16609 0.79485 0.39084
 C428 C 1.12761 0.81481 0.37688
 C429 C 1.08694 0.79334 0.37925
 O430 O 1.05103 0.72754 0.39856
 C431 C 1.06723 0.69230 0.41398
 C432 C 1.11168 0.69441 0.41987
 C433 C 1.13550 0.66122 0.43561
 C434 C 1.11250 0.62446 0.44639
 C435 C 1.06643 0.62152 0.44146
 C436 C 1.04358 0.65596 0.42450
 H437 H 1.19375 0.73817 0.41661
 H438 H 1.19740 0.81092 0.38866
 H439 H 1.05727 0.80796 0.36855
 H440 H 1.17050 0.66364 0.43981
 H441 H 1.13068 0.59850 0.45913
 H442 H 1.00850 0.65489 0.42049
 C443 C -0.09427 1.24770 0.09174
 C444 C -0.05277 1.24744 0.10830
 C445 C -0.03689 1.27884 0.13524
 C446 C -0.06504 1.31161 0.14583
 C447 C -0.10874 1.31214 0.13026
 C448 C -0.12289 1.27968 0.10206
 O449 O -0.10325 1.21480 0.06703
 C450 C -0.06665 1.19318 0.06815
 C451 C -0.03473 1.21168 0.09302
 C452 C 0.00567 1.19350 0.09965
 C453 C 0.01332 1.15457 0.08002
 C454 C -0.01914 1.13483 0.05414
 C455 C -0.05959 1.15484 0.04801
 H456 H -0.00399 1.27813 0.14774
 H457 H -0.05259 1.33636 0.16635
 H458 H -0.15543 1.27877 0.08873
 H459 H 0.03019 1.20847 0.11964
 H460 H 0.04444 1.13980 0.08515
 H461 H -0.08529 1.14056 0.02891
 C462 C 0.39492 0.24533 0.90721
 C463 C 0.39143 0.26992 0.87161
 C464 C 0.37930 0.25369 0.83220
 C465 C 0.37101 0.21030 0.82930
 C466 C 0.37497 0.18425 0.86541
 C467 C 0.38633 0.20220 0.90509
 O468 O 0.40972 0.26636 0.94087
 C469 C 0.41576 0.30502 0.92620
 C470 C 0.40493 0.30893 0.88407
 C471 C 0.41052 0.34628 0.86192
 C472 C 0.42825 0.38096 0.88405
 C473 C 0.44003 0.37770 0.92751
 C474 C 0.43331 0.33906 0.94881
 H475 H 0.37758 0.27349 0.80447
 H476 H 0.36260 0.19659 0.79880
 H477 H 0.39075 0.18289 0.93285
 H478 H 0.40197 0.34854 0.82869
 H479 H 0.43330 0.41013 0.86711
 H480 H 0.44210 0.33531 0.98184
 C481 C 0.60601 0.60266 0.74800
 C482 C 0.64226 0.60479 0.77379
 C483 C 0.68048 0.62586 0.76243
 C484 C 0.68143 0.64560 0.72281
 C485 C 0.64466 0.64375 0.69533
 C486 C 0.60647 0.62162 0.70809
 O487 O 0.57236 0.58281 0.76588
 C488 C 0.58780 0.57219 0.80374
 C489 C 0.63047 0.58476 0.80995
 C490 C 0.65285 0.57803 0.84760
 C491 C 0.63019 0.55803 0.88052
 C492 C 0.58573 0.54546 0.87555
 C493 C 0.56447 0.55228 0.83620
 H494 H 0.70829 0.62771 0.78363
 H495 H 0.71056 0.66288 0.71361
 H496 H 0.57792 0.62000 0.68783
 H497 H 0.68638 0.58847 0.85175
 H498 H 0.64713 0.55337 0.91027
 H499 H 0.53053 0.54359 0.83141
 C500 C 0.40618 0.08030 0.76384
 C501 C 0.44928 0.09284 0.76186
 C502 C 0.46936 0.11750 0.79298
 C503 C 0.44367 0.13072 0.82700
 C504 C 0.39880 0.11936 0.82926
 C505 C 0.38010 0.09280 0.79772
 O506 O 0.39272 0.05957 0.72941
 C507 C 0.42800 0.05929 0.70510
 C508 C 0.46343 0.07934 0.72352
 C509 C 0.50272 0.08569 0.70250
 C510 C 0.50561 0.07088 0.66071
 C511 C 0.46959 0.05010 0.64087
 C512 C 0.43038 0.04372 0.66367
 H513 H 0.50318 0.12743 0.79042
 H514 H 0.45813 0.15118 0.85091
 H515 H 0.34576 0.08453 0.79794
 H516 H 0.52991 0.10217 0.71742
 H517 H 0.53593 0.07563 0.64375
 H518 H 0.40218 0.02856 0.64911
 C519 C 0.09520 0.90536 0.25556
 C520 C 0.09031 0.87004 0.23069
 C521 C 0.09942 0.83001 0.24485
 C522 C 0.11378 0.82591 0.28670
 C523 C 0.11796 0.86148 0.31409
 C524 C 0.10885 0.90197 0.29783
 O525 O 0.08487 0.94044 0.23529
 C526 C 0.07303 0.92670 0.19693
 C527 C 0.07551 0.88378 0.19286
 C528 C 0.06329 0.86215 0.15631
 C529 C 0.04802 0.88572 0.12223
 C530 C 0.04581 0.93016 0.12492
 C531 C 0.05868 0.95107 0.16286
 H532 H 0.09571 0.80281 0.22435
 H533 H 0.12148 0.79474 0.29762
 H534 H 0.11156 0.92976 0.31763
 H535 H 0.06515 0.82828 0.15419
 H536 H 0.03852 0.86931 0.09338
 H537 H 0.05691 0.98488 0.16590
 C538 C 0.88792 0.38853 0.25038
 C539 C 0.88783 0.43096 0.24225
 C540 C 0.88064 0.44704 0.20195
 C541 C 0.87292 0.41823 0.16881
 C542 C 0.87239 0.37436 0.17650
 C543 C 0.87990 0.35939 0.21799
 O544 O 0.89687 0.37974 0.29054
 C545 C 0.90251 0.41740 0.30812
 C546 C 0.89711 0.44983 0.28005
 C547 C 0.90248 0.49180 0.29172
 C548 C 0.91463 0.50067 0.33388
 C549 C 0.92150 0.46769 0.36323
 C550 C 0.91469 0.42547 0.35004
 H551 H 0.88119 0.48053 0.19618
 H552 H 0.86755 0.43004 0.13718
 H553 H 0.87947 0.32606 0.22463
 H554 H 0.89833 0.51680 0.26899
 H555 H 0.92004 0.53313 0.34319
 H556 H 0.92003 0.39948 0.37136
   
