data_POSCAR
  _audit_creation_date              2014-09-24
  _audit_creation_method            'ToBaCCo'
  _symmetry_space_group_name_H-M    'P1'
  _symmetry_Int_Tables_number       1
  _symmetry_cell_setting            triclinic
  loop_
  _symmetry_equiv_pos_as_xyz
 x,y,z
_cell_length_a 31.2771
_cell_length_b 29.8471
_cell_length_c 30.7136
_cell_angle_alpha 88.503000
_cell_angle_beta 90.133900
_cell_angle_gamma 88.814300
loop_
  _atom_site_label
  _atom_site_type_symbol
  _atom_site_fract_x
  _atom_site_fract_y
  _atom_site_fract_z
C1 C 0.24633 0.52426 0.99079
 C2 C 0.75256 0.48545 0.01292
 C3 C 0.01446 0.24551 0.50224
 C4 C 0.98801 0.75021 0.50183
 C5 C 0.49787 -0.00496 0.25397
 C6 C 0.50565 0.01237 0.74391
 C7 C 0.31265 0.00964 0.44383
 H8 H 0.31452 0.03655 0.46664
 C9 C 0.34214 0.00688 0.40978
 H10 H 0.36634 0.03212 0.40683
 C11 C 0.28147 -0.05837 0.42330
 H12 H 0.25918 -0.08485 0.42973
 C13 C 0.31029 -0.06247 0.38901
 H14 H 0.30919 -0.09172 0.36891
 N15 N 0.28363 -0.02316 0.45038
 C16 C 0.19324 0.02390 0.54825
 H17 H 0.19739 -0.00388 0.57132
 C18 C 0.16329 0.05780 0.55639
 H19 H 0.14461 0.05601 0.58602
 C20 C 0.21213 0.05913 0.48120
 H21 H 0.23103 0.05909 0.45177
 C22 C 0.18217 0.09382 0.48794
 H23 H 0.17916 0.12069 0.46377
 Zn24 Zn 0.25348 -0.02532 0.50368
 N25 N 0.21698 0.02512 0.51128
 C26 C 0.29886 0.00293 0.57843
 N27 N 0.29560 -0.02911 0.54796
 C28 C 0.32463 -0.06350 0.54600
 C29 C 0.35838 -0.06695 0.57573
 C30 C 0.33229 0.00089 0.60875
 C31 C 0.18532 -0.07589 0.47667
 C32 C 0.15691 -0.11128 0.47641
 C33 C 0.19645 -0.14646 0.53619
 C34 C 0.22410 -0.11026 0.53538
 N35 N 0.21818 -0.07603 0.50573
 H36 H 0.27599 0.03053 0.57890
 H37 H 0.32175 -0.08804 0.52091
 H38 H 0.38124 -0.09457 0.57362
 H39 H 0.33372 0.02642 0.63301
 H40 H 0.18133 -0.04814 0.45355
 H41 H 0.13164 -0.11067 0.45229
 H42 H 0.20141 -0.17343 0.56007
 H43 H 0.24993 -0.10941 0.55871
 C44 C 0.15696 0.09308 0.52591
 C45 C 0.34173 -0.03022 0.38243
 C46 C 0.16202 -0.14699 0.50686
 C47 C 0.36289 -0.03426 0.60728
 C48 C 0.69096 0.06774 0.54108
 H49 H 0.69535 0.09073 0.51372
 C50 C 0.65998 0.07709 0.57244
 H51 H 0.64082 0.10766 0.56925
 C52 C 0.70935 -0.00097 0.57745
 H53 H 0.72781 -0.03195 0.57874
 C54 C 0.67878 0.00705 0.60951
 H55 H 0.67555 -0.01738 0.63584
 N56 N 0.71469 0.02910 0.54396
 C57 C 0.82005 0.05057 0.45352
 H58 H 0.81515 0.02182 0.43350
 C59 C 0.85395 0.07893 0.44475
 H60 H 0.87504 0.07204 0.41770
 C61 C 0.79871 0.09388 0.51365
 H62 H 0.77731 0.09915 0.54070
 C63 C 0.83269 0.12290 0.50634
 H64 H 0.83640 0.15107 0.52739
 Zn65 Zn 0.75097 0.01501 0.49683
 N66 N 0.79315 0.05855 0.48728
 C67 C 0.71706 0.04642 0.41689
 N68 N 0.71544 0.01235 0.44707
 C69 C 0.68441 -0.01887 0.44562
 C70 C 0.65286 -0.01597 0.41319
 C71 C 0.68612 0.05076 0.38428
 C72 C 0.80833 -0.03616 0.54427
 C73 C 0.83675 -0.07116 0.55492
 C74 C 0.81041 -0.11143 0.49343
 C75 C 0.78201 -0.07547 0.48409
 N76 N 0.78190 -0.03869 0.50932
 H77 H 0.74085 0.07192 0.41946
 H78 H 0.68298 -0.04474 0.47087
 H79 H 0.62740 -0.03996 0.41383
 H80 H 0.68708 0.07907 0.36152
 H81 H 0.80798 -0.00616 0.56331
 H82 H 0.85809 -0.06790 0.58245
 H83 H 0.81028 -0.14012 0.47269
 H84 H 0.76116 -0.07638 0.45601
 C85 C 0.86105 0.11518 0.47166
 C86 C 0.65285 0.04610 0.60665
 C87 C 0.83889 -0.10898 0.52891
 C88 C 0.65316 0.01982 0.38247
 C89 C 0.44797 0.19094 1.04619
 H90 H 0.42345 0.19830 1.02200
 C91 C 0.44126 0.15828 1.07843
 H92 H 0.41135 0.14060 1.07887
 C93 C 0.51682 0.20518 1.07442
 H94 H 0.54624 0.22349 1.07242
 C95 C 0.51148 0.17240 1.10739
 H96 H 0.53687 0.16658 1.13092
 N97 N 0.48505 0.21384 1.04488
 C98 C 0.43873 0.33247 0.97262
 H99 H 0.45712 0.33081 0.94289
 C100 C 0.40932 0.36778 0.97835
 H101 H 0.40556 0.39317 0.95279
 C102 C 0.42360 0.30272 1.04305
 H103 H 0.43006 0.27813 1.06875
 C104 C 0.39425 0.33751 1.05026
 H105 H 0.37783 0.33883 1.08124
 Zn106 Zn 0.48805 0.25578 0.99794
 N107 N 0.44500 0.30064 1.00462
 C108 C 0.44482 0.22776 0.92102
 N109 N 0.47966 0.22219 0.94734
 C110 C 0.50892 0.18870 0.94102
 C111 C 0.50417 0.15940 0.90683
 C112 C 0.43857 0.19882 0.88655
 C113 C 0.55340 0.31030 1.02899
 C114 C 0.58912 0.33761 1.02529
 C115 C 0.59904 0.31237 0.95186
 C116 C 0.56332 0.28557 0.95698
 N117 N 0.54108 0.28523 0.99497
 H118 H 0.42123 0.25370 0.92745
 H119 H 0.53565 0.18428 0.96325
 H120 H 0.52731 0.13229 0.90347
 H121 H 0.41034 0.20304 0.86624
 H122 H 0.53443 0.31044 1.05840
 H123 H 0.59707 0.35858 1.05219
 H124 H 0.61555 0.31316 0.92088
 H125 H 0.55233 0.26670 0.92977
 C126 C 0.38660 0.37048 1.01773
 C127 C 0.47318 0.14834 1.10945
 C128 C 0.61212 0.33926 0.98596
 C129 C 0.46856 0.16427 0.87901
 C130 C 0.49556 0.82752 -0.05635
 H131 H 0.47108 0.83353 -0.03223
 C132 C 0.50261 0.85945 -0.08930
 H133 H 0.48367 0.89021 -0.08982
 C134 C 0.55118 0.78072 -0.08310
 H135 H 0.56987 0.74992 -0.08059
 C136 C 0.55966 0.81212 -0.11646
 H137 H 0.58511 0.80539 -0.13938
 N138 N 0.51979 0.78922 -0.05367
 C139 C 0.43208 0.70767 0.02260
 H140 H 0.44707 0.70638 0.05439
 C141 C 0.39522 0.68315 0.01558
 H142 H 0.38238 0.66409 0.04271
 C143 C 0.43407 0.73027 -0.05183
 H144 H 0.45020 0.74711 -0.07846
 C145 C 0.39723 0.70636 -0.06027
 H146 H 0.38511 0.70571 -0.09331
 Zn147 Zn 0.50775 0.75165 -0.00491
 N148 N 0.45142 0.72956 -0.01117
 C149 C 0.47951 0.79868 0.07094
 N150 N 0.51297 0.78823 0.04453
 C151 C 0.55193 0.80648 0.05052
 C152 C 0.55874 0.83571 0.08433
 C153 C 0.48490 0.82797 0.10532
 C154 C 0.53050 0.66006 0.00759
 C155 C 0.55730 0.62307 0.01647
 C156 C 0.61815 0.67063 0.00684
 C157 C 0.59006 0.70713 -0.00079
 N158 N 0.54693 0.70150 0.00032
 H159 H 0.44834 0.78524 0.06494
 H160 H 0.57764 0.79936 0.02828
 H161 H 0.59004 0.85002 0.08814
 H162 H 0.45779 0.83526 0.12587
 H163 H 0.49651 0.65536 0.00753
 H164 H 0.54351 0.59068 0.02350
 H165 H 0.65230 0.67591 0.00686
 H166 H 0.60291 0.73988 -0.00736
 C167 C 0.37798 0.68123 -0.02674
 C168 C 0.53508 0.85194 -0.11992
 C169 C 0.60159 0.62814 0.01634
 C170 C 0.52504 0.84720 0.11211
 C171 C 1.07015 0.55925 0.20609
 H172 H 1.05941 0.58553 0.22721
 C173 C 1.09973 0.56905 0.17350
 H174 H 1.11196 0.60268 0.17041
 C175 C 1.06542 0.48456 0.18256
 H176 H 1.05079 0.45209 0.18557
 C177 C 1.09514 0.49288 0.14949
 H178 H 1.10291 0.46643 0.12728
 N179 N 1.05349 0.51761 0.20996
 C180 C 0.99173 0.45137 0.32117
 H181 H 0.96188 0.47035 0.32091
 C182 C 0.99954 0.41852 0.35355
 H183 H 0.97552 0.41304 0.37829
 C184 C 1.06000 0.43793 0.29029
 H185 H 1.08372 0.44621 0.26603
 C186 C 1.06925 0.40491 0.32228
 H187 H 1.10005 0.38763 0.32214
 Zn188 Zn 1.00819 0.50726 0.24958
 N189 N 1.02159 0.46016 0.29018
 C190 C 0.94170 0.45197 0.22004
 N191 N 0.95990 0.49286 0.21578
 C192 C 0.94666 0.52304 0.18441
 C193 C 0.91351 0.51282 0.15604
 C194 C 0.90866 0.44023 0.19214
 C195 C 1.02967 0.57011 0.31023
 C196 C 1.02551 0.60784 0.33581
 C197 C 0.95609 0.62305 0.30339
 C198 C 0.96146 0.58472 0.27856
 N199 N 0.99801 0.55936 0.28219
 H200 H 0.95356 0.42784 0.24419
 H201 H 0.96262 0.55473 0.18080
 H202 H 0.90455 0.53695 0.13058
 H203 H 0.89497 0.40728 0.19546
 H204 H 1.05840 0.54935 0.31240
 H205 H 1.05158 0.61610 0.35718
 H206 H 0.92687 0.64301 0.30022
 H207 H 0.93640 0.57533 0.25655
 C208 C 1.03872 0.39454 0.35422
 C209 C 1.11246 0.53585 0.14452
 C210 C 0.98812 0.63468 0.33281
 C211 C 0.89407 0.47082 0.15974
 C212 C -0.05869 0.46431 0.82727
 H213 H -0.03751 0.43528 0.82864
 C214 C -0.08904 0.47024 0.86004
 H215 H -0.09030 0.44584 0.88665
 C216 C -0.08134 0.53221 0.79192
 H217 H -0.07830 0.55645 0.76550
 C218 C -0.11178 0.53970 0.82419
 H219 H -0.13179 0.56976 0.82231
 N220 N -0.05483 0.49552 0.79450
 C221 C -0.04901 0.41314 0.72161
 H222 H -0.07668 0.42392 0.73994
 C223 C -0.05279 0.37928 0.69136
 H224 H -0.08340 0.36356 0.68725
 C225 C 0.02347 0.42314 0.70191
 H226 H 0.05251 0.44190 0.70492
 C227 C 0.02111 0.38957 0.67131
 H228 H 0.04892 0.38298 0.65153
 Zn229 Zn -0.00892 0.48981 0.75460
 N230 N -0.01157 0.43502 0.72538
 C231 C 0.05230 0.44968 0.80815
 N232 N 0.04291 0.48921 0.78695
 C233 C 0.06808 0.52547 0.79162
 C234 C 0.10314 0.52320 0.82015
 C235 C 0.08701 0.44582 0.83652
 C236 C -0.00918 0.58096 0.71941
 C237 C -0.01713 0.61368 0.68658
 C238 C -0.03395 0.55473 0.63745
 C239 C -0.02513 0.52342 0.67064
 N240 N -0.01319 0.53662 0.71092
 H241 H 0.03235 0.42106 0.80347
 H242 H 0.06076 0.55640 0.77401
 H243 H 0.12249 0.55250 0.82355
 H244 H 0.09334 0.41416 0.85362
 H245 H -0.00168 0.59117 0.75200
 H246 H -0.01484 0.64878 0.69409
 H247 H -0.04416 0.54328 0.60596
 H248 H -0.02955 0.48852 0.66419
 C249 C -0.01787 0.36797 0.66481
 C250 C -0.11566 0.50877 0.85898
 C251 C -0.03010 0.60037 0.64510
 C252 C 0.11233 0.48306 0.84373
 C253 C 0.05214 0.21537 0.48981
 C254 C 0.07127 0.18708 0.51865
 C255 C 0.10600 0.15598 0.50585
 C256 C 0.12394 0.12781 0.53555
 H257 H 0.06056 0.18649 0.55222
 H258 H 0.11559 0.15536 0.47205
 H259 H 0.06209 0.21473 0.45601
 H260 H 0.11222 0.12872 0.56875
 C261 C 0.72414 0.52520 -0.00166
 C262 C 0.69285 0.54134 0.02349
 C263 C 0.66680 0.58079 0.00966
 C264 C 0.62929 0.58926 0.02870
 H265 H 0.68623 0.52493 0.05460
 H266 H 0.67779 0.60229 -0.01683
 H267 H 0.72957 0.54151 -0.03306
 H268 H 0.61733 0.56554 0.05287
 C269 C 0.94306 -0.22992 0.49507
 C270 C 0.92673 -0.19955 0.52204
 C271 C 0.88703 -0.17402 0.51172
 C272 C 0.87285 -0.14305 0.53918
 H273 H 0.94467 -0.19127 0.55090
 H274 H 0.87192 -0.17820 0.48042
 H275 H 0.92507 -0.23761 0.46611
 H276 H 0.88985 -0.13975 0.56974
 C277 C 0.27915 0.48818 0.97895
 C278 C 0.30460 0.46760 1.00866
 C279 C 0.33556 0.43230 0.99637
 C280 C 0.35633 0.40781 1.02709
 H281 H 0.30173 0.47621 1.04263
 H282 H 0.33992 0.42535 0.96223
 H283 H 0.28315 0.47999 0.94496
 H284 H 0.34939 0.41409 1.06101
 C285 C 0.97660 0.21560 0.51222
 C286 C 0.95563 0.19388 0.48146
 C287 C 0.91853 0.16634 0.49273
 C288 C 0.89789 0.14415 0.46214
 H289 H 0.96551 0.19720 0.44774
 H290 H 0.90855 0.16378 0.52643
 H291 H 0.96720 0.21029 0.54592
 H292 H 0.90984 0.14540 0.42901
 C293 C 0.27077 0.56538 0.00391
 C294 C 0.29242 0.59069 -0.02470
 C295 C 0.32087 0.62598 -0.00984
 C296 C 0.34350 0.65019 -0.03854
 H297 H 0.29075 0.58373 -0.05913
 H298 H 0.32425 0.63051 0.02478
 H299 H 0.27432 0.57167 0.03836
 H300 H 0.33799 0.64529 -0.07297
 C301 C 0.02013 -0.21288 0.49442
 C302 C 0.06217 -0.21901 0.50121
 C303 C 0.09146 -0.18129 0.49599
 C304 C 0.13229 -0.18500 0.50891
 H305 H 0.07465 -0.25158 0.51207
 H306 H 0.07865 -0.14953 0.48344
 H307 H 0.00846 -0.18000 0.48338
 H308 H 0.14368 -0.21632 0.52393
 C309 C 0.72409 0.44632 1.02542
 C310 C 0.70003 0.42627 0.99585
 C311 C 0.66881 0.39195 1.00829
 C312 C 0.64696 0.37126 0.97743
 H313 H 0.70253 0.43654 0.96183
 H314 H 0.66350 0.38432 1.04246
 H315 H 0.72067 0.43681 1.05955
 H316 H 0.65472 0.37854 0.94360
 C317 C 0.51022 0.03432 1.22422
 C318 C 0.48151 0.05633 1.19887
 C319 C 0.49403 0.09246 1.16818
 C320 C 0.46436 0.11323 1.14308
 H321 H 0.44821 0.04700 1.20049
 H322 H 0.52742 0.10085 1.16554
 H323 H 0.54368 0.04271 1.22118
 H324 H 0.43150 0.10259 1.14612
 C325 C -0.00785 0.73066 0.54808
 C326 C -0.03272 0.69736 0.56199
 C327 C -0.02381 0.67203 0.60286
 C328 C -0.04181 0.63226 0.60931
 H329 H -0.05776 0.68599 0.54066
 H330 H 0.00002 0.68374 0.62530
 H331 H 0.01772 0.74140 0.56904
 H332 H -0.06350 0.62046 0.58467
 C333 C 0.49648 0.97304 -0.22516
 C334 C 0.52697 0.94959 -0.20327
 C335 C 0.51556 0.91425 -0.17131
 C336 C 0.54519 0.88603 -0.15405
 H337 H 0.56040 0.95684 -0.20851
 H338 H 0.48232 0.91119 -0.16209
 H339 H 0.46327 0.96595 -0.21810
 H340 H 0.57782 0.88746 -0.16577
 C341 C 1.00327 0.27873 0.46527
 C342 C 1.03249 0.30437 0.44551
 C343 C 1.01999 0.33745 0.41108
 C344 C 1.04947 0.36032 0.38866
 H345 H 1.06584 0.30088 0.45492
 H346 H 0.98634 0.34238 0.40370
 H347 H 0.96990 0.28369 0.45627
 H348 H 1.08302 0.35287 0.39502
 C349 C 0.48631 0.95657 0.22479
 C350 C 0.51566 0.93487 0.20117
 C351 C 0.50351 0.90066 0.16997
 C352 C 0.53361 0.87970 0.14670
 H353 H 0.54906 0.94334 0.20425
 H354 H 0.46997 0.89411 0.16532
 H355 H 0.45285 0.94907 0.22011
 H356 H 0.56672 0.88831 0.15202
 C357 C 0.02539 0.27241 0.54212
 C358 C -0.00465 0.29405 0.56502
 C359 C 0.00619 0.32039 0.60320
 C360 C -0.02487 0.33726 0.62832
 H361 H -0.03794 0.29212 0.55546
 H362 H 0.03953 0.32580 0.61022
 H363 H 0.05872 0.27569 0.55114
 H364 H -0.05772 0.32919 0.62089
 C365 C 0.51338 0.05273 0.77192
 C366 C 0.48203 0.07369 0.79360
 C367 C 0.49170 0.10886 0.82467
 C368 C 0.46040 0.13188 0.84435
 H369 H 0.44916 0.06372 0.78952
 H370 H 0.52487 0.11544 0.83185
 H371 H 0.54618 0.06215 0.77781
 H372 H 0.42749 0.12676 0.83482
 C373 C 0.99731 0.71280 0.47019
 C374 C 0.98970 0.71602 0.42730
 C375 C 0.99848 0.67725 0.39977
 C376 C 0.98184 0.67472 0.35977
 H377 H 0.97583 0.74649 0.41285
 H378 H 1.01691 0.64921 0.41361
 H379 H 1.01202 0.68196 0.48314
 H380 H 0.96077 0.70151 0.34757
 C381 C 1.21860 0.50797 0.02851
 C382 C 1.19165 0.53552 0.04922
 C383 C 1.16438 0.51934 0.08513
 C384 C 1.14132 0.54853 0.10821
 H385 H 1.19002 0.57075 0.03964
 H386 H 1.16400 0.48379 0.09297
 H387 H 1.21920 0.47258 0.03755
 H388 H 1.14428 0.58404 0.10060
 C389 C 0.54458 0.00271 0.71569
 C390 C 0.56309 0.03452 0.69108
 C391 C 0.59911 0.02351 0.66220
 C392 C 0.61797 0.05540 0.63802
 H393 H 0.55126 0.06888 0.69209
 H394 H 0.60916 -0.01125 0.66002
 H395 H 0.55570 -0.03175 0.71284
 H396 H 0.60584 0.08962 0.63963
 C397 C -0.21725 0.47213 0.97637
 C398 C -0.19231 0.50177 0.95579
 C399 C -0.16338 0.48826 0.92056
 C400 C -0.14557 0.51934 0.89469
 H401 H -0.19381 0.53669 0.96465
 H402 H -0.15767 0.45293 0.91519
 H403 H -0.21474 0.43717 0.96770
 H404 H -0.15413 0.55433 0.89912
 C405 C 0.46014 0.00836 0.28249
 C406 C 0.43698 -0.02190 0.30441
 C407 C 0.40204 -0.00841 0.33367
 C408 C 0.37572 -0.03927 0.35009
 H409 H 0.44407 -0.05733 0.30081
 H410 H 0.39805 0.02656 0.34151
 H411 H 0.45359 0.04371 0.28741
 H412 H 0.37951 -0.07353 0.33952
 C413 C 0.21683 0.53492 0.95219
 C414 C 0.19672 0.50244 0.93151
 C415 C 0.16568 0.51205 0.89618
 C416 C 0.14725 0.47803 0.87629
 H417 H 0.20282 0.46779 0.94159
 H418 H 0.15687 0.54651 0.88808
 H419 H 0.20967 0.56963 0.94312
 H420 H 0.15636 0.44409 0.88654
 C421 C 0.53478 -0.01878 0.28420
 C422 C 0.55648 0.01122 0.30661
 C423 C 0.59162 -0.00217 0.33649
 C424 C 0.61784 0.02892 0.35112
 H425 H 0.54846 0.04659 0.30234
 H426 H 0.59632 -0.03719 0.34572
 H427 H 0.54228 -0.05417 0.28946
 H428 H 0.61357 0.06321 0.33902
 C429 C 0.77946 0.49892 0.05153
 C430 C 0.80556 0.46997 0.07314
 C431 C 0.83529 0.48558 0.10649
 C432 C 0.86103 0.45670 0.12857
 H433 H 0.80615 0.43489 0.06479
 H434 H 0.83641 0.52114 0.11244
 H435 H 0.78010 0.53408 0.05965
 H436 H 0.85773 0.42107 0.12372
 C437 C 0.46764 0.02059 0.71348
 C438 C 0.45168 -0.01236 0.68995
 C439 C 0.41488 -0.00473 0.66054
 C440 C 0.39938 -0.03866 0.63807
 H441 H 0.46589 -0.04576 0.69292
 H442 H 0.40112 0.02874 0.65704
 H443 H 0.45413 0.05421 0.70946
 H444 H 0.41521 -0.07127 0.64125
   
