data_POSCAR
  _audit_creation_date              2014-09-24
  _audit_creation_method            'ToBaCCo'
  _symmetry_space_group_name_H-M    'P1'
  _symmetry_Int_Tables_number       1
  _symmetry_cell_setting            triclinic
  loop_
  _symmetry_equiv_pos_as_xyz
 x,y,z
_cell_length_a 46.4034
_cell_length_b 45.8432
_cell_length_c 45.0714
_cell_angle_alpha 89.866700
_cell_angle_beta 89.912800
_cell_angle_gamma 89.692300
loop_
  _atom_site_label
  _atom_site_type_symbol
  _atom_site_fract_x
  _atom_site_fract_y
  _atom_site_fract_z
C1 C 0.60153 0.64618 0.62473
 N2 N 0.62274 0.64602 0.60391
 C3 C 0.64358 0.62510 0.60417
 N4 N 0.64302 0.60417 0.62555
 C5 C 0.62199 0.60394 0.64660
 N6 N 0.60135 0.62510 0.64597
 C7 C 0.89872 0.35076 0.12614
 N8 N 0.87662 0.34941 0.10640
 C9 C 0.85570 0.37025 0.10592
 N10 N 0.85680 0.39245 0.12577
 C11 C 0.87856 0.39412 0.14579
 N12 N 0.89953 0.37332 0.14569
 C13 C 0.39834 0.14961 -0.12704
 N14 N 0.37695 0.15053 -0.10643
 C15 C 0.35619 0.12975 -0.10580
 N16 N 0.35686 0.10806 -0.12627
 C17 C 0.37802 0.10687 -0.14711
 N18 N 0.39878 0.12767 -0.14726
 C19 C 0.10054 0.85191 0.37494
 N20 N 0.10072 0.87272 0.35338
 C21 C 0.12138 0.89363 0.35263
 N22 N 0.14213 0.89349 0.37390
 C23 C 0.14236 0.87292 0.39564
 N24 N 0.12150 0.85224 0.39601
 N25 N 0.09306 0.17300 0.11429
 N26 N 0.07900 0.15787 0.13442
 C27 C 0.05455 0.17221 0.14158
 C28 C 0.05342 0.19779 0.12527
 C29 C 0.07824 0.19761 0.10824
 H30 H 0.03896 0.16493 0.15781
 H31 H 0.08473 0.21390 0.09221
 Cu32 Cu 0.09518 0.12174 0.14996
 Cu33 Cu 0.12884 0.15904 0.09629
 Cu34 Cu 0.15709 0.09411 0.12397
 N35 N 0.11144 0.08608 0.16650
 N36 N 0.13600 0.07567 0.15640
 C37 C 0.14340 0.05188 0.17223
 C38 C 0.12234 0.04702 0.19347
 C39 C 0.10234 0.06918 0.18911
 H40 H 0.16276 0.03916 0.16860
 H41 H 0.08309 0.07319 0.20203
 N42 N 0.17508 0.11613 0.09123
 N43 N 0.16460 0.14101 0.08099
 C44 C 0.18129 0.15020 0.05837
 C45 C 0.20328 0.13011 0.05405
 C46 C 0.19863 0.10884 0.07536
 H47 H 0.17720 0.16962 0.04538
 H48 H 0.21137 0.08936 0.07894
 H49 H 0.12250 0.11520 0.10429
 H50 H 0.14291 0.13592 0.13286
 N51 N 0.40843 0.82851 0.61083
 N52 N 0.42011 0.84066 0.63426
 C53 C 0.44359 0.82515 0.64225
 C54 C 0.44690 0.80210 0.62270
 C55 C 0.42416 0.80499 0.60302
 H56 H 0.45745 0.83041 0.66071
 H57 H 0.41915 0.79081 0.58463
 Cu58 Cu 0.40354 0.87566 0.65187
 Cu59 Cu 0.37348 0.84379 0.59245
 Cu60 Cu 0.34345 0.90601 0.62367
 N61 N 0.38658 0.91065 0.66909
 N62 N 0.36294 0.92225 0.65807
 C63 C 0.35562 0.94587 0.67414
 C64 C 0.37580 0.94939 0.69644
 C65 C 0.39516 0.92661 0.69250
 H66 H 0.33712 0.95960 0.66969
 H67 H 0.41388 0.92179 0.70592
 N68 N 0.32691 0.88637 0.58883
 N69 N 0.33818 0.86256 0.57709
 C70 C 0.32188 0.85432 0.55390
 C71 C 0.29930 0.87395 0.55078
 C72 C 0.30324 0.89398 0.57332
 H73 H 0.32631 0.83561 0.54005
 H74 H 0.28965 0.91256 0.57828
 H75 H 0.37949 0.88662 0.60506
 H76 H 0.35708 0.86346 0.63011
 N77 N 0.90964 0.67145 0.38877
 N78 N 0.92066 0.66015 0.36447
 C79 C 0.94387 0.67578 0.35635
 C80 C 0.94769 0.69800 0.37670
 C81 C 0.92554 0.69452 0.39701
 H82 H 0.95723 0.67115 0.33725
 H83 H 0.92103 0.70802 0.41611
 Cu84 Cu 0.90382 0.62597 0.34593
 Cu85 Cu 0.87518 0.65581 0.40756
 Cu86 Cu 0.84524 0.59432 0.37569
 N87 N 0.88729 0.59082 0.32899
 N88 N 0.86427 0.57873 0.34060
 C89 C 0.85719 0.55511 0.32458
 C90 C 0.87691 0.55208 0.30167
 C91 C 0.89575 0.57516 0.30524
 H92 H 0.83920 0.54102 0.32947
 H93 H 0.91403 0.58035 0.29135
 N94 N 0.82907 0.61326 0.41123
 N95 N 0.84032 0.63680 0.42326
 C96 C 0.82421 0.64469 0.44683
 C97 C 0.80178 0.62510 0.44989
 C98 C 0.80562 0.60547 0.42692
 H99 H 0.82861 0.66318 0.46091
 H100 H 0.79204 0.58710 0.42175
 H101 H 0.88167 0.61346 0.39333
 H102 H 0.85793 0.63716 0.36994
 N103 N 0.59175 0.32840 -0.11265
 N104 N 0.57672 0.34485 -0.13094
 C105 C 0.55256 0.33067 -0.13870
 C106 C 0.55251 0.30379 -0.12463
 C107 C 0.57777 0.30310 -0.10832
 H108 H 0.53639 0.33918 -0.15369
 H109 H 0.58507 0.28579 -0.09379
 Cu110 Cu 0.59002 0.38311 -0.14326
 Cu111 Cu 0.62735 0.34177 -0.09450
 Cu112 Cu 0.65611 0.40540 -0.12270
 N113 N 0.60942 0.41506 -0.16330
 N114 N 0.63528 0.42353 -0.15538
 C115 C 0.64365 0.44557 -0.17310
 C116 C 0.62185 0.45131 -0.19331
 C117 C 0.60042 0.43145 -0.18634
 H118 H 0.66405 0.45667 -0.17124
 H119 H 0.57999 0.42874 -0.19746
 N120 N 0.67376 0.38370 -0.08961
 N121 N 0.66302 0.35920 -0.07906
 C122 C 0.67945 0.35000 -0.05623
 C123 C 0.70157 0.36974 -0.05212
 C124 C 0.69725 0.39080 -0.07376
 H125 H 0.67510 0.33083 -0.04300
 H126 H 0.71014 0.41000 -0.07761
 H127 H 0.62183 0.38621 -0.10044
 H128 H 0.63806 0.36525 -0.13207
 C129 C -0.03588 0.28591 0.12644
 C130 C -0.06031 0.28273 0.10852
 C131 C -0.08176 0.30425 0.10816
 C132 C -0.07956 0.32918 0.12629
 C133 C -0.05506 0.33197 0.14454
 C134 C -0.03334 0.31073 0.14433
 C135 C -0.01301 0.26338 0.12637
 C136 C 0.01570 0.27106 0.12059
 C137 C 0.03727 0.24967 0.11996
 C138 C 0.03059 0.22036 0.12578
 C139 C 0.00191 0.21277 0.13196
 C140 C -0.01977 0.23407 0.13192
 H141 H -0.10019 0.30107 0.09382
 H142 H -0.05236 0.35074 0.15881
 H143 H 0.05924 0.25612 0.11533
 H144 H -0.00384 0.19031 0.13632
 H145 H -0.01466 0.31349 0.15841
 H146 H 0.02131 0.29355 0.11615
 H147 H -0.06258 0.26376 0.09444
 H148 H -0.04179 0.22774 0.13651
 C149 C 0.53565 0.71279 0.62366
 C150 C 0.55509 0.71008 0.59989
 C151 C 0.57654 0.68855 0.60027
 C152 C 0.57887 0.66910 0.62433
 C153 C 0.55930 0.67177 0.64805
 C154 C 0.53801 0.69345 0.64776
 C155 C 0.51299 0.73574 0.62336
 C156 C 0.50716 0.75218 0.64895
 C157 C 0.48581 0.77380 0.64869
 C158 C 0.46967 0.77930 0.62290
 C159 C 0.47547 0.76278 0.59732
 C160 C 0.49699 0.74132 0.59751
 H161 H 0.59122 0.68712 0.58163
 H162 H 0.56046 0.65718 0.66694
 H163 H 0.48179 0.78595 0.66885
 H164 H 0.46360 0.76656 0.57701
 H165 H 0.52312 0.69485 0.66623
 H166 H 0.51934 0.74852 0.66911
 H167 H 0.55394 0.72489 0.58117
 H168 H 0.50086 0.72880 0.57754
 C169 C 1.03589 0.78685 0.37606
 C170 C 1.03677 0.80767 0.35320
 C171 C 1.05795 0.82922 0.35291
 C172 C 1.07903 0.83034 0.37538
 C173 C 1.07805 0.80931 0.39825
 C174 C 1.05667 0.78795 0.39862
 C175 C 1.01338 0.76402 0.37630
 C176 C 0.99865 0.75709 0.40262
 C177 C 0.97725 0.73575 0.40274
 C178 C 0.97034 0.72067 0.37660
 C179 C 0.98523 0.72748 0.35033
 C180 C 1.00642 0.74902 0.35015
 H181 H 1.05775 0.84490 0.33490
 H182 H 1.09376 0.80925 0.41599
 H183 H 0.96635 0.73090 0.42339
 H184 H 0.98030 0.71645 0.32977
 H185 H 1.05663 0.77198 0.41637
 H186 H 1.00345 0.76848 0.42303
 H187 H 1.02081 0.80750 0.33569
 H188 H 1.01761 0.75376 0.32961
 C189 C 0.46415 0.21541 -0.12764
 C190 C 0.43798 0.22024 -0.11272
 C191 C 0.41668 0.19882 -0.11240
 C192 C 0.42095 0.17228 -0.12738
 C193 C 0.44705 0.16758 -0.14257
 C194 C 0.46852 0.18886 -0.14250
 C195 C 0.48689 0.23794 -0.12747
 C196 C 0.51554 0.23038 -0.12089
 C197 C 0.53686 0.25178 -0.11994
 C198 C 0.53001 0.28108 -0.12600
 C199 C 0.50142 0.28856 -0.13301
 C200 C 0.48002 0.26722 -0.13352
 H201 H 0.39679 0.20315 -0.10058
 H202 H 0.45102 0.14734 -0.15425
 H203 H 0.55874 0.24531 -0.11468
 H204 H 0.49543 0.31097 -0.13758
 H205 H 0.48846 0.18471 -0.15432
 H206 H 0.52133 0.20797 -0.11597
 H207 H 0.43420 0.24045 -0.10090
 H208 H 0.45811 0.27356 -0.13884
 C209 C 0.12134 -0.04187 0.28498
 C210 C 0.09942 -0.06281 0.28629
 C211 C 0.09944 -0.08414 0.30851
 C212 C 0.12133 -0.08493 0.33018
 C213 C 0.14319 -0.06371 0.32882
 C214 C 0.14322 -0.04256 0.30645
 C215 C 0.12147 -0.01937 0.26127
 C216 C 0.14719 -0.01226 0.24654
 C217 C 0.14741 0.00908 0.22437
 C218 C 0.12195 0.02396 0.21658
 C219 C 0.09620 0.01679 0.23129
 C220 C 0.09594 -0.00473 0.25332
 H221 H 0.08219 -0.09997 0.30859
 H222 H 0.16044 -0.06335 0.34497
 H223 H 0.16766 0.01416 0.21368
 H224 H 0.07616 0.02765 0.22570
 H225 H 0.16021 -0.02646 0.30617
 H226 H 0.16713 -0.02340 0.25202
 H227 H 0.08244 -0.06295 0.26984
 H228 H 0.07584 -0.00962 0.26447
 C229 C 0.62134 0.53880 -0.28637
 C230 C 0.64312 0.53913 -0.30803
 C231 C 0.64328 0.56049 -0.33020
 C232 C 0.62168 0.58221 -0.33123
 C233 C 0.59981 0.58170 -0.30947
 C234 C 0.59965 0.56024 -0.28739
 C235 C 0.62142 0.51629 -0.26263
 C236 C 0.59569 0.50276 -0.25378
 C237 C 0.59582 0.48161 -0.23138
 C238 C 0.62167 0.47362 -0.21721
 C239 C 0.64738 0.48721 -0.22608
 C240 C 0.64726 0.50825 -0.24856
 H241 H 0.66048 0.55988 -0.34646
 H242 H 0.58276 0.59793 -0.30929
 H243 H 0.57558 0.47177 -0.22505
 H244 H 0.66773 0.48151 -0.21587
 H245 H 0.58277 0.56072 -0.27078
 H246 H 0.57548 0.50832 -0.26442
 H247 H 0.65992 0.52265 -0.30802
 H248 H 0.66738 0.51851 -0.25467
 C249 C 0.37788 1.03906 0.78679
 C250 C 0.35488 1.04190 0.80689
 C251 C 0.35507 1.06371 0.82848
 C252 C 0.37820 1.08332 0.83037
 C253 C 0.40128 1.08037 0.81032
 C254 C 0.40116 1.05843 0.78883
 C255 C 0.37744 1.01612 0.76362
 C256 C 0.40233 0.99974 0.75718
 C257 C 0.40180 0.97804 0.73545
 C258 C 0.37641 0.97238 0.71953
 C259 C 0.35156 0.98888 0.72592
 C260 C 0.35205 1.01044 0.74777
 H261 H 0.33694 1.06529 0.84356
 H262 H 0.41945 1.09508 0.81114
 H263 H 0.42140 0.96592 0.73099
 H264 H 0.33157 0.98502 0.71428
 H265 H 0.41905 1.05693 0.77345
 H266 H 0.42214 1.00348 0.76922
 H267 H 0.33683 1.02705 0.80608
 H268 H 0.33261 1.02292 0.75204
 C269 C 0.87906 0.46273 0.21100
 C270 C 0.85569 0.45963 0.19153
 C271 C 0.85571 0.43762 0.17015
 C272 C 0.87907 0.41808 0.16784
 C273 C 0.90259 0.42137 0.18717
 C274 C 0.90262 0.44351 0.20845
 C275 C 0.87861 0.48567 0.23417
 C276 C 0.90328 0.50232 0.24003
 C277 C 0.90272 0.52396 0.26184
 C278 C 0.87755 0.52924 0.27843
 C279 C 0.85294 0.51248 0.27261
 C280 C 0.85344 0.49100 0.25068
 H281 H 0.83725 0.43580 0.15561
 H282 H 0.92095 0.40673 0.18601
 H283 H 0.92213 0.53631 0.26586
 H284 H 0.83312 0.51606 0.28477
 H285 H 0.92082 0.44524 0.22334
 H286 H 0.92291 0.49883 0.22748
 H287 H 0.83740 0.47436 0.19273
 H288 H 0.83420 0.47829 0.24687
 C289 C 0.29057 0.13102 -0.03802
 C290 C 0.29228 0.10786 -0.05831
 C291 C 0.31336 0.10760 -0.08046
 C292 C 0.33334 0.13046 -0.08277
 C293 C 0.33148 0.15375 -0.06258
 C294 C 0.31029 0.15405 -0.04050
 C295 C 0.26844 0.13097 -0.01421
 C296 C 0.25321 0.15657 -0.00703
 C297 C 0.23214 0.15634 0.01518
 C298 C 0.22595 0.13053 0.03081
 C299 C 0.24141 0.10501 0.02377
 C300 C 0.26235 0.10522 0.00148
 H301 H 0.31409 0.08935 -0.09565
 H302 H 0.34649 0.17172 -0.06369
 H303 H 0.22084 0.17645 0.02014
 H304 H 0.23715 0.08469 0.03515
 H305 H 0.30966 0.17206 -0.02500
 H306 H 0.25730 0.17669 -0.01890
 H307 H 0.27713 0.09000 -0.05720
 H308 H 0.27398 0.08523 -0.00333
 C309 C 0.71110 0.62525 0.53839
 C310 C 0.69157 0.64869 0.54030
 C311 C 0.66957 0.64860 0.56153
 C312 C 0.66676 0.62514 0.58148
 C313 C 0.68640 0.60174 0.57959
 C314 C 0.70826 0.60176 0.55823
 C315 C 0.73435 0.62525 0.51575
 C316 C 0.74074 0.59985 0.49961
 C317 C 0.76257 0.59982 0.47822
 C318 C 0.77864 0.62516 0.47262
 C319 C 0.77232 0.65054 0.48887
 C320 C 0.75033 0.65061 0.51012
 H321 H 0.65484 0.66698 0.56234
 H322 H 0.68489 0.58332 0.59458
 H323 H 0.76697 0.57983 0.46630
 H324 H 0.78411 0.67049 0.48501
 H325 H 0.72319 0.58355 0.55747
 H326 H 0.72860 0.58005 0.50329
 H327 H 0.69307 0.66694 0.52509
 H328 H 0.74605 0.67043 0.52242
 C329 C 0.78892 0.36843 0.03961
 C330 C 0.79079 0.39179 0.05962
 C331 C 0.81219 0.39216 0.08137
 C332 C 0.83231 0.36921 0.08357
 C333 C 0.83021 0.34565 0.06376
 C334 C 0.80870 0.34524 0.04207
 C335 C 0.76669 0.36857 0.01598
 C336 C 0.75134 0.34313 0.00914
 C337 C 0.73023 0.34347 -0.01298
 C338 C 0.72416 0.36921 -0.02887
 C339 C 0.73971 0.39457 -0.02213
 C340 C 0.76067 0.39426 0.00007
 H341 H 0.81308 0.41061 0.09628
 H342 H 0.84533 0.32761 0.06481
 H343 H 0.71883 0.32348 -0.01770
 H344 H 0.73554 0.41484 -0.03371
 H345 H 0.80792 0.32707 0.02679
 H346 H 0.75538 0.32306 0.02119
 H347 H 0.77560 0.40977 0.05852
 H348 H 0.77240 0.41411 0.00461
 C349 C 0.20896 0.87317 0.46220
 C350 C 0.20633 0.89639 0.44198
 C351 C 0.18477 0.89628 0.42038
 C352 C 0.16521 0.87302 0.41861
 C353 C 0.16780 0.84984 0.43895
 C354 C 0.18950 0.84987 0.46043
 C355 C 0.23197 0.87328 0.48503
 C356 C 0.24798 0.84787 0.49110
 C357 C 0.26987 0.84809 0.51237
 C358 C 0.27609 0.87368 0.52820
 C359 C 0.25993 0.89904 0.52223
 C360 C 0.23819 0.89887 0.50081
 H361 H 0.18343 0.91449 0.40509
 H362 H 0.15312 0.83157 0.43824
 H363 H 0.28171 0.82811 0.51654
 H364 H 0.26424 0.91918 0.53382
 H365 H 0.19085 0.83183 0.47593
 H366 H 0.24382 0.82790 0.47909
 H367 H 0.22122 0.91449 0.44262
 H368 H 0.22603 0.91871 0.49678
   
