data_POSCAR
  _audit_creation_date              2014-09-24
  _audit_creation_method            'ToBaCCo'
  _symmetry_space_group_name_H-M    'P1'
  _symmetry_Int_Tables_number       1
  _symmetry_cell_setting            triclinic
  loop_
  _symmetry_equiv_pos_as_xyz
 x,y,z
_cell_length_a 30.4404
_cell_length_b 28.9250
_cell_length_c 30.4080
_cell_angle_alpha 91.311500
_cell_angle_beta 90.321700
_cell_angle_gamma 88.346100
loop_
  _atom_site_label
  _atom_site_type_symbol
  _atom_site_fract_x
  _atom_site_fract_y
  _atom_site_fract_z
N1 N 0.62837 0.75743 0.63051
 N2 N 0.61025 0.75510 0.66952
 C3 C 0.58416 0.79270 0.67679
 C4 C 0.58534 0.81976 0.64010
 C5 C 0.61347 0.79638 0.61110
 H6 H 0.56407 0.79881 0.70568
 H7 H 0.62248 0.80698 0.57856
 Cu8 Cu 0.61789 0.70099 0.70514
 Cu9 Cu 0.67125 0.71038 0.60954
 Cu10 Cu 0.68973 0.61628 0.67767
 N11 N 0.61346 0.63966 0.72889
 N12 N 0.64372 0.60742 0.72057
 C13 C 0.63558 0.57000 0.74443
 C14 C 0.59728 0.57895 0.76787
 C15 C 0.58395 0.62340 0.75702
 H16 H 0.65536 0.53832 0.74373
 H17 H 0.55588 0.64310 0.76974
 N18 N 0.72011 0.62336 0.62138
 N19 N 0.71379 0.65915 0.59560
 C20 C 0.73966 0.65327 0.55992
 C21 C 0.76233 0.61140 0.56317
 C22 C 0.74906 0.59329 0.60229
 H23 H 0.74107 0.67693 0.53297
 H24 H 0.75962 0.56050 0.61578
 H25 H 0.64524 0.65552 0.64270
 H26 H 0.69001 0.68821 0.67006
 N27 N 0.87961 0.27075 0.09855
 N28 N 0.90134 0.27194 0.13601
 C29 C 0.93571 0.24164 0.13372
 C30 C 0.93585 0.22097 0.09220
 C31 C 0.89977 0.24025 0.07074
 H32 H 0.95972 0.23651 0.15964
 H33 H 0.88877 0.23259 0.03756
 Cu34 Cu 0.88529 0.31642 0.18227
 Cu35 Cu 0.82593 0.30762 0.08952
 Cu36 Cu 0.80621 0.39741 0.16526
 N37 N 0.88184 0.37325 0.21747
 N38 N 0.85004 0.40424 0.21160
 C39 C 0.85520 0.43982 0.24029
 C40 C 0.89281 0.43097 0.26467
 C41 C 0.90904 0.38856 0.24932
 H42 H 0.83419 0.47060 0.24209
 H43 H 0.93850 0.37034 0.26027
 N44 N 0.77309 0.39064 0.10970
 N45 N 0.77947 0.35560 0.08162
 C46 C 0.75197 0.36090 0.04712
 C47 C 0.72787 0.40161 0.05354
 C48 C 0.74211 0.41972 0.09331
 H49 H 0.75083 0.33798 0.01857
 H50 H 0.73097 0.45188 0.10893
 H51 H 0.85096 0.36236 0.12526
 H52 H 0.80986 0.32691 0.15318
 N53 N 0.37486 0.22346 -0.11640
 N54 N 0.39852 0.21869 -0.15239
 C55 C 0.43243 0.24760 -0.14964
 C56 C 0.42995 0.27112 -0.10956
 C57 C 0.39306 0.25506 -0.08938
 H58 H 0.45784 0.25018 -0.17412
 H59 H 0.38056 0.26522 -0.05726
 Cu60 Cu 0.38376 0.17300 -0.19779
 Cu61 Cu 0.32216 0.18849 -0.10697
 Cu62 Cu 0.31450 0.09011 -0.17285
 N63 N 0.36208 0.13031 -0.24295
 N64 N 0.33291 0.09955 -0.23309
 C65 C 0.32364 0.07391 -0.26917
 C66 C 0.34877 0.08892 -0.30334
 C67 C 0.37319 0.12447 -0.28564
 H68 H 0.30235 0.04459 -0.26980
 H69 H 0.39776 0.14376 -0.30232
 N70 N 0.28309 0.09844 -0.11692
 N71 N 0.28352 0.13731 -0.09336
 C72 C 0.25742 0.13325 -0.05812
 C73 C 0.24042 0.08946 -0.05943
 C74 C 0.25735 0.06826 -0.09702
 H75 H 0.25254 0.15947 -0.03254
 H76 H 0.25104 0.03366 -0.10923
 H77 H 0.35484 0.13321 -0.13463
 H78 H 0.31044 0.15940 -0.16948
 N79 N 0.12666 0.76480 0.39958
 N80 N 0.10202 0.76923 0.36423
 C81 C 0.06615 0.74350 0.36816
 C82 C 0.06804 0.72273 0.40873
 C83 C 0.10681 0.73712 0.42786
 H84 H 0.03994 0.74150 0.34408
 H85 H 0.12001 0.72760 0.45958
 Cu86 Cu 0.11724 0.81148 0.31844
 Cu87 Cu 0.18349 0.79350 0.40504
 Cu88 Cu 0.20420 0.88064 0.33265
 N89 N 0.12377 0.86694 0.28471
 N90 N 0.15819 0.89316 0.28911
 C91 C 0.15385 0.92879 0.26145
 C92 C 0.11425 0.92491 0.23934
 C93 C 0.09599 0.88542 0.25495
 H94 H 0.17692 0.95633 0.25875
 H95 H 0.06469 0.87131 0.24555
 N96 N 0.24612 0.86164 0.37923
 N97 N 0.23893 0.82664 0.40513
 C98 C 0.27387 0.82019 0.43175
 C99 C 0.30400 0.85332 0.42296
 C100 C 0.28543 0.87938 0.38978
 H101 H 0.27663 0.79439 0.45687
 H102 H 0.29967 0.90872 0.37436
 H103 H 0.15946 0.85249 0.37377
 H104 H 0.19441 0.81114 0.33969
 C105 C 0.05804 0.10464 0.07758
 C106 C 0.05548 0.07574 0.11381
 C107 C 0.08794 0.04126 0.12103
 C108 C 0.12369 0.03655 0.09212
 C109 C 0.12673 0.06556 0.05594
 C110 C 0.09375 0.09952 0.04885
 H111 H 0.02753 0.07929 0.13567
 H112 H 0.14859 0.00965 0.09717
 H113 H 0.09536 0.12136 0.02045
 C114 C 0.47174 0.93095 0.58156
 C115 C 0.44862 0.97077 0.59709
 C116 C 0.40840 0.98487 0.57804
 C117 C 0.39281 0.96034 0.54103
 C118 C 0.41555 0.92072 0.52462
 C119 C 0.45536 0.90681 0.54462
 H120 H 0.46057 0.98923 0.62577
 H121 H 0.36154 0.97047 0.52664
 H122 H 0.47232 0.87571 0.53271
 C123 C 0.94608 0.61517 0.42645
 C124 C 0.94959 0.58357 0.39089
 C125 C 0.91787 0.54990 0.38416
 C126 C 0.88204 0.54852 0.41288
 C127 C 0.87821 0.57996 0.44858
 C128 C 0.91035 0.61330 0.45520
 H129 H 0.97766 0.58438 0.36919
 H130 H 0.85778 0.52214 0.40817
 H131 H 0.90824 0.63696 0.48331
 C132 C 0.54589 0.38975 -0.08723
 C133 C 0.58140 0.39297 -0.05776
 C134 C 0.61151 0.42849 -0.06128
 C135 C 0.60644 0.46034 -0.09509
 C136 C 0.57117 0.45739 -0.12475
 C137 C 0.54093 0.42211 -0.12075
 H138 H 0.58488 0.36865 -0.03130
 H139 H 0.62921 0.48829 -0.09758
 H140 H 0.51297 0.42068 -0.14292
 N141 N 0.00388 0.14353 0.02800
 N142 N -0.03145 0.17504 0.03248
 C143 C -0.03347 0.18868 0.07513
 C144 C -0.00040 0.16605 0.09867
 C145 C 0.02199 0.13808 0.06811
 H146 H 0.00625 0.16895 0.13362
 H147 H 0.01288 0.12612 -0.00118
 H148 H -0.05173 0.18598 0.00671
 N149 N 0.51525 0.92018 0.65097
 N150 N 0.54495 0.89054 0.66638
 C151 C 0.55884 0.86225 0.63333
 C152 C 0.53727 0.87450 0.59494
 C153 C 0.50908 0.91118 0.60760
 H154 H 0.53898 0.85627 0.56352
 H155 H 0.49749 0.94367 0.67100
 H156 H 0.55379 0.88835 0.69953
 N157 N 1.00206 0.65197 0.47456
 N158 N 1.03755 0.68069 0.46904
 C159 C 1.03728 0.69386 0.42679
 C160 C 1.00249 0.67373 0.40452
 C161 C 0.98160 0.64760 0.43540
 H162 H 0.99427 0.67631 0.36997
 H163 H 0.99490 0.63489 0.50343
 H164 H 1.05972 0.68990 0.49383
 N165 N 0.49754 0.34251 -0.04126
 N166 N 0.46639 0.31212 -0.04718
 C167 C 0.46128 0.30388 -0.09064
 C168 C 0.49011 0.33050 -0.11354
 C169 C 0.51246 0.35463 -0.08089
 H170 H 0.49408 0.33228 -0.14881
 H171 H 0.50760 0.35537 -0.01056
 H172 H 0.44927 0.29714 -0.02174
 N173 N 0.04374 -0.00819 0.16910
 N174 N 0.05074 -0.03945 0.19952
 C175 C 0.09421 -0.04313 0.20762
 C176 C 0.11601 -0.01316 0.18099
 C177 C 0.08270 0.00827 0.15686
 H178 H 0.15105 -0.00833 0.17887
 H179 H 0.01284 0.00052 0.15613
 H180 H 0.02602 -0.05788 0.21431
 N181 N 0.52797 0.52189 -0.15790
 N182 N 0.53624 0.55756 -0.18656
 C183 C 0.57682 0.54979 -0.20316
 C184 C 0.59530 0.50982 -0.18554
 C185 C 0.56397 0.49381 -0.15715
 H186 H 0.62823 0.49564 -0.19059
 H187 H 0.50020 0.52009 -0.13807
 H188 H 0.51449 0.58518 -0.19301
 N189 N 0.33521 1.01918 0.59991
 N190 N 0.31935 1.04651 0.63175
 C191 C 0.35300 1.06606 0.65327
 C192 C 0.39210 1.05072 0.63427
 C193 C 0.37955 1.02007 0.60085
 H194 H 0.42486 1.05689 0.64660
 H195 H 0.31580 0.99731 0.58075
 H196 H 0.28618 1.04921 0.64034
 N197 N 0.96259 0.49344 0.33861
 N198 N 0.95584 0.46121 0.30802
 C199 C 0.91269 0.46144 0.29802
 C200 C 0.89087 0.49491 0.32356
 C201 C 0.92375 0.51433 0.34900
 H202 H 0.85603 0.50353 0.32393
 H203 H 0.99316 0.50008 0.35279
 H204 H 0.98049 0.43975 0.29417
 N205 N 0.17939 0.01716 0.01057
 N206 N 0.20855 0.02340 -0.02062
 C207 C 0.21152 0.06910 -0.02705
 C208 C 0.18284 0.09308 0.00093
 C209 C 0.16289 0.05879 0.02412
 H210 H 0.17669 0.13008 0.00338
 H211 H 0.17010 -0.01517 0.02127
 H212 H 0.22597 -0.00329 -0.03712
 N213 N 0.82856 0.53495 0.49521
 N214 N 0.79879 0.54323 0.52604
 C215 C 0.79272 0.58932 0.53120
 C216 C 0.82008 0.61151 0.50277
 C217 C 0.84245 0.57565 0.48063
 H218 H 0.82386 0.64834 0.49937
 H219 H 0.84001 0.50194 0.48540
 H220 H 0.78303 0.51763 0.54316
 N221 N 0.65734 0.47561 -0.01004
 N222 N 0.68708 0.46848 0.02105
 C223 C 0.69587 0.42270 0.02320
 C224 C 0.67038 0.39954 -0.00751
 C225 C 0.64626 0.43443 -0.02782
 H226 H 0.66913 0.36261 -0.01375
 H227 H 0.64412 0.50810 -0.01802
 H228 H 0.70117 0.49463 0.04020
 N229 N 0.39980 0.84357 0.49046
 N230 N 0.36990 0.82572 0.46400
 C231 C 0.34538 0.86033 0.44685
 C232 C 0.36028 0.90220 0.46297
 C233 C 0.39459 0.89010 0.49127
 H234 H 0.34536 0.93611 0.45808
 H235 H 0.42093 0.82373 0.51010
 H236 H 0.36499 0.79031 0.45967
   
