data_POSCAR
  _audit_creation_date              2014-09-24
  _audit_creation_method            'ToBaCCo'
  _symmetry_space_group_name_H-M    'P1'
  _symmetry_Int_Tables_number       1
  _symmetry_cell_setting            triclinic
  loop_
  _symmetry_equiv_pos_as_xyz
 x,y,z
_cell_length_a 53.2205
_cell_length_b 53.1731
_cell_length_c 59.8789
_cell_angle_alpha 90.006900
_cell_angle_beta 89.865100
_cell_angle_gamma 90.209100
loop_
  _atom_site_label
  _atom_site_type_symbol
  _atom_site_fract_x
  _atom_site_fract_y
  _atom_site_fract_z
C1 C -0.06802 0.30983 -0.00017
 C2 C -0.05535 0.31381 0.02019
 C3 C -0.02894 0.31617 0.01957
 C4 C -0.01523 0.31211 -0.00025
 C5 C -0.02860 0.30669 -0.01997
 C6 C -0.05507 0.30628 -0.02047
 C7 C 0.01302 0.31253 -0.00030
 C8 C 0.02647 0.31778 -0.02009
 C9 C 0.05279 0.31631 -0.02085
 C10 C 0.06604 0.31153 -0.00109
 C11 C 0.05326 0.30722 0.01907
 C12 C 0.02686 0.30703 0.01918
 H13 H -0.08825 0.31129 -0.00038
 H14 H -0.01883 0.32002 0.03474
 H15 H -0.01832 0.30144 -0.03481
 H16 H 0.01663 0.32303 -0.03516
 H17 H 0.08636 0.31083 -0.00146
 H18 H 0.01737 0.30182 0.03448
 C19 C 0.43375 0.81155 0.49803
 C20 C 0.44608 0.81567 0.51835
 C21 C 0.47241 0.81753 0.51856
 C22 C 0.48672 0.81329 0.49902
 C23 C 0.47370 0.80820 0.47896
 C24 C 0.44733 0.80791 0.47825
 C25 C 0.51498 0.81321 0.49972
 C26 C 0.52936 0.81711 0.48015
 C27 C 0.55567 0.81514 0.48040
 C28 C 0.56794 0.81123 0.50077
 C29 C 0.55429 0.80796 0.52058
 C30 C 0.52793 0.80833 0.51983
 H31 H 0.41340 0.81128 0.49763
 H32 H 0.48154 0.82167 0.53422
 H33 H 0.48377 0.80360 0.46383
 H34 H 0.52028 0.82106 0.46444
 H35 H 0.58829 0.81088 0.50119
 H36 H 0.51778 0.80397 0.53500
 C37 C 1.06794 0.68827 0.00078
 C38 C 1.05461 0.68316 0.02070
 C39 C 1.02825 0.68098 0.01948
 C40 C 1.01510 0.68594 -0.00036
 C41 C 1.02901 0.69204 -0.01966
 C42 C 1.05551 0.69248 -0.01967
 C43 C 0.98689 0.68541 -0.00083
 C44 C 0.97388 0.68081 -0.02091
 C45 C 0.94756 0.68196 -0.02186
 C46 C 0.93392 0.68590 -0.00210
 C47 C 0.94628 0.68958 0.01830
 C48 C 0.97268 0.69003 0.01868
 H49 H 1.08814 0.68923 0.00124
 H50 H 1.01796 0.67454 0.03396
 H51 H 1.01912 0.69781 -0.03451
 H52 H 0.98406 0.67629 -0.03603
 H53 H 0.91362 0.68710 -0.00270
 H54 H 0.98196 0.69402 0.03432
 C55 C 0.56662 0.18274 0.50228
 C56 C 0.55267 0.17860 0.52182
 C57 C 0.52636 0.17722 0.52052
 C58 C 0.51364 0.18181 0.50028
 C59 C 0.52822 0.18667 0.48100
 C60 C 0.55461 0.18640 0.48174
 C61 C 0.48540 0.18214 0.49940
 C62 C 0.47254 0.17800 0.47914
 C63 C 0.44627 0.17994 0.47788
 C64 C 0.43246 0.18421 0.49747
 C65 C 0.44461 0.18747 0.51802
 C66 C 0.47099 0.18717 0.51872
 H67 H 0.58691 0.18410 0.50314
 H68 H 0.51604 0.17246 0.53550
 H69 H 0.51930 0.19072 0.46524
 H70 H 0.48271 0.17316 0.46411
 H71 H 0.41221 0.18598 0.49664
 H72 H 0.48005 0.19090 0.53449
 C73 C 0.68230 -0.06554 0.00234
 C74 C 0.67899 -0.05211 0.02245
 C75 C 0.67850 -0.02559 0.02130
 C76 C 0.68345 -0.01257 0.00122
 C77 C 0.68770 -0.02677 -0.01829
 C78 C 0.68635 -0.05310 -0.01799
 C79 C 0.68464 0.01567 0.00076
 C80 C 0.68035 0.02911 -0.01916
 C81 C 0.68302 0.05553 -0.02028
 C82 C 0.68793 0.06859 -0.00022
 C83 C 0.69148 0.05574 0.01998
 C84 C 0.69059 0.02940 0.02016
 H85 H 0.68352 -0.08584 0.00238
 H86 H 0.67342 -0.01503 0.03601
 H87 H 0.69205 -0.01753 -0.03390
 H88 H 0.67399 0.01905 -0.03376
 H89 H 0.69002 0.08880 -0.00015
 H90 H 0.69513 0.01980 0.03554
 C91 C 0.18482 0.43282 0.50252
 C92 C 0.18039 0.44650 0.52216
 C93 C 0.17886 0.47283 0.52107
 C94 C 0.18348 0.48583 0.50095
 C95 C 0.18861 0.47159 0.48158
 C96 C 0.18864 0.44518 0.48209
 C97 C 0.18371 0.51406 0.50032
 C98 C 0.17925 0.52708 0.48022
 C99 C 0.18126 0.55338 0.47906
 C100 C 0.18598 0.56705 0.49865
 C101 C 0.18962 0.55470 0.51908
 C102 C 0.18910 0.52829 0.51964
 H103 H 0.18563 0.41249 0.50317
 H104 H 0.17400 0.48299 0.53610
 H105 H 0.19335 0.48082 0.46605
 H106 H 0.17416 0.51694 0.46524
 H107 H 0.18716 0.58737 0.49795
 H108 H 0.19368 0.51903 0.53517
 C109 C 0.31366 1.06800 0.00153
 C110 C 0.31850 1.05438 0.02110
 C111 C 0.32015 1.02812 0.02003
 C112 C 0.31490 1.01502 0.00015
 C113 C 0.30930 1.02915 -0.01915
 C114 C 0.30945 1.05574 -0.01903
 C115 C 0.31428 0.98675 -0.00019
 C116 C 0.31807 0.97319 -0.02021
 C117 C 0.31551 0.94672 -0.02103
 C118 C 0.31158 0.93386 -0.00071
 C119 C 0.30836 0.94680 0.01945
 C120 C 0.30899 0.97311 0.01946
 H121 H 0.31360 1.08828 0.00257
 H122 H 0.32544 1.01807 0.03498
 H123 H 0.30329 1.01945 -0.03404
 H124 H 0.32190 0.98347 -0.03533
 H125 H 0.31193 0.91353 -0.00021
 H126 H 0.30470 0.98277 0.03488
 C127 C 0.81341 0.56917 0.50170
 C128 C 0.81801 0.55574 0.52143
 C129 C 0.82031 0.52947 0.52047
 C130 C 0.81634 0.51622 0.50039
 C131 C 0.81106 0.53019 0.48092
 C132 C 0.81021 0.55659 0.48131
 C133 C 0.81699 0.48800 0.49989
 C134 C 0.82226 0.47500 0.47991
 C135 C 0.82113 0.44865 0.47890
 C136 C 0.81639 0.43498 0.49850
 C137 C 0.81189 0.44734 0.51880
 C138 C 0.81162 0.47376 0.51923
 H139 H 0.81200 0.58947 0.50227
 H140 H 0.82528 0.51953 0.53557
 H141 H 0.80683 0.52071 0.46540
 H142 H 0.82730 0.48520 0.46493
 H143 H 0.81584 0.41464 0.49790
 H144 H 0.80643 0.48298 0.53465
 O145 O 0.24917 0.21208 0.23547
 O146 O 0.22590 0.25758 0.27715
 O147 O 0.21374 0.24556 0.23604
 O148 O 0.26022 0.22304 0.27660
 O149 O 0.28747 0.25131 0.26454
 O150 O 0.24096 0.27357 0.22347
 O151 O 0.25296 0.28575 0.26459
 O152 O 0.27649 0.24027 0.22340
 Cu153 Cu 0.23445 0.23182 0.25754
 Cu154 Cu 0.26712 0.26563 0.24278
 C155 C 0.26686 0.21843 0.22230
 C156 C 0.23577 0.27936 0.27822
 C157 C 0.21950 0.26305 0.22251
 C158 C 0.28176 0.23331 0.27760
 O159 O 0.75084 0.78947 0.23468
 O160 O 0.77346 0.74358 0.27618
 O161 O 0.78576 0.75542 0.23500
 O162 O 0.73950 0.77848 0.27575
 O163 O 0.71191 0.75059 0.26367
 O164 O 0.75820 0.72774 0.22254
 O165 O 0.74603 0.71579 0.26371
 O166 O 0.72320 0.76164 0.22260
 Cu167 Cu 0.76524 0.76944 0.25661
 Cu168 Cu 0.73216 0.73607 0.24190
 C169 C 0.73307 0.78339 0.22157
 C170 C 0.76329 0.72194 0.27728
 C171 C 0.77980 0.73797 0.22151
 C172 C 0.71781 0.76849 0.27675
 O173 O 0.75321 0.28725 0.26703
 O174 O 0.73028 0.24130 0.22563
 O175 O 0.71805 0.25321 0.26674
 O176 O 0.76445 0.27621 0.22599
 O177 O 0.79187 0.24837 0.23808
 O178 O 0.74541 0.22558 0.27927
 O179 O 0.75753 0.21354 0.23814
 O180 O 0.78067 0.25948 0.27915
 Cu181 Cu 0.73867 0.26719 0.24513
 Cu182 Cu 0.77153 0.23388 0.25990
 C183 C 0.77094 0.28122 0.28014
 C184 C 0.74030 0.21966 0.22457
 C185 C 0.72387 0.23578 0.28025
 C186 C 0.78607 0.26624 0.22499
 O187 O 0.21125 0.74986 0.23531
 O188 O 0.25826 0.77216 0.27606
 O189 O 0.24561 0.78469 0.23537
 O190 O 0.22272 0.73856 0.27630
 O191 O 0.24999 0.71076 0.26375
 O192 O 0.27257 0.75695 0.22224
 O193 O 0.28538 0.74457 0.26293
 O194 O 0.23842 0.72196 0.22278
 Cu195 Cu 0.23179 0.76415 0.25704
 Cu196 Cu 0.26436 0.73083 0.24165
 C197 C 0.21686 0.73205 0.22205
 C198 C 0.27982 0.76195 0.27659
 C199 C 0.26271 0.77868 0.22158
 C200 C 0.23244 0.71682 0.27714
 O201 O 0.75160 0.21053 0.76326
 O202 O 0.77385 0.25648 0.72135
 O203 O 0.78672 0.24456 0.76224
 O204 O 0.73982 0.22135 0.72223
 O205 O 0.71252 0.24919 0.73464
 O206 O 0.75946 0.27212 0.77517
 O207 O 0.74674 0.28419 0.73429
 O208 O 0.72421 0.23829 0.77566
 Cu209 Cu 0.76579 0.23052 0.74100
 Cu210 Cu 0.73306 0.26379 0.75619
 C211 C 0.73407 0.21661 0.77666
 C212 C 0.76383 0.27813 0.72049
 C213 C 0.78104 0.26198 0.77583
 C214 C 0.71819 0.23130 0.72149
 O215 O 0.28779 0.75321 0.73431
 O216 O 0.24129 0.73068 0.77551
 O217 O 0.25368 0.71813 0.73455
 O218 O 0.27621 0.76489 0.77511
 O219 O 0.24861 0.79227 0.76255
 O220 O 0.22629 0.74547 0.72158
 O221 O 0.21377 0.75790 0.76256
 O222 O 0.26026 0.78065 0.72173
 Cu223 Cu 0.26741 0.73889 0.75614
 Cu224 Cu 0.23438 0.77172 0.74083
 C225 C 0.28197 0.77086 0.72100
 C226 C 0.21968 0.74074 0.77632
 C227 C 0.23648 0.72389 0.72083
 C228 C 0.26632 0.78657 0.77581
 O229 O 0.25028 0.28799 0.73544
 O230 O 0.27352 0.24187 0.77645
 O231 O 0.28517 0.25393 0.73522
 O232 O 0.23976 0.27695 0.77671
 O233 O 0.21187 0.24920 0.76495
 O234 O 0.25731 0.22641 0.72302
 O235 O 0.24580 0.21422 0.76424
 O236 O 0.22234 0.26029 0.72369
 Cu237 Cu 0.26505 0.26788 0.75714
 Cu238 Cu 0.23161 0.23468 0.74278
 C239 C 0.23228 0.28199 0.72255
 C240 C 0.26333 0.22025 0.77757
 C241 C 0.27893 0.23657 0.72175
 C242 C 0.21808 0.26701 0.77801
 O243 O 0.72535 0.75763 0.77890
 O244 O 0.74812 0.71216 0.73700
 O245 O 0.75955 0.72295 0.77811
 O246 O 0.71281 0.74575 0.73795
 O247 O 0.74000 0.77372 0.72527
 O248 O 0.78680 0.75116 0.76591
 O249 O 0.77543 0.74031 0.72481
 O250 O 0.75241 0.78573 0.76622
 Cu251 Cu 0.73367 0.73186 0.75923
 Cu252 Cu 0.76633 0.76561 0.74432
 C253 C 0.73524 0.77941 0.77987
 C254 C 0.76570 0.71851 0.72371
 C255 C 0.78113 0.73315 0.77897
 C256 C 0.71847 0.76333 0.72449
 C257 C 0.33146 0.10428 0.06505
 C258 C 0.31793 0.09470 0.08325
 C259 C 0.30618 0.07121 0.08160
 C260 C 0.30725 0.05768 0.06163
 C261 C 0.32007 0.06751 0.04297
 C262 C 0.33258 0.09076 0.04503
 C263 C 0.31441 0.10972 0.10300
 C264 C 0.31046 0.12250 0.11925
 C265 C 0.30486 0.13773 0.13790
 C266 C 0.29941 0.15102 0.15347
 C267 C 0.29226 0.16728 0.17160
 C268 C 0.27316 0.16001 0.18638
 C269 C 0.26513 0.17646 0.20315
 C270 C 0.27610 0.20046 0.20529
 C271 C 0.29558 0.20741 0.19056
 C272 C 0.30356 0.19093 0.17383
 H273 H 0.34060 0.12248 0.06614
 H274 H 0.29550 0.06369 0.09553
 H275 H 0.29714 0.04002 0.06049
 H276 H 0.34285 0.09867 0.03105
 H277 H 0.26420 0.14177 0.18473
 H278 H 0.25011 0.17053 0.21420
 H279 H 0.30443 0.22573 0.19176
 H280 H 0.31830 0.19679 0.16243
 C281 C 0.82907 0.60605 0.56539
 C282 C 0.81585 0.59602 0.58358
 C283 C 0.80471 0.57224 0.58187
 C284 C 0.80617 0.55880 0.56186
 C285 C 0.81878 0.56901 0.54325
 C286 C 0.83057 0.59263 0.54534
 C287 C 0.81217 0.61077 0.60345
 C288 C 0.80820 0.62334 0.61982
 C289 C 0.80267 0.63834 0.63861
 C290 C 0.79735 0.65147 0.65431
 C291 C 0.79042 0.66760 0.67259
 C292 C 0.77137 0.66033 0.68742
 C293 C 0.76357 0.67669 0.70434
 C294 C 0.77472 0.70060 0.70657
 C295 C 0.79415 0.70754 0.69180
 C296 C 0.80191 0.69115 0.67492
 H297 H 0.83773 0.62448 0.56653
 H298 H 0.79428 0.56438 0.59579
 H299 H 0.79659 0.54085 0.56070
 H300 H 0.84064 0.60085 0.53139
 H301 H 0.76228 0.64217 0.68570
 H302 H 0.74857 0.67078 0.71543
 H303 H 0.80314 0.72579 0.69307
 H304 H 0.81661 0.69701 0.66348
 C305 C 0.68726 0.93334 0.08325
 C306 C 0.68018 0.90804 0.08395
 C307 C 0.67079 0.89645 0.06476
 C308 C 0.66939 0.90978 0.04470
 C309 C 0.67756 0.93510 0.04331
 C310 C 0.68586 0.94680 0.06324
 C311 C 0.68436 0.89343 0.10382
 C312 C 0.68874 0.88077 0.12004
 C313 C 0.69472 0.86548 0.13852
 C314 C 0.70039 0.85201 0.15387
 C315 C 0.70769 0.83541 0.17167
 C316 C 0.69625 0.81180 0.17376
 C317 C 0.70428 0.79501 0.19019
 C318 C 0.72394 0.80161 0.20476
 C319 C 0.73509 0.82555 0.20275
 C320 C 0.72702 0.84231 0.18628
 H321 H 0.69474 0.94245 0.09800
 H322 H 0.66501 0.87689 0.06517
 H323 H 0.66160 0.90008 0.03042
 H324 H 0.69303 0.96585 0.06334
 H325 H 0.68134 0.80623 0.16248
 H326 H 0.69528 0.77676 0.19129
 H327 H 0.75026 0.83120 0.21370
 H328 H 0.73609 0.86051 0.18474
 C329 C 0.19302 0.42990 0.58261
 C330 C 0.18135 0.40637 0.58437
 C331 C 0.16789 0.39665 0.56624
 C332 C 0.16672 0.41008 0.54619
 C333 C 0.17909 0.43339 0.54403
 C334 C 0.19189 0.44334 0.56260
 C335 C 0.18488 0.39146 0.60414
 C336 C 0.18880 0.37872 0.62039
 C337 C 0.19437 0.36348 0.63900
 C338 C 0.19978 0.35014 0.65451
 C339 C 0.20688 0.33376 0.67251
 C340 C 0.19519 0.31031 0.67489
 C341 C 0.20318 0.29364 0.69143
 C342 C 0.22304 0.30020 0.70580
 C343 C 0.23438 0.32401 0.70354
 C344 C 0.22636 0.34066 0.68696
 H345 H 0.20366 0.43750 0.59648
 H346 H 0.15883 0.37841 0.56742
 H347 H 0.15648 0.40207 0.53228
 H348 H 0.20192 0.46105 0.56138
 H349 H 0.18017 0.30474 0.66373
 H350 H 0.19402 0.27547 0.69273
 H351 H 0.24971 0.32962 0.71433
 H352 H 0.23561 0.35873 0.68519
 C353 C 0.92775 0.32580 0.08033
 C354 C 0.90523 0.31236 0.08211
 C355 C 0.89531 0.30039 0.06335
 C356 C 0.90798 0.30138 0.04296
 C357 C 0.93110 0.31443 0.04075
 C358 C 0.94057 0.32689 0.05990
 C359 C 0.89244 0.30990 0.10318
 C360 C 0.88100 0.30675 0.12035
 C361 C 0.86681 0.30200 0.13983
 C362 C 0.85401 0.29720 0.15591
 C363 C 0.83794 0.29076 0.17441
 C364 C 0.81478 0.30279 0.17693
 C365 C 0.79812 0.29515 0.19369
 C366 C 0.80439 0.27528 0.20814
 C367 C 0.82796 0.26365 0.20579
 C368 C 0.84460 0.27133 0.18899
 H369 H 0.93549 0.33534 0.09476
 H370 H 0.87797 0.28973 0.06459
 H371 H 0.90009 0.29056 0.02937
 H372 H 0.95754 0.33809 0.05925
 H373 H 0.80938 0.31775 0.16565
 H374 H 0.78015 0.30452 0.19506
 H375 H 0.83335 0.24831 0.21665
 H376 H 0.86243 0.26178 0.18708
 C377 C 0.39863 0.79801 0.56288
 C378 C 0.40464 0.81480 0.58003
 C379 C 0.42393 0.83246 0.57695
 C380 C 0.43730 0.83314 0.55677
 C381 C 0.43145 0.81615 0.53949
 C382 C 0.41191 0.79864 0.54279
 C383 C 0.39107 0.81322 0.60078
 C384 C 0.37902 0.81063 0.61769
 C385 C 0.36420 0.80633 0.63687
 C386 C 0.35096 0.80175 0.65272
 C387 C 0.33451 0.79537 0.67097
 C388 C 0.34119 0.77638 0.68598
 C389 C 0.32430 0.76869 0.70256
 C390 C 0.30045 0.77987 0.70427
 C391 C 0.29413 0.79931 0.68937
 C392 C 0.31105 0.80696 0.67282
 H393 H 0.38382 0.78419 0.56512
 H394 H 0.42871 0.84556 0.59014
 H395 H 0.45212 0.84694 0.55466
 H396 H 0.40727 0.78499 0.53002
 H397 H 0.35925 0.76717 0.68459
 H398 H 0.32974 0.75370 0.71377
 H399 H 0.27594 0.80833 0.69025
 H400 H 0.30563 0.82157 0.66120
 C401 C 0.10576 0.67501 0.06313
 C402 C 0.09362 0.68301 0.08256
 C403 C 0.06817 0.68921 0.08187
 C404 C 0.05506 0.68829 0.06169
 C405 C 0.06726 0.68135 0.04157
 C406 C 0.09278 0.67408 0.04289
 C407 C 0.10775 0.68662 0.10276
 C408 C 0.12000 0.69053 0.11931
 C409 C 0.13486 0.69594 0.13819
 C410 C 0.14807 0.70112 0.15386
 C411 C 0.16449 0.70781 0.17197
 C412 C 0.15804 0.72729 0.18661
 C413 C 0.17485 0.73492 0.20323
 C414 C 0.19838 0.72318 0.20534
 C415 C 0.20447 0.70331 0.19079
 C416 C 0.18764 0.69572 0.17422
 H417 H 0.12544 0.66991 0.06353
 H418 H 0.05862 0.69563 0.09682
 H419 H 0.03582 0.69475 0.06186
 H420 H 0.10291 0.66727 0.02845
 H421 H 0.14020 0.73686 0.18494
 H422 H 0.16961 0.75027 0.21416
 H423 H 0.22240 0.69385 0.19197
 H424 H 0.19287 0.68069 0.16292
 C425 C 0.60201 0.16660 0.56622
 C426 C 0.59231 0.18035 0.58420
 C427 C 0.56890 0.19201 0.58226
 C428 C 0.55556 0.19059 0.56223
 C429 C 0.56553 0.17752 0.54380
 C430 C 0.58870 0.16515 0.54615
 C431 C 0.60717 0.18416 0.60396
 C432 C 0.61995 0.18824 0.62016
 C433 C 0.63533 0.19388 0.63866
 C434 C 0.64887 0.19929 0.65406
 C435 C 0.66554 0.20630 0.67191
 C436 C 0.65903 0.22571 0.68659
 C437 C 0.67596 0.23360 0.70302
 C438 C 0.69967 0.22219 0.70491
 C439 C 0.70585 0.20240 0.69030
 C440 C 0.68890 0.19455 0.67391
 H441 H 0.62015 0.15754 0.56753
 H442 H 0.56130 0.20286 0.59601
 H443 H 0.53796 0.20062 0.56086
 H444 H 0.59672 0.15472 0.53234
 H445 H 0.64103 0.23501 0.68512
 H446 H 0.67063 0.24888 0.71399
 H447 H 0.72393 0.19320 0.69130
 H448 H 0.69417 0.17958 0.66258
 C449 C 0.69004 0.06949 0.91862
 C450 C 0.68470 0.09517 0.91805
 C451 C 0.67708 0.10741 0.93755
 C452 C 0.67562 0.09426 0.95772
 C453 C 0.68192 0.06845 0.95891
 C454 C 0.68857 0.05622 0.93873
 C455 C 0.68862 0.10933 0.89785
 C456 C 0.69270 0.12154 0.88126
 C457 C 0.69822 0.13628 0.86227
 C458 C 0.70344 0.14931 0.84643
 C459 C 0.71012 0.16544 0.82804
 C460 C 0.69834 0.18875 0.82564
 C461 C 0.70584 0.20520 0.80867
 C462 C 0.72530 0.19857 0.79386
 C463 C 0.73674 0.17489 0.79616
 C464 C 0.72920 0.15846 0.81317
 H465 H 0.69615 0.05985 0.90362
 H466 H 0.67265 0.12728 0.93725
 H467 H 0.66914 0.10451 0.97221
 H468 H 0.69435 0.03674 0.93845
 H469 H 0.68362 0.19439 0.83710
 H470 H 0.69663 0.22327 0.80737
 H471 H 0.75177 0.16922 0.78505
 H472 H 0.73852 0.14049 0.81494
 C473 C 0.16943 0.60317 0.43490
 C474 C 0.18261 0.59321 0.41670
 C475 C 0.19392 0.56960 0.41846
 C476 C 0.19268 0.55627 0.43853
 C477 C 0.18014 0.56644 0.45717
 C478 C 0.16815 0.58985 0.45502
 C479 C 0.18617 0.60794 0.39679
 C480 C 0.19008 0.62052 0.38041
 C481 C 0.19556 0.63560 0.36163
 C482 C 0.20086 0.64884 0.34598
 C483 C 0.20775 0.66516 0.32780
 C484 C 0.22685 0.65821 0.31294
 C485 C 0.23464 0.67482 0.29617
 C486 C 0.22344 0.69863 0.29411
 C487 C 0.20396 0.70524 0.30890
 C488 C 0.19620 0.68862 0.32563
 H489 H 0.16065 0.62147 0.43372
 H490 H 0.20433 0.56181 0.40453
 H491 H 0.20242 0.53848 0.43974
 H492 H 0.15813 0.59803 0.46898
 H493 H 0.23599 0.64013 0.31455
 H494 H 0.24968 0.66917 0.28505
 H495 H 0.19492 0.72341 0.30776
 H496 H 0.18147 0.69422 0.33710
 C497 C 0.30135 0.89773 0.93577
 C498 C 0.31316 0.90771 0.91692
 C499 C 0.32662 0.93023 0.91861
 C500 C 0.32794 0.94296 0.93906
 C501 C 0.31573 0.93337 0.95833
 C502 C 0.30258 0.91029 0.95617
 C503 C 0.31055 0.89488 0.89589
 C504 C 0.30728 0.88329 0.87885
 C505 C 0.30237 0.86882 0.85959
 C506 C 0.29746 0.85573 0.84375
 C507 C 0.29090 0.83928 0.82558
 C508 C 0.27158 0.84578 0.81087
 C509 C 0.26384 0.82884 0.79437
 C510 C 0.27530 0.80512 0.79245
 C511 C 0.29504 0.79899 0.80705
 C512 C 0.30274 0.81595 0.82350
 H513 H 0.29066 0.88039 0.93460
 H514 H 0.33603 0.93803 0.90410
 H515 H 0.33917 0.95992 0.93963
 H516 H 0.29187 0.90232 0.96982
 H517 H 0.26217 0.86373 0.81243
 H518 H 0.24861 0.83413 0.78339
 H519 H 0.30428 0.78092 0.80601
 H520 H 0.31761 0.81067 0.83489
 C521 C 0.83502 0.39862 0.43541
 C522 C 0.82168 0.40784 0.41705
 C523 C 0.80977 0.43120 0.41843
 C524 C 0.81049 0.44493 0.43831
 C525 C 0.82308 0.43542 0.45712
 C526 C 0.83577 0.41233 0.45533
 C527 C 0.81839 0.39251 0.39748
 C528 C 0.81459 0.37940 0.38143
 C529 C 0.80909 0.36375 0.36305
 C530 C 0.80367 0.35009 0.34774
 C531 C 0.79647 0.33342 0.32993
 C532 C 0.77733 0.34030 0.31517
 C533 C 0.76924 0.32347 0.29873
 C534 C 0.78016 0.29950 0.29690
 C535 C 0.79965 0.29292 0.31162
 C536 C 0.80771 0.30978 0.32803
 H537 H 0.84425 0.38052 0.43453
 H538 H 0.79923 0.43842 0.40438
 H539 H 0.80023 0.46245 0.43925
 H540 H 0.84586 0.40468 0.46944
 H541 H 0.76843 0.35852 0.31658
 H542 H 0.75421 0.32910 0.28766
 H543 H 0.80847 0.27463 0.31065
 H544 H 0.82245 0.30423 0.33944
 C545 C 0.10351 0.32936 0.93590
 C546 C 0.09407 0.31626 0.91743
 C547 C 0.07047 0.30468 0.91871
 C548 C 0.05667 0.30553 0.93856
 C549 C 0.06632 0.31796 0.95746
 C550 C 0.08972 0.33025 0.95580
 C551 C 0.10928 0.31303 0.89775
 C552 C 0.12216 0.30932 0.88152
 C553 C 0.13746 0.30398 0.86285
 C554 C 0.15077 0.29873 0.84723
 C555 C 0.16700 0.29179 0.82902
 C556 C 0.15987 0.27260 0.81432
 C557 C 0.17630 0.26477 0.79745
 C558 C 0.20013 0.27603 0.79513
 C559 C 0.20695 0.29560 0.80978
 C560 C 0.19049 0.30338 0.82662
 H561 H 0.12179 0.33835 0.93509
 H562 H 0.06307 0.29434 0.90458
 H563 H 0.03891 0.29556 0.93939
 H564 H 0.09751 0.34020 0.96997
 H565 H 0.14176 0.26342 0.81609
 H566 H 0.17049 0.24968 0.78645
 H567 H 0.22514 0.30467 0.80845
 H568 H 0.19624 0.31818 0.83797
 C569 C 0.57785 0.83107 0.42159
 C570 C 0.59693 0.81329 0.41863
 C571 C 0.60285 0.79675 0.43596
 C572 C 0.58966 0.79771 0.45608
 C573 C 0.57030 0.81532 0.45925
 C574 C 0.56458 0.83208 0.44180
 C575 C 0.61034 0.81136 0.39782
 C576 C 0.62219 0.80856 0.38084
 C577 C 0.63674 0.80408 0.36153
 C578 C 0.64973 0.79942 0.34557
 C579 C 0.66591 0.79301 0.32716
 C580 C 0.68925 0.80491 0.32485
 C581 C 0.70594 0.79727 0.30816
 C582 C 0.69951 0.77754 0.29355
 C583 C 0.67577 0.76604 0.29570
 C584 C 0.65910 0.77372 0.31244
 H585 H 0.57314 0.84398 0.40827
 H586 H 0.61750 0.78284 0.43381
 H587 H 0.59421 0.78423 0.46900
 H588 H 0.54991 0.84596 0.44380
 H589 H 0.69476 0.81976 0.33625
 H590 H 0.72405 0.80653 0.30694
 H591 H 0.67025 0.75081 0.28473
 H592 H 0.64113 0.76428 0.31417
 C593 C 0.93055 0.69519 0.91788
 C594 C 0.90714 0.68332 0.91617
 C595 C 0.89763 0.66956 0.93426
 C596 C 0.91117 0.66828 0.95422
 C597 C 0.93436 0.68084 0.95633
 C598 C 0.94410 0.69395 0.93779
 C599 C 0.89211 0.68690 0.89650
 C600 C 0.87924 0.69081 0.88035
 C601 C 0.86382 0.69630 0.86187
 C602 C 0.85029 0.70160 0.84648
 C603 C 0.83365 0.70851 0.82862
 C604 C 0.81033 0.69653 0.82653
 C605 C 0.79342 0.70428 0.81012
 C606 C 0.79960 0.72418 0.79559
 C607 C 0.82327 0.73583 0.79758
 C608 C 0.84017 0.72804 0.81402
 H609 H 0.93799 0.70606 0.90403
 H610 H 0.87949 0.66034 0.93313
 H611 H 0.90332 0.65782 0.96811
 H612 H 0.96171 0.70413 0.93898
 H613 H 0.80506 0.68146 0.83780
 H614 H 0.77537 0.69490 0.80903
 H615 H 0.82860 0.75119 0.78667
 H616 H 0.85814 0.73751 0.81558
 C617 C 0.39659 0.16897 0.43349
 C618 C 0.40661 0.18260 0.41554
 C619 C 0.43029 0.19387 0.41749
 C620 C 0.44360 0.19217 0.43752
 C621 C 0.43334 0.17921 0.45592
 C622 C 0.40987 0.16724 0.45356
 C623 C 0.39186 0.18661 0.39576
 C624 C 0.37918 0.19080 0.37954
 C625 C 0.36393 0.19651 0.36099
 C626 C 0.35051 0.20191 0.34554
 C627 C 0.33396 0.20885 0.32762
 C628 C 0.34052 0.22843 0.31308
 C629 C 0.32373 0.23617 0.29652
 C630 C 0.30012 0.22443 0.29436
 C631 C 0.29389 0.20450 0.30885
 C632 C 0.31070 0.19680 0.32536
 H633 H 0.37824 0.16021 0.43217
 H634 H 0.43815 0.20462 0.40376
 H635 H 0.46145 0.20189 0.43890
 H636 H 0.40162 0.15691 0.46734
 H637 H 0.35844 0.23796 0.31474
 H638 H 0.32909 0.25156 0.28565
 H639 H 0.27589 0.19505 0.30764
 H640 H 0.30539 0.18169 0.33658
 C641 C 0.67693 0.89724 0.93730
 C642 C 0.69578 0.90355 0.92196
 C643 C 0.71147 0.92422 0.92608
 C644 C 0.70839 0.93847 0.94553
 C645 C 0.68958 0.93215 0.96113
 C646 C 0.67383 0.91143 0.95675
 C647 C 0.69933 0.88843 0.90227
 C648 C 0.70241 0.87545 0.88598
 C649 C 0.70627 0.85996 0.86716
 C650 C 0.70994 0.84652 0.85127
 C651 C 0.71494 0.83029 0.83255
 C652 C 0.73223 0.83771 0.81617
 C653 C 0.73835 0.82139 0.79872
 C654 C 0.72728 0.79735 0.79742
 C655 C 0.70950 0.79026 0.81370
 C656 C 0.70341 0.80664 0.83117
 H657 H 0.66468 0.88128 0.93428
 H658 H 0.72621 0.92919 0.91436
 H659 H 0.72100 0.95412 0.94857
 H660 H 0.65900 0.90630 0.96831
 H661 H 0.74130 0.85595 0.81711
 H662 H 0.75211 0.82743 0.78647
 H663 H 0.70068 0.77189 0.81320
 H664 H 0.69005 0.80069 0.84379
 C665 C 0.21123 0.39467 0.44198
 C666 C 0.19924 0.40175 0.42218
 C667 C 0.18425 0.42332 0.42184
 C668 C 0.18107 0.43761 0.44124
 C669 C 0.19282 0.43049 0.46129
 C670 C 0.20807 0.40892 0.46140
 C671 C 0.20219 0.38672 0.40234
 C672 C 0.20480 0.37392 0.38587
 C673 C 0.20818 0.35869 0.36677
 C674 C 0.21148 0.34553 0.35063
 C675 C 0.21608 0.32962 0.33159
 C676 C 0.23314 0.33725 0.31510
 C677 C 0.23899 0.32118 0.29737
 C678 C 0.22787 0.29717 0.29591
 C679 C 0.21025 0.28991 0.31227
 C680 C 0.20444 0.30603 0.33001
 H681 H 0.22297 0.37807 0.44242
 H682 H 0.17485 0.42896 0.40662
 H683 H 0.16900 0.45396 0.44069
 H684 H 0.21766 0.40314 0.47647
 H685 H 0.24230 0.35544 0.31617
 H686 H 0.25263 0.32736 0.28508
 H687 H 0.20140 0.27156 0.31167
 H688 H 0.19124 0.29991 0.34271
 C689 C 0.30847 0.07347 0.92027
 C690 C 0.29911 0.09795 0.92129
 C691 C 0.29255 0.10829 0.94192
 C692 C 0.29560 0.09440 0.96153
 C693 C 0.30537 0.06967 0.96098
 C694 C 0.31153 0.05944 0.93983
 C695 C 0.29635 0.11261 0.90124
 C696 C 0.29389 0.12521 0.88466
 C697 C 0.29068 0.14030 0.86549
 C698 C 0.28751 0.15345 0.84934
 C699 C 0.28302 0.16941 0.83036
 C700 C 0.26561 0.16212 0.81411
 C701 C 0.25977 0.17837 0.79655
 C702 C 0.27125 0.20220 0.79501
 C703 C 0.28923 0.20910 0.81111
 C704 C 0.29503 0.19280 0.82868
 H705 H 0.31374 0.06531 0.90436
 H706 H 0.28498 0.12716 0.94287
 H707 H 0.28937 0.10301 0.97691
 H708 H 0.31988 0.04102 0.93821
 H709 H 0.25615 0.14409 0.81528
 H710 H 0.24584 0.17247 0.78445
 H711 H 0.29837 0.22731 0.81043
 H712 H 0.30850 0.19866 0.84121
 C713 C 0.78672 0.60624 0.44086
 C714 C 0.79920 0.59943 0.42117
 C715 C 0.81479 0.57829 0.42100
 C716 C 0.81810 0.56416 0.44047
 C717 C 0.80588 0.57104 0.46042
 C718 C 0.79001 0.59216 0.46035
 C719 C 0.79619 0.61435 0.40128
 C720 C 0.79354 0.62710 0.38479
 C721 C 0.79017 0.64229 0.36569
 C722 C 0.78691 0.65547 0.34956
 C723 C 0.78241 0.67143 0.33055
 C724 C 0.79443 0.69482 0.32884
 C725 C 0.78878 0.71101 0.31114
 C726 C 0.77096 0.70402 0.29494
 C727 C 0.75943 0.68021 0.29653
 C728 C 0.76512 0.66407 0.31423
 H729 H 0.77453 0.62251 0.44117
 H730 H 0.82458 0.57286 0.40587
 H731 H 0.83064 0.54817 0.44006
 H732 H 0.78006 0.59772 0.47533
 H733 H 0.80782 0.70073 0.34141
 H734 H 0.79796 0.72921 0.31043
 H735 H 0.74561 0.67425 0.28437
 H736 H 0.75566 0.64603 0.31540
 C737 C 0.10733 0.71143 0.94096
 C738 C 0.09713 0.70447 0.92040
 C739 C 0.07295 0.69422 0.91953
 C740 C 0.05910 0.69065 0.93916
 C741 C 0.06923 0.69714 0.96026
 C742 C 0.09362 0.70786 0.96065
 C743 C 0.11167 0.70766 0.90027
 C744 C 0.12420 0.71041 0.88364
 C745 C 0.13927 0.71386 0.86443
 C746 C 0.15245 0.71713 0.84828
 C747 C 0.16854 0.72160 0.82930
 C748 C 0.19182 0.70955 0.82773
 C749 C 0.20821 0.71520 0.81012
 C750 C 0.20153 0.73307 0.79386
 C751 C 0.17781 0.74462 0.79530
 C752 C 0.16147 0.73893 0.81292
 H753 H 0.12594 0.71969 0.94181
 H754 H 0.06490 0.68864 0.90367
 H755 H 0.04094 0.68162 0.93767
 H756 H 0.10208 0.71445 0.97597
 H757 H 0.19751 0.69614 0.84035
 H758 H 0.22632 0.70601 0.80952
 H759 H 0.17209 0.75847 0.78309
 H760 H 0.14352 0.74841 0.81399
 C761 C 0.57759 0.21174 0.42591
 C762 C 0.59881 0.19681 0.42218
 C763 C 0.60549 0.17850 0.43783
 C764 C 0.59109 0.17515 0.45715
 C765 C 0.56976 0.19009 0.46111
 C766 C 0.56313 0.20841 0.44524
 C767 C 0.61400 0.20048 0.40251
 C768 C 0.62702 0.20359 0.38622
 C769 C 0.64255 0.20744 0.36738
 C770 C 0.65604 0.21104 0.35148
 C771 C 0.67239 0.21590 0.33276
 C772 C 0.69570 0.20391 0.33122
 C773 C 0.71224 0.20985 0.31378
 C774 C 0.70566 0.22793 0.29768
 C775 C 0.68193 0.23944 0.29911
 C776 C 0.66545 0.23347 0.31654
 H777 H 0.57231 0.22606 0.41395
 H778 H 0.62186 0.16683 0.43512
 H779 H 0.59648 0.16069 0.46892
 H780 H 0.54701 0.22041 0.44794
 H781 H 0.70129 0.19031 0.34371
 H782 H 0.73036 0.20067 0.31319
 H783 H 0.67628 0.25344 0.28701
 H784 H 0.64747 0.24290 0.31758
 C785 C 0.92874 0.30648 0.91848
 C786 C 0.90437 0.29664 0.91890
 C787 C 0.89367 0.28933 0.93921
 C788 C 0.90706 0.29215 0.95909
 C789 C 0.93163 0.30247 0.95917
 C790 C 0.94228 0.30931 0.93833
 C791 C 0.89009 0.29415 0.89861
 C792 C 0.87762 0.29188 0.88194
 C793 C 0.86249 0.28884 0.86278
 C794 C 0.84919 0.28579 0.84672
 C795 C 0.83293 0.28145 0.82792
 C796 C 0.80961 0.29347 0.82669
 C797 C 0.79297 0.28774 0.80934
 C798 C 0.79944 0.26982 0.79303
 C799 C 0.82320 0.25834 0.79410
 C800 C 0.83979 0.26411 0.81144
 H801 H 0.93718 0.31231 0.90282
 H802 H 0.87490 0.28138 0.93970
 H803 H 0.89821 0.28539 0.97422
 H804 H 0.96064 0.31802 0.93721
 H805 H 0.80406 0.30686 0.83940
 H806 H 0.77482 0.29688 0.80902
 H807 H 0.82878 0.24447 0.78183
 H808 H 0.85776 0.25464 0.81226
 C809 C 0.39887 0.78494 0.43655
 C810 C 0.40645 0.79748 0.41712
 C811 C 0.42796 0.81271 0.41741
 C812 C 0.44162 0.81570 0.43719
 C813 C 0.43383 0.80356 0.45692
 C814 C 0.41245 0.78793 0.45631
 C815 C 0.39170 0.79504 0.39712
 C816 C 0.37877 0.79273 0.38073
 C817 C 0.36310 0.78958 0.36195
 C818 C 0.34936 0.78637 0.34623
 C819 C 0.33263 0.78178 0.32781
 C820 C 0.33923 0.76441 0.31129
 C821 C 0.32228 0.75845 0.29428
 C822 C 0.29843 0.76979 0.29360
 C823 C 0.29219 0.78770 0.30998
 C824 C 0.30919 0.79361 0.32699
 H825 H 0.38231 0.77303 0.43649
 H826 H 0.43398 0.82252 0.40246
 H827 H 0.45787 0.82802 0.43721
 H828 H 0.40621 0.77804 0.47114
 H829 H 0.35728 0.75508 0.31179
 H830 H 0.32769 0.74460 0.28194
 H831 H 0.27399 0.79674 0.30994
 H832 H 0.30386 0.80703 0.33976
 C833 C 0.31395 0.92573 0.07982
 C834 C 0.29854 0.90434 0.07995
 C835 C 0.28576 0.89728 0.06053
 C836 C 0.28861 0.91131 0.04097
 C837 C 0.30435 0.93263 0.04055
 C838 C 0.31682 0.93983 0.06025
 C839 C 0.29607 0.88931 0.09982
 C840 C 0.29373 0.87630 0.11618
 C841 C 0.29055 0.86066 0.13502
 C842 C 0.28732 0.84705 0.15087
 C843 C 0.28268 0.83056 0.16950
 C844 C 0.29409 0.80691 0.17041
 C845 C 0.28814 0.79020 0.18770
 C846 C 0.27061 0.79696 0.20426
 C847 C 0.25970 0.82102 0.20345
 C848 C 0.26569 0.83767 0.18618
 H849 H 0.32396 0.93134 0.09476
 H850 H 0.27370 0.88081 0.06048
 H851 H 0.27849 0.90551 0.02615
 H852 H 0.32925 0.95600 0.06037
 H853 H 0.30721 0.80119 0.15753
 H854 H 0.29684 0.77182 0.18782
 H855 H 0.24615 0.82682 0.21593
 H856 H 0.25670 0.85591 0.18560
 C857 C 0.81515 0.42536 0.57907
 C858 C 0.80043 0.40350 0.57836
 C859 C 0.78888 0.39635 0.55836
 C860 C 0.79227 0.41079 0.53907
 C861 C 0.80730 0.43261 0.53952
 C862 C 0.81854 0.43985 0.55979
 C863 C 0.79740 0.38816 0.59802
 C864 C 0.79471 0.37502 0.61428
 C865 C 0.79125 0.35935 0.63309
 C866 C 0.78789 0.34579 0.64897
 C867 C 0.78322 0.32943 0.66771
 C868 C 0.79487 0.30590 0.66892
 C869 C 0.78910 0.28940 0.68642
 C870 C 0.77151 0.29623 0.70291
 C871 C 0.76033 0.32015 0.70179
 C872 C 0.76614 0.33659 0.68430
 H873 H 0.82420 0.43106 0.59445
 H874 H 0.77737 0.37953 0.55764
 H875 H 0.78306 0.40492 0.52382
 H876 H 0.83042 0.45641 0.56060
 H877 H 0.80809 0.30014 0.65614
 H878 H 0.79801 0.27113 0.68677
 H879 H 0.74671 0.32600 0.71419
 H880 H 0.75697 0.35473 0.68351
 C881 C 0.71611 0.10461 0.06078
 C882 C 0.70349 0.09778 0.08041
 C883 C 0.68748 0.07684 0.08043
 C884 C 0.68388 0.06296 0.06086
 C885 C 0.69622 0.06989 0.04096
 C886 C 0.71253 0.09077 0.04118
 C887 C 0.70670 0.11251 0.10038
 C888 C 0.70947 0.12510 0.11694
 C889 C 0.71295 0.14015 0.13613
 C890 C 0.71627 0.15324 0.15230
 C891 C 0.72083 0.16914 0.17134
 C892 C 0.70891 0.19248 0.17309
 C893 C 0.71466 0.20867 0.19079
 C894 C 0.73250 0.20172 0.20695
 C895 C 0.74391 0.17795 0.20533
 C896 C 0.73812 0.16180 0.18763
 H897 H 0.72862 0.12073 0.06059
 H898 H 0.67758 0.07140 0.09552
 H899 H 0.67102 0.04712 0.06114
 H900 H 0.72258 0.09635 0.02623
 H901 H 0.69553 0.19837 0.16055
 H902 H 0.70557 0.22684 0.19153
 H903 H 0.75773 0.17201 0.21746
 H904 H 0.74750 0.14380 0.18642
 C905 C 0.21303 0.60520 0.55889
 C906 C 0.20084 0.59839 0.57874
 C907 C 0.18552 0.57695 0.57925
 C908 C 0.18217 0.56253 0.55994
 C909 C 0.19408 0.56941 0.53982
 C910 C 0.20970 0.59083 0.53956
 C911 C 0.20384 0.61365 0.59845
 C912 C 0.20647 0.62671 0.61476
 C913 C 0.20982 0.64229 0.63363
 C914 C 0.21306 0.65581 0.64955
 C915 C 0.21752 0.67219 0.66831
 C916 C 0.20550 0.69552 0.66962
 C917 C 0.21110 0.71211 0.68707
 C918 C 0.22889 0.70558 0.70342
 C919 C 0.24042 0.68183 0.70222
 C920 C 0.23478 0.66529 0.68478
 H921 H 0.22502 0.62171 0.55832
 H922 H 0.17596 0.57152 0.59451
 H923 H 0.16983 0.54631 0.56060
 H924 H 0.21941 0.59641 0.52444
 H925 H 0.19214 0.70108 0.65694
 H926 H 0.20193 0.73025 0.68748
 H927 H 0.25421 0.67621 0.71451
 H928 H 0.24423 0.64730 0.68391
 C929 C 0.92435 0.71460 0.07452
 C930 C 0.90313 0.69959 0.07848
 C931 C 0.89612 0.68132 0.06285
 C932 C 0.91018 0.67809 0.04333
 C933 C 0.93149 0.69312 0.03914
 C934 C 0.93847 0.71139 0.05499
 C935 C 0.88827 0.70315 0.09835
 C936 C 0.87552 0.70619 0.11480
 C937 C 0.86027 0.70995 0.13383
 C938 C 0.84699 0.71348 0.14987
 C939 C 0.83086 0.71824 0.16873
 C940 C 0.80753 0.70612 0.17044
 C941 C 0.79116 0.71199 0.18798
 C942 C 0.79790 0.73013 0.20402
 C943 C 0.82164 0.74177 0.20244
 C944 C 0.83797 0.73586 0.18490
 H945 H 0.92988 0.72889 0.08645
 H946 H 0.87974 0.66958 0.06575
 H947 H 0.90452 0.66365 0.03159
 H948 H 0.95459 0.72346 0.05212
 H949 H 0.80181 0.69249 0.15799
 H950 H 0.77302 0.70273 0.18869
 H951 H 0.82741 0.75582 0.21448
 H952 H 0.85596 0.74539 0.18372
 C953 C 0.39374 0.18007 0.56206
 C954 C 0.40103 0.19801 0.57788
 C955 C 0.42260 0.21259 0.57417
 C956 C 0.43683 0.20925 0.55472
 C957 C 0.42961 0.19127 0.53870
 C958 C 0.40791 0.17670 0.54261
 C959 C 0.38615 0.20162 0.59773
 C960 C 0.37343 0.20469 0.61419
 C961 C 0.35827 0.20847 0.63327
 C962 C 0.34511 0.21203 0.64938
 C963 C 0.32919 0.21683 0.66837
 C964 C 0.33661 0.23431 0.68455
 C965 C 0.32053 0.24022 0.70226
 C966 C 0.29673 0.22875 0.70402
 C967 C 0.28966 0.21076 0.68795
 C968 C 0.30579 0.20488 0.67023
 H969 H 0.37709 0.16866 0.56475
 H970 H 0.42835 0.22663 0.58626
 H971 H 0.45325 0.22096 0.55207
 H972 H 0.40205 0.16250 0.53073
 H973 H 0.35466 0.24371 0.68326
 H974 H 0.32655 0.25416 0.71432
 H975 H 0.27147 0.20162 0.68879
 H976 H 0.29983 0.19135 0.65777
 C977 C 0.10329 0.28479 0.05952
 C978 C 0.09582 0.29663 0.07932
 C979 C 0.07404 0.31130 0.07959
 C980 C 0.05997 0.31439 0.06009
 C981 C 0.06754 0.30287 0.04002
 C982 C 0.08927 0.28787 0.04000
 C983 C 0.11076 0.29398 0.09920
 C984 C 0.12358 0.29166 0.11566
 C985 C 0.13889 0.28866 0.13470
 C986 C 0.15219 0.28571 0.15076
 C987 C 0.16831 0.28153 0.16968
 C988 C 0.16132 0.26416 0.18612
 C989 C 0.17767 0.25870 0.20369
 C990 C 0.20132 0.27054 0.20503
 C991 C 0.20793 0.28847 0.18874
 C992 C 0.19152 0.29389 0.17116
 H993 H 0.12006 0.27330 0.05913
 H994 H 0.06810 0.32058 0.09481
 H995 H 0.04349 0.32627 0.06057
 H996 H 0.09538 0.27846 0.02491
 H997 H 0.14342 0.25444 0.18513
 H998 H 0.17200 0.24480 0.21593
 H999 H 0.22600 0.29788 0.18926
 H1000 H 0.19716 0.30734 0.15850
 C1001 C 0.60226 0.78544 0.56280
 C1002 C 0.59457 0.79812 0.58210
 C1003 C 0.57321 0.81340 0.58151
 C1004 C 0.55980 0.81625 0.56160
 C1005 C 0.56767 0.80390 0.54202
 C1006 C 0.58893 0.78828 0.54290
 C1007 C 0.60897 0.79574 0.60230
 C1008 C 0.62155 0.79349 0.61889
 C1009 C 0.63678 0.79043 0.63795
 C1010 C 0.65016 0.78734 0.65393
 C1011 C 0.66649 0.78290 0.67264
 C1012 C 0.65968 0.76531 0.68896
 C1013 C 0.67631 0.75947 0.70620
 C1014 C 0.70007 0.77114 0.70734
 C1015 C 0.70649 0.78929 0.69118
 C1016 C 0.68980 0.79508 0.67392
 H1017 H 0.61871 0.77349 0.56309
 H1018 H 0.56711 0.82333 0.59634
 H1019 H 0.54366 0.82858 0.56137
 H1020 H 0.59522 0.77823 0.52819
 H1021 H 0.64171 0.75571 0.68809
 H1022 H 0.67077 0.74543 0.71837
 H1023 H 0.72463 0.79858 0.69155
 H1024 H 0.69530 0.80867 0.66133
   
