data_POSCAR
  _audit_creation_date              2014-09-24
  _audit_creation_method            'ToBaCCo'
  _symmetry_space_group_name_H-M    'P1'
  _symmetry_Int_Tables_number       1
  _symmetry_cell_setting            triclinic
  loop_
  _symmetry_equiv_pos_as_xyz
 x,y,z
_cell_length_a 25.8472
_cell_length_b 25.8472
_cell_length_c 47.9713
_cell_angle_alpha 89.999900
_cell_angle_beta 90.000100
_cell_angle_gamma 120.004800
loop_
  _atom_site_label
  _atom_site_type_symbol
  _atom_site_fract_x
  _atom_site_fract_y
  _atom_site_fract_z
Zn1 Zn 0.96084 0.03790 1.01228
 Zn2 Zn 1.07720 0.03907 1.01229
 Zn3 Zn 0.96200 -0.07730 1.01229
 Zn4 Zn 1.00002 -0.00011 0.96174
 O5 O 1.00001 -0.00011 0.99971
 O6 O 1.00734 0.10158 1.03347
 O7 O 1.09437 -0.00742 1.03348
 O8 O 0.89833 -0.09447 1.03347
 O9 O 1.09351 0.10281 1.03331
 O10 O 0.89710 -0.00952 1.03330
 O11 O 1.00942 -0.09360 1.03331
 O12 O 0.96280 -0.07356 0.94726
 O13 O 1.13124 0.06589 0.98460
 O14 O 0.93478 -0.13134 0.98460
 O15 O 1.07346 0.03611 0.94726
 O16 O 0.96380 0.03710 0.94726
 O17 O 0.93402 0.06512 0.98460
 C18 C 1.06157 0.12489 1.04097
 C19 C 1.06344 -0.06165 1.04097
 C20 C 0.87502 -0.06354 1.04097
 C21 C 0.93724 -0.12506 0.95830
 C22 C 1.12497 0.06207 0.95830
 C23 C 0.93784 0.06266 0.95829
 Zn24 Zn 0.03919 0.96188 0.51228
 Zn25 Zn -0.07718 0.96071 0.51229
 Zn26 Zn 0.03803 1.07708 0.51229
 Zn27 Zn 0.00001 0.99990 0.46174
 O28 O 0.00001 0.99989 0.49971
 O29 O -0.00731 0.89821 0.53347
 O30 O -0.09434 1.00721 0.53348
 O31 O 0.10170 1.09425 0.53347
 O32 O -0.09349 0.89697 0.53331
 O33 O 0.10293 1.00931 0.53330
 O34 O -0.00940 1.09338 0.53331
 O35 O 0.03723 1.07334 0.44727
 O36 O -0.13122 0.93390 0.48461
 O37 O 0.06524 1.13112 0.48461
 O38 O -0.07344 0.96367 0.44727
 O39 O 0.03623 0.96268 0.44726
 O40 O 0.06600 0.93467 0.48459
 C41 C -0.06154 0.87490 0.54096
 C42 C -0.06341 1.06144 0.54097
 C43 C 0.12501 1.06333 0.54096
 C44 C 0.06278 1.12485 0.45830
 C45 C -0.12495 0.93771 0.45830
 C46 C 0.06218 0.93713 0.45829
 O47 O 0.24368 0.56270 0.27309
 O48 O 0.24619 0.66350 0.28206
 C49 C 0.27380 0.71910 0.28707
 O50 O 0.31910 0.75622 0.27308
 O51 O 0.41740 0.75372 0.28206
 C52 C 0.44538 0.72611 0.28707
 O53 O 0.43721 0.68081 0.27309
 O54 O 0.33640 0.58252 0.28206
 C55 C 0.28080 0.55453 0.28708
 O56 O 0.24618 0.58221 0.21773
 O57 O 0.24350 0.68055 0.22671
 C58 C 0.28047 0.72613 0.21282
 O59 O 0.33612 0.75372 0.21773
 O60 O 0.43715 0.75641 0.22671
 C61 C 0.44576 0.71944 0.21282
 O62 O 0.41769 0.66379 0.21773
 O63 O 0.31934 0.56275 0.22671
 C64 C 0.27377 0.55414 0.21283
 Cr65 Cr 0.24816 0.62388 0.24988
 Cr66 Cr 0.37582 0.75175 0.24988
 Cr67 Cr 0.37601 0.62409 0.24989
 O68 O 0.33333 0.66657 0.24985
 O69 O 0.75634 0.43709 0.77308
 O70 O 0.75383 0.33629 0.78206
 C71 C 0.72622 0.28069 0.78707
 O72 O 0.68092 0.24357 0.77308
 O73 O 0.58263 0.24607 0.78206
 C74 C 0.55464 0.27368 0.78707
 O75 O 0.56282 0.31897 0.77308
 O76 O 0.66362 0.41727 0.78206
 C77 C 0.71922 0.44526 0.78707
 O78 O 0.75384 0.41758 0.71773
 O79 O 0.75653 0.31923 0.72671
 C80 C 0.71956 0.27365 0.71282
 O81 O 0.66390 0.24607 0.71773
 O82 O 0.56287 0.24337 0.72671
 C83 C 0.55427 0.28034 0.71282
 O84 O 0.58234 0.33600 0.71773
 O85 O 0.68068 0.43703 0.72671
 C86 C 0.72626 0.44564 0.71283
 Cr87 Cr 0.75187 0.37590 0.74989
 Cr88 Cr 0.62420 0.24804 0.74988
 Cr89 Cr 0.62401 0.37570 0.74989
 O90 O 0.66669 0.33321 0.74985
 C91 C 0.13682 0.27848 0.09472
 C92 C 0.17186 0.25439 0.08573
 C93 C 0.14760 0.20473 0.06804
 C94 C 0.08783 0.17844 0.05913
 C95 C 0.05313 0.20337 0.06811
 C96 C 0.07751 0.25302 0.08580
 C97 C 0.16126 0.32828 0.11371
 C98 C 0.18165 0.36935 0.12997
 C99 C 0.20598 0.41750 0.14985
 C100 C 0.25828 0.43123 0.16434
 C101 C 0.28079 0.47625 0.18452
 C102 C 0.25120 0.50822 0.19054
 C103 C 0.19907 0.49464 0.17555
 C104 C 0.17662 0.44952 0.15537
 H105 H 0.21780 0.27367 0.09257
 H106 H 0.17554 0.18670 0.06153
 H107 H 0.00700 0.18426 0.06165
 H108 H 0.04995 0.27124 0.09269
 H109 H 0.28132 0.40668 0.16026
 H110 H 0.32104 0.48553 0.19560
 H111 H 0.17518 0.51833 0.17964
 H112 H 0.13603 0.43917 0.14429
 C113 C 0.72142 0.85813 0.09472
 C114 C 0.74552 0.91726 0.08572
 C115 C 0.79518 0.94265 0.06804
 C116 C 0.82147 0.90916 0.05913
 C117 C 0.79653 0.84954 0.06812
 C118 C 0.74688 0.82427 0.08580
 C119 C 0.67163 0.83277 0.11370
 C120 C 0.63056 0.81211 0.12997
 C121 C 0.58240 0.78828 0.14985
 C122 C 0.56868 0.82686 0.16434
 C123 C 0.52366 0.80436 0.18452
 C124 C 0.49168 0.74280 0.19054
 C125 C 0.50525 0.70423 0.17555
 C126 C 0.55037 0.72690 0.15537
 H127 H 0.72624 0.94391 0.09256
 H128 H 0.81321 0.98862 0.06152
 H129 H 0.81563 0.82252 0.06166
 H130 H 0.72866 0.77849 0.09270
 H131 H 0.59325 0.87446 0.16025
 H132 H 0.51439 0.83533 0.19560
 H133 H 0.48155 0.65665 0.17964
 H134 H 0.56071 0.69665 0.14429
 C135 C 0.14177 0.86309 0.09473
 C136 C 0.17563 0.92241 0.08581
 C137 C 0.15036 0.94679 0.06812
 C138 C 0.09073 0.91209 0.05914
 C139 C 0.05724 0.85231 0.06805
 C140 C 0.08264 0.82805 0.08573
 C141 C 0.16713 0.83865 0.11371
 C142 C 0.18780 0.81825 0.12997
 C143 C 0.21162 0.79392 0.14985
 C144 C 0.27300 0.82328 0.15537
 C145 C 0.29568 0.80083 0.17555
 C146 C 0.25711 0.74870 0.19054
 C147 C 0.19555 0.71910 0.18451
 C148 C 0.17305 0.74162 0.16434
 H149 H 0.22141 0.94997 0.09270
 H150 H 0.17739 0.99292 0.06166
 H151 H 0.01127 0.82438 0.06153
 H152 H 0.05598 0.78211 0.09257
 H153 H 0.30326 0.86387 0.14429
 H154 H 0.34326 0.82472 0.17964
 H155 H 0.16458 0.67885 0.19559
 H156 H 0.12545 0.71857 0.16025
 C157 C 0.86321 0.72130 0.59472
 C158 C 0.92252 0.74676 0.58579
 C159 C 0.94690 0.79642 0.56811
 C160 C 0.91220 0.82134 0.55913
 C161 C 0.85242 0.79505 0.56804
 C162 C 0.82817 0.74539 0.58573
 C163 C 0.83877 0.67150 0.61370
 C164 C 0.81838 0.63043 0.62997
 C165 C 0.79405 0.58228 0.64985
 C166 C 0.82341 0.55027 0.65537
 C167 C 0.80096 0.50514 0.67555
 C168 C 0.74883 0.49157 0.69054
 C169 C 0.71923 0.52353 0.68452
 C170 C 0.74175 0.56855 0.66434
 H171 H 0.95008 0.72854 0.59268
 H172 H 0.99302 0.81552 0.56165
 H173 H 0.82449 0.81308 0.56153
 H174 H 0.78223 0.72610 0.59257
 H175 H 0.86400 0.56061 0.64429
 H176 H 0.82485 0.48145 0.67964
 H177 H 0.67898 0.51425 0.69560
 H178 H 0.71870 0.59310 0.66025
 C179 C 0.27861 0.14166 0.59472
 C180 C 0.25451 0.08252 0.58572
 C181 C 0.20485 0.05713 0.56803
 C182 C 0.17856 0.09062 0.55913
 C183 C 0.20349 0.15024 0.56811
 C184 C 0.25315 0.17551 0.58580
 C185 C 0.32840 0.16701 0.61370
 C186 C 0.36947 0.18768 0.62997
 C187 C 0.41763 0.21150 0.64985
 C188 C 0.43134 0.17293 0.66434
 C189 C 0.47637 0.19543 0.68452
 C190 C 0.50834 0.25699 0.69054
 C191 C 0.49478 0.29555 0.67555
 C192 C 0.44966 0.27288 0.65537
 H193 H 0.27379 0.05587 0.59256
 H194 H 0.18682 0.01117 0.56152
 H195 H 0.18439 0.17727 0.56166
 H196 H 0.27137 0.22129 0.59270
 H197 H 0.40678 0.12532 0.66025
 H198 H 0.48564 0.16446 0.69560
 H199 H 0.51848 0.34313 0.67963
 H200 H 0.43932 0.30313 0.64429
 C201 C 0.85825 0.13669 0.59473
 C202 C 0.82440 0.07737 0.58581
 C203 C 0.84967 0.05300 0.56812
 C204 C 0.90929 0.08769 0.55914
 C205 C 0.94278 0.14747 0.56805
 C206 C 0.91739 0.17173 0.58574
 C207 C 0.83290 0.16113 0.61371
 C208 C 0.81223 0.18153 0.62997
 C209 C 0.78840 0.20586 0.64985
 C210 C 0.72702 0.17650 0.65537
 C211 C 0.70435 0.19895 0.67555
 C212 C 0.74291 0.25109 0.69054
 C213 C 0.80447 0.28068 0.68452
 C214 C 0.82698 0.25816 0.66434
 H215 H 0.77862 0.04981 0.59270
 H216 H 0.82264 0.00687 0.56167
 H217 H 0.98875 0.17541 0.56153
 H218 H 0.94404 0.21767 0.59258
 H219 H 0.69677 0.13591 0.64430
 H220 H 0.65677 0.17506 0.67964
 H221 H 0.83545 0.32093 0.69560
 H222 H 0.87458 0.28121 0.66026
 C223 C 0.27917 0.13691 0.90496
 C224 C 0.22173 0.10810 0.89350
 C225 C 0.17168 0.08385 0.91087
 C226 C 0.17835 0.08809 0.94004
 C227 C 0.23634 0.11716 0.95141
 C228 C 0.28644 0.14143 0.93394
 C229 C 0.33025 0.16201 0.88676
 C230 C 0.37183 0.18271 0.87080
 C231 C 0.42003 0.20714 0.85095
 C232 C 0.45178 0.17760 0.84524
 C233 C 0.49628 0.19965 0.82476
 C234 C 0.50941 0.25153 0.80965
 C235 C 0.47780 0.28137 0.81590
 C236 C 0.43342 0.25925 0.83638
 H237 H 0.21559 0.10441 0.87110
 H238 H 0.12775 0.06179 0.90141
 H239 H 0.24301 0.12115 0.97376
 H240 H 0.33076 0.16372 0.94303
 H241 H 0.44160 0.13708 0.85634
 H242 H 0.51975 0.17562 0.82051
 H243 H 0.48680 0.32145 0.80475
 H244 H 0.40897 0.28236 0.84058
 C245 C 0.85792 0.72074 0.90496
 C246 C 0.85515 0.71346 0.93395
 C247 C 0.88096 0.76357 0.95141
 C248 C 0.90989 0.82156 0.94004
 C249 C 0.91234 0.82823 0.91087
 C250 C 0.88655 0.77818 0.89350
 C251 C 0.83194 0.66965 0.88676
 C252 C 0.81106 0.62807 0.87080
 C253 C 0.78730 0.57987 0.85095
 C254 C 0.82602 0.56650 0.83638
 C255 C 0.80376 0.52212 0.81590
 C256 C 0.74230 0.49049 0.80965
 C257 C 0.70356 0.50361 0.82477
 C258 C 0.72600 0.54810 0.84525
 H259 H 0.83312 0.66915 0.94303
 H260 H 0.87827 0.75690 0.97377
 H261 H 0.93421 0.87215 0.90141
 H262 H 0.88901 0.78431 0.87110
 H263 H 0.87358 0.59096 0.84057
 H264 H 0.83485 0.51313 0.80474
 H265 H 0.65605 0.48012 0.82052
 H266 H 0.69566 0.55826 0.85635
 C267 C 0.86299 0.14199 0.90495
 C268 C 0.85848 0.14475 0.93393
 C269 C 0.88276 0.11893 0.95140
 C270 C 0.91182 0.09001 0.94003
 C271 C 0.91605 0.08756 0.91086
 C272 C 0.89180 0.11336 0.89349
 C273 C 0.83790 0.16797 0.88675
 C274 C 0.81720 0.18885 0.87078
 C275 C 0.79276 0.21261 0.85094
 C276 C 0.74065 0.17389 0.83637
 C277 C 0.71853 0.19615 0.81589
 C278 C 0.74837 0.25761 0.80964
 C279 C 0.80024 0.29635 0.82476
 C280 C 0.82230 0.27391 0.84524
 H281 H 0.83619 0.16678 0.94301
 H282 H 0.87877 0.12162 0.97375
 H283 H 0.93811 0.06570 0.90140
 H284 H 0.89549 0.11091 0.87109
 H285 H 0.71755 0.12632 0.84056
 H286 H 0.67845 0.16506 0.80474
 H287 H 0.82427 0.34386 0.82051
 H288 H 0.86281 0.30425 0.85634
 C289 C 0.72085 0.86288 0.40497
 C290 C 0.71358 0.85836 0.43395
 C291 C 0.76368 0.88263 0.45141
 C292 C 0.82167 0.91170 0.44004
 C293 C 0.82834 0.91594 0.41087
 C294 C 0.77830 0.89169 0.39350
 C295 C 0.66977 0.83778 0.38676
 C296 C 0.62819 0.81708 0.37080
 C297 C 0.57999 0.79265 0.35095
 C298 C 0.56660 0.74054 0.33638
 C299 C 0.52222 0.71842 0.31590
 C300 C 0.49061 0.74826 0.30965
 C301 C 0.50375 0.80014 0.32476
 C302 C 0.54824 0.82219 0.34524
 H303 H 0.66927 0.83606 0.44303
 H304 H 0.75701 0.87863 0.47377
 H305 H 0.87227 0.93801 0.40141
 H306 H 0.78443 0.89539 0.37110
 H307 H 0.59105 0.71743 0.34058
 H308 H 0.51322 0.67833 0.30475
 H309 H 0.48027 0.82417 0.32051
 H310 H 0.55842 0.86271 0.35634
 C311 C 0.14210 0.27905 0.40497
 C312 C 0.11347 0.22161 0.39350
 C313 C 0.08768 0.17156 0.41087
 C314 C 0.09014 0.17823 0.44004
 C315 C 0.11906 0.23622 0.45141
 C316 C 0.14488 0.28632 0.43395
 C317 C 0.16808 0.33013 0.38676
 C318 C 0.18896 0.37172 0.37080
 C319 C 0.21272 0.41992 0.35096
 C320 C 0.17400 0.43329 0.33638
 C321 C 0.19626 0.47767 0.31590
 C322 C 0.25772 0.50930 0.30965
 C323 C 0.29646 0.49618 0.32477
 C324 C 0.27403 0.45169 0.34525
 H325 H 0.11101 0.21548 0.37110
 H326 H 0.06581 0.12764 0.40141
 H327 H 0.12175 0.24289 0.47377
 H328 H 0.16691 0.33064 0.44303
 H329 H 0.12644 0.40882 0.34057
 H330 H 0.16517 0.48665 0.30474
 H331 H 0.34398 0.51967 0.32053
 H332 H 0.30437 0.44153 0.35636
 C333 C 0.13703 0.85780 0.40495
 C334 C 0.10822 0.88643 0.39349
 C335 C 0.08397 0.91222 0.41086
 C336 C 0.08820 0.90977 0.44003
 C337 C 0.11726 0.88085 0.45140
 C338 C 0.14154 0.85503 0.43393
 C339 C 0.16213 0.83182 0.38674
 C340 C 0.18282 0.81094 0.37078
 C341 C 0.20726 0.78718 0.35094
 C342 C 0.25937 0.82590 0.33636
 C343 C 0.28149 0.80364 0.31589
 C344 C 0.25165 0.74218 0.30964
 C345 C 0.19978 0.70344 0.32476
 C346 C 0.17772 0.72588 0.34523
 H347 H 0.10453 0.88888 0.37108
 H348 H 0.06191 0.93409 0.40140
 H349 H 0.12125 0.87817 0.47375
 H350 H 0.16383 0.83301 0.44301
 H351 H 0.28247 0.87346 0.34055
 H352 H 0.32157 0.83473 0.30473
 H353 H 0.17575 0.65592 0.32051
 H354 H 0.13721 0.69554 0.35634
   
