data_POSCAR
  _audit_creation_date              2014-09-24
  _audit_creation_method            'ToBaCCo'
  _symmetry_space_group_name_H-M    'P1'
  _symmetry_Int_Tables_number       1
  _symmetry_cell_setting            triclinic
  loop_
  _symmetry_equiv_pos_as_xyz
 x,y,z
_cell_length_a 50.6639
_cell_length_b 53.2977
_cell_length_c 42.9738
_cell_angle_alpha 89.941000
_cell_angle_beta 89.790800
_cell_angle_gamma 89.969000
loop_
  _atom_site_label
  _atom_site_type_symbol
  _atom_site_fract_x
  _atom_site_fract_y
  _atom_site_fract_z
C1 C 0.29593 0.27164 0.22523
 H2 H 0.30424 0.26293 0.24569
 C3 C 0.31160 0.28738 0.20685
 H4 H 0.33201 0.29034 0.21324
 C5 C 0.25895 0.27924 0.19293
 H6 H 0.23830 0.27614 0.18793
 C7 C 0.27384 0.29521 0.17404
 H8 H 0.26445 0.30420 0.15438
 N9 N 0.27013 0.26787 0.21796
 C10 C 0.20685 0.26116 0.28640
 H11 H 0.20235 0.24132 0.28633
 C12 C 0.19209 0.27746 0.30511
 H13 H 0.17622 0.26999 0.31928
 C14 C 0.23330 0.29488 0.26849
 H15 H 0.24951 0.30166 0.25443
 C16 C 0.21930 0.31174 0.28706
 H17 H 0.22483 0.33136 0.28673
 Zn18 Zn 0.24786 0.24813 0.24354
 N19 N 0.22698 0.27008 0.26846
 C20 C 0.26327 0.22520 0.30054
 N21 N 0.26859 0.22687 0.26953
 C22 C 0.28871 0.21349 0.25658
 C23 C 0.30414 0.19754 0.27481
 C24 C 0.27796 0.20920 0.31955
 C25 C 0.19953 0.23089 0.21672
 C26 C 0.18404 0.21559 0.19772
 C27 C 0.22380 0.19569 0.17889
 C28 C 0.23848 0.21132 0.19826
 N29 N 0.22625 0.22817 0.21717
 H30 H 0.24756 0.23615 0.31070
 H31 H 0.29318 0.21550 0.23212
 H32 H 0.32001 0.18709 0.26395
 H33 H 0.27324 0.20806 0.34411
 H34 H 0.19009 0.24499 0.23091
 H35 H 0.16281 0.21790 0.19802
 H36 H 0.23407 0.18225 0.16437
 H37 H 0.25972 0.20996 0.19808
 C38 C 0.19839 0.30312 0.30571
 C39 C 0.30053 0.29956 0.18098
 C40 C 0.19615 0.19750 0.17869
 C41 C 0.29869 0.19508 0.30671
 C42 C 0.79673 0.77268 0.23218
 H43 H 0.80684 0.76172 0.24956
 C44 C 0.81130 0.78914 0.21356
 H45 H 0.83248 0.79000 0.21667
 C46 C 0.75699 0.78578 0.20847
 H47 H 0.73577 0.78495 0.20707
 C48 C 0.77073 0.80257 0.18944
 H49 H 0.75964 0.81407 0.17331
 N50 N 0.77008 0.77090 0.22901
 C51 C 0.70195 0.76463 0.28373
 H52 H 0.69279 0.74905 0.27188
 C53 C 0.68659 0.78045 0.30240
 H54 H 0.66562 0.77694 0.30451
 C55 C 0.74041 0.78795 0.29566
 H56 H 0.76143 0.79073 0.29279
 C57 C 0.72587 0.80412 0.31460
 H58 H 0.73597 0.81935 0.32619
 Zn59 Zn 0.75010 0.74875 0.25483
 N60 N 0.72831 0.76879 0.28055
 C61 C 0.76834 0.72804 0.31155
 N62 N 0.77301 0.72936 0.28039
 C63 C 0.79297 0.71605 0.26700
 C64 C 0.80922 0.70078 0.28510
 C65 C 0.78389 0.71270 0.33046
 C66 C 0.70929 0.73574 0.21211
 C67 C 0.69428 0.71961 0.19361
 C68 C 0.72037 0.68490 0.21237
 C69 C 0.73461 0.70161 0.23075
 N70 N 0.72925 0.72663 0.23002
 H71 H 0.75217 0.73845 0.32172
 H72 H 0.79599 0.71701 0.24210
 H73 H 0.82481 0.69018 0.27389
 H74 H 0.77965 0.71168 0.35514
 H75 H 0.70459 0.75549 0.21252
 H76 H 0.67856 0.72727 0.17949
 H77 H 0.72520 0.66512 0.21328
 H78 H 0.74996 0.69438 0.24556
 C79 C 0.69854 0.80061 0.31803
 C80 C 0.79837 0.80441 0.19164
 C81 C 0.69997 0.69383 0.19336
 C82 C 0.80460 0.69876 0.31723
 C83 C 0.79327 0.28220 0.73366
 H84 H 0.79632 0.28094 0.75852
 C85 C 0.80950 0.29768 0.71569
 H86 H 0.82509 0.30814 0.72695
 C87 C 0.76860 0.27078 0.68914
 H88 H 0.75241 0.26051 0.67894
 C89 C 0.78412 0.28634 0.67037
 H90 H 0.77985 0.28766 0.64575
 N91 N 0.77329 0.26908 0.72023
 C92 C 0.70932 0.26207 0.78862
 H93 H 0.70457 0.24235 0.78784
 C94 C 0.69424 0.27804 0.80742
 H95 H 0.67840 0.27027 0.82139
 C96 C 0.73487 0.29633 0.77062
 H97 H 0.75033 0.30368 0.75595
 C98 C 0.72057 0.31287 0.78931
 H99 H 0.72548 0.33263 0.78878
 Zn100 Zn 0.75035 0.24944 0.74562
 N101 N 0.72942 0.27133 0.77087
 C102 C 0.75721 0.21211 0.79155
 N103 N 0.77030 0.22706 0.77102
 C104 C 0.79692 0.22520 0.76750
 C105 C 0.81150 0.20856 0.78577
 C106 C 0.77093 0.19512 0.81026
 C107 C 0.70233 0.23393 0.71661
 C108 C 0.68704 0.21832 0.69774
 C109 C 0.72633 0.19461 0.68523
 C110 C 0.74080 0.21059 0.70435
 N111 N 0.72866 0.22966 0.71972
 H112 H 0.73601 0.21304 0.79324
 H113 H 0.80702 0.23623 0.75012
 H114 H 0.83267 0.20774 0.78228
 H115 H 0.75972 0.18363 0.82637
 H116 H 0.69314 0.24945 0.72864
 H117 H 0.66609 0.22193 0.69568
 H118 H 0.73646 0.17944 0.67344
 H119 H 0.76179 0.20771 0.70717
 C120 C 0.70001 0.30379 0.80815
 C121 C 0.80483 0.30011 0.68365
 C122 C 0.69902 0.19825 0.68185
 C123 C 0.79862 0.19312 0.80776
 C124 C 0.29768 0.77401 0.73279
 H125 H 0.30768 0.76310 0.75030
 C126 C 0.31229 0.79075 0.71459
 H127 H 0.33341 0.79200 0.71803
 C128 C 0.25812 0.78675 0.70831
 H129 H 0.23695 0.78566 0.70642
 C130 C 0.27193 0.80379 0.68970
 H131 H 0.26111 0.81529 0.67333
 N132 N 0.27110 0.77195 0.72904
 C133 C 0.20250 0.76482 0.78291
 H134 H 0.19359 0.74917 0.77094
 C135 C 0.18686 0.78043 0.80153
 H136 H 0.16591 0.77670 0.80346
 C137 C 0.24063 0.78849 0.79526
 H138 H 0.26163 0.79149 0.79258
 C139 C 0.22580 0.80446 0.81415
 H140 H 0.23567 0.81976 0.82589
 Zn141 Zn 0.25102 0.74951 0.75437
 N142 N 0.22883 0.76926 0.77995
 C143 C 0.26874 0.72860 0.81116
 N144 N 0.27379 0.73013 0.78010
 C145 C 0.29406 0.71707 0.76697
 C146 C 0.31022 0.70184 0.78523
 C147 C 0.28419 0.71331 0.83023
 C148 C 0.21056 0.73657 0.71122
 C149 C 0.19576 0.72050 0.69240
 C150 C 0.22222 0.68584 0.71058
 C151 C 0.23625 0.70247 0.72929
 N152 N 0.23058 0.72744 0.72903
 H153 H 0.25234 0.73882 0.82113
 H154 H 0.29741 0.71821 0.74213
 H155 H 0.32606 0.69144 0.77422
 H156 H 0.27964 0.71213 0.85482
 H157 H 0.20564 0.75626 0.71198
 H158 H 0.17996 0.72817 0.67841
 H159 H 0.22727 0.66610 0.71113
 H160 H 0.25167 0.69524 0.74399
 C161 C 0.19849 0.80066 0.81734
 C162 C 0.29944 0.80589 0.69259
 C163 C 0.20172 0.69478 0.69172
 C164 C 0.30520 0.69962 0.81727
 C165 C -0.03379 -0.02041 0.01340
 C166 C -0.01995 -0.00131 -0.00203
 C167 C -0.03386 0.01773 -0.01739
 C168 C -0.06159 0.01772 -0.01777
 C169 C -0.07523 -0.00141 -0.00187
 C170 C -0.06153 -0.02050 0.01394
 C171 C 0.00917 -0.00122 -0.00208
 C172 C 0.02316 -0.02108 -0.01577
 C173 C 0.05090 -0.02097 -0.01637
 C174 C 0.06440 -0.00092 -0.00236
 C175 C 0.05065 0.01897 0.01183
 C176 C 0.02292 0.01877 0.01151
 H177 H -0.02281 -0.03497 0.02531
 H178 H -0.02293 0.03234 -0.02934
 H179 H 0.01233 -0.03636 -0.02634
 H180 H 0.01190 0.03395 0.02216
 H181 H -0.09660 -0.00145 -0.00181
 H182 H 0.08577 -0.00080 -0.00244
 C183 C -0.02410 0.48074 0.51556
 C184 C -0.01020 0.50006 0.50064
 C185 C -0.02406 0.51946 0.48593
 C186 C -0.05179 0.51964 0.48583
 C187 C -0.06551 0.50022 0.50105
 C188 C -0.05183 0.48071 0.51605
 C189 C 0.01889 0.49992 0.50035
 C190 C 0.03260 0.48020 0.48598
 C191 C 0.06032 0.48013 0.48504
 C192 C 0.07414 0.49965 0.49976
 C193 C 0.06065 0.51930 0.51477
 C194 C 0.03293 0.51951 0.51441
 H195 H -0.01320 0.46581 0.52686
 H196 H -0.01313 0.53430 0.47443
 H197 H 0.02156 0.46532 0.47485
 H198 H 0.02213 0.53450 0.52577
 H199 H -0.08689 0.50027 0.50118
 H200 H 0.09551 0.49954 0.49954
 C201 C 0.46893 -0.01765 0.51524
 C202 C 0.48297 0.00101 0.49925
 C203 C 0.46927 0.02006 0.48366
 C204 C 0.44155 0.02062 0.48389
 C205 C 0.42770 0.00202 0.50044
 C206 C 0.44119 -0.01722 0.51624
 C207 C 0.51207 0.00078 0.49912
 C208 C 0.52583 -0.01920 0.48540
 C209 C 0.55357 -0.01943 0.48491
 C210 C 0.56731 0.00040 0.49913
 C211 C 0.55377 0.02041 0.51335
 C212 C 0.52605 0.02056 0.51285
 H213 H 0.47976 -0.03226 0.52724
 H214 H 0.48031 0.03437 0.47129
 H215 H 0.51481 -0.03432 0.47472
 H216 H 0.51518 0.03581 0.52357
 H217 H 0.40633 0.00241 0.50078
 H218 H 0.58867 0.00026 0.49914
 C219 C 0.47393 0.47993 0.01550
 C220 C 0.48817 0.49930 0.00113
 C221 C 0.47466 0.51908 -0.01326
 C222 C 0.44695 0.51965 -0.01346
 C223 C 0.43288 0.50028 0.00140
 C224 C 0.44619 0.48032 0.01600
 C225 C 0.51727 0.49898 0.00133
 C226 C 0.53109 0.47925 -0.01290
 C227 C 0.55881 0.47910 -0.01336
 C228 C 0.57251 0.49851 0.00171
 C229 C 0.55892 0.51816 0.01657
 C230 C 0.53122 0.51847 0.01574
 H231 H 0.48460 0.46474 0.02657
 H232 H 0.48584 0.53393 -0.02438
 H233 H 0.52013 0.46445 -0.02431
 H234 H 0.52035 0.53348 0.02698
 H235 H 0.41151 0.50068 0.00142
 H236 H 0.59389 0.49834 0.00184
 C237 C 0.15308 -0.14957 -0.12883
 N238 N 0.14129 -0.16835 -0.14494
 N239 N 0.15567 -0.18431 -0.16184
 C240 C 0.18238 -0.18208 -0.16330
 N241 N 0.19408 -0.16331 -0.14704
 N242 N 0.17974 -0.14739 -0.13015
 C243 C 0.13742 -0.13148 -0.11077
 N244 N 0.14963 -0.11281 -0.09492
 N245 N 0.13562 -0.09593 -0.07911
 C246 C 0.10886 -0.09705 -0.07855
 N247 N 0.09661 -0.11578 -0.09430
 N248 N 0.11064 -0.13271 -0.11013
 C249 C 0.09362 -0.07788 -0.06176
 N250 N 0.06682 -0.07825 -0.06154
 N251 N 0.05321 -0.06035 -0.04690
 C252 C 0.06586 -0.04139 -0.03195
 N253 N 0.09268 -0.04120 -0.03215
 N254 N 0.10627 -0.05906 -0.04674
 C255 C 0.15682 0.35368 0.36249
 N256 N 0.18031 0.36016 0.34957
 N257 N 0.19342 0.34409 0.33155
 C258 C 0.18364 0.32083 0.32583
 N259 N 0.16014 0.31431 0.33891
 N260 N 0.14694 0.33046 0.35683
 C261 C 0.14242 0.37171 0.38201
 N262 N 0.11744 0.36689 0.39194
 N263 N 0.10436 0.38363 0.40913
 C264 C 0.11585 0.40571 0.41713
 N265 N 0.14085 0.41044 0.40732
 N266 N 0.15386 0.39378 0.39004
 C267 C 0.10147 0.42451 0.43553
 N268 N 0.11397 0.44550 0.44549
 N269 N 0.10094 0.46295 0.46151
 C270 C 0.07487 0.46019 0.46813
 N271 N 0.06239 0.43910 0.45818
 N272 N 0.07545 0.42157 0.44225
 C273 C 0.65398 -0.14905 0.37201
 N274 N 0.68065 -0.14714 0.37049
 N275 N 0.69472 -0.16323 0.35354
 C276 C 0.68273 -0.18192 0.33744
 N277 N 0.65601 -0.18388 0.33911
 N278 N 0.64189 -0.16774 0.35606
 C279 C 0.63860 -0.13077 0.39013
 N280 N 0.61182 -0.13174 0.39094
 N281 N 0.59803 -0.11467 0.40682
 C282 C 0.61056 -0.09604 0.42246
 N283 N 0.63732 -0.09516 0.42173
 N284 N 0.65108 -0.11220 0.40586
 C285 C 0.59558 -0.07671 0.43932
 N286 N 0.60848 -0.05802 0.45431
 N287 N 0.59511 -0.04003 0.46897
 C288 C 0.56829 -0.03997 0.46926
 N289 N 0.55540 -0.05880 0.45434
 N290 N 0.56878 -0.07682 0.43965
 C291 C 0.65735 0.35358 -0.13516
 N292 N 0.64783 0.33026 -0.14106
 N293 N 0.66139 0.31434 -0.15892
 C294 C 0.68489 0.32120 -0.17171
 N295 N 0.69431 0.34455 -0.16574
 N296 N 0.68086 0.36039 -0.14778
 C297 C 0.64256 0.37140 -0.11572
 N298 N 0.65374 0.39350 -0.10736
 N299 N 0.64041 0.41000 -0.09019
 C300 C 0.61532 0.40508 -0.08085
 N301 N 0.60409 0.38296 -0.08918
 N302 N 0.61750 0.36637 -0.10626
 C303 C 0.60063 0.42374 -0.06256
 N304 N 0.57452 0.42074 -0.05636
 N305 N 0.56123 0.43818 -0.04053
 C306 C 0.57356 0.45923 -0.03018
 N307 N 0.59971 0.46204 -0.03629
 N308 N 0.61296 0.44469 -0.05220
 C309 C -0.16010 0.14357 -0.13881
 N310 N -0.14743 0.15869 -0.15940
 N311 N -0.16091 0.17490 -0.17681
 C312 C -0.18765 0.17673 -0.17440
 N313 N -0.20020 0.16153 -0.15359
 N314 N -0.18673 0.14529 -0.13621
 C315 C -0.14529 0.12544 -0.11993
 N316 N -0.15812 0.10946 -0.10046
 N317 N -0.14474 0.09276 -0.08367
 C318 C -0.11802 0.09144 -0.08568
 N319 N -0.10518 0.10747 -0.10508
 N320 N -0.11857 0.12415 -0.12191
 C321 C -0.10334 0.07271 -0.06758
 N322 N -0.07659 0.07171 -0.06900
 N323 N -0.06334 0.05441 -0.05300
 C324 C -0.07629 0.03739 -0.03499
 N325 N -0.10307 0.03851 -0.03358
 N326 N -0.11633 0.05582 -0.04952
 C327 C -0.15050 0.64893 0.37109
 N328 N -0.14161 0.65681 0.34291
 N329 N -0.15576 0.67280 0.32593
 C330 C -0.17928 0.68165 0.33655
 N331 N -0.18803 0.67389 0.36489
 N332 N -0.17396 0.65778 0.38180
 C333 C -0.13533 0.63061 0.38927
 N334 N -0.14614 0.61944 0.41470
 N335 N -0.13266 0.60225 0.43063
 C336 C -0.10783 0.59572 0.42182
 N337 N -0.09696 0.60703 0.39652
 N338 N -0.11050 0.62410 0.38048
 C339 C -0.09318 0.57638 0.43893
 N340 N -0.06730 0.57210 0.43263
 N341 N -0.05412 0.55424 0.44773
 C342 C -0.06633 0.53985 0.46957
 N343 N -0.09225 0.54419 0.47583
 N344 N -0.10540 0.56215 0.46086
 C345 C 0.34283 0.14562 0.36201
 N346 N 0.35192 0.15298 0.33370
 N347 N 0.33794 0.16872 0.31617
 C348 C 0.31439 0.17783 0.32635
 N349 N 0.30541 0.17054 0.35479
 N350 N 0.31932 0.15468 0.37224
 C351 C 0.35797 0.12784 0.38102
 N352 N 0.34717 0.11753 0.40701
 N353 N 0.36069 0.10097 0.42389
 C354 C 0.38556 0.09424 0.41550
 N355 N 0.39642 0.10466 0.38961
 N356 N 0.38285 0.12110 0.37263
 C357 C 0.40026 0.07561 0.43374
 N358 N 0.42611 0.07101 0.42763
 N359 N 0.43929 0.05376 0.44379
 C360 C 0.42710 0.04032 0.46655
 N361 N 0.40122 0.04499 0.47264
 N362 N 0.38808 0.06234 0.45661
 C363 C 0.34979 0.64988 -0.12837
 N364 N 0.35892 0.65781 -0.15643
 N365 N 0.34487 0.67377 -0.17357
 C366 C 0.32122 0.68254 -0.16324
 N367 N 0.31224 0.67473 -0.13502
 N368 N 0.32621 0.65865 -0.11795
 C369 C 0.36482 0.63156 -0.11003
 N370 N 0.35381 0.62039 -0.08472
 N371 N 0.36713 0.60316 -0.06868
 C372 C 0.39200 0.59658 -0.07725
 N373 N 0.40309 0.60789 -0.10242
 N374 N 0.38971 0.62501 -0.11858
 C375 C 0.40643 0.57711 -0.06009
 N376 N 0.43230 0.57263 -0.06623
 N377 N 0.44522 0.55458 -0.05117
 C378 C 0.43275 0.54019 -0.02953
 N379 N 0.40685 0.54474 -0.02342
 N380 N 0.39396 0.56290 -0.03833
 C381 C -0.15984 -0.14587 0.13663
 N382 N -0.18649 -0.14745 0.13445
 N383 N -0.19996 -0.16355 0.15212
 C384 C -0.18736 -0.17872 0.17277
 N385 N -0.16062 -0.17707 0.17481
 N386 N -0.14714 -0.16100 0.15711
 C387 C -0.14503 -0.12787 0.11744
 N388 N -0.11830 -0.12667 0.11907
 N389 N -0.10493 -0.11008 0.10197
 C390 C -0.11780 -0.09408 0.08266
 N391 N -0.14452 -0.09533 0.08099
 N392 N -0.15789 -0.11193 0.09804
 C393 C -0.10314 -0.07543 0.06430
 N394 N -0.11617 -0.05858 0.04632
 N395 N -0.10295 -0.04130 0.03019
 C396 C -0.07617 -0.04017 0.03133
 N397 N -0.06318 -0.05716 0.04925
 N398 N -0.07639 -0.07443 0.06544
 C399 C -0.15044 0.35065 0.63028
 N400 N -0.14150 0.34244 0.65823
 N401 N -0.15560 0.32624 0.67506
 C402 C -0.17910 0.31747 0.66450
 N403 N -0.18789 0.32556 0.63638
 N404 N -0.17388 0.34189 0.61964
 C405 C -0.13533 0.36918 0.61227
 N406 N -0.14617 0.38060 0.58712
 N407 N -0.13273 0.39795 0.57132
 C408 C -0.10790 0.40440 0.57999
 N409 N -0.09700 0.39285 0.60502
 N410 N -0.11050 0.37562 0.62093
 C411 C -0.09326 0.42386 0.56298
 N412 N -0.06737 0.42805 0.56905
 N413 N -0.05418 0.44596 0.55397
 C414 C -0.06640 0.46050 0.53238
 N415 N -0.09234 0.45627 0.52637
 N416 N -0.10549 0.43825 0.54131
 C417 C 0.34209 -0.14263 0.63807
 N418 N 0.31537 -0.14372 0.63634
 N419 N 0.30186 -0.16010 0.65356
 C420 C 0.31451 -0.17602 0.67323
 N421 N 0.34127 -0.17489 0.67487
 N422 N 0.35480 -0.15853 0.65763
 C423 C 0.35695 -0.12438 0.61930
 N424 N 0.38372 -0.12366 0.62045
 N425 N 0.39718 -0.10694 0.60365
 C426 C 0.38434 -0.09031 0.58512
 N427 N 0.35758 -0.09105 0.58396
 N428 N 0.34413 -0.10780 0.60072
 C429 C 0.39912 -0.07163 0.56693
 N430 N 0.38619 -0.05433 0.54952
 N431 N 0.39955 -0.03715 0.53335
 C432 C 0.42636 -0.03661 0.53390
 N433 N 0.43924 -0.05402 0.55129
 N434 N 0.42589 -0.07118 0.56750
 C435 C 0.34514 0.35061 0.12808
 N436 N 0.31886 0.34793 0.12309
 N437 N 0.30479 0.33154 0.13965
 C438 C 0.31640 0.31722 0.16193
 N439 N 0.34274 0.31990 0.16681
 N440 N 0.35684 0.33625 0.15018
 C441 C 0.36047 0.36916 0.11034
 N442 N 0.38696 0.37121 0.11432
 N443 N 0.40073 0.38843 0.09868
 C444 C 0.38851 0.40426 0.07858
 N445 N 0.36203 0.40217 0.07456
 N446 N 0.34828 0.38492 0.09013
 C447 C 0.40354 0.42364 0.06189
 N448 N 0.39097 0.44073 0.04381
 N449 N 0.40451 0.45863 0.02916
 C450 C 0.43118 0.46013 0.03192
 N451 N 0.44372 0.44291 0.04994
 N452 N 0.43017 0.42504 0.06468
 C453 C 0.15127 0.14808 0.12421
 N454 N 0.17803 0.14728 0.12351
 N455 N 0.19220 0.16312 0.14058
 C456 C 0.18022 0.18041 0.15905
 N457 N 0.15340 0.18127 0.15959
 N458 N 0.13919 0.16541 0.14251
 C459 C 0.13581 0.13001 0.10603
 N460 N 0.10901 0.13013 0.10705
 N461 N 0.09517 0.11319 0.09117
 C462 C 0.10765 0.09553 0.07372
 N463 N 0.13442 0.09551 0.07262
 N464 N 0.14824 0.11243 0.08847
 C465 C 0.09264 0.07627 0.05694
 N466 N 0.10551 0.05819 0.04069
 N467 N 0.09214 0.04021 0.02617
 C468 C 0.06534 0.03955 0.02727
 N469 N 0.05247 0.05779 0.04343
 N470 N 0.06586 0.07579 0.05801
 C471 C 0.15949 0.64476 0.63529
 N472 N 0.14994 0.66812 0.64100
 N473 N 0.16338 0.68411 0.65877
 C474 C 0.18678 0.67728 0.67165
 N475 N 0.19624 0.65388 0.66588
 N476 N 0.18290 0.63797 0.64801
 C477 C 0.14478 0.62689 0.61601
 N478 N 0.15588 0.60465 0.60790
 N479 N 0.14255 0.58813 0.59087
 C480 C 0.11757 0.59316 0.58144
 N481 N 0.10643 0.61542 0.58952
 N482 N 0.11982 0.63202 0.60645
 C483 C 0.10283 0.57451 0.56336
 N484 N 0.07680 0.57776 0.55710
 N485 N 0.06342 0.56035 0.54147
 C486 C 0.07556 0.53909 0.53136
 N487 N 0.10164 0.53602 0.53751
 N488 N 0.11499 0.55334 0.55324
 C489 C 0.65461 0.14853 0.62727
 N490 N 0.68125 0.14639 0.62891
 N491 N 0.69528 0.16229 0.64605
 C492 C 0.68328 0.18100 0.66224
 N493 N 0.65659 0.18318 0.66044
 N494 N 0.64252 0.16725 0.64331
 C495 C 0.63925 0.13047 0.60895
 N496 N 0.61249 0.13174 0.60798
 N497 N 0.59869 0.11487 0.59193
 C498 C 0.61117 0.09616 0.57627
 N499 N 0.63792 0.09499 0.57716
 N500 N 0.65169 0.11182 0.59320
 C501 C 0.59614 0.07706 0.55925
 N502 N 0.60893 0.05822 0.54427
 N503 N 0.59546 0.04044 0.52950
 C504 C 0.56865 0.04074 0.52908
 N505 N 0.55587 0.05971 0.54398
 N506 N 0.56935 0.07752 0.55879
 C507 C 0.65745 0.64360 0.13752
 N508 N 0.68073 0.63674 0.15049
 N509 N 0.69414 0.65271 0.16819
 C510 C 0.68490 0.67624 0.17354
 N511 N 0.66162 0.68315 0.16042
 N512 N 0.64810 0.66710 0.14281
 C513 C 0.64270 0.62569 0.11834
 N514 N 0.61787 0.63092 0.10845
 N515 N 0.60448 0.61429 0.09155
 C516 C 0.61552 0.59190 0.08383
 N517 N 0.64038 0.58676 0.09361
 N518 N 0.65369 0.60331 0.11060
 C519 C 0.60083 0.57325 0.06569
 N520 N 0.61298 0.55199 0.05587
 N521 N 0.59971 0.53469 0.04000
 C522 C 0.57372 0.53789 0.03341
 N523 N 0.56158 0.55924 0.04324
 N524 N 0.57490 0.57662 0.05901
   
