data_POSCAR
  _audit_creation_date              2014-09-24
  _audit_creation_method            'ToBaCCo'
  _symmetry_space_group_name_H-M    'P1'
  _symmetry_Int_Tables_number       1
  _symmetry_cell_setting            triclinic
  loop_
  _symmetry_equiv_pos_as_xyz
 x,y,z
_cell_length_a 38.0361
_cell_length_b 38.0085
_cell_length_c 42.7428
_cell_angle_alpha 90.073800
_cell_angle_beta 89.964000
_cell_angle_gamma 120.063500
loop_
  _atom_site_label
  _atom_site_type_symbol
  _atom_site_fract_x
  _atom_site_fract_y
  _atom_site_fract_z
O1 O 0.03864 0.54778 1.28038
 O2 O -0.03979 0.50866 1.21884
 O3 O -0.04026 0.50830 1.27990
 O4 O 0.03929 0.54856 1.21949
 O5 O 0.03878 0.49018 1.21872
 O6 O -0.04002 0.45028 1.27978
 O7 O -0.04023 0.45034 1.21897
 O8 O 0.03913 0.48991 1.27969
 Cu9 Cu -0.00056 0.53415 1.24966
 Cu10 Cu -0.00055 0.46435 1.24927
 C11 C 0.05225 0.52549 1.29048
 C12 C -0.05343 0.47279 1.20843
 C13 C -0.05354 0.47252 1.29021
 C14 C 0.05245 0.52617 1.20875
 O15 O 0.45159 0.49167 1.28147
 O16 O 0.49080 0.45227 1.21996
 O17 O 0.49102 0.45221 1.28102
 O18 O 0.45084 0.49140 1.22051
 O19 O 0.50917 0.54939 1.21984
 O20 O 0.54898 0.51057 1.28100
 O21 O 0.54907 0.51032 1.22016
 O22 O 0.50936 0.55014 1.28084
 Cu23 Cu 0.46524 0.46603 1.25074
 Cu24 Cu 0.53496 0.53597 1.25046
 C25 C 0.47379 0.52767 1.29163
 C26 C 0.52665 0.47459 1.20964
 C27 C 0.52676 0.47475 1.29138
 C28 C 0.47322 0.52698 1.20979
 O29 O 0.50832 0.96059 1.28195
 O30 O 0.54805 1.03921 1.22052
 O31 O 0.54789 1.03956 1.28162
 O32 O 0.50868 0.96004 1.22100
 O33 O 0.45081 0.96046 1.22023
 O34 O 0.48974 1.03937 1.28139
 O35 O 0.49013 1.03954 1.22054
 O36 O 0.45001 0.96006 1.28124
 Cu37 Cu 0.53407 0.99988 1.25129
 Cu38 Cu 0.46433 0.99982 1.25084
 C39 C 0.47236 0.94688 1.29206
 C40 C 0.52584 1.05277 1.21011
 C41 C 0.52547 1.05294 1.29193
 C42 C 0.47315 0.94685 1.21021
 O43 O 0.96126 0.51040 0.71907
 O44 O 1.04009 0.54930 0.78020
 O45 O 1.04050 0.55005 0.71919
 O46 O 0.96105 0.51013 0.77994
 O47 O 0.96129 0.45213 0.77998
 O48 O 1.03981 0.49162 0.71841
 O49 O 1.04043 0.49135 0.77938
 O50 O 0.96087 0.45208 0.71889
 Cu51 Cu 1.00077 0.53582 0.74962
 Cu52 Cu 1.00056 0.46594 0.74915
 C53 C 0.94764 0.47460 0.70860
 C54 C 1.05366 0.52693 0.79018
 C55 C 1.05359 0.52761 0.70832
 C56 C 0.94779 0.47441 0.79041
 O57 O 0.48997 0.45040 0.71963
 O58 O 0.45124 0.49044 0.78076
 O59 O 0.45050 0.49006 0.71978
 O60 O 0.49032 0.45056 0.78046
 O61 O 0.54834 0.50887 0.78055
 O62 O 0.50892 0.54794 0.71913
 O63 O 0.50921 0.54879 0.78005
 O64 O 0.54828 0.50843 0.71949
 Cu65 Cu 0.46464 0.46454 0.75017
 Cu66 Cu 0.53455 0.53434 0.74979
 C67 C 0.52573 0.47262 0.70918
 C68 C 0.47364 0.52643 0.79079
 C69 C 0.47297 0.52563 0.70903
 C70 C 0.52604 0.47305 0.79092
 O71 O 0.54941 0.03880 0.71913
 O72 O 0.50963 -0.03991 0.78027
 O73 O 0.50979 -0.04046 0.71928
 O74 O 0.54944 0.03914 0.77997
 O75 O 0.49115 0.03874 0.78016
 O76 O 0.45201 -0.03992 0.71866
 O77 O 0.45130 -0.04041 0.77959
 O78 O 0.49144 0.03904 0.71910
 Cu79 Cu 0.53539 -0.00064 0.74966
 Cu80 Cu 0.46565 -0.00062 0.74937
 C81 C 0.52718 0.05231 0.70874
 C82 C 0.47369 -0.05354 0.79032
 C83 C 0.47422 -0.05363 0.70849
 C84 C 0.52698 0.05234 0.79049
 O85 O 0.39336 0.66852 0.96453
 O86 O 0.39498 0.73707 0.97352
 C87 C 0.36972 0.74308 0.95839
 O88 O 0.33209 0.72501 0.96448
 O89 O 0.26351 0.65802 0.97328
 C90 C 0.25749 0.62668 0.95815
 O91 O 0.27552 0.60712 0.96428
 O92 O 0.34240 0.60554 0.97338
 C93 C 0.37379 0.63087 0.95836
 O94 O 0.39475 0.65805 1.02687
 O95 O 0.39319 0.72502 1.03586
 C96 C 0.37363 0.74306 1.04197
 O97 O 0.34234 0.73702 1.02683
 O98 O 0.27536 0.66840 1.03564
 C99 C 0.25725 0.63075 1.04168
 O100 O 0.26330 0.60545 1.02658
 O101 O 0.33179 0.60707 1.03569
 C102 C 0.36939 0.62666 1.04190
 Cr103 Cr 0.39174 0.69600 1.00019
 Cr104 Cr 0.30449 0.69595 1.00006
 Cr105 Cr 0.30442 0.60862 0.99999
 O106 O 0.33355 0.66686 1.00008
 O107 O 0.60707 0.33199 0.96491
 O108 O 0.60553 0.26336 0.97332
 C109 C 0.63073 0.25693 0.95848
 O110 O 0.66829 0.27472 0.96481
 O111 O 0.73693 0.34190 0.97318
 C112 C 0.74342 0.37360 0.95842
 O113 O 0.72572 0.39343 0.96486
 O114 O 0.65859 0.39484 0.97331
 C115 C 0.62690 0.36956 0.95853
 O116 O 0.60561 0.34188 1.02737
 O117 O 0.60713 0.27478 1.03580
 C118 C 0.62693 0.25705 1.04215
 O119 O 0.65857 0.26349 1.02731
 O120 O 0.72574 0.33219 1.03566
 C121 C 0.74345 0.36976 1.04208
 O122 O 0.73697 0.39498 1.02735
 O123 O 0.66839 0.39345 1.03579
 C124 C 0.63083 0.37361 1.04217
 Cr125 Cr 0.60874 0.30420 1.00035
 Cr126 Cr 0.69618 0.30427 1.00025
 Cr127 Cr 0.69622 0.39177 1.00033
 O128 O 0.66705 0.33342 1.00031
 O129 O 0.65767 0.39428 0.52655
 O130 O 0.72462 0.39277 0.53535
 C131 C 0.74268 0.37323 0.54144
 O132 O 0.73655 0.34181 0.52636
 O133 O 0.66800 0.27478 0.53521
 C134 C 0.63040 0.25670 0.54138
 O135 O 0.60507 0.26276 0.52639
 O136 O 0.60668 0.33131 0.53536
 C137 C 0.62627 0.36893 0.54156
 O138 O 0.66798 0.39275 0.46420
 O139 O 0.73650 0.39437 0.47299
 C140 C 0.74253 0.36904 0.45791
 O141 O 0.72450 0.33142 0.46402
 O142 O 0.65757 0.26281 0.47286
 C143 C 0.62614 0.25665 0.45788
 O144 O 0.60659 0.27469 0.46407
 O145 O 0.60506 0.34169 0.47303
 C146 C 0.63037 0.37317 0.45806
 Cr147 Cr 0.69553 0.39120 0.49977
 Cr148 Cr 0.69549 0.30387 0.49962
 Cr149 Cr 0.60819 0.30378 0.49971
 O150 O 0.66640 0.33295 0.49970
 O151 O 0.33189 0.60687 0.53527
 O152 O 0.26328 0.60532 0.52705
 C153 C 0.25683 0.63055 0.54187
 O154 O 0.27459 0.66812 0.53551
 O155 O 0.34175 0.73677 0.52714
 C156 C 0.37352 0.74328 0.54180
 O157 O 0.39331 0.72558 0.53528
 O158 O 0.39468 0.65839 0.52679
 C159 C 0.36946 0.62669 0.54158
 O160 O 0.34152 0.60531 0.47275
 O161 O 0.27443 0.60681 0.46454
 C162 C 0.25673 0.62664 0.45822
 O163 O 0.26324 0.65836 0.47303
 O164 O 0.33185 0.72559 0.46464
 C165 C 0.36937 0.74331 0.45817
 O166 O 0.39461 0.73678 0.47281
 O167 O 0.39303 0.66813 0.46433
 C168 C 0.37320 0.63055 0.45795
 Cr169 Cr 0.30398 0.60848 0.49990
 Cr170 Cr 0.30406 0.69600 0.50007
 Cr171 Cr 0.39150 0.69602 0.49981
 O172 O 0.33318 0.66684 0.49993
 C173 C 0.43066 0.57142 0.36071
 N174 N 0.40772 0.53277 0.34999
 N175 N 0.42162 0.51865 0.32748
 C176 C 0.45907 0.54258 0.31491
 N177 N 0.48198 0.58125 0.32566
 N178 N 0.46801 0.59541 0.34810
 C179 C 0.41548 0.58689 0.38575
 N180 N 0.43717 0.62635 0.39495
 N181 N 0.42359 0.64030 0.41783
 C182 C 0.38790 0.61527 0.43243
 N183 N 0.36621 0.57581 0.42322
 N184 N 0.37972 0.56190 0.40027
 C185 C 0.42844 0.85999 0.36108
 N186 N 0.40454 0.87343 0.34848
 N187 N 0.41875 0.90156 0.32606
 C188 C 0.45737 0.91724 0.31532
 N189 N 0.48120 0.90366 0.32788
 N190 N 0.46703 0.87563 0.35037
 C191 C 0.41295 0.82934 0.38609
 N192 N 0.43788 0.81848 0.40052
 N193 N 0.42399 0.79104 0.42343
 C194 C 0.38459 0.77333 0.43270
 N195 N 0.35962 0.78408 0.41819
 N196 N 0.37356 0.81163 0.39535
 C197 C 0.14041 0.56927 0.36093
 N198 N 0.12382 0.59167 0.35097
 N199 N 0.09588 0.57781 0.32842
 C200 C 0.08342 0.54098 0.31505
 N201 N 0.10000 0.51858 0.32500
 N202 N 0.12803 0.53249 0.34750
 C203 C 0.17094 0.58439 0.38600
 N204 N 0.18912 0.56301 0.39481
 N205 N 0.21657 0.57656 0.41772
 C206 C 0.22677 0.61192 0.43273
 N207 N 0.20860 0.63330 0.42391
 N208 N 0.18123 0.61980 0.40094
 C209 C 0.57136 0.43082 0.36133
 N210 N 0.53240 0.40832 0.35127
 N211 N 0.51825 0.42225 0.32887
 C212 C 0.54252 0.45925 0.31579
 N213 N 0.58149 0.48176 0.32584
 N214 N 0.59567 0.46776 0.34818
 C215 C 0.58682 0.41561 0.38622
 N216 N 0.62643 0.43691 0.39496
 N217 N 0.64036 0.42328 0.41775
 C218 C 0.61515 0.38792 0.43268
 N219 N 0.57554 0.36661 0.42392
 N220 N 0.56164 0.38018 0.40107
 C221 C 0.56858 0.14002 0.36080
 N222 N 0.53108 0.12630 0.34840
 N223 N 0.51710 0.09808 0.32602
 C224 C 0.54017 0.08265 0.31513
 N225 N 0.57776 0.09653 0.32747
 N226 N 0.59167 0.12463 0.34994
 C227 C 0.58376 0.17068 0.38578
 N228 N 0.61951 0.18148 0.40028
 N229 N 0.63304 0.20892 0.42322
 C230 C 0.61140 0.22668 0.43241
 N231 N 0.57572 0.21599 0.41782
 N232 N 0.56211 0.18843 0.39496
 C233 C 0.85829 0.42796 0.36048
 N234 N 0.87077 0.40362 0.34717
 N235 N 0.89880 0.41779 0.32470
 C236 C 0.91525 0.45676 0.31466
 N237 N 0.90267 0.48106 0.32789
 N238 N 0.87473 0.46693 0.35043
 C239 C 0.82788 0.41254 0.38555
 N240 N 0.81781 0.43775 0.40058
 N241 N 0.79057 0.42387 0.42362
 C242 C 0.77232 0.38426 0.43239
 N243 N 0.78229 0.35903 0.41728
 N244 N 0.80963 0.37293 0.39431
 C245 C 0.57134 0.43076 1.13936
 N246 N 0.59560 0.46765 1.15267
 N247 N 0.58137 0.48154 1.17510
 C248 C 0.54237 0.45902 1.18512
 N249 N 0.51813 0.42207 1.17188
 N250 N 0.53234 0.40822 1.14938
 C251 C 0.58692 0.41568 1.11434
 N252 N 0.56190 0.38018 1.09944
 N253 N 0.57592 0.36676 1.07650
 C254 C 0.61550 0.38827 1.06767
 N255 N 0.64055 0.42371 1.08264
 N256 N 0.62650 0.43719 1.10552
 C257 C 0.85983 0.42908 1.13933
 N258 N 0.87336 0.40520 1.15179
 N259 N 0.90145 0.41938 1.17423
 C260 C 0.91698 0.45794 1.18514
 N261 N 0.90330 0.48177 1.17274
 N262 N 0.87530 0.46762 1.15021
 C263 C 0.82924 0.41357 1.11429
 N264 N 0.81834 0.43846 1.09984
 N265 N 0.79097 0.42449 1.07687
 C266 C 0.77339 0.38507 1.06758
 N267 N 0.78419 0.36015 1.08211
 N268 N 0.81166 0.37416 1.10500
 C269 C 0.56983 0.14094 1.13963
 N270 N 0.59226 0.12445 1.14976
 N271 N 0.57838 0.09653 1.17233
 C272 C 0.54149 0.08398 1.18554
 N273 N 0.51908 0.10047 1.17542
 N274 N 0.53301 0.12847 1.15292
 C275 C 0.58493 0.17145 1.11452
 N276 N 0.56350 0.18954 1.10564
 N277 N 0.57697 0.21693 1.08269
 C278 C 0.61230 0.22716 1.06770
 N279 N 0.63373 0.20906 1.07659
 N280 N 0.62032 0.18176 1.09960
 C281 C 0.42845 0.57019 1.13942
 N282 N 0.40410 0.53352 1.15296
 N283 N 0.41834 0.51980 1.17545
 C284 C 0.45741 0.54231 1.18529
 N285 N 0.48172 0.57904 1.17184
 N286 N 0.46751 0.59271 1.14928
 C287 C 0.41296 0.58506 1.11432
 N288 N 0.43814 0.62025 1.09919
 N289 N 0.42422 0.63351 1.07614
 C290 C 0.38459 0.61213 1.06744
 N291 N 0.35937 0.57700 1.08265
 N292 N 0.37332 0.56367 1.10564
 C293 C 0.14094 0.57119 1.13872
 N294 N 0.12421 0.53206 1.14843
 N295 N 0.09615 0.51776 1.17089
 C296 C 0.08374 0.54205 1.18435
 N297 N 0.10047 0.58119 1.17465
 N298 N 0.12861 0.59552 1.15226
 C299 C 0.17150 0.58680 1.11375
 N300 N 0.18991 0.62650 1.10523
 N301 N 0.21739 0.64058 1.08235
 C302 C 0.22734 0.61541 1.06711
 N303 N 0.20893 0.57571 1.07565
 N304 N 0.18154 0.56167 1.09859
 C305 C 0.42995 0.85876 1.13970
 N306 N 0.40750 0.87538 1.14952
 N307 N 0.42116 0.90328 1.17213
 C308 C 0.45780 0.91565 1.18568
 N309 N 0.48024 0.89901 1.17587
 N310 N 0.46653 0.87103 1.15332
 C311 C 0.41511 0.82837 1.11453
 N312 N 0.43643 0.81005 1.10590
 N313 N 0.42314 0.78274 1.08286
 C314 C 0.38811 0.77286 1.06756
 N315 N 0.36678 0.79117 1.07620
 N316 N 0.38001 0.81839 1.09930
 C317 C 0.56928 0.42791 0.63892
 N318 N 0.59184 0.46691 0.64899
 N319 N 0.57804 0.48108 0.67151
 C320 C 0.54114 0.45681 0.68471
 N321 N 0.51858 0.41781 0.67465
 N322 N 0.53243 0.40360 0.65219
 C323 C 0.58430 0.41246 0.61387
 N324 N 0.56293 0.37283 0.60507
 N325 N 0.57640 0.35891 0.58212
 C326 C 0.61166 0.38414 0.56708
 N327 N 0.63303 0.42376 0.57589
 N328 N 0.61962 0.43765 0.59890
 C329 C 0.57163 0.14058 0.63855
 N330 N 0.59597 0.12809 0.65175
 N331 N 0.58184 0.10001 0.67419
 C332 C 0.54290 0.08353 0.68429
 N333 N 0.51860 0.09611 0.67115
 N334 N 0.53269 0.12409 0.64865
 C335 C 0.58701 0.17108 0.61354
 N336 N 0.56180 0.18117 0.59862
 N337 N 0.57564 0.20851 0.57565
 C338 C 0.61522 0.22683 0.56684
 N339 N 0.64046 0.21683 0.58183
 N340 N 0.62659 0.18940 0.60473
 C341 C 0.85916 0.43073 0.63848
 N342 N 0.87562 0.40824 0.64849
 N343 N 0.90366 0.42214 0.67096
 C344 C 0.91636 0.45910 0.68416
 N345 N 0.89991 0.48159 0.67416
 N346 N 0.87177 0.46763 0.65175
 C347 C 0.82856 0.41557 0.61350
 N348 N 0.81025 0.43686 0.60480
 N349 N 0.78274 0.42326 0.58194
 C350 C 0.77263 0.38796 0.56688
 N351 N 0.79094 0.36667 0.57560
 N352 N 0.81835 0.38020 0.59852
 C353 C 0.42852 0.56937 0.63870
 N354 N 0.40411 0.53260 0.65209
 N355 N 0.41824 0.51870 0.67455
 C356 C 0.45727 0.54111 0.68450
 N357 N 0.48166 0.57793 0.67117
 N358 N 0.46755 0.59178 0.64866
 C359 C 0.41307 0.58448 0.61368
 N360 N 0.43822 0.61989 0.59877
 N361 N 0.42432 0.63337 0.57585
 C362 C 0.38472 0.61200 0.56704
 N363 N 0.35955 0.57665 0.58201
 N364 N 0.37348 0.56311 0.60488
 C365 C 0.43112 0.85962 0.63926
 N366 N 0.40818 0.87522 0.65005
 N367 N 0.42207 0.90320 0.67262
 C368 C 0.45951 0.91675 0.68518
 N369 N 0.48243 0.90110 0.67437
 N370 N 0.46847 0.87302 0.65187
 C371 C 0.41595 0.82906 0.61415
 N372 N 0.43763 0.81140 0.60482
 N373 N 0.42403 0.78393 0.58188
 C374 C 0.38830 0.77322 0.56734
 N375 N 0.36662 0.79089 0.57668
 N376 N 0.38016 0.81825 0.59970
 C377 C 0.14035 0.57141 0.63916
 N378 N 0.12466 0.53278 0.64983
 N379 N 0.09668 0.51864 0.67236
 C380 C 0.08319 0.54255 0.68501
 N381 N 0.09892 0.58120 0.67432
 N382 N 0.12701 0.59538 0.65186
 C383 C 0.17096 0.58690 0.61410
 N384 N 0.18871 0.62634 0.60493
 N385 N 0.21621 0.64029 0.58204
 C386 C 0.22687 0.61528 0.56739
 N387 N 0.20911 0.57583 0.57657
 N388 N 0.18172 0.56192 0.59953
 C389 C 0.43040 0.57146 0.86104
 N390 N 0.40790 0.53234 0.85122
 N391 N 0.42159 0.51805 0.82870
 C392 C 0.45831 0.54233 0.81525
 N393 N 0.48081 0.58145 0.82505
 N394 N 0.46707 0.59578 0.84751
 C395 C 0.41551 0.58705 0.88609
 N396 N 0.43687 0.62674 0.89473
 N397 N 0.42351 0.64077 0.91768
 C398 C 0.38836 0.61559 0.93287
 N399 N 0.36700 0.57590 0.92421
 N400 N 0.38031 0.56190 0.90121
 C401 C 0.14181 0.57020 0.86054
 N402 N 0.12523 0.59268 0.85077
 N403 N 0.09731 0.57900 0.82821
 C404 C 0.08488 0.54229 0.81467
 N405 N 0.10147 0.51982 0.82442
 N406 N 0.12948 0.53355 0.84692
 C407 C 0.17222 0.58508 0.88566
 N408 N 0.19050 0.56373 0.89427
 N409 N 0.21781 0.57706 0.91727
 C410 C 0.22773 0.61216 0.93257
 N411 N 0.20945 0.63351 0.92396
 N412 N 0.18224 0.62024 0.90089
 C413 C 0.42897 0.85856 0.86078
 N414 N 0.40460 0.87075 0.84719
 N415 N 0.41883 0.89868 0.82465
 C416 C 0.45789 0.91532 0.81483
 N417 N 0.48223 0.90304 0.82833
 N418 N 0.46804 0.87519 0.85094
 C419 C 0.41347 0.82824 0.88592
 N420 N 0.43863 0.81834 0.90114
 N421 N 0.42467 0.79117 0.92422
 C422 C 0.38502 0.77284 0.93286
 N423 N 0.35984 0.78265 0.91757
 N424 N 0.37383 0.80992 0.89456
 C425 C 0.56985 0.42866 0.86124
 N426 N 0.53300 0.40431 0.84798
 N427 N 0.51910 0.41844 0.82552
 C428 C 0.54160 0.45742 0.81544
 N429 N 0.57852 0.48175 0.82864
 N430 N 0.59236 0.46765 0.85116
 C431 C 0.58491 0.41320 0.88629
 N432 N 0.62036 0.43831 0.90117
 N433 N 0.63376 0.42439 0.92414
 C434 C 0.61227 0.38481 0.93302
 N435 N 0.57688 0.35966 0.91807
 N436 N 0.56343 0.37362 0.89516
 C437 C 0.85961 0.43062 0.86092
 N438 N 0.87603 0.40811 0.85078
 N439 N 0.90396 0.42193 0.82820
 C440 C 0.91658 0.45884 0.81500
 N441 N 0.90015 0.48134 0.82513
 N442 N 0.87215 0.46747 0.84764
 C443 C 0.82908 0.41557 0.88604
 N444 N 0.81104 0.43707 0.89497
 N445 N 0.78363 0.42362 0.91792
 C446 C 0.77333 0.38824 0.93286
 N447 N 0.79137 0.36674 0.92393
 N448 N 0.81869 0.38013 0.90092
 C449 C 0.57144 0.14064 0.86099
 N450 N 0.53247 0.12410 0.85092
 N451 N 0.51834 0.09613 0.82834
 C452 C 0.54264 0.08359 0.81506
 N453 N 0.58161 0.10014 0.82512
 N454 N 0.59577 0.12819 0.84763
 C455 C 0.58694 0.17119 0.88610
 N456 N 0.62651 0.18933 0.89495
 N457 N 0.64050 0.21677 0.91790
 C458 C 0.61541 0.22699 0.93293
 N459 N 0.57584 0.20884 0.92408
 N460 N 0.56188 0.18149 0.90106
   
