data_POSCAR
  _audit_creation_date              2014-09-24
  _audit_creation_method            'ToBaCCo'
  _symmetry_space_group_name_H-M    'P1'
  _symmetry_Int_Tables_number       1
  _symmetry_cell_setting            triclinic
  loop_
  _symmetry_equiv_pos_as_xyz
 x,y,z
_cell_length_a 21.9962
_cell_length_b 21.4755
_cell_length_c 21.9138
_cell_angle_alpha 100.583300
_cell_angle_beta 92.076800
_cell_angle_gamma 97.885400
loop_
  _atom_site_label
  _atom_site_type_symbol
  _atom_site_fract_x
  _atom_site_fract_y
  _atom_site_fract_z
O1 O 0.58944 0.50063 0.04817
 O2 O 0.42328 0.50665 0.03571
 O3 O 0.49210 0.42415 0.06223
 O4 O 0.52165 0.58630 0.02752
 O5 O 0.51735 0.54559 -0.07294
 O6 O 0.48940 0.38284 -0.03809
 O7 O 0.42042 0.46416 -0.06370
 O8 O 0.58646 0.45995 -0.05228
 Cu9 Cu 0.50691 0.50877 0.05342
 Cu10 Cu 0.50322 0.45933 -0.06692
 C11 C 0.61581 0.47762 0.00031
 C12 C 0.39312 0.48689 -0.01637
 C13 C 0.48606 0.37592 0.01811
 C14 C 0.52422 0.59374 -0.02848
 O15 O -0.05821 0.58093 0.51049
 O16 O -0.02837 0.41430 0.48243
 O17 O -0.03970 0.49908 0.58160
 O18 O -0.04704 0.49697 0.41362
 O19 O 0.05334 0.52868 0.41792
 O20 O 0.05968 0.53546 0.58667
 O21 O 0.07161 0.44829 0.49021
 O22 O 0.04104 0.61494 0.51472
 Cu23 Cu -0.05341 0.49423 0.49677
 Cu24 Cu 0.06655 0.53511 0.50294
 C25 C -0.01385 0.62682 0.51700
 C26 C 0.02674 0.40298 0.48149
 C27 C 0.01127 0.51852 0.61285
 C28 C 0.00166 0.51283 0.38748
 O29 O 0.51278 0.03536 0.59986
 O30 O 0.49792 0.05779 0.43680
 O31 O 0.42558 0.06179 0.52810
 O32 O 0.58777 0.04235 0.51174
 O33 O 0.56090 -0.06209 0.48251
 O34 O 0.39738 -0.04188 0.49456
 O35 O 0.47318 -0.04687 0.40594
 O36 O 0.48275 -0.06776 0.56879
 Cu37 Cu 0.50860 0.05964 0.52230
 Cu38 Cu 0.47580 -0.06501 0.48509
 C39 C 0.50136 -0.02042 0.61242
 C40 C 0.48299 0.00894 0.39370
 C41 C 0.38374 0.01383 0.51353
 C42 C 0.60216 -0.01307 0.49440
 C43 C 0.52255 -0.13357 -0.13016
 C44 C 0.50817 -0.07441 -0.13967
 C45 C 0.49096 -0.03137 -0.08929
 C46 C 0.49512 -0.04272 -0.02774
 C47 C 0.51014 -0.10276 -0.01965
 C48 C 0.52244 -0.14862 -0.07058
 C49 C 0.48526 0.00835 0.02700
 C50 C 0.47582 -0.00523 0.08718
 C51 C 0.46928 0.04365 0.13800
 C52 C 0.46928 0.10639 0.12834
 C53 C 0.47592 0.12052 0.06902
 C54 C 0.48695 0.07261 0.01987
 H55 H 0.53377 -0.16809 -0.16920
 H56 H 0.47519 0.01122 -0.09950
 H57 H 0.51248 -0.11513 0.02581
 H58 H 0.47338 -0.05335 0.09582
 H59 H 0.46407 0.14431 0.16706
 H60 H 0.49727 0.08723 -0.02360
 C61 C -0.10708 0.47732 1.10729
 C62 C -0.12690 0.46494 1.04452
 C63 C -0.08372 0.46026 0.99906
 C64 C -0.01995 0.47201 1.01607
 C65 C -0.00114 0.48620 1.08000
 C66 C -0.04444 0.48821 1.12522
 C67 C 0.02665 0.47472 0.96808
 C68 C 0.08841 0.46774 0.98153
 C69 C 0.13380 0.48018 0.94025
 C70 C 0.11672 0.49285 0.88224
 C71 C 0.05538 0.49633 0.86659
 C72 C 0.01092 0.48878 0.90963
 H73 H -0.14057 0.48042 1.14246
 H74 H -0.10068 0.44895 0.95083
 H75 H 0.04691 0.49842 1.09566
 H76 H 0.10245 0.45472 1.02471
 H77 H 0.15136 0.50108 0.84949
 H78 H -0.03519 0.49622 0.89734
 C79 C -0.12981 -0.10723 0.50962
 C80 C -0.07030 -0.12317 0.50576
 C81 C -0.02388 -0.07993 0.48775
 C82 C -0.03227 -0.01640 0.48557
 C83 C -0.09304 -0.00164 0.48943
 C84 C -0.14192 -0.04812 0.49795
 C85 C 0.02253 0.03321 0.48143
 C86 C 0.01560 0.09442 0.46943
 C87 C 0.06695 0.14125 0.46898
 C88 C 0.12619 0.12658 0.47865
 C89 C 0.13444 0.06675 0.49105
 C90 C 0.08315 0.02111 0.49344
 H91 H -0.16720 -0.14113 0.52035
 H92 H 0.01933 -0.09666 0.47741
 H93 H -0.10385 0.04493 0.48523
 H94 H -0.02925 0.10747 0.46168
 H95 H 0.16596 0.16239 0.47815
 H96 H 0.09212 -0.02271 0.50703
 C97 C -0.29592 0.41240 0.98671
 C98 C -0.31859 0.47125 1.00658
 C99 C -0.27828 0.52518 1.03641
 C100 C -0.21626 0.52206 1.04661
 C101 C -0.19252 0.46482 1.02764
 C102 C -0.23209 0.40936 0.99711
 C103 C -0.33545 0.35581 0.95929
 C104 C -0.31242 0.29830 0.94121
 C105 C -0.25001 0.29567 0.95075
 C106 C -0.21009 0.35044 0.97882
 H107 H -0.38445 0.35491 0.95231
 H108 H -0.34328 0.25538 0.92016
 H109 H -0.23254 0.25077 0.93695
 H110 H -0.16215 0.34601 0.98654
 H111 H -0.29507 0.57019 1.05223
 H112 H -0.18641 0.56470 1.07033
 C113 C 0.29736 0.53265 1.01676
 C114 C 0.32921 0.48856 0.97742
 C115 C 0.29530 0.44411 0.92862
 C116 C 0.23221 0.44079 0.91930
 C117 C 0.19989 0.48225 0.95758
 C118 C 0.23211 0.52883 1.00670
 C119 C 0.32848 0.58382 1.06234
 C120 C 0.29643 0.62679 1.09899
 C121 C 0.23307 0.62169 1.09010
 C122 C 0.20120 0.57406 1.04391
 H123 H 0.37777 0.59383 1.06932
 H124 H 0.32119 0.66526 1.13367
 H125 H 0.20860 0.65586 1.11813
 H126 H 0.15236 0.57419 1.03720
 H127 H 0.31750 0.41002 0.89762
 H128 H 0.20825 0.40567 0.88108
 C129 C 0.01479 -0.25401 0.55244
 C130 C -0.02670 -0.30973 0.52319
 C131 C -0.08373 -0.30138 0.49696
 C132 C -0.09722 -0.24113 0.49245
 C133 C -0.05640 -0.18596 0.51802
 C134 C -0.00205 -0.19201 0.55233
 C135 C 0.07064 -0.25754 0.58526
 C136 C 0.10759 -0.20263 0.61754
 C137 C 0.08948 -0.14297 0.61963
 C138 C 0.03497 -0.13757 0.58821
 H139 H 0.08661 -0.30193 0.58844
 H140 H 0.14984 -0.20663 0.64248
 H141 H 0.11748 -0.10066 0.64633
 H142 H 0.02158 -0.09039 0.59371
 H143 H -0.11679 -0.34219 0.47486
 H144 H -0.13928 -0.23801 0.46666
 C145 C 0.01363 0.28908 0.42028
 C146 C 0.03888 0.33627 0.47231
 C147 C 0.07554 0.31946 0.51834
 C148 C 0.08495 0.25636 0.51536
 C149 C 0.05872 0.20805 0.46578
 C150 C 0.02406 0.22442 0.41670
 C151 C -0.02028 0.30504 0.37087
 C152 C -0.04349 0.25841 0.31927
 C153 C -0.03289 0.19543 0.31553
 C154 C 0.00084 0.17844 0.36346
 H155 H -0.02829 0.35366 0.37109
 H156 H -0.06925 0.27137 0.28164
 H157 H -0.05043 0.15964 0.27499
 H158 H 0.00935 0.12935 0.35786
 H159 H 0.09533 0.35519 0.55818
 H160 H 0.11168 0.24481 0.55319
 C161 C 0.54684 0.01141 -0.27676
 C162 C 0.50810 -0.03079 -0.32565
 C163 C 0.47474 -0.08684 -0.31177
 C164 C 0.47552 -0.09965 -0.25188
 C165 C 0.51034 -0.05775 -0.20280
 C166 C 0.54735 -0.00227 -0.21506
 C167 C 0.58862 0.06412 -0.28776
 C168 C 0.62623 0.10397 -0.23960
 C169 C 0.62528 0.09139 -0.17977
 C170 C 0.58728 0.03833 -0.16766
 H171 H 0.59554 0.07451 -0.33340
 H172 H 0.65747 0.14409 -0.24914
 H173 H 0.65544 0.12195 -0.14284
 H174 H 0.59092 0.02890 -0.12102
 H175 H 0.44553 -0.12068 -0.34728
 H176 H 0.44764 -0.14259 -0.24355
 C177 C 0.42487 0.04190 0.30591
 C178 C 0.47580 0.01699 0.32849
 C179 C 0.51976 -0.00300 0.28763
 C180 C 0.51557 0.00403 0.22569
 C181 C 0.46676 0.03041 0.20235
 C182 C 0.41974 0.04774 0.24215
 C183 C 0.37816 0.05989 0.34509
 C184 C 0.32709 0.08214 0.32193
 C185 C 0.32138 0.08657 0.25946
 C186 C 0.36697 0.06937 0.21974
 H187 H 0.38044 0.05644 0.39369
 H188 H 0.29148 0.09541 0.35248
 H189 H 0.28123 0.10311 0.24158
 H190 H 0.35990 0.07214 0.17127
 H191 H 0.55846 -0.02293 0.30418
 H192 H 0.55180 -0.00965 0.19608
 C193 C 0.57614 -0.29013 -0.00915
 C194 C 0.53198 -0.34072 -0.04212
 C195 C 0.49090 -0.32791 -0.08692
 C196 C 0.49014 -0.26578 -0.09662
 C197 C 0.53080 -0.21424 -0.06228
 C198 C 0.57572 -0.22643 -0.01953
 C199 C 0.62179 -0.30163 0.03270
 C200 C 0.66542 -0.25166 0.06408
 C201 C 0.66511 -0.18965 0.05382
 C202 C 0.62112 -0.17701 0.01212
 H203 H 0.62512 -0.34930 0.04065
 H204 H 0.70017 -0.26126 0.09596
 H205 H 0.69959 -0.15124 0.07778
 H206 H 0.62374 -0.12850 0.00419
 H207 H 0.45706 -0.36598 -0.11271
 H208 H 0.45577 -0.25752 -0.12975
 C209 C 0.43098 0.26168 0.00168
 C210 C 0.47737 0.31097 0.03257
 C211 C 0.51835 0.29785 0.07737
 C212 C 0.51615 0.23632 0.08972
 C213 C 0.47268 0.18605 0.05786
 C214 C 0.42850 0.19871 0.01456
 C215 C 0.38589 0.27390 -0.04041
 C216 C 0.34013 0.22508 -0.06983
 C217 C 0.33772 0.16362 -0.05731
 C218 C 0.38102 0.15043 -0.01524
 H219 H 0.38470 0.32128 -0.05017
 H220 H 0.30591 0.23518 -0.10196
 H221 H 0.30166 0.12609 -0.07979
 H222 H 0.37623 0.10243 -0.00567
 H223 H 0.55383 0.33518 0.10153
 H224 H 0.54988 0.22742 0.12313
 C225 C -0.31007 -0.06074 0.43928
 C226 C -0.33210 -0.02049 0.48995
 C227 C -0.29051 0.01321 0.53882
 C228 C -0.22869 0.00522 0.53991
 C229 C -0.20656 -0.03669 0.49215
 C230 C -0.24689 -0.06922 0.44070
 C231 C -0.34882 -0.09138 0.38638
 C232 C -0.32635 -0.13069 0.33704
 C233 C -0.26497 -0.13981 0.33895
 C234 C -0.22537 -0.10923 0.38997
 H235 H -0.39637 -0.08446 0.38180
 H236 H -0.35665 -0.15380 0.29686
 H237 H -0.24775 -0.17015 0.30035
 H238 H -0.17770 -0.11656 0.38882
 H239 H -0.30643 0.04462 0.57757
 H240 H -0.19820 0.03056 0.57923
 C241 C 0.29621 0.06736 0.56288
 C242 C 0.31844 0.02373 0.51499
 C243 C 0.27859 -0.00767 0.46394
 C244 C 0.21892 0.00610 0.45777
 C245 C 0.19715 0.05178 0.50237
 C246 C 0.23522 0.08190 0.55616
 C247 C 0.33250 0.09564 0.61809
 C248 C 0.30998 0.13848 0.66452
 C249 C 0.25088 0.15344 0.65739
 C250 C 0.21354 0.12526 0.60401
 H251 H 0.37788 0.08393 0.62673
 H252 H 0.33836 0.15974 0.70655
 H253 H 0.23359 0.18647 0.69378
 H254 H 0.16742 0.13712 0.60103
 H255 H 0.29462 -0.04123 0.42702
 H256 H 0.18997 -0.01776 0.41679
 C257 C -0.03060 0.56151 1.29796
 C258 C -0.00279 0.51407 1.32093
 C259 C 0.01700 0.46427 1.27963
 C260 C 0.00604 0.45858 1.21579
 C261 C -0.02477 0.50269 1.19195
 C262 C -0.04124 0.55612 1.23277
 C263 C -0.04796 0.61429 1.33846
 C264 C -0.07490 0.66092 1.31514
 C265 C -0.08472 0.65605 1.25123
 C266 C -0.06795 0.60436 1.21022
 H267 H -0.04019 0.62025 1.38824
 H268 H -0.08779 0.70125 1.34679
 H269 H -0.10517 0.69265 1.23331
 H270 H -0.07538 0.60298 1.16088
 H271 H 0.03849 0.42795 1.29704
 H272 H 0.01902 0.41774 1.18487
 C273 C 0.04584 0.57292 0.72347
 C274 C 0.01523 0.51948 0.68024
 C275 C -0.00757 0.46337 0.70085
 C276 C 0.00363 0.45784 0.76235
 C277 C 0.03801 0.50821 0.80468
 C278 C 0.05791 0.56704 0.78616
 C279 C 0.06363 0.63245 0.70601
 C280 C 0.09426 0.68446 0.74883
 C281 C 0.10714 0.67833 0.80993
 C282 C 0.08892 0.62035 0.82877
 H283 H 0.05257 0.63953 0.65970
 H284 H 0.10756 0.72986 0.73469
 H285 H 0.13067 0.71891 0.84308
 H286 H 0.09852 0.61797 0.87701
 H287 H -0.03150 0.42235 0.66839
 H288 H -0.01222 0.41284 0.77639
   
