data_POSCAR
  _audit_creation_date              2014-09-24
  _audit_creation_method            'ToBaCCo'
  _symmetry_space_group_name_H-M    'P1'
  _symmetry_Int_Tables_number       1
  _symmetry_cell_setting            triclinic
  loop_
  _symmetry_equiv_pos_as_xyz
 x,y,z
_cell_length_a 43.1386
_cell_length_b 42.5182
_cell_length_c 46.7270
_cell_angle_alpha 90.030200
_cell_angle_beta 89.955700
_cell_angle_gamma 90.314900
loop_
  _atom_site_label
  _atom_site_type_symbol
  _atom_site_fract_x
  _atom_site_fract_y
  _atom_site_fract_z
C1 C -0.06695 0.30774 0.02495
 C2 C -0.08278 0.30783 -0.00114
 C3 C -0.06676 0.30790 -0.02715
 C4 C -0.03394 0.30793 -0.02733
 C5 C -0.01761 0.30802 -0.00098
 C6 C -0.03414 0.30809 0.02530
 C7 C -0.01743 0.30806 0.05117
 C8 C 0.01483 0.30743 0.05124
 C9 C 0.03163 0.30674 0.02546
 C10 C 0.01532 0.30728 -0.00089
 C11 C -0.01703 0.30742 -0.05310
 C12 C 0.01521 0.30664 -0.05301
 C13 C 0.03188 0.30633 -0.02714
 C14 C 0.06463 0.30464 -0.02673
 C15 C 0.08039 0.30414 -0.00063
 C16 C 0.06433 0.30508 0.02531
 H17 H -0.02921 0.30837 0.07164
 H18 H 0.02650 0.30729 0.07175
 H19 H -0.02862 0.30733 -0.07361
 H20 H 0.02700 0.30608 -0.07347
 H21 H -0.10798 0.30713 -0.00120
 H22 H 0.10550 0.30233 -0.00042
 C23 C 0.56551 0.81460 0.52668
 C24 C 0.58166 0.81456 0.50077
 C25 C 0.56599 0.81508 0.47465
 C26 C 0.53327 0.81593 0.47413
 C27 C 0.51659 0.81595 0.50031
 C28 C 0.53277 0.81532 0.52674
 C29 C 0.51578 0.81496 0.55243
 C30 C 0.48350 0.81481 0.55218
 C31 C 0.46701 0.81504 0.52622
 C32 C 0.48368 0.81585 0.50006
 C33 C 0.51679 0.81627 0.44819
 C34 C 0.48452 0.81625 0.44795
 C35 C 0.46751 0.81584 0.47362
 C36 C 0.43475 0.81499 0.47362
 C37 C 0.41860 0.81413 0.49953
 C38 C 0.43428 0.81402 0.52566
 H39 H 0.52734 0.81459 0.57299
 H40 H 0.47154 0.81435 0.57256
 H41 H 0.52873 0.81639 0.42780
 H42 H 0.47300 0.81633 0.42742
 H43 H 0.60680 0.81339 0.50093
 H44 H 0.39346 0.81288 0.49934
 C45 C 0.93504 0.69167 -0.02621
 C46 C 0.91891 0.69183 -0.00029
 C47 C 0.93463 0.69194 0.02583
 C48 C 0.96737 0.69150 0.02632
 C49 C 0.98404 0.69150 0.00014
 C50 C 0.96781 0.69157 -0.02626
 C51 C 0.98476 0.69201 -0.05196
 C52 C 1.01701 0.69275 -0.05176
 C53 C 1.03360 0.69308 -0.02583
 C54 C 1.01697 0.69219 0.00037
 C55 C 0.98386 0.69154 0.05227
 C56 C 1.01613 0.69207 0.05251
 C57 C 1.03317 0.69272 0.02681
 C58 C 1.06595 0.69434 0.02675
 C59 C 1.08208 0.69526 0.00081
 C60 C 1.06637 0.69473 -0.02533
 H61 H 0.97320 0.69205 -0.07249
 H62 H 1.02887 0.69325 -0.07219
 H63 H 0.97193 0.69128 0.07266
 H64 H 1.02765 0.69218 0.07309
 H65 H 0.89376 0.69260 -0.00044
 H66 H 1.10723 0.69708 0.00097
 C67 C 0.43396 0.18760 0.52512
 C68 C 0.41824 0.18770 0.49901
 C69 C 0.43434 0.18676 0.47308
 C70 C 0.46708 0.18568 0.47302
 C71 C 0.48329 0.18534 0.49942
 C72 C 0.46667 0.18616 0.52562
 C73 C 0.48320 0.18598 0.55155
 C74 C 0.51548 0.18545 0.55175
 C75 C 0.53241 0.18515 0.52603
 C76 C 0.51619 0.18492 0.49963
 C77 C 0.48404 0.18541 0.44732
 C78 C 0.51630 0.18514 0.44750
 C79 C 0.53282 0.18505 0.47342
 C80 C 0.56556 0.18560 0.47390
 C81 C 0.58128 0.18570 0.50000
 C82 C 0.56516 0.18553 0.52592
 H83 H 0.47129 0.18639 0.57196
 H84 H 0.52707 0.18551 0.57229
 H85 H 0.47250 0.18568 0.42680
 H86 H 0.52821 0.18518 0.42710
 H87 H 0.39313 0.18921 0.49885
 H88 H 0.60644 0.18667 0.50015
 C89 C 0.68593 0.06610 0.02587
 C90 C 0.68650 0.08211 -0.00021
 C91 C 0.68653 0.06580 -0.02618
 C92 C 0.68561 0.03252 -0.02631
 C93 C 0.68518 0.01601 0.00008
 C94 C 0.68538 0.03287 0.02629
 C95 C 0.68553 0.01609 0.05219
 C96 C 0.68569 -0.01662 0.05240
 C97 C 0.68569 -0.03389 0.02670
 C98 C 0.68529 -0.01741 0.00028
 C99 C 0.68553 0.01530 -0.05204
 C100 C 0.68560 -0.01742 -0.05186
 C101 C 0.68575 -0.03428 -0.02593
 C102 C 0.68678 -0.06753 -0.02546
 C103 C 0.68703 -0.08350 0.00067
 C104 C 0.68657 -0.06716 0.02662
 H105 H 0.68582 0.02813 0.07259
 H106 H 0.68608 -0.02829 0.07296
 H107 H 0.68554 0.02705 -0.07260
 H108 H 0.68570 -0.02945 -0.07229
 H109 H 0.68761 0.10765 -0.00022
 H110 H 0.68830 -0.10903 0.00081
 C111 C 0.17812 0.43220 0.52612
 C112 C 0.17920 0.41630 0.49999
 C113 C 0.17923 0.43267 0.47410
 C114 C 0.17777 0.46586 0.47403
 C115 C 0.17672 0.48228 0.50045
 C116 C 0.17691 0.46540 0.52663
 C117 C 0.17641 0.48217 0.55257
 C118 C 0.17608 0.51491 0.55281
 C119 C 0.17615 0.53211 0.52713
 C120 C 0.17627 0.51566 0.50070
 C121 C 0.17783 0.48305 0.44833
 C122 C 0.17728 0.51579 0.44857
 C123 C 0.17675 0.53255 0.47452
 C124 C 0.17720 0.56577 0.47507
 C125 C 0.17702 0.58170 0.50121
 C126 C 0.17662 0.56534 0.52710
 H127 H 0.17654 0.47011 0.57294
 H128 H 0.17597 0.52664 0.57335
 H129 H 0.17845 0.47130 0.42777
 H130 H 0.17751 0.52789 0.42819
 H131 H 0.18079 0.39082 0.49982
 H132 H 0.17797 0.60723 0.50140
 C133 C 0.31317 0.93274 -0.02647
 C134 C 0.31274 0.91654 -0.00045
 C135 C 0.31276 0.93267 0.02558
 C136 C 0.31337 0.96588 0.02594
 C137 C 0.31401 0.98263 -0.00030
 C138 C 0.31390 0.96603 -0.02666
 C139 C 0.31408 0.98317 -0.05241
 C140 C 0.31426 1.01590 -0.05229
 C141 C 0.31420 1.03280 -0.02643
 C142 C 0.31412 1.01605 -0.00018
 C143 C 0.31290 0.98278 0.05180
 C144 C 0.31293 1.01550 0.05192
 C145 C 0.31349 1.03265 0.02617
 C146 C 0.31300 1.06593 0.02597
 C147 C 0.31328 1.08213 -0.00004
 C148 C 0.31378 1.06601 -0.02608
 H149 H 0.31388 0.97140 -0.07293
 H150 H 0.31422 1.02784 -0.07271
 H151 H 0.31227 0.97083 0.07223
 H152 H 0.31232 1.02727 0.07244
 H153 H 0.31175 0.89100 -0.00040
 H154 H 0.31247 1.10766 -0.00010
 C155 C 0.82100 0.43345 0.47393
 C156 C 0.82069 0.41735 0.49999
 C157 C 0.82042 0.43356 0.52600
 C158 C 0.82071 0.46680 0.52620
 C159 C 0.82111 0.48342 0.49988
 C160 C 0.82116 0.46669 0.47361
 C161 C 0.82099 0.48363 0.44779
 C162 C 0.82072 0.51637 0.44774
 C163 C 0.82065 0.53344 0.47351
 C164 C 0.82090 0.51682 0.49983
 C165 C 0.82022 0.48386 0.55196
 C166 C 0.82007 0.51658 0.55191
 C167 C 0.82037 0.53354 0.52610
 C168 C 0.81975 0.56676 0.52581
 C169 C 0.81964 0.58286 0.49976
 C170 C 0.81997 0.56667 0.47374
 H171 H 0.82088 0.47171 0.42735
 H172 H 0.82042 0.52820 0.42727
 H173 H 0.81981 0.47205 0.57242
 H174 H 0.81954 0.52848 0.57233
 H175 H 0.82009 0.39181 0.50002
 H176 H 0.81873 0.60838 0.49973
 O177 O 0.24676 0.20210 0.23086
 O178 O 0.21652 0.25772 0.28438
 O179 O 0.20343 0.24377 0.23110
 O180 O 0.25980 0.21574 0.28419
 O181 O 0.29348 0.25174 0.26963
 O182 O 0.23711 0.27967 0.21633
 O183 O 0.25014 0.29367 0.26963
 O184 O 0.28049 0.23805 0.21630
 Cu185 Cu 0.22823 0.22622 0.25915
 Cu186 Cu 0.26871 0.26943 0.24153
 C187 C 0.26836 0.21091 0.21421
 C188 C 0.22856 0.28493 0.28631
 C189 C 0.21098 0.26600 0.21437
 C190 C 0.28597 0.22929 0.28616
 O191 O 0.78461 0.74365 0.28521
 O192 O 0.75282 0.79834 0.23179
 O193 O 0.74057 0.78490 0.28533
 O194 O 0.79644 0.75695 0.23158
 O195 O 0.76299 0.72041 0.21769
 O196 O 0.70709 0.74839 0.27144
 O197 O 0.71937 0.76182 0.21789
 O198 O 0.75115 0.70714 0.27134
 Cu199 Cu 0.77197 0.77464 0.25992
 Cu200 Cu 0.73175 0.73075 0.24324
 C201 C 0.77299 0.71630 0.28753
 C202 C 0.73114 0.78909 0.21545
 C203 C 0.71456 0.77108 0.28770
 C204 C 0.78893 0.73434 0.21522
 O205 O 0.79663 0.24415 0.23051
 O206 O 0.74074 0.21680 0.28480
 O207 O 0.75226 0.20314 0.23119
 O208 O 0.78570 0.25752 0.28431
 O209 O 0.75280 0.29434 0.27079
 O210 O 0.71939 0.23996 0.21758
 O211 O 0.70785 0.25359 0.27120
 O212 O 0.76375 0.28099 0.21698
 Cu213 Cu 0.77214 0.22671 0.25912
 Cu214 Cu 0.73262 0.27095 0.24282
 C215 C 0.78936 0.26680 0.21422
 C216 C 0.71501 0.23084 0.28739
 C217 C 0.73060 0.21258 0.21505
 C218 C 0.77462 0.28495 0.28678
 O219 O 0.27922 0.76118 0.21853
 O220 O 0.24762 0.70630 0.27207
 O221 O 0.23523 0.71981 0.21858
 O222 O 0.29142 0.74828 0.27211
 O223 O 0.25807 0.78452 0.28607
 O224 O 0.20190 0.75600 0.23271
 O225 O 0.21432 0.74251 0.28620
 O226 O 0.24586 0.79742 0.23251
 Cu227 Cu 0.26674 0.73020 0.24396
 Cu228 Cu 0.22666 0.77374 0.26085
 C229 C 0.26749 0.78833 0.21611
 C230 C 0.22596 0.71529 0.28846
 C231 C 0.20934 0.73357 0.21622
 C232 C 0.28408 0.77099 0.28833
 O233 O 0.78383 0.25732 0.71504
 O234 O 0.75292 0.20186 0.76846
 O235 O 0.74014 0.21524 0.71506
 O236 O 0.79596 0.24433 0.76864
 O237 O 0.76213 0.28007 0.78268
 O238 O 0.70630 0.25089 0.72928
 O239 O 0.71913 0.23753 0.78271
 O240 O 0.74996 0.29303 0.72908
 Cu241 Cu 0.77161 0.22609 0.74034
 Cu242 Cu 0.73094 0.26898 0.75732
 C243 C 0.77186 0.28438 0.71277
 C244 C 0.73126 0.21053 0.78498
 C245 C 0.71396 0.22846 0.71288
 C246 C 0.78823 0.26676 0.78504
 O247 O 0.29232 0.74695 0.72921
 O248 O 0.23563 0.72001 0.78292
 O249 O 0.24764 0.70596 0.72946
 O250 O 0.28020 0.76077 0.78269
 O251 O 0.24751 0.79746 0.76844
 O252 O 0.21496 0.74265 0.71519
 O253 O 0.20295 0.75670 0.76863
 O254 O 0.25964 0.78364 0.71496
 Cu255 Cu 0.26726 0.72970 0.75746
 Cu256 Cu 0.22798 0.77380 0.74032
 C257 C 0.28537 0.76956 0.71277
 C258 C 0.20998 0.73424 0.78521
 C259 C 0.22609 0.71519 0.71309
 C260 C 0.26892 0.78815 0.78493
 O261 O 0.24747 0.29376 0.72939
 O262 O 0.28058 0.23995 0.78280
 O263 O 0.29272 0.25402 0.72937
 O264 O 0.23560 0.27983 0.78290
 O265 O 0.20337 0.24234 0.76867
 O266 O 0.26051 0.21653 0.71511
 O267 O 0.24835 0.20247 0.76855
 O268 O 0.21524 0.25628 0.71515
 Cu269 Cu 0.26735 0.27069 0.75752
 Cu270 Cu 0.22862 0.22562 0.74041
 C271 C 0.22609 0.28396 0.71298
 C272 C 0.26964 0.21231 0.78503
 C273 C 0.28606 0.23124 0.71292
 C274 C 0.21008 0.26508 0.78516
 O275 O 0.75048 0.70669 0.72896
 O276 O 0.71955 0.76130 0.78301
 O277 O 0.70681 0.74830 0.72945
 O278 O 0.76275 0.71942 0.78261
 O279 O 0.79647 0.75577 0.76886
 O280 O 0.74055 0.78453 0.71551
 O281 O 0.75322 0.79760 0.76904
 O282 O 0.78426 0.74296 0.71518
 Cu283 Cu 0.73147 0.73027 0.75737
 Cu284 Cu 0.77201 0.77387 0.74071
 C285 C 0.77233 0.71577 0.71271
 C286 C 0.73158 0.78846 0.78548
 C287 C 0.71441 0.77096 0.71322
 C288 C 0.78883 0.73307 0.78506
 C289 C 0.29229 0.15574 0.14619
 C290 C 0.28471 0.16742 0.11869
 C291 C 0.29047 0.14879 0.09402
 C292 C 0.30381 0.11860 0.09697
 C293 C 0.31207 0.10725 0.12439
 C294 C 0.30619 0.12583 0.14909
 C295 C 0.31431 0.11385 0.17630
 C296 C 0.32795 0.08437 0.17903
 C297 C 0.33383 0.06625 0.15487
 C298 C 0.32607 0.07747 0.12781
 C299 C 0.28252 0.16089 0.06677
 C300 C 0.26935 0.19058 0.06398
 C301 C 0.26379 0.20883 0.08810
 C302 C 0.27124 0.19749 0.11519
 C303 C 0.30807 0.09902 0.07183
 C304 C 0.31078 0.08323 0.05054
 C305 C 0.28503 0.17434 0.17136
 C306 C 0.27802 0.19054 0.19149
 H307 H 0.31027 0.12714 0.19569
 H308 H 0.33404 0.07555 0.20001
 H309 H 0.34451 0.04340 0.15709
 H310 H 0.33129 0.06265 0.10964
 H311 H 0.28648 0.14764 0.04735
 H312 H 0.26344 0.19947 0.04299
 H313 H 0.25353 0.23188 0.08583
 H314 H 0.26638 0.21257 0.13328
 C315 C 0.79902 0.65969 0.64609
 C316 C 0.79852 0.67285 0.61825
 C317 C 0.80465 0.65358 0.59406
 C318 C 0.81132 0.62127 0.59783
 C319 C 0.81283 0.60836 0.62573
 C320 C 0.80654 0.62760 0.64992
 C321 C 0.80776 0.61406 0.67756
 C322 C 0.81512 0.58243 0.68121
 C323 C 0.82141 0.56367 0.65756
 C324 C 0.82034 0.57638 0.63010
 C325 C 0.80375 0.66722 0.56643
 C326 C 0.79710 0.69899 0.56281
 C327 C 0.79118 0.71785 0.58647
 C328 C 0.79177 0.70505 0.61391
 C329 C 0.81530 0.60123 0.57291
 C330 C 0.81775 0.58519 0.55174
 C331 C 0.79064 0.67896 0.67055
 C332 C 0.78280 0.69544 0.69025
 H333 H 0.80314 0.62776 0.69660
 H334 H 0.81600 0.57245 0.70250
 H335 H 0.82718 0.53913 0.66049
 H336 H 0.82563 0.56096 0.61241
 H337 H 0.80829 0.65355 0.54735
 H338 H 0.79658 0.70904 0.54153
 H339 H 0.78610 0.74255 0.58355
 H340 H 0.78699 0.72070 0.63162
 C341 C 0.70655 0.84352 0.14721
 C342 C 0.69227 0.87327 0.14994
 C343 C 0.68656 0.89176 0.12517
 C344 C 0.69535 0.88047 0.09784
 C345 C 0.70907 0.85044 0.09506
 C346 C 0.71465 0.83189 0.11980
 C347 C 0.72850 0.80198 0.11645
 C348 C 0.73653 0.79071 0.08946
 C349 C 0.73119 0.80890 0.06529
 C350 C 0.71762 0.83842 0.06792
 C351 C 0.67223 0.92140 0.12842
 C352 C 0.66396 0.93257 0.15540
 C353 C 0.66966 0.91455 0.17963
 C354 C 0.68363 0.88520 0.17706
 C355 C 0.69123 0.89998 0.07264
 C356 C 0.68864 0.91568 0.05129
 C357 C 0.71385 0.82513 0.17247
 C358 C 0.72104 0.80913 0.19267
 H359 H 0.73324 0.78697 0.13460
 H360 H 0.74708 0.76778 0.08731
 H361 H 0.73760 0.80009 0.04437
 H362 H 0.71387 0.85163 0.04845
 H363 H 0.66715 0.93615 0.11020
 H364 H 0.65306 0.95533 0.15750
 H365 H 0.66318 0.92333 0.20053
 H366 H 0.68753 0.87198 0.19649
 C367 C 0.19903 0.33910 0.64603
 C368 C 0.18619 0.36940 0.64973
 C369 C 0.18007 0.38853 0.62545
 C370 C 0.18696 0.37727 0.59766
 C371 C 0.19902 0.34663 0.59392
 C372 C 0.20504 0.32747 0.61817
 C373 C 0.21725 0.29697 0.61388
 C374 C 0.22325 0.28570 0.58644
 C375 C 0.21745 0.30447 0.56273
 C376 C 0.20549 0.33460 0.56629
 C377 C 0.16728 0.41875 0.62965
 C378 C 0.16083 0.42984 0.65707
 C379 C 0.16690 0.41119 0.68082
 C380 C 0.17943 0.38128 0.67732
 C381 C 0.18275 0.39743 0.57292
 C382 C 0.18016 0.41362 0.55190
 C383 C 0.20722 0.32022 0.67075
 C384 C 0.21516 0.30399 0.69054
 H385 H 0.22222 0.28147 0.63164
 H386 H 0.23254 0.26231 0.58356
 H387 H 0.22222 0.29565 0.54145
 H388 H 0.20129 0.34825 0.54716
 H389 H 0.16202 0.43403 0.61184
 H390 H 0.15105 0.45303 0.65990
 H391 H 0.16184 0.41991 0.70208
 H392 H 0.18368 0.36758 0.69641
 C393 C 0.84470 0.28683 0.14554
 C394 C 0.84034 0.26780 0.12095
 C395 C 0.85865 0.27313 0.09612
 C396 C 0.88134 0.29733 0.09604
 C397 C 0.88566 0.31639 0.12059
 C398 C 0.86724 0.31116 0.14540
 C399 C 0.87191 0.33053 0.16966
 C400 C 0.89418 0.35440 0.16943
 C401 C 0.91224 0.35947 0.14520
 C402 C 0.90814 0.34075 0.12099
 C403 C 0.85380 0.25386 0.07177
 C404 C 0.83165 0.22989 0.07203
 C405 C 0.81388 0.22455 0.09637
 C406 C 0.81798 0.24327 0.12057
 C407 C 0.90039 0.30220 0.07077
 C408 C 0.91589 0.30530 0.04946
 C409 C 0.82594 0.28113 0.17085
 C410 C 0.80968 0.27529 0.19118
 H411 H 0.85842 0.32745 0.18901
 H412 H 0.89745 0.36902 0.18817
 H413 H 0.92952 0.37803 0.14514
 H414 H 0.92272 0.34559 0.10263
 H415 H 0.86706 0.25705 0.05232
 H416 H 0.82830 0.21534 0.05325
 H417 H 0.79685 0.20577 0.09652
 H418 H 0.80349 0.23821 0.13893
 C419 C 0.34250 0.79076 0.64565
 C420 C 0.36878 0.81068 0.64806
 C421 C 0.38787 0.81634 0.62375
 C422 C 0.38049 0.80211 0.59720
 C423 C 0.35413 0.78230 0.59477
 C424 C 0.33511 0.77656 0.61907
 C425 C 0.30900 0.75646 0.61613
 C426 C 0.30191 0.74246 0.58996
 C427 C 0.32043 0.74819 0.56617
 C428 C 0.34626 0.76785 0.56841
 C429 C 0.41410 0.83620 0.62668
 C430 C 0.42125 0.85013 0.65288
 C431 C 0.40256 0.84464 0.67663
 C432 C 0.37659 0.82515 0.67437
 C433 C 0.40013 0.80736 0.57241
 C434 C 0.41596 0.81089 0.55138
 C435 C 0.32311 0.78447 0.67043
 C436 C 0.30630 0.77827 0.69028
 H437 H 0.29382 0.75128 0.63398
 H438 H 0.28197 0.72705 0.58815
 H439 H 0.31480 0.73729 0.54587
 H440 H 0.35996 0.77153 0.54929
 H441 H 0.42932 0.84116 0.60881
 H442 H 0.44141 0.86527 0.65476
 H443 H 0.40820 0.85553 0.69693
 H444 H 0.36274 0.82156 0.69343
 C445 C 0.15358 0.71421 0.14780
 C446 C 0.15667 0.73476 0.12408
 C447 C 0.13832 0.72986 0.09923
 C448 C 0.11687 0.70454 0.09826
 C449 C 0.11372 0.68405 0.12197
 C450 C 0.13218 0.68887 0.14681
 C451 C 0.12869 0.66808 0.17023
 C452 C 0.10752 0.64322 0.16917
 C453 C 0.08944 0.63853 0.14491
 C454 C 0.09241 0.65864 0.12150
 C455 C 0.14188 0.75065 0.07577
 C456 C 0.16282 0.77569 0.07691
 C457 C 0.18062 0.78061 0.10128
 C458 C 0.17779 0.76040 0.12461
 C459 C 0.09802 0.69986 0.07287
 C460 C 0.08276 0.69683 0.05143
 C461 C 0.17250 0.71940 0.17306
 C462 C 0.18890 0.72502 0.19332
 H463 H 0.14223 0.67082 0.18957
 H464 H 0.10513 0.62753 0.18729
 H465 H 0.07302 0.61920 0.14420
 H466 H 0.07785 0.65406 0.10310
 H467 H 0.12852 0.74786 0.05633
 H468 H 0.16517 0.79141 0.05881
 H469 H 0.19670 0.80021 0.10213
 H470 H 0.19226 0.76519 0.14302
 C471 C 0.65723 0.20576 0.64595
 C472 C 0.66677 0.21639 0.61857
 C473 C 0.64757 0.21091 0.59437
 C474 C 0.61890 0.19494 0.59767
 C475 C 0.60949 0.18404 0.62497
 C476 C 0.62874 0.18946 0.64919
 C477 C 0.61881 0.17847 0.67628
 C478 C 0.59067 0.16257 0.67936
 C479 C 0.57186 0.15727 0.65568
 C480 C 0.58105 0.16783 0.62873
 C481 C 0.65759 0.22179 0.56722
 C482 C 0.68567 0.23776 0.56412
 C483 C 0.70438 0.24323 0.58780
 C484 C 0.69520 0.23269 0.61475
 C485 C 0.59897 0.19050 0.57298
 C486 C 0.58313 0.18773 0.55189
 C487 C 0.67654 0.21239 0.67068
 C488 C 0.69326 0.21903 0.69046
 H489 H 0.63268 0.18203 0.69531
 H490 H 0.58341 0.15430 0.70024
 H491 H 0.55002 0.14490 0.65818
 H492 H 0.56568 0.16313 0.61092
 H493 H 0.64387 0.21812 0.54813
 H494 H 0.69294 0.24594 0.54322
 H495 H 0.72612 0.25573 0.58530
 H496 H 0.71063 0.23750 0.63248
 C497 C 0.70943 0.15456 0.85315
 C498 C 0.72938 0.15720 0.87712
 C499 C 0.72374 0.13868 0.90190
 C500 C 0.69832 0.11747 0.90253
 C501 C 0.67849 0.11468 0.87852
 C502 C 0.68404 0.13333 0.85376
 C503 C 0.66392 0.13016 0.83002
 C504 C 0.63904 0.10911 0.83070
 C505 C 0.63365 0.09084 0.85488
 C506 C 0.65307 0.09350 0.87860
 C507 C 0.74396 0.14180 0.92563
 C508 C 0.76915 0.16242 0.92479
 C509 C 0.77480 0.18036 0.90049
 C510 C 0.75516 0.17799 0.87692
 C511 C 0.69294 0.09841 0.92783
 C512 C 0.68943 0.08293 0.94921
 C513 C 0.71539 0.17367 0.82798
 C514 C 0.72173 0.19016 0.80780
 H515 H 0.66724 0.14384 0.81073
 H516 H 0.62387 0.10696 0.81235
 H517 H 0.61431 0.07451 0.85528
 H518 H 0.64796 0.07881 0.89693
 H519 H 0.74059 0.12832 0.94503
 H520 H 0.78443 0.16443 0.94308
 H521 H 0.79454 0.19617 0.89987
 H522 H 0.76054 0.19254 0.85857
 C523 C 0.20070 0.65920 0.35557
 C524 C 0.21124 0.66857 0.38300
 C525 C 0.20499 0.64933 0.40719
 C526 C 0.18832 0.62078 0.40381
 C527 C 0.17744 0.61161 0.37646
 C528 C 0.18365 0.63090 0.35225
 C529 C 0.17269 0.62119 0.32510
 C530 C 0.15608 0.59319 0.32194
 C531 C 0.15002 0.57433 0.34561
 C532 C 0.16051 0.58332 0.37262
 C533 C 0.21585 0.65914 0.43439
 C534 C 0.23251 0.68709 0.43757
 C535 C 0.23872 0.70586 0.41390
 C536 C 0.22823 0.69686 0.38689
 C537 C 0.18323 0.60060 0.42843
 C538 C 0.17995 0.58439 0.44937
 C539 C 0.20825 0.67840 0.33082
 C540 C 0.21564 0.69491 0.31098
 H541 H 0.17683 0.63511 0.30608
 H542 H 0.14787 0.58610 0.30101
 H543 H 0.13711 0.55260 0.34303
 H544 H 0.15517 0.56793 0.39040
 H545 H 0.21160 0.64537 0.45348
 H546 H 0.24067 0.69419 0.45851
 H547 H 0.25174 0.72750 0.41646
 H548 H 0.23362 0.71233 0.36917
 C549 C 0.29382 0.84285 0.85309
 C550 C 0.30793 0.87283 0.85031
 C551 C 0.31357 0.89146 0.87507
 C552 C 0.30487 0.88007 0.90240
 C553 C 0.29129 0.84983 0.90523
 C554 C 0.28582 0.83113 0.88051
 C555 C 0.27214 0.80099 0.88389
 C556 C 0.26416 0.78966 0.91090
 C557 C 0.26937 0.80801 0.93505
 C558 C 0.28278 0.83775 0.93238
 C559 C 0.32773 0.92134 0.87178
 C560 C 0.33589 0.93261 0.84479
 C561 C 0.33027 0.91444 0.82058
 C562 C 0.31647 0.88485 0.82318
 C563 C 0.30888 0.89967 0.92758
 C564 C 0.31131 0.91545 0.94892
 C565 C 0.28649 0.82433 0.82785
 C566 C 0.27921 0.80825 0.80767
 H567 H 0.26751 0.78584 0.86577
 H568 H 0.25373 0.76656 0.91308
 H569 H 0.26301 0.79915 0.95598
 H570 H 0.28644 0.85108 0.95183
 H571 H 0.33274 0.93621 0.88999
 H572 H 0.34664 0.95555 0.84266
 H573 H 0.33666 0.92329 0.79966
 H574 H 0.31263 0.87153 0.80376
 C575 C 0.80302 0.34043 0.35334
 C576 C 0.81243 0.37211 0.34965
 C577 C 0.81842 0.39130 0.37399
 C578 C 0.81467 0.37875 0.40185
 C579 C 0.80652 0.34669 0.40551
 C580 C 0.80078 0.32745 0.38119
 C581 C 0.79268 0.29546 0.38540
 C582 C 0.79040 0.28285 0.41284
 C583 C 0.79579 0.30172 0.43663
 C584 C 0.80374 0.33329 0.43314
 C585 C 0.82789 0.42286 0.36977
 C586 C 0.83120 0.43521 0.34231
 C587 C 0.82518 0.41650 0.31852
 C588 C 0.81589 0.38528 0.32202
 C589 C 0.81793 0.39889 0.42679
 C590 C 0.81974 0.41498 0.44799
 C591 C 0.79426 0.32146 0.32875
 C592 C 0.78590 0.30516 0.30907
 H593 H 0.78825 0.27981 0.36758
 H594 H 0.78442 0.25829 0.41566
 H595 H 0.79391 0.29183 0.45791
 H596 H 0.80788 0.34695 0.45232
 H597 H 0.83306 0.43821 0.38760
 H598 H 0.83852 0.45940 0.33947
 H599 H 0.82778 0.42619 0.29723
 H600 H 0.81163 0.37158 0.30289
 C601 C 0.15339 0.28373 0.85308
 C602 C 0.15888 0.26609 0.87827
 C603 C 0.14032 0.27113 0.90297
 C604 C 0.11628 0.29366 0.90231
 C605 C 0.11073 0.31122 0.87711
 C606 C 0.12937 0.30627 0.85242
 C607 C 0.12342 0.32412 0.82750
 C608 C 0.09970 0.34624 0.82697
 C609 C 0.08145 0.35105 0.85109
 C610 C 0.08678 0.33380 0.87594
 C611 C 0.14630 0.25326 0.92792
 C612 C 0.16984 0.23096 0.92841
 C613 C 0.18789 0.22591 0.90422
 C614 C 0.18264 0.24325 0.87942
 C615 C 0.09723 0.29848 0.92753
 C616 C 0.08175 0.30176 0.94880
 C617 C 0.17256 0.27846 0.82799
 C618 C 0.18923 0.27304 0.80789
 H619 H 0.13700 0.32116 0.80821
 H620 H 0.09546 0.35971 0.80773
 H621 H 0.06305 0.36825 0.85056
 H622 H 0.07198 0.33837 0.89417
 H623 H 0.13286 0.25628 0.94729
 H624 H 0.17404 0.21746 0.94765
 H625 H 0.20601 0.20843 0.90466
 H626 H 0.19737 0.23845 0.86119
 C627 C 0.65807 0.79351 0.35480
 C628 C 0.63081 0.81162 0.35191
 C629 C 0.61171 0.81726 0.37618
 C630 C 0.62005 0.80482 0.40317
 C631 C 0.64752 0.78703 0.40613
 C632 C 0.66655 0.78131 0.38188
 C633 C 0.69378 0.76323 0.38535
 C634 C 0.70193 0.75115 0.41199
 C635 C 0.68336 0.75682 0.43573
 C636 C 0.65646 0.77454 0.43297
 C637 C 0.58448 0.83526 0.37276
 C638 C 0.57634 0.84738 0.34611
 C639 C 0.59504 0.84191 0.32240
 C640 C 0.62199 0.82423 0.32514
 C641 C 0.60023 0.80962 0.42787
 C642 C 0.58430 0.81266 0.44888
 C643 C 0.67724 0.78682 0.33002
 C644 C 0.69387 0.78024 0.31018
 H645 H 0.70904 0.75819 0.36756
 H646 H 0.72273 0.73728 0.41422
 H647 H 0.68982 0.74742 0.45639
 H648 H 0.64280 0.77829 0.45209
 H649 H 0.56925 0.84019 0.39060
 H650 H 0.55543 0.86111 0.34387
 H651 H 0.58863 0.85140 0.30175
 H652 H 0.63581 0.82060 0.30609
 C653 C 0.84448 0.70989 0.85251
 C654 C 0.83223 0.71511 0.88024
 C655 C 0.85098 0.70982 0.90475
 C656 C 0.88186 0.69926 0.90141
 C657 C 0.89381 0.69320 0.87373
 C658 C 0.87509 0.69863 0.84920
 C659 C 0.88764 0.69271 0.82174
 C660 C 0.91781 0.68165 0.81861
 C661 C 0.93607 0.67623 0.84259
 C662 C 0.92431 0.68189 0.86989
 C663 C 0.83828 0.71543 0.93223
 C664 C 0.80790 0.72585 0.93540
 C665 C 0.78953 0.73089 0.91145
 C666 C 0.80145 0.72573 0.88414
 C667 C 0.90143 0.69561 0.92647
 C668 C 0.91709 0.69339 0.94774
 C669 C 0.82570 0.71697 0.82756
 C670 C 0.80935 0.72377 0.80760
 H671 H 0.87428 0.69648 0.80247
 H672 H 0.92705 0.67721 0.79745
 H673 H 0.95946 0.66757 0.84005
 H674 H 0.93929 0.67715 0.88789
 H675 H 0.85160 0.71174 0.95153
 H676 H 0.79856 0.72999 0.95657
 H677 H 0.76594 0.73899 0.91402
 H678 H 0.78624 0.73008 0.86619
 C679 C 0.34271 0.20578 0.35268
 C680 C 0.33012 0.20809 0.38061
 C681 C 0.34923 0.20251 0.40482
 C682 C 0.38082 0.19462 0.40097
 C683 C 0.39318 0.19148 0.37304
 C684 C 0.37409 0.19719 0.34882
 C685 C 0.38705 0.19430 0.32112
 C686 C 0.41799 0.18592 0.31744
 C687 C 0.43661 0.18020 0.34111
 C688 C 0.42445 0.18290 0.36864
 C689 C 0.33616 0.20518 0.43252
 C690 C 0.30510 0.21307 0.43619
 C691 C 0.28641 0.21846 0.41252
 C692 C 0.29865 0.21611 0.38501
 C693 C 0.40065 0.19087 0.42584
 C694 C 0.41641 0.18858 0.44703
 C695 C 0.32348 0.21314 0.32812
 C696 C 0.30681 0.22005 0.30844
 H697 H 0.37343 0.19842 0.30206
 H698 H 0.42754 0.18381 0.29610
 H699 H 0.46061 0.17363 0.33815
 H700 H 0.43975 0.17805 0.38637
 H701 H 0.34973 0.20113 0.45162
 H702 H 0.29550 0.21499 0.45753
 H703 H 0.26229 0.22458 0.41548
 H704 H 0.28316 0.22058 0.36729
 C705 C 0.70919 0.84337 0.85409
 C706 C 0.68460 0.86527 0.85430
 C707 C 0.67902 0.88379 0.87912
 C708 C 0.69801 0.88017 0.90358
 C709 C 0.72251 0.85814 0.90342
 C710 C 0.72818 0.83976 0.87858
 C711 C 0.75307 0.81815 0.87885
 C712 C 0.77180 0.81486 0.90292
 C713 C 0.76611 0.83267 0.92727
 C714 C 0.74177 0.85407 0.92766
 C715 C 0.65445 0.90569 0.87878
 C716 C 0.63586 0.90917 0.85461
 C717 C 0.64127 0.89101 0.83037
 C718 C 0.66534 0.86928 0.83010
 C719 C 0.69284 0.89938 0.92881
 C720 C 0.68951 0.91505 0.95008
 C721 C 0.71540 0.82465 0.82875
 C722 C 0.72192 0.80849 0.80845
 H723 H 0.75843 0.80366 0.86047
 H724 H 0.79087 0.79844 0.90265
 H725 H 0.78068 0.82995 0.94595
 H726 H 0.73831 0.86740 0.94712
 H727 H 0.64934 0.92031 0.89713
 H728 H 0.61716 0.92604 0.85470
 H729 H 0.62675 0.89380 0.81167
 H730 H 0.66870 0.85571 0.81075
 C731 C 0.20523 0.34158 0.35352
 C732 C 0.18358 0.36639 0.35160
 C733 C 0.17744 0.38544 0.37596
 C734 C 0.19290 0.37947 0.40209
 C735 C 0.21453 0.35462 0.40402
 C736 C 0.22075 0.33565 0.37967
 C737 C 0.24264 0.31108 0.38210
 C738 C 0.25797 0.30548 0.40782
 C739 C 0.25180 0.32396 0.43165
 C740 C 0.23034 0.34825 0.42992
 C741 C 0.15586 0.41023 0.37351
 C742 C 0.14073 0.41603 0.34772
 C743 C 0.14669 0.39737 0.32392
 C744 C 0.16785 0.37280 0.32571
 C745 C 0.18696 0.39895 0.42699
 C746 C 0.18289 0.41462 0.44815
 C747 C 0.21202 0.32225 0.32868
 C748 C 0.21883 0.30556 0.30881
 H749 H 0.24824 0.29599 0.36419
 H750 H 0.27476 0.28673 0.40924
 H751 H 0.26375 0.31949 0.45160
 H752 H 0.22638 0.36198 0.44907
 H753 H 0.15047 0.42537 0.39145
 H754 H 0.12431 0.43511 0.34620
 H755 H 0.13486 0.40198 0.30394
 H756 H 0.17175 0.35892 0.30664
 C757 C 0.29552 0.15779 0.85277
 C758 C 0.29000 0.17018 0.88045
 C759 C 0.29554 0.15135 0.90501
 C760 C 0.30659 0.12025 0.90175
 C761 C 0.31298 0.10819 0.87413
 C762 C 0.30732 0.12699 0.84955
 C763 C 0.31345 0.11430 0.82214
 C764 C 0.32495 0.08391 0.81909
 C765 C 0.33063 0.06558 0.84314
 C766 C 0.32478 0.07748 0.87039
 C767 C 0.28962 0.16418 0.93244
 C768 C 0.27860 0.19474 0.93552
 C769 C 0.27322 0.21316 0.91150
 C770 C 0.27874 0.20114 0.88424
 C771 C 0.31017 0.10043 0.92681
 C772 C 0.31226 0.08445 0.94801
 C773 C 0.28782 0.17641 0.82776
 C774 C 0.28025 0.19244 0.80771
 H775 H 0.30948 0.12771 0.80282
 H776 H 0.32953 0.07455 0.79797
 H777 H 0.33964 0.04202 0.84067
 H778 H 0.32973 0.06244 0.88844
 H779 H 0.29352 0.15080 0.95179
 H780 H 0.27423 0.20417 0.95665
 H781 H 0.26461 0.23688 0.91399
 H782 H 0.27414 0.21640 0.86623
 C783 C 0.80022 0.66008 0.35378
 C784 C 0.79845 0.67285 0.38174
 C785 C 0.80443 0.65347 0.40586
 C786 C 0.81222 0.62144 0.40190
 C787 C 0.81521 0.60901 0.37392
 C788 C 0.80907 0.62836 0.34978
 C789 C 0.81181 0.61530 0.32204
 C790 C 0.82050 0.58405 0.31824
 C791 C 0.82665 0.56519 0.34183
 C792 C 0.82407 0.57742 0.36940
 C793 C 0.80228 0.66671 0.43361
 C794 C 0.79456 0.69822 0.43740
 C795 C 0.78879 0.71718 0.41381
 C796 C 0.79057 0.70476 0.38626
 C797 C 0.81594 0.60119 0.42669
 C798 C 0.81818 0.58505 0.44780
 C799 C 0.79176 0.67935 0.32937
 C800 C 0.78376 0.69589 0.30979
 H801 H 0.80739 0.62911 0.30304
 H802 H 0.82254 0.57443 0.29687
 H803 H 0.83348 0.54095 0.33878
 H804 H 0.82929 0.56194 0.38707
 H805 H 0.80670 0.65296 0.45263
 H806 H 0.79312 0.70798 0.45876
 H807 H 0.78288 0.74167 0.41687
 H808 H 0.78588 0.72048 0.36861
 C809 C 0.15396 0.71558 0.85366
 C810 C 0.13227 0.69050 0.85451
 C811 C 0.11397 0.68556 0.87944
 C812 C 0.11757 0.70567 0.90338
 C813 C 0.13924 0.73078 0.90252
 C814 C 0.15743 0.73581 0.87756
 C815 C 0.17877 0.76126 0.87714
 C816 C 0.18200 0.78114 0.90066
 C817 C 0.16436 0.77609 0.92513
 C818 C 0.14319 0.75124 0.92618
 C819 C 0.09234 0.66042 0.87976
 C820 C 0.08894 0.64067 0.85615
 C821 C 0.10688 0.64548 0.83179
 C822 C 0.12833 0.67009 0.83086
 C823 C 0.09887 0.70083 0.92884
 C824 C 0.08352 0.69757 0.95021
 C825 C 0.17291 0.72070 0.82839
 C826 C 0.18938 0.72611 0.80812
 H827 H 0.19311 0.76615 0.85864
 H828 H 0.19826 0.80060 0.89989
 H829 H 0.16703 0.79155 0.94339
 H830 H 0.12997 0.74833 0.94569
 H831 H 0.07786 0.65577 0.89823
 H832 H 0.07231 0.62153 0.85676
 H833 H 0.10416 0.63007 0.81351
 H834 H 0.14174 0.67294 0.81144
 C835 C 0.65808 0.20827 0.35435
 C836 C 0.66744 0.21864 0.38185
 C837 C 0.64826 0.21262 0.40599
 C838 C 0.61976 0.19638 0.40249
 C839 C 0.61047 0.18586 0.37505
 C840 C 0.62971 0.19180 0.35089
 C841 C 0.61989 0.18117 0.32366
 C842 C 0.59183 0.16517 0.32035
 C843 C 0.57301 0.15940 0.34396
 C844 C 0.58212 0.16955 0.37106
 C845 C 0.65809 0.22327 0.43326
 C846 C 0.68596 0.23957 0.43655
 C847 C 0.70464 0.24558 0.41293
 C848 C 0.69567 0.23524 0.38587
 C849 C 0.59983 0.19136 0.42713
 C850 C 0.58388 0.18817 0.44812
 C851 C 0.67750 0.21516 0.32971
 C852 C 0.69425 0.22177 0.30992
 H853 H 0.63376 0.18511 0.30467
 H854 H 0.58465 0.15722 0.29936
 H855 H 0.55123 0.14698 0.34128
 H856 H 0.56676 0.16445 0.38880
 H857 H 0.64438 0.21917 0.45231
 H858 H 0.69307 0.24760 0.45754
 H859 H 0.72618 0.25838 0.41559
 H860 H 0.71107 0.24046 0.36819
 C861 C 0.84363 0.28977 0.85287
 C862 C 0.87371 0.30280 0.84978
 C863 C 0.89237 0.30823 0.87439
 C864 C 0.88092 0.30037 0.90189
 C865 C 0.85055 0.28800 0.90502
 C866 C 0.83184 0.28272 0.88045
 C867 C 0.80157 0.27029 0.88414
 C868 C 0.79009 0.26339 0.91131
 C869 C 0.80843 0.26843 0.93532
 C870 C 0.83832 0.28059 0.93235
 C871 C 0.92230 0.32141 0.87079
 C872 C 0.93357 0.32884 0.84364
 C873 C 0.91539 0.32337 0.81958
 C874 C 0.88576 0.31052 0.82249
 C875 C 0.90050 0.30405 0.92695
 C876 C 0.91617 0.30625 0.94824
 C877 C 0.82493 0.28282 0.82779
 C878 C 0.80865 0.27608 0.80772
 H879 H 0.78641 0.26586 0.86613
 H880 H 0.76688 0.25395 0.91372
 H881 H 0.79944 0.26294 0.95638
 H882 H 0.85163 0.28420 0.95171
 H883 H 0.93720 0.32628 0.88887
 H884 H 0.95653 0.33892 0.84128
 H885 H 0.92425 0.32919 0.79855
 H886 H 0.87242 0.30678 0.80317
 C887 C 0.34163 0.79596 0.35408
 C888 C 0.37360 0.80197 0.34982
 C889 C 0.39318 0.80778 0.37374
 C890 C 0.38068 0.80742 0.40177
 C891 C 0.34851 0.80231 0.40595
 C892 C 0.32893 0.79659 0.38203
 C893 C 0.29688 0.79139 0.38677
 C894 C 0.28453 0.79190 0.41432
 C895 C 0.30368 0.79741 0.43771
 C896 C 0.33531 0.80255 0.43371
 C897 C 0.42506 0.81366 0.36895
 C898 C 0.43732 0.81369 0.34135
 C899 C 0.41820 0.80792 0.31798
 C900 C 0.38668 0.80212 0.32204
 C901 C 0.40085 0.81106 0.42645
 C902 C 0.41679 0.81327 0.44757
 C903 C 0.32190 0.78804 0.32993
 C904 C 0.30499 0.78069 0.31049
 H905 H 0.28102 0.78701 0.36927
 H906 H 0.25995 0.78801 0.41754
 H907 H 0.29397 0.79774 0.45908
 H908 H 0.34922 0.80683 0.45258
 H909 H 0.44078 0.81841 0.38643
 H910 H 0.46179 0.81823 0.33809
 H911 H 0.42783 0.80797 0.29658
 H912 H 0.37270 0.79784 0.30320
 C913 C 0.29234 0.84254 0.14765
 C914 C 0.30661 0.87247 0.15023
 C915 C 0.31239 0.89084 0.12536
 C916 C 0.30374 0.87921 0.09809
 C917 C 0.29006 0.84899 0.09546
 C918 C 0.28439 0.83058 0.12030
 C919 C 0.27060 0.80047 0.11712
 C920 C 0.26271 0.78888 0.09018
 C921 C 0.26813 0.80695 0.06590
 C922 C 0.28166 0.83666 0.06837
 C923 C 0.32665 0.92070 0.12845
 C924 C 0.33484 0.93215 0.15537
 C925 C 0.32914 0.91421 0.17969
 C926 C 0.31519 0.88468 0.17728
 C927 C 0.30792 0.89857 0.07281
 C928 C 0.31056 0.91430 0.05149
 C929 C 0.28489 0.82430 0.17300
 C930 C 0.27760 0.80837 0.19327
 H931 H 0.26583 0.78552 0.13535
 H932 H 0.25221 0.76580 0.08815
 H933 H 0.26186 0.79789 0.04502
 H934 H 0.28550 0.84976 0.04883
 H935 H 0.33172 0.93541 0.11015
 H936 H 0.34572 0.95506 0.15735
 H937 H 0.33559 0.92320 0.20054
 H938 H 0.31128 0.87153 0.19679
 C939 C 0.79880 0.34086 0.64637
 C940 C 0.80680 0.37291 0.65022
 C941 C 0.81333 0.39213 0.62602
 C942 C 0.81153 0.37924 0.59811
 C943 C 0.80444 0.34694 0.59433
 C944 C 0.79813 0.32768 0.61852
 C945 C 0.79106 0.29546 0.61417
 C946 C 0.79037 0.28263 0.58674
 C947 C 0.79639 0.30148 0.56308
 C948 C 0.80333 0.33328 0.56670
 C949 C 0.82139 0.42405 0.63042
 C950 C 0.82280 0.43673 0.65790
 C951 C 0.81625 0.41799 0.68154
 C952 C 0.80832 0.38643 0.67787
 C953 C 0.81572 0.39925 0.57319
 C954 C 0.81831 0.41522 0.55198
 C955 C 0.79025 0.32158 0.67082
 C956 C 0.78232 0.30499 0.69045
 H957 H 0.78616 0.27982 0.63188
 H958 H 0.78513 0.25791 0.58382
 H959 H 0.79577 0.29141 0.54180
 H960 H 0.80795 0.34694 0.54762
 H961 H 0.82689 0.43945 0.61273
 H962 H 0.82904 0.46121 0.66086
 H963 H 0.81737 0.42795 0.70284
 H964 H 0.80351 0.37275 0.69690
 C965 C 0.70454 0.15798 0.14717
 C966 C 0.71118 0.17008 0.11958
 C967 C 0.70569 0.15124 0.09496
 C968 C 0.69350 0.12043 0.09806
 C969 C 0.68598 0.10869 0.12556
 C970 C 0.69159 0.12750 0.15021
 C971 C 0.68422 0.11515 0.17751
 C972 C 0.67160 0.08506 0.18038
 C973 C 0.66605 0.06670 0.15628
 C974 C 0.67309 0.07827 0.12913
 C975 C 0.71283 0.16372 0.06763
 C976 C 0.72493 0.19400 0.06470
 C977 C 0.73017 0.21249 0.08876
 C978 C 0.72352 0.20077 0.11593
 C979 C 0.68980 0.10061 0.07297
 C980 C 0.68760 0.08462 0.05175
 C981 C 0.71226 0.17655 0.17228
 C982 C 0.71989 0.19260 0.19237
 H983 H 0.68805 0.12861 0.19686
 H984 H 0.66606 0.07598 0.20142
 H985 H 0.65621 0.04336 0.15862
 H986 H 0.66819 0.06321 0.11102
 H987 H 0.70908 0.15030 0.04825
 H988 H 0.73025 0.20316 0.04364
 H989 H 0.73958 0.23600 0.08638
 H990 H 0.72810 0.21605 0.13398
 C991 C 0.19858 0.65880 0.64686
 C992 C 0.20174 0.67107 0.61882
 C993 C 0.19536 0.65162 0.59478
 C994 C 0.18582 0.62001 0.59890
 C995 C 0.18176 0.60803 0.62692
 C996 C 0.18824 0.62747 0.65098
 C997 C 0.18437 0.61488 0.67879
 C998 C 0.17429 0.58398 0.68273
 C999 C 0.16786 0.56501 0.65920
 C1000 C 0.17151 0.57679 0.63157
 C1001 C 0.19895 0.66434 0.56696
 C1002 C 0.20845 0.69541 0.56301
 C1003 C 0.21460 0.71446 0.58652
 C1004 C 0.21141 0.70254 0.61414
 C1005 C 0.18140 0.59970 0.57422
 C1006 C 0.17870 0.58359 0.55312
 C1007 C 0.20711 0.67815 0.67125
 C1008 C 0.21519 0.69474 0.69083
 H1009 H 0.18901 0.62878 0.69774
 H1010 H 0.17141 0.57473 0.70415
 H1011 H 0.15998 0.54105 0.66237
 H1012 H 0.16607 0.56122 0.61395
 H1013 H 0.19436 0.65050 0.54797
 H1014 H 0.21102 0.70475 0.54159
 H1015 H 0.22193 0.73860 0.58335
 H1016 H 0.21652 0.71830 0.63173
 C1017 C 0.84503 0.71403 0.14731
 C1018 C 0.86627 0.68877 0.14690
 C1019 C 0.88482 0.68341 0.12222
 C1020 C 0.88193 0.70329 0.09808
 C1021 C 0.86071 0.72858 0.09850
 C1022 C 0.84227 0.73402 0.12320
 C1023 C 0.82141 0.75965 0.12318
 C1024 C 0.81890 0.77932 0.09948
 C1025 C 0.83678 0.77387 0.07526
 C1026 C 0.85747 0.74884 0.07465
 C1027 C 0.90598 0.65811 0.12233
 C1028 C 0.90871 0.63860 0.14615
 C1029 C 0.89055 0.64381 0.17026
 C1030 C 0.86953 0.66858 0.17076
 C1031 C 0.90092 0.69810 0.07288
 C1032 C 0.91642 0.69472 0.05163
 C1033 C 0.82593 0.71969 0.17236
 C1034 C 0.80942 0.72561 0.19246
 H1035 H 0.80691 0.76485 0.14146
 H1036 H 0.80303 0.79893 0.09993
 H1037 H 0.83467 0.78917 0.05686
 H1038 H 0.87091 0.74562 0.05531
 H1039 H 0.92060 0.65315 0.10407
 H1040 H 0.92501 0.61934 0.14588
 H1041 H 0.89276 0.62859 0.18870
 H1042 H 0.85592 0.67175 0.19000
 C1043 C 0.34350 0.21156 0.64576
 C1044 C 0.33804 0.22832 0.62007
 C1045 C 0.35677 0.22259 0.59561
 C1046 C 0.38098 0.20028 0.59702
 C1047 C 0.38660 0.18371 0.62275
 C1048 C 0.36777 0.18935 0.64720
 C1049 C 0.37382 0.17253 0.67269
 C1050 C 0.39783 0.15079 0.67402
 C1051 C 0.41626 0.14529 0.65012
 C1052 C 0.41080 0.16150 0.62472
 C1053 C 0.35080 0.23956 0.57015
 C1054 C 0.32717 0.26173 0.56895
 C1055 C 0.30899 0.26749 0.59292
 C1056 C 0.31417 0.25098 0.61821
 C1057 C 0.40020 0.19477 0.57202
 C1058 C 0.41579 0.19100 0.55089
 C1059 C 0.32401 0.21733 0.67054
 C1060 C 0.30711 0.22305 0.69040
 H1061 H 0.36013 0.17605 0.69183
 H1062 H 0.40218 0.13815 0.69370
 H1063 H 0.43488 0.12839 0.65127
 H1064 H 0.42575 0.15645 0.60670
 H1065 H 0.36434 0.23598 0.55093
 H1066 H 0.32299 0.27456 0.54934
 H1067 H 0.29082 0.28490 0.59195
 H1068 H 0.29934 0.25630 0.63624
 C1069 C 0.15431 0.28512 0.14668
 C1070 C 0.13266 0.31002 0.14623
 C1071 C 0.11378 0.31471 0.12168
 C1072 C 0.11677 0.29456 0.09772
 C1073 C 0.13841 0.26964 0.09819
 C1074 C 0.15719 0.26486 0.12275
 C1075 C 0.17852 0.23964 0.12276
 C1076 C 0.18112 0.21968 0.09923
 C1077 C 0.16287 0.22445 0.07516
 C1078 C 0.14174 0.24911 0.07451
 C1079 C 0.09220 0.33966 0.12174
 C1080 C 0.08937 0.35944 0.14538
 C1081 C 0.10787 0.35488 0.16936
 C1082 C 0.12932 0.33049 0.16989
 C1083 C 0.09765 0.29926 0.07256
 C1084 C 0.08220 0.30239 0.05129
 C1085 C 0.17364 0.28003 0.17166
 C1086 C 0.19032 0.27448 0.19169
 H1087 H 0.19334 0.23497 0.14092
 H1088 H 0.19736 0.20037 0.09970
 H1089 H 0.16504 0.20892 0.05691
 H1090 H 0.12805 0.25182 0.05529
 H1091 H 0.07731 0.34411 0.10357
 H1092 H 0.07273 0.37840 0.14509
 H1093 H 0.10559 0.37032 0.18766
 H1094 H 0.14321 0.32785 0.18901
 C1095 C 0.65770 0.79352 0.64641
 C1096 C 0.62963 0.81024 0.64971
 C1097 C 0.61034 0.81568 0.62556
 C1098 C 0.61928 0.80439 0.59828
 C1099 C 0.64756 0.78802 0.59492
 C1100 C 0.66680 0.78253 0.61905
 C1101 C 0.69485 0.76587 0.61518
 C1102 C 0.70362 0.75498 0.58825
 C1103 C 0.68485 0.76042 0.56464
 C1104 C 0.65714 0.77674 0.56780
 C1105 C 0.58232 0.83231 0.62939
 C1106 C 0.57359 0.84326 0.65632
 C1107 C 0.59245 0.83795 0.67992
 C1108 C 0.62018 0.82163 0.67678
 C1109 C 0.59932 0.80901 0.57366
 C1110 C 0.58346 0.81202 0.55263
 C1111 C 0.67702 0.78687 0.67108
 C1112 C 0.69371 0.78027 0.69084
 H1113 H 0.71031 0.76107 0.63285
 H1114 H 0.72509 0.74223 0.58570
 H1115 H 0.69178 0.75193 0.54376
 H1116 H 0.64335 0.78038 0.54877
 H1117 H 0.56693 0.83705 0.61165
 H1118 H 0.55207 0.85593 0.65888
 H1119 H 0.58556 0.84651 0.70079
 H1120 H 0.63411 0.81809 0.69575
   
