data_POSCAR
  _audit_creation_date              2014-09-24
  _audit_creation_method            'ToBaCCo'
  _symmetry_space_group_name_H-M    'P1'
  _symmetry_Int_Tables_number       1
  _symmetry_cell_setting            triclinic
  loop_
  _symmetry_equiv_pos_as_xyz
 x,y,z
_cell_length_a 25.2516
_cell_length_b 25.2518
_cell_length_c 25.2528
_cell_angle_alpha 90.244200
_cell_angle_beta 90.003200
_cell_angle_gamma 89.999700
loop_
  _atom_site_label
  _atom_site_type_symbol
  _atom_site_fract_x
  _atom_site_fract_y
  _atom_site_fract_z
C1 C 0.50014 1.00037 -0.64373
 C2 C 0.45276 0.99331 -0.61624
 C3 C 0.45282 0.99183 -0.56077
 C4 C 0.50009 1.00036 -0.53177
 C5 C 0.54740 1.00889 -0.56065
 C6 C 0.54751 1.00743 -0.61613
 C7 C 0.50006 1.00035 -0.47211
 C8 C 0.54729 0.99160 -0.44315
 C9 C 0.54729 0.99301 -0.38771
 C10 C 0.49998 1.00029 -0.36020
 C11 C 0.45271 1.00760 -0.38771
 C12 C 0.45279 1.00907 -0.44314
 H13 H 0.50016 1.00037 -0.68675
 H14 H 0.41579 0.98370 -0.54095
 H15 H 0.58441 1.01700 -0.54071
 H16 H 0.58436 0.98336 -0.46287
 H17 H 0.49994 1.00026 -0.31722
 H18 H 0.41575 1.01734 -0.46284
 C19 C -0.64398 1.49993 0.00011
 C20 C -0.61644 1.45252 -0.00691
 C21 C -0.56097 1.45260 -0.00845
 C22 C -0.53202 1.49995 -0.00002
 C23 C -0.56096 1.54728 0.00848
 C24 C -0.61644 1.54735 0.00707
 C25 C -0.47236 1.49995 -0.00008
 C26 C -0.44340 1.54715 -0.00889
 C27 C -0.38796 1.54719 -0.00749
 C28 C -0.36045 1.49994 -0.00018
 C29 C -0.38795 1.45270 0.00719
 C30 C -0.44338 1.45274 0.00869
 H31 H -0.68701 1.49992 0.00017
 H32 H -0.54109 1.41554 -0.01655
 H33 H -0.54108 1.58435 0.01652
 H34 H -0.46312 1.58416 -0.01716
 H35 H -0.31747 1.49994 -0.00021
 H36 H -0.46309 1.41573 0.01701
 C37 C 0.00088 0.35815 0.50025
 C38 C -0.00628 0.38548 0.45290
 C39 C -0.00767 0.44097 0.45300
 C40 C 0.00101 0.47009 0.50029
 C41 C 0.00963 0.44128 0.54753
 C42 C 0.00811 0.38586 0.54755
 C43 C 0.00108 0.52975 0.50036
 C44 C -0.00751 0.55887 0.54766
 C45 C -0.00600 0.61436 0.54777
 C46 C 0.00118 0.64169 0.50042
 C47 C 0.00830 0.61397 0.45310
 C48 C 0.00971 0.55854 0.45311
 H49 H 0.00084 0.31515 0.50039
 H50 H -0.01586 0.46072 0.41600
 H51 H 0.01785 0.46113 0.58461
 H52 H -0.01572 0.53914 0.58466
 H53 H 0.00122 0.68469 0.50028
 H54 H 0.01784 0.53868 0.41602
 O55 O 0.07173 0.99799 0.13679
 O56 O 0.07165 1.00197 -0.13613
 O57 O 0.13657 0.92835 0.00223
 O58 O 0.13652 1.07161 -0.00159
 O59 O 0.07168 1.13613 -0.00140
 O60 O 0.07177 0.86379 0.00207
 O61 O 0.13623 1.00210 -0.07137
 O62 O 0.13627 0.99792 0.07197
 Zr63 Zr 0.09331 0.99997 0.00032
 O64 O 0.04801 1.04786 -0.04747
 O65 O 0.04806 0.95205 0.04813
 C66 C 0.12051 0.99676 0.12080
 C67 C 0.12043 1.00327 -0.12018
 C68 C 0.12060 0.87957 0.00332
 C69 C 0.12052 1.12038 -0.00268
 H70 H 0.07062 0.92937 -0.07041
 O71 O 0.04800 0.95199 -0.04773
 H72 H 0.07058 1.07055 0.07106
 O73 O 0.04797 1.04791 0.04838
 O74 O -0.07154 0.99763 -0.13614
 O75 O -0.07154 1.00218 0.13682
 O76 O -0.00197 0.86337 -0.07171
 O77 O 0.00218 1.13633 -0.07084
 O78 O -0.00209 1.13648 0.07239
 O79 O 0.00228 0.86354 0.07151
 O80 O -0.13638 0.92830 -0.00203
 O81 O -0.13643 1.07148 0.00265
 O82 O -0.07158 0.86374 -0.00227
 O83 O -0.07167 1.13608 0.00289
 O84 O -0.00203 0.92810 -0.13606
 O85 O 0.00231 0.92841 0.13627
 O86 O -0.00207 1.07175 0.13673
 O87 O 0.00222 1.07145 -0.13560
 O88 O -0.13610 0.99765 -0.07135
 O89 O -0.13608 1.00213 0.07200
 Zr90 Zr 0.00007 0.99983 -0.09288
 Zr91 Zr 0.00009 1.00004 0.09356
 Zr92 Zr 0.00010 0.90670 0.00004
 Zr93 Zr 0.00003 1.09316 0.00064
 Zr94 Zr -0.09314 0.99990 0.00033
 O95 O -0.04791 1.04793 0.04846
 O96 O -0.04788 0.95189 -0.04778
 C97 C -0.12031 0.99640 -0.12018
 C98 C -0.12032 1.00339 0.12084
 C99 C -0.00319 0.87929 -0.12044
 C100 C 0.00344 1.12030 -0.11967
 C101 C -0.00330 1.12057 0.12111
 C102 C 0.00355 0.87956 0.12034
 C103 C -0.12041 0.87952 -0.00343
 C104 C -0.12049 1.12027 0.00402
 H105 H -0.07041 0.92946 0.07063
 O106 O -0.04781 0.95206 0.04809
 H107 H -0.07046 1.07035 -0.06997
 O108 O -0.04785 1.04777 -0.04742
 C109 C 0.32107 0.98887 0.29379
 C110 C 0.29270 1.04262 0.29224
 C111 C 0.25061 1.04376 0.25851
 C112 C 0.24099 0.99105 0.22962
 C113 C 0.23554 0.94970 0.27376
 C114 C 0.27773 0.94856 0.30755
 C115 C 0.33575 0.97693 0.23599
 C116 C 0.29371 0.97806 0.20231
 C117 C 0.36717 0.98838 0.32911
 C118 C 0.40666 0.98974 0.35592
 C119 C 0.19635 0.99266 0.19250
 C120 C 0.16102 0.99445 0.16047
 H121 H 0.30454 1.07675 0.31570
 H122 H 0.22640 1.07886 0.25308
 H123 H 0.20159 0.92371 0.27809
 H124 H 0.27994 0.92160 0.34085
 H125 H 0.37571 0.96821 0.22268
 H126 H 0.29768 0.97033 0.16016
 C127 C -0.32080 1.01171 0.29396
 C128 C -0.28305 1.05893 0.30073
 C129 C -0.24090 1.05771 0.26691
 C130 C -0.24075 1.00938 0.22974
 C131 C -0.29455 1.01094 0.20157
 C132 C -0.33656 1.01217 0.23528
 C133 C -0.28577 0.96244 0.30025
 C134 C -0.24368 0.96121 0.26648
 C135 C -0.36688 1.01229 0.32931
 C136 C -0.40637 1.01097 0.35610
 C137 C -0.19614 1.00767 0.19259
 C138 C -0.16082 1.00579 0.16053
 H139 H -0.28886 1.09044 0.32953
 H140 H -0.21057 1.08818 0.26673
 H141 H -0.29926 1.01114 0.15883
 H142 H -0.37724 1.01342 0.22138
 H143 H -0.29328 0.93132 0.32883
 H144 H -0.21515 0.92905 0.26612
 C145 C -0.31934 0.98820 -0.29501
 C146 C -0.26520 0.98581 -0.32260
 C147 C -0.22344 0.98700 -0.28828
 C148 C -0.24007 0.99047 -0.22984
 C149 C -0.27734 0.94323 -0.22141
 C150 C -0.31902 0.94203 -0.25567
 C151 C -0.31735 1.03833 -0.26047
 C152 C -0.27573 1.03952 -0.22626
 C153 C -0.36499 0.98765 -0.33091
 C154 C -0.40415 0.98901 -0.35816
 C155 C -0.19585 0.99214 -0.19223
 C156 C -0.16074 0.99400 -0.15995
 H157 H -0.26012 0.98333 -0.36522
 H158 H -0.18256 0.98556 -0.30150
 H159 H -0.27145 0.91326 -0.19127
 H160 H -0.34881 0.91105 -0.25487
 H161 H -0.34612 1.07019 -0.26274
 H162 H -0.26887 1.07238 -0.19926
 C163 C 0.31928 1.01209 -0.29507
 C164 C 0.28394 0.96305 -0.30181
 C165 C 0.24228 0.96171 -0.26753
 C166 C 0.24007 1.00953 -0.22988
 C167 C 0.23998 1.05821 -0.26618
 C168 C 0.28171 1.05956 -0.30051
 C169 C 0.33580 1.01190 -0.23659
 C170 C 0.29422 1.01056 -0.20237
 C171 C 0.36492 1.01278 -0.33098
 C172 C 0.40411 1.01152 -0.35821
 C173 C 0.19589 1.00770 -0.19224
 C174 C 0.16083 1.00574 -0.15995
 H175 H 0.29092 0.93218 -0.33104
 H176 H 0.21359 0.92969 -0.26738
 H177 H 0.20982 1.08883 -0.26506
 H178 H 0.28731 1.09131 -0.32881
 H179 H 0.37665 1.01283 -0.22319
 H180 H 0.29946 1.01033 -0.15970
 C181 C 0.29359 1.32083 -0.01098
 C182 C 0.29981 1.28312 -0.05842
 C183 C 0.26599 1.24097 -0.05716
 C184 C 0.22937 1.24081 -0.00857
 C185 C 0.20120 1.29462 -0.00968
 C186 C 0.23491 1.33662 -0.01094
 C187 C 0.30044 1.28578 0.03808
 C188 C 0.26667 1.24370 0.03935
 C189 C 0.32895 1.36690 -0.01161
 C190 C 0.35575 1.40639 -0.01036
 C191 C 0.19223 1.19621 -0.00684
 C192 C 0.16019 1.16089 -0.00500
 H193 H 0.32825 1.28893 -0.09010
 H194 H 0.26545 1.21066 -0.08777
 H195 H 0.15846 1.29934 -0.00955
 H196 H 0.22101 1.37730 -0.01190
 H197 H 0.32937 1.29327 0.06902
 H198 H 0.26665 1.21515 0.07137
 C199 C 0.29361 0.67905 0.01135
 C200 C 0.24884 0.67570 0.05229
 C201 C 0.21512 0.71778 0.05110
 C202 C 0.22944 0.75912 0.00908
 C203 C 0.23184 0.72816 -0.04326
 C204 C 0.26553 0.68612 -0.04207
 C205 C 0.32088 0.73234 0.02225
 C206 C 0.28708 0.77453 0.02106
 C207 C 0.32894 0.63296 0.01190
 C208 C 0.35575 0.59346 0.01059
 C209 C 0.19233 0.80375 0.00742
 C210 C 0.16029 0.83907 0.00562
 H211 H 0.24411 0.64320 0.07990
 H212 H 0.18151 0.72131 0.07770
 H213 H 0.20913 0.73842 -0.07826
 H214 H 0.27167 0.66038 -0.07608
 H215 H 0.36292 0.73657 0.03023
 H216 H 0.30016 0.81491 0.02802
 C217 C -0.29530 0.68057 -0.01217
 C218 C -0.29665 0.71185 0.04008
 C219 C -0.26237 0.75351 0.04137
 C220 C -0.23010 0.75982 -0.00971
 C221 C -0.27148 0.76352 -0.05416
 C222 C -0.30582 0.72178 -0.05546
 C223 C -0.23713 0.66452 -0.01945
 C224 C -0.20291 0.70612 -0.01816
 C225 C -0.33121 0.63494 -0.01280
 C226 C -0.35844 0.59576 -0.01149
 C227 C -0.19246 0.80401 -0.00792
 C228 C -0.16017 0.83909 -0.00595
 H229 H -0.32238 0.70222 0.07310
 H230 H -0.25873 0.77955 0.07550
 H231 H -0.27363 0.79603 -0.08208
 H232 H -0.33740 0.71851 -0.08446
 H233 H -0.22396 0.62397 -0.02522
 H234 H -0.16044 0.70119 -0.02282
 C235 C -0.29533 1.31929 0.01209
 C236 C -0.29524 1.28676 0.06332
 C237 C -0.26094 1.24501 0.06215
 C238 C -0.23018 1.24000 0.00988
 C239 C -0.20318 1.29388 0.00250
 C240 C -0.23737 1.33549 0.00366
 C241 C -0.30709 1.27916 -0.03222
 C242 C -0.27282 1.23746 -0.03338
 C243 C -0.33121 1.36495 0.01260
 C244 C -0.35843 1.40413 0.01122
 C245 C -0.19256 1.19578 0.00824
 C246 C -0.16027 1.16068 0.00641
 H247 H -0.31995 1.29565 0.09739
 H248 H -0.25625 1.21811 0.09525
 H249 H -0.16085 1.29893 -0.00311
 H250 H -0.22429 1.37618 -0.00095
 H251 H -0.33955 1.28308 -0.06012
 H252 H -0.27591 1.20565 -0.06228
 C253 C -0.01104 1.29472 0.32143
 C254 C -0.00975 1.32268 0.26756
 C255 C -0.00867 1.28857 0.22549
 C256 C -0.00896 1.22996 0.24156
 C257 C -0.05808 1.22364 0.27680
 C258 C -0.05917 1.25769 0.31879
 C259 C 0.03725 1.25780 0.32106
 C260 C 0.03834 1.22381 0.27913
 C261 C -0.01146 1.33040 0.36741
 C262 C -0.01000 1.35745 0.40683
 C263 C -0.00740 1.19253 0.19702
 C264 C -0.00562 1.16033 0.16170
 H265 H -0.00978 1.36539 0.26287
 H266 H -0.00775 1.30205 0.18474
 H267 H -0.08933 1.19503 0.26935
 H268 H -0.09135 1.25826 0.34730
 H269 H 0.06800 1.25836 0.35112
 H270 H 0.07000 1.19528 0.27329
 C271 C 0.01238 1.29398 -0.31886
 C272 C 0.01418 1.32197 -0.26478
 C273 C 0.01280 1.28796 -0.22293
 C274 C 0.00975 1.22940 -0.23941
 C275 C 0.05735 1.22072 -0.27626
 C276 C 0.05872 1.25467 -0.31803
 C277 C -0.03760 1.25944 -0.31718
 C278 C -0.03898 1.22554 -0.27548
 C279 C 0.01312 1.32956 -0.36461
 C280 C 0.01193 1.35656 -0.40384
 C281 C 0.00789 1.19208 -0.19511
 C282 C 0.00592 1.15997 -0.16000
 H283 H 0.01642 1.36464 -0.25981
 H284 H 0.01385 1.30148 -0.18208
 H285 H 0.08741 1.19064 -0.27002
 H286 H 0.08996 1.25368 -0.34756
 H287 H -0.06924 1.26148 -0.34623
 H288 H -0.07178 1.19857 -0.26880
 C289 C -0.01070 0.70510 -0.32074
 C290 C 0.03071 0.69062 -0.27869
 C291 C 0.03178 0.72470 -0.23667
 C292 C -0.00867 0.76987 -0.24088
 C293 C -0.06238 0.74232 -0.24861
 C294 C -0.06344 0.70822 -0.29066
 C295 C 0.00203 0.76246 -0.33600
 C296 C 0.00309 0.79645 -0.29409
 C297 C -0.01111 0.66942 -0.36672
 C298 C -0.00967 0.64238 -0.40615
 C299 C -0.00716 0.80730 -0.19634
 C300 C -0.00544 0.83951 -0.16103
 H301 H 0.05678 0.65654 -0.28159
 H302 H 0.05876 0.71983 -0.20358
 H303 H -0.09649 0.74894 -0.22326
 H304 H -0.09844 0.68561 -0.30135
 H305 H 0.00953 0.77530 -0.37630
 H306 H 0.01150 0.83838 -0.29849
 C307 C 0.01256 0.70584 0.31951
 C308 C 0.03140 0.68080 0.26728
 C309 C 0.03002 0.71483 0.22543
 C310 C 0.00993 0.77044 0.24006
 C311 C 0.04603 0.78902 0.28537
 C312 C 0.04741 0.75508 0.32711
 C313 C -0.04294 0.72751 0.30754
 C314 C -0.04432 0.76143 0.26582
 C315 C 0.01331 0.67026 0.36525
 C316 C 0.01212 0.64327 0.40449
 C317 C 0.00806 0.80776 0.19577
 C318 C 0.00606 0.83988 0.16067
 H319 H 0.04466 0.64007 0.26352
 H320 H 0.04210 0.70325 0.18578
 H321 H 0.06865 0.82558 0.28467
 H322 H 0.07121 0.76258 0.36216
 H323 H -0.07815 0.71702 0.32985
 H324 H -0.08069 0.77999 0.25240
   
