data_POSCAR
  _audit_creation_date              2014-09-24
  _audit_creation_method            'ToBaCCo'
  _symmetry_space_group_name_H-M    'P1'
  _symmetry_Int_Tables_number       1
  _symmetry_cell_setting            triclinic
  loop_
  _symmetry_equiv_pos_as_xyz
 x,y,z
_cell_length_a 21.8346
_cell_length_b 16.2940
_cell_length_c 22.8718
_cell_angle_alpha 90.752000
_cell_angle_beta 89.937700
_cell_angle_gamma 90.024500
loop_
  _atom_site_label
  _atom_site_type_symbol
  _atom_site_fract_x
  _atom_site_fract_y
  _atom_site_fract_z
C1 C 0.56712 0.58898 0.59136
 C2 C 0.60987 0.61443 0.54965
 C3 C 0.66997 0.58348 0.55033
 C4 C 0.68762 0.52809 0.59393
 C5 C 0.64338 0.49601 0.63208
 C6 C 0.58312 0.52605 0.62953
 H7 H 0.59749 0.66085 0.51832
 H8 H 0.73417 0.50504 0.59482
 H9 H 0.54923 0.50445 0.66035
 C10 C 0.93189 0.40462 0.09531
 C11 C 0.89402 0.38708 0.04686
 C12 C 0.83541 0.42234 0.04293
 C13 C 0.81569 0.47882 0.08588
 C14 C 0.85506 0.50220 0.13130
 C15 C 0.91235 0.46443 0.13619
 H16 H 0.90766 0.34166 0.01441
 H17 H 0.77071 0.50653 0.08281
 H18 H 0.94160 0.48238 0.17236
 C19 C 0.43195 0.09230 -0.09355
 C20 C 0.39190 0.11500 -0.04810
 C21 C 0.33297 0.08047 -0.04511
 C22 C 0.31451 0.02192 -0.08710
 C23 C 0.35579 -0.00518 -0.13004
 C24 C 0.41417 0.03016 -0.13303
 H25 H 0.40504 0.16246 -0.01695
 H26 H 0.26907 -0.00471 -0.08501
 H27 H 0.44526 0.01057 -0.16743
 C28 C 0.06863 0.90636 0.40461
 C29 C 0.08700 0.96608 0.36428
 C30 C 0.14461 1.00360 0.36819
 C31 C 0.18553 0.97963 0.41175
 C32 C 0.16698 0.92323 0.45410
 C33 C 0.10811 0.88847 0.45137
 H34 H 0.05654 0.98418 0.32942
 H35 H 0.23065 1.00724 0.41417
 H36 H 0.09530 0.84335 0.48350
 N37 N 0.06466 0.27395 0.09654
 N38 N 0.06233 0.29889 0.15134
 C39 C 0.01639 0.35274 0.15827
 C40 C -0.01358 0.36066 0.10511
 C41 C 0.01847 0.30915 0.06686
 H42 H 0.00278 0.37827 0.20016
 H43 H 0.00900 0.29760 0.02109
 Cu44 Cu 0.11105 0.24719 0.21089
 Cu45 Cu 0.12694 0.19527 0.07012
 Cu46 Cu 0.23852 0.14834 0.17279
 N47 N 0.14683 0.16530 0.26136
 N48 N 0.19827 0.12765 0.24778
 C49 C 0.20880 0.06835 0.28717
 C50 C 0.16065 0.06835 0.32659
 C51 C 0.12237 0.13072 0.30895
 H52 H 0.24521 0.02349 0.28393
 H53 H 0.07786 0.14589 0.32692
 N54 N 0.25197 0.13651 0.08837
 N55 N 0.20804 0.14785 0.04958
 C56 C 0.22996 0.12887 -0.00398
 C57 C 0.29061 0.10602 0.00166
 C58 C 0.30322 0.11187 0.06066
 H59 H 0.20443 0.13374 -0.04429
 H60 H 0.34597 0.09726 0.08200
 H61 H 0.15082 0.13886 0.14665
 H62 H 0.18521 0.24123 0.13172
 N63 N 0.43071 0.71975 0.59215
 N64 N 0.43388 0.69791 0.64717
 C65 C 0.48002 0.64471 0.65392
 C66 C 0.50848 0.63295 0.60040
 C67 C 0.47612 0.68206 0.56201
 H68 H 0.49498 0.62179 0.69571
 H69 H 0.48602 0.69181 0.51628
 Cu70 Cu 0.38606 0.75208 0.70721
 Cu71 Cu 0.37018 0.80058 0.56679
 Cu72 Cu 0.26071 0.85535 0.67097
 N73 N 0.35144 0.83435 0.75946
 N74 N 0.30081 0.87379 0.74659
 C75 C 0.29097 0.93273 0.78750
 C76 C 0.33875 0.93058 0.82721
 C77 C 0.37610 0.86737 0.80809
 H78 H 0.25547 0.97888 0.78518
 H79 H 0.42024 0.85065 0.82577
 N80 N 0.24754 0.86759 0.58674
 N81 N 0.29078 0.85296 0.54746
 C82 C 0.26916 0.87241 0.49427
 C83 C 0.20943 0.89915 0.50065
 C84 C 0.19701 0.89492 0.55969
 H85 H 0.29401 0.86458 0.45364
 H86 H 0.15471 0.91162 0.58143
 H87 H 0.34845 0.86040 0.64412
 H88 H 0.31119 0.75945 0.62873
 N89 N 0.93576 0.77588 0.40572
 N90 N 0.93628 0.80030 0.35121
 C91 C 0.98187 0.85434 0.34367
 C92 C 1.01356 0.86279 0.39597
 C93 C 0.98280 0.81162 0.43449
 H94 H 0.99426 0.87930 0.30172
 H95 H 0.99384 0.80044 0.47977
 Cu96 Cu 0.88655 0.74695 0.29222
 Cu97 Cu 0.87471 0.69696 0.43307
 Cu98 Cu 0.76279 0.64251 0.33177
 N99 N 0.85118 0.66374 0.24100
 N100 N 0.80145 0.62321 0.25542
 C101 C 0.79131 0.56351 0.21510
 C102 C 0.83783 0.56657 0.17396
 C103 C 0.87487 0.63084 0.19182
 H104 H 0.75654 0.51651 0.21863
 H105 H 0.91836 0.64824 0.17295
 N106 N 0.75089 0.63286 0.41643
 N107 N 0.79479 0.64766 0.45491
 C108 C 0.77331 0.63123 0.50885
 C109 C 0.71290 0.60656 0.50368
 C110 C 0.70019 0.60845 0.44461
 H111 H 0.79882 0.63954 0.54900
 H112 H 0.65746 0.59201 0.42361
 H113 H 0.85110 0.63796 0.35614
 H114 H 0.81415 0.73890 0.37260
 N115 N 0.56848 0.22300 -0.09550
 N116 N 0.56285 0.20298 -0.15105
 C117 C 0.51597 0.15065 -0.15800
 C118 C 0.48965 0.13758 -0.10389
 C119 C 0.52401 0.18496 -0.06503
 H120 H 0.49943 0.12878 -0.19995
 H121 H 0.51631 0.19297 -0.01858
 Cu122 Cu 0.60963 0.25791 -0.21021
 Cu123 Cu 0.63079 0.30234 -0.07001
 Cu124 Cu 0.73995 0.35269 -0.17574
 N125 N 0.64416 0.34079 -0.26011
 N126 N 0.69836 0.37334 -0.25050
 C127 C 0.70952 0.42990 -0.29199
 C128 C 0.65773 0.43557 -0.32706
 C129 C 0.61764 0.37766 -0.30552
 H130 H 0.74865 0.47066 -0.29205
 H131 H 0.57169 0.36461 -0.32070
 N132 N 0.75459 0.36493 -0.09086
 N133 N 0.71143 0.35202 -0.05138
 C134 C 0.73351 0.37181 0.00188
 C135 C 0.79347 0.39711 -0.00433
 C136 C 0.80566 0.39158 -0.06358
 H137 H 0.70860 0.36567 0.04248
 H138 H 0.84798 0.40751 -0.08529
 H139 H 0.65366 0.36265 -0.14595
 H140 H 0.68777 0.25949 -0.13422
   
