data_POSCAR
  _audit_creation_date              2014-09-24
  _audit_creation_method            'ToBaCCo'
  _symmetry_space_group_name_H-M    'P1'
  _symmetry_Int_Tables_number       1
  _symmetry_cell_setting            triclinic
  loop_
  _symmetry_equiv_pos_as_xyz
 x,y,z
_cell_length_a 24.3575
_cell_length_b 24.6437
_cell_length_c 41.2539
_cell_angle_alpha 80.041600
_cell_angle_beta 96.311200
_cell_angle_gamma 75.849200
loop_
  _atom_site_label
  _atom_site_type_symbol
  _atom_site_fract_x
  _atom_site_fract_y
  _atom_site_fract_z
O1 O -0.04500 0.43666 1.02452
 O2 O -0.02996 0.55615 0.96104
 O3 O -0.02928 0.44851 0.96218
 O4 O -0.04912 0.54350 1.02222
 O5 O 0.04449 0.51960 1.03848
 O6 O 0.06393 0.42210 0.97988
 O7 O 0.06350 0.52867 0.97756
 O8 O 0.04830 0.41329 1.04182
 Cu9 Cu -0.04770 0.49859 0.99053
 Cu10 Cu 0.06438 0.46827 1.01095
 C11 C -0.00067 0.40535 1.04453
 C12 C 0.01964 0.56332 0.95884
 C13 C 0.02063 0.41844 0.96104
 C14 C -0.00570 0.54790 1.04059
 O15 O 0.56247 -0.01125 0.53183
 O16 O 0.44938 -0.01824 0.46797
 O17 O 0.55742 -0.01992 0.46962
 O18 O 0.45480 -0.00490 0.52897
 O19 O 0.43349 0.08899 0.51307
 O20 O 0.53327 0.07378 0.45241
 O21 O 0.42445 0.07566 0.45171
 O22 O 0.54184 0.08231 0.51500
 Cu23 Cu 0.50840 -0.02294 0.50105
 Cu24 Cu 0.48111 0.08958 0.48116
 C25 C 0.57158 0.03635 0.53478
 C26 C 0.41652 0.02718 0.44946
 C27 C 0.56310 0.02448 0.45093
 C28 C 0.42698 0.04473 0.53139
 C29 C -0.01321 -0.12331 0.23388
 C30 C -0.05942 -0.12346 0.25633
 C31 C -0.06866 -0.07934 0.27277
 C32 C -0.03015 -0.03892 0.26542
 C33 C -0.03190 -0.06406 0.21104
 C34 C -0.04052 -0.02005 0.22725
 C35 C 0.03969 -0.12280 0.25782
 C36 C 0.03122 -0.07881 0.27437
 H37 H -0.08198 -0.15632 0.25945
 H38 H -0.03780 -0.00286 0.27863
 H39 H -0.03477 -0.05756 0.18418
 H40 H 0.07985 -0.15560 0.26225
 C41 C 0.07910 0.04321 0.72592
 C42 C 0.07737 -0.01104 0.75022
 C43 C 0.03172 -0.00431 0.76697
 C44 C -0.00821 0.05691 0.75805
 C45 C 0.02075 0.06289 0.70341
 C46 C -0.02469 0.06982 0.71999
 C47 C 0.07737 0.08743 0.74809
 C48 C 0.03168 0.09498 0.76484
 H49 H 0.11008 -0.05113 0.75421
 H50 H -0.04555 0.06310 0.77148
 H51 H 0.01591 0.06705 0.67659
 H52 H 0.11000 0.10996 0.75079
 C53 C -0.07609 -0.34927 0.09184
 C54 C -0.02845 -0.33940 0.11055
 C55 C 0.02708 -0.36743 0.10531
 C56 C 0.03409 -0.40438 0.08283
 C57 C -0.01353 -0.41369 0.06460
 C58 C -0.06856 -0.38571 0.06930
 C59 C 0.07554 -0.35841 0.12242
 C60 C 0.07037 -0.32083 0.14403
 C61 C 0.01615 -0.29092 0.14970
 C62 C -0.03396 -0.30209 0.13375
 C63 C -0.08773 -0.27595 0.14175
 C64 C -0.09265 -0.23887 0.16373
 C65 C -0.04455 -0.22538 0.17816
 C66 C 0.01044 -0.25060 0.17108
 C67 C 0.05718 -0.23270 0.18473
 C68 C 0.04971 -0.19283 0.20517
 C69 C -0.00424 -0.17017 0.21368
 C70 C -0.05143 -0.18584 0.19919
 H71 H -0.11981 -0.32878 0.09350
 H72 H 0.07695 -0.42549 0.07928
 H73 H -0.10620 -0.39187 0.05544
 H74 H 0.11811 -0.38031 0.11884
 H75 H 0.11007 -0.31703 0.15649
 H76 H -0.12708 -0.28395 0.13183
 H77 H -0.13484 -0.21992 0.16914
 H78 H 0.09983 -0.24685 0.17906
 H79 H 0.08653 -0.17861 0.21329
 H80 H -0.09411 -0.16602 0.20353
 C81 C 0.03782 0.29035 0.12305
 C82 C -0.01088 0.26869 0.12294
 C83 C -0.05695 0.29354 0.09614
 C84 C -0.05432 0.33905 0.07105
 C85 C -0.00533 0.35933 0.07147
 C86 C 0.04042 0.33459 0.09772
 C87 C -0.10488 0.27208 0.09415
 C88 C -0.10702 0.22464 0.11723
 C89 C -0.06155 0.19737 0.14382
 C90 C -0.01430 0.22185 0.14777
 C91 C 0.02817 0.19845 0.17630
 C92 C 0.02724 0.14995 0.19874
 C93 C -0.01560 0.12248 0.19357
 C94 C -0.06113 0.14598 0.16633
 C95 C -0.10259 0.11522 0.16187
 C96 C -0.09733 0.06253 0.18275
 C97 C -0.05155 0.03945 0.20904
 C98 C -0.01164 0.07017 0.21478
 H99 H 0.07554 0.27292 0.14173
 H100 H -0.08980 0.35758 0.05069
 H101 H 0.07885 0.34937 0.09871
 H102 H -0.14060 0.29130 0.07400
 H103 H -0.14537 0.21056 0.11370
 H104 H 0.06285 0.21689 0.18219
 H105 H 0.06145 0.13282 0.21992
 H106 H -0.13804 0.12923 0.14159
 H107 H -0.12819 0.03875 0.17774
 H108 H 0.02502 0.05132 0.23425
 C109 C 0.32243 0.11134 0.58423
 C110 C 0.30872 0.06332 0.60222
 C111 C 0.33470 0.00882 0.59592
 C112 C 0.37354 0.00305 0.57318
 C113 C 0.38666 0.05103 0.55570
 C114 C 0.36063 0.10511 0.56140
 C115 C 0.32169 -0.03978 0.61220
 C116 C 0.28208 -0.03560 0.63397
 C117 C 0.25415 0.01767 0.64069
 C118 C 0.26949 0.06759 0.62569
 C119 C 0.24549 0.11986 0.63490
 C120 C 0.20652 0.12370 0.65713
 C121 C 0.18890 0.07607 0.67059
 C122 C 0.21180 0.02257 0.66223
 C123 C 0.18964 -0.02335 0.67479
 C124 C 0.14799 -0.01669 0.69546
 C125 C 0.12775 0.03537 0.70538
 C126 C 0.14755 0.08204 0.69189
 H127 H 0.30362 0.15448 0.58667
 H128 H 0.39306 -0.03902 0.56881
 H129 H 0.36974 0.14302 0.54812
 H130 H 0.34200 -0.08163 0.60781
 H131 H 0.27519 -0.07539 0.64576
 H132 H 0.25672 0.15872 0.62579
 H133 H 0.18938 0.16473 0.66351
 H134 H 0.20176 -0.06445 0.66803
 H135 H 0.13053 -0.05246 0.70282
 H136 H 0.12955 0.12377 0.69711
 C137 C -0.31330 -0.01300 0.60867
 C138 C -0.29827 0.03779 0.61220
 C139 C -0.32718 0.08859 0.58854
 C140 C -0.37100 0.08843 0.56331
 C141 C -0.38547 0.03752 0.56020
 C142 C -0.35574 -0.01303 0.58316
 C143 C -0.31157 0.13908 0.58988
 C144 C -0.26606 0.13974 0.61320
 C145 C -0.23528 0.08996 0.63686
 C146 C -0.25403 0.03918 0.63761
 C147 C -0.22798 -0.00854 0.66373
 C148 C -0.18200 -0.00848 0.68671
 C149 C -0.15957 0.03864 0.68434
 C150 C -0.18600 0.08887 0.65962
 C151 C -0.16000 0.13465 0.65767
 C152 C -0.10892 0.12948 0.67852
 C153 C -0.08314 0.07942 0.70239
 C154 C -0.10924 0.03473 0.70574
 H155 H -0.29183 -0.05397 0.62457
 H156 H -0.39291 0.12790 0.54567
 H157 H -0.36515 -0.05335 0.58158
 H158 H -0.33386 0.17830 0.57216
 H159 H -0.25650 0.18034 0.61237
 H160 H -0.24264 -0.04668 0.66735
 H161 H -0.16269 -0.04651 0.70598
 H162 H -0.17629 0.17380 0.63921
 H163 H -0.08841 0.16400 0.67531
 H164 H -0.08801 -0.00483 0.72339
 C165 C 0.08960 -0.33577 0.91307
 C166 C 0.04242 -0.29210 0.89399
 C167 C -0.01328 -0.29887 0.89634
 C168 C -0.02081 -0.34746 0.91706
 C169 C 0.02656 -0.38982 0.93634
 C170 C 0.08169 -0.38329 0.93377
 C171 C -0.06130 -0.25684 0.87830
 C172 C -0.05557 -0.20780 0.85815
 C173 C -0.00114 -0.19874 0.85502
 C174 C 0.04871 -0.24199 0.87293
 C175 C 0.10324 -0.23381 0.86911
 C176 C 0.10914 -0.18553 0.84855
 C177 C 0.06120 -0.14302 0.83105
 C178 C 0.00529 -0.14831 0.83426
 C179 C -0.04162 -0.10266 0.81650
 C180 C -0.03299 -0.05543 0.79555
 C181 C 0.02243 -0.05195 0.79138
 C182 C 0.06926 -0.09541 0.81001
 H183 H 0.13345 -0.33454 0.91309
 H184 H -0.06386 -0.35144 0.91865
 H185 H 0.11949 -0.41492 0.94809
 H186 H -0.10402 -0.26177 0.87987
 H187 H -0.09495 -0.17787 0.84504
 H188 H 0.14279 -0.26430 0.88141
 H189 H 0.15198 -0.18157 0.84622
 H190 H -0.08558 -0.10204 0.81809
 H191 H -0.07019 -0.02228 0.78204
 H192 H 0.11250 -0.09238 0.80820
 C193 C 0.09147 0.30767 0.91451
 C194 C 0.04423 0.29902 0.89472
 C195 C -0.01139 0.33161 0.89703
 C196 C -0.01880 0.37073 0.91835
 C197 C 0.02851 0.37833 0.93789
 C198 C 0.08355 0.34650 0.93563
 C199 C -0.05948 0.32495 0.87817
 C200 C -0.05397 0.28658 0.85696
 C201 C 0.00029 0.25293 0.85367
 C202 C 0.05024 0.25929 0.87287
 C203 C 0.10453 0.22572 0.86960
 C204 C 0.11014 0.18760 0.84831
 C205 C 0.06212 0.18108 0.82937
 C206 C 0.00640 0.21325 0.83176
 C207 C -0.04069 0.20419 0.81199
 C208 C -0.03238 0.16556 0.79066
 C209 C 0.02286 0.13471 0.78818
 C210 C 0.06986 0.14241 0.80789
 H211 H 0.13527 0.28516 0.91445
 H212 H -0.06170 0.39503 0.91986
 H213 H 0.12098 0.35141 0.95038
 H214 H -0.10210 0.34976 0.87982
 H215 H -0.09346 0.28444 0.84339
 H216 H 0.14406 0.22777 0.88314
 H217 H 0.15281 0.16297 0.84661
 H218 H -0.08456 0.22638 0.81218
 H219 H -0.06944 0.16080 0.77550
 H220 H 0.11283 0.11781 0.80677
 C221 C -0.34707 0.06256 0.38549
 C222 C -0.31124 0.00855 0.38401
 C223 C -0.31885 -0.04041 0.40483
 C224 C -0.36006 -0.03499 0.42623
 C225 C -0.39468 0.01885 0.42757
 C226 C -0.38785 0.06740 0.40689
 C227 C -0.28520 -0.09471 0.40437
 C228 C -0.24397 -0.10196 0.38367
 C229 C -0.23436 -0.05485 0.36244
 C230 C -0.26838 0.00139 0.36270
 C231 C -0.25830 0.04852 0.34172
 C232 C -0.21701 0.04119 0.32100
 C233 C -0.18396 -0.01323 0.32018
 C234 C -0.19196 -0.06212 0.34089
 C235 C -0.15719 -0.11633 0.33895
 C236 C -0.11722 -0.12146 0.31715
 C237 C -0.11006 -0.07307 0.29654
 C238 C -0.14318 -0.01897 0.29845
 H239 H -0.34488 0.10209 0.37051
 H240 H -0.36486 -0.07297 0.44207
 H241 H -0.41402 0.10962 0.40731
 H242 H -0.29082 -0.13226 0.42023
 H243 H -0.22021 -0.14550 0.38508
 H244 H -0.28163 0.09210 0.34064
 H245 H -0.21103 0.07872 0.30530
 H246 H -0.15969 -0.15586 0.35376
 H247 H -0.09136 -0.16377 0.31667
 H248 H -0.13829 0.01873 0.28238
 C249 C 0.27882 0.06645 0.38722
 C250 C 0.27104 0.01206 0.38454
 C251 C 0.31406 -0.03686 0.40269
 C252 C 0.36156 -0.03122 0.42297
 C253 C 0.36796 0.02276 0.42595
 C254 C 0.32645 0.07150 0.40762
 C255 C 0.30953 -0.09151 0.40086
 C256 C 0.26312 -0.09922 0.38140
 C257 C 0.21864 -0.05226 0.36295
 C258 C 0.22245 0.00437 0.36463
 C259 C 0.17749 0.05121 0.34648
 C260 C 0.13104 0.04328 0.32691
 C261 C 0.12728 -0.01149 0.32450
 C262 C 0.17071 -0.06010 0.34264
 C263 C 0.16435 -0.11463 0.33948
 C264 C 0.11851 -0.12026 0.31816
 C265 C 0.07691 -0.07208 0.29924
 C266 C 0.08062 -0.01780 0.30354
 H267 H 0.24890 0.10600 0.37404
 H268 H 0.39347 -0.06941 0.43687
 H269 H 0.33029 0.11379 0.40939
 H270 H 0.34243 -0.12900 0.41468
 H271 H 0.26365 -0.14302 0.38150
 H272 H 0.17680 0.09495 0.34681
 H273 H 0.09786 0.08064 0.31323
 H274 H 0.19416 -0.15410 0.35279
 H275 H 0.11580 -0.16296 0.31662
 H276 H 0.04819 0.01993 0.28990
   
