data_POSCAR
  _audit_creation_date              2014-09-24
  _audit_creation_method            'ToBaCCo'
  _symmetry_space_group_name_H-M    'P1'
  _symmetry_Int_Tables_number       1
  _symmetry_cell_setting            triclinic
  loop_
  _symmetry_equiv_pos_as_xyz
 x,y,z
_cell_length_a 27.5821
_cell_length_b 27.5821
_cell_length_c 51.2617
_cell_angle_alpha 89.996300
_cell_angle_beta 89.996300
_cell_angle_gamma 119.566900
loop_
  _atom_site_label
  _atom_site_type_symbol
  _atom_site_fract_x
  _atom_site_fract_y
  _atom_site_fract_z
Zn1 Zn 0.96442 0.03811 1.01257
 Zn2 Zn 1.07293 0.03842 1.01075
 Zn3 Zn 0.96577 -0.07020 1.01303
 Zn4 Zn 0.99623 -0.00129 0.96485
 O5 O 0.99984 0.00125 1.00036
 O6 O 1.00919 0.09844 1.03148
 O7 O 1.09141 -0.00400 1.03033
 O8 O 0.90734 -0.08496 1.03350
 O9 O 1.08951 0.09863 1.03019
 O10 O 0.90655 -0.00496 1.03329
 O11 O 1.01173 -0.08377 1.03241
 O12 O 0.96108 -0.07046 0.95236
 O13 O 1.12063 0.06296 0.98378
 O14 O 0.93953 -0.12264 0.98786
 O15 O 1.06354 0.03208 0.94984
 O16 O 0.95936 0.03118 0.95176
 O17 O 0.93709 0.06233 0.98701
 C18 C 1.06019 0.11983 1.03767
 C19 C 1.06280 -0.05386 1.03835
 C20 C 0.88636 -0.05520 1.04068
 C21 C 0.93937 -0.11781 0.96325
 C22 C 1.11235 0.05774 0.95933
 C23 C 0.93674 0.05649 0.96244
 Zn24 Zn 0.03735 0.96518 0.51257
 Zn25 Zn -0.07096 0.96653 0.51303
 Zn26 Zn 0.03766 1.07369 0.51075
 Zn27 Zn -0.00205 0.99699 0.46485
 O28 O 0.00049 1.00060 0.50036
 O29 O -0.00572 0.90732 0.53329
 O30 O -0.08453 1.01249 0.53241
 O31 O 0.09787 1.09027 0.53019
 O32 O -0.08573 0.90810 0.53350
 O33 O 0.09768 1.00995 0.53148
 O34 O -0.00476 1.09217 0.53033
 O35 O 0.03132 1.06430 0.44984
 O36 O -0.12341 0.94030 0.48786
 O37 O 0.06220 1.12139 0.48378
 O38 O -0.07122 0.96184 0.45236
 O39 O 0.03042 0.96012 0.45176
 O40 O 0.06156 0.93785 0.48701
 C41 C -0.05597 0.88712 0.54068
 C42 C -0.05462 1.06356 0.53835
 C43 C 0.11907 1.06096 0.53767
 C44 C 0.05698 1.11311 0.45933
 C45 C -0.11858 0.94013 0.46325
 C46 C 0.05573 0.93750 0.46244
 O47 O 0.24944 0.56720 0.26950
 O48 O 0.24923 0.66036 0.27935
 C49 C 0.27534 0.71129 0.28590
 O50 O 0.31976 0.74746 0.27475
 O51 O 0.41113 0.74435 0.28285
 C52 C 0.43745 0.71828 0.28676
 O53 O 0.43054 0.67719 0.27295
 O54 O 0.33562 0.58518 0.27941
 C55 C 0.28328 0.55841 0.28279
 O56 O 0.25616 0.59076 0.21818
 O57 O 0.25184 0.68121 0.22802
 C58 C 0.28708 0.72594 0.21681
 O59 O 0.33834 0.75206 0.22277
 O60 O 0.43210 0.75236 0.23086
 C61 C 0.44129 0.71879 0.21750
 O62 O 0.41565 0.66649 0.22111
 O63 O 0.32379 0.57134 0.22720
 C64 C 0.28230 0.56469 0.21371
 Cr65 Cr 0.25483 0.62647 0.24885
 Cr66 Cr 0.37382 0.74597 0.25270
 Cr67 Cr 0.37477 0.62657 0.25019
 O68 O 0.33445 0.66647 0.25054
 O69 O 0.74359 0.41189 0.78285
 O70 O 0.74670 0.32052 0.77475
 C71 C 0.71053 0.27610 0.78590
 O72 O 0.65960 0.24999 0.77935
 O73 O 0.56644 0.25020 0.76950
 C74 C 0.55765 0.28404 0.78280
 O75 O 0.58442 0.33638 0.77941
 O76 O 0.67643 0.43130 0.77295
 C77 C 0.71752 0.43821 0.78676
 O78 O 0.75160 0.43287 0.73086
 O79 O 0.75130 0.33911 0.72277
 C80 C 0.72518 0.28785 0.71681
 O81 O 0.68045 0.25261 0.72802
 O82 O 0.59000 0.25692 0.71818
 C83 C 0.56393 0.28306 0.71371
 O84 O 0.57058 0.32455 0.72720
 O85 O 0.66573 0.41642 0.72111
 C86 C 0.71803 0.44205 0.71750
 Cr87 Cr 0.74521 0.37458 0.75270
 Cr88 Cr 0.62571 0.25559 0.74885
 Cr89 Cr 0.62581 0.37553 0.75019
 O90 O 0.66570 0.33521 0.75054
 C91 C 0.13222 0.26151 0.08515
 N92 N 0.16175 0.23625 0.07797
 N93 N 0.13897 0.19139 0.06266
 C94 C 0.08575 0.17003 0.05403
 N95 N 0.05627 0.19536 0.06116
 N96 N 0.07911 0.24032 0.07641
 C97 C 0.15676 0.30995 0.10265
 N98 N 0.12809 0.33657 0.10901
 N99 N 0.14964 0.37942 0.12555
 C100 C 0.20058 0.39712 0.13637
 N101 N 0.22935 0.37066 0.12991
 N102 N 0.20787 0.32792 0.11332
 C103 C 0.22323 0.44265 0.15551
 N104 N 0.27135 0.45634 0.16835
 N105 N 0.29063 0.49587 0.18659
 C106 C 0.26260 0.52331 0.19261
 N107 N 0.21473 0.50998 0.17961
 N108 N 0.19536 0.47032 0.16141
 C109 C 0.74854 0.87613 0.09066
 N110 N 0.77302 0.93062 0.08361
 N111 N 0.81675 0.95243 0.06758
 C112 C 0.83772 0.92059 0.05808
 N113 N 0.81322 0.86610 0.06512
 N114 N 0.76939 0.84425 0.08109
 C115 C 0.70084 0.85225 0.10863
 N116 N 0.67465 0.79715 0.11464
 N117 N 0.63198 0.77563 0.13128
 C118 C 0.61400 0.80846 0.14256
 N119 N 0.64012 0.86355 0.13652
 N120 N 0.68269 0.88503 0.11982
 C121 C 0.56794 0.78496 0.16144
 N122 N 0.55299 0.81849 0.17442
 N123 N 0.51227 0.79736 0.19209
 C124 C 0.48487 0.74189 0.19737
 N125 N 0.49959 0.70832 0.18428
 N126 N 0.54041 0.72948 0.16666
 C127 C 0.13586 0.87915 0.08748
 N128 N 0.16649 0.93175 0.07800
 N129 N 0.14343 0.95304 0.06215
 C130 C 0.08896 0.92247 0.05519
 N131 N 0.05849 0.86982 0.06458
 N132 N 0.08150 0.84858 0.08043
 C133 C 0.16038 0.85589 0.10559
 N134 N 0.12838 0.80429 0.11585
 N135 N 0.14977 0.78342 0.13283
 C136 C 0.20400 0.81330 0.14017
 N137 N 0.23618 0.86485 0.12983
 N138 N 0.21473 0.88579 0.11285
 C139 C 0.22661 0.79042 0.15952
 N140 N 0.28100 0.81908 0.16685
 N141 N 0.30065 0.79845 0.18491
 C142 C 0.26655 0.74849 0.19632
 N143 N 0.21228 0.71988 0.18890
 N144 N 0.19271 0.74041 0.17084
 C145 C 0.87537 0.74930 0.59066
 N146 N 0.92986 0.77378 0.58361
 N147 N 0.95167 0.81751 0.56758
 C148 C 0.91983 0.83848 0.55808
 N149 N 0.86533 0.81398 0.56512
 N150 N 0.84349 0.77015 0.58109
 C151 C 0.85149 0.70160 0.60863
 N152 N 0.79638 0.67542 0.61464
 N153 N 0.77487 0.63274 0.63128
 C154 C 0.80769 0.61476 0.64256
 N155 N 0.86279 0.64088 0.63652
 N156 N 0.88427 0.68346 0.61982
 C157 C 0.78420 0.56870 0.66144
 N158 N 0.81773 0.55376 0.67442
 N159 N 0.79659 0.51303 0.69209
 C160 C 0.74112 0.48563 0.69737
 N161 N 0.70756 0.50036 0.68428
 N162 N 0.72872 0.54117 0.66666
 C163 C 0.26074 0.13298 0.58515
 N164 N 0.23549 0.16251 0.57797
 N165 N 0.19063 0.13973 0.56266
 C166 C 0.16927 0.08652 0.55403
 N167 N 0.19460 0.05703 0.56116
 N168 N 0.23955 0.07987 0.57641
 C169 C 0.30919 0.15752 0.60265
 N170 N 0.33581 0.12886 0.60901
 N171 N 0.37866 0.15040 0.62555
 C172 C 0.39636 0.20134 0.63637
 N173 N 0.36990 0.23011 0.62991
 N174 N 0.32716 0.20864 0.61332
 C175 C 0.44188 0.22399 0.65551
 N176 N 0.45557 0.27211 0.66835
 N177 N 0.49510 0.29139 0.68659
 C178 C 0.52255 0.26336 0.69261
 N179 N 0.50922 0.21549 0.67961
 N180 N 0.46955 0.19612 0.66141
 C181 C 0.87839 0.13663 0.58748
 N182 N 0.84782 0.08226 0.58043
 N183 N 0.86906 0.05925 0.56458
 C184 C 0.92171 0.08972 0.55519
 N185 N 0.95228 0.14419 0.56215
 N186 N 0.93099 0.16725 0.57800
 C187 C 0.85513 0.16114 0.60559
 N188 N 0.88503 0.21549 0.61285
 N189 N 0.86408 0.23694 0.62983
 C190 C 0.81253 0.20476 0.64017
 N191 N 0.78266 0.15053 0.63283
 N192 N 0.80353 0.12914 0.61585
 C193 C 0.78966 0.22737 0.65952
 N194 N 0.73964 0.19347 0.67084
 N195 N 0.71911 0.21305 0.68890
 C196 C 0.74773 0.26731 0.69632
 N197 N 0.79769 0.30141 0.68491
 N198 N 0.81832 0.28176 0.66685
 C199 C 0.24820 0.12616 0.90830
 N200 N 0.19717 0.08631 0.90003
 N201 N 0.15389 0.06474 0.91630
 C202 C 0.16020 0.08175 0.94152
 N203 N 0.21131 0.12138 0.94986
 N204 N 0.25449 0.14343 0.93350
 C205 C 0.29558 0.14993 0.89020
 N206 N 0.34217 0.19906 0.89555
 N207 N 0.38469 0.22080 0.87881
 C208 C 0.38233 0.19384 0.85627
 N209 N 0.33590 0.14457 0.85103
 N210 N 0.29318 0.12317 0.86761
 C211 C 0.42882 0.21744 0.83767
 N212 N 0.43243 0.18478 0.81885
 N213 N 0.47395 0.20601 0.80162
 C214 C 0.51307 0.26083 0.80238
 N215 N 0.50945 0.29361 0.82118
 N216 N 0.46820 0.27221 0.83861
 C217 C 0.86546 0.74180 0.91505
 N218 N 0.87483 0.79217 0.90640
 N219 N 0.89848 0.83667 0.92184
 C220 C 0.91307 0.83242 0.94665
 N221 N 0.90336 0.78194 0.95547
 N222 N 0.88025 0.73743 0.93986
 C223 C 0.84017 0.69348 0.89752
 N224 N 0.84504 0.64756 0.90211
 N225 N 0.82382 0.60499 0.88536
 C226 C 0.79651 0.60668 0.86362
 N227 N 0.79121 0.65234 0.85924
 N228 N 0.81290 0.69505 0.87580
 C229 C 0.77425 0.56096 0.84459
 N230 N 0.73747 0.55789 0.82620
 N231 N 0.71875 0.51810 0.80812
 C232 C 0.73653 0.48019 0.80757
 N233 N 0.77328 0.48311 0.82601
 N234 N 0.79163 0.52267 0.84428
 C235 C 0.85901 0.12022 0.91449
 N236 N 0.87868 0.14304 0.93832
 N237 N 0.90292 0.12241 0.95382
 C238 C 0.90915 0.07885 0.94583
 N239 N 0.88974 0.05630 0.92197
 N240 N 0.86478 0.07636 0.90666
 C241 C 0.83305 0.14310 0.89712
 N242 N 0.79744 0.11090 0.87812
 N243 N 0.77528 0.13199 0.86167
 C244 C 0.78856 0.18625 0.86340
 N245 N 0.82424 0.21852 0.88239
 N246 N 0.84578 0.19720 0.89909
 C247 C 0.76662 0.21007 0.84428
 N248 N 0.79467 0.26547 0.83892
 N249 N 0.77650 0.28661 0.82046
 C250 C 0.72921 0.25323 0.80696
 N251 N 0.70074 0.19794 0.81256
 N252 N 0.71935 0.17668 0.83076
 C253 C 0.74104 0.86622 0.41505
 N254 N 0.79141 0.87560 0.40640
 N255 N 0.83591 0.89924 0.42184
 C256 C 0.83166 0.91383 0.44665
 N257 N 0.78118 0.90413 0.45547
 N258 N 0.73667 0.88101 0.43986
 C259 C 0.69272 0.84093 0.39752
 N260 N 0.64679 0.84580 0.40211
 N261 N 0.60422 0.82459 0.38536
 C262 C 0.60591 0.79727 0.36362
 N263 N 0.65158 0.79197 0.35924
 N264 N 0.69429 0.81366 0.37580
 C265 C 0.56020 0.77501 0.34459
 N266 N 0.55713 0.73823 0.32620
 N267 N 0.51734 0.71951 0.30812
 C268 C 0.47942 0.73729 0.30757
 N269 N 0.48235 0.77404 0.32601
 N270 N 0.52191 0.79240 0.34428
 C271 C 0.12539 0.24896 0.40830
 N272 N 0.14267 0.25525 0.43350
 N273 N 0.12062 0.21207 0.44986
 C274 C 0.08099 0.16096 0.44152
 N275 N 0.06398 0.15466 0.41630
 N276 N 0.08555 0.19793 0.40003
 C277 C 0.14916 0.29634 0.39020
 N278 N 0.12240 0.29395 0.36762
 N279 N 0.14380 0.33666 0.35103
 C280 C 0.19308 0.38309 0.35627
 N281 N 0.22004 0.38546 0.37881
 N282 N 0.19829 0.34293 0.39555
 C283 C 0.21668 0.42958 0.33767
 N284 N 0.27145 0.46897 0.33861
 N285 N 0.29285 0.51021 0.32118
 C286 C 0.26006 0.51383 0.30238
 N287 N 0.20525 0.47471 0.30162
 N288 N 0.18402 0.43320 0.31885
 C289 C 0.11946 0.85977 0.41449
 N290 N 0.07560 0.86554 0.40666
 N291 N 0.05554 0.89050 0.42197
 C292 C 0.07809 0.90991 0.44583
 N293 N 0.12165 0.90369 0.45382
 N294 N 0.14228 0.87944 0.43832
 C295 C 0.14234 0.83381 0.39713
 N296 N 0.19644 0.84654 0.39909
 N297 N 0.21776 0.82500 0.38239
 C298 C 0.18549 0.78932 0.36340
 N299 N 0.13123 0.77604 0.36167
 N300 N 0.11014 0.79820 0.37812
 C301 C 0.20930 0.76739 0.34428
 N302 N 0.17591 0.72012 0.33076
 N303 N 0.19718 0.70150 0.31256
 C304 C 0.25246 0.72997 0.30696
 N305 N 0.28585 0.77726 0.32046
 N306 N 0.26471 0.79543 0.33892
   
