data_POSCAR
  _audit_creation_date              2014-09-24
  _audit_creation_method            'ToBaCCo'
  _symmetry_space_group_name_H-M    'P1'
  _symmetry_Int_Tables_number       1
  _symmetry_cell_setting            triclinic
  loop_
  _symmetry_equiv_pos_as_xyz
 x,y,z
_cell_length_a 24.2675
_cell_length_b 24.0944
_cell_length_c 24.5593
_cell_angle_alpha 90.089900
_cell_angle_beta 88.994500
_cell_angle_gamma 89.781000
loop_
  _atom_site_label
  _atom_site_type_symbol
  _atom_site_fract_x
  _atom_site_fract_y
  _atom_site_fract_z
C1 C 0.54657 1.00845 -0.39349
 C2 C 0.49608 0.99550 -0.36761
 C3 C 0.44710 0.99116 -0.39622
 C4 C 0.44796 0.99717 -0.45346
 C5 C 0.49755 1.01239 -0.48081
 C6 C 0.54653 1.01954 -0.45058
 C7 C 0.59389 1.03841 -0.47842
 C8 C 0.59512 1.04441 -0.53447
 C9 C 0.54836 1.03386 -0.56612
 C10 C 0.49846 1.01929 -0.53868
 C11 C 0.40139 0.98546 -0.48426
 C12 C 0.40233 0.99132 -0.54046
 C13 C 0.44979 1.01012 -0.56885
 C14 C 0.45044 1.01760 -0.62651
 C15 C 0.50170 1.02677 -0.65297
 C16 C 0.55072 1.03456 -0.62412
 H17 H 0.63109 1.04958 -0.45767
 H18 H 0.63415 1.05717 -0.55161
 H19 H 0.36397 0.96976 -0.46545
 H20 H 0.36555 0.97847 -0.56097
 H21 H 0.49396 0.98634 -0.32461
 H22 H 0.50364 1.03255 -0.69646
 C23 C -0.61229 1.45501 -0.00648
 C24 C -0.63581 1.50714 -0.01723
 C25 C -0.60944 1.55671 -0.00258
 C26 C -0.55524 1.55392 0.01818
 C27 C -0.53079 1.50161 0.02904
 C28 C -0.56001 1.45211 0.01818
 C29 C -0.53672 1.40107 0.03375
 C30 C -0.48452 1.39847 0.05613
 C31 C -0.45275 1.44655 0.06262
 C32 C -0.47688 1.49882 0.05088
 C33 C -0.52368 1.60216 0.02596
 C34 C -0.47088 1.59939 0.04645
 C35 C -0.44693 1.54829 0.06022
 C36 C -0.39308 1.54531 0.08118
 C37 C -0.36980 1.49341 0.09211
 C38 C -0.39802 1.44414 0.08176
 H39 H -0.55876 1.36243 0.02970
 H40 H -0.46961 1.35822 0.06868
 H41 H -0.53836 1.64282 0.01450
 H42 H -0.44895 1.63810 0.05038
 H43 H -0.67646 1.50865 -0.03455
 H44 H -0.32828 1.49124 0.10767
 C45 C 0.05342 0.44504 0.38208
 C46 C 0.04206 0.49420 0.35339
 C47 C 0.02640 0.54342 0.37991
 C48 C 0.02045 0.54431 0.43742
 C49 C 0.03221 0.49559 0.46739
 C50 C 0.05167 0.44713 0.43999
 C51 C 0.06873 0.40187 0.47172
 C52 C 0.05663 0.39966 0.52692
 C53 C 0.02845 0.44341 0.55332
 C54 C 0.02184 0.49414 0.52470
 C55 C 0.00034 0.59129 0.46553
 C56 C -0.00855 0.59030 0.52194
 C57 C 0.00244 0.54229 0.55265
 C58 C -0.00973 0.53884 0.60954
 C59 C -0.01139 0.48625 0.63404
 C60 C 0.00561 0.43777 0.60665
 H61 H 0.09146 0.36720 0.45455
 H62 H 0.07057 0.36324 0.54823
 H63 H -0.01026 0.62884 0.44392
 H64 H -0.02729 0.62656 0.54053
 H65 H 0.04248 0.49476 0.30945
 H66 H -0.02242 0.48410 0.67682
 O67 O -0.15543 0.97592 -0.05536
 O68 O 0.12117 1.01751 -0.10333
 O69 O -0.04120 1.07103 -0.14428
 O70 O -0.01140 0.92413 -0.14683
 O71 O 0.00944 0.85767 -0.08258
 O72 O -0.04518 1.13725 -0.07642
 O73 O 0.04558 1.00722 -0.15810
 O74 O -0.10092 0.98708 -0.13252
 Zr75 Zr -0.02066 0.99763 -0.10171
 O76 O 0.04328 0.95675 -0.06440
 O77 O -0.07087 1.03907 -0.04682
 C78 C -0.14806 0.98007 -0.10756
 C79 C 0.09802 1.01297 -0.15033
 C80 C -0.04982 1.12110 -0.12634
 C81 C 0.00110 0.87411 -0.13234
 H82 H 0.04215 1.08270 -0.09004
 O83 O 0.02683 1.05575 -0.06354
 H84 H -0.07589 0.91252 -0.06741
 O85 O -0.05348 0.94022 -0.04805
 O86 O 0.14375 1.02460 0.04103
 O87 O -0.13205 0.97385 0.08863
 O88 O 0.04218 1.15150 -0.01607
 O89 O 0.08967 0.87010 -0.02043
 O90 O -0.05354 0.84555 0.00521
 O91 O -0.10257 1.12638 0.00668
 O92 O 0.00763 1.07879 0.13100
 O93 O 0.02645 0.92878 0.13173
 O94 O -0.01700 1.14171 0.06497
 O95 O 0.02504 0.85971 0.06632
 O96 O 0.11979 1.09681 -0.02781
 O97 O -0.15717 1.04867 0.01560
 O98 O -0.13051 0.90064 0.01843
 O99 O 0.14421 0.94727 -0.03441
 O100 O 0.08959 1.01530 0.11876
 O101 O -0.05784 0.98985 0.14428
 Zr102 Zr 0.08859 1.01477 -0.02336
 Zr103 Zr -0.10002 0.98244 0.00926
 Zr104 Zr -0.02246 1.09431 -0.00603
 Zr105 Zr 0.01028 0.90275 -0.00776
 Zr106 Zr 0.00917 1.00180 0.08833
 O107 O -0.03809 0.94255 0.05000
 O108 O 0.04213 1.05785 0.03378
 C109 C 0.13647 1.02330 0.09340
 C110 C -0.10940 0.97847 0.13569
 C111 C 0.09476 1.14446 -0.02321
 C112 C 0.13632 0.89407 -0.03088
 C113 C -0.10545 0.85294 0.01572
 C114 C -0.14965 1.10190 0.01382
 C115 C -0.00321 1.12868 0.11385
 C116 C 0.02970 0.87744 0.11620
 H117 H -0.07831 1.06119 0.07777
 O118 O -0.05521 1.04094 0.05072
 H119 H 0.08848 0.93965 0.05165
 O120 O 0.05824 0.95900 0.03294
 C121 C 0.40047 1.01884 0.34390
 C122 C 0.39581 1.01799 0.28706
 C123 C 0.34179 1.02050 0.26024
 N124 N 0.33976 1.02351 0.20518
 N125 N 0.29152 1.02508 0.18013
 C126 C 0.24330 1.02358 0.20910
 N127 N 0.24527 1.02047 0.26421
 N128 N 0.29357 1.01909 0.28930
 C129 C 0.18975 1.02358 0.18132
 C130 C 0.18706 1.02980 0.12501
 H131 H 0.43150 1.01385 0.26053
 H132 H 0.15240 1.01702 0.20518
 H133 H 0.36193 1.02251 0.36610
 H134 H 0.22484 1.03706 0.10198
 C135 C -0.39905 1.04301 0.34675
 C136 C -0.38623 1.01759 0.29685
 C137 C -0.32951 1.01813 0.27415
 N138 N -0.31252 0.97705 0.23991
 N139 N -0.26083 0.97565 0.22075
 C140 C -0.22406 1.01530 0.23500
 N141 N -0.24122 1.05681 0.26874
 N142 N -0.29283 1.05793 0.28834
 C143 C -0.16791 1.01588 0.21090
 C144 C -0.14714 0.97042 0.18204
 H145 H -0.41552 0.98999 0.27816
 H146 H -0.14537 1.05462 0.21037
 H147 H -0.36575 1.06506 0.36526
 H148 H -0.17070 0.93232 0.18218
 C149 C -0.40370 1.00653 -0.36382
 C150 C -0.40030 1.00590 -0.30693
 C151 C -0.34750 1.00008 -0.27888
 N152 N -0.34740 0.99553 -0.22388
 N153 N -0.30020 0.99035 -0.19755
 C154 C -0.25121 0.98960 -0.22517
 N155 N -0.25123 0.99429 -0.28022
 N156 N -0.29853 0.99928 -0.30663
 C157 C -0.19888 0.98550 -0.19601
 C158 C -0.19827 0.97718 -0.13990
 H159 H -0.43638 1.01117 -0.28110
 H160 H -0.16057 0.99075 -0.21868
 H161 H -0.36489 1.00378 -0.38569
 H162 H -0.23687 0.97112 -0.11790
 C163 C 0.39707 0.97767 -0.36353
 C164 C 0.34896 1.00946 -0.36507
 C165 C 0.30590 1.00430 -0.32239
 N166 N 0.25659 1.03050 -0.32743
 N167 N 0.21871 1.02817 -0.28746
 C168 C 0.22910 0.99992 -0.24087
 N169 N 0.27834 0.97386 -0.23591
 N170 N 0.31592 0.97584 -0.27593
 C171 C 0.18979 0.99913 -0.19479
 C172 C 0.13453 1.01432 -0.19877
 H173 H 0.34431 1.04101 -0.39604
 H174 H 0.20498 0.98448 -0.15611
 H175 H 0.40168 0.94778 -0.33097
 H176 H 0.11747 1.02443 -0.23801
 C177 C 0.35698 1.40397 -0.02086
 C178 C 0.30042 1.39903 -0.01142
 C179 C 0.27072 1.34660 -0.01928
 N180 N 0.21539 1.34525 -0.01102
 N181 N 0.18787 1.29787 -0.01578
 C182 C 0.21460 1.24989 -0.02881
 N183 N 0.27002 1.25119 -0.03719
 N184 N 0.29759 1.29870 -0.03257
 C185 C 0.18439 1.19704 -0.03208
 C186 C 0.12725 1.19574 -0.02578
 H187 H 0.27728 1.43398 0.00494
 H188 H 0.20739 1.15885 -0.03814
 H189 H 0.37974 1.36846 -0.03644
 H190 H 0.10483 1.23444 -0.02070
 C191 C 0.36150 0.60751 -0.00356
 C192 C 0.31773 0.61970 -0.03767
 C193 C 0.28621 0.67126 -0.02944
 N194 N 0.26614 0.69991 -0.07237
 N195 N 0.23700 0.74636 -0.06428
 C196 C 0.22660 0.76532 -0.01296
 N197 N 0.24620 0.73632 0.02981
 N198 N 0.27599 0.69050 0.02172
 C199 C 0.18916 0.81207 -0.00274
 C200 C 0.18377 0.85684 -0.03799
 H201 H 0.30853 0.59345 -0.07211
 H202 H 0.16352 0.81050 0.03382
 H203 H 0.37346 0.64010 0.02416
 H204 H 0.21309 0.86345 -0.07107
 C205 C -0.35956 0.59577 0.08957
 C206 C -0.30570 0.59907 0.06944
 C207 C -0.27564 0.65175 0.06596
 N208 N -0.22375 0.65217 0.04472
 N209 N -0.19681 0.69975 0.03824
 C210 C -0.22080 0.74881 0.05250
 N211 N -0.27269 0.74844 0.07398
 N212 N -0.29967 0.70075 0.08056
 C213 C -0.19147 0.80155 0.04415
 C214 C -0.13736 0.80207 0.02439
 H215 H -0.28634 0.56264 0.05149
 H216 H -0.21244 0.84014 0.05399
 H217 H -0.37896 0.63242 0.10690
 H218 H -0.11638 0.76308 0.01624
 C219 C -0.36670 1.39198 0.08937
 C220 C -0.36254 1.35149 0.04886
 C221 C -0.32067 1.30739 0.05048
 N222 N -0.32398 1.26299 0.01663
 N223 N -0.28430 1.22459 0.01539
 C224 C -0.23965 1.22961 0.04758
 N225 N -0.23633 1.27401 0.08132
 N226 N -0.27623 1.31206 0.08296
 C227 C -0.19348 1.19033 0.04375
 C228 C -0.19834 1.13759 0.02115
 H229 H -0.38818 1.35401 0.01330
 H230 H -0.15418 1.20339 0.05960
 H231 H -0.33887 1.38999 0.12336
 H232 H -0.23842 1.12181 0.01028
 C233 C 0.05960 1.39349 0.35435
 C234 C 0.06371 1.38617 0.29793
 C235 C 0.05805 1.33101 0.27272
 N236 N 0.04761 1.32744 0.21887
 N237 N 0.03874 1.27840 0.19577
 C238 C 0.04013 1.23088 0.22547
 N239 N 0.05183 1.23419 0.27919
 N240 N 0.06029 1.28345 0.30246
 C241 C 0.02863 1.17706 0.19945
 C242 C 0.00033 1.17634 0.15071
 H243 H 0.06800 1.42086 0.27048
 H244 H 0.04342 1.13892 0.21743
 H245 H 0.05671 1.35560 0.37752
 H246 H -0.01566 1.21523 0.13525
 C247 C -0.00182 1.38490 -0.36880
 C248 C -0.03466 1.37478 -0.32246
 C249 C -0.03982 1.31925 -0.29825
 N250 N -0.07262 1.31224 -0.25362
 N251 N -0.07568 1.26313 -0.22914
 C252 C -0.04620 1.21904 -0.24841
 N253 N -0.01406 1.22574 -0.29365
 N254 N -0.01094 1.27498 -0.31817
 C255 C -0.04480 1.16660 -0.21786
 C256 C -0.06515 1.16466 -0.16462
 H257 H -0.05893 1.40723 -0.30331
 H258 H -0.02124 1.13197 -0.23433
 H259 H 0.01491 1.34831 -0.38820
 H260 H -0.08560 1.20089 -0.14745
 C261 C -0.02080 0.58393 -0.35506
 C262 C 0.00494 0.63570 -0.35727
 C263 C 0.00319 0.67307 -0.30935
 N264 N 0.02233 0.72577 -0.31327
 N265 N 0.02221 0.75892 -0.26971
 C266 C 0.00359 0.74049 -0.22039
 N267 N -0.01497 0.68766 -0.21635
 N268 N -0.01523 0.65469 -0.25996
 C269 C 0.00245 0.77709 -0.17208
 C270 C 0.00633 0.83436 -0.17770
 H271 H 0.03148 0.64685 -0.39133
 H272 H -0.00506 0.75917 -0.13223
 H273 H -0.04303 0.57469 -0.31748
 H274 H 0.00988 0.85169 -0.21831
 C275 C 0.01018 0.58991 0.34415
 C276 C 0.04037 0.63886 0.34029
 C277 C 0.03476 0.67672 0.29336
 N278 N 0.06144 0.72612 0.29257
 N279 N 0.05814 0.75964 0.24956
 C280 C 0.02849 0.74482 0.20539
 N281 N 0.00209 0.69529 0.20605
 N282 N 0.00514 0.66194 0.24917
 C283 C 0.02396 0.78181 0.15769
 C284 C 0.04010 0.83718 0.15995
 H285 H 0.07117 0.64779 0.37044
 H286 H 0.00422 0.76626 0.12153
 H287 H -0.01920 0.58059 0.31274
 H288 H 0.05628 0.85328 0.19764
   
