data_POSCAR
  _audit_creation_date              2014-09-24
  _audit_creation_method            'ToBaCCo'
  _symmetry_space_group_name_H-M    'P1'
  _symmetry_Int_Tables_number       1
  _symmetry_cell_setting            triclinic
  loop_
  _symmetry_equiv_pos_as_xyz
 x,y,z
_cell_length_a 29.8651
_cell_length_b 29.9158
_cell_length_c 30.0499
_cell_angle_alpha 90.227700
_cell_angle_beta 89.543600
_cell_angle_gamma 90.017300
loop_
  _atom_site_label
  _atom_site_type_symbol
  _atom_site_fract_x
  _atom_site_fract_y
  _atom_site_fract_z
C1 C 0.23074 1.12819 0.00466
 C2 C 0.24401 1.10842 0.04492
 C3 C 0.25262 1.06230 0.04659
 C4 C 0.24658 1.03490 0.00898
 C5 C 0.23115 1.05492 -0.03013
 C6 C 0.22482 1.10099 -0.03303
 C7 C 0.25715 0.98600 0.00961
 C8 C 0.26855 0.96329 -0.03041
 C9 C 0.27539 0.91706 -0.03047
 C10 C 0.27373 0.89366 0.00905
 C11 C 0.26340 0.91488 0.04878
 C12 C 0.25464 0.96103 0.04951
 H13 H 0.22578 1.16401 0.00259
 H14 H 0.26588 1.04846 0.07700
 H15 H 0.22357 1.03484 -0.05914
 H16 H 0.27176 0.98083 -0.06163
 H17 H 0.27877 0.85775 0.00862
 H18 H 0.24464 0.97663 0.08055
 C19 C 0.76059 0.61144 0.49493
 C20 C 0.76221 0.58809 0.53465
 C21 C 0.76061 0.54094 0.53388
 C22 C 0.75580 0.51706 0.49269
 C23 C 0.75327 0.54282 0.45310
 C24 C 0.75644 0.58968 0.45444
 C25 C 0.75308 0.46618 0.49074
 C26 C 0.75626 0.44181 0.44953
 C27 C 0.75286 0.39475 0.44901
 C28 C 0.74768 0.37196 0.48857
 C29 C 0.74497 0.39400 0.52885
 C30 C 0.74693 0.44087 0.53037
 H31 H 0.76236 0.64765 0.49558
 H32 H 0.76362 0.52400 0.56528
 H33 H 0.74838 0.52742 0.42105
 H34 H 0.76172 0.45818 0.41808
 H35 H 0.74561 0.33575 0.48798
 H36 H 0.74312 0.45660 0.56248
 C37 C 0.74828 0.97658 1.10560
 C38 C 0.76875 0.94232 1.08029
 C39 C 0.78657 0.95246 1.03845
 C40 C 0.77714 0.99323 1.01725
 C41 C 0.75838 1.02771 1.04334
 C42 C 0.74547 1.02024 1.08779
 C43 C 0.78147 0.99663 0.96737
 C44 C 0.78170 1.03818 0.94452
 C45 C 0.78463 1.03876 0.89765
 C46 C 0.78982 0.99938 0.87407
 C47 C 0.78610 0.95876 0.89506
 C48 C 0.78126 0.95699 0.94128
 H49 H 0.73308 0.96907 1.13756
 H50 H 0.80371 0.92590 1.02071
 H51 H 0.75069 1.05978 1.02882
 H52 H 0.77935 1.06960 0.96221
 H53 H 0.79207 1.00030 0.83803
 H54 H 0.77586 0.92457 0.95599
 C55 C 0.25354 0.51387 0.63169
 C56 C 0.24482 0.47385 0.61036
 C57 C 0.24063 0.47286 0.56380
 C58 C 0.24719 0.51239 0.53810
 C59 C 0.25673 0.55264 0.56145
 C60 C 0.25884 0.55309 0.60803
 C61 C 0.24425 0.51167 0.48782
 C62 C 0.24178 0.55194 0.46245
 C63 C 0.23998 0.55031 0.41568
 C64 C 0.23881 0.50941 0.39432
 C65 C 0.24080 0.46981 0.41774
 C66 C 0.24438 0.47041 0.46410
 H67 H 0.25591 0.51460 0.66769
 H68 H 0.23184 0.44136 0.54872
 H69 H 0.26286 0.58370 0.54444
 H70 H 0.24081 0.58446 0.47796
 H71 H 0.23699 0.50834 0.35828
 H72 H 0.24805 0.43869 0.48052
 C73 C 1.10338 0.26643 0.02232
 C74 C 1.07234 0.26945 0.05716
 C75 C 1.02744 0.25792 0.05038
 C76 C 1.01306 0.24230 0.00874
 C77 C 1.04530 0.23787 -0.02570
 C78 C 1.08970 0.25185 -0.01959
 C79 C 0.96428 0.23571 -0.00054
 C80 C 0.94858 0.24356 -0.04352
 C81 C 0.90362 0.23916 -0.05416
 C82 C 0.87207 0.22891 -0.02096
 C83 C 0.88638 0.22263 0.02319
 C84 C 0.93266 0.22490 0.03289
 H85 H 1.13758 0.27746 0.02717
 H86 H 1.00361 0.26354 0.07716
 H87 H 1.03607 0.22454 -0.05784
 H88 H 0.97120 0.25442 -0.06965
 H89 H 0.83681 0.22696 -0.02896
 H90 H 0.94368 0.21904 0.06655
 C91 C 0.63993 0.74821 0.48943
 C92 C 0.61919 0.75115 0.53045
 C93 C 0.57224 0.75394 0.53319
 C94 C 0.54533 0.75266 0.49408
 C95 C 0.56838 0.74927 0.45236
 C96 C 0.61552 0.74746 0.45060
 C97 C 0.49430 0.75468 0.49706
 C98 C 0.46694 0.75706 0.45816
 C99 C 0.41985 0.75892 0.46205
 C100 C 0.39999 0.75910 0.50349
 C101 C 0.42486 0.75687 0.54174
 C102 C 0.47169 0.75423 0.53920
 H103 H 0.67617 0.74620 0.48766
 H104 H 0.55798 0.75720 0.56599
 H105 H 0.55084 0.74764 0.42123
 H106 H 0.48106 0.75777 0.42508
 H107 H 0.36375 0.76084 0.50608
 H108 H 0.48908 0.75158 0.57027
 C109 C 0.00918 0.76840 -0.11675
 C110 C 0.05188 0.76425 -0.09772
 C111 C 0.05618 0.75579 -0.05143
 C112 C 0.01749 0.75328 -0.02435
 C113 C -0.02421 0.76184 -0.04412
 C114 C -0.02887 0.76665 -0.08975
 C115 C 0.01706 0.73908 0.02350
 C116 C -0.02019 0.71431 0.03776
 C117 C -0.03187 0.71151 0.08227
 C118 C -0.00216 0.72657 0.11472
 C119 C 0.03934 0.74501 0.10189
 C120 C 0.04836 0.75290 0.05590
 H121 H 0.00590 0.77388 -0.15220
 H122 H 0.08883 0.75017 -0.03713
 H123 H -0.05435 0.76376 -0.02381
 H124 H -0.04326 0.70038 0.01368
 H125 H -0.01065 0.72314 0.14967
 H126 H 0.07849 0.77034 0.04576
 C127 C 0.48757 0.25064 0.38168
 C128 C 0.52767 0.24744 0.40424
 C129 C 0.52740 0.24535 0.45110
 C130 C 0.48612 0.24743 0.47569
 C131 C 0.44587 0.25097 0.45069
 C132 C 0.44693 0.25198 0.40398
 C133 C 0.48477 0.24570 0.52644
 C134 C 0.44337 0.24347 0.55072
 C135 C 0.44305 0.24192 0.59750
 C136 C 0.48278 0.24157 0.62041
 C137 C 0.52334 0.24416 0.59864
 C138 C 0.52492 0.24657 0.55187
 H139 H 0.48799 0.25178 0.34560
 H140 H 0.55929 0.24166 0.46712
 H141 H 0.41345 0.25332 0.46634
 H142 H 0.41133 0.24271 0.53463
 H143 H 0.48207 0.24028 0.65650
 H144 H 0.55745 0.24954 0.53649
 C145 C 1.10946 0.02772 0.25381
 C146 C 1.07546 0.05947 0.24805
 C147 C 1.03068 0.04685 0.24989
 C148 C 1.01805 0.00293 0.25924
 C149 C 1.05232 -0.02867 0.26697
 C150 C 1.09797 -0.01704 0.26244
 C151 C 0.96981 -0.01030 0.25565
 C152 C 0.95898 -0.05390 0.24293
 C153 C 0.91500 -0.06651 0.23482
 C154 C 0.88023 -0.03510 0.23764
 C155 C 0.89003 0.00940 0.24926
 C156 C 0.93454 0.02105 0.25988
 H157 H 1.14429 0.03734 0.25042
 H158 H 1.00586 0.07184 0.24194
 H159 H 1.04388 -0.06271 0.27549
 H160 H 0.98489 -0.07857 0.23715
 H161 H 0.84626 -0.04470 0.22955
 H162 H 0.94135 0.05483 0.27071
 C163 C 0.62048 0.49834 0.75072
 C164 C 0.59932 0.53901 0.75328
 C165 C 0.55215 0.54085 0.75499
 C166 C 0.52596 0.50054 0.75313
 C167 C 0.54973 0.45954 0.74991
 C168 C 0.59662 0.45914 0.74914
 C169 C 0.47496 0.50091 0.75417
 C170 C 0.44861 0.46074 0.75619
 C171 C 0.40134 0.46274 0.75652
 C172 C 0.38037 0.50404 0.75583
 C173 C 0.40472 0.54335 0.75425
 C174 C 0.45151 0.54207 0.75283
 H175 H 0.65680 0.49713 0.74969
 H176 H 0.53737 0.57352 0.75808
 H177 H 0.53296 0.42779 0.74758
 H178 H 0.46355 0.42805 0.75778
 H179 H 0.34409 0.50563 0.75641
 H180 H 0.46850 0.57364 0.75025
 C181 C 0.97302 1.11718 0.75044
 C182 C 0.94122 1.08423 0.74169
 C183 C 0.95167 1.03906 0.74638
 C184 C 0.99407 1.02566 0.76085
 C185 C 1.02567 1.05941 0.77101
 C186 C 1.01587 1.10491 0.76391
 C187 C 1.00679 0.97716 0.75976
 C188 C 1.05144 0.96539 0.75178
 C189 C 1.06458 0.92105 0.74698
 C190 C 1.03254 0.88666 0.74840
 C191 C 0.98699 0.89730 0.75524
 C192 C 0.97469 0.94247 0.76223
 H193 H 0.96527 1.15204 0.74450
 H194 H 0.92699 1.01464 0.73625
 H195 H 1.05846 1.05075 0.78323
 H196 H 1.07683 0.99080 0.74719
 H197 H 1.04262 0.85225 0.74314
 H198 H 0.93999 0.95031 0.76906
 C199 C 0.49756 0.61711 0.24545
 C200 C 0.45649 0.59606 0.24646
 C201 C 0.45454 0.54896 0.24797
 C202 C 0.49488 0.52287 0.25006
 C203 C 0.53609 0.54644 0.25013
 C204 C 0.53692 0.59318 0.24715
 C205 C 0.49438 0.47210 0.25291
 C206 C 0.53413 0.44538 0.24778
 C207 C 0.53207 0.39833 0.25171
 C208 C 0.49120 0.37801 0.25933
 C209 C 0.45226 0.40259 0.26318
 C210 C 0.45354 0.44925 0.26101
 H211 H 0.49895 0.65331 0.24384
 H212 H 0.42180 0.53393 0.24712
 H213 H 0.56773 0.52946 0.25300
 H214 H 0.56632 0.45996 0.24038
 H215 H 0.48950 0.34184 0.26143
 H216 H 0.42236 0.46670 0.26580
 O217 O 0.23963 0.15991 0.18296
 O218 O 0.26927 0.13267 0.24868
 O219 O 0.11109 0.21104 0.24623
 O220 O 0.10022 0.25654 0.30633
 O221 O 0.16518 0.28207 0.14413
 O222 O 0.23019 0.33088 0.13638
 O223 O 0.23289 0.31558 0.37933
 O224 O 0.17799 0.25500 0.38345
 O225 O 0.34428 0.25749 0.31731
 O226 O 0.35488 0.21018 0.24794
 O227 O 0.29628 0.37857 0.26805
 O228 O 0.23354 0.40029 0.22305
 O229 O 0.23874 0.37251 0.32993
 O230 O 0.18543 0.39579 0.26952
 O231 O 0.34637 0.32172 0.26334
 O232 O 0.35931 0.26234 0.20777
 O233 O 0.29182 0.25516 0.37227
 O234 O 0.23668 0.20465 0.38133
 O235 O 0.23378 0.21781 0.13469
 O236 O 0.27583 0.28103 0.12649
 O237 O 0.11479 0.28781 0.20092
 O238 O 0.10332 0.31989 0.27037
 O239 O 0.16136 0.15445 0.23838
 O240 O 0.21824 0.13202 0.29056
 Zr241 Zr 0.22383 0.18674 0.24645
 O242 O 0.26733 0.21827 0.29206
 Zr243 Zr 0.14996 0.26810 0.25719
 O244 O 0.19008 0.30375 0.30245
 Zr245 Zr 0.22710 0.27357 0.17729
 O246 O 0.27150 0.30826 0.21910
 Zr247 Zr 0.23136 0.25902 0.33692
 O248 O 0.18706 0.22242 0.29520
 Zr249 Zr 0.30871 0.26315 0.25751
 O250 O 0.26859 0.22848 0.21169
 Zr251 Zr 0.23455 0.34478 0.26648
 O252 O 0.19018 0.31367 0.22183
 O253 O 0.18411 0.22982 0.20940
 O254 O 0.27473 0.30246 0.30381
 C255 C 0.24387 0.17723 0.14399
 C256 C 0.12117 0.16991 0.23968
 C257 C 0.12573 0.29038 0.15983
 C258 C 0.23666 0.35724 0.36973
 C259 C 0.33258 0.25519 0.35851
 C260 C 0.33634 0.36335 0.26653
 H261 H 0.28483 0.19547 0.30814
 H262 H 0.29091 0.32768 0.20068
 H263 H 0.16564 0.21456 0.18671
 H264 H 0.17074 0.32094 0.32318
 H265 H 0.15928 0.22912 0.37464
 H266 H 0.11050 0.27093 0.33412
 H267 H 0.35505 0.28892 0.18878
 H268 H 0.30293 0.26543 0.13704
 H269 H 0.22716 0.17788 0.36461
 H270 H 0.19252 0.13820 0.31066
 H271 H 0.25438 0.39374 0.19813
 H272 H 0.20863 0.35277 0.14897
 H273 H 0.29864 0.14464 0.23903
 H274 H 0.35237 0.18983 0.27372
 H275 H 0.11600 0.34749 0.25734
 H276 H 0.16757 0.39164 0.29707
 O277 O 0.76514 0.84398 0.16423
 O278 O 0.72108 0.86258 0.22731
 O279 O 0.88019 0.78207 0.21932
 O280 O 0.89238 0.73129 0.27356
 O281 O 0.81679 0.70877 0.11668
 O282 O 0.75076 0.67916 0.10075
 O283 O 0.75814 0.67557 0.34959
 O284 O 0.81412 0.73253 0.35696
 O285 O 0.64525 0.74035 0.29574
 O286 O 0.63091 0.78427 0.23426
 O287 O 0.69224 0.61759 0.24258
 O288 O 0.75465 0.59911 0.18909
 O289 O 0.75265 0.61817 0.30023
 O290 O 0.80145 0.59756 0.23720
 O291 O 0.64286 0.67523 0.24075
 O292 O 0.63388 0.73966 0.18326
 O293 O 0.70078 0.73907 0.34687
 O294 O 0.76465 0.78600 0.35848
 O295 O 0.75962 0.78650 0.11482
 O296 O 0.70308 0.72432 0.10885
 O297 O 0.87351 0.71267 0.16651
 O298 O 0.88317 0.66950 0.23219
 O299 O 0.83154 0.84054 0.22132
 O300 O 0.77289 0.85976 0.27495
 Zr301 Zr 0.76811 0.80979 0.22523
 O302 O 0.72442 0.77692 0.26982
 Zr303 Zr 0.84000 0.72536 0.22688
 O304 O 0.80059 0.68945 0.27290
 Zr305 Zr 0.75845 0.72667 0.15230
 O306 O 0.71597 0.68932 0.19419
 Zr307 Zr 0.76114 0.73381 0.31067
 O308 O 0.80572 0.77037 0.26920
 Zr309 Zr 0.68080 0.73413 0.23540
 O310 O 0.72014 0.77191 0.19028
 Zr311 Zr 0.75408 0.65025 0.23803
 O312 O 0.79622 0.68302 0.19199
 O313 O 0.80479 0.76684 0.18402
 O314 O 0.71566 0.69245 0.27842
 C315 C 0.76091 0.82849 0.12462
 C316 C 0.87113 0.82389 0.21828
 C317 C 0.85805 0.70445 0.12767
 C318 C 0.75481 0.63373 0.33995
 C319 C 0.65922 0.74119 0.33590
 C320 C 0.65250 0.63337 0.24303
 H321 H 0.70747 0.79939 0.28727
 H322 H 0.69584 0.67087 0.17573
 H323 H 0.82436 0.78201 0.16202
 H324 H 0.82005 0.67132 0.29222
 H325 H 0.83750 0.75317 0.34568
 H326 H 0.88346 0.71418 0.30030
 H327 H 0.63172 0.71020 0.16835
 H328 H 0.68498 0.75143 0.11485
 H329 H 0.74747 0.81171 0.34714
 H330 H 0.79581 0.84956 0.29628
 H331 H 0.72761 0.60263 0.17063
 H332 H 0.75552 0.64960 0.11461
 H333 H 0.69540 0.85285 0.20902
 H334 H 0.64374 0.81122 0.24841
 H335 H 0.87054 0.64558 0.21321
 H336 H 0.82350 0.60342 0.26091
 O337 O 0.74980 0.13245 0.80957
 O338 O 0.68229 0.12459 0.75332
 O339 O 0.85400 0.17544 0.73194
 O340 O 0.86658 0.23937 0.68243
 O341 O 0.81413 0.24669 0.85342
 O342 O 0.75195 0.30030 0.86665
 O343 O 0.73709 0.30518 0.62923
 O344 O 0.78796 0.23742 0.61435
 O345 O 0.62624 0.24628 0.68648
 O346 O 0.61776 0.19247 0.75607
 O347 O 0.68170 0.35713 0.74327
 O348 O 0.75150 0.37008 0.79320
 O349 O 0.74166 0.35966 0.68182
 O350 O 0.79105 0.37505 0.73880
 O351 O 0.62643 0.30525 0.74828
 O352 O 0.61186 0.24896 0.79535
 O353 O 0.67699 0.24568 0.62979
 O354 O 0.73074 0.19396 0.61454
 O355 O 0.75101 0.18727 0.86212
 O356 O 0.70453 0.24852 0.87644
 O357 O 0.86236 0.24328 0.79456
 O358 O 0.87587 0.28474 0.73137
 O359 O 0.79559 0.12722 0.72618
 O360 O 0.73048 0.10478 0.71101
 Zr361 Zr 0.74066 0.16440 0.74754
 O362 O 0.69930 0.20216 0.70571
 Zr363 Zr 0.82249 0.23878 0.73786
 O364 O 0.78334 0.28233 0.69979
 Zr365 Zr 0.75063 0.24482 0.82280
 O366 O 0.70590 0.28504 0.78662
 Zr367 Zr 0.73736 0.24404 0.66380
 O368 O 0.77837 0.20011 0.69967
 Zr369 Zr 0.66310 0.24607 0.74653
 O370 O 0.70240 0.20585 0.78915
 Zr371 Zr 0.74319 0.32300 0.74110
 O372 O 0.78850 0.28499 0.77923
 O373 O 0.78777 0.20024 0.78365
 O374 O 0.69819 0.28696 0.70237
 C375 C 0.75246 0.14624 0.85028
 C376 C 0.83722 0.13656 0.72395
 C377 C 0.85371 0.24678 0.83623
 C378 C 0.73947 0.34647 0.64135
 C379 C 0.63691 0.24616 0.64473
 C380 C 0.64024 0.34551 0.74628
 H381 H 0.67988 0.18190 0.68834
 H382 H 0.68856 0.30393 0.80762
 H383 H 0.80916 0.18131 0.80009
 H384 H 0.80322 0.30029 0.68041
 H385 H 0.80657 0.26478 0.61475
 H386 H 0.85545 0.21661 0.66123
 H387 H 0.62592 0.26014 0.82291
 H388 H 0.67897 0.22909 0.86842
 H389 H 0.74302 0.16630 0.62763
 H390 H 0.72441 0.11391 0.67998
 H391 H 0.72373 0.37039 0.81138
 H392 H 0.77690 0.31977 0.85678
 H393 H 0.67164 0.12710 0.78453
 H394 H 0.61350 0.17747 0.72700
 H395 H 0.86648 0.31206 0.74761
 H396 H 0.81691 0.36372 0.72137
 O397 O 0.27498 0.88623 0.81531
 O398 O 0.33372 0.89068 0.75645
 O399 O 0.16007 0.83871 0.74758
 O400 O 0.14113 0.78214 0.70493
 O401 O 0.20595 0.77187 0.86792
 O402 O 0.26520 0.72065 0.88191
 O403 O 0.27359 0.70775 0.63771
 O404 O 0.22755 0.76808 0.62412
 O405 O 0.39135 0.76012 0.69649
 O406 O 0.40448 0.81030 0.76008
 O407 O 0.32513 0.65124 0.75379
 O408 O 0.25856 0.64141 0.80239
 O409 O 0.26784 0.65573 0.69225
 O410 O 0.21412 0.64405 0.75377
 O411 O 0.38361 0.69972 0.75539
 O412 O 0.39895 0.76282 0.80770
 O413 O 0.33878 0.76192 0.64233
 O414 O 0.28596 0.81917 0.62724
 O415 O 0.27332 0.83195 0.86789
 O416 O 0.31634 0.76702 0.88373
 O417 O 0.15465 0.77568 0.81265
 O418 O 0.14305 0.72564 0.74875
 O419 O 0.21860 0.88700 0.74197
 O420 O 0.28324 0.90339 0.71078
 Zr421 Zr 0.27620 0.84928 0.75536
 O422 O 0.31691 0.80811 0.71490
 Zr423 Zr 0.19213 0.77658 0.75302
 O424 O 0.22906 0.73252 0.71224
 Zr425 Zr 0.26757 0.77154 0.83334
 O426 O 0.30798 0.72698 0.79659
 Zr427 Zr 0.27669 0.76764 0.67448
 O428 O 0.23593 0.81269 0.71083
 Zr429 Zr 0.35215 0.76284 0.75513
 O430 O 0.31510 0.80766 0.79606
 Zr431 Zr 0.26746 0.69067 0.75270
 O432 O 0.22639 0.73118 0.79362
 O433 O 0.23008 0.81593 0.79559
 O434 O 0.31397 0.72334 0.71242
 C435 C 0.27533 0.87306 0.85588
 C436 C 0.17665 0.87770 0.74097
 C437 C 0.16550 0.77251 0.85387
 C438 C 0.27005 0.66727 0.65114
 C439 C 0.37961 0.75988 0.65554
 C440 C 0.36715 0.66010 0.75465
 H441 H 0.33720 0.82686 0.69671
 H442 H 0.32409 0.70722 0.81731
 H443 H 0.21090 0.83642 0.81335
 H444 H 0.20845 0.71561 0.69284
 H445 H 0.20600 0.79198 0.63209
 H446 H 0.15216 0.76709 0.67763
 H447 H 0.39080 0.73837 0.82830
 H448 H 0.34242 0.78471 0.87341
 H449 H 0.26423 0.84301 0.63491
 H450 H 0.29527 0.89104 0.68257
 H451 H 0.28258 0.64530 0.82455
 H452 H 0.24424 0.69766 0.87068
 H453 H 0.35171 0.88151 0.78240
 H454 H 0.39997 0.83290 0.73660
 H455 H 0.14960 0.70373 0.77243
 H456 H 0.19354 0.65173 0.72933
 O457 O 0.23943 0.37191 0.69838
 O458 O 0.19616 0.38837 0.76376
 O459 O 0.35666 0.30934 0.75379
 O460 O 0.37170 0.24926 0.79354
 O461 O 0.28943 0.25346 0.63740
 O462 O 0.22381 0.20842 0.62997
 O463 O 0.22958 0.19441 0.87446
 O464 O 0.29244 0.24335 0.88236
 O465 O 0.12403 0.25885 0.82795
 O466 O 0.11035 0.31506 0.76638
 O467 O 0.16633 0.14512 0.75824
 O468 O 0.22873 0.12664 0.70957
 O469 O 0.21616 0.14402 0.81944
 O470 O 0.27815 0.12650 0.75818
 O471 O 0.11623 0.20187 0.76612
 O472 O 0.10297 0.26776 0.71860
 O473 O 0.18094 0.25782 0.87778
 O474 O 0.24899 0.30570 0.88556
 O475 O 0.23228 0.32001 0.64341
 O476 O 0.17701 0.26203 0.63483
 O477 O 0.34526 0.24783 0.68805
 O478 O 0.35603 0.19386 0.74992
 O479 O 0.30636 0.36630 0.75732
 O480 O 0.24716 0.38387 0.80941
 Zr481 Zr 0.24285 0.33553 0.75812
 O482 O 0.20044 0.29995 0.80174
 Zr483 Zr 0.31529 0.25180 0.75155
 O484 O 0.27659 0.21246 0.79594
 Zr485 Zr 0.23217 0.25914 0.67841
 O486 O 0.19007 0.21967 0.71876
 Zr487 Zr 0.23878 0.25403 0.83815
 O488 O 0.28204 0.29330 0.79810
 Zr489 Zr 0.15562 0.26060 0.76475
 O490 O 0.19430 0.30082 0.72103
 Zr491 Zr 0.22868 0.17728 0.75888
 O492 O 0.27064 0.21260 0.71403
 O493 O 0.27907 0.29658 0.71335
 O494 O 0.19218 0.21660 0.80294
 C495 C 0.23534 0.36053 0.65720
 C496 C 0.34678 0.35120 0.75603
 C497 C 0.33073 0.24891 0.64777
 C498 C 0.21707 0.15571 0.86061
 C499 C 0.13923 0.25772 0.86787
 C500 C 0.12636 0.16014 0.76280
 H501 H 0.18444 0.32124 0.82141
 H502 H 0.16950 0.20268 0.69940
 H503 H 0.29853 0.31474 0.69365
 H504 H 0.29568 0.19215 0.81342
 H505 H 0.31688 0.26367 0.87293
 H506 H 0.36203 0.23435 0.82131
 H507 H 0.10703 0.24456 0.69538
 H508 H 0.15633 0.28491 0.64709
 H509 H 0.22428 0.32751 0.88295
 H510 H 0.26849 0.37199 0.83146
 H511 H 0.20735 0.13597 0.68641
 H512 H 0.24446 0.18389 0.63795
 H513 H 0.16939 0.37886 0.74698
 H514 H 0.11737 0.33363 0.79272
 H515 H 0.34392 0.17395 0.72654
 H516 H 0.28757 0.12111 0.78919
 O517 O 0.76158 0.62464 0.68967
 O518 O 0.80585 0.61033 0.75255
 O519 O 0.64441 0.69079 0.74821
 O520 O 0.63287 0.75025 0.79105
 O521 O 0.70863 0.74500 0.63215
 O522 O 0.77670 0.78852 0.62002
 O523 O 0.76059 0.80758 0.86237
 O524 O 0.70869 0.74739 0.87275
 O525 O 0.87951 0.75113 0.81550
 O526 O 0.88982 0.68371 0.76007
 O527 O 0.83641 0.85363 0.74936
 O528 O 0.77556 0.87037 0.69558
 O529 O 0.77507 0.85779 0.80749
 O530 O 0.72692 0.87583 0.74182
 O531 O 0.88733 0.79717 0.75043
 O532 O 0.89798 0.72815 0.70628
 O533 O 0.82169 0.75697 0.86471
 O534 O 0.77023 0.69877 0.87861
 O535 O 0.76741 0.67716 0.63552
 O536 O 0.82014 0.73433 0.62131
 O537 O 0.65232 0.74954 0.68333
 O538 O 0.64437 0.80433 0.74336
 O539 O 0.69476 0.63385 0.75032
 O540 O 0.75804 0.61583 0.80112
 Zr541 Zr 0.75927 0.66330 0.74908
 O542 O 0.80193 0.70026 0.79177
 Zr543 Zr 0.68607 0.74711 0.74425
 O544 O 0.72539 0.78759 0.78575
 Zr545 Zr 0.76816 0.73887 0.66924
 O546 O 0.81160 0.77878 0.70755
 Zr547 Zr 0.76354 0.74689 0.82769
 O548 O 0.72027 0.70597 0.78980
 Zr549 Zr 0.84658 0.73945 0.75384
 O550 O 0.80728 0.69851 0.71107
 Zr551 Zr 0.77297 0.82236 0.74709
 O552 O 0.72980 0.78597 0.70482
 O553 O 0.72203 0.70165 0.70539
 O554 O 0.80930 0.78458 0.79131
 C555 C 0.76481 0.63628 0.64854
 C556 C 0.65431 0.64923 0.75041
 C557 C 0.66695 0.74884 0.64317
 C558 C 0.76893 0.84715 0.84856
 C559 C 0.86331 0.75975 0.85451
 C560 C 0.87688 0.83891 0.75042
 H561 H 0.81804 0.68014 0.81217
 H562 H 0.83220 0.79505 0.68742
 H563 H 0.70236 0.68328 0.68627
 H564 H 0.70561 0.80790 0.80291
 H565 H 0.68950 0.72149 0.86514
 H566 H 0.64472 0.76447 0.81826
 H567 H 0.89353 0.74977 0.68190
 H568 H 0.84294 0.71406 0.63388
 H569 H 0.75239 0.67259 0.86942
 H570 H 0.73110 0.62194 0.81954
 H571 H 0.80025 0.86182 0.67513
 H572 H 0.75659 0.81352 0.62839
 H573 H 0.83358 0.62128 0.73802
 H574 H 0.88999 0.67454 0.79167
 H575 H 0.65658 0.82452 0.72023
 H576 H 0.70454 0.87264 0.76604
 O577 O 0.24495 0.64959 0.32463
 O578 O 0.19143 0.63960 0.26388
 O579 O 0.36111 0.69130 0.25220
 O580 O 0.37483 0.75440 0.20034
 O581 O 0.32239 0.76116 0.36909
 O582 O 0.26140 0.81559 0.38593
 O583 O 0.24975 0.82613 0.14790
 O584 O 0.29810 0.75565 0.13270
 O585 O 0.13407 0.76780 0.20260
 O586 O 0.12234 0.71976 0.27274
 O587 O 0.19694 0.88289 0.26296
 O588 O 0.26527 0.88899 0.31244
 O589 O 0.25441 0.88016 0.20093
 O590 O 0.30768 0.89053 0.25924
 O591 O 0.14015 0.83239 0.26325
 O592 O 0.12064 0.77470 0.31134
 O593 O 0.18644 0.76794 0.14744
 O594 O 0.24219 0.71801 0.12857
 O595 O 0.25351 0.70330 0.37758
 O596 O 0.21227 0.76707 0.39349
 O597 O 0.37281 0.75546 0.31226
 O598 O 0.38535 0.80084 0.25144
 O599 O 0.30410 0.64126 0.25796
 O600 O 0.23981 0.63275 0.21390
 Zr601 Zr 0.24734 0.68301 0.26291
 O602 O 0.20719 0.72383 0.22242
 Zr603 Zr 0.33143 0.75532 0.25632
 O604 O 0.29411 0.80084 0.21835
 Zr605 Zr 0.25802 0.76222 0.33970
 O606 O 0.21571 0.80549 0.30395
 Zr607 Zr 0.24723 0.76457 0.18142
 O608 O 0.28718 0.71837 0.21659
 Zr609 Zr 0.17179 0.76944 0.26254
 O610 O 0.20921 0.72595 0.30397
 Zr611 Zr 0.25523 0.84293 0.25976
 O612 O 0.29814 0.80198 0.29794
 O613 O 0.29408 0.71720 0.30082
 O614 O 0.20930 0.80922 0.21950
 C615 C 0.24778 0.66255 0.36551
 C616 C 0.34575 0.65098 0.25345
 C617 C 0.36287 0.75860 0.35362
 C618 C 0.25258 0.86725 0.16039
 C619 C 0.14579 0.76723 0.16112
 C620 C 0.15513 0.87265 0.26364
 H621 H 0.18710 0.70443 0.20487
 H622 H 0.19904 0.82479 0.32509
 H623 H 0.31280 0.69698 0.31886
 H624 H 0.31477 0.81802 0.19909
 H625 H 0.31743 0.78251 0.13294
 H626 H 0.36431 0.73021 0.18043
 H627 H 0.13456 0.78708 0.33845
 H628 H 0.18478 0.75135 0.38392
 H629 H 0.22620 0.69161 0.14041
 H630 H 0.25896 0.64165 0.18839
 H631 H 0.23901 0.88746 0.33265
 H632 H 0.28645 0.83504 0.37627
 H633 H 0.17149 0.64994 0.28829
 H634 H 0.12296 0.69960 0.24656
 H635 H 0.37658 0.82738 0.26925
 H636 H 0.33018 0.88059 0.23701
 O637 O 0.74997 0.35194 0.29577
 O638 O 0.79768 0.35251 0.22958
 O639 O 0.62721 0.30189 0.24595
 O640 O 0.60386 0.24208 0.20596
 O641 O 0.68273 0.24211 0.36415
 O642 O 0.74350 0.19223 0.37620
 O643 O 0.72104 0.15708 0.13649
 O644 O 0.67633 0.22384 0.12311
 O645 O 0.84749 0.21592 0.17427
 O646 O 0.86942 0.26889 0.23273
 O647 O 0.79073 0.10954 0.24838
 O648 O 0.72965 0.10696 0.30559
 O649 O 0.72369 0.10835 0.19421
 O650 O 0.67930 0.10524 0.26198
 O651 O 0.84758 0.15940 0.24087
 O652 O 0.86988 0.22589 0.28267
 O653 O 0.79046 0.21381 0.12477
 O654 O 0.73755 0.26209 0.10812
 O655 O 0.74902 0.30221 0.35278
 O656 O 0.79569 0.23812 0.36773
 O657 O 0.62669 0.24294 0.31351
 O658 O 0.60630 0.19037 0.25646
 O659 O 0.68419 0.35176 0.23877
 O660 O 0.74341 0.35436 0.18420
 Zr661 Zr 0.74156 0.31041 0.23914
 O662 O 0.77677 0.26474 0.19807
 Zr663 Zr 0.65800 0.23854 0.25080
 O664 O 0.68997 0.18971 0.21100
 Zr665 Zr 0.74101 0.23868 0.32347
 O666 O 0.77716 0.19059 0.28623
 Zr667 Zr 0.73283 0.22091 0.16508
 O668 O 0.69697 0.27066 0.20167
 Zr669 Zr 0.81619 0.22233 0.23721
 O670 O 0.78445 0.27105 0.27834
 Zr671 Zr 0.73279 0.15017 0.24999
 O672 O 0.69616 0.19550 0.29094
 O673 O 0.70025 0.28019 0.28626
 O674 O 0.77441 0.17907 0.20180
 C675 C 0.75174 0.34232 0.33740
 C676 C 0.64237 0.34209 0.24175
 C677 C 0.64101 0.24298 0.35379
 C678 C 0.71783 0.11748 0.15299
 C679 C 0.83231 0.21406 0.13441
 C680 C 0.83254 0.11942 0.24520
 H681 H 0.79511 0.28185 0.17655
 H682 H 0.79574 0.17278 0.30664
 H683 H 0.68355 0.30188 0.30499
 H684 H 0.66666 0.17181 0.19603
 H685 H 0.66004 0.25180 0.13044
 H686 H 0.61079 0.22181 0.18076
 H687 H 0.86206 0.20702 0.30853
 H688 H 0.81943 0.25672 0.35399
 H689 H 0.74580 0.29224 0.11873
 H690 H 0.71814 0.34595 0.16474
 H691 H 0.75690 0.11169 0.32350
 H692 H 0.72190 0.16828 0.36879
 H693 H 0.82033 0.34337 0.25164
 H694 H 0.86216 0.29027 0.20884
 H695 H 0.61589 0.16865 0.27925
 H696 H 0.65509 0.11254 0.24096
 N697 N 0.25495 0.13281 0.07940
 N698 N 0.26977 0.15278 0.11202
 N699 N 0.76473 0.61507 0.57420
 N700 N 0.76371 0.60222 0.61456
 N701 N 0.76270 0.89959 0.08864
 N702 N 0.75674 0.85869 0.08811
 N703 N 0.24138 0.43529 0.63811
 N704 N 0.23604 0.39534 0.62470
 N705 N 0.77765 0.07719 0.87098
 N706 N 0.76029 0.11370 0.88381
 N707 N 0.24062 0.58863 0.38733
 N708 N 0.24586 0.62902 0.39941
 N709 N 0.27910 0.89106 0.93000
 N710 N 0.27578 0.90567 0.89055
 N711 N 0.75313 0.36689 0.41013
 N712 N 0.75458 0.37811 0.36937
 N713 N 0.08369 0.28755 0.09491
 N714 N 0.09154 0.30544 0.13085
 N715 N 0.64787 0.75019 0.56829
 N716 N 0.63460 0.75127 0.60849
 N717 N 0.08976 0.76802 0.87308
 N718 N 0.13016 0.76921 0.88608
 N719 N 0.56704 0.24572 0.37669
 N720 N 0.60780 0.24459 0.38868
 N721 N 0.92728 0.69879 0.09148
 N722 N 0.88779 0.68740 0.09456
 N723 N 0.40386 0.24250 0.62487
 N724 N 0.36346 0.24658 0.61279
 N725 N 0.89332 0.24537 0.90416
 N726 N 0.89177 0.25194 0.86381
 N727 N 0.38930 0.76020 0.42574
 N728 N 0.39901 0.75802 0.38465
 N729 N 0.08363 0.10119 0.23869
 N730 N 0.08483 0.14119 0.22967
 N731 N 0.62876 0.57662 0.75329
 N732 N 0.61827 0.61764 0.75183
 N733 N 0.90253 0.09468 0.72529
 N734 N 0.86550 0.10131 0.70933
 N735 N 0.41863 0.62544 0.24723
 N736 N 0.37756 0.61503 0.25125
 N737 N 0.10699 0.91393 0.73857
 N738 N 0.14746 0.91358 0.73046
 N739 N 0.56952 0.36838 0.24854
 N740 N 0.61051 0.37817 0.24229
 N741 N 0.90847 0.89229 0.22229
 N742 N 0.90798 0.85284 0.21079
 N743 N 0.37196 0.42469 0.75720
 N744 N 0.38258 0.38347 0.75604
 N745 N 0.12059 0.25430 0.94384
 N746 N 0.10757 0.25541 0.90360
 N747 N 0.64142 0.74441 0.41060
 N748 N 0.62680 0.74446 0.37107
 N749 N 0.93060 0.77230 0.89508
 N750 N 0.89067 0.77938 0.88811
 N751 N 0.40781 0.25422 0.37692
 N752 N 0.36750 0.25290 0.39079
 N753 N 0.07174 0.75351 0.13613
 N754 N 0.11233 0.76317 0.12733
 N755 N 0.56175 0.24471 0.62647
 N756 N 0.60191 0.24618 0.61275
 N757 N 0.85347 0.21775 0.05812
 N758 N 0.86458 0.21470 0.09888
 N759 N 0.39938 0.75784 0.58195
 N760 N 0.41349 0.75764 0.62168
 N761 N 0.21160 0.11662 0.92869
 N762 N 0.19747 0.12497 0.89127
 N763 N 0.75602 0.61711 0.41556
 N764 N 0.75389 0.60252 0.37587
 N765 N 0.72365 0.05223 0.10872
 N766 N 0.70082 0.08270 0.12489
 N767 N 0.26445 0.59269 0.63378
 N768 N 0.26732 0.63226 0.61889
 N769 N 0.78338 0.92038 0.86728
 N770 N 0.77168 0.88196 0.88068
 N771 N 0.23978 0.43018 0.39151
 N772 N 0.23813 0.38985 0.40460
 N773 N 0.26010 0.88696 0.08683
 N774 N 0.25485 0.90041 0.12658
 N775 N 0.74132 0.36623 0.56716
 N776 N 0.74111 0.37958 0.60728
 N777 N 0.05015 0.13842 0.76543
 N778 N 0.09132 0.12773 0.76341
 N779 N 0.57700 0.61869 0.24563
 N780 N 0.61625 0.60265 0.24572
 N781 N 0.13240 0.94920 0.26341
 N782 N 0.12247 0.90774 0.26427
 N783 N 0.62275 0.41973 0.74690
 N784 N 0.60783 0.38018 0.74794
 N785 N 0.85537 0.04287 0.24779
 N786 N 0.86518 0.08435 0.24677
 N787 N 0.37998 0.58405 0.75402
 N788 N 0.39704 0.62297 0.75475
 N789 N 0.95350 0.86250 0.75339
 N790 N 0.91183 0.87186 0.75203
 N791 N 0.41180 0.37777 0.26632
 N792 N 0.37263 0.39421 0.26697
   
