data_POSCAR
  _audit_creation_date              2014-09-24
  _audit_creation_method            'ToBaCCo'
  _symmetry_space_group_name_H-M    'P1'
  _symmetry_Int_Tables_number       1
  _symmetry_cell_setting            triclinic
  loop_
  _symmetry_equiv_pos_as_xyz
 x,y,z
_cell_length_a 29.2195
_cell_length_b 29.2878
_cell_length_c 29.1491
_cell_angle_alpha 89.845200
_cell_angle_beta 90.032500
_cell_angle_gamma 89.973000
loop_
  _atom_site_label
  _atom_site_type_symbol
  _atom_site_fract_x
  _atom_site_fract_y
  _atom_site_fract_z
N1 N 0.54948 0.09197 0.02224
 N2 N 0.58340 0.11735 0.03783
 N3 N 0.45301 0.09162 -0.02240
 N4 N 0.41855 0.11605 -0.03849
 N5 N 0.45316 0.09190 0.02266
 N6 N 0.41883 0.11655 0.03852
 N7 N 0.54933 0.09158 -0.02281
 N8 N 0.58312 0.11668 -0.03918
 C9 C 0.60404 0.13223 -0.00091
 C10 C 0.39763 0.13115 -0.00006
 N11 N 0.45250 -0.02322 -0.09091
 N12 N 0.41796 -0.03923 -0.11525
 N13 N 0.54897 0.02146 -0.09200
 N14 N 0.58279 0.03712 -0.11766
 N15 N 0.54878 -0.02335 -0.09145
 N16 N 0.58456 -0.03993 -0.11826
 N17 N 0.45263 0.02163 -0.09146
 N18 N 0.41818 0.03742 -0.11615
 Mn19 Mn 0.50101 0.05696 -0.05756
 C20 C 0.39696 -0.00096 -0.13053
 C21 C 0.60421 -0.00083 -0.13318
 N22 N 0.45359 0.02289 0.09323
 N23 N 0.41918 0.03889 0.11773
 N24 N 0.55011 -0.02180 0.09322
 N25 N 0.58455 -0.03751 0.11806
 N26 N 0.54989 0.02301 0.09270
 N27 N 0.58633 0.03954 0.11867
 N28 N 0.45376 -0.02195 0.09376
 N29 N 0.41947 -0.03776 0.11860
 Mn30 Mn 0.50152 0.05783 0.05810
 C31 C 0.39831 0.00062 0.13313
 C32 C 0.60632 0.00040 0.13312
 N33 N 0.54929 -0.09221 -0.02100
 N34 N 0.58357 -0.11682 -0.03702
 N35 N 0.45337 -0.09196 0.02470
 N36 N 0.41925 -0.11660 0.04113
 N37 N 0.45300 -0.09221 -0.02036
 N38 N 0.41864 -0.11702 -0.03588
 N39 N 0.54971 -0.09186 0.02405
 N40 N 0.58428 -0.11624 0.03999
 Mn41 Mn 0.50087 -0.05813 -0.05631
 Mn42 Mn 0.50176 -0.05728 0.05934
 Cl43 Cl 0.50128 -0.00015 0.00089
 C44 C 0.60498 -0.13136 0.00144
 C45 C 0.39798 -0.13176 0.00290
 N46 N 0.09325 0.45127 0.02279
 N47 N 0.11758 0.41670 0.03874
 N48 N 0.09426 0.54780 -0.02158
 N49 N 0.11908 0.58216 -0.03712
 N50 N 0.09390 0.54737 0.02347
 N51 N 0.11848 0.58143 0.03990
 N52 N 0.09359 0.45169 -0.02226
 N53 N 0.11816 0.41743 -0.03827
 C54 C 0.13266 0.39599 0.00021
 C55 C 0.13375 0.60272 0.00166
 N56 N -0.01974 0.54940 -0.09241
 N57 N -0.03529 0.58400 -0.11707
 N58 N 0.02449 0.45289 -0.09270
 N59 N 0.04035 0.41898 -0.11787
 N60 N -0.02046 0.45330 -0.09309
 N61 N -0.03648 0.41967 -0.11851
 N62 N 0.02518 0.54896 -0.09196
 N63 N 0.04194 0.58538 -0.11782
 Mn64 Mn 0.05978 0.50033 -0.05751
 C65 C 0.00282 0.60560 -0.13213
 C66 C 0.00187 0.39862 -0.13347
 N67 N 0.02369 0.54724 0.09271
 N68 N 0.03964 0.58121 0.11774
 N69 N -0.02192 0.45147 0.09161
 N70 N -0.03830 0.41703 0.11585
 N71 N 0.02302 0.45114 0.09200
 N72 N 0.03853 0.41647 0.11651
 N73 N -0.02125 0.54756 0.09230
 N74 N -0.03719 0.58175 0.11703
 Mn75 Mn 0.05886 0.49925 0.05814
 C76 C 0.00123 0.60233 0.13246
 C77 C -0.00015 0.39560 0.13093
 N78 N -0.09070 0.45314 -0.02383
 N79 N -0.11585 0.41949 -0.04023
 N80 N -0.09033 0.54878 0.02189
 N81 N -0.11499 0.58297 0.03791
 N82 N -0.08996 0.54923 -0.02316
 N83 N -0.11437 0.58375 -0.03910
 N84 N -0.09103 0.45271 0.02122
 N85 N -0.11642 0.41877 0.03678
 Mn86 Mn -0.05560 0.50127 -0.05852
 Mn87 Mn -0.05652 0.50013 0.05714
 Cl88 Cl 0.00163 0.50024 -0.00019
 C89 C -0.13139 0.39841 -0.00198
 C90 C -0.12950 0.60440 -0.00057
 N91 N 0.02161 0.09046 0.45160
 N92 N 0.03749 0.11496 0.41702
 N93 N -0.02332 0.09092 0.54814
 N94 N -0.03925 0.11635 0.58188
 N95 N 0.02163 0.09097 0.54813
 N96 N 0.03758 0.11641 0.58186
 N97 N -0.02334 0.09041 0.45159
 N98 N -0.03934 0.11486 0.41701
 C99 C -0.00097 0.12970 0.39585
 C100 C -0.00083 0.13171 0.60258
 N101 N -0.09288 -0.02354 0.54893
 N102 N -0.11817 -0.03928 0.58300
 N103 N -0.09287 0.02084 0.45205
 N104 N -0.11746 0.03657 0.41744
 N105 N -0.09280 -0.02400 0.45237
 N106 N -0.11734 -0.04008 0.41798
 N107 N -0.09291 0.02131 0.54859
 N108 N -0.11820 0.03737 0.58241
 Mn109 Mn -0.05850 0.05625 0.50010
 C110 C -0.13343 -0.00085 0.60354
 C111 C -0.13227 -0.00187 0.39659
 N112 N 0.09136 0.02153 0.54874
 N113 N 0.11598 0.03762 0.58307
 N114 N 0.09149 -0.02376 0.45251
 N115 N 0.11637 -0.03976 0.41834
 N116 N 0.09138 0.02108 0.45220
 N117 N 0.11617 0.03689 0.41782
 N118 N 0.09142 -0.02331 0.54907
 N119 N 0.11609 -0.03903 0.58363
 Mn120 Mn 0.05688 0.05639 0.50017
 C121 C 0.13094 -0.00060 0.60443
 C122 C 0.13129 -0.00148 0.39708
 N123 N -0.02301 -0.09342 0.45296
 N124 N -0.03888 -0.11817 0.41867
 N125 N 0.02189 -0.09289 0.54955
 N126 N 0.03786 -0.11739 0.58412
 N127 N -0.02307 -0.09295 0.54953
 N128 N -0.03897 -0.11748 0.58407
 N129 N 0.02194 -0.09334 0.45300
 N130 N 0.03796 -0.11803 0.41875
 Mn131 Mn -0.05833 -0.05887 0.50095
 Mn132 Mn 0.05707 -0.05872 0.50104
 Cl133 Cl -0.00072 -0.00124 0.50057
 C134 C -0.00041 -0.13306 0.39773
 C135 C -0.00053 -0.13225 0.60526
 C136 C -0.22083 0.29103 -0.00387
 C137 C -0.24851 0.28430 -0.04316
 C138 C -0.28272 0.24983 -0.04295
 C139 C -0.28906 0.22231 -0.00345
 C140 C -0.26024 0.22789 0.03520
 C141 C -0.22600 0.26237 0.03499
 C142 C -0.19771 0.26746 0.07408
 C143 C -0.20298 0.23917 0.11223
 C144 C -0.23646 0.20546 0.11244
 C145 C -0.26492 0.19979 0.07450
 C146 C -0.31015 0.24391 -0.08255
 C147 C -0.30389 0.27121 -0.12127
 C148 C -0.27043 0.30491 -0.12147
 C149 C -0.24299 0.31157 -0.08296
 C150 C -0.32618 0.18939 -0.00217
 C151 C -0.35773 0.16290 -0.00143
 C152 C -0.18819 0.32838 -0.00300
 C153 C -0.16189 0.36007 -0.00247
 H154 H -0.17113 0.29314 0.07547
 H155 H -0.18092 0.24337 0.14175
 H156 H -0.24036 0.18354 0.14213
 H157 H -0.29041 0.17304 0.07621
 H158 H -0.33656 0.21807 -0.08411
 H159 H -0.32511 0.26615 -0.15129
 H160 H -0.26568 0.32601 -0.15164
 H161 H -0.21735 0.33815 -0.08483
 C162 C 0.22067 0.71212 0.00289
 C163 C 0.23728 0.72923 0.04511
 C164 C 0.27153 0.76368 0.04535
 C165 C 0.28893 0.78077 0.00335
 C166 C 0.27070 0.76524 -0.03884
 C167 C 0.23645 0.73081 -0.03907
 C168 C 0.21895 0.71558 -0.08166
 C169 C 0.23479 0.73393 -0.12286
 C170 C 0.26830 0.76759 -0.12263
 C171 C 0.28622 0.78317 -0.08121
 C172 C 0.28788 0.78004 0.08797
 C173 C 0.27080 0.76291 0.12919
 C174 C 0.23731 0.72923 0.12896
 C175 C 0.22064 0.71241 0.08751
 C176 C 0.32686 0.81276 0.00348
 C177 C 0.35906 0.83846 0.00335
 C178 C 0.18890 0.67403 0.00255
 C179 C 0.16337 0.64173 0.00218
 H180 H 0.19275 0.68955 -0.08358
 H181 H 0.22100 0.72195 -0.15512
 H182 H 0.28051 0.78171 -0.15471
 H183 H 0.31213 0.80951 -0.08278
 H184 H 0.31383 0.80632 0.08988
 H185 H 0.28364 0.77583 0.16148
 H186 H 0.22417 0.71603 0.16107
 H187 H 0.19449 0.68631 0.08907
 C188 C 0.21939 0.28636 0.00001
 C189 C 0.23559 0.26868 -0.04214
 C190 C 0.26997 0.23432 -0.04223
 C191 C 0.28790 0.21788 -0.00017
 C192 C 0.27003 0.23390 0.04197
 C193 C 0.23567 0.26827 0.04206
 C194 C 0.21860 0.28405 0.08460
 C195 C 0.23493 0.26628 0.12589
 C196 C 0.26851 0.23265 0.12580
 C197 C 0.28603 0.21656 0.08443
 C198 C 0.28591 0.21741 -0.08477
 C199 C 0.26832 0.23393 -0.12606
 C200 C 0.23473 0.26754 -0.12598
 C201 C 0.21843 0.28486 -0.08460
 C202 C 0.32607 0.18613 -0.00023
 C203 C 0.35847 0.16066 -0.00019
 C204 C 0.18763 0.32448 0.00010
 C205 C 0.16214 0.35685 0.00017
 H206 H 0.19235 0.31006 0.08641
 H207 H 0.22147 0.27870 0.15811
 H208 H 0.28107 0.21897 0.15796
 H209 H 0.31203 0.19028 0.08611
 H210 H 0.31191 0.19116 -0.08657
 H211 H 0.28086 0.22060 -0.15828
 H212 H 0.22123 0.28029 -0.15814
 H213 H 0.19216 0.31087 -0.08628
 C214 C -0.21667 0.71365 -0.00012
 C215 C -0.23217 0.73168 0.04213
 C216 C -0.26662 0.76595 0.04250
 C217 C -0.28533 0.78194 0.00061
 C218 C -0.26826 0.76547 -0.04168
 C219 C -0.23380 0.73121 -0.04205
 C220 C -0.21753 0.71497 -0.08473
 C221 C -0.23480 0.73213 -0.12589
 C222 C -0.26852 0.76561 -0.12554
 C223 C -0.28519 0.78223 -0.08402
 C224 C -0.28187 0.78321 0.08515
 C225 C -0.26355 0.76711 0.12628
 C226 C -0.22986 0.73360 0.12592
 C227 C -0.21424 0.71593 0.08444
 C228 C -0.32348 0.81368 0.00106
 C229 C -0.35587 0.83915 0.00133
 C230 C -0.18475 0.67567 -0.00039
 C231 C -0.15914 0.64341 -0.00051
 H232 H -0.19123 0.68902 -0.08676
 H233 H -0.22199 0.71933 -0.15822
 H234 H -0.28187 0.77877 -0.15760
 H235 H -0.31131 0.80840 -0.08549
 H236 H -0.30793 0.80940 0.08717
 H237 H -0.27557 0.78069 0.15859
 H238 H -0.21576 0.72120 0.15795
 H239 H -0.18788 0.69000 0.08591
 C240 C 0.00011 -0.22027 0.28841
 C241 C -0.04176 -0.23704 0.27073
 C242 C -0.04149 -0.27142 0.23642
 C243 C 0.00066 -0.28874 0.21995
 C244 C 0.04250 -0.27036 0.23600
 C245 C 0.04223 -0.23601 0.27036
 C246 C 0.08448 -0.21838 0.28614
 C247 C 0.12583 -0.23415 0.26839
 C248 C 0.12610 -0.26773 0.23478
 C249 C 0.08502 -0.28579 0.21868
 C250 C -0.08377 -0.28797 0.21955
 C251 C -0.12514 -0.27093 0.23603
 C252 C -0.12540 -0.23725 0.26953
 C253 C -0.08429 -0.22042 0.28687
 C254 C 0.00098 -0.32668 0.18800
 C255 C 0.00117 -0.35884 0.16229
 C256 C -0.00012 -0.18839 0.32645
 C257 C -0.00029 -0.16277 0.35873
 H258 H 0.08601 -0.19212 0.31214
 H259 H 0.15783 -0.22025 0.28079
 H260 H 0.15830 -0.27986 0.22111
 H261 H 0.08696 -0.31177 0.19242
 H262 H -0.08531 -0.31405 0.19337
 H263 H -0.15715 -0.28395 0.22275
 H264 H -0.15763 -0.22409 0.28218
 H265 H -0.08623 -0.19414 0.31282
 C266 C -0.00154 0.22238 0.70904
 C267 C 0.03724 0.22755 0.73772
 C268 C 0.03774 0.26216 0.77183
 C269 C -0.00054 0.29135 0.77702
 C270 C -0.03995 0.28510 0.74944
 C271 C -0.04045 0.25051 0.71535
 C272 C -0.08014 0.24506 0.68803
 C273 C -0.11828 0.27294 0.69428
 C274 C -0.11780 0.30676 0.72762
 C275 C -0.07917 0.31296 0.75495
 C276 C 0.07695 0.26683 0.79997
 C277 C 0.11453 0.23799 0.79470
 C278 C 0.11403 0.20414 0.76136
 C279 C 0.07596 0.19888 0.73303
 C280 C 0.00094 0.32866 0.80968
 C281 C 0.00165 0.36032 0.83600
 C282 C -0.00099 0.18926 0.67208
 C283 C -0.00082 0.16259 0.64066
 H284 H -0.08223 0.21915 0.66173
 H285 H -0.14838 0.26824 0.67314
 H286 H -0.14752 0.32831 0.73236
 H287 H -0.08050 0.33966 0.78049
 H288 H 0.07887 0.29260 0.82644
 H289 H 0.14415 0.24188 0.81665
 H290 H 0.14326 0.18178 0.75747
 H291 H 0.07712 0.17200 0.70765
 C292 C -0.00114 0.21663 0.28585
 C293 C 0.04087 0.23251 0.26763
 C294 C 0.04093 0.26702 0.23327
 C295 C -0.00102 0.28541 0.21736
 C296 C -0.04306 0.26788 0.23389
 C297 C -0.04312 0.23336 0.26826
 C298 C -0.08555 0.21661 0.28456
 C299 C -0.12676 0.23344 0.26733
 C300 C -0.12670 0.26722 0.23374
 C301 C -0.08543 0.28438 0.21709
 C302 C 0.08335 0.28266 0.21583
 C303 C 0.12453 0.26461 0.23182
 C304 C 0.12447 0.23085 0.26542
 C305 C 0.08323 0.21489 0.28329
 C306 C -0.00087 0.32373 0.18568
 C307 C -0.00061 0.35627 0.16029
 C308 C -0.00112 0.18478 0.32407
 C309 C -0.00106 0.15924 0.35656
 H310 H -0.08733 0.19025 0.31058
 H311 H -0.15890 0.22024 0.28015
 H312 H -0.15881 0.28021 0.22052
 H313 H -0.08712 0.31052 0.19083
 H314 H 0.08513 0.30877 0.18955
 H315 H 0.15665 0.27691 0.21808
 H316 H 0.15655 0.21696 0.27773
 H317 H 0.08492 0.18849 0.30928
 C318 C 0.00011 -0.21932 0.71519
 C319 C -0.04169 -0.23579 0.73338
 C320 C -0.04129 -0.27031 0.76775
 C321 C 0.00090 -0.28810 0.78371
 C322 C 0.04270 -0.26996 0.76720
 C323 C 0.04230 -0.23546 0.73282
 C324 C 0.08451 -0.21811 0.71656
 C325 C 0.12594 -0.23431 0.73386
 C326 C 0.12633 -0.26804 0.76750
 C327 C 0.08530 -0.28583 0.78407
 C328 C -0.08348 -0.28655 0.78516
 C329 C -0.12491 -0.26908 0.76913
 C330 C -0.12530 -0.23532 0.73553
 C331 C -0.08427 -0.21876 0.71770
 C332 C 0.00135 -0.32636 0.81548
 C333 C 0.00195 -0.35884 0.84096
 C334 C -0.00028 -0.18743 0.67698
 C335 C -0.00046 -0.16185 0.64452
 H336 H 0.08595 -0.19174 0.69052
 H337 H 0.15790 -0.22063 0.72109
 H338 H 0.15860 -0.28051 0.78081
 H339 H 0.08735 -0.31193 0.81034
 H340 H -0.08491 -0.31269 0.81142
 H341 H -0.15686 -0.28185 0.78283
 H342 H -0.15758 -0.22190 0.72318
 H343 H -0.08631 -0.19238 0.69171
 C344 C 0.21825 -0.00054 0.71410
 C345 C 0.23461 0.04128 0.73198
 C346 C 0.26911 0.04113 0.76638
 C347 C 0.28702 -0.00084 0.78262
 C348 C 0.26905 -0.04267 0.76635
 C349 C 0.23454 -0.04252 0.73197
 C350 C 0.21734 -0.08475 0.71595
 C351 C 0.23373 -0.12596 0.73346
 C352 C 0.26749 -0.12610 0.76707
 C353 C 0.28511 -0.08504 0.78343
 C354 C 0.28522 0.08336 0.78350
 C355 C 0.26770 0.12457 0.76713
 C356 C 0.23400 0.12472 0.73346
 C357 C 0.21752 0.08365 0.71595
 C358 C 0.32526 -0.00098 0.81442
 C359 C 0.35772 -0.00104 0.83994
 C360 C 0.18629 -0.00041 0.67597
 C361 C 0.16064 -0.00043 0.64358
 H362 H 0.19096 -0.08638 0.68993
 H363 H 0.22018 -0.15794 0.72085
 H364 H 0.28012 -0.15820 0.78052
 H365 H 0.31124 -0.08689 0.80969
 H366 H 0.31132 0.08499 0.80979
 H367 H 0.28037 0.15655 0.78062
 H368 H 0.22056 0.15682 0.72081
 H369 H 0.19117 0.08550 0.68990
 C370 C -0.21913 -0.00195 0.28652
 C371 C -0.23485 0.04003 0.26814
 C372 C -0.26926 0.04023 0.23366
 C373 C -0.28772 -0.00155 0.21780
 C374 C -0.27038 -0.04356 0.23454
 C375 C -0.23593 -0.04376 0.26899
 C376 C -0.21929 -0.08616 0.28542
 C377 C -0.23616 -0.12721 0.26823
 C378 C -0.26990 -0.12700 0.23460
 C379 C -0.28697 -0.08576 0.21783
 C380 C -0.28472 0.08262 0.21606
 C381 C -0.26663 0.12364 0.23202
 C382 C -0.23295 0.12343 0.26571
 C383 C -0.21714 0.08221 0.28373
 C384 C -0.32586 -0.00121 0.18585
 C385 C -0.35823 -0.00060 0.16020
 C386 C -0.18733 -0.00207 0.32480
 C387 C -0.16182 -0.00204 0.35731
 H388 H -0.19297 -0.08805 0.31149
 H389 H -0.22299 -0.15933 0.28110
 H390 H -0.28295 -0.15896 0.22143
 H391 H -0.31309 -0.08733 0.19155
 H392 H -0.31075 0.08452 0.18970
 H393 H -0.27884 0.15575 0.21819
 H394 H -0.21901 0.15538 0.27799
 H395 H -0.19081 0.08379 0.30980
 C396 C 0.21930 -0.00079 0.28804
 C397 C 0.23570 0.04134 0.27068
 C398 C 0.27033 0.04178 0.23646
 C399 C 0.28835 0.00009 0.21986
 C400 C 0.27035 -0.04201 0.23559
 C401 C 0.23571 -0.04245 0.26980
 C402 C 0.21847 -0.08495 0.28526
 C403 C 0.23491 -0.12586 0.26733
 C404 C 0.26878 -0.12543 0.23386
 C405 C 0.28647 -0.08409 0.21809
 C406 C 0.28643 0.08429 0.21984
 C407 C 0.26874 0.12522 0.23649
 C408 C 0.23488 0.12479 0.26996
 C409 C 0.21845 0.08344 0.28703
 C410 C 0.32664 0.00048 0.18816
 C411 C 0.35911 0.00066 0.16268
 C412 C 0.18712 -0.00126 0.32596
 C413 C 0.16125 -0.00148 0.35815
 H414 H 0.19201 -0.08702 0.31114
 H415 H 0.22131 -0.15806 0.27948
 H416 H 0.28143 -0.15729 0.22006
 H417 H 0.31268 -0.08549 0.19192
 H418 H 0.31264 0.08636 0.19370
 H419 H 0.28138 0.15743 0.22336
 H420 H 0.22128 0.15667 0.28281
 H421 H 0.19199 0.08485 0.31295
 C422 C -0.22341 0.00136 0.71094
 C423 C -0.25068 0.04079 0.71752
 C424 C -0.28507 0.04100 0.75197
 C425 C -0.29199 0.00180 0.77963
 C426 C -0.26357 -0.03699 0.77422
 C427 C -0.22916 -0.03722 0.73975
 C428 C -0.20131 -0.07646 0.73480
 C429 C -0.20716 -0.11434 0.76325
 C430 C -0.24078 -0.11411 0.79697
 C431 C -0.26883 -0.07601 0.80249
 C432 C -0.31209 0.08072 0.75773
 C433 C -0.30526 0.11915 0.73031
 C434 C -0.27162 0.11895 0.69662
 C435 C -0.24458 0.08030 0.69011
 C436 C -0.32935 0.00089 0.81243
 C437 C -0.36106 0.00013 0.83886
 C438 C -0.19056 0.00011 0.67361
 C439 C -0.16409 -0.00055 0.64192
 H440 H -0.17464 -0.07818 0.70913
 H441 H -0.18544 -0.14399 0.75914
 H442 H -0.24511 -0.14357 0.81903
 H443 H -0.29444 -0.07739 0.82926
 H444 H -0.33861 0.08258 0.78356
 H445 H -0.32616 0.14926 0.73525
 H446 H -0.26642 0.14890 0.67541
 H447 H -0.21878 0.08185 0.66354
   
