data_POSCAR
  _audit_creation_date              2014-09-24
  _audit_creation_method            'ToBaCCo'
  _symmetry_space_group_name_H-M    'P1'
  _symmetry_Int_Tables_number       1
  _symmetry_cell_setting            triclinic
  loop_
  _symmetry_equiv_pos_as_xyz
 x,y,z
_cell_length_a 24.3547
_cell_length_b 24.3442
_cell_length_c 25.8985
_cell_angle_alpha 90.129800
_cell_angle_beta 89.933100
_cell_angle_gamma 120.083200
loop_
  _atom_site_label
  _atom_site_type_symbol
  _atom_site_fract_x
  _atom_site_fract_y
  _atom_site_fract_z
O1 O 0.06012 0.57610 1.29917
 O2 O -0.06306 0.51211 1.19833
 O3 O -0.06326 0.51167 1.29899
 O4 O 0.06038 0.57381 1.19858
 O5 O 0.06137 0.48345 1.19933
 O6 O -0.06205 0.42142 1.29945
 O7 O -0.06204 0.42179 1.19882
 O8 O 0.06131 0.48586 1.29989
 Cu9 Cu -0.00159 0.55253 1.24870
 Cu10 Cu -0.00025 0.44401 1.24943
 C11 C 0.08141 0.54179 1.31665
 C12 C -0.08325 0.45628 1.18143
 C13 C -0.08335 0.45607 1.31625
 C14 C 0.08161 0.53897 1.18196
 O15 O 0.42290 0.48549 1.30085
 O16 O 0.48727 0.42629 1.20006
 O17 O 0.48685 0.42596 1.30067
 O18 O 0.42541 0.48776 1.20016
 O19 O 0.51579 0.57925 1.20142
 O20 O 0.57715 0.51753 1.30173
 O21 O 0.57763 0.51777 1.20113
 O22 O 0.51319 0.57701 1.30209
 Cu23 Cu 0.44648 0.44716 1.25035
 Cu24 Cu 0.55502 0.55713 1.25174
 C25 C 0.45717 0.54118 1.31858
 C26 C 0.54321 0.46201 1.18348
 C27 C 0.54242 0.46139 1.31815
 C28 C 0.46039 0.54390 1.18371
 O29 O 0.51466 0.93861 1.30172
 O30 O 0.57449 1.06197 1.20104
 O31 O 0.57409 1.06226 1.30172
 O32 O 0.51229 0.93854 1.20100
 O33 O 0.42101 0.93758 1.20193
 O34 O 0.48272 1.06111 1.30239
 O35 O 0.48321 1.06101 1.20170
 O36 O 0.42331 0.93747 1.30262
 Cu37 Cu 0.55308 1.00044 1.25133
 Cu38 Cu 0.44336 0.99917 1.25229
 C39 C 0.45897 0.91725 1.31926
 C40 C 0.53896 1.08216 1.18421
 C41 C 0.53873 1.08251 1.31908
 C42 C 0.45626 0.91742 1.18432
 O43 O 0.93985 0.51722 0.69845
 O44 O 1.06343 0.57912 0.79867
 O45 O 1.06341 0.57681 0.69798
 O46 O 0.94000 0.51718 0.79916
 O47 O 0.93896 0.42584 0.79970
 O48 O 1.06224 0.48542 0.69871
 O49 O 1.06241 0.48776 0.79944
 O50 O 0.93864 0.42578 0.69898
 Cu51 Cu 1.00179 0.55679 0.74847
 Cu52 Cu 1.00045 0.44699 0.74924
 C53 C 0.91845 0.46116 0.68172
 C54 C 1.08360 0.54387 0.81613
 C55 C 1.08358 0.54110 0.68119
 C56 C 0.91881 0.46145 0.81663
 O57 O 0.48273 0.42158 0.69940
 O58 O 0.42177 0.48387 0.79983
 O59 O 0.42397 0.48613 0.69922
 O60 O 0.48318 0.42202 0.80002
 O61 O 0.57477 0.51229 0.80068
 O62 O 0.51564 0.57631 0.70011
 O63 O 0.51336 0.57416 0.80074
 O64 O 0.57442 0.51178 0.70006
 Cu65 Cu 0.44366 0.44430 0.74952
 Cu66 Cu 0.55380 0.55275 0.75047
 C67 C 0.53875 0.45615 0.68269
 C68 C 0.45726 0.53937 0.81736
 C69 C 0.45992 0.54204 0.68258
 C70 C 0.53899 0.45649 0.81745
 O71 O 0.57783 0.06016 0.69854
 O72 O 0.51662 -0.06299 0.79881
 O73 O 0.51369 -0.06334 0.69815
 O74 O 0.57800 0.06039 0.79918
 O75 O 0.48760 0.06119 0.80022
 O76 O 0.42339 -0.06238 0.69943
 O77 O 0.42621 -0.06219 0.80012
 O78 O 0.48751 0.06113 0.69958
 Cu79 Cu 0.55564 -0.00155 0.74852
 Cu80 Cu 0.44704 -0.00049 0.74993
 C81 C 0.54304 0.08134 0.68204
 C82 C 0.46126 -0.08315 0.81658
 C83 C 0.45769 -0.08361 0.68163
 C84 C 0.54348 0.08150 0.81687
 O85 O 0.42962 0.65278 0.95721
 O86 O 0.42706 0.75712 0.94126
 C87 C 0.39695 0.78574 0.93162
 O88 O 0.34858 0.77724 0.95681
 O89 O 0.24423 0.67010 0.94048
 C90 C 0.21547 0.61120 0.93092
 O91 O 0.22391 0.57146 0.95624
 O92 O 0.33107 0.57428 0.94089
 C93 C 0.39001 0.60445 0.93172
 O94 O 0.42623 0.67008 1.05983
 O95 O 0.42922 0.77724 1.04395
 C96 C 0.38937 0.78577 1.06914
 O97 O 0.33056 0.75706 1.05942
 O98 O 0.22347 0.65266 1.04302
 C99 C 0.21459 0.60425 1.06825
 O100 O 0.24334 0.57413 1.05898
 O101 O 0.34776 0.57144 1.04363
 C102 C 0.39600 0.61117 1.06912
 Cr103 Cr 0.42452 0.71256 1.00055
 Cr104 Cr 0.28847 0.71252 0.99995
 Cr105 Cr 0.28829 0.57634 0.99995
 O106 O 0.33375 0.66713 1.00016
 O107 O 0.57399 0.33036 0.94151
 O108 O 0.57139 0.22318 0.95681
 C109 C 0.61104 0.21413 0.93176
 O110 O 0.66987 0.24277 0.94140
 O111 O 0.77719 0.34758 0.95652
 C112 C 0.78631 0.39632 0.93156
 O113 O 0.75778 0.42657 0.94133
 O114 O 0.65309 0.42901 0.95670
 C115 C 0.60424 0.38919 0.93181
 O116 O 0.57155 0.34762 1.04438
 O117 O 0.57412 0.24302 1.05971
 C118 C 0.60435 0.21450 1.06939
 O119 O 0.65308 0.22355 1.04436
 O120 O 0.75786 0.33096 1.05945
 C121 C 0.78645 0.38983 1.06913
 O122 O 0.77731 0.42944 1.04423
 O123 O 0.67007 0.42684 1.05958
 C124 C 0.61123 0.39659 1.06927
 Cr125 Cr 0.57637 0.28785 1.00060
 Cr126 Cr 0.71269 0.28801 1.00044
 Cr127 Cr 0.71276 0.42435 1.00046
 O128 O 0.66728 0.33341 1.00051
 O129 O 0.65190 0.42812 0.54328
 O130 O 0.75632 0.42553 0.55879
 C131 C 0.78516 0.39552 0.56799
 O132 O 0.77631 0.34707 0.54264
 O133 O 0.66910 0.24263 0.55857
 C134 C 0.61021 0.21378 0.56799
 O135 O 0.57047 0.22235 0.54278
 O136 O 0.57320 0.32945 0.55886
 C137 C 0.60342 0.38835 0.56843
 O138 O 0.66894 0.42554 0.44060
 O139 O 0.77602 0.42822 0.45607
 C140 C 0.78458 0.38849 0.43067
 O141 O 0.75588 0.32959 0.44003
 O142 O 0.65152 0.22231 0.45596
 C143 C 0.60307 0.21347 0.43076
 O144 O 0.57308 0.24233 0.44016
 O145 O 0.57038 0.34676 0.45629
 C146 C 0.61004 0.39541 0.43126
 Cr147 Cr 0.71153 0.42332 0.49968
 Cr148 Cr 0.71144 0.28716 0.49930
 Cr149 Cr 0.57531 0.28699 0.49952
 O150 O 0.66609 0.33250 0.49949
 O151 O 0.34701 0.57128 0.54364
 O152 O 0.24228 0.57369 0.55880
 C153 C 0.21406 0.60421 0.56881
 O154 O 0.22358 0.65325 0.54417
 O155 O 0.33104 0.75805 0.55915
 C156 C 0.38988 0.78631 0.56888
 O157 O 0.42934 0.77699 0.54386
 O158 O 0.42679 0.66970 0.55843
 C159 C 0.39611 0.61089 0.56830
 O160 O 0.33067 0.57365 0.44072
 O161 O 0.22347 0.57117 0.45585
 C162 C 0.21405 0.61073 0.43123
 O163 O 0.24225 0.66955 0.44122
 O164 O 0.34709 0.77700 0.45620
 C165 C 0.39598 0.78651 0.43124
 O166 O 0.42649 0.75822 0.44082
 O167 O 0.42904 0.65344 0.45543
 C168 C 0.38946 0.60427 0.43076
 Cr169 Cr 0.28769 0.57612 0.49975
 Cr170 Cr 0.28782 0.71263 0.50017
 Cr171 Cr 0.42425 0.71275 0.49964
 O172 O 0.33325 0.66716 0.49984
 C173 C 0.43365 0.56264 0.35623
 C174 C 0.41311 0.58159 0.39002
 C175 C 0.43738 0.87232 0.35687
 C176 C 0.41847 0.83286 0.39060
 C177 C 0.12871 0.56653 0.35654
 C178 C 0.16795 0.58704 0.39043
 C179 C 0.56636 0.43774 0.35753
 C180 C 0.58646 0.41827 0.39098
 C181 C 0.56097 0.12754 0.35656
 C182 C 0.58032 0.16709 0.39022
 C183 C 0.86948 0.43209 0.35600
 C184 C 0.83040 0.41199 0.38989
 C185 C 0.56773 0.43901 1.14369
 C186 C 0.58782 0.41961 1.10991
 C187 C 0.87203 0.43329 1.14367
 C188 C 0.83272 0.41331 1.10981
 C189 C 0.56209 0.12932 1.14421
 C190 C 0.58151 0.16844 1.11023
 C191 C 0.43721 0.56771 1.14386
 C192 C 0.41823 0.58768 1.10994
 C193 C 0.12900 0.56247 1.14239
 C194 C 0.16836 0.58170 1.10872
 C195 C 0.43249 0.87041 1.14428
 C196 C 0.41261 0.83148 1.11016
 C197 C 0.56190 0.43201 0.64298
 C198 C 0.58095 0.41184 0.60916
 C199 C 0.56680 0.12859 0.64238
 C200 C 0.58677 0.16779 0.60862
 C201 C 0.87092 0.43760 0.64215
 C202 C 0.83147 0.41825 0.60850
 C203 C 0.43737 0.56679 0.64281
 C204 C 0.41860 0.58727 0.60900
 C205 C 0.43426 0.87163 0.64380
 C206 C 0.41369 0.83239 0.60981
 C207 C 0.12843 0.56264 0.64346
 C208 C 0.16781 0.58159 0.60960
 C209 C 0.43361 0.56288 0.85717
 C210 C 0.41362 0.58205 0.89104
 C211 C 0.13072 0.56774 0.85601
 C212 C 0.16973 0.58774 0.89000
 C213 C 0.43825 0.87005 0.85658
 C214 C 0.41934 0.83128 0.89067
 C215 C 0.56196 0.43222 0.85728
 C216 C 0.58132 0.41238 0.89112
 C217 C 0.87161 0.43842 0.85668
 C218 C 0.83244 0.41910 0.89069
 C219 C 0.56777 0.12874 0.85690
 C220 C 0.58767 0.16795 0.89091
   
