data_POSCAR
  _audit_creation_date              2014-09-24
  _audit_creation_method            'ToBaCCo'
  _symmetry_space_group_name_H-M    'P1'
  _symmetry_Int_Tables_number       1
  _symmetry_cell_setting            triclinic
  loop_
  _symmetry_equiv_pos_as_xyz
 x,y,z
_cell_length_a 44.6775
_cell_length_b 44.7503
_cell_length_c 44.5784
_cell_angle_alpha 89.985400
_cell_angle_beta 90.005200
_cell_angle_gamma 89.922600
loop_
  _atom_site_label
  _atom_site_type_symbol
  _atom_site_fract_x
  _atom_site_fract_y
  _atom_site_fract_z
C1 C 0.16000 0.18366 0.20175
 C2 C 0.16001 0.20516 0.17885
 C3 C 0.18200 0.20455 0.15694
 C4 C 0.20425 0.18242 0.15765
 C5 C 0.20425 0.16116 0.18028
 C6 C 0.18199 0.16179 0.20246
 C7 C 0.14112 0.17855 0.22564
 N8 N 0.15128 0.15422 0.24060
 C9 C 0.17615 0.14371 0.22677
 C10 C 0.22804 0.14225 0.17509
 N11 N 0.24227 0.15166 0.14998
 C12 C 0.22806 0.17611 0.13905
 C13 C 0.17620 0.22771 0.13741
 N14 N 0.15136 0.24215 0.14709
 C15 C 0.14120 0.22868 0.17231
 H16 H 0.12140 0.19137 0.23155
 H17 H 0.18885 0.12427 0.23373
 H18 H 0.23439 0.12300 0.18840
 H19 H 0.23442 0.18819 0.11899
 H20 H 0.18893 0.23354 0.11759
 H21 H 0.12152 0.23541 0.18479
 C22 C -0.15670 0.81936 0.20562
 C23 C -0.15711 0.79705 0.18353
 C24 C -0.17951 0.79688 0.16202
 C25 C -0.20176 0.81901 0.16234
 C26 C -0.20136 0.84106 0.18417
 C27 C -0.17870 0.84124 0.20594
 C28 C -0.13742 0.82531 0.22899
 N29 N -0.14734 0.85015 0.24325
 C30 C -0.17246 0.86016 0.22949
 C31 C -0.22529 0.85975 0.17874
 N32 N -0.23997 0.84941 0.15426
 C33 C -0.22592 0.82461 0.14397
 C34 C -0.17405 0.77306 0.14324
 N35 N -0.14901 0.75897 0.15295
 C36 C -0.13839 0.77332 0.17748
 H37 H -0.11761 0.81269 0.23504
 H38 H -0.18508 0.87980 0.23599
 H39 H -0.23143 0.87945 0.19145
 H40 H -0.23264 0.81179 0.12449
 H41 H -0.18712 0.76656 0.12385
 H42 H -0.11845 0.76706 0.18980
 C43 C -0.16271 0.17922 -0.20362
 C44 C -0.16348 0.20163 -0.18165
 C45 C -0.18553 0.20129 -0.15979
 C46 C -0.20709 0.17854 -0.15965
 C47 C -0.20633 0.15638 -0.18137
 C48 C -0.18401 0.15673 -0.20349
 C49 C -0.14362 0.17371 -0.22725
 N50 N -0.15297 0.14853 -0.24124
 C51 C -0.17755 0.13787 -0.22704
 C52 C -0.22958 0.13705 -0.17548
 N53 N -0.24419 0.14710 -0.15083
 C54 C -0.23078 0.17235 -0.14088
 C55 C -0.18048 0.22534 -0.14119
 N56 N -0.15602 0.24004 -0.15135
 C57 C -0.14538 0.22587 -0.17599
 H58 H -0.12433 0.18687 -0.23368
 H59 H -0.18965 0.11784 -0.23327
 H60 H -0.23530 0.11712 -0.18800
 H61 H -0.23761 0.18509 -0.12139
 H62 H -0.19340 0.23154 -0.12160
 H63 H -0.12580 0.23257 -0.18862
 C64 C 0.16097 0.81981 -0.20490
 C65 C 0.16006 0.79718 -0.18315
 C66 C 0.18144 0.79631 -0.16064
 C67 C 0.20399 0.81806 -0.15960
 C68 C 0.20490 0.84042 -0.18111
 C69 C 0.18326 0.84131 -0.20389
 C70 C 0.14283 0.82645 -0.22899
 N71 N 0.15371 0.85133 -0.24241
 C72 C 0.17834 0.86070 -0.22740
 C73 C 0.22879 0.85863 -0.17433
 N74 N 0.24219 0.84773 -0.14935
 C75 C 0.22736 0.82302 -0.14006
 C76 C 0.17476 0.77232 -0.14248
 N77 N 0.14999 0.75883 -0.15354
 C78 C 0.14073 0.77372 -0.17832
 H79 H 0.12312 0.81429 -0.23608
 H80 H 0.19149 0.88023 -0.23302
 H81 H 0.23578 0.87839 -0.18648
 H82 H 0.23302 0.80982 -0.12048
 H83 H 0.18683 0.76530 -0.12261
 H84 H 0.12129 0.76800 -0.19164
 C85 C 0.18374 1.16011 0.79816
 C86 C 0.20532 1.16017 0.82099
 C87 C 0.20482 1.18222 0.84280
 C88 C 0.18271 1.20448 0.84205
 C89 C 0.16137 1.20443 0.81948
 C90 C 0.16188 1.18212 0.79741
 C91 C 0.17850 1.14117 0.77439
 N92 N 0.15411 1.15130 0.75947
 C93 C 0.14368 1.17623 0.77319
 C94 C 0.14246 1.22822 0.82464
 N95 N 0.15199 1.24247 0.84967
 C96 C 0.17648 1.22830 0.86059
 C97 C 0.22801 1.17645 0.86231
 N98 N 0.24237 1.15156 0.85273
 C99 C 0.22882 1.14134 0.82757
 H100 H 0.19127 1.12142 0.76854
 H101 H 0.12422 1.18892 0.76623
 H102 H 0.12314 1.23453 0.81138
 H103 H 0.18864 1.23468 0.88061
 H104 H 0.23391 1.18921 0.88208
 H105 H 0.23546 1.12160 0.81519
 C106 C 0.81906 0.84237 0.79383
 C107 C 0.79677 0.84178 0.81596
 C108 C 0.79677 0.81936 0.83741
 C109 C 0.81905 0.79728 0.83699
 C110 C 0.84109 0.79785 0.81511
 C111 C 0.84109 0.82054 0.79340
 C112 C 0.82487 0.86174 0.77054
 N113 N 0.84977 0.85201 0.75621
 C114 C 0.85997 0.82694 0.76985
 C115 C 0.85996 0.77408 0.82044
 N116 N 0.84975 0.75932 0.84491
 C117 C 0.82485 0.77317 0.85530
 C118 C 0.77295 0.82464 0.85628
 N119 N 0.75871 0.84960 0.84667
 C120 C 0.77295 0.86034 0.82212
 H121 H 0.81212 0.88148 0.76459
 H122 H 0.87970 0.81447 0.76327
 H123 H 0.87970 0.76809 0.80767
 H124 H 0.81210 0.76634 0.87480
 H125 H 0.76656 0.81152 0.87566
 H126 H 0.76656 0.88026 0.80988
 C127 C 0.17980 0.83751 1.20495
 C128 C 0.20217 0.83671 1.18291
 C129 C 0.20184 0.81457 1.16118
 C130 C 0.17914 0.79298 1.16124
 C131 C 0.15702 0.79376 1.18302
 C132 C 0.15735 0.81616 1.20500
 C133 C 0.17420 0.85674 1.22841
 N134 N 0.14903 0.84741 1.24247
 C135 C 0.13844 0.82272 1.22850
 C136 C 0.13767 0.77054 1.17724
 N137 N 0.14766 0.75591 1.15261
 C138 C 0.17290 0.76930 1.14256
 C139 C 0.22579 0.81963 1.14242
 N140 N 0.24042 0.84418 1.15237
 C141 C 0.22631 0.85488 1.17702
 H142 H 0.18727 0.87615 1.23462
 H143 H 0.11840 0.81065 1.23481
 H144 H 0.11771 0.76485 1.18978
 H145 H 0.18554 0.76246 1.12301
 H146 H 0.23196 0.80667 1.12286
 H147 H 0.23297 0.87455 1.18948
 C148 C 0.81894 1.16115 1.20547
 C149 C 0.79640 1.16000 1.18362
 C150 C 0.79548 1.18126 1.16104
 C151 C 0.81708 1.20393 1.16003
 C152 C 0.83936 1.20508 1.18162
 C153 C 0.84031 1.18357 1.20448
 C154 C 0.82566 1.14314 1.22960
 N155 N 0.85045 1.15422 1.24306
 C156 C 0.85970 1.17885 1.22804
 C157 C 0.85747 1.22900 1.17478
 N158 N 0.84658 1.24218 1.14969
 C159 C 0.82198 1.22717 1.14039
 C160 C 0.77165 1.17435 1.14275
 N161 N 0.75830 1.14953 1.15380
 C162 C 0.77311 1.14047 1.17871
 H163 H 0.81363 1.12335 1.23667
 H164 H 0.87918 1.19210 1.23366
 H165 H 0.87718 1.23617 1.18693
 H166 H 0.80886 1.23263 1.12072
 H167 H 0.76468 1.18625 1.12278
 H168 H 0.76749 1.12103 1.19202
 O169 O 0.45806 1.05081 1.05590
 O170 O 0.42512 1.02221 1.02869
 C171 C 0.43124 1.04290 1.04804
 O172 O 0.54176 1.04880 0.94860
 O173 O 0.57480 1.02145 0.97706
 C174 C 0.56860 1.04086 0.95641
 O175 O 0.45765 1.05157 0.95184
 O176 O 0.42492 1.02257 0.97889
 C177 C 0.43091 1.04351 0.95976
 O178 O 0.54220 1.04802 1.05832
 O179 O 0.57498 1.02120 1.02909
 C180 C 0.56896 1.04030 1.05006
 Zr181 Zr 0.50008 1.03387 1.04159
 O182 O 0.50335 1.08105 1.04225
 O183 O 0.49690 1.03291 1.08898
 Zr184 Zr 0.49979 1.03454 0.96563
 O185 O 0.50313 1.08173 0.96604
 O186 O 0.49617 1.03473 0.91828
 O187 O 0.47329 1.04007 1.00376
 O188 O 0.52588 1.03970 1.00353
 O189 O 0.54243 0.94417 1.05761
 O190 O 0.57511 0.97153 1.02883
 C191 C 0.56917 0.95214 1.04955
 O192 O 0.45773 0.94223 0.95086
 O193 O 0.42497 0.97073 0.97845
 C194 C 0.43097 0.95017 0.95891
 O195 O 0.54178 0.94483 0.94783
 O196 O 0.57473 0.97127 0.97712
 C197 C 0.56859 0.95239 0.95600
 O198 O 0.45822 0.94130 1.05510
 O199 O 0.42521 0.97032 1.02832
 C200 C 0.43139 0.94937 1.04739
 Zr201 Zr 0.50021 0.95835 1.04096
 O202 O 0.50369 0.91116 1.04056
 O203 O 0.49701 0.95818 1.08834
 Zr204 Zr 0.49985 0.95895 0.96505
 O205 O 0.50322 0.91175 0.96481
 O206 O 0.49629 0.95949 0.91769
 Zr207 Zr 0.45551 0.99644 1.00348
 Zr208 Zr 0.54448 0.99647 1.00308
 O209 O 0.52600 0.95322 1.00286
 O210 O 0.47337 0.95280 1.00307
 O211 O 0.52688 0.99608 1.04698
 O212 O 0.47381 0.99680 0.95998
 O213 O 0.47414 0.99606 1.04684
 O214 O 0.52650 0.99679 0.95934
 H215 H 0.53941 1.05722 1.00358
 H216 H 0.46015 0.99695 0.94247
 H217 H 0.53954 0.93567 1.00273
 H218 H 0.46060 0.99594 1.06443
 H219 H 0.51293 1.02269 0.91027
 H220 H 0.51302 0.97168 0.90989
 H221 H 0.48649 0.90386 0.97697
 H222 H 0.48703 0.90343 1.02820
 H223 H 0.51381 0.97023 1.09620
 H224 H 0.51416 1.02133 1.09661
 H225 H 0.48705 1.08900 1.02952
 H226 H 0.48647 1.08947 0.97842
 O227 O -0.05778 0.45805 0.04819
 O228 O -0.02914 0.42522 0.02083
 C229 C -0.04985 0.43131 0.04022
 O230 O -0.05496 0.54241 -0.05859
 O231 O -0.02769 0.57498 -0.02963
 C232 C -0.04699 0.56909 -0.05048
 O233 O -0.05810 0.45839 -0.05600
 O234 O -0.02928 0.42538 -0.02903
 C235 C -0.05016 0.43158 -0.04821
 O236 O -0.05470 0.54201 0.05129
 O237 O -0.02758 0.57480 0.02244
 C238 C -0.04675 0.56875 0.04336
 Zr239 Zr -0.04082 0.50001 0.03408
 O240 O -0.08807 0.50361 0.03391
 O241 O -0.04074 0.49645 0.08144
 Zr242 Zr -0.04095 0.50028 -0.04182
 O243 O -0.08820 0.50390 -0.04169
 O244 O -0.04083 0.49705 -0.08920
 O245 O -0.04681 0.47354 -0.00394
 O246 O -0.04626 0.52612 -0.00376
 O247 O 0.04911 0.54151 0.05110
 O248 O 0.02212 0.57457 0.02234
 C249 C 0.04132 0.56832 0.04319
 O250 O 0.05161 0.45794 -0.05619
 O251 O 0.02269 0.42516 -0.02913
 C252 C 0.04354 0.43121 -0.04837
 O253 O 0.04909 0.54196 -0.05872
 O254 O 0.02208 0.57476 -0.02971
 C255 C 0.04133 0.56871 -0.05058
 O256 O 0.05174 0.45754 0.04794
 O257 O 0.02279 0.42496 0.02070
 C258 C 0.04365 0.43086 0.03998
 Zr259 Zr 0.03493 0.49966 0.03395
 O260 O 0.08220 0.50289 0.03362
 O261 O 0.03502 0.49608 0.08130
 Zr262 Zr 0.03477 0.49996 -0.04196
 O263 O 0.08205 0.50311 -0.04205
 O264 O 0.03438 0.49674 -0.08934
 Zr265 Zr -0.00315 0.45557 -0.00408
 Zr266 Zr -0.00287 0.54438 -0.00376
 O267 O 0.04039 0.52573 -0.00391
 O268 O 0.04062 0.47316 -0.00411
 O269 O -0.00285 0.52643 0.03998
 O270 O -0.00318 0.47418 -0.04744
 O271 O -0.00301 0.47388 0.03940
 O272 O -0.00301 0.52678 -0.04765
 H273 H -0.06373 0.53978 -0.00367
 H274 H -0.00325 0.46065 -0.06503
 H275 H 0.05796 0.53921 -0.00387
 H276 H -0.00300 0.46027 0.05693
 H277 H -0.02868 0.51379 -0.09700
 H278 H 0.02246 0.51371 -0.09708
 H279 H 0.08985 0.48652 -0.02964
 H280 H 0.08996 0.48604 0.02154
 H281 H 0.02269 0.51265 0.08925
 H282 H -0.02832 0.51295 0.08934
 H283 H -0.09596 0.48680 0.02189
 H284 H -0.09607 0.48735 -0.02930
 O285 O 1.05791 -0.04865 0.54185
 O286 O 1.02921 -0.02172 0.57501
 C287 C 1.04999 -0.04095 0.56876
 O288 O 1.05485 0.05844 0.45809
 O289 O 1.02761 0.02990 0.42511
 C290 C 1.04691 0.05059 0.43122
 O291 O 1.05785 0.05522 0.54239
 O292 O 1.02915 0.02799 0.57527
 C293 C 1.04991 0.04723 0.56921
 O294 O 1.05479 -0.05097 0.45753
 O295 O 1.02759 -0.02196 0.42482
 C296 C 1.04681 -0.04283 0.43075
 Zr297 Zr 1.04089 -0.03424 0.49982
 O298 O 1.08814 -0.03396 0.49626
 O299 O 1.04096 -0.08144 0.50295
 Zr300 Zr 1.04081 0.04136 0.50021
 O301 O 1.08807 0.04127 0.49670
 O302 O 1.04055 0.08853 0.50383
 O303 O 1.04678 0.00341 0.52674
 O304 O 1.04622 0.00370 0.47395
 O305 O 0.95089 -0.05087 0.45785
 O306 O 0.97787 -0.02194 0.42498
 C307 C 0.95866 -0.04275 0.43102
 O308 O 0.94821 0.05518 0.54276
 O309 O 0.97719 0.02795 0.57546
 C310 C 0.95630 0.04715 0.56954
 O311 O 0.95079 0.05851 0.45845
 O312 O 0.97782 0.02991 0.42527
 C313 C 0.95856 0.05065 0.43154
 O314 O 0.94839 -0.04855 0.54216
 O315 O 0.97728 -0.02170 0.57517
 C316 C 0.95648 -0.04086 0.56902
 Zr317 Zr 0.96515 -0.03421 0.50004
 O318 O 0.91787 -0.03403 0.49680
 O319 O 0.96535 -0.08142 0.50319
 Zr320 Zr 0.96509 0.04140 0.50046
 O321 O 0.91782 0.04144 0.49721
 O322 O 0.96531 0.08857 0.50415
 Zr323 Zr 1.00312 0.00332 0.54471
 Zr324 Zr 1.00283 0.00382 0.45555
 O325 O 0.95957 0.00374 0.47423
 O326 O 0.95935 0.00344 0.52700
 O327 O 1.00294 -0.03992 0.47318
 O328 O 1.00302 0.04668 0.52642
 O329 O 1.00310 -0.03983 0.52594
 O330 O 1.00285 0.04737 0.47363
 H331 H 1.06370 0.00374 0.46027
 H332 H 1.00303 0.06409 0.54015
 H333 H 0.94199 0.00382 0.46068
 H334 H 1.00316 -0.05741 0.53944
 H335 H 1.02841 0.09642 0.48704
 H336 H 0.97729 0.09647 0.48727
 H337 H 0.91003 0.02898 0.51379
 H338 H 0.91008 -0.02201 0.51371
 H339 H 0.97743 -0.08915 0.48629
 H340 H 1.02847 -0.08917 0.48637
 H341 H 1.09600 -0.02212 0.51324
 H342 H 1.09595 0.02891 0.51332
 C343 C 1.11304 0.11776 0.31210
 N344 N 1.08459 0.12507 0.31984
 N345 N 1.07162 0.11233 0.34354
 C346 C 1.08670 0.09190 0.36020
 N347 N 1.11515 0.08461 0.35246
 N348 N 1.12812 0.09734 0.32878
 C349 C 1.12688 0.13113 0.28633
 C350 C 1.13851 0.14218 0.26458
 C351 C 1.07260 0.07776 0.38540
 C352 C 1.06082 0.06555 0.40642
 C353 C 0.89182 -0.11124 0.31307
 N354 N 0.92059 -0.11782 0.32024
 N355 N 0.93378 -0.10457 0.34353
 C356 C 0.91859 -0.08436 0.36034
 N357 N 0.88982 -0.07779 0.35318
 N358 N 0.87664 -0.09103 0.32989
 C359 C 0.87767 -0.12532 0.28787
 C360 C 0.86576 -0.13704 0.26664
 C361 C 0.93283 -0.06991 0.38529
 C362 C 0.94468 -0.05761 0.40620
 C363 C 0.88652 0.11120 0.68837
 N364 N 0.88192 0.08196 0.68187
 N365 N 0.89543 0.06939 0.65838
 C366 C 0.91394 0.08569 0.64068
 N367 N 0.91853 0.11494 0.64718
 N368 N 0.90502 0.12750 0.67067
 C369 C 0.87213 0.12470 0.71379
 C370 C 0.86014 0.13604 0.73519
 C371 C 0.92868 0.07211 0.61552
 C372 C 0.94120 0.06072 0.59447
 C373 C 1.11740 -0.10872 0.68691
 N374 N 1.10180 -0.12490 0.66651
 N375 N 1.08902 -0.11151 0.64306
 C376 C 1.09146 -0.08153 0.63930
 N377 N 1.10708 -0.06535 0.65969
 N378 N 1.11986 -0.07874 0.68315
 C379 C 1.13075 -0.12310 0.71241
 C380 C 1.14175 -0.13526 0.73390
 C381 C 1.07722 -0.06709 0.61432
 C382 C 1.06496 -0.05508 0.59345
 C383 C 0.31292 1.11245 1.11302
 N384 N 0.32610 1.08868 1.12655
 N385 N 0.34956 1.07524 1.11391
 C386 C 0.36057 1.08517 1.08737
 N387 N 0.34739 1.10894 1.07384
 N388 N 0.32393 1.12238 1.08648
 C389 C 0.28745 1.12673 1.12647
 C390 C 0.26596 1.13863 1.13770
 C391 C 0.38561 1.07047 1.07359
 C392 C 0.40653 1.05797 1.06195
 C393 C 0.31251 0.88416 0.89082
 N394 N 0.32484 0.90945 0.87952
 N395 N 0.34827 0.92206 0.89297
 C396 C 0.36010 0.90977 0.91814
 N397 N 0.34778 0.88447 0.92945
 N398 N 0.32434 0.87186 0.91599
 C399 C 0.28713 0.87075 0.87639
 C400 C 0.26575 0.85972 0.86416
 C401 C 0.38518 0.92358 0.93271
 C402 C 0.40616 0.93552 0.94477
 C403 C 0.68858 0.88688 1.11700
 N404 N 0.67402 0.87289 1.09431
 N405 N 0.65030 0.88562 1.08141
 C406 C 0.64040 0.91271 1.09081
 N407 N 0.65496 0.92669 1.11351
 N408 N 0.67869 0.91397 1.12641
 C409 C 0.71434 0.87332 1.13064
 C410 C 0.73608 0.86193 1.14194
 C411 C 0.61513 0.92658 1.07660
 C412 C 0.59404 0.93824 1.06440
 C413 C 0.68604 1.10786 0.88757
 N414 N 0.66704 1.12391 0.90501
 N415 N 0.64381 1.11070 0.91824
 C416 C 0.63887 1.08104 0.91444
 N417 N 0.65787 1.06499 0.89700
 N418 N 0.68111 1.07820 0.88376
 C419 C 0.71121 1.12205 0.87355
 C420 C 0.73243 1.13398 0.86189
 C421 C 0.61404 1.06679 0.92897
 C422 C 0.59324 1.05489 0.94138
 C423 C 0.11242 0.31311 0.10663
 N424 N 0.10139 0.33597 0.12329
 N425 N 0.08816 0.35920 0.11007
 C426 C 0.08554 0.36029 0.07977
 N427 N 0.09658 0.33744 0.06310
 N428 N 0.10982 0.31420 0.07633
 C429 C 0.12639 0.28796 0.12092
 C430 C 0.13799 0.26679 0.13300
 C431 C 0.07100 0.38518 0.06559
 C432 C 0.05861 0.40606 0.05382
 C433 C -0.11865 0.31278 -0.11283
 N434 N -0.11089 0.33680 -0.12967
 N435 N -0.09792 0.36045 -0.11699
 C436 C -0.09234 0.36079 -0.08708
 N437 N -0.10012 0.33678 -0.07024
 N438 N -0.11308 0.31313 -0.08293
 C439 C -0.13213 0.28709 -0.12655
 C440 C -0.14325 0.26538 -0.13804
 C441 C -0.07783 0.38598 -0.07349
 C442 C -0.06536 0.40694 -0.06200
 C443 C 0.10903 0.68703 -0.11695
 N444 N 0.12486 0.66198 -0.11038
 N445 N 0.11142 0.63853 -0.09783
 C446 C 0.08173 0.63940 -0.09149
 N447 N 0.06590 0.66444 -0.09808
 N448 N 0.07935 0.68790 -0.11063
 C449 C 0.12359 0.71244 -0.13009
 C450 C 0.13581 0.73386 -0.14098
 C451 C 0.06739 0.61436 -0.07746
 C452 C 0.05543 0.59343 -0.06537
 C453 C -0.11102 0.68701 0.11343
 N454 N -0.12768 0.66850 0.09608
 N455 N -0.11509 0.64505 0.08262
 C456 C -0.08546 0.63939 0.08611
 N457 N -0.06880 0.65789 0.10347
 N458 N -0.08140 0.68134 0.11693
 C459 C -0.12452 0.71246 0.12762
 C460 C -0.13585 0.73394 0.13939
 C461 C -0.07183 0.61437 0.07129
 C462 C -0.06038 0.59346 0.05864
 C463 C 1.11736 0.11302 0.68823
 N464 N 1.12387 0.08427 0.68110
 N465 N 1.11104 0.07133 0.65745
 C466 C 1.09134 0.08676 0.64022
 N467 N 1.08485 0.11551 0.64735
 N468 N 1.09767 0.12844 0.67099
 C469 C 1.13083 0.12684 0.71391
 C470 C 1.14197 0.13849 0.73558
 C471 C 1.07712 0.07273 0.61506
 C472 C 1.06488 0.06103 0.59404
 C473 C 0.88811 -0.10836 0.68656
 N474 N 0.90640 -0.12406 0.66809
 N475 N 0.91958 -0.11072 0.64487
 C476 C 0.91486 -0.08127 0.63943
 N477 N 0.89656 -0.06556 0.65789
 N478 N 0.88338 -0.07891 0.68112
 C479 C 0.87413 -0.12269 0.71169
 C480 C 0.86250 -0.13474 0.73287
 C481 C 0.92928 -0.06688 0.61458
 C482 C 0.94159 -0.05492 0.59375
 C483 C 1.11122 -0.11260 0.31224
 N484 N 1.09092 -0.09045 0.30792
 N485 N 1.07823 -0.07687 0.33129
 C486 C 1.08547 -0.08503 0.35968
 N487 N 1.10577 -0.10718 0.36401
 N488 N 1.11846 -0.12076 0.34063
 C489 C 1.12492 -0.12715 0.28707
 C490 C 1.13641 -0.13929 0.26585
 C491 C 1.07188 -0.07032 0.38482
 C492 C 1.06044 -0.05784 0.40585
 C493 C 0.89067 0.11816 0.31364
 N494 N 0.92092 0.11866 0.31613
 N495 N 0.93438 0.10587 0.33953
 C496 C 0.91799 0.09222 0.36115
 N497 N 0.88774 0.09174 0.35867
 N498 N 0.87428 0.10452 0.33527
 C499 C 0.87618 0.13144 0.28820
 C500 C 0.86394 0.14237 0.26673
 C501 C 0.93246 0.07794 0.38605
 C502 C 0.94446 0.06565 0.40689
 C503 C 0.11290 0.31297 -0.11324
 N504 N 0.11862 0.32015 -0.08425
 N505 N 0.10523 0.34359 -0.07159
 C506 C 0.08572 0.36056 -0.08754
 N507 N 0.08000 0.35338 -0.11653
 N508 N 0.09339 0.32993 -0.12920
 C509 C 0.12710 0.28757 -0.12677
 C510 C 0.13897 0.26612 -0.13803
 C511 C 0.07106 0.38558 -0.07380
 C512 C 0.05858 0.40649 -0.06221
 C513 C -0.11672 0.31361 0.10830
 N514 N -0.10617 0.33688 0.12465
 N515 N -0.09352 0.36020 0.11109
 C516 C -0.09104 0.36096 0.08078
 N517 N -0.10160 0.33771 0.06442
 N518 N -0.11426 0.31438 0.07798
 C519 C -0.12993 0.28832 0.12294
 C520 C -0.14085 0.26701 0.13531
 C521 C -0.07690 0.38583 0.06628
 C522 C -0.06472 0.40665 0.05427
 C523 C -0.11231 0.68816 -0.11803
 N524 N -0.12780 0.67127 -0.09812
 N525 N -0.11499 0.64762 -0.08522
 C526 C -0.08632 0.64014 -0.09186
 N527 N -0.07083 0.65703 -0.11178
 N528 N -0.08364 0.68068 -0.12468
 C529 C -0.12601 0.71382 -0.13161
 C530 C -0.13755 0.73547 -0.14285
 C531 C -0.07243 0.61495 -0.07762
 C532 C -0.06080 0.59392 -0.06538
 C533 C 0.10760 0.68513 0.11332
 N534 N 0.07741 0.68425 0.11029
 N535 N 0.06430 0.66114 0.09679
 C536 C 0.08099 0.63824 0.08592
 N537 N 0.11118 0.63912 0.08897
 N538 N 0.12429 0.66223 0.10246
 C539 C 0.12176 0.71018 0.12747
 C540 C 0.13372 0.73129 0.13917
 C541 C 0.06693 0.61355 0.07107
 C542 C 0.05520 0.59286 0.05842
 C543 C 0.31325 1.11263 0.89332
 N544 N 0.33838 1.10632 0.87747
 N545 N 0.36161 1.09306 0.89071
 C546 C 0.36041 1.08571 0.92020
 N547 N 0.33528 1.09203 0.93606
 N548 N 0.31205 1.10530 0.92282
 C549 C 0.28814 1.12659 0.87897
 C550 C 0.26699 1.13819 0.86685
 C551 C 0.38527 1.07108 0.93432
 C552 C 0.40613 1.05859 0.94602
 C553 C 0.31289 0.88156 1.11333
 N554 N 0.33206 0.89840 1.12976
 N555 N 0.35563 0.91127 1.11680
 C556 C 0.36074 0.90768 1.08703
 N557 N 0.34159 0.89083 1.07060
 N558 N 0.31801 0.87796 1.08356
 C559 C 0.28727 0.86810 1.12720
 C560 C 0.26565 0.85697 1.13886
 C561 C 0.38581 0.92200 1.07301
 C562 C 0.40672 0.93432 1.06129
 C563 C 0.68717 1.10827 1.11630
 N564 N 0.68208 1.11110 1.08645
 N565 N 0.65875 1.09758 1.07375
 C566 C 0.63980 1.08083 1.09051
 N567 N 0.64488 1.07799 1.12038
 N568 N 0.66823 1.09151 1.13308
 C569 C 0.71233 1.12283 1.12989
 C570 C 0.73355 1.13515 1.14104
 C571 C 0.61471 1.06634 1.07674
 C572 C 0.59373 1.05435 1.06479
 C573 C 0.68676 0.88737 0.88645
 N574 N 0.67449 0.91271 0.87513
 N575 N 0.65104 0.92540 0.88854
 C576 C 0.63916 0.91311 0.91367
 N577 N 0.65143 0.88776 0.92498
 N578 N 0.67487 0.87507 0.91157
 C579 C 0.71220 0.87389 0.87220
 C580 C 0.73367 0.86263 0.86035
 C581 C 0.61416 0.92693 0.92834
 C582 C 0.59327 0.93856 0.94085
   
