data_POSCAR
  _audit_creation_date              2014-09-24
  _audit_creation_method            'ToBaCCo'
  _symmetry_space_group_name_H-M    'P1'
  _symmetry_Int_Tables_number       1
  _symmetry_cell_setting            triclinic
  loop_
  _symmetry_equiv_pos_as_xyz
 x,y,z
_cell_length_a 49.8987
_cell_length_b 49.9425
_cell_length_c 49.8147
_cell_angle_alpha 90.000000
_cell_angle_beta 90.000000
_cell_angle_gamma 89.923200
loop_
  _atom_site_label
  _atom_site_type_symbol
  _atom_site_fract_x
  _atom_site_fract_y
  _atom_site_fract_z
C1 C 0.16040 0.17918 0.20005
 C2 C 0.16040 0.19903 0.18014
 C3 C 0.18002 0.19902 0.16052
 C4 C 0.19992 0.17916 0.16054
 C5 C 0.19993 0.15957 0.18019
 C6 C 0.18003 0.15958 0.20008
 C7 C 0.14390 0.17434 0.22165
 N8 N 0.15304 0.15229 0.23480
 C9 C 0.17515 0.14313 0.22171
 C10 C 0.22155 0.14311 0.17533
 N11 N 0.23465 0.15225 0.15322
 C12 C 0.22152 0.17431 0.14405
 C13 C 0.17515 0.22059 0.14401
 N14 N 0.15307 0.23364 0.15316
 C15 C 0.14391 0.22060 0.17525
 H16 H 0.12655 0.18608 0.22738
 H17 H 0.18689 0.12581 0.22750
 H18 H 0.22732 0.12579 0.18709
 H19 H 0.22727 0.18604 0.12670
 H20 H 0.18685 0.22640 0.12666
 H21 H 0.12656 0.22643 0.18693
 C22 C -0.16041 0.82083 0.20005
 C23 C -0.16040 0.80098 0.18014
 C24 C -0.18003 0.80099 0.16052
 C25 C -0.19993 0.82085 0.16054
 C26 C -0.19994 0.84043 0.18019
 C27 C -0.18003 0.84042 0.20008
 C28 C -0.14391 0.82566 0.22165
 N29 N -0.15305 0.84772 0.23480
 C30 C -0.17516 0.85688 0.22171
 C31 C -0.22155 0.85690 0.17533
 N32 N -0.23465 0.84776 0.15322
 C33 C -0.22153 0.82570 0.14405
 C34 C -0.17516 0.77942 0.14401
 N35 N -0.15308 0.76637 0.15316
 C36 C -0.14391 0.77941 0.17525
 H37 H -0.12656 0.81392 0.22738
 H38 H -0.18690 0.87419 0.22750
 H39 H -0.22732 0.87421 0.18709
 H40 H -0.22727 0.81397 0.12670
 H41 H -0.18685 0.77360 0.12666
 H42 H -0.12656 0.77358 0.18693
 C43 C -0.16103 0.17953 -0.19992
 C44 C -0.16106 0.19942 -0.18005
 C45 C -0.18069 0.19947 -0.16042
 C46 C -0.20055 0.17962 -0.16040
 C47 C -0.20052 0.16000 -0.18001
 C48 C -0.18062 0.15995 -0.19991
 C49 C -0.14451 0.17464 -0.22150
 N50 N -0.15361 0.15256 -0.23460
 C51 C -0.17571 0.14345 -0.22150
 C52 C -0.22209 0.14355 -0.17513
 N53 N -0.23521 0.15272 -0.15304
 C54 C -0.22215 0.17480 -0.14391
 C55 C -0.17583 0.22108 -0.14396
 N56 N -0.15377 0.23407 -0.15315
 C57 C -0.14460 0.22097 -0.17521
 H58 H -0.12719 0.18635 -0.22725
 H59 H -0.18741 0.12613 -0.22725
 H60 H -0.22780 0.12621 -0.18686
 H61 H -0.22792 0.18655 -0.12657
 H62 H -0.18752 0.22694 -0.12661
 H63 H -0.12726 0.22674 -0.18691
 C64 C 0.16102 0.82048 -0.19992
 C65 C 0.16106 0.80059 -0.18005
 C66 C 0.18068 0.80053 -0.16042
 C67 C 0.20055 0.82038 -0.16040
 C68 C 0.20051 0.84001 -0.18001
 C69 C 0.18061 0.84006 -0.19991
 C70 C 0.14451 0.82537 -0.22150
 N71 N 0.15361 0.84745 -0.23460
 C72 C 0.17570 0.85656 -0.22150
 C73 C 0.22208 0.85646 -0.17513
 N74 N 0.23521 0.84729 -0.15304
 C75 C 0.22214 0.82521 -0.14391
 C76 C 0.17583 0.77893 -0.14396
 N77 N 0.15376 0.76594 -0.15315
 C78 C 0.14459 0.77903 -0.17521
 H79 H 0.12718 0.81365 -0.22725
 H80 H 0.18741 0.87388 -0.22725
 H81 H 0.22780 0.87380 -0.18686
 H82 H 0.22792 0.81346 -0.12657
 H83 H 0.18751 0.77306 -0.12661
 H84 H 0.12725 0.77326 -0.18691
 C85 C 0.17826 1.15976 0.80089
 C86 C 0.19813 1.15976 0.82079
 C87 C 0.19816 1.17939 0.84039
 C88 C 0.17830 1.19929 0.84034
 C89 C 0.15869 1.19928 0.82071
 C90 C 0.15867 1.17938 0.80084
 C91 C 0.17345 1.14328 0.77929
 N92 N 0.15140 1.15245 0.76612
 C93 C 0.14223 1.17454 0.77920
 C94 C 0.14227 1.22093 0.82549
 N95 N 0.15146 1.23406 0.84755
 C96 C 0.17351 1.22093 0.85676
 C97 C 0.21978 1.17456 0.85685
 N98 N 0.23282 1.15249 0.84768
 C99 C 0.21973 1.14330 0.82564
 H100 H 0.18520 1.12596 0.77356
 H101 H 0.12493 1.18630 0.77338
 H102 H 0.12497 1.22671 0.81371
 H103 H 0.18528 1.22670 0.87408
 H104 H 0.22565 1.18627 0.87416
 H105 H 0.22556 1.12597 0.81395
 C106 C 0.82173 0.84025 0.80089
 C107 C 0.80186 0.84025 0.82079
 C108 C 0.80184 0.82062 0.84039
 C109 C 0.82169 0.80072 0.84034
 C110 C 0.84130 0.80072 0.82071
 C111 C 0.84132 0.82063 0.80084
 C112 C 0.82655 0.85672 0.77929
 N113 N 0.84859 0.84755 0.76612
 C114 C 0.85776 0.82546 0.77920
 C115 C 0.85772 0.77908 0.82549
 N116 N 0.84853 0.76595 0.84755
 C117 C 0.82649 0.77908 0.85676
 C118 C 0.78021 0.82545 0.85685
 N119 N 0.76717 0.84751 0.84768
 C120 C 0.78026 0.85671 0.82564
 H121 H 0.81479 0.87405 0.77356
 H122 H 0.87506 0.81370 0.77338
 H123 H 0.87503 0.77330 0.81371
 H124 H 0.81472 0.77330 0.87408
 H125 H 0.77434 0.81373 0.87416
 H126 H 0.77444 0.87404 0.81395
 C127 C 0.17862 0.84069 1.19928
 C128 C 0.19848 0.84069 1.17937
 C129 C 0.19850 0.82111 1.15973
 C130 C 0.17866 0.80125 1.15974
 C131 C 0.15906 0.80125 1.17938
 C132 C 0.15904 0.82110 1.19929
 C133 C 0.17380 0.85712 1.22092
 N134 N 0.15176 0.84796 1.23408
 C135 C 0.14260 0.82592 1.22095
 C136 C 0.14266 0.77964 1.17454
 N137 N 0.15188 0.76659 1.15247
 C138 C 0.17388 0.77966 1.14327
 C139 C 0.22011 0.82592 1.14327
 N140 N 0.23315 0.84793 1.15247
 C141 C 0.22007 0.85711 1.17454
 H142 H 0.18554 0.87441 1.22669
 H143 H 0.12532 0.81418 1.22675
 H144 H 0.12537 0.77378 1.18626
 H145 H 0.18560 0.77383 1.12593
 H146 H 0.22597 0.81422 1.12593
 H147 H 0.22590 0.87440 1.18627
 C148 C 0.82138 1.15932 1.19928
 C149 C 0.80152 1.15931 1.17937
 C150 C 0.80149 1.17890 1.15973
 C151 C 0.82133 1.19875 1.15974
 C152 C 0.84094 1.19876 1.17938
 C153 C 0.84096 1.17890 1.19929
 C154 C 0.82620 1.14289 1.22092
 N155 N 0.84823 1.15205 1.23408
 C156 C 0.85739 1.17408 1.22095
 C157 C 0.85733 1.22037 1.17454
 N158 N 0.84812 1.23341 1.15247
 C159 C 0.82611 1.22034 1.14327
 C160 C 0.77989 1.17409 1.14327
 N161 N 0.76684 1.15208 1.15247
 C162 C 0.77992 1.14290 1.17454
 H163 H 0.81445 1.12560 1.22669
 H164 H 0.87468 1.18583 1.22675
 H165 H 0.87463 1.22623 1.18626
 H166 H 0.81439 1.22618 1.12593
 H167 H 0.77402 1.18578 1.12593
 H168 H 0.77409 1.12561 1.18627
 N169 N 0.52813 1.04745 0.97110
 N170 N 0.54852 1.06394 0.96778
 N171 N 0.47175 1.02883 0.95247
 N172 N 0.45127 1.03209 0.93600
 N173 N 0.47172 1.04742 0.97111
 N174 N 0.45123 1.06384 0.96786
 N175 N 0.52816 1.02886 0.95246
 N176 N 0.54858 1.03218 0.93594
 C177 C 0.56104 1.05415 0.94576
 C178 C 0.43872 1.05402 0.94587
 N179 N 0.47187 0.95256 0.97110
 N180 N 0.45148 0.93606 0.96778
 N181 N 0.52825 0.97118 0.95247
 N182 N 0.54872 0.96792 0.93600
 N183 N 0.52827 0.95259 0.97111
 N184 N 0.54876 0.93616 0.96786
 N185 N 0.47183 0.97115 0.95246
 N186 N 0.45142 0.96782 0.93594
 Mn187 Mn 0.50000 1.00000 0.95213
 C188 C 0.43895 0.94585 0.94576
 C189 C 0.56127 0.94599 0.94587
 N190 N 0.47169 1.04742 1.02893
 N191 N 0.45123 1.06388 1.03226
 N192 N 0.52813 1.02885 1.04756
 N193 N 0.54860 1.03211 1.06402
 N194 N 0.52810 1.04744 1.02892
 N195 N 0.54854 1.06387 1.03218
 N196 N 0.47173 1.02882 1.04757
 N197 N 0.45131 1.03211 1.06409
 Mn198 Mn 0.49991 1.04776 1.00002
 C199 C 0.43875 1.05406 1.05428
 C200 C 0.56108 1.05404 1.05417
 N201 N 0.52831 0.95259 1.02893
 N202 N 0.54877 0.93613 1.03226
 N203 N 0.47186 0.97116 1.04756
 N204 N 0.45140 0.96790 1.06402
 N205 N 0.47190 0.95256 1.02892
 N206 N 0.45145 0.93613 1.03218
 N207 N 0.52826 0.97119 1.04757
 N208 N 0.54869 0.96790 1.06409
 Mn209 Mn 0.50009 0.95225 1.00002
 Mn210 Mn 0.50000 1.00000 1.04789
 Cl211 Cl 0.50000 1.00000 1.00001
 C212 C 0.56124 0.94595 1.05428
 C213 C 0.43891 0.94597 1.05417
 N214 N -0.02892 0.47190 -0.04793
 N215 N -0.03227 0.45148 -0.06442
 N216 N -0.04742 0.52832 -0.02928
 N217 N -0.06384 0.54881 -0.03256
 N218 N -0.02881 0.52826 -0.04792
 N219 N -0.03204 0.54871 -0.06440
 N220 N -0.04753 0.47196 -0.02928
 N221 N -0.06405 0.45160 -0.03256
 C222 C -0.05427 0.43906 -0.05457
 C223 C -0.05398 0.56129 -0.05455
 N224 N -0.02882 0.52828 0.04718
 N225 N -0.03210 0.54869 0.06370
 N226 N -0.04752 0.47197 0.02854
 N227 N -0.06397 0.45156 0.03181
 N228 N -0.02890 0.47193 0.04717
 N229 N -0.03216 0.45149 0.06364
 N230 N -0.04743 0.52834 0.02854
 N231 N -0.06389 0.54879 0.03186
 Mn232 Mn -0.04780 0.50015 -0.00037
 C233 C -0.05406 0.56125 0.05388
 C234 C -0.05413 0.43902 0.05380
 N235 N 0.02892 0.52811 -0.04793
 N236 N 0.03227 0.54853 -0.06442
 N237 N 0.04742 0.47169 -0.02928
 N238 N 0.06383 0.45119 -0.03256
 N239 N 0.02881 0.47175 -0.04792
 N240 N 0.03204 0.45130 -0.06440
 N241 N 0.04752 0.52804 -0.02928
 N242 N 0.06404 0.54840 -0.03256
 Mn243 Mn -0.00000 0.50000 -0.04825
 C244 C 0.05426 0.56095 -0.05457
 C245 C 0.05397 0.43872 -0.05455
 N246 N 0.02881 0.47173 0.04718
 N247 N 0.03209 0.45132 0.06370
 N248 N 0.04751 0.52803 0.02854
 N249 N 0.06397 0.54845 0.03181
 N250 N 0.02889 0.52808 0.04717
 N251 N 0.03216 0.54852 0.06364
 N252 N 0.04742 0.47167 0.02854
 N253 N 0.06388 0.45122 0.03185
 Mn254 Mn -0.00000 0.50000 0.04750
 Mn255 Mn 0.04779 0.49986 -0.00037
 Cl256 Cl -0.00000 0.50000 -0.00038
 C257 C 0.05406 0.43876 0.05388
 C258 C 0.05413 0.56098 0.05380
 N259 N 0.95247 0.02881 0.52846
 N260 N 0.93595 0.03211 0.54890
 N261 N 0.97105 0.04741 0.47197
 N262 N 0.96777 0.06385 0.45148
 N263 N 0.95247 0.02882 0.47196
 N264 N 0.93603 0.03208 0.45146
 N265 N 0.97104 0.04742 0.52847
 N266 N 0.96767 0.06390 0.54892
 C267 C 0.94570 0.05408 0.56143
 C268 C 0.94583 0.05403 0.43893
 N269 N 1.04742 0.02886 0.47195
 N270 N 1.06392 0.03217 0.45151
 N271 N 1.02876 0.04745 0.52844
 N272 N 1.03198 0.06390 0.54892
 N273 N 1.04741 0.02887 0.52845
 N274 N 1.06385 0.03217 0.54895
 N275 N 1.02878 0.04745 0.47194
 N276 N 1.03208 0.06392 0.45148
 Mn277 Mn 0.99991 0.04776 0.50020
 C278 C 1.05409 0.05412 0.43897
 C279 C 1.05396 0.05411 0.56147
 N280 N 0.95258 -0.02885 0.47195
 N281 N 0.93608 -0.03216 0.45151
 N282 N 0.97124 -0.04744 0.52844
 N283 N 0.96801 -0.06390 0.54892
 N284 N 0.95259 -0.02887 0.52845
 N285 N 0.93615 -0.03216 0.54895
 N286 N 0.97122 -0.04744 0.47194
 N287 N 0.96791 -0.06392 0.45148
 Mn288 Mn 0.95220 -0.00002 0.50021
 C289 C 0.94591 -0.05412 0.43897
 C290 C 0.94604 -0.05410 0.56147
 N291 N 1.04752 -0.02880 0.52846
 N292 N 1.06404 -0.03210 0.54890
 N293 N 1.02894 -0.04741 0.47197
 N294 N 1.03222 -0.06384 0.45148
 N295 N 1.04752 -0.02881 0.47196
 N296 N 1.06397 -0.03207 0.45146
 N297 N 1.02896 -0.04741 0.52847
 N298 N 1.03233 -0.06390 0.54892
 Mn299 Mn 1.04779 0.00003 0.50021
 Mn300 Mn 1.00009 -0.04775 0.50020
 Cl301 Cl 1.00000 0.00000 0.50021
 C302 C 1.05430 -0.05408 0.56143
 C303 C 1.05416 -0.05402 0.43893
 N304 N 1.14220 0.10852 0.29077
 C305 C 1.12009 0.11960 0.30205
 N306 N 1.10906 0.14166 0.29066
 N307 N 1.11983 0.15234 0.26865
 C308 C 1.14202 0.14134 0.25724
 N309 N 1.15297 0.11919 0.26876
 C310 C 1.10853 0.10816 0.32580
 C311 C 1.09885 0.09857 0.34578
 C312 C 1.08736 0.08718 0.36960
 N313 N 1.06530 0.09831 0.38095
 N314 N 1.05467 0.08777 0.40310
 C315 C 1.06577 0.06575 0.41461
 N316 N 1.08784 0.05463 0.40319
 N317 N 1.09846 0.06517 0.38105
 N318 N 0.85779 -0.10852 0.29077
 C319 C 0.87991 -0.11959 0.30205
 N320 N 0.89093 -0.14166 0.29066
 N321 N 0.88017 -0.15234 0.26865
 C322 C 0.85798 -0.14133 0.25724
 N323 N 0.84702 -0.11919 0.26876
 C324 C 0.89146 -0.10815 0.32580
 C325 C 0.90115 -0.09856 0.34578
 C326 C 0.91264 -0.08717 0.36960
 N327 N 0.93469 -0.09831 0.38095
 N328 N 0.94532 -0.08776 0.40310
 C329 C 0.93423 -0.06574 0.41461
 N330 N 0.91216 -0.05462 0.40319
 N331 N 0.90153 -0.06517 0.38105
 N332 N 0.89040 0.14179 0.70957
 C333 C 0.87943 0.11971 0.69823
 N334 N 0.85733 0.10867 0.70952
 N335 N 0.84653 0.11940 0.73151
 C336 C 0.85744 0.14156 0.74299
 N337 N 0.87962 0.15252 0.73155
 C338 C 0.89101 0.10822 0.67449
 C339 C 0.90073 0.09860 0.65454
 C340 C 0.91228 0.08718 0.63075
 N341 N 0.90126 0.06515 0.61932
 N342 N 0.91193 0.05459 0.59719
 C343 C 0.93397 0.06572 0.58577
 N344 N 0.94497 0.08776 0.59726
 N345 N 0.93430 0.09833 0.61939
 N346 N 1.14266 -0.10867 0.70952
 C347 C 1.12057 -0.11970 0.69823
 N348 N 1.10959 -0.14178 0.70957
 N349 N 1.12038 -0.15252 0.73155
 C350 C 1.14255 -0.14155 0.74299
 N351 N 1.15346 -0.11939 0.73151
 C352 C 1.10898 -0.10821 0.67449
 C353 C 1.09926 -0.09859 0.65454
 C354 C 1.08772 -0.08717 0.63075
 N355 N 1.06570 -0.09832 0.61939
 N356 N 1.05502 -0.08776 0.59726
 C357 C 1.06603 -0.06571 0.58577
 N358 N 1.08807 -0.05458 0.59719
 N359 N 1.09874 -0.06515 0.61932
 N360 N 0.29052 1.14158 1.10927
 C361 C 0.30188 1.11951 1.12032
 N362 N 0.29058 1.10845 1.14244
 N363 N 0.26858 1.11914 1.15319
 C364 C 0.25708 1.14128 1.14221
 N365 N 0.26851 1.15227 1.12002
 C366 C 0.32563 1.10805 1.10878
 C367 C 0.34561 1.09846 1.09910
 C368 C 0.36941 1.08708 1.08760
 N369 N 0.38087 1.06508 1.09870
 N370 N 0.40301 1.05454 1.08806
 C371 C 0.41441 1.06567 1.06598
 N372 N 0.40289 1.08769 1.05489
 N373 N 0.38075 1.09822 1.06554
 N374 N 0.29099 0.89113 0.85777
 C375 C 0.30234 0.88006 0.87987
 N376 N 0.29106 0.85797 0.89090
 N377 N 0.26909 0.84726 0.88016
 C378 C 0.25761 0.85825 0.85798
 N379 N 0.26902 0.88042 0.84701
 C380 C 0.32605 0.89156 0.89140
 C381 C 0.34599 0.90119 0.90106
 C382 C 0.36975 0.91265 0.91252
 N383 N 0.38116 0.90155 0.93459
 N384 N 0.40325 0.91215 0.94520
 C385 C 0.41466 0.93419 0.93408
 N386 N 0.40318 0.94526 0.91200
 N387 N 0.38109 0.93466 0.90139
 N388 N 0.70941 0.89155 1.14244
 C389 C 0.69811 0.88050 1.12032
 N390 N 0.70948 0.85843 1.10927
 N391 N 0.73148 0.84774 1.12002
 C392 C 0.74291 0.85872 1.14221
 N393 N 0.73141 0.88087 1.15319
 C394 C 0.67436 0.89195 1.10878
 C395 C 0.65439 0.90154 1.09910
 C396 C 0.63058 0.91293 1.08760
 N397 N 0.61925 0.90178 1.06554
 N398 N 0.59711 0.91232 1.05489
 C399 C 0.58559 0.93434 1.06598
 N400 N 0.59699 0.94547 1.08807
 N401 N 0.61912 0.93493 1.09870
 N402 N 0.70901 1.10888 0.85777
 C403 C 0.69766 1.11994 0.87987
 N404 N 0.70893 1.14203 0.89090
 N405 N 0.73090 1.15275 0.88016
 C406 C 0.74239 1.14175 0.85798
 N407 N 0.73097 1.11958 0.84701
 C408 C 0.67395 1.10845 0.89140
 C409 C 0.65401 1.09881 0.90106
 C410 C 0.63025 1.08736 0.91252
 N411 N 0.61884 1.09845 0.93459
 N412 N 0.59674 1.08786 0.94520
 C413 C 0.58534 1.06582 0.93408
 N414 N 0.59681 1.05474 0.91200
 N415 N 0.61890 1.06534 0.90139
 N416 N 0.14178 0.29066 0.10866
 C417 C 0.11968 0.30199 0.11972
 N418 N 0.10861 0.29067 0.14182
 N419 N 0.11933 0.26869 0.15256
 C420 C 0.14149 0.25727 0.14155
 N421 N 0.15250 0.26868 0.11939
 C422 C 0.10819 0.32572 0.10821
 C423 C 0.09857 0.34568 0.09856
 C424 C 0.08715 0.36946 0.08710
 N425 N 0.06514 0.38090 0.09824
 N426 N 0.05457 0.40302 0.08764
 C427 C 0.06568 0.41443 0.06555
 N428 N 0.08771 0.40293 0.05443
 N429 N 0.09827 0.38081 0.06503
 N430 N -0.10929 0.29101 -0.14201
 C431 C -0.12032 0.30242 -0.11992
 N432 N -0.14241 0.29119 -0.10881
 N433 N -0.15316 0.26921 -0.11947
 C434 C -0.14217 0.25770 -0.14161
 N435 N -0.12002 0.26903 -0.15268
 C436 C -0.10878 0.32614 -0.10849
 C437 C -0.09910 0.34608 -0.09893
 C438 C -0.08760 0.36985 -0.08756
 N439 N -0.09867 0.38133 -0.06552
 N440 N -0.08802 0.40342 -0.05499
 C441 C -0.06598 0.41476 -0.06618
 N442 N -0.05493 0.40323 -0.08824
 N443 N -0.06557 0.38113 -0.09877
 N444 N 0.14241 0.70882 -0.10881
 C445 C 0.12031 0.69759 -0.11992
 N446 N 0.10928 0.70900 -0.14201
 N447 N 0.12002 0.73098 -0.15268
 C448 C 0.14217 0.74230 -0.14161
 N449 N 0.15315 0.73080 -0.11947
 C450 C 0.10878 0.67387 -0.10849
 C451 C 0.09910 0.65392 -0.09893
 C452 C 0.08760 0.63016 -0.08756
 N453 N 0.06557 0.61888 -0.09877
 N454 N 0.05492 0.59678 -0.08824
 C455 C 0.06597 0.58524 -0.06618
 N456 N 0.08802 0.59658 -0.05499
 N457 N 0.09866 0.61868 -0.06552
 N458 N -0.10862 0.70933 0.14182
 C459 C -0.11969 0.69802 0.11972
 N460 N -0.14179 0.70934 0.10866
 N461 N -0.15251 0.73133 0.11939
 C462 C -0.14149 0.74274 0.14155
 N463 N -0.11933 0.73132 0.15256
 C464 C -0.10820 0.67429 0.10821
 C465 C -0.09857 0.65433 0.09856
 C466 C -0.08715 0.63054 0.08710
 N467 N -0.09828 0.61919 0.06503
 N468 N -0.08771 0.59707 0.05443
 C469 C -0.06569 0.58558 0.06555
 N470 N -0.05457 0.59699 0.08764
 N471 N -0.06514 0.61911 0.09824
 N472 N 1.10777 0.14177 0.71002
 C473 C 1.11888 0.11969 0.69874
 N474 N 1.14091 0.10863 0.71017
 N475 N 1.15153 0.11932 0.73223
 C476 C 1.14050 0.14148 0.74365
 N477 N 1.11838 0.15248 0.73208
 C478 C 1.10751 0.10822 0.67492
 C479 C 1.09801 0.09860 0.65489
 C480 C 1.08672 0.08719 0.63102
 N481 N 1.09797 0.06522 0.61963
 N482 N 1.08751 0.05465 0.59742
 C483 C 1.06548 0.06573 0.58587
 N484 N 1.05426 0.08771 0.59732
 N485 N 1.06471 0.09828 0.61953
 N486 N 0.89223 -0.14176 0.71002
 C487 C 0.88112 -0.11968 0.69874
 N488 N 0.85909 -0.10862 0.71017
 N489 N 0.84846 -0.11932 0.73223
 C490 C 0.85950 -0.14148 0.74365
 N491 N 0.88161 -0.15247 0.73208
 C492 C 0.89248 -0.10822 0.67492
 C493 C 0.90199 -0.09860 0.65489
 C494 C 0.91327 -0.08718 0.63102
 N495 N 0.90203 -0.06521 0.61963
 N496 N 0.91248 -0.05465 0.59742
 C497 C 0.93451 -0.06572 0.58587
 N498 N 0.94574 -0.08771 0.59732
 N499 N 0.93528 -0.09827 0.61953
 N500 N 1.14125 -0.10833 0.29014
 C501 C 1.11922 -0.11938 0.30155
 N502 N 1.10813 -0.14141 0.29021
 N503 N 1.11875 -0.15208 0.26812
 C504 C 1.14086 -0.14110 0.25658
 N505 N 1.15188 -0.11899 0.26805
 C506 C 1.10785 -0.10795 0.32539
 C507 C 1.09833 -0.09836 0.34544
 C508 C 1.08702 -0.08699 0.36934
 N509 N 1.06506 -0.09812 0.38082
 N510 N 1.05457 -0.08759 0.40305
 C511 C 1.06572 -0.06560 0.41451
 N512 N 1.08770 -0.05449 0.40297
 N513 N 1.09818 -0.06502 0.38074
 N514 N 0.85875 0.10834 0.29014
 C515 C 0.88077 0.11938 0.30155
 N516 N 0.89186 0.14141 0.29021
 N517 N 0.88124 0.15209 0.26812
 C518 C 0.85914 0.14111 0.25658
 N519 N 0.84812 0.11900 0.26805
 C520 C 0.89214 0.10795 0.32539
 C521 C 0.90166 0.09837 0.34544
 C522 C 0.91298 0.08700 0.36934
 N523 N 0.93494 0.09812 0.38082
 N524 N 0.94542 0.08760 0.40305
 C525 C 0.93427 0.06561 0.41451
 N526 N 0.91229 0.05450 0.40297
 N527 N 0.90181 0.06503 0.38074
 N528 N 0.10782 0.29012 -0.14193
 C529 C 0.11893 0.30147 -0.11988
 N530 N 0.14097 0.29010 -0.10876
 N531 N 0.15160 0.26803 -0.11940
 C532 C 0.14056 0.25655 -0.14154
 N533 N 0.11844 0.26805 -0.15258
 C534 C 0.10756 0.32529 -0.10847
 C535 C 0.09804 0.34533 -0.09891
 C536 C 0.08675 0.36920 -0.08754
 N537 N 0.09794 0.38057 -0.06552
 N538 N 0.08748 0.40278 -0.05499
 C539 C 0.06550 0.41432 -0.06615
 N540 N 0.05432 0.40289 -0.08819
 N541 N 0.06479 0.38069 -0.09872
 N542 N -0.14098 0.29056 0.10811
 C543 C -0.11896 0.30196 0.11920
 N544 N -0.10782 0.29064 0.14129
 N545 N -0.11838 0.26859 0.15197
 C546 C -0.14045 0.25710 0.14093
 N547 N -0.15154 0.26851 0.11879
 C548 C -0.10766 0.32575 0.10776
 C549 C -0.09818 0.34576 0.09817
 C550 C -0.08691 0.36961 0.08679
 N551 N -0.06493 0.38102 0.09795
 N552 N -0.05447 0.40320 0.08741
 C553 C -0.06567 0.41467 0.06539
 N554 N -0.08767 0.40320 0.05426
 N555 N -0.09812 0.38102 0.06479
 N556 N -0.14098 0.70991 -0.10876
 C557 C -0.11894 0.69853 -0.11988
 N558 N -0.10783 0.70988 -0.14193
 N559 N -0.11845 0.73195 -0.15258
 C560 C -0.14057 0.74346 -0.14154
 N561 N -0.15161 0.73198 -0.11940
 C562 C -0.10757 0.67472 -0.10847
 C563 C -0.09805 0.65468 -0.09891
 C564 C -0.08675 0.63081 -0.08754
 N565 N -0.06479 0.61932 -0.09872
 N566 N -0.05433 0.59712 -0.08819
 C567 C -0.06550 0.58568 -0.06615
 N568 N -0.08748 0.59723 -0.05499
 N569 N -0.09794 0.61944 -0.06552
 N570 N 0.10781 0.70937 0.14129
 C571 C 0.11896 0.69805 0.11920
 N572 N 0.14097 0.70944 0.10811
 N573 N 0.15154 0.73150 0.11879
 C574 C 0.14044 0.74290 0.14093
 N575 N 0.11837 0.73142 0.15197
 C576 C 0.10765 0.67426 0.10776
 C577 C 0.09817 0.65424 0.09817
 C578 C 0.08690 0.63040 0.08679
 N579 N 0.09812 0.61898 0.06479
 N580 N 0.08767 0.59681 0.05426
 C581 C 0.06567 0.58533 0.06539
 N582 N 0.05447 0.59681 0.08741
 N583 N 0.06492 0.61898 0.09795
 N584 N 0.29001 1.10819 0.85877
 C585 C 0.30143 1.11928 0.88080
 N586 N 0.29011 1.14135 0.89191
 N587 N 0.26803 1.15201 0.88129
 C588 C 0.25653 1.14097 0.85919
 N589 N 0.26794 1.11884 0.84814
 C590 C 0.32525 1.10787 0.89218
 C591 C 0.34529 1.09830 0.90170
 C592 C 0.36917 1.08694 0.91301
 N593 N 0.38061 1.09807 0.93503
 N594 N 0.40283 1.08756 0.94551
 C595 C 0.41432 1.06559 0.93431
 N596 N 0.40282 1.05447 0.91227
 N597 N 0.38060 1.06499 0.90179
 N598 N 0.29034 0.89208 1.14139
 C599 C 0.30172 0.88098 1.11932
 N600 N 0.29038 0.85897 1.10819
 N601 N 0.26832 0.84836 1.11883
 C602 C 0.25685 0.85941 1.14096
 N603 N 0.26828 0.88148 1.15203
 C604 C 0.32553 0.89233 1.10793
 C605 C 0.34556 0.90185 1.09838
 C606 C 0.36942 0.91315 1.08705
 N607 N 0.38088 0.90198 1.06505
 N608 N 0.40307 0.91245 1.05455
 C609 C 0.41453 0.93442 1.06573
 N610 N 0.40302 0.94558 1.08775
 N611 N 0.38082 0.93510 1.09825
 N612 N 0.70965 1.10793 1.14139
 C613 C 0.69827 1.11903 1.11932
 N614 N 0.70962 1.14104 1.10819
 N615 N 0.73168 1.15165 1.11883
 C616 C 0.74315 1.14060 1.14096
 N617 N 0.73172 1.11853 1.15203
 C618 C 0.67447 1.10767 1.10793
 C619 C 0.65444 1.09816 1.09838
 C620 C 0.63057 1.08685 1.08705
 N621 N 0.61912 1.09803 1.06505
 N622 N 0.59692 1.08756 1.05455
 C623 C 0.58546 1.06558 1.06573
 N624 N 0.59697 1.05443 1.08775
 N625 N 0.61917 1.06490 1.09825
 N626 N 0.70989 0.85866 0.89191
 C627 C 0.69857 0.88072 0.88080
 N628 N 0.70998 0.89182 0.85877
 N629 N 0.73205 0.88116 0.84814
 C630 C 0.74347 0.85904 0.85919
 N631 N 0.73196 0.84800 0.88129
 C632 C 0.67475 0.89214 0.89218
 C633 C 0.65470 0.90171 0.90170
 C634 C 0.63083 0.91306 0.91301
 N635 N 0.61939 0.93502 0.90179
 N636 N 0.59717 0.94553 0.91227
 C637 C 0.58568 0.93442 0.93431
 N638 N 0.59717 0.91244 0.94551
 N639 N 0.61938 0.90193 0.93503
   
