data_POSCAR
  _audit_creation_date              2014-09-24
  _audit_creation_method            'ToBaCCo'
  _symmetry_space_group_name_H-M    'P1'
  _symmetry_Int_Tables_number       1
  _symmetry_cell_setting            triclinic
  loop_
  _symmetry_equiv_pos_as_xyz
 x,y,z
_cell_length_a 11.1173
_cell_length_b 11.1174
_cell_length_c 21.1162
_cell_angle_alpha 89.745400
_cell_angle_beta 89.836000
_cell_angle_gamma 90.000000
loop_
  _atom_site_label
  _atom_site_type_symbol
  _atom_site_fract_x
  _atom_site_fract_y
  _atom_site_fract_z
O1 O 0.12831 0.41496 0.93937
 O2 O 0.06106 0.63871 1.06247
 O3 O 0.12766 0.41419 1.06287
 O4 O 0.06117 0.63904 0.93933
 O5 O -0.12938 0.58242 0.93945
 O6 O -0.06271 0.35728 1.06285
 O7 O -0.12943 0.58190 1.06289
 O8 O -0.06223 0.35831 0.93959
 Cu9 Cu 0.11373 0.53236 1.00102
 Cu10 Cu -0.11511 0.46427 1.00125
 C11 C 0.04437 0.34885 0.91845
 C12 C -0.04555 0.64838 1.08356
 C13 C 0.04377 0.34741 1.08391
 C14 C -0.04533 0.64884 0.91836
 O15 O 0.58570 0.12948 0.43676
 O16 O 0.36119 0.06261 0.56053
 O17 O 0.58532 0.12976 0.56028
 O18 O 0.36114 0.06288 0.43736
 O19 O 0.41798 -0.12760 0.43753
 O20 O 0.64192 -0.06079 0.56060
 O21 O 0.41783 -0.12793 0.56096
 O22 O 0.64258 -0.06090 0.43738
 Cu23 Cu 0.46770 0.11537 0.49866
 Cu24 Cu 0.53578 -0.11347 0.49911
 C25 C 0.65241 0.04564 0.41599
 C26 C 0.35148 -0.04397 0.58181
 C27 C 0.65147 0.04573 0.58143
 C28 C 0.35143 -0.04367 0.41659
 Si29 Si -0.00123 0.00034 0.25001
 Si30 Si 0.00032 0.00028 0.75001
 N31 N -0.16864 -0.15814 0.20116
 N32 N -0.18105 -0.24616 0.15953
 C33 C -0.07219 -0.26238 0.13254
 C34 C 0.00722 -0.18175 0.15877
 N35 N -0.05636 -0.11871 0.20129
 H36 H 0.10178 -0.16979 0.14805
 N37 N 0.16597 0.15785 0.19901
 N38 N 0.17826 0.24563 0.15679
 C39 C 0.06898 0.26264 0.13060
 C40 C -0.01063 0.18265 0.15802
 N41 N 0.05340 0.11930 0.20034
 H42 H -0.10548 0.17118 0.14820
 N43 N 0.15861 -0.16699 0.70051
 N44 N 0.24629 -0.17943 0.65836
 C45 C 0.26250 -0.07052 0.63127
 C46 C 0.18229 0.00899 0.65802
 N47 N 0.11947 -0.05462 0.70090
 H48 H 0.17037 0.10358 0.64734
 N49 N -0.15712 0.16807 0.69986
 N50 N -0.24417 0.18082 0.65758
 C51 C -0.26004 0.07209 0.63079
 C52 C -0.18027 -0.00763 0.65786
 N53 N -0.11806 0.05567 0.70063
 H54 H -0.16830 -0.10218 0.64749
 N55 N -0.16753 -0.15795 0.79988
 N56 N -0.18032 -0.24573 0.84206
 C57 C -0.07162 -0.26200 0.86897
 C58 C 0.00810 -0.18173 0.84209
 N59 N -0.05516 -0.11882 0.79929
 H60 H 0.10262 -0.16987 0.85259
 N61 N 0.16752 0.15778 0.79981
 N62 N 0.17993 0.24474 0.84204
 C63 C 0.07099 0.26054 0.86901
 C64 C -0.00852 0.18084 0.84209
 N65 N 0.05513 0.11872 0.79922
 H66 H -0.10314 0.16879 0.85263
 N67 N -0.15836 0.16780 0.30040
 N68 N -0.24597 0.18015 0.34260
 C69 C -0.26294 0.07088 0.36922
 C70 C -0.18307 -0.00876 0.34211
 N71 N -0.11986 0.05521 0.29952
 H72 H -0.17164 -0.10363 0.35229
 N73 N 0.15758 -0.16682 0.29951
 N74 N 0.24576 -0.17917 0.34117
 C75 C 0.26207 -0.07028 0.36770
 C76 C 0.18134 0.00911 0.34114
 N77 N 0.11815 -0.05455 0.29891
 H78 H 0.16938 0.10367 0.35148
   
