data_POSCAR
  _audit_creation_date              2014-09-24
  _audit_creation_method            'ToBaCCo'
  _symmetry_space_group_name_H-M    'P1'
  _symmetry_Int_Tables_number       1
  _symmetry_cell_setting            triclinic
  loop_
  _symmetry_equiv_pos_as_xyz
 x,y,z
_cell_length_a 50.5641
_cell_length_b 50.5664
_cell_length_c 50.5003
_cell_angle_alpha 90.208300
_cell_angle_beta 90.283200
_cell_angle_gamma 90.280100
loop_
  _atom_site_label
  _atom_site_type_symbol
  _atom_site_fract_x
  _atom_site_fract_y
  _atom_site_fract_z
C1 C 0.72510 0.66860 0.96820
 H2 H 0.74419 0.66877 0.95863
 C3 C 0.70400 0.68261 0.95715
 H4 H 0.70686 0.69376 0.93910
 C5 C 0.69749 0.65265 1.00253
 H6 H 0.69473 0.64030 1.01969
 C7 C 0.67594 0.66636 0.99216
 H8 H 0.65679 0.66473 1.00157
 N9 N 0.72147 0.65388 0.99041
 C10 C 0.79904 0.63761 1.02476
 H11 H 0.79695 0.61642 1.02686
 C12 C 0.82210 0.65021 1.03341
 H13 H 0.83785 0.63872 1.04226
 C14 C 0.78101 0.67849 1.01070
 H15 H 0.76486 0.68939 1.00198
 C16 C 0.80384 0.69192 1.01914
 H17 H 0.80529 0.71317 1.01683
 Zn18 Zn 0.74938 0.63190 1.00213
 N19 N 0.77922 0.65176 1.01337
 C20 C 0.78386 0.61089 0.96361
 N21 N 0.75878 0.60995 0.97324
 C22 C 0.73967 0.59508 0.96116
 C23 C 0.74555 0.58031 0.93848
 C24 C 0.79056 0.59643 0.94108
 C25 C 0.73340 0.62549 1.05419
 C26 C 0.72454 0.61246 1.07677
 C27 C 0.72633 0.57111 1.05260
 C28 C 0.73521 0.58499 1.03041
 N29 N 0.73814 0.61175 1.03151
 H30 H 0.79861 0.62334 0.97294
 H31 H 0.71975 0.59513 0.96889
 H32 H 0.73019 0.56878 0.92877
 H33 H 0.81050 0.59759 0.93340
 H34 H 0.73620 0.64672 1.05455
 H35 H 0.72045 0.62376 1.09457
 H36 H 0.72368 0.54985 1.05142
 H37 H 0.73955 0.57441 1.01234
 C38 C 0.82460 0.67757 1.03047
 C39 C 0.67914 0.68122 0.96912
 C40 C 0.72078 0.58503 1.07595
 C41 C 0.77122 0.58114 0.92832
 C42 C 0.72927 0.33694 0.52348
 H43 H 0.74836 0.33595 0.53319
 C44 C 0.70786 0.32259 0.53350
 H45 H 0.71046 0.31037 0.55088
 C46 C 0.70206 0.35515 0.48984
 H47 H 0.69960 0.36846 0.47336
 C48 C 0.68019 0.34114 0.49919
 H49 H 0.66110 0.34352 0.48968
 N50 N 0.72600 0.35290 0.50208
 C51 C 0.80424 0.36886 0.46949
 H52 H 0.80319 0.39021 0.46877
 C53 C 0.82658 0.35593 0.45999
 H54 H 0.84283 0.36733 0.45192
 C55 C 0.78419 0.32789 0.48062
 H56 H 0.76749 0.31708 0.48842
 C57 C 0.80623 0.31413 0.47128
 H58 H 0.80654 0.29273 0.47201
 Zn59 Zn 0.75458 0.37483 0.49165
 N60 N 0.78374 0.35480 0.47977
 C61 C 0.78953 0.39376 0.53148
 N62 N 0.76451 0.39536 0.52156
 C63 C 0.74570 0.41010 0.53383
 C64 C 0.75185 0.42417 0.55696
 C65 C 0.79649 0.40751 0.55450
 C66 C 0.73867 0.38389 0.43982
 C67 C 0.73000 0.39812 0.41786
 C68 C 0.73320 0.43826 0.44386
 C69 C 0.74186 0.42324 0.46540
 N70 N 0.74396 0.39649 0.46311
 H71 H 0.80402 0.38141 0.52194
 H72 H 0.72582 0.41059 0.52583
 H73 H 0.73674 0.43568 0.56676
 H74 H 0.81639 0.40592 0.56238
 H75 H 0.74080 0.36264 0.43851
 H76 H 0.72535 0.38783 0.39956
 H77 H 0.73108 0.45948 0.44589
 H78 H 0.74664 0.43293 0.48392
 C79 C 0.82763 0.32834 0.46094
 C80 C 0.68305 0.32493 0.52136
 C81 C 0.72702 0.42550 0.41996
 C82 C 0.77748 0.42276 0.56740
 C83 C 0.22913 -0.16257 0.02323
 H84 H 0.24823 -0.16353 0.03292
 C85 C 0.20774 -0.17692 0.03330
 H86 H 0.21037 -0.18911 0.05070
 C87 C 0.20187 -0.14443 -0.01041
 H88 H 0.19938 -0.13117 -0.02692
 C89 C 0.18003 -0.15845 -0.00101
 H90 H 0.16092 -0.15611 -0.01051
 N91 N 0.22583 -0.14665 0.00180
 C92 C 0.30396 -0.13076 -0.03106
 H93 H 0.30289 -0.10942 -0.03187
 C94 C 0.32629 -0.14370 -0.04056
 H95 H 0.34251 -0.13232 -0.04871
 C96 C 0.28399 -0.17171 -0.01969
 H97 H 0.26733 -0.18250 -0.01179
 C98 C 0.30603 -0.18547 -0.02903
 H99 H 0.30638 -0.20687 -0.02819
 Zn100 Zn 0.25438 -0.12475 -0.00875
 N101 N 0.28351 -0.14480 -0.02066
 C102 C 0.28946 -0.10575 0.03092
 N103 N 0.26441 -0.10414 0.02108
 C104 C 0.24566 -0.08936 0.03339
 C105 C 0.25191 -0.07525 0.05648
 C106 C 0.29652 -0.09196 0.05388
 C107 C 0.23839 -0.11586 -0.06056
 C108 C 0.22962 -0.10174 -0.08256
 C109 C 0.23273 -0.06148 -0.05667
 C110 C 0.24149 -0.07643 -0.03511
 N111 N 0.24368 -0.10317 -0.03733
 H112 H 0.30390 -0.11813 0.02135
 H113 H 0.22575 -0.08887 0.02547
 H114 H 0.23684 -0.06371 0.06632
 H115 H 0.31644 -0.09356 0.06170
 H116 H 0.24060 -0.13710 -0.06181
 H117 H 0.22501 -0.11223 -0.10079
 H118 H 0.23059 -0.04026 -0.05457
 H119 H 0.24627 -0.06668 -0.01662
 C120 C 0.32738 -0.17128 -0.03948
 C121 C 0.18292 -0.17463 0.02117
 C122 C 0.22653 -0.07432 -0.08055
 C123 C 0.27757 -0.07668 0.06683
 C124 C 0.22552 0.16856 0.46759
 H125 H 0.24462 0.16884 0.45804
 C126 C 0.20438 0.18254 0.45657
 H127 H 0.20723 0.19377 0.43858
 C128 C 0.19792 0.15236 0.50181
 H129 H 0.19518 0.13993 0.51892
 C130 C 0.17633 0.16604 0.49148
 H131 H 0.15718 0.16430 0.50086
 N132 N 0.22191 0.15373 0.48974
 C133 C 0.29949 0.13754 0.52410
 H134 H 0.29744 0.11633 0.52610
 C135 C 0.32250 0.15014 0.53286
 H136 H 0.33825 0.13864 0.54169
 C137 C 0.28140 0.17844 0.51019
 H138 H 0.26524 0.18934 0.50149
 C139 C 0.30418 0.19188 0.51874
 H140 H 0.30559 0.21314 0.51654
 Zn141 Zn 0.24988 0.13180 0.50141
 N142 N 0.27966 0.15168 0.51274
 C143 C 0.28445 0.11102 0.46284
 N144 N 0.25937 0.10995 0.47246
 C145 C 0.24032 0.09502 0.46036
 C146 C 0.24627 0.08030 0.43766
 C147 C 0.29121 0.09661 0.44030
 C148 C 0.23388 0.12520 0.55343
 C149 C 0.22511 0.11205 0.57599
 C150 C 0.22709 0.07080 0.55175
 C151 C 0.23588 0.08475 0.52957
 N152 N 0.23869 0.11153 0.53072
 H153 H 0.29914 0.12352 0.47219
 H154 H 0.22040 0.09497 0.46808
 H155 H 0.23097 0.06871 0.42793
 H156 H 0.31115 0.09786 0.43262
 H157 H 0.23658 0.14644 0.55385
 H158 H 0.22095 0.12317 0.59386
 H159 H 0.22450 0.04955 0.55065
 H160 H 0.24026 0.07422 0.51149
 C161 C 0.32494 0.17752 0.53005
 C162 C 0.17951 0.18101 0.46850
 C163 C 0.22151 0.08465 0.57509
 C164 C 0.27195 0.08125 0.42751
 C165 C 0.16947 0.46748 0.22549
 H166 H 0.16968 0.45799 0.24465
 C167 C 0.18345 0.45639 0.20440
 H168 H 0.19463 0.43840 0.20734
 C169 C 0.15340 0.50159 0.19768
 H170 H 0.14101 0.51867 0.19483
 C171 C 0.16709 0.49118 0.17613
 H172 H 0.16540 0.50048 0.15690
 N173 N 0.15469 0.48959 0.22175
 C174 C 0.13825 0.52396 0.29928
 H175 H 0.11705 0.52591 0.29716
 C176 C 0.15078 0.53279 0.32233
 H177 H 0.13923 0.54160 0.33804
 C178 C 0.17922 0.51016 0.28132
 H179 H 0.19018 0.50148 0.26519
 C180 C 0.19259 0.51877 0.30414
 H181 H 0.21385 0.51664 0.30561
 Zn182 Zn 0.13268 0.50128 0.24964
 N183 N 0.15247 0.51264 0.27950
 C184 C 0.11173 0.46277 0.28424
 N185 N 0.11078 0.47237 0.25911
 C186 C 0.09592 0.46028 0.23999
 C187 C 0.08115 0.43762 0.24591
 C188 C 0.09727 0.44025 0.29098
 C189 C 0.12615 0.55321 0.23344
 C190 C 0.11301 0.57572 0.22463
 C191 C 0.07174 0.55150 0.22670
 C192 C 0.08568 0.52936 0.23551
 N193 N 0.11246 0.53053 0.23831
 H194 H 0.12418 0.47211 0.29900
 H195 H 0.09596 0.46799 0.22004
 H196 H 0.06962 0.42790 0.23055
 H197 H 0.09842 0.43258 0.31096
 H198 H 0.14739 0.55363 0.23613
 H199 H 0.12414 0.59357 0.22043
 H200 H 0.05048 0.55040 0.22414
 H201 H 0.07514 0.51130 0.23995
 C202 C 0.17816 0.53007 0.32486
 C203 C 0.18198 0.46822 0.17943
 C204 C 0.08560 0.57482 0.22107
 C205 C 0.08198 0.42748 0.27164
 C206 C -0.16385 0.02407 0.22833
 H207 H -0.16489 0.03373 0.24745
 C208 C -0.17811 0.03413 0.20685
 H209 H -0.19031 0.05149 0.20949
 C210 C -0.14557 -0.00947 0.20114
 H211 H -0.13228 -0.02592 0.19872
 C212 C -0.15948 -0.00009 0.17919
 H213 H -0.15700 -0.00961 0.16010
 N214 N -0.14789 0.00271 0.22511
 C215 C -0.13198 -0.02997 0.30344
 H216 H -0.11063 -0.03069 0.30234
 C217 C -0.14487 -0.03949 0.32582
 H218 H -0.13345 -0.04758 0.34206
 C219 C -0.17297 -0.01878 0.28345
 H220 H -0.18380 -0.01094 0.26676
 C221 C -0.18670 -0.02815 0.30555
 H222 H -0.20810 -0.02740 0.30592
 Zn223 Zn -0.12602 -0.00773 0.25376
 N224 N -0.14607 -0.01965 0.28295
 C225 C -0.10708 0.03196 0.28880
 N226 N -0.10546 0.02211 0.26374
 C227 C -0.09064 0.03438 0.24495
 C228 C -0.07647 0.05742 0.25118
 C229 C -0.09324 0.05488 0.29583
 C230 C -0.11700 -0.05947 0.23785
 C231 C -0.10277 -0.08140 0.22924
 C232 C -0.06260 -0.05546 0.23256
 C233 C -0.07761 -0.03394 0.24116
 N234 N -0.10437 -0.03622 0.24317
 H235 H -0.11949 0.02243 0.30327
 H236 H -0.09013 0.02644 0.22504
 H237 H -0.06488 0.06721 0.23609
 H238 H -0.09483 0.06270 0.31576
 H239 H -0.13825 -0.06078 0.23992
 H240 H -0.11306 -0.09969 0.22458
 H241 H -0.04137 -0.05344 0.23053
 H242 H -0.06791 -0.01545 0.24596
 C243 C -0.17246 -0.03852 0.32694
 C244 C -0.17569 0.02206 0.18198
 C245 C -0.07537 -0.07932 0.22637
 C246 C -0.07788 0.06777 0.27685
 C247 C 0.33654 0.52380 0.72950
 H248 H 0.33555 0.53340 0.74864
 C249 C 0.32221 0.53390 0.70809
 H250 H 0.31001 0.55125 0.71074
 C251 C 0.35473 0.49033 0.70216
 H252 H 0.36802 0.47388 0.69965
 C253 C 0.34074 0.49976 0.68029
 H254 H 0.34312 0.49035 0.66114
 N255 N 0.35248 0.50244 0.72617
 C256 C 0.36844 0.46961 0.80442
 H257 H 0.38980 0.46895 0.80338
 C258 C 0.35552 0.45995 0.82673
 H259 H 0.36692 0.45184 0.84297
 C260 C 0.32746 0.48070 0.78435
 H261 H 0.31665 0.48853 0.76765
 C262 C 0.31371 0.47120 0.80637
 H263 H 0.29230 0.47185 0.80666
 Zn264 Zn 0.37440 0.49192 0.75475
 N265 N 0.35438 0.47993 0.78392
 C266 C 0.39343 0.53158 0.78981
 N267 N 0.39498 0.52174 0.76474
 C268 C 0.40973 0.53405 0.74592
 C269 C 0.42386 0.55712 0.75210
 C270 C 0.40724 0.55453 0.79681
 C271 C 0.38338 0.44022 0.73868
 C272 C 0.39758 0.41831 0.72998
 C273 C 0.43777 0.44424 0.73328
 C274 C 0.42278 0.46573 0.74197
 N275 N 0.39603 0.46345 0.74404
 H276 H 0.38107 0.52201 0.80431
 H277 H 0.41018 0.52612 0.72600
 H278 H 0.43537 0.56694 0.73698
 H279 H 0.40569 0.56235 0.81674
 H280 H 0.36213 0.43892 0.74080
 H281 H 0.38727 0.40005 0.72528
 H282 H 0.45899 0.44626 0.73119
 H283 H 0.43250 0.48420 0.74681
 C284 C 0.32793 0.46080 0.82776
 C285 C 0.32455 0.52188 0.68321
 C286 C 0.42498 0.42040 0.72704
 C287 C 0.42250 0.56746 0.77778
 C288 C 0.67004 0.96804 0.72608
 H289 H 0.67033 0.95846 0.74520
 C290 C 0.68397 0.95707 0.70488
 H291 H 0.69518 0.93909 0.70770
 C292 C 0.65381 1.00225 0.69849
 H293 H 0.64138 1.01933 0.69577
 C294 C 0.66745 0.99198 0.67685
 H295 H 0.66567 1.00137 0.65767
 N296 N 0.65520 0.99014 0.72250
 C297 C 0.63878 1.02411 0.80023
 H298 H 0.61757 1.02601 0.79815
 C299 C 0.65131 1.03288 0.82331
 H300 H 0.63968 1.04160 0.83904
 C301 C 0.67977 1.01050 0.78216
 H302 H 0.69072 1.00192 0.76597
 C303 C 0.69315 1.01906 0.80499
 H304 H 0.71443 1.01696 0.80636
 Zn305 Zn 0.63321 1.00164 0.75049
 N306 N 0.65301 1.01291 0.78038
 C307 C 0.61234 0.96293 0.78494
 N308 N 0.61138 0.97263 0.75985
 C309 C 0.59654 0.96060 0.74068
 C310 C 0.58179 0.93790 0.74650
 C311 C 0.59790 0.94037 0.79158
 C312 C 0.62651 1.05363 0.73453
 C313 C 0.61331 1.07611 0.72572
 C314 C 0.57213 1.05173 0.72762
 C315 C 0.58613 1.02963 0.73644
 N316 N 0.61290 1.03088 0.73930
 H317 H 0.62477 0.97223 0.79973
 H318 H 0.59657 0.96839 0.72075
 H319 H 0.57027 0.92823 0.73111
 H320 H 0.59905 0.93263 0.81153
 H321 H 0.64774 1.05413 0.73727
 H322 H 0.62439 1.09401 0.72157
 H323 H 0.55088 1.05054 0.72498
 H324 H 0.57564 1.01152 0.74080
 C325 C 0.67872 1.03024 0.82580
 C326 C 0.68239 0.96902 0.67998
 C327 C 0.58592 1.07510 0.72206
 C328 C 0.58262 0.92766 0.77219
 C329 C 0.02316 0.22861 -0.16257
 H330 H 0.03280 0.24773 -0.16347
 C331 C 0.03330 0.20726 -0.17691
 H332 H 0.05071 0.20995 -0.18903
 C333 C -0.01043 0.20124 -0.14456
 H334 H -0.02694 0.19869 -0.13134
 C335 C -0.00096 0.17944 -0.15856
 H336 H -0.01040 0.16031 -0.15626
 N337 N 0.00172 0.22523 -0.14671
 C338 C -0.03114 0.30329 -0.13064
 H339 H -0.03193 0.30212 -0.10927
 C340 C -0.04064 0.32566 -0.14354
 H341 H -0.04880 0.34183 -0.13211
 C342 C -0.01979 0.28349 -0.17168
 H343 H -0.01189 0.26688 -0.18253
 C344 C -0.02913 0.30558 -0.18541
 H345 H -0.02831 0.30601 -0.20684
 Zn346 Zn -0.00885 0.25368 -0.12473
 N347 N -0.02074 0.28290 -0.14475
 C348 C 0.03078 0.28867 -0.10553
 N349 N 0.02092 0.26362 -0.10401
 C350 C 0.03322 0.24479 -0.08927
 C351 C 0.05630 0.25094 -0.07513
 C352 C 0.05374 0.29563 -0.09171
 C353 C -0.06060 0.23763 -0.11597
 C354 C -0.08259 0.22885 -0.10189
 C355 C -0.05677 0.23187 -0.06152
 C356 C -0.03521 0.24064 -0.07643
 N357 N -0.03741 0.24289 -0.10321
 H358 H 0.02123 0.30318 -0.11789
 H359 H 0.02528 0.22489 -0.08884
 H360 H 0.06613 0.23582 -0.06363
 H361 H 0.06158 0.31555 -0.09326
 H362 H -0.06182 0.23989 -0.13724
 H363 H -0.10079 0.22427 -0.11243
 H364 H -0.05470 0.22969 -0.04026
 H365 H -0.01676 0.24540 -0.06662
 C366 C -0.03958 0.32686 -0.17116
 C367 C 0.02124 0.18241 -0.17466
 C368 C -0.08062 0.22571 -0.07444
 C369 C 0.06668 0.27660 -0.07648
 C370 C 0.46835 0.22543 0.16909
 H371 H 0.45876 0.24451 0.16929
 C372 C 0.45738 0.20429 0.18313
 H373 H 0.43938 0.20711 0.19432
 C374 C 0.50259 0.19788 0.15301
 H375 H 0.51968 0.19515 0.14060
 C376 C 0.49231 0.17629 0.16675
 H377 H 0.50171 0.15715 0.16507
 N378 N 0.49047 0.22184 0.15428
 C379 C 0.52446 0.29948 0.13760
 H380 H 0.52641 0.29735 0.11637
 C381 C 0.53315 0.32259 0.15008
 H382 H 0.54187 0.33832 0.13846
 C383 C 0.51075 0.28152 0.17867
 H384 H 0.50216 0.26537 0.18969
 C385 C 0.51924 0.30439 0.19199
 H386 H 0.51709 0.30589 0.21328
 Zn387 Zn 0.50198 0.24976 0.13216
 N388 N 0.51324 0.27967 0.15189
 C389 C 0.46327 0.28408 0.11118
 N390 N 0.47297 0.25903 0.11028
 C391 C 0.46091 0.23985 0.09550
 C392 C 0.43816 0.24562 0.08078
 C393 C 0.44067 0.29066 0.09678
 C394 C 0.55398 0.23389 0.12555
 C395 C 0.57649 0.22514 0.11238
 C396 C 0.55214 0.22691 0.07111
 C397 C 0.53001 0.23568 0.08509
 N398 N 0.53124 0.23858 0.11188
 H399 H 0.47259 0.29888 0.12357
 H400 H 0.46870 0.21996 0.09557
 H401 H 0.42845 0.23020 0.06932
 H402 H 0.43292 0.31057 0.09790
 H403 H 0.55446 0.23666 0.14680
 H404 H 0.59439 0.22106 0.12350
 H405 H 0.55098 0.22424 0.04984
 H406 H 0.51190 0.23997 0.07455
 C407 C 0.53042 0.32514 0.17748
 C408 C 0.46933 0.17943 0.18168
 C409 C 0.57551 0.22144 0.08496
 C410 C 0.42791 0.27125 0.08158
 C411 C 0.96722 0.72527 0.66980
 H412 H 0.95769 0.74438 0.67010
 C413 C 0.95624 0.70411 0.68379
 H414 H 0.93829 0.70694 0.69506
 C415 C 1.00134 0.69770 0.65351
 H416 H 1.01839 0.69497 0.64105
 C417 C 0.99105 0.67608 0.66721
 H418 H 1.00040 0.65693 0.66543
 N419 N 0.98930 0.72169 0.65492
 C420 C 1.02353 0.79931 0.63868
 H421 H 1.02545 0.79730 0.61744
 C422 C 1.03234 0.82229 0.65130
 H423 H 1.04112 0.83806 0.63977
 C424 C 1.00981 0.78113 0.67966
 H425 H 1.00117 0.76495 0.69059
 C426 C 1.01841 0.80388 0.69311
 H427 H 1.01631 0.80525 0.71441
 Zn428 Zn 1.00090 0.74969 0.63296
 N429 N 1.01225 0.77945 0.65286
 C430 C 0.96232 0.78427 0.61215
 N431 N 0.97194 0.75919 0.61110
 C432 C 0.95987 0.74016 0.59613
 C433 C 0.93721 0.74612 0.58134
 C434 C 0.93981 0.79104 0.59768
 C435 C 1.05284 0.73370 0.62629
 C436 C 1.07535 0.72500 0.61308
 C437 C 1.05106 0.72715 0.57180
 C438 C 1.02893 0.73586 0.58581
 N439 N 1.03013 0.73855 0.61263
 H440 H 0.97164 0.79895 0.62468
 H441 H 0.96759 0.72024 0.59608
 H442 H 0.92751 0.73083 0.56971
 H443 H 0.93214 0.81097 0.59890
 H444 H 1.05330 0.73631 0.64756
 H445 H 1.09322 0.72080 0.62419
 H446 H 1.04993 0.72466 0.55051
 H447 H 1.01085 0.74028 0.57529
 C448 C 1.02966 0.82467 0.67872
 C449 C 0.96813 0.67924 0.68222
 C450 C 1.07440 0.72152 0.58563
 C451 C 0.92707 0.77179 0.58226
 C452 C 0.52361 0.73001 0.33576
 H453 H 0.53328 0.74911 0.33474
 C454 C 0.53363 0.70861 0.32142
 H455 H 0.55098 0.71123 0.30918
 C456 C 0.49008 0.70276 0.35403
 H457 H 0.47365 0.70027 0.36736
 C458 C 0.49943 0.68090 0.34003
 H459 H 0.48997 0.66180 0.34244
 N460 N 0.50227 0.72671 0.35175
 C461 C 0.46966 0.80488 0.36782
 H462 H 0.46897 0.80375 0.38919
 C463 C 0.46010 0.82725 0.35494
 H464 H 0.45204 0.84342 0.36647
 C465 C 0.48075 0.78500 0.32675
 H466 H 0.48856 0.76835 0.31589
 C467 C 0.47135 0.80707 0.31302
 H468 H 0.47207 0.80740 0.29158
 Zn469 Zn 0.49185 0.75525 0.37371
 N470 N 0.47994 0.78446 0.35369
 C471 C 0.53159 0.79020 0.39276
 N472 N 0.52170 0.76517 0.39431
 C473 C 0.53395 0.74635 0.40911
 C474 C 0.55699 0.75251 0.42332
 C475 C 0.55451 0.79717 0.40665
 C476 C 0.44010 0.73928 0.38274
 C477 C 0.41817 0.73063 0.39698
 C478 C 0.44414 0.73386 0.43720
 C479 C 0.46565 0.74251 0.42217
 N480 N 0.46336 0.74459 0.39538
 H481 H 0.52207 0.80469 0.38036
 H482 H 0.52598 0.72646 0.40957
 H483 H 0.56676 0.73740 0.43490
 H484 H 0.56236 0.81708 0.40511
 H485 H 0.43878 0.74141 0.36146
 H486 H 0.39988 0.72598 0.38668
 H487 H 0.44617 0.73178 0.45845
 H488 H 0.48414 0.74730 0.43188
 C489 C 0.46099 0.82842 0.32730
 C490 C 0.52155 0.68378 0.32379
 C491 C 0.42027 0.72768 0.42442
 C492 C 0.56737 0.77816 0.42198
 C493 C 0.36318 0.00279 0.24938
 C494 C 0.12320 1.00656 0.75101
 C495 C 0.62299 0.50769 0.24936
 C496 C 0.86225 0.50254 0.75020
 C497 C 0.24939 0.36147 0.00305
 C498 C 0.75085 0.12293 1.00659
 C499 C 0.25003 0.62377 0.50700
 C500 C 0.74943 0.86312 0.50293
 C501 C 0.00295 0.24944 0.36261
 C502 C 1.00699 0.75034 0.12273
 C503 C 0.50708 0.25014 0.62301
 C504 C 0.50294 0.74970 0.86269
 C505 C 0.45142 -0.14987 0.31463
 C506 C 0.44255 -0.13036 0.30426
 C507 C 0.43138 -0.10684 0.29287
 C508 C 0.41392 -0.10873 0.27132
 C509 C 0.40156 -0.08604 0.26158
 C510 C 0.40660 -0.06137 0.27335
 C511 C 0.42442 -0.05942 0.29460
 C512 C 0.43679 -0.08210 0.30434
 C513 C 0.39235 -0.03842 0.26461
 C514 C 0.37964 -0.01954 0.25761
 H515 H 0.40947 -0.12777 0.26241
 H516 H 0.38769 -0.08780 0.24524
 H517 H 0.42835 -0.04048 0.30396
 H518 H 0.45013 -0.08044 0.32112
 C519 C 0.95038 0.34984 0.81547
 C520 C 0.94154 0.36939 0.80516
 C521 C 0.93040 0.39294 0.79383
 C522 C 0.93543 0.41760 0.80563
 C523 C 0.92309 0.44030 0.79589
 C524 C 0.90568 0.43844 0.77430
 C525 C 0.90102 0.41386 0.76219
 C526 C 0.91335 0.39116 0.77194
 C527 C 0.89143 0.46139 0.76552
 C528 C 0.87872 0.48025 0.75848
 H529 H 0.94846 0.41919 0.82267
 H530 H 0.92672 0.45917 0.80550
 H531 H 0.88746 0.41218 0.74558
 H532 H 0.90919 0.37218 0.76276
 C533 C 0.03258 1.15959 0.81271
 C534 C 0.04226 1.14010 0.80301
 C535 C 0.05414 1.11658 0.79234
 C536 C 0.04769 1.09180 0.80293
 C537 C 0.06039 1.06905 0.79376
 C538 C 0.07959 1.07098 0.77395
 C539 C 0.08576 1.09570 0.76308
 C540 C 0.07307 1.11846 0.77226
 C541 C 0.09392 1.04788 0.76568
 C542 C 0.10668 1.02892 0.75898
 H543 H 0.03318 1.09013 0.81855
 H544 H 0.05557 1.05005 0.80239
 H545 H 0.10068 1.09744 0.74786
 H546 H 0.07831 1.13752 0.76403
 C547 C 0.53276 0.66090 0.31116
 C548 C 0.54234 0.64137 0.30145
 C549 C 0.55411 0.61779 0.29077
 C550 C 0.57269 0.61956 0.27036
 C551 C 0.58530 0.59676 0.26116
 C552 C 0.57939 0.57211 0.27234
 C553 C 0.56052 0.57029 0.29247
 C554 C 0.54791 0.59308 0.30166
 C555 C 0.59368 0.54899 0.26405
 C556 C 0.60643 0.53003 0.25734
 H557 H 0.57774 0.63856 0.26188
 H558 H 0.59997 0.59841 0.24568
 H559 H 0.55591 0.55136 0.30135
 H560 H 0.53366 0.59151 0.31754
 C561 C 0.53930 0.34906 0.19032
 C562 C 0.54720 0.36946 0.20002
 C563 C 0.55727 0.39406 0.21047
 C564 C 0.57360 0.39423 0.23296
 C565 C 0.58513 0.41791 0.24175
 C566 C 0.58040 0.44151 0.22809
 C567 C 0.56365 0.44143 0.20591
 C568 C 0.55211 0.41776 0.19713
 C569 C 0.59412 0.46534 0.23580
 C570 C 0.60658 0.48482 0.24199
 H571 H 0.57787 0.37601 0.24333
 H572 H 0.59820 0.41771 0.25882
 H573 H 0.56001 0.45952 0.19509
 H574 H 0.53966 0.41783 0.17961
 C575 C 0.03870 0.84846 0.69171
 C576 C 0.04673 0.86876 0.70151
 C577 C 0.05697 0.89325 0.71207
 C578 C 0.07382 0.89315 0.73417
 C579 C 0.08550 0.91673 0.74301
 C580 C 0.08039 0.94050 0.72979
 C581 C 0.06312 0.94069 0.70802
 C582 C 0.05143 0.91711 0.69918
 C583 C 0.09423 0.96427 0.73750
 C584 C 0.10675 0.98372 0.74368
 H585 H 0.07839 0.87480 0.74417
 H586 H 0.09897 0.91634 0.75976
 H587 H 0.05918 0.95891 0.69753
 H588 H 0.03857 0.91738 0.68196
 C589 C 0.95593 0.65652 0.69427
 C590 C 0.94557 0.63709 0.70341
 C591 C 0.93296 0.61356 0.71334
 C592 C 0.94139 0.58863 0.70469
 C593 C 0.92814 0.56579 0.71298
 C594 C 0.90641 0.56778 0.72996
 C595 C 0.89823 0.59269 0.73891
 C596 C 0.91147 0.61553 0.73061
 C597 C 0.89178 0.54447 0.73730
 C598 C 0.87886 0.52528 0.74320
 H599 H 0.95790 0.58689 0.69122
 H600 H 0.93457 0.54665 0.70585
 H601 H 0.88137 0.59446 0.75195
 H602 H 0.90469 0.63471 0.73731
 C603 C 0.45711 0.15673 0.19371
 C604 C 0.44673 0.13729 0.20283
 C605 C 0.43408 0.11377 0.21272
 C606 C 0.41253 0.11575 0.22993
 C607 C 0.39925 0.09291 0.23818
 C608 C 0.40744 0.06800 0.22924
 C609 C 0.42922 0.06600 0.21233
 C610 C 0.44251 0.08884 0.20409
 C611 C 0.39277 0.04470 0.23653
 C612 C 0.37982 0.02552 0.24240
 H613 H 0.40576 0.13493 0.23662
 H614 H 0.38236 0.09470 0.25117
 H615 H 0.43565 0.04686 0.20521
 H616 H 0.45906 0.08708 0.19067
 C617 C 0.31452 0.45056 -0.14936
 C618 C 0.30420 0.44153 -0.12989
 C619 C 0.29283 0.43018 -0.10643
 C620 C 0.30414 0.43559 -0.08159
 C621 C 0.29442 0.42307 -0.05895
 C622 C 0.27333 0.40511 -0.06107
 C623 C 0.26171 0.40006 -0.08584
 C624 C 0.27144 0.41257 -0.10848
 C625 C 0.26459 0.39074 -0.03815
 C626 C 0.25759 0.37797 -0.01929
 H627 H 0.32080 0.44905 -0.07980
 H628 H 0.30365 0.42701 -0.03993
 H629 H 0.24549 0.38608 -0.08772
 H630 H 0.26265 0.40812 -0.12760
 C631 C 0.81420 0.95142 0.34993
 C632 C 0.80394 0.94256 0.36952
 C633 C 0.79269 0.93140 0.39312
 C634 C 0.80451 0.93646 0.41780
 C635 C 0.79486 0.92409 0.44055
 C636 C 0.77335 0.90661 0.43872
 C637 C 0.76123 0.90191 0.41412
 C638 C 0.77088 0.91427 0.39136
 C639 C 0.76467 0.89235 0.46172
 C640 C 0.75768 0.87962 0.48061
 H641 H 0.82149 0.94954 0.41936
 H642 H 0.80449 0.92775 0.45943
 H643 H 0.74468 0.88831 0.41246
 H644 H 0.76169 0.91009 0.37237
 C645 C 0.81244 0.03271 1.16025
 C646 C 0.80273 0.04232 1.14068
 C647 C 0.79208 0.05410 1.11705
 C648 C 0.77195 0.07295 1.11879
 C649 C 0.76279 0.08557 1.09594
 C650 C 0.77373 0.07940 1.07124
 C651 C 0.79358 0.06026 1.06944
 C652 C 0.80273 0.04764 1.09229
 C653 C 0.76548 0.09367 1.04804
 C654 C 0.75880 0.10640 1.02901
 H655 H 0.76366 0.07820 1.13784
 H656 H 0.74752 0.10044 1.09757
 H657 H 0.80228 0.05544 1.05047
 H658 H 0.81840 0.03319 1.09073
 C659 C 0.31192 0.53318 0.66032
 C660 C 0.30222 0.54285 0.64079
 C661 C 0.29154 0.55472 0.61721
 C662 C 0.27134 0.57349 0.61905
 C663 C 0.26214 0.58618 0.59625
 C664 C 0.27311 0.58016 0.57152
 C665 C 0.29303 0.56111 0.56964
 C666 C 0.30222 0.54841 0.59243
 C667 C 0.26480 0.59449 0.54839
 C668 C 0.25806 0.60725 0.52940
 H669 H 0.26303 0.57861 0.63811
 H670 H 0.24682 0.60098 0.59795
 H671 H 0.30175 0.55641 0.55065
 H672 H 0.31794 0.53402 0.59080
 C673 C 0.19105 0.53911 0.34871
 C674 C 0.20078 0.54717 0.36906
 C675 C 0.21126 0.55743 0.39360
 C676 C 0.23345 0.57413 0.39357
 C677 C 0.24223 0.58584 0.41718
 C678 C 0.22885 0.58091 0.44092
 C679 C 0.20699 0.56379 0.44104
 C680 C 0.19822 0.55208 0.41743
 C681 C 0.23653 0.59477 0.46470
 C682 C 0.24270 0.60731 0.48415
 H683 H 0.24357 0.57855 0.37524
 H684 H 0.25905 0.59919 0.41684
 H685 H 0.19639 0.55999 0.45924
 H686 H 0.18093 0.53934 0.41765
 C687 C 0.69098 0.03876 0.84838
 C688 C 0.70084 0.04672 0.86870
 C689 C 0.71148 0.05688 0.89322
 C690 C 0.73369 0.07354 0.89312
 C691 C 0.74262 0.08516 0.91673
 C692 C 0.72936 0.08018 0.94052
 C693 C 0.70748 0.06310 0.94070
 C694 C 0.69856 0.05147 0.91710
 C695 C 0.73717 0.09398 0.96430
 C696 C 0.74343 0.10648 0.98375
 H697 H 0.74372 0.07801 0.87475
 H698 H 0.75945 0.09849 0.91633
 H699 H 0.69697 0.05926 0.95894
 H700 H 0.68125 0.03876 0.91737
 C701 C 0.69431 0.95680 0.65722
 C702 C 0.70333 0.94644 0.63773
 C703 C 0.71309 0.93381 0.61415
 C704 C 0.70427 0.94221 0.58921
 C705 C 0.71241 0.92895 0.56632
 C706 C 0.72940 0.90724 0.56827
 C707 C 0.73852 0.89908 0.59317
 C708 C 0.73037 0.91233 0.61607
 C709 C 0.73661 0.89262 0.54492
 C710 C 0.74245 0.87971 0.52569
 H711 H 0.69079 0.95871 0.58751
 H712 H 0.70515 0.93536 0.54718
 H713 H 0.75157 0.88225 0.59491
 H714 H 0.73720 0.90558 0.63525
 C715 C 0.19398 0.45587 0.15678
 C716 C 0.20306 0.44538 0.13739
 C717 C 0.21291 0.43261 0.11393
 C718 C 0.20464 0.44123 0.08889
 C719 C 0.21283 0.42784 0.06609
 C720 C 0.22933 0.40578 0.06824
 C721 C 0.23791 0.39739 0.09326
 C722 C 0.22971 0.41077 0.11606
 C723 C 0.23659 0.39105 0.04497
 C724 C 0.24243 0.37809 0.02579
 H725 H 0.19153 0.45801 0.08702
 H726 H 0.20599 0.43443 0.04686
 H727 H 0.25059 0.38028 0.09516
 H728 H 0.23611 0.40384 0.13532
 C729 C -0.14945 0.31494 0.45090
 C730 C -0.12994 0.30460 0.44206
 C731 C -0.10643 0.29321 0.43091
 C732 C -0.08173 0.30494 0.43592
 C733 C -0.05907 0.29515 0.42357
 C734 C -0.06102 0.27359 0.40617
 C735 C -0.08565 0.26156 0.40153
 C736 C -0.10831 0.27135 0.41387
 C737 C -0.03812 0.26478 0.39189
 C738 C -0.01930 0.25772 0.37914
 H739 H -0.08007 0.32196 0.44893
 H740 H -0.04016 0.30471 0.42717
 H741 H -0.08740 0.24497 0.38798
 H742 H -0.12733 0.26223 0.40974
 C743 C 0.35032 0.81530 0.95053
 C744 C 0.36985 0.80496 0.94172
 C745 C 0.39338 0.79358 0.93063
 C746 C 0.41807 0.80529 0.93571
 C747 C 0.44076 0.79550 0.92342
 C748 C 0.43885 0.77394 0.90600
 C749 C 0.41422 0.76193 0.90128
 C750 C 0.39153 0.77173 0.91356
 C751 C 0.46179 0.76511 0.89180
 C752 C 0.48065 0.75803 0.87912
 H753 H 0.41971 0.82229 0.94874
 H754 H 0.45967 0.80503 0.92708
 H755 H 0.41250 0.74535 0.88772
 H756 H 0.37252 0.76262 0.90937
 C757 C 1.16006 0.81268 0.03239
 C758 C 1.14054 0.80291 0.04198
 C759 C 1.11698 0.79215 0.05376
 C760 C 1.09226 0.80301 0.04761
 C761 C 1.06949 0.79374 0.06023
 C762 C 1.07134 0.77354 0.07905
 C763 C 1.09600 0.76239 0.08490
 C764 C 1.11878 0.77168 0.07228
 C765 C 1.04824 0.76517 0.09336
 C766 C 1.02930 0.75839 0.10613
 H767 H 1.09066 0.81894 0.03340
 H768 H 1.05055 0.80260 0.05566
 H769 H 1.09767 0.74686 0.09953
 H770 H 1.13779 0.76322 0.07729
 C771 C 0.66016 0.31226 0.53256
 C772 C 0.64064 0.30251 0.54215
 C773 C 0.61707 0.29178 0.55394
 C774 C 0.61886 0.27130 0.57246
 C775 C 0.59608 0.26205 0.58510
 C776 C 0.57143 0.27324 0.57928
 C777 C 0.56959 0.29345 0.56047
 C778 C 0.59236 0.30269 0.54782
 C779 C 0.54834 0.26490 0.59362
 C780 C 0.52940 0.25816 0.60641
 H781 H 0.63787 0.26282 0.57743
 H782 H 0.59775 0.24652 0.59972
 H783 H 0.55066 0.30234 0.55593
 H784 H 0.59077 0.31863 0.53363
 C785 C 0.34878 0.19049 0.53900
 C786 C 0.36911 0.20029 0.54696
 C787 C 0.39364 0.21087 0.55710
 C788 C 0.39364 0.23313 0.57369
 C789 C 0.41726 0.24202 0.58529
 C790 C 0.44097 0.22867 0.58035
 C791 C 0.44106 0.20672 0.56335
 C792 C 0.41744 0.19785 0.55175
 C793 C 0.46476 0.23645 0.59412
 C794 C 0.48423 0.24271 0.60660
 H795 H 0.37533 0.24324 0.57811
 H796 H 0.41694 0.25890 0.59855
 H797 H 0.45924 0.19615 0.55955
 H798 H 0.41765 0.18050 0.53909
 C799 C 0.84848 0.69053 0.03928
 C800 C 0.86886 0.70034 0.04713
 C801 C 0.89343 0.71094 0.05714
 C802 C 0.89352 0.73339 0.07347
 C803 C 0.91717 0.74231 0.08496
 C804 C 0.94083 0.72883 0.08017
 C805 C 0.94084 0.70670 0.06341
 C806 C 0.91718 0.69778 0.05191
 C807 C 0.96465 0.73665 0.09387
 C808 C 0.98413 0.74292 0.10632
 H809 H 0.87525 0.74361 0.07779
 H810 H 0.91692 0.75934 0.09804
 H811 H 0.95898 0.69601 0.05972
 H812 H 0.91732 0.68029 0.03945
 C813 C 0.65648 0.69330 0.95686
 C814 C 0.63708 0.70247 0.94645
 C815 C 0.61362 0.71245 0.93378
 C816 C 0.58865 0.70368 0.94201
 C817 C 0.56586 0.71203 0.92870
 C818 C 0.56796 0.72920 0.90709
 C819 C 0.59290 0.73827 0.89910
 C820 C 0.61569 0.72990 0.91241
 C821 C 0.54472 0.73661 0.89238
 C822 C 0.52559 0.74259 0.87939
 H823 H 0.58683 0.69006 0.95843
 H824 H 0.54670 0.70481 0.93497
 H825 H 0.59475 0.75145 0.88234
 H826 H 0.63489 0.73670 0.90578
 C827 C 0.15682 0.19306 0.45627
 C828 C 0.13739 0.20222 0.44590
 C829 C 0.11389 0.21217 0.43328
 C830 C 0.08894 0.20348 0.44166
 C831 C 0.06611 0.21182 0.42842
 C832 C 0.06814 0.22890 0.40674
 C833 C 0.09306 0.23788 0.39859
 C834 C 0.11589 0.22953 0.41183
 C835 C 0.04485 0.23632 0.39211
 C836 C 0.02566 0.24231 0.37921
 H837 H 0.08717 0.18994 0.45815
 H838 H 0.04696 0.20466 0.43481
 H839 H 0.09486 0.25100 0.38177
 H840 H 0.13508 0.23627 0.40509
 C841 C 0.57236 0.09787 0.71187
 C842 C 0.56184 0.11718 0.70280
 C843 C 0.55022 0.14043 0.69134
 C844 C 0.55998 0.16552 0.69823
 C845 C 0.55016 0.18803 0.68562
 C846 C 0.53055 0.18554 0.66606
 C847 C 0.52046 0.16049 0.65951
 C848 C 0.53028 0.13797 0.67212
 C849 C 0.52184 0.20844 0.65173
 C850 C 0.51498 0.22743 0.63910
 H851 H 0.57553 0.16763 0.71294
 H852 H 0.55821 0.20730 0.69072
 H853 H 0.50539 0.15833 0.64431
 H854 H 0.52272 0.11865 0.66652
 C855 C 1.07209 0.59765 0.21095
 C856 C 1.06161 0.61703 0.20197
 C857 C 1.05005 0.64035 0.19063
 C858 C 1.06004 0.66538 0.19745
 C859 C 1.05025 0.68797 0.18496
 C860 C 1.03045 0.68562 0.16559
 C861 C 1.02012 0.66064 0.15911
 C862 C 1.02991 0.63804 0.17160
 C863 C 1.02175 0.70859 0.15134
 C864 C 1.01489 0.72762 0.13878
 H865 H 1.07573 0.66737 0.21202
 H866 H 1.05847 0.70717 0.19000
 H867 H 1.00490 0.65859 0.14405
 H868 H 1.02217 0.61878 0.16606
 C869 C 0.93922 0.89858 0.21613
 C870 C 0.95058 0.87981 0.20690
 C871 C 0.96310 0.85721 0.19509
 C872 C 0.98227 0.86071 0.17546
 C873 C 0.99265 0.83877 0.16224
 C874 C 0.98390 0.81325 0.16860
 C875 C 0.96516 0.80971 0.18863
 C876 C 0.95478 0.83165 0.20185
 C877 C 0.99276 0.79094 0.15337
 C878 C 0.99953 0.77245 0.13991
 H879 H 0.98870 0.88040 0.16994
 H880 H 1.00700 0.84173 0.14665
 H881 H 0.95812 0.79008 0.19357
 H882 H 0.93982 0.82873 0.21686
 C883 C 0.43953 0.39832 0.71670
 C884 C 0.45085 0.37957 0.70739
 C885 C 0.46333 0.35699 0.69550
 C886 C 0.45509 0.33142 0.70231
 C887 C 0.46543 0.30949 0.68903
 C888 C 0.48404 0.31306 0.66889
 C889 C 0.49272 0.33859 0.66248
 C890 C 0.48238 0.36052 0.67575
 C891 C 0.49288 0.29075 0.65364
 C892 C 0.49963 0.27226 0.64018
 H893 H 0.44022 0.32848 0.71741
 H894 H 0.45845 0.28985 0.69402
 H895 H 0.50698 0.34158 0.64681
 H896 H 0.48874 0.38022 0.67019
 C897 C 0.43585 0.59175 0.78461
 C898 C 0.44637 0.61220 0.79116
 C899 C 0.45818 0.63664 0.80001
 C900 C 0.48210 0.63640 0.81412
 C901 C 0.49230 0.65986 0.82488
 C902 C 0.47862 0.68366 0.82158
 C903 C 0.45501 0.68401 0.80695
 C904 C 0.44481 0.66055 0.79619
 C905 C 0.48773 0.70724 0.83485
 C906 C 0.49486 0.72665 0.84690
 H907 H 0.49250 0.61800 0.81736
 H908 H 0.51047 0.65934 0.83633
 H909 H 0.44416 0.70227 0.80446
 H910 H 0.42620 0.66093 0.78548
 C911 C -0.06446 0.09200 0.28375
 C912 C -0.05388 0.11239 0.29039
 C913 C -0.04201 0.13675 0.29938
 C914 C -0.05526 0.16073 0.29559
 C915 C -0.04502 0.18411 0.30650
 C916 C -0.02149 0.18360 0.32125
 C917 C -0.00792 0.15973 0.32453
 C918 C -0.01816 0.13635 0.31361
 C919 C -0.01234 0.20710 0.33464
 C920 C -0.00518 0.22645 0.34677
 H921 H -0.07382 0.16123 0.28479
 H922 H -0.05578 0.20242 0.30403
 H923 H 0.01018 0.15909 0.33607
 H924 H -0.00786 0.11789 0.31684
 C925 C 0.06824 0.40344 0.27826
 C926 C 0.05756 0.38319 0.28492
 C927 C 0.04577 0.35901 0.29420
 C928 C 0.05941 0.33510 0.29155
 C929 C 0.04950 0.31209 0.30324
 C930 C 0.02591 0.31291 0.31763
 C931 C 0.01188 0.33666 0.31966
 C932 C 0.02180 0.35967 0.30798
 C933 C 0.01729 0.29006 0.33216
 C934 C 0.01057 0.27140 0.34536
 H935 H 0.07809 0.33443 0.28115
 H936 H 0.06062 0.29389 0.30174
 H937 H -0.00627 0.33755 0.33094
 H938 H 0.01121 0.37810 0.31037
 C939 C 0.56885 0.90362 0.77873
 C940 C 0.55813 0.88335 0.78530
 C941 C 0.54627 0.85918 0.79449
 C942 C 0.55998 0.83528 0.79202
 C943 C 0.54996 0.81227 0.80362
 C944 C 0.52620 0.81307 0.81774
 C945 C 0.51212 0.83680 0.81958
 C946 C 0.52214 0.85981 0.80798
 C947 C 0.51746 0.79024 0.83223
 C948 C 0.51066 0.77160 0.84542
 H949 H 0.57878 0.83462 0.78184
 H950 H 0.56112 0.79408 0.80228
 H951 H 0.49384 0.83769 0.83065
 H952 H 0.51150 0.87823 0.81022
 C953 C 0.71147 0.57281 0.09670
 C954 C 0.70245 0.56227 0.11606
 C955 C 0.69104 0.55066 0.13935
 C956 C 0.69808 0.56032 0.16447
 C957 C 0.68552 0.55053 0.18704
 C958 C 0.66587 0.53105 0.18458
 C959 C 0.65916 0.52104 0.15951
 C960 C 0.67172 0.53083 0.13693
 C961 C 0.65159 0.52237 0.20756
 C962 C 0.63902 0.51554 0.22659
 H963 H 0.71287 0.57577 0.16655
 H964 H 0.69075 0.55851 0.20632
 H965 H 0.64389 0.50607 0.15738
 H966 H 0.66600 0.52335 0.11760
 C967 C 0.21139 1.07115 0.59795
 C968 C 0.20240 1.06069 0.61737
 C969 C 0.19104 1.04918 0.64073
 C970 C 0.19811 1.05896 0.66579
 C971 C 0.18561 1.04926 0.68843
 C972 C 0.16597 1.02974 0.68609
 C973 C 0.15923 1.01962 0.66107
 C974 C 0.17174 1.02932 0.63843
 C975 C 0.15174 1.02114 0.70912
 C976 C 0.13920 1.01437 0.72820
 H977 H 0.21289 1.07444 0.66778
 H978 H 0.19086 1.05732 0.70767
 H979 H 0.14397 1.00462 0.65903
 H980 H 0.16600 1.02175 0.61913
 C981 C 0.21705 0.93886 0.89934
 C982 C 0.20774 0.95026 0.88058
 C983 C 0.19584 0.96281 0.85799
 C984 C 0.20268 0.95468 0.83237
 C985 C 0.18938 0.96504 0.81042
 C986 C 0.16919 0.98357 0.81401
 C987 C 0.16275 0.99213 0.83959
 C988 C 0.17605 0.98177 0.86154
 C989 C 0.15390 0.99240 0.79167
 C990 C 0.14041 0.99914 0.77316
 H991 H 0.21781 0.93988 0.82942
 H992 H 0.19438 0.95815 0.79075
 H993 H 0.14704 1.00631 0.84259
 H994 H 0.17047 0.98803 0.88127
 C995 C 0.71670 0.44008 0.39783
 C996 C 0.70740 0.45142 0.37905
 C997 C 0.69550 0.46393 0.35642
 C998 C 0.70230 0.45572 0.33082
 C999 C 0.68902 0.46608 0.30886
 C1000 C 0.66890 0.48467 0.31241
 C1001 C 0.66249 0.49332 0.33797
 C1002 C 0.67577 0.48296 0.35994
 C1003 C 0.65363 0.49352 0.29006
 C1004 C 0.64017 0.50026 0.27153
 H1005 H 0.71739 0.44087 0.32790
 H1006 H 0.69400 0.45912 0.28919
 H1007 H 0.64683 0.50756 0.34094
 H1008 H 0.67022 0.48930 0.37966
 C1009 C 0.78428 0.43604 0.59175
 C1010 C 0.79082 0.44650 0.61227
 C1011 C 0.79966 0.45822 0.63678
 C1012 C 0.79580 0.44480 0.66068
 C1013 C 0.80656 0.45489 0.68422
 C1014 C 0.82123 0.47846 0.68393
 C1015 C 0.82458 0.49221 0.66013
 C1016 C 0.81382 0.48211 0.63660
 C1017 C 0.83448 0.48748 0.70759
 C1018 C 0.84651 0.49453 0.72707
 H1019 H 0.78505 0.42621 0.66102
 H1020 H 0.80403 0.44400 0.70247
 H1021 H 0.83607 0.51035 0.65966
 H1022 H 0.81710 0.49254 0.61820
 C1023 C 0.28447 -0.06338 0.09115
 C1024 C 0.29112 -0.05293 0.11163
 C1025 C 0.30010 -0.04123 0.13610
 C1026 C 0.29612 -0.05456 0.16005
 C1027 C 0.30702 -0.04451 0.18354
 C1028 C 0.32194 -0.02110 0.18318
 C1029 C 0.32541 -0.00745 0.15934
 C1030 C 0.31452 -0.01750 0.13584
 C1031 C 0.33530 -0.01215 0.20681
 C1032 C 0.34739 -0.00515 0.22626
 H1033 H 0.28518 -0.07303 0.16044
 H1034 H 0.30439 -0.05533 0.20183
 H1035 H 0.33709 0.01056 0.15881
 H1036 H 0.31789 -0.00715 0.11741
 C1037 C 0.27861 0.06755 0.40345
 C1038 C 0.28531 0.05693 0.38318
 C1039 C 0.29464 0.04521 0.35899
 C1040 C 0.30846 0.02127 0.35966
 C1041 C 0.32019 0.01144 0.33664
 C1042 C 0.31815 0.02550 0.31287
 C1043 C 0.30372 0.04906 0.31203
 C1044 C 0.29198 0.05889 0.33505
 C1045 C 0.33272 0.01696 0.29001
 C1046 C 0.34593 0.01032 0.27135
 H1047 H 0.31085 0.01066 0.37811
 H1048 H 0.33150 -0.00668 0.33756
 H1049 H 0.30221 0.06021 0.29381
 H1050 H 0.28155 0.07754 0.33436
 C1051 C 0.77780 0.56742 0.90425
 C1052 C 0.78444 0.55677 0.88397
 C1053 C 0.79372 0.54503 0.85977
 C1054 C 0.79110 0.55874 0.83584
 C1055 C 0.80281 0.54889 0.81282
 C1056 C 0.81717 0.52528 0.81363
 C1057 C 0.81916 0.51119 0.83740
 C1058 C 0.80746 0.52105 0.86042
 C1059 C 0.83173 0.51673 0.79078
 C1060 C 0.84496 0.51008 0.77213
 H1061 H 0.78073 0.57743 0.83516
 H1062 H 0.80134 0.56006 0.79461
 H1063 H 0.83041 0.49303 0.83830
 H1064 H 0.80982 0.51041 0.87887
 C1065 C 0.09722 0.71150 0.57205
 C1066 C 0.11659 0.70259 0.56153
 C1067 C 0.13991 0.69133 0.54992
 C1068 C 0.13759 0.67209 0.53000
 C1069 C 0.16019 0.65966 0.52020
 C1070 C 0.18520 0.66642 0.53030
 C1071 C 0.18756 0.68599 0.54988
 C1072 C 0.16497 0.69842 0.55967
 C1073 C 0.20820 0.65224 0.52164
 C1074 C 0.22725 0.63974 0.51482
 H1075 H 0.11830 0.66634 0.52244
 H1076 H 0.15813 0.64445 0.50516
 H1077 H 0.20679 0.69125 0.55793
 H1078 H 0.16697 0.71314 0.57520
 C1079 C 0.59832 0.21132 1.07143
 C1080 C 0.61768 0.20233 1.06095
 C1081 C 0.64098 0.19097 1.04939
 C1082 C 0.63861 0.17184 1.02937
 C1083 C 0.66118 0.15932 1.01960
 C1084 C 0.68619 0.16587 1.02983
 C1085 C 0.68859 0.18534 1.04951
 C1086 C 0.66603 0.19786 1.05927
 C1087 C 0.70913 0.15160 1.02119
 C1088 C 0.72814 0.13901 1.01439
 H1089 H 0.61932 0.16624 1.02170
 H1090 H 0.65909 0.14418 1.00448
 H1091 H 0.70782 0.19044 1.05766
 H1092 H 0.66807 0.21250 1.07488
 C1093 C 0.89928 0.21626 0.93873
 C1094 C 0.88051 0.20699 0.95011
 C1095 C 0.85790 0.19515 0.96264
 C1096 C 0.86138 0.17541 0.98172
 C1097 C 0.83942 0.16220 0.99211
 C1098 C 0.81390 0.16866 0.98344
 C1099 C 0.81038 0.18879 0.96478
 C1100 C 0.83234 0.20201 0.95440
 C1101 C 0.79154 0.15347 0.99232
 C1102 C 0.77301 0.14005 0.99910
 H1103 H 0.88106 0.16982 0.98808
 H1104 H 0.84236 0.14654 1.00639
 H1105 H 0.79075 0.19382 0.95781
 H1106 H 0.82944 0.21710 0.93951
 C1107 C 0.39816 0.71741 0.43902
 C1108 C 0.37940 0.70814 0.45040
 C1109 C 0.35681 0.69629 0.46295
 C1110 C 0.33125 0.70294 0.45457
 C1111 C 0.30932 0.68969 0.46499
 C1112 C 0.31289 0.66974 0.48383
 C1113 C 0.33841 0.66349 0.49264
 C1114 C 0.36034 0.67674 0.48222
 C1115 C 0.29059 0.65448 0.49273
 C1116 C 0.27212 0.64099 0.49952
 H1117 H 0.32831 0.71789 0.43954
 H1118 H 0.28969 0.69455 0.45790
 H1119 H 0.34140 0.64797 0.50707
 H1120 H 0.38003 0.67131 0.48870
 C1121 C 0.59161 0.78499 0.43545
 C1122 C 0.61201 0.79156 0.44608
 C1123 C 0.63639 0.80045 0.45801
 C1124 C 0.66040 0.79635 0.44491
 C1125 C 0.68383 0.80715 0.45519
 C1126 C 0.68334 0.82207 0.47860
 C1127 C 0.65943 0.82565 0.49203
 C1128 C 0.63600 0.81486 0.48175
 C1129 C 0.70691 0.83534 0.48775
 C1130 C 0.72633 0.84738 0.49489
 H1131 H 0.66090 0.78541 0.42644
 H1132 H 0.70217 0.80443 0.44454
 H1133 H 0.65879 0.83734 0.51004
 H1134 H 0.61751 0.81832 0.49193
 C1135 C 0.09102 0.28339 -0.06318
 C1136 C 0.11152 0.28993 -0.05273
 C1137 C 0.13603 0.29878 -0.04104
 C1138 C 0.15988 0.29487 -0.05449
 C1139 C 0.18341 0.30566 -0.04444
 C1140 C 0.18318 0.32039 -0.02089
 C1141 C 0.15944 0.32378 -0.00712
 C1142 C 0.13591 0.31300 -0.01718
 C1143 C 0.20682 0.33366 -0.01194
 C1144 C 0.22629 0.34570 -0.00492
 H1145 H 0.16017 0.28408 -0.07306
 H1146 H 0.20161 0.30309 -0.05535
 H1147 H 0.15901 0.33531 0.01099
 H1148 H 0.11755 0.31632 -0.00673
 C1149 C 0.40378 0.27771 0.06791
 C1150 C 0.38344 0.28424 0.05729
 C1151 C 0.35918 0.29338 0.04557
 C1152 C 0.35965 0.30694 0.02143
 C1153 C 0.33656 0.31851 0.01158
 C1154 C 0.31292 0.31658 0.02583
 C1155 C 0.31229 0.30240 0.04960
 C1156 C 0.33537 0.29082 0.05945
 C1157 C 0.29002 0.33105 0.01727
 C1158 C 0.27134 0.34423 0.01060
 H1159 H 0.37799 0.30925 0.01067
 H1160 H 0.33732 0.32963 -0.00670
 H1161 H 0.29418 0.30099 0.06089
 H1162 H 0.33484 0.28060 0.07826
 C1163 C 0.90307 0.77846 0.56846
 C1164 C 0.88286 0.78517 0.55772
 C1165 C 0.85874 0.79450 0.54586
 C1166 C 0.83478 0.79181 0.55943
 C1167 C 0.81182 0.80354 0.54947
 C1168 C 0.81274 0.81801 0.52588
 C1169 C 0.83654 0.82008 0.51192
 C1170 C 0.85950 0.80835 0.52190
 C1171 C 0.78995 0.83259 0.51723
 C1172 C 0.77133 0.84583 0.51052
 H1173 H 0.83402 0.78135 0.57810
 H1174 H 0.79358 0.80202 0.56054
 H1175 H 0.83752 0.83142 0.49379
 H1176 H 0.87797 0.81076 0.51137
   
