data_POSCAR
  _audit_creation_date              2014-09-24
  _audit_creation_method            'ToBaCCo'
  _symmetry_space_group_name_H-M    'P1'
  _symmetry_Int_Tables_number       1
  _symmetry_cell_setting            triclinic
  loop_
  _symmetry_equiv_pos_as_xyz
 x,y,z
_cell_length_a 33.7367
_cell_length_b 33.2388
_cell_length_c 37.9454
_cell_angle_alpha 90.318200
_cell_angle_beta 89.872500
_cell_angle_gamma 124.080400
loop_
  _atom_site_label
  _atom_site_type_symbol
  _atom_site_fract_x
  _atom_site_fract_y
  _atom_site_fract_z
O1 O 0.04684 0.54522 1.27670
 O2 O -0.04690 0.49231 1.20958
 O3 O -0.04582 0.49214 1.27840
 O4 O 0.04622 0.53546 1.20890
 O5 O 0.04183 0.46691 1.21303
 O6 O -0.05194 0.42250 1.27954
 O7 O -0.05098 0.42384 1.21098
 O8 O 0.04102 0.47595 1.28125
 Cu9 Cu 0.00038 0.52298 1.24293
 Cu10 Cu -0.00548 0.44050 1.24636
 C11 C 0.05972 0.51986 1.29085
 C12 C -0.06515 0.44929 1.19854
 C13 C -0.06447 0.44969 1.29089
 C14 C 0.06032 0.50856 1.19958
 O15 O 0.44596 0.49113 1.28401
 O16 O 0.49046 0.44960 1.21249
 O17 O 0.48822 0.44585 1.28110
 O18 O 0.44182 0.48882 1.21516
 O19 O 0.51023 0.56076 1.21475
 O20 O 0.55749 0.51701 1.28176
 O21 O 0.55886 0.52157 1.21296
 O22 O 0.51507 0.56230 1.28353
 Cu23 Cu 0.45977 0.46179 1.24808
 Cu24 Cu 0.54224 0.54753 1.24820
 C25 C 0.47351 0.53402 1.29634
 C26 C 0.53253 0.47889 1.20050
 C27 C 0.53030 0.47374 1.29312
 C28 C 0.46767 0.53177 1.20344
 O29 O 0.50525 0.94929 1.29154
 O30 O 0.56246 1.04707 1.22586
 O31 O 0.55845 1.04457 1.29443
 O32 O 0.50513 0.95361 1.22254
 O33 O 0.44040 0.95475 1.22444
 O34 O 0.49579 1.04909 1.29317
 O35 O 0.49775 1.04827 1.22446
 O36 O 0.44264 0.95389 1.29307
 Cu37 Cu 0.53907 0.99816 1.25882
 Cu38 Cu 0.46284 1.00184 1.25905
 C39 C 0.46426 0.93482 1.30377
 C40 C 0.53948 1.06355 1.21325
 C41 C 0.53654 1.06321 1.30568
 C42 C 0.46374 0.93906 1.21097
 O43 O 0.95305 0.49186 0.71940
 O44 O 1.04638 0.54711 0.78618
 O45 O 1.04519 0.53361 0.71806
 O46 O 0.95269 0.49258 0.78815
 O47 O 0.94806 0.42383 0.79075
 O48 O 1.04149 0.46580 0.72474
 O49 O 1.04182 0.47875 0.79248
 O50 O 0.94925 0.42353 0.72175
 Cu51 Cu 0.99983 0.52298 0.75261
 Cu52 Cu 0.99461 0.44128 0.75802
 C53 C 0.93556 0.44900 0.70848
 C54 C 1.06032 0.52307 0.80094
 C55 C 1.05908 0.50618 0.70946
 C56 C 0.93420 0.45030 0.80106
 O57 O 0.49806 0.45738 0.72131
 O58 O 0.46612 0.51132 0.79073
 O59 O 0.46246 0.50934 0.72194
 O60 O 0.50819 0.46541 0.78956
 O61 O 0.57965 0.53366 0.78495
 O62 O 0.53377 0.57812 0.71902
 O63 O 0.53772 0.57969 0.78766
 O64 O 0.56921 0.52603 0.71660
 Cu65 Cu 0.47658 0.47908 0.75632
 Cu66 Cu 0.56222 0.56118 0.75168
 C67 C 0.53883 0.48243 0.70678
 C68 C 0.49624 0.55438 0.80135
 C69 C 0.49058 0.55141 0.70884
 C70 C 0.55195 0.49222 0.79878
 O71 O 0.54448 0.04877 0.70828
 O72 O 0.48844 -0.04698 0.77416
 O73 O 0.48971 -0.04586 0.70550
 O74 O 0.53353 0.04691 0.77641
 O75 O 0.46770 0.04558 0.77117
 O76 O 0.42328 -0.04809 0.70323
 O77 O 0.42241 -0.04828 0.77216
 O78 O 0.47835 0.04687 0.70330
 Cu79 Cu 0.52057 0.00089 0.74138
 Cu80 Cu 0.44132 -0.00132 0.73694
 C81 C 0.52154 0.06443 0.69441
 C82 C 0.44646 -0.06360 0.78504
 C83 C 0.44837 -0.06312 0.69237
 C84 C 0.50772 0.06203 0.78581
 O85 O 0.41496 0.66353 0.97000
 O86 O 0.41328 0.73819 0.95320
 C87 C 0.39112 0.75745 0.94513
 O88 O 0.35712 0.75212 0.96363
 O89 O 0.27710 0.66612 0.95855
 C90 C 0.25412 0.62017 0.95587
 O91 O 0.26100 0.59457 0.97648
 O92 O 0.33962 0.59909 0.96573
 C93 C 0.38305 0.62308 0.95613
 O94 O 0.42021 0.68760 1.03873
 O95 O 0.42178 0.76427 1.02195
 C96 C 0.39364 0.76996 1.04033
 O97 O 0.34890 0.74619 1.03461
 O98 O 0.26643 0.66337 1.02892
 C99 C 0.26023 0.63060 1.04976
 O100 O 0.28157 0.60934 1.04602
 O101 O 0.35853 0.61016 1.03547
 C102 C 0.39740 0.64417 1.04956
 Cr103 Cr 0.41492 0.71200 0.99609
 Cr104 Cr 0.31372 0.70586 0.99652
 Cr105 Cr 0.31157 0.60593 1.00572
 O106 O 0.34677 0.67452 0.99947
 O107 O 0.58231 0.33269 0.96951
 O108 O 0.58824 0.25899 0.95779
 C109 C 0.61183 0.24042 0.95233
 O110 O 0.64599 0.24891 0.97216
 O111 O 0.72404 0.33509 0.96288
 C112 C 0.74515 0.38006 0.95630
 O113 O 0.73713 0.40780 0.97359
 O114 O 0.65604 0.39817 0.96165
 C115 C 0.61208 0.37176 0.95345
 O116 O 0.58034 0.31771 1.03920
 O117 O 0.58161 0.24106 1.02777
 C118 C 0.61060 0.23879 1.04762
 O119 O 0.65545 0.26428 1.04249
 O120 O 0.73605 0.34767 1.03290
 C121 C 0.74179 0.38296 1.05070
 O122 O 0.71973 0.40275 1.04381
 O123 O 0.63976 0.39564 1.03187
 C124 C 0.60203 0.36226 1.04754
 Cr125 Cr 0.58576 0.28912 0.99866
 Cr126 Cr 0.68901 0.30009 1.00255
 Cr127 Cr 0.68688 0.39844 1.00269
 O128 O 0.65394 0.32939 1.00135
 O129 O 0.67359 0.43528 0.52703
 O130 O 0.74312 0.42548 0.54139
 C131 C 0.75868 0.39967 0.54924
 O132 O 0.74847 0.36252 0.53134
 O133 O 0.66152 0.28585 0.53935
 C134 C 0.61726 0.26660 0.54470
 O135 O 0.59258 0.27704 0.52660
 O136 O 0.60784 0.36213 0.53732
 C137 C 0.63559 0.40706 0.54432
 O138 O 0.68938 0.43258 0.45780
 O139 O 0.76207 0.42781 0.47223
 C140 C 0.76339 0.39636 0.45416
 O141 O 0.73647 0.35124 0.46041
 O142 O 0.65136 0.27251 0.46894
 C143 C 0.61746 0.26802 0.45075
 O144 O 0.60020 0.29291 0.45665
 O145 O 0.61178 0.37665 0.46686
 C146 C 0.64568 0.41230 0.44975
 Cr147 Cr 0.71543 0.42759 0.49959
 Cr148 Cr 0.69856 0.31957 0.49996
 Cr149 Cr 0.60569 0.32841 0.49692
 O150 O 0.67316 0.35840 0.49875
 O151 O 0.33081 0.57364 0.53532
 O152 O 0.25828 0.58070 0.54468
 C153 C 0.24057 0.60548 0.54882
 O154 O 0.24953 0.63943 0.52803
 O155 O 0.33443 0.71908 0.53571
 C156 C 0.37846 0.73999 0.54318
 O157 O 0.40561 0.73027 0.52756
 O158 O 0.39563 0.64860 0.54184
 C159 C 0.36939 0.60456 0.55115
 O160 O 0.31646 0.56823 0.46516
 O161 O 0.24097 0.57015 0.47465
 C162 C 0.23836 0.59844 0.45390
 O163 O 0.26392 0.64424 0.45766
 O164 O 0.34652 0.72660 0.46554
 C165 C 0.38229 0.73238 0.44935
 O166 O 0.40136 0.71010 0.45788
 O167 O 0.39323 0.62920 0.47204
 C168 C 0.36025 0.59065 0.45652
 Cr169 Cr 0.28820 0.57589 0.50480
 Cr170 Cr 0.29967 0.68089 0.49686
 Cr171 Cr 0.39626 0.67817 0.49986
 O172 O 0.32822 0.64508 0.50048
 C173 C 0.49049 0.59761 0.33840
 C174 C 0.45882 0.55047 0.32452
 C175 C 0.41315 0.52044 0.33999
 C176 C 0.39976 0.53716 0.36883
 C177 C 0.43236 0.58429 0.38251
 C178 C 0.47745 0.61421 0.36704
 C179 C 0.41941 0.60102 0.41139
 C180 C 0.37390 0.57158 0.42682
 C181 C 0.34148 0.52480 0.41290
 C182 C 0.35438 0.50766 0.38429
 H183 H 0.38806 0.48409 0.32980
 H184 H 0.50279 0.65052 0.37713
 H185 H 0.44467 0.63738 0.42149
 H186 H 0.32879 0.47143 0.37418
 H187 H 0.52586 0.62193 0.32736
 H188 H 0.30613 0.50137 0.42419
 C189 C 0.39819 0.88267 0.34402
 C190 C 0.44286 0.89783 0.32927
 C191 C 0.46570 0.87530 0.34073
 C192 C 0.44463 0.83892 0.36657
 C193 C 0.40023 0.82482 0.38141
 C194 C 0.37722 0.84670 0.36983
 C195 C 0.37974 0.78942 0.40788
 C196 C 0.40297 0.76768 0.41990
 C197 C 0.44672 0.78130 0.40441
 C198 C 0.46738 0.81663 0.37805
 H199 H 0.49997 0.88603 0.32971
 H200 H 0.34306 0.83618 0.38088
 H201 H 0.34585 0.77919 0.41933
 H202 H 0.50138 0.82684 0.36687
 H203 H 0.37939 0.89889 0.33590
 H204 H 0.46543 0.76524 0.41308
 C205 C 0.12243 0.59229 0.32524
 C206 C 0.09633 0.54190 0.31899
 C207 C 0.10451 0.51295 0.34048
 C208 C 0.13768 0.53396 0.36823
 C209 C 0.16351 0.58462 0.37434
 C210 C 0.15582 0.61346 0.35254
 C211 C 0.19636 0.60558 0.40226
 C212 C 0.20359 0.57652 0.42445
 C213 C 0.17768 0.52613 0.41808
 C214 C 0.14513 0.50509 0.39023
 H215 H 0.08447 0.47406 0.33606
 H216 H 0.17531 0.65235 0.35679
 H217 H 0.21605 0.64444 0.40677
 H218 H 0.12567 0.46622 0.38597
 H219 H 0.11696 0.61549 0.30901
 H220 H 0.18264 0.50281 0.43459
 C221 C 0.51422 0.40875 0.33508
 C222 C 0.54660 0.45531 0.32112
 C223 C 0.59334 0.48388 0.33492
 C224 C 0.60715 0.46630 0.36266
 C225 C 0.57377 0.41980 0.37675
 C226 C 0.52762 0.39124 0.36261
 C227 C 0.58681 0.40258 0.40497
 C228 C 0.63303 0.43093 0.41946
 C229 C 0.66642 0.47677 0.40489
 C230 C 0.65352 0.49440 0.37683
 H231 H 0.61871 0.51976 0.32438
 H232 H 0.50169 0.35544 0.37303
 H233 H 0.56082 0.36691 0.41561
 H234 H 0.67971 0.53006 0.36634
 H235 H 0.47802 0.38586 0.32505
 H236 H 0.70232 0.49931 0.41552
 C237 C 0.60149 0.11428 0.34736
 C238 C 0.55735 0.09959 0.33189
 C239 C 0.53452 0.12236 0.34307
 C240 C 0.55528 0.15888 0.36903
 C241 C 0.59922 0.17270 0.38456
 C242 C 0.62205 0.15026 0.37349
 C243 C 0.61954 0.20862 0.41097
 C244 C 0.59668 0.23130 0.42200
 C245 C 0.55335 0.21778 0.40588
 C246 C 0.53277 0.18181 0.37975
 H247 H 0.50068 0.11202 0.33149
 H248 H 0.65587 0.16054 0.38504
 H249 H 0.65314 0.21883 0.42292
 H250 H 0.49912 0.17179 0.36803
 H251 H 0.62020 0.09779 0.33949
 H252 H 0.53491 0.23452 0.41382
 C253 C 0.87207 0.38220 0.32809
 C254 C 0.89965 0.43180 0.31937
 C255 C 0.89406 0.46426 0.33897
 C256 C 0.86201 0.44757 0.36735
 C257 C 0.83455 0.39765 0.37598
 C258 C 0.83964 0.36524 0.35603
 C259 C 0.80262 0.38100 0.40447
 C260 C 0.79795 0.41370 0.42467
 C261 C 0.82567 0.46333 0.41587
 C262 C 0.85730 0.48007 0.38748
 H263 H 0.91538 0.50263 0.33266
 H264 H 0.81889 0.32685 0.36221
 H265 H 0.78148 0.34266 0.41085
 H266 H 0.87810 0.51845 0.38129
 H267 H 0.87564 0.35641 0.31334
 H268 H 0.82271 0.48940 0.43080
 C269 C 0.59601 0.49837 1.15637
 C270 C 0.55145 0.46391 1.17166
 C271 C 0.52568 0.41573 1.15909
 C272 C 0.54428 0.40227 1.13171
 C273 C 0.58898 0.43742 1.11656
 C274 C 0.61451 0.48530 1.12910
 C275 C 0.60755 0.42420 1.08912
 C276 C 0.58222 0.37607 1.07656
 C277 C 0.53787 0.34129 1.09199
 C278 C 0.51905 0.35428 1.11922
 H279 H 0.49138 0.38874 1.17065
 H280 H 0.64885 0.51271 1.11782
 H281 H 0.64186 0.45144 1.07770
 H282 H 0.48477 0.32677 1.13051
 H283 H 0.61667 0.53575 1.16540
 H284 H 0.51749 0.30393 1.08291
 C285 C 0.87971 0.38341 1.15834
 C286 C 0.89899 0.43011 1.17253
 C287 C 0.88164 0.45749 1.16012
 C288 C 0.84618 0.43882 1.13397
 C289 C 0.82791 0.39232 1.11960
 C290 C 0.84469 0.36483 1.13206
 C291 C 0.79340 0.37419 1.09281
 C292 C 0.77656 0.40178 1.08016
 C293 C 0.79417 0.44756 1.09523
 C294 C 0.82882 0.46601 1.12182
 H295 H 0.89557 0.49341 1.17076
 H296 H 0.83086 0.32898 1.12138
 H297 H 0.77979 0.33857 1.08173
 H298 H 0.84231 0.50168 1.13269
 H299 H 0.89196 0.36122 1.16724
 H300 H 0.78183 0.46952 1.08600
 C301 C 0.60975 0.12366 1.17626
 C302 C 0.56092 0.09979 1.18460
 C303 C 0.53216 0.10912 1.16431
 C304 C 0.55158 0.14111 1.13570
 C305 C 0.60067 0.16488 1.12747
 C306 C 0.62951 0.15613 1.14809
 C307 C 0.61996 0.19670 1.09866
 C308 C 0.59063 0.20469 1.07773
 C309 C 0.54179 0.18059 1.08623
 C310 C 0.52251 0.14925 1.11494
 H311 H 0.49438 0.09066 1.17025
 H312 H 0.66721 0.17400 1.14221
 H313 H 0.65766 0.21499 1.09251
 H314 H 0.48480 0.13130 1.12085
 H315 H 0.63270 0.11712 1.19148
 H316 H 0.51833 0.18621 1.07080
 C317 C 0.40108 0.51371 1.16320
 C318 C 0.44766 0.54715 1.17601
 C319 C 0.47464 0.59428 1.16182
 C320 C 0.45551 0.60743 1.13484
 C321 C 0.40893 0.57308 1.12195
 C322 C 0.38195 0.52651 1.13648
 C323 C 0.39012 0.58555 1.09449
 C324 C 0.41712 0.63208 1.07946
 C325 C 0.46315 0.66635 1.09283
 C326 C 0.48220 0.65411 1.12022
 H327 H 0.51054 0.62048 1.17145
 H328 H 0.34613 0.49979 1.12697
 H329 H 0.35446 0.55877 1.08471
 H330 H 0.51792 0.68103 1.12977
 H331 H 0.37935 0.47720 1.17359
 H332 H 0.48477 0.70251 1.08182
 C333 C 0.11588 0.49674 1.16442
 C334 C 0.09869 0.52558 1.17305
 C335 C 0.11858 0.57056 1.15629
 C336 C 0.15470 0.58622 1.13095
 C337 C 0.17151 0.55680 1.12241
 C338 C 0.15200 0.51224 1.13942
 C339 C 0.20701 0.57203 1.09663
 C340 C 0.22544 0.61602 1.07878
 C341 C 0.20882 0.64525 1.08779
 C342 C 0.17394 0.63059 1.11372
 H343 H 0.10573 0.59318 1.16269
 H344 H 0.16441 0.48920 1.13322
 H345 H 0.21933 0.54905 1.08984
 H346 H 0.16161 0.65369 1.11997
 H347 H 0.10139 0.46201 1.17702
 H348 H 0.22260 0.67948 1.07460
 C349 C 0.39394 0.87999 1.17305
 C350 C 0.44298 0.90464 1.18093
 C351 C 0.47241 0.89795 1.15891
 C352 C 0.45328 0.86750 1.12920
 C353 C 0.40390 0.84274 1.12160
 C354 C 0.37453 0.84911 1.14378
 C355 C 0.38470 0.81187 1.09207
 C356 C 0.41425 0.80539 1.06992
 C357 C 0.46348 0.83086 1.07755
 C358 C 0.48276 0.86156 1.10688
 H359 H 0.51037 0.91715 1.16447
 H360 H 0.33660 0.83044 1.13839
 H361 H 0.34668 0.79242 1.08669
 H362 H 0.52072 0.88038 1.11222
 H363 H 0.37051 0.88458 1.18956
 H364 H 0.48716 0.82654 1.06114
 C365 C 0.51913 0.41118 0.66932
 C366 C 0.55060 0.46070 0.67792
 C367 C 0.59275 0.48943 0.65823
 C368 C 0.60314 0.46915 0.63016
 C369 C 0.57125 0.41936 0.62171
 C370 C 0.52942 0.39067 0.64154
 C371 C 0.58169 0.39914 0.59357
 C372 C 0.62364 0.42813 0.57364
 C373 C 0.65498 0.47768 0.58233
 C374 C 0.64485 0.49795 0.61030
 H375 H 0.61724 0.52769 0.66445
 H376 H 0.50454 0.35244 0.63549
 H377 H 0.55722 0.36090 0.58728
 H378 H 0.66968 0.53618 0.61638
 H379 H 0.48640 0.38817 0.68407
 H380 H 0.68766 0.50096 0.56760
 C381 C 0.59434 0.12377 0.65973
 C382 C 0.54590 0.10340 0.66777
 C383 C 0.52151 0.12048 0.65016
 C384 C 0.54512 0.15709 0.62465
 C385 C 0.59373 0.17702 0.61678
 C386 C 0.61801 0.16022 0.63455
 C387 C 0.61725 0.21316 0.59106
 C388 C 0.59281 0.22961 0.57273
 C389 C 0.54450 0.20975 0.58093
 C390 C 0.52093 0.17392 0.60667
 H391 H 0.48421 0.10516 0.65608
 H392 H 0.65527 0.17510 0.62888
 H393 H 0.65444 0.22800 0.58508
 H394 H 0.48369 0.15917 0.61234
 H395 H 0.61415 0.11150 0.67291
 H396 H 0.52475 0.22178 0.56734
 C397 C 0.88397 0.38591 0.66237
 C398 C 0.89982 0.43003 0.67959
 C399 C 0.88289 0.45794 0.66799
 C400 C 0.85170 0.44293 0.63924
 C401 C 0.83656 0.39903 0.62160
 C402 C 0.85256 0.37052 0.63360
 C403 C 0.80608 0.38479 0.59220
 C404 C 0.79061 0.41400 0.58032
 C405 C 0.80572 0.45731 0.59854
 C406 C 0.83594 0.47162 0.62764
 H407 H 0.89450 0.49197 0.68104
 H408 H 0.84125 0.33665 0.62049
 H409 H 0.79455 0.35115 0.57861
 H410 H 0.84722 0.50535 0.64098
 H411 H 0.89648 0.36376 0.67074
 H412 H 0.79440 0.48049 0.59018
 C413 C 0.50313 0.61752 0.66911
 C414 C 0.47345 0.56937 0.68109
 C415 C 0.42815 0.53835 0.66553
 C416 C 0.41316 0.55490 0.63795
 C417 C 0.44352 0.60322 0.62596
 C418 C 0.48827 0.63432 0.64192
 C419 C 0.42893 0.61950 0.59794
 C420 C 0.38440 0.58796 0.58142
 C421 C 0.35437 0.54004 0.59382
 C422 C 0.36855 0.52372 0.62182
 H423 H 0.40493 0.50112 0.67438
 H424 H 0.51201 0.67150 0.63312
 H425 H 0.45252 0.65653 0.58876
 H426 H 0.34476 0.48657 0.63067
 H427 H 0.53814 0.64229 0.68064
 H428 H 0.31979 0.51493 0.58180
 C429 C 0.38352 0.88152 0.65238
 C430 C 0.42995 0.90117 0.66576
 C431 C 0.45702 0.88440 0.65182
 C432 C 0.43807 0.84896 0.62500
 C433 C 0.39140 0.82966 0.61214
 C434 C 0.36449 0.84615 0.62600
 C435 C 0.37227 0.79420 0.58553
 C436 C 0.39920 0.77771 0.57118
 C437 C 0.44576 0.79730 0.58400
 C438 C 0.46496 0.83250 0.61072
 H439 H 0.49284 0.89898 0.66158
 H440 H 0.32866 0.83175 0.61640
 H441 H 0.33640 0.77965 0.57591
 H442 H 0.50083 0.84684 0.62018
 H443 H 0.36147 0.89331 0.66233
 H444 H 0.46729 0.78518 0.57354
 C445 C 0.10920 0.48919 0.67483
 C446 C 0.09332 0.51951 0.68276
 C447 C 0.11150 0.56209 0.66285
 C448 C 0.14388 0.57334 0.63512
 C449 C 0.15902 0.54226 0.62749
 C450 C 0.14173 0.50054 0.64768
 C451 C 0.19084 0.55303 0.59957
 C452 C 0.20750 0.59435 0.57870
 C453 C 0.19232 0.62516 0.58658
 C454 C 0.16097 0.61485 0.61455
 H455 H 0.09986 0.58598 0.66835
 H456 H 0.15298 0.47632 0.64225
 H457 H 0.20213 0.52890 0.59388
 H458 H 0.14986 0.63919 0.61992
 H459 H 0.09636 0.45622 0.68953
 H460 H 0.20476 0.65745 0.57114
 C461 C 0.51572 0.62164 0.84346
 C462 C 0.48270 0.57474 0.83008
 C463 C 0.43646 0.54689 0.84466
 C464 C 0.42336 0.56543 0.87220
 C465 C 0.45687 0.61252 0.88555
 C466 C 0.50293 0.64036 0.87097
 C467 C 0.44370 0.63100 0.91317
 C468 C 0.39729 0.60310 0.92755
 C469 C 0.36430 0.55630 0.91394
 C470 C 0.37725 0.53762 0.88659
 H471 H 0.41054 0.51066 0.83463
 H472 H 0.52907 0.67657 0.88085
 H473 H 0.46949 0.66725 0.92320
 H474 H 0.35113 0.50144 0.87663
 H475 H 0.55156 0.64384 0.83276
 H476 H 0.32835 0.53399 0.92443
 C477 C 0.12222 0.59811 0.83335
 C478 C 0.09839 0.54768 0.82807
 C479 C 0.11097 0.52172 0.84904
 C480 C 0.14644 0.54582 0.87519
 C481 C 0.16990 0.59648 0.88019
 C482 C 0.15762 0.62225 0.85904
 C483 C 0.20510 0.62061 0.90638
 C484 C 0.21716 0.59481 0.92800
 C485 C 0.19363 0.54438 0.92275
 C486 C 0.15870 0.52017 0.89660
 H487 H 0.09288 0.48287 0.84533
 H488 H 0.17524 0.66108 0.86246
 H489 H 0.22283 0.65944 0.91003
 H490 H 0.14119 0.48136 0.89320
 H491 H 0.11352 0.61919 0.81754
 H492 H 0.20224 0.52348 0.93886
 C493 C 0.38399 0.88624 0.83087
 C494 C 0.42664 0.89991 0.81356
 C495 C 0.45214 0.88034 0.82491
 C496 C 0.43625 0.84883 0.85372
 C497 C 0.39400 0.83623 0.87153
 C498 C 0.36779 0.85464 0.85964
 C499 C 0.37913 0.80600 0.90118
 C500 C 0.40599 0.78820 0.91325
 C501 C 0.44746 0.80035 0.89478
 C502 C 0.46246 0.83041 0.86534
 H503 H 0.48497 0.89028 0.81173
 H504 H 0.33519 0.84520 0.87290
 H505 H 0.34685 0.79666 0.91494
 H506 H 0.49488 0.83965 0.85186
 H507 H 0.36370 0.90079 0.82267
 H508 H 0.46875 0.78710 0.90334
 C509 C 0.61951 0.50472 0.83576
 C510 C 0.57089 0.47554 0.82611
 C511 C 0.54052 0.43092 0.84326
 C512 C 0.55830 0.41597 0.86993
 C513 C 0.60713 0.44580 0.87957
 C514 C 0.63746 0.48998 0.86217
 C515 C 0.62474 0.43115 0.90660
 C516 C 0.59407 0.38705 0.92433
 C517 C 0.54561 0.35757 0.91425
 C518 C 0.52793 0.37185 0.88734
 H519 H 0.50298 0.40802 0.83616
 H520 H 0.67500 0.51331 0.86915
 H521 H 0.66217 0.45430 0.91397
 H522 H 0.49042 0.34848 0.88029
 H523 H 0.64378 0.53923 0.82300
 H524 H 0.52109 0.32333 0.92727
 C525 C 0.87141 0.38127 0.83727
 C526 C 0.89626 0.43076 0.82835
 C527 C 0.88513 0.46049 0.84618
 C528 C 0.85026 0.44103 0.87301
 C529 C 0.82603 0.39131 0.88173
 C530 C 0.83666 0.36177 0.86355
 C531 C 0.79175 0.37179 0.90867
 C532 C 0.78115 0.40119 0.92751
 C533 C 0.80525 0.45062 0.91857
 C534 C 0.83941 0.47033 0.89157
 H535 H 0.90403 0.49868 0.83966
 H536 H 0.81834 0.32356 0.86984
 H537 H 0.77356 0.33362 0.91508
 H538 H 0.85751 0.50852 0.88535
 H539 H 0.87888 0.35734 0.82392
 H540 H 0.79778 0.47419 0.93250
 C541 C 0.49791 0.11965 0.82095
 C542 C 0.52343 0.09840 0.81437
 C543 C 0.56248 0.11082 0.83606
 C544 C 0.57515 0.14321 0.86441
 C545 C 0.54885 0.16388 0.87093
 C546 C 0.51057 0.15216 0.84887
 C547 C 0.56096 0.19562 0.89956
 C548 C 0.59899 0.20695 0.92204
 C549 C 0.62508 0.18635 0.91517
 C550 C 0.61330 0.15484 0.88664
 H551 H 0.58233 0.09458 0.83136
 H552 H 0.49010 0.16774 0.85340
 H553 H 0.54059 0.21127 0.90439
 H554 H 0.63389 0.13940 0.88208
 H555 H 0.46778 0.11090 0.80459
 H556 H 0.65472 0.19456 0.93190
   
