data_POSCAR
  _audit_creation_date              2014-09-24
  _audit_creation_method            'ToBaCCo'
  _symmetry_space_group_name_H-M    'P1'
  _symmetry_Int_Tables_number       1
  _symmetry_cell_setting            triclinic
  loop_
  _symmetry_equiv_pos_as_xyz
 x,y,z
_cell_length_a 8.1525
_cell_length_b 27.4248
_cell_length_c 11.3686
_cell_angle_alpha 89.852000
_cell_angle_beta 82.705800
_cell_angle_gamma 91.380800
loop_
  _atom_site_label
  _atom_site_type_symbol
  _atom_site_fract_x
  _atom_site_fract_y
  _atom_site_fract_z
C1 C 0.69646 0.14857 0.40749
 C2 C 0.70238 0.12504 0.51647
 C3 C 0.74591 0.14895 0.61731
 C4 C 0.77205 0.20070 0.61123
 C5 C 0.74829 0.22624 0.50504
 C6 C 0.70604 0.20018 0.40460
 C7 C 0.66929 0.22656 0.30584
 C8 C 0.69050 0.27685 0.29927
 C9 C 0.74963 0.30345 0.39132
 C10 C 0.77186 0.27800 0.49770
 C11 C 0.82938 0.22774 0.70365
 C12 C 0.84931 0.27808 0.69709
 C13 C 0.81488 0.30423 0.59754
 C14 C 0.82944 0.35580 0.59277
 C15 C 0.82932 0.37881 0.48244
 C16 C 0.78375 0.35462 0.38295
 H17 H 0.61806 0.20880 0.23350
 H18 H 0.65726 0.29370 0.22069
 H19 H 0.86460 0.21137 0.78210
 H20 H 0.89978 0.29602 0.76954
 H21 H 0.67991 0.08595 0.52165
 H22 H 0.85410 0.41777 0.47536
 C23 C 0.27879 0.85100 0.59868
 C24 C 0.26669 0.87463 0.49106
 C25 C 0.23061 0.85012 0.38921
 C26 C 0.21314 0.79827 0.39412
 C27 C 0.24049 0.77300 0.49985
 C28 C 0.27630 0.79959 0.60107
 C29 C 0.31450 0.77419 0.70038
 C30 C 0.30781 0.72368 0.70479
 C31 C 0.26010 0.69573 0.61040
 C32 C 0.23064 0.72098 0.50498
 C33 C 0.16706 0.77069 0.29905
 C34 C 0.15870 0.72009 0.30366
 C35 C 0.19631 0.69446 0.40320
 C36 C 0.19761 0.64299 0.40466
 C37 C 0.21381 0.61919 0.51150
 C38 C 0.24946 0.64360 0.61379
 H39 H 0.35705 0.79306 0.77462
 H40 H 0.34523 0.70810 0.78337
 H41 H 0.13523 0.78695 0.21936
 H42 H 0.11752 0.70135 0.22881
 H43 H 0.27936 0.91398 0.48777
 H44 H 0.20395 0.57975 0.51392
 C45 C 0.31170 0.14406 -0.40576
 C46 C 0.30343 0.12057 -0.51443
 C47 C 0.26229 0.14446 -0.61540
 C48 C 0.24136 0.19603 -0.60994
 C49 C 0.26906 0.22163 -0.50456
 C50 C 0.30752 0.19565 -0.40351
 C51 C 0.34606 0.22209 -0.30476
 C52 C 0.33264 0.27243 -0.29970
 C53 C 0.27972 0.29896 -0.39325
 C54 C 0.25301 0.27334 -0.49869
 C55 C 0.18407 0.22275 -0.70192
 C56 C 0.17138 0.27300 -0.69688
 C57 C 0.21291 0.29934 -0.59919
 C58 C 0.20851 0.35087 -0.59686
 C59 C 0.21422 0.37415 -0.48777
 C60 C 0.25543 0.35021 -0.38722
 H61 H 0.39276 0.20433 -0.23126
 H62 H 0.36649 0.28941 -0.22104
 H63 H 0.14281 0.20618 -0.77859
 H64 H 0.12084 0.29070 -0.76885
 H65 H 0.32055 0.08152 -0.51918
 H66 H 0.19608 0.41313 -0.48247
 C67 C -0.34438 0.85463 -0.58997
 C68 C -0.34430 0.87747 -0.47975
 C69 C -0.29632 0.85394 -0.38088
 C70 C -0.25807 0.80358 -0.38981
 C71 C -0.27925 0.77794 -0.49613
 C72 C -0.32704 0.80336 -0.59496
 C73 C -0.36117 0.77662 -0.69416
 C74 C -0.33435 0.72692 -0.70199
 C75 C -0.27002 0.70124 -0.61130
 C76 C -0.24866 0.72693 -0.50482
 C77 C -0.19482 0.77820 -0.29859
 C78 C -0.16770 0.72850 -0.30620
 C79 C -0.20165 0.70163 -0.40545
 C80 C -0.18464 0.65040 -0.40973
 C81 C -0.18877 0.62712 -0.51897
 C82 C -0.23575 0.65039 -0.61901
 H83 H -0.41615 0.79347 -0.76530
 H84 H -0.37016 0.70973 -0.77975
 H85 H -0.16267 0.79568 -0.22004
 H86 H -0.11418 0.71166 -0.23437
 H87 H -0.37043 0.91599 -0.47237
 H88 H -0.16241 0.58860 -0.52503
 N89 N 0.12934 1.05112 0.20806
 N90 N 0.17716 1.06674 0.30819
 N91 N -0.19191 1.09021 0.13421
 N92 N -0.23812 1.13342 0.19371
 N93 N -0.21628 1.05383 0.21063
 N94 N -0.28255 1.06970 0.31464
 N95 N 0.15093 1.08599 0.12707
 N96 N 0.21491 1.12767 0.17735
 C97 C 0.22796 1.11376 0.28979
 C98 C -0.29360 1.11846 0.30549
 N99 N -0.14208 1.05430 -0.20461
 N100 N -0.18525 1.07067 -0.30504
 N101 N 0.18518 1.08792 -0.13271
 N102 N 0.23511 1.12824 -0.19307
 N103 N 0.20613 1.04979 -0.20258
 N104 N 0.28803 1.06498 -0.31152
 N105 N -0.15526 1.08892 -0.12410
 N106 N -0.20735 1.13141 -0.17520
 Mn107 Mn -0.00268 1.08781 0.00149
 C108 C -0.22420 1.11799 -0.28747
 C109 C 0.29787 1.11388 -0.30321
 N110 N -0.23972 0.94988 0.20966
 N111 N -0.32019 0.93428 0.31881
 N112 N 0.11661 0.90989 0.13174
 N113 N 0.16906 0.86974 0.17880
 N114 N 0.10817 0.94536 0.20985
 N115 N 0.15724 0.92992 0.30899
 N116 N -0.22166 0.91205 0.13834
 N117 N -0.27225 0.87162 0.19775
 Mn118 Mn -0.05374 0.99985 0.20780
 C119 C -0.33221 0.88546 0.30879
 C120 C 0.19658 0.88287 0.28944
 N121 N 0.18480 0.94615 -0.20214
 N122 N 0.26099 0.93125 -0.30416
 N123 N -0.18398 0.91344 -0.12297
 N124 N -0.24707 0.87401 -0.16928
 N125 N -0.16092 0.94860 -0.20318
 N126 N -0.20935 0.93343 -0.30328
 N127 N 0.15468 0.90896 -0.12864
 N128 N 0.20077 0.86814 -0.18429
 Mn129 Mn 0.02120 0.99984 -0.20152
 Mn130 Mn -0.03366 0.91149 0.00451
 Cl131 Cl -0.01747 0.99973 0.00309
 C132 C 0.27045 0.88255 -0.29365
 C133 C -0.26372 0.88706 -0.28179
 N134 N 0.37205 0.41079 -0.13091
 N135 N 0.31317 0.37060 -0.17676
 N136 N 0.73674 0.45046 -0.20787
 N137 N 0.81572 0.43517 -0.31651
 N138 N 0.71081 0.41239 -0.13638
 N139 N 0.75509 0.37209 -0.19525
 N140 N 0.38905 0.44602 -0.21074
 N141 N 0.34029 0.43030 -0.31021
 C142 C 0.29170 0.38339 -0.28867
 C143 C 0.81917 0.38632 -0.30609
 N144 N 0.70294 0.59175 -0.13830
 N145 N 0.74365 0.63289 -0.19770
 N146 N 0.38416 0.55153 -0.21056
 N147 N 0.33760 0.56699 -0.31078
 N148 N 0.36215 0.58567 -0.12908
 N149 N 0.29946 0.62681 -0.17918
 N150 N 0.73273 0.55415 -0.20882
 N151 N 0.81043 0.57097 -0.31768
 Mn152 Mn 0.55978 0.50053 -0.20797
 C153 C 0.80920 0.61990 -0.30820
 C154 C 0.28677 0.61324 -0.29195
 N155 N 0.67214 0.41336 0.12455
 N156 N 0.72937 0.37398 0.17171
 N157 N 0.31316 0.44582 0.20502
 N158 N 0.24402 0.42983 0.30928
 N159 N 0.33051 0.40960 0.12890
 N160 N 0.27644 0.36635 0.18914
 N161 N 0.65867 0.44884 0.20285
 N162 N 0.70776 0.43396 0.30257
 Mn163 Mn 0.52145 0.41195 -0.00310
 C164 C 0.75278 0.38739 0.28285
 C165 C 0.22393 0.38115 0.30074
 N166 N 0.32891 0.58724 0.13039
 N167 N 0.27469 0.62712 0.18683
 N168 N 0.65583 0.55480 0.20151
 N169 N 0.69918 0.57140 0.30206
 N170 N 0.66979 0.58993 0.12115
 N171 N 0.72217 0.63291 0.17279
 N172 N 0.30814 0.54976 0.20352
 N173 N 0.22979 0.56330 0.30604
 Mn174 Mn 0.51582 0.58819 -0.00393
 Mn175 Mn 0.48479 0.49987 0.20139
 Cl176 Cl 0.52036 0.50006 -0.00336
 C177 C 0.20963 0.61166 0.29639
 C178 C 0.73798 0.61930 0.28503
   
