data_POSCAR
  _audit_creation_date              2014-09-24
  _audit_creation_method            'ToBaCCo'
  _symmetry_space_group_name_H-M    'P1'
  _symmetry_Int_Tables_number       1
  _symmetry_cell_setting            triclinic
  loop_
  _symmetry_equiv_pos_as_xyz
 x,y,z
_cell_length_a 24.7751
_cell_length_b 24.7393
_cell_length_c 24.6141
_cell_angle_alpha 91.770100
_cell_angle_beta 89.669000
_cell_angle_gamma 90.478000
loop_
  _atom_site_label
  _atom_site_type_symbol
  _atom_site_fract_x
  _atom_site_fract_y
  _atom_site_fract_z
C1 C 0.29710 0.45800 1.00512
 C2 C 0.26861 0.50602 1.00336
 C3 C 0.29535 0.55573 1.00492
 C4 C 0.35185 0.55858 1.00983
 C5 C 0.38079 0.50919 1.01158
 C6 C 0.35316 0.45889 1.00827
 C7 C 0.21006 0.50403 1.00230
 C8 C 0.18166 0.49871 1.05080
 C9 C 0.12521 0.49291 1.05102
 C10 C 0.09795 0.49336 1.00036
 C11 C 0.12712 0.50040 0.95142
 C12 C 0.18320 0.50514 0.95297
 H13 H 0.27546 0.41969 1.00315
 H14 H 0.27121 0.59206 1.00552
 H15 H 0.20452 0.49623 1.08804
 H16 H 0.20611 0.50992 0.91571
 H17 H 0.42445 0.50947 1.01362
 H18 H 0.05436 0.48999 0.99884
 C19 C 0.68043 0.46084 -0.00256
 C20 C 0.70892 0.50941 -0.00491
 C21 C 0.68199 0.55817 -0.00943
 C22 C 0.62559 0.55907 -0.01102
 C23 C 0.59639 0.50979 -0.00806
 C24 C 0.62421 0.46044 -0.00397
 C25 C 0.76742 0.50862 -0.00391
 C26 C 0.79588 0.50639 -0.05276
 C27 C 0.85210 0.49966 -0.05347
 C28 C 0.87922 0.49716 -0.00285
 C29 C 0.85007 0.50169 0.04671
 C30 C 0.79406 0.50641 0.04549
 H31 H 0.70220 0.42324 0.00088
 H32 H 0.70515 0.59539 -0.01213
 H33 H 0.77310 0.50611 -0.09023
 H34 H 0.77104 0.50881 0.08309
 H35 H 0.55266 0.50983 -0.00866
 H36 H 0.92272 0.49324 -0.00168
 C37 C 0.06464 0.18998 0.50102
 C38 C 0.01512 0.21558 0.49632
 C39 C -0.03281 0.18591 0.49596
 C40 C -0.03198 0.12989 0.49983
 C41 C 0.01803 0.10338 0.50418
 C42 C 0.06676 0.13374 0.50499
 C43 C 0.01237 0.27406 0.49469
 C44 C 0.00381 0.29883 0.44546
 C45 C -0.00673 0.35457 0.44398
 C46 C -0.00784 0.38476 0.49414
 C47 C 0.00214 0.35921 0.54369
 C48 C 0.01196 0.30393 0.54332
 H49 H 0.10142 0.21404 0.50230
 H50 H -0.07102 0.20665 0.49261
 H51 H 0.00202 0.27344 0.40884
 H52 H 0.01840 0.28376 0.58124
 H53 H 0.01899 0.05976 0.50680
 H54 H -0.01497 0.42791 0.49491
 C55 C 1.06477 0.80077 0.49894
 C56 C 1.01544 0.77357 0.50208
 C57 C 0.96711 0.80168 0.50150
 C58 C 0.96720 0.85763 0.49751
 C59 C 1.01692 0.88559 0.49251
 C60 C 1.06665 0.85717 0.49334
 C61 C 1.01342 0.71490 0.50288
 C62 C 1.00828 0.68914 0.55220
 C63 C 0.99792 0.63325 0.55341
 C64 C 0.99452 0.60365 0.50305
 C65 C 1.00158 0.62993 0.45330
 C66 C 1.01039 0.68562 0.45383
 H67 H 1.10140 0.77711 0.49780
 H68 H 0.92916 0.77975 0.50459
 H69 H 1.00866 0.71378 0.58938
 H70 H 1.01449 0.70649 0.41589
 H71 H 1.01661 0.92922 0.48990
 H72 H 0.98788 0.56030 0.50224
 C73 C 0.51150 0.06176 0.19533
 C74 C 0.51749 0.01312 0.22152
 C75 C 0.51755 -0.03582 0.19218
 C76 C 0.51111 -0.03700 0.13593
 C77 C 0.50485 0.01219 0.10892
 C78 C 0.50499 0.06193 0.13897
 C79 C 0.51828 0.01241 0.28039
 C80 C 0.46949 0.01282 0.30862
 C81 C 0.46853 0.00775 0.36484
 C82 C 0.51770 0.00223 0.39299
 C83 C 0.56729 0.00167 0.36404
 C84 C 0.56690 0.00690 0.30764
 H85 H 0.51028 0.09938 0.21911
 H86 H 0.52172 -0.07328 0.21351
 H87 H 0.43200 0.01660 0.28653
 H88 H 0.60435 0.00537 0.28464
 H89 H 0.49936 0.01173 0.06527
 H90 H 0.51734 -0.00183 0.43670
 C91 C 0.50482 0.05130 0.80962
 C92 C 0.50839 0.00225 0.78080
 C93 C 0.50169 -0.04645 0.80693
 C94 C 0.49041 -0.04743 0.86294
 C95 C 0.48661 0.00295 0.89215
 C96 C 0.49444 0.05221 0.86533
 C97 C 0.51175 0.00155 0.72187
 C98 C 0.56158 0.00156 0.69535
 C99 C 0.56399 -0.00074 0.63852
 C100 C 0.51539 -0.00384 0.60847
 C101 C 0.46501 -0.00436 0.63583
 C102 C 0.46400 -0.00142 0.69248
 H103 H 0.50965 0.08889 0.78849
 H104 H 0.50175 -0.08338 0.78210
 H105 H 0.59840 0.00376 0.71895
 H106 H 0.42574 -0.00247 0.71413
 H107 H 0.47934 0.00423 0.93559
 H108 H 0.51681 -0.00576 0.56444
 C109 C 0.35154 0.04930 0.45498
 H110 H 0.34300 0.07816 0.48775
 C111 C 0.40271 0.04879 0.43093
 H112 H 0.43237 0.07924 0.44288
 C113 C 0.32501 -0.02876 0.40309
 H114 H 0.29612 -0.06109 0.39545
 C115 C 0.37533 -0.02989 0.37698
 H116 H 0.38383 -0.06146 0.34675
 N117 N 0.31462 0.00992 0.44204
 C118 C 0.17974 0.04469 0.55136
 H119 H 0.18558 0.01227 0.57919
 C120 C 0.12980 0.07036 0.54978
 H121 H 0.09844 0.05978 0.57847
 C122 C 0.21142 0.09365 0.47602
 H123 H 0.24161 0.09943 0.44480
 C124 C 0.16245 0.12112 0.47377
 H125 H 0.15640 0.14996 0.44220
 Zn126 Zn 0.26523 -0.00322 0.49849
 N127 N 0.21836 0.05506 0.51340
 C128 C 0.32123 0.02349 0.59457
 N129 N 0.31330 -0.01580 0.55560
 C130 C 0.35196 -0.05325 0.54358
 C131 C 0.40242 -0.04991 0.56869
 C132 C 0.37072 0.02763 0.62137
 C133 C 0.17358 -0.04528 0.45180
 C134 C 0.12361 -0.07154 0.45502
 C135 C 0.16334 -0.13411 0.51635
 C136 C 0.21173 -0.10450 0.51451
 N137 N 0.21551 -0.06027 0.48338
 H138 H 0.29114 0.05439 0.60147
 H139 H 0.34549 -0.08255 0.51069
 H140 H 0.43343 -0.07884 0.55751
 H141 H 0.37714 0.06013 0.65119
 H142 H 0.17728 -0.00938 0.42805
 H143 H 0.09041 -0.05700 0.43121
 H144 H 0.16086 -0.16764 0.54351
 H145 H 0.24463 -0.11444 0.54099
 C146 C 0.12022 0.10788 0.50958
 C147 C 0.41538 0.00811 0.39240
 C148 C 0.11734 -0.11632 0.48829
 C149 C 0.41259 -0.00832 0.60720
 C150 C 0.68161 0.04327 0.55186
 H151 H 0.69040 0.07311 0.52178
 C152 C 0.63089 0.04260 0.57689
 H153 H 0.60185 0.07362 0.56819
 C154 C 0.70674 -0.03669 0.59571
 H155 H 0.73477 -0.06958 0.59973
 C156 C 0.65689 -0.03796 0.62286
 H157 H 0.64793 -0.07047 0.65005
 N158 N 0.71754 0.00300 0.56012
 C159 C 0.85301 0.03979 0.45312
 H160 H 0.84478 0.00920 0.42186
 C161 C 0.90369 0.06481 0.45511
 H162 H 0.93330 0.05582 0.42364
 C163 C 0.82605 0.08550 0.53487
 H164 H 0.79717 0.09043 0.56773
 C165 C 0.87584 0.11251 0.53762
 H166 H 0.88393 0.14078 0.57112
 Zn167 Zn 0.76638 -0.00780 0.50168
 N168 N 0.81609 0.04926 0.49345
 C169 C 0.71205 0.02469 0.40793
 N170 N 0.71825 -0.01612 0.44302
 C171 C 0.67844 -0.05349 0.45060
 C172 C 0.62844 -0.04838 0.42536
 C173 C 0.66308 0.03052 0.38088
 C174 C 0.85126 -0.05698 0.54925
 C175 C 0.90222 -0.08060 0.54545
 C176 C 0.87426 -0.12636 0.46205
 C177 C 0.82417 -0.10073 0.46663
 N178 N 0.81416 -0.06593 0.50928
 H179 H 0.74315 0.05534 0.40453
 H180 H 0.68370 -0.08420 0.48042
 H181 H 0.59637 -0.07709 0.43344
 H182 H 0.65791 0.06425 0.35442
 H183 H 0.84315 -0.02731 0.58141
 H184 H 0.93199 -0.07179 0.57660
 H185 H 0.88238 -0.15334 0.42753
 H186 H 0.79524 -0.10514 0.43402
 C187 C 0.91583 0.10070 0.49837
 C188 C 0.61764 0.00090 0.61180
 C189 C 0.91457 -0.11463 0.50074
 C190 C 0.61995 -0.00516 0.39110
 C191 C 0.44490 0.17258 1.05662
 H192 H 0.41232 0.17763 1.02820
 C193 C 0.45134 0.12283 1.08101
 H194 H 0.42193 0.09080 1.07383
 C195 C 0.52612 0.20617 1.09607
 H196 H 0.55724 0.23705 1.09831
 C197 C 0.53334 0.15747 1.12238
 H198 H 0.56869 0.15233 1.14733
 N199 N 0.48310 0.21216 1.06284
 C200 C 0.43632 0.34109 0.95623
 H201 H 0.46410 0.33164 0.92329
 C202 C 0.41276 0.39219 0.95989
 H203 H 0.41960 0.42064 0.92794
 C204 C 0.39744 0.31743 1.04060
 H205 H 0.39498 0.28986 1.07379
 C206 C 0.37192 0.36770 1.04513
 H207 H 0.34686 0.37721 1.08027
 Zn208 Zn 0.48822 0.25810 1.00351
 N209 N 0.42975 0.30565 0.99705
 C210 C 0.45409 0.19347 0.91204
 N211 N 0.49586 0.20687 0.94560
 C212 C 0.53770 0.17242 0.95247
 C213 C 0.53727 0.12101 0.92748
 C214 C 0.45278 0.14272 0.88510
 C215 C 0.53861 0.34680 1.04894
 C216 C 0.56311 0.39754 1.04492
 C217 C 0.60584 0.36603 0.96142
 C218 C 0.57936 0.31623 0.96623
 N219 N 0.54573 0.30806 1.00907
 H220 H 0.42011 0.22039 0.90919
 H221 H 0.56927 0.18323 0.98108
 H222 H 0.57010 0.09346 0.93442
 H223 H 0.41919 0.13192 0.85886
 H224 H 0.51000 0.33991 1.08141
 H225 H 0.55578 0.42864 1.07596
 H226 H 0.63185 0.37273 0.92671
 H227 H 0.58239 0.28588 0.93381
 C228 C 0.38126 0.40637 1.00540
 C229 C 0.49677 0.11444 1.11312
 C230 C 0.59613 0.40786 1.00011
 C231 C 0.49385 0.10532 0.89440
 C232 C 0.43866 0.84957 -0.04128
 H233 H 0.41181 0.84619 -0.00670
 C234 C 0.44498 0.89731 -0.06480
 H235 H 0.42122 0.93136 -0.05027
 C236 C 0.50251 0.80603 -0.10045
 H237 H 0.53065 0.77372 -0.10917
 C238 C 0.50743 0.85664 -0.13043
 H239 H 0.53645 0.85717 -0.16342
 N240 N 0.47140 0.80412 -0.05789
 C241 C 0.45079 0.66651 0.05126
 H242 H 0.48636 0.67230 0.07613
 C243 C 0.42691 0.61783 0.04772
 H244 H 0.44233 0.58541 0.07160
 C245 C 0.38932 0.70496 -0.01071
 H246 H 0.37931 0.73581 -0.03906
 C247 C 0.35865 0.65337 -0.01182
 H248 H 0.32394 0.65031 -0.03827
 Zn249 Zn 0.48878 0.75815 -0.00099
 N250 N 0.43299 0.70976 0.01806
 C251 C 0.47257 0.81886 0.09674
 N252 N 0.50681 0.80906 0.05436
 C253 C 0.54427 0.84644 0.03930
 C254 C 0.54599 0.89757 0.06494
 C255 C 0.47383 0.86908 0.12435
 C256 C 0.53168 0.66927 -0.05424
 C257 C 0.55767 0.61944 -0.05298
 C258 C 0.61437 0.65602 0.01904
 C259 C 0.58664 0.70485 0.01714
 N260 N 0.54514 0.70991 -0.01811
 H261 H 0.44162 0.78950 0.10630
 H262 H 0.56947 0.83826 0.00401
 H263 H 0.57465 0.92763 0.05136
 H264 H 0.44547 0.87714 0.15721
 H265 H 0.49700 0.67366 -0.08020
 H266 H 0.54495 0.58663 -0.08023
 H267 H 0.64576 0.65165 0.04899
 H268 H 0.59494 0.73667 0.04710
 C269 C 0.37798 0.60980 0.01375
 C270 C 0.48229 0.90219 -0.11193
 C271 C 0.59855 0.61199 -0.01495
 C272 C 0.50968 0.90964 0.10720
 C273 C 1.02412 0.44383 0.15142
 H274 H 0.98902 0.41764 0.15344
 C275 C 1.04910 0.45048 0.10372
 H276 H 1.03500 0.42790 0.06811
 C277 C 1.08328 0.50548 0.19849
 H278 H 1.09211 0.53240 0.23277
 C279 C 1.11522 0.50995 0.14792
 H280 H 1.14953 0.53732 0.14877
 N281 N 1.04018 0.47522 0.19896
 C282 C 0.93656 0.44708 0.34212
 H283 H 0.90889 0.48051 0.33967
 C284 C 0.94481 0.42429 0.38994
 H285 H 0.92183 0.43817 0.42513
 C286 C 1.00036 0.39015 0.29597
 H287 H 1.02778 0.38231 0.26236
 C288 C 1.00692 0.36042 0.34671
 H289 H 1.03615 0.32815 0.34631
 Zn290 Zn 0.98331 0.48927 0.24884
 N291 N 0.96854 0.43160 0.29526
 C292 C 0.88727 0.46716 0.19052
 N293 N 0.92657 0.50461 0.20117
 C294 C 0.93937 0.54319 0.16483
 C295 C 0.91530 0.54253 0.11363
 C296 C 0.86115 0.46597 0.14021
 C297 C 1.03634 0.53268 0.33754
 C298 C 1.03738 0.55922 0.38842
 C299 C 0.96452 0.61565 0.35934
 C300 C 0.96385 0.58704 0.30937
 N301 N 0.99886 0.54574 0.29994
 H302 H 0.87958 0.43545 0.21891
 H303 H 0.97238 0.57100 0.17346
 H304 H 0.92744 0.57204 0.08425
 H305 H 0.83096 0.43507 0.13138
 H306 H 1.06225 0.49828 0.32981
 H307 H 1.06614 0.54716 0.41864
 H308 H 0.93577 0.64776 0.36706
 H309 H 0.93296 0.59517 0.27993
 C310 C 0.98306 0.37861 0.39347
 C311 C 1.09759 0.48597 0.10094
 C312 C 1.00040 0.60042 0.40011
 C313 C 0.87675 0.50268 0.10040
 C314 C -0.04997 0.45021 0.84117
 H315 H -0.01637 0.42278 0.83646
 C316 C -0.07417 0.45655 0.88964
 H317 H -0.06114 0.43245 0.92305
 C318 C -0.10575 0.51560 0.80026
 H319 H -0.11302 0.54388 0.76854
 C320 C -0.13711 0.51987 0.85145
 H321 H -0.16997 0.54845 0.85340
 N322 N -0.06447 0.48363 0.79676
 C323 C 0.04467 0.45194 0.66032
 H324 H 0.07312 0.48458 0.66834
 C325 C 0.04316 0.42685 0.60873
 H326 H 0.07266 0.43772 0.57822
 C327 C -0.03168 0.40136 0.68870
 H328 H -0.06299 0.39449 0.71857
 C329 C -0.03377 0.37432 0.63799
 H330 H -0.06483 0.34405 0.63015
 Zn331 Zn -0.00678 0.49737 0.74878
 N332 N 0.00646 0.44023 0.69831
 C333 C 0.08850 0.47205 0.80474
 N334 N 0.05016 0.51023 0.79808
 C335 C 0.03856 0.54751 0.83826
 C336 C 0.06283 0.54464 0.88915
 C337 C 0.11481 0.46868 0.85465
 C338 C -0.05192 0.54035 0.65926
 C339 C -0.04662 0.56547 0.60951
 C340 C 0.01929 0.62617 0.65075
 C341 C 0.01497 0.59771 0.69888
 N342 N -0.01925 0.55475 0.70165
 H343 H 0.09529 0.44141 0.77321
 H344 H 0.00629 0.57596 0.83261
 H345 H 0.05161 0.57306 0.92153
 H346 H 0.14420 0.43719 0.86021
 H347 H -0.07807 0.50533 0.66218
 H348 H -0.07136 0.55126 0.57579
 H349 H 0.04901 0.65838 0.64889
 H350 H 0.04218 0.60705 0.73213
 C351 C 0.00276 0.38858 0.59682
 C352 C -0.12056 0.49383 0.89602
 C353 C -0.00978 0.60847 0.60405
 C354 C 0.10034 0.50394 0.89811
   
