data_POSCAR
  _audit_creation_date              2014-09-24
  _audit_creation_method            'ToBaCCo'
  _symmetry_space_group_name_H-M    'P1'
  _symmetry_Int_Tables_number       1
  _symmetry_cell_setting            triclinic
  loop_
  _symmetry_equiv_pos_as_xyz
 x,y,z
_cell_length_a 66.9758
_cell_length_b 67.0041
_cell_length_c 19.5557
_cell_angle_alpha 90.071200
_cell_angle_beta 89.903800
_cell_angle_gamma 119.919800
loop_
  _atom_site_label
  _atom_site_type_symbol
  _atom_site_fract_x
  _atom_site_fract_y
  _atom_site_fract_z
C1 C 0.24394 0.49297 0.53663
 C2 C 0.24391 0.49311 0.46689
 C3 C 0.22502 0.49312 0.42709
 C4 C 0.26267 0.49280 0.42729
 C5 C 0.26398 0.49528 0.57572
 C6 C 0.22384 0.49004 0.57670
 C7 C 0.21396 0.47683 0.37542
 C8 C 0.19570 0.47611 0.33900
 C9 C 0.18773 0.49176 0.35310
 C10 C 0.19966 0.50854 0.40449
 C11 C 0.21806 0.50929 0.44021
 C12 C 0.26730 0.47468 0.43512
 C13 C 0.28564 0.47501 0.40008
 C14 C 0.29969 0.49347 0.35668
 C15 C 0.29469 0.51135 0.34782
 C16 C 0.27620 0.51091 0.38244
 C17 C 0.28613 0.51409 0.56475
 C18 C 0.30517 0.51515 0.59732
 C19 C 0.30239 0.49753 0.64209
 C20 C 0.28005 0.47923 0.65527
 C21 C 0.26101 0.47816 0.62248
 C22 C 0.22649 0.50698 0.62382
 C23 C 0.20741 0.50497 0.65909
 C24 C 0.18542 0.48578 0.64863
 C25 C 0.18295 0.46848 0.60295
 C26 C 0.20200 0.47060 0.56725
 H27 H 0.21905 0.46414 0.36447
 H28 H 0.18718 0.46216 0.30291
 H29 H 0.19580 0.52204 0.41590
 H30 H 0.22694 0.52260 0.47823
 H31 H 0.25685 0.46045 0.46904
 H32 H 0.28920 0.46109 0.40817
 H33 H 0.27277 0.52495 0.37554
 H34 H 0.28870 0.52774 0.52994
 H35 H 0.32210 0.52969 0.58720
 H36 H 0.27737 0.46531 0.68907
 H37 H 0.24404 0.46354 0.63175
 H38 H 0.24325 0.52202 0.63202
 H39 H 0.20983 0.51840 0.69465
 H40 H 0.16618 0.45357 0.59364
 H41 H 0.19970 0.45723 0.53160
 H42 H 0.30508 0.52563 0.31404
 C43 C 0.51003 -0.24715 0.53637
 C44 C 0.50823 -0.24749 0.46678
 C45 C 0.50664 -0.26674 0.42493
 C46 C 0.50805 -0.22832 0.42932
 C47 C 0.50800 -0.22959 0.57750
 C48 C 0.51375 -0.26432 0.57406
 C49 C 0.52228 -0.26213 0.37132
 C50 C 0.52188 -0.28016 0.33429
 C51 C 0.50568 -0.30318 0.34980
 C52 C 0.48951 -0.30770 0.40206
 C53 C 0.48991 -0.28964 0.43904
 C54 C 0.52643 -0.20569 0.43599
 C55 C 0.52578 -0.18757 0.40284
 C56 C 0.50673 -0.19176 0.36245
 C57 C 0.48855 -0.21451 0.35484
 C58 C 0.48930 -0.23266 0.38759
 C59 C 0.48853 -0.22703 0.57109
 C60 C 0.48751 -0.20924 0.60503
 C61 C 0.50584 -0.19379 0.64668
 C62 C 0.52484 -0.19707 0.65569
 C63 C 0.52587 -0.21488 0.62144
 C64 C 0.49996 -0.27590 0.63065
 C65 C 0.50225 -0.29315 0.66359
 C66 C 0.51826 -0.29953 0.64013
 C67 C 0.53276 -0.28699 0.58500
 C68 C 0.53077 -0.26941 0.55331
 H69 H 0.53528 -0.24457 0.35954
 H70 H 0.53471 -0.27610 0.29486
 H71 H 0.47653 -0.32521 0.41434
 H72 H 0.47739 -0.29352 0.47934
 H73 H 0.54116 -0.20206 0.46745
 H74 H 0.53996 -0.17020 0.40994
 H75 H 0.47503 -0.25004 0.38160
 H76 H 0.47433 -0.23856 0.53858
 H77 H 0.47244 -0.20744 0.59826
 H78 H 0.53926 -0.18538 0.68718
 H79 H 0.54097 -0.21669 0.62728
 H80 H 0.48682 -0.27214 0.64800
 H81 H 0.49035 -0.30236 0.70465
 H82 H 0.54619 -0.29020 0.56703
 H83 H 0.54233 -0.26000 0.51166
 H84 H 0.47380 -0.21825 0.32334
 C85 C 1.24839 0.75333 0.53942
 C86 C 1.24824 0.75424 0.46976
 C87 C 1.26706 0.77344 0.43062
 C88 C 1.22906 0.73597 0.42947
 C89 C 1.23063 0.73304 0.57766
 C90 C 1.26621 0.77256 0.58050
 C91 C 1.26173 0.78530 0.38169
 C92 C 1.27920 0.80364 0.34529
 C93 C 1.30266 0.81074 0.35679
 C94 C 1.30774 0.79830 0.40542
 C95 C 1.29018 0.77980 0.44116
 C96 C 1.20634 0.73125 0.43908
 C97 C 1.18822 0.71308 0.40399
 C98 C 1.19253 0.69932 0.35885
 C99 C 1.21537 0.70449 0.34804
 C100 C 1.23350 0.72280 0.38265
 C101 C 1.22657 0.71084 0.56318
 C102 C 1.20874 0.69171 0.59580
 C103 C 1.19459 0.69422 0.64484
 C104 C 1.19969 0.71685 0.66131
 C105 C 1.21744 0.73593 0.62809
 C106 C 1.28060 0.76869 0.62350
 C107 C 1.29843 0.78692 0.65914
 C108 C 1.30213 0.80957 0.65362
 C109 C 1.28678 0.81298 0.61227
 C110 C 1.26915 0.79473 0.57602
 H111 H 1.24398 0.78066 0.37269
 H112 H 1.27406 0.81280 0.31060
 H113 H 1.32521 0.80209 0.41452
 H114 H 1.29467 0.77036 0.47702
 H115 H 1.20264 0.74140 0.47463
 H116 H 1.17077 0.70939 0.41354
 H117 H 1.25096 0.72630 0.37440
 H118 H 1.23710 0.70831 0.52599
 H119 H 1.20662 0.67503 0.58338
 H120 H 1.18926 0.72008 0.69693
 H121 H 1.22037 0.75298 0.64014
 H122 H 1.27834 0.75158 0.62833
 H123 H 1.30885 0.78292 0.69236
 H124 H 1.28896 0.82993 0.60439
 H125 H 1.25802 0.79796 0.54335
 H126 H 1.21917 0.69432 0.31290
 C127 C 0.75314 0.50617 0.53669
 C128 C 0.75242 0.50571 0.46688
 C129 C 0.77057 0.50507 0.42493
 C130 C 0.73326 0.50587 0.42918
 C131 C 0.73313 0.50345 0.57710
 C132 C 0.77354 0.50905 0.57567
 C133 C 0.78191 0.52169 0.37397
 C134 C 0.79996 0.52215 0.33688
 C135 C 0.80690 0.50586 0.34971
 C136 C 0.79494 0.48871 0.39914
 C137 C 0.77685 0.48825 0.43615
 C138 C 0.72863 0.52396 0.43803
 C139 C 0.70997 0.52352 0.40469
 C140 C 0.69560 0.50494 0.36205
 C141 C 0.70056 0.48707 0.35227
 C142 C 0.71936 0.48764 0.38513
 C143 C 0.71123 0.48426 0.56723
 C144 C 0.69212 0.48258 0.60117
 C145 C 0.69437 0.49994 0.64693
 C146 C 0.71681 0.51857 0.65922
 C147 C 0.73588 0.52027 0.62462
 C148 C 0.77045 0.49469 0.63155
 C149 C 0.78938 0.49672 0.66754
 C150 C 0.81211 0.51303 0.64800
 C151 C 0.81500 0.52778 0.59268
 C152 C 0.79599 0.52610 0.55804
 H153 H 0.77724 0.53476 0.36439
 H154 H 0.80895 0.53570 0.29962
 H155 H 0.79959 0.47566 0.40923
 H156 H 0.76797 0.47498 0.47429
 H157 H 0.73932 0.53828 0.47137
 H158 H 0.70646 0.53744 0.41343
 H159 H 0.72277 0.47360 0.37746
 H160 H 0.70889 0.47068 0.53242
 H161 H 0.67569 0.46723 0.59232
 H162 H 0.71976 0.53271 0.69235
 H163 H 0.75272 0.53517 0.63314
 H164 H 0.75330 0.48146 0.64648
 H165 H 0.78600 0.48454 0.70831
 H166 H 0.83190 0.54133 0.57734
 H167 H 0.79885 0.53810 0.51708
 H168 H 0.68993 0.47271 0.31903
 C169 C 0.49465 0.24673 0.53371
 C170 C 0.49650 0.24843 0.46413
 C171 C 0.49405 0.26636 0.42686
 C172 C 0.49953 0.23164 0.42181
 C173 C 0.49238 0.22628 0.57055
 C174 C 0.49422 0.26505 0.57576
 C175 C 0.47403 0.26792 0.43436
 C176 C 0.47184 0.28495 0.39986
 C177 C 0.48961 0.30069 0.35709
 C178 C 0.50952 0.29890 0.34900
 C179 C 0.51163 0.28174 0.38320
 C180 C 0.48438 0.22030 0.36748
 C181 C 0.48582 0.20320 0.33062
 C182 C 0.50252 0.19713 0.34713
 C183 C 0.51822 0.20906 0.40003
 C184 C 0.51686 0.22629 0.43663
 C185 C 0.50657 0.22915 0.62657
 C186 C 0.50540 0.21003 0.65914
 C187 C 0.49013 0.18745 0.63582
 C188 C 0.47527 0.18481 0.58106
 C189 C 0.47613 0.20392 0.54980
 C190 C 0.51128 0.28819 0.56816
 C191 C 0.51006 0.30544 0.60486
 C192 C 0.49186 0.30005 0.65137
 C193 C 0.47529 0.27653 0.66050
 C194 C 0.47649 0.25935 0.62319
 H195 H 0.46015 0.25598 0.46716
 H196 H 0.45638 0.28603 0.40741
 H197 H 0.52334 0.31064 0.31569
 H198 H 0.52711 0.28064 0.37642
 H199 H 0.47089 0.22414 0.35508
 H200 H 0.47334 0.19419 0.29063
 H201 H 0.52903 0.23515 0.47747
 H202 H 0.51909 0.24626 0.64387
 H203 H 0.51752 0.21324 0.69994
 H204 H 0.46236 0.16796 0.56325
 H205 H 0.46428 0.20125 0.50855
 H206 H 0.52556 0.29293 0.53339
 H207 H 0.52394 0.32292 0.59785
 H208 H 0.46056 0.27116 0.69365
 H209 H 0.46313 0.24157 0.62988
 H210 H 0.53150 0.20501 0.41317
 C211 C 0.75172 0.24759 0.53568
 C212 C 0.75014 0.24840 0.46624
 C213 C 0.73242 0.22837 0.42734
 C214 C 0.76677 0.26882 0.42607
 C215 C 0.77200 0.26555 0.57362
 C216 C 0.73334 0.22852 0.57639
 C217 C 0.73091 0.20678 0.43311
 C218 C 0.71386 0.18778 0.39798
 C219 C 0.69803 0.19004 0.35629
 C220 C 0.69980 0.21176 0.34974
 C221 C 0.71700 0.23082 0.38458
 C222 C 0.77949 0.26626 0.37316
 C223 C 0.79701 0.28560 0.34026
 C224 C 0.80202 0.30788 0.35930
 C225 C 0.78844 0.31030 0.40998
 C226 C 0.77091 0.29094 0.44281
 C227 C 0.76889 0.27648 0.63039
 C228 C 0.78787 0.29437 0.66358
 C229 C 0.81053 0.30200 0.64018
 C230 C 0.81341 0.29013 0.58475
 C231 C 0.79445 0.27196 0.55279
 C232 C 0.71022 0.22282 0.56969
 C233 C 0.69291 0.20423 0.60570
 C234 C 0.69841 0.19111 0.64977
 C235 C 0.72166 0.19729 0.65795
 C236 C 0.73895 0.21586 0.62171
 H237 H 0.74287 0.20464 0.46524
 H238 H 0.71279 0.17123 0.40437
 H239 H 0.68800 0.21402 0.31727
 H240 H 0.71804 0.24740 0.37922
 H241 H 0.77655 0.24933 0.35943
 H242 H 0.80726 0.28314 0.30189
 H243 H 0.76099 0.29324 0.48267
 H244 H 0.75169 0.27166 0.64771
 H245 H 0.78447 0.30301 0.70491
 H246 H 0.83035 0.29430 0.56682
 H247 H 0.79730 0.26308 0.51091
 H248 H 0.70557 0.23271 0.53616
 H249 H 0.67523 0.20019 0.59936
 H250 H 0.72642 0.18741 0.69109
 H251 H 0.75669 0.22002 0.62777
 H252 H 0.79154 0.32718 0.42481
 N253 N 0.97826 0.52788 0.07580
 N254 N 0.96093 0.53187 0.08181
 N255 N 1.02572 0.53474 0.12240
 N256 N 1.04325 0.54529 0.16485
 N257 N 1.02662 0.54895 0.07475
 N258 N 1.04476 0.56960 0.08365
 N259 N 0.97738 0.51387 0.12411
 N260 N 0.95945 0.50797 0.16427
 C261 C 0.94940 0.51942 0.13751
 C262 C 1.05501 0.56703 0.13999
 N263 N 1.02014 0.47501 0.07811
 N264 N 1.03686 0.47017 0.08537
 N265 N 0.97346 0.46920 0.12641
 N266 N 0.95597 0.45948 0.16941
 N267 N 0.97179 0.45443 0.07948
 N268 N 0.95312 0.43423 0.08935
 N269 N 1.02181 0.48995 0.12448
 N270 N 1.03973 0.49570 0.16451
 Mn271 Mn 0.99963 0.50196 0.12518
 C272 C 1.04891 0.48316 0.13962
 C273 C 0.94341 0.43765 0.14571
 N274 N 1.02630 0.54810 -0.07260
 N275 N 1.04483 0.56841 -0.08245
 N276 N 0.97678 0.51261 -0.11872
 N277 N 0.95933 0.50730 -0.16040
 N278 N 0.97787 0.52703 -0.07135
 N279 N 0.96108 0.53174 -0.07909
 N280 N 1.02506 0.53331 -0.11889
 N281 N 1.04270 0.54312 -0.16133
 Mn282 Mn 1.00228 0.53825 0.00163
 C283 C 1.05489 0.56502 -0.13804
 C284 C 0.94971 0.51938 -0.13503
 N285 N 0.97142 0.45362 -0.06793
 N286 N 0.95350 0.43292 -0.07804
 N287 N 1.02117 0.48855 -0.11667
 N288 N 1.03858 0.49345 -0.15818
 N289 N 1.01972 0.47413 -0.06892
 N290 N 1.03607 0.46878 -0.07674
 N291 N 0.97290 0.46779 -0.11657
 N292 N 0.95612 0.45709 -0.16130
 Mn293 Mn 0.99571 0.46402 0.00522
 Mn294 Mn 0.99899 0.50058 -0.11853
 Cl295 Cl 0.99915 0.50120 0.00336
 C296 C 0.94406 0.43538 -0.13637
 C297 C 1.04770 0.48095 -0.13268
 N298 N 0.47155 0.45058 0.07380
 N299 N 0.46702 0.42919 0.08211
 N300 N 0.46426 0.49085 0.11894
 N301 N 0.45373 0.49800 0.16114
 N302 N 0.44999 0.47738 0.07166
 N303 N 0.42932 0.47487 0.08068
 N304 N 0.48595 0.46405 0.12085
 N305 N 0.49163 0.45218 0.16239
 C306 C 0.47963 0.43043 0.13767
 C307 C 0.43194 0.48789 0.13665
 N308 N 0.52285 0.54535 0.07110
 N309 N 0.52694 0.56668 0.07744
 N310 N 0.53033 0.50544 0.12080
 N311 N 0.54080 0.49870 0.16440
 N312 N 0.54478 0.51883 0.07367
 N313 N 0.56549 0.52163 0.08408
 N314 N 0.50856 0.53214 0.11880
 N315 N 0.50256 0.54413 0.15893
 Mn316 Mn 0.49728 0.49811 0.12070
 C317 C 0.51422 0.56568 0.13264
 C318 C 0.56275 0.50892 0.14082
 N319 N 0.45038 0.47690 -0.07594
 N320 N 0.42993 0.47485 -0.08576
 N321 N 0.48652 0.46313 -0.12034
 N322 N 0.49247 0.45100 -0.16006
 N323 N 0.47192 0.44998 -0.07319
 N324 N 0.46751 0.42855 -0.07959
 N325 N 0.46492 0.48998 -0.12333
 N326 N 0.45482 0.49723 -0.16653
 Mn327 Mn 0.46068 0.46349 -0.00093
 C328 C 0.43298 0.48766 -0.14255
 C329 C 0.48042 0.42942 -0.13414
 N330 N 0.54512 0.51819 -0.07372
 N331 N 0.56572 0.52042 -0.08200
 N332 N 0.50930 0.53121 -0.12387
 N333 N 0.50471 0.54312 -0.16851
 N334 N 0.52321 0.54478 -0.07609
 N335 N 0.52830 0.56628 -0.08659
 N336 N 0.53081 0.50442 -0.12045
 N337 N 0.54120 0.49685 -0.16155
 Mn338 Mn 0.53425 0.53204 -0.00125
 Mn339 Mn 0.49789 0.49717 -0.12278
 Cl340 Cl 0.49753 0.49771 -0.00104
 C341 C 0.56297 0.50696 -0.13702
 C342 C 0.51662 0.56496 -0.14448
 N343 N 0.45289 -0.02249 0.07266
 N344 N 0.43154 -0.03953 0.08000
 N345 N 0.49231 0.02539 0.12011
 N346 N 0.49955 0.04351 0.16056
 N347 N 0.47900 0.02590 0.07173
 N348 N 0.47686 0.04434 0.07781
 N349 N 0.46614 -0.02313 0.12102
 N350 N 0.45415 -0.04070 0.16244
 C351 C 0.43255 -0.05074 0.13630
 C352 C 0.48971 0.05516 0.13354
 N353 N 0.54771 0.02189 0.07598
 N354 N 0.56904 0.03887 0.08394
 N355 N 0.50788 -0.02549 0.12354
 N356 N 0.50086 -0.04288 0.16662
 N357 N 0.52153 -0.02641 0.07691
 N358 N 0.52426 -0.04437 0.08722
 N359 N 0.53412 0.02298 0.12249
 N360 N 0.54588 0.04079 0.16334
 Mn361 Mn 0.50012 -0.00004 0.12272
 C362 C 0.56767 0.05051 0.13868
 C363 C 0.51122 -0.05451 0.14333
 N364 N 0.47969 0.02561 -0.07508
 N365 N 0.47649 0.04325 -0.08606
 N366 N 0.46736 -0.02362 -0.12106
 N367 N 0.45603 -0.04153 -0.16169
 N368 N 0.45354 -0.02284 -0.07483
 N369 N 0.43233 -0.04014 -0.08316
 N370 N 0.49327 0.02471 -0.12194
 N371 N 0.49951 0.04158 -0.16650
 Mn372 Mn 0.46603 0.00154 -0.00135
 C373 C 0.48901 0.05308 -0.14322
 C374 C 0.43418 -0.05163 -0.13769
 N375 N 0.52218 -0.02676 -0.07062
 N376 N 0.52475 -0.04492 -0.07915
 N377 N 0.53517 0.02253 -0.11903
 N378 N 0.54714 0.04026 -0.15987
 N379 N 0.54840 0.02169 -0.07101
 N380 N 0.56973 0.03885 -0.07783
 N381 N 0.50900 -0.02588 -0.11870
 N382 N 0.50214 -0.04342 -0.16100
 Mn383 Mn 0.53518 -0.00244 0.00284
 Mn384 Mn 0.50122 -0.00054 -0.12096
 Cl385 Cl 0.50064 -0.00037 0.00084
 C386 C 0.51208 -0.05517 -0.13580
 C387 C 0.56872 0.05026 -0.13363
 C388 C 1.13018 0.48708 0.25224
 C389 C 1.14245 0.47745 0.22221
 C390 C 1.16160 0.47905 0.25548
 C391 C 1.16921 0.49054 0.31910
 C392 C 1.15650 0.50050 0.34596
 N393 N 1.13773 0.49837 0.31273
 C394 C 1.10936 0.48563 0.22059
 N395 N 1.10152 0.49950 0.24522
 C396 C 1.08238 0.49906 0.22024
 C397 C 1.06977 0.48389 0.16722
 C398 C 1.07739 0.46935 0.14106
 C399 C 1.09704 0.47005 0.16771
 H400 H 1.17090 0.47216 0.22841
 H401 H 1.16030 0.50887 0.39521
 H402 H 1.07707 0.51056 0.24187
 H403 H 1.06803 0.45728 0.10042
 H404 H 1.13783 0.46913 0.17283
 H405 H 1.10204 0.45817 0.14755
 C406 C 0.50866 0.64200 0.24613
 C407 C 0.51206 0.66138 0.20896
 C408 C 0.51084 0.67914 0.24250
 C409 C 0.50611 0.67766 0.31286
 C410 C 0.50234 0.65777 0.34779
 N411 N 0.50370 0.64074 0.31407
 C412 C 0.51013 0.62275 0.21397
 N413 N 0.49924 0.60172 0.24475
 C414 C 0.50017 0.58330 0.21950
 C415 C 0.51287 0.58551 0.16008
 C416 C 0.52435 0.60701 0.12761
 C417 C 0.52306 0.62566 0.15434
 H418 H 0.51336 0.69394 0.21324
 H419 H 0.49885 0.65596 0.40216
 H420 H 0.49111 0.56701 0.24619
 H421 H 0.53444 0.60945 0.08181
 H422 H 0.51530 0.66280 0.15450
 H423 H 0.53255 0.64219 0.12928
 C424 C 0.35576 -0.13158 0.25290
 C425 C 0.33399 -0.14437 0.22244
 C426 C 0.31654 -0.16336 0.25653
 C427 C 0.32048 -0.17018 0.32102
 C428 C 0.34285 -0.15709 0.34860
 N429 N 0.35944 -0.13849 0.31465
 C430 C 0.37501 -0.11088 0.22031
 N431 N 0.39667 -0.10242 0.24596
 C432 C 0.41524 -0.08336 0.22009
 C433 C 0.41260 -0.07151 0.16497
 C434 C 0.39051 -0.07978 0.13774
 C435 C 0.37169 -0.09932 0.16534
 H436 H 0.30026 -0.17314 0.23032
 H437 H 0.34710 -0.16078 0.39853
 H438 H 0.43200 -0.07753 0.24262
 H439 H 0.38772 -0.07102 0.09549
 H440 H 0.33032 -0.14026 0.17232
 H441 H 0.35485 -0.10480 0.14419
 C442 C 0.86615 0.51158 0.24774
 C443 C 0.85028 0.51521 0.21068
 C444 C 0.83082 0.51311 0.24365
 C445 C 0.82700 0.50726 0.31323
 C446 C 0.84304 0.50333 0.34799
 N447 N 0.86189 0.50557 0.31488
 C448 C 0.88730 0.51380 0.21639
 N449 N 0.89769 0.50318 0.24733
 C450 C 0.91740 0.50469 0.22298
 C451 C 0.92799 0.51771 0.16425
 C452 C 0.91775 0.52895 0.13159
 C453 C 0.89744 0.52710 0.15749
 H454 H 0.81864 0.51583 0.21455
 H455 H 0.84091 0.49900 0.40180
 H456 H 0.92478 0.49577 0.24975
 H457 H 0.92546 0.53925 0.08626
 H458 H 0.85254 0.51928 0.15675
 H459 H 0.89021 0.53639 0.13230
 C460 C 0.48335 0.35389 0.25613
 C461 C 0.46448 0.33136 0.25731
 C462 C 0.46655 0.31399 0.28993
 C463 C 0.48734 0.31893 0.32128
 C464 C 0.50579 0.34165 0.31902
 N465 N 0.50331 0.35834 0.28741
 C466 C 0.48194 0.37311 0.22390
 N467 N 0.49585 0.39491 0.24739
 C468 C 0.49542 0.41342 0.22077
 C469 C 0.48041 0.41054 0.16689
 C470 C 0.46622 0.38831 0.14103
 C471 C 0.46692 0.36957 0.16931
 H472 H 0.45193 0.29666 0.29041
 H473 H 0.52200 0.34624 0.34347
 H474 H 0.50681 0.43034 0.24171
 H475 H 0.45457 0.38539 0.09898
 H476 H 0.44811 0.32720 0.23475
 H477 H 0.45608 0.35263 0.14777
 C478 C 0.64442 0.13092 0.25532
 C479 C 0.66697 0.13454 0.25534
 C480 C 0.68447 0.15390 0.28780
 C481 C 0.67965 0.16971 0.32022
 C482 C 0.65692 0.16549 0.31905
 N483 N 0.64009 0.14640 0.28754
 C484 C 0.62508 0.11035 0.22335
 N485 N 0.60335 0.10242 0.24772
 C486 C 0.58478 0.08344 0.22153
 C487 C 0.58755 0.07131 0.16730
 C488 C 0.60970 0.07942 0.14050
 C489 C 0.62848 0.09890 0.16825
 H490 H 0.70180 0.15656 0.28741
 H491 H 0.65243 0.17710 0.34436
 H492 H 0.56792 0.07786 0.24319
 H493 H 0.61253 0.07070 0.09812
 H494 H 0.67105 0.12235 0.23205
 H495 H 0.64534 0.10503 0.14597
 C496 C 0.49064 0.13021 -0.27566
 C497 C 0.48418 0.12924 -0.34415
 C498 C 0.48369 0.14798 -0.37311
 C499 C 0.48997 0.16806 -0.33449
 C500 C 0.49633 0.16813 -0.26565
 N501 N 0.49622 0.14942 -0.23836
 C502 C 0.49091 0.11056 -0.24269
 N503 N 0.48424 0.10559 -0.17618
 C504 C 0.48362 0.08742 -0.14331
 C505 C 0.49026 0.07324 -0.17751
 C506 C 0.49775 0.07840 -0.24548
 C507 C 0.49797 0.09695 -0.27840
 H508 H 0.47931 0.14690 -0.42672
 H509 H 0.50054 0.18258 -0.23235
 H510 H 0.47796 0.08411 -0.09057
 H511 H 0.50312 0.06790 -0.27346
 H512 H 0.47929 0.11405 -0.37495
 H513 H 0.50382 0.10075 -0.33090
 C514 C 0.63604 0.49822 -0.26211
 C515 C 0.63373 0.48675 -0.32420
 C516 C 0.65284 0.48701 -0.35344
 C517 C 0.67468 0.49894 -0.32203
 C518 C 0.67613 0.51030 -0.25979
 N519 N 0.65716 0.50960 -0.23215
 C520 C 0.61654 0.49921 -0.22937
 N521 N 0.62121 0.51517 -0.17947
 C522 C 0.60444 0.51770 -0.14827
 C523 C 0.58135 0.50380 -0.16756
 C524 C 0.57604 0.48693 -0.21767
 C525 C 0.59347 0.48443 -0.24824
 H526 H 0.65046 0.47883 -0.40277
 H527 H 0.69207 0.51918 -0.23149
 H528 H 0.60921 0.53082 -0.10941
 H529 H 0.55837 0.47560 -0.23321
 H530 H 0.61764 0.47821 -0.35176
 H531 H 0.58865 0.47093 -0.28568
 C532 C 0.86734 0.35979 -0.26989
 C533 C 0.86845 0.35449 -0.33856
 C534 C 0.84986 0.33527 -0.36797
 C535 C 0.82978 0.32124 -0.32963
 C536 C 0.82957 0.32734 -0.26058
 N537 N 0.84813 0.34596 -0.23288
 C538 C 0.88682 0.37974 -0.23652
 N539 N 0.89161 0.37812 -0.16979
 C540 C 0.90966 0.39570 -0.13661
 C541 C 0.92393 0.41646 -0.17075
 C542 C 0.91895 0.41870 -0.23894
 C543 C 0.90050 0.40036 -0.27211
 H544 H 0.85105 0.33216 -0.42171
 H545 H 0.81511 0.31692 -0.22747
 H546 H 0.91283 0.39341 -0.08373
 H547 H 0.92950 0.43450 -0.26692
 H548 H 0.88364 0.36493 -0.36918
 H549 H 0.89685 0.40239 -0.32474
 C550 C 0.50539 -0.13571 -0.26329
 C551 C 0.49770 -0.14220 -0.33083
 C552 C 0.49769 -0.16121 -0.35969
 C553 C 0.50549 -0.17378 -0.32201
 C554 C 0.51336 -0.16659 -0.25507
 N555 N 0.51312 -0.14801 -0.22784
 C556 C 0.50608 -0.11543 -0.23036
 N557 N 0.52040 -0.10532 -0.17611
 C558 C 0.52237 -0.08634 -0.14433
 C559 C 0.50954 -0.07634 -0.16733
 C560 C 0.49430 -0.08674 -0.22203
 C561 C 0.49240 -0.10630 -0.25334
 H562 H 0.49207 -0.16578 -0.41214
 H563 H 0.51949 -0.17582 -0.22420
 H564 H 0.53419 -0.07893 -0.10187
 H565 H 0.48380 -0.07977 -0.24063
 H566 H 0.49226 -0.13248 -0.36208
 H567 H 0.48015 -0.11417 -0.29447
 C568 C 0.36066 0.49693 -0.27017
 C569 C 0.36154 0.50387 -0.33845
 C570 C 0.34267 0.50434 -0.36658
 C571 C 0.32279 0.49779 -0.32734
 C572 C 0.32253 0.49084 -0.25949
 N573 N 0.34115 0.49055 -0.23311
 C574 C 0.37993 0.49548 -0.23795
 N575 N 0.37550 0.48182 -0.18193
 C576 C 0.39212 0.47922 -0.15020
 C577 C 0.41481 0.49075 -0.17495
 C578 C 0.41989 0.50525 -0.23173
 C579 C 0.40260 0.50776 -0.26313
 H580 H 0.34340 0.50925 -0.41967
 H581 H 0.30759 0.48575 -0.22730
 H582 H 0.38753 0.46801 -0.10616
 H583 H 0.43726 0.51470 -0.25187
 H584 H 0.37627 0.50828 -0.37081
 H585 H 0.40716 0.51943 -0.30595
 C586 C 1.13706 0.63651 -0.26569
 C587 C 1.14534 0.63430 -0.32957
 C588 C 1.16450 0.65317 -0.35841
 C589 C 1.17560 0.67467 -0.32473
 C590 C 1.16659 0.67598 -0.26059
 N591 N 1.14798 0.65726 -0.23350
 C592 C 1.11630 0.61736 -0.23308
 N593 N 1.10602 0.62236 -0.18085
 C594 C 1.08667 0.60599 -0.14910
 C595 C 1.07638 0.58294 -0.17005
 C596 C 1.08684 0.57725 -0.22280
 C597 C 1.10683 0.59430 -0.25410
 H598 H 1.16962 0.65095 -0.40903
 H599 H 1.17459 0.69157 -0.23043
 H600 H 1.07920 0.61106 -0.10824
 H601 H 1.07961 0.55959 -0.23981
 H602 H 1.13686 0.61850 -0.35867
 H603 H 1.11466 0.58921 -0.29366
 C604 C 0.86974 0.51655 -0.25193
 C605 C 0.84924 0.50924 -0.21543
 C606 C 0.83016 0.50797 -0.24833
 C607 C 0.83142 0.51438 -0.31762
 C608 C 0.85258 0.52186 -0.35176
 N609 N 0.87071 0.52240 -0.31886
 C610 C 0.89010 0.51738 -0.22000
 N611 N 0.90344 0.51147 -0.25786
 C612 C 0.92239 0.51179 -0.23163
 C613 C 0.92911 0.51882 -0.16392
 C614 C 0.91583 0.52533 -0.12427
 C615 C 0.89620 0.52445 -0.15193
 H616 H 0.81476 0.50270 -0.21827
 H617 H 0.85456 0.52624 -0.40547
 H618 H 0.93231 0.50681 -0.26393
 H619 H 0.92050 0.53088 -0.07179
 H620 H 0.84782 0.50418 -0.16229
 H621 H 0.88617 0.52964 -0.12085
 C622 C 0.48577 0.35263 -0.24612
 C623 C 0.47614 0.33063 -0.21679
 C624 C 0.47818 0.31333 -0.25034
 C625 C 0.49007 0.31766 -0.31313
 C626 C 0.49988 0.34023 -0.33961
 N627 N 0.49738 0.35665 -0.30625
 C628 C 0.48395 0.37183 -0.21433
 N629 N 0.49733 0.39347 -0.23973
 C630 C 0.49655 0.41203 -0.21495
 C631 C 0.48153 0.40941 -0.16126
 C632 C 0.46754 0.38734 -0.13414
 C633 C 0.46859 0.36852 -0.16059
 H634 H 0.47113 0.29684 -0.22500
 H635 H 0.50864 0.34479 -0.38837
 H636 H 0.50766 0.42878 -0.23732
 H637 H 0.45562 0.38458 -0.09289
 H638 H 0.46743 0.32664 -0.16799
 H639 H 0.45714 0.35169 -0.13955
 C640 C 0.64502 0.13198 -0.24762
 C641 C 0.66542 0.14686 -0.21240
 C642 C 0.68281 0.16615 -0.24573
 C643 C 0.67994 0.17084 -0.31379
 C644 C 0.65918 0.15575 -0.34678
 N645 N 0.64254 0.13703 -0.31340
 C646 C 0.62588 0.11112 -0.21564
 N647 N 0.60458 0.10153 -0.24463
 C648 C 0.58615 0.08223 -0.21935
 C649 C 0.58859 0.07127 -0.16154
 C650 C 0.61035 0.08070 -0.13094
 C651 C 0.62903 0.10053 -0.15783
 H652 H 0.69836 0.17759 -0.21793
 H653 H 0.65630 0.15858 -0.39944
 H654 H 0.56966 0.07548 -0.24459
 H655 H 0.61298 0.07267 -0.08647
 H656 H 0.66793 0.14404 -0.15948
 H657 H 0.64571 0.10705 -0.13414
 C658 C 1.12647 0.48122 -0.25107
 C659 C 1.12908 0.46170 -0.25420
 C660 C 1.14835 0.46317 -0.28669
 C661 C 1.16505 0.48402 -0.31576
 C662 C 1.16179 0.50311 -0.31156
 N663 N 1.14279 0.50121 -0.28025
 C664 C 1.10612 0.48056 -0.21904
 N665 N 1.09930 0.49545 -0.24150
 C666 C 1.08075 0.49586 -0.21487
 C667 C 1.06794 0.48075 -0.16189
 C668 C 1.07485 0.46551 -0.13708
 C669 C 1.09389 0.46532 -0.16552
 H670 H 1.15025 0.44805 -0.28884
 H671 H 1.17410 0.51941 -0.33429
 H672 H 1.07610 0.50803 -0.23499
 H673 H 1.06554 0.45372 -0.09581
 H674 H 1.11622 0.44533 -0.23326
 H675 H 1.09913 0.45367 -0.14489
 C676 C 0.51926 0.64323 -0.27292
 C677 C 0.52608 0.64923 -0.34101
 C678 C 0.52627 0.66842 -0.36927
 C679 C 0.51929 0.68164 -0.33038
 C680 C 0.51286 0.67500 -0.26170
 N681 N 0.51321 0.65643 -0.23515
 C682 C 0.51854 0.62289 -0.24136
 N683 N 0.52462 0.62376 -0.17455
 C684 C 0.52428 0.60556 -0.14267
 C685 C 0.51710 0.58487 -0.17815
 C686 C 0.51034 0.58346 -0.24660
 C687 C 0.51120 0.60247 -0.27852
 H688 H 0.53082 0.67201 -0.42272
 H689 H 0.50822 0.68487 -0.22809
 H690 H 0.52941 0.60721 -0.08956
 H691 H 0.50460 0.56775 -0.27558
 H692 H 0.53131 0.63925 -0.37216
 H693 H 0.50578 0.60106 -0.33129
 C694 C 0.35883 -0.13357 -0.25211
 C695 C 0.36016 -0.15326 -0.26798
 C696 C 0.34134 -0.17217 -0.29785
 C697 C 0.32099 -0.17166 -0.31293
 C698 C 0.32041 -0.15155 -0.29464
 N699 N 0.33895 -0.13345 -0.26489
 C700 C 0.37857 -0.11290 -0.22218
 N701 N 0.37460 -0.09945 -0.17831
 C702 C 0.39203 -0.08000 -0.14999
 C703 C 0.41500 -0.07289 -0.16667
 C704 C 0.41946 -0.08635 -0.21231
 C705 C 0.40133 -0.10639 -0.23992
 H706 H 0.34341 -0.18664 -0.31191
 H707 H 0.30510 -0.15027 -0.30184
 H708 H 0.38791 -0.06997 -0.11526
 H709 H 0.43695 -0.08142 -0.22661
 H710 H 0.37557 -0.15412 -0.25739
 H711 H 0.40512 -0.11633 -0.27595
 C712 C 0.50479 -0.13503 0.26917
 C713 C 0.48490 -0.15251 0.30088
 C714 C 0.48545 -0.17114 0.33071
 C715 C 0.50573 -0.17241 0.32924
 C716 C 0.52513 -0.15474 0.29631
 N717 N 0.52416 -0.13683 0.26729
 C718 C 0.50535 -0.11478 0.23698
 N719 N 0.52064 -0.10374 0.18545
 C720 C 0.52258 -0.08472 0.15434
 C721 C 0.50885 -0.07550 0.17561
 C722 C 0.49306 -0.08646 0.22888
 C723 C 0.49123 -0.10611 0.25963
 H724 H 0.47012 -0.18440 0.35580
 H725 H 0.54101 -0.15525 0.29318
 H726 H 0.53505 -0.07671 0.11361
 H727 H 0.48222 -0.07981 0.24698
 H728 H 0.46900 -0.15203 0.30200
 H729 H 0.47931 -0.11397 0.30166
 C730 C 0.35784 0.49498 0.26052
 C731 C 0.36021 0.51516 0.29014
 C732 C 0.34117 0.51475 0.32073
 C733 C 0.31980 0.49432 0.32208
 C734 C 0.31807 0.47463 0.29098
 N735 N 0.33683 0.47547 0.26119
 C736 C 0.37748 0.49427 0.22837
 N737 N 0.37325 0.47871 0.17768
 C738 C 0.39035 0.47662 0.14699
 C739 C 0.41328 0.49047 0.16796
 C740 C 0.41805 0.50654 0.22032
 C741 C 0.40024 0.50854 0.25055
 H742 H 0.34323 0.53030 0.34434
 H743 H 0.30181 0.45862 0.29008
 H744 H 0.38595 0.46393 0.10696
 H745 H 0.43552 0.51748 0.23817
 H746 H 0.37646 0.53115 0.28921
 H747 H 0.40426 0.52068 0.29194
 C748 C 1.13581 0.64121 0.26382
 C749 C 1.15383 0.63892 0.29206
 C750 C 1.17247 0.65795 0.32230
 C751 C 1.17319 0.67923 0.32473
 C752 C 1.15499 0.68088 0.29516
 N753 N 1.13708 0.66214 0.26558
 C754 C 1.11551 0.62158 0.23182
 N755 N 1.10411 0.62578 0.18135
 C756 C 1.08503 0.60865 0.15065
 C757 C 1.07612 0.58572 0.17139
 C758 C 1.08747 0.58098 0.22359
 C759 C 1.10718 0.59881 0.25380
 H760 H 1.18614 0.65595 0.34477
 H761 H 1.15507 0.69707 0.29521
 H762 H 1.07668 0.61302 0.11079
 H763 H 1.08107 0.56351 0.24125
 H764 H 1.15372 0.62273 0.29024
 H765 H 1.11539 0.59483 0.29500
 C766 C 0.50031 0.13949 0.24494
 C767 C 0.49784 0.15592 0.20690
 C768 C 0.49903 0.17494 0.23995
 C769 C 0.50291 0.17787 0.31067
 C770 C 0.50618 0.16155 0.34639
 N771 N 0.50472 0.14302 0.31319
 C772 C 0.49791 0.11827 0.21337
 N773 N 0.50752 0.10700 0.24511
 C774 C 0.50539 0.08702 0.22040
 C775 C 0.49270 0.07709 0.16064
 C776 C 0.48257 0.08832 0.12723
 C777 C 0.48507 0.10881 0.15336
 H778 H 0.49694 0.18740 0.21017
 H779 H 0.50913 0.16309 0.40102
 H780 H 0.51342 0.07886 0.24779
 H781 H 0.47252 0.08116 0.08118
 H782 H 0.49514 0.15430 0.15221
 H783 H 0.47648 0.11669 0.12756
 C784 C 0.63702 0.50312 0.26827
 C785 C 0.63475 0.48307 0.29838
 C786 C 0.65390 0.48360 0.32842
 C787 C 0.67527 0.50403 0.32882
 C788 C 0.67686 0.52363 0.29761
 N789 N 0.65801 0.52265 0.26824
 C790 C 0.61733 0.50361 0.23575
 N791 N 0.62154 0.51895 0.18445
 C792 C 0.60441 0.52073 0.15294
 C793 C 0.58144 0.50677 0.17356
 C794 C 0.57668 0.49096 0.22665
 C795 C 0.59453 0.48928 0.25776
 H796 H 0.65195 0.46812 0.35215
 H797 H 0.69311 0.53963 0.29601
 H798 H 0.60881 0.53323 0.11241
 H799 H 0.55918 0.47995 0.24425
 H800 H 0.61851 0.46705 0.29802
 H801 H 0.59051 0.47730 0.29956
 C802 C 0.86093 0.36629 0.27220
 C803 C 0.85578 0.36640 0.34186
 C804 C 0.83637 0.34755 0.36982
 C805 C 0.82202 0.32849 0.32891
 C806 C 0.82773 0.32908 0.25952
 N807 N 0.84679 0.34762 0.23345
 C808 C 0.88185 0.38536 0.24029
 N809 N 0.89051 0.38097 0.18276
 C810 C 0.90993 0.39738 0.15135
 C811 C 0.92190 0.41979 0.17794
 C812 C 0.91306 0.42487 0.23628
 C813 C 0.89305 0.40778 0.26746
 H814 H 0.83300 0.34761 0.42398
 H815 H 0.81709 0.31484 0.22596
 H816 H 0.91607 0.39281 0.10603
 H817 H 0.92162 0.44204 0.25791
 H818 H 0.86692 0.38046 0.37525
 H819 H 0.88642 0.41227 0.31174
   
