data_POSCAR
  _audit_creation_date              2014-09-24
  _audit_creation_method            'ToBaCCo'
  _symmetry_space_group_name_H-M    'P1'
  _symmetry_Int_Tables_number       1
  _symmetry_cell_setting            triclinic
  loop_
  _symmetry_equiv_pos_as_xyz
 x,y,z
_cell_length_a 41.9412
_cell_length_b 45.9308
_cell_length_c 41.9388
_cell_angle_alpha 90.000000
_cell_angle_beta 89.993500
_cell_angle_gamma 90.000000
loop_
  _atom_site_label
  _atom_site_type_symbol
  _atom_site_fract_x
  _atom_site_fract_y
  _atom_site_fract_z
C1 C 0.25044 0.24998 0.25075
 C2 C 0.75044 0.74988 0.25075
 C3 C 0.75044 0.24979 0.75075
 C4 C 0.25043 0.74988 0.75075
 C5 C 0.04521 0.04375 0.01193
 H6 H 0.04584 0.04484 -0.01384
 C7 C 0.06389 0.06276 0.02998
 H8 H 0.07893 0.07836 0.01782
 C9 C 0.02435 0.02224 0.05884
 H10 H 0.00853 0.00677 0.07003
 C11 C 0.04260 0.04085 0.07783
 H12 H 0.04078 0.03917 0.10352
 N13 N 0.02623 0.02379 0.02651
 C14 C 0.01280 -0.04488 -0.04410
 H15 H -0.01296 -0.04594 -0.04471
 C16 C 0.03082 -0.06380 -0.06293
 H17 H 0.01862 -0.07930 -0.07807
 C18 C 0.05976 -0.02353 -0.02315
 H19 H 0.07098 -0.00814 -0.00726
 C20 C 0.07871 -0.04206 -0.04155
 H21 H 0.10440 -0.04040 -0.03976
 Zn22 Zn 0.00114 -0.00063 0.00016
 N23 N 0.02742 -0.02503 -0.02502
 C24 C -0.02215 0.02248 -0.05838
 N25 N -0.02396 0.02391 -0.02604
 C26 C -0.04292 0.04381 -0.01133
 C27 C -0.06168 0.06285 -0.02926
 C28 C -0.04049 0.04111 -0.07725
 C29 C -0.01056 -0.04509 0.04419
 C30 C -0.02860 -0.06405 0.06293
 C31 C -0.07646 -0.04215 0.04167
 C32 C -0.05749 -0.02359 0.02335
 N33 N -0.02515 -0.02513 0.02520
 H34 H -0.00635 0.00705 -0.06967
 H35 H -0.04348 0.04482 0.01444
 H36 H -0.07672 0.07839 -0.01700
 H37 H -0.03875 0.03950 -0.10294
 H38 H 0.01520 -0.04618 0.04479
 H39 H -0.01643 -0.07963 0.07800
 H40 H -0.10215 -0.04045 0.03990
 H41 H -0.06869 -0.00812 0.00754
 C42 C 0.06427 -0.06249 -0.06188
 C43 C 0.06279 0.06142 0.06344
 C44 C -0.06206 -0.06269 0.06190
 C45 C -0.06069 0.06161 -0.06272
 C46 C 0.04529 0.54469 0.51312
 H47 H 0.04590 0.54575 0.48735
 C48 C 0.06412 0.56360 0.53113
 H49 H 0.07926 0.57910 0.51893
 C50 C 0.02434 0.52334 0.56008
 H51 H 0.00844 0.50795 0.57130
 C52 C 0.04273 0.54186 0.57903
 H53 H 0.04094 0.54021 0.60472
 N54 N 0.02620 0.52484 0.52774
 C55 C 0.01252 0.45599 0.45740
 H56 H -0.01324 0.45499 0.45684
 C57 C 0.03046 0.43695 0.43864
 H58 H 0.01819 0.42141 0.42360
 C59 C 0.05957 0.47733 0.47816
 H60 H 0.07085 0.49276 0.49396
 C61 C 0.07844 0.45869 0.45982
 H62 H 0.10413 0.46030 0.46156
 Zn63 Zn 0.00103 0.50043 0.50146
 N64 N 0.02723 0.47590 0.47636
 C65 C -0.02216 0.52339 0.44283
 N66 N -0.02401 0.52494 0.47516
 C67 C -0.04299 0.54489 0.48976
 C68 C -0.06174 0.56386 0.47172
 C69 C -0.04047 0.54195 0.42385
 C70 C -0.01074 0.45606 0.54553
 C71 C -0.02879 0.43705 0.56421
 C72 C -0.07664 0.45895 0.54292
 C73 C -0.05765 0.47756 0.52467
 N74 N -0.02532 0.47602 0.52655
 H75 H -0.00634 0.50792 0.43163
 H76 H -0.04360 0.54598 0.51552
 H77 H -0.07681 0.57943 0.48389
 H78 H -0.03870 0.54025 0.39817
 H79 H 0.01502 0.45497 0.54615
 H80 H -0.01663 0.42144 0.57925
 H81 H -0.10232 0.46063 0.54110
 H82 H -0.06883 0.49304 0.50885
 C83 C 0.06391 0.43820 0.43962
 C84 C 0.06307 0.56230 0.56459
 C85 C -0.06225 0.43838 0.56312
 C86 C -0.06071 0.56249 0.43826
 C87 C 0.54379 0.04382 0.51284
 H88 H 0.54435 0.04482 0.48707
 C89 C 0.56255 0.06285 0.53077
 H90 H 0.57760 0.07839 0.51851
 C91 C 0.52302 0.02248 0.55989
 H92 H 0.50722 0.00705 0.57117
 C93 C 0.54136 0.04111 0.57876
 H94 H 0.53962 0.03951 0.60445
 N95 N 0.52483 0.02391 0.52754
 C96 C 0.51143 -0.04508 0.45732
 H97 H 0.48567 -0.04617 0.45672
 C98 C 0.52947 -0.06405 0.43858
 H99 H 0.51730 -0.07963 0.42351
 C100 C 0.55836 -0.02359 0.47815
 H101 H 0.56956 -0.00812 0.49397
 C102 C 0.57733 -0.04215 0.45984
 H103 H 0.60302 -0.04045 0.46161
 Zn104 Zn 0.49973 -0.00062 0.50134
 N105 N 0.52603 -0.02513 0.47630
 C106 C 0.47653 0.02225 0.44267
 N107 N 0.47464 0.02379 0.47500
 C108 C 0.45566 0.04375 0.48958
 C109 C 0.43698 0.06276 0.47152
 C110 C 0.45828 0.04085 0.42368
 C111 C 0.48807 -0.04488 0.54561
 C112 C 0.47005 -0.06380 0.56444
 C113 C 0.42216 -0.04206 0.54306
 C114 C 0.44111 -0.02353 0.52466
 N115 N 0.47345 -0.02503 0.52652
 H116 H 0.49235 0.00677 0.43148
 H117 H 0.45504 0.04484 0.51534
 H118 H 0.42194 0.07836 0.48369
 H119 H 0.46010 0.03917 0.39799
 H120 H 0.51383 -0.04594 0.54621
 H121 H 0.48225 -0.07930 0.57958
 H122 H 0.39648 -0.04040 0.54127
 H123 H 0.42989 -0.00814 0.50877
 C124 C 0.56293 -0.06269 0.43960
 C125 C 0.56156 0.06161 0.56423
 C126 C 0.43660 -0.06249 0.56339
 C127 C 0.43808 0.06143 0.43807
 C128 C 0.54386 0.54489 0.01175
 H129 H 0.54447 0.54599 -0.01402
 C130 C 0.56261 0.56386 0.02979
 H131 H 0.57768 0.57943 0.01761
 C132 C 0.52303 0.52339 0.05868
 H133 H 0.50721 0.50793 0.06988
 C134 C 0.54134 0.54196 0.07765
 H135 H 0.53957 0.54025 0.10334
 N136 N 0.52488 0.52494 0.02634
 C137 C 0.51161 0.45606 -0.04403
 H138 H 0.48585 0.45497 -0.04465
 C139 C 0.52967 0.43705 -0.06270
 H140 H 0.51750 0.42145 -0.07775
 C141 C 0.55852 0.47756 -0.02317
 H142 H 0.56971 0.49304 -0.00735
 C143 C 0.57751 0.45895 -0.04142
 H144 H 0.60319 0.46063 -0.03960
 Zn145 Zn 0.49984 0.50044 0.00005
 N146 N 0.52619 0.47602 -0.02505
 C147 C 0.47653 0.52334 -0.05857
 N148 N 0.47467 0.52484 -0.02624
 C149 C 0.45558 0.54469 -0.01161
 C150 C 0.43675 0.56360 -0.02963
 C151 C 0.45814 0.54186 -0.07752
 C152 C 0.48835 0.45599 0.04411
 C153 C 0.47042 0.43696 0.06287
 C154 C 0.42243 0.45869 0.04169
 C155 C 0.44130 0.47733 0.02335
 N156 N 0.47364 0.47590 0.02515
 H157 H 0.49243 0.50795 -0.06979
 H158 H 0.45497 0.54575 0.01415
 H159 H 0.42161 0.57911 -0.01743
 H160 H 0.45993 0.54021 -0.10321
 H161 H 0.51412 0.45499 0.04467
 H162 H 0.48268 0.42141 0.07791
 H163 H 0.39674 0.46030 0.03994
 H164 H 0.43002 0.49276 0.00755
 C165 C 0.56312 0.43838 -0.06161
 C166 C 0.56158 0.56249 0.06324
 C167 C 0.43696 0.43820 0.06188
 C168 C 0.43780 0.56230 -0.06308
 C169 C 0.19465 -0.19438 -0.19350
 N170 N 0.18060 -0.21354 -0.21370
 N171 N 0.19819 -0.23145 -0.23143
 C172 C 0.23065 -0.23113 -0.22962
 N173 N 0.24454 -0.21161 -0.20946
 N174 N 0.22693 -0.19369 -0.19175
 C175 C 0.17523 -0.17468 -0.17391
 N176 N 0.18928 -0.15534 -0.15386
 N177 N 0.17165 -0.13750 -0.13606
 C178 C 0.13933 -0.13834 -0.13766
 N179 N 0.12528 -0.15768 -0.15771
 N180 N 0.14291 -0.17552 -0.17552
 C181 C 0.11989 -0.11869 -0.11803
 N182 N 0.08759 -0.11969 -0.11945
 N183 N 0.06996 -0.10187 -0.10164
 C184 C 0.08391 -0.08234 -0.08169
 N185 N 0.11627 -0.08140 -0.08033
 N186 N 0.13392 -0.09922 -0.09814
 C187 C 0.19390 0.30606 0.30793
 N188 N 0.22620 0.30713 0.30924
 N189 N 0.24381 0.28937 0.29134
 C190 C 0.22984 0.26973 0.27148
 N191 N 0.19744 0.26887 0.27012
 N192 N 0.17984 0.28663 0.28803
 C193 C 0.17450 0.32568 0.32764
 N194 N 0.14218 0.32461 0.32638
 N195 N 0.12459 0.34244 0.34423
 C196 C 0.13869 0.36201 0.36398
 N197 N 0.17101 0.36307 0.36525
 N198 N 0.18860 0.34523 0.34740
 C199 C 0.11931 0.38171 0.38362
 N200 N 0.13341 0.40136 0.40324
 N201 N 0.11584 0.41926 0.42101
 C202 C 0.08347 0.41823 0.41988
 N203 N 0.06944 0.39852 0.40020
 N204 N 0.08700 0.38061 0.38242
 C205 C 0.69367 -0.19414 0.30784
 N206 N 0.72597 -0.19300 0.30920
 N207 N 0.74366 -0.21072 0.29132
 C208 C 0.72977 -0.23037 0.27143
 N209 N 0.69738 -0.23130 0.27001
 N210 N 0.67970 -0.21358 0.28790
 C211 C 0.67418 -0.17460 0.32755
 N212 N 0.64186 -0.17578 0.32624
 N213 N 0.62417 -0.15803 0.34410
 C214 C 0.63816 -0.13846 0.36392
 N215 N 0.67048 -0.13728 0.36523
 N216 N 0.68817 -0.15503 0.34737
 C217 C 0.61867 -0.11887 0.38357
 N218 N 0.63265 -0.09919 0.40325
 N219 N 0.61496 -0.08139 0.42103
 C220 C 0.58260 -0.08255 0.41985
 N221 N 0.56869 -0.10228 0.40012
 N222 N 0.58636 -0.12009 0.38233
 C223 C 0.69379 0.30592 -0.19222
 N224 N 0.72610 0.30697 -0.19082
 N225 N 0.74374 0.28918 -0.20864
 C226 C 0.72982 0.26954 -0.22853
 N227 N 0.69743 0.26870 -0.22998
 N228 N 0.67978 0.28648 -0.21215
 C229 C 0.67433 0.32559 -0.17265
 N230 N 0.64201 0.32452 -0.17405
 N231 N 0.62434 0.34241 -0.15635
 C232 C 0.63835 0.36204 -0.13661
 N233 N 0.67067 0.36310 -0.13519
 N234 N 0.68834 0.34521 -0.15289
 C235 C 0.61886 0.38180 -0.11715
 N236 N 0.63285 0.40153 -0.09754
 N237 N 0.61516 0.41947 -0.07993
 C238 C 0.58280 0.41840 -0.08121
 N239 N 0.56889 0.39861 -0.10087
 N240 N 0.58656 0.38066 -0.11850
 C241 C -0.19239 0.19371 -0.19271
 N242 N -0.19108 0.19264 -0.22501
 N243 N -0.20898 0.21040 -0.24262
 C244 C -0.22884 0.23003 -0.22865
 N245 N -0.23020 0.23090 -0.19625
 N246 N -0.21230 0.21314 -0.17865
 C247 C -0.17268 0.17409 -0.17331
 N248 N -0.17394 0.17517 -0.14098
 N249 N -0.15609 0.15734 -0.12340
 C250 C -0.13634 0.13777 -0.13750
 N251 N -0.13507 0.13670 -0.16982
 N252 N -0.15291 0.15454 -0.18741
 C253 C -0.11670 0.11808 -0.11812
 N254 N -0.09708 0.09843 -0.13222
 N255 N -0.07931 0.08053 -0.11465
 C256 C -0.08044 0.08156 -0.08228
 N257 N -0.10011 0.10128 -0.06825
 N258 N -0.11790 0.11918 -0.08581
 C259 C -0.19248 0.69390 0.30751
 N260 N -0.19112 0.69277 0.27521
 N261 N -0.20900 0.71048 0.25753
 C262 C -0.22889 0.73013 0.27142
 N263 N -0.23031 0.73106 0.30381
 N264 N -0.21243 0.71335 0.32149
 C265 C -0.17277 0.67437 0.32701
 N266 N -0.17408 0.67555 0.35933
 N267 N -0.15622 0.65781 0.37702
 C268 C -0.13641 0.63824 0.36303
 N269 N -0.13509 0.63706 0.33071
 N270 N -0.15295 0.65480 0.31302
 C271 C -0.11675 0.61865 0.38252
 N272 N -0.09707 0.59898 0.36854
 N273 N -0.07928 0.58118 0.38623
 C274 C -0.08046 0.58234 0.41859
 N275 N -0.10020 0.60208 0.43250
 N276 N -0.11799 0.61988 0.41483
 C277 C 0.30745 0.19385 0.30739
 N278 N 0.28752 0.21328 0.32141
 N279 N 0.26969 0.23107 0.30376
 C280 C 0.27115 0.23022 0.27137
 N281 N 0.29104 0.21059 0.25744
 N282 N 0.30886 0.19280 0.27509
 C283 C 0.32703 0.17418 0.32686
 N284 N 0.34679 0.15457 0.31285
 N285 N 0.36449 0.13668 0.33052
 C286 C 0.36307 0.13775 0.36284
 N287 N 0.34333 0.15737 0.37685
 N288 N 0.32563 0.17526 0.35918
 C289 C 0.38253 0.11799 0.38232
 N290 N 0.38119 0.11913 0.41463
 N291 N 0.39881 0.10119 0.43230
 C292 C 0.41848 0.08140 0.41839
 N293 N 0.41976 0.08033 0.38603
 N294 N 0.40215 0.09826 0.36834
 C295 C 0.30617 0.69415 -0.19346
 N296 N 0.28597 0.71331 -0.17942
 N297 N 0.26825 0.73122 -0.19701
 C298 C 0.27006 0.73090 -0.22946
 N299 N 0.29022 0.71137 -0.24336
 N300 N 0.30793 0.69346 -0.22575
 C301 C 0.32576 0.67445 -0.17404
 N302 N 0.34582 0.65512 -0.18809
 N303 N 0.36362 0.63728 -0.17047
 C304 C 0.36202 0.63812 -0.13814
 N305 N 0.34196 0.65746 -0.12410
 N306 N 0.32416 0.67529 -0.14172
 C307 C 0.38166 0.61848 -0.11871
 N308 N 0.38023 0.61948 -0.08640
 N309 N 0.39805 0.60167 -0.06877
 C310 C 0.41800 0.58214 -0.08272
 N311 N 0.41935 0.58119 -0.11509
 N312 N 0.40155 0.59901 -0.13273
 C313 C -0.19280 -0.19414 0.19366
 N314 N -0.17883 -0.21358 0.21361
 N315 N -0.19651 -0.23130 0.23150
 C316 C -0.22890 -0.23037 0.23008
 N317 N -0.24279 -0.21072 0.21018
 N318 N -0.22510 -0.19300 0.19231
 C319 C -0.17331 -0.17460 0.17396
 N320 N -0.18729 -0.15503 0.15414
 N321 N -0.16961 -0.13728 0.13628
 C322 C -0.13729 -0.13846 0.13759
 N323 N -0.12330 -0.15803 0.15741
 N324 N -0.14099 -0.17578 0.17527
 C325 C -0.11780 -0.11887 0.11794
 N326 N -0.08549 -0.12009 0.11918
 N327 N -0.06782 -0.10228 0.10139
 C328 C -0.08173 -0.08255 0.08165
 N329 N -0.11409 -0.08139 0.08048
 N330 N -0.13178 -0.09919 0.09826
 C331 C -0.19292 0.30592 0.69373
 N332 N -0.17891 0.28648 0.71366
 N333 N -0.19655 0.26870 0.73149
 C334 C -0.22894 0.26954 0.73004
 N335 N -0.24287 0.28918 0.71015
 N336 N -0.22522 0.30697 0.69232
 C337 C -0.17346 0.32559 0.67415
 N338 N -0.18746 0.34521 0.65440
 N339 N -0.16979 0.36310 0.63670
 C340 C -0.13747 0.36203 0.63812
 N341 N -0.12347 0.34241 0.65786
 N342 N -0.14114 0.32452 0.67556
 C343 C -0.11799 0.38179 0.61866
 N344 N -0.08569 0.38066 0.62000
 N345 N -0.06802 0.39861 0.60238
 C346 C -0.08193 0.41840 0.58271
 N347 N -0.11429 0.41947 0.58143
 N348 N -0.13197 0.40152 0.59905
 C349 C 0.30622 -0.19438 0.69501
 N350 N 0.32027 -0.21354 0.71521
 N351 N 0.30268 -0.23145 0.73293
 C352 C 0.27022 -0.23113 0.73112
 N353 N 0.25633 -0.21161 0.71096
 N354 N 0.27394 -0.19369 0.69325
 C355 C 0.32564 -0.17468 0.67542
 N356 N 0.31159 -0.15534 0.65536
 N357 N 0.32922 -0.13750 0.63757
 C358 C 0.36154 -0.13834 0.63917
 N359 N 0.37559 -0.15768 0.65922
 N360 N 0.35796 -0.17552 0.67702
 C361 C 0.38098 -0.11869 0.61953
 N362 N 0.41328 -0.11969 0.62096
 N363 N 0.43092 -0.10187 0.60314
 C364 C 0.41696 -0.08234 0.58320
 N365 N 0.38460 -0.08140 0.58184
 N366 N 0.36695 -0.09922 0.59964
 C367 C 0.30698 0.30606 0.19357
 N368 N 0.27467 0.30712 0.19226
 N369 N 0.25707 0.28937 0.21016
 C370 C 0.27104 0.26973 0.23002
 N371 N 0.30343 0.26887 0.23138
 N372 N 0.32104 0.28663 0.21348
 C373 C 0.32637 0.32568 0.17386
 N374 N 0.35870 0.32461 0.17512
 N375 N 0.37628 0.34244 0.15727
 C376 C 0.36218 0.36201 0.13752
 N377 N 0.32986 0.36307 0.13626
 N378 N 0.31228 0.34523 0.15410
 C379 C 0.38156 0.38171 0.11789
 N380 N 0.36746 0.40136 0.09827
 N381 N 0.38504 0.41926 0.08050
 C382 C 0.41740 0.41823 0.08163
 N383 N 0.43143 0.39852 0.10130
 N384 N 0.41387 0.38061 0.11908
 C385 C 0.19342 0.19385 0.19411
 N386 N 0.19201 0.19280 0.22642
 N387 N 0.20984 0.21059 0.24406
 C388 C 0.22972 0.23022 0.23013
 N389 N 0.23118 0.23106 0.19774
 N390 N 0.21335 0.21328 0.18010
 C391 C 0.17384 0.17418 0.17465
 N392 N 0.17525 0.17525 0.14233
 N393 N 0.15755 0.15737 0.12466
 C394 C 0.13780 0.13775 0.13867
 N395 N 0.13639 0.13667 0.17099
 N396 N 0.15408 0.15457 0.18866
 C397 C 0.11834 0.11799 0.11918
 N398 N 0.09873 0.09826 0.13317
 N399 N 0.08111 0.08033 0.11548
 C400 C 0.08239 0.08140 0.08312
 N401 N 0.10206 0.10119 0.06921
 N402 N 0.11969 0.11913 0.08688
 C403 C 0.19470 0.69415 0.69497
 N404 N 0.19294 0.69346 0.72725
 N405 N 0.21065 0.71137 0.74486
 C406 C 0.23081 0.73090 0.73097
 N407 N 0.23262 0.73122 0.69851
 N408 N 0.21490 0.71331 0.68092
 C409 C 0.17511 0.67445 0.67555
 N410 N 0.17671 0.67529 0.64323
 N411 N 0.15891 0.65746 0.62560
 C412 C 0.13885 0.63812 0.63965
 N413 N 0.13725 0.63728 0.67197
 N414 N 0.15505 0.65512 0.68960
 C415 C 0.11921 0.61848 0.62021
 N416 N 0.09932 0.59901 0.63424
 N417 N 0.08152 0.58119 0.61659
 C418 C 0.08288 0.58214 0.58423
 N419 N 0.10282 0.60167 0.57027
 N420 N 0.12064 0.61948 0.58790
 C421 C 0.69326 0.19371 0.69422
 N422 N 0.71317 0.21314 0.68015
 N423 N 0.73108 0.23090 0.69776
 C424 C 0.72971 0.23003 0.73016
 N425 N 0.70985 0.21040 0.74413
 N426 N 0.69195 0.19264 0.72652
 C427 C 0.67355 0.17410 0.67482
 N428 N 0.65379 0.15454 0.68892
 N429 N 0.63594 0.13671 0.67133
 C430 C 0.63721 0.13777 0.63901
 N431 N 0.65696 0.15734 0.62491
 N432 N 0.67481 0.17517 0.64249
 C433 C 0.61757 0.11808 0.61963
 N434 N 0.61877 0.11918 0.58732
 N435 N 0.60099 0.10128 0.56975
 C436 C 0.58131 0.08157 0.58379
 N437 N 0.58018 0.08053 0.61615
 N438 N 0.59795 0.09843 0.63373
 C439 C 0.69335 0.69391 0.19399
 N440 N 0.69199 0.69277 0.22629
 N441 N 0.70987 0.71048 0.24398
 C442 C 0.72976 0.73013 0.23009
 N443 N 0.73118 0.73106 0.19770
 N444 N 0.71330 0.71335 0.18002
 C445 C 0.67364 0.67437 0.17450
 N446 N 0.67495 0.67555 0.14218
 N447 N 0.65709 0.65781 0.12449
 C448 C 0.63728 0.63824 0.13848
 N449 N 0.63596 0.63706 0.17080
 N450 N 0.65382 0.65480 0.18849
 C451 C 0.61762 0.61865 0.11898
 N452 N 0.59794 0.59898 0.13297
 N453 N 0.58015 0.58119 0.11528
 C454 C 0.58133 0.58235 0.08292
 N455 N 0.60107 0.60208 0.06901
 N456 N 0.61886 0.61988 0.08668
   
