data_POSCAR
  _audit_creation_date              2014-09-24
  _audit_creation_method            'ToBaCCo'
  _symmetry_space_group_name_H-M    'P1'
  _symmetry_Int_Tables_number       1
  _symmetry_cell_setting            triclinic
  loop_
  _symmetry_equiv_pos_as_xyz
 x,y,z
_cell_length_a 28.6202
_cell_length_b 20.6764
_cell_length_c 21.8189
_cell_angle_alpha 88.815900
_cell_angle_beta 89.792100
_cell_angle_gamma 89.875300
loop_
  _atom_site_label
  _atom_site_type_symbol
  _atom_site_fract_x
  _atom_site_fract_y
  _atom_site_fract_z
Si1 Si 1.24346 0.25612 0.25342
 Si2 Si 0.74584 -0.24444 0.24556
 Si3 Si 0.74167 0.24258 -0.25185
 Si4 Si 1.24671 -0.24864 -0.24927
 Si5 Si 0.25168 0.26252 0.74290
 Si6 Si 0.75005 0.75505 0.74821
 Si7 Si 0.75164 0.24549 0.25090
 Si8 Si 0.25008 0.75677 0.24501
 O9 O 1.06124 0.12456 0.09930
 O10 O 1.11551 0.06648 0.04689
 C11 C 1.10432 0.11000 0.08620
 O12 O 0.94284 -0.11956 0.10527
 O13 O 0.88721 -0.06682 0.04860
 C14 C 0.90000 -0.11004 0.08960
 O15 O 1.07037 -0.10342 0.11106
 O16 O 1.12027 -0.04234 0.05102
 C17 C 1.11162 -0.08465 0.09445
 O18 O 0.93136 0.12031 0.09542
 O19 O 0.88184 0.05160 0.04574
 C20 C 0.89011 0.09865 0.08301
 Zr21 Zr 0.99739 0.08710 0.06680
 O22 O 0.99225 0.09233 0.16336
 O23 O 0.99778 0.18926 0.05789
 Zr24 Zr 1.00470 -0.07462 0.07727
 O25 O 0.99882 -0.06223 0.17316
 O26 O 1.01390 -0.17491 0.09311
 O27 O 1.04291 0.01006 0.08430
 O28 O 0.95987 0.00297 0.08346
 O29 O 0.93118 0.10643 -0.12066
 O30 O 0.88127 0.04660 -0.05928
 C31 C 0.88969 0.08821 -0.10331
 O32 O 1.06969 -0.11093 -0.11059
 O33 O 1.11957 -0.04544 -0.05774
 C34 C 1.11072 -0.08996 -0.09725
 O35 O 0.94183 -0.12389 -0.10403
 O36 O 0.88608 -0.06771 -0.05228
 C37 C 0.89880 -0.11274 -0.08979
 O38 O 1.06281 0.10880 -0.12666
 O39 O 1.11605 0.06415 -0.06047
 C40 C 1.10565 0.09915 -0.10833
 Zr41 Zr 0.99801 0.08010 -0.08653
 O42 O 0.99632 0.08589 -0.18332
 O43 O 0.99891 0.18254 -0.08508
 Zr44 Zr 1.00473 -0.08222 -0.07649
 O45 O 1.00112 -0.08776 -0.17316
 O46 O 1.01386 -0.18373 -0.06898
 Zr47 Zr 1.07123 0.00752 -0.00496
 Zr48 Zr 0.93073 -0.00396 -0.00459
 O49 O 0.96077 -0.00510 -0.09269
 O50 O 1.04300 0.00153 -0.09379
 O51 O 0.95486 0.09252 -0.01054
 O52 O 1.04581 -0.08763 0.00066
 O53 O 1.03825 0.09852 -0.01078
 O54 O 0.96383 -0.09515 0.00131
 H55 H 0.93869 0.00212 0.11942
 H56 H 1.06796 -0.12457 0.00220
 H57 H 0.94013 -0.00945 -0.12852
 H58 H 1.05819 0.13759 -0.01341
 H59 H 1.00997 -0.19590 0.05327
 H60 H 0.98770 -0.20139 -0.04417
 H61 H 1.02439 -0.05712 -0.19063
 H62 H 0.98931 0.04212 -0.19800
 H63 H 0.96712 0.19763 -0.07443
 H64 H 0.97076 0.20231 0.03228
 H65 H 1.01835 0.06677 0.18102
 H66 H 1.02899 -0.04551 0.18815
 O67 O 1.05575 0.62617 0.60464
 O68 O 1.10912 0.56561 0.55294
 C69 C 1.09867 0.60925 0.59256
 O70 O 0.92928 0.39510 0.61303
 O71 O 0.87740 0.44785 0.55068
 C72 C 0.88669 0.40871 0.59608
 O73 O 1.06084 0.39966 0.61640
 O74 O 1.11215 0.45792 0.55560
 C75 C 1.10264 0.41686 0.59966
 O76 O 0.92400 0.62146 0.59914
 O77 O 0.87477 0.55731 0.54388
 C78 C 0.88260 0.60072 0.58447
 Zr79 Zr 0.99155 0.59196 0.56860
 O80 O 0.98842 0.60456 0.66441
 O81 O 0.98927 0.69263 0.55040
 Zr82 Zr 0.99538 0.42830 0.58000
 O83 O 0.99837 0.43163 0.67702
 O84 O 1.00027 0.32604 0.58469
 O85 O 1.03481 0.51249 0.58701
 O86 O 0.95343 0.50878 0.58460
 O87 O 0.92786 0.61209 0.38016
 O88 O 0.87669 0.55317 0.44054
 C89 C 0.88599 0.59377 0.39616
 O90 O 1.06355 0.38863 0.39621
 O91 O 1.11368 0.45213 0.45069
 C92 C 1.10495 0.40684 0.41206
 O93 O 0.93437 0.37881 0.39816
 O94 O 0.87989 0.44211 0.44620
 C95 C 0.89170 0.39537 0.41039
 O96 O 1.05945 0.61091 0.37595
 O97 O 1.11136 0.56415 0.44267
 C98 C 1.10204 0.59928 0.39414
 Zr99 Zr 0.99407 0.58378 0.41530
 O100 O 0.99175 0.58580 0.31848
 O101 O 0.99642 0.68620 0.41493
 Zr102 Zr 0.99768 0.42101 0.42574
 O103 O 0.99756 0.42442 0.32883
 O104 O 1.00354 0.31900 0.42675
 Zr105 Zr 1.06474 0.50898 0.49870
 Zr106 Zr 0.92479 0.50250 0.49636
 O107 O 0.95546 0.49975 0.40868
 O108 O 1.03786 0.50330 0.40916
 O109 O 0.95015 0.59831 0.49047
 O110 O 1.03717 0.41477 0.50435
 O111 O 1.03394 0.60128 0.49202
 O112 O 0.95500 0.40954 0.50310
 H113 H 0.93318 0.50963 0.62086
 H114 H 1.05821 0.37696 0.50752
 H115 H 0.93544 0.49604 0.37214
 H116 H 1.05483 0.63943 0.48997
 H117 H 0.97126 0.30807 0.56738
 H118 H 0.98872 0.30316 0.46511
 H119 H 0.99875 0.37889 0.31556
 H120 H 1.00555 0.54459 0.30492
 H121 H 0.96632 0.70184 0.43158
 H122 H 0.98899 0.71329 0.59095
 H123 H 0.99651 0.56213 0.68329
 H124 H 0.96980 0.45283 0.69251
 O125 O 0.56399 0.10389 0.60954
 O126 O 0.61432 0.04809 0.54776
 C127 C 0.60562 0.08713 0.59187
 O128 O 0.42845 -0.12487 0.59511
 O129 O 0.37732 -0.05617 0.54770
 C130 C 0.38626 -0.10589 0.58246
 O131 O 0.55723 -0.11982 0.60479
 O132 O 0.61145 -0.06134 0.55095
 C133 C 0.59980 -0.10413 0.59318
 O134 O 0.43338 0.11738 0.60455
 O135 O 0.37930 0.06029 0.55003
 C136 C 0.39080 0.10492 0.58830
 Zr137 Zr 0.49724 0.07599 0.57695
 O138 O 0.49297 0.06199 0.67331
 O139 O 0.50241 0.17658 0.59109
 Zr140 Zr 0.49384 -0.08504 0.57123
 O141 O 0.49093 -0.08011 0.66783
 O142 O 0.49641 -0.18717 0.57469
 O143 O 0.53775 -0.00684 0.58530
 O144 O 0.45394 -0.00363 0.58585
 O145 O 0.43044 0.12533 0.39565
 O146 O 0.37784 0.06054 0.44746
 C147 C 0.38817 0.10802 0.41028
 O148 O 0.55914 -0.10479 0.37948
 O149 O 0.61255 -0.05368 0.43975
 C150 C 0.60173 -0.08952 0.39392
 O151 O 0.42855 -0.11118 0.38850
 O152 O 0.37720 -0.05400 0.44665
 C153 C 0.38639 -0.09683 0.40553
 O154 O 0.55949 0.11451 0.38490
 O155 O 0.61199 0.05422 0.44161
 C156 C 0.60147 0.09645 0.39886
 Zr157 Zr 0.49544 0.08498 0.42250
 O158 O 0.48988 0.09260 0.32613
 O159 O 0.50264 0.18663 0.42625
 Zr160 Zr 0.49393 -0.07773 0.41768
 O161 O 0.49275 -0.08182 0.32065
 O162 O 0.49508 -0.17980 0.42354
 Zr163 Zr 0.56559 -0.00291 0.49559
 Zr164 Zr 0.42483 0.00198 0.49769
 O165 O 0.45377 0.00531 0.40902
 O166 O 0.53611 0.00322 0.40718
 O167 O 0.45503 0.09501 0.50071
 O168 O 0.53503 -0.09509 0.49366
 O169 O 0.53735 0.09121 0.49903
 O170 O 0.45205 -0.09271 0.49436
 H171 H 0.43209 -0.00489 0.62119
 H172 H 0.55602 -0.13330 0.49243
 H173 H 0.43214 0.00794 0.37377
 H174 H 0.55898 0.12855 0.49915
 H175 H 0.48119 -0.20246 0.53705
 H176 H 0.49569 -0.19473 0.38070
 H177 H 0.46897 -0.05104 0.30490
 H178 H 0.50097 0.05107 0.30977
 H179 H 0.47945 0.20228 0.45617
 H180 H 0.50998 0.19700 0.55100
 H181 H 0.52178 0.03947 0.68705
 H182 H 0.48250 -0.12387 0.68344
 O183 O 0.56360 0.61511 0.11189
 O184 O 0.61636 0.55672 0.05575
 C185 C 0.60568 0.59718 0.09830
 O186 O 0.43114 0.39296 0.11425
 O187 O 0.38101 0.45153 0.05402
 C188 C 0.38922 0.40944 0.09721
 O189 O 0.56207 0.39322 0.12143
 O190 O 0.61563 0.44714 0.06092
 C191 C 0.60471 0.40807 0.10605
 O192 O 0.43424 0.62665 0.10180
 O193 O 0.38183 0.56458 0.04969
 C194 C 0.39191 0.61068 0.08699
 Zr195 Zr 0.49939 0.58731 0.07496
 O196 O 0.49392 0.59437 0.17123
 O197 O 0.50599 0.68912 0.06855
 Zr198 Zr 0.49737 0.42451 0.08334
 O199 O 0.49485 0.43096 0.17983
 O200 O 0.49280 0.32214 0.08849
 O201 O 0.53998 0.50504 0.09195
 O202 O 0.45745 0.50746 0.08981
 O203 O 0.43615 0.61938 -0.10983
 O204 O 0.38268 0.56116 -0.05258
 C205 C 0.39359 0.60525 -0.09313
 O206 O 0.56432 0.38561 -0.10170
 O207 O 0.61753 0.44204 -0.04558
 C208 C 0.60685 0.39815 -0.08498
 O209 O 0.43387 0.38313 -0.09797
 O210 O 0.38209 0.44791 -0.04857
 C211 C 0.39144 0.40090 -0.08511
 O212 O 0.56744 0.60666 -0.11641
 O213 O 0.61850 0.55189 -0.05294
 C214 C 0.60931 0.59030 -0.09925
 Zr215 Zr 0.50135 0.58258 -0.07866
 O216 O 0.49887 0.58375 -0.17550
 O217 O 0.50194 0.68522 -0.08128
 Zr218 Zr 0.49910 0.42021 -0.07098
 O219 O 0.49857 0.42296 -0.16786
 O220 O 0.49889 0.31797 -0.06954
 Zr221 Zr 0.56986 0.50109 0.00344
 Zr222 Zr 0.42926 0.50547 0.00097
 O223 O 0.45934 0.50212 -0.08700
 O224 O 0.54229 0.49945 -0.08616
 O225 O 0.45871 0.59890 -0.00312
 O226 O 0.53891 0.40889 0.00748
 O227 O 0.54194 0.59548 -0.00167
 O228 O 0.45640 0.41084 0.00610
 H229 H 0.43621 0.50963 0.12568
 H230 H 0.55941 0.37033 0.00980
 H231 H 0.43863 0.50145 -0.12328
 H232 H 0.56415 0.63213 -0.00284
 H233 H 0.52267 0.30344 0.07427
 H234 H 0.48455 0.30388 -0.03020
 H235 H 0.49823 0.37730 -0.18080
 H236 H 0.51081 0.54139 -0.18880
 H237 H 0.53382 0.70066 -0.07227
 H238 H 0.48861 0.70385 0.03179
 H239 H 0.50126 0.55113 0.18880
 H240 H 0.49411 0.38588 0.19618
 C241 C 1.22305 0.16501 0.15512
 C242 C 1.20572 0.20536 0.20201
 C243 C 1.15754 0.21485 0.20666
 C244 C 1.12661 0.18443 0.16826
 C245 C 1.14192 0.14446 0.12088
 C246 C 1.19135 0.13674 0.11232
 C247 C 1.27129 0.15220 0.14950
 C248 C 1.28871 0.11556 0.10187
 C249 C 1.25868 0.09192 0.05806
 C250 C 1.21077 0.10277 0.06253
 H251 H 1.29613 0.16931 0.18216
 H252 H 1.32586 0.10632 0.09835
 H253 H 1.27267 0.06505 0.02019
 H254 H 1.19048 0.08579 0.02493
 H255 H 1.14274 0.24672 0.24012
 H256 H 1.08978 0.19303 0.17638
 C257 C 1.21974 0.65454 0.66162
 C258 C 1.20489 0.69541 0.70949
 C259 C 1.15692 0.70491 0.71792
 C260 C 1.12416 0.67703 0.67949
 C261 C 1.13745 0.64016 0.62874
 C262 C 1.18655 0.63071 0.61830
 C263 C 1.26723 0.63737 0.65536
 C264 C 1.28285 0.60261 0.60550
 C265 C 1.25176 0.58527 0.56020
 C266 C 1.20435 0.59952 0.56588
 H267 H 1.29279 0.64984 0.68920
 H268 H 1.31950 0.59038 0.60129
 H269 H 1.26457 0.56050 0.52039
 H270 H 1.18316 0.58756 0.52728
 H271 H 1.14409 0.73597 0.75343
 H272 H 1.08763 0.68565 0.68959
 C273 C 0.68888 0.12346 0.72189
 C274 C 0.70878 0.18292 0.69892
 C275 C 0.70006 0.20179 0.63788
 C276 C 0.66814 0.16846 0.60226
 C277 C 0.64549 0.11346 0.62570
 C278 C 0.65790 0.08815 0.68397
 C279 C 0.69531 0.10057 0.78290
 C280 C 0.67591 0.04222 0.80352
 C281 C 0.64809 0.00629 0.76496
 C282 C 0.63835 0.02948 0.70612
 H283 H 0.71337 0.12788 0.81658
 H284 H 0.68185 0.02531 0.85013
 H285 H 0.63289 -0.03878 0.78125
 H286 H 0.61521 0.00132 0.67817
 H287 H 0.71594 0.24480 0.61828
 H288 H 0.65959 0.18745 0.55700
 C289 C 0.66976 0.66488 0.23436
 C290 C 0.70538 0.70066 0.20318
 C291 C 0.70980 0.69581 0.13930
 C292 C 0.67890 0.65876 0.10590
 C293 C 0.64296 0.62488 0.13545
 C294 C 0.63917 0.62559 0.20018
 C295 C 0.66280 0.66794 0.29854
 C296 C 0.62797 0.63208 0.32807
 C297 C 0.59923 0.59214 0.29469
 C298 C 0.60497 0.58833 0.23155
 H299 H 0.68336 0.69835 0.32703
 H300 H 0.62333 0.63527 0.37718
 H301 H 0.57221 0.56428 0.31775
 H302 H 0.58253 0.55566 0.20762
 H303 H 0.73609 0.72281 0.11420
 H304 H 0.68160 0.65934 0.05636
 C305 C 0.83862 -0.19566 0.22201
 C306 C 0.79160 -0.19600 0.20171
 C307 C 0.78148 -0.16824 0.14395
 C308 C 0.81690 -0.14228 0.10685
 C309 C 0.86403 -0.14894 0.12358
 C310 C 0.87479 -0.18402 0.17890
 C311 C 0.85119 -0.20794 0.28368
 C312 C 0.89669 -0.22649 0.29877
 C313 C 0.93032 -0.23054 0.25282
 C314 C 0.91983 -0.20845 0.19355
 H315 H 0.82559 -0.20528 0.32004
 H316 H 0.90525 -0.24033 0.34555
 H317 H 0.96483 -0.24949 0.26319
 H318 H 0.94659 -0.21434 0.15930
 H319 H 0.74633 -0.16503 0.12702
 H320 H 0.80728 -0.11718 0.06461
 C321 C 0.76517 0.35250 0.66281
 C322 C 0.78093 0.30158 0.70244
 C323 C 0.82923 0.29458 0.71040
 C324 C 0.86122 0.32950 0.67565
 C325 C 0.84751 0.37685 0.63244
 C326 C 0.79840 0.39135 0.62833
 C327 C 0.71711 0.36707 0.65816
 C328 C 0.70147 0.41868 0.62180
 C329 C 0.73323 0.45726 0.58977
 C330 C 0.78097 0.44425 0.59303
 H331 H 0.69103 0.33909 0.68274
 H332 H 0.66448 0.42939 0.61912
 H333 H 0.72079 0.49809 0.56252
 H334 H 0.80307 0.47798 0.56885
 H335 H 0.84392 0.26116 0.74346
 H336 H 0.89774 0.31840 0.68339
 C337 C 0.26584 -0.17039 0.64024
 C338 C 0.28304 -0.21275 0.68688
 C339 C 0.33046 -0.22765 0.68801
 C340 C 0.36167 -0.19500 0.65085
 C341 C 0.34740 -0.14416 0.61147
 C342 C 0.29817 -0.13239 0.60442
 C343 C 0.21733 -0.16071 0.63237
 C344 C 0.20050 -0.11200 0.59362
 C345 C 0.23149 -0.07244 0.56166
 C346 C 0.27951 -0.08319 0.56542
 H347 H 0.19185 -0.18856 0.65786
 H348 H 0.16324 -0.10393 0.58949
 H349 H 0.21810 -0.03313 0.53345
 H350 H 0.30035 -0.05110 0.53766
 H351 H 0.34455 -0.26393 0.71904
 H352 H 0.39812 -0.20823 0.65616
 C353 C 0.26725 0.35728 0.16156
 C354 C 0.28231 0.30600 0.20089
 C355 C 0.32956 0.28905 0.20106
 C356 C 0.36189 0.32255 0.16624
 C357 C 0.34949 0.37669 0.13015
 C358 C 0.30113 0.39536 0.12818
 C359 C 0.21937 0.37222 0.15527
 C360 C 0.20490 0.42681 0.12223
 C361 C 0.23765 0.46688 0.09398
 C362 C 0.28499 0.45100 0.09578
 H363 H 0.19267 0.34293 0.17704
 H364 H 0.16811 0.43869 0.11939
 H365 H 0.22625 0.51045 0.07000
 H366 H 0.30779 0.48447 0.07255
 H367 H 0.34265 0.24838 0.22764
 H368 H 0.39762 0.30533 0.16861
 C369 C 0.81390 0.14341 -0.23751
 C370 C 0.78471 0.18953 -0.20797
 C371 C 0.78813 0.19642 -0.14434
 C372 C 0.82052 0.16037 -0.11009
 C373 C 0.85006 0.11583 -0.13836
 C374 C 0.84555 0.10511 -0.20192
 C375 C 0.81396 0.13582 -0.30192
 C376 C 0.84156 0.08906 -0.32955
 C377 C 0.87024 0.04925 -0.29409
 C378 C 0.87251 0.05729 -0.23103
 H379 H 0.79393 0.16660 -0.33230
 H380 H 0.84077 0.08379 -0.37880
 H381 H 0.89128 0.01247 -0.31559
 H382 H 0.89526 0.02533 -0.20537
 H383 H 0.76639 0.23111 -0.12104
 H384 H 0.82385 0.16925 -0.06153
 C385 C 0.81435 0.65171 0.25927
 C386 C 0.78059 0.69104 0.28962
 C387 C 0.77727 0.68628 0.35385
 C388 C 0.81029 0.65163 0.38810
 C389 C 0.84671 0.61897 0.35911
 C390 C 0.84680 0.61452 0.29457
 C391 C 0.81848 0.65048 0.19465
 C392 C 0.85120 0.61132 0.16594
 C393 C 0.88093 0.57242 0.20069
 C394 C 0.87901 0.57411 0.26432
 H395 H 0.79737 0.68010 0.16507
 H396 H 0.85341 0.61118 0.11639
 H397 H 0.90584 0.54121 0.17829
 H398 H 0.90253 0.54275 0.28941
 H399 H 0.75075 0.71196 0.37865
 H400 H 0.80879 0.65315 0.43766
 C401 C 0.31440 0.24782 0.34796
 C402 C 0.28419 0.21340 0.30845
 C403 C 0.28610 0.14589 0.30828
 C404 C 0.31835 0.11185 0.34413
 C405 C 0.34965 0.14476 0.38142
 C406 C 0.34684 0.21288 0.38515
 C407 C 0.31448 0.31621 0.35022
 C408 C 0.34415 0.34868 0.38947
 C409 C 0.37470 0.31414 0.42702
 C410 C 0.37606 0.24696 0.42504
 H411 H 0.29268 0.34591 0.32120
 H412 H 0.34352 0.40098 0.39057
 H413 H 0.39773 0.33951 0.45739
 H414 H 0.39991 0.22172 0.45514
 H415 H 0.26318 0.11955 0.27874
 H416 H 0.32030 0.05970 0.34044
 C417 C 0.32284 0.74608 -0.16029
 C418 C 0.28782 0.71136 -0.19228
 C419 C 0.28480 0.64441 -0.18342
 C420 C 0.31838 0.61048 -0.14935
 C421 C 0.35540 0.64311 -0.12188
 C422 C 0.35643 0.71154 -0.12440
 C423 C 0.32600 0.81423 -0.16361
 C424 C 0.35986 0.84746 -0.13120
 C425 C 0.39168 0.81368 -0.09491
 C426 C 0.39009 0.74648 -0.09138
 H427 H 0.30258 0.84293 -0.19079
 H428 H 0.36122 0.89973 -0.13402
 H429 H 0.41779 0.83960 -0.06947
 H430 H 0.41508 0.72245 -0.06183
 H431 H 0.25711 0.61812 -0.20509
 H432 H 0.31653 0.55818 -0.14636
 C433 C 1.20768 -0.12212 -0.21146
 C434 C 1.21379 -0.18985 -0.20017
 C435 C 1.19098 -0.21891 -0.14981
 C436 C 1.15992 -0.18413 -0.11437
 C437 C 1.14914 -0.12011 -0.12994
 C438 C 1.17128 -0.08937 -0.18040
 C439 C 1.23633 -0.08509 -0.25126
 C440 C 1.22390 -0.02234 -0.26936
 C441 C 1.18332 0.00542 -0.24662
 C442 C 1.15754 -0.02724 -0.20143
 H443 H 1.26934 -0.10261 -0.26697
 H444 H 1.24573 0.00453 -0.30141
 H445 H 1.17302 0.05350 -0.26187
 H446 H 1.12728 -0.00334 -0.18257
 H447 H 1.19602 -0.26976 -0.13865
 H448 H 1.14214 -0.20840 -0.07649
 C449 C 1.17710 0.26731 0.35369
 C450 C 1.20436 0.30060 0.30824
 C451 C 1.20254 0.36837 0.30469
 C452 C 1.17185 0.40291 0.34125
 C453 C 1.14388 0.37110 0.38473
 C454 C 1.14788 0.30331 0.39337
 C455 C 1.17701 0.19901 0.36002
 C456 C 1.15147 0.16774 0.40629
 C457 C 1.12484 0.20341 0.44682
 C458 C 1.12266 0.27045 0.44025
 H459 H 1.19571 0.16851 0.32904
 H460 H 1.15228 0.11549 0.41054
 H461 H 1.10534 0.17901 0.48307
 H462 H 1.10152 0.29621 0.47265
 H463 H 1.22417 0.39528 0.27264
 H464 H 1.16822 0.45449 0.33333
 C465 C 0.66635 -0.15566 0.25512
 C466 C 0.70614 -0.18401 0.28456
 C467 C 0.71499 -0.16850 0.34568
 C468 C 0.68180 -0.13567 0.38051
 C469 C 0.63982 -0.11416 0.35417
 C470 C 0.63400 -0.11890 0.28996
 C471 C 0.65757 -0.16210 0.19182
 C472 C 0.61938 -0.13262 0.16350
 C473 C 0.58930 -0.09452 0.19711
 C474 C 0.59687 -0.08678 0.25937
 H475 H 0.67978 -0.18909 0.16269
 H476 H 0.61364 -0.13847 0.11492
 H477 H 0.56020 -0.07038 0.17481
 H478 H 0.57399 -0.05398 0.28270
 H479 H 0.74714 -0.18342 0.36754
 H480 H 0.68824 -0.12923 0.42890
 C481 C 0.65400 0.26734 -0.18291
 C482 C 0.69935 0.28965 -0.20032
 C483 C 0.71531 0.34713 -0.17360
 C484 C 0.68658 0.38249 -0.13361
 C485 C 0.64382 0.35673 -0.11290
 C486 C 0.63174 0.29384 -0.13120
 C487 C 0.62758 0.22327 -0.21661
 C488 C 0.58906 0.19166 -0.19052
 C489 C 0.57470 0.20673 -0.13154
 C490 C 0.59518 0.25881 -0.10240
 H491 H 0.63322 0.21766 -0.26466
 H492 H 0.57007 0.15625 -0.21641
 H493 H 0.54570 0.18124 -0.11025
 H494 H 0.58181 0.27275 -0.05812
 H495 H 0.74920 0.36657 -0.18613
 H496 H 0.69728 0.43029 -0.11996
 C497 C 1.22634 0.15332 -0.17520
 C498 C 1.21097 0.20542 -0.21365
 C499 C 1.16314 0.21876 -0.21694
 C500 C 1.13081 0.18329 -0.18309
 C501 C 1.14423 0.13185 -0.14408
 C502 C 1.19297 0.11539 -0.14083
 C503 C 1.27425 0.13720 -0.17097
 C504 C 1.28932 0.08400 -0.13645
 C505 C 1.25718 0.04554 -0.10532
 C506 C 1.20985 0.06106 -0.10683
 H507 H 1.30076 0.16421 -0.19536
 H508 H 1.32612 0.07184 -0.13479
 H509 H 1.26902 0.00314 -0.07982
 H510 H 1.18761 0.02749 -0.08292
 H511 H 1.14995 0.25905 -0.24389
 H512 H 1.09453 0.19774 -0.18686
 C513 C 1.22410 0.64906 0.32479
 C514 C 1.20994 0.70167 0.28527
 C515 C 1.16189 0.71510 0.28161
 C516 C 1.12899 0.68112 0.31654
 C517 C 1.14138 0.63015 0.35688
 C518 C 1.18980 0.61214 0.35934
 C519 C 1.27167 0.63131 0.33041
 C520 C 1.28547 0.57782 0.36549
 C521 C 1.25241 0.54044 0.39607
 C522 C 1.20541 0.55754 0.39378
 H523 H 1.29892 0.65692 0.30639
 H524 H 1.32204 0.56463 0.36804
 H525 H 1.26323 0.49773 0.42189
 H526 H 1.18225 0.52527 0.41787
 H527 H 1.14880 0.75511 0.25411
 H528 H 1.09295 0.69666 0.31260
 C529 C 0.67076 0.16211 0.26221
 C530 C 0.70496 0.19898 0.29330
 C531 C 0.70542 0.19823 0.35763
 C532 C 0.67312 0.16198 0.39139
 C533 C 0.63897 0.12616 0.36188
 C534 C 0.63794 0.12504 0.29698
 C535 C 0.66989 0.15808 0.19749
 C536 C 0.63743 0.11948 0.16814
 C537 C 0.60514 0.08392 0.20223
 C538 C 0.60556 0.08615 0.26591
 H539 H 0.69476 0.18295 0.16851
 H540 H 0.63776 0.11649 0.11868
 H541 H 0.58007 0.05378 0.17926
 H542 H 0.58094 0.05610 0.29056
 H543 H 0.73062 0.22622 0.38250
 H544 H 0.67373 0.16374 0.44095
 C545 C 0.67750 0.65634 -0.23688
 C546 C 0.71098 0.69581 -0.20708
 C547 C 0.71381 0.69241 -0.14276
 C548 C 0.68252 0.65478 -0.10799
 C549 C 0.64827 0.61775 -0.13643
 C550 C 0.64752 0.61530 -0.20121
 C551 C 0.67210 0.65729 -0.30135
 C552 C 0.64097 0.61589 -0.32979
 C553 C 0.61405 0.57306 -0.29494
 C554 C 0.61705 0.57277 -0.23130
 H555 H 0.69116 0.69012 -0.33093
 H556 H 0.63788 0.61689 -0.37923
 H557 H 0.59037 0.54037 -0.31727
 H558 H 0.59582 0.53827 -0.20587
 H559 H 0.73907 0.72138 -0.11895
 H560 H 0.68365 0.65714 -0.05849
 C561 C 0.84432 -0.20687 -0.21768
 C562 C 0.79578 -0.19907 -0.20680
 C563 C 0.78207 -0.16202 -0.15653
 C564 C 0.81529 -0.13569 -0.11715
 C565 C 0.86294 -0.15126 -0.12303
 C566 C 0.87620 -0.19478 -0.16999
 C567 C 0.86295 -0.22493 -0.27470
 C568 C 0.90820 -0.24963 -0.27896
 C569 C 0.93584 -0.25385 -0.22677
 C570 C 0.92042 -0.22557 -0.17281
 H571 H 0.84305 -0.21885 -0.31622
 H572 H 0.92134 -0.26665 -0.32233
 H573 H 0.96995 -0.27657 -0.22867
 H574 H 0.94288 -0.22969 -0.13340
 H575 H 0.74573 -0.15164 -0.14821
 H576 H 0.80352 -0.10332 -0.08182
 C577 C 0.82189 0.25446 0.34903
 C578 C 0.79416 0.28728 0.30389
 C579 C 0.79814 0.35480 0.29768
 C580 C 0.82774 0.38979 0.33522
 C581 C 0.85490 0.35836 0.37986
 C582 C 0.85152 0.29057 0.38799
 C583 C 0.82110 0.18667 0.35686
 C584 C 0.84712 0.15539 0.40253
 C585 C 0.87457 0.19103 0.44185
 C586 C 0.87695 0.25799 0.43474
 H587 H 0.80006 0.15716 0.32861
 H588 H 0.84558 0.10325 0.40775
 H589 H 0.89407 0.16674 0.47801
 H590 H 0.89832 0.28406 0.46672
 H591 H 0.77862 0.38115 0.26291
 H592 H 0.83077 0.44164 0.32779
 C593 C 0.26690 -0.16281 0.34830
 C594 C 0.28428 -0.20791 0.30491
 C595 C 0.33209 -0.22145 0.30502
 C596 C 0.36269 -0.18729 0.34074
 C597 C 0.34810 -0.13426 0.37544
 C598 C 0.29912 -0.12089 0.37857
 C599 C 0.21849 -0.15226 0.35614
 C600 C 0.20191 -0.09822 0.38632
 C601 C 0.23306 -0.05343 0.40895
 C602 C 0.28098 -0.06487 0.40630
 H603 H 0.19290 -0.18324 0.33623
 H604 H 0.16470 -0.08952 0.38964
 H605 H 0.21998 -0.00926 0.42862
 H606 H 0.30267 -0.02723 0.42370
 H607 H 0.34716 -0.25801 0.27623
 H608 H 0.39911 -0.20126 0.33802
 C609 C 0.27145 0.34140 -0.14866
 C610 C 0.28879 0.30033 -0.19518
 C611 C 0.33656 0.28749 -0.19707
 C612 C 0.36749 0.31837 -0.15900
 C613 C 0.35282 0.36511 -0.11697
 C614 C 0.30344 0.37571 -0.11030
 C615 C 0.22296 0.35178 -0.14165
 C616 C 0.20580 0.39599 -0.10009
 C617 C 0.23633 0.43003 -0.06379
 C618 C 0.28434 0.41955 -0.06782
 H619 H 0.19768 0.32794 -0.16967
 H620 H 0.16855 0.40446 -0.09648
 H621 H 0.22261 0.46500 -0.03224
 H622 H 0.30494 0.44666 -0.03664
 H623 H 0.35097 0.25350 -0.22897
 H624 H 0.40405 0.30625 -0.16468
 C625 C 1.21367 -0.11744 0.20259
 C626 C 1.21756 -0.18650 0.19689
 C627 C 1.19138 -0.21591 0.15072
 C628 C 1.15881 -0.18128 0.11620
 C629 C 1.15068 -0.11592 0.12674
 C630 C 1.17733 -0.08358 0.17065
 C631 C 1.24458 -0.07974 0.23709
 C632 C 1.23518 -0.01533 0.24938
 C633 C 1.19606 0.01487 0.22471
 C634 C 1.16805 -0.01822 0.18403
 H635 H 1.27708 -0.09775 0.25408
 H636 H 1.25850 0.01067 0.27865
 H637 H 1.18825 0.06452 0.23566
 H638 H 1.13890 0.00749 0.16364
 H639 H 1.19432 -0.26738 0.14290
 H640 H 1.13823 -0.20653 0.08265
 C641 C 1.20913 0.38680 0.70125
 C642 C 1.21537 0.31929 0.69288
 C643 C 1.18820 0.28862 0.64870
 C644 C 1.15236 0.32139 0.61825
 C645 C 1.14208 0.38567 0.63163
 C646 C 1.16998 0.41876 0.67396
 C647 C 1.24026 0.42396 0.73552
 C648 C 1.22917 0.48679 0.75166
 C649 C 1.18792 0.51531 0.73124
 C650 C 1.15915 0.48251 0.69100
 H651 H 1.27369 0.40590 0.74970
 H652 H 1.25270 0.51264 0.78077
 H653 H 1.17877 0.56348 0.74546
 H654 H 1.12805 0.50677 0.67437
 H655 H 1.19314 0.23770 0.63973
 H656 H 1.13147 0.29568 0.58540
 C657 C 0.66184 -0.17963 0.73341
 C658 C 0.70806 -0.18486 0.71108
 C659 C 0.71892 -0.15518 0.65462
 C660 C 0.68362 -0.12881 0.61735
 C661 C 0.63613 -0.13548 0.63349
 C662 C 0.62504 -0.16546 0.69190
 C663 C 0.65100 -0.18980 0.79602
 C664 C 0.60523 -0.19924 0.81551
 C665 C 0.56964 -0.19898 0.77276
 C666 C 0.57920 -0.18271 0.71172
 H667 H 0.67782 -0.19177 0.83029
 H668 H 0.59770 -0.20969 0.86334
 H669 H 0.53436 -0.21115 0.78680
 H670 H 0.55023 -0.18866 0.68150
 H671 H 0.75475 -0.15342 0.63870
 H672 H 0.69346 -0.10541 0.57436
 C673 C 0.68011 0.34660 0.24090
 C674 C 0.71306 0.30759 0.20908
 C675 C 0.71220 0.30875 0.14472
 C676 C 0.67830 0.34389 0.11213
 C677 C 0.64319 0.37802 0.14263
 C678 C 0.64453 0.38070 0.20753
 C679 C 0.68110 0.35221 0.30540
 C680 C 0.64778 0.38850 0.33621
 C681 C 0.61275 0.42034 0.30376
 C682 C 0.61127 0.41714 0.24016
 H683 H 0.70776 0.32969 0.33313
 H684 H 0.64921 0.39203 0.38561
 H685 H 0.58678 0.44809 0.32800
 H686 H 0.58399 0.44400 0.21708
 H687 H 0.73627 0.27959 0.11894
 H688 H 0.67803 0.34149 0.06256
 C689 C 0.79235 0.12251 0.20106
 C690 C 0.78848 0.19196 0.19868
 C691 C 0.81670 0.22638 0.15674
 C692 C 0.84698 0.19509 0.11694
 C693 C 0.85104 0.12769 0.11780
 C694 C 0.82391 0.09085 0.16020
 C695 C 0.76843 0.08297 0.24467
 C696 C 0.77460 0.01631 0.24811
 C697 C 0.80581 -0.01334 0.20936
 C698 C 0.83017 0.02314 0.16587
 H699 H 0.74680 0.10131 0.27970
 H700 H 0.75618 -0.01229 0.28257
 H701 H 0.81208 -0.06458 0.21427
 H702 H 0.85483 -0.00240 0.13818
 H703 H 0.81599 0.27878 0.15522
 H704 H 0.86875 0.22410 0.08635
 C705 C 0.80963 0.64434 0.72255
 C706 C 0.78199 0.69572 0.69721
 C707 C 0.78176 0.70521 0.63310
 C708 C 0.81304 0.67197 0.59571
 C709 C 0.84246 0.62442 0.62068
 C710 C 0.83689 0.60558 0.68295
 C711 C 0.81261 0.63145 0.78640
 C712 C 0.83637 0.57738 0.80942
 C713 C 0.85800 0.53519 0.76958
 C714 C 0.85849 0.54928 0.70697
 H715 H 0.79772 0.66303 0.81963
 H716 H 0.83748 0.56784 0.85837
 H717 H 0.87504 0.49194 0.78725
 H718 H 0.87417 0.51456 0.67743
 H719 H 0.75997 0.74164 0.61177
 H720 H 0.81558 0.68525 0.54754
 C721 C 0.32632 0.25121 0.65207
 C722 C 0.29016 0.21924 0.68572
 C723 C 0.28372 0.15264 0.67783
 C724 C 0.31504 0.11657 0.64301
 C725 C 0.35380 0.14605 0.61505
 C726 C 0.35863 0.21429 0.61727
 C727 C 0.33199 0.31899 0.65323
 C728 C 0.36862 0.34959 0.62228
 C729 C 0.40015 0.31357 0.58864
 C730 C 0.39497 0.24687 0.58530
 H731 H 0.30841 0.34924 0.67781
 H732 H 0.37241 0.40157 0.62425
 H733 H 0.42853 0.33746 0.56444
 H734 H 0.41943 0.22159 0.55672
 H735 H 0.25523 0.12748 0.70057
 H736 H 0.31031 0.06471 0.64046
 C737 C 0.32298 0.75149 0.15388
 C738 C 0.28858 0.71739 0.19011
 C739 C 0.28508 0.65013 0.18265
 C740 C 0.31763 0.61619 0.14753
 C741 C 0.35333 0.64842 0.11530
 C742 C 0.35443 0.71674 0.11558
 C743 C 0.32759 0.81939 0.15464
 C744 C 0.36018 0.85227 0.11826
 C745 C 0.38933 0.81834 0.07957
 C746 C 0.38644 0.75133 0.07790
 H747 H 0.30631 0.84816 0.18298
 H748 H 0.36255 0.90446 0.11985
 H749 H 0.41431 0.84402 0.05082
 H750 H 0.40903 0.72700 0.04613
 H751 H 0.25814 0.62253 0.20608
 H752 H 0.31610 0.56400 0.14791
   
