data_POSCAR
  _audit_creation_date              2014-09-24
  _audit_creation_method            'ToBaCCo'
  _symmetry_space_group_name_H-M    'P1'
  _symmetry_Int_Tables_number       1
  _symmetry_cell_setting            triclinic
  loop_
  _symmetry_equiv_pos_as_xyz
 x,y,z
_cell_length_a 19.7891
_cell_length_b 27.0747
_cell_length_c 7.7507
_cell_angle_alpha 90.000100
_cell_angle_beta 90.000100
_cell_angle_gamma 90.639600
loop_
  _atom_site_label
  _atom_site_type_symbol
  _atom_site_fract_x
  _atom_site_fract_y
  _atom_site_fract_z
O1 O 0.16626 0.21419 0.37843
 O2 O 0.29982 0.31001 0.37552
 O3 O 0.17477 0.30603 0.27154
 O4 O 0.29077 0.21897 0.48148
 O5 O 0.32451 0.19255 0.22649
 O6 O 0.20924 0.28010 0.01648
 O7 O 0.33382 0.28450 0.11944
 O8 O 0.19988 0.18902 0.12158
 Cu9 Cu 0.22949 0.26489 0.40192
 Cu10 Cu 0.27031 0.23402 0.09592
 C11 C 0.16082 0.18502 0.25086
 C12 C 0.33910 0.31382 0.24658
 C13 C 0.17285 0.30816 0.10787
 C14 C 0.32666 0.19049 0.39024
 O15 O 0.83404 0.28465 0.38196
 O16 O 0.70030 0.18900 0.37855
 O17 O 0.82519 0.19278 0.27429
 O18 O 0.70949 0.27997 0.48476
 O19 O 0.67530 0.30619 0.22980
 O20 O 0.79081 0.21892 0.01940
 O21 O 0.66641 0.21451 0.12248
 O22 O 0.80031 0.31003 0.12548
 Cu23 Cu 0.77072 0.23403 0.40500
 Cu24 Cu 0.72985 0.26502 0.09913
 C25 C 0.83943 0.31393 0.25472
 C26 C 0.66097 0.18517 0.24959
 C27 C 0.82697 0.19066 0.11061
 C28 C 0.67320 0.30814 0.39348
 O29 O 0.70919 0.78108 0.51940
 O30 O 0.82470 0.69381 0.72980
 O31 O 0.69968 0.68997 0.62548
 O32 O 0.83358 0.78548 0.62248
 O33 O 0.79970 0.81100 0.87855
 O34 O 0.66596 0.71535 0.88196
 O35 O 0.79051 0.72003 0.98476
 O36 O 0.67481 0.80722 0.77429
 Cu37 Cu 0.77015 0.73498 0.59913
 Cu38 Cu 0.72928 0.76597 0.90500
 C39 C 0.67302 0.80934 0.61061
 C40 C 0.82679 0.69186 0.89348
 C41 C 0.66057 0.68607 0.75472
 C42 C 0.83903 0.81483 0.74959
 O43 O 0.33374 0.78581 0.87843
 O44 O 0.20017 0.68999 0.87552
 O45 O 0.32522 0.69397 0.77154
 O46 O 0.20923 0.78103 0.98147
 O47 O 0.17549 0.80745 0.72649
 O48 O 0.29076 0.71990 0.51647
 O49 O 0.16618 0.71549 0.61944
 O50 O 0.30011 0.81097 0.62158
 Cu51 Cu 0.27051 0.73511 0.90192
 Cu52 Cu 0.22968 0.76598 0.59592
 C53 C 0.33917 0.81497 0.75086
 C54 C 0.16089 0.68618 0.74658
 C55 C 0.32715 0.69184 0.60787
 C56 C 0.17334 0.80951 0.89023
 C57 C 1.02186 0.03909 0.09739
 C58 C 0.96667 0.04411 -0.01555
 C59 C 0.94539 0.00345 -0.11445
 C60 C 0.97803 -0.04201 -0.10105
 C61 C 1.03350 -0.04693 0.01119
 C62 C 1.05452 -0.00634 0.11080
 H63 H 1.09784 -0.00963 0.19532
 H64 H 0.90191 0.00671 -0.19848
 C65 C 0.52137 0.54022 0.60171
 C66 C 0.46789 0.54579 0.48377
 C67 C 0.44733 0.50537 0.38273
 C68 C 0.47857 0.45950 0.40012
 C69 C 0.53207 0.45394 0.51801
 C70 C 0.55260 0.49435 0.61911
 H71 H 0.59477 0.49067 0.70714
 H72 H 0.40516 0.50905 0.29470
 C73 C -0.02137 0.45978 0.10171
 C74 C 0.03211 0.45420 -0.01623
 C75 C 0.05267 0.49463 -0.11726
 C76 C 0.02142 0.54049 -0.09988
 C77 C -0.03207 0.54606 0.01801
 C78 C -0.05261 0.50564 0.11911
 H79 H -0.09478 0.50932 0.20714
 H80 H 0.09483 0.49095 -0.20530
 C81 C 0.47813 0.96091 0.59739
 C82 C 0.53332 0.95589 0.48445
 C83 C 0.55461 0.99655 0.38555
 C84 C 0.52197 1.04201 0.39895
 C85 C 0.46650 1.04693 0.51119
 C86 C 0.44548 1.00634 0.61080
 H87 H 0.40216 1.00962 0.69531
 H88 H 0.59808 0.99329 0.30152
 N89 N 1.03885 0.09152 0.35031
 N90 N 1.07505 0.13096 0.39564
 C91 C 1.10994 0.14530 0.25427
 C92 C 1.09406 0.11365 0.12092
 N93 N 1.04937 0.08100 0.18583
 H94 H 1.11432 0.11338 -0.00885
 N95 N 0.53977 0.59190 0.85598
 N96 N 0.57603 0.63133 0.90114
 C97 C 0.60972 0.64631 0.75866
 C98 C 0.59298 0.61509 0.62477
 N99 N 0.54906 0.58202 0.69053
 H100 H 0.61231 0.61531 0.49407
 N101 N -0.03978 0.40809 0.35598
 N102 N -0.07604 0.36867 0.40114
 C103 C -0.10972 0.35369 0.25866
 C104 C -0.09298 0.38491 0.12477
 N105 N -0.04906 0.41798 0.19053
 H106 H -0.11231 0.38469 -0.00593
 N107 N 0.46115 0.90848 0.85031
 N108 N 0.42495 0.86904 0.89564
 C109 C 0.39006 0.85470 0.75426
 C110 C 0.40594 0.88635 0.62092
 N111 N 0.45062 0.91900 0.68583
 H112 H 0.38568 0.88662 0.49115
 N113 N -0.08802 0.61090 0.18059
 N114 N -0.12595 0.65006 0.15208
 C115 C -0.12988 0.65574 -0.02042
 C116 C -0.09296 0.61889 -0.09717
 N117 N -0.06737 0.59186 0.03267
 H118 H -0.08879 0.61070 -0.23338
 N119 N 0.41010 1.11164 0.67287
 N120 N 0.37170 1.15054 0.64430
 C121 C 0.36732 1.15596 0.47174
 C122 C 0.40466 1.11927 0.39499
 N123 N 0.43075 1.09256 0.52501
 H124 H 0.40848 1.11082 0.25893
 N125 N 1.08989 -0.11164 0.17287
 N126 N 1.12830 -0.15055 0.14430
 C127 C 1.13268 -0.15596 -0.02826
 C128 C 1.09534 -0.11927 -0.10501
 N129 N 1.06925 -0.09256 0.02500
 H130 H 1.09151 -0.11082 -0.24107
 N131 N 0.58802 0.38910 0.68059
 N132 N 0.62595 0.34994 0.65208
 C133 C 0.62988 0.34426 0.47958
 C134 C 0.59296 0.38110 0.40283
 N135 N 0.56737 0.40813 0.53267
 H136 H 0.58879 0.38930 0.26662
 N137 N 0.96556 -0.09852 -0.34500
 N138 N 0.92868 -0.13776 -0.38885
 C139 C 0.88784 -0.14789 -0.25352
 C140 C 0.90088 -0.11386 -0.12520
 N141 N 0.94980 -0.08410 -0.18705
 H142 H 0.87677 -0.11051 -0.00036
 N143 N 0.46047 0.40768 0.14606
 N144 N 0.42412 0.36831 0.10076
 C145 C 0.39006 0.35351 0.24291
 C146 C 0.40666 0.38480 0.37674
 N147 N 0.45088 0.41771 0.31130
 H148 H 0.38708 0.38471 0.50719
 N149 N 0.03953 0.59232 -0.35394
 N150 N 0.07588 0.63169 -0.39924
 C151 C 0.10993 0.64648 -0.25709
 C152 C 0.09333 0.61520 -0.12326
 N153 N 0.04911 0.58229 -0.18870
 H154 H 0.11292 0.61529 0.00719
 N155 N 0.53444 1.09851 0.15500
 N156 N 0.57131 1.13776 0.11115
 C157 C 0.61215 1.14788 0.24648
 C158 C 0.59912 1.11386 0.37480
 N159 N 0.55020 1.08410 0.31295
 H160 H 0.62323 1.11051 0.49964
 N161 N 0.08809 0.38942 -0.17899
 N162 N 0.12590 0.35018 -0.15060
 C163 C 0.12964 0.34437 0.02187
 C164 C 0.09275 0.38122 0.09873
 N165 N 0.06736 0.40838 -0.03103
 H166 H 0.08848 0.38932 0.23498
 N167 N 0.58960 0.89107 0.32289
 N168 N 0.62697 0.85165 0.35177
 C169 C 0.63034 0.84582 0.52428
 C170 C 0.59374 0.88291 0.60070
 N171 N 0.56886 0.91018 0.47058
 H172 H 0.58925 0.89102 0.73689
 N173 N 0.91039 0.10892 -0.17712
 N174 N 0.87303 0.14835 -0.14823
 C175 C 0.86966 0.15418 0.02428
 C176 C 0.90626 0.11709 0.10070
 N177 N 0.93114 0.08982 -0.02942
 H178 H 0.91075 0.10897 0.23689
 N179 N 0.41191 0.61058 0.32101
 N180 N 0.37410 0.64981 0.34940
 C181 C 0.37036 0.65563 0.52187
 C182 C 0.40725 0.61878 0.59873
 N183 N 0.43264 0.59162 0.46897
 H184 H 0.41152 0.61068 0.73498
   
