data_POSCAR
  _audit_creation_date              2014-09-24
  _audit_creation_method            'ToBaCCo'
  _symmetry_space_group_name_H-M    'P1'
  _symmetry_Int_Tables_number       1
  _symmetry_cell_setting            triclinic
  loop_
  _symmetry_equiv_pos_as_xyz
 x,y,z
_cell_length_a 52.9788
_cell_length_b 52.9786
_cell_length_c 41.1649
_cell_angle_alpha 89.973400
_cell_angle_beta 89.973700
_cell_angle_gamma 89.967000
loop_
  _atom_site_label
  _atom_site_type_symbol
  _atom_site_fract_x
  _atom_site_fract_y
  _atom_site_fract_z
O1 O -0.02441 0.29578 0.03109
 O2 O 0.02508 0.29559 -0.03206
 O3 O -0.02429 0.29565 -0.03214
 O4 O 0.02495 0.29588 0.03117
 O5 O 0.02488 0.25425 0.03132
 O6 O -0.02413 0.25402 -0.03180
 O7 O 0.02498 0.25400 -0.03170
 O8 O -0.02421 0.25415 0.03122
 Cu9 Cu 0.00033 0.29991 -0.00051
 Cu10 Cu 0.00039 0.24996 -0.00022
 C11 C -0.03286 0.27494 0.04184
 C12 C 0.03365 0.27471 -0.04260
 C13 C -0.03274 0.27475 -0.04266
 C14 C 0.03344 0.27506 0.04195
 O15 O 0.52454 0.79563 0.46833
 O16 O 0.47524 0.79578 0.53163
 O17 O 0.52461 0.79561 0.53157
 O18 O 0.47517 0.79564 0.46839
 O19 O 0.47527 0.75401 0.46859
 O20 O 0.52441 0.75398 0.53155
 O21 O 0.47529 0.75415 0.53163
 O22 O 0.52439 0.75400 0.46852
 Cu23 Cu 0.49989 0.79986 0.49997
 Cu24 Cu 0.49983 0.74989 0.50008
 C25 C 0.53300 0.77475 0.45774
 C26 C 0.46672 0.77495 0.54232
 C27 C 0.53307 0.77473 0.54223
 C28 C 0.46667 0.77477 0.45781
 O29 O 1.02544 0.70495 0.03167
 O30 O 0.97608 0.70496 -0.03158
 O31 O 1.02545 0.70498 -0.03156
 O32 O 0.97607 0.70485 0.03166
 O33 O 0.97613 0.74648 0.03161
 O34 O 1.02527 0.74656 -0.03141
 O35 O 0.97616 0.74659 -0.03143
 O36 O 1.02524 0.74654 0.03161
 Cu37 Cu 1.00076 0.70076 0.00004
 Cu38 Cu 1.00069 0.75068 0.00010
 C39 C 1.03395 0.72580 0.04237
 C40 C 0.96758 0.72584 -0.04220
 C41 C 1.03397 0.72584 -0.04221
 C42 C 0.96755 0.72569 0.04231
 O43 O 0.52460 0.20365 0.53187
 O44 O 0.47533 0.20364 0.46860
 O45 O 0.52468 0.20379 0.46864
 O46 O 0.47523 0.20365 0.53184
 O47 O 0.47530 0.24528 0.53178
 O48 O 0.52445 0.24542 0.46880
 O49 O 0.47535 0.24527 0.46876
 O50 O 0.52440 0.24528 0.53182
 Cu51 Cu 0.49997 0.19949 0.50024
 Cu52 Cu 0.49986 0.24946 0.50030
 C53 C 0.53303 0.22451 0.54254
 C54 C 0.46681 0.22450 0.45798
 C55 C 0.53312 0.22469 0.45804
 C56 C 0.46672 0.22450 0.54249
 O57 O 0.70419 -0.02441 0.03116
 O58 O 0.70438 0.02507 -0.03200
 O59 O 0.70421 -0.02429 -0.03208
 O60 O 0.70420 0.02495 0.03122
 O61 O 0.74583 0.02475 0.03120
 O62 O 0.74584 -0.02427 -0.03191
 O63 O 0.74596 0.02483 -0.03181
 O64 O 0.74582 -0.02435 0.03112
 Cu65 Cu 0.70006 0.00033 -0.00044
 Cu66 Cu 0.75001 0.00023 -0.00035
 C67 C 0.72504 -0.03293 0.04182
 C68 C 0.72526 0.03357 -0.04263
 C69 C 0.72508 -0.03280 -0.04270
 C70 C 0.72506 0.03337 0.04191
 O71 O 0.20423 0.47542 0.53213
 O72 O 0.20416 0.52472 0.46883
 O73 O 0.20433 0.47536 0.46890
 O74 O 0.20422 0.52480 0.53208
 O75 O 0.24585 0.52470 0.53197
 O76 O 0.24596 0.47556 0.46900
 O77 O 0.24579 0.52467 0.46893
 O78 O 0.24586 0.47558 0.53203
 Cu79 Cu 0.20005 0.50007 0.50049
 Cu80 Cu 0.25001 0.50013 0.50048
 C81 C 0.22511 0.46695 0.54277
 C82 C 0.22501 0.53323 0.45818
 C83 C 0.22522 0.46691 0.45828
 C84 C 0.22507 0.53330 0.54270
 O85 O 0.29491 0.97531 -0.03256
 O86 O 0.29511 1.02468 0.03069
 O87 O 0.29519 0.97531 0.03068
 O88 O 0.29493 1.02469 -0.03254
 O89 O 0.25334 1.02457 -0.03219
 O90 O 0.25356 0.97543 0.03083
 O91 O 0.25349 1.02454 0.03084
 O92 O 0.25333 0.97545 -0.03220
 Cu93 Cu 0.29922 1.00000 -0.00097
 Cu94 Cu 0.24929 1.00000 -0.00066
 C95 C 0.27403 0.96677 -0.04311
 C96 C 0.27427 1.03315 0.04146
 C97 C 0.27437 0.96683 0.04144
 C98 C 0.27405 1.03325 -0.04308
 O99 O 0.79632 0.52454 0.53185
 O100 O 0.79621 0.47527 0.46858
 O101 O 0.79624 0.52462 0.46861
 O102 O 0.79614 0.47517 0.53180
 O103 O 0.75451 0.47543 0.53173
 O104 O 0.75461 0.52458 0.46876
 O105 O 0.75458 0.47548 0.46872
 O106 O 0.75469 0.52453 0.53178
 Cu107 Cu 0.80042 0.49989 0.50021
 Cu108 Cu 0.75045 0.50002 0.50025
 C109 C 0.77548 0.53307 0.54250
 C110 C 0.77533 0.46685 0.45795
 C111 C 0.77538 0.53315 0.45800
 C112 C 0.77525 0.46674 0.54244
 C113 C 0.27824 0.29598 0.32671
 C114 C 0.29585 0.27705 0.32756
 C115 C 0.28932 0.26001 0.30341
 N116 N 0.26826 0.26797 0.28798
 C117 C 0.26139 0.28994 0.30212
 C118 C 0.30334 0.23808 0.29561
 C119 C 0.29737 0.22101 0.27027
 C120 C 0.31315 0.20170 0.25992
 C121 C 0.30108 0.18975 0.23472
 C122 C 0.27820 0.20202 0.23022
 N123 N 0.27592 0.22077 0.25239
 C124 C 0.26041 0.19556 0.20592
 C125 C 0.23883 0.21000 0.19787
 C126 C 0.22199 0.20397 0.17326
 C127 C 0.20438 0.22290 0.17240
 C128 C 0.21090 0.23994 0.19656
 N129 N 0.23195 0.23197 0.21202
 C130 C 0.19688 0.26186 0.20437
 C131 C 0.20284 0.27891 0.22973
 C132 C 0.18705 0.29820 0.24011
 C133 C 0.19911 0.31015 0.26531
 C134 C 0.22201 0.29790 0.26979
 N135 N 0.22430 0.27917 0.24760
 C136 C 0.23980 0.30437 0.29408
 H137 H 0.27784 0.31227 0.34257
 H138 H 0.31175 0.27609 0.34402
 H139 H 0.24028 0.26843 0.24333
 H140 H 0.33164 0.19689 0.26923
 H141 H 0.30853 0.17401 0.22097
 H142 H 0.22240 0.18769 0.15739
 H143 H 0.18849 0.22388 0.15593
 H144 H 0.19165 0.32588 0.27907
 H145 H 0.25995 0.23153 0.25663
 H146 H 0.16856 0.30300 0.23080
 C147 C 0.70449 0.72242 0.32726
 C148 C 0.72224 0.70362 0.32634
 C149 C 0.73907 0.70986 0.30178
 N150 N 0.73205 0.73182 0.28771
 C151 C 0.71092 0.73958 0.30317
 C152 C 0.76078 0.69561 0.29371
 C153 C 0.77856 0.70226 0.26945
 C154 C 0.80154 0.69019 0.26497
 C155 C 0.81355 0.70228 0.23981
 C156 C 0.79764 0.72148 0.22947
 N157 N 0.77616 0.72104 0.24732
 C158 C 0.80352 0.73864 0.20417
 C159 C 0.78934 0.76048 0.19643
 C160 C 0.79576 0.77763 0.17232
 C161 C 0.77801 0.79643 0.17323
 C162 C 0.76119 0.79020 0.19781
 N163 N 0.76822 0.76825 0.21189
 C164 C 0.73948 0.80446 0.20590
 C165 C 0.72171 0.79781 0.23016
 C166 C 0.69874 0.80991 0.23467
 C167 C 0.68673 0.79782 0.25984
 C168 C 0.70263 0.77859 0.27015
 N169 N 0.72410 0.77902 0.25228
 C170 C 0.69675 0.76143 0.29545
 H171 H 0.68857 0.72323 0.34371
 H172 H 0.72275 0.68730 0.34216
 H173 H 0.74015 0.76838 0.25650
 H174 H 0.80909 0.67447 0.27869
 H175 H 0.83209 0.69763 0.23051
 H176 H 0.81168 0.77682 0.15586
 H177 H 0.77750 0.81274 0.15741
 H178 H 0.66820 0.80248 0.26916
 H179 H 0.76011 0.73167 0.24308
 H180 H 0.69120 0.82563 0.22097
 C181 C 0.77743 0.20455 0.17226
 C182 C 0.79629 0.22221 0.17317
 C183 C 0.79015 0.23900 0.19779
 N184 N 0.76819 0.23206 0.21190
 C185 C 0.76033 0.21100 0.19641
 C186 C 0.80450 0.26062 0.20590
 C187 C 0.79793 0.27837 0.23021
 C188 C 0.81011 0.30129 0.23475
 C189 C 0.79808 0.31330 0.25995
 C190 C 0.77882 0.29746 0.27028
 N191 N 0.77917 0.27602 0.25237
 C192 C 0.76171 0.30336 0.29561
 C193 C 0.73982 0.28928 0.30336
 C194 C 0.72272 0.29574 0.32751
 C195 C 0.70386 0.27807 0.32660
 C196 C 0.71000 0.26127 0.30198
 N197 N 0.73197 0.26822 0.28788
 C198 C 0.69567 0.23964 0.29389
 C199 C 0.70224 0.22189 0.26959
 C200 C 0.69008 0.19897 0.26507
 C201 C 0.70211 0.18696 0.23986
 C202 C 0.72135 0.20281 0.22952
 N203 N 0.72099 0.22425 0.24742
 C204 C 0.73845 0.19692 0.20417
 H205 H 0.77653 0.18867 0.15577
 H206 H 0.81259 0.22267 0.15732
 H207 H 0.73166 0.24027 0.24318
 H208 H 0.82584 0.30879 0.22102
 H209 H 0.80281 0.33179 0.26930
 H210 H 0.72360 0.31162 0.34399
 H211 H 0.68756 0.27761 0.34244
 H212 H 0.69739 0.16846 0.23053
 H213 H 0.76848 0.26001 0.25658
 H214 H 0.67436 0.19145 0.27881
 C215 C 0.27707 0.70431 0.32731
 C216 C 0.29594 0.72196 0.32636
 C217 C 0.28981 0.73878 0.30177
 N218 N 0.26783 0.73187 0.28770
 C219 C 0.25996 0.71080 0.30320
 C220 C 0.30416 0.76041 0.29365
 C221 C 0.29761 0.77818 0.26934
 C222 C 0.30979 0.80109 0.26480
 C223 C 0.29777 0.81312 0.23959
 C224 C 0.27851 0.79730 0.22929
 N225 N 0.27884 0.77585 0.24721
 C226 C 0.26140 0.80323 0.20397
 C227 C 0.23950 0.78916 0.19626
 C228 C 0.22241 0.79564 0.17212
 C229 C 0.20352 0.77800 0.17308
 C230 C 0.20964 0.76119 0.19770
 N231 N 0.23162 0.76811 0.21178
 C232 C 0.19527 0.73958 0.20584
 C233 C 0.20182 0.72181 0.23016
 C234 C 0.18961 0.69892 0.23473
 C235 C 0.20164 0.68688 0.25992
 C236 C 0.22093 0.70268 0.27019
 N237 N 0.22060 0.72412 0.25227
 C238 C 0.23806 0.69674 0.29549
 H239 H 0.27618 0.68841 0.34379
 H240 H 0.31225 0.72239 0.34218
 H241 H 0.23133 0.74011 0.25644
 H242 H 0.32552 0.80858 0.27850
 H243 H 0.30251 0.83162 0.23024
 H244 H 0.22331 0.81152 0.15562
 H245 H 0.18722 0.77756 0.15725
 H246 H 0.19689 0.66839 0.26929
 H247 H 0.26814 0.75985 0.24301
 H248 H 0.17386 0.69144 0.22105
 C249 C 0.79586 0.22196 0.82744
 C250 C 0.77818 0.20312 0.82657
 C251 C 0.76134 0.20929 0.80202
 N252 N 0.76827 0.23126 0.78792
 C253 C 0.78937 0.23909 0.80334
 C254 C 0.73968 0.19498 0.79399
 C255 C 0.72188 0.20157 0.76975
 C256 C 0.69895 0.18942 0.76529
 C257 C 0.68689 0.20147 0.74014
 C258 C 0.70272 0.22073 0.72979
 N259 N 0.72419 0.22035 0.74761
 C260 C 0.69677 0.23787 0.70450
 C261 C 0.71083 0.25976 0.69674
 C262 C 0.70432 0.27690 0.67266
 C263 C 0.72199 0.29576 0.67355
 C264 C 0.73885 0.28958 0.69808
 N265 N 0.73193 0.26759 0.71216
 C266 C 0.76050 0.30389 0.70612
 C267 C 0.77832 0.29728 0.73033
 C268 C 0.80126 0.30942 0.73477
 C269 C 0.81333 0.29735 0.75990
 C270 C 0.79750 0.27810 0.77027
 N271 N 0.77601 0.27849 0.75247
 C272 C 0.80345 0.26096 0.79556
 H273 H 0.81179 0.22283 0.84387
 H274 H 0.77774 0.18681 0.84241
 H275 H 0.75999 0.26782 0.75675
 H276 H 0.69146 0.17368 0.77902
 H277 H 0.66837 0.19677 0.73086
 H278 H 0.68840 0.27604 0.65624
 H279 H 0.72242 0.31208 0.65774
 H280 H 0.83186 0.30205 0.76917
 H281 H 0.74020 0.23104 0.74336
 H282 H 0.80874 0.32515 0.72104
 C283 C 0.27773 0.70422 0.67380
 C284 C 0.29538 0.72309 0.67283
 C285 C 0.28887 0.74024 0.69688
 N286 N 0.26778 0.73240 0.71237
 C287 C 0.26088 0.71040 0.69835
 C288 C 0.30293 0.76215 0.70455
 C289 C 0.29695 0.77934 0.72977
 C290 C 0.31275 0.79864 0.74002
 C291 C 0.30067 0.81073 0.76513
 C292 C 0.27776 0.79855 0.76968
 N293 N 0.27548 0.77971 0.74763
 C294 C 0.25995 0.80515 0.79393
 C295 C 0.23834 0.79080 0.80207
 C296 C 0.22150 0.79697 0.82664
 C297 C 0.20387 0.77808 0.82764
 C298 C 0.21038 0.76092 0.80360
 N299 N 0.23145 0.76878 0.78808
 C300 C 0.19635 0.73899 0.79597
 C301 C 0.20230 0.72182 0.77072
 C302 C 0.18651 0.70252 0.76049
 C303 C 0.19856 0.69045 0.73534
 C304 C 0.22146 0.70265 0.73076
 N305 N 0.22376 0.72147 0.75282
 C306 C 0.23925 0.69606 0.70648
 H307 H 0.27731 0.68788 0.65803
 H308 H 0.31129 0.72395 0.65637
 H309 H 0.23974 0.73220 0.75699
 H310 H 0.33126 0.80336 0.73069
 H311 H 0.30813 0.82651 0.77877
 H312 H 0.22191 0.81332 0.84240
 H313 H 0.18797 0.77721 0.84412
 H314 H 0.19110 0.67468 0.72169
 H315 H 0.25949 0.76899 0.74345
 H316 H 0.16801 0.69778 0.76985
 C317 C 0.27725 0.29526 0.67294
 C318 C 0.29604 0.27750 0.67385
 C319 C 0.28979 0.26066 0.69838
 N320 N 0.26782 0.26767 0.71244
 C321 C 0.26007 0.28881 0.69700
 C322 C 0.30403 0.23894 0.70645
 C323 C 0.29736 0.22114 0.73066
 C324 C 0.30944 0.19816 0.73515
 C325 C 0.29732 0.18612 0.76027
 C326 C 0.27810 0.20201 0.77059
 N327 N 0.27855 0.22351 0.75276
 C328 C 0.26091 0.19611 0.79585
 C329 C 0.23906 0.21027 0.80357
 C330 C 0.22188 0.20383 0.82763
 C331 C 0.20309 0.22159 0.82672
 C332 C 0.20934 0.23843 0.80218
 N333 N 0.23131 0.23142 0.78813
 C334 C 0.19510 0.26015 0.79412
 C335 C 0.20177 0.27795 0.76990
 C336 C 0.18969 0.30094 0.76543
 C337 C 0.20181 0.31297 0.74030
 C338 C 0.22103 0.29707 0.72998
 N339 N 0.22057 0.27558 0.74780
 C340 C 0.23822 0.30298 0.70472
 H341 H 0.27645 0.31119 0.65651
 H342 H 0.31237 0.27701 0.65806
 H343 H 0.23121 0.25953 0.74356
 H344 H 0.32518 0.19063 0.72145
 H345 H 0.30197 0.16758 0.76956
 H346 H 0.22268 0.18790 0.84407
 H347 H 0.18676 0.22208 0.84251
 H348 H 0.19717 0.33152 0.73102
 H349 H 0.26791 0.23955 0.75700
 H350 H 0.17396 0.30847 0.77913
 C351 C 0.79663 0.77850 0.82624
 C352 C 0.77770 0.79612 0.82711
 C353 C 0.76060 0.78954 0.80304
 N354 N 0.76853 0.76845 0.78765
 C355 C 0.79054 0.76161 0.80173
 C356 C 0.73866 0.80353 0.79527
 C357 C 0.72155 0.79751 0.77001
 C358 C 0.70223 0.81328 0.75965
 C359 C 0.69021 0.80115 0.73455
 C360 C 0.70245 0.77825 0.73011
 N361 N 0.72125 0.77601 0.75223
 C362 C 0.69592 0.76040 0.70592
 C363 C 0.71033 0.73878 0.69791
 C364 C 0.70423 0.72188 0.67341
 C365 C 0.72316 0.70426 0.67255
 C366 C 0.74026 0.71085 0.69661
 N367 N 0.73234 0.73195 0.71199
 C368 C 0.76220 0.69685 0.70438
 C369 C 0.77933 0.70288 0.72963
 C370 C 0.79865 0.68712 0.73998
 C371 C 0.81067 0.69924 0.76508
 C372 C 0.79843 0.72215 0.76952
 N373 N 0.77963 0.72438 0.74741
 C374 C 0.80495 0.73999 0.79372
 H375 H 0.81295 0.77814 0.84205
 H376 H 0.77677 0.81205 0.84351
 H377 H 0.76887 0.74034 0.74314
 H378 H 0.69745 0.83179 0.76891
 H379 H 0.67444 0.80858 0.72083
 H380 H 0.68791 0.72225 0.65761
 H381 H 0.72408 0.68832 0.65615
 H382 H 0.82644 0.69182 0.77880
 H383 H 0.73200 0.76004 0.75651
 H384 H 0.80343 0.66860 0.73073
 C385 C 0.29627 0.08444 0.09928
 C386 C 0.27321 0.09361 0.11098
 C387 C 0.25063 0.08254 0.10066
 C388 C 0.25102 0.06263 0.07843
 C389 C 0.27407 0.05348 0.06615
 C390 C 0.29673 0.06447 0.07703
 C391 C 0.27242 0.11492 0.13264
 C392 C 0.27093 0.13303 0.15027
 C393 C 0.26824 0.15449 0.17027
 C394 C 0.26512 0.17304 0.18677
 H395 H 0.31387 0.09292 0.10705
 H396 H 0.23266 0.08952 0.10949
 H397 H 0.23324 0.05461 0.07060
 H398 H 0.31477 0.05788 0.06802
 C399 C 0.79756 0.58439 0.60016
 C400 C 0.77450 0.59368 0.61171
 C401 C 0.75189 0.58265 0.60144
 C402 C 0.75225 0.56266 0.57935
 C403 C 0.77529 0.55340 0.56717
 C404 C 0.79797 0.56433 0.57805
 C405 C 0.77377 0.61517 0.63305
 C406 C 0.77235 0.63347 0.65033
 C407 C 0.76977 0.65520 0.66984
 C408 C 0.76675 0.67400 0.68587
 H409 H 0.81517 0.59285 0.60789
 H410 H 0.73394 0.58974 0.61016
 H411 H 0.73446 0.55467 0.57151
 H412 H 0.81601 0.55766 0.56911
 C413 C 0.70311 0.91568 0.09962
 C414 C 0.72619 0.90652 0.11125
 C415 C 0.74876 0.91762 0.10090
 C416 C 0.74833 0.93756 0.07871
 C417 C 0.72527 0.94671 0.06648
 C418 C 0.70262 0.93569 0.07740
 C419 C 0.72703 0.88518 0.13287
 C420 C 0.72859 0.86704 0.15045
 C421 C 0.73140 0.84555 0.17038
 C422 C 0.73464 0.82698 0.18682
 H423 H 0.68552 0.90718 0.10742
 H424 H 0.76673 0.91065 0.10969
 H425 H 0.76610 0.94561 0.07085
 H426 H 0.68457 0.94228 0.06843
 C427 C 0.20317 0.41551 0.60044
 C428 C 0.22625 0.40622 0.61191
 C429 C 0.24883 0.41730 0.60157
 C430 C 0.24842 0.43733 0.57951
 C431 C 0.22536 0.44658 0.56741
 C432 C 0.20270 0.43560 0.57835
 C433 C 0.22701 0.38471 0.63325
 C434 C 0.22841 0.36640 0.65054
 C435 C 0.23092 0.34465 0.67008
 C436 C 0.23383 0.32584 0.68614
 H437 H 0.18557 0.40702 0.60822
 H438 H 0.26680 0.41021 0.61023
 H439 H 0.26619 0.44535 0.57162
 H440 H 0.18465 0.44227 0.56949
 C441 C 0.91774 0.25122 0.10098
 C442 C 0.90657 0.27378 0.11124
 C443 C 0.91567 0.29686 0.09953
 C444 C 0.93568 0.29735 0.07731
 C445 C 0.94677 0.27471 0.06649
 C446 C 0.93769 0.25165 0.07880
 C447 C 0.88522 0.27294 0.13284
 C448 C 0.86708 0.27139 0.15041
 C449 C 0.84558 0.26861 0.17035
 C450 C 0.82702 0.26541 0.18680
 H451 H 0.91082 0.23324 0.10983
 H452 H 0.90711 0.31444 0.10725
 H453 H 0.94222 0.31540 0.06829
 H454 H 0.94579 0.23388 0.07101
 C455 C 0.41538 0.79710 0.60001
 C456 C 0.40606 0.77407 0.61156
 C457 C 0.41707 0.75144 0.60126
 C458 C 0.43708 0.75177 0.57916
 C459 C 0.44636 0.77479 0.56699
 C460 C 0.43544 0.79749 0.57788
 C461 C 0.38457 0.77338 0.63295
 C462 C 0.36628 0.77203 0.65028
 C463 C 0.34456 0.76953 0.66986
 C464 C 0.32577 0.76660 0.68595
 H465 H 0.40693 0.81473 0.60775
 H466 H 0.40997 0.73350 0.60999
 H467 H 0.44506 0.73396 0.57131
 H468 H 0.44213 0.81551 0.56895
 C469 C 0.08281 0.74945 0.09979
 C470 C 0.09337 0.72684 0.11087
 C471 C 0.08374 0.70378 0.09990
 C472 C 0.06380 0.70334 0.07759
 C473 C 0.05326 0.72603 0.06581
 C474 C 0.06294 0.74910 0.07751
 C475 C 0.11464 0.72757 0.13260
 C476 C 0.13273 0.72903 0.15026
 C477 C 0.15419 0.73171 0.17026
 C478 C 0.17274 0.73484 0.18675
 H479 H 0.09015 0.76741 0.10809
 H480 H 0.09181 0.68616 0.10830
 H481 H 0.05693 0.68520 0.06931
 H482 H 0.05542 0.76699 0.06921
 C483 C 0.58254 0.24821 0.60144
 C484 C 0.59366 0.22563 0.61172
 C485 C 0.58445 0.20255 0.60018
 C486 C 0.56440 0.20209 0.57807
 C487 C 0.55337 0.22475 0.56719
 C488 C 0.56254 0.24781 0.57936
 C489 C 0.61514 0.22641 0.63307
 C490 C 0.63344 0.22784 0.65035
 C491 C 0.65515 0.23041 0.66988
 C492 C 0.67394 0.23339 0.68594
 H493 H 0.58956 0.26618 0.61016
 H494 H 0.59299 0.18496 0.60792
 H495 H 0.55779 0.18404 0.56915
 H496 H 0.55448 0.26558 0.57151
 C497 C 0.70346 0.08345 0.89983
 C498 C 0.72657 0.09306 0.88895
 C499 C 0.74913 0.08246 0.90009
 C500 C 0.74869 0.06257 0.92235
 C501 C 0.72558 0.05291 0.93396
 C502 C 0.70292 0.06350 0.92212
 C503 C 0.72739 0.11435 0.86724
 C504 C 0.72893 0.13245 0.84960
 C505 C 0.73171 0.15392 0.82960
 C506 C 0.73490 0.17246 0.81312
 H507 H 0.68587 0.09157 0.89138
 H508 H 0.76712 0.08979 0.89186
 H509 H 0.76655 0.05501 0.93069
 H510 H 0.68475 0.05664 0.93034
 C511 C 0.20292 0.58450 0.40033
 C512 C 0.22597 0.59381 0.38881
 C513 C 0.24859 0.58282 0.39919
 C514 C 0.24823 0.56285 0.42135
 C515 C 0.22520 0.55357 0.43349
 C516 C 0.20251 0.56447 0.42251
 C517 C 0.22669 0.61525 0.36734
 C518 C 0.22806 0.63350 0.34995
 C519 C 0.23059 0.65518 0.33029
 C520 C 0.23356 0.67393 0.31414
 H521 H 0.18530 0.59292 0.39251
 H522 H 0.26654 0.58992 0.39049
 H523 H 0.26603 0.55489 0.42927
 H524 H 0.18447 0.55778 0.43140
 C525 C 0.29588 0.91695 0.89930
 C526 C 0.27279 0.90726 0.88853
 C527 C 0.25021 0.91781 0.89974
 C528 C 0.25062 0.93771 0.92197
 C529 C 0.27373 0.94744 0.93348
 C530 C 0.29639 0.93692 0.92156
 C531 C 0.27200 0.88595 0.86686
 C532 C 0.27051 0.86782 0.84928
 C533 C 0.26781 0.84632 0.82935
 C534 C 0.26468 0.82773 0.81294
 H535 H 0.31348 0.90889 0.89080
 H536 H 0.23222 0.91043 0.89159
 H537 H 0.23276 0.94522 0.93038
 H538 H 0.31455 0.94383 0.92970
 C539 C 0.75153 0.41740 0.39904
 C540 C 0.77410 0.40629 0.38868
 C541 C 0.79719 0.41548 0.40018
 C542 C 0.79769 0.43551 0.42232
 C543 C 0.77505 0.44652 0.43328
 C544 C 0.75197 0.43737 0.42116
 C545 C 0.77328 0.38484 0.36728
 C546 C 0.77183 0.36658 0.34994
 C547 C 0.76922 0.34490 0.33036
 C548 C 0.76621 0.32615 0.31425
 H549 H 0.73355 0.41039 0.39035
 H550 H 0.81477 0.40695 0.39238
 H551 H 0.81575 0.44210 0.43121
 H552 H 0.73421 0.44542 0.42906
 C553 C 0.08347 0.29651 0.89976
 C554 C 0.09315 0.27340 0.88898
 C555 C 0.08262 0.25084 0.90021
 C556 C 0.06273 0.25127 0.92247
 C557 C 0.05299 0.27439 0.93399
 C558 C 0.06351 0.29704 0.92205
 C559 C 0.11444 0.27258 0.86727
 C560 C 0.13255 0.27103 0.84964
 C561 C 0.15402 0.26823 0.82967
 C562 C 0.17257 0.26500 0.81321
 H563 H 0.09152 0.31410 0.89125
 H564 H 0.09000 0.23285 0.89205
 H565 H 0.05522 0.23342 0.93089
 H566 H 0.05659 0.31521 0.93020
 C567 C 0.58438 0.79661 0.39993
 C568 C 0.59366 0.77352 0.38849
 C569 C 0.58260 0.75095 0.39891
 C570 C 0.56260 0.75139 0.42102
 C571 C 0.55336 0.77446 0.43307
 C572 C 0.56432 0.79711 0.42206
 C573 C 0.61513 0.77273 0.36710
 C574 C 0.63342 0.77131 0.34976
 C575 C 0.65513 0.76878 0.33017
 C576 C 0.67391 0.76584 0.31407
 H577 H 0.59285 0.81420 0.39209
 H578 H 0.58968 0.73297 0.39028
 H579 H 0.55460 0.73362 0.42896
 H580 H 0.55766 0.81517 0.43089
 C581 C 0.91810 0.74967 0.89883
 C582 C 0.90706 0.72712 0.88838
 C583 C 0.91627 0.70401 0.89989
 C584 C 0.93627 0.70349 0.92211
 C585 C 0.94723 0.72612 0.93313
 C586 C 0.93804 0.74921 0.92102
 C587 C 0.88571 0.72796 0.86677
 C588 C 0.86758 0.72948 0.84919
 C589 C 0.84608 0.73220 0.82926
 C590 C 0.82751 0.73532 0.81281
 H591 H 0.91109 0.76766 0.89014
 H592 H 0.90781 0.68644 0.89202
 H593 H 0.94289 0.68542 0.93098
 H594 H 0.94604 0.76696 0.92896
 C595 C 0.41556 0.20252 0.40017
 C596 C 0.40628 0.22559 0.38865
 C597 C 0.41730 0.24818 0.39902
 C598 C 0.43726 0.24779 0.42116
 C599 C 0.44649 0.22473 0.43330
 C600 C 0.43558 0.20207 0.42233
 C601 C 0.38484 0.22636 0.36723
 C602 C 0.36658 0.22781 0.34988
 C603 C 0.34490 0.23043 0.33030
 C604 C 0.32614 0.23348 0.31420
 H605 H 0.40711 0.18492 0.39236
 H606 H 0.41022 0.26615 0.39032
 H607 H 0.44523 0.26557 0.42907
 H608 H 0.44224 0.18402 0.43123
 C609 C 0.74879 0.91767 0.89838
 C610 C 0.72620 0.90663 0.88803
 C611 C 0.70312 0.91590 0.89953
 C612 C 0.70266 0.93594 0.92167
 C613 C 0.72532 0.94688 0.93262
 C614 C 0.74838 0.93765 0.92049
 C615 C 0.72699 0.88516 0.86666
 C616 C 0.72844 0.86687 0.84937
 C617 C 0.73106 0.84516 0.82984
 C618 C 0.73410 0.82637 0.81380
 H619 H 0.76676 0.91060 0.88969
 H620 H 0.68553 0.90743 0.89174
 H621 H 0.68461 0.94260 0.93056
 H622 H 0.76616 0.94564 0.92838
 C623 C 0.20352 0.41549 0.40044
 C624 C 0.22665 0.40636 0.38890
 C625 C 0.24917 0.41748 0.39932
 C626 C 0.24866 0.43742 0.42150
 C627 C 0.22555 0.44655 0.43362
 C628 C 0.20295 0.43550 0.42264
 C629 C 0.22756 0.38502 0.36728
 C630 C 0.22913 0.36690 0.34969
 C631 C 0.23191 0.34543 0.32972
 C632 C 0.23507 0.32688 0.31324
 H633 H 0.18597 0.40697 0.39259
 H634 H 0.26718 0.41053 0.39061
 H635 H 0.26640 0.44549 0.42941
 H636 H 0.18487 0.44207 0.43153
 C637 C 0.25027 0.08241 0.89994
 C638 C 0.27286 0.09297 0.88883
 C639 C 0.29594 0.08319 0.89956
 C640 C 0.29643 0.06314 0.92169
 C641 C 0.27375 0.05262 0.93355
 C642 C 0.25066 0.06242 0.92205
 C643 C 0.27213 0.11444 0.86742
 C644 C 0.27074 0.13273 0.85009
 C645 C 0.26823 0.15446 0.83052
 C646 C 0.26531 0.17325 0.81444
 H647 H 0.23230 0.08987 0.89182
 H648 H 0.31355 0.09127 0.89114
 H649 H 0.31458 0.05617 0.92983
 H650 H 0.23278 0.05490 0.93040
 C651 C 0.75159 0.58255 0.39891
 C652 C 0.77415 0.59362 0.38847
 C653 C 0.79725 0.58446 0.40005
 C654 C 0.79775 0.56448 0.42231
 C655 C 0.77512 0.55349 0.43330
 C656 C 0.75204 0.56264 0.42113
 C657 C 0.77329 0.61495 0.36682
 C658 C 0.77172 0.63307 0.34922
 C659 C 0.76889 0.65454 0.32926
 C660 C 0.76564 0.67309 0.31280
 H661 H 0.73360 0.58953 0.39016
 H662 H 0.81482 0.59294 0.39219
 H663 H 0.81582 0.55788 0.43123
 H664 H 0.73428 0.55461 0.42905
 C665 C 0.08298 0.74950 0.90053
 C666 C 0.09354 0.72689 0.88949
 C667 C 0.08383 0.70383 0.90037
 C668 C 0.06383 0.70339 0.92259
 C669 C 0.05331 0.72608 0.93437
 C670 C 0.06305 0.74916 0.92273
 C671 C 0.11494 0.72759 0.86796
 C672 C 0.13317 0.72897 0.85053
 C673 C 0.15482 0.73151 0.83083
 C674 C 0.17356 0.73449 0.81465
 H675 H 0.09039 0.76746 0.89230
 H676 H 0.09192 0.68620 0.89201
 H677 H 0.05691 0.68524 0.93084
 H678 H 0.05552 0.76705 0.93103
 C679 C 0.58457 0.20305 0.40016
 C680 C 0.59365 0.22619 0.38861
 C681 C 0.58248 0.24870 0.39905
 C682 C 0.56254 0.24816 0.42124
 C683 C 0.55347 0.22505 0.43337
 C684 C 0.56457 0.20246 0.42238
 C685 C 0.61500 0.22713 0.36700
 C686 C 0.63313 0.22875 0.34942
 C687 C 0.65461 0.23160 0.32948
 C688 C 0.67316 0.23484 0.31302
 H689 H 0.59314 0.18551 0.39230
 H690 H 0.58939 0.26672 0.39033
 H691 H 0.55443 0.26589 0.42916
 H692 H 0.55804 0.18436 0.43127
 C693 C 0.91585 0.29650 0.89957
 C694 C 0.90662 0.27338 0.88820
 C695 C 0.91773 0.25084 0.89862
 C696 C 0.93774 0.25132 0.92068
 C697 C 0.94692 0.27442 0.93269
 C698 C 0.93591 0.29704 0.92165
 C699 C 0.88512 0.27253 0.86688
 C700 C 0.86681 0.27105 0.84963
 C701 C 0.84508 0.26844 0.83013
 C702 C 0.82629 0.26544 0.81410
 H703 H 0.90732 0.31406 0.89172
 H704 H 0.91069 0.23284 0.89004
 H705 H 0.94579 0.23357 0.92865
 H706 H 0.94253 0.31512 0.93045
 C707 C 0.41723 0.75096 0.39886
 C708 C 0.40616 0.77351 0.38839
 C709 C 0.41533 0.79662 0.39990
 C710 C 0.43533 0.79713 0.42212
 C711 C 0.44632 0.77450 0.43315
 C712 C 0.43716 0.75142 0.42105
 C713 C 0.38483 0.77266 0.36676
 C714 C 0.36671 0.77112 0.34917
 C715 C 0.34523 0.76835 0.32921
 C716 C 0.32668 0.76517 0.31275
 H717 H 0.41025 0.73297 0.39017
 H718 H 0.40685 0.81419 0.39201
 H719 H 0.44193 0.81520 0.43098
 H720 H 0.44519 0.73366 0.42900
 C721 C 0.25089 0.91726 0.10051
 C722 C 0.27351 0.90619 0.11072
 C723 C 0.29654 0.91544 0.09906
 C724 C 0.29692 0.93549 0.07691
 C725 C 0.27422 0.94647 0.06611
 C726 C 0.25121 0.93725 0.07839
 C727 C 0.27281 0.88473 0.13216
 C728 C 0.27143 0.86647 0.14953
 C729 C 0.26889 0.84478 0.16916
 C730 C 0.26591 0.82603 0.18531
 H731 H 0.23295 0.91021 0.10932
 H732 H 0.31417 0.90695 0.10674
 H733 H 0.31494 0.94213 0.06790
 H734 H 0.23340 0.94527 0.07061
 C735 C 0.75129 0.41733 0.60139
 C736 C 0.77381 0.40611 0.61173
 C737 C 0.79694 0.41519 0.60015
 C738 C 0.79752 0.43523 0.57799
 C739 C 0.77492 0.44637 0.56708
 C740 C 0.75181 0.43730 0.57926
 C741 C 0.77289 0.38472 0.63327
 C742 C 0.77128 0.36655 0.65078
 C743 C 0.76846 0.34502 0.67065
 C744 C 0.76526 0.32644 0.68705
 H745 H 0.73328 0.41041 0.61014
 H746 H 0.81448 0.40659 0.60794
 H747 H 0.81560 0.44175 0.56906
 H748 H 0.73408 0.44544 0.57141
 C749 C 0.74874 0.08283 0.10089
 C750 C 0.72616 0.09394 0.11117
 C751 C 0.70309 0.08475 0.09960
 C752 C 0.70263 0.06471 0.07747
 C753 C 0.72529 0.05370 0.06658
 C754 C 0.74834 0.06285 0.07877
 C755 C 0.72694 0.11540 0.13256
 C756 C 0.72837 0.13367 0.14988
 C757 C 0.73096 0.15536 0.16945
 C758 C 0.73395 0.17412 0.18555
 H759 H 0.76671 0.08984 0.10963
 H760 H 0.68549 0.09328 0.10734
 H761 H 0.68458 0.05812 0.06852
 H762 H 0.76612 0.05479 0.07093
 C763 C 0.24882 0.58279 0.60164
 C764 C 0.22625 0.59388 0.61203
 C765 C 0.20316 0.58470 0.60048
 C766 C 0.20267 0.56468 0.57830
 C767 C 0.22532 0.55367 0.56734
 C768 C 0.24839 0.56283 0.57948
 C769 C 0.22708 0.61525 0.63361
 C770 C 0.22860 0.63340 0.65115
 C771 C 0.23135 0.65491 0.67104
 C772 C 0.23451 0.67349 0.68745
 H773 H 0.26680 0.58977 0.61036
 H774 H 0.18558 0.59320 0.60830
 H775 H 0.18462 0.55808 0.56940
 H776 H 0.26615 0.55479 0.57159
 C777 C 0.91608 0.70363 0.09987
 C778 C 0.90677 0.72669 0.11138
 C779 C 0.91784 0.74929 0.10111
 C780 C 0.93788 0.74893 0.07907
 C781 C 0.94716 0.72589 0.06693
 C782 C 0.93619 0.70321 0.07780
 C783 C 0.88525 0.72742 0.13271
 C784 C 0.86693 0.72881 0.14998
 C785 C 0.84518 0.73132 0.16951
 C786 C 0.82638 0.73424 0.18558
 H787 H 0.90760 0.68602 0.10760
 H788 H 0.91074 0.76725 0.10981
 H789 H 0.94590 0.76672 0.07123
 H790 H 0.94287 0.68517 0.06890
 C791 C 0.41533 0.20258 0.60030
 C792 C 0.40617 0.22567 0.61191
 C793 C 0.41727 0.24823 0.60156
 C794 C 0.43721 0.24780 0.57938
 C795 C 0.44636 0.22473 0.56717
 C796 C 0.43534 0.20209 0.57808
 C797 C 0.38481 0.22651 0.63351
 C798 C 0.36666 0.22807 0.65107
 C799 C 0.34515 0.23088 0.67098
 C800 C 0.32658 0.23411 0.68740
 H801 H 0.40682 0.18500 0.60809
 H802 H 0.41029 0.26621 0.61034
 H803 H 0.44527 0.26557 0.57152
 H804 H 0.44193 0.18403 0.56913
 C805 C 0.08470 0.29723 0.09963
 C806 C 0.09394 0.27420 0.11133
 C807 C 0.08289 0.25158 0.10113
 C808 C 0.06294 0.25190 0.07897
 C809 C 0.05374 0.27491 0.06665
 C810 C 0.06469 0.29761 0.07745
 C811 C 0.11538 0.27349 0.13275
 C812 C 0.13363 0.27208 0.15010
 C813 C 0.15532 0.26949 0.16969
 C814 C 0.17408 0.26645 0.18579
 H815 H 0.09318 0.31485 0.10730
 H816 H 0.08994 0.23364 0.10996
 H817 H 0.05494 0.23410 0.07120
 H818 H 0.05806 0.31563 0.06841
 C819 C 0.58456 0.79650 0.59989
 C820 C 0.59371 0.77339 0.61147
 C821 C 0.58255 0.75086 0.60114
 C822 C 0.56258 0.75134 0.57902
 C823 C 0.55345 0.77443 0.56685
 C824 C 0.56452 0.79705 0.57774
 C825 C 0.61509 0.77251 0.63301
 C826 C 0.63325 0.77096 0.65053
 C827 C 0.65478 0.76821 0.67042
 C828 C 0.67336 0.76508 0.68684
 H829 H 0.59311 0.81406 0.60767
 H830 H 0.58951 0.73286 0.60989
 H831 H 0.55449 0.73360 0.57118
 H832 H 0.55795 0.81512 0.56882
   
