data_POSCAR
  _audit_creation_date              2014-09-24
  _audit_creation_method            'ToBaCCo'
  _symmetry_space_group_name_H-M    'P1'
  _symmetry_Int_Tables_number       1
  _symmetry_cell_setting            triclinic
  loop_
  _symmetry_equiv_pos_as_xyz
 x,y,z
_cell_length_a 56.5452
_cell_length_b 42.9034
_cell_length_c 24.8434
_cell_angle_alpha 89.963100
_cell_angle_beta 90.042800
_cell_angle_gamma 90.008000
loop_
  _atom_site_label
  _atom_site_type_symbol
  _atom_site_fract_x
  _atom_site_fract_y
  _atom_site_fract_z
O1 O 0.75572 0.21114 0.55046
 O2 O 0.71986 0.24804 0.44445
 O3 O 0.75686 0.21169 0.44563
 O4 O 0.71885 0.24780 0.54864
 O5 O 0.74233 0.28885 0.55042
 O6 O 0.78043 0.25256 0.44814
 O7 O 0.74342 0.28902 0.44557
 O8 O 0.77917 0.25223 0.55209
 Cu9 Cu 0.73549 0.22553 0.49713
 Cu10 Cu 0.76364 0.27482 0.49919
 C11 C 0.77370 0.22524 0.56910
 C12 C 0.72537 0.27494 0.42714
 C13 C 0.77537 0.22576 0.42966
 C14 C 0.72398 0.27464 0.56682
 O15 O 0.25909 0.71625 0.55423
 O16 O 0.22211 0.75190 0.44878
 O17 O 0.25939 0.71595 0.44938
 O18 O 0.22187 0.75221 0.55300
 O19 O 0.24509 0.79352 0.55342
 O20 O 0.28252 0.75737 0.44964
 O21 O 0.24524 0.79329 0.44850
 O22 O 0.28235 0.75747 0.55348
 Cu23 Cu 0.23832 0.72991 0.50134
 Cu24 Cu 0.26606 0.77962 0.50127
 C25 C 0.27729 0.73054 0.57149
 C26 C 0.22722 0.77882 0.43093
 C27 C 0.27754 0.73032 0.43225
 C28 C 0.22695 0.77917 0.57066
 O29 O 0.25527 0.28927 -0.55552
 O30 O 0.21776 0.25291 -0.45160
 O31 O 0.25479 0.28924 -0.45062
 O32 O 0.21790 0.25342 -0.55563
 O33 O 0.24122 0.21228 -0.55651
 O34 O 0.27797 0.24789 -0.45046
 O35 O 0.24094 0.21157 -0.45161
 O36 O 0.27858 0.24812 -0.55446
 Cu37 Cu 0.23415 0.27538 -0.50339
 Cu38 Cu 0.26196 0.22579 -0.50330
 C39 C 0.27360 0.27510 -0.57232
 C40 C 0.22283 0.22586 -0.43421
 C41 C 0.27279 0.27482 -0.43279
 C42 C 0.22301 0.22657 -0.57377
 O43 O -0.24217 0.78376 -0.55189
 O44 O -0.28002 0.74724 -0.44892
 O45 O -0.24327 0.78417 -0.44713
 O46 O -0.27911 0.74726 -0.55308
 O47 O -0.25559 0.70626 -0.55182
 O48 O -0.21959 0.74332 -0.44598
 O49 O -0.25631 0.70650 -0.44690
 O50 O -0.21861 0.74279 -0.54996
 Cu51 Cu -0.26348 0.76973 -0.50040
 Cu52 Cu -0.23521 0.72057 -0.49854
 C53 C -0.22375 0.76963 -0.56809
 C54 C -0.27478 0.72046 -0.43049
 C55 C -0.22514 0.77023 -0.42882
 C56 C -0.27364 0.72034 -0.57025
 N57 N -0.02611 0.94414 -0.05662
 N58 N -0.04327 0.92380 -0.06471
 N59 N 0.02337 0.96604 -0.09524
 N60 N 0.04056 0.96145 -0.13023
 N61 N 0.02370 0.94448 -0.05774
 N62 N 0.04119 0.92470 -0.06607
 N63 N -0.02630 0.96569 -0.09414
 N64 N -0.04352 0.96054 -0.12889
 C65 C -0.05405 0.93441 -0.10987
 C66 C 0.05161 0.93564 -0.11141
 N67 N 0.02330 1.05482 -0.05815
 N68 N 0.04036 1.07516 -0.06719
 N69 N -0.02654 1.03287 -0.09434
 N70 N -0.04386 1.03768 -0.12899
 N71 N -0.02650 1.05449 -0.05696
 N72 N -0.04387 1.07452 -0.06504
 N73 N 0.02312 1.03321 -0.09553
 N74 N 0.03999 1.03832 -0.13112
 Mn75 Mn -0.00159 0.99945 -0.09540
 C76 C 0.05070 1.06449 -0.11279
 C77 C -0.05461 1.06366 -0.11006
 N78 N 0.02425 0.94455 0.05818
 N79 N 0.04168 0.92460 0.06624
 N80 N -0.02536 0.96587 0.09668
 N81 N -0.04208 0.96066 0.13258
 N82 N -0.02558 0.94425 0.05931
 N83 N -0.04258 0.92384 0.06861
 N84 N 0.02428 0.96620 0.09549
 N85 N 0.04164 0.96151 0.13005
 Mn86 Mn -0.00094 0.94398 0.00078
 C87 C 0.05243 0.93555 0.11118
 C88 C -0.05279 0.93447 0.11438
 N89 N -0.02597 1.05456 0.05896
 N90 N -0.04304 1.07486 0.06824
 N91 N 0.02400 1.03333 0.09535
 N92 N 0.04097 1.03864 0.13060
 N93 N 0.02390 1.05486 0.05779
 N94 N 0.04097 1.07530 0.06626
 N95 N -0.02559 1.03303 0.09652
 N96 N -0.04223 1.03822 0.13260
 Mn97 Mn -0.00132 1.05506 0.00040
 Mn98 Mn -0.00067 0.99960 0.09656
 Cl99 Cl -0.00113 0.99952 0.00058
 C100 C -0.05310 1.06427 0.11424
 C101 C 0.05154 1.06477 0.11176
 N102 N 0.47358 0.53313 -0.09538
 N103 N 0.45683 0.53885 -0.13104
 N104 N 0.52357 0.55412 -0.05909
 N105 N 0.54093 0.57406 -0.06788
 N106 N 0.52319 0.53256 -0.09655
 N107 N 0.54016 0.53734 -0.13200
 N108 N 0.47374 0.55461 -0.05777
 N109 N 0.45696 0.57540 -0.06661
 C110 C 0.44647 0.56514 -0.11235
 C111 C 0.55118 0.56323 -0.11346
 N112 N 0.52428 0.53234 0.09411
 N113 N 0.54178 0.53685 0.12838
 N114 N 0.47441 0.55449 0.05821
 N115 N 0.45752 0.57503 0.06765
 N116 N 0.47465 0.53291 0.09568
 N117 N 0.45805 0.53826 0.13179
 N118 N 0.52425 0.55400 0.05678
 N119 N 0.54182 0.57378 0.06452
 Mn120 Mn 0.49898 0.55468 -0.00046
 C121 C 0.55265 0.56272 0.10930
 C122 C 0.44739 0.56449 0.11360
 N123 N 0.52276 0.46537 -0.09663
 N124 N 0.53971 0.46032 -0.13204
 N125 N 0.47306 0.44433 -0.05795
 N126 N 0.45576 0.42423 -0.06627
 N127 N 0.47310 0.46595 -0.09538
 N128 N 0.45589 0.46108 -0.13027
 N129 N 0.52285 0.44371 -0.05928
 N130 N 0.53995 0.42340 -0.06816
 Mn131 Mn 0.49816 0.49924 -0.09655
 C132 C 0.55037 0.43413 -0.11364
 C133 C 0.44512 0.43507 -0.11144
 N134 N 0.47422 0.46575 0.09558
 N135 N 0.45748 0.46083 0.13154
 N136 N 0.52353 0.44363 0.05660
 N137 N 0.54092 0.42355 0.06410
 N138 N 0.52384 0.46523 0.09399
 N139 N 0.54136 0.46038 0.12807
 N140 N 0.47367 0.44427 0.05801
 N141 N 0.45639 0.42425 0.06719
 Mn142 Mn 0.49925 0.49906 0.09540
 Mn143 Mn 0.49827 0.44361 -0.00065
 Cl144 Cl 0.49865 0.49915 -0.00058
 C145 C 0.44638 0.43497 0.11313
 C146 C 0.55194 0.43436 0.10882
 C147 C 0.32102 0.32024 0.32145
 C148 C 0.29923 0.33405 0.33403
 C149 C 0.28332 0.31899 0.36845
 C150 C 0.28876 0.28952 0.39035
 C151 C 0.31028 0.27528 0.37569
 C152 C 0.32628 0.29061 0.34209
 C153 C 0.33878 0.33725 0.28910
 C154 C 0.36204 0.34023 0.30821
 C155 C 0.37885 0.35682 0.27869
 C156 C 0.37282 0.37031 0.22906
 C157 C 0.34964 0.36703 0.20949
 C158 C 0.33266 0.35090 0.23960
 C159 C 0.39079 0.38788 0.19824
 C160 C 0.39508 0.38103 0.14385
 C161 C 0.41310 0.39646 0.11589
 C162 C 0.42677 0.41938 0.14164
 C163 C 0.42199 0.42681 0.19558
 C164 C 0.40431 0.41101 0.22375
 H165 H 0.29486 0.35698 0.31867
 H166 H 0.26693 0.33070 0.37842
 H167 H 0.31516 0.25260 0.39134
 H168 H 0.34293 0.27942 0.33250
 H169 H 0.36711 0.33010 0.34647
 H170 H 0.39666 0.35890 0.29438
 H171 H 0.34461 0.37736 0.17138
 H172 H 0.31483 0.34880 0.22407
 H173 H 0.38492 0.36317 0.12349
 H174 H 0.41640 0.39040 0.07425
 H175 H 0.43226 0.44438 0.21640
 H176 H 0.40117 0.41681 0.26556
 C177 C -0.17573 0.81628 0.32468
 C178 C -0.19897 0.82725 0.33081
 C179 C -0.21478 0.81182 0.36495
 C180 C -0.20772 0.78488 0.39292
 C181 C -0.18470 0.77337 0.38525
 C182 C -0.16883 0.78903 0.35177
 C183 C -0.15835 0.83390 0.29213
 C184 C -0.13589 0.84053 0.31340
 C185 C -0.11950 0.85759 0.28351
 C186 C -0.12511 0.86804 0.23149
 C187 C -0.14748 0.86117 0.20989
 C188 C -0.16406 0.84447 0.24019
 C189 C -0.10754 0.88606 0.20017
 C190 C -0.10225 0.87795 0.14675
 C191 C -0.08458 0.89388 0.11850
 C192 C -0.07218 0.91846 0.14298
 C193 C -0.07797 0.92711 0.19585
 C194 C -0.09536 0.91092 0.22429
 H195 H -0.20464 0.84833 0.31055
 H196 H -0.23242 0.82120 0.36998
 H197 H -0.17871 0.75270 0.40627
 H198 H -0.15106 0.77998 0.34729
 H199 H -0.13115 0.83286 0.35353
 H200 H -0.10230 0.86239 0.30085
 H201 H -0.15222 0.86911 0.16993
 H202 H -0.18124 0.83952 0.22291
 H203 H -0.11134 0.85875 0.12742
 H204 H -0.08050 0.88682 0.07770
 H205 H -0.06871 0.94599 0.21567
 H206 H -0.09929 0.91779 0.26527
 C207 C 0.68086 0.67411 0.31581
 C208 C 0.70334 0.66189 0.32788
 C209 C 0.71831 0.67711 0.36422
 C210 C 0.71121 0.70503 0.38896
 C211 C 0.68901 0.71765 0.37589
 C212 C 0.67399 0.70232 0.33998
 C213 C 0.66421 0.65698 0.28004
 C214 C 0.64885 0.67322 0.24541
 C215 C 0.63195 0.65726 0.21496
 C216 C 0.63010 0.62462 0.21802
 C217 C 0.64600 0.60831 0.25123
 C218 C 0.66277 0.62428 0.28201
 C219 C 0.61101 0.60785 0.18864
 C220 C 0.59940 0.58241 0.21271
 C221 C 0.58076 0.56744 0.18642
 C222 C 0.57311 0.57773 0.13568
 C223 C 0.58481 0.60285 0.11113
 C224 C 0.60363 0.61769 0.13724
 H225 H 0.70937 0.64050 0.30934
 H226 H 0.73538 0.66690 0.37321
 H227 H 0.68295 0.73902 0.39450
 H228 H 0.65667 0.71215 0.33245
 H229 H 0.64971 0.69836 0.24219
 H230 H 0.61987 0.67064 0.19025
 H231 H 0.64536 0.58313 0.25389
 H232 H 0.67413 0.61101 0.30858
 H233 H 0.60429 0.57452 0.25260
 H234 H 0.57200 0.54819 0.20639
 H235 H 0.57938 0.61111 0.07182
 H236 H 0.61240 0.63686 0.11714
 C237 C 0.17618 1.18194 0.31805
 C238 C 0.17083 1.21150 0.33874
 C239 C 0.18667 1.22671 0.37292
 C240 C 0.20810 1.21239 0.38811
 C241 C 0.21367 1.18303 0.36601
 C242 C 0.19793 1.16810 0.33102
 C243 C 0.15849 1.16491 0.28553
 C244 C 0.16467 1.15132 0.23608
 C245 C 0.14779 1.13495 0.20606
 C246 C 0.12466 1.13138 0.22571
 C247 C 0.11856 1.14490 0.27521
 C248 C 0.13526 1.16173 0.30462
 C249 C 0.10686 1.11333 0.19528
 C250 C 0.09386 1.08982 0.22114
 C251 C 0.07629 1.07355 0.19344
 C252 C 0.07108 1.08087 0.13963
 C253 C 0.08424 1.10416 0.11350
 C254 C 0.10217 1.12008 0.14099
 H255 H 0.15422 1.22271 0.32886
 H256 H 0.18171 1.24932 0.38868
 H257 H 0.23000 1.17127 0.37636
 H258 H 0.20235 1.14522 0.31563
 H259 H 0.18249 1.15357 0.22059
 H260 H 0.15286 1.12460 0.16804
 H261 H 0.10078 1.14258 0.29093
 H262 H 0.13015 1.17181 0.34285
 H263 H 0.09732 1.08410 0.26289
 H264 H 0.06642 1.05570 0.21455
 H265 H 0.08061 1.11015 0.07195
 H266 H 0.11194 1.13822 0.12038
 C267 C 0.67686 0.32062 -0.32259
 C268 C 0.69961 0.33261 -0.33239
 C269 C 0.71505 0.31744 -0.36763
 C270 C 0.70818 0.28978 -0.39355
 C271 C 0.68569 0.27734 -0.38276
 C272 C 0.67019 0.29264 -0.34788
 C273 C 0.65985 0.33774 -0.28778
 C274 C 0.64403 0.32154 -0.25425
 C275 C 0.62717 0.33762 -0.22392
 C276 C 0.62580 0.37032 -0.22610
 C277 C 0.64201 0.38655 -0.25859
 C278 C 0.65875 0.37048 -0.28919
 C279 C 0.60706 0.38734 -0.19609
 C280 C 0.59580 0.41332 -0.21932
 C281 C 0.57767 0.42878 -0.19209
 C282 C 0.57022 0.41847 -0.14123
 C283 C 0.58154 0.39274 -0.11763
 C284 C 0.59982 0.37739 -0.14470
 H285 H 0.70550 0.35379 -0.31287
 H286 H 0.73233 0.32750 -0.37481
 H287 H 0.67982 0.25616 -0.40233
 H288 H 0.65269 0.28298 -0.34198
 H289 H 0.64459 0.29636 -0.25159
 H290 H 0.61483 0.32433 -0.19978
 H291 H 0.64170 0.41176 -0.26062
 H292 H 0.67046 0.38372 -0.31499
 H293 H 0.60061 0.42132 -0.25917
 H294 H 0.56919 0.44849 -0.21135
 H295 H 0.57625 0.38443 -0.07827
 H296 H 0.60835 0.35779 -0.12527
 C297 C 0.18007 0.82482 -0.31788
 C298 C 0.17358 0.79655 -0.34242
 C299 C 0.18904 0.78139 -0.37755
 C300 C 0.21129 0.79424 -0.38937
 C301 C 0.21799 0.82221 -0.36421
 C302 C 0.20259 0.83726 -0.32870
 C303 C 0.16304 0.84176 -0.28287
 C304 C 0.16144 0.87445 -0.28494
 C305 C 0.14450 0.89028 -0.25450
 C306 C 0.12861 0.87383 -0.22152
 C307 C 0.13054 0.84120 -0.21856
 C308 C 0.14760 0.82538 -0.24870
 C309 C 0.10953 0.89049 -0.19200
 C310 C 0.10239 0.88065 -0.14048
 C311 C 0.08370 0.89548 -0.11401
 C312 C 0.07189 0.92059 -0.13834
 C313 C 0.07927 0.93085 -0.18928
 C314 C 0.09781 0.91588 -0.21592
 H315 H 0.15625 0.78655 -0.33577
 H316 H 0.18329 0.75996 -0.39652
 H317 H 0.23508 0.83260 -0.37223
 H318 H 0.20833 0.85870 -0.30979
 H319 H 0.17285 0.88782 -0.31121
 H320 H 0.14376 0.91545 -0.25711
 H321 H 0.11846 0.82773 -0.19403
 H322 H 0.14857 0.80025 -0.24550
 H323 H 0.11127 0.86150 -0.12051
 H324 H 0.07847 0.88725 -0.07456
 H325 H 0.07042 0.95009 -0.20908
 H326 H 0.10254 0.92376 -0.25589
 C327 C 0.32398 0.68544 -0.32047
 C328 C 0.32951 0.71496 -0.34125
 C329 C 0.31372 0.73034 -0.37541
 C330 C 0.29220 0.71622 -0.39052
 C331 C 0.28651 0.68688 -0.36845
 C332 C 0.30217 0.67180 -0.33348
 C333 C 0.34150 0.66823 -0.28767
 C334 C 0.33504 0.65456 -0.23843
 C335 C 0.35167 0.63781 -0.20830
 C336 C 0.37482 0.63391 -0.22759
 C337 C 0.38122 0.64755 -0.27684
 C338 C 0.36477 0.66477 -0.30638
 C339 C 0.39232 0.61539 -0.19701
 C340 C 0.40521 0.59179 -0.22284
 C341 C 0.42238 0.57495 -0.19481
 C342 C 0.42731 0.58179 -0.14069
 C343 C 0.41427 0.60521 -0.11463
 C344 C 0.39674 0.62169 -0.14246
 H345 H 0.34618 0.72600 -0.33136
 H346 H 0.31878 0.75291 -0.39120
 H347 H 0.27011 0.67526 -0.37873
 H348 H 0.29761 0.64895 -0.31806
 H349 H 0.31720 0.65701 -0.22322
 H350 H 0.34636 0.62737 -0.17048
 H351 H 0.39902 0.64500 -0.29230
 H352 H 0.37008 0.67490 -0.34445
 H353 H 0.40195 0.58641 -0.26479
 H354 H 0.43218 0.55702 -0.21587
 H355 H 0.41769 0.61085 -0.07286
 H356 H 0.38705 0.63989 -0.12184
 C357 C -0.18099 1.17827 -0.31749
 C358 C -0.20360 1.16643 -0.32931
 C359 C -0.21850 1.18194 -0.36540
 C360 C -0.21122 1.20980 -0.39011
 C361 C -0.18890 1.22211 -0.37719
 C362 C -0.17393 1.20647 -0.34152
 C363 C -0.16441 1.16074 -0.28209
 C364 C -0.14887 1.17657 -0.24735
 C365 C -0.13219 1.16018 -0.21697
 C366 C -0.13073 1.12752 -0.22023
 C367 C -0.14675 1.11162 -0.25370
 C368 C -0.16331 1.12803 -0.28441
 C369 C -0.11197 1.11025 -0.19058
 C370 C -0.10059 1.08463 -0.21456
 C371 C -0.08227 1.06916 -0.18789
 C372 C -0.07476 1.07911 -0.13687
 C373 C -0.08627 1.10441 -0.11244
 C374 C -0.10474 1.11975 -0.13892
 H375 H -0.20977 1.14507 -0.31082
 H376 H -0.23567 1.17198 -0.37425
 H377 H -0.18271 1.24343 -0.39580
 H378 H -0.15651 1.21603 -0.33410
 H379 H -0.14947 1.20171 -0.24393
 H380 H -0.11999 1.17323 -0.19205
 H381 H -0.14640 1.08645 -0.25655
 H382 H -0.17481 1.11506 -0.31111
 H383 H -0.10539 1.07698 -0.25462
 H384 H -0.07366 1.04978 -0.20777
 H385 H -0.08093 1.11243 -0.07292
 H386 H -0.11337 1.13904 -0.11890
 C387 C 0.67897 0.67509 -0.32139
 C388 C 0.70079 0.66161 -0.33524
 C389 C 0.71620 0.67674 -0.37061
 C390 C 0.71032 0.70598 -0.39270
 C391 C 0.68881 0.71991 -0.37737
 C392 C 0.67329 0.70458 -0.34251
 C393 C 0.66181 0.65801 -0.28680
 C394 C 0.64725 0.67409 -0.25029
 C395 C 0.63018 0.65819 -0.22023
 C396 C 0.62738 0.62577 -0.22553
 C397 C 0.64239 0.60959 -0.26092
 C398 C 0.65928 0.62551 -0.29137
 C399 C 0.60839 0.60904 -0.19572
 C400 C 0.59601 0.58439 -0.22021
 C401 C 0.57772 0.56920 -0.19306
 C402 C 0.57118 0.57853 -0.14104
 C403 C 0.58358 0.60297 -0.11621
 C404 C 0.60207 0.61798 -0.14316
 H405 H 0.70599 0.63925 -0.31886
 H406 H 0.73268 0.66530 -0.38084
 H407 H 0.68355 0.74235 -0.39341
 H408 H 0.65651 0.71549 -0.33342
 H409 H 0.64894 0.69904 -0.24508
 H410 H 0.61880 0.67149 -0.19382
 H411 H 0.64103 0.58456 -0.26539
 H412 H 0.66995 0.61237 -0.31950
 H413 H 0.60006 0.57724 -0.26095
 H414 H 0.56838 0.55052 -0.21327
 H415 H 0.57899 0.61048 -0.07594
 H416 H 0.61146 0.63649 -0.12271
 C417 C 0.17617 1.17931 -0.32320
 C418 C 0.16941 1.20747 -0.34785
 C419 C 0.18479 1.22297 -0.38282
 C420 C 0.20721 1.21056 -0.39436
 C421 C 0.21416 1.18273 -0.36905
 C422 C 0.19886 1.16736 -0.33370
 C423 C 0.15929 1.16197 -0.28832
 C424 C 0.15820 1.12924 -0.29019
 C425 C 0.14161 1.11296 -0.25944
 C426 C 0.12554 1.12898 -0.22633
 C427 C 0.12688 1.16168 -0.22374
 C428 C 0.14360 1.17796 -0.25422
 C429 C 0.10696 1.11175 -0.19606
 C430 C 0.09995 1.12146 -0.14439
 C431 C 0.08182 1.10594 -0.11706
 C432 C 0.07043 1.08026 -0.14065
 C433 C 0.07768 1.07018 -0.19177
 C434 C 0.09566 1.08582 -0.21927
 H435 H 0.15196 1.21712 -0.34140
 H436 H 0.17885 1.24428 -0.40192
 H437 H 0.23139 1.17268 -0.37681
 H438 H 0.20482 1.14605 -0.31467
 H439 H 0.16980 1.11616 -0.31644
 H440 H 0.14132 1.08777 -0.26181
 H441 H 0.11464 1.17481 -0.19913
 H442 H 0.14416 1.20312 -0.25119
 H443 H 0.10853 1.14101 -0.12496
 H444 H 0.07668 1.11408 -0.07750
 H445 H 0.06914 1.05052 -0.21103
 H446 H 0.10030 1.07800 -0.25931
 C447 C 0.31885 0.32082 -0.31988
 C448 C 0.32575 0.29282 -0.34473
 C449 C 0.31055 0.27745 -0.38026
 C450 C 0.28815 0.28986 -0.39215
 C451 C 0.28103 0.31750 -0.36655
 C452 C 0.29615 0.33272 -0.33065
 C453 C 0.33562 0.33814 -0.28470
 C454 C 0.33665 0.37087 -0.28644
 C455 C 0.35327 0.38713 -0.25573
 C456 C 0.36942 0.37108 -0.22280
 C457 C 0.36809 0.33839 -0.22019
 C458 C 0.35135 0.32213 -0.25063
 C459 C 0.38814 0.38827 -0.19293
 C460 C 0.39539 0.37854 -0.14140
 C461 C 0.41374 0.39395 -0.11459
 C462 C 0.42511 0.41951 -0.13859
 C463 C 0.41761 0.42964 -0.18954
 C464 C 0.39941 0.41413 -0.21651
 H465 H 0.34322 0.28322 -0.33808
 H466 H 0.31661 0.25629 -0.39956
 H467 H 0.26380 0.32752 -0.37458
 H468 H 0.29009 0.35391 -0.31146
 H469 H 0.32502 0.38398 -0.31266
 H470 H 0.35354 0.41233 -0.25807
 H471 H 0.38040 0.32524 -0.19570
 H472 H 0.35083 0.29696 -0.24769
 H473 H 0.38685 0.35905 -0.12170
 H474 H 0.41908 0.38578 -0.07516
 H475 H 0.42612 0.44921 -0.20910
 H476 H 0.39459 0.42195 -0.25647
 C477 C -0.17968 0.81772 -0.31642
 C478 C -0.17254 0.78959 -0.34050
 C479 C -0.18756 0.77376 -0.37582
 C480 C -0.21001 0.78581 -0.38831
 C481 C -0.21737 0.81358 -0.36351
 C482 C -0.20242 0.82928 -0.32779
 C483 C -0.16309 0.83547 -0.28142
 C484 C -0.16224 0.86820 -0.28383
 C485 C -0.14573 0.88484 -0.25338
 C486 C -0.12951 0.86918 -0.22004
 C487 C -0.13068 0.83649 -0.21674
 C488 C -0.14731 0.81986 -0.24690
 C489 C -0.11089 0.88674 -0.19046
 C490 C -0.10355 0.87734 -0.13880
 C491 C -0.08525 0.89302 -0.11231
 C492 C -0.07402 0.91856 -0.13673
 C493 C -0.08162 0.92838 -0.18778
 C494 C -0.09977 0.91258 -0.21445
 H495 H -0.15503 0.78024 -0.33341
 H496 H -0.18130 0.75251 -0.39451
 H497 H -0.23463 0.82335 -0.37202
 H498 H -0.20866 0.85057 -0.30923
 H499 H -0.17391 0.88101 -0.31039
 H500 H -0.14559 0.91002 -0.25626
 H501 H -0.11833 0.82362 -0.19193
 H502 H -0.14770 0.79471 -0.24341
 H503 H -0.11198 0.85788 -0.11876
 H504 H -0.07984 0.88509 -0.07278
 H505 H -0.07322 0.94793 -0.20766
 H506 H -0.10465 0.92016 -0.25452
 C507 C 0.32529 0.68365 0.32454
 C508 C 0.33219 0.71107 0.35106
 C509 C 0.31639 0.72675 0.38466
 C510 C 0.29346 0.71509 0.39304
 C511 C 0.28640 0.68797 0.36564
 C512 C 0.30213 0.67252 0.33137
 C513 C 0.34260 0.66600 0.29189
 C514 C 0.33670 0.65515 0.24025
 C515 C 0.35318 0.63834 0.20990
 C516 C 0.37564 0.63162 0.23116
 C517 C 0.38145 0.64236 0.28288
 C518 C 0.36515 0.65955 0.31280
 C519 C 0.39309 0.61345 0.19981
 C520 C 0.40533 0.58867 0.22408
 C521 C 0.42257 0.57230 0.19552
 C522 C 0.42815 0.58069 0.14239
 C523 C 0.41570 0.60520 0.11779
 C524 C 0.39817 0.62130 0.14616
 H525 H 0.34990 0.72024 0.34605
 H526 H 0.32238 0.74756 0.40525
 H527 H 0.26883 0.67847 0.37122
 H528 H 0.29646 0.65131 0.31156
 H529 H 0.31943 0.65995 0.22326
 H530 H 0.34828 0.63018 0.17019
 H531 H 0.39872 0.63769 0.29995
 H532 H 0.37004 0.66743 0.35270
 H533 H 0.40155 0.58201 0.26524
 H534 H 0.43187 0.55348 0.21544
 H535 H 0.41963 0.61206 0.07680
 H536 H 0.38904 0.64043 0.12671
 C537 C -0.17714 1.18074 0.32352
 C538 C -0.17168 1.21010 0.34498
 C539 C -0.18767 1.22541 0.37862
 C540 C -0.20939 1.21140 0.39248
 C541 C -0.21500 1.18219 0.36982
 C542 C -0.19910 1.16716 0.33539
 C543 C -0.15948 1.16372 0.29094
 C544 C -0.16568 1.15042 0.24124
 C545 C -0.14886 1.13411 0.21105
 C546 C -0.12574 1.13031 0.23069
 C547 C -0.11960 1.14352 0.28046
 C548 C -0.13626 1.16028 0.31009
 C549 C -0.10797 1.11246 0.19980
 C550 C -0.09470 1.08904 0.22521
 C551 C -0.07725 1.07288 0.19690
 C552 C -0.07247 1.08023 0.14292
 C553 C -0.08589 1.10346 0.11727
 C554 C -0.10366 1.11926 0.14538
 H555 H -0.15490 1.22111 0.33596
 H556 H -0.18266 1.24788 0.39489
 H557 H -0.23153 1.17065 0.37917
 H558 H -0.20363 1.14445 0.31943
 H559 H -0.18348 1.15288 0.22567
 H560 H -0.15397 1.12401 0.17284
 H561 H -0.10183 1.14105 0.29620
 H562 H -0.13112 1.17013 0.34850
 H563 H -0.09785 1.08326 0.26704
 H564 H -0.06717 1.05508 0.21764
 H565 H -0.08259 1.10948 0.07560
 H566 H -0.11364 1.13734 0.12508
 C567 C 0.68000 0.32133 0.31315
 C568 C 0.70258 0.33332 0.32486
 C569 C 0.71751 0.31802 0.36118
 C570 C 0.71028 0.29024 0.38624
 C571 C 0.68799 0.27781 0.37347
 C572 C 0.67299 0.29323 0.33757
 C573 C 0.66336 0.33863 0.27758
 C574 C 0.64777 0.32257 0.24326
 C575 C 0.63088 0.33873 0.21309
 C576 C 0.62926 0.37138 0.21613
 C577 C 0.64540 0.38751 0.24900
 C578 C 0.66216 0.37135 0.27950
 C579 C 0.61018 0.38839 0.18712
 C580 C 0.59883 0.41392 0.21145
 C581 C 0.58021 0.42915 0.18550
 C582 C 0.57234 0.41902 0.13486
 C583 C 0.58377 0.39378 0.11009
 C584 C 0.60256 0.37868 0.13586
 H585 H 0.70871 0.35461 0.30609
 H586 H 0.73466 0.32807 0.36993
 H587 H 0.68182 0.25655 0.39233
 H588 H 0.65559 0.28358 0.33030
 H589 H 0.64845 0.29742 0.24009
 H590 H 0.61862 0.32550 0.18862
 H591 H 0.64493 0.41269 0.25162
 H592 H 0.67369 0.38449 0.30585
 H593 H 0.60391 0.42170 0.25126
 H594 H 0.57167 0.44848 0.20564
 H595 H 0.57815 0.38565 0.07085
 H596 H 0.61113 0.35943 0.11559
 C597 C 0.18073 0.82412 0.31790
 C598 C 0.20330 0.83643 0.32870
 C599 C 0.21857 0.82147 0.36471
 C600 C 0.21171 0.79372 0.39037
 C601 C 0.18943 0.78095 0.37850
 C602 C 0.17409 0.79603 0.34290
 C603 C 0.16379 0.84107 0.28256
 C604 C 0.14819 0.82469 0.24872
 C605 C 0.13118 0.84056 0.21840
 C606 C 0.12945 0.87322 0.22086
 C607 C 0.14553 0.88965 0.25341
 C608 C 0.16241 0.87378 0.28404
 C609 C 0.11037 0.88996 0.19137
 C610 C 0.09891 0.91560 0.21511
 C611 C 0.08039 0.93069 0.18857
 C612 C 0.07272 0.92033 0.13790
 C613 C 0.08425 0.89496 0.11374
 C614 C 0.10293 0.87999 0.14012
 H615 H 0.20917 0.85771 0.30945
 H616 H 0.23570 0.83178 0.37273
 H617 H 0.18355 0.75969 0.39784
 H618 H 0.15672 0.78613 0.33628
 H619 H 0.14898 0.79953 0.24594
 H620 H 0.11896 0.82711 0.19419
 H621 H 0.14496 0.91484 0.25561
 H622 H 0.17394 0.88716 0.31003
 H623 H 0.10385 0.92359 0.25488
 H624 H 0.07176 0.95012 0.20825
 H625 H 0.07879 0.88663 0.07451
 H626 H 0.11159 0.86065 0.12030
   
