data_POSCAR
  _audit_creation_date              2014-09-24
  _audit_creation_method            'ToBaCCo'
  _symmetry_space_group_name_H-M    'P1'
  _symmetry_Int_Tables_number       1
  _symmetry_cell_setting            triclinic
  loop_
  _symmetry_equiv_pos_as_xyz
 x,y,z
_cell_length_a 26.3138
_cell_length_b 26.1624
_cell_length_c 67.2789
_cell_angle_alpha 92.779900
_cell_angle_beta 81.006900
_cell_angle_gamma 119.598500
loop_
  _atom_site_label
  _atom_site_type_symbol
  _atom_site_fract_x
  _atom_site_fract_y
  _atom_site_fract_z
C1 C -0.10559 -0.06311 0.53864
 H2 H -0.10821 -0.10147 0.54507
 C3 C -0.11255 -0.02270 0.55140
 H4 H -0.12052 -0.03068 0.56753
 C5 C -0.08724 -0.00367 0.51002
 H6 H -0.07560 0.00416 0.49388
 C7 C -0.09303 0.03844 0.52229
 H8 H -0.08669 0.07826 0.51550
 N9 N -0.09215 -0.05255 0.51837
 C10 C -0.00178 -0.13657 0.52190
 H11 H 0.03769 -0.09883 0.51465
 C12 C 0.00275 -0.17246 0.53551
 H13 H 0.04591 -0.16148 0.53880
 C14 C -0.10619 -0.19563 0.52708
 H15 H -0.14860 -0.20399 0.52386
 C16 C -0.10369 -0.23268 0.54059
 H17 H -0.14447 -0.27007 0.54742
 Zn18 Zn -0.06761 -0.09942 0.50182
 N19 N -0.05587 -0.14812 0.51831
 C20 C 0.04822 -0.00230 0.49241
 N21 N 0.00209 -0.04692 0.48455
 C22 C 0.00041 -0.04900 0.46440
 C23 C 0.04462 -0.00376 0.45144
 C24 C 0.09396 0.04377 0.47985
 C25 C -0.17191 -0.14319 0.48327
 C26 C -0.21068 -0.17951 0.47018
 C27 C -0.15360 -0.22938 0.46357
 C28 C -0.11611 -0.19202 0.47662
 N29 N -0.12516 -0.14942 0.48589
 H30 H 0.04767 -0.00061 0.50853
 H31 H -0.03704 -0.08378 0.45842
 H32 H 0.04118 -0.00452 0.43557
 H33 H 0.12906 0.08052 0.48629
 H34 H -0.17812 -0.10881 0.49084
 H35 H -0.24469 -0.16982 0.46777
 H36 H -0.14522 -0.26393 0.45751
 H37 H -0.07910 -0.19667 0.47931
 C38 C -0.04885 -0.22068 0.54532
 C39 C -0.10460 0.02964 0.54330
 C40 C -0.20155 -0.22318 0.45945
 C41 C 0.09117 0.04386 0.45922
 C42 C 1.02951 0.05520 0.12841
 H43 H 0.99707 0.06426 0.12390
 C44 C 1.07605 0.05998 0.11406
 H45 H 1.07804 0.07132 0.09858
 C46 C 1.06818 0.03239 0.15406
 H47 H 1.06577 0.02369 0.16983
 C48 C 1.11558 0.03649 0.14010
 H49 H 1.14938 0.03046 0.14519
 N50 N 1.02679 0.04252 0.14805
 C51 C 0.93045 0.12446 0.15402
 H52 H 0.96224 0.15907 0.16219
 C53 C 0.89676 0.13635 0.14275
 H54 H 0.90260 0.18027 0.14239
 C55 C 0.88467 0.02520 0.14422
 H56 H 0.88101 -0.01779 0.14463
 C57 C 0.85015 0.03500 0.13291
 H58 H 0.82050 -0.00070 0.12445
 Zn59 Zn 0.97063 0.04998 0.16754
 N60 N 0.92435 0.06974 0.15425
 C61 C 0.99711 0.10051 0.20546
 N62 N 1.01363 0.10926 0.18517
 C63 C 1.06518 0.15694 0.17712
 C64 C 1.10348 0.19684 0.18965
 C65 C 1.03335 0.13993 0.21849
 C66 C 0.92405 -0.06991 0.18064
 C67 C 0.88340 -0.12104 0.19214
 C68 C 0.82992 -0.07139 0.20624
 C69 C 0.87102 -0.02174 0.19438
 N70 N 0.91768 -0.02129 0.18226
 H71 H 0.95693 0.06194 0.21170
 H72 H 1.07780 0.16248 0.16094
 H73 H 1.14534 0.23345 0.18308
 H74 H 1.02033 0.13127 0.23459
 H75 H 0.96066 -0.06908 0.17052
 H76 H 0.88911 -0.15935 0.19067
 H77 H 0.79475 -0.06943 0.21639
 H78 H 0.86645 0.01723 0.19510
 C79 C 0.85631 0.09127 0.13187
 C80 C 1.12057 0.05196 0.11990
 C81 C 0.83582 -0.12200 0.20535
 C82 C 1.08783 0.18800 0.21061
 C83 C 0.15963 0.99872 0.85382
 H84 H 0.11981 0.95628 0.85596
 C85 C 0.20562 1.01109 0.86438
 H86 H 0.20052 0.97796 0.87477
 C87 C 0.21262 1.09422 0.83840
 H88 H 0.21477 1.12642 0.82834
 C89 C 0.25979 1.10875 0.84890
 H90 H 0.29825 1.15225 0.84681
 N91 N 0.16340 1.04023 0.84138
 C92 C -0.02054 0.99655 0.84643
 H93 H -0.03147 0.97981 0.83177
 C94 C -0.06182 1.00339 0.86047
 H95 H -0.10405 0.99168 0.85614
 C96 C 0.05020 1.03709 0.86868
 H97 H 0.09427 1.05142 0.87174
 C98 C 0.01099 1.04583 0.88294
 H99 H 0.02540 1.06417 0.89710
 Zn100 Zn 0.09382 1.01648 0.83018
 N101 N 0.03436 1.01373 0.85070
 C102 C 0.01974 0.89331 0.82376
 N103 N 0.07339 0.94230 0.81897
 C104 C 0.11634 0.94127 0.80510
 C105 C 0.10522 0.89057 0.79457
 C106 C 0.00670 0.84133 0.81357
 C107 C 0.11486 1.12497 0.81470
 C108 C 0.10911 1.16022 0.80119
 C109 C 0.08014 1.08084 0.77794
 C110 C 0.08680 1.04743 0.79174
 N111 N 0.10273 1.06931 0.80990
 H112 H -0.01334 0.89472 0.83515
 H113 H 0.15873 0.98085 0.80171
 H114 H 0.13924 0.89195 0.78288
 H115 H -0.03654 0.80295 0.81726
 H116 H 0.12569 1.14075 0.82946
 H117 H 0.11623 1.20341 0.80552
 H118 H 0.06530 1.06184 0.76387
 H119 H 0.07556 1.00269 0.78833
 C120 C -0.04582 1.03029 0.87889
 C121 C 0.25624 1.06693 0.86223
 C122 C 0.08966 1.13726 0.78283
 C123 C 0.04946 0.83990 0.79847
 C124 C 0.47966 0.11909 -0.02505
 C125 C 0.44282 0.11806 -0.00749
 C126 C 0.45699 0.11703 0.01162
 C127 C 0.51082 0.11896 0.01333
 C128 C 0.54813 0.11867 -0.00432
 C129 C 0.53262 0.11887 -0.02359
 C130 C 0.57114 0.12029 -0.04084
 C131 C 0.62256 0.11892 -0.03924
 C132 C 0.63782 0.11667 -0.02031
 C133 C 0.60125 0.11850 -0.00269
 C134 C 0.52905 0.12270 0.03216
 C135 C 0.58175 0.12396 0.03372
 C136 C 0.61788 0.12063 0.01655
 C137 C 0.67098 0.12078 0.01802
 C138 C 0.70546 0.11712 0.00058
 C139 C 0.68952 0.11428 -0.01850
 H140 H 0.56211 0.12278 -0.05580
 H141 H 0.65077 0.12071 -0.05304
 H142 H 0.50322 0.12573 0.04588
 H143 H 0.59390 0.12775 0.04858
 H144 H 0.40130 0.11618 -0.00873
 H145 H 0.74489 0.11495 0.00197
 C146 C -0.03784 0.32344 0.65039
 C147 C -0.02641 0.30239 0.66689
 C148 C -0.01399 0.33390 0.68454
 C149 C -0.01432 0.38789 0.68599
 C150 C -0.02389 0.41090 0.66913
 C151 C -0.03545 0.37871 0.65122
 C152 C -0.04616 0.40175 0.63491
 C153 C -0.04400 0.45604 0.63593
 C154 C -0.03211 0.48896 0.65343
 C155 C -0.02332 0.46556 0.67037
 C156 C -0.00755 0.41834 0.70405
 C157 C -0.00852 0.47109 0.70541
 C158 C -0.01532 0.49604 0.68868
 C159 C -0.01632 0.54969 0.68990
 C160 C -0.02356 0.57275 0.67293
 C161 C -0.03080 0.54374 0.65471
 H162 H -0.05668 0.37792 0.62120
 H163 H -0.05306 0.47133 0.62297
 H164 H -0.00281 0.40102 0.71749
 H165 H -0.00435 0.49181 0.71982
 H166 H -0.02681 0.26067 0.66590
 H167 H -0.02289 0.61461 0.67386
 C168 C 0.34338 0.37497 0.31730
 C169 C 0.31543 0.34239 0.33541
 C170 C 0.34210 0.35787 0.35281
 C171 C 0.39827 0.40877 0.35231
 C172 C 0.42779 0.44195 0.33397
 C173 C 0.40058 0.42468 0.31634
 C174 C 0.43088 0.45814 0.29836
 C175 C 0.48734 0.50650 0.29752
 C176 C 0.51459 0.52535 0.31486
 C177 C 0.48437 0.49293 0.33331
 C178 C 0.42513 0.42808 0.36973
 C179 C 0.48035 0.47816 0.36911
 C180 C 0.51065 0.51132 0.35109
 C181 C 0.56694 0.56204 0.35030
 C182 C 0.59668 0.59257 0.33195
 C183 C 0.57154 0.57531 0.31428
 H184 H 0.41153 0.44724 0.28466
 H185 H 0.50917 0.52902 0.28308
 H186 H 0.40348 0.40501 0.38411
 H187 H 0.49920 0.49043 0.38292
 H188 H 0.27220 0.30353 0.33590
 H189 H 0.63977 0.63160 0.33153
 C190 C -0.08763 0.16203 0.58578
 C191 C -0.13648 0.10509 0.58917
 C192 C -0.14378 0.06267 0.57465
 C193 C -0.10243 0.07674 0.55692
 C194 C -0.05501 0.13472 0.55340
 C195 C -0.04706 0.17743 0.56788
 C196 C -0.07717 0.20544 0.60168
 C197 C -0.02660 0.26144 0.59875
 C198 C -0.01487 0.30120 0.61446
 C199 C -0.05346 0.28503 0.63288
 C200 C -0.10454 0.22930 0.63541
 C201 C -0.11653 0.18917 0.61989
 C202 C 0.00202 0.23446 0.56524
 C203 C 0.01212 0.27572 0.58042
 C204 C -0.17575 0.09105 0.60736
 C205 C -0.16597 0.13242 0.62246
 H206 H 0.03360 0.24692 0.55149
 H207 H 0.05114 0.31880 0.57793
 H208 H -0.21370 0.04734 0.61012
 H209 H -0.19671 0.11947 0.63642
 H210 H -0.18051 0.01822 0.57740
 H211 H -0.02251 0.14565 0.53993
 H212 H 0.02496 0.34382 0.61267
 H213 H -0.13383 0.21677 0.64971
 C214 C 0.71744 0.73618 0.24765
 C215 C 0.69586 0.76703 0.23845
 C216 C 0.73395 0.81117 0.22384
 C217 C 0.79385 0.82594 0.21882
 C218 C 0.81426 0.79340 0.22788
 C219 C 0.77622 0.74845 0.24228
 C220 C 0.67839 0.69176 0.26376
 C221 C 0.70041 0.66183 0.27327
 C222 C 0.66399 0.62160 0.28918
 C223 C 0.60639 0.61200 0.29577
 C224 C 0.58489 0.64220 0.28605
 C225 C 0.62057 0.68177 0.26987
 C226 C 0.79629 0.71679 0.25190
 C227 C 0.75895 0.67405 0.26709
 C228 C 0.63714 0.75444 0.24451
 C229 C 0.60022 0.71276 0.26004
 H230 H 0.84148 0.72569 0.24786
 H231 H 0.77639 0.65118 0.27430
 H232 H 0.61996 0.77792 0.23749
 H233 H 0.55564 0.70525 0.26454
 H234 H 0.71722 0.83490 0.21670
 H235 H 0.86028 0.80463 0.22440
 H236 H 0.68083 0.59894 0.29686
 H237 H 0.54105 0.63588 0.29143
 C238 C 0.37304 0.10056 -0.09520
 C239 C 0.35907 0.14391 -0.09935
 C240 C 0.32405 0.13453 -0.11435
 C241 C 0.30225 0.08178 -0.12486
 C242 C 0.31904 0.04006 -0.12112
 C243 C 0.35394 0.04895 -0.10618
 C244 C 0.40544 0.10783 -0.07831
 C245 C 0.41664 0.06300 -0.07349
 C246 C 0.44361 0.06816 -0.05653
 C247 C 0.45918 0.11764 -0.04449
 C248 C 0.44893 0.16279 -0.04977
 C249 C 0.42186 0.15805 -0.06665
 C250 C 0.36782 0.00605 -0.10137
 C251 C 0.39860 0.01293 -0.08528
 C252 C 0.37798 0.19444 -0.08776
 C253 C 0.40886 0.20139 -0.07169
 H254 H 0.35347 -0.03387 -0.10978
 H255 H 0.40719 -0.02182 -0.08178
 H256 H 0.36762 0.22827 -0.09083
 H257 H 0.42149 0.24041 -0.06285
 H258 H 0.31078 0.16652 -0.11695
 H259 H 0.30292 -0.00037 -0.12931
 H260 H 0.45051 0.03290 -0.05222
 H261 H 0.46033 0.20054 -0.04031
 C262 C -0.04336 0.67388 0.59099
 C263 C -0.08805 0.68919 0.59347
 C264 C -0.08919 0.72383 0.57852
 C265 C -0.04635 0.74295 0.56105
 C266 C -0.00166 0.72727 0.55881
 C267 C 0.00005 0.69274 0.57378
 C268 C -0.04161 0.63804 0.60684
 C269 C 0.00372 0.62356 0.60459
 C270 C 0.00616 0.59098 0.62004
 C271 C -0.03654 0.57284 0.63750
 C272 C -0.08199 0.58716 0.63940
 C273 C -0.08469 0.61989 0.62414
 C274 C 0.04432 0.67680 0.57196
 C275 C 0.04619 0.64290 0.58712
 C276 C -0.13058 0.66988 0.61091
 C277 C -0.12896 0.63574 0.62599
 H278 H 0.07803 0.69095 0.55876
 H279 H 0.08136 0.63201 0.58518
 H280 H -0.16530 0.68142 0.61297
 H281 H -0.16239 0.62201 0.63926
 H282 H -0.12303 0.73660 0.58063
 H283 H 0.03123 0.74134 0.54538
 H284 H 0.04177 0.58080 0.61876
 H285 H -0.11449 0.57366 0.65295
 C286 C 0.20373 0.28271 0.25323
 C287 C 0.14692 0.27657 0.25594
 C288 C 0.10994 0.24767 0.24147
 C289 C 0.12959 0.22537 0.22436
 C290 C 0.18742 0.23377 0.22148
 C291 C 0.22447 0.26177 0.23604
 C292 C 0.24127 0.30948 0.26908
 C293 C 0.29683 0.31281 0.26689
 C294 C 0.33098 0.33546 0.28250
 C295 C 0.31018 0.35557 0.29998
 C296 C 0.25482 0.35269 0.30178
 C297 C 0.21995 0.32930 0.28644
 C298 C 0.28097 0.26735 0.23413
 C299 C 0.31643 0.29221 0.24933
 C300 C 0.12759 0.29784 0.27337
 C301 C 0.16358 0.32396 0.28833
 H302 H 0.29747 0.25134 0.22094
 H303 H 0.35928 0.29473 0.24741
 H304 H 0.08395 0.29354 0.27560
 H305 H 0.14672 0.33914 0.30166
 H306 H 0.06543 0.24125 0.24369
 H307 H 0.20233 0.21585 0.20846
 H308 H 0.37308 0.33656 0.28130
 H309 H 0.23852 0.36750 0.31536
 C310 C 0.84042 0.07041 -0.07993
 C311 C 0.90182 0.10655 -0.08148
 C312 C 0.93904 0.09276 -0.09503
 C313 C 0.91570 0.04347 -0.10741
 C314 C 0.85344 0.00851 -0.10588
 C315 C 0.81580 0.02130 -0.09198
 C316 C 0.80119 0.08374 -0.06516
 C317 C 0.73976 0.04607 -0.06292
 C318 C 0.70293 0.05725 -0.04808
 C319 C 0.72724 0.10636 -0.03585
 C320 C 0.78880 0.14445 -0.03869
 C321 C 0.82604 0.13302 -0.05317
 C322 C 0.75399 -0.01466 -0.08962
 C323 C 0.71665 -0.00270 -0.07525
 C324 C 0.92500 0.15587 -0.06938
 C325 C 0.88773 0.16901 -0.05551
 H326 H 0.73433 -0.05282 -0.09878
 H327 H 0.66933 -0.03204 -0.07372
 H328 H 0.97240 0.18435 -0.07054
 H329 H 0.90741 0.20714 -0.04634
 H330 H 0.98628 0.12223 -0.09640
 H331 H 0.83390 -0.03039 -0.11470
 H332 H 0.65568 0.02708 -0.04563
 H333 H 0.80767 0.18194 -0.02917
 C334 C 0.27077 0.08414 0.07601
 C335 C 0.24434 0.03404 0.08890
 C336 C 0.19581 0.02403 0.10358
 C337 C 0.17338 0.06329 0.10512
 C338 C 0.20101 0.11363 0.09221
 C339 C 0.24964 0.12427 0.07763
 C340 C 0.32074 0.09419 0.06022
 C341 C 0.34647 0.14385 0.04716
 C342 C 0.39260 0.15218 0.03175
 C343 C 0.41271 0.11113 0.02929
 C344 C 0.38677 0.06176 0.04258
 C345 C 0.34082 0.05318 0.05816
 C346 C 0.27706 0.17386 0.06448
 C347 C 0.32470 0.18350 0.04950
 C348 C 0.26637 -0.00545 0.08659
 C349 C 0.31369 0.00388 0.07145
 H350 H 0.26119 0.20519 0.06565
 H351 H 0.34422 0.22198 0.03953
 H352 H 0.24644 -0.04424 0.09643
 H353 H 0.32884 -0.02802 0.07004
 H354 H 0.17456 -0.01490 0.11342
 H355 H 0.18457 0.14454 0.09354
 H356 H 0.41218 0.18986 0.02139
 H357 H 0.40151 0.02953 0.04044
 C358 C 0.69480 0.67663 0.41558
 C359 C 0.67261 0.70348 0.43021
 C360 C 0.70680 0.73626 0.44503
 C361 C 0.76375 0.74308 0.44545
 C362 C 0.78422 0.71455 0.43037
 C363 C 0.75030 0.68176 0.41559
 C364 C 0.65990 0.64369 0.39961
 C365 C 0.68321 0.61846 0.38459
 C366 C 0.65119 0.58954 0.36894
 C367 C 0.59639 0.58587 0.36826
 C368 C 0.57302 0.61046 0.38356
 C369 C 0.60476 0.63959 0.39931
 C370 C 0.77173 0.65511 0.40048
 C371 C 0.73875 0.62400 0.38524
 C372 C 0.61666 0.69738 0.42966
 C373 C 0.58336 0.66607 0.41446
 H374 H 0.81466 0.65880 0.40031
 H375 H 0.75719 0.60472 0.37375
 H376 H 0.59874 0.71763 0.44093
 H377 H 0.54085 0.66318 0.41444
 H378 H 0.68711 0.75418 0.45655
 H379 H 0.82824 0.72037 0.42894
 H380 H 0.66935 0.57112 0.35700
 H381 H 0.53120 0.60841 0.38279
 C382 C 0.04291 0.22581 0.74348
 C383 C 0.09815 0.25662 0.75016
 C384 C 0.11318 0.22812 0.76344
 C385 C 0.07376 0.16901 0.76959
 C386 C 0.01841 0.13915 0.76289
 C387 C 0.00269 0.16730 0.74988
 C388 C 0.02729 0.25489 0.72919
 C389 C -0.02775 0.22372 0.72242
 C390 C -0.04171 0.25082 0.70839
 C391 C -0.00090 0.30838 0.70096
 C392 C 0.05402 0.33925 0.70795
 C393 C 0.06822 0.31275 0.72221
 C394 C -0.05221 0.13782 0.74296
 C395 C -0.06722 0.16561 0.72948
 C396 C 0.13748 0.31487 0.74312
 C397 C 0.12287 0.34237 0.72933
 H398 H -0.08364 0.09272 0.74787
 H399 H -0.10980 0.14117 0.72437
 H400 H 0.18021 0.33917 0.74814
 H401 H 0.15478 0.38706 0.72410
 H402 H 0.15586 0.25116 0.76856
 H403 H -0.01242 0.09389 0.76785
 H404 H -0.08379 0.22690 0.70288
 H405 H 0.08589 0.38323 0.70197
 C406 C 0.76753 0.11558 0.08819
 C407 C 0.73675 0.06613 0.10139
 C408 C 0.76472 0.06033 0.11655
 C409 C 0.82351 0.10288 0.11828
 C410 C 0.85281 0.15342 0.10544
 C411 C 0.82514 0.15979 0.09027
 C412 C 0.74014 0.11957 0.07123
 C413 C 0.77208 0.16766 0.05747
 C414 C 0.74758 0.16922 0.04061
 C415 C 0.69191 0.12293 0.03741
 C416 C 0.65984 0.07563 0.05153
 C417 C 0.68380 0.07374 0.06853
 C418 C 0.85491 0.20814 0.07655
 C419 C 0.82881 0.21203 0.06043
 C420 C 0.67962 0.02222 0.09863
 C421 C 0.65362 0.02591 0.08244
 H422 H 0.89929 0.24263 0.07801
 H423 H 0.85378 0.24943 0.04994
 H424 H 0.65537 -0.01605 0.10877
 H425 H 0.61007 -0.00957 0.08057
 H426 H 0.74156 0.02168 0.12654
 H427 H 0.89824 0.18604 0.10648
 H428 H 0.77249 0.20525 0.02956
 H429 H 0.61746 0.03947 0.04884
 C430 C 0.20433 0.18849 0.41798
 C431 C 0.14523 0.17435 0.42411
 C432 C 0.10919 0.12792 0.43813
 C433 C 0.13191 0.09602 0.44607
 C434 C 0.19162 0.11163 0.44032
 C435 C 0.22803 0.15764 0.42602
 C436 C 0.24138 0.23500 0.40230
 C437 C 0.29961 0.24729 0.39539
 C438 C 0.33344 0.28918 0.37962
 C439 C 0.30941 0.31891 0.37101
 C440 C 0.25146 0.30696 0.37843
 C441 C 0.21707 0.26474 0.39397
 C442 C 0.28702 0.17232 0.41911
 C443 C 0.32213 0.21622 0.40401
 C444 C 0.12287 0.20585 0.41571
 C445 C 0.15826 0.25043 0.40093
 H446 H 0.30589 0.14896 0.42517
 H447 H 0.36704 0.22541 0.39887
 H448 H 0.07738 0.19540 0.42040
 H449 H 0.13909 0.27313 0.39463
 H450 H 0.06309 0.11566 0.44262
 H451 H 0.20881 0.08660 0.44638
 H452 H 0.37769 0.29757 0.37365
 H453 H 0.23277 0.32942 0.37166
 C454 C 0.01416 0.70079 0.75710
 C455 C -0.03055 0.71448 0.76442
 C456 C -0.01987 0.75792 0.77878
 C457 C 0.03522 0.78794 0.78571
 C458 C 0.07861 0.77178 0.77879
 C459 C 0.06857 0.72874 0.76432
 C460 C 0.00481 0.65839 0.74091
 C461 C 0.05065 0.64691 0.73287
 C462 C 0.04289 0.60944 0.71659
 C463 C -0.01034 0.58348 0.70854
 C464 C -0.05626 0.59444 0.71704
 C465 C -0.04883 0.63213 0.73318
 C466 C 0.11266 0.71469 0.75637
 C467 C 0.10391 0.67457 0.74087
 C468 C -0.08417 0.68614 0.75665
 C469 C -0.09320 0.64557 0.74131
 H470 H 0.15480 0.73586 0.76185
 H471 H 0.13950 0.66592 0.73486
 H472 H -0.11906 0.69621 0.76221
 H473 H -0.13481 0.62546 0.73549
 H474 H -0.05330 0.77044 0.78374
 H475 H 0.12083 0.79392 0.78424
 H476 H 0.07859 0.60176 0.70979
 H477 H -0.09699 0.57486 0.71065
   
