data_POSCAR
  _audit_creation_date              2014-09-24
  _audit_creation_method            'ToBaCCo'
  _symmetry_space_group_name_H-M    'P1'
  _symmetry_Int_Tables_number       1
  _symmetry_cell_setting            triclinic
  loop_
  _symmetry_equiv_pos_as_xyz
 x,y,z
_cell_length_a 39.4681
_cell_length_b 39.3144
_cell_length_c 50.1796
_cell_angle_alpha 90.120500
_cell_angle_beta 91.213400
_cell_angle_gamma 89.824100
loop_
  _atom_site_label
  _atom_site_type_symbol
  _atom_site_fract_x
  _atom_site_fract_y
  _atom_site_fract_z
C1 C 1.20963 0.26961 0.29428
 H2 H 1.20992 0.24209 0.29425
 C3 C 1.18986 0.28719 0.31249
 H4 H 1.17479 0.27324 0.32654
 C5 C 1.22952 0.32150 0.27639
 H6 H 1.24544 0.33473 0.26260
 C7 C 1.21010 0.34010 0.29430
 H8 H 1.21090 0.36764 0.29415
 N9 N 1.22871 0.28689 0.27659
 C10 C 1.24345 0.21550 0.21157
 H11 H 1.27084 0.21525 0.21095
 C12 C 1.22449 0.19646 0.19315
 H13 H 1.23724 0.18137 0.17828
 C14 C 1.19325 0.23606 0.23132
 H15 H 1.18117 0.25201 0.24588
 C16 C 1.17332 0.21741 0.21323
 H17 H 1.14594 0.21878 0.21407
 Zn18 Zn 1.25547 0.26054 0.25358
 N19 N 1.22766 0.23454 0.23029
 C20 C 1.28029 0.19732 0.27334
 N21 N 1.28272 0.23177 0.27528
 C22 C 1.30303 0.24674 0.29412
 C23 C 1.32214 0.22685 0.31191
 C24 C 1.29896 0.17645 0.29073
 C25 C 1.26589 0.30891 0.21415
 C26 C 1.28408 0.32818 0.19606
 C27 C 1.33603 0.30507 0.21502
 C28 C 1.31686 0.28622 0.23280
 N29 N 1.28242 0.28847 0.23203
 H30 H 1.26335 0.18592 0.25872
 H31 H 1.30396 0.27418 0.29551
 H32 H 1.33798 0.23910 0.32700
 H33 H 1.29652 0.14905 0.28918
 H34 H 1.23848 0.30967 0.21365
 H35 H 1.27070 0.34398 0.18162
 H36 H 1.36340 0.30273 0.21541
 H37 H 1.32947 0.26919 0.24667
 C38 C 1.18913 0.19745 0.19402
 C39 C 1.19011 0.32274 0.31248
 C40 C 1.31944 0.32604 0.19640
 C41 C 1.31997 0.19137 0.31028
 C42 C 0.70884 -0.23090 0.28636
 H43 H 0.70961 -0.25841 0.28591
 C44 C 0.68858 -0.21415 0.30472
 H45 H 0.67357 -0.22875 0.31842
 C46 C 0.72824 -0.17820 0.26962
 H47 H 0.74423 -0.16430 0.25629
 C48 C 0.70831 -0.16042 0.28771
 H49 H 0.70880 -0.13288 0.28811
 N50 N 0.72800 -0.21283 0.26919
 C51 C 0.74662 -0.28323 0.20368
 H52 H 0.77401 -0.28268 0.20339
 C53 C 0.72856 -0.30308 0.18517
 H54 H 0.74205 -0.31792 0.17057
 C55 C 0.69545 -0.26421 0.22280
 H56 H 0.68260 -0.24866 0.23721
 C57 C 0.67643 -0.28369 0.20463
 H58 H 0.64901 -0.28329 0.20526
 Zn59 Zn 0.75629 -0.23806 0.24639
 N60 N 0.72993 -0.26461 0.22219
 C61 C 0.78280 -0.30087 0.26616
 N62 N 0.78359 -0.26637 0.26857
 C63 C 0.80226 -0.25097 0.28822
 C64 C 0.82134 -0.27039 0.30636
 C65 C 0.80153 -0.32125 0.28391
 C66 C 0.76757 -0.18784 0.20816
 C67 C 0.78634 -0.16665 0.19177
 C68 C 0.83771 -0.18895 0.21226
 C69 C 0.81798 -0.20973 0.22828
 N70 N 0.78354 -0.20870 0.22604
 H71 H 0.76715 -0.31270 0.25089
 H72 H 0.80192 -0.22353 0.28997
 H73 H 0.83587 -0.25793 0.32210
 H74 H 0.80048 -0.34870 0.28209
 H75 H 0.74019 -0.18795 0.20648
 H76 H 0.77342 -0.15035 0.17742
 H77 H 0.86509 -0.19018 0.21394
 H78 H 0.83025 -0.22703 0.24213
 C79 C 0.69315 -0.30337 0.18571
 C80 C 0.68837 -0.17860 0.30544
 C81 C 0.82173 -0.16729 0.19380
 C82 C 0.82086 -0.30585 0.30424
 C83 C 0.70377 0.26558 -0.21191
 H84 H 0.70448 0.23807 -0.21160
 C85 C 0.68443 0.28326 -0.19345
 H86 H 0.67007 0.26936 -0.17890
 C87 C 0.72240 0.31738 -0.23074
 H88 H 0.73776 0.33058 -0.24495
 C89 C 0.70339 0.33607 -0.21260
 H90 H 0.70392 0.36361 -0.21302
 N91 N 0.72211 0.28276 -0.23015
 C92 C 0.73828 0.20984 -0.29422
 H93 H 0.76562 0.21073 -0.29516
 C94 C 0.71983 0.18950 -0.31210
 H95 H 0.73295 0.17459 -0.32687
 C96 C 0.68763 0.22877 -0.27421
 H97 H 0.67516 0.24456 -0.25974
 C98 C 0.66820 0.20877 -0.29175
 H99 H 0.64082 0.20901 -0.29062
 Zn100 Zn 0.74927 0.25646 -0.25305
 N101 N 0.72205 0.22873 -0.27563
 C102 C 0.77735 0.19475 -0.23269
 N103 N 0.77795 0.22932 -0.23112
 C104 C 0.79791 0.24564 -0.21275
 C105 C 0.81870 0.22708 -0.19521
 C106 C 0.79776 0.17522 -0.21551
 C107 C 0.75815 0.30440 -0.29334
 C108 C 0.77585 0.32401 -0.31154
 C109 C 0.82839 0.30235 -0.29244
 C110 C 0.80967 0.28316 -0.27460
 N111 N 0.77519 0.28458 -0.27532
 H112 H 0.76071 0.18222 -0.24693
 H113 H 0.79744 0.27312 -0.21164
 H114 H 0.83438 0.24025 -0.18054
 H115 H 0.79697 0.14772 -0.21672
 H116 H 0.73073 0.30453 -0.29378
 H117 H 0.76193 0.33943 -0.32596
 H118 H 0.85582 0.30068 -0.29187
 H119 H 0.82273 0.26660 -0.26063
 C120 C 0.68449 0.18897 -0.31084
 C121 C 0.68431 0.31881 -0.19376
 C122 C 0.81132 0.32286 -0.31117
 C123 C 0.81857 0.19156 -0.19661
 C124 C 1.19903 -0.22636 -0.20838
 H125 H 1.19856 -0.25381 -0.20694
 C126 C 1.17921 -0.20666 -0.19152
 H127 H 1.16335 -0.21893 -0.17706
 C128 C 1.22091 -0.17673 -0.22850
 H129 H 1.23764 -0.16515 -0.24259
 C130 C 1.20148 -0.15607 -0.21199
 H131 H 1.20313 -0.12864 -0.21354
 N132 N 1.21917 -0.21122 -0.22653
 C133 C 1.23482 -0.28834 -0.28763
 H134 H 1.26223 -0.28888 -0.28775
 C135 C 1.21622 -0.30842 -0.30561
 H136 H 1.22930 -0.32458 -0.31960
 C137 C 1.18422 -0.26592 -0.26979
 H138 H 1.17186 -0.24884 -0.25618
 C139 C 1.16465 -0.28560 -0.28747
 H140 H 1.13726 -0.28383 -0.28726
 Zn141 Zn 1.24622 -0.24005 -0.24769
 N142 N 1.21867 -0.26780 -0.27009
 C143 C 1.27071 -0.30174 -0.22462
 N144 N 1.27297 -0.26719 -0.22416
 C145 C 1.29324 -0.25092 -0.20596
 C146 C 1.31269 -0.26954 -0.18751
 C147 C 1.28974 -0.32132 -0.20650
 C148 C 1.25801 -0.19515 -0.28944
 C149 C 1.27680 -0.17709 -0.30792
 C150 C 1.32815 -0.19868 -0.28692
 C151 C 1.30839 -0.21636 -0.26879
 N152 N 1.27396 -0.21420 -0.27032
 H153 H 1.25387 -0.31421 -0.23875
 H154 H 1.29412 -0.22342 -0.20575
 H155 H 1.32872 -0.25639 -0.17307
 H156 H 1.28771 -0.34879 -0.20692
 H157 H 1.23061 -0.19441 -0.29051
 H158 H 1.26388 -0.16225 -0.32322
 H159 H 1.35551 -0.20079 -0.28578
 H160 H 1.32058 -0.23228 -0.25391
 C161 C 1.18083 -0.30698 -0.30555
 C162 C 1.18046 -0.17120 -0.19334
 C163 C 1.31218 -0.17898 -0.30670
 C164 C 1.31090 -0.30506 -0.18779
 C165 C 0.26036 0.19385 0.71004
 H166 H 0.23296 0.19303 0.71011
 C167 C 0.27813 0.17402 0.69188
 H168 H 0.26443 0.15775 0.67796
 C169 C 0.31172 0.21691 0.72745
 H170 H 0.32468 0.23422 0.74090
 C171 C 0.33047 0.19751 0.70961
 H172 H 0.35782 0.19970 0.70955
 N173 N 0.27730 0.21468 0.72740
 C174 C 0.20726 0.23355 0.79197
 H175 H 0.20644 0.26105 0.79153
 C176 C 0.19012 0.21592 0.81167
 H177 H 0.17581 0.22992 0.82630
 C178 C 0.22796 0.18182 0.77402
 H179 H 0.24340 0.16870 0.75974
 C180 C 0.21120 0.16316 0.79342
 H181 H 0.21348 0.13569 0.79375
 Zn182 Zn 0.25111 0.24280 0.74975
 N183 N 0.22566 0.21639 0.77364
 C184 C 0.18813 0.26891 0.72916
 N185 N 0.22249 0.26943 0.72726
 C186 C 0.23786 0.28818 0.70825
 C187 C 0.21859 0.30786 0.69043
 C188 C 0.16787 0.28827 0.71168
 C189 C 0.30026 0.25562 0.78922
 C190 C 0.32022 0.27498 0.80678
 C191 C 0.29693 0.32597 0.78664
 C192 C 0.27739 0.30565 0.76942
 N193 N 0.27945 0.27113 0.77097
 H194 H 0.17635 0.25329 0.74401
 H195 H 0.26519 0.28772 0.70695
 H196 H 0.23108 0.32267 0.67535
 H197 H 0.14055 0.28769 0.71322
 H198 H 0.30091 0.22814 0.79034
 H199 H 0.33642 0.26242 0.82145
 H200 H 0.29484 0.35341 0.78556
 H201 H 0.26008 0.31751 0.75529
 C202 C 0.19227 0.18040 0.81252
 C203 C 0.31349 0.17599 0.69160
 C204 C 0.31841 0.31046 0.80555
 C205 C 0.18329 0.30792 0.69215
 C206 C 0.75785 0.69942 0.71056
 H207 H 0.73048 0.70068 0.70919
 C208 C 0.77577 0.68047 0.69197
 H209 H 0.76221 0.66696 0.67624
 C210 C 0.80911 0.71635 0.73224
 H211 H 0.82201 0.73093 0.74761
 C212 C 0.82802 0.69771 0.71401
 H213 H 0.85544 0.69775 0.71553
 N214 N 0.77465 0.71674 0.73025
 C215 C 0.70026 0.73252 0.79176
 H216 H 0.70162 0.75991 0.79354
 C217 C 0.67975 0.71405 0.80874
 H218 H 0.66519 0.72729 0.82364
 C219 C 0.71867 0.68174 0.77082
 H220 H 0.73449 0.66924 0.75645
 C221 C 0.69850 0.66224 0.78746
 H222 H 0.69867 0.63476 0.78570
 Zn223 Zn 0.74829 0.74363 0.75324
 N224 N 0.71912 0.71622 0.77326
 C225 C 0.68835 0.77287 0.73091
 N226 N 0.72283 0.77408 0.73157
 C227 C 0.74001 0.79496 0.71504
 C228 C 0.72242 0.81571 0.69688
 C229 C 0.66980 0.79320 0.71306
 C230 C 0.79375 0.74762 0.79617
 C231 C 0.81264 0.76285 0.81674
 C232 C 0.79481 0.81791 0.80020
 C233 C 0.77621 0.80164 0.77989
 N234 N 0.77607 0.76707 0.77827
 H235 H 0.67516 0.75545 0.74364
 H236 H 0.76743 0.79490 0.71562
 H237 H 0.73628 0.83185 0.68347
 H238 H 0.64239 0.79163 0.71231
 H239 H 0.79263 0.72019 0.79469
 H240 H 0.82636 0.74715 0.83106
 H241 H 0.79454 0.84541 0.80160
 H242 H 0.76133 0.81659 0.76588
 C243 C 0.67902 0.67859 0.80667
 C244 C 0.81116 0.67971 0.69367
 C245 C 0.81299 0.79829 0.81887
 C246 C 0.68701 0.81459 0.69576
 C247 C 0.75469 0.19387 0.20886
 H248 H 0.72731 0.19501 0.20917
 C249 C 0.77073 0.17436 0.18954
 H250 H 0.75571 0.16028 0.17499
 C251 C 0.80777 0.21195 0.22677
 H252 H 0.82207 0.22726 0.24090
 C253 C 0.82484 0.19274 0.20775
 H254 H 0.85227 0.19309 0.20743
 N255 N 0.77328 0.21215 0.22697
 C256 C 0.70393 0.23163 0.29189
 H257 H 0.70507 0.25910 0.29270
 C258 C 0.68442 0.21390 0.31010
 H259 H 0.67038 0.22773 0.32498
 C260 C 0.72151 0.17991 0.27195
 H261 H 0.73649 0.16674 0.25739
 C262 C 0.70232 0.16120 0.28981
 H263 H 0.70236 0.13367 0.28882
 Zn264 Zn 0.74891 0.24062 0.25032
 N265 N 0.72180 0.21451 0.27320
 C266 C 0.68722 0.26982 0.23014
 N267 N 0.72162 0.26927 0.22850
 C268 C 0.73786 0.28795 0.20992
 C269 C 0.71947 0.30854 0.19219
 C270 C 0.66783 0.29010 0.21274
 C271 C 0.79911 0.25041 0.29004
 C272 C 0.81950 0.26875 0.30805
 C273 C 0.79711 0.32088 0.28918
 C274 C 0.77714 0.30159 0.27154
 N275 N 0.77851 0.26698 0.27224
 H276 H 0.67473 0.25418 0.24460
 H277 H 0.76518 0.28656 0.20878
 H278 H 0.73262 0.32317 0.17736
 H279 H 0.64046 0.29025 0.21397
 H280 H 0.79922 0.22289 0.29052
 H281 H 0.83550 0.25536 0.32238
 H282 H 0.79550 0.34839 0.28874
 H283 H 0.75998 0.31434 0.25779
 C284 C 0.68365 0.17837 0.30906
 C285 C 0.80612 0.17396 0.18887
 C286 C 0.81833 0.30432 0.30769
 C287 C 0.68415 0.30956 0.19358
 C288 C 0.26067 0.69171 0.21101
 H289 H 0.23329 0.69083 0.20965
 C290 C 0.27997 0.67210 0.19374
 H291 H 0.26748 0.65591 0.17909
 C292 C 0.31048 0.71509 0.23092
 H293 H 0.32223 0.73256 0.24491
 C294 C 0.33074 0.69591 0.21398
 H295 H 0.35806 0.69842 0.21516
 N296 N 0.27609 0.71267 0.22911
 C297 C 0.19892 0.73286 0.28807
 H298 H 0.19815 0.76035 0.28728
 C299 C 0.17917 0.71551 0.30634
 H300 H 0.16300 0.72964 0.31962
 C301 C 0.22183 0.68086 0.27241
 H302 H 0.23906 0.66750 0.25960
 C303 C 0.20249 0.66251 0.29041
 H304 H 0.20464 0.63505 0.29123
 Zn305 Zn 0.24777 0.74129 0.24924
 N306 N 0.21965 0.71541 0.27154
 C307 C 0.18718 0.76433 0.22303
 N308 N 0.22159 0.76675 0.22426
 C309 C 0.23877 0.78504 0.20596
 C310 C 0.22130 0.80189 0.18540
 C311 C 0.16872 0.78081 0.20274
 C312 C 0.29277 0.75443 0.29135
 C313 C 0.31206 0.77365 0.30945
 C314 C 0.29240 0.82472 0.28713
 C315 C 0.27346 0.80446 0.26940
 N316 N 0.27415 0.76997 0.27174
 H317 H 0.17406 0.74896 0.23731
 H318 H 0.26616 0.78593 0.20709
 H319 H 0.23521 0.81613 0.17078
 H320 H 0.14138 0.77848 0.20169
 H321 H 0.29244 0.72699 0.29296
 H322 H 0.32667 0.76087 0.32502
 H323 H 0.29153 0.85218 0.28517
 H324 H 0.25794 0.81633 0.25404
 C325 C 0.18110 0.68003 0.30761
 C326 C 0.31530 0.67444 0.19511
 C327 C 0.31187 0.80915 0.30737
 C328 C 0.18598 0.79957 0.18367
 O329 O 1.05644 0.02650 0.03868
 O330 O 0.93973 -0.02331 0.02230
 O331 O 0.97471 0.06664 0.02915
 O332 O 1.03618 -0.07076 0.00798
 O333 O 0.93378 0.03675 0.01109
 O334 O 1.05013 -0.03100 0.03328
 O335 O 0.98702 -0.04668 0.03339
 O336 O 1.03697 0.07316 0.02247
 C337 C 1.05289 0.05758 0.04021
 C338 C 0.95735 -0.03970 0.03885
 C339 C 0.94490 0.05634 0.02919
 C340 C 1.05294 -0.06144 0.02769
 O341 O 1.06342 -0.02578 -0.02102
 O342 O 0.95230 0.02144 -0.03982
 O343 O 1.02846 0.06914 -0.02834
 O344 O 0.97474 -0.08101 -0.00904
 O345 O 0.95371 -0.03729 -0.02987
 O346 O 1.07027 0.03615 -0.01379
 O347 O 1.01442 -0.04465 -0.03520
 O348 O 0.96504 0.06972 -0.02261
 Co349 Co 1.05558 0.00164 0.00843
 Co350 Co 0.94990 0.00004 -0.00807
 Co351 Co 1.00126 0.06373 0.00023
 Co352 Co 0.99967 -0.04371 -0.00099
 O353 O 1.00324 0.00769 0.00074
 C354 C 1.04525 -0.03975 -0.03899
 C355 C 0.95365 0.05272 -0.04174
 C356 C 1.05854 0.05882 -0.02946
 C357 C 0.95160 -0.06878 -0.02495
 O358 O 1.05395 0.52043 0.53587
 O359 O 0.93825 0.48385 0.53181
 O360 O 0.97830 0.56008 0.53319
 O361 O 1.01457 0.44378 0.53470
 O362 O 0.93198 0.54087 0.51704
 O363 O 1.06160 0.46314 0.52167
 O364 O 0.95799 0.43691 0.51795
 O365 O 1.03548 0.56710 0.52010
 C366 C 1.04980 0.55125 0.53863
 C367 C 0.94256 0.45316 0.53525
 C368 C 0.94766 0.55557 0.53554
 C369 C 1.04515 0.44784 0.53884
 O370 O 1.05637 0.48416 0.46987
 O371 O 0.94008 0.51930 0.46558
 O372 O 1.01514 0.55983 0.46803
 O373 O 0.98092 0.44305 0.46728
 O374 O 0.93350 0.46207 0.48011
 O375 O 1.06176 0.54142 0.48430
 O376 O 1.03758 0.43716 0.48403
 O377 O 0.95785 0.56633 0.48114
 Co378 Co 1.05248 0.50226 0.50274
 Co379 Co 0.94189 0.50157 0.49882
 Co380 Co 0.99675 0.55736 0.50063
 Co381 Co 0.99771 0.44623 0.50097
 O382 O 0.99720 0.50184 0.50079
 C383 C 1.05265 0.45338 0.46661
 C384 C 0.94398 0.55010 0.46261
 C385 C 1.04587 0.55570 0.46573
 C386 C 0.95028 0.44668 0.46307
 O387 O 0.56287 0.03436 0.51813
 O388 O 0.43426 -0.04551 0.51611
 O389 O 0.45893 0.05879 0.51743
 O390 O 0.53817 -0.07002 0.51810
 O391 O 0.44031 0.01161 0.53147
 O392 O 0.55677 -0.02278 0.53292
 O393 O 0.48112 -0.06408 0.53168
 O394 O 0.51606 0.05255 0.53257
 C395 C 0.54683 0.04906 0.53591
 C396 C 0.45048 -0.05992 0.53442
 C397 C 0.44430 0.04234 0.53498
 C398 C 0.55295 -0.05356 0.53612
 O399 O 0.56330 -0.04461 0.48171
 O400 O 0.43331 0.03366 0.48012
 O401 O 0.53682 0.05939 0.48110
 O402 O 0.45987 -0.07045 0.47957
 O403 O 0.44032 -0.02343 0.46498
 O404 O 0.55610 0.01250 0.46665
 O405 O 0.51679 -0.06364 0.46600
 O406 O 0.47988 0.05259 0.46600
 Co407 Co 0.55378 -0.00517 0.49976
 Co408 Co 0.44303 -0.00587 0.49825
 Co409 Co 0.49797 0.04988 0.49926
 Co410 Co 0.49894 -0.06112 0.49885
 O411 O 0.49842 -0.00558 0.49903
 C412 C 0.54737 -0.05913 0.46331
 C413 C 0.44920 0.04874 0.46255
 C414 C 0.55172 0.04324 0.46342
 C415 C 0.44465 -0.05418 0.46166
 O416 O 0.56656 0.53915 0.01782
 O417 O 0.43656 0.45973 0.01707
 O418 O 0.46285 0.56383 0.01950
 O419 O 0.54011 0.43509 0.01916
 O420 O 0.44345 0.51659 0.03307
 O421 O 0.55974 0.48214 0.03362
 O422 O 0.48341 0.44146 0.03264
 O423 O 0.52040 0.55760 0.03315
 C424 C 0.55128 0.55427 0.03578
 C425 C 0.45279 0.44551 0.03542
 C426 C 0.44821 0.54717 0.03696
 C427 C 0.55512 0.45150 0.03710
 O428 O 0.56563 0.45940 -0.01735
 O429 O 0.43555 0.53967 -0.01759
 O430 O 0.53921 0.56362 -0.01903
 O431 O 0.46203 0.43541 -0.01963
 O432 O 0.44231 0.48265 -0.03374
 O433 O 0.55856 0.51635 -0.03299
 O434 O 0.51878 0.44157 -0.03310
 O435 O 0.48173 0.55797 -0.03271
 Co436 Co 0.55654 0.49927 0.00027
 Co437 Co 0.44552 0.49963 -0.00029
 Co438 Co 0.50105 0.55491 0.00021
 Co439 Co 0.50107 0.44419 -0.00021
 O440 O 0.50104 0.49952 -0.00001
 C441 C 0.54946 0.44516 -0.03573
 C442 C 0.45089 0.55470 -0.03547
 C443 C 0.55361 0.54694 -0.03671
 C444 C 0.44693 0.45200 -0.03743
 C445 C 1.11036 0.09567 0.12817
 C446 C 1.14638 0.11063 0.12542
 C447 C 1.13398 0.14397 0.13796
 C448 C 1.09824 0.12933 0.14105
 C449 C 1.10076 0.11010 0.10059
 C450 C 1.08833 0.14344 0.11312
 C451 C 1.13650 0.12476 0.09754
 C452 C 1.12437 0.15837 0.11038
 C453 C 1.15303 0.16292 0.15837
 C454 C 1.16925 0.17861 0.17481
 C455 C 1.08291 0.09131 0.07944
 C456 C 1.06886 0.07589 0.06168
 H457 H 1.10437 0.06967 0.13521
 H458 H 1.17046 0.09737 0.13071
 H459 H 1.08276 0.13145 0.15920
 H460 H 1.06425 0.15668 0.10781
 H461 H 1.15201 0.12266 0.07941
 H462 H 1.13036 0.18436 0.10331
 C463 C 1.07790 0.62707 0.62032
 C464 C 1.09946 0.61123 0.64336
 C465 C 1.12721 0.63767 0.63840
 C466 C 1.10594 0.65381 0.61572
 C467 C 1.09536 0.60313 0.60061
 C468 C 1.12310 0.62958 0.59570
 C469 C 1.11661 0.58697 0.62327
 C470 C 1.14461 0.61371 0.61866
 C471 C 1.14561 0.65715 0.65895
 C472 C 1.16136 0.67340 0.67537
 C473 C 1.07830 0.58420 0.57905
 C474 C 1.06494 0.56896 0.56084
 H475 H 1.05027 0.63234 0.62076
 H476 H 1.08995 0.60392 0.66319
 H477 H 1.10175 0.68150 0.61284
 H478 H 1.13265 0.63693 0.57588
 H479 H 1.12080 0.55927 0.62613
 H480 H 1.17224 0.60843 0.61819
 C481 C 0.60561 0.08479 0.62489
 C482 C 0.64213 0.09867 0.62241
 C483 C 0.63032 0.13280 0.63401
 C484 C 0.59411 0.11925 0.63684
 C485 C 0.59710 0.09844 0.59687
 C486 C 0.58530 0.13256 0.60847
 C487 C 0.63331 0.11200 0.59408
 C488 C 0.62178 0.14638 0.60597
 C489 C 0.64918 0.15242 0.65420
 C490 C 0.66507 0.16893 0.67036
 C491 C 0.57888 0.07995 0.57568
 C492 C 0.56413 0.06545 0.55776
 H493 H 0.59874 0.05924 0.63241
 H494 H 0.66571 0.08496 0.62838
 H495 H 0.57821 0.12248 0.65466
 H496 H 0.56172 0.14628 0.60251
 H497 H 0.64924 0.10880 0.57627
 H498 H 0.62863 0.17192 0.59841
 C499 C 0.62991 0.58963 0.11459
 C500 C 0.65467 0.61900 0.10854
 C501 C 0.63867 0.64016 0.13079
 C502 C 0.61420 0.61111 0.13718
 C503 C 0.60408 0.60518 0.09474
 C504 C 0.58806 0.62634 0.11699
 C505 C 0.62856 0.63424 0.08839
 C506 C 0.61283 0.65568 0.11093
 C507 C 0.65803 0.66001 0.15059
 C508 C 0.67403 0.67660 0.16667
 C509 C 0.58498 0.58623 0.07425
 C510 C 0.56947 0.57127 0.05694
 H511 H 0.63671 0.56225 0.11587
 H512 H 0.68227 0.61621 0.10527
 H513 H 0.60851 0.60182 0.15747
 H514 H 0.56046 0.62913 0.12025
 H515 H 0.63427 0.64356 0.06811
 H516 H 0.60602 0.68305 0.10962
 C517 C 0.88494 -0.10882 0.09822
 C518 C 0.90119 -0.12973 0.12123
 C519 C 0.87722 -0.11219 0.14073
 C520 C 0.86073 -0.09149 0.11796
 C521 C 0.91099 -0.08051 0.10360
 C522 C 0.88702 -0.06289 0.12307
 C523 C 0.92752 -0.10119 0.12636
 C524 C 0.90324 -0.08389 0.14623
 C525 C 0.85787 -0.13087 0.16053
 C526 C 0.84154 -0.14709 0.17604
 C527 C 0.92891 -0.06419 0.08181
 C528 C 0.94257 -0.05219 0.06276
 H529 H 0.87758 -0.11893 0.07825
 H530 H 0.90681 -0.15740 0.12065
 H531 H 0.83307 -0.08771 0.11469
 H532 H 0.88144 -0.03520 0.12359
 H533 H 0.95519 -0.10497 0.12958
 H534 H 0.91053 -0.07385 0.16623
 C535 C 0.86640 0.37856 0.59110
 C536 C 0.88297 0.35493 0.61234
 C537 C 0.86232 0.37288 0.63388
 C538 C 0.84549 0.39624 0.61294
 C539 C 0.89495 0.40441 0.59609
 C540 C 0.87431 0.42238 0.61763
 C541 C 0.91181 0.38106 0.61703
 C542 C 0.89087 0.39873 0.63891
 C543 C 0.84380 0.35496 0.65454
 C544 C 0.82829 0.33977 0.67116
 C545 C 0.91262 0.42182 0.57472
 C546 C 0.92660 0.43611 0.55683
 H547 H 0.85654 0.37044 0.57121
 H548 H 0.88632 0.32700 0.61040
 H549 H 0.81802 0.40229 0.61150
 H550 H 0.87097 0.45032 0.61955
 H551 H 0.93928 0.37502 0.61845
 H552 H 0.90070 0.40683 0.65882
 C553 C 0.37098 -0.12772 0.59259
 C554 C 0.38682 -0.15107 0.61434
 C555 C 0.36701 -0.13151 0.63552
 C556 C 0.35090 -0.10838 0.61407
 C557 C 0.40049 -0.10277 0.59682
 C558 C 0.38069 -0.08317 0.61799
 C559 C 0.41663 -0.12589 0.61826
 C560 C 0.39652 -0.10656 0.63980
 C561 C 0.34795 -0.14795 0.65665
 C562 C 0.33186 -0.16188 0.67359
 C563 C 0.41876 -0.08713 0.57491
 C564 C 0.43343 -0.07458 0.55656
 H565 H 0.36066 -0.13626 0.57295
 H566 H 0.38915 -0.17917 0.61306
 H567 H 0.32366 -0.10136 0.61258
 H568 H 0.37838 -0.05506 0.61925
 H569 H 0.44387 -0.13290 0.61974
 H570 H 0.40681 -0.09804 0.65945
 C571 C 0.41738 0.40230 0.12762
 C572 C 0.38158 0.41247 0.13706
 C573 C 0.37209 0.37464 0.13807
 C574 C 0.40757 0.36420 0.12899
 C575 C 0.40412 0.40330 0.09862
 C576 C 0.39461 0.36548 0.09967
 C577 C 0.36864 0.41374 0.10770
 C578 C 0.35888 0.37568 0.10907
 C579 C 0.35385 0.35807 0.15954
 C580 C 0.33840 0.34380 0.17666
 C581 C 0.42169 0.41878 0.07633
 C582 C 0.43595 0.43114 0.05773
 H583 H 0.44165 0.41343 0.13496
 H584 H 0.37602 0.43159 0.15269
 H585 H 0.42338 0.34366 0.13800
 H586 H 0.40014 0.34634 0.08405
 H587 H 0.35284 0.43429 0.09868
 H588 H 0.33462 0.36456 0.10168
 C589 C 0.91963 0.10705 -0.13285
 C590 C 0.88340 0.09863 -0.14344
 C591 C 0.87418 0.13655 -0.14164
 C592 C 0.91007 0.14530 -0.13141
 C593 C 0.90733 0.10259 -0.10423
 C594 C 0.89808 0.14051 -0.10247
 C595 C 0.87144 0.09387 -0.11448
 C596 C 0.86196 0.13204 -0.11301
 C597 C 0.85503 0.15582 -0.16186
 C598 C 0.83868 0.17198 -0.17796
 C599 C 0.92495 0.08416 -0.08273
 C600 C 0.93855 0.06951 -0.06436
 H601 H 0.94356 0.09655 -0.14074
 H602 H 0.87713 0.08165 -0.16054
 H603 H 0.92573 0.16667 -0.13861
 H604 H 0.90432 0.15752 -0.08539
 H605 H 0.85576 0.07251 -0.10729
 H606 H 0.83804 0.14252 -0.10506
 C607 C 0.91609 0.60857 0.37240
 C608 C 0.88170 0.59947 0.35868
 C609 C 0.87066 0.63684 0.36120
 C610 C 0.90475 0.64625 0.37456
 C611 C 0.90043 0.60163 0.39963
 C612 C 0.88938 0.63899 0.40210
 C613 C 0.86634 0.59222 0.38626
 C614 C 0.85507 0.62987 0.38844
 C615 C 0.85353 0.65685 0.34031
 C616 C 0.83891 0.67368 0.32361
 C617 C 0.91650 0.58254 0.42154
 C618 C 0.92926 0.56740 0.44005
 H619 H 0.94137 0.59958 0.36607
 H620 H 0.87835 0.58346 0.34058
 H621 H 0.92036 0.66869 0.36952
 H622 H 0.89270 0.65504 0.42019
 H623 H 0.85074 0.56979 0.39131
 H624 H 0.82980 0.63884 0.39482
 C625 C 0.37136 0.12456 0.40660
 C626 C 0.38867 0.15015 0.38790
 C627 C 0.36888 0.13469 0.36417
 C628 C 0.35130 0.10937 0.38257
 C629 C 0.40008 0.09904 0.40158
 C630 C 0.38031 0.08352 0.37785
 C631 C 0.41766 0.12436 0.38318
 C632 C 0.39760 0.10918 0.35909
 C633 C 0.35127 0.15511 0.34382
 C634 C 0.33644 0.17237 0.32754
 C635 C 0.41745 0.08000 0.42286
 C636 C 0.43185 0.06523 0.44079
 H637 H 0.36075 0.13065 0.42637
 H638 H 0.39192 0.17777 0.39180
 H639 H 0.32381 0.10346 0.38207
 H640 H 0.37708 0.05589 0.37399
 H641 H 0.44515 0.13027 0.38368
 H642 H 0.40819 0.10312 0.33931
 C643 C 0.41238 0.61332 -0.12291
 C644 C 0.37773 0.60276 -0.13545
 C645 C 0.36502 0.63946 -0.13199
 C646 C 0.39935 0.65031 -0.11979
 C647 C 0.39885 0.60499 -0.09519
 C648 C 0.38612 0.64169 -0.09177
 C649 C 0.36452 0.59413 -0.10739
 C650 C 0.35152 0.63111 -0.10427
 C651 C 0.34598 0.65899 -0.15219
 C652 C 0.33011 0.67529 -0.16853
 C653 C 0.41755 0.58631 -0.07432
 C654 C 0.43282 0.57153 -0.05678
 H655 H 0.43762 0.60578 -0.13034
 H656 H 0.37407 0.58697 -0.15364
 H657 H 0.41348 0.67363 -0.12509
 H658 H 0.38976 0.65751 -0.07359
 H659 H 0.35040 0.57081 -0.10207
 H660 H 0.32630 0.63864 -0.09681
 C661 C 1.12075 -0.10862 -0.09735
 C662 C 1.10454 -0.13219 -0.11874
 C663 C 1.12603 -0.11489 -0.13996
 C664 C 1.14249 -0.09155 -0.11882
 C665 C 1.09260 -0.08232 -0.10289
 C666 C 1.11408 -0.06494 -0.12408
 C667 C 1.07612 -0.10566 -0.12403
 C668 C 1.09789 -0.08860 -0.14561
 C669 C 1.14508 -0.13402 -0.15981
 C670 C 1.16108 -0.15059 -0.17542
 C671 C 1.07468 -0.06543 -0.08126
 C672 C 1.06074 -0.05291 -0.06247
 H673 H 1.12998 -0.11670 -0.07728
 H674 H 1.10082 -0.16004 -0.11673
 H675 H 1.16998 -0.08595 -0.11687
 H676 H 1.11776 -0.03708 -0.12604
 H677 H 1.04862 -0.11125 -0.12594
 H678 H 1.08872 -0.08059 -0.16570
 C679 C 1.12980 0.37867 0.41125
 C680 C 1.11385 0.35558 0.38936
 C681 C 1.13524 0.37376 0.36852
 C682 C 1.15144 0.39659 0.39012
 C683 C 1.10146 0.40485 0.40607
 C684 C 1.12283 0.42304 0.38524
 C685 C 1.08521 0.38203 0.38448
 C686 C 1.10690 0.39993 0.36330
 C687 C 1.15446 0.35612 0.34804
 C688 C 1.17060 0.34116 0.33161
 C689 C 1.08325 0.42206 0.42733
 C690 C 1.06892 0.43628 0.44514
 H691 H 1.13899 0.37011 0.43120
 H692 H 1.11039 0.32764 0.39081
 H693 H 1.17889 0.40238 0.39219
 H694 H 1.12629 0.45099 0.38380
 H695 H 1.05776 0.37625 0.38244
 H696 H 1.09774 0.40846 0.34333
 C697 C 0.59140 -0.09586 0.37122
 C698 C 0.62999 -0.09175 0.36705
 C699 C 0.63286 -0.13033 0.36270
 C700 C 0.59460 -0.13472 0.36653
 C701 C 0.59850 -0.10162 0.40110
 C702 C 0.60140 -0.14020 0.39673
 C703 C 0.63676 -0.09724 0.39726
 C704 C 0.63992 -0.13605 0.39259
 C705 C 0.65233 -0.14687 0.34175
 C706 C 0.66862 -0.16103 0.32496
 C707 C 0.57975 -0.08606 0.42289
 C708 C 0.56474 -0.07362 0.44118
 H709 H 0.57122 -0.07915 0.36270
 H710 H 0.64196 -0.07201 0.35460
 H711 H 0.57748 -0.15030 0.35365
 H712 H 0.58944 -0.15995 0.40917
 H713 H 0.65389 -0.08166 0.41014
 H714 H 0.66008 -0.15275 0.40115
 C715 C 0.59133 0.40572 -0.12768
 C716 C 0.62990 0.40864 -0.13244
 C717 C 0.63161 0.36991 -0.13632
 C718 C 0.59334 0.36670 -0.13192
 C719 C 0.59893 0.40040 -0.09782
 C720 C 0.60066 0.36168 -0.10173
 C721 C 0.63719 0.40360 -0.10223
 C722 C 0.63917 0.36463 -0.10645
 C723 C 0.65008 0.35236 -0.15733
 C724 C 0.66555 0.33736 -0.17417
 C725 C 0.58099 0.41689 -0.07602
 C726 C 0.56647 0.43001 -0.05777
 H727 H 0.57144 0.42282 -0.13615
 H728 H 0.64213 0.42776 -0.14530
 H729 H 0.57551 0.35134 -0.14436
 H730 H 0.58844 0.34254 -0.08887
 H731 H 0.65502 0.41896 -0.08978
 H732 H 0.65904 0.34755 -0.09794
 C733 C 1.14966 0.09056 -0.09865
 C734 C 1.13597 0.09313 -0.12778
 C735 C 1.14597 0.13087 -0.12812
 C736 C 1.15995 0.12859 -0.09936
 C737 C 1.11459 0.10115 -0.08874
 C738 C 1.12461 0.13888 -0.08911
 C739 C 1.10064 0.10344 -0.11751
 C740 C 1.11091 0.14139 -0.11818
 C741 C 1.16299 0.14812 -0.14997
 C742 C 1.17675 0.16297 -0.16773
 C743 C 1.09612 0.08525 -0.06702
 C744 C 1.07971 0.07283 -0.04956
 H745 H 1.16540 0.06950 -0.09036
 H746 H 1.14080 0.07451 -0.14393
 H747 H 1.18455 0.13913 -0.09213
 H748 H 1.11978 0.15752 -0.07298
 H749 H 1.07604 0.09292 -0.12475
 H750 H 1.09512 0.16245 -0.12643
 C751 C 1.12430 0.58301 0.38779
 C752 C 1.10766 0.59705 0.36178
 C753 C 1.12843 0.62982 0.36525
 C754 C 1.14534 0.61604 0.39091
 C755 C 1.09591 0.59965 0.40380
 C756 C 1.11668 0.63241 0.40723
 C757 C 1.07896 0.61341 0.37815
 C758 C 1.10003 0.64643 0.38127
 C759 C 1.14682 0.64715 0.34417
 C760 C 1.16226 0.66190 0.32727
 C761 C 1.07795 0.58337 0.42561
 C762 C 1.06328 0.57049 0.44381
 H763 H 1.13408 0.55675 0.39072
 H764 H 1.10416 0.58271 0.34285
 H765 H 1.17284 0.61731 0.39593
 H766 H 1.12021 0.64678 0.42615
 H767 H 1.05146 0.61214 0.37315
 H768 H 1.09023 0.67268 0.37836
 C769 C 0.63692 0.09296 0.39956
 C770 C 0.63186 0.08709 0.36921
 C771 C 0.63054 0.12580 0.36514
 C772 C 0.63586 0.13192 0.39518
 C773 C 0.59826 0.09315 0.40257
 C774 C 0.59695 0.13186 0.39849
 C775 C 0.59290 0.08699 0.37253
 C776 C 0.59187 0.12601 0.36812
 C777 C 0.64900 0.14423 0.34469
 C778 C 0.66461 0.15965 0.32826
 C779 C 0.58088 0.07516 0.42383
 C780 C 0.56721 0.06052 0.44171
 H781 H 0.65527 0.07918 0.41272
 H782 H 0.64642 0.06888 0.35694
 H783 H 0.65373 0.15058 0.40428
 H784 H 0.58239 0.15007 0.41076
 H785 H 0.57502 0.06831 0.36347
 H786 H 0.57355 0.13981 0.35495
 C787 C 0.61827 0.57702 -0.12099
 C788 C 0.60042 0.59894 -0.14280
 C789 C 0.62762 0.62638 -0.13851
 C790 C 0.64571 0.60475 -0.11707
 C791 C 0.59686 0.59479 -0.09983
 C792 C 0.62407 0.62223 -0.09561
 C793 C 0.57871 0.61640 -0.12126
 C794 C 0.60621 0.64412 -0.11735
 C795 C 0.64551 0.64456 -0.15932
 C796 C 0.66095 0.66020 -0.17568
 C797 C 0.58054 0.57754 -0.07777
 C798 C 0.56787 0.56354 -0.05918
 H799 H 0.62301 0.54921 -0.12220
 H800 H 0.59094 0.58960 -0.16247
 H801 H 0.67346 0.60015 -0.11559
 H802 H 0.63360 0.63161 -0.07597
 H803 H 0.55096 0.62098 -0.12269
 H804 H 0.60146 0.67192 -0.11610
 C805 C 0.86944 -0.10857 -0.09681
 C806 C 0.88589 -0.12355 -0.12199
 C807 C 0.86451 -0.15581 -0.11887
 C808 C 0.84777 -0.14109 -0.09398
 C809 C 0.89748 -0.12527 -0.07956
 C810 C 0.87611 -0.15753 -0.07637
 C811 C 0.91419 -0.14000 -0.10446
 C812 C 0.89254 -0.17255 -0.10165
 C813 C 0.84624 -0.17229 -0.14106
 C814 C 0.83117 -0.18566 -0.15939
 C815 C 0.91623 -0.10700 -0.05852
 C816 C 0.93213 -0.09045 -0.04239
 H817 H 0.86011 -0.08208 -0.09456
 H818 H 0.88973 -0.10974 -0.14096
 H819 H 0.82023 -0.14168 -0.08994
 H820 H 0.87231 -0.17129 -0.05738
 H821 H 0.94172 -0.13940 -0.10852
 H822 H 0.90185 -0.19905 -0.10393
 C823 C 0.86469 0.39870 0.39455
 C824 C 0.87355 0.39900 0.36462
 C825 C 0.87108 0.36000 0.36416
 C826 C 0.86195 0.35943 0.39377
 C827 C 0.90259 0.39530 0.40172
 C828 C 0.90009 0.35630 0.40123
 C829 C 0.91176 0.39590 0.37211
 C830 C 0.90898 0.35658 0.37131
 C831 C 0.85300 0.34014 0.34361
 C832 C 0.83754 0.32377 0.32707
 C833 C 0.91984 0.41447 0.42308
 C834 C 0.93381 0.42959 0.44110
 H835 H 0.84666 0.41623 0.40432
 H836 H 0.86245 0.41635 0.34933
 H837 H 0.84130 0.34421 0.40248
 H838 H 0.91119 0.33893 0.41652
 H839 H 0.93242 0.41114 0.36344
 H840 H 0.92700 0.33904 0.36153
 C841 C 0.39628 -0.14301 0.39679
 C842 C 0.35748 -0.14147 0.39171
 C843 C 0.36361 -0.13723 0.36176
 C844 C 0.40216 -0.13904 0.36652
 C845 C 0.39671 -0.10410 0.39970
 C846 C 0.40289 -0.09981 0.36977
 C847 C 0.35816 -0.10231 0.39492
 C848 C 0.36402 -0.09832 0.36465
 C849 C 0.34480 -0.15625 0.34114
 C850 C 0.32907 -0.17254 0.32470
 C851 C 0.41460 -0.08600 0.42131
 C852 C 0.42868 -0.07137 0.43952
 H853 H 0.40973 -0.16119 0.41022
 H854 H 0.33860 -0.15878 0.40052
 H855 H 0.42005 -0.15436 0.35461
 H856 H 0.42179 -0.08249 0.36100
 H857 H 0.34025 -0.08701 0.40683
 H858 H 0.35055 -0.08015 0.35121
 C859 C 0.38397 0.41776 -0.12468
 C860 C 0.40081 0.39059 -0.14258
 C861 C 0.37038 0.36708 -0.13832
 C862 C 0.35328 0.39393 -0.12078
 C863 C 0.40150 0.40161 -0.10016
 C864 C 0.37107 0.37809 -0.09596
 C865 C 0.41863 0.37477 -0.11768
 C866 C 0.38793 0.35098 -0.11378
 C867 C 0.35250 0.34739 -0.15900
 C868 C 0.33724 0.33076 -0.17545
 C869 C 0.41828 0.42029 -0.07837
 C870 C 0.43160 0.43508 -0.05992
 H871 H 0.38255 0.44544 -0.12891
 H872 H 0.41283 0.39548 -0.16199
 H873 H 0.32622 0.40159 -0.12229
 H874 H 0.35901 0.37315 -0.07657
 H875 H 0.44570 0.36712 -0.11615
 H876 H 0.38936 0.32331 -0.10953
 C877 C 1.08781 -0.12819 0.11005
 C878 C 1.10115 -0.16525 0.10872
 C879 C 1.13473 -0.15344 0.12171
 C880 C 1.12163 -0.11668 0.12334
 C881 C 1.10282 -0.12142 0.08255
 C882 C 1.13640 -0.10966 0.09557
 C883 C 1.11589 -0.15818 0.08086
 C884 C 1.14977 -0.14669 0.09422
 C885 C 1.15267 -0.17056 0.14379
 C886 C 1.16768 -0.18424 0.16202
 C887 C 1.08505 -0.10214 0.06152
 C888 C 1.07039 -0.08456 0.04532
 H889 H 1.06211 -0.12041 0.11633
 H890 H 1.08683 -0.18829 0.11441
 H891 H 1.12415 -0.09977 0.14101
 H892 H 1.15075 -0.08662 0.08992
 H893 H 1.11334 -0.17504 0.06316
 H894 H 1.17548 -0.15446 0.08797
 C895 C 1.07774 0.37858 0.62282
 C896 C 1.10154 0.34794 0.61766
 C897 C 1.12778 0.36340 0.63719
 C898 C 1.10429 0.39374 0.64270
 C899 C 1.09458 0.39792 0.60008
 C900 C 1.12081 0.41340 0.61960
 C901 C 1.11808 0.36757 0.59463
 C902 C 1.14458 0.38276 0.61444
 C903 C 1.14684 0.34383 0.65737
 C904 C 1.16312 0.32752 0.67347
 C905 C 1.07651 0.41659 0.57885
 C906 C 1.06202 0.43127 0.56086
 H907 H 1.05004 0.37708 0.62603
 H908 H 1.09380 0.32082 0.61708
 H909 H 1.09882 0.40428 0.66270
 H910 H 1.12854 0.44052 0.62016
 H911 H 1.12358 0.35700 0.57465
 H912 H 1.17227 0.38427 0.61119
 C913 C 0.59839 -0.09241 0.62838
 C914 C 0.59534 -0.13074 0.63511
 C915 C 0.63415 -0.13294 0.63762
 C916 C 0.63751 -0.09492 0.63126
 C917 C 0.60100 -0.10174 0.59875
 C918 C 0.63981 -0.10396 0.60129
 C919 C 0.59766 -0.13976 0.60512
 C920 C 0.63673 -0.14223 0.60798
 C921 C 0.65289 -0.15083 0.65886
 C922 C 0.66843 -0.16619 0.67592
 C923 C 0.58307 -0.08454 0.57675
 C924 C 0.56894 -0.07044 0.55834
 H925 H 0.58239 -0.07173 0.63651
 H926 H 0.57728 -0.14194 0.64927
 H927 H 0.65410 -0.07669 0.64224
 H928 H 0.65790 -0.09278 0.58713
 H929 H 0.58108 -0.15800 0.59414
 H930 H 0.65271 -0.16290 0.59982
 C931 C 0.58951 0.40029 0.12891
 C932 C 0.59403 0.36109 0.12928
 C933 C 0.63136 0.36587 0.13771
 C934 C 0.62715 0.40473 0.13770
 C935 C 0.60028 0.40060 0.09967
 C936 C 0.63760 0.40535 0.10812
 C937 C 0.60450 0.36174 0.09971
 C938 C 0.64205 0.36623 0.10846
 C939 C 0.64935 0.34615 0.15832
 C940 C 0.66485 0.32961 0.17470
 C941 C 0.58356 0.41944 0.07794
 C942 C 0.57034 0.43439 0.05954
 H943 H 0.56770 0.41453 0.13706
 H944 H 0.57632 0.34266 0.13823
 H945 H 0.63667 0.42217 0.15357
 H946 H 0.65533 0.42376 0.09918
 H947 H 0.59500 0.34427 0.08385
 H948 H 0.66384 0.35201 0.10026
 C949 C 0.90263 0.12140 0.10830
 C950 C 0.87046 0.14376 0.10525
 C951 C 0.85461 0.12425 0.12835
 C952 C 0.88654 0.10210 0.13170
 C953 C 0.88676 0.09554 0.08873
 C954 C 0.87094 0.07597 0.11182
 C955 C 0.85484 0.11769 0.08538
 C956 C 0.83867 0.09839 0.10882
 C957 C 0.83717 0.14110 0.15029
 C958 C 0.82304 0.15571 0.16807
 C959 C 0.90580 0.08045 0.06687
 C960 C 0.92283 0.06896 0.04932
 H961 H 0.92913 0.13073 0.10785
 H962 H 0.87013 0.17181 0.10278
 H963 H 0.89941 0.09588 0.15097
 H964 H 0.87132 0.04791 0.11425
 H965 H 0.84198 0.12391 0.06610
 H966 H 0.81216 0.08910 0.10931
 C967 C 0.91292 0.62502 0.61710
 C968 C 0.88152 0.64833 0.61315
 C969 C 0.86414 0.62956 0.63592
 C970 C 0.89526 0.60650 0.64022
 C971 C 0.89700 0.59945 0.59736
 C972 C 0.87964 0.58064 0.62012
 C973 C 0.86587 0.62251 0.59310
 C974 C 0.84822 0.60398 0.61618
 C975 C 0.84560 0.64686 0.65701
 C976 C 0.83006 0.66159 0.67394
 C977 C 0.91516 0.58320 0.57558
 C978 C 0.93002 0.57034 0.55740
 H979 H 0.93973 0.63349 0.61722
 H980 H 0.88209 0.67634 0.61051
 H981 H 0.90713 0.60013 0.65984
 H982 H 0.87908 0.55261 0.62272
 H983 H 0.85398 0.62891 0.57350
 H984 H 0.82141 0.59552 0.61605
 C985 C 0.41416 0.11771 0.61540
 C986 C 0.38272 0.14093 0.61116
 C987 C 0.36576 0.12337 0.63470
 C988 C 0.39691 0.10042 0.63930
 C989 C 0.39778 0.09125 0.59664
 C990 C 0.38083 0.07365 0.62018
 C991 C 0.36663 0.11421 0.59209
 C992 C 0.34941 0.09690 0.61593
 C993 C 0.34750 0.14163 0.65548
 C994 C 0.33215 0.15706 0.67216
 C995 C 0.41509 0.07361 0.57505
 C996 C 0.42874 0.05928 0.55693
 H997 H 0.44098 0.12607 0.61494
 H998 H 0.38331 0.16879 0.60766
 H999 H 0.40915 0.09495 0.65895
 H1000 H 0.38026 0.04578 0.62365
 H1001 H 0.35436 0.11970 0.57245
 H1002 H 0.32259 0.08852 0.61638
 C1003 C 0.41866 0.62089 0.11878
 C1004 C 0.38642 0.64313 0.11509
 C1005 C 0.37043 0.62454 0.13859
 C1006 C 0.40237 0.60256 0.14265
 C1007 C 0.40284 0.59428 0.09987
 C1008 C 0.38686 0.57565 0.12336
 C1009 C 0.37090 0.61626 0.09588
 C1010 C 0.35466 0.59791 0.11967
 C1011 C 0.35161 0.64176 0.15954
 C1012 C 0.33540 0.65638 0.17612
 C1013 C 0.42005 0.57755 0.07784
 C1014 C 0.43335 0.56375 0.05933
 H1015 H 0.44518 0.63014 0.11814
 H1016 H 0.38603 0.67106 0.11193
 H1017 H 0.41508 0.59713 0.16213
 H1018 H 0.38726 0.54771 0.12649
 H1019 H 0.35815 0.62172 0.07642
 H1020 H 0.32815 0.58863 0.12027
   
