data_POSCAR
  _audit_creation_date              2014-09-24
  _audit_creation_method            'ToBaCCo'
  _symmetry_space_group_name_H-M    'P1'
  _symmetry_Int_Tables_number       1
  _symmetry_cell_setting            triclinic
  loop_
  _symmetry_equiv_pos_as_xyz
 x,y,z
_cell_length_a 25.1594
_cell_length_b 25.1991
_cell_length_c 25.1981
_cell_angle_alpha 90.009200
_cell_angle_beta 90.191400
_cell_angle_gamma 90.072300
loop_
  _atom_site_label
  _atom_site_type_symbol
  _atom_site_fract_x
  _atom_site_fract_y
  _atom_site_fract_z
C1 C 0.52232 0.97916 -0.66335
 C2 C 0.46792 0.97972 -0.66265
 C3 C 0.45282 0.99444 -0.61171
 N4 N 0.49666 1.00431 -0.58200
 C5 C 0.53911 0.99483 -0.61337
 C6 C 0.39980 1.00421 -0.59488
 C7 C 0.38704 1.01581 -0.54109
 C8 C 0.33808 1.03379 -0.52296
 C9 C 0.34044 1.03433 -0.46857
 C10 C 0.39012 1.01537 -0.45438
 N11 N 0.41829 1.00433 -0.49868
 C12 C 0.40635 1.00464 -0.40160
 C13 C 0.45977 0.99472 -0.38707
 C14 C 0.47629 0.97856 -0.33716
 C15 C 0.53069 0.97821 -0.33790
 C16 C 0.54602 0.99298 -0.38876
 N17 N 0.50237 1.00368 -0.41841
 C18 C 0.59916 1.00213 -0.40553
 C19 C 0.61209 1.01395 -0.45922
 C20 C 0.66125 1.03165 -0.47717
 C21 C 0.65893 1.03258 -0.53157
 C22 C 0.60905 1.01414 -0.54592
 N23 N 0.58073 1.00304 -0.50172
 C24 C 0.59272 1.00387 -0.59877
 H25 H 0.54662 0.96938 -0.69732
 H26 H 0.44290 0.97153 -0.69662
 H27 H 0.54501 0.98235 -0.50092
 H28 H 0.30311 1.04391 -0.54573
 H29 H 0.30838 1.04583 -0.44248
 H30 H 0.45182 0.96904 -0.30323
 H31 H 0.55561 0.96943 -0.30402
 H32 H 0.69112 1.04402 -0.55755
 H33 H 0.45377 0.98334 -0.49964
 H34 H 0.69628 1.04137 -0.45427
 C35 C -0.47636 1.34236 -0.04447
 C36 C -0.53080 1.34271 -0.04282
 C37 C -0.54539 1.38919 -0.01718
 N38 N -0.50172 1.41767 -0.00405
 C39 C -0.45954 1.38889 -0.02043
 C40 C -0.59798 1.40370 -0.00347
 C41 C -0.61058 1.45725 0.00854
 C42 C -0.65495 1.47403 0.03654
 C43 C -0.65378 1.52854 0.03682
 C44 C -0.60829 1.54361 0.00987
 N45 N -0.58192 1.50004 -0.00694
 C46 C -0.59384 1.59660 -0.00121
 C47 C -0.54104 1.61160 -0.01287
 C48 C -0.52528 1.66179 -0.02867
 C49 C -0.47082 1.66182 -0.02852
 C50 C -0.45477 1.61105 -0.01405
 N51 N -0.49803 1.58072 -0.00407
 C52 C -0.40166 1.59492 -0.00341
 C53 C -0.38834 1.54097 0.00682
 C54 C -0.33952 1.52274 0.02548
 C55 C -0.34121 1.46829 0.02421
 C56 C -0.39032 1.45437 0.00355
 N57 N -0.41881 1.49869 -0.00675
 C58 C -0.40609 1.40217 -0.00977
 H59 H -0.45190 1.31137 -0.06132
 H60 H -0.55669 1.31216 -0.05858
 H61 H -0.45413 1.49983 -0.02830
 H62 H -0.68506 1.44965 0.05507
 H63 H -0.68295 1.55418 0.05510
 H64 H -0.55027 1.69555 -0.03769
 H65 H -0.44649 1.69623 -0.03651
 H66 H -0.30913 1.44211 0.03571
 H67 H -0.54931 1.49974 -0.03233
 H68 H -0.30510 1.54560 0.03722
 C69 C -0.04138 0.34368 0.52528
 C70 C -0.04037 0.34384 0.47089
 C71 C -0.01161 0.38833 0.45592
 N72 N 0.00437 0.41577 0.49933
 C73 C -0.01305 0.38798 0.54180
 C74 C 0.00078 0.40283 0.40306
 C75 C 0.01399 0.45614 0.39077
 C76 C 0.04136 0.47302 0.34604
 C77 C 0.04065 0.52761 0.34663
 C78 C 0.01362 0.54246 0.39205
 N79 N -0.00178 0.49879 0.41916
 C80 C -0.00008 0.59493 0.40578
 C81 C -0.01271 0.60862 0.45846
 C82 C -0.03716 0.65521 0.47419
 C83 C -0.03671 0.65512 0.52865
 C84 C -0.01133 0.60876 0.54421
 N85 N 0.00262 0.58005 0.50120
 C86 C 0.00202 0.59453 0.59696
 C87 C 0.01371 0.54090 0.60956
 C88 C 0.04322 0.52400 0.65300
 C89 C 0.04237 0.46947 0.65235
 C90 C 0.01253 0.45446 0.60844
 N91 N -0.00382 0.49818 0.58188
 C92 C -0.00159 0.40160 0.59516
 H93 H -0.06127 0.31459 0.54980
 H94 H -0.05941 0.31497 0.44531
 H95 H -0.03012 0.49869 0.54978
 H96 H 0.05936 0.44858 0.31573
 H97 H 0.05773 0.55338 0.31684
 H98 H -0.05333 0.68609 0.44906
 H99 H -0.05290 0.68583 0.55386
 H100 H 0.06158 0.44375 0.68095
 H101 H -0.02707 0.49816 0.45186
 H102 H 0.06348 0.54837 0.68210
 O103 O -0.13543 0.99635 -0.07551
 O104 O 0.13785 1.00020 -0.06811
 O105 O -0.00008 1.06965 -0.13752
 O106 O 0.00605 0.92592 -0.13583
 O107 O 0.00437 0.86151 -0.07079
 O108 O -0.00379 1.13450 -0.07311
 O109 O 0.07476 0.99682 -0.13472
 O110 O -0.06917 0.99895 -0.13872
 Zr111 Zr 0.00173 0.99809 -0.09361
 O112 O 0.04955 0.95106 -0.04664
 O113 O -0.04845 1.04553 -0.05007
 C114 C -0.11854 0.99788 -0.12407
 C115 C 0.12347 0.99821 -0.11758
 C116 C -0.00305 1.11878 -0.12213
 C117 C 0.00679 0.87690 -0.11995
 H118 H 0.07051 1.07028 -0.06947
 O119 O 0.04775 1.04726 -0.04731
 H120 H -0.06828 0.92616 -0.07193
 O121 O -0.04648 0.94950 -0.04899
 O122 O 0.13448 1.00188 0.07498
 O123 O -0.13874 0.99611 0.06791
 O124 O 0.06900 1.13675 0.00178
 O125 O 0.07361 0.86352 0.00038
 O126 O -0.07007 0.86088 0.00258
 O127 O -0.07489 1.13382 -0.00593
 O128 O -0.00244 1.07220 0.13562
 O129 O -0.00296 0.92852 0.13705
 O130 O -0.00312 1.13603 0.07004
 O131 O -0.00162 0.86291 0.07313
 O132 O 0.13446 1.07290 0.00588
 O133 O -0.13832 1.06763 -0.00599
 O134 O -0.13599 0.92442 -0.00164
 O135 O 0.13722 0.92955 0.00251
 O136 O 0.06829 1.00364 0.13825
 O137 O -0.07553 0.99653 0.13452
 Zr138 Zr 0.09271 1.00045 0.00230
 Zr139 Zr -0.09384 0.99690 -0.00264
 Zr140 Zr -0.00219 1.09209 -0.00113
 Zr141 Zr 0.00097 0.90534 0.00072
 Zr142 Zr -0.00261 0.99980 0.09323
 O143 O -0.04899 0.95018 0.04730
 O144 O 0.04576 1.04836 0.04878
 C145 C 0.11765 1.00337 0.12354
 C146 C -0.12426 0.99578 0.11740
 C147 C 0.11830 1.12178 0.00515
 C148 C 0.12245 0.88019 0.00125
 C149 C -0.11934 0.87582 0.00131
 C150 C -0.12369 1.11700 -0.00725
 C151 C -0.00247 1.12112 0.11934
 C152 C -0.00279 0.87923 0.12204
 H153 H -0.07388 1.06879 0.06782
 O154 O -0.05038 1.04625 0.04601
 H155 H 0.06956 0.93003 0.07263
 O156 O 0.04697 0.95218 0.04937
 C157 C 0.27862 0.99815 0.28761
 C158 C 0.28733 1.04533 0.31680
 C159 C 0.32804 1.04752 0.35502
 C160 C 0.35854 1.00230 0.36691
 C161 C 0.34764 0.95481 0.33982
 C162 C 0.30859 0.95275 0.30047
 C163 C 0.23717 0.99837 0.24484
 C164 C 0.23071 0.95605 0.20880
 C165 C 0.19192 0.95830 0.16923
 C166 C 0.15817 1.00216 0.16534
 C167 C 0.16419 1.04475 0.20052
 C168 C 0.20449 1.04379 0.23928
 C169 C 0.25485 1.08968 0.30820
 C170 C 0.21340 1.08843 0.27126
 H171 H 0.26097 1.12562 0.33107
 H172 H 0.18881 1.12345 0.26670
 H173 H 0.33626 1.08458 0.37539
 H174 H 0.36964 0.91904 0.34918
 H175 H 0.18782 0.92540 0.14180
 H176 H 0.13862 1.07917 0.19654
 H177 H 0.30197 0.91509 0.28119
 H178 H 0.25584 0.92142 0.20981
 C179 C -0.28914 1.00371 0.27729
 C180 C -0.28346 0.96997 0.32183
 C181 C -0.32257 0.96943 0.36147
 C182 C -0.36617 1.00402 0.35874
 C183 C -0.37021 1.03939 0.31601
 C184 C -0.33254 1.03899 0.27549
 C185 C -0.24782 1.00141 0.23469
 C186 C -0.25321 1.02837 0.18600
 C187 C -0.21337 1.02549 0.14777
 C188 C -0.16688 0.99644 0.15737
 C189 C -0.16143 0.96857 0.20523
 C190 C -0.20212 0.96977 0.24331
 C191 C -0.23829 0.93790 0.32707
 C192 C -0.19789 0.93877 0.28927
 H193 H -0.23359 0.91251 0.36148
 H194 H -0.16325 0.91402 0.29565
 H195 H -0.31886 0.94265 0.39496
 H196 H -0.40293 1.06722 0.31391
 H197 H -0.21847 1.04694 0.11089
 H198 H -0.12604 0.94503 0.21227
 H199 H -0.33763 1.06716 0.24366
 H200 H -0.28809 1.05134 0.17642
 C201 C -0.27976 0.99433 -0.28807
 C202 C -0.28833 1.04191 -0.31663
 C203 C -0.32894 1.04460 -0.35491
 C204 C -0.35966 0.99962 -0.36732
 C205 C -0.34915 0.95183 -0.34067
 C206 C -0.31007 0.94919 -0.30138
 C207 C -0.23818 0.99394 -0.24540
 C208 C -0.23137 0.95094 -0.21026
 C209 C -0.19247 0.95270 -0.17074
 C210 C -0.15897 0.99674 -0.16599
 C211 C -0.16530 1.03994 -0.20031
 C212 C -0.20561 1.03944 -0.23906
 C213 C -0.25588 1.08621 -0.30732
 C214 C -0.21458 1.08456 -0.27026
 H215 H -0.26197 1.12247 -0.32964
 H216 H -0.19008 1.11961 -0.26507
 H217 H -0.33693 1.08189 -0.37491
 H218 H -0.37146 0.91628 -0.35035
 H219 H -0.18812 0.91935 -0.14403
 H220 H -0.13994 1.07450 -0.19567
 H221 H -0.30375 0.91132 -0.28247
 H222 H -0.25626 0.91610 -0.21194
 C223 C 0.28833 1.00561 -0.27759
 C224 C 0.28250 0.97155 -0.32192
 C225 C 0.32153 0.97074 -0.36162
 C226 C 0.36531 1.00518 -0.35908
 C227 C 0.36967 1.04069 -0.31648
 C228 C 0.33200 1.04070 -0.27597
 C229 C 0.24697 1.00372 -0.23499
 C230 C 0.25216 1.03144 -0.18667
 C231 C 0.21231 1.02879 -0.14838
 C232 C 0.16605 0.99913 -0.15758
 C233 C 0.16076 0.97066 -0.20512
 C234 C 0.20135 0.97175 -0.24325
 C235 C 0.23732 0.93935 -0.32685
 C236 C 0.19706 0.94032 -0.28893
 H237 H 0.23254 0.91369 -0.36106
 H238 H 0.16245 0.91537 -0.29501
 H239 H 0.31764 0.94380 -0.39498
 H240 H 0.40264 1.06832 -0.31451
 H241 H 0.21725 1.05084 -0.11177
 H242 H 0.12553 0.94673 -0.21187
 H243 H 0.33735 1.06896 -0.24425
 H244 H 0.28687 1.05488 -0.17741
 C245 C 0.28368 1.28285 0.00707
 C246 C 0.27126 1.33259 -0.01581
 C247 C 0.31036 1.37230 -0.01932
 C248 C 0.36218 1.36377 0.00029
 C249 C 0.37359 1.31459 0.02419
 C250 C 0.33520 1.27482 0.02747
 C251 C 0.24140 1.24089 0.00849
 C252 C 0.25074 1.18927 0.02783
 C253 C 0.21055 1.15116 0.02710
 C254 C 0.15979 1.16338 0.00748
 C255 C 0.14977 1.21487 -0.01131
 C256 C 0.19027 1.25337 -0.01155
 C257 C 0.21992 1.34239 -0.03516
 C258 C 0.18019 1.30381 -0.03266
 H259 H 0.21024 1.38057 -0.05244
 H260 H 0.14113 1.31340 -0.04816
 H261 H 0.30074 1.40951 -0.03870
 H262 H 0.41227 1.30711 0.04164
 H263 H 0.21936 1.11182 0.04205
 H264 H 0.11085 1.22462 -0.02712
 H265 H 0.34674 1.23833 0.04656
 H266 H 0.28890 1.17714 0.04308
 C267 C 0.28679 0.71919 0.00595
 C268 C 0.27883 0.67375 -0.02617
 C269 C 0.31802 0.63423 -0.02853
 C270 C 0.36448 0.63836 0.00211
 C271 C 0.37087 0.68185 0.03622
 C272 C 0.33281 0.72204 0.03789
 C273 C 0.24535 0.76181 0.00518
 C274 C 0.25227 0.81106 0.03083
 C275 C 0.21253 0.84957 0.02885
 C276 C 0.16468 0.83972 0.00197
 C277 C 0.15755 0.79113 -0.02424
 C278 C 0.19790 0.75270 -0.02382
 C279 C 0.23162 0.66775 -0.05517
 C280 C 0.19155 0.70588 -0.05315
 H281 H 0.22523 0.63268 -0.07928
 H282 H 0.15545 0.69908 -0.07577
 H283 H 0.31249 0.60007 -0.05416
 H284 H 0.40578 0.68490 0.06132
 H285 H 0.21896 0.88697 0.04910
 H286 H 0.12104 0.78379 -0.04609
 H287 H 0.33990 0.75460 0.06478
 H288 H 0.28829 0.82090 0.05198
 C289 C -0.28056 0.71220 0.00405
 C290 C -0.30993 0.70437 -0.04331
 C291 C -0.34888 0.66454 -0.04593
 C292 C -0.36129 0.63390 -0.00106
 C293 C -0.33388 0.64369 0.04659
 C294 C -0.29370 0.68185 0.04907
 C295 C -0.23786 0.75366 0.00457
 C296 C -0.20203 0.76012 0.04728
 C297 C -0.16309 0.79964 0.04586
 C298 C -0.15977 0.83400 0.00243
 C299 C -0.19447 0.82760 -0.04057
 C300 C -0.23252 0.78686 -0.04045
 C301 C -0.30117 0.73714 -0.08733
 C302 C -0.26421 0.77837 -0.08546
 H303 H -0.32408 0.73158 -0.12341
 H304 H -0.25964 0.80336 -0.12017
 H305 H -0.36997 0.65752 -0.08291
 H306 H -0.34400 0.62200 0.08230
 H307 H -0.13592 0.80391 0.07904
 H308 H -0.19076 0.85347 -0.07469
 H309 H -0.27425 0.68779 0.08683
 H310 H -0.20291 0.73461 0.08165
 C311 C -0.28935 1.27672 -0.00815
 C312 C -0.28035 1.32323 -0.03832
 C313 C -0.31906 1.36334 -0.03998
 C314 C -0.36568 1.35898 -0.00982
 C315 C -0.37349 1.31376 0.02158
 C316 C -0.33614 1.27296 0.02219
 C317 C -0.24784 1.23419 -0.00851
 C318 C -0.25555 1.18433 0.01552
 C319 C -0.21539 1.14630 0.01499
 C320 C -0.16630 1.15714 -0.00880
 C321 C -0.15849 1.20623 -0.03387
 C322 C -0.19928 1.24429 -0.03491
 C323 C -0.23230 1.32994 -0.06548
 C324 C -0.19217 1.29182 -0.06286
 H325 H -0.22513 1.36575 -0.08819
 H326 H -0.15529 1.29934 -0.08369
 H327 H -0.31262 1.39850 -0.06393
 H328 H -0.40872 1.31014 0.04594
 H329 H -0.22252 1.10848 0.03409
 H330 H -0.12105 1.21437 -0.05346
 H331 H -0.34420 1.23940 0.04748
 H332 H -0.29244 1.17364 0.03442
 C333 C -0.00300 1.28698 0.27959
 C334 C 0.01766 1.27393 0.33020
 C335 C 0.01913 1.31230 0.37063
 C336 C -0.00049 1.36399 0.36207
 C337 C -0.02181 1.37615 0.31182
 C338 C -0.02300 1.33848 0.27128
 C339 C -0.00312 1.24513 0.23725
 C340 C -0.02057 1.25488 0.18496
 C341 C -0.02007 1.21463 0.14699
 C342 C -0.00251 1.16345 0.16004
 C343 C 0.01534 1.15333 0.21190
 C344 C 0.01567 1.19379 0.25029
 C345 C 0.03655 1.22261 0.34028
 C346 C 0.03515 1.18330 0.30135
 H347 H 0.05228 1.21253 0.37908
 H348 H 0.04990 1.14413 0.31129
 H349 H 0.03683 1.30213 0.40858
 H350 H -0.03911 1.41473 0.30406
 H351 H -0.03403 1.22359 0.10728
 H352 H 0.02979 1.11412 0.22222
 H353 H -0.04038 1.35045 0.23402
 H354 H -0.03451 1.29331 0.17236
 C355 C -0.00719 1.28444 -0.28263
 C356 C 0.01273 1.27143 -0.33340
 C357 C 0.01486 1.31019 -0.37341
 C358 C -0.00355 1.36223 -0.36435
 C359 C -0.02407 1.37439 -0.31389
 C360 C -0.02585 1.33633 -0.27375
 C361 C -0.00751 1.24229 -0.24059
 C362 C -0.02413 1.25199 -0.18816
 C363 C -0.02277 1.21178 -0.15020
 C364 C -0.00524 1.16061 -0.16335
 C365 C 0.01100 1.15032 -0.21560
 C366 C 0.01058 1.19081 -0.25399
 C367 C 0.03044 1.21982 -0.34402
 C368 C 0.02896 1.18028 -0.30533
 H369 H 0.04550 1.20974 -0.38298
 H370 H 0.04298 1.14097 -0.31562
 H371 H 0.03233 1.30001 -0.41134
 H372 H -0.04020 1.41336 -0.30563
 H373 H -0.03566 1.22093 -0.11027
 H374 H 0.02513 1.11110 -0.22616
 H375 H -0.04248 1.34840 -0.23629
 H376 H -0.03780 1.29042 -0.17534
 C377 C 0.01175 0.71566 -0.28493
 C378 C -0.00953 0.66527 -0.27226
 C379 C -0.01262 0.62545 -0.31125
 C380 C 0.00587 0.63449 -0.36322
 C381 C 0.02866 0.68423 -0.37472
 C382 C 0.03145 0.72412 -0.33645
 C383 C 0.01233 0.75780 -0.24285
 C384 C 0.02947 0.81017 -0.25254
 C385 C 0.02791 0.84836 -0.21251
 C386 C 0.00973 0.83546 -0.16154
 C387 C -0.00691 0.78326 -0.15124
 C388 C -0.00644 0.74470 -0.19157
 C389 C -0.02774 0.65491 -0.22079
 C390 C -0.02572 0.69358 -0.18120
 H391 H -0.04373 0.61621 -0.21089
 H392 H -0.04027 0.68351 -0.14203
 H393 H -0.03101 0.58779 -0.30140
 H394 H 0.04563 0.69214 -0.41338
 H395 H 0.04105 0.88827 -0.22161
 H396 H -0.02166 0.77294 -0.11219
 H397 H 0.04963 0.76108 -0.34805
 H398 H 0.04350 0.82279 -0.29089
 C399 C 0.00240 0.71879 0.28725
 C400 C -0.02487 0.67062 0.27724
 C401 C -0.02603 0.63067 0.31613
 C402 C 0.00118 0.63721 0.36442
 C403 C 0.03007 0.68401 0.37322
 C404 C 0.03050 0.72443 0.33541
 C405 C 0.00101 0.76126 0.24563
 C406 C 0.02244 0.81229 0.25386
 C407 C 0.02049 0.85043 0.21382
 C408 C -0.00231 0.83866 0.16435
 C409 C -0.02440 0.78819 0.15585
 C410 C -0.02386 0.74989 0.19642
 C411 C -0.05013 0.66239 0.22827
 C412 C -0.04880 0.70078 0.18839
 H413 H -0.07062 0.62535 0.22037
 H414 H -0.06833 0.69219 0.15095
 H415 H -0.04797 0.59430 0.30886
 H416 H 0.05239 0.68931 0.40968
 H417 H 0.03768 0.88916 0.22139
 H418 H -0.04293 0.77910 0.11802
 H419 H 0.05357 0.75938 0.34444
 H420 H 0.04039 0.82379 0.29104
   
