data_POSCAR
  _audit_creation_date              2014-09-24
  _audit_creation_method            'ToBaCCo'
  _symmetry_space_group_name_H-M    'P1'
  _symmetry_Int_Tables_number       1
  _symmetry_cell_setting            triclinic
  loop_
  _symmetry_equiv_pos_as_xyz
 x,y,z
_cell_length_a 39.2342
_cell_length_b 39.8898
_cell_length_c 38.5909
_cell_angle_alpha 90.964400
_cell_angle_beta 89.847000
_cell_angle_gamma 91.323500
loop_
  _atom_site_label
  _atom_site_type_symbol
  _atom_site_fract_x
  _atom_site_fract_y
  _atom_site_fract_z
N1 N 0.16236 0.17587 0.24321
 N2 N 0.18781 0.15509 0.24317
 C3 C 0.18237 0.13227 0.26803
 C4 C 0.15167 0.13907 0.28459
 C5 C 0.13994 0.16717 0.26803
 H6 H 0.19921 0.11191 0.27305
 H7 H 0.11647 0.18008 0.27290
 Cu8 Cu 0.22432 0.15893 0.20911
 Cu9 Cu 0.15882 0.21135 0.20982
 Cu10 Cu 0.22238 0.21787 0.14755
 N11 N 0.26039 0.16351 0.17469
 N12 N 0.25908 0.18582 0.15010
 C13 C 0.28574 0.18179 0.12849
 C14 C 0.30501 0.15541 0.14010
 C15 C 0.28802 0.14469 0.16971
 H16 H 0.29033 0.19675 0.10580
 H17 H 0.29434 0.12384 0.18575
 N18 N 0.18313 0.24797 0.14983
 N19 N 0.15939 0.24564 0.17400
 C20 C 0.13621 0.26934 0.16903
 C21 C 0.14559 0.28759 0.14029
 C22 C 0.17550 0.27331 0.12869
 H23 H 0.11365 0.27256 0.18472
 H24 H 0.19061 0.28086 0.10659
 H25 H 0.18591 0.18753 0.17050
 H26 H 0.21057 0.21721 0.19942
 N27 N -0.17900 0.81487 0.25562
 N28 N -0.20612 0.83358 0.25623
 C29 C -0.20324 0.85602 0.28263
 C30 C -0.17267 0.85089 0.29954
 C31 C -0.15807 0.82453 0.28160
 H32 H -0.22183 0.87481 0.28883
 H33 H -0.13351 0.81380 0.28637
 Cu34 Cu -0.24188 0.82731 0.22175
 Cu35 Cu -0.17169 0.78067 0.22019
 Cu36 Cu -0.22885 0.77701 0.15203
 N37 N -0.27089 0.82838 0.18107
 N38 N -0.26552 0.80907 0.15380
 C39 C -0.28840 0.81587 0.12913
 C40 C -0.30944 0.84099 0.14148
 C41 C -0.29736 0.84819 0.17471
 H42 H -0.28924 0.80356 0.10399
 H43 H -0.30639 0.86693 0.19283
 N44 N -0.19007 0.74667 0.15553
 N45 N -0.16864 0.74790 0.18182
 C46 C -0.14510 0.72430 0.17706
 C47 C -0.15186 0.70732 0.14621
 C48 C -0.18063 0.72221 0.13325
 H49 H -0.12415 0.72026 0.19449
 H50 H -0.19380 0.71567 0.10945
 H51 H -0.19783 0.80681 0.18310
 H52 H -0.22197 0.77186 0.20457
 N53 N -0.18881 0.20311 -0.28193
 N54 N -0.21456 0.18157 -0.28015
 C55 C -0.20984 0.15649 -0.30335
 C56 C -0.17948 0.16276 -0.32081
 C57 C -0.16693 0.19264 -0.30648
 H58 H -0.22685 0.13497 -0.30663
 H59 H -0.14287 0.20507 -0.31227
 Cu60 Cu -0.25069 0.18784 -0.24645
 Cu61 Cu -0.18351 0.24101 -0.24971
 Cu62 Cu -0.24326 0.24645 -0.18339
 N63 N -0.28163 0.18830 -0.20721
 N64 N -0.27885 0.21138 -0.18267
 C65 C -0.30260 0.20528 -0.15818
 C66 C -0.32138 0.17661 -0.16780
 C67 C -0.30718 0.16671 -0.19929
 H68 H -0.30542 0.22040 -0.13492
 H69 H -0.31397 0.14484 -0.21490
 N70 N -0.20518 0.27920 -0.18897
 N71 N -0.18262 0.27718 -0.21430
 C72 C -0.15857 0.30143 -0.20965
 C73 C -0.16616 0.31964 -0.17986
 C74 C -0.19604 0.30485 -0.16757
 H75 H -0.13650 0.30479 -0.22611
 H76 H -0.20927 0.31121 -0.14386
 H77 H -0.20909 0.21717 -0.20988
 H78 H -0.23428 0.24660 -0.23609
 N79 N 0.17010 0.81165 -0.25951
 N80 N 0.19548 0.83366 -0.25822
 C81 C 0.18846 0.85927 -0.27913
 C82 C 0.15689 0.85300 -0.29434
 C83 C 0.14613 0.82240 -0.28124
 H84 H 0.20486 0.88110 -0.28247
 H85 H 0.12225 0.80921 -0.28629
 Cu86 Cu 0.23398 0.82764 -0.22747
 Cu87 Cu 0.16870 0.77192 -0.23115
 Cu88 Cu 0.23618 0.76134 -0.17475
 N89 N 0.27212 0.82094 -0.19648
 N90 N 0.27249 0.79559 -0.17520
 C91 C 0.30002 0.79885 -0.15452
 C92 C 0.31806 0.82794 -0.16325
 C93 C 0.29950 0.84101 -0.19029
 H94 H 0.30584 0.78163 -0.13416
 H95 H 0.30437 0.86435 -0.20335
 N96 N 0.19704 0.72946 -0.17852
 N97 N 0.17173 0.73338 -0.20041
 C98 C 0.14839 0.70859 -0.19606
 C99 C 0.15929 0.68803 -0.17004
 C100 C 0.19033 0.70202 -0.15954
 H101 H 0.12441 0.70657 -0.20970
 H102 H 0.20648 0.69331 -0.13909
 H103 H 0.19798 0.79217 -0.19094
 H104 H 0.22088 0.76776 -0.22516
 N105 N 0.19369 1.18017 0.73909
 N106 N 0.17202 1.20477 0.74057
 C107 C 0.15106 1.20220 0.71295
 C108 C 0.16030 1.17460 0.69300
 C109 C 0.18757 1.16139 0.71043
 H110 H 0.13017 1.21867 0.70814
 H111 H 0.20072 1.13863 0.70387
 Cu112 Cu 0.17233 1.23612 0.77988
 Cu113 Cu 0.22587 1.17190 0.77611
 Cu114 Cu 0.22579 1.22668 0.84691
 N115 N 0.17338 1.26763 0.81900
 N116 N 0.19393 1.26354 0.84538
 C117 C 0.18826 1.28761 0.86949
 C118 C 0.16277 1.30796 0.85761
 C119 C 0.15401 1.29446 0.82545
 H120 H 0.20141 1.28982 0.89402
 H121 H 0.13417 1.30285 0.80853
 N122 N 0.25616 1.18793 0.84329
 N123 N 0.25637 1.16746 0.81609
 C124 C 0.27928 1.14349 0.82126
 C125 C 0.29440 1.14896 0.85328
 C126 C 0.27907 1.17746 0.86650
 H127 H 0.28403 1.12309 0.80328
 H128 H 0.28415 1.18966 0.89121
 H129 H 0.19778 1.19367 0.81580
 H130 H 0.23035 1.22103 0.79410
 N131 N 0.82883 0.82986 0.74569
 N132 N 0.85155 0.80627 0.74753
 C133 C 0.87381 0.80977 0.72100
 C134 C 0.86422 0.83684 0.70141
 C135 C 0.83555 0.84885 0.71795
 H136 H 0.89545 0.79400 0.71637
 H137 H 0.82137 0.87068 0.71111
 Cu138 Cu 0.84963 0.77375 0.78488
 Cu139 Cu 0.79374 0.83624 0.78065
 Cu140 Cu 0.78892 0.77893 0.84685
 N141 N 0.84499 0.74040 0.82125
 N142 N 0.82138 0.74269 0.84535
 C143 C 0.82433 0.71713 0.86742
 C144 C 0.85121 0.69755 0.85665
 C145 C 0.86367 0.71315 0.82717
 H146 H 0.80812 0.71320 0.88974
 H147 H 0.88524 0.70567 0.81164
 N148 N 0.75829 0.81732 0.84383
 N149 N 0.75998 0.83888 0.81832
 C150 C 0.73624 0.86228 0.82347
 C151 C 0.71867 0.85528 0.85374
 C152 C 0.73341 0.82653 0.86595
 H153 H 0.73254 0.88333 0.80675
 H154 H 0.72654 0.81326 0.88923
 H155 H 0.81878 0.81377 0.82099
 H156 H 0.78972 0.78628 0.79405
 N157 N 0.19406 0.81846 1.27751
 N158 N 0.17270 0.79261 1.27658
 C159 C 0.15067 0.79531 1.30334
 C160 C 0.15887 0.82435 1.32209
 C161 C 0.18661 0.83827 1.30487
 H162 H 0.12978 0.77791 1.30835
 H163 H 0.19932 0.86203 1.31069
 Cu164 Cu 0.17492 0.75913 1.23922
 Cu165 Cu 0.22720 0.82682 1.24101
 Cu166 Cu 0.23754 0.76391 1.17926
 N167 N 0.17958 0.72508 1.20280
 N168 N 0.20419 0.72695 1.17969
 C169 C 0.20061 0.70122 1.15685
 C170 C 0.17221 0.68206 1.16609
 C171 C 0.15960 0.69799 1.19548
 H172 H 0.21706 0.69726 1.13472
 H173 H 0.13680 0.69112 1.20970
 N174 N 0.26834 0.80366 1.18309
 N175 N 0.26414 0.82770 1.20648
 C176 C 0.28780 0.85210 1.20145
 C177 C 0.30786 0.84330 1.17329
 C178 C 0.29476 0.81227 1.16243
 H179 H 0.28977 0.87491 1.21684
 H180 H 0.30310 0.79747 1.14043
 H181 H 0.20535 0.79789 1.20089
 H182 H 0.23423 0.77652 1.23146
 N183 N 0.81246 1.17288 1.27634
 N184 N 0.83626 1.19637 1.27320
 C185 C 0.86067 1.19153 1.29709
 C186 C 0.85146 1.16362 1.31631
 C187 C 0.82069 1.15257 1.30230
 H188 H 0.88355 1.20692 1.30009
 H189 H 0.80596 1.13054 1.30956
 Cu190 Cu 0.83296 1.23021 1.23737
 Cu191 Cu 0.77372 1.16850 1.24509
 Cu192 Cu 0.76668 1.22860 1.18200
 N193 N 0.82788 1.26463 1.20240
 N194 N 0.80188 1.26376 1.18097
 C195 C 0.80508 1.28931 1.15878
 C196 C 0.83470 1.30740 1.16660
 C197 C 0.84847 1.29094 1.19454
 H198 H 0.78734 1.29401 1.13814
 H199 H 0.87226 1.29703 1.20747
 N200 N 0.73359 1.19105 1.18714
 N201 N 0.73630 1.16811 1.21113
 C202 C 0.71122 1.14481 1.20665
 C203 C 0.69171 1.15341 1.17842
 C204 C 0.70667 1.18298 1.16682
 H205 H 0.70790 1.12278 1.22230
 H206 H 0.69940 1.19684 1.14431
 H207 H 0.79632 1.19211 1.20316
 H208 H 0.77173 1.21893 1.23398
 O209 O 0.53502 0.96795 0.93191
 O210 O 0.47431 0.98349 1.08390
 O211 O 0.56591 0.98122 1.02825
 O212 O 0.45793 0.94398 0.97754
 O213 O 0.51921 0.95631 1.04625
 O214 O 0.47056 0.96710 0.92928
 O215 O 0.45764 0.95604 1.03802
 O216 O 0.57297 0.99276 0.96624
 C217 C 0.56497 0.97126 0.94295
 C218 C 0.45285 0.96236 1.06988
 C219 C 0.55081 0.95612 1.04152
 C220 C 0.45866 0.94276 0.94554
 O221 O 0.47141 1.03249 0.93381
 O222 O 0.53345 1.01200 1.07542
 O223 O 0.54897 1.05561 0.97797
 O224 O 0.43563 1.01913 1.02564
 O225 O 0.48062 1.03817 1.05124
 O226 O 0.53531 1.03240 0.92945
 O227 O 0.43258 1.00541 0.96385
 O228 O 0.54299 1.04644 1.03659
 Co229 Co 0.50291 1.00005 0.93721
 Co230 Co 0.49890 0.99701 1.04672
 Co231 Co 0.55346 1.01744 1.00192
 Co232 Co 0.45079 0.98293 1.00077
 O233 O 0.50293 1.00057 0.99438
 C234 C 0.44118 1.02850 0.94338
 C235 C 0.54792 1.03837 1.06690
 C236 C 0.54813 1.05641 0.94607
 C237 C 0.45016 1.04134 1.04383
 O238 O 0.03105 0.46699 0.06688
 O239 O 0.01608 0.52450 -0.08399
 O240 O 0.01672 0.43484 -0.02970
 O241 O 0.05526 0.54150 0.02241
 O242 O 0.04265 0.48029 -0.04746
 O243 O 0.03092 0.53051 0.07064
 O244 O 0.04383 0.54095 -0.03803
 O245 O 0.00597 0.42911 0.03259
 C246 C 0.02797 0.43745 0.05536
 C247 C 0.03792 0.54525 -0.06986
 C248 C 0.04248 0.44924 -0.04316
 C249 C 0.05596 0.54184 0.05438
 O250 O -0.03526 0.52873 0.06670
 O251 O -0.01443 0.46672 -0.07540
 O252 O -0.05823 0.45266 0.02308
 O253 O -0.01999 0.56373 -0.02543
 O254 O -0.04003 0.51952 -0.05089
 O255 O -0.03409 0.46575 0.07098
 O256 O -0.00768 0.56677 0.03646
 O257 O -0.04945 0.45802 -0.03579
 Co258 Co -0.00193 0.49811 0.06263
 Co259 Co 0.00154 0.50089 -0.04701
 Co260 Co -0.01968 0.44781 -0.00213
 Co261 Co 0.01602 0.54852 -0.00064
 O262 O -0.00235 0.49749 0.00537
 C263 C -0.03127 0.55838 0.05721
 C264 C -0.04158 0.45323 -0.06645
 C265 C -0.05823 0.45230 0.05498
 C266 C -0.04250 0.54978 -0.04376
 O267 O 1.06429 0.03454 0.46978
 O268 O 0.92566 0.01111 0.53648
 O269 O 0.97318 0.02060 0.43566
 O270 O 1.02237 0.05662 0.54965
 O271 O 0.94874 0.03808 0.48209
 O272 O 1.06956 0.03477 0.53459
 O273 O 0.96456 0.04648 0.54503
 O274 O 1.03358 0.00702 0.43108
 C275 C 1.05501 0.02988 0.43917
 C276 C 0.93456 0.03797 0.55032
 C277 C 0.95562 0.04202 0.45102
 C278 C 1.05376 0.05807 0.54848
 O279 O 1.06583 -0.02979 0.53464
 O280 O 0.91524 -0.01681 0.47682
 O281 O 1.01865 -0.05446 0.45697
 O282 O 0.97193 -0.01894 0.56822
 O283 O 0.95300 -0.04405 0.52120
 O284 O 1.06706 -0.03098 0.46932
 O285 O 1.03323 -0.00596 0.57398
 O286 O 0.95947 -0.04281 0.45824
 Co287 Co 1.06068 0.00212 0.50204
 Co288 Co 0.95283 -0.00313 0.50064
 Co289 Co 0.99680 -0.01565 0.45038
 Co290 Co 0.99822 0.01799 0.55487
 O291 O 1.00447 0.00159 0.50334
 C292 C 1.05580 -0.02670 0.56532
 C293 C 0.92831 -0.03668 0.45392
 C294 C 1.05014 -0.05550 0.45761
 C295 C 0.95838 -0.04439 0.55321
 C296 C 1.10211 0.08410 0.36374
 C297 C 1.13362 0.07388 0.35092
 C298 C 1.15016 0.09208 0.32494
 C299 C 1.13538 0.12094 0.31126
 C300 C 1.10360 0.13098 0.32473
 C301 C 1.08720 0.11269 0.35069
 C302 C 1.08503 0.06522 0.39026
 C303 C 1.07098 0.04923 0.41253
 H304 H 1.14540 0.05174 0.36093
 H305 H 1.17441 0.08320 0.31571
 H306 H 1.09100 0.15285 0.31539
 H307 H 1.06280 0.12083 0.36052
 C308 C 0.87382 -0.09199 0.38284
 C309 C 0.84683 -0.07863 0.36431
 C310 C 0.83107 -0.09747 0.33768
 C311 C 0.84237 -0.12980 0.32911
 C312 C 0.86913 -0.14316 0.34836
 C313 C 0.88471 -0.12437 0.37500
 C314 C 0.89163 -0.07208 0.40870
 C315 C 0.90775 -0.05576 0.42976
 H316 H 0.83837 -0.05346 0.37001
 H317 H 0.81077 -0.08632 0.32325
 H318 H 0.87825 -0.16807 0.34281
 H319 H 0.90563 -0.13491 0.38915
 C320 C 0.87337 0.09889 0.60734
 C321 C 0.88302 0.13273 0.61100
 C322 C 0.86524 0.15368 0.63369
 C323 C 0.83760 0.14103 0.65320
 C324 C 0.82746 0.10716 0.64856
 C325 C 0.84531 0.08623 0.62581
 C326 C 0.89360 0.07689 0.58625
 C327 C 0.91167 0.05883 0.56939
 H328 H 0.90472 0.14281 0.59685
 H329 H 0.87349 0.17967 0.63615
 H330 H 0.80644 0.09649 0.66320
 H331 H 0.83772 0.06002 0.62322
 C332 C 1.10240 -0.08418 0.63642
 C333 C 1.08926 -0.11597 0.64450
 C334 C 1.10692 -0.13638 0.66703
 C335 C 1.13806 -0.12526 0.68181
 C336 C 1.15091 -0.09311 0.67361
 C337 C 1.13320 -0.07277 0.65105
 C338 C 1.08498 -0.06372 0.61217
 C339 C 1.07113 -0.04671 0.59119
 H340 H 1.06550 -0.12510 0.63316
 H341 H 1.09614 -0.16090 0.67253
 H342 H 1.17461 -0.08348 0.68449
 H343 H 1.14364 -0.04820 0.64483
 C344 C 0.38806 1.10817 1.09077
 C345 C 0.37763 1.09855 1.12383
 C346 C 0.35091 1.11474 1.14049
 C347 C 0.33388 1.14105 1.12435
 C348 C 0.34573 1.15153 1.09156
 C349 C 0.37243 1.13499 1.07482
 C350 C 0.41217 1.08782 1.07242
 C351 C 0.43068 1.06802 1.05847
 H352 H 0.38949 1.07771 1.13639
 H353 H 0.34352 1.10596 1.16582
 H354 H 0.33375 1.17162 1.07802
 H355 H 0.38015 1.14248 1.04905
 C356 C 0.39997 0.87643 0.88996
 C357 C 0.38602 0.84643 0.90253
 C358 C 0.35987 0.82949 0.88425
 C359 C 0.34683 0.84272 0.85338
 C360 C 0.36235 0.87222 0.84038
 C361 C 0.38855 0.88884 0.85854
 C362 C 0.42312 0.89681 0.91061
 C363 C 0.44060 0.91646 0.92711
 H364 H 0.39453 0.83671 0.92700
 H365 H 0.34912 0.80687 0.89530
 H366 H 0.35408 0.88318 0.81649
 H367 H 0.39914 0.91212 0.84861
 C368 C 0.61259 0.89035 1.08800
 C369 C 0.61978 0.89871 1.12254
 C370 C 0.64498 0.88200 1.14038
 C371 C 0.66379 0.85653 1.12392
 C372 C 0.65553 0.84767 1.08926
 C373 C 0.63024 0.86458 1.07144
 C374 C 0.58919 0.91054 1.06932
 C375 C 0.57078 0.92999 1.05547
 H376 H 0.60640 0.91882 1.13555
 H377 H 0.64978 0.88971 1.16691
 H378 H 0.66891 0.82822 1.07536
 H379 H 0.62500 0.85803 1.04458
 C380 C 0.60377 1.12379 0.89033
 C381 C 0.61910 1.15305 0.90411
 C382 C 0.64304 1.17121 0.88454
 C383 C 0.65244 1.16007 0.85097
 C384 C 0.63573 1.13116 0.83709
 C385 C 0.61170 1.11328 0.85662
 C386 C 0.58230 1.10260 0.91137
 C387 C 0.56574 1.08266 0.92790
 H388 H 0.61328 1.16134 0.93029
 H389 H 0.65477 1.19332 0.89639
 H390 H 0.64138 1.12170 0.81136
 H391 H 0.59997 1.09062 0.84572
 C392 C 0.08807 0.36607 0.09549
 C393 C 0.11339 0.35035 0.07592
 C394 C 0.13266 0.32517 0.09061
 C395 C 0.12663 0.31537 0.12498
 C396 C 0.10144 0.33178 0.14450
 C397 C 0.08233 0.35691 0.12982
 C398 C 0.06745 0.39129 0.08052
 C399 C 0.04956 0.41237 0.06876
 H400 H 0.11800 0.35730 0.04927
 H401 H 0.15170 0.31296 0.07482
 H402 H 0.09638 0.32532 0.17116
 H403 H 0.06287 0.36905 0.14520
 C404 C -0.10341 0.39433 -0.12763
 C405 C -0.09073 0.37695 -0.15647
 C406 C -0.11136 0.35324 -0.17400
 C407 C -0.14501 0.34648 -0.16281
 C408 C -0.15772 0.36474 -0.13425
 C409 C -0.13703 0.38843 -0.11677
 C410 C -0.08131 0.41638 -0.10762
 C411 C -0.06295 0.43382 -0.08960
 H412 H -0.06465 0.38115 -0.16492
 H413 H -0.10048 0.33967 -0.19568
 H414 H -0.18349 0.36054 -0.12501
 H415 H -0.14704 0.40164 -0.09433
 C416 C 0.09987 0.60931 -0.12310
 C417 C 0.09155 0.62024 -0.15616
 C418 C 0.11149 0.64518 -0.17188
 C419 C 0.13996 0.65961 -0.15462
 C420 C 0.14862 0.64772 -0.12176
 C421 C 0.12862 0.62279 -0.10609
 C422 C 0.07790 0.58572 -0.10570
 C423 C 0.05946 0.56679 -0.09004
 H424 H 0.06931 0.60995 -0.16951
 H425 H 0.10426 0.65333 -0.19736
 H426 H 0.17016 0.65831 -0.10759
 H427 H 0.13515 0.61456 -0.08037
 C428 C -0.09186 0.62974 0.09982
 C429 C -0.11607 0.64601 0.08000
 C430 C -0.13596 0.67100 0.09512
 C431 C -0.13180 0.68003 0.13029
 C432 C -0.10764 0.66318 0.15004
 C433 C -0.08785 0.63824 0.13489
 C434 C -0.07075 0.60462 0.08426
 C435 C -0.05276 0.58358 0.07168
 H436 H -0.11938 0.63958 0.05281
 H437 H -0.15410 0.68355 0.07907
 H438 H -0.10397 0.66910 0.17724
 H439 H -0.06929 0.62568 0.15052
 C440 C 1.10701 0.12540 0.60868
 C441 C 1.14133 0.11882 0.61466
 C442 C 1.15902 0.13578 0.64125
 C443 C 1.14259 0.15959 0.66235
 C444 C 1.10850 0.16718 0.65513
 C445 C 1.09077 0.15002 0.62858
 C446 C 1.08777 0.10406 0.58508
 C447 C 1.07202 0.08414 0.56714
 H448 H 1.15409 0.09965 0.59960
 H449 H 1.18533 0.12961 0.64574
 H450 H 1.09500 0.18519 0.67096
 H451 H 1.06408 0.15505 0.62446
 C452 C 0.91543 -0.11359 0.61730
 C453 C 0.88031 -0.11038 0.62216
 C454 C 0.86357 -0.12746 0.64875
 C455 C 0.88167 -0.14813 0.67103
 C456 C 0.91674 -0.15245 0.66512
 C457 C 0.93357 -0.13507 0.63851
 C458 C 0.93271 -0.09195 0.59300
 C459 C 0.94540 -0.07147 0.57390
 H460 H 0.86600 -0.09375 0.60606
 H461 H 0.83650 -0.12395 0.65221
 H462 H 0.93141 -0.16807 0.68191
 H463 H 0.96083 -0.13756 0.63523
 C464 C 1.10266 -0.12476 0.40188
 C465 C 1.13742 -0.11763 0.39721
 C466 C 1.15599 -0.13522 0.37223
 C467 C 1.14003 -0.16021 0.35141
 C468 C 1.10544 -0.16839 0.35739
 C469 C 1.08682 -0.15059 0.38237
 C470 C 1.08293 -0.10284 0.42366
 C471 C 1.06737 -0.08233 0.44025
 H472 H 1.14994 -0.09760 0.41203
 H473 H 1.18267 -0.12865 0.36871
 H474 H 1.09235 -0.18739 0.34175
 H475 H 1.05984 -0.15615 0.38556
 C476 C 0.90824 0.11105 0.39267
 C477 C 0.87285 0.10661 0.39036
 C478 C 0.85435 0.12448 0.36625
 C479 C 0.87096 0.14717 0.34396
 C480 C 0.90642 0.15247 0.34730
 C481 C 0.92497 0.13435 0.37140
 C482 C 0.92712 0.08926 0.41463
 C483 C 0.94119 0.06887 0.43199
 H484 H 0.85960 0.08858 0.40657
 H485 H 0.82708 0.12007 0.36480
 H486 H 0.92002 0.16961 0.33046
 H487 H 0.95241 0.13782 0.37274
 C488 C 0.11108 0.38747 -0.08883
 C489 C 0.10900 0.38420 -0.12491
 C490 C 0.12652 0.35891 -0.14237
 C491 C 0.14642 0.33637 -0.12397
 C492 C 0.14936 0.34055 -0.08777
 C493 C 0.13168 0.36588 -0.07032
 C494 C 0.08942 0.41081 -0.07097
 C495 C 0.06918 0.42919 -0.05738
 H496 H 0.09303 0.40065 -0.13952
 H497 H 0.12400 0.35677 -0.17023
 H498 H 0.16426 0.32356 -0.07275
 H499 H 0.13326 0.36798 -0.04234
 C500 C -0.11936 0.38916 0.11039
 C501 C -0.10773 0.38158 0.14354
 C502 C -0.12315 0.35552 0.16213
 C503 C -0.15043 0.33651 0.14778
 C504 C -0.16256 0.34496 0.11478
 C505 C -0.14704 0.37103 0.09619
 C506 C -0.10066 0.41332 0.08999
 C507 C -0.08272 0.43214 0.07346
 H508 H -0.08615 0.39528 0.15472
 H509 H -0.11335 0.35011 0.18755
 H510 H -0.18336 0.33089 0.10274
 H511 H -0.15604 0.37644 0.07041
 C512 C -0.10554 0.61348 -0.09203
 C513 C -0.09731 0.62003 -0.12661
 C514 C -0.11197 0.64683 -0.14354
 C515 C -0.13512 0.66764 -0.12611
 C516 C -0.14409 0.66020 -0.09164
 C517 C -0.12924 0.63342 -0.07469
 C518 C -0.08664 0.58882 -0.07366
 C519 C -0.06813 0.56977 -0.05925
 H520 H -0.07875 0.60497 -0.14023
 H521 H -0.10473 0.65144 -0.17013
 H522 H -0.16166 0.67568 -0.07728
 H523 H -0.13549 0.62891 -0.04777
 C524 C 0.12287 0.60110 0.10921
 C525 C 0.11480 0.60694 0.14409
 C526 C 0.13155 0.63261 0.16288
 C527 C 0.15668 0.65292 0.14701
 C528 C 0.16553 0.64605 0.11225
 C529 C 0.14861 0.62040 0.09345
 C530 C 0.10198 0.57805 0.08894
 C531 C 0.08223 0.56038 0.07265
 H532 H 0.09475 0.59232 0.15650
 H533 H 0.12432 0.63684 0.18964
 H534 H 0.18456 0.66124 0.09910
 H535 H 0.15484 0.61637 0.06635
 C536 C 0.36932 1.08768 0.90115
 C537 C 0.36124 1.08296 0.86613
 C538 C 0.33707 1.10297 0.85058
 C539 C 0.32050 1.12812 0.86986
 C540 C 0.32897 1.13280 0.90508
 C541 C 0.35321 1.11269 0.92060
 C542 C 0.39437 1.06695 0.91682
 C543 C 0.41559 1.04940 0.92924
 H544 H 0.37366 1.06378 0.85078
 H545 H 0.33164 1.09871 0.82340
 H546 H 0.31671 1.15171 0.92083
 H547 H 0.35931 1.11661 0.94775
 C548 C 0.38592 0.90364 1.12416
 C549 C 0.36770 0.91657 1.15234
 C550 C 0.34273 0.89683 1.16864
 C551 C 0.33550 0.86376 1.15694
 C552 C 0.35437 0.85088 1.12883
 C553 C 0.37934 0.87071 1.11257
 C554 C 0.41026 0.92456 1.10613
 C555 C 0.43006 0.94198 1.09017
 H556 H 0.37244 0.94211 1.16141
 H557 H 0.32882 0.90785 1.19001
 H558 H 0.34977 0.82563 1.11905
 H559 H 0.39322 0.86047 1.09067
 C560 C 0.61197 1.09543 1.12777
 C561 C 0.61741 1.12917 1.11962
 C562 C 0.64276 1.14825 1.13669
 C563 C 0.66318 1.13381 1.16212
 C564 C 0.65689 1.10005 1.17074
 C565 C 0.63152 1.08100 1.15359
 C566 C 0.58806 1.07515 1.10788
 C567 C 0.56906 1.05826 1.08992
 H568 H 0.60252 1.14056 1.09956
 H569 H 0.64652 1.17420 1.12960
 H570 H 0.67212 1.08794 1.18998
 H571 H 0.62771 1.05481 1.15991
 C572 C 0.63887 0.91320 0.90026
 C573 C 0.65484 0.88857 0.91940
 C574 C 0.68063 0.86952 0.90428
 C575 C 0.69083 0.87491 0.86976
 C576 C 0.67437 0.89961 0.85073
 C577 C 0.64862 0.91856 0.86589
 C578 C 0.61275 0.93332 0.91581
 C579 C 0.59093 0.95053 0.92838
 H580 H 0.64752 0.88423 0.94607
 H581 H 0.69282 0.85096 0.91984
 H582 H 0.68117 0.90433 0.82406
 H583 H 0.63636 0.93750 0.85079
   
