data_POSCAR
  _audit_creation_date              2014-09-24
  _audit_creation_method            'ToBaCCo'
  _symmetry_space_group_name_H-M    'P1'
  _symmetry_Int_Tables_number       1
  _symmetry_cell_setting            triclinic
  loop_
  _symmetry_equiv_pos_as_xyz
 x,y,z
_cell_length_a 45.7226
_cell_length_b 43.1584
_cell_length_c 43.1573
_cell_angle_alpha 89.935000
_cell_angle_beta 90.017200
_cell_angle_gamma 89.983300
loop_
  _atom_site_label
  _atom_site_type_symbol
  _atom_site_fract_x
  _atom_site_fract_y
  _atom_site_fract_z
C1 C 0.29415 0.29249 0.23761
 H2 H 0.29530 0.29322 0.26264
 C3 C 0.31313 0.31064 0.21992
 H4 H 0.32877 0.32539 0.23162
 C5 C 0.27249 0.27196 0.19219
 H6 H 0.25694 0.25652 0.18144
 C7 C 0.29106 0.28970 0.17359
 H8 H 0.28928 0.28785 0.14865
 N9 N 0.27410 0.27395 0.22359
 C10 C 0.20491 0.26163 0.29210
 H11 H 0.20372 0.23660 0.29287
 C12 C 0.18599 0.27935 0.31027
 H13 H 0.17036 0.26768 0.32507
 C14 C 0.22661 0.30701 0.27145
 H15 H 0.24214 0.31773 0.25596
 C16 C 0.20811 0.32564 0.28920
 H17 H 0.20992 0.35058 0.28731
 Zn18 Zn 0.24950 0.24980 0.24937
 N19 N 0.22495 0.27561 0.27349
 C20 C 0.27244 0.22767 0.30659
 N21 N 0.27405 0.22562 0.27519
 C22 C 0.29409 0.20702 0.26123
 C23 C 0.31306 0.18888 0.27897
 C24 C 0.29100 0.20995 0.32524
 C25 C 0.20490 0.23809 0.20660
 C26 C 0.18593 0.22041 0.18844
 C27 C 0.20797 0.17407 0.20951
 C28 C 0.22652 0.19265 0.22725
 N29 N 0.22493 0.22406 0.22521
 H30 H 0.25691 0.24316 0.31730
 H31 H 0.29524 0.20624 0.23620
 H32 H 0.32869 0.17409 0.26731
 H33 H 0.28923 0.21186 0.35018
 H34 H 0.20376 0.26312 0.20583
 H35 H 0.17032 0.23212 0.17365
 H36 H 0.20973 0.14912 0.21141
 H37 H 0.24205 0.18189 0.24275
 C38 C 0.18752 0.31185 0.30906
 C39 C 0.31167 0.30949 0.18742
 C40 C 0.18738 0.18791 0.18966
 C41 C 0.31160 0.19011 0.31147
 C42 C 0.79472 0.79339 0.23707
 H43 H 0.79588 0.79417 0.26210
 C44 C 0.81362 0.81159 0.21933
 H45 H 0.82915 0.82636 0.23117
 C46 C 0.77309 0.77268 0.19174
 H47 H 0.75759 0.75715 0.18105
 C48 C 0.79156 0.79044 0.17306
 H49 H 0.78962 0.78838 0.14814
 N50 N 0.77472 0.77475 0.22313
 C51 C 0.70558 0.76231 0.29168
 H52 H 0.70445 0.73728 0.29245
 C53 C 0.68663 0.77999 0.30986
 H54 H 0.67103 0.76828 0.32466
 C55 C 0.72719 0.80774 0.27104
 H56 H 0.74270 0.81851 0.25555
 C57 C 0.70865 0.82633 0.28880
 H58 H 0.71041 0.85127 0.28692
 Zn59 Zn 0.75020 0.75058 0.24897
 N60 N 0.72560 0.77634 0.27308
 C61 C 0.77316 0.72853 0.30622
 N62 N 0.77481 0.72648 0.27482
 C63 C 0.79487 0.70788 0.26088
 C64 C 0.81379 0.68971 0.27865
 C65 C 0.79167 0.71078 0.32489
 C66 C 0.70560 0.73865 0.20625
 C67 C 0.68666 0.72088 0.18815
 C68 C 0.70882 0.67465 0.20932
 C69 C 0.72734 0.69332 0.22700
 N70 N 0.72567 0.72472 0.22488
 H71 H 0.75762 0.74402 0.31691
 H72 H 0.79604 0.70710 0.23585
 H73 H 0.82942 0.67491 0.26701
 H74 H 0.78986 0.71267 0.34982
 H75 H 0.70440 0.76368 0.20542
 H76 H 0.67101 0.73251 0.17334
 H77 H 0.71064 0.64971 0.21128
 H78 H 0.74289 0.68263 0.24251
 C79 C 0.68809 0.81249 0.30866
 C80 C 0.81220 0.81044 0.18674
 C81 C 0.68819 0.68838 0.18945
 C82 C 0.81226 0.69091 0.31114
 C83 C 0.79506 0.29204 0.73848
 H84 H 0.79625 0.29282 0.76350
 C85 C 0.81397 0.31021 0.72071
 H86 H 0.82960 0.32501 0.73235
 C87 C 0.77335 0.27140 0.69314
 H88 H 0.75781 0.25591 0.68244
 C89 C 0.79185 0.28914 0.67447
 H90 H 0.79002 0.28725 0.64953
 N91 N 0.77501 0.27344 0.72453
 C92 C 0.70584 0.26126 0.79309
 H93 H 0.70466 0.23623 0.79393
 C94 C 0.68690 0.27902 0.81119
 H95 H 0.67126 0.26739 0.82600
 C96 C 0.72754 0.30660 0.77236
 H97 H 0.74308 0.31729 0.75685
 C98 C 0.70901 0.32526 0.79003
 H99 H 0.71081 0.35020 0.78807
 Zn100 Zn 0.75043 0.24934 0.75037
 N101 N 0.72590 0.27520 0.77447
 C102 C 0.77337 0.22723 0.80758
 N103 N 0.77497 0.22516 0.77621
 C104 C 0.79496 0.20653 0.76227
 C105 C 0.81389 0.18832 0.77998
 C106 C 0.79187 0.20948 0.82627
 C107 C 0.70578 0.23764 0.70767
 C108 C 0.68682 0.21998 0.68949
 C109 C 0.70886 0.17362 0.71053
 C110 C 0.72741 0.19219 0.72828
 N111 N 0.72582 0.22360 0.72626
 H112 H 0.75787 0.24277 0.81827
 H113 H 0.79609 0.20575 0.73724
 H114 H 0.82937 0.17360 0.76798
 H115 H 0.78983 0.21166 0.85118
 H116 H 0.70465 0.26267 0.70690
 H117 H 0.67121 0.23170 0.67470
 H118 H 0.71063 0.14867 0.71240
 H119 H 0.74294 0.18141 0.74377
 C120 C 0.68840 0.31152 0.80989
 C121 C 0.81244 0.30901 0.68822
 C122 C 0.68828 0.18748 0.69068
 C123 C 0.81257 0.18941 0.81265
 C124 C 0.29413 0.79310 0.73791
 H125 H 0.29528 0.79387 0.76294
 C126 C 0.31309 0.81124 0.72019
 H127 H 0.32873 0.82601 0.73186
 C128 C 0.27248 0.77248 0.69253
 H129 H 0.25695 0.75699 0.68181
 C130 C 0.29103 0.79019 0.67390
 H131 H 0.28926 0.78829 0.64896
 N132 N 0.27409 0.77451 0.72393
 C133 C 0.20494 0.76212 0.79248
 H134 H 0.20381 0.73709 0.79328
 C135 C 0.18597 0.77982 0.81061
 H136 H 0.17035 0.76814 0.82540
 C137 C 0.22656 0.80752 0.77180
 H138 H 0.24208 0.81827 0.75630
 C139 C 0.20800 0.82613 0.78950
 H140 H 0.20976 0.85108 0.78757
 Zn141 Zn 0.24954 0.75035 0.74974
 N142 N 0.22497 0.77612 0.77387
 C143 C 0.27253 0.72818 0.80694
 N144 N 0.27414 0.72620 0.77554
 C145 C 0.29421 0.70766 0.76153
 C146 C 0.31318 0.68949 0.77923
 C147 C 0.29109 0.71042 0.82555
 C148 C 0.20495 0.73851 0.70699
 C149 C 0.18603 0.72076 0.68883
 C150 C 0.20816 0.67450 0.70997
 C151 C 0.22666 0.69314 0.72770
 N152 N 0.22500 0.72454 0.72562
 H153 H 0.25698 0.74362 0.81769
 H154 H 0.29535 0.70694 0.73650
 H155 H 0.32882 0.67474 0.76754
 H156 H 0.28931 0.71226 0.85049
 H157 H 0.20376 0.76353 0.70618
 H158 H 0.17040 0.73242 0.67401
 H159 H 0.20998 0.64956 0.71189
 H160 H 0.24220 0.68243 0.74321
 C161 C 0.18741 0.81232 0.80935
 C162 C 0.31164 0.81001 0.68769
 C163 C 0.18756 0.68827 0.69008
 C164 C 0.31171 0.69063 0.81173
 Si165 Si -0.00105 0.00027 -0.00066
 Si166 Si -0.00021 0.49996 0.49970
 Si167 Si 0.50025 0.00007 0.49968
 Si168 Si 0.50009 0.49992 -0.00042
 C169 C 0.13156 -0.13297 -0.13613
 N170 N 0.13015 -0.16435 -0.13479
 N171 N 0.14783 -0.18170 -0.15212
 C172 C 0.16762 -0.16837 -0.17148
 N173 N 0.16895 -0.13694 -0.17277
 N174 N 0.15128 -0.11958 -0.15544
 C175 C 0.11219 -0.11382 -0.11690
 N176 N 0.11366 -0.08243 -0.11821
 N177 N 0.09620 -0.06505 -0.10066
 C178 C 0.07662 -0.07844 -0.08114
 N179 N 0.07513 -0.10983 -0.07985
 N180 N 0.09259 -0.12721 -0.09741
 C181 C 0.05751 -0.05927 -0.06166
 N182 N 0.03808 -0.07263 -0.04196
 N183 N 0.02086 -0.05523 -0.02416
 C184 C 0.02247 -0.02389 -0.02546
 N185 N 0.04185 -0.01048 -0.04511
 N186 N 0.05907 -0.02787 -0.06291
 C187 C 0.13194 0.36662 0.36384
 N188 N 0.15163 0.37999 0.34448
 N189 N 0.16922 0.36261 0.32707
 C190 C 0.16781 0.33118 0.32831
 N191 N 0.14805 0.31787 0.34771
 N192 N 0.13046 0.33524 0.36513
 C193 C 0.11267 0.38578 0.38316
 N194 N 0.09312 0.37242 0.40271
 N195 N 0.07574 0.38981 0.42035
 C196 C 0.07729 0.42120 0.41909
 N197 N 0.09683 0.43457 0.39953
 N198 N 0.11421 0.41717 0.38189
 C199 C 0.05826 0.44038 0.43864
 N200 N 0.05985 0.47178 0.43740
 N201 N 0.04267 0.48918 0.45524
 C202 C 0.02331 0.47579 0.47491
 N203 N 0.02168 0.44445 0.47621
 N204 N 0.03885 0.42703 0.45838
 C205 C 0.63244 -0.13290 0.36352
 N206 N 0.65212 -0.11947 0.34418
 N207 N 0.66972 -0.13680 0.32674
 C208 C 0.66836 -0.16824 0.32793
 N209 N 0.64861 -0.18160 0.34731
 N210 N 0.63100 -0.16429 0.36476
 C211 C 0.61316 -0.11380 0.38288
 N212 N 0.59361 -0.12722 0.40240
 N213 N 0.57623 -0.10988 0.42008
 C214 C 0.57776 -0.07848 0.41888
 N215 N 0.59729 -0.06506 0.39935
 N216 N 0.61467 -0.08240 0.38167
 C217 C 0.55871 -0.05936 0.43849
 N218 N 0.56030 -0.02796 0.43732
 N219 N 0.54312 -0.01060 0.45520
 C220 C 0.52376 -0.02405 0.47484
 N221 N 0.52213 -0.05539 0.47606
 N222 N 0.53930 -0.07276 0.45819
 C223 C 0.63261 0.36640 -0.13569
 N224 N 0.63116 0.33503 -0.13430
 N225 N 0.64882 0.31762 -0.15160
 C226 C 0.66863 0.33089 -0.17097
 N227 N 0.67001 0.36232 -0.17231
 N228 N 0.65235 0.37973 -0.15502
 C229 C 0.61326 0.38560 -0.11649
 N230 N 0.61476 0.41699 -0.11785
 N231 N 0.59732 0.43442 -0.10033
 C232 C 0.57773 0.42109 -0.08080
 N233 N 0.57620 0.38970 -0.07945
 N234 N 0.59365 0.37227 -0.09698
 C235 C 0.55862 0.44030 -0.06134
 N236 N 0.53919 0.42697 -0.04163
 N237 N 0.52198 0.44440 -0.02385
 C238 C 0.52360 0.47574 -0.02519
 N239 N 0.54299 0.48911 -0.04485
 N240 N 0.56020 0.47169 -0.06263
 C241 C -0.13339 0.13621 -0.13411
 N242 N -0.15313 0.15549 -0.12077
 N243 N -0.17075 0.17289 -0.13817
 C244 C -0.16941 0.17180 -0.16967
 N245 N -0.14950 0.15240 -0.18286
 N246 N -0.13188 0.13499 -0.16548
 C247 C -0.11408 0.11689 -0.11493
 N248 N -0.09447 0.09741 -0.12828
 N249 N -0.07706 0.07977 -0.11087
 C250 C -0.07862 0.08098 -0.07948
 N251 N -0.09821 0.10048 -0.06613
 N252 N -0.11562 0.11811 -0.08354
 C253 C -0.05955 0.06142 -0.06028
 N254 N -0.06115 0.06261 -0.02888
 N255 N -0.04395 0.04475 -0.01147
 C256 C -0.02456 0.02512 -0.02485
 N257 N -0.02292 0.02387 -0.05619
 N258 N -0.04012 0.04172 -0.07362
 C259 C -0.13222 0.63605 0.36605
 N260 N -0.13071 0.63478 0.33467
 N261 N -0.14827 0.65223 0.31726
 C262 C -0.16804 0.67164 0.33052
 N263 N -0.16947 0.67287 0.36195
 N264 N -0.15191 0.65542 0.37937
 C265 C -0.11298 0.61669 0.38526
 N266 N -0.11454 0.61793 0.41665
 N267 N -0.09720 0.60025 0.43408
 C268 C -0.07766 0.58068 0.42077
 N269 N -0.07607 0.57945 0.38938
 N270 N -0.09342 0.59713 0.37194
 C271 C -0.05864 0.56109 0.43999
 N272 N -0.03923 0.54135 0.42669
 N273 N -0.02207 0.52349 0.44414
 C274 C -0.02373 0.52476 0.47548
 N275 N -0.04310 0.54443 0.48883
 N276 N -0.06026 0.56230 0.47139
 C277 C 0.36752 0.13561 0.36629
 N278 N 0.36893 0.13429 0.33491
 N279 N 0.35123 0.15161 0.31752
 C280 C 0.33141 0.17095 0.33081
 N281 N 0.33008 0.17222 0.36225
 N282 N 0.34777 0.15491 0.37964
 C283 C 0.38692 0.11640 0.38546
 N284 N 0.38544 0.11769 0.41686
 N285 N 0.40293 0.10014 0.43426
 C286 C 0.42253 0.08065 0.42091
 N287 N 0.42402 0.07938 0.38952
 N288 N 0.40653 0.09693 0.37211
 C289 C 0.44167 0.06116 0.44010
 N290 N 0.46111 0.04148 0.42676
 N291 N 0.47834 0.02366 0.44417
 C292 C 0.47673 0.02493 0.47552
 N293 N 0.45734 0.04455 0.48891
 N294 N 0.44010 0.06237 0.47150
 C295 C 0.36752 0.63587 -0.13360
 N296 N 0.36895 0.63464 -0.16498
 N297 N 0.35128 0.65205 -0.18231
 C298 C 0.33149 0.67138 -0.16897
 N299 N 0.33014 0.67256 -0.13754
 N300 N 0.34781 0.65515 -0.12019
 C301 C 0.38688 0.61655 -0.11447
 N302 N 0.38539 0.61776 -0.08308
 N303 N 0.40284 0.60012 -0.06571
 C304 C 0.42240 0.58062 -0.07911
 N305 N 0.42390 0.57943 -0.11051
 N306 N 0.40646 0.59707 -0.12787
 C307 C 0.44151 0.56106 -0.05996
 N308 N 0.46094 0.54138 -0.07333
 N309 N 0.47816 0.52352 -0.05593
 C310 C 0.47655 0.52476 -0.02458
 N311 N 0.45717 0.54438 -0.01117
 N312 N 0.43995 0.56224 -0.02856
 C313 C -0.13319 -0.13569 0.13283
 N314 N -0.13166 -0.13446 0.16420
 N315 N -0.14925 -0.15189 0.18159
 C316 C -0.16911 -0.17126 0.16836
 N317 N -0.17052 -0.17239 0.13689
 N318 N -0.15293 -0.15498 0.11949
 C319 C -0.11392 -0.11636 0.11364
 N320 N -0.11550 -0.11757 0.08225
 N321 N -0.09812 -0.09993 0.06483
 C322 C -0.07853 -0.08043 0.07817
 N323 N -0.07694 -0.07922 0.10956
 N324 N -0.09432 -0.09687 0.12698
 C325 C -0.05949 -0.06086 0.05897
 N326 N -0.04005 -0.04117 0.07230
 N327 N -0.02288 -0.02332 0.05487
 C328 C -0.02455 -0.02456 0.02353
 N329 N -0.04394 -0.04419 0.01015
 N330 N -0.06112 -0.06205 0.02757
 C331 C -0.13207 0.36385 0.63333
 N332 N -0.15177 0.34448 0.62000
 N333 N -0.16932 0.32705 0.63742
 C334 C -0.16788 0.32827 0.66885
 N335 N -0.14812 0.34768 0.68211
 N336 N -0.13056 0.36512 0.66470
 C337 C -0.11285 0.38321 0.61412
 N338 N -0.09329 0.40277 0.62744
 N339 N -0.07596 0.42044 0.61001
 C340 C -0.07755 0.41921 0.57862
 N341 N -0.09709 0.39963 0.56530
 N342 N -0.11442 0.38196 0.58273
 C343 C -0.05856 0.43880 0.55940
 N344 N -0.06019 0.43759 0.52800
 N345 N -0.04305 0.45546 0.51056
 C346 C -0.02369 0.47513 0.52391
 N347 N -0.02201 0.47641 0.55525
 N348 N -0.03915 0.45854 0.57271
 C349 C 0.36753 -0.13547 0.63293
 N350 N 0.34779 -0.15475 0.61955
 N351 N 0.33010 -0.17207 0.63693
 C352 C 0.33144 -0.17082 0.66836
 N353 N 0.35125 -0.15150 0.68167
 N354 N 0.36895 -0.13417 0.66431
 C355 C 0.38692 -0.11625 0.61377
 N356 N 0.40653 -0.09680 0.62715
 N357 N 0.42401 -0.07924 0.60976
 C358 C 0.42252 -0.08049 0.57837
 N359 N 0.40293 -0.09997 0.56500
 N360 N 0.38544 -0.11752 0.58238
 C361 C 0.44165 -0.06100 0.55920
 N362 N 0.44009 -0.06220 0.52780
 N363 N 0.45733 -0.04438 0.51042
 C364 C 0.47672 -0.02477 0.52383
 N365 N 0.47833 -0.02352 0.55517
 N366 N 0.46110 -0.04134 0.57257
 C367 C 0.36751 0.36415 0.13276
 N368 N 0.36893 0.36540 0.16414
 N369 N 0.35125 0.34802 0.18147
 C370 C 0.33146 0.32870 0.16812
 N371 N 0.33012 0.32750 0.13669
 N372 N 0.34779 0.34487 0.11935
 C373 C 0.38687 0.38344 0.11363
 N374 N 0.38540 0.38220 0.08223
 N375 N 0.40285 0.39981 0.06487
 C376 C 0.42242 0.41930 0.07827
 N377 N 0.42391 0.42052 0.10967
 N378 N 0.40646 0.40290 0.12703
 C379 C 0.44153 0.43883 0.05912
 N380 N 0.46095 0.45851 0.07249
 N381 N 0.47817 0.47635 0.05509
 C382 C 0.47656 0.47510 0.02375
 N383 N 0.45719 0.45548 0.01033
 N384 N 0.43997 0.43764 0.02772
 C385 C 0.13156 0.13329 0.13501
 N386 N 0.15127 0.11987 0.15433
 N387 N 0.16894 0.13720 0.17170
 C388 C 0.16760 0.16864 0.17045
 N389 N 0.14782 0.18200 0.15109
 N390 N 0.13015 0.16468 0.13371
 C391 C 0.11220 0.11418 0.11574
 N392 N 0.09261 0.12760 0.09624
 N393 N 0.07516 0.11025 0.07864
 C394 C 0.07665 0.07886 0.07991
 N395 N 0.09622 0.06544 0.09943
 N396 N 0.11367 0.08279 0.11702
 C397 C 0.05754 0.05972 0.06039
 N398 N 0.05910 0.02832 0.06162
 N399 N 0.04187 0.01096 0.04379
 C400 C 0.02249 0.02439 0.02415
 N401 N 0.02088 0.05574 0.02286
 N402 N 0.03811 0.07312 0.04069
 C403 C 0.13196 0.63344 0.63539
 N404 N 0.13046 0.66482 0.63406
 N405 N 0.14806 0.68220 0.65145
 C406 C 0.16785 0.66892 0.67086
 N407 N 0.16927 0.63749 0.67214
 N408 N 0.15167 0.62009 0.65476
 C409 C 0.11268 0.61426 0.61610
 N410 N 0.11424 0.58287 0.61741
 N411 N 0.09686 0.56546 0.59980
 C412 C 0.07729 0.57880 0.58023
 N413 N 0.07572 0.61019 0.57894
 N414 N 0.09310 0.62760 0.59655
 C415 C 0.05824 0.55959 0.56070
 N416 N 0.03881 0.57292 0.54097
 N417 N 0.02163 0.55549 0.52315
 C418 C 0.02330 0.52415 0.52448
 N419 N 0.04269 0.51078 0.54415
 N420 N 0.05987 0.52820 0.56197
 C421 C 0.63257 0.13291 0.63584
 N422 N 0.65226 0.11947 0.65518
 N423 N 0.66989 0.13678 0.67261
 C424 C 0.66853 0.16822 0.67141
 N425 N 0.64876 0.18160 0.65204
 N426 N 0.63113 0.16430 0.63460
 C427 C 0.61326 0.11383 0.61649
 N428 N 0.59370 0.12727 0.59698
 N429 N 0.57630 0.10994 0.57930
 C430 C 0.57781 0.07855 0.58050
 N431 N 0.59735 0.06511 0.60003
 N432 N 0.61476 0.08243 0.61770
 C433 C 0.55875 0.05944 0.56090
 N434 N 0.56033 0.02804 0.56207
 N435 N 0.54313 0.01070 0.54419
 C436 C 0.52377 0.02416 0.52454
 N437 N 0.52215 0.05551 0.52332
 N438 N 0.53934 0.07286 0.54120
 C439 C 0.63247 0.63348 0.13498
 N440 N 0.65222 0.62016 0.15433
 N441 N 0.66985 0.63758 0.17164
 C442 C 0.66844 0.66901 0.17030
 N443 N 0.64862 0.68226 0.15091
 N444 N 0.63098 0.66486 0.13360
 C445 C 0.61314 0.61427 0.11577
 N446 N 0.59352 0.62760 0.09624
 N447 N 0.57610 0.61017 0.07869
 C448 C 0.57765 0.57878 0.08003
 N449 N 0.59725 0.56545 0.09958
 N450 N 0.61468 0.58288 0.11712
 C451 C 0.55857 0.55956 0.06055
 N452 N 0.56018 0.52817 0.06184
 N453 N 0.54298 0.51074 0.04405
 C454 C 0.52359 0.52411 0.02437
 N455 N 0.52194 0.55545 0.02303
 N456 N 0.53913 0.57289 0.04082
   
