data_POSCAR
  _audit_creation_date              2014-09-24
  _audit_creation_method            'ToBaCCo'
  _symmetry_space_group_name_H-M    'P1'
  _symmetry_Int_Tables_number       1
  _symmetry_cell_setting            triclinic
  loop_
  _symmetry_equiv_pos_as_xyz
 x,y,z
_cell_length_a 27.8754
_cell_length_b 29.9119
_cell_length_c 93.2194
_cell_angle_alpha 86.007500
_cell_angle_beta 92.416400
_cell_angle_gamma 123.572000
loop_
  _atom_site_label
  _atom_site_type_symbol
  _atom_site_fract_x
  _atom_site_fract_y
  _atom_site_fract_z
C1 C 0.01655 0.08871 0.52577
 H2 H 0.04399 0.07355 0.52668
 C3 C 0.02047 0.12248 0.53593
 H4 H 0.05146 0.13320 0.54460
 C5 C -0.05783 0.09156 0.51339
 H6 H -0.08867 0.07865 0.50465
 C7 C -0.05535 0.12570 0.52340
 H8 H -0.08451 0.13894 0.52227
 N9 N -0.02210 0.07388 0.51480
 C10 C 0.00207 -0.05100 0.51489
 H11 H 0.03552 -0.03454 0.50688
 C12 C -0.00516 -0.09126 0.52497
 H13 H 0.02292 -0.10558 0.52460
 C14 C -0.07410 -0.05137 0.52539
 H15 H -0.10050 -0.03521 0.52554
 C16 C -0.08263 -0.09119 0.53564
 H17 H -0.11600 -0.10548 0.54359
 Zn18 Zn -0.02435 0.02434 0.50283
 N19 N -0.03246 -0.03216 0.51528
 C20 C 0.04883 0.03198 0.48148
 N21 N 0.04431 0.05902 0.49192
 C22 C 0.08471 0.11212 0.49342
 C23 C 0.13095 0.14053 0.48394
 C24 C 0.09426 0.05901 0.47167
 C25 C -0.13173 -0.05564 0.49129
 C26 C -0.17215 -0.07968 0.48031
 C27 C -0.12037 0.00446 0.46616
 C28 C -0.08149 0.02711 0.47758
 N29 N -0.08682 -0.00350 0.48965
 H30 H 0.01560 -0.01002 0.48036
 H31 H 0.07996 0.13337 0.50154
 H32 H 0.16138 0.18316 0.48509
 H33 H 0.09586 0.03719 0.46311
 H34 H -0.13509 -0.07967 0.50085
 H35 H -0.20625 -0.12178 0.48191
 H36 H -0.11335 0.02944 0.45646
 H37 H -0.04504 0.06837 0.47647
 C38 C -0.04779 -0.11157 0.53559
 C39 C -0.01606 0.14115 0.53494
 C40 C -0.16565 -0.05044 0.46717
 C41 C 0.13535 0.11439 0.47262
 C42 C 1.17258 0.05931 0.15157
 H43 H 1.18187 0.09803 0.15418
 C44 C 1.20804 0.05670 0.14207
 H45 H 1.24515 0.09376 0.13765
 C46 C 1.11013 -0.03571 0.15332
 H47 H 1.07056 -0.07135 0.15730
 C48 C 1.14468 -0.04020 0.14383
 H49 H 1.13156 -0.07961 0.14067
 N50 N 1.12390 0.01362 0.15666
 C51 C 0.98531 0.04109 0.15384
 H52 H 0.97353 0.03954 0.16485
 C53 C 0.95384 0.04678 0.14254
 H54 H 0.91825 0.04995 0.14499
 C55 C 1.04429 0.03675 0.13720
 H56 H 1.07868 0.03186 0.13496
 C57 C 1.01471 0.04294 0.12570
 H58 H 1.02742 0.04284 0.11489
 Zn59 Zn 1.07044 0.02236 0.16573
 N60 N 1.02924 0.03550 0.15099
 C61 C 1.09762 0.11635 0.17994
 N62 N 1.11217 0.08065 0.17790
 C63 C 1.15563 0.08221 0.18554
 C64 C 1.18411 0.11836 0.19626
 C65 C 1.12553 0.15378 0.19057
 C66 C 0.96155 -0.06720 0.17594
 C67 C 0.92522 -0.10559 0.18653
 C68 C 1.00918 -0.08970 0.19974
 C69 C 1.04373 -0.05203 0.18889
 N70 N 1.01975 -0.03973 0.17760
 H71 H 1.06322 0.11478 0.17372
 H72 H 1.16739 0.05431 0.18355
 H73 H 1.21746 0.11762 0.20245
 H74 H 1.11214 0.18063 0.19245
 H75 H 0.94309 -0.05787 0.16675
 H76 H 0.87911 -0.12503 0.18537
 H77 H 1.02948 -0.09688 0.20895
 H78 H 1.08992 -0.03087 0.18985
 C79 C 0.96825 0.04728 0.12823
 C80 C 1.19319 0.00659 0.13767
 C81 C 0.94917 -0.11559 0.19890
 C82 C 1.16824 0.15386 0.19915
 C83 C 0.07788 0.97235 0.84162
 H84 H 0.07306 0.94636 0.83344
 C85 C 0.12354 0.99052 0.85134
 H86 H 0.15342 0.97855 0.85032
 C87 C 0.04290 1.01642 0.85341
 H88 H 0.01032 1.02511 0.85434
 C89 C 0.08772 1.03507 0.86349
 H90 H 0.08956 1.05859 0.87207
 N91 N 0.03826 0.98490 0.84289
 C92 C -0.13603 0.92489 0.84170
 H93 H -0.13618 0.94765 0.83223
 C94 C -0.17799 0.90786 0.85214
 H95 H -0.20997 0.91752 0.85029
 C96 C -0.09231 0.88776 0.85580
 H97 H -0.05772 0.88146 0.85729
 C98 C -0.13301 0.87065 0.86667
 H99 H -0.12945 0.85059 0.87639
 Zn100 Zn -0.02921 0.95097 0.83132
 N101 N -0.09358 0.91567 0.84380
 C102 C -0.06487 0.84874 0.82053
 N103 N -0.02757 0.90310 0.81947
 C104 C 0.01229 0.92777 0.80884
 C105 C 0.01579 0.89788 0.79866
 C106 C -0.06283 0.81699 0.81050
 C107 C 0.00120 1.05498 0.81928
 C108 C -0.00428 1.08856 0.80904
 C109 C -0.08103 1.00955 0.79773
 C110 C -0.07430 0.97779 0.80813
 N111 N -0.03390 1.00065 0.81865
 H112 H -0.09669 0.83014 0.82899
 H113 H 0.04095 0.97111 0.80818
 H114 H 0.04772 0.91886 0.79026
 H115 H -0.09329 0.77385 0.81132
 H116 H 0.03356 1.07229 0.82763
 H117 H 0.02409 1.13172 0.80962
 H118 H -0.11355 0.99005 0.78948
 H119 H -0.10126 0.93448 0.80782
 C120 C -0.17570 0.88218 0.86514
 C121 C 0.12816 1.02118 0.86270
 C122 C -0.04569 1.06576 0.79802
 C123 C -0.02241 0.84175 0.79927
 C124 C 0.40620 0.00402 -0.00359
 C125 C 0.43040 0.00691 -0.01682
 C126 C 0.47280 -0.00482 -0.01706
 C127 C 0.48973 -0.02079 -0.00430
 C128 C 0.46231 -0.02624 0.00867
 C129 C 0.42182 -0.01256 0.00916
 C130 C 0.53751 -0.02958 -0.00424
 C131 C 0.57500 -0.01553 0.00767
 C132 C 0.61995 -0.02369 0.00810
 C133 C 0.62818 -0.04526 -0.00372
 C134 C 0.59216 -0.05872 -0.01587
 C135 C 0.54665 -0.05108 -0.01602
 H136 H 0.37412 0.01365 -0.00321
 H137 H 0.49352 -0.00019 -0.02712
 H138 H 0.47349 -0.03987 0.01852
 H139 H 0.57011 0.00303 0.01657
 H140 H 0.66320 -0.05115 -0.00350
 H141 H 0.51795 -0.06262 -0.02521
 C142 C -0.05646 0.59208 0.66698
 C143 C -0.04652 0.57131 0.67985
 C144 C -0.04497 0.52525 0.67971
 C145 C -0.05504 0.49857 0.66689
 C146 C -0.06594 0.52004 0.65413
 C147 C -0.06559 0.56714 0.65407
 C148 C -0.05365 0.44906 0.66680
 C149 C -0.04211 0.43389 0.65401
 C150 C -0.04128 0.38746 0.65385
 C151 C -0.05021 0.35665 0.66668
 C152 C -0.06073 0.37112 0.67957
 C153 C -0.06344 0.41658 0.67952
 H154 H -0.05674 0.62816 0.66700
 H155 H -0.03425 0.51157 0.68961
 H156 H -0.07584 0.50002 0.64418
 H157 H -0.03216 0.45857 0.64415
 H158 H -0.04876 0.32119 0.66664
 H159 H -0.07441 0.42549 0.68944
 C160 C 0.62311 0.67927 0.33420
 C161 C 0.60925 0.64727 0.32244
 C162 C 0.56158 0.59390 0.32335
 C163 C 0.52699 0.57226 0.33574
 C164 C 0.54126 0.60529 0.34735
 C165 C 0.58958 0.65864 0.34674
 C166 C 0.47753 0.51478 0.33662
 C167 C 0.46317 0.48373 0.34974
 C168 C 0.41936 0.42866 0.35035
 C169 C 0.39068 0.40448 0.33763
 C170 C 0.40389 0.43455 0.32449
 C171 C 0.44623 0.48983 0.32413
 H172 H 0.66034 0.72030 0.33358
 H173 H 0.55272 0.56869 0.31452
 H174 H 0.51460 0.58959 0.35687
 H175 H 0.48718 0.50182 0.35942
 H176 H 0.35725 0.36196 0.33797
 H177 H 0.45571 0.51312 0.31401
 C178 C -0.01168 0.23255 0.56782
 N179 N -0.04481 0.22481 0.55593
 N180 N -0.04595 0.19631 0.54536
 C181 C -0.01393 0.17463 0.54628
 N182 N 0.01940 0.18293 0.55814
 N183 N 0.02042 0.21116 0.56869
 C184 C -0.01193 0.26125 0.57994
 N185 N 0.01527 0.26138 0.59237
 N186 N 0.01355 0.28505 0.60372
 C187 C -0.01510 0.30987 0.60307
 N188 N -0.04190 0.31034 0.59059
 N189 N -0.04046 0.28632 0.57922
 C190 C -0.01928 0.33294 0.61599
 N191 N -0.04156 0.36353 0.61543
 N192 N -0.04727 0.38213 0.62740
 C193 C -0.03135 0.37043 0.64037
 N194 N -0.00878 0.34013 0.64086
 N195 N -0.00264 0.32196 0.62891
 C196 C 0.84660 0.79873 0.23504
 N197 N 0.90482 0.82945 0.23616
 N198 N 0.93724 0.85512 0.22457
 C199 C 0.91281 0.85134 0.21141
 N200 N 0.85445 0.82014 0.21029
 N201 N 0.82196 0.79413 0.22188
 C202 C 0.81116 0.77352 0.24802
 N203 N 0.75341 0.73748 0.24706
 N204 N 0.72133 0.71633 0.25889
 C205 C 0.74578 0.73087 0.27210
 N206 N 0.80350 0.76687 0.27305
 N207 N 0.83560 0.78767 0.26123
 C208 C 0.71041 0.70890 0.28515
 N209 N 0.73274 0.73102 0.29796
 N210 N 0.70058 0.71163 0.30979
 C211 C 0.64496 0.66909 0.30929
 N212 N 0.62277 0.64689 0.29646
 N213 N 0.65479 0.66655 0.28461
 C214 C 0.24516 0.04899 -0.10374
 N215 N 0.24764 0.02929 -0.11616
 N216 N 0.21172 0.02216 -0.12697
 C217 C 0.17188 0.03447 -0.12583
 N218 N 0.17018 0.05511 -0.11347
 N219 N 0.20607 0.06218 -0.10263
 C220 C 0.28080 0.05169 -0.09132
 N221 N 0.27415 0.06613 -0.07844
 N222 N 0.30279 0.06413 -0.06688
 C223 C 0.33918 0.04765 -0.06775
 N224 N 0.34645 0.03390 -0.08068
 N225 N 0.31774 0.03585 -0.09224
 C226 C 0.36674 0.04109 -0.05472
 N227 N 0.40194 0.02315 -0.05537
 N228 N 0.42339 0.01353 -0.04338
 C229 C 0.41030 0.02127 -0.03028
 N230 N 0.37562 0.03982 -0.02971
 N231 N 0.35431 0.04956 -0.04167
 C232 C -0.06759 0.77550 0.56827
 N233 N -0.03246 0.78767 0.55694
 N234 N -0.02636 0.82317 0.54646
 C235 C -0.05526 0.84770 0.54690
 N236 N -0.09061 0.83503 0.55821
 N237 N -0.09655 0.79981 0.56868
 C238 C -0.07267 0.73870 0.58029
 N239 N -0.10143 0.73354 0.59232
 N240 N -0.10419 0.70239 0.60360
 C241 C -0.07866 0.67486 0.60325
 N242 N -0.05038 0.67945 0.59114
 N243 N -0.04733 0.71093 0.57986
 C244 C -0.07884 0.64360 0.61613
 N245 N -0.05902 0.61120 0.61574
 N246 N -0.05640 0.58550 0.62772
 C247 C -0.07310 0.59159 0.64054
 N248 N -0.09335 0.62365 0.64085
 N249 N -0.09639 0.64895 0.62888
 C250 C 0.23724 0.24540 0.23548
 N251 N 0.23880 0.20140 0.23414
 N252 N 0.21765 0.17317 0.22248
 C253 C 0.19367 0.18748 0.21170
 N254 N 0.19197 0.23159 0.21302
 N255 N 0.21367 0.26024 0.22468
 C256 C 0.25973 0.27492 0.24864
 N257 N 0.27082 0.32502 0.24941
 N258 N 0.29225 0.35129 0.26146
 C259 C 0.30274 0.32809 0.27315
 N260 N 0.29124 0.27797 0.27236
 N261 N 0.27039 0.25201 0.26032
 C262 C 0.32686 0.35618 0.28648
 N263 N 0.32714 0.32851 0.29861
 N264 N 0.35072 0.35345 0.31068
 C265 C 0.37538 0.40718 0.31112
 N266 N 0.37504 0.43496 0.29897
 N267 N 0.35100 0.40988 0.28688
 C268 C 0.72493 -0.13637 -0.10052
 N269 N 0.76338 -0.15078 -0.09902
 N270 N 0.79402 -0.14669 -0.11022
 C271 C 0.78774 -0.12771 -0.12337
 N272 N 0.74819 -0.11452 -0.12487
 N273 N 0.71744 -0.11876 -0.11369
 C274 C 0.69596 -0.13498 -0.08791
 N275 N 0.65878 -0.11904 -0.08941
 N276 N 0.63676 -0.11272 -0.07790
 C277 C 0.65127 -0.12193 -0.06446
 N278 N 0.68782 -0.13856 -0.06296
 N279 N 0.70972 -0.14501 -0.07446
 C280 C 0.63172 -0.10991 -0.05175
 N281 N 0.65318 -0.11182 -0.03856
 N282 N 0.63948 -0.09673 -0.02716
 C283 C 0.60366 -0.07920 -0.02844
 N284 N 0.58141 -0.07814 -0.04163
 N285 N 0.59531 -0.09306 -0.05307
 C286 C 0.27332 -0.00103 0.10173
 N287 N 0.28094 0.04590 0.10505
 N288 N 0.25708 0.04843 0.11676
 C289 C 0.22431 0.00409 0.12560
 N290 N 0.21708 -0.04290 0.12234
 N291 N 0.24140 -0.04536 0.11065
 C292 C 0.29645 -0.00384 0.08822
 N293 N 0.29880 -0.04672 0.08562
 N294 N 0.31857 -0.04911 0.07310
 C295 C 0.33596 -0.00904 0.06271
 N296 N 0.33346 0.03366 0.06532
 N297 N 0.31429 0.03630 0.07786
 C298 C 0.35685 -0.01144 0.04878
 N299 N 0.36080 0.02159 0.03749
 N300 N 0.38054 0.02049 0.02486
 C301 C 0.39758 -0.01338 0.02305
 N302 N 0.39366 -0.04645 0.03437
 N303 N 0.37334 -0.04572 0.04699
 C304 C 0.73905 0.87208 0.43212
 N305 N 0.78030 0.92552 0.43103
 N306 N 0.81019 0.95132 0.44258
 C307 C 0.80048 0.92471 0.45569
 N308 N 0.75813 0.87136 0.45673
 N309 N 0.72808 0.84563 0.44521
 C310 C 0.71004 0.84231 0.41923
 N311 N 0.66840 0.78896 0.42046
 N312 N 0.64539 0.76078 0.40880
 C313 C 0.66336 0.78485 0.39547
 N314 N 0.70456 0.83833 0.39423
 N315 N 0.72743 0.86656 0.40590
 C316 C 0.64139 0.75289 0.38267
 N317 N 0.66494 0.77546 0.36957
 N318 N 0.64776 0.74572 0.35814
 C319 C 0.60628 0.69226 0.35932
 N320 N 0.58229 0.66992 0.37243
 N321 N 0.59960 0.69960 0.38388
 C322 C -0.06217 0.15982 0.76513
 N323 N -0.09075 0.10578 0.76447
 N324 N -0.08571 0.07625 0.77499
 C325 C -0.05168 0.09944 0.78660
 N326 N -0.02307 0.15366 0.78730
 N327 N -0.02827 0.18332 0.77676
 C328 C -0.06664 0.19174 0.75310
 N329 N -0.04215 0.24543 0.75373
 N330 N -0.04505 0.27395 0.74246
 C331 C -0.07233 0.24975 0.73018
 N332 N -0.09696 0.19611 0.72961
 N333 N -0.09435 0.16764 0.74087
 C334 C -0.07261 0.28095 0.71733
 N335 N -0.08921 0.25790 0.70449
 N336 N -0.08653 0.28636 0.69257
 C337 C -0.06764 0.33892 0.69303
 N338 N -0.05187 0.36183 0.70594
 N339 N -0.05411 0.33341 0.71788
 C340 C 0.86956 0.04663 0.09287
 N341 N 0.85167 0.04337 0.10646
 N342 N 0.88349 0.04489 0.11777
 C343 C 0.93429 0.04967 0.11588
 N344 N 0.95219 0.05364 0.10225
 N345 N 0.92055 0.05214 0.09099
 C346 C 0.83354 0.04117 0.08028
 N347 N 0.85073 0.03965 0.06702
 N348 N 0.81741 0.03178 0.05556
 C349 C 0.76560 0.02524 0.05690
 N350 N 0.74847 0.02724 0.07015
 N351 N 0.78182 0.03496 0.08165
 C352 C 0.72826 0.01415 0.04424
 N353 N 0.67774 0.01059 0.04506
 N354 N 0.64358 -0.00091 0.03356
 C355 C 0.65844 -0.00958 0.02083
 N356 N 0.70908 -0.00587 0.02006
 N357 N 0.74333 0.00585 0.03152
 C358 C 0.25153 0.20581 0.43909
 N359 N 0.21370 0.15197 0.43827
 N360 N 0.17824 0.12254 0.44913
 C361 C 0.17915 0.14579 0.46124
 N362 N 0.21785 0.19954 0.46213
 N363 N 0.25333 0.22897 0.45128
 C364 C 0.28596 0.23905 0.42652
 N365 N 0.32093 0.29336 0.42699
 N366 N 0.34784 0.32389 0.41520
 C367 C 0.34065 0.30119 0.40250
 N368 N 0.30635 0.24686 0.40209
 N369 N 0.27953 0.21636 0.41388
 C370 C 0.36544 0.33464 0.38917
 N371 N 0.35172 0.31136 0.37637
 N372 N 0.36999 0.34134 0.36411
 C373 C 0.40282 0.39584 0.36413
 N374 N 0.41736 0.41916 0.37698
 N375 N 0.39887 0.38912 0.38927
 C376 C -0.01946 0.75514 0.76612
 N377 N -0.05251 0.72863 0.77794
 N378 N -0.05326 0.75584 0.78859
 C379 C -0.02085 0.81052 0.78783
 N380 N 0.01236 0.83665 0.77604
 N381 N 0.01296 0.80960 0.76540
 C382 C -0.01999 0.72636 0.75391
 N383 N 0.00654 0.75441 0.74150
 N384 N 0.00482 0.72918 0.73010
 C385 C -0.02313 0.67489 0.73068
 N386 N -0.04929 0.64666 0.74315
 N387 N -0.04788 0.67196 0.75456
 C388 C -0.02699 0.64776 0.71774
 N389 N -0.04764 0.59454 0.71827
 N390 N -0.05268 0.57031 0.70629
 C391 C -0.03769 0.59832 0.69333
 N392 N -0.01680 0.65154 0.69287
 N393 N -0.01132 0.67580 0.70483
   
