data_POSCAR
  _audit_creation_date              2014-09-24
  _audit_creation_method            'ToBaCCo'
  _symmetry_space_group_name_H-M    'P1'
  _symmetry_Int_Tables_number       1
  _symmetry_cell_setting            triclinic
  loop_
  _symmetry_equiv_pos_as_xyz
 x,y,z
_cell_length_a 65.5793
_cell_length_b 66.5422
_cell_length_c 66.3224
_cell_angle_alpha 89.899400
_cell_angle_beta 89.415500
_cell_angle_gamma 90.100100
loop_
  _atom_site_label
  _atom_site_type_symbol
  _atom_site_fract_x
  _atom_site_fract_y
  _atom_site_fract_z
N1 N 0.27225 0.23483 0.21886
 N2 N 0.26287 0.25018 0.21059
 C3 C 0.27317 0.25581 0.19382
 C4 C 0.28979 0.24327 0.19153
 C5 C 0.28875 0.23013 0.20764
 H6 H 0.26907 0.26819 0.18409
 H7 H 0.29938 0.21822 0.21107
 Cu8 Cu 0.23844 0.26141 0.22297
 Cu9 Cu 0.26282 0.22240 0.24388
 Cu10 Cu 0.21954 0.24277 0.26632
 N11 N 0.21393 0.27248 0.23533
 N12 N 0.20689 0.26537 0.25256
 C13 C 0.19026 0.27587 0.25814
 C14 C 0.18663 0.29023 0.24356
 C15 C 0.20190 0.28769 0.22928
 H16 H 0.18140 0.27324 0.27174
 H17 H 0.20414 0.29644 0.21568
 N18 N 0.23447 0.21984 0.27780
 N19 N 0.25088 0.21201 0.26922
 C20 C 0.25730 0.19640 0.28045
 C21 C 0.24427 0.19434 0.29680
 C22 C 0.23000 0.20940 0.29469
 H23 H 0.27037 0.18711 0.27698
 H24 H 0.21724 0.21237 0.30468
 H25 H 0.23250 0.22995 0.24092
 H26 H 0.24880 0.24772 0.25540
 N27 N 0.71914 -0.24003 0.22359
 N28 N 0.72696 -0.25692 0.21685
 C29 C 0.71654 -0.26294 0.20054
 C30 C 0.70132 -0.24903 0.19698
 C31 C 0.70338 -0.23471 0.21192
 H32 H 0.71978 -0.27640 0.19197
 H33 H 0.69413 -0.22143 0.21417
 Cu34 Cu 0.74986 -0.26957 0.23014
 Cu35 Cu 0.72969 -0.22665 0.24732
 Cu36 Cu 0.77908 -0.24027 0.25958
 N37 N 0.77738 -0.27712 0.23721
 N38 N 0.78922 -0.26513 0.24764
 C39 C 0.80761 -0.27386 0.24975
 C40 C 0.80706 -0.29239 0.24032
 C41 C 0.78765 -0.29397 0.23253
 H42 H 0.82015 -0.26755 0.25813
 H43 H 0.78148 -0.30642 0.22406
 N44 N 0.76555 -0.21601 0.27036
 N45 N 0.74659 -0.21114 0.26598
 C46 C 0.74120 -0.19475 0.27661
 C47 C 0.75748 -0.18915 0.28838
 C48 C 0.77267 -0.20290 0.28407
 H49 H 0.72635 -0.18772 0.27624
 H50 H 0.78753 -0.20365 0.29094
 H51 H 0.75808 -0.23468 0.23713
 H52 H 0.74898 -0.24813 0.26024
 N53 N 0.72950 0.23292 0.78060
 N54 N 0.74034 0.24660 0.78998
 C55 C 0.73019 0.25249 0.80671
 C56 C 0.71209 0.24185 0.80783
 C57 C 0.71215 0.22958 0.79106
 H58 H 0.73552 0.26370 0.81722
 H59 H 0.70034 0.21912 0.78673
 Cu60 Cu 0.76660 0.25554 0.77946
 Cu61 Cu 0.73849 0.22063 0.75547
 Cu62 Cu 0.78125 0.24136 0.73276
 N63 N 0.78848 0.26920 0.76496
 N64 N 0.79384 0.26391 0.74657
 C65 C 0.80911 0.27590 0.74008
 C66 C 0.81361 0.28935 0.75529
 C67 C 0.80023 0.28469 0.77088
 H68 H 0.81654 0.27479 0.72549
 H69 H 0.79905 0.29207 0.78537
 N70 N 0.76640 0.21837 0.72130
 N71 N 0.75010 0.21040 0.73002
 C72 C 0.74367 0.19475 0.71888
 C73 C 0.75659 0.19280 0.70243
 C74 C 0.77081 0.20798 0.70441
 H75 H 0.73071 0.18531 0.72253
 H76 H 0.78354 0.21105 0.69437
 H77 H 0.76943 0.22622 0.75760
 H78 H 0.75332 0.24667 0.74664
 N79 N 0.27671 -0.23650 0.77987
 N80 N 0.27008 -0.25447 0.78499
 C81 C 0.28151 -0.26162 0.80016
 C82 C 0.29606 -0.24733 0.80471
 C83 C 0.29262 -0.23161 0.79155
 H84 H 0.27927 -0.27601 0.80747
 H85 H 0.30094 -0.21758 0.79069
 Cu86 Cu 0.24693 -0.26675 0.77178
 Cu87 Cu 0.26404 -0.22070 0.75873
 Cu88 Cu 0.21802 -0.23847 0.74111
 N89 N 0.21959 -0.27483 0.76432
 N90 N 0.20795 -0.26335 0.75312
 C91 C 0.18980 -0.27247 0.75062
 C92 C 0.19028 -0.29075 0.76057
 C93 C 0.20940 -0.29176 0.76911
 H94 H 0.17747 -0.26659 0.74167
 H95 H 0.21544 -0.30391 0.77810
 N96 N 0.23099 -0.21374 0.73076
 N97 N 0.24867 -0.20707 0.73738
 C98 C 0.25413 -0.19067 0.72667
 C99 C 0.23921 -0.18693 0.71264
 C100 C 0.22475 -0.20178 0.71563
 H101 H 0.26817 -0.18237 0.72854
 H102 H 0.21105 -0.20404 0.70698
 H103 H 0.23576 -0.23255 0.76601
 H104 H 0.24911 -0.24351 0.74343
 N105 N 0.72887 -0.23269 0.78240
 N106 N 0.73825 -0.24818 0.79041
 C107 C 0.72866 -0.25338 0.80770
 C108 C 0.71247 -0.24041 0.81067
 C109 C 0.71302 -0.22746 0.79434
 H110 H 0.73301 -0.26574 0.81735
 H111 H 0.70247 -0.21541 0.79116
 Cu112 Cu 0.76171 -0.26032 0.77709
 Cu113 Cu 0.73730 -0.22151 0.75642
 Cu114 Cu 0.78709 -0.23329 0.74239
 N115 N 0.78519 -0.27128 0.76282
 N116 N 0.79531 -0.26059 0.74934
 C117 C 0.81143 -0.27128 0.74260
 C118 C 0.81129 -0.28968 0.75240
 C119 C 0.79442 -0.28917 0.76507
 H120 H 0.82250 -0.26595 0.73161
 H121 H 0.78946 -0.30084 0.77539
 N122 N 0.77185 -0.21058 0.73078
 N123 N 0.75266 -0.20668 0.73551
 C124 C 0.74617 -0.19117 0.72422
 C125 C 0.76205 -0.18503 0.71183
 C126 C 0.77812 -0.19761 0.71637
 H127 H 0.73102 -0.18480 0.72496
 H128 H 0.79306 -0.19766 0.70932
 H129 H 0.75790 -0.24293 0.74494
 H130 H 0.76629 -0.22574 0.76545
 N131 N 0.27062 0.23070 0.78720
 N132 N 0.26303 0.24793 0.79337
 C133 C 0.27395 0.25458 0.80913
 C134 C 0.28903 0.24069 0.81309
 C135 C 0.28649 0.22572 0.79892
 H136 H 0.27107 0.26836 0.81730
 H137 H 0.29558 0.21227 0.79721
 Cu138 Cu 0.23920 0.25957 0.78059
 Cu139 Cu 0.25957 0.21620 0.76424
 Cu140 Cu 0.21702 0.23672 0.74133
 N141 N 0.21537 0.27099 0.76761
 N142 N 0.20671 0.26195 0.75229
 C143 C 0.19062 0.27289 0.74623
 C144 C 0.18911 0.28962 0.75847
 C145 C 0.20501 0.28796 0.77187
 H146 H 0.18074 0.26897 0.73389
 H147 H 0.20870 0.29836 0.78380
 N148 N 0.22975 0.21136 0.73240
 N149 N 0.24620 0.20379 0.74084
 C150 C 0.25172 0.18702 0.73083
 C151 C 0.23800 0.18384 0.71551
 C152 C 0.22425 0.19947 0.71694
 H153 H 0.26478 0.17781 0.73432
 H154 H 0.21146 0.20216 0.70714
 H155 H 0.24697 0.24079 0.74990
 H156 H 0.23004 0.22651 0.76763
 N157 N 0.27138 -0.23088 0.21857
 N158 N 0.26552 -0.24934 0.21459
 C159 C 0.27625 -0.25627 0.19864
 C160 C 0.28943 -0.24127 0.19225
 C161 C 0.28595 -0.22536 0.20520
 H162 H 0.27453 -0.27104 0.19210
 H163 H 0.29357 -0.21093 0.20500
 Cu164 Cu 0.24428 -0.26258 0.23035
 Cu165 Cu 0.26002 -0.21574 0.24114
 Cu166 Cu 0.21755 -0.23612 0.26492
 N167 N 0.21835 -0.27211 0.24110
 N168 N 0.20792 -0.26181 0.25459
 C169 C 0.19087 -0.27207 0.25957
 C170 C 0.19062 -0.28968 0.24854
 C171 C 0.20825 -0.28921 0.23695
 H172 H 0.17952 -0.26715 0.27043
 H173 H 0.21338 -0.30053 0.22638
 N174 N 0.22987 -0.21037 0.27309
 N175 N 0.24633 -0.20281 0.26429
 C176 C 0.25172 -0.18584 0.27393
 C177 C 0.23790 -0.18253 0.28941
 C178 C 0.22423 -0.19830 0.28844
 H179 H 0.26484 -0.17666 0.27016
 H180 H 0.21148 -0.20103 0.29855
 H181 H 0.24821 -0.23930 0.25841
 H182 H 0.23165 -0.22917 0.23793
 N183 N 0.72780 0.23133 0.21525
 N184 N 0.73367 0.24976 0.21098
 C185 C 0.72293 0.25661 0.19520
 C186 C 0.70972 0.24159 0.18923
 C187 C 0.71321 0.22575 0.20225
 H188 H 0.72466 0.27134 0.18848
 H189 H 0.70559 0.21132 0.20233
 Cu190 Cu 0.75492 0.26311 0.22615
 Cu191 Cu 0.73926 0.21622 0.23760
 Cu192 Cu 0.78177 0.23674 0.26023
 N193 N 0.78076 0.27280 0.23641
 N194 N 0.79126 0.26249 0.24966
 C195 C 0.80830 0.27278 0.25421
 C196 C 0.80847 0.29041 0.24315
 C197 C 0.79079 0.28994 0.23200
 H198 H 0.81971 0.26785 0.26478
 H199 H 0.78560 0.30127 0.22153
 N200 N 0.76963 0.21093 0.26877
 N201 N 0.75311 0.20335 0.26045
 C202 C 0.74786 0.18633 0.27026
 C203 C 0.76184 0.18301 0.28533
 C204 C 0.77545 0.19882 0.28395
 H205 H 0.73474 0.17712 0.26687
 H206 H 0.78829 0.20155 0.29368
 H207 H 0.75102 0.23982 0.25437
 H208 H 0.76751 0.22967 0.23353
 C209 C 0.24934 0.01092 0.50300
 C210 C 0.24923 -0.00941 0.50142
 C211 C 0.24859 -0.02264 0.51943
 C212 C 0.24862 -0.01959 0.48161
 C213 C 0.24899 0.02422 0.48504
 C214 C 0.24877 0.02107 0.52284
 C215 C 0.26402 -0.02204 0.53393
 C216 C 0.26316 -0.03482 0.55070
 C217 C 0.24689 -0.04847 0.55318
 C218 C 0.23158 -0.04904 0.53851
 C219 C 0.23248 -0.03632 0.52179
 C220 C 0.26522 -0.03129 0.47531
 C221 C 0.26437 -0.04210 0.45732
 C222 C 0.24667 -0.04176 0.44553
 C223 C 0.23006 -0.02990 0.45185
 C224 C 0.23108 -0.01879 0.46970
 C225 C 0.23327 0.03831 0.48318
 C226 C 0.23297 0.05155 0.46687
 C227 C 0.24848 0.05107 0.45208
 C228 C 0.26423 0.03686 0.45393
 C229 C 0.26451 0.02357 0.47032
 C230 C 0.23121 0.02032 0.53508
 C231 C 0.23025 0.03140 0.55297
 C232 C 0.24694 0.04319 0.55899
 C233 C 0.26467 0.04345 0.54690
 C234 C 0.26547 0.03267 0.52887
 H235 H 0.27677 -0.01181 0.53217
 H236 H 0.27526 -0.03405 0.56165
 H237 H 0.21887 -0.05938 0.53986
 H238 H 0.22046 -0.03705 0.51073
 H239 H 0.27879 -0.03216 0.48445
 H240 H 0.27735 -0.05120 0.45295
 H241 H 0.21805 -0.00998 0.47451
 H242 H 0.22118 0.03907 0.49440
 H243 H 0.22060 0.06225 0.46597
 H244 H 0.27645 0.03613 0.44286
 H245 H 0.27696 0.01301 0.47168
 H246 H 0.21812 0.01157 0.53050
 H247 H 0.21642 0.03087 0.56200
 H248 H 0.27772 0.05247 0.55105
 H249 H 0.27907 0.03348 0.51948
 H250 H 0.21624 -0.02933 0.44308
 C251 C 0.75268 0.00866 0.49741
 C252 C 0.75252 -0.01170 0.49874
 C253 C 0.75295 -0.02458 0.48053
 C254 C 0.75282 -0.02226 0.51840
 C255 C 0.75306 0.02173 0.51550
 C256 C 0.75321 0.01906 0.47765
 C257 C 0.73724 -0.02388 0.46633
 C258 C 0.73787 -0.03635 0.44937
 C259 C 0.75421 -0.04975 0.44636
 C260 C 0.76983 -0.05040 0.46071
 C261 C 0.76914 -0.03801 0.47765
 C262 C 0.73635 -0.03457 0.52397
 C263 C 0.73686 -0.04562 0.54187
 C264 C 0.75406 -0.04489 0.55433
 C265 C 0.77053 -0.03240 0.54874
 C266 C 0.76986 -0.02110 0.53095
 C267 C 0.76875 0.03590 0.51742
 C268 C 0.76903 0.04903 0.53378
 C269 C 0.75351 0.04839 0.54856
 C270 C 0.73784 0.03404 0.54670
 C271 C 0.73759 0.02086 0.53026
 C272 C 0.77078 0.01862 0.46542
 C273 C 0.77161 0.02979 0.44754
 C274 C 0.75478 0.04135 0.44152
 C275 C 0.73705 0.04131 0.45362
 C276 C 0.73638 0.03044 0.47164
 H277 H 0.72446 -0.01381 0.46847
 H278 H 0.72556 -0.03550 0.43865
 H279 H 0.78260 -0.06056 0.45895
 H280 H 0.78135 -0.03880 0.48850
 H281 H 0.72314 -0.03571 0.51436
 H282 H 0.72398 -0.05516 0.54566
 H283 H 0.78280 -0.01181 0.52672
 H284 H 0.78082 0.03684 0.50619
 H285 H 0.78136 0.05982 0.53470
 H286 H 0.72563 0.03316 0.55777
 H287 H 0.72516 0.01023 0.52887
 H288 H 0.78395 0.01001 0.46998
 H289 H 0.78545 0.02949 0.43850
 H290 H 0.72389 0.05014 0.44947
 H291 H 0.72276 0.03098 0.48101
 H292 H 0.78397 -0.03148 0.55804
 C293 C 0.50028 0.25437 -0.01055
 C294 C 0.50142 0.25443 0.00987
 C295 C 0.48294 0.25361 0.02290
 C296 C 0.52121 0.25408 0.02042
 C297 C 0.51874 0.25367 -0.02364
 C298 C 0.48045 0.25381 -0.02103
 C299 C 0.46793 0.26859 0.02213
 C300 C 0.45089 0.26765 0.03498
 C301 C 0.44867 0.25176 0.04888
 C302 C 0.46380 0.23683 0.04953
 C303 C 0.48075 0.23780 0.03673
 C304 C 0.52667 0.27035 0.03262
 C305 C 0.54444 0.26964 0.04400
 C306 C 0.55686 0.25244 0.04373
 C307 C 0.55144 0.23621 0.03129
 C308 C 0.53378 0.23707 0.01966
 C309 C 0.52074 0.23810 -0.03772
 C310 C 0.53757 0.23733 -0.05067
 C311 C 0.55281 0.25220 -0.04992
 C312 C 0.55086 0.26778 -0.03571
 C313 C 0.53391 0.26855 -0.02272
 C314 C 0.46816 0.23654 -0.02042
 C315 C 0.45042 0.23554 -0.03192
 C316 C 0.44459 0.25190 -0.04404
 C317 C 0.45672 0.26935 -0.04414
 C318 C 0.47459 0.27019 -0.03291
 H319 H 0.46953 0.28109 0.01175
 H320 H 0.43957 0.27944 0.03414
 H321 H 0.46265 0.22439 0.06003
 H322 H 0.49219 0.22611 0.03758
 H323 H 0.51700 0.28351 0.03349
 H324 H 0.54810 0.28234 0.05349
 H325 H 0.52960 0.22428 0.01049
 H326 H 0.50922 0.22646 -0.03867
 H327 H 0.53855 0.22508 -0.06136
 H328 H 0.56229 0.27950 -0.03477
 H329 H 0.53248 0.28088 -0.01216
 H330 H 0.47263 0.22368 -0.01146
 H331 H 0.44138 0.22191 -0.03150
 H332 H 0.45273 0.28216 -0.05339
 H333 H 0.48403 0.28356 -0.03364
 H334 H 0.56071 0.22277 0.03073
 C335 C 0.49911 0.74548 0.01057
 C336 C 0.50080 0.74573 -0.00982
 C337 C 0.48268 0.74622 -0.02299
 C338 C 0.52089 0.74654 -0.02018
 C339 C 0.51725 0.74618 0.02370
 C340 C 0.47903 0.74568 0.02100
 C341 C 0.46822 0.73064 -0.02269
 C342 C 0.45168 0.73108 -0.03585
 C343 C 0.44937 0.74709 -0.04954
 C344 C 0.46385 0.76270 -0.04960
 C345 C 0.48036 0.76221 -0.03654
 C346 C 0.52751 0.73001 -0.03152
 C347 C 0.54561 0.73109 -0.04275
 C348 C 0.55714 0.74892 -0.04323
 C349 C 0.55057 0.76541 -0.03162
 C350 C 0.53263 0.76416 -0.02006
 C351 C 0.51923 0.76200 0.03746
 C352 C 0.53572 0.76268 0.05054
 C353 C 0.55055 0.74743 0.05026
 C354 C 0.54857 0.73159 0.03637
 C355 C 0.53202 0.73096 0.02321
 C356 C 0.46642 0.76266 0.02019
 C357 C 0.44852 0.76346 0.03182
 C358 C 0.44287 0.74721 0.04431
 C359 C 0.45529 0.73000 0.04455
 C360 C 0.47331 0.72935 0.03317
 H361 H 0.46992 0.71805 -0.01248
 H362 H 0.44082 0.71881 -0.03541
 H363 H 0.46260 0.77527 -0.05990
 H364 H 0.49136 0.77437 -0.03699
 H365 H 0.51850 0.71636 -0.03186
 H366 H 0.55020 0.71819 -0.05162
 H367 H 0.52758 0.77711 -0.01150
 H368 H 0.50795 0.77385 0.03810
 H369 H 0.53670 0.77509 0.06101
 H370 H 0.55967 0.71957 0.03580
 H371 H 0.53056 0.71846 0.01289
 H372 H 0.47077 0.77549 0.01103
 H373 H 0.43925 0.77689 0.03125
 H374 H 0.45144 0.71726 0.05405
 H375 H 0.48298 0.71620 0.03405
 H376 H 0.55917 0.77931 -0.03163
 C377 C 0.00903 0.50063 0.24981
 C378 C -0.01169 0.50124 0.24931
 C379 C -0.02347 0.52034 0.24936
 C380 C -0.02401 0.48250 0.24820
 C381 C 0.02015 0.48128 0.24930
 C382 C 0.02195 0.51896 0.25015
 C383 C -0.04040 0.52209 0.26237
 C384 C -0.05312 0.53880 0.26139
 C385 C -0.04902 0.55433 0.24760
 C386 C -0.03178 0.55297 0.23494
 C387 C -0.01929 0.53593 0.23556
 C388 C -0.03744 0.47987 0.23211
 C389 C -0.05011 0.46304 0.23132
 C390 C -0.04971 0.44847 0.24670
 C391 C -0.03611 0.45105 0.26278
 C392 C -0.02343 0.46798 0.26357
 C393 C 0.02032 0.46933 0.23190
 C394 C 0.03200 0.45177 0.23120
 C395 C 0.04350 0.44583 0.24797
 C396 C 0.04295 0.45771 0.26547
 C397 C 0.03155 0.47539 0.26603
 C398 C 0.03704 0.52141 0.23522
 C399 C 0.04996 0.53804 0.23540
 C400 C 0.04821 0.55264 0.25062
 C401 C 0.03302 0.55023 0.26560
 C402 C 0.02005 0.53346 0.26542
 H403 H -0.04402 0.51025 0.27306
 H404 H -0.06628 0.53953 0.27137
 H405 H -0.02847 0.56467 0.22401
 H406 H -0.00675 0.53470 0.22490
 H407 H -0.03820 0.49099 0.22019
 H408 H -0.06037 0.46159 0.21872
 H409 H -0.01347 0.46995 0.27633
 H410 H 0.01173 0.47382 0.21878
 H411 H 0.03210 0.44290 0.21752
 H412 H 0.05175 0.45363 0.27858
 H413 H 0.03166 0.48457 0.27951
 H414 H 0.03879 0.51040 0.22332
 H415 H 0.06141 0.53937 0.22360
 H416 H 0.03130 0.56114 0.27758
 H417 H 0.00869 0.53167 0.27725
 H418 H -0.03549 0.44020 0.27493
 C419 C -0.00994 0.50041 0.74632
 C420 C 0.01077 0.50107 0.74727
 C421 C 0.02305 0.48234 0.74856
 C422 C 0.02252 0.52023 0.74771
 C423 C -0.02288 0.51870 0.74594
 C424 C -0.02108 0.48102 0.74677
 C425 C 0.03615 0.47964 0.76491
 C426 C 0.04867 0.46275 0.76598
 C427 C 0.04846 0.44818 0.75064
 C428 C 0.03517 0.45084 0.73431
 C429 C 0.02264 0.46782 0.73324
 C430 C 0.01798 0.53559 0.76159
 C431 C 0.03038 0.55270 0.76267
 C432 C 0.04790 0.55435 0.75042
 C433 C 0.05239 0.53903 0.73658
 C434 C 0.03975 0.52225 0.73513
 C435 C -0.02064 0.53352 0.73096
 C436 C -0.03369 0.55020 0.73071
 C437 C -0.04927 0.55221 0.74534
 C438 C -0.05132 0.53732 0.76029
 C439 C -0.03833 0.52080 0.76055
 C440 C -0.03242 0.47513 0.72999
 C441 C -0.04403 0.45754 0.73061
 C442 C -0.04485 0.44573 0.74821
 C443 C -0.03334 0.45164 0.76499
 C444 C -0.02147 0.46911 0.76424
 H445 H 0.03676 0.49074 0.77682
 H446 H 0.05867 0.46125 0.77878
 H447 H 0.03466 0.43997 0.72220
 H448 H 0.01289 0.46981 0.72031
 H449 H 0.00521 0.53412 0.77196
 H450 H 0.02678 0.56422 0.77365
 H451 H 0.04366 0.51058 0.72441
 H452 H -0.00898 0.53205 0.71938
 H453 H -0.03173 0.56137 0.71896
 H454 H -0.06305 0.53833 0.77184
 H455 H -0.04033 0.50957 0.77225
 H456 H -0.03236 0.48428 0.71646
 H457 H -0.05280 0.45347 0.71749
 H458 H -0.03363 0.44284 0.77874
 H459 H -0.01296 0.47361 0.77739
 H460 H 0.06577 0.54000 0.72691
 C461 C 0.33524 0.24546 0.14696
 N462 N 0.33549 0.23105 0.16146
 N463 N 0.32095 0.23034 0.17560
 C464 C 0.30562 0.24400 0.17574
 N465 N 0.30532 0.25840 0.16121
 N466 N 0.31989 0.25913 0.14707
 C467 C 0.35153 0.24631 0.13165
 N468 N 0.35200 0.26110 0.11751
 N469 N 0.36707 0.26193 0.10388
 C470 C 0.38216 0.24798 0.10392
 N471 N 0.38161 0.23318 0.11801
 N472 N 0.36659 0.23236 0.13162
 C473 C 0.39905 0.24893 0.08927
 N474 N 0.41379 0.23467 0.08947
 N475 N 0.42941 0.23557 0.07654
 C476 C 0.43097 0.25075 0.06290
 N477 N 0.41614 0.26501 0.06268
 N478 N 0.40047 0.26412 0.07563
 C479 C 0.65856 0.75000 0.15220
 N480 N 0.67265 0.73515 0.15355
 N481 N 0.68656 0.73546 0.16805
 C482 C 0.68688 0.75063 0.18174
 N483 N 0.67278 0.76547 0.18035
 N484 N 0.65888 0.76516 0.16586
 C485 C 0.64308 0.74969 0.13637
 N486 N 0.62909 0.76464 0.13522
 N487 N 0.61486 0.76436 0.12106
 C488 C 0.61407 0.74912 0.10751
 N489 N 0.62808 0.73417 0.10862
 N490 N 0.64234 0.73445 0.12279
 C491 C 0.59803 0.74877 0.09224
 N492 N 0.59654 0.73334 0.07895
 N493 N 0.58160 0.73296 0.06547
 C494 C 0.56759 0.74798 0.06476
 N495 N 0.56924 0.76342 0.07802
 N496 N 0.58414 0.76381 0.09148
 C497 C 0.66590 0.24579 -0.14846
 N498 N 0.68242 0.25808 -0.14761
 N499 N 0.69722 0.25683 -0.16149
 C500 C 0.69598 0.24327 -0.17671
 N501 N 0.67946 0.23101 -0.17754
 N502 N 0.66471 0.23223 -0.16367
 C503 C 0.64945 0.24703 -0.13334
 N504 N 0.63348 0.23408 -0.13413
 N505 N 0.61841 0.23507 -0.12059
 C506 C 0.61870 0.24908 -0.10575
 N507 N 0.63467 0.26208 -0.10493
 N508 N 0.64980 0.26106 -0.11849
 C509 C 0.60188 0.25001 -0.09102
 N510 N 0.60127 0.26436 -0.07649
 N511 N 0.58576 0.26508 -0.06335
 C512 C 0.57031 0.25145 -0.06422
 N513 N 0.57105 0.23712 -0.07877
 N514 N 0.58650 0.23642 -0.09189
 C515 C 0.34046 0.75018 -0.15057
 N516 N 0.32727 0.73464 -0.15307
 N517 N 0.31311 0.73539 -0.16734
 C518 C 0.31166 0.75168 -0.17960
 N519 N 0.32484 0.76719 -0.17708
 N520 N 0.33898 0.76644 -0.16284
 C521 C 0.35617 0.74952 -0.13497
 N522 N 0.36930 0.76513 -0.13288
 N523 N 0.38371 0.76466 -0.11890
 C524 C 0.38553 0.74856 -0.10647
 N525 N 0.37237 0.73292 -0.10851
 N526 N 0.35794 0.73340 -0.12252
 C527 C 0.40171 0.74814 -0.09134
 N528 N 0.40391 0.73222 -0.07871
 N529 N 0.41891 0.73191 -0.06529
 C530 C 0.43228 0.74749 -0.06401
 N531 N 0.42995 0.76339 -0.07663
 N532 N 0.41497 0.76372 -0.09001
 C533 C 0.14035 0.33335 0.24359
 N534 N 0.14357 0.32173 0.26010
 N535 N 0.15820 0.30787 0.26001
 C536 C 0.17025 0.30523 0.24347
 N537 N 0.16704 0.31684 0.22696
 N538 N 0.15232 0.33062 0.22700
 C539 C 0.12461 0.34899 0.24391
 N540 N 0.11962 0.35897 0.22678
 N541 N 0.10577 0.37360 0.22723
 C542 C 0.09652 0.37886 0.24485
 N543 N 0.10147 0.36884 0.26195
 N544 N 0.11521 0.35412 0.26148
 C545 C 0.08203 0.39563 0.24558
 N546 N 0.07581 0.40327 0.26356
 N547 N 0.06338 0.41906 0.26430
 C548 C 0.05656 0.42774 0.24709
 N549 N 0.06262 0.41992 0.22909
 N550 N 0.07518 0.40421 0.22834
 C551 C 0.14624 0.66531 0.76133
 N552 N 0.14233 0.68359 0.75312
 N553 N 0.15657 0.69791 0.75295
 C554 C 0.17515 0.69453 0.76116
 N555 N 0.17893 0.67633 0.76959
 N556 N 0.16479 0.66195 0.76955
 C557 C 0.13106 0.64913 0.76066
 N558 N 0.13698 0.62972 0.76278
 N559 N 0.12345 0.61486 0.76154
 C560 C 0.10346 0.61885 0.75838
 N561 N 0.09746 0.63827 0.75644
 N562 N 0.11105 0.65316 0.75744
 C563 C 0.08883 0.60228 0.75650
 N564 N 0.06849 0.60530 0.75911
 N565 N 0.05539 0.59006 0.75735
 C566 C 0.06216 0.57134 0.75263
 N567 N 0.08248 0.56841 0.74996
 N568 N 0.09557 0.58356 0.75197
 C569 C -0.14839 0.66434 0.23891
 N570 N -0.14438 0.68283 0.24657
 N571 N -0.15879 0.69694 0.24696
 C572 C -0.17763 0.69314 0.23952
 N573 N -0.18150 0.67472 0.23164
 N574 N -0.16719 0.66056 0.23146
 C575 C -0.13304 0.64835 0.23937
 N576 N -0.13889 0.62886 0.23780
 N577 N -0.12522 0.61415 0.23880
 C578 C -0.10514 0.61838 0.24116
 N579 N -0.09921 0.63789 0.24254
 N580 N -0.11295 0.65263 0.24178
 C581 C -0.09035 0.60196 0.24274
 N582 N -0.07012 0.60513 0.23940
 N583 N -0.05689 0.59000 0.24081
 C584 C -0.06341 0.57124 0.24588
 N585 N -0.08362 0.56817 0.24929
 N586 N -0.09684 0.58321 0.24764
 C587 C -0.14236 0.33333 0.75411
 N588 N -0.15377 0.33011 0.77101
 N589 N -0.16809 0.31588 0.77140
 C590 C -0.17146 0.30427 0.75494
 N591 N -0.15998 0.30746 0.73807
 N592 N -0.14575 0.32177 0.73764
 C593 C -0.12684 0.34927 0.75348
 N594 N -0.11775 0.35450 0.73576
 N595 N -0.10403 0.36927 0.73504
 C596 C -0.09879 0.37926 0.75205
 N597 N -0.10776 0.37393 0.76982
 N598 N -0.12159 0.35923 0.77051
 C599 C -0.08415 0.39597 0.75110
 N600 N -0.07690 0.40439 0.76823
 N601 N -0.06413 0.41996 0.76731
 C602 C -0.05822 0.42781 0.74924
 N603 N -0.06545 0.41930 0.73213
 N604 N -0.07811 0.40365 0.73304
 C605 C 0.24632 0.15097 0.34242
 N606 N 0.26072 0.15128 0.32757
 N607 N 0.26011 0.16512 0.31303
 C608 C 0.24510 0.17914 0.31285
 N609 N 0.23073 0.17883 0.32771
 N610 N 0.23133 0.16500 0.34223
 C611 C 0.24684 0.13576 0.35846
 N612 N 0.23218 0.13549 0.37304
 N613 N 0.23253 0.12177 0.38766
 C614 C 0.24756 0.10780 0.38826
 N615 N 0.26225 0.10804 0.37368
 N616 N 0.26189 0.12177 0.35903
 C617 C 0.24785 0.09285 0.40456
 N618 N 0.26289 0.07890 0.40565
 N619 N 0.26309 0.06554 0.42066
 C620 C 0.24825 0.06562 0.43513
 N621 N 0.23323 0.07959 0.43392
 N622 N 0.23303 0.09292 0.41896
 C623 C 0.75457 0.14925 0.65709
 N624 N 0.74019 0.14953 0.67197
 N625 N 0.74078 0.16343 0.68640
 C626 C 0.75575 0.17755 0.68645
 N627 N 0.77009 0.17728 0.67157
 N628 N 0.76951 0.16339 0.65716
 C629 C 0.75415 0.13390 0.64121
 N630 N 0.76884 0.13365 0.62666
 N631 N 0.76863 0.11978 0.61223
 C632 C 0.75372 0.10562 0.61179
 N633 N 0.73899 0.10584 0.62634
 N634 N 0.73921 0.11973 0.64080
 C635 C 0.75363 0.09048 0.59570
 N636 N 0.73866 0.07640 0.59466
 N637 N 0.73864 0.06291 0.57980
 C638 C 0.75360 0.06298 0.56544
 N639 N 0.76856 0.07706 0.56662
 N640 N 0.76858 0.09053 0.58142
 C641 C 0.24037 -0.14334 0.66716
 N642 N 0.22442 -0.15628 0.66892
 N643 N 0.22395 -0.17004 0.68353
 C644 C 0.23941 -0.17136 0.69691
 N645 N 0.25533 -0.15837 0.69521
 N646 N 0.25580 -0.14460 0.68060
 C647 C 0.24112 -0.12854 0.65073
 N648 N 0.25722 -0.11581 0.64868
 N649 N 0.25807 -0.10269 0.63349
 C650 C 0.24285 -0.10185 0.61979
 N651 N 0.22673 -0.11454 0.62188
 N652 N 0.22588 -0.12764 0.63707
 C653 C 0.24388 -0.08774 0.60277
 N654 N 0.22883 -0.08746 0.58889
 N655 N 0.22981 -0.07494 0.57324
 C656 C 0.24585 -0.06219 0.57081
 N657 N 0.26089 -0.06245 0.58476
 N658 N 0.25993 -0.07500 0.60044
 C659 C 0.75793 -0.14429 0.33241
 N660 N 0.74142 -0.14689 0.32052
 N661 N 0.74138 -0.16103 0.30632
 C662 C 0.75786 -0.17305 0.30348
 N663 N 0.77443 -0.17037 0.31529
 N664 N 0.77446 -0.15625 0.32950
 C665 C 0.75771 -0.12926 0.34858
 N666 N 0.77389 -0.12735 0.36103
 N667 N 0.77347 -0.11418 0.37613
 C668 C 0.75686 -0.10242 0.37933
 N669 N 0.74070 -0.10424 0.36681
 N670 N 0.74112 -0.11743 0.35172
 C671 C 0.75625 -0.08838 0.39637
 N672 N 0.73978 -0.07646 0.39969
 N673 N 0.73915 -0.06409 0.41547
 C674 C 0.75495 -0.06318 0.42855
 N675 N 0.77142 -0.07509 0.42512
 N676 N 0.77207 -0.08743 0.40935
 C677 C 0.66923 0.75790 -0.14254
 N678 N 0.68267 0.74260 -0.14513
 N679 N 0.69657 0.74325 -0.15990
 C680 C 0.69744 0.75915 -0.17274
 N681 N 0.68401 0.77446 -0.17017
 N682 N 0.67020 0.77387 -0.15529
 C683 C 0.65358 0.75693 -0.12655
 N684 N 0.64219 0.77333 -0.12187
 N685 N 0.62765 0.77227 -0.10771
 C686 C 0.62388 0.75475 -0.09782
 N687 N 0.63528 0.73837 -0.10249
 N688 N 0.64992 0.73946 -0.11653
 C689 C 0.60724 0.75334 -0.08287
 N690 N 0.60074 0.73515 -0.07609
 N691 N 0.58503 0.73377 -0.06326
 C692 C 0.57532 0.75054 -0.05656
 N693 N 0.58202 0.76875 -0.06317
 N694 N 0.59763 0.77013 -0.07613
 C695 C 0.33296 0.24343 -0.14168
 N696 N 0.33034 0.22636 -0.15254
 N697 N 0.31638 0.22549 -0.16698
 C698 C 0.30444 0.24163 -0.17100
 N699 N 0.30700 0.25868 -0.16009
 N700 N 0.32106 0.25959 -0.14575
 C701 C 0.34863 0.24452 -0.12604
 N702 N 0.35364 0.26242 -0.11761
 N703 N 0.36821 0.26351 -0.10380
 C704 C 0.37820 0.24671 -0.09778
 N705 N 0.37308 0.22879 -0.10609
 N706 N 0.35860 0.22772 -0.12001
 C707 C 0.39476 0.24804 -0.08307
 N708 N 0.40316 0.23116 -0.07520
 N709 N 0.41870 0.23239 -0.06246
 C710 C 0.42653 0.25054 -0.05720
 N711 N 0.41802 0.26741 -0.06503
 N712 N 0.40240 0.26619 -0.07765
 C713 C 0.33186 0.75593 0.14478
 N714 N 0.32147 0.73925 0.15077
 N715 N 0.30785 0.74019 0.16578
 C716 C 0.30420 0.75781 0.17545
 N717 N 0.31458 0.77449 0.16946
 N718 N 0.32813 0.77358 0.15438
 C719 C 0.34724 0.75476 0.12855
 N720 N 0.35626 0.77168 0.12119
 N721 N 0.37061 0.77053 0.10686
 C722 C 0.37653 0.75242 0.09943
 N723 N 0.36747 0.73553 0.10676
 N724 N 0.35305 0.73668 0.12101
 C725 C 0.39302 0.75104 0.08432
 N726 N 0.40119 0.73294 0.07946
 N727 N 0.41679 0.73171 0.06650
 C728 C 0.42475 0.74851 0.05777
 N729 N 0.41638 0.76659 0.06248
 N730 N 0.40085 0.76785 0.07554
 C731 C 0.66725 0.24416 0.14267
 N732 N 0.67768 0.26085 0.14826
 N733 N 0.69132 0.25999 0.16299
 C734 C 0.69493 0.24243 0.17276
 N735 N 0.68450 0.22573 0.16718
 N736 N 0.67094 0.22657 0.15237
 C737 C 0.65190 0.24525 0.12673
 N738 N 0.64306 0.22829 0.11951
 N739 N 0.62877 0.22937 0.10540
 C740 C 0.62273 0.24746 0.09808
 N741 N 0.63161 0.26440 0.10528
 N742 N 0.64597 0.26331 0.11929
 C743 C 0.60634 0.24877 0.08321
 N744 N 0.59807 0.26683 0.07846
 N745 N 0.58258 0.26800 0.06569
 C746 C 0.57481 0.25118 0.05705
 N747 N 0.58327 0.23313 0.06164
 N748 N 0.59869 0.23194 0.07452
 C749 C -0.14728 0.66427 0.74769
 N750 N -0.14501 0.68111 0.73627
 N751 N -0.15847 0.69606 0.73768
 C752 C -0.17469 0.69470 0.75054
 N753 N -0.17694 0.67782 0.76187
 N754 N -0.16350 0.66291 0.76048
 C755 C -0.13244 0.64777 0.74660
 N756 N -0.13463 0.63161 0.75893
 N757 N -0.12124 0.61663 0.75832
 C758 C -0.10513 0.61718 0.74532
 N759 N -0.10291 0.63333 0.73291
 N760 N -0.11633 0.64838 0.73356
 C761 C -0.09045 0.60052 0.74503
 N762 N -0.07456 0.60012 0.73174
 N763 N -0.06141 0.58482 0.73176
 C764 C -0.06364 0.56941 0.74510
 N765 N -0.07957 0.56994 0.75834
 N766 N -0.09269 0.58515 0.75831
 C767 C -0.14764 0.33610 0.24370
 N768 N -0.16370 0.33702 0.23098
 N769 N -0.17765 0.32245 0.23081
 C770 C -0.17603 0.30638 0.24331
 N771 N -0.15994 0.30542 0.25601
 N772 N -0.14601 0.32003 0.25623
 C773 C -0.13246 0.35236 0.24397
 N774 N -0.11722 0.35244 0.25769
 N775 N -0.10369 0.36741 0.25804
 C776 C -0.10488 0.38281 0.24464
 N777 N -0.12007 0.38267 0.23088
 N778 N -0.13361 0.36775 0.23057
 C779 C -0.09024 0.39953 0.24508
 N780 N -0.09101 0.41424 0.23092
 N781 N -0.07804 0.42963 0.23140
 C782 C -0.06379 0.43101 0.24607
 N783 N -0.06303 0.41624 0.26023
 N784 N -0.07599 0.40078 0.25974
 C785 C 0.14590 0.33575 0.75596
 N786 N 0.16031 0.33557 0.77051
 N787 N 0.17405 0.32088 0.77128
 C788 C 0.17388 0.30578 0.75754
 N789 N 0.15946 0.30593 0.74299
 N790 N 0.14572 0.32065 0.74220
 C791 C 0.13087 0.35208 0.75516
 N792 N 0.11686 0.35291 0.74024
 N793 N 0.10339 0.36788 0.73954
 C794 C 0.10342 0.38254 0.75376
 N795 N 0.11740 0.38167 0.76869
 N796 N 0.13087 0.36673 0.76937
 C797 C 0.08881 0.39925 0.75301
 N798 N 0.08888 0.41355 0.76755
 N799 N 0.07596 0.42894 0.76684
 C800 C 0.06243 0.43068 0.75156
 N801 N 0.06234 0.41629 0.73702
 N802 N 0.07527 0.40087 0.73774
 C803 C 0.14693 0.66444 0.25013
 N804 N 0.14519 0.68051 0.26263
 N805 N 0.15906 0.69519 0.26211
 C806 C 0.17518 0.69430 0.24911
 N807 N 0.17690 0.67823 0.23665
 N808 N 0.16303 0.66360 0.23713
 C809 C 0.13177 0.64816 0.25052
 N810 N 0.13329 0.63279 0.23719
 N811 N 0.11969 0.61792 0.23739
 C812 C 0.10405 0.61782 0.25095
 N813 N 0.10249 0.63319 0.26433
 N814 N 0.11611 0.64812 0.26410
 C815 C 0.08927 0.60120 0.25099
 N816 N 0.07392 0.60016 0.26487
 N817 N 0.06079 0.58481 0.26479
 C818 C 0.06249 0.56996 0.25081
 N819 N 0.07784 0.57114 0.23695
 N820 N 0.09095 0.58641 0.23704
 C821 C 0.76049 -0.13996 0.66782
 N822 N 0.74320 -0.14571 0.67769
 N823 N 0.74376 -0.15993 0.69183
 C824 C 0.76161 -0.16902 0.69654
 N825 N 0.77891 -0.16328 0.68669
 N826 N 0.77837 -0.14897 0.67261
 C827 C 0.75970 -0.12462 0.65189
 N828 N 0.77708 -0.11746 0.64318
 N829 N 0.77625 -0.10389 0.62839
 C830 C 0.75801 -0.09708 0.62173
 N831 N 0.74064 -0.10422 0.63048
 N832 N 0.74148 -0.11769 0.64532
 C833 C 0.75697 -0.08280 0.60486
 N834 N 0.73882 -0.07860 0.59618
 N835 N 0.73789 -0.06634 0.58033
 C836 C 0.75505 -0.05769 0.57258
 N837 N 0.77319 -0.06174 0.58144
 N838 N 0.77414 -0.07411 0.59724
 C839 C 0.23923 -0.13674 0.33250
 N840 N 0.25528 -0.13961 0.31975
 N841 N 0.25477 -0.15406 0.30587
 C842 C 0.23824 -0.16625 0.30434
 N843 N 0.22219 -0.16339 0.31709
 N844 N 0.22264 -0.14886 0.33087
 C845 C 0.24001 -0.12119 0.34815
 N846 N 0.22301 -0.11626 0.35890
 N847 N 0.22387 -0.10260 0.37354
 C848 C 0.24179 -0.09348 0.37805
 N849 N 0.25876 -0.09837 0.36726
 N850 N 0.25787 -0.11191 0.35253
 C851 C 0.24298 -0.07923 0.39488
 N852 N 0.26137 -0.07352 0.40215
 N853 N 0.26252 -0.06139 0.41806
 C854 C 0.24534 -0.05438 0.42723
 N855 N 0.22695 -0.05992 0.41978
 N856 N 0.22579 -0.07217 0.40396
 C857 C 0.76100 0.13713 0.32853
 N858 N 0.74482 0.14000 0.31624
 N859 N 0.74519 0.15446 0.30232
 C860 C 0.76168 0.16669 0.30029
 N861 N 0.77786 0.16382 0.31257
 N862 N 0.77755 0.14926 0.32639
 C863 C 0.76038 0.12153 0.34424
 N864 N 0.77742 0.11675 0.35464
 N865 N 0.77672 0.10301 0.36928
 C866 C 0.75891 0.09366 0.37414
 N867 N 0.74188 0.09843 0.36371
 N868 N 0.74261 0.11205 0.34897
 C869 C 0.75790 0.07926 0.39094
 N870 N 0.73961 0.07314 0.39849
 N871 N 0.73863 0.06087 0.41436
 C872 C 0.75591 0.05409 0.42321
 N873 N 0.77422 0.06003 0.41547
 N874 N 0.77520 0.07243 0.39968
 C875 C 0.23945 0.13837 0.67204
 N876 N 0.22280 0.15032 0.67414
 N877 N 0.22230 0.16475 0.68804
 C878 C 0.23839 0.16768 0.70043
 N879 N 0.25498 0.15565 0.69843
 N880 N 0.25553 0.14131 0.68444
 C881 C 0.24027 0.12291 0.65628
 N882 N 0.25814 0.11367 0.65158
 N883 N 0.25905 0.10014 0.63681
 C884 C 0.24209 0.09523 0.62631
 N885 N 0.22419 0.10434 0.63112
 N886 N 0.22331 0.11798 0.64579
 C887 C 0.24329 0.08091 0.60951
 N888 N 0.22609 0.07395 0.60067
 N889 N 0.22724 0.06160 0.58490
 C890 C 0.24563 0.05586 0.57727
 N891 N 0.26281 0.06278 0.58620
 N892 N 0.26167 0.07500 0.60206
   
