data_POSCAR
  _audit_creation_date              2014-09-24
  _audit_creation_method            'ToBaCCo'
  _symmetry_space_group_name_H-M    'P1'
  _symmetry_Int_Tables_number       1
  _symmetry_cell_setting            triclinic
  loop_
  _symmetry_equiv_pos_as_xyz
 x,y,z
_cell_length_a 56.8347
_cell_length_b 39.7344
_cell_length_c 18.2829
_cell_angle_alpha 89.790800
_cell_angle_beta 89.595400
_cell_angle_gamma 90.040800
loop_
  _atom_site_label
  _atom_site_type_symbol
  _atom_site_fract_x
  _atom_site_fract_y
  _atom_site_fract_z
C1 C 0.75614 0.27594 0.45605
 C2 C 0.75709 0.27947 0.52999
 C3 C 0.73915 0.29965 0.56983
 C4 C 0.77518 0.26167 0.57369
 C5 C 0.77574 0.26064 0.41401
 C6 C 0.73502 0.28628 0.41478
 C7 C 0.73464 0.33303 0.54927
 C8 C 0.71634 0.35101 0.58208
 C9 C 0.70216 0.33626 0.63707
 C10 C 0.70757 0.30304 0.65978
 C11 C 0.72588 0.28510 0.62646
 C12 C 0.78948 0.27939 0.62248
 C13 C 0.80682 0.26252 0.66233
 C14 C 0.81011 0.22768 0.65423
 C15 C 0.79509 0.20982 0.60730
 C16 C 0.77784 0.22668 0.56750
 C17 C 0.77178 0.23202 0.37114
 C18 C 0.79043 0.21681 0.33359
 C19 C 0.81324 0.23038 0.33748
 C20 C 0.81697 0.25969 0.37835
 C21 C 0.79841 0.27454 0.41691
 C22 C 0.71340 0.27027 0.42804
 C23 C 0.69319 0.28093 0.39172
 C24 C 0.69422 0.30817 0.34285
 C25 C 0.71601 0.32371 0.32833
 C26 C 0.73633 0.31257 0.36359
 H27 H 0.74505 0.34498 0.50663
 H28 H 0.71311 0.37650 0.56331
 H29 H 0.69770 0.29002 0.70177
 H30 H 0.72919 0.25939 0.64334
 H31 H 0.78746 0.30633 0.62873
 H32 H 0.81791 0.27680 0.69886
 H33 H 0.76645 0.21239 0.53191
 H34 H 0.75435 0.22112 0.36790
 H35 H 0.78692 0.19471 0.30096
 H36 H 0.83437 0.27072 0.38151
 H37 H 0.80169 0.29688 0.44908
 H38 H 0.71219 0.24971 0.46697
 H39 H 0.67661 0.26844 0.40317
 H40 H 0.71736 0.34428 0.28953
 H41 H 0.75296 0.32498 0.35249
 H42 H 0.79627 0.18281 0.60173
 C43 C 0.24759 0.75391 0.45927
 C44 C 0.24810 0.75224 0.53368
 C45 C 0.22927 0.76780 0.57905
 C46 C 0.26750 0.73502 0.57294
 C47 C 0.26770 0.74251 0.41360
 C48 C 0.22683 0.76719 0.41993
 C49 C 0.22375 0.80203 0.57110
 C50 C 0.20553 0.81634 0.61212
 C51 C 0.19247 0.79662 0.66207
 C52 C 0.19868 0.76272 0.67200
 C53 C 0.21692 0.74842 0.63086
 C54 C 0.27997 0.75211 0.62732
 C55 C 0.29843 0.73626 0.66391
 C56 C 0.30477 0.70300 0.64704
 C57 C 0.29178 0.68558 0.59384
 C58 C 0.27332 0.70147 0.55728
 C59 C 0.26431 0.71749 0.36083
 C60 C 0.28323 0.70600 0.31863
 C61 C 0.30583 0.71967 0.32803
 C62 C 0.30900 0.74561 0.37893
 C63 C 0.29012 0.75682 0.42175
 C64 C 0.20472 0.75183 0.42808
 C65 C 0.18521 0.76464 0.39111
 C66 C 0.18744 0.79325 0.34636
 C67 C 0.20971 0.80822 0.33725
 C68 C 0.22926 0.79512 0.37341
 H69 H 0.23356 0.81766 0.53301
 H70 H 0.20201 0.84287 0.60501
 H71 H 0.18912 0.74711 0.71078
 H72 H 0.22112 0.72205 0.63841
 H73 H 0.27561 0.77790 0.64072
 H74 H 0.30794 0.75016 0.70513
 H75 H 0.26346 0.68753 0.51694
 H76 H 0.24706 0.70649 0.35316
 H77 H 0.28008 0.68666 0.27834
 H78 H 0.32621 0.75674 0.38654
 H79 H 0.29295 0.77660 0.46134
 H80 H 0.20262 0.72993 0.46296
 H81 H 0.16827 0.75250 0.39830
 H82 H 0.21212 0.82972 0.30147
 H83 H 0.24626 0.80702 0.36592
 H84 H 0.29546 0.65960 0.58083
 C85 C 0.25320 0.23588 -0.45746
 C86 C 0.25036 0.23960 -0.53105
 C87 C 0.26914 0.25529 -0.57629
 C88 C 0.22891 0.22728 -0.56883
 C89 C 0.23577 0.21780 -0.41111
 C90 C 0.27347 0.25093 -0.41884
 C91 C 0.26602 0.28760 -0.60548
 C92 C 0.28469 0.30414 -0.64071
 C93 C 0.30678 0.28823 -0.64865
 C94 C 0.30924 0.25502 -0.62266
 C95 C 0.29073 0.23891 -0.58599
 C96 C 0.20638 0.23618 -0.54367
 C97 C 0.18640 0.22065 -0.57217
 C98 C 0.18834 0.19664 -0.62828
 C99 C 0.21097 0.18941 -0.65665
 C100 C 0.23098 0.20458 -0.62705
 C101 C 0.22922 0.18459 -0.42660
 C102 C 0.21146 0.16879 -0.38594
 C103 C 0.20003 0.18592 -0.32814
 C104 C 0.20771 0.21856 -0.31058
 C105 C 0.22535 0.23432 -0.35161
 C106 C 0.28824 0.23053 -0.37652
 C107 C 0.30662 0.24478 -0.33680
 C108 C 0.31053 0.27965 -0.33872
 C109 C 0.29539 0.30012 -0.38027
 C110 C 0.27704 0.28584 -0.41987
 H111 H 0.24935 0.30047 -0.59865
 H112 H 0.28147 0.32912 -0.66185
 H113 H 0.32582 0.24180 -0.62838
 H114 H 0.29336 0.21387 -0.56392
 H115 H 0.20431 0.25425 -0.49989
 H116 H 0.16936 0.22720 -0.54943
 H117 H 0.24819 0.19742 -0.64747
 H118 H 0.23756 0.17114 -0.47122
 H119 H 0.20692 0.14341 -0.40110
 H120 H 0.19959 0.23243 -0.26614
 H121 H 0.23037 0.25986 -0.33829
 H122 H 0.28547 0.20357 -0.37417
 H123 H 0.31784 0.22854 -0.30456
 H124 H 0.29717 0.32721 -0.38087
 H125 H 0.26526 0.30210 -0.45001
 H126 H 0.21369 0.17101 -0.69918
 C127 C -0.24326 0.72869 -0.46673
 C128 C -0.24336 0.72849 -0.54110
 C129 C -0.22400 0.74423 -0.58363
 C130 C -0.26294 0.71293 -0.58192
 C131 C -0.26250 0.71331 -0.42285
 C132 C -0.22430 0.74535 -0.42534
 C133 C -0.22708 0.77621 -0.61451
 C134 C -0.20811 0.79308 -0.64725
 C135 C -0.18567 0.77788 -0.65089
 C136 C -0.18313 0.74500 -0.62298
 C137 C -0.20200 0.72855 -0.58873
 C138 C -0.28565 0.72651 -0.57765
 C139 C -0.30474 0.70940 -0.60790
 C140 C -0.30148 0.67805 -0.64284
 C141 C -0.27846 0.66515 -0.64841
 C142 C -0.25938 0.68258 -0.61898
 C143 C -0.26786 0.67902 -0.42888
 C144 C -0.28656 0.66511 -0.38902
 C145 C -0.30023 0.68532 -0.34150
 C146 C -0.29415 0.71948 -0.33417
 C147 C -0.27551 0.73329 -0.37432
 C148 C -0.20980 0.72626 -0.37951
 C149 C -0.19232 0.74193 -0.33841
 C150 C -0.18912 0.77693 -0.34232
 C151 C -0.20413 0.79607 -0.38721
 C152 C -0.22153 0.78036 -0.42839
 H153 H -0.24404 0.78856 -0.61110
 H154 H -0.21139 0.81773 -0.67008
 H155 H -0.16626 0.73233 -0.62534
 H156 H -0.19937 0.70382 -0.56503
 H157 H -0.28868 0.74985 -0.54865
 H158 H -0.32194 0.72043 -0.60054
 H159 H -0.24195 0.67163 -0.62223
 H160 H -0.25758 0.66302 -0.46472
 H161 H -0.28991 0.63862 -0.39630
 H162 H -0.30406 0.73580 -0.29796
 H163 H -0.27149 0.75979 -0.36851
 H164 H -0.21199 0.69922 -0.37579
 H165 H -0.18121 0.72666 -0.30369
 H166 H -0.20296 0.82320 -0.38968
 H167 H -0.23313 0.79554 -0.46169
 H168 H -0.27520 0.64122 -0.67486
 N169 N 0.01935 0.96454 -0.13326
 N170 N 0.03637 0.95980 -0.18144
 N171 N -0.02908 0.94124 -0.07343
 N172 N -0.04645 0.91935 -0.08068
 N173 N -0.02994 0.96409 -0.12539
 N174 N -0.04781 0.95857 -0.16915
 N175 N 0.02051 0.94217 -0.08037
 N176 N 0.03843 0.92154 -0.09122
 C177 C 0.04812 0.93298 -0.15459
 C178 C -0.05796 0.93072 -0.14064
 N179 N -0.02686 0.96889 0.13208
 N180 N -0.04425 0.96504 0.17982
 N181 N 0.02238 0.94533 0.07750
 N182 N 0.04038 0.92485 0.08736
 N183 N 0.02278 0.96992 0.12534
 N184 N 0.04116 0.96701 0.16859
 N185 N -0.02697 0.94433 0.08415
 N186 N -0.04425 0.92302 0.09825
 Mn187 Mn -0.00327 0.94282 0.00204
 C188 C -0.05486 0.93624 0.15807
 C189 C 0.05190 0.93877 0.14438
 N190 N -0.03056 1.03631 -0.13316
 N191 N -0.04814 1.04061 -0.17901
 N192 N 0.01960 1.06100 -0.09278
 N193 N 0.03832 1.08008 -0.10425
 N194 N 0.01882 1.03657 -0.14081
 N195 N 0.03686 1.03833 -0.18630
 N196 N -0.02995 1.06082 -0.08529
 N197 N -0.04711 1.08250 -0.09721
 Mn198 Mn -0.00563 1.00035 -0.13381
 C199 C -0.05836 1.06940 -0.15565
 C200 C 0.04877 1.06564 -0.16312
 N201 N 0.02229 1.04258 0.11813
 N202 N 0.04118 1.04778 0.15853
 N203 N -0.02786 1.06406 0.07185
 N204 N -0.04562 1.08499 0.08152
 N205 N -0.02732 1.04153 0.12453
 N206 N -0.04479 1.04636 0.17127
 N207 N 0.02157 1.06431 0.06389
 N208 N 0.03996 1.08452 0.06522
 Mn209 Mn -0.00229 1.00574 0.12604
 Mn210 Mn -0.00416 1.06294 -0.01056
 Cl211 Cl -0.00385 1.00294 -0.00397
 C212 C 0.05191 1.07416 0.12471
 C213 C -0.05598 1.07360 0.14379
 N214 N 0.52049 0.54350 0.12672
 N215 N 0.53715 0.55160 0.17376
 N216 N 0.47134 0.56445 0.06648
 N217 N 0.45310 0.58508 0.06892
 N218 N 0.47081 0.54354 0.12230
 N219 N 0.45211 0.54901 0.16360
 N220 N 0.52064 0.56449 0.07105
 N221 N 0.53710 0.58752 0.07886
 C222 C 0.54740 0.57904 0.14259
 C223 C 0.44135 0.57506 0.13002
 N224 N 0.47431 0.53094 -0.13578
 N225 N 0.45732 0.53316 -0.18447
 N226 N 0.52306 0.55633 -0.08509
 N227 N 0.54167 0.57571 -0.09619
 N228 N 0.52368 0.53023 -0.12892
 N229 N 0.54258 0.53109 -0.17101
 N230 N 0.47349 0.55653 -0.09059
 N231 N 0.45596 0.57686 -0.10729
 Mn232 Mn 0.49708 0.56085 -0.00969
 C233 C 0.44605 0.56190 -0.16595
 C234 C 0.55357 0.55958 -0.15020
 N235 N 0.47000 0.47165 0.13980
 N236 N 0.45158 0.46967 0.18420
 N237 N 0.51961 0.44505 0.10002
 N238 N 0.53787 0.42546 0.11286
 N239 N 0.51970 0.47112 0.14399
 N240 N 0.53808 0.47004 0.18772
 N241 N 0.47026 0.44607 0.09453
 N242 N 0.45227 0.42586 0.10724
 Mn243 Mn 0.49530 0.50749 0.13420
 C244 C 0.44075 0.44091 0.16327
 C245 C 0.54911 0.44127 0.16799
 N246 N 0.52315 0.45814 -0.11138
 N247 N 0.54184 0.45115 -0.15206
 N248 N 0.47225 0.43837 -0.06257
 N249 N 0.45451 0.41722 -0.07125
 N250 N 0.47370 0.45922 -0.11829
 N251 N 0.45702 0.45312 -0.16602
 N252 N 0.52163 0.43724 -0.05578
 N253 N 0.53913 0.41550 -0.05696
 Mn254 Mn 0.49877 0.49461 -0.12440
 Mn255 Mn 0.49586 0.44130 0.01919
 Cl256 Cl 0.49674 0.50108 0.00489
 C257 C 0.55157 0.42446 -0.11712
 C258 C 0.44522 0.42695 -0.13611
 C259 C 0.32648 0.30403 0.31900
 C260 C 0.32829 0.33854 0.30399
 C261 C 0.34988 0.35327 0.27215
 N262 N 0.35379 0.38691 0.27651
 N263 N 0.37335 0.40047 0.24838
 C264 C 0.38962 0.38086 0.21436
 N265 N 0.38558 0.34729 0.20939
 N266 N 0.36614 0.33371 0.23799
 C267 C 0.41118 0.39522 0.18195
 C268 C 0.41907 0.42767 0.19714
 H269 H 0.31452 0.35577 0.32008
 H270 H 0.42158 0.37922 0.14642
 H271 H 0.34194 0.28872 0.30872
 H272 H 0.40957 0.44332 0.23567
 C273 C -0.16577 0.79412 0.31885
 C274 C -0.16438 0.82860 0.30301
 C275 C -0.14294 0.84403 0.27176
 N276 N -0.13977 0.87786 0.27547
 N277 N -0.12056 0.89220 0.24693
 C278 C -0.10388 0.87324 0.21306
 N279 N -0.10715 0.83947 0.20884
 N280 N -0.12625 0.82510 0.23791
 C281 C -0.08286 0.88865 0.17934
 C282 C -0.07563 0.92144 0.19445
 H283 H -0.17856 0.84542 0.31767
 H284 H -0.07241 0.87332 0.14253
 H285 H -0.14996 0.77929 0.31086
 H286 H -0.08503 0.93630 0.23465
 C287 C 0.67974 0.65861 0.33006
 C288 C 0.65649 0.66977 0.32405
 C289 C 0.63740 0.64774 0.29858
 N290 N 0.61725 0.66161 0.27311
 N291 N 0.59974 0.64221 0.24991
 C292 C 0.60156 0.60814 0.25211
 N293 N 0.62157 0.59419 0.27865
 N294 N 0.63922 0.61363 0.30122
 C295 C 0.58234 0.58670 0.22496
 C296 C 0.56629 0.59927 0.17464
 H297 H 0.65194 0.69574 0.33403
 H298 H 0.58167 0.56044 0.24092
 H299 H 0.68360 0.63336 0.31114
 H300 H 0.56851 0.62464 0.15382
 C301 C 0.16778 1.18003 0.34860
 C302 C 0.16641 1.15850 0.28838
 C303 C 0.14462 1.14026 0.27059
 N304 N 0.14115 1.12905 0.20152
 N305 N 0.12156 1.11250 0.18448
 C306 C 0.10482 1.10612 0.23612
 N307 N 0.10845 1.11685 0.30553
 N308 N 0.12795 1.13374 0.32241
 C309 C 0.08289 1.08849 0.21710
 C310 C 0.07448 1.08911 0.14581
 H311 H 0.18098 1.15598 0.25055
 H312 H 0.07239 1.07712 0.26026
 H313 H 0.15165 1.18455 0.37908
 H314 H 0.08394 1.10339 0.10443
 C315 C 0.68383 0.35428 -0.33596
 C316 C 0.66805 0.34335 -0.28162
 C317 C 0.64733 0.36326 -0.25976
 N318 N 0.63328 0.35202 -0.20464
 N319 N 0.61415 0.36916 -0.18500
 C320 C 0.60827 0.39817 -0.21987
 N321 N 0.62231 0.40945 -0.27509
 N322 N 0.64150 0.39232 -0.29469
 C323 C 0.58697 0.41701 -0.19881
 C324 C 0.57299 0.40670 -0.14003
 H325 H 0.67028 0.31962 -0.25368
 H326 H 0.58228 0.43931 -0.22969
 H327 H 0.68076 0.37914 -0.35870
 H328 H 0.57798 0.38477 -0.10841
 C329 C 0.17252 0.81061 -0.29514
 C330 C 0.15978 0.83876 -0.31776
 C331 C 0.13950 0.85206 -0.27665
 N332 N 0.12769 0.87900 -0.30340
 N333 N 0.10920 0.89147 -0.26763
 C334 C 0.10177 0.87748 -0.20364
 N335 N 0.11359 0.85052 -0.17670
 N336 N 0.13213 0.83802 -0.21255
 C337 C 0.08120 0.89113 -0.16418
 C338 C 0.06882 0.91866 -0.19134
 H339 H 0.16418 0.85118 -0.36878
 H340 H 0.07568 0.87931 -0.11340
 H341 H 0.16687 0.79721 -0.24636
 H342 H 0.07442 0.93046 -0.24205
 C343 C 0.32463 0.68743 -0.31295
 C344 C 0.33643 0.65848 -0.33605
 C345 C 0.35648 0.64438 -0.29560
 N346 N 0.36737 0.61624 -0.32050
 N347 N 0.38564 0.60327 -0.28487
 C348 C 0.39371 0.61800 -0.22298
 N349 N 0.38281 0.64612 -0.19804
 N350 N 0.36453 0.65907 -0.23364
 C351 C 0.41400 0.60423 -0.18326
 C352 C 0.42558 0.57506 -0.20546
 H353 H 0.33144 0.64600 -0.38601
 H354 H 0.42000 0.61752 -0.13522
 H355 H 0.33081 0.70016 -0.26442
 H356 H 0.41956 0.56142 -0.25295
 C357 C -0.17102 1.21075 -0.30382
 C358 C -0.16144 1.17973 -0.32388
 C359 C -0.14252 1.16324 -0.28258
 N360 N -0.13390 1.13330 -0.30600
 N361 N -0.11668 1.11795 -0.26987
 C362 C -0.10742 1.13197 -0.20885
 N363 N -0.11606 1.16190 -0.18529
 N364 N -0.13331 1.17726 -0.22144
 C365 C -0.08808 1.11551 -0.16926
 C366 C -0.07856 1.08498 -0.19218
 H367 H -0.16741 1.16716 -0.37269
 H368 H -0.08091 1.12804 -0.12182
 H369 H -0.16372 1.22387 -0.25734
 H370 H -0.08571 1.07232 -0.23944
 C371 C 0.68021 0.67316 -0.30173
 C372 C 0.67114 0.64052 -0.30645
 C373 C 0.64962 0.63021 -0.26727
 N374 N 0.64042 0.59928 -0.27949
 N375 N 0.62060 0.58972 -0.24627
 C376 C 0.60922 0.61070 -0.19942
 N377 N 0.61851 0.64157 -0.18665
 N378 N 0.63834 0.65118 -0.22006
 C379 C 0.58700 0.60050 -0.16395
 C380 C 0.57597 0.57048 -0.18251
 H381 H 0.67909 0.62189 -0.34155
 H382 H 0.57896 0.61712 -0.12417
 H383 H 0.67105 0.69067 -0.26621
 H384 H 0.58383 0.55424 -0.22338
 C385 C 0.18088 1.17245 -0.28858
 C386 C 0.16977 1.14192 -0.30406
 C387 C 0.14795 1.13156 -0.26670
 N388 N 0.13646 1.10364 -0.28944
 N389 N 0.11618 1.09454 -0.25838
 C390 C 0.10661 1.11302 -0.20338
 N391 N 0.11819 1.14082 -0.18014
 N392 N 0.13847 1.14998 -0.21136
 C393 C 0.08402 1.10340 -0.16971
 C394 C 0.07102 1.07650 -0.19638
 H395 H 0.17601 1.12566 -0.34715
 H396 H 0.07748 1.11776 -0.12361
 H397 H 0.17342 1.18761 -0.24503
 H398 H 0.07747 1.06232 -0.24285
 C399 C 0.32994 0.29394 -0.29507
 C400 C 0.34021 0.32499 -0.31105
 C401 C 0.35923 0.33945 -0.26727
 N402 N 0.36897 0.36909 -0.28837
 N403 N 0.38625 0.38280 -0.24990
 C404 C 0.39445 0.36748 -0.18868
 N405 N 0.38466 0.33784 -0.16724
 N406 N 0.36733 0.32406 -0.20586
 C407 C 0.41389 0.38247 -0.14704
 C408 C 0.42500 0.41154 -0.17216
 H409 H 0.33464 0.33916 -0.35848
 H410 H 0.41987 0.37016 -0.09760
 H411 H 0.33692 0.27896 -0.25060
 H412 H 0.41917 0.42336 -0.22233
 C413 C -0.17043 0.79256 -0.29777
 C414 C -0.16109 0.82429 -0.31306
 C415 C -0.14236 0.83955 -0.26935
 N416 N -0.13399 0.87026 -0.28864
 N417 N -0.11682 0.88458 -0.25069
 C418 C -0.10735 0.86877 -0.19189
 N419 N -0.11578 0.83804 -0.17226
 N420 N -0.13300 0.82367 -0.21031
 C421 C -0.08788 0.88431 -0.15138
 C422 C -0.07854 0.91504 -0.17400
 H423 H -0.16708 0.83842 -0.35999
 H424 H -0.08037 0.87108 -0.10523
 H425 H -0.16312 0.77801 -0.25316
 H426 H -0.08602 0.92794 -0.22063
 C427 C 0.32630 0.70730 0.28567
 C428 C 0.32841 0.67369 0.26504
 C429 C 0.34963 0.66037 0.22907
 N430 N 0.35350 0.62671 0.22896
 N431 N 0.37291 0.61409 0.19857
 C432 C 0.38910 0.63463 0.16650
 N433 N 0.38505 0.66830 0.16546
 N434 N 0.36570 0.68097 0.19649
 C435 C 0.41094 0.62080 0.13511
 C436 C 0.41912 0.58931 0.15660
 H437 H 0.31488 0.65584 0.28081
 H438 H 0.42140 0.63629 0.09840
 H439 H 0.34098 0.72425 0.27644
 H440 H 0.40951 0.57509 0.19774
 C441 C -0.16670 1.21478 0.29874
 C442 C -0.16469 1.18004 0.29028
 C443 C -0.14411 1.16457 0.25480
 N444 N -0.13990 1.13122 0.26382
 N445 N -0.12118 1.11690 0.23265
 C446 C -0.10610 1.13539 0.19081
 N447 N -0.11047 1.16866 0.18109
 N448 N -0.12908 1.18303 0.21274
 C449 C -0.08535 1.11997 0.15619
 C450 C -0.07696 1.08856 0.17766
 H451 H -0.17789 1.16355 0.31399
 H452 H -0.07592 1.13427 0.11478
 H453 H -0.15225 1.23084 0.28158
 H454 H -0.08548 1.07501 0.22201
 C455 C 0.67237 0.31974 0.30774
 C456 C 0.66789 0.35367 0.29422
 C457 C 0.64527 0.36519 0.26481
 N458 N 0.63920 0.39813 0.26962
 N459 N 0.61860 0.40883 0.24412
 C460 C 0.60340 0.38698 0.21245
 N461 N 0.60958 0.35411 0.20696
 N462 N 0.63009 0.34337 0.23295
 C463 C 0.58073 0.39838 0.18332
 C464 C 0.57135 0.42984 0.19984
 H465 H 0.68066 0.37249 0.30995
 H466 H 0.57095 0.38126 0.14896
 H467 H 0.65855 0.30143 0.29877
 H468 H 0.58040 0.44644 0.23713
 C469 C 0.16644 0.80657 0.30886
 C470 C 0.16346 0.84079 0.29445
 C471 C 0.14222 0.85413 0.25925
 N472 N 0.13773 0.88763 0.26137
 N473 N 0.11850 0.90016 0.23020
 C474 C 0.10314 0.87966 0.19522
 N475 N 0.10777 0.84619 0.19240
 N476 N 0.12692 0.83362 0.22405
 C477 C 0.08178 0.89319 0.16099
 C478 C 0.07356 0.92539 0.17659
 H479 H 0.17651 0.85866 0.31285
 H480 H 0.07181 0.87699 0.12510
 H481 H 0.15222 0.78929 0.29692
 H482 H 0.08274 0.94093 0.21572
   
