data_POSCAR
  _audit_creation_date              2014-09-24
  _audit_creation_method            'ToBaCCo'
  _symmetry_space_group_name_H-M    'P1'
  _symmetry_Int_Tables_number       1
  _symmetry_cell_setting            triclinic
  loop_
  _symmetry_equiv_pos_as_xyz
 x,y,z
_cell_length_a 47.6981
_cell_length_b 47.7553
_cell_length_c 18.9919
_cell_angle_alpha 90.185400
_cell_angle_beta 89.872900
_cell_angle_gamma 119.840600
loop_
  _atom_site_label
  _atom_site_type_symbol
  _atom_site_fract_x
  _atom_site_fract_y
  _atom_site_fract_z
C1 C 0.16877 0.48584 0.49061
 C2 C 0.18415 0.48708 0.42643
 C3 C 0.21662 0.49444 0.42865
 C4 C 0.23423 0.50243 0.49246
 C5 C 0.21832 0.50270 0.55500
 C6 C 0.18518 0.49303 0.55549
 C7 C 0.26867 0.50926 0.49398
 C8 C 0.28249 0.50499 0.55619
 C9 C 0.31410 0.50997 0.55643
 C10 C 0.33180 0.51828 0.49364
 C11 C 0.31858 0.52199 0.43108
 C12 C 0.28768 0.51866 0.43212
 H13 H 0.14454 0.48225 0.48965
 H14 H 0.22747 0.49225 0.38059
 H15 H 0.23139 0.50915 0.60403
 H16 H 0.26864 0.49647 0.60422
 H17 H 0.35571 0.52092 0.49309
 H18 H 0.27876 0.52325 0.38380
 C19 C 0.50824 -0.31870 0.48972
 C20 C 0.50750 -0.30384 0.42661
 C21 C 0.50118 -0.27807 0.43037
 C22 C 0.49408 -0.26817 0.49517
 C23 C 0.49313 -0.28519 0.55670
 C24 C 0.50174 -0.30943 0.55530
 C25 C 0.48930 -0.23925 0.49895
 C26 C 0.49390 -0.22195 0.56268
 C27 C 0.49115 -0.19403 0.56514
 C28 C 0.48500 -0.18239 0.50291
 C29 C 0.48100 -0.19854 0.43889
 C30 C 0.48184 -0.22747 0.43782
 H31 H 0.51094 -0.33986 0.48731
 H32 H 0.50369 -0.26479 0.38273
 H33 H 0.48711 -0.27865 0.60648
 H34 H 0.50101 -0.22892 0.61049
 H35 H 0.48416 -0.16013 0.50409
 H36 H 0.47685 -0.24029 0.38838
 C37 C 1.32672 0.82020 0.50165
 C38 C 1.31130 0.80786 0.43664
 C39 C 1.28125 0.77880 0.43721
 C40 C 1.26849 0.76062 0.49987
 C41 C 1.28560 0.77363 0.56320
 C42 C 1.31385 0.80366 0.56459
 C43 C 1.23825 0.72786 0.49908
 C44 C 1.22056 0.71370 0.56165
 C45 C 1.19420 0.68176 0.56272
 C46 C 1.18371 0.66533 0.49800
 C47 C 1.19953 0.67940 0.43485
 C48 C 1.22727 0.70991 0.43605
 H49 H 1.34810 0.84385 0.50450
 H50 H 1.26858 0.76980 0.38821
 H51 H 1.27783 0.76060 0.61221
 H52 H 1.22798 0.72698 0.61032
 H53 H 1.16174 0.64214 0.49549
 H54 H 1.24013 0.71893 0.38708
 C55 C 0.82699 0.50751 0.50965
 C56 C 0.81085 0.50135 0.44518
 C57 C 0.77863 0.49448 0.44381
 C58 C 0.76304 0.49609 0.50591
 C59 C 0.78028 0.50293 0.57017
 C60 C 0.81178 0.50780 0.57240
 C61 C 0.72955 0.49179 0.50349
 C62 C 0.71041 0.48412 0.56502
 C63 C 0.68016 0.48268 0.56531
 C64 C 0.66802 0.48653 0.50072
 C65 C 0.68610 0.49347 0.43859
 C66 C 0.71687 0.49658 0.44041
 H67 H 0.85137 0.51133 0.51107
 H68 H 0.76631 0.48847 0.39370
 H69 H 0.77002 0.50540 0.61894
 H70 H 0.71847 0.47821 0.61286
 H71 H 0.64509 0.48598 0.49846
 H72 H 0.73102 0.50396 0.39262
 C73 C 0.50660 0.32996 0.50674
 C74 C 0.50281 0.31397 0.44277
 C75 C 0.50058 0.28365 0.44211
 C76 C 0.50496 0.27006 0.50431
 C77 C 0.50890 0.28698 0.56844
 C78 C 0.50883 0.31650 0.57078
 C79 C 0.50674 0.23930 0.50165
 C80 C 0.50411 0.22162 0.56355
 C81 C 0.50894 0.19474 0.56239
 C82 C 0.51346 0.18386 0.49673
 C83 C 0.51426 0.19958 0.43433
 C84 C 0.51201 0.22767 0.43716
 H85 H 0.50578 0.35220 0.50598
 H86 H 0.49603 0.27143 0.39207
 H87 H 0.51388 0.27850 0.61670
 H88 H 0.49954 0.22932 0.61340
 H89 H 0.51418 0.16159 0.49304
 H90 H 0.51496 0.24019 0.38819
 C91 C 0.67115 0.17833 0.50919
 C92 C 0.68097 0.19415 0.44458
 C93 C 0.70686 0.22591 0.44229
 C94 C 0.72522 0.24117 0.50339
 C95 C 0.71468 0.22432 0.56816
 C96 C 0.68744 0.19332 0.57122
 C97 C 0.75626 0.27314 0.49841
 C98 C 0.77123 0.29205 0.55921
 C99 C 0.80251 0.31946 0.55630
 C100 C 0.81698 0.32978 0.48978
 C101 C 0.80234 0.31240 0.42871
 C102 C 0.77254 0.28398 0.43316
 H103 H 0.65046 0.15412 0.51118
 H104 H 0.71291 0.23785 0.39185
 H105 H 0.72790 0.23413 0.61644
 H106 H 0.75944 0.28455 0.60953
 H107 H 0.83964 0.35218 0.48431
 H108 H 0.76323 0.27013 0.38538
 O109 O 0.95181 0.42617 0.12281
 O110 O 0.91755 0.43779 0.06090
 C111 C 0.92338 0.42163 0.10767
 O112 O 1.04983 0.56719 0.13109
 O113 O 1.08329 0.55738 0.06076
 C114 C 1.07810 0.57238 0.11158
 O115 O 0.95963 0.52447 0.14081
 O116 O 0.92136 0.48569 0.06851
 C117 C 0.92997 0.50495 0.12230
 O118 O 1.04134 0.46315 0.11481
 O119 O 1.07928 0.50782 0.05488
 C120 C 1.07091 0.48432 0.09920
 Zr121 Zr 0.99755 0.45991 0.08165
 O122 O 1.00028 0.45603 0.19214
 O123 O 0.99277 0.41399 0.06453
 Zr124 Zr 1.00331 0.53360 0.09236
 O125 O 1.00624 0.53732 0.20327
 O126 O 1.00321 0.57789 0.08896
 O127 O 0.97205 0.48400 0.10203
 O128 O 1.02817 0.50852 0.09962
 O129 O 1.04055 0.46834 -0.13320
 O130 O 1.07883 0.51001 -0.06637
 C131 C 1.07019 0.48855 -0.11588
 O132 O 0.95877 0.53040 -0.12520
 O133 O 0.92091 0.48849 -0.05856
 C134 C 0.92923 0.51007 -0.10753
 O135 O 1.04863 0.57238 -0.12079
 O136 O 1.08271 0.55979 -0.06098
 C137 C 1.07704 0.57671 -0.10613
 O138 O 0.95083 0.43194 -0.13655
 O139 O 0.91706 0.44064 -0.06483
 C140 C 0.92253 0.42676 -0.11758
 Zr141 Zr 0.99689 0.46364 -0.09384
 O142 O 0.99937 0.46561 -0.20516
 O143 O 0.99016 0.41634 -0.09551
 Zr144 Zr 1.00266 0.53735 -0.08275
 O145 O 1.00434 0.54570 -0.19226
 O146 O 1.00285 0.58127 -0.06501
 Zr147 Zr 0.95157 0.47739 0.00069
 Zr148 Zr 1.04852 0.51969 -0.00204
 O149 O 1.02742 0.51280 -0.10253
 O150 O 0.97131 0.48837 -0.10177
 O151 O 1.02604 0.46896 -0.00764
 O152 O 0.97458 0.52808 0.00638
 O153 O 0.96821 0.44409 -0.00601
 O154 O 1.03283 0.55391 0.00476
 H155 H 1.04211 0.51353 0.14169
 H156 H 0.96061 0.53796 0.00927
 H157 H 1.04114 0.51948 -0.14529
 H158 H 0.95206 0.42076 -0.00817
 H159 H 1.02519 0.59499 0.07551
 H160 H 1.02505 0.59778 -0.05136
 H161 H 1.00342 0.52674 -0.21554
 H162 H 0.98458 0.47315 -0.22153
 H163 H 1.00828 0.41684 -0.06913
 H164 H 0.99212 0.40502 0.11187
 H165 H 0.98632 0.46355 0.21385
 H166 H 1.00321 0.51654 0.22076
 O167 O 0.43317 0.48427 0.13359
 O168 O 0.44044 0.52489 0.05833
 C169 C 0.42711 0.50649 0.11234
 O170 O 0.57410 0.52983 0.12319
 O171 O 0.56369 0.48356 0.06423
 C172 C 0.57975 0.50652 0.10929
 O173 O 0.53014 0.57598 0.12110
 O174 O 0.48746 0.56952 0.05345
 C175 C 0.50895 0.58391 0.10231
 O176 O 0.47083 0.43194 0.13299
 O177 O 0.51394 0.43653 0.06917
 C178 C 0.49194 0.42330 0.11744
 Zr179 Zr 0.46485 0.46963 0.09084
 O180 O 0.46117 0.46690 0.20184
 O181 O 0.41908 0.42763 0.08151
 Zr182 Zr 0.53765 0.53851 0.08409
 O183 O 0.54133 0.54133 0.19523
 O184 O 0.58126 0.58309 0.07435
 O185 O 0.48825 0.51979 0.09902
 O186 O 0.51426 0.48945 0.10328
 O187 O 0.47014 0.42617 -0.11812
 O188 O 0.51365 0.43382 -0.05195
 C189 C 0.49181 0.41877 -0.09961
 O190 O 0.52745 0.56927 -0.13799
 O191 O 0.48584 0.56624 -0.07086
 C192 C 0.50652 0.57810 -0.12187
 O193 O 0.57172 0.52273 -0.12735
 O194 O 0.56215 0.47986 -0.05676
 C195 C 0.57721 0.49995 -0.10738
 O196 O 0.43097 0.47671 -0.13246
 O197 O 0.43925 0.52126 -0.06925
 C198 C 0.42490 0.49970 -0.11807
 Zr199 Zr 0.46364 0.46497 -0.08444
 O200 O 0.45885 0.45633 -0.19410
 O201 O 0.41723 0.42411 -0.06980
 Zr202 Zr 0.53641 0.53410 -0.09180
 O203 O 0.53946 0.53229 -0.20275
 O204 O 0.58016 0.57888 -0.08993
 Zr205 Zr 0.47826 0.52790 -0.00472
 Zr206 Zr 0.52323 0.47588 0.00392
 O207 O 0.51277 0.48439 -0.09903
 O208 O 0.48677 0.51444 -0.10500
 O209 O 0.47245 0.44633 0.00633
 O210 O 0.52896 0.55651 -0.00676
 O211 O 0.44575 0.47796 0.00119
 O212 O 0.55621 0.52587 -0.00193
 H213 H 0.52116 0.48299 0.14649
 H214 H 0.53866 0.58027 -0.00953
 H215 H 0.51884 0.47605 -0.14071
 H216 H 0.42232 0.47069 0.00153
 H217 H 0.59756 0.57865 0.05279
 H218 H 0.59715 0.57500 -0.07044
 H219 H 0.51802 0.52664 -0.22197
 H220 H 0.47666 0.47567 -0.21645
 H221 H 0.42025 0.40666 -0.04989
 H222 H 0.41081 0.42154 0.13020
 H223 H 0.48205 0.48401 0.22051
 H224 H 0.52009 0.53680 0.21386
 O225 O 0.47165 0.04595 0.12880
 O226 O 0.51534 0.08090 0.06211
 C227 C 0.49453 0.07464 0.11197
 O228 O 0.52037 -0.04697 0.13283
 O229 O 0.47742 -0.08218 0.06464
 C230 C 0.49805 -0.07575 0.11486
 O231 O 0.56364 0.04314 0.13892
 O232 O 0.56020 0.07966 0.06623
 C233 C 0.57200 0.07232 0.11983
 O234 O 0.42186 -0.04413 0.12219
 O235 O 0.42995 -0.08088 0.05992
 C236 C 0.41474 -0.07337 0.10623
 Zr237 Zr 0.46045 0.00038 0.08633
 O238 O 0.45469 -0.00190 0.19706
 O239 O 0.41797 0.00310 0.07170
 Zr240 Zr 0.53065 -0.00152 0.09214
 O241 O 0.53381 -0.00307 0.20285
 O242 O 0.57609 0.00081 0.08460
 O243 O 0.51004 0.02781 0.10308
 O244 O 0.48095 -0.02826 0.10272
 O245 O 0.42510 -0.04515 -0.12715
 O246 O 0.43167 -0.08137 -0.05975
 C247 C 0.41763 -0.07424 -0.10912
 O248 O 0.56784 0.04237 -0.12798
 O249 O 0.56211 0.07926 -0.06076
 C250 C 0.57574 0.07164 -0.11054
 O251 O 0.52425 -0.04737 -0.12025
 O252 O 0.47950 -0.08261 -0.05655
 C253 C 0.50172 -0.07616 -0.10345
 O254 O 0.47379 0.04491 -0.13293
 O255 O 0.51631 0.08042 -0.06404
 C256 C 0.49607 0.07373 -0.11532
 Zr257 Zr 0.46263 -0.00019 -0.08956
 O258 O 0.46059 -0.00338 -0.20082
 O259 O 0.42040 0.00389 -0.08739
 Zr260 Zr 0.53295 -0.00191 -0.08342
 O261 O 0.53812 -0.00429 -0.19342
 O262 O 0.57817 0.00053 -0.06941
 Zr263 Zr 0.52174 0.04767 0.00089
 Zr264 Zr 0.47157 -0.04925 0.00158
 O265 O 0.48359 -0.02882 -0.09978
 O266 O 0.51265 0.02735 -0.10106
 O267 O 0.44110 -0.02903 -0.00179
 O268 O 0.55167 0.02695 0.00467
 O269 O 0.47142 0.02889 -0.00211
 O270 O 0.52194 -0.03127 0.00498
 H271 H 0.47300 -0.04193 0.14534
 H272 H 0.57534 0.04187 0.00610
 H273 H 0.47683 -0.04288 -0.14204
 H274 H 0.46321 0.04430 -0.00319
 H275 H 0.57205 -0.02117 0.07371
 H276 H 0.57395 -0.02098 -0.05374
 H277 H 0.52009 -0.00289 -0.21524
 H278 H 0.48236 0.01211 -0.21889
 H279 H 0.40358 -0.01500 -0.06150
 H280 H 0.41016 0.00402 0.11955
 H281 H 0.47646 0.01127 0.21772
 H282 H 0.51430 -0.00359 0.22208
 C283 C 1.13267 0.47925 0.23835
 C284 C 1.11637 0.46133 0.29773
 C285 C 1.13339 0.46267 0.35843
 C286 C 1.16739 0.48218 0.36156
 C287 C 1.18376 0.49838 0.29931
 C288 C 1.16647 0.49725 0.23862
 C289 C 1.11388 0.48145 0.18143
 C290 C 1.09557 0.48297 0.13988
 H291 H 1.09021 0.44705 0.29804
 H292 H 1.11960 0.44822 0.40289
 H293 H 1.20972 0.51403 0.29862
 H294 H 1.17938 0.51145 0.19307
 C295 C 0.51311 0.65122 0.23864
 C296 C 0.53181 0.65330 0.29694
 C297 C 0.53133 0.66961 0.35740
 C298 C 0.51196 0.68429 0.36132
 C299 C 0.49522 0.68430 0.29987
 C300 C 0.49542 0.66742 0.23935
 C301 C 0.51022 0.62961 0.18250
 C302 C 0.50890 0.60950 0.14196
 H303 H 0.54594 0.64122 0.29672
 H304 H 0.54618 0.67046 0.40130
 H305 H 0.47982 0.69497 0.29999
 H306 H 0.48076 0.66590 0.19444
 C307 C 0.35700 -0.13939 0.25069
 C308 C 0.37527 -0.13880 0.30850
 C309 C 0.36021 -0.15652 0.36871
 C310 C 0.32615 -0.17547 0.37316
 C311 C 0.30798 -0.17687 0.31300
 C312 C 0.32332 -0.15871 0.25260
 C313 C 0.37371 -0.11834 0.19237
 C314 C 0.39086 -0.09872 0.14928
 H315 H 0.40140 -0.12418 0.30746
 H316 H 0.37568 -0.15581 0.41109
 H317 H 0.28185 -0.19039 0.31333
 H318 H 0.30887 -0.15919 0.20819
 C319 C 0.86516 0.50427 0.26254
 C320 C 0.87788 0.52980 0.31079
 C321 C 0.85969 0.52917 0.36890
 C322 C 0.82843 0.50294 0.37963
 C323 C 0.81520 0.47790 0.32956
 C324 C 0.83361 0.47848 0.27138
 C325 C 0.88593 0.50365 0.20832
 C326 C 0.90521 0.50395 0.16681
 H327 H 0.90229 0.54980 0.30464
 H328 H 0.87026 0.54892 0.40634
 H329 H 0.79123 0.45738 0.33696
 H330 H 0.82365 0.45845 0.23460
 C331 C 0.49798 0.36273 0.25805
 C332 C 0.47511 0.33008 0.26784
 C333 C 0.47715 0.31359 0.32679
 C334 C 0.50185 0.32983 0.37666
 C335 C 0.52522 0.36227 0.36501
 C336 C 0.52328 0.37856 0.30615
 C337 C 0.49444 0.38134 0.20303
 C338 C 0.49266 0.39932 0.16128
 H339 H 0.45527 0.31768 0.23116
 H340 H 0.45880 0.28863 0.33489
 H341 H 0.54468 0.37518 0.40229
 H342 H 0.54103 0.40384 0.29925
 C343 C 0.63231 0.13890 0.26125
 C344 C 0.63633 0.16985 0.27002
 C345 C 0.65307 0.18857 0.32872
 C346 C 0.66539 0.17614 0.37937
 C347 C 0.66189 0.14542 0.36901
 C348 C 0.64550 0.12698 0.31038
 C349 C 0.61235 0.11775 0.20609
 C350 C 0.59456 0.09792 0.16414
 H351 H 0.62588 0.17914 0.23261
 H352 H 0.65543 0.21215 0.33587
 H353 H 0.67152 0.13552 0.40695
 H354 H 0.64238 0.10301 0.30435
 C355 C 0.50640 0.14202 -0.25585
 C356 C 0.52607 0.14477 -0.31288
 C357 C 0.52743 0.16273 -0.37167
 C358 C 0.50901 0.17849 -0.37512
 C359 C 0.49043 0.17679 -0.31537
 C360 C 0.48892 0.15840 -0.25659
 C361 C 0.50242 0.11994 -0.20038
 C362 C 0.49939 0.09966 -0.15872
 H363 H 0.53991 0.13238 -0.31263
 H364 H 0.54349 0.16456 -0.41398
 H365 H 0.47531 0.18773 -0.31518
 H366 H 0.47335 0.15615 -0.21279
 C367 C 0.63090 0.48320 -0.24911
 C368 C 0.61349 0.46824 -0.31011
 C369 C 0.62939 0.46646 -0.37021
 C370 C 0.66331 0.47977 -0.37083
 C371 C 0.68021 0.49267 -0.30693
 C372 C 0.66415 0.49467 -0.24695
 C373 C 0.61462 0.48933 -0.19237
 C374 C 0.59886 0.49453 -0.15012
 H375 H 0.58763 0.45891 -0.31211
 H376 H 0.61485 0.45462 -0.41612
 H377 H 0.70624 0.50372 -0.30418
 H378 H 0.67790 0.50644 -0.20000
 C379 C 0.85636 0.36922 -0.26188
 C380 C 0.82256 0.35333 -0.25957
 C381 C 0.80444 0.33646 -0.31895
 C382 C 0.81997 0.33572 -0.38201
 C383 C 0.85414 0.35149 -0.38201
 C384 C 0.87192 0.36797 -0.32297
 C385 C 0.87618 0.38797 -0.20382
 C386 C 0.89596 0.40507 -0.16098
 H387 H 0.81026 0.35432 -0.21242
 H388 H 0.77843 0.32542 -0.31587
 H389 H 0.86758 0.35031 -0.42678
 H390 H 0.89808 0.37987 -0.32510
 C391 C 0.49998 -0.14038 -0.24621
 C392 C 0.51779 -0.12468 -0.30642
 C393 C 0.51575 -0.14229 -0.36682
 C394 C 0.49585 -0.17601 -0.36804
 C395 C 0.47900 -0.19190 -0.30652
 C396 C 0.48088 -0.17412 -0.24596
 C397 C 0.49961 -0.12097 -0.18828
 C398 C 0.50010 -0.10197 -0.14555
 H399 H 0.53256 -0.09860 -0.30741
 H400 H 0.52928 -0.12949 -0.41317
 H401 H 0.46337 -0.21786 -0.30632
 H402 H 0.46678 -0.18654 -0.19989
 C403 C 0.36293 0.50210 -0.26151
 C404 C 0.34611 0.51917 -0.25687
 C405 C 0.32888 0.52064 -0.31523
 C406 C 0.32868 0.50534 -0.37884
 C407 C 0.34471 0.48739 -0.38197
 C408 C 0.36166 0.48580 -0.32381
 C409 C 0.38325 0.50244 -0.20505
 C410 C 0.40167 0.50180 -0.16245
 H411 H 0.34698 0.53196 -0.20898
 H412 H 0.31685 0.53475 -0.31167
 H413 H 0.34462 0.47506 -0.43002
 H414 H 0.37452 0.47248 -0.32807
 C415 C 1.14403 0.63400 -0.25012
 C416 C 1.15972 0.66771 -0.25374
 C417 C 1.17699 0.68376 -0.31448
 C418 C 1.17836 0.66625 -0.37350
 C419 C 1.16307 0.63226 -0.36747
 C420 C 1.14620 0.61648 -0.30673
 C421 C 1.12299 0.61655 -0.19223
 C422 C 1.10320 0.59955 -0.14919
 H423 H 1.15783 0.68154 -0.21052
 H424 H 1.18745 0.70969 -0.31605
 H425 H 1.16458 0.61751 -0.40902
 H426 H 1.13426 0.59036 -0.30454
 C427 C 0.86508 0.51412 -0.24152
 C428 C 0.83223 0.49091 -0.24588
 C429 C 0.81414 0.49009 -0.30468
 C430 C 0.82892 0.51223 -0.35994
 C431 C 0.86145 0.53642 -0.35333
 C432 C 0.87937 0.53734 -0.29449
 C433 C 0.88540 0.51214 -0.18816
 C434 C 0.90440 0.51087 -0.14838
 H435 H 0.82099 0.47263 -0.20553
 H436 H 0.78918 0.47105 -0.30892
 H437 H 0.87331 0.55386 -0.39500
 H438 H 0.90480 0.55531 -0.29189
 C439 C 0.50444 0.36266 -0.24178
 C440 C 0.52052 0.38090 -0.30097
 C441 C 0.52334 0.36592 -0.36147
 C442 C 0.51000 0.33207 -0.36450
 C443 C 0.49582 0.31418 -0.30242
 C444 C 0.49272 0.32936 -0.24187
 C445 C 0.49846 0.37870 -0.18423
 C446 C 0.49449 0.39527 -0.14186
 H447 H 0.53016 0.40679 -0.30114
 H448 H 0.53621 0.38118 -0.40574
 H449 H 0.48486 0.28816 -0.30177
 H450 H 0.48020 0.31498 -0.19622
 C451 C 0.64196 0.13802 -0.24437
 C452 C 0.65022 0.17056 -0.24713
 C453 C 0.66718 0.18949 -0.30529
 C454 C 0.67555 0.17580 -0.36140
 C455 C 0.66862 0.14364 -0.35638
 C456 C 0.65198 0.12491 -0.29823
 C457 C 0.62011 0.11674 -0.19156
 C458 C 0.60043 0.09704 -0.15197
 H459 H 0.64235 0.18088 -0.20603
 H460 H 0.67202 0.21415 -0.30844
 H461 H 0.67494 0.13263 -0.39893
 H462 H 0.64560 0.09974 -0.29687
 C463 C 1.13300 0.48762 -0.25866
 C464 C 1.11757 0.46689 -0.31516
 C465 C 1.13491 0.46830 -0.37541
 C466 C 1.16834 0.49066 -0.38093
 C467 C 1.18392 0.51053 -0.32189
 C468 C 1.16626 0.50921 -0.26163
 C469 C 1.11350 0.48838 -0.20167
 C470 C 1.09480 0.48854 -0.15917
 H471 H 1.09182 0.44998 -0.31333
 H472 H 1.12191 0.45125 -0.41716
 H473 H 1.20926 0.52863 -0.32328
 H474 H 1.17837 0.52571 -0.21840
 C475 C 0.50621 0.64126 -0.26351
 C476 C 0.52679 0.64669 -0.32040
 C477 C 0.52575 0.66355 -0.37896
 C478 C 0.50389 0.67540 -0.38238
 C479 C 0.48426 0.67105 -0.32282
 C480 C 0.48522 0.65379 -0.26418
 C481 C 0.50546 0.62059 -0.20796
 C482 C 0.50566 0.60184 -0.16609
 H483 H 0.54333 0.63731 -0.32014
 H484 H 0.54267 0.66766 -0.42112
 H485 H 0.46665 0.67903 -0.32269
 H486 H 0.46896 0.64943 -0.22040
 C487 C 0.36095 -0.14385 -0.24865
 C488 C 0.32721 -0.15952 -0.25328
 C489 C 0.31157 -0.17829 -0.31258
 C490 C 0.32964 -0.18116 -0.36793
 C491 C 0.36335 -0.16655 -0.36123
 C492 C 0.37887 -0.14805 -0.30190
 C493 C 0.37796 -0.12089 -0.19363
 C494 C 0.39466 -0.10014 -0.15216
 H495 H 0.31316 -0.15626 -0.21253
 H496 H 0.28558 -0.18914 -0.31693
 H497 H 0.37773 -0.16861 -0.40297
 H498 H 0.40501 -0.13597 -0.29885
 C499 C 0.48372 -0.14582 0.25466
 C500 C 0.50150 -0.16187 0.25672
 C501 C 0.49913 -0.18067 0.31517
 C502 C 0.47914 -0.18336 0.37242
 C503 C 0.46023 -0.16837 0.36833
 C504 C 0.46253 -0.14973 0.30977
 C505 C 0.48936 -0.12274 0.20022
 C506 C 0.49386 -0.10192 0.15864
 H507 H 0.51814 -0.15881 0.21460
 H508 H 0.51426 -0.19163 0.31733
 H509 H 0.44447 -0.17025 0.41141
 H510 H 0.44870 -0.13733 0.30875
 C511 C 0.37048 0.52301 0.24666
 C512 C 0.38666 0.54499 0.30118
 C513 C 0.36946 0.54637 0.35942
 C514 C 0.33585 0.52572 0.36378
 C515 C 0.31952 0.50523 0.30664
 C516 C 0.33680 0.50378 0.24851
 C517 C 0.38894 0.51740 0.19430
 C518 C 0.40561 0.51230 0.15455
 H519 H 0.41275 0.55990 0.30035
 H520 H 0.38257 0.56252 0.40249
 H521 H 0.29370 0.48879 0.30902
 H522 H 0.32409 0.48651 0.20687
 C523 C 1.14952 0.62930 0.24795
 C524 C 1.16288 0.66281 0.25246
 C525 C 1.18096 0.67951 0.31164
 C526 C 1.18552 0.66276 0.36719
 C527 C 1.17343 0.62937 0.36045
 C528 C 1.15553 0.61277 0.30118
 C529 C 1.12630 0.61113 0.19415
 C530 C 1.10508 0.59435 0.15364
 H531 H 1.15809 0.67578 0.21190
 H532 H 1.18975 0.70518 0.31587
 H533 H 1.17684 0.61597 0.40222
 H534 H 1.14515 0.58680 0.29839
 C535 C 0.50925 0.14642 0.24857
 C536 C 0.53371 0.15394 0.29807
 C537 C 0.53671 0.17305 0.35652
 C538 C 0.51528 0.18493 0.36613
 C539 C 0.49204 0.17895 0.31400
 C540 C 0.48892 0.15960 0.25566
 C541 C 0.50315 0.12244 0.19559
 C542 C 0.49858 0.10107 0.15517
 H543 H 0.54956 0.14385 0.29317
 H544 H 0.55492 0.17748 0.39576
 H545 H 0.47505 0.18757 0.32060
 H546 H 0.46979 0.15378 0.21788
 C547 C 0.64176 0.50416 0.25195
 C548 C 0.65609 0.48469 0.25033
 C549 C 0.67184 0.48219 0.31026
 C550 C 0.67296 0.49881 0.37246
 C551 C 0.65950 0.51912 0.37261
 C552 C 0.64405 0.52176 0.31283
 C553 C 0.62207 0.50430 0.19469
 C554 C 0.60369 0.50497 0.15213
 H555 H 0.65425 0.47076 0.20369
 H556 H 0.68194 0.46629 0.30906
 H557 H 0.66038 0.53246 0.41957
 H558 H 0.63297 0.53681 0.31484
 C559 C 0.85616 0.35715 0.24214
 C560 C 0.82347 0.34848 0.24595
 C561 C 0.80502 0.33184 0.30497
 C562 C 0.81936 0.32424 0.36078
 C563 C 0.85169 0.33167 0.35484
 C564 C 0.86991 0.34794 0.29588
 C565 C 0.87707 0.37851 0.18828
 C566 C 0.89703 0.39771 0.14841
 H567 H 0.81267 0.35573 0.20493
 H568 H 0.78021 0.32655 0.30891
 H569 H 0.86317 0.32599 0.39726
 H570 H 0.89520 0.35465 0.29371
   
