data_POSCAR
  _audit_creation_date              2014-09-24
  _audit_creation_method            'ToBaCCo'
  _symmetry_space_group_name_H-M    'P1'
  _symmetry_Int_Tables_number       1
  _symmetry_cell_setting            triclinic
  loop_
  _symmetry_equiv_pos_as_xyz
 x,y,z
_cell_length_a 53.8965
_cell_length_b 60.4961
_cell_length_c 8.9341
_cell_angle_alpha 89.700100
_cell_angle_beta 90.201400
_cell_angle_gamma 90.107300
loop_
  _atom_site_label
  _atom_site_type_symbol
  _atom_site_fract_x
  _atom_site_fract_y
  _atom_site_fract_z
C1 C 0.18556 0.24879 0.16453
 C2 C 0.19894 0.22894 0.14695
 C3 C 0.22467 0.22930 0.17786
 C4 C 0.23659 0.24847 0.23124
 C5 C 0.22243 0.26773 0.25119
 C6 C 0.19714 0.26817 0.21482
 C7 C 0.26383 0.24841 0.26438
 C8 C 0.27807 0.26773 0.24614
 C9 C 0.30335 0.26806 0.28277
 C10 C 0.31484 0.24851 0.33145
 C11 C 0.30139 0.22860 0.34743
 C12 C 0.27567 0.22906 0.31630
 H13 H 0.16569 0.24919 0.14756
 H14 H 0.23580 0.21492 0.15375
 H15 H 0.23105 0.28259 0.29378
 H16 H 0.26952 0.28274 0.20476
 H17 H 0.33471 0.24886 0.34845
 H18 H 0.26447 0.21461 0.33916
 C19 C 0.81454 0.24812 0.17443
 C20 C 0.80319 0.26787 0.21859
 C21 C 0.77767 0.26790 0.24955
 C22 C 0.76319 0.24868 0.23077
 C23 C 0.77497 0.22915 0.18375
 C24 C 0.80065 0.22865 0.15792
 C25 C 0.73585 0.24908 0.25884
 C26 C 0.72338 0.23012 0.31181
 C27 C 0.69751 0.23010 0.33734
 C28 C 0.68453 0.25011 0.31464
 C29 C 0.69666 0.26928 0.26419
 C30 C 0.72211 0.26848 0.23367
 H31 H 0.83440 0.24781 0.15642
 H32 H 0.76915 0.28306 0.28695
 H33 H 0.76418 0.21434 0.16406
 H34 H 0.73419 0.21566 0.34007
 H35 H 0.66471 0.25092 0.33166
 H36 H 0.73103 0.28304 0.18779
 C37 C 0.68530 0.74964 0.68531
 C38 C 0.69864 0.73000 0.66463
 C39 C 0.72438 0.72996 0.68979
 C40 C 0.73676 0.74900 0.74125
 C41 C 0.72280 0.76833 0.76480
 C42 C 0.69725 0.76895 0.73395
 C43 C 0.76409 0.74867 0.77088
 C44 C 0.77857 0.76789 0.75130
 C45 C 0.80421 0.76816 0.78501
 C46 C 0.81532 0.74813 0.83101
 C47 C 0.80139 0.72868 0.84779
 C48 C 0.77578 0.72920 0.82058
 H49 H 0.66551 0.74990 0.66369
 H50 H 0.73473 0.71506 0.66659
 H51 H 0.73160 0.78295 0.81003
 H52 H 0.76949 0.78284 0.71456
 H53 H 0.83521 0.74714 0.84628
 H54 H 0.76499 0.71439 0.84097
 C55 C 0.31435 0.74806 0.66653
 C56 C 0.30306 0.76779 0.71147
 C57 C 0.27762 0.76777 0.74468
 C58 C 0.26313 0.74852 0.72724
 C59 C 0.27487 0.72901 0.67943
 C60 C 0.30049 0.72854 0.65153
 C61 C 0.23587 0.74886 0.75773
 C62 C 0.22357 0.72984 0.81125
 C63 C 0.19776 0.72974 0.83884
 C64 C 0.18468 0.74974 0.81801
 C65 C 0.19664 0.76896 0.76711
 C66 C 0.22201 0.76824 0.73426
 H67 H 0.33417 0.74778 0.64696
 H68 H 0.26915 0.78291 0.78285
 H69 H 0.26408 0.71416 0.66075
 H70 H 0.23447 0.71537 0.83819
 H71 H 0.16490 0.75049 0.83669
 H72 H 0.23077 0.78283 0.68782
 O73 O 1.02394 0.02562 -0.23729
 O74 O 0.97551 -0.01702 -0.27708
 O75 O 0.97559 0.02555 -0.23162
 O76 O 1.02364 -0.01698 -0.28246
 O77 O 1.02449 -0.02251 -0.03834
 O78 O 0.97649 0.01995 0.01238
 O79 O 0.97638 -0.02257 -0.03299
 O80 O 1.02478 0.02001 0.00672
 Cu81 Cu 0.99958 0.00493 -0.28117
 Cu82 Cu 1.00063 -0.00184 0.01104
 C83 C 1.03263 0.03016 -0.10869
 C84 C 0.96781 -0.02725 -0.16162
 C85 C 0.96784 0.03007 -0.10122
 C86 C 1.03213 -0.02718 -0.16870
 O87 O 0.47599 0.51975 0.50484
 O88 O 0.52436 0.47760 0.45505
 O89 O 0.52423 0.52009 0.50286
 O90 O 0.47623 0.47732 0.45725
 O91 O 0.47576 0.48314 0.21339
 O92 O 0.52380 0.52603 0.25916
 O93 O 0.52392 0.48346 0.21122
 O94 O 0.47549 0.52565 0.26108
 Cu95 Cu 0.50027 0.49809 0.50412
 Cu96 Cu 0.49971 0.50523 0.21210
 C97 C 0.46748 0.52998 0.39123
 C98 C 0.53227 0.47314 0.32490
 C99 C 0.53216 0.53048 0.38870
 C100 C 0.46790 0.47276 0.32783
 O101 O -0.02363 0.52492 0.24215
 O102 O 0.02488 0.48260 0.29096
 O103 O 0.02469 0.52527 0.24409
 O104 O -0.02331 0.48229 0.28929
 O105 O -0.02314 0.47697 0.04533
 O106 O 0.02478 0.51986 0.00024
 O107 O 0.02500 0.47730 0.04697
 O108 O -0.02346 0.51950 -0.00169
 Cu109 Cu 0.00065 0.50438 0.29072
 Cu110 Cu 0.00081 0.49785 -0.00124
 C111 C -0.03180 0.52951 0.11211
 C112 C 0.03310 0.47256 0.17686
 C113 C 0.03288 0.52999 0.11462
 C114 C -0.03131 0.47215 0.17462
 O115 O 0.47566 1.02520 0.73850
 O116 O 0.52420 0.98290 0.78558
 O117 O 0.52401 1.02562 0.74006
 O118 O 0.47604 0.98254 0.78325
 O119 O 0.47623 0.97746 0.53905
 O120 O 0.52414 1.02040 0.49604
 O121 O 0.52434 0.97778 0.54143
 O122 O 0.47585 1.02004 0.49441
 Cu123 Cu 0.49998 1.00467 0.78586
 Cu124 Cu 0.50017 0.99840 0.49378
 C125 C 0.46746 1.02990 0.60872
 C126 C 0.53240 0.97292 0.67123
 C127 C 0.53222 1.03045 0.61082
 C128 C 0.46806 0.97250 0.66812
 C129 C 1.18284 0.16878 0.11240
 C130 C 1.16046 0.16987 0.03347
 C131 C 1.15145 0.19033 -0.01476
 C132 C 1.16437 0.20972 0.01902
 C133 C 1.18670 0.20912 0.10290
 C134 C 1.19592 0.18812 0.14621
 C135 C 1.14602 0.15020 0.00812
 C136 C 1.13329 0.13404 -0.01071
 C137 C 1.11774 0.11548 -0.03041
 C138 C 1.10395 0.09994 -0.04564
 C139 C 1.08695 0.08174 -0.06236
 C140 C 1.07792 0.07612 -0.20423
 C141 C 1.06047 0.05914 -0.21968
 C142 C 1.05180 0.04757 -0.09310
 C143 C 1.06124 0.05315 0.04887
 C144 C 1.07868 0.07014 0.06399
 H145 H 1.18991 0.15300 0.15127
 H146 H 1.13423 0.19135 -0.07738
 H147 H 1.15691 0.22506 -0.02429
 H148 H 1.21246 0.18645 0.21411
 H149 H 1.08414 0.08504 -0.30276
 H150 H 1.05360 0.05525 -0.33051
 H151 H 1.05496 0.04458 0.14854
 H152 H 1.08549 0.07440 0.17444
 C153 C 0.67792 0.67006 0.65706
 C154 C 0.65865 0.67083 0.55178
 C155 C 0.65312 0.69075 0.47860
 C156 C 0.66648 0.70992 0.51255
 C157 C 0.68555 0.70941 0.62049
 C158 C 0.69132 0.68921 0.69109
 C159 C 0.64384 0.65146 0.52377
 C160 C 0.63103 0.63542 0.50267
 C161 C 0.61557 0.61686 0.48025
 C162 C 0.60199 0.60123 0.46267
 C163 C 0.58533 0.58284 0.44322
 C164 C 0.57675 0.57730 0.30020
 C165 C 0.55971 0.56005 0.28202
 C166 C 0.55100 0.54813 0.40700
 C167 C 0.55999 0.55365 0.55014
 C168 C 0.57702 0.57090 0.56798
 H169 H 0.68227 0.65477 0.71495
 H170 H 0.63825 0.69152 0.39683
 H171 H 0.66183 0.72516 0.45494
 H172 H 0.70569 0.68836 0.77591
 H173 H 0.58302 0.58647 0.20290
 H174 H 0.55317 0.55623 0.17035
 H175 H 0.55366 0.54481 0.64861
 H176 H 0.58349 0.57508 0.67928
 C177 C -0.17154 0.32293 0.35533
 C178 C -0.15422 0.32791 0.24364
 C179 C -0.15076 0.31327 0.12492
 C180 C -0.16454 0.29374 0.11747
 C181 C -0.18202 0.28855 0.22890
 C182 C -0.18539 0.30336 0.34805
 C183 C -0.13993 0.34801 0.24933
 C184 C -0.12758 0.36464 0.24968
 C185 C -0.11267 0.38383 0.24512
 C186 C -0.09956 0.39995 0.23695
 C187 C -0.08344 0.41882 0.22222
 C188 C -0.07569 0.42561 0.07992
 C189 C -0.05906 0.44320 0.06441
 C190 C -0.04992 0.45427 0.19133
 C191 C -0.05813 0.44758 0.33396
 C192 C -0.07477 0.42993 0.34920
 H193 H -0.17433 0.33414 0.44793
 H194 H -0.13747 0.31700 0.03761
 H195 H -0.16179 0.28283 0.02326
 H196 H -0.19853 0.29971 0.43624
 H197 H -0.08224 0.41709 -0.01909
 H198 H -0.05314 0.44793 -0.04697
 H199 H -0.05142 0.45574 0.43382
 H200 H -0.08062 0.42477 0.45993
 C201 C 0.34879 0.81331 0.61461
 C202 C 0.34555 0.82791 0.73381
 C203 C 0.32849 0.82286 0.84681
 C204 C 0.31468 0.80326 0.84039
 C205 C 0.31783 0.78849 0.72077
 C206 C 0.33505 0.79374 0.60803
 C207 C 0.35980 0.84804 0.73883
 C208 C 0.37210 0.86470 0.73900
 C209 C 0.38692 0.88394 0.73464
 C210 C 0.39997 0.90011 0.72698
 C211 C 0.41604 0.91904 0.71312
 C212 C 0.42466 0.93004 0.84064
 C213 C 0.44127 0.94773 0.82627
 C214 C 0.44947 0.95459 0.68397
 C215 C 0.44037 0.94362 0.55652
 C216 C 0.42379 0.92598 0.57117
 H217 H 0.36188 0.81709 0.52629
 H218 H 0.32588 0.83403 0.93979
 H219 H 0.30176 0.79955 0.92963
 H220 H 0.33763 0.78286 0.51350
 H221 H 0.41883 0.92476 0.95113
 H222 H 0.44796 0.95580 0.92654
 H223 H 0.44629 0.94847 0.44538
 H224 H 0.41727 0.91755 0.47174
 C225 C -0.15431 0.68794 0.03051
 C226 C -0.15993 0.66851 -0.04693
 C227 C -0.17898 0.66848 -0.15381
 C228 C -0.19204 0.68792 -0.18533
 C229 C -0.18611 0.70766 -0.11055
 C230 C -0.16731 0.70739 -0.00091
 C231 C -0.14526 0.64897 -0.02191
 C232 C -0.13241 0.63292 -0.00254
 C233 C -0.11677 0.61448 0.01865
 C234 C -0.10295 0.59902 0.03583
 C235 C -0.08595 0.58092 0.05561
 C236 C -0.07712 0.56947 -0.06901
 C237 C -0.05974 0.55254 -0.05063
 C238 C -0.05092 0.54685 0.09295
 C239 C -0.06015 0.55828 0.21772
 C240 C -0.07753 0.57521 0.19899
 H241 H -0.13958 0.68816 0.11333
 H242 H -0.18338 0.65355 -0.21505
 H243 H -0.20620 0.68768 -0.27160
 H244 H -0.16254 0.72228 0.05955
 H245 H -0.08346 0.57381 -0.18058
 H246 H -0.05301 0.54408 -0.14895
 H247 H -0.05375 0.55432 0.32970
 H248 H -0.08418 0.58401 0.29620
 C249 C 0.31728 1.16835 0.37772
 C250 C 0.33964 1.16922 0.45704
 C251 C 0.34869 1.18953 0.50689
 C252 C 0.33584 1.20901 0.47439
 C253 C 0.31354 1.20866 0.39017
 C254 C 0.30427 1.18779 0.34516
 C255 C 0.35398 1.14947 0.48176
 C256 C 0.36665 1.13329 0.50059
 C257 C 0.38217 1.11474 0.52084
 C258 C 0.39596 1.09924 0.53705
 C259 C 0.41299 1.08112 0.55559
 C260 C 0.42146 1.07526 0.69856
 C261 C 0.43896 1.05840 0.71613
 C262 C 0.44824 1.04718 0.59061
 C263 C 0.43935 1.05300 0.44745
 C264 C 0.42186 1.06988 0.43020
 H265 H 0.31018 1.15269 0.33762
 H266 H 0.36588 1.19037 0.56987
 H267 H 0.34333 1.22421 0.51891
 H268 H 0.28775 1.18633 0.27691
 H269 H 0.41478 1.08390 0.79634
 H270 H 0.44540 1.05432 0.82784
 H271 H 0.44611 1.04470 0.34858
 H272 H 0.41549 1.07433 0.31893
 C273 C 1.14504 -0.19024 -0.31987
 C274 C 1.15523 -0.17055 -0.26547
 C275 C 1.17926 -0.17047 -0.20570
 C276 C 1.19291 -0.19007 -0.19799
 C277 C 1.18264 -0.21004 -0.24963
 C278 C 1.15865 -0.20987 -0.31215
 C279 C 1.14061 -0.15067 -0.26453
 C280 C 1.12812 -0.13418 -0.26022
 C281 C 1.11316 -0.11512 -0.25124
 C282 C 1.10007 -0.09908 -0.24019
 C283 C 1.08403 -0.08029 -0.22303
 C284 C 1.07679 -0.07375 -0.07971
 C285 C 1.06026 -0.05621 -0.06202
 C286 C 1.05069 -0.04495 -0.18773
 C287 C 1.05839 -0.05140 -0.33141
 C288 C 1.07494 -0.06898 -0.34881
 H289 H 1.12645 -0.19049 -0.36643
 H290 H 1.18728 -0.15534 -0.16256
 H291 H 1.21123 -0.18974 -0.14780
 H292 H 1.15039 -0.22492 -0.35468
 H293 H 1.08368 -0.08241 0.01842
 H294 H 1.05472 -0.05168 0.05009
 H295 H 1.05135 -0.04309 -0.43041
 H296 H 1.08039 -0.07394 -0.46030
 C297 C 0.67942 0.32990 0.28925
 C298 C 0.65549 0.32987 0.22803
 C299 C 0.64535 0.31019 0.17306
 C300 C 0.65889 0.29053 0.18179
 C301 C 0.68277 0.29031 0.24598
 C302 C 0.69301 0.31027 0.29797
 C303 C 0.64091 0.34977 0.22835
 C304 C 0.62843 0.36627 0.23247
 C305 C 0.61348 0.38534 0.24154
 C306 C 0.60039 0.40138 0.25273
 C307 C 0.58433 0.42017 0.27013
 C308 C 0.57540 0.43162 0.14456
 C309 C 0.55882 0.44918 0.16217
 C310 C 0.55092 0.45544 0.30584
 C311 C 0.56034 0.44404 0.43137
 C312 C 0.57691 0.42653 0.41346
 H313 H 0.68741 0.34502 0.33281
 H314 H 0.62684 0.30998 0.12539
 H315 H 0.65067 0.27549 0.13883
 H316 H 0.71124 0.31058 0.34928
 H317 H 0.58098 0.42679 0.03304
 H318 H 0.55189 0.45759 0.06328
 H319 H 0.55464 0.44843 0.54345
 H320 H 0.58368 0.41776 0.51142
 C321 C 0.85342 -0.18935 -0.14037
 C322 C 0.84612 -0.17220 -0.23567
 C323 C 0.82518 -0.17479 -0.32652
 C324 C 0.81145 -0.19442 -0.32133
 C325 C 0.81841 -0.21200 -0.22468
 C326 C 0.83983 -0.20900 -0.13472
 C327 C 0.86007 -0.15189 -0.23784
 C328 C 0.87216 -0.13512 -0.23579
 C329 C 0.88679 -0.11578 -0.22922
 C330 C 0.89971 -0.09956 -0.22029
 C331 C 0.91567 -0.08059 -0.20591
 C332 C 0.92385 -0.06919 -0.33325
 C333 C 0.94045 -0.05151 -0.31898
 C334 C 0.94912 -0.04508 -0.17689
 C335 C 0.94044 -0.05642 -0.04946
 C336 C 0.92385 -0.07405 -0.06404
 H337 H 0.86952 -0.18744 -0.06850
 H338 H 0.81948 -0.16164 -0.40188
 H339 H 0.79594 -0.19587 -0.39765
 H340 H 0.84568 -0.22130 -0.05384
 H341 H 0.91768 -0.07415 -0.44363
 H342 H 0.94680 -0.04314 -0.41926
 H343 H 0.94673 -0.05189 0.06148
 H344 H 0.91767 -0.08279 0.03530
 C345 C 0.32863 0.32306 0.14219
 C346 C 0.34527 0.32848 0.25707
 C347 C 0.34823 0.31417 0.37928
 C348 C 0.33465 0.29453 0.38700
 C349 C 0.31787 0.28889 0.27237
 C350 C 0.31498 0.30338 0.14976
 C351 C 0.35943 0.34865 0.25097
 C352 C 0.37170 0.36533 0.25054
 C353 C 0.38654 0.38455 0.25531
 C354 C 0.39961 0.40068 0.26372
 C355 C 0.41572 0.41954 0.27886
 C356 C 0.42361 0.42605 0.42133
 C357 C 0.44024 0.44362 0.43729
 C358 C 0.44926 0.45494 0.31066
 C359 C 0.44091 0.44852 0.16782
 C360 C 0.42425 0.43090 0.15215
 H361 H 0.32625 0.33401 0.04689
 H362 H 0.36101 0.31823 0.46898
 H363 H 0.33702 0.28386 0.48371
 H364 H 0.30239 0.29937 0.05913
 H365 H 0.41716 0.41735 0.52015
 H366 H 0.44627 0.44814 0.54876
 H367 H 0.44752 0.45688 0.06811
 H368 H 0.41831 0.42596 0.04127
 C369 C 0.18115 0.66971 -0.12211
 C370 C 0.15871 0.67096 -0.04496
 C371 C 0.14974 0.69150 0.00005
 C372 C 0.16279 0.71081 -0.03489
 C373 C 0.18524 0.71004 -0.11656
 C374 C 0.19435 0.68897 -0.15708
 C375 C 0.14428 0.65131 -0.01751
 C376 C 0.13167 0.63511 0.00327
 C377 C 0.11634 0.61645 0.02538
 C378 C 0.10280 0.60076 0.04261
 C379 C 0.08614 0.58234 0.06156
 C380 C 0.07771 0.57652 0.20440
 C381 C 0.06063 0.55928 0.22203
 C382 C 0.05173 0.54765 0.09672
 C383 C 0.06057 0.55345 -0.04626
 C384 C 0.07765 0.57070 -0.06356
 H385 H 0.18819 0.65386 -0.15850
 H386 H 0.13247 0.69264 0.06132
 H387 H 0.15536 0.72621 0.00612
 H388 H 0.21094 0.68716 -0.22361
 H389 H 0.08411 0.58546 0.30199
 H390 H 0.05420 0.55523 0.33357
 H391 H 0.05409 0.54485 -0.14500
 H392 H 0.08400 0.57512 -0.17471
 C393 C 0.64905 1.19212 0.49678
 C394 C 0.65809 1.17151 0.45388
 C395 C 0.68068 1.17013 0.37844
 C396 C 0.69399 1.18933 0.34325
 C397 C 0.68483 1.21047 0.38186
 C398 C 0.66221 1.21137 0.46168
 C399 C 0.64359 1.15190 0.48167
 C400 C 0.63095 1.13572 0.50249
 C401 C 0.61560 1.11706 0.52440
 C402 C 0.60207 1.10135 0.54132
 C403 C 0.58543 1.08290 0.55972
 C404 C 0.57699 1.07131 0.43426
 C405 C 0.55994 1.05403 0.45095
 C406 C 0.55106 1.04814 0.59365
 C407 C 0.55990 1.05971 0.71935
 C408 C 0.57696 1.07699 0.70232
 H409 H 0.63165 1.19337 0.55657
 H410 H 0.68777 1.15423 0.34354
 H411 H 0.71072 1.18741 0.27816
 H412 H 0.65472 1.22683 0.50129
 H413 H 0.58338 1.07579 0.32330
 H414 H 0.55351 1.04547 0.35195
 H415 H 0.55345 1.05559 0.83071
 H416 H 0.58332 1.08589 0.80018
 C417 C 0.15244 0.31461 0.12258
 C418 C 0.15550 0.32851 0.24590
 C419 C 0.17212 0.32269 0.36024
 C420 C 0.18567 0.30303 0.35095
 C421 C 0.18270 0.28896 0.22713
 C422 C 0.16592 0.29498 0.11314
 C423 C 0.14147 0.34869 0.25361
 C424 C 0.12930 0.36538 0.25520
 C425 C 0.11456 0.38463 0.25132
 C426 C 0.10155 0.40078 0.24330
 C427 C 0.08549 0.41964 0.22791
 C428 C 0.07650 0.43053 0.35444
 C429 C 0.05980 0.44808 0.33815
 C430 C 0.05186 0.45489 0.19489
 C431 C 0.06135 0.44405 0.06850
 C432 C 0.07803 0.42656 0.08507
 H433 H 0.13967 0.31897 0.03327
 H434 H 0.17458 0.33332 0.45641
 H435 H 0.19826 0.29872 0.44113
 H436 H 0.16348 0.28465 0.01557
 H437 H 0.08210 0.42526 0.46559
 H438 H 0.05281 0.45606 0.43766
 H439 H 0.05564 0.44887 -0.04331
 H440 H 0.08483 0.41822 -0.01364
 C441 C 0.67965 0.82951 0.70487
 C442 C 0.65561 0.82929 0.76356
 C443 C 0.64546 0.80949 0.81745
 C444 C 0.65913 0.78990 0.81049
 C445 C 0.68316 0.78988 0.74937
 C446 C 0.69336 0.80995 0.69791
 C447 C 0.64098 0.84917 0.76240
 C448 C 0.62848 0.86567 0.75811
 C449 C 0.61354 0.88476 0.74931
 C450 C 0.60046 0.90084 0.73869
 C451 C 0.58442 0.91970 0.72237
 C452 C 0.57569 0.93081 0.84867
 C453 C 0.55913 0.94845 0.83224
 C454 C 0.55106 0.95515 0.68902
 C455 C 0.56028 0.94409 0.56275
 C456 C 0.57683 0.92649 0.57949
 H457 H 0.68763 0.84472 0.66213
 H458 H 0.62687 0.80914 0.86315
 H459 H 0.65091 0.77477 0.85261
 H460 H 0.71167 0.81041 0.64848
 H461 H 0.58141 0.92566 0.95985
 H462 H 0.55235 0.95660 0.93166
 H463 H 0.55446 0.94882 0.45098
 H464 H 0.58344 0.91799 0.48096
 C465 C 0.84515 0.18825 -0.02179
 C466 C 0.83955 0.16870 0.05556
 C467 C 0.82042 0.16848 0.16113
 C468 C 0.80728 0.18785 0.19158
 C469 C 0.81321 0.20771 0.11709
 C470 C 0.83206 0.20762 0.00856
 C471 C 0.85428 0.14923 0.03159
 C472 C 0.86719 0.13323 0.01298
 C473 C 0.88290 0.11486 -0.00743
 C474 C 0.89675 0.09946 -0.02419
 C475 C 0.91379 0.08142 -0.04389
 C476 C 0.92299 0.06993 0.08080
 C477 C 0.94037 0.05304 0.06223
 C478 C 0.94880 0.04743 -0.08159
 C479 C 0.93920 0.05891 -0.20636
 C480 C 0.92183 0.07580 -0.18746
 H481 H 0.85991 0.18860 -0.10380
 H482 H 0.81601 0.15347 0.22216
 H483 H 0.79304 0.18747 0.27679
 H484 H 0.83681 0.22259 -0.05200
 H485 H 0.91694 0.07419 0.19252
 H486 H 0.94738 0.04453 0.16057
 H487 H 0.94528 0.05500 -0.31853
 H488 H 0.91488 0.08462 -0.28474
 C489 C 0.34469 0.68805 0.47010
 C490 C 0.33924 0.66856 0.54838
 C491 C 0.32032 0.66840 0.65529
 C492 C 0.30723 0.68778 0.68604
 C493 C 0.31300 0.70760 0.61052
 C494 C 0.33166 0.70745 0.50078
 C495 C 0.35392 0.64907 0.52405
 C496 C 0.36679 0.63305 0.50528
 C497 C 0.38244 0.61465 0.48473
 C498 C 0.39627 0.59924 0.46790
 C499 C 0.41329 0.58119 0.44821
 C500 C 0.42232 0.56958 0.57282
 C501 C 0.43972 0.55270 0.55431
 C502 C 0.44836 0.54726 0.41067
 C503 C 0.43893 0.55886 0.28597
 C504 C 0.42153 0.57572 0.30479
 H505 H 0.35928 0.68836 0.38701
 H506 H 0.31602 0.65342 0.71700
 H507 H 0.29314 0.68745 0.77219
 H508 H 0.33628 0.72238 0.43945
 H509 H 0.41613 0.57373 0.68443
 H510 H 0.44661 0.54411 0.65257
 H511 H 0.44518 0.55508 0.17395
 H512 H 0.41471 0.58465 0.20764
   
