data_POSCAR
  _audit_creation_date              2014-09-24
  _audit_creation_method            'ToBaCCo'
  _symmetry_space_group_name_H-M    'P1'
  _symmetry_Int_Tables_number       1
  _symmetry_cell_setting            triclinic
  loop_
  _symmetry_equiv_pos_as_xyz
 x,y,z
_cell_length_a 17.0781
_cell_length_b 17.0729
_cell_length_c 24.7621
_cell_angle_alpha 90.000300
_cell_angle_beta 89.710000
_cell_angle_gamma 90.000200
loop_
  _atom_site_label
  _atom_site_type_symbol
  _atom_site_fract_x
  _atom_site_fract_y
  _atom_site_fract_z
O1 O 0.14936 0.09396 0.03577
 O2 O -0.14954 -0.08875 0.03666
 O3 O -0.09006 0.15136 0.03867
 O4 O 0.08992 -0.14605 0.03810
 O5 O -0.13444 0.04278 0.06775
 O6 O 0.13418 -0.03760 0.06703
 O7 O -0.04184 -0.13134 0.06696
 O8 O 0.04169 0.13674 0.06671
 C9 C 0.11229 0.12626 0.07296
 C10 C -0.11252 -0.12129 0.07352
 C11 C -0.12360 0.11332 0.07508
 C12 C 0.12328 -0.10814 0.07438
 O13 O 0.14952 -0.08876 -0.03665
 O14 O -0.14938 0.09395 -0.03578
 O15 O 0.09003 0.15134 -0.03869
 O16 O -0.08995 -0.14607 -0.03809
 O17 O -0.13421 -0.03762 -0.06703
 O18 O 0.13442 0.04276 -0.06776
 O19 O 0.04181 -0.13135 -0.06695
 O20 O -0.04172 0.13673 -0.06673
 Co21 Co 0.12819 0.00259 -0.00035
 Co22 Co -0.12821 0.00258 0.00035
 Co23 Co -0.00002 0.13056 -0.00001
 Co24 Co -0.00001 -0.12520 0.00000
 O25 O -0.00001 0.00264 -0.00000
 C26 C 0.11249 -0.12130 -0.07352
 C27 C -0.11231 0.12624 -0.07298
 C28 C 0.12356 0.11330 -0.07509
 C29 C -0.12331 -0.10816 -0.07438
 O30 O 0.40885 0.34868 0.46379
 O31 O 0.59128 0.64746 0.46342
 O32 O 0.35130 0.58824 0.46214
 O33 O 0.64880 0.40794 0.46143
 O34 O 0.45982 0.63237 0.43275
 O35 O 0.54049 0.36372 0.43254
 O36 O 0.63415 0.53973 0.43277
 O37 O 0.36610 0.45650 0.43346
 C38 C 0.37647 0.38588 0.42691
 C39 C 0.62378 0.61037 0.42633
 C40 C 0.38927 0.62174 0.42569
 C41 C 0.61103 0.37463 0.42508
 O42 O 0.59111 0.34866 0.53620
 O43 O 0.40871 0.64747 0.53658
 O44 O 0.35116 0.40795 0.53856
 O45 O 0.64868 0.58822 0.53786
 O46 O 0.54017 0.63236 0.56725
 O47 O 0.45947 0.36372 0.56745
 O48 O 0.63387 0.45648 0.56653
 O49 O 0.36583 0.53974 0.56723
 Co50 Co 0.49998 0.36985 0.49999
 Co51 Co 0.49999 0.62625 0.50000
 Co52 Co 0.37211 0.49811 0.50032
 Co53 Co 0.62786 0.49810 0.49967
 O54 O 0.49999 0.49807 0.50000
 C55 C 0.62350 0.38586 0.57308
 C56 C 0.37621 0.61038 0.57367
 C57 C 0.38893 0.37464 0.57491
 C58 C 0.61072 0.62172 0.57431
 C59 C 0.21981 0.21541 0.20562
 N60 N 0.19589 0.19330 0.25565
 N61 N 0.22827 0.22487 0.29939
 C62 C 0.28552 0.27944 0.29436
 N63 N 0.30952 0.30146 0.24433
 N64 N 0.27714 0.26989 0.20059
 C65 C 0.18316 0.18336 0.15865
 C66 C 0.15134 0.15706 0.11936
 C67 C 0.31837 0.31547 0.34131
 C68 C 0.34523 0.34695 0.38057
 C69 C 0.77984 0.78568 0.20557
 N70 N 0.72752 0.72648 0.20023
 N71 N 0.69537 0.69350 0.24377
 C72 C 0.71463 0.71874 0.29390
 N73 N 0.76687 0.77802 0.29923
 N74 N 0.79901 0.81100 0.25569
 C75 C 0.81644 0.81930 0.15887
 C76 C 0.84830 0.84679 0.11976
 C77 C 0.68193 0.68162 0.34070
 C78 C 0.65511 0.64953 0.37992
 C79 C 0.78016 0.21537 0.79436
 N80 N 0.72272 0.26974 0.79939
 N81 N 0.69034 0.30131 0.75565
 C82 C 0.71444 0.27940 0.70562
 N83 N 0.77180 0.22494 0.70059
 N84 N 0.80418 0.19337 0.74433
 C85 C 0.81681 0.18333 0.84133
 C86 C 0.84863 0.15703 0.88063
 C87 C 0.68159 0.31544 0.65868
 C88 C 0.65473 0.34692 0.61941
 C89 C 0.22011 0.78570 0.79442
 N90 N 0.20042 0.81055 0.74429
 N91 N 0.23256 0.77757 0.70075
 C92 C 0.28532 0.71877 0.70609
 N93 N 0.30511 0.69399 0.75623
 N94 N 0.27296 0.72697 0.79976
 C95 C 0.18352 0.81931 0.84113
 C96 C 0.15168 0.84679 0.88025
 C97 C 0.31803 0.68163 0.65929
 C98 C 0.34486 0.64954 0.62007
 C99 C 0.21492 0.21599 0.79636
 N100 N 0.19207 0.19438 0.74613
 N101 N 0.22499 0.22673 0.70259
 C102 C 0.28181 0.28169 0.70792
 N103 N 0.30460 0.30335 0.75815
 N104 N 0.27168 0.27101 0.80169
 C105 C 0.18090 0.17958 0.84327
 C106 C 0.15304 0.14815 0.88258
 C107 C 0.31867 0.31515 0.66098
 C108 C 0.35034 0.34261 0.62163
 C109 C 0.78315 0.78456 0.79362
 N110 N 0.73040 0.72575 0.79959
 N111 N 0.69786 0.69254 0.75645
 C112 C 0.71709 0.71710 0.70599
 N113 N 0.76990 0.77586 0.70002
 N114 N 0.80243 0.80907 0.74316
 C115 C 0.81684 0.82160 0.84015
 C116 C 0.84449 0.85332 0.87920
 C117 C 0.68054 0.68266 0.65954
 C118 C 0.64911 0.65445 0.62059
 C119 C 0.21681 0.78462 0.20641
 N120 N 0.19825 0.80977 0.25684
 N121 N 0.23079 0.77656 0.29998
 C122 C 0.28288 0.71716 0.29403
 N123 N 0.30139 0.69197 0.24360
 N124 N 0.26886 0.72517 0.20046
 C125 C 0.18313 0.82164 0.15987
 C126 C 0.15548 0.85336 0.12081
 C127 C 0.31943 0.68271 0.34047
 C128 C 0.35088 0.65448 0.37942
 C129 C 0.78501 0.21605 0.20359
 N130 N 0.80876 0.19539 0.25381
 N131 N 0.77584 0.22773 0.29736
 C132 C 0.71812 0.28174 0.29204
 N133 N 0.69442 0.30246 0.24182
 N134 N 0.72734 0.27011 0.19827
 C135 C 0.81904 0.17963 0.15670
 C136 C 0.84692 0.14817 0.11740
 C137 C 0.68127 0.31518 0.33899
 C138 C 0.64961 0.34263 0.37835
   
