data_POSCAR
  _audit_creation_date              2014-09-24
  _audit_creation_method            'ToBaCCo'
  _symmetry_space_group_name_H-M    'P1'
  _symmetry_Int_Tables_number       1
  _symmetry_cell_setting            triclinic
  loop_
  _symmetry_equiv_pos_as_xyz
 x,y,z
_cell_length_a 44.8694
_cell_length_b 44.4188
_cell_length_c 50.4766
_cell_angle_alpha 89.866500
_cell_angle_beta 90.130500
_cell_angle_gamma 119.782000
loop_
  _atom_site_label
  _atom_site_type_symbol
  _atom_site_fract_x
  _atom_site_fract_y
  _atom_site_fract_z
C1 C 0.02760 0.49506 1.30262
 C2 C -0.00415 0.48221 1.31537
 C3 C -0.03551 0.46419 1.30182
 C4 C -0.03513 0.46126 1.27378
 C5 C -0.00320 0.47598 1.26017
 C6 C 0.02822 0.49238 1.27460
 C7 C 0.05934 0.50827 1.26042
 C8 C 0.05982 0.50651 1.23300
 C9 C 0.02920 0.49011 1.21838
 C10 C -0.00263 0.47551 1.23192
 C11 C -0.06561 0.44629 1.25879
 C12 C -0.06497 0.44528 1.23130
 C13 C -0.03382 0.46114 1.21726
 C14 C -0.03291 0.46182 1.18900
 C15 C -0.00101 0.47471 1.17630
 C16 C 0.02973 0.48901 1.19047
 H17 H 0.08383 0.52320 1.27020
 H18 H 0.08461 0.51908 1.22333
 H19 H -0.09052 0.43585 1.26797
 H20 H -0.08945 0.43178 1.22125
 H21 H -0.00451 0.48355 1.33683
 H22 H 0.00038 0.47580 1.15483
 C23 C 0.48037 0.51436 1.31053
 C24 C 0.48833 0.49196 1.32436
 C25 C 0.50438 0.47542 1.31205
 C26 C 0.51053 0.47987 1.28423
 C27 C 0.50183 0.50200 1.26983
 C28 C 0.48695 0.51947 1.28306
 C29 C 0.47820 0.54091 1.26836
 C30 C 0.48413 0.54536 1.24122
 C31 C 0.49847 0.52806 1.22761
 C32 C 0.50747 0.50623 1.24200
 C33 C 0.52299 0.46110 1.27006
 C34 C 0.52916 0.46581 1.24298
 C35 C 0.52152 0.48816 1.22852
 C36 C 0.52734 0.49276 1.20088
 C37 C 0.51906 0.51499 1.18713
 C38 C 0.50408 0.53203 1.19993
 H39 H 0.46633 0.55424 1.27764
 H40 H 0.47727 0.56250 1.23100
 H41 H 0.52752 0.44193 1.27957
 H42 H 0.53970 0.45136 1.23346
 H43 H 0.48406 0.48945 1.34560
 H44 H 0.52281 0.51774 1.16584
 C45 C 0.48135 0.97044 1.30393
 C46 C 0.50142 1.00208 1.31701
 C47 C 0.51910 1.03375 1.30340
 C48 C 0.51916 1.03333 1.27520
 C49 C 0.49976 1.00146 1.26141
 C50 C 0.48051 0.96997 1.27576
 C51 C 0.46377 0.93857 1.26157
 C52 C 0.46465 0.93800 1.23411
 C53 C 0.48322 0.96868 1.21952
 C54 C 0.50123 1.00076 1.23317
 C55 C 0.54093 1.06326 1.26053
 C56 C 0.54245 1.06251 1.23308
 C57 C 0.52217 1.03181 1.21877
 C58 C 0.52480 1.03054 1.19071
 C59 C 0.50697 0.99834 1.17790
 C60 C 0.48590 0.96778 1.19169
 H61 H 0.45087 0.91371 1.27142
 H62 H 0.45169 0.91294 1.22450
 H63 H 0.55852 1.08740 1.27014
 H64 H 0.56104 1.08615 1.22337
 H65 H 0.50087 1.00231 1.33851
 H66 H 0.50822 0.99708 1.15649
 C67 C 1.03155 0.52510 0.80975
 C68 C 0.99972 0.50804 0.82280
 C69 C 0.96867 0.49329 0.80899
 C70 C 0.96873 0.49399 0.78106
 C71 C 1.00043 0.51030 0.76722
 C72 C 1.03196 0.52605 0.78150
 C73 C 1.06280 0.54063 0.76702
 C74 C 1.06289 0.54206 0.73950
 C75 C 1.03208 0.52678 0.72492
 C76 C 1.00051 0.51087 0.73901
 C77 C 0.93783 0.47913 0.76664
 C78 C 0.93794 0.47980 0.73913
 C79 C 0.96894 0.49557 0.72495
 C80 C 0.96908 0.49689 0.69703
 C81 C 1.00018 0.51435 0.68346
 C82 C 1.03182 0.52843 0.69673
 H83 H 1.08747 0.55101 0.77665
 H84 H 1.08763 0.55570 0.72992
 H85 H 0.91318 0.46685 0.77650
 H86 H 0.91340 0.46820 0.72904
 H87 H 0.99888 0.50781 0.84429
 H88 H 0.99961 0.51458 0.66195
 C89 C 0.52821 0.49988 0.68760
 C90 C 0.51300 0.51681 0.67479
 C91 C 0.49574 0.53050 0.68894
 C92 C 0.49391 0.52777 0.71686
 C93 C 0.50966 0.51112 0.73022
 C94 C 0.52671 0.49692 0.71555
 C95 C 0.54235 0.48080 0.72924
 C96 C 0.54127 0.47862 0.75678
 C97 C 0.52496 0.49293 0.77174
 C98 C 0.50878 0.50911 0.75832
 C99 C 0.47738 0.54186 0.73179
 C100 C 0.47622 0.53959 0.75930
 C101 C 0.49194 0.52355 0.77295
 C102 C 0.49110 0.52137 0.80090
 C103 C 0.50671 0.50498 0.81382
 C104 C 0.52399 0.49118 0.79976
 H105 H 0.55576 0.46985 0.71878
 H106 H 0.55335 0.46553 0.76623
 H107 H 0.46526 0.55494 0.72235
 H108 H 0.46287 0.55060 0.76977
 H109 H 0.51440 0.51915 0.65337
 H110 H 0.50633 0.50391 0.83530
 C111 C 0.50869 0.03109 0.69620
 C112 C 0.49348 -0.00017 0.68234
 C113 C 0.47907 -0.03244 0.69527
 C114 C 0.47840 -0.03314 0.72349
 C115 C 0.49420 -0.00138 0.73784
 C116 C 0.50987 0.03080 0.72412
 C117 C 0.52519 0.06184 0.73866
 C118 C 0.52504 0.06142 0.76621
 C119 C 0.50899 0.02994 0.78027
 C120 C 0.49312 -0.00175 0.76601
 C121 C 0.45992 -0.06438 0.73776
 C122 C 0.45862 -0.06468 0.76530
 C123 C 0.47532 -0.03373 0.77984
 C124 C 0.47347 -0.03376 0.80784
 C125 C 0.48950 -0.00230 0.82156
 C126 C 0.50748 0.02935 0.80825
 H127 H 0.53718 0.08683 0.72888
 H128 H 0.53691 0.08611 0.77637
 H129 H 0.44506 -0.08899 0.72785
 H130 H 0.44370 -0.08949 0.77505
 H131 H 0.49417 0.00097 0.66085
 H132 H 0.48833 -0.00248 0.84304
 O133 O 0.38290 0.64677 0.97753
 O134 O 0.38362 0.70442 0.96654
 C135 C 0.36872 0.72168 0.96153
 O136 O 0.34402 0.71922 0.97545
 O137 O 0.28519 0.66131 0.97121
 C138 C 0.26749 0.62855 0.96899
 O139 O 0.27287 0.60798 0.98310
 O140 O 0.32839 0.60482 0.97329
 C141 C 0.35968 0.61947 0.96643
 O142 O 0.38704 0.66203 1.02964
 O143 O 0.39021 0.72089 1.01840
 C144 C 0.37108 0.72855 1.03199
 O145 O 0.33878 0.71373 1.02871
 O146 O 0.27857 0.65758 1.02436
 C147 C 0.27314 0.63185 1.03879
 O148 O 0.28818 0.61447 1.03503
 O149 O 0.34217 0.60872 1.02561
 C150 C 0.36983 0.63062 1.03695
 Cr151 Cr 0.38403 0.68264 0.99813
 Cr152 Cr 0.31256 0.68695 0.99996
 Cr153 Cr 0.30897 0.61093 1.00410
 O154 O 0.33520 0.66016 1.00071
 O155 O 0.61279 0.34668 0.98341
 O156 O 0.60663 0.28600 0.97484
 C157 C 0.61991 0.26804 0.96741
 O158 O 0.64754 0.27155 0.97720
 O159 O 0.70454 0.32651 0.96342
 C160 C 0.72250 0.35849 0.95798
 O161 O 0.72171 0.38190 0.97188
 O162 O 0.66524 0.38557 0.96949
 C163 C 0.63273 0.37094 0.96788
 O164 O 0.62269 0.34034 1.03535
 O165 O 0.61450 0.27900 1.02716
 C166 C 0.63639 0.27213 1.03725
 O167 O 0.66665 0.28434 1.02837
 O168 O 0.72487 0.33809 1.01429
 C169 C 0.73459 0.36588 1.02735
 O170 O 0.72026 0.38428 1.02517
 O171 O 0.66572 0.39155 1.02270
 C172 C 0.64129 0.37280 1.03835
 Cr173 Cr 0.61604 0.31381 1.00497
 Cr174 Cr 0.68505 0.30622 0.99599
 Cr175 Cr 0.69213 0.38392 0.99739
 O176 O 0.66437 0.33459 0.99947
 O177 O 0.65583 0.38229 0.51869
 O178 O 0.71442 0.38676 0.53066
 C179 C 0.73319 0.37397 0.53685
 O180 O 0.73160 0.34797 0.52489
 O181 O 0.67611 0.28854 0.53359
 C182 C 0.64407 0.27000 0.53746
 O183 O 0.62188 0.27161 0.52264
 O184 O 0.61733 0.32759 0.52843
 C185 C 0.63064 0.35994 0.53226
 O186 O 0.66948 0.37957 0.46697
 O187 O 0.72935 0.38732 0.47912
 C188 C 0.73704 0.36705 0.46700
 O189 O 0.72287 0.33490 0.47217
 O190 O 0.66901 0.27405 0.48135
 C191 C 0.64292 0.26650 0.46689
 O192 O 0.62490 0.28105 0.46952
 O193 O 0.61715 0.33541 0.47530
 C194 C 0.63776 0.36179 0.46170
 Cr195 Cr 0.69145 0.38213 0.49889
 Cr196 Cr 0.69886 0.31213 0.50289
 Cr197 Cr 0.62212 0.30494 0.49899
 O198 O 0.67081 0.33305 0.50028
 O199 O 0.31893 0.61760 0.53360
 O200 O 0.26401 0.62123 0.52275
 C201 C 0.26065 0.64563 0.53285
 O202 O 0.27812 0.67706 0.52553
 O203 O 0.33758 0.73171 0.51542
 C204 C 0.36191 0.73589 0.53065
 O205 O 0.37563 0.71688 0.52944
 O206 O 0.37321 0.65694 0.52521
 C207 C 0.35069 0.63207 0.53887
 O208 O 0.32836 0.61092 0.48150
 O209 O 0.27391 0.61570 0.47044
 C210 C 0.26005 0.63340 0.46363
 O211 O 0.26818 0.66246 0.47396
 O212 O 0.32898 0.71532 0.46372
 C213 C 0.36131 0.73010 0.46103
 O214 O 0.38016 0.72404 0.47641
 O215 O 0.37409 0.66242 0.47221
 C216 C 0.35570 0.62993 0.46847
 Cr217 Cr 0.29740 0.61829 0.50195
 Cr218 Cr 0.30405 0.69553 0.49481
 Cr219 Cr 0.37387 0.68919 0.50074
 O220 O 0.32501 0.66753 0.49918
 C221 C 0.47432 0.58617 0.34584
 C222 C 0.44291 0.56778 0.35987
 C223 C 0.42341 0.53135 0.35608
 C224 C 0.43529 0.51437 0.33934
 C225 C 0.46655 0.53298 0.32605
 C226 C 0.48591 0.56891 0.32936
 C227 C 0.39239 0.51184 0.36930
 C228 C 0.38037 0.52739 0.38677
 C229 C 0.39902 0.56340 0.39184
 C230 C 0.43054 0.58406 0.37784
 C231 C 0.44875 0.62018 0.38249
 C232 C 0.43716 0.63556 0.40057
 C233 C 0.40700 0.61574 0.41482
 C234 C 0.38732 0.57942 0.41060
 C235 C 0.35693 0.56063 0.42566
 C236 C 0.34687 0.57715 0.44411
 C237 C 0.36656 0.61298 0.44837
 C238 C 0.39656 0.63215 0.43346
 H239 H 0.49093 0.61378 0.34746
 H240 H 0.42047 0.48644 0.33693
 H241 H 0.51045 0.58359 0.31948
 H242 H 0.37731 0.48404 0.36630
 H243 H 0.35622 0.51016 0.39608
 H244 H 0.47232 0.63754 0.37249
 H245 H 0.45220 0.66336 0.40357
 H246 H 0.34031 0.53304 0.42395
 H247 H 0.32350 0.56155 0.45522
 H248 H 0.41204 0.65991 0.43646
 C249 C 0.41005 0.88869 0.33263
 C250 C 0.42714 0.88102 0.35292
 C251 C 0.46292 0.90381 0.35598
 C252 C 0.48026 0.93338 0.34002
 C253 C 0.46318 0.94037 0.31972
 C254 C 0.42781 0.91782 0.31638
 C255 C 0.48144 0.89705 0.37492
 C256 C 0.46547 0.86775 0.39074
 C257 C 0.42990 0.84420 0.38865
 C258 C 0.41015 0.85160 0.37017
 C259 C 0.37410 0.82987 0.37008
 C260 C 0.35791 0.80200 0.38747
 C261 C 0.37696 0.79387 0.40501
 C262 C 0.41330 0.81415 0.40518
 C263 C 0.43160 0.80346 0.42193
 C264 C 0.41450 0.77554 0.43914
 C265 C 0.37854 0.75701 0.44033
 C266 C 0.35987 0.76584 0.42269
 H267 H 0.38307 0.87249 0.32852
 H268 H 0.50765 0.95048 0.34277
 H269 H 0.41365 0.92312 0.30143
 H270 H 0.50876 0.91455 0.37745
 H271 H 0.48167 0.86495 0.40515
 H272 H 0.35744 0.83441 0.35734
 H273 H 0.33013 0.78657 0.38712
 H274 H 0.45921 0.81590 0.42210
 H275 H 0.42977 0.76896 0.45202
 H276 H 0.33204 0.75131 0.42300
 C277 C 0.11033 0.51249 0.33380
 C278 C 0.11490 0.53684 0.35372
 C279 C 0.09020 0.54783 0.35525
 C280 C 0.06170 0.53392 0.33831
 C281 C 0.05744 0.50985 0.31865
 C282 C 0.08210 0.49927 0.31665
 C283 C 0.09382 0.57259 0.37376
 C284 C 0.12180 0.58733 0.39069
 C285 C 0.14718 0.57738 0.39012
 C286 C 0.14302 0.55075 0.37209
 C287 C 0.16657 0.53841 0.37352
 C288 C 0.19334 0.55174 0.39182
 C289 C 0.19848 0.57865 0.40879
 C290 C 0.17604 0.59252 0.40761
 C291 C 0.18362 0.62132 0.42385
 C292 C 0.21110 0.63450 0.44143
 C293 C 0.23222 0.61966 0.44361
 C294 C 0.22594 0.59183 0.42700
 H295 H 0.12821 0.50328 0.33079
 H296 H 0.04305 0.54262 0.33998
 H297 H 0.07902 0.47987 0.30226
 H298 H 0.07482 0.58084 0.37514
 H299 H 0.12213 0.60577 0.40466
 H300 H 0.16442 0.51763 0.36124
 H301 H 0.21039 0.54101 0.39252
 H302 H 0.16921 0.63478 0.42319
 H303 H 0.21547 0.65630 0.45370
 H304 H 0.24250 0.58055 0.42814
 C305 C 0.50435 0.41695 0.36529
 C306 C 0.53793 0.42179 0.36364
 C307 C 0.56016 0.44509 0.34413
 C308 C 0.54873 0.46199 0.32676
 C309 C 0.51515 0.45655 0.32835
 C310 C 0.49342 0.43425 0.34817
 C311 C 0.59397 0.45199 0.34232
 C312 C 0.60672 0.43718 0.36000
 C313 C 0.58589 0.41428 0.38013
 C314 C 0.55053 0.40525 0.38121
 C315 C 0.52896 0.37999 0.39978
 C316 C 0.54178 0.36543 0.41764
 C317 C 0.57660 0.37570 0.41804
 C318 C 0.59923 0.40020 0.39929
 C319 C 0.63450 0.41038 0.40109
 C320 C 0.64662 0.39725 0.42090
 C321 C 0.62417 0.37329 0.43948
 C322 C 0.58903 0.36211 0.43758
 H323 H 0.48607 0.40068 0.38002
 H324 H 0.56661 0.48067 0.31267
 H325 H 0.46744 0.42963 0.35020
 H326 H 0.61100 0.46952 0.32728
 H327 H 0.63309 0.44396 0.35711
 H328 H 0.50177 0.37052 0.40086
 H329 H 0.52427 0.34636 0.43168
 H330 H 0.65367 0.42928 0.38807
 H331 H 0.67392 0.40634 0.42186
 H332 H 0.57142 0.34378 0.45197
 C333 C 0.54323 0.12169 0.32951
 C334 C 0.56221 0.12384 0.35260
 C335 C 0.56842 0.09604 0.35773
 C336 C 0.55449 0.06674 0.34127
 C337 C 0.53516 0.06461 0.31868
 C338 C 0.53000 0.09265 0.31296
 C339 C 0.58824 0.09735 0.37945
 C340 C 0.60218 0.12567 0.39637
 C341 C 0.59616 0.15372 0.39262
 C342 C 0.57506 0.15236 0.37079
 C343 C 0.56664 0.17895 0.36840
 C344 C 0.57823 0.20582 0.38667
 C345 C 0.59947 0.20794 0.40764
 C346 C 0.60960 0.18252 0.41050
 C347 C 0.63283 0.18708 0.43121
 C348 C 0.64403 0.21466 0.44896
 C349 C 0.63250 0.23865 0.44688
 C350 C 0.61048 0.23532 0.42592
 H351 H 0.53814 0.14202 0.32360
 H352 H 0.55930 0.04564 0.34580
 H353 H 0.51444 0.09158 0.29615
 H354 H 0.59306 0.07615 0.38347
 H355 H 0.61668 0.12417 0.41284
 H356 H 0.55009 0.17919 0.35301
 H357 H 0.57047 0.22522 0.38431
 H358 H 0.64320 0.17004 0.43413
 H359 H 0.66138 0.21680 0.46474
 H360 H 0.60191 0.25413 0.42378
 C361 C 0.88115 0.39921 0.33233
 C362 C 0.87704 0.41889 0.35260
 C363 C 0.90179 0.45464 0.35412
 C364 C 0.93003 0.46932 0.33695
 C365 C 0.93414 0.44947 0.31723
 C366 C 0.90924 0.41427 0.31508
 C367 C 0.89867 0.47567 0.37302
 C368 C 0.87146 0.46215 0.39065
 C369 C 0.84632 0.42663 0.39041
 C370 C 0.84956 0.40444 0.37148
 C371 C 0.82580 0.36852 0.37258
 C372 C 0.79989 0.35470 0.39150
 C373 C 0.79596 0.37607 0.40967
 C374 C 0.81858 0.41244 0.40898
 C375 C 0.81239 0.43314 0.42693
 C376 C 0.78585 0.41823 0.44534
 C377 C 0.76442 0.38220 0.44668
 C378 C 0.76949 0.36124 0.42860
 H379 H 0.86325 0.37208 0.32929
 H380 H 0.94887 0.49667 0.33874
 H381 H 0.91218 0.39786 0.30069
 H382 H 0.91761 0.50301 0.37427
 H383 H 0.87154 0.48026 0.40481
 H384 H 0.82704 0.35009 0.35947
 H385 H 0.78264 0.32689 0.39184
 H386 H 0.82722 0.46103 0.42714
 H387 H 0.78238 0.43518 0.45882
 H388 H 0.75269 0.33335 0.42912
 C389 C 0.53117 0.41987 1.16544
 C390 C 0.56275 0.43757 1.15156
 C391 C 0.58298 0.47396 1.15529
 C392 C 0.57174 0.49154 1.17199
 C393 C 0.54036 0.47357 1.18522
 C394 C 0.52021 0.43773 1.18186
 C395 C 0.61409 0.49280 1.14202
 C396 C 0.62531 0.47668 1.12438
 C397 C 0.60580 0.44072 1.11927
 C398 C 0.57446 0.42066 1.13364
 C399 C 0.55574 0.38448 1.12939
 C400 C 0.56631 0.36857 1.11097
 C401 C 0.59587 0.38792 1.09596
 C402 C 0.61632 0.42420 1.10003
 C403 C 0.64605 0.44249 1.08415
 C404 C 0.65436 0.42560 1.06472
 C405 C 0.63361 0.38991 1.06040
 C406 C 0.60469 0.37114 1.07649
 H407 H 0.51389 0.39240 1.16368
 H408 H 0.58714 0.51943 1.17442
 H409 H 0.49555 0.42359 1.19166
 H410 H 0.62979 0.52055 1.14502
 H411 H 0.64956 0.49338 1.11498
 H412 H 0.53256 0.36747 1.13997
 H413 H 0.55080 0.34077 1.10817
 H414 H 0.66317 0.47001 1.08574
 H415 H 0.67700 0.44084 1.05273
 H416 H 0.58841 0.34348 1.07344
 C417 C 0.88708 0.45585 1.16091
 C418 C 0.88172 0.43577 1.13778
 C419 C 0.90511 0.42373 1.13279
 C420 C 0.93278 0.43209 1.14992
 C421 C 0.93776 0.45187 1.17285
 C422 C 0.91464 0.46382 1.17796
 C423 C 0.90104 0.40348 1.11061
 C424 C 0.87394 0.39436 1.09326
 C425 C 0.84970 0.40539 1.09726
 C426 C 0.85412 0.42720 1.11949
 C427 C 0.83107 0.43997 1.12246
 C428 C 0.80437 0.43139 1.10461
 C429 C 0.79903 0.40923 1.08338
 C430 C 0.82137 0.39557 1.07957
 C431 C 0.81408 0.37215 1.05837
 C432 C 0.78621 0.36309 1.04167
 C433 C 0.76446 0.37696 1.04522
 C434 C 0.77117 0.40029 1.06606
 H435 H 0.87057 0.46593 1.16645
 H436 H 0.95019 0.42238 1.14566
 H437 H 0.91850 0.48051 1.19476
 H438 H 0.91903 0.39446 1.10660
 H439 H 0.87321 0.37904 1.07653
 H440 H 0.83320 0.45717 1.13826
 H441 H 0.78747 0.44198 1.10766
 H442 H 0.82889 0.35967 1.05433
 H443 H 0.78171 0.34497 1.02577
 H444 H 0.75427 0.41088 1.06919
 C445 C 0.58369 0.08783 1.13797
 C446 C 0.57967 0.11739 1.13959
 C447 C 0.55682 0.11736 1.15898
 C448 C 0.53991 0.08933 1.17658
 C449 C 0.54423 0.06019 1.17476
 C450 C 0.56592 0.05970 1.15497
 C451 C 0.55023 0.14486 1.16024
 C452 C 0.56449 0.17166 1.14184
 C453 C 0.58684 0.17250 1.12184
 C454 C 0.59632 0.14617 1.12185
 C455 C 0.62217 0.14955 1.10418
 C456 C 0.63664 0.17647 1.08591
 C457 C 0.62529 0.20045 1.08398
 C458 C 0.60007 0.19876 1.10181
 C459 C 0.58806 0.22251 1.09809
 C460 C 0.60036 0.24652 1.07740
 C461 C 0.62544 0.24819 1.06006
 C462 C 0.63835 0.22557 1.06380
 H463 H 0.59931 0.08502 1.12310
 H464 H 0.52188 0.08941 1.19084
 H465 H 0.56956 0.03746 1.15282
 H466 H 0.53312 0.14525 1.17520
 H467 H 0.55800 0.19184 1.14414
 H468 H 0.63231 0.13207 1.10436
 H469 H 0.65627 0.17791 1.07263
 H470 H 0.56813 0.22228 1.11010
 H471 H 0.58995 0.26375 1.07483
 H472 H 0.65742 0.22643 1.05017
 C473 C 0.50358 0.59658 1.15117
 C474 C 0.46798 0.58326 1.14674
 C475 C 0.44467 0.55336 1.16128
 C476 C 0.45672 0.53790 1.17945
 C477 C 0.49191 0.55117 1.18317
 C478 C 0.51522 0.58051 1.16897
 C479 C 0.40944 0.53848 1.15720
 C480 C 0.39663 0.55155 1.13812
 C481 C 0.41866 0.58055 1.12248
 C482 C 0.45477 0.59775 1.12779
 C483 C 0.47636 0.62875 1.11397
 C484 C 0.46342 0.64168 1.09477
 C485 C 0.42867 0.62393 1.08810
 C486 C 0.40578 0.59299 1.10172
 C487 C 0.37105 0.57517 1.09341
 C488 C 0.35972 0.58766 1.07263
 C489 C 0.38233 0.61843 1.05944
 C490 C 0.41677 0.63668 1.06752
 H491 H 0.52313 0.61858 1.14056
 H492 H 0.43871 0.51469 1.19011
 H493 H 0.54258 0.59068 1.17136
 H494 H 0.39152 0.51595 1.16855
 H495 H 0.36908 0.53850 1.13637
 H496 H 0.50350 0.64404 1.11781
 H497 H 0.48102 0.66553 1.08464
 H498 H 0.35209 0.55094 1.10198
 H499 H 0.33296 0.57299 1.06682
 H500 H 0.43458 0.66034 1.05727
 C501 C 0.11163 0.50267 1.15837
 C502 C 0.12286 0.53412 1.14418
 C503 C 0.10293 0.55073 1.14647
 C504 C 0.07285 0.53595 1.16173
 C505 C 0.06209 0.50473 1.17518
 C506 C 0.08167 0.48831 1.17358
 C507 C 0.11283 0.58189 1.13334
 C508 C 0.14187 0.59692 1.11750
 C509 C 0.16228 0.58120 1.11393
 C510 C 0.15273 0.54935 1.12759
 C511 C 0.17298 0.53350 1.12380
 C512 C 0.20090 0.54756 1.10673
 C513 C 0.21010 0.57812 1.09288
 C514 C 0.19144 0.59583 1.09663
 C515 C 0.20249 0.62718 1.08246
 C516 C 0.22958 0.63923 1.06447
 C517 C 0.24693 0.62080 1.06001
 C518 C 0.23751 0.59063 1.07482
 H519 H 0.12520 0.48838 1.15814
 H520 H 0.05757 0.54864 1.16314
 H521 H 0.07356 0.46411 1.18400
 H522 H 0.09776 0.59474 1.13517
 H523 H 0.14723 0.62077 1.10796
 H524 H 0.16765 0.50970 1.13342
 H525 H 0.21525 0.53406 1.10411
 H526 H 0.19059 0.64295 1.08448
 H527 H 0.23649 0.66286 1.05361
 H528 H 0.25087 0.57622 1.07177
 C529 C 0.41446 0.88928 1.15730
 C530 C 0.43280 0.87715 1.14192
 C531 C 0.46909 0.89480 1.14461
 C532 C 0.48595 0.92357 1.16144
 C533 C 0.46740 0.93544 1.17598
 C534 C 0.43162 0.91805 1.17393
 C535 C 0.48857 0.88409 1.13022
 C536 C 0.47309 0.85657 1.11269
 C537 C 0.43718 0.83849 1.10867
 C538 C 0.41662 0.84867 1.12374
 C539 C 0.38068 0.83032 1.11987
 C540 C 0.36536 0.80345 1.10164
 C541 C 0.38504 0.79361 1.08649
 C542 C 0.42120 0.81078 1.08988
 C543 C 0.43989 0.79965 1.07404
 C544 C 0.42345 0.77308 1.05561
 C545 C 0.38777 0.75641 1.05211
 C546 C 0.36868 0.76674 1.06781
 H547 H 0.38693 0.87753 1.15671
 H548 H 0.51374 0.93722 1.16298
 H549 H 0.41695 0.92720 1.18491
 H550 H 0.51627 0.89738 1.13236
 H551 H 0.49032 0.85034 1.10244
 H552 H 0.36346 0.83618 1.13056
 H553 H 0.33769 0.79033 1.09926
 H554 H 0.46733 0.81092 1.07515
 H555 H 0.43902 0.76571 1.04392
 H556 H 0.34104 0.75402 1.06542
 C557 C 0.59075 0.49715 0.63923
 C558 C 0.57698 0.46110 0.63491
 C559 C 0.54725 0.43794 0.64947
 C560 C 0.53210 0.45064 0.66731
 C561 C 0.54593 0.48633 0.67087
 C562 C 0.57528 0.50939 0.65681
 C563 C 0.53237 0.40226 0.64583
 C564 C 0.54577 0.38880 0.62760
 C565 C 0.57491 0.41062 0.61220
 C566 C 0.59120 0.44734 0.61632
 C567 C 0.62102 0.46911 0.60159
 C568 C 0.63400 0.45577 0.58298
 C569 C 0.61794 0.42025 0.57818
 C570 C 0.58829 0.39701 0.59272
 C571 C 0.57316 0.36117 0.58684
 C572 C 0.58690 0.34924 0.56739
 C573 C 0.61610 0.37246 0.55304
 C574 C 0.63150 0.40796 0.55871
 H575 H 0.61302 0.51674 0.62902
 H576 H 0.50902 0.43283 0.67800
 H577 H 0.58603 0.53711 0.65922
 H578 H 0.50979 0.38446 0.65702
 H579 H 0.53250 0.36097 0.62607
 H580 H 0.63520 0.49683 0.60392
 H581 H 0.65685 0.47360 0.57207
 H582 H 0.55053 0.34157 0.59669
 H583 H 0.57441 0.32164 0.56350
 H584 H 0.65421 0.42628 0.54788
 C585 C 0.51054 0.09829 0.64944
 C586 C 0.54612 0.12012 0.64461
 C587 C 0.56935 0.11316 0.65889
 C588 C 0.55716 0.08503 0.67662
 C589 C 0.52190 0.06332 0.68037
 C590 C 0.49881 0.07031 0.66689
 C591 C 0.60459 0.13373 0.65493
 C592 C 0.61751 0.16053 0.63653
 C593 C 0.59557 0.16795 0.62116
 C594 C 0.55931 0.14787 0.62567
 C595 C 0.53741 0.15582 0.61077
 C596 C 0.55018 0.18152 0.59152
 C597 C 0.58524 0.20051 0.58626
 C598 C 0.60859 0.19444 0.60116
 C599 C 0.64397 0.21482 0.59500
 C600 C 0.65531 0.23945 0.57469
 C601 C 0.63198 0.24478 0.55972
 C602 C 0.59696 0.22539 0.56589
 H603 H 0.49094 0.10147 0.63967
 H604 H 0.57500 0.07929 0.68691
 H605 H 0.47141 0.05349 0.66950
 H606 H 0.62246 0.12873 0.66594
 H607 H 0.64503 0.17481 0.63471
 H608 H 0.50999 0.14249 0.61332
 H609 H 0.53225 0.18631 0.58038
 H610 H 0.66365 0.21223 0.60523
 H611 H 0.68256 0.25410 0.57051
 H612 H 0.57859 0.22938 0.55464
 C613 C 0.89461 0.42377 0.66117
 C614 C 0.88069 0.44121 0.64657
 C615 C 0.89506 0.47739 0.65082
 C616 C 0.92348 0.49539 0.66768
 C617 C 0.93746 0.47775 0.68108
 C618 C 0.92259 0.44190 0.67809
 C619 C 0.88136 0.49556 0.63795
 C620 C 0.85371 0.47876 0.62077
 C621 C 0.83904 0.44301 0.61522
 C622 C 0.85331 0.42411 0.62783
 C623 C 0.84056 0.38911 0.62061
 C624 C 0.81490 0.37310 0.60170
 C625 C 0.80023 0.39091 0.58966
 C626 C 0.81134 0.42580 0.59676
 C627 C 0.79423 0.44198 0.58499
 C628 C 0.76852 0.42480 0.56611
 C629 C 0.75891 0.39096 0.55818
 C630 C 0.77462 0.37401 0.57033
 H631 H 0.88445 0.39616 0.66012
 H632 H 0.93502 0.52321 0.67022
 H633 H 0.93313 0.42797 0.68856
 H634 H 0.89220 0.52318 0.64114
 H635 H 0.84517 0.49496 0.61141
 H636 H 0.85070 0.37352 0.62858
 H637 H 0.80647 0.34641 0.59641
 H638 H 0.79982 0.46781 0.59005
 H639 H 0.75655 0.43843 0.55730
 H640 H 0.76693 0.34758 0.56474
 C641 C 0.48925 0.59605 0.64536
 C642 C 0.45336 0.58094 0.64126
 C643 C 0.43154 0.54889 0.65404
 C644 C 0.44537 0.53304 0.67023
 C645 C 0.48088 0.54837 0.67369
 C646 C 0.50262 0.57984 0.66122
 C647 C 0.39613 0.53246 0.65017
 C648 C 0.38174 0.54642 0.63317
 C649 C 0.40230 0.57783 0.61947
 C650 C 0.43857 0.59597 0.62434
 C651 C 0.45891 0.62843 0.61197
 C652 C 0.44484 0.64181 0.59427
 C653 C 0.40999 0.62355 0.58811
 C654 C 0.38797 0.59157 0.60081
 C655 C 0.35272 0.57439 0.59367
 C656 C 0.34041 0.58795 0.57421
 C657 C 0.36266 0.61904 0.56123
 C658 C 0.39730 0.63700 0.56880
 H659 H 0.50787 0.61989 0.63611
 H660 H 0.42861 0.50834 0.67968
 H661 H 0.53020 0.59174 0.66355
 H662 H 0.37932 0.50813 0.66006
 H663 H 0.35423 0.53183 0.63120
 H664 H 0.48603 0.64439 0.61553
 H665 H 0.46164 0.66658 0.58494
 H666 H 0.33406 0.55000 0.60222
 H667 H 0.31349 0.57353 0.56884
 H668 H 0.41481 0.66130 0.55915
 C669 C 0.46289 0.88293 0.66695
 C670 C 0.44302 0.87978 0.64416
 C671 C 0.43448 0.90612 0.63970
 C672 C 0.44601 0.93443 0.65688
 C673 C 0.46585 0.93744 0.67929
 C674 C 0.47413 0.91129 0.68407
 C675 C 0.41464 0.90444 0.61794
 C676 C 0.40273 0.87705 0.60036
 C677 C 0.41034 0.85000 0.60371
 C678 C 0.43141 0.85169 0.62565
 C679 C 0.44051 0.82556 0.62805
 C680 C 0.42933 0.79867 0.60978
 C681 C 0.40813 0.79623 0.58868
 C682 C 0.39793 0.82160 0.58558
 C683 C 0.37537 0.81731 0.56450
 C684 C 0.36415 0.78965 0.54705
 C685 C 0.37475 0.76498 0.54975
 C686 C 0.39685 0.76843 0.57068
 H687 H 0.47037 0.86408 0.67209
 H688 H 0.43884 0.95405 0.65303
 H689 H 0.49046 0.91334 0.70061
 H690 H 0.40826 0.92467 0.61439
 H691 H 0.38809 0.87839 0.58396
 H692 H 0.45677 0.82540 0.64369
 H693 H 0.43722 0.77940 0.61234
 H694 H 0.36530 0.83447 0.56100
 H695 H 0.34697 0.78774 0.53121
 H696 H 0.40493 0.74928 0.57318
 C697 C 0.11332 0.54170 0.66669
 C698 C 0.11880 0.56559 0.64607
 C699 C 0.09567 0.57852 0.64406
 C700 C 0.06710 0.56611 0.66086
 C701 C 0.06179 0.54219 0.68105
 C702 C 0.08533 0.53029 0.68381
 C703 C 0.10098 0.60365 0.62519
 C704 C 0.12897 0.61656 0.60825
 C705 C 0.15225 0.60389 0.60890
 C706 C 0.14630 0.57701 0.62741
 C707 C 0.16721 0.56158 0.62598
 C708 C 0.19300 0.57198 0.60715
 C709 C 0.19991 0.59901 0.58967
 C710 C 0.18050 0.61624 0.59090
 C711 C 0.19030 0.64521 0.57404
 C712 C 0.21694 0.65524 0.55581
 C713 C 0.23441 0.63661 0.55356
 C714 C 0.22605 0.60877 0.57076
 H715 H 0.13035 0.53157 0.67032
 H716 H 0.04924 0.57574 0.65864
 H717 H 0.08143 0.51107 0.69872
 H718 H 0.08335 0.61361 0.62355
 H719 H 0.13086 0.63556 0.59403
 H720 H 0.16335 0.54027 0.63850
 H721 H 0.20782 0.55878 0.60636
 H722 H 0.17825 0.66098 0.57472
 H723 H 0.22332 0.67717 0.54294
 H724 H 0.24010 0.59478 0.56953
 C725 C 0.47976 0.58853 0.83810
 C726 C 0.44967 0.56799 0.85318
 C727 C 0.43209 0.53160 0.84894
 C728 C 0.44534 0.51661 0.83146
 C729 C 0.47567 0.53737 0.81753
 C730 C 0.49251 0.57332 0.82067
 C731 C 0.40166 0.51028 0.86242
 C732 C 0.38822 0.52408 0.88031
 C733 C 0.40516 0.55996 0.88590
 C734 C 0.43670 0.58220 0.87241
 C735 C 0.45478 0.61771 0.87921
 C736 C 0.44278 0.63108 0.89858
 C737 C 0.41198 0.60990 0.91165
 C738 C 0.39219 0.57424 0.90513
 C739 C 0.36033 0.55444 0.91830
 C740 C 0.34953 0.56923 0.93777
 C741 C 0.37006 0.60409 0.94488
 C742 C 0.40106 0.62433 0.93145
 H743 H 0.49411 0.61640 0.83921
 H744 H 0.43230 0.48870 0.82885
 H745 H 0.51597 0.58963 0.80987
 H746 H 0.38808 0.48248 0.85920
 H747 H 0.36488 0.50563 0.89006
 H748 H 0.47902 0.63591 0.87046
 H749 H 0.45792 0.65839 0.90345
 H750 H 0.34300 0.52752 0.91396
 H751 H 0.32524 0.55310 0.94762
 H752 H 0.41683 0.65157 0.93641
 C753 C 0.11560 0.59166 0.83864
 C754 C 0.11978 0.57331 0.86000
 C755 C 0.09400 0.53821 0.86361
 C756 C 0.06518 0.52274 0.84696
 C757 C 0.06152 0.54102 0.82567
 C758 C 0.08696 0.57578 0.82192
 C759 C 0.09688 0.51852 0.88389
 C760 C 0.12510 0.53259 0.90061
 C761 C 0.15164 0.56736 0.89796
 C762 C 0.14849 0.58841 0.87784
 C763 C 0.17380 0.62386 0.87659
 C764 C 0.20127 0.63824 0.89423
 C765 C 0.20523 0.61784 0.91341
 C766 C 0.18088 0.58195 0.91517
 C767 C 0.18698 0.56201 0.93402
 C768 C 0.21516 0.57730 0.95097
 C769 C 0.23849 0.61300 0.94991
 C770 C 0.23347 0.63314 0.93087
 H771 H 0.13398 0.61828 0.83420
 H772 H 0.04583 0.49582 0.85015
 H773 H 0.08426 0.59118 0.80642
 H774 H 0.07708 0.49175 0.88684
 H775 H 0.12481 0.51555 0.91592
 H776 H 0.17277 0.64153 0.86248
 H777 H 0.21978 0.66568 0.89270
 H778 H 0.17081 0.53438 0.93604
 H779 H 0.21843 0.56088 0.96521
 H780 H 0.25159 0.66070 0.92955
 C781 C 0.40931 0.89950 0.85489
 C782 C 0.42163 0.87583 0.85798
 C783 C 0.45096 0.88207 0.84308
 C784 C 0.46706 0.91085 0.82603
 C785 C 0.45468 0.93408 0.82369
 C786 C 0.42576 0.92815 0.83813
 C787 C 0.46454 0.86001 0.84568
 C788 C 0.45048 0.83243 0.86340
 C789 C 0.42186 0.82554 0.87925
 C790 C 0.40652 0.84693 0.87585
 C791 C 0.37678 0.83890 0.89061
 C792 C 0.36342 0.81214 0.90898
 C793 C 0.37904 0.79223 0.91352
 C794 C 0.40824 0.79824 0.89859
 C795 C 0.42296 0.77712 0.90419
 C796 C 0.40971 0.75192 0.92411
 C797 C 0.38130 0.74669 0.93913
 C798 C 0.36580 0.76665 0.93334
 H799 H 0.38758 0.89727 0.86560
 H800 H 0.48982 0.91581 0.81507
 H801 H 0.41613 0.94616 0.83668
 H802 H 0.48675 0.86445 0.83416
 H803 H 0.46280 0.81694 0.86419
 H804 H 0.36298 0.85284 0.88848
 H805 H 0.34080 0.80731 0.92009
 H806 H 0.44519 0.77980 0.89398
 H807 H 0.42222 0.73687 0.92803
 H808 H 0.34370 0.76285 0.94469
 C809 C 0.59352 0.48007 0.83316
 C810 C 0.57442 0.45207 0.85080
 C811 C 0.53807 0.43592 0.84969
 C812 C 0.52194 0.44787 0.83214
 C813 C 0.54129 0.47605 0.81544
 C814 C 0.57710 0.49189 0.81592
 C815 C 0.51785 0.40835 0.86647
 C816 C 0.53272 0.39692 0.88509
 C817 C 0.56874 0.41273 0.88778
 C818 C 0.58998 0.44011 0.86987
 C819 C 0.62597 0.45473 0.87182
 C820 C 0.64078 0.44368 0.89094
 C821 C 0.62050 0.41788 0.90910
 C822 C 0.58420 0.40206 0.90783
 C823 C 0.56485 0.37650 0.92703
 C824 C 0.58082 0.36689 0.94626
 C825 C 0.61666 0.38229 0.94734
 C826 C 0.63639 0.40788 0.92862
 H827 H 0.62115 0.49402 0.83261
 H828 H 0.49417 0.43582 0.83189
 H829 H 0.59244 0.51412 0.80337
 H830 H 0.49007 0.39567 0.86544
 H831 H 0.51498 0.37540 0.89708
 H832 H 0.64361 0.47484 0.85873
 H833 H 0.66852 0.45576 0.89167
 H834 H 0.53728 0.36355 0.92809
 H835 H 0.56473 0.34714 0.96045
 H836 H 0.66416 0.42009 0.92921
 C837 C 0.90009 0.49139 0.85304
 C838 C 0.87737 0.45541 0.85680
 C839 C 0.88536 0.43192 0.84392
 C840 C 0.91477 0.44426 0.82791
 C841 C 0.93678 0.47989 0.82468
 C842 C 0.92928 0.50325 0.83729
 C843 C 0.86430 0.39629 0.84739
 C844 C 0.83597 0.38325 0.86405
 C845 C 0.82725 0.40545 0.87782
 C846 C 0.84766 0.44208 0.87343
 C847 C 0.83786 0.46419 0.88598
 C848 C 0.81043 0.45139 0.90340
 C849 C 0.79156 0.41608 0.90909
 C850 C 0.79915 0.39240 0.89613
 C851 C 0.77879 0.35677 0.90271
 C852 C 0.75315 0.34564 0.92202
 C853 C 0.74675 0.36947 0.93538
 C854 C 0.76556 0.40456 0.92824
 H855 H 0.89662 0.51119 0.86237
 H856 H 0.92090 0.42623 0.81825
 H857 H 0.94635 0.53092 0.83507
 H858 H 0.87011 0.37822 0.83743
 H859 H 0.82136 0.35543 0.86571
 H860 H 0.85088 0.49179 0.88281
 H861 H 0.80431 0.46951 0.91292
 H862 H 0.78253 0.33686 0.89387
 H863 H 0.73896 0.31832 0.92703
 H864 H 0.76072 0.42331 0.93821
 C865 C 0.57730 0.10813 0.84285
 C866 C 0.55845 0.11957 0.85828
 C867 C 0.52219 0.10159 0.85545
 C868 C 0.50576 0.07249 0.83884
 C869 C 0.52491 0.06120 0.82442
 C870 C 0.56066 0.07933 0.82630
 C871 C 0.50246 0.11246 0.86939
 C872 C 0.51776 0.14071 0.88638
 C873 C 0.55362 0.15897 0.89053
 C874 C 0.57425 0.14790 0.87652
 C875 C 0.60985 0.16484 0.88178
 C876 C 0.62482 0.19138 0.90018
 C877 C 0.60521 0.20264 0.91379
 C878 C 0.56950 0.18731 0.90880
 C879 C 0.55129 0.20099 0.92252
 C880 C 0.56770 0.22762 0.94109
 C881 C 0.60264 0.24137 0.94670
 C882 C 0.62127 0.22905 0.93264
 H883 H 0.60490 0.12079 0.84297
 H884 H 0.47798 0.05839 0.83719
 H885 H 0.57573 0.07084 0.81511
 H886 H 0.47476 0.09887 0.86722
 H887 H 0.50049 0.14698 0.89656
 H888 H 0.62696 0.15760 0.87254
 H889 H 0.65217 0.20315 0.90388
 H890 H 0.52440 0.19184 0.91934
 H891 H 0.55280 0.23699 0.95146
 H892 H 0.64853 0.24005 0.93641
   
