data_POSCAR
  _audit_creation_date              2014-09-24
  _audit_creation_method            'ToBaCCo'
  _symmetry_space_group_name_H-M    'P1'
  _symmetry_Int_Tables_number       1
  _symmetry_cell_setting            triclinic
  loop_
  _symmetry_equiv_pos_as_xyz
 x,y,z
_cell_length_a 42.4828
_cell_length_b 43.7757
_cell_length_c 43.2218
_cell_angle_alpha 93.364500
_cell_angle_beta 91.301300
_cell_angle_gamma 88.635900
loop_
  _atom_site_label
  _atom_site_type_symbol
  _atom_site_fract_x
  _atom_site_fract_y
  _atom_site_fract_z
C1 C 0.28105 0.47222 1.01294
 C2 C 0.26531 0.49970 1.00656
 C3 C 0.28231 0.52665 1.00466
 C4 C 0.31535 0.52667 1.00953
 C5 C 0.33057 0.49842 1.01519
 C6 C 0.31375 0.47148 1.01731
 C7 C 0.23073 0.50059 1.00354
 C8 C 0.21245 0.49817 1.02988
 C9 C 0.17926 0.50018 1.02789
 C10 C 0.16514 0.50328 0.99831
 C11 C 0.18319 0.50570 0.97175
 C12 C 0.21613 0.50459 0.97464
 H13 H 0.26779 0.45158 1.01482
 H14 H 0.26914 0.54766 1.00119
 H15 H 0.22457 0.49650 1.05203
 H16 H 0.23047 0.50683 0.95452
 H17 H 0.35598 0.49659 1.01677
 H18 H 0.13983 0.50232 0.99538
 C19 C 0.71262 0.48238 0.01163
 C20 C 0.72949 0.50853 0.00603
 C21 C 0.71332 0.53577 -0.00054
 C22 C 0.68020 0.53731 -0.00077
 C23 C 0.66362 0.51086 0.00503
 C24 C 0.67959 0.48327 0.01092
 C25 C 0.76411 0.50776 0.00864
 C26 C 0.78246 0.50985 -0.01775
 C27 C 0.81575 0.50825 -0.01554
 C28 C 0.82968 0.50651 0.01435
 C29 C 0.81148 0.50420 0.04070
 C30 C 0.77868 0.50431 0.03764
 H31 H 0.72526 0.46144 0.01687
 H32 H 0.72662 0.55580 -0.00500
 H33 H 0.77033 0.51079 -0.03995
 H34 H 0.76444 0.50245 0.05792
 H35 H 0.63813 0.51169 0.00514
 H36 H 0.85496 0.50723 0.01768
 C37 C 0.02395 0.22401 0.50056
 C38 C -0.00645 0.23667 0.50416
 C39 C -0.03173 0.21769 0.50919
 C40 C -0.02691 0.18597 0.51100
 C41 C 0.00389 0.17374 0.50855
 C42 C 0.02933 0.19249 0.50311
 C43 C -0.01209 0.26989 0.50323
 C44 C -0.01348 0.28383 0.47482
 C45 C -0.02193 0.31515 0.47349
 C46 C -0.02806 0.33208 0.50164
 C47 C -0.02546 0.31850 0.53021
 C48 C -0.01776 0.28729 0.53082
 H49 H 0.04342 0.23874 0.49658
 H50 H -0.05523 0.22772 0.51091
 H51 H -0.00973 0.26965 0.45379
 H52 H -0.01638 0.27645 0.55275
 H53 H 0.00818 0.14943 0.51049
 H54 H -0.03283 0.35649 0.50184
 C55 C 1.04423 0.77790 0.49526
 C56 C 1.01673 0.76310 0.50276
 C57 C 0.98901 0.78016 0.50867
 C58 C 0.98854 0.81200 0.50713
 C59 C 1.01618 0.82666 0.49970
 C60 C 1.04457 0.81005 0.49378
 C61 C 1.01699 0.72962 0.50456
 C62 C 1.01242 0.71683 0.53308
 C63 C 1.01174 0.68482 0.53518
 C64 C 1.01634 0.66617 0.50781
 C65 C 1.01997 0.67868 0.47892
 C66 C 1.02067 0.71060 0.47762
 H67 H 1.06499 0.76394 0.48996
 H68 H 0.96789 0.76860 0.51464
 H69 H 1.00823 0.73218 0.55319
 H70 H 1.02299 0.72086 0.45561
 H71 H 1.01544 0.85137 0.49975
 H72 H 1.01835 0.64159 0.50896
 C73 C 0.50741 0.03121 0.21194
 C74 C 0.50996 0.00242 0.22447
 C75 C 0.51318 -0.02408 0.20477
 C76 C 0.51343 -0.02194 0.17241
 C77 C 0.51096 0.00716 0.16027
 C78 C 0.50838 0.03382 0.17981
 C79 C 0.51002 0.00050 0.25836
 C80 C 0.48224 0.00696 0.27470
 C81 C 0.48264 0.00812 0.30724
 C82 C 0.51128 0.00311 0.32320
 C83 C 0.53921 -0.00329 0.30712
 C84 C 0.53836 -0.00510 0.27459
 H85 H 0.50563 0.05160 0.22733
 H86 H 0.51555 -0.04620 0.21470
 H87 H 0.46050 0.01168 0.26207
 H88 H 0.55992 -0.00939 0.26196
 H89 H 0.51036 0.00913 0.13540
 H90 H 0.51185 0.00380 0.34831
 C91 C 0.49296 0.02743 0.78110
 C92 C 0.49324 -0.00181 0.76615
 C93 C 0.49135 -0.02785 0.78346
 C94 C 0.48855 -0.02501 0.81609
 C95 C 0.48688 0.00494 0.83023
 C96 C 0.49020 0.03101 0.81329
 C97 C 0.49707 -0.00481 0.73237
 C98 C 0.52742 -0.00673 0.72007
 C99 C 0.53148 -0.00601 0.68797
 C100 C 0.50477 -0.00402 0.66841
 C101 C 0.47437 -0.00160 0.68043
 C102 C 0.47060 -0.00233 0.71254
 H103 H 0.49575 0.04728 0.76763
 H104 H 0.49353 -0.05002 0.77119
 H105 H 0.54777 -0.00746 0.73560
 H106 H 0.44731 0.00026 0.72222
 H107 H 0.48210 0.00858 0.85464
 H108 H 0.50763 -0.00412 0.64355
 C109 C 0.29023 0.03378 0.43795
 H110 H 0.28379 0.05437 0.45163
 C111 C 0.31171 0.03509 0.41408
 H112 H 0.32134 0.05692 0.40917
 C113 C 0.28652 -0.01994 0.42866
 H114 H 0.27738 -0.04144 0.43519
 C115 C 0.30782 -0.01966 0.40458
 H116 H 0.31493 -0.04112 0.39273
 N117 N 0.27849 0.00647 0.44499
 C118 C 0.22929 0.05668 0.51502
 H119 H 0.24588 0.05086 0.53308
 C120 C 0.20694 0.08005 0.52110
 H121 H 0.20649 0.09176 0.54386
 C122 C 0.20929 0.04864 0.46370
 H123 H 0.21022 0.03633 0.44136
 C124 C 0.18672 0.07203 0.46869
 H125 H 0.17000 0.07696 0.45027
 Zn126 Zn 0.25443 0.00421 0.48097
 N127 N 0.22920 0.04057 0.48710
 C128 C 0.27179 -0.00290 0.54472
 N129 N 0.28258 -0.00061 0.51551
 C130 C 0.31400 -0.00111 0.51005
 C131 C 0.33586 -0.00333 0.53439
 C132 C 0.29293 -0.00526 0.56982
 C133 C 0.20827 -0.03109 0.44950
 C134 C 0.18478 -0.05282 0.44589
 C135 C 0.20157 -0.07253 0.49473
 C136 C 0.22490 -0.05050 0.49731
 N137 N 0.22705 -0.02955 0.47543
 H138 H 0.24672 -0.00239 0.54863
 H139 H 0.32232 0.00047 0.48680
 H140 H 0.36074 -0.00372 0.52943
 H141 H 0.28396 -0.00643 0.59296
 H142 H 0.21115 -0.01511 0.43174
 H143 H 0.16967 -0.05316 0.42536
 H144 H 0.19916 -0.08783 0.51327
 H145 H 0.24049 -0.04963 0.51735
 C146 C 0.18465 0.08729 0.49806
 C147 C 0.32123 0.00802 0.39744
 C148 C 0.18051 -0.07328 0.46918
 C149 C 0.32545 -0.00509 0.56480
 C150 C 0.71962 0.02408 0.54821
 H151 H 0.72763 0.04302 0.53570
 C152 C 0.69590 0.02892 0.56985
 H153 H 0.68650 0.05190 0.57443
 C154 C 0.72136 -0.02901 0.55623
 H155 H 0.73048 -0.05172 0.54985
 C156 C 0.69726 -0.02528 0.57771
 H157 H 0.68819 -0.04532 0.58768
 N158 N 0.73175 -0.00452 0.54175
 C159 C 0.80579 0.02095 0.48096
 H160 H 0.79944 0.00612 0.46099
 C161 C 0.83078 0.04078 0.47934
 H162 H 0.84298 0.04154 0.45770
 C163 C 0.79731 0.03762 0.53330
 H164 H 0.78477 0.03558 0.55453
 C165 C 0.82251 0.05760 0.53283
 H166 H 0.82898 0.07089 0.55383
 Zn167 Zn 0.75829 -0.01026 0.50734
 N168 N 0.78944 0.01990 0.50751
 C169 C 0.72906 0.01877 0.45736
 N170 N 0.73172 -0.00800 0.47178
 C171 C 0.71248 -0.03174 0.46387
 C172 C 0.68942 -0.02906 0.44054
 C173 C 0.70611 0.02254 0.43420
 C174 C 0.79611 -0.05392 0.53476
 C175 C 0.81776 -0.07829 0.53573
 C176 C 0.80688 -0.09038 0.48133
 C177 C 0.78518 -0.06585 0.48146
 N178 N 0.78059 -0.04799 0.50786
 H179 H 0.74376 0.03775 0.46479
 H180 H 0.71438 -0.05239 0.47641
 H181 H 0.67366 -0.04781 0.43514
 H182 H 0.70378 0.04426 0.42349
 H183 H 0.79258 -0.03888 0.55521
 H184 H 0.83024 -0.08227 0.55729
 H185 H 0.81147 -0.10333 0.45972
 H186 H 0.77347 -0.06002 0.46007
 C187 C 0.83978 0.05923 0.50561
 C188 C 0.68366 0.00392 0.58425
 C189 C 0.82413 -0.09633 0.50855
 C190 C 0.68564 -0.00140 0.42589
 C191 C 0.48621 0.21824 1.05461
 H192 H 0.46308 0.22587 1.04726
 C193 C 0.48906 0.19463 1.07498
 H194 H 0.46796 0.18437 1.08283
 C195 C 0.54167 0.22038 1.05137
 H196 H 0.56213 0.22975 1.04131
 C197 C 0.54560 0.19694 1.07172
 H198 H 0.56918 0.18900 1.07765
 N199 N 0.51231 0.23011 1.04266
 C200 C 0.47634 0.31131 1.01194
 H201 H 0.49976 0.32030 1.01307
 C202 C 0.45079 0.33174 1.01324
 H203 H 0.45504 0.35608 1.01523
 C204 C 0.44230 0.26918 1.00693
 H205 H 0.43904 0.24476 1.00416
 C206 C 0.41587 0.28899 1.00781
 H207 H 0.39247 0.27967 1.00608
 Zn208 Zn 0.50921 0.25516 1.00824
 N209 N 0.47192 0.28057 1.00916
 C210 C 0.48536 0.22293 0.95292
 N211 N 0.51048 0.22797 0.97250
 C212 C 0.53745 0.21086 0.96950
 C213 C 0.53932 0.18643 0.94746
 C214 C 0.48600 0.19824 0.93081
 C215 C 0.55359 0.29538 1.03620
 C216 C 0.57675 0.31751 1.03688
 C217 C 0.58182 0.30847 0.98150
 C218 C 0.55846 0.28659 0.98185
 N219 N 0.54460 0.28079 1.00888
 H220 H 0.46426 0.23700 0.95530
 H221 H 0.55725 0.21553 0.98506
 H222 H 0.56093 0.17286 0.94597
 H223 H 0.46506 0.19338 0.91682
 H224 H 0.54189 0.29061 1.05729
 H225 H 0.58316 0.32935 1.05873
 H226 H 0.59169 0.31368 0.95959
 H227 H 0.55048 0.27517 0.96033
 C228 C 0.42008 0.32071 1.01137
 C229 C 0.51907 0.18302 1.08298
 C230 C 0.59075 0.32471 1.00918
 C231 C 0.51291 0.17896 0.92863
 C232 C 0.45352 0.79890 -0.05397
 H233 H 0.43712 0.80020 -0.03512
 C234 C 0.45174 0.82063 -0.07634
 H235 H 0.43393 0.83874 -0.07472
 C236 C 0.49825 0.77510 -0.07780
 H237 H 0.51719 0.75824 -0.07754
 C238 C 0.49694 0.79609 -0.10101
 H239 H 0.51473 0.79510 -0.11863
 N240 N 0.47683 0.77706 -0.05474
 C241 C 0.44203 0.71515 0.01100
 H242 H 0.45890 0.71999 0.02967
 C243 C 0.41923 0.69330 0.01420
 H244 H 0.41820 0.68228 0.03592
 C245 C 0.42380 0.72334 -0.04012
 H246 H 0.42649 0.73445 -0.06157
 C247 C 0.40099 0.70098 -0.03817
 H248 H 0.38627 0.69514 -0.05832
 Zn249 Zn 0.48025 0.75307 -0.01972
 N250 N 0.44407 0.72951 -0.01586
 C251 C 0.46108 0.78767 0.03453
 N252 N 0.48555 0.78078 0.01540
 C253 C 0.51335 0.79541 0.01934
 C254 C 0.51766 0.81733 0.04379
 C255 C 0.46419 0.80978 0.05898
 C256 C 0.51422 0.70458 -0.04857
 C257 C 0.53599 0.68024 -0.05096
 C258 C 0.55684 0.69611 -0.00027
 C259 C 0.53494 0.72048 0.00094
 N260 N 0.51413 0.72420 -0.02300
 H261 H 0.43871 0.77678 0.03025
 H262 H 0.53220 0.79009 0.00335
 H263 H 0.54024 0.82818 0.04674
 H264 H 0.44402 0.81551 0.07321
 H265 H 0.49677 0.70743 -0.06686
 H266 H 0.53563 0.66510 -0.07168
 H267 H 0.57219 0.69284 0.01965
 H268 H 0.53361 0.73541 0.02169
 C269 C 0.39904 0.68502 -0.01096
 C270 C 0.47388 0.81951 -0.09992
 C271 C 0.55732 0.67530 -0.02633
 C272 C 0.49278 0.82507 0.06391
 C273 C 1.06366 0.45269 0.22259
 H274 H 1.05865 0.43109 0.23208
 C275 C 1.08669 0.45384 0.20007
 H276 H 1.09940 0.43307 0.19262
 C277 C 1.05123 0.50539 0.21846
 H278 H 1.03670 0.52519 0.22520
 C279 C 1.07391 0.50756 0.19596
 H280 H 1.07710 0.52931 0.18587
 N281 N 1.04632 0.47824 0.23106
 C282 C 0.97946 0.42697 0.27872
 H283 H 0.95888 0.43619 0.26707
 C284 C 0.97616 0.40336 0.29871
 H285 H 0.95310 0.39411 0.30187
 C286 C 1.03391 0.42985 0.29153
 H287 H 1.05598 0.44140 0.28986
 C288 C 1.03179 0.40592 0.31129
 H289 H 1.05239 0.39897 0.32457
 Zn290 Zn 1.01073 0.47728 0.25634
 N291 N 1.00795 0.43995 0.27584
 C292 C 0.96640 0.46159 0.20911
 N293 N 0.97538 0.48425 0.23011
 C294 C 0.96192 0.51276 0.23003
 C295 C 0.93861 0.51944 0.20804
 C296 C 0.94287 0.46719 0.18692
 C297 C 1.03829 0.52408 0.29674
 C298 C 1.03814 0.54514 0.32239
 C299 C 0.98381 0.53313 0.33045
 C300 C 0.98520 0.51202 0.30514
 N301 N 1.01201 0.50806 0.28873
 H302 H 0.97815 0.43939 0.20910
 H303 H 0.97018 0.53075 0.24616
 H304 H 0.92861 0.54242 0.20785
 H305 H 0.93656 0.44917 0.16983
 H306 H 1.05961 0.51995 0.28380
 H307 H 1.05955 0.55699 0.32901
 H308 H 0.96187 0.53629 0.34260
 H309 H 0.96477 0.49870 0.29842
 C310 C 1.00245 0.39301 0.31569
 C311 C 1.09148 0.48141 0.18595
 C312 C 1.01064 0.54975 0.33978
 C313 C 0.92912 0.49660 0.18591
 C314 C -0.05338 0.48830 0.79634
 H315 H -0.03683 0.46924 0.79338
 C316 C -0.07603 0.48818 0.81908
 H317 H -0.07718 0.46848 0.83299
 C318 C -0.07122 0.53729 0.78197
 H319 H -0.06849 0.55675 0.76806
 C320 C -0.09405 0.53834 0.80491
 H321 H -0.10879 0.55871 0.80839
 N322 N -0.05123 0.51264 0.77848
 C323 C 0.01333 0.46859 0.71224
 H324 H 0.03320 0.48351 0.71569
 C325 C 0.01501 0.44353 0.69079
 H326 H 0.03632 0.43920 0.67781
 C327 C -0.03940 0.45739 0.72342
 H328 H -0.06088 0.46350 0.73544
 C329 C -0.03888 0.43235 0.70186
 H330 H -0.05983 0.41892 0.69791
 Zn331 Zn -0.01585 0.51198 0.75287
 N332 N -0.01354 0.47497 0.72810
 C333 C 0.03852 0.49207 0.78662
 N334 N 0.01935 0.51630 0.78016
 C335 C 0.02207 0.54378 0.79620
 C336 C 0.04466 0.54774 0.81990
 C337 C 0.06118 0.49488 0.81054
 C338 C -0.04420 0.54462 0.70620
 C339 C -0.04551 0.56392 0.68164
 C340 C 0.00648 0.58138 0.69668
 C341 C 0.00679 0.56172 0.72101
 N342 N -0.01819 0.54360 0.72504
 H343 H 0.03519 0.47011 0.77438
 H344 H 0.00601 0.56246 0.79109
 H345 H 0.04628 0.56987 0.83232
 H346 H 0.07510 0.47491 0.81632
 H347 H -0.06345 0.52951 0.70959
 H348 H -0.06616 0.56395 0.66649
 H349 H 0.02716 0.59454 0.69290
 H350 H 0.02769 0.55976 0.73552
 C351 C -0.01151 0.42537 0.68504
 C352 C -0.09615 0.51381 0.82431
 C353 C -0.01961 0.58206 0.67616
 C354 C 0.06407 0.52288 0.82798
 C355 C 0.07918 0.18384 0.47367
 C356 C 0.06128 0.17868 0.49970
 C357 C 0.07312 0.15863 0.52157
 C358 C 0.10191 0.14292 0.51694
 C359 C 0.11917 0.14718 0.48999
 C360 C 0.10787 0.16813 0.46878
 C361 C 0.14689 0.12979 0.48435
 C362 C 0.15762 0.10833 0.50540
 C363 C 0.14088 0.10525 0.53269
 C364 C 0.11327 0.12234 0.53839
 H365 H 0.05954 0.15484 0.54190
 H366 H 0.12084 0.17183 0.44808
 H367 H 0.15980 0.13252 0.46337
 H368 H 0.10038 0.11890 0.55921
 H369 H 0.07037 0.19918 0.45653
 H370 H 0.14847 0.08865 0.54908
 C371 C 0.67404 0.59457 0.00704
 C372 C 0.66276 0.56656 -0.00589
 C373 C 0.63382 0.56643 -0.02238
 C374 C 0.61577 0.59347 -0.02470
 C375 C 0.62705 0.62136 -0.01114
 C376 C 0.65646 0.62173 0.00426
 C377 C 0.60843 0.64822 -0.01260
 C378 C 0.57828 0.64748 -0.02687
 C379 C 0.56757 0.61951 -0.04051
 C380 C 0.58620 0.59288 -0.03967
 H381 H 0.62505 0.54519 -0.03305
 H382 H 0.66550 0.64288 0.01486
 H383 H 0.61731 0.66958 -0.00234
 H384 H 0.57711 0.57165 -0.05005
 H385 H 0.69603 0.59540 0.02019
 H386 H 0.54429 0.61791 -0.05111
 C387 C 0.96063 -0.14251 0.53234
 C388 C 0.95935 -0.16965 0.51336
 C389 C 0.93051 -0.17823 0.49915
 C390 C 0.90359 -0.15919 0.50281
 C391 C 0.90548 -0.13154 0.52128
 C392 C 0.93395 -0.12366 0.53632
 C393 C 0.87916 -0.11175 0.52376
 C394 C 0.85079 -0.11895 0.50787
 C395 C 0.84892 -0.14680 0.49005
 C396 C 0.87506 -0.16680 0.48762
 H397 H 0.92937 -0.19904 0.48431
 H398 H 0.93573 -0.10262 0.55071
 H399 H 0.88124 -0.09010 0.53707
 H400 H 0.87312 -0.18794 0.47343
 H401 H 0.98246 -0.13572 0.54392
 H402 H 0.82727 -0.15302 0.47781
 C403 C 0.35370 0.44325 1.04838
 C404 C 0.33107 0.44284 1.02415
 C405 C 0.32737 0.41599 1.00502
 C406 C 0.34773 0.39058 1.00869
 C407 C 0.37139 0.39194 1.03225
 C408 C 0.37356 0.41797 1.05252
 C409 C 0.39358 0.36795 1.03419
 C410 C 0.39309 0.34280 1.01248
 C411 C 0.36855 0.34075 0.99016
 C412 C 0.34597 0.36446 0.98832
 H413 H 0.31002 0.41559 0.98622
 H414 H 0.39142 0.41925 1.07082
 H415 H 0.41217 0.36945 1.05180
 H416 H 0.32793 0.36291 0.97020
 H417 H 0.35659 0.46360 1.06359
 H418 H 0.36777 0.32157 0.97318
 C419 C 0.92020 0.17498 0.53270
 C420 C 0.94599 0.16552 0.51434
 C421 C 0.94553 0.13650 0.49852
 C422 C 0.91987 0.11731 0.50090
 C423 C 0.89388 0.12722 0.51900
 C424 C 0.89435 0.15607 0.53491
 C425 C 0.86784 0.10822 0.52067
 C426 C 0.86753 0.07927 0.50462
 C427 C 0.89395 0.06952 0.48727
 C428 C 0.91972 0.08839 0.48527
 H429 H 0.96486 0.12901 0.48378
 H430 H 0.87474 0.16402 0.54907
 H431 H 0.84763 0.11625 0.53394
 H432 H 0.93959 0.08031 0.47153
 H433 H 0.92004 0.19696 0.54555
 H434 H 0.89485 0.04709 0.47532
 C435 C 0.36228 0.55629 0.02538
 C436 C 0.33296 0.55400 0.00926
 C437 C 0.32210 0.57965 -0.00688
 C438 C 0.34038 0.60603 -0.00756
 C439 C 0.36991 0.60703 0.00797
 C440 C 0.38049 0.58221 0.02450
 C441 C 0.38863 0.63278 0.00671
 C442 C 0.37823 0.65822 -0.00948
 C443 C 0.34860 0.65722 -0.02471
 C444 C 0.32989 0.63133 -0.02383
 H445 H 0.30021 0.57895 -0.02014
 H446 H 0.40287 0.58291 0.03705
 H447 H 0.41172 0.63260 0.01787
 H448 H 0.30724 0.63113 -0.03587
 H449 H 0.37116 0.53855 0.03984
 H450 H 0.33977 0.67650 -0.03716
 C451 C 0.10264 -0.18670 0.49556
 C452 C 0.07262 -0.17449 0.48756
 C453 C 0.07128 -0.14569 0.47433
 C454 C 0.09852 -0.12885 0.47110
 C455 C 0.12807 -0.14087 0.48053
 C456 C 0.12993 -0.17007 0.49214
 C457 C 0.15509 -0.12318 0.47886
 C458 C 0.15283 -0.09347 0.46805
 C459 C 0.12332 -0.08220 0.45788
 C460 C 0.09648 -0.09976 0.45925
 H461 H 0.04911 -0.13620 0.46602
 H462 H 0.15243 -0.17972 0.49944
 H463 H 0.17773 -0.13235 0.48637
 H464 H 0.07398 -0.09019 0.45185
 H465 H 0.10527 -0.20833 0.50631
 H466 H 0.12071 -0.05928 0.44988
 C467 C 0.63530 0.45739 1.03538
 C468 C 0.66162 0.45549 1.01618
 C469 C 0.66991 0.42722 1.00104
 C470 C 0.65152 0.40140 1.00422
 C471 C 0.62480 0.40375 1.02319
 C472 C 0.61712 0.43173 1.03895
 C473 C 0.60572 0.37832 1.02548
 C474 C 0.61266 0.35056 1.00872
 C475 C 0.63954 0.34832 0.99027
 C476 C 0.65889 0.37348 0.98815
 H477 H 0.68999 0.42560 0.98594
 H478 H 0.59678 0.43390 1.05366
 H479 H 0.58478 0.38050 1.03938
 H480 H 0.67931 0.37123 0.97355
 H481 H 0.62873 0.47882 1.04759
 H482 H 0.64549 0.32711 0.97735
 C483 C 0.48585 0.08724 1.17692
 C484 C 0.50743 0.06429 1.16645
 C485 C 0.52806 0.07035 1.14273
 C486 C 0.52676 0.09862 1.12911
 C487 C 0.50456 0.12137 1.13929
 C488 C 0.48439 0.11554 1.16342
 C489 C 0.50263 0.14931 1.12483
 C490 C 0.52259 0.15473 1.10026
 C491 C 0.54491 0.13202 1.09081
 C492 C 0.54703 0.10430 1.10513
 H493 H 0.54517 0.05299 1.13486
 H494 H 0.46725 0.13271 1.17158
 H495 H 0.48550 0.16670 1.13252
 H496 H 0.56415 0.08707 1.09703
 H497 H 0.46965 0.08304 1.19510
 H498 H 0.56017 0.13528 1.07160
 C499 C 0.01523 0.68621 0.59247
 C500 C 0.00634 0.67147 0.56373
 C501 C -0.00800 0.64269 0.56409
 C502 C -0.01222 0.62859 0.59189
 C503 C -0.00219 0.64318 0.62026
 C504 C 0.01116 0.67214 0.62032
 C505 C -0.00533 0.62835 0.64796
 C506 C -0.01850 0.59912 0.64755
 C507 C -0.02908 0.58524 0.61917
 C508 C -0.02603 0.59984 0.59163
 H509 H -0.01686 0.63133 0.54283
 H510 H 0.01898 0.68372 0.64188
 H511 H 0.00263 0.63940 0.66974
 H512 H -0.03391 0.58835 0.57004
 H513 H 0.02686 0.70797 0.59366
 H514 H -0.03884 0.56257 0.61809
 C515 C 0.49682 0.95164 -0.13362
 C516 C 0.48802 0.94897 -0.16547
 C517 C 0.47902 0.91970 -0.17800
 C518 C 0.47807 0.89454 -0.15918
 C519 C 0.48583 0.89848 -0.12728
 C520 C 0.49537 0.92696 -0.11486
 C521 C 0.48412 0.87381 -0.10823
 C522 C 0.47532 0.84494 -0.12066
 C523 C 0.46826 0.84074 -0.15246
 C524 C 0.46933 0.86547 -0.17158
 H525 H 0.47152 0.91633 -0.20201
 H526 H 0.50213 0.93014 -0.09057
 H527 H 0.48991 0.87692 -0.08368
 H528 H 0.46341 0.86186 -0.19601
 H529 H 0.50605 0.97254 -0.12281
 H530 H 0.46155 0.81847 -0.16234
 C531 C 0.95523 0.35465 0.44097
 C532 C 0.97622 0.32959 0.44493
 C533 C 0.99600 0.32014 0.42009
 C534 C 0.99614 0.33648 0.39304
 C535 C 0.97530 0.36179 0.38997
 C536 C 0.95458 0.37029 0.41378
 C537 C 0.97631 0.37897 0.36366
 C538 C 0.99872 0.37193 0.34081
 C539 C 1.01925 0.34661 0.34381
 C540 C 1.01770 0.32876 0.36954
 H541 H 1.01298 0.30153 0.42247
 H542 H 0.93825 0.38950 0.41166
 H543 H 0.96082 0.39885 0.36177
 H544 H 1.03398 0.30951 0.37149
 H545 H 0.93855 0.36195 0.45862
 H546 H 1.03674 0.34093 0.32644
 C547 C 0.53317 0.95072 0.12374
 C548 C 0.51567 0.95025 0.15096
 C549 C 0.49903 0.92376 0.15655
 C550 C 0.49882 0.89870 0.13466
 C551 C 0.51549 0.90006 0.10688
 C552 C 0.53298 0.92596 0.10188
 C553 C 0.51389 0.87581 0.08422
 C554 C 0.49600 0.84987 0.08889
 C555 C 0.48033 0.84839 0.11711
 C556 C 0.48162 0.87258 0.13969
 H557 H 0.48526 0.92308 0.17729
 H558 H 0.54620 0.92726 0.08087
 H559 H 0.52576 0.87772 0.06251
 H560 H 0.46891 0.87097 0.16097
 H561 H 0.54683 0.97046 0.11914
 H562 H 0.46692 0.82850 0.12177
 C563 C -0.05560 0.35765 0.56281
 C564 C -0.02952 0.33751 0.55937
 C565 C -0.00625 0.33707 0.58299
 C566 C -0.00834 0.35746 0.60921
 C567 C -0.03449 0.37793 0.61225
 C568 C -0.05821 0.37752 0.58915
 C569 C -0.03596 0.39918 0.63778
 C570 C -0.01126 0.40081 0.65997
 C571 C 0.01446 0.38016 0.65694
 C572 C 0.01578 0.35847 0.63192
 H573 H 0.01412 0.32183 0.58027
 H574 H -0.07840 0.39306 0.59111
 H575 H -0.05565 0.41535 0.63969
 H576 H 0.03600 0.34297 0.62996
 H577 H -0.07381 0.35819 0.54489
 H578 H 0.03364 0.38097 0.67388
 C579 C 0.47737 0.08770 0.81809
 C580 C 0.49226 0.06166 0.82987
 C581 C 0.50933 0.06477 0.85806
 C582 C 0.51078 0.09307 0.87476
 C583 C 0.49544 0.11909 0.86306
 C584 C 0.47899 0.11620 0.83453
 C585 C 0.49662 0.14737 0.88027
 C586 C 0.51271 0.14976 0.90916
 C587 C 0.52778 0.12349 0.92035
 C588 C 0.52703 0.09555 0.90326
 H589 H 0.52156 0.04506 0.86709
 H590 H 0.46706 0.13587 0.82513
 H591 H 0.48503 0.16738 0.87120
 H592 H 0.53871 0.07573 0.91263
 H593 H 0.46398 0.08591 0.79647
 H594 H 0.53962 0.12428 0.94281
 C595 C 1.04082 0.66511 0.42542
 C596 C 1.02191 0.65812 0.45027
 C597 C 1.00455 0.63107 0.44773
 C598 C 1.00652 0.61104 0.42137
 C599 C 1.02535 0.61833 0.39645
 C600 C 1.04235 0.64550 0.39868
 C601 C 1.02675 0.59836 0.36980
 C602 C 1.00988 0.57094 0.36801
 C603 C 0.99190 0.56377 0.39346
 C604 C 0.98999 0.58372 0.41969
 H605 H 0.98918 0.62560 0.46620
 H606 H 1.05706 0.65144 0.37988
 H607 H 1.04054 0.60441 0.35039
 H608 H 0.97576 0.57764 0.43879
 H609 H 1.05477 0.68553 0.42676
 H610 H 0.97940 0.54250 0.39329
 C611 C 1.13050 0.51449 0.05544
 C612 C 1.16043 0.49962 0.05465
 C613 C 1.17086 0.48453 0.08126
 C614 C 1.15175 0.48389 0.10736
 C615 C 1.12195 0.49883 0.10731
 C616 C 1.11164 0.51410 0.08134
 C617 C 1.10274 0.49813 0.13314
 C618 C 1.11267 0.48249 0.15922
 C619 C 1.14228 0.46745 0.15909
 C620 C 1.16171 0.46824 0.13343
 H621 H 1.19315 0.47204 0.08143
 H622 H 1.08894 0.52594 0.08109
 H623 H 1.07967 0.50926 0.13265
 H624 H 1.18447 0.45655 0.13393
 H625 H 1.12179 0.52769 0.03654
 H626 H 1.15048 0.45530 0.17896
 C627 C 0.58769 -0.02545 0.68436
 C628 C 0.56333 -0.00576 0.67451
 C629 C 0.56902 0.01369 0.65059
 C630 C 0.59792 0.01247 0.63562
 C631 C 0.62202 -0.00799 0.64499
 C632 C 0.61684 -0.02652 0.66976
 C633 C 0.65051 -0.01002 0.62896
 C634 C 0.65496 0.00785 0.60337
 C635 C 0.63079 0.02841 0.59475
 C636 C 0.60271 0.03086 0.61083
 H637 H 0.55070 0.02953 0.64327
 H638 H 0.63505 -0.04231 0.67736
 H639 H 0.66898 -0.02575 0.63613
 H640 H 0.58437 0.04657 0.60331
 H641 H 0.58387 -0.04066 0.70272
 H642 H 0.63306 0.04198 0.57481
 C643 C -0.13470 0.49357 0.95835
 C644 C -0.16515 0.50742 0.95770
 C645 C -0.17583 0.51972 0.92960
 C646 C -0.15656 0.51850 0.90345
 C647 C -0.12618 0.50494 0.90518
 C648 C -0.11553 0.49258 0.93264
 C649 C -0.10678 0.50377 0.87940
 C650 C -0.11730 0.51559 0.85135
 C651 C -0.14756 0.52923 0.84974
 C652 C -0.16701 0.53072 0.87558
 H653 H -0.19855 0.53128 0.92803
 H654 H -0.09242 0.48165 0.93413
 H655 H -0.08322 0.49394 0.88139
 H656 H -0.19026 0.54125 0.87371
 H657 H -0.12567 0.48208 0.97826
 H658 H -0.15635 0.53842 0.82840
 C659 C 0.45396 0.03463 0.35149
 C660 C 0.45343 0.01458 0.32487
 C661 C 0.42544 -0.00053 0.31627
 C662 C 0.39877 0.00325 0.33488
 C663 C 0.39994 0.02281 0.36208
 C664 C 0.42745 0.03879 0.36987
 C665 C 0.37399 0.02527 0.38163
 C666 C 0.34692 0.00808 0.37471
 C667 C 0.34568 -0.01069 0.34718
 C668 C 0.37131 -0.01298 0.32737
 H669 H 0.42486 -0.01621 0.29591
 H670 H 0.42869 0.05400 0.39054
 H671 H 0.37549 0.03946 0.40300
 H672 H 0.36991 -0.02799 0.30657
 H673 H 0.47511 0.04688 0.35828
 H674 H 0.32497 -0.02391 0.34117
 C675 C 0.17802 0.49236 0.91440
 C676 C 0.16712 0.50880 0.94114
 C677 C 0.13947 0.52693 0.93898
 C678 C 0.12200 0.52733 0.91114
 C679 C 0.13260 0.51005 0.88460
 C680 C 0.16098 0.49310 0.88634
 C681 C 0.11424 0.50944 0.85711
 C682 C 0.08510 0.52546 0.85600
 C683 C 0.07519 0.54287 0.88258
 C684 C 0.09354 0.54399 0.90975
 H685 H 0.13113 0.54024 0.95923
 H686 H 0.16954 0.47973 0.86624
 H687 H 0.12243 0.49619 0.83678
 H688 H 0.08502 0.55723 0.92995
 H689 H 0.19913 0.47808 0.91544
 H690 H 0.05265 0.55494 0.88280
 C691 C 0.58925 -0.03231 0.31910
 C692 C 0.56926 -0.00667 0.32469
 C693 C 0.57744 0.01554 0.34805
 C694 C 0.60485 0.01193 0.36621
 C695 C 0.62436 -0.01445 0.36124
 C696 C 0.61652 -0.03628 0.33738
 C697 C 0.65107 -0.01863 0.38047
 C698 C 0.65868 0.00348 0.40425
 C699 C 0.63952 0.02995 0.40834
 C700 C 0.61280 0.03410 0.38958
 H701 H 0.56228 0.03560 0.35216
 H702 H 0.63126 -0.05656 0.33309
 H703 H 0.66586 -0.03901 0.37705
 H704 H 0.59813 0.05447 0.39362
 H705 H 0.58327 -0.04966 0.30117
 H706 H 0.64475 0.04709 0.42671
 C707 C 0.82065 0.47627 0.08910
 C708 C 0.82732 0.50097 0.07119
 C709 C 0.85102 0.52128 0.08126
 C710 C 0.86883 0.51631 0.10824
 C711 C 0.86296 0.49062 0.12545
 C712 C 0.83841 0.47106 0.11601
 C713 C 0.88224 0.48457 0.15132
 C714 C 0.90706 0.50406 0.16030
 C715 C 0.91192 0.53010 0.14363
 C716 C 0.89303 0.53613 0.11779
 H717 H 0.85601 0.54056 0.06764
 H718 H 0.83344 0.45137 0.12900
 H719 H 0.87821 0.46459 0.16424
 H720 H 0.89776 0.55597 0.10490
 H721 H 0.80252 0.46033 0.08158
 H722 H 0.93108 0.54526 0.15000
 C723 C 0.44928 0.02495 0.63642
 C724 C 0.44714 0.00344 0.65915
 C725 C 0.41976 -0.01387 0.66030
 C726 C 0.39544 -0.01069 0.63799
 C727 C 0.39843 0.01039 0.61472
 C728 C 0.42515 0.02845 0.61448
 C729 C 0.37504 0.01263 0.59157
 C730 C 0.34867 -0.00617 0.59091
 C731 C 0.34535 -0.02647 0.61459
 C732 C 0.36855 -0.02872 0.63795
 H733 H 0.41796 -0.03053 0.67773
 H734 H 0.42767 0.04488 0.59694
 H735 H 0.37754 0.02882 0.57378
 H736 H 0.36576 -0.04498 0.65560
 H737 H 0.46992 0.03890 0.63546
 H738 H 0.32525 -0.04124 0.61453
   
