data_POSCAR
  _audit_creation_date              2014-09-24
  _audit_creation_method            'ToBaCCo'
  _symmetry_space_group_name_H-M    'P1'
  _symmetry_Int_Tables_number       1
  _symmetry_cell_setting            triclinic
  loop_
  _symmetry_equiv_pos_as_xyz
 x,y,z
_cell_length_a 45.4374
_cell_length_b 46.1109
_cell_length_c 43.1794
_cell_angle_alpha 83.022800
_cell_angle_beta 91.890200
_cell_angle_gamma 91.171800
loop_
  _atom_site_label
  _atom_site_type_symbol
  _atom_site_fract_x
  _atom_site_fract_y
  _atom_site_fract_z
C1 C 0.28189 0.29963 0.23582
 H2 H 0.28480 0.30099 0.26057
 C3 C 0.29792 0.31833 0.21448
 H4 H 0.31272 0.33445 0.22307
 C5 C 0.25887 0.27691 0.19479
 H6 H 0.24408 0.26032 0.18727
 C7 C 0.27467 0.29498 0.17266
 H8 H 0.27183 0.29197 0.14826
 N9 N 0.26270 0.27957 0.22569
 C10 C 0.20547 0.25862 0.30483
 H11 H 0.20721 0.23507 0.30827
 C12 C 0.18934 0.27272 0.32535
 H13 H 0.17856 0.25995 0.34459
 C14 C 0.21756 0.30395 0.27563
 H15 H 0.22850 0.31603 0.25616
 C16 C 0.20118 0.31890 0.29525
 H17 H 0.19998 0.34249 0.29103
 Zn18 Zn 0.24335 0.25364 0.25605
 N19 N 0.21994 0.27439 0.28115
 C20 C 0.27603 0.23571 0.31202
 N21 N 0.27311 0.23301 0.28103
 C22 C 0.29239 0.21702 0.26696
 C23 C 0.31503 0.20205 0.28442
 C24 C 0.29835 0.22121 0.33030
 C25 C 0.19383 0.24037 0.22070
 C26 C 0.17396 0.22338 0.20502
 C27 C 0.20390 0.18124 0.22144
 C28 C 0.22299 0.19897 0.23727
 N29 N 0.21789 0.22806 0.23621
 H30 H 0.26132 0.24936 0.32269
 H31 H 0.29020 0.21596 0.24209
 H32 H 0.33018 0.18944 0.27282
 H33 H 0.29991 0.22325 0.35502
 H34 H 0.19023 0.26352 0.22039
 H35 H 0.15511 0.23359 0.19248
 H36 H 0.20829 0.15816 0.22225
 H37 H 0.24185 0.18943 0.25022
 C38 C 0.18734 0.30325 0.32081
 C39 C 0.29460 0.31602 0.18239
 C40 C 0.17906 0.19349 0.20505
 C41 C 0.31815 0.20401 0.31657
 C42 C 0.78909 0.78403 0.22563
 H43 H 0.79851 0.77413 0.24761
 C44 C 0.80694 0.80100 0.20458
 H45 H 0.83012 0.80247 0.21071
 C46 C 0.74763 0.79235 0.19138
 H47 H 0.72434 0.78908 0.18666
 C48 C 0.76461 0.80959 0.16961
 H49 H 0.75343 0.81988 0.14880
 N50 N 0.76004 0.78002 0.21873
 C51 C 0.69384 0.77070 0.29017
 H52 H 0.69265 0.74722 0.29600
 C53 C 0.67627 0.78851 0.30554
 H54 H 0.66158 0.77868 0.32325
 C55 C 0.71417 0.81210 0.25976
 H56 H 0.72912 0.82123 0.24206
 C57 C 0.69654 0.83069 0.27412
 H58 H 0.69807 0.85407 0.26745
 Zn59 Zn 0.73602 0.75744 0.24775
 N60 N 0.71250 0.78267 0.26792
 C61 C 0.75870 0.73702 0.30895
 N62 N 0.76044 0.73458 0.27794
 C63 C 0.78005 0.71623 0.26770
 C64 C 0.79786 0.69863 0.28885
 C65 C 0.77606 0.71973 0.33095
 C66 C 0.68121 0.73625 0.22551
 C67 C 0.66234 0.71815 0.21000
 C68 C 0.70475 0.69353 0.19438
 C69 C 0.72281 0.71232 0.20990
 N70 N 0.71090 0.73274 0.22576
 H71 H 0.74407 0.75249 0.31687
 H72 H 0.78239 0.71556 0.24305
 H73 H 0.81285 0.68380 0.28012
 H74 H 0.77432 0.72201 0.35548
 H75 H 0.67197 0.75329 0.23702
 H76 H 0.63884 0.72163 0.20991
 H77 H 0.71483 0.67690 0.18279
 H78 H 0.74635 0.71054 0.20905
 C79 C 0.67747 0.81886 0.29742
 C80 C 0.79496 0.81443 0.17586
 C81 C 0.67400 0.69616 0.19444
 C82 C 0.79581 0.70005 0.32098
 C83 C 0.77877 0.29113 0.73294
 H84 H 0.78154 0.29313 0.75758
 C85 C 0.79608 0.30816 0.71139
 H86 H 0.81188 0.32354 0.71970
 C87 C 0.75389 0.26927 0.69237
 H88 H 0.73733 0.25413 0.68510
 C89 C 0.77094 0.28566 0.67002
 H90 H 0.76757 0.28258 0.64569
 N91 N 0.75797 0.27241 0.72313
 C92 C 0.69239 0.26547 0.79546
 H93 H 0.69171 0.24220 0.80282
 C94 C 0.67409 0.28389 0.80925
 H95 H 0.65963 0.27476 0.82751
 C96 C 0.71103 0.30558 0.76180
 H97 H 0.72507 0.31398 0.74298
 C98 C 0.69269 0.32468 0.77452
 H99 H 0.69319 0.34771 0.76577
 Zn100 Zn 0.73476 0.25070 0.75359
 N101 N 0.71080 0.27658 0.77256
 C102 C 0.75772 0.22935 0.81462
 N103 N 0.76087 0.22989 0.78339
 C104 C 0.78346 0.21588 0.77215
 C105 C 0.80314 0.19949 0.79238
 C106 C 0.77666 0.21300 0.83578
 C107 C 0.68064 0.23025 0.72995
 C108 C 0.66163 0.21159 0.71538
 C109 C 0.70280 0.18060 0.70965
 C110 C 0.72105 0.19988 0.72431
 N111 N 0.70977 0.22412 0.73427
 H112 H 0.74063 0.24169 0.82341
 H113 H 0.78620 0.21731 0.74723
 H114 H 0.81947 0.18760 0.78167
 H115 H 0.77350 0.21431 0.86026
 H116 H 0.67213 0.24993 0.73731
 H117 H 0.63865 0.21718 0.71173
 H118 H 0.71217 0.16126 0.70226
 H119 H 0.74422 0.19545 0.72761
 C120 C 0.67409 0.31387 0.79868
 C121 C 0.79228 0.30562 0.67937
 C122 C 0.67264 0.18635 0.70501
 C123 C 0.79994 0.19710 0.82515
 C124 C 0.27088 0.79141 0.73276
 H125 H 0.27259 0.79345 0.75745
 C126 C 0.28912 0.80831 0.71206
 H127 H 0.30448 0.82369 0.72109
 C128 C 0.24790 0.76943 0.69120
 H129 H 0.23176 0.75425 0.68321
 C130 C 0.26601 0.78560 0.66970
 H131 H 0.26384 0.78227 0.64534
 N132 N 0.25062 0.77264 0.72205
 C133 C 0.18498 0.76475 0.79440
 H134 H 0.18455 0.74145 0.80165
 C135 C 0.16726 0.78304 0.80907
 H136 H 0.15339 0.77378 0.82781
 C137 C 0.20284 0.80512 0.76056
 H138 H 0.21644 0.81367 0.74140
 C139 C 0.18506 0.82410 0.77417
 H140 H 0.18552 0.84719 0.76572
 Zn141 Zn 0.22691 0.75053 0.75173
 N142 N 0.20282 0.77606 0.77105
 C143 C 0.25067 0.72992 0.81280
 N144 N 0.25287 0.72945 0.78150
 C145 C 0.27454 0.71425 0.77003
 C146 C 0.29367 0.69714 0.79014
 C147 C 0.26957 0.71330 0.83381
 C148 C 0.17278 0.72929 0.72823
 C149 C 0.15415 0.71074 0.71297
 C150 C 0.19621 0.68180 0.70475
 C151 C 0.21403 0.70095 0.72002
 N152 N 0.20218 0.72414 0.73156
 H153 H 0.23436 0.74312 0.82170
 H154 H 0.27712 0.71549 0.74513
 H155 H 0.30992 0.68439 0.78028
 H156 H 0.26738 0.71400 0.85860
 H157 H 0.16373 0.74811 0.73691
 H158 H 0.13094 0.71561 0.71008
 H159 H 0.20615 0.66329 0.69620
 H160 H 0.23734 0.69724 0.72237
 C161 C 0.16723 0.81312 0.79894
 C162 C 0.28695 0.80549 0.67999
 C163 C 0.16583 0.68661 0.70094
 C164 C 0.29115 0.69619 0.82258
 C165 C 0.06560 0.04089 0.00879
 H166 H 0.06786 0.04088 -0.01607
 C167 C 0.08509 0.05747 0.02547
 H168 H 0.10231 0.07033 0.01328
 C169 C 0.04006 0.02450 0.05480
 H170 H 0.02228 0.01193 0.06612
 C171 C 0.05883 0.04103 0.07229
 H172 H 0.05564 0.04057 0.09709
 N173 N 0.04399 0.02439 0.02371
 C174 C 0.02548 -0.04128 -0.03978
 H175 H 0.00195 -0.03899 -0.04358
 C176 C 0.04048 -0.06159 -0.05460
 H177 H 0.02844 -0.07482 -0.06997
 C178 C 0.06967 -0.02755 -0.01429
 H179 H 0.08091 -0.01471 0.00191
 C180 C 0.08542 -0.04795 -0.02818
 H181 H 0.10882 -0.05018 -0.02305
 Zn182 Zn 0.01848 0.00209 -0.00021
 N183 N 0.04028 -0.02434 -0.02054
 C184 C -0.00224 0.02764 -0.06055
 N185 N -0.00265 0.02876 -0.02923
 C186 C -0.01808 0.04954 -0.01727
 C187 C -0.03476 0.06966 -0.03691
 C188 C -0.01880 0.04720 -0.08105
 C189 C 0.00435 -0.04085 0.04833
 C190 C -0.01349 -0.05817 0.06909
 C191 C -0.05618 -0.03460 0.04323
 C192 C -0.03748 -0.01757 0.02305
 N193 N -0.00778 -0.02068 0.02625
 H194 H 0.01075 0.01153 -0.06978
 H195 H -0.01758 0.05030 0.00769
 H196 H -0.04674 0.08606 -0.02682
 H197 H -0.01885 0.04531 -0.10579
 H198 H 0.02801 -0.04321 0.04999
 H199 H -0.00341 -0.07403 0.08660
 H200 H -0.07973 -0.03147 0.04076
 H201 H -0.04674 -0.00188 0.00492
 C202 C 0.07083 -0.06512 -0.04876
 C203 C 0.08185 0.05759 0.05767
 C204 C -0.04418 -0.05501 0.06682
 C205 C -0.03558 0.06846 -0.06929
 C206 C 0.05458 0.53596 0.50145
 H207 H 0.05352 0.53886 0.47620
 C208 C 0.07378 0.55333 0.51749
 H209 H 0.08736 0.56969 0.50435
 C210 C 0.03700 0.51199 0.54912
 H211 H 0.02228 0.49621 0.56136
 C212 C 0.05589 0.52888 0.56610
 H213 H 0.05591 0.52545 0.59136
 N214 N 0.03674 0.51576 0.51738
 C215 C 0.01308 0.45583 0.44947
 H216 H -0.01068 0.45692 0.44955
 C217 C 0.02648 0.43920 0.42915
 H218 H 0.01297 0.42737 0.41360
 C219 C 0.05964 0.47007 0.46958
 H220 H 0.07246 0.48211 0.48541
 C221 C 0.07395 0.45322 0.45006
 H222 H 0.09778 0.45265 0.45071
 Zn223 Zn 0.00970 0.49505 0.49368
 N224 N 0.02974 0.47148 0.46851
 C225 C -0.01168 0.52538 0.43655
 N226 N -0.01283 0.52338 0.46819
 C227 C -0.02852 0.54268 0.48219
 C228 C -0.04464 0.56449 0.46422
 C229 C -0.02735 0.54686 0.41773
 C230 C -0.00101 0.44713 0.53781
 C231 C -0.01713 0.42772 0.55835
 C232 C -0.06085 0.45525 0.54235
 C233 C -0.04391 0.47401 0.52191
 N234 N -0.01445 0.46993 0.52040
 H235 H 0.00170 0.51064 0.42573
 H236 H -0.02838 0.54118 0.50740
 H237 H -0.05692 0.57973 0.47575
 H238 H -0.02646 0.54777 0.39260
 H239 H 0.02236 0.44412 0.53576
 H240 H -0.00597 0.40960 0.57177
 H241 H -0.08409 0.45941 0.54383
 H242 H -0.05435 0.49188 0.50745
 C243 C 0.05728 0.43797 0.42918
 C244 C 0.07450 0.55001 0.55028
 C245 C -0.04746 0.43179 0.56109
 C246 C -0.04415 0.56675 0.43151
 C247 C 0.55619 0.03349 0.50971
 H248 H 0.55593 0.03485 0.48451
 C249 C 0.57494 0.05180 0.52505
 H250 H 0.58886 0.06748 0.51140
 C251 C 0.53773 0.01174 0.55792
 H252 H 0.52310 -0.00383 0.57061
 C253 C 0.55619 0.02960 0.57423
 H254 H 0.55588 0.02722 0.59947
 N255 N 0.53832 0.01376 0.52626
 C256 C 0.52428 -0.05421 0.46530
 H257 H 0.50057 -0.05406 0.46203
 C258 C 0.54093 -0.07306 0.45021
 H259 H 0.53003 -0.08738 0.43516
 C260 C 0.56743 -0.03603 0.48921
 H261 H 0.57765 -0.02178 0.50466
 C262 C 0.58483 -0.05501 0.47517
 H263 H 0.60845 -0.05497 0.47951
 Zn264 Zn 0.51411 -0.01043 0.50340
 N265 N 0.53776 -0.03569 0.48375
 C266 C 0.49338 0.01206 0.44233
 N267 N 0.49178 0.01422 0.47338
 C268 C 0.47438 0.03437 0.48389
 C269 C 0.45640 0.05216 0.46305
 C270 C 0.47577 0.02940 0.42069
 C271 C 0.50192 -0.05568 0.55050
 C272 C 0.48483 -0.07442 0.57077
 C273 C 0.44148 -0.04890 0.54931
 C274 C 0.45937 -0.03090 0.52918
 N275 N 0.48907 -0.03430 0.53041
 H276 H 0.50819 -0.00315 0.43418
 H277 H 0.47400 0.03612 0.50863
 H278 H 0.44190 0.06729 0.47202
 H279 H 0.47717 0.02717 0.39610
 H280 H 0.52555 -0.05823 0.55064
 H281 H 0.49556 -0.09157 0.58617
 H282 H 0.41801 -0.04520 0.54846
 H283 H 0.44940 -0.01424 0.51267
 C284 C 0.57157 -0.07351 0.45514
 C285 C 0.57526 0.04988 0.55778
 C286 C 0.45413 -0.07109 0.57051
 C287 C 0.45661 0.04946 0.43100
 C288 C 0.55583 0.54414 -0.00091
 H289 H 0.55410 0.54628 -0.02613
 C290 C 0.57473 0.56270 0.01391
 H291 H 0.58722 0.57933 -0.00018
 C292 C 0.54058 0.52049 0.04788
 H293 H 0.52702 0.50420 0.06101
 C294 C 0.55939 0.53844 0.06368
 H295 H 0.56047 0.53532 0.08894
 N296 N 0.53933 0.52351 0.01614
 C297 C 0.52221 0.45755 -0.04677
 H298 H 0.49853 0.45846 -0.05012
 C299 C 0.53819 0.43780 -0.06142
 H300 H 0.52678 0.42359 -0.07623
 C301 C 0.56588 0.47416 -0.02247
 H302 H 0.57655 0.48798 -0.00685
 C303 C 0.58259 0.45436 -0.03612
 H304 H 0.60612 0.45342 -0.03132
 Zn305 Zn 0.51381 0.50025 -0.00639
 N306 N 0.53625 0.47543 -0.02798
 C307 C 0.49105 0.52617 -0.06563
 N308 N 0.49084 0.52634 -0.03415
 C309 C 0.47518 0.54638 -0.02124
 C310 C 0.45799 0.56663 -0.04005
 C311 C 0.47429 0.54621 -0.08536
 C312 C 0.50287 0.45429 0.04032
 C313 C 0.48646 0.43578 0.06148
 C314 C 0.44280 0.46225 0.04277
 C315 C 0.46000 0.48004 0.02171
 N316 N 0.48956 0.47612 0.02123
 H317 H 0.50432 0.51070 -0.07556
 H318 H 0.47605 0.54656 0.00381
 H319 H 0.44566 0.58240 -0.02932
 H320 H 0.47436 0.54552 -0.11034
 H321 H 0.52634 0.45133 0.03910
 H322 H 0.49753 0.41838 0.07618
 H323 H 0.41948 0.46641 0.04337
 H324 H 0.44964 0.49706 0.00596
 C325 C 0.56872 0.43590 -0.05583
 C326 C 0.57676 0.55997 0.04667
 C327 C 0.45599 0.43979 0.06316
 C328 C 0.45731 0.56664 -0.07256
 C329 C 0.14980 -0.16765 -0.15322
 C330 C 0.13321 -0.14801 -0.13880
 C331 C 0.11480 -0.12789 -0.15723
 C332 C 0.11357 -0.12757 -0.18976
 C333 C 0.13061 -0.14678 -0.20396
 C334 C 0.14879 -0.16698 -0.18586
 C335 C 0.09822 -0.10821 -0.14291
 C336 C 0.10029 -0.10793 -0.11045
 C337 C 0.11906 -0.12773 -0.09208
 C338 C 0.13514 -0.14785 -0.10633
 C339 C 0.12168 -0.12687 -0.05976
 C340 C 0.10604 -0.10645 -0.04576
 C341 C 0.08716 -0.08685 -0.06374
 C342 C 0.08421 -0.08784 -0.09609
 H343 H 0.16407 -0.18297 -0.13918
 H344 H 0.09964 -0.11227 -0.20425
 H345 H 0.12946 -0.14605 -0.22914
 H346 H 0.08403 -0.09286 -0.15705
 H347 H 0.14945 -0.16309 -0.09220
 H348 H 0.13599 -0.14183 -0.04534
 H349 H 0.10844 -0.10613 -0.02077
 H350 H 0.06992 -0.07254 -0.11012
 C351 C 0.15068 0.33996 0.33240
 C352 C 0.13609 0.35499 0.35360
 C353 C 0.14296 0.34914 0.38593
 C354 C 0.16378 0.32788 0.39653
 C355 C 0.17781 0.31268 0.37531
 C356 C 0.17159 0.31876 0.34313
 C357 C 0.12894 0.36460 0.40713
 C358 C 0.10774 0.38547 0.39650
 C359 C 0.10029 0.39076 0.36425
 C360 C 0.11470 0.37568 0.34299
 C361 C 0.07850 0.41105 0.35379
 C362 C 0.06429 0.42607 0.37504
 C363 C 0.07194 0.42140 0.40701
 C364 C 0.09373 0.40108 0.41762
 H365 H 0.14560 0.34449 0.30759
 H366 H 0.16924 0.32304 0.42121
 H367 H 0.19401 0.29652 0.38398
 H368 H 0.13444 0.36030 0.43189
 H369 H 0.10919 0.37996 0.31824
 H370 H 0.07244 0.41529 0.32920
 H371 H 0.04763 0.44177 0.36646
 H372 H 0.09946 0.39720 0.44233
 C373 C 0.65899 -0.16451 0.34604
 C374 C 0.64141 -0.14636 0.36129
 C375 C 0.62299 -0.12579 0.34352
 C376 C 0.62298 -0.12332 0.31082
 C377 C 0.64100 -0.14110 0.29584
 C378 C 0.65891 -0.16194 0.31331
 C379 C 0.60503 -0.10794 0.35869
 C380 C 0.60575 -0.10992 0.39138
 C381 C 0.62473 -0.12997 0.40912
 C382 C 0.64219 -0.14829 0.39397
 C383 C 0.62611 -0.13120 0.44175
 C384 C 0.60891 -0.11267 0.45669
 C385 C 0.58967 -0.09308 0.43929
 C386 C 0.58805 -0.09189 0.40665
 H387 H 0.67307 -0.18037 0.35958
 H388 H 0.60911 -0.10761 0.29684
 H389 H 0.64063 -0.13893 0.27057
 H390 H 0.59073 -0.09233 0.34507
 H391 H 0.65656 -0.16383 0.40758
 H392 H 0.64062 -0.14633 0.45569
 H393 H 0.61035 -0.11383 0.48190
 H394 H 0.57344 -0.07649 0.39318
 C395 C 0.65443 0.33361 -0.15482
 C396 C 0.63671 0.35310 -0.14153
 C397 C 0.61846 0.37256 -0.16100
 C398 C 0.61855 0.37244 -0.19346
 C399 C 0.63672 0.35338 -0.20653
 C400 C 0.65469 0.33380 -0.18736
 C401 C 0.60069 0.39204 -0.14778
 C402 C 0.60146 0.39280 -0.11537
 C403 C 0.62013 0.37368 -0.09597
 C404 C 0.63735 0.35373 -0.10912
 C405 C 0.62153 0.37506 -0.06370
 C406 C 0.60481 0.39537 -0.05077
 C407 C 0.58604 0.41427 -0.06978
 C408 C 0.58424 0.41271 -0.10207
 H409 H 0.66853 0.31875 -0.13997
 H410 H 0.60478 0.38724 -0.20875
 H411 H 0.63655 0.35372 -0.23166
 H412 H 0.58661 0.40687 -0.16272
 H413 H 0.65155 0.33900 -0.09420
 H414 H 0.63575 0.36064 -0.04850
 H415 H 0.60633 0.39618 -0.02580
 H416 H 0.56998 0.42748 -0.11684
 C417 C -0.15368 0.17154 -0.16334
 C418 C -0.13544 0.15340 -0.14276
 C419 C -0.14502 0.14316 -0.11261
 C420 C -0.17238 0.15162 -0.10331
 C421 C -0.19039 0.16979 -0.12371
 C422 C -0.18179 0.18006 -0.15448
 C423 C -0.12714 0.12455 -0.09221
 C424 C -0.09958 0.11624 -0.10155
 C425 C -0.08969 0.12692 -0.13155
 C426 C -0.10767 0.14540 -0.15198
 C427 C -0.06201 0.11881 -0.14066
 C428 C -0.04437 0.10010 -0.12037
 C429 C -0.05409 0.08898 -0.09059
 C430 C -0.08182 0.09730 -0.08137
 H431 H -0.14488 0.17988 -0.18569
 H432 H -0.18014 0.14383 -0.08026
 H433 H -0.21184 0.17406 -0.11536
 H434 H -0.13469 0.11652 -0.06912
 H435 H -0.10012 0.15340 -0.17508
 H436 H -0.05398 0.12693 -0.16350
 H437 H -0.02295 0.09453 -0.12794
 H438 H -0.08988 0.08863 -0.05871
 C439 C -0.15636 0.67589 0.33776
 C440 C -0.13940 0.65672 0.35850
 C441 C -0.15203 0.64253 0.38591
 C442 C -0.18130 0.64811 0.39228
 C443 C -0.19807 0.66716 0.37143
 C444 C -0.18589 0.68099 0.34384
 C445 C -0.13535 0.62273 0.40624
 C446 C -0.10627 0.61678 0.39939
 C447 C -0.09356 0.63127 0.37215
 C448 C -0.11015 0.65124 0.35198
 C449 C -0.06457 0.62522 0.36527
 C450 C -0.04845 0.60459 0.38483
 C451 C -0.06096 0.58968 0.41171
 C452 C -0.08983 0.59619 0.41905
 H453 H -0.14657 0.68680 0.31682
 H454 H -0.19134 0.63744 0.41317
 H455 H -0.22084 0.67052 0.37652
 H456 H -0.14512 0.61167 0.42714
 H457 H -0.10044 0.66217 0.33098
 H458 H -0.05445 0.63624 0.34459
 H459 H -0.02610 0.60031 0.37894
 H460 H -0.09979 0.58462 0.43956
 C461 C 0.34831 0.15922 0.33170
 C462 C 0.36957 0.14368 0.35100
 C463 C 0.38469 0.15729 0.37465
 C464 C 0.37854 0.18631 0.37832
 C465 C 0.35725 0.20156 0.35915
 C466 C 0.34175 0.18814 0.33585
 C467 C 0.40540 0.14160 0.39448
 C468 C 0.41103 0.11236 0.39116
 C469 C 0.39614 0.09884 0.36731
 C470 C 0.37558 0.11459 0.34733
 C471 C 0.40181 0.06962 0.36407
 C472 C 0.42173 0.05379 0.38453
 C473 C 0.43641 0.06686 0.40859
 C474 C 0.43108 0.09631 0.41158
 H475 H 0.33629 0.14854 0.31405
 H476 H 0.39002 0.19714 0.39621
 H477 H 0.35293 0.22396 0.36250
 H478 H 0.41684 0.15202 0.41274
 H479 H 0.36402 0.10413 0.32918
 H480 H 0.39058 0.05890 0.34596
 H481 H 0.42515 0.03105 0.38194
 H482 H 0.44255 0.10674 0.42978
 C483 C 0.33999 0.67262 -0.16282
 C484 C 0.35777 0.65327 -0.14315
 C485 C 0.34622 0.63852 -0.11545
 C486 C 0.31711 0.64337 -0.10792
 C487 C 0.29941 0.66232 -0.12785
 C488 C 0.31054 0.67707 -0.15559
 C489 C 0.36381 0.61892 -0.09590
 C490 C 0.39272 0.61361 -0.10390
 C491 C 0.40424 0.62826 -0.13169
 C492 C 0.38678 0.64816 -0.15101
 C493 C 0.43301 0.62257 -0.13980
 C494 C 0.45018 0.60248 -0.12065
 C495 C 0.43901 0.58788 -0.09293
 C496 C 0.41021 0.59365 -0.08468
 H497 H 0.34912 0.68416 -0.18379
 H498 H 0.30786 0.63216 -0.08684
 H499 H 0.27675 0.66487 -0.12186
 H500 H 0.35492 0.60761 -0.07465
 H501 H 0.39563 0.65938 -0.17233
 H502 H 0.44220 0.63361 -0.16100
 H503 H 0.47240 0.59862 -0.12732
 H504 H 0.40125 0.58221 -0.06354
 C505 C -0.16107 -0.15409 0.16421
 C506 C -0.14331 -0.13689 0.14295
 C507 C -0.15161 -0.13285 0.11096
 C508 C -0.17753 -0.14611 0.10080
 C509 C -0.19509 -0.16334 0.12202
 C510 C -0.18726 -0.16783 0.15422
 C511 C -0.13384 -0.11567 0.08966
 C512 C -0.10777 -0.10255 0.10002
 C513 C -0.09947 -0.10664 0.13208
 C514 C -0.11733 -0.12365 0.15334
 C515 C -0.07333 -0.09374 0.14238
 C516 C -0.05546 -0.07701 0.12112
 C517 C -0.06344 -0.07274 0.08919
 C518 C -0.08976 -0.08552 0.07881
 H519 H -0.15471 -0.15564 0.18871
 H520 H -0.18413 -0.14344 0.07628
 H521 H -0.21417 -0.17399 0.11257
 H522 H -0.14024 -0.11259 0.06508
 H523 H -0.11091 -0.12675 0.17793
 H524 H -0.06667 -0.09660 0.16687
 H525 H -0.03549 -0.06709 0.12973
 H526 H -0.09596 -0.08262 0.05418
 C527 C -0.16018 0.33082 0.66273
 C528 C -0.14352 0.34882 0.64106
 C529 C -0.15646 0.35981 0.61189
 C530 C -0.18589 0.35271 0.60497
 C531 C -0.20244 0.33508 0.62682
 C532 C -0.18983 0.32394 0.65594
 C533 C -0.13989 0.37789 0.59022
 C534 C -0.11061 0.38543 0.59752
 C535 C -0.09774 0.37456 0.62678
 C536 C -0.11419 0.35619 0.64827
 C537 C -0.06864 0.38243 0.63416
 C538 C -0.05243 0.40098 0.61284
 C539 C -0.06487 0.41188 0.58356
 C540 C -0.09406 0.40384 0.57607
 H541 H -0.14995 0.32207 0.68483
 H542 H -0.19622 0.36106 0.58279
 H543 H -0.22532 0.33061 0.62107
 H544 H -0.14984 0.38629 0.56782
 H545 H -0.10426 0.34785 0.67070
 H546 H -0.05848 0.37444 0.65655
 H547 H -0.03022 0.40717 0.61954
 H548 H -0.10387 0.41169 0.55347
 C549 C 0.33545 -0.16971 0.66621
 C550 C 0.35346 -0.15228 0.64539
 C551 C 0.34244 -0.14213 0.61510
 C552 C 0.31351 -0.14936 0.60629
 C553 C 0.29556 -0.16631 0.62733
 C554 C 0.30626 -0.17672 0.65751
 C555 C 0.36040 -0.12474 0.59422
 C556 C 0.38909 -0.11692 0.60344
 C557 C 0.39999 -0.12681 0.63385
 C558 C 0.38222 -0.14463 0.65454
 C559 C 0.42844 -0.11848 0.64317
 C560 C 0.44591 -0.10040 0.62265
 C561 C 0.43546 -0.09054 0.59222
 C562 C 0.40696 -0.09914 0.58279
 H563 H 0.34429 -0.17792 0.68914
 H564 H 0.30463 -0.14161 0.58324
 H565 H 0.27308 -0.17083 0.62006
 H566 H 0.35194 -0.11704 0.57095
 H567 H 0.39064 -0.15227 0.67784
 H568 H 0.43707 -0.12569 0.66647
 H569 H 0.46749 -0.09376 0.63086
 H570 H 0.39868 -0.09219 0.55930
 C571 C 0.34170 0.34243 0.16645
 C572 C 0.35854 0.36007 0.14465
 C573 C 0.34598 0.37017 0.11501
 C574 C 0.31668 0.36276 0.10786
 C575 C 0.29997 0.34543 0.12981
 C576 C 0.31227 0.33496 0.15928
 C577 C 0.36288 0.38753 0.09304
 C578 C 0.39209 0.39519 0.10046
 C579 C 0.40452 0.38535 0.13024
 C580 C 0.38774 0.36772 0.15207
 C581 C 0.43353 0.39341 0.13774
 C582 C 0.45013 0.41109 0.11601
 C583 C 0.43818 0.42085 0.08616
 C584 C 0.40905 0.41264 0.07859
 H585 H 0.35170 0.33418 0.18883
 H586 H 0.30664 0.37047 0.08533
 H587 H 0.27727 0.34046 0.12377
 H588 H 0.35326 0.39518 0.07025
 H589 H 0.39735 0.36009 0.17486
 H590 H 0.44334 0.38623 0.16053
 H591 H 0.47224 0.41747 0.12280
 H592 H 0.39959 0.41958 0.05559
 C593 C 0.16962 0.15695 0.16731
 C594 C 0.15025 0.14055 0.14999
 C595 C 0.11952 0.14209 0.15370
 C596 C 0.10871 0.16019 0.17441
 C597 C 0.12811 0.17682 0.19113
 C598 C 0.15866 0.17532 0.18778
 C599 C 0.10010 0.12572 0.13647
 C600 C 0.11096 0.10817 0.11520
 C601 C 0.14165 0.10696 0.11115
 C602 C 0.16111 0.12297 0.12874
 C603 C 0.15237 0.08983 0.08943
 C604 C 0.13289 0.07402 0.07189
 C605 C 0.10237 0.07482 0.07596
 C606 C 0.09156 0.09196 0.09773
 H607 H 0.19317 0.15599 0.16434
 H608 H 0.08524 0.16167 0.17751
 H609 H 0.11927 0.19075 0.20691
 H610 H 0.07655 0.12682 0.13943
 H611 H 0.18466 0.12194 0.12571
 H612 H 0.17581 0.08867 0.08600
 H613 H 0.14170 0.06077 0.05544
 H614 H 0.06803 0.09298 0.10072
 C615 C 0.15662 0.65530 0.65776
 C616 C 0.13863 0.63642 0.64197
 C617 C 0.11004 0.62897 0.65256
 C618 C 0.10001 0.64041 0.67886
 C619 C 0.11812 0.65909 0.69454
 C620 C 0.14658 0.66675 0.68420
 C621 C 0.09193 0.61025 0.63669
 C622 C 0.10209 0.59884 0.61038
 C623 C 0.13075 0.60620 0.59989
 C624 C 0.14882 0.62495 0.61572
 C625 C 0.14084 0.59474 0.57364
 C626 C 0.12266 0.57632 0.55774
 C627 C 0.09403 0.56899 0.56777
 C628 C 0.08396 0.58031 0.59427
 H629 H 0.17832 0.66137 0.64918
 H630 H 0.07820 0.63485 0.68737
 H631 H 0.10995 0.66723 0.71506
 H632 H 0.06996 0.60460 0.64477
 H633 H 0.17078 0.63064 0.60761
 H634 H 0.16278 0.60004 0.56536
 H635 H 0.13110 0.56760 0.53768
 H636 H 0.06180 0.57519 0.60200
 C637 C 0.66231 0.15392 0.66306
 C638 C 0.64344 0.13550 0.64762
 C639 C 0.61461 0.12945 0.65828
 C640 C 0.60523 0.14177 0.68431
 C641 C 0.62415 0.16006 0.69955
 C642 C 0.65281 0.16642 0.68907
 C643 C 0.59560 0.11129 0.64272
 C644 C 0.60506 0.09908 0.61661
 C645 C 0.63393 0.10504 0.60603
 C646 C 0.65293 0.12321 0.62159
 C647 C 0.64332 0.09276 0.57999
 C648 C 0.62428 0.07482 0.56445
 C649 C 0.59544 0.06884 0.57459
 C650 C 0.58603 0.08107 0.60081
 H651 H 0.68420 0.15894 0.65446
 H652 H 0.58326 0.13727 0.69289
 H653 H 0.61641 0.16906 0.71977
 H654 H 0.57346 0.10672 0.65087
 H655 H 0.67505 0.12782 0.61340
 H656 H 0.66542 0.09699 0.57166
 H657 H 0.63228 0.06533 0.54466
 H658 H 0.56375 0.07696 0.60865
 C659 C 0.66246 0.66636 0.15033
 C660 C 0.64404 0.64720 0.13539
 C661 C 0.61674 0.63800 0.14837
 C662 C 0.60852 0.64783 0.17624
 C663 C 0.62714 0.66660 0.19116
 C664 C 0.65426 0.67617 0.17839
 C665 C 0.59815 0.61907 0.13335
 C666 C 0.60665 0.60897 0.10566
 C667 C 0.63411 0.61789 0.09289
 C668 C 0.65255 0.63707 0.10773
 C669 C 0.64268 0.60746 0.06546
 C670 C 0.62419 0.58847 0.05068
 C671 C 0.59664 0.57969 0.06290
 C672 C 0.58808 0.59008 0.09052
 H673 H 0.68303 0.67384 0.13986
 H674 H 0.58777 0.64085 0.18662
 H675 H 0.62043 0.67331 0.21301
 H676 H 0.57715 0.61213 0.14325
 H677 H 0.67356 0.64400 0.09783
 H678 H 0.66373 0.61392 0.05546
 H679 H 0.63162 0.58044 0.02978
 H680 H 0.56677 0.58387 0.10002
   
