data_POSCAR
  _audit_creation_date              2014-09-24
  _audit_creation_method            'ToBaCCo'
  _symmetry_space_group_name_H-M    'P1'
  _symmetry_Int_Tables_number       1
  _symmetry_cell_setting            triclinic
  loop_
  _symmetry_equiv_pos_as_xyz
 x,y,z
_cell_length_a 15.0770
_cell_length_b 15.1014
_cell_length_c 15.0891
_cell_angle_alpha 108.503700
_cell_angle_beta 73.711800
_cell_angle_gamma 65.184000
loop_
  _atom_site_label
  _atom_site_type_symbol
  _atom_site_fract_x
  _atom_site_fract_y
  _atom_site_fract_z
C1 C 0.55475 0.55051 0.03928
 C2 C 0.46809 0.63038 0.03119
 C3 C 0.38613 0.61317 0.02092
 C4 C 0.38818 0.51704 0.01336
 C5 C 0.47689 0.43589 0.01719
 C6 C 0.55761 0.45329 0.02982
 H7 H 0.61890 0.39161 0.03875
 H8 H 0.32562 0.67240 0.00946
 C9 C 0.03486 0.37639 0.49988
 C10 C 0.03375 0.45664 0.58131
 C11 C 0.04001 0.54259 0.56833
 C12 C 0.04883 0.55163 0.47659
 C13 C 0.05039 0.47023 0.39490
 C14 C 0.04656 0.38323 0.40680
 H15 H 0.05134 0.32074 0.34198
 H16 H 0.04267 0.60149 0.62958
 C17 C 0.48545 -0.01020 0.41783
 C18 C 0.42110 -0.02844 0.48857
 C19 C 0.44400 -0.03859 0.56965
 C20 C 0.52901 -0.02982 0.58532
 C21 C 0.60116 -0.02116 0.50799
 C22 C 0.57856 -0.01545 0.42430
 H23 H 0.63662 -0.02019 0.35960
 H24 H 0.39413 -0.05558 0.61966
 O25 O 0.38102 0.04680 -0.05414
 O26 O 0.39434 0.08541 0.19354
 O27 O 0.35863 0.20808 0.10061
 O28 O 0.41882 -0.07228 0.04065
 O29 O 0.59984 -0.14850 -0.04330
 O30 O 0.53911 0.13019 0.00762
 O31 O 0.57372 0.01672 0.10776
 O32 O 0.56238 -0.03266 -0.14248
 Cu33 Cu 0.36979 0.07494 0.07848
 Cu34 Cu 0.58705 -0.01597 -0.02640
 C35 C 0.46857 0.00170 -0.13998
 C36 C 0.48750 0.05451 0.19157
 C37 C 0.43929 0.21595 0.06108
 C38 C 0.51881 -0.15693 -0.00711
 O39 O -0.20842 0.61040 1.09438
 O40 O 0.02151 0.64848 1.06340
 O41 O -0.08732 0.63429 0.95842
 O42 O -0.10772 0.63932 1.20894
 O43 O 0.01840 0.45579 1.11824
 O44 O 0.03280 0.44957 0.86783
 O45 O 0.14334 0.46390 0.97193
 O46 O -0.08619 0.42624 1.00819
 Cu47 Cu -0.10795 0.65148 1.09061
 Cu48 Cu 0.03851 0.43011 0.98282
 C49 C -0.18529 0.51085 1.05266
 C50 C 0.12105 0.56283 1.01464
 C51 C -0.02575 0.54174 0.87110
 C52 C -0.04381 0.54920 1.20545
 O53 O 0.11087 -0.22994 0.32159
 O54 O 0.04243 0.04849 0.35863
 O55 O 0.21424 -0.12385 0.33045
 O56 O -0.06154 -0.05228 0.35718
 O57 O -0.13158 0.01501 0.53101
 O58 O 0.14221 -0.05038 0.50500
 O59 O -0.02683 0.12018 0.53286
 O60 O 0.04153 -0.15926 0.49561
 Cu61 Cu 0.08357 -0.09643 0.32516
 Cu62 Cu -0.00043 -0.01206 0.53359
 C63 C 0.08338 -0.24074 0.40319
 C64 C -0.00054 0.13027 0.45056
 C65 C 0.22319 -0.09341 0.41444
 C66 C -0.14221 -0.00971 0.44765
 C67 C -0.36911 0.57079 1.06385
 C68 C -0.27115 0.49050 1.04730
 H69 H -0.38766 0.65507 1.09336
 H70 H -0.24372 0.40325 1.01287
 C71 C 0.30642 0.50020 0.99907
 C72 C 0.20960 0.58040 1.01365
 H73 H 0.31908 0.41915 0.98038
 H74 H 0.18640 0.66542 1.03843
 C75 C 0.05359 -0.35666 0.47592
 C76 C 0.09413 -0.34686 0.39057
 H77 H 0.02547 -0.28884 0.55269
 H78 H 0.13363 -0.41482 0.31047
 C79 C 0.02575 0.28457 0.50975
 C80 C -0.01507 0.23553 0.45872
 H81 H 0.05833 0.25195 0.55571
 H82 H -0.04719 0.26396 0.41054
 C83 C 0.53879 -0.02778 -0.32293
 C84 C 0.45840 -0.00730 -0.23606
 H85 H 0.61111 -0.03640 -0.31706
 H86 H 0.37769 0.01441 -0.22846
 C87 C 0.45831 0.01182 0.33599
 C88 C 0.49876 0.05582 0.28500
 H89 H 0.40593 -0.01159 0.31382
 H90 H 0.55128 0.08166 0.30302
 C91 C 0.45676 -0.27223 0.03130
 C92 C 0.54095 -0.26464 -0.01566
 H93 H 0.37271 -0.20169 0.06215
 H94 H 0.62656 -0.33668 -0.05946
 C95 C 0.49239 0.32936 0.00692
 C96 C 0.41675 0.32493 0.07390
 H97 H 0.57333 0.25282 -0.05287
 H98 H 0.33637 0.40122 0.13528
 C99 C -0.30541 -0.02014 0.51146
 C100 C -0.24758 0.00783 0.45321
 H101 H -0.27417 -0.04650 0.56072
 H102 H -0.27107 0.03736 0.40198
 C103 C 0.32229 -0.02750 0.48907
 C104 C 0.32614 -0.10148 0.40751
 H105 H 0.24457 0.03241 0.56323
 H106 H 0.40336 -0.16246 0.33311
 C107 C 0.04831 0.47282 1.29852
 C108 C -0.03936 0.55419 1.30316
 H109 H 0.11505 0.39910 1.22213
 H110 H -0.10688 0.62718 1.37965
 C111 C 0.02995 0.45089 0.67897
 C112 C -0.02478 0.54397 0.77408
 H113 H 0.07403 0.36939 0.67271
 H114 H -0.07340 0.62600 0.78249
   
