data_POSCAR
  _audit_creation_date              2014-09-24
  _audit_creation_method            'ToBaCCo'
  _symmetry_space_group_name_H-M    'P1'
  _symmetry_Int_Tables_number       1
  _symmetry_cell_setting            triclinic
  loop_
  _symmetry_equiv_pos_as_xyz
 x,y,z
_cell_length_a 38.3565
_cell_length_b 38.7047
_cell_length_c 39.6718
_cell_angle_alpha 88.379600
_cell_angle_beta 91.681800
_cell_angle_gamma 86.252000
loop_
  _atom_site_label
  _atom_site_type_symbol
  _atom_site_fract_x
  _atom_site_fract_y
  _atom_site_fract_z
C1 C 0.59882 0.63324 0.60497
 N2 N 0.59971 0.60882 0.63030
 C3 C 0.62508 0.58255 0.63196
 N4 N 0.64959 0.58090 0.60788
 C5 C 0.64880 0.60511 0.58237
 N6 N 0.62348 0.63136 0.58108
 C7 C 0.89650 0.34355 0.13012
 N8 N 0.87027 0.34180 0.10655
 C9 C 0.84150 0.36416 0.10672
 N10 N 0.83901 0.38865 0.13050
 C11 C 0.86497 0.39055 0.15430
 N12 N 0.89362 0.36800 0.15400
 C13 C 0.38436 0.15774 -0.13565
 N14 N 0.36115 0.15981 -0.11054
 C15 C 0.33553 0.13730 -0.10849
 N16 N 0.33334 0.11236 -0.13174
 C17 C 0.35659 0.11001 -0.15694
 N18 N 0.38208 0.13271 -0.15878
 C19 C 0.11067 0.83339 0.35822
 N20 N 0.11410 0.85779 0.33343
 C21 C 0.13494 0.88445 0.33835
 N22 N 0.15314 0.88606 0.36816
 C23 C 0.15104 0.86101 0.39255
 N24 N 0.12946 0.83506 0.38761
 N25 N 0.11424 0.19787 0.13591
 N26 N 0.10950 0.18702 0.16704
 C27 C 0.08280 0.20631 0.17983
 C28 C 0.06995 0.23004 0.15507
 C29 C 0.09039 0.22393 0.12753
 H30 H 0.07220 0.20200 0.20445
 H31 H 0.08765 0.23694 0.10300
 Cu32 Cu 0.13573 0.14590 0.18619
 Cu33 Cu 0.15049 0.17635 0.10868
 Cu34 Cu 0.16187 0.08881 0.12762
 N35 N 0.15028 0.09804 0.19823
 N36 N 0.15807 0.07536 0.17507
 C37 C 0.16242 0.04354 0.18976
 C38 C 0.15791 0.04665 0.22399
 C39 C 0.15033 0.08158 0.22858
 H40 H 0.16827 0.01990 0.17653
 H41 H 0.14335 0.09375 0.25187
 N42 N 0.17722 0.11013 0.08503
 N43 N 0.17406 0.14387 0.07872
 C44 C 0.19032 0.15124 0.05014
 C45 C 0.20437 0.12065 0.03761
 C46 C 0.19551 0.09499 0.06028
 H47 H 0.19258 0.17709 0.03971
 H48 H 0.20359 0.06771 0.05991
 H49 H 0.12917 0.13337 0.12657
 H50 H 0.17589 0.13649 0.14052
 N51 N 0.41339 0.82104 0.61552
 N52 N 0.42767 0.83355 0.64272
 C53 C 0.45517 0.81217 0.65336
 C54 C 0.45853 0.78524 0.63127
 C55 C 0.43176 0.79177 0.60746
 H56 H 0.47202 0.81621 0.67503
 H57 H 0.42586 0.77608 0.58617
 Cu58 Cu 0.40983 0.87739 0.66048
 Cu59 Cu 0.37138 0.84295 0.59331
 Cu60 Cu 0.33734 0.91970 0.62607
 N61 N 0.39053 0.92051 0.67854
 N62 N 0.36132 0.93608 0.66593
 C63 C 0.35295 0.96421 0.68400
 C64 C 0.37865 0.96672 0.70876
 C65 C 0.40214 0.93866 0.70458
 H66 H 0.33029 0.98195 0.67910
 H67 H 0.42554 0.93175 0.71980
 N68 N 0.31692 0.89885 0.58586
 N69 N 0.32910 0.86889 0.57434
 C70 C 0.30893 0.86074 0.54778
 C71 C 0.28334 0.88711 0.54188
 C72 C 0.28914 0.91096 0.56635
 H73 H 0.31291 0.83770 0.53321
 H74 H 0.27394 0.93502 0.56990
 H75 H 0.38016 0.89311 0.60647
 H76 H 0.35267 0.86809 0.63517
 N77 N 0.92589 0.66942 0.38520
 N78 N 0.93649 0.65881 0.35579
 C79 C 0.96545 0.67476 0.34777
 C80 C 0.97373 0.69586 0.37394
 C81 C 0.94816 0.69186 0.39728
 H82 H 0.97971 0.67094 0.32491
 H83 H 0.94542 0.70509 0.42081
 Cu84 Cu 0.91225 0.62428 0.33140
 Cu85 Cu 0.88273 0.65529 0.40436
 Cu86 Cu 0.84449 0.58703 0.36680
 N87 N 0.89512 0.58154 0.31498
 N88 N 0.86777 0.56789 0.32785
 C89 C 0.86064 0.53958 0.31063
 C90 C 0.88527 0.53492 0.28616
 C91 C 0.90682 0.56196 0.28963
 H92 H 0.83954 0.52320 0.31586
 H93 H 0.92892 0.56732 0.27446
 N94 N 0.82513 0.61024 0.40640
 N95 N 0.83897 0.63721 0.41984
 C96 C 0.81903 0.64842 0.44522
 C97 C 0.79175 0.62708 0.44823
 C98 C 0.79649 0.60302 0.42346
 H99 H 0.82430 0.67002 0.46086
 H100 H 0.77992 0.58220 0.41800
 H101 H 0.89004 0.60615 0.38530
 H102 H 0.85857 0.63749 0.36131
 N103 N 0.56746 0.32735 -0.10193
 N104 N 0.55358 0.33887 -0.13115
 C105 C 0.52684 0.31957 -0.13960
 C106 C 0.52346 0.29520 -0.11399
 C107 C 0.54957 0.30088 -0.09045
 H108 H 0.51058 0.32326 -0.16231
 H109 H 0.55548 0.28643 -0.06702
 Cu110 Cu 0.57117 0.37868 -0.15461
 Cu111 Cu 0.60842 0.34660 -0.08152
 Cu112 Cu 0.64137 0.41639 -0.12378
 N113 N 0.58935 0.41851 -0.17753
 N114 N 0.61808 0.43172 -0.16634
 C115 C 0.62639 0.45721 -0.18782
 C116 C 0.60109 0.46063 -0.21332
 C117 C 0.57786 0.43586 -0.20608
 H118 H 0.64872 0.47264 -0.18480
 H119 H 0.55486 0.43049 -0.22094
 N120 N 0.66124 0.39718 -0.08035
 N121 N 0.64964 0.36969 -0.06497
 C122 C 0.66948 0.36203 -0.03682
 C123 C 0.69409 0.38634 -0.03404
 C124 C 0.68815 0.40827 -0.06195
 H125 H 0.66593 0.34083 -0.01919
 H126 H 0.70280 0.43028 -0.06856
 H127 H 0.59851 0.39606 -0.10205
 H128 H 0.62777 0.36566 -0.12585
 C129 C -0.02074 0.29777 0.15663
 C130 C -0.01393 0.27708 0.12880
 N131 N -0.03723 0.27814 0.10236
 C132 C -0.06707 0.29910 0.10232
 C133 C -0.07363 0.32080 0.12972
 N134 N -0.05006 0.31947 0.15624
 N135 N 0.00185 0.29549 0.18375
 C136 C 0.03107 0.27351 0.18419
 C137 C 0.03842 0.25357 0.15592
 N138 N 0.01567 0.25590 0.12886
 H139 H -0.08502 0.29927 0.08074
 H140 H 0.04871 0.27208 0.20607
 C141 C 0.53499 0.70147 0.63351
 C142 C 0.52125 0.71600 0.60271
 N143 N 0.53331 0.70352 0.57330
 C144 C 0.55850 0.67710 0.57326
 C145 C 0.57178 0.66201 0.60404
 N146 N 0.55957 0.67459 0.63348
 N147 N 0.52390 0.71482 0.66291
 C148 C 0.49962 0.74205 0.66294
 C149 C 0.48526 0.75617 0.63218
 N150 N 0.49643 0.74267 0.60274
 H151 H 0.56770 0.66765 0.54947
 H152 H 0.49118 0.75216 0.68674
 C153 C 1.05454 0.76455 0.38024
 C154 C 1.03725 0.75948 0.34929
 N155 N 1.04514 0.77850 0.32160
 C156 C 1.06935 0.80262 0.32348
 C157 C 1.08693 0.80772 0.35449
 N158 N 1.07912 0.78813 0.38201
 N159 N 1.04552 0.74682 0.40831
 C160 C 1.01975 0.72436 0.40690
 C161 C 1.00256 0.71899 0.37591
 N162 N 1.01193 0.73657 0.34772
 H163 H 1.07472 0.81757 0.30098
 H164 H 1.01285 0.71072 0.42969
 C165 C 0.44803 0.22056 -0.10943
 C166 C 0.46108 0.23111 -0.14049
 N167 N 0.44960 0.21681 -0.16930
 C168 C 0.42549 0.19256 -0.16848
 C169 C 0.41168 0.18263 -0.13750
 N170 N 0.42337 0.19699 -0.10869
 N171 N 0.46028 0.23400 -0.08051
 C172 C 0.48497 0.25764 -0.08122
 C173 C 0.49748 0.26892 -0.11233
 N174 N 0.48513 0.25534 -0.14129
 H175 H 0.41663 0.18172 -0.19184
 H176 H 0.49418 0.26805 -0.05780
 C177 C 0.15528 -0.03415 0.29744
 C178 C 0.14151 -0.03782 0.26467
 N179 N 0.12572 -0.06706 0.25693
 C180 C 0.12299 -0.09287 0.28048
 C181 C 0.13734 -0.08967 0.31331
 N182 N 0.15332 -0.06024 0.32077
 N183 N 0.16960 -0.00421 0.30562
 C184 C 0.17072 0.02228 0.28249
 C185 C 0.15758 0.01840 0.24948
 N186 N 0.14336 -0.01171 0.24135
 H187 H 0.11010 -0.11577 0.27340
 H188 H 0.18209 0.04598 0.28965
 C189 C 0.59811 0.53294 -0.29501
 C190 C 0.62763 0.51012 -0.28841
 N191 N 0.65532 0.51104 -0.30884
 C192 C 0.65500 0.53391 -0.33551
 C193 C 0.62595 0.55777 -0.34160
 N194 N 0.59818 0.55652 -0.32099
 N195 N 0.56976 0.53095 -0.27549
 C196 C 0.56971 0.50726 -0.24949
 C197 C 0.59968 0.48525 -0.24216
 N198 N 0.62800 0.48722 -0.26184
 H199 H 0.67761 0.53392 -0.35121
 H200 H 0.54688 0.50617 -0.23420
 C201 C 0.38361 1.04426 0.78122
 C202 C 0.35133 1.03268 0.77039
 N203 N 0.32145 1.04606 0.78392
 C204 C 0.32238 1.07062 0.80775
 C205 C 0.35460 1.08287 0.81803
 N206 N 0.38448 1.06934 0.80440
 N207 N 0.41358 1.02997 0.76865
 C208 C 0.41275 1.00465 0.74563
 C209 C 0.38044 0.99356 0.73414
 N210 N 0.35043 1.00797 0.74681
 H211 H 0.29819 1.08091 0.81809
 H212 H 0.43702 0.99374 0.73594
 C213 C 0.89133 0.45570 0.21508
 C214 C 0.85893 0.46821 0.22699
 N215 N 0.82913 0.45535 0.21481
 C216 C 0.83025 0.43049 0.19123
 C217 C 0.86270 0.41746 0.17971
 N218 N 0.89251 0.43040 0.19206
 N219 N 0.92103 0.46944 0.22632
 C220 C 0.91982 0.49518 0.24898
 C221 C 0.88749 0.50734 0.26142
 N222 N 0.85777 0.49340 0.25013
 H223 H 0.80611 0.42070 0.18190
 H224 H 0.94390 0.50564 0.25757
 C225 C 0.27154 0.11302 -0.04491
 C226 C 0.26508 0.14446 -0.02871
 N227 N 0.28141 0.17280 -0.03889
 C228 C 0.30410 0.17117 -0.06453
 C229 C 0.31055 0.13982 -0.08105
 N230 N 0.29389 0.11144 -0.07086
 N231 N 0.25583 0.08448 -0.03397
 C232 C 0.23402 0.08596 -0.00748
 C233 C 0.22734 0.11753 0.00859
 N234 N 0.24305 0.14602 -0.00264
 H235 H 0.31680 0.19421 -0.07205
 H236 H 0.22189 0.06284 0.00073
 C237 C 0.71237 0.63217 0.51984
 C238 C 0.72615 0.60011 0.50875
 N239 N 0.71464 0.57038 0.52203
 C240 C 0.68993 0.57124 0.54594
 C241 C 0.67558 0.60330 0.55662
 N242 N 0.68714 0.63306 0.54317
 N243 N 0.72490 0.66186 0.50758
 C244 C 0.75063 0.66096 0.48469
 C245 C 0.76400 0.62895 0.47304
 N246 N 0.75129 0.59923 0.48533
 H247 H 0.68124 0.54716 0.55618
 H248 H 0.76019 0.68500 0.47532
 C249 C 0.77170 0.39127 0.04309
 C250 C 0.76188 0.35921 0.03159
 N251 N 0.77834 0.32949 0.04466
 C252 C 0.80421 0.33036 0.06875
 C253 C 0.81360 0.36237 0.08081
 N254 N 0.79697 0.39212 0.06769
 N255 N 0.75629 0.42102 0.02900
 C256 C 0.73147 0.42018 0.00390
 C257 C 0.72108 0.38814 -0.00718
 N258 N 0.73653 0.35836 0.00708
 H259 H 0.81701 0.30631 0.07871
 H260 H 0.71957 0.44426 -0.00692
 C261 C 0.20848 0.89078 0.46140
 C262 C 0.22012 0.85920 0.47754
 N263 N 0.20770 0.82927 0.46680
 C264 C 0.18441 0.82937 0.44032
 C265 C 0.17365 0.86077 0.42321
 N266 N 0.18595 0.89083 0.43429
 N267 N 0.22031 0.92077 0.47282
 C268 C 0.24355 0.92056 0.49945
 C269 C 0.25621 0.88884 0.51480
 N270 N 0.24402 0.85891 0.50343
 H271 H 0.17531 0.80502 0.43204
 H272 H 0.25286 0.94477 0.50784
   
