data_POSCAR
  _audit_creation_date              2014-09-24
  _audit_creation_method            'ToBaCCo'
  _symmetry_space_group_name_H-M    'P1'
  _symmetry_Int_Tables_number       1
  _symmetry_cell_setting            triclinic
  loop_
  _symmetry_equiv_pos_as_xyz
 x,y,z
_cell_length_a 26.6091
_cell_length_b 26.6092
_cell_length_c 69.8002
_cell_angle_alpha 89.877600
_cell_angle_beta 90.076400
_cell_angle_gamma 119.914100
loop_
  _atom_site_label
  _atom_site_type_symbol
  _atom_site_fract_x
  _atom_site_fract_y
  _atom_site_fract_z
C1 C -0.00004 -0.00037 0.50009
 C2 C 1.00010 0.00089 0.16658
 C3 C 0.00039 0.99989 0.83333
 O4 O 0.57200 0.04750 -0.01914
 O5 O 0.47376 0.04767 0.01816
 O6 O 0.57299 0.05019 0.01812
 O7 O 0.47530 0.05010 -0.01911
 O8 O 0.42708 -0.04579 -0.01910
 O9 O 0.52551 -0.04569 0.01829
 O10 O 0.42628 -0.04821 0.01817
 O11 O 0.52378 -0.04839 -0.01898
 Cu12 Cu 0.52833 0.05852 -0.00051
 Cu13 Cu 0.47084 -0.05667 -0.00040
 C14 C 0.56443 -0.00068 -0.02530
 C15 C 0.43329 -0.00045 0.02441
 C16 C 0.56602 0.00247 0.02445
 C17 C 0.43462 0.00235 -0.02535
 O18 O 0.04701 0.47307 0.64845
 O19 O 0.04708 0.57132 0.68576
 O20 O 0.04968 0.47462 0.68572
 O21 O 0.04953 0.57230 0.64850
 O22 O -0.04636 0.52483 0.64844
 O23 O -0.04621 0.42640 0.68581
 O24 O -0.04881 0.52310 0.68571
 O25 O -0.04888 0.42559 0.64854
 Cu26 Cu 0.05798 0.52764 0.66711
 Cu27 Cu -0.05722 0.47016 0.66713
 C28 C -0.00115 0.43260 0.64225
 C29 C -0.00106 0.56376 0.69197
 C30 C 0.00196 0.43394 0.69201
 C31 C 0.00177 0.56533 0.64222
 O32 O 0.57252 0.52595 0.35203
 O33 O 0.47434 0.42784 0.31468
 O34 O 0.57348 0.52442 0.31476
 O35 O 0.47593 0.42682 0.35195
 O36 O 0.42756 0.47445 0.35198
 O37 O 0.52584 0.57280 0.31464
 O38 O 0.42671 0.47621 0.31472
 O39 O 0.52415 0.57359 0.35191
 Cu40 Cu 0.52890 0.47142 0.33336
 Cu41 Cu 0.47123 0.52910 0.33331
 C42 C 0.56486 0.56649 0.35821
 C43 C 0.43379 0.43551 0.30845
 C44 C 0.56641 0.56516 0.30846
 C45 C 0.43520 0.43388 0.35821
 C46 C -0.01262 0.03673 0.51230
 C47 C -0.01945 0.06899 0.52268
 C48 C -0.02401 0.10900 0.53540
 C49 C -0.00243 0.16667 0.52976
 C50 C -0.00155 0.20709 0.54272
 C51 C -0.02204 0.19036 0.56155
 C52 C -0.04484 0.13197 0.56694
 C53 C -0.04570 0.09162 0.55395
 C54 C -0.01783 0.23397 0.57567
 C55 C -0.00074 0.23259 0.59466
 C56 C 0.00408 0.27404 0.60793
 C57 C -0.00805 0.31747 0.60241
 C58 C -0.02507 0.31928 0.58355
 C59 C -0.02987 0.27787 0.57025
 C60 C -0.00427 0.35926 0.61624
 C61 C -0.00207 0.39337 0.62801
 H62 H 0.01506 0.18072 0.51549
 H63 H 0.01691 0.25181 0.53820
 H64 H -0.06166 0.11759 0.58124
 H65 H -0.06222 0.04716 0.55850
 H66 H 0.00973 0.19994 0.59921
 H67 H 0.01726 0.27222 0.62248
 H68 H -0.03490 0.35251 0.57916
 H69 H -0.04369 0.27973 0.55580
 C70 C 0.96302 0.95113 0.17878
 C71 C 0.93074 0.91195 0.18915
 C72 C 0.89069 0.86724 0.20185
 C73 C 0.90787 0.86279 0.22043
 C74 C 0.86745 0.82314 0.23338
 C75 C 0.80918 0.78752 0.22793
 C76 C 0.79265 0.79142 0.20907
 C77 C 0.83314 0.83113 0.19614
 C78 C 0.76546 0.74792 0.24201
 C79 C 0.72185 0.69207 0.23657
 C80 C 0.68034 0.65527 0.24984
 C81 C 0.68177 0.67384 0.26868
 C82 C 0.72491 0.72931 0.27422
 C83 C 0.76646 0.76613 0.26100
 C84 C 0.63988 0.63564 0.28248
 C85 C 0.60570 0.60360 0.29423
 H86 H 0.95223 0.89075 0.22502
 H87 H 0.88167 0.82058 0.24771
 H88 H 0.74803 0.76514 0.20450
 H89 H 0.81924 0.83467 0.18185
 H90 H 0.72028 0.67659 0.22213
 H91 H 0.64733 0.61227 0.24543
 H92 H 0.72644 0.74411 0.28877
 H93 H 0.79888 0.80917 0.26556
 C94 C 0.04751 0.01186 -0.15510
 C95 C 0.08686 0.01901 -0.14473
 C96 C 0.13173 0.02390 -0.13205
 C97 C 0.16813 0.00273 -0.13772
 C98 C 0.20798 0.00210 -0.12479
 C99 C 0.21173 0.02243 -0.10595
 C100 C 0.17583 0.04484 -0.10053
 C101 C 0.13604 0.04545 -0.11349
 C102 C 0.25146 0.01843 -0.09185
 C103 C 0.23325 0.00113 -0.07286
 C104 C 0.27017 -0.00352 -0.05962
 C105 C 0.32574 0.00896 -0.06516
 C106 C 0.34431 0.02620 -0.08401
 C107 C 0.30741 0.03085 -0.09729
 C108 C 0.36402 0.00531 -0.05135
 C109 C 0.39613 0.00320 -0.03959
 H110 H 0.16470 -0.01466 -0.15199
 H111 H 0.23448 -0.01606 -0.12933
 H112 H 0.17826 0.06154 -0.08622
 H113 H 0.10785 0.06165 -0.10892
 H114 H 0.19014 -0.00962 -0.06830
 H115 H 0.25537 -0.01688 -0.04506
 H116 H 0.38739 0.03631 -0.08842
 H117 H 0.32289 0.04482 -0.11175
 C118 C 0.01256 0.96240 0.51229
 C119 C 0.01943 0.93003 0.52267
 C120 C 0.02404 0.88989 0.53539
 C121 C 0.00252 0.83230 0.52973
 C122 C 0.00169 0.79175 0.54269
 C123 C 0.02218 0.80828 0.56152
 C124 C 0.04492 0.86659 0.56693
 C125 C 0.04573 0.90707 0.55394
 C126 C 0.01804 0.76452 0.57564
 C127 C 0.00094 0.76565 0.59463
 C128 C -0.00380 0.72408 0.60789
 C129 C 0.00841 0.68077 0.60237
 C130 C 0.02543 0.67920 0.58352
 C131 C 0.03016 0.72075 0.57022
 C132 C 0.00472 0.63886 0.61620
 C133 C 0.00260 0.60466 0.62797
 H134 H -0.01497 0.81841 0.51546
 H135 H -0.01672 0.74710 0.53816
 H136 H 0.06174 0.88081 0.58124
 H137 H 0.06220 0.95147 0.55850
 H138 H -0.00958 0.79821 0.59918
 H139 H -0.01698 0.72571 0.62245
 H140 H 0.03533 0.64607 0.57912
 H141 H 0.04398 0.71907 0.55577
 C142 C 0.03723 0.05052 0.17878
 C143 C 0.06953 0.08960 0.18915
 C144 C 0.10959 0.13418 0.20184
 C145 C 0.16712 0.17039 0.19614
 C146 C 0.20762 0.20998 0.20907
 C147 C 0.19112 0.21368 0.22792
 C148 C 0.13287 0.17797 0.23338
 C149 C 0.09243 0.13843 0.22042
 C150 C 0.23484 0.25318 0.24201
 C151 C 0.23389 0.23480 0.26099
 C152 C 0.27543 0.27154 0.27422
 C153 C 0.31851 0.32708 0.26867
 C154 C 0.31989 0.34582 0.24983
 C155 C 0.27839 0.30911 0.23656
 C156 C 0.36038 0.36519 0.28247
 C157 C 0.39453 0.39717 0.29423
 H158 H 0.18100 0.16700 0.18185
 H159 H 0.25223 0.23634 0.20450
 H160 H 0.11866 0.18037 0.24771
 H161 H 0.04808 0.11040 0.22502
 H162 H 0.20152 0.19171 0.26555
 H163 H 0.27394 0.25661 0.28877
 H164 H 0.35286 0.38888 0.24542
 H165 H 0.27991 0.32471 0.22211
 C166 C 0.95061 -0.01268 -0.15448
 C167 C 0.91140 -0.01951 -0.14414
 C168 C 0.86668 -0.02404 -0.13149
 C169 C 0.86268 -0.04496 -0.11282
 C170 C 0.82302 -0.04402 -0.09992
 C171 C 0.78694 -0.02192 -0.10551
 C172 C 0.79038 -0.00222 -0.12445
 C173 C 0.83011 -0.00318 -0.13733
 C174 C 0.74731 -0.01761 -0.09149
 C175 C 0.69123 -0.03039 -0.09695
 C176 C 0.65439 -0.02552 -0.08374
 C177 C 0.67317 -0.00769 -0.06495
 C178 C 0.72887 0.00519 -0.05940
 C179 C 0.76573 0.00031 -0.07256
 C180 C 0.63493 -0.00387 -0.05121
 C181 C 0.60287 -0.00164 -0.03949
 H182 H 0.89101 -0.06092 -0.10812
 H183 H 0.82082 -0.06024 -0.08552
 H184 H 0.76374 0.01569 -0.12913
 H185 H 0.83330 0.01372 -0.15169
 H186 H 0.67559 -0.04484 -0.11135
 H187 H 0.61121 -0.03594 -0.08815
 H188 H 0.74383 0.01900 -0.04489
 H189 H 0.80894 0.01135 -0.06800
 C190 C 0.03724 -0.01164 0.15437
 C191 C 0.06953 -0.01845 0.14398
 C192 C 0.10957 -0.02298 0.13126
 C193 C 0.16718 -0.00156 0.13690
 C194 C 0.20764 -0.00067 0.12394
 C195 C 0.19098 -0.02100 0.10511
 C196 C 0.13264 -0.04364 0.09970
 C197 C 0.09226 -0.04452 0.11269
 C198 C 0.23463 -0.01681 0.09099
 C199 C 0.23340 0.00043 0.07199
 C200 C 0.27487 0.00521 0.05874
 C201 C 0.31816 -0.00711 0.06425
 C202 C 0.31982 -0.02428 0.08310
 C203 C 0.27839 -0.02904 0.09640
 C204 C 0.35995 -0.00340 0.05042
 C205 C 0.39407 -0.00127 0.03865
 H206 H 0.18118 0.01581 0.15118
 H207 H 0.25231 0.01766 0.12847
 H208 H 0.11832 -0.06035 0.08539
 H209 H 0.04784 -0.06091 0.10814
 H210 H 0.20086 0.01104 0.06746
 H211 H 0.27316 0.01850 0.04418
 H212 H 0.35295 -0.03426 0.08749
 H213 H 0.28013 -0.04298 0.11085
 C214 C 0.95025 0.96258 0.48789
 C215 C 0.91110 0.93035 0.47752
 C216 C 0.86645 0.89034 0.46483
 C217 C 0.86211 0.90758 0.44624
 C218 C 0.82252 0.86721 0.43328
 C219 C 0.78685 0.80893 0.43875
 C220 C 0.79064 0.79234 0.45761
 C221 C 0.83029 0.83279 0.47054
 C222 C 0.74732 0.76526 0.42466
 C223 C 0.69142 0.72166 0.43010
 C224 C 0.65468 0.68020 0.41683
 C225 C 0.67336 0.68168 0.39799
 C226 C 0.72887 0.72481 0.39246
 C227 C 0.76563 0.76631 0.40568
 C228 C 0.63522 0.63985 0.38420
 C229 C 0.60323 0.60572 0.37244
 H230 H 0.89012 0.95196 0.44164
 H231 H 0.82006 0.88148 0.41895
 H232 H 0.76432 0.74771 0.46218
 H233 H 0.83374 0.81884 0.48483
 H234 H 0.67587 0.72006 0.44454
 H235 H 0.61165 0.64719 0.42124
 H236 H 0.74375 0.72638 0.37791
 H237 H 0.80870 0.79872 0.40113
 C238 C 0.01233 0.04698 0.82174
 C239 C 0.01946 0.08631 0.81135
 C240 C 0.02429 0.13116 0.79865
 C241 C 0.00360 0.16790 0.80440
 C242 C 0.00288 0.20772 0.79146
 C243 C 0.02264 0.21111 0.77256
 C244 C 0.04457 0.17487 0.76706
 C245 C 0.04528 0.13511 0.78002
 C246 C 0.01852 0.25082 0.75846
 C247 C 0.00062 0.23243 0.73953
 C248 C -0.00414 0.26935 0.72631
 C249 C 0.00885 0.32509 0.73180
 C250 C 0.02668 0.34384 0.75059
 C251 C 0.03143 0.30695 0.76386
 C252 C 0.00510 0.36336 0.71800
 C253 C 0.00291 0.39546 0.70624
 H254 H -0.01335 0.16474 0.81873
 H255 H -0.01491 0.23449 0.79607
 H256 H 0.06083 0.17702 0.75269
 H257 H 0.06109 0.10665 0.77539
 H258 H -0.01052 0.18919 0.73502
 H259 H -0.01795 0.25440 0.71180
 H260 H 0.03718 0.38705 0.75496
 H261 H 0.04587 0.32256 0.77826
 C262 C 0.96291 0.01354 0.15438
 C263 C 0.93057 0.02044 0.14400
 C264 C 0.89045 0.02506 0.13130
 C265 C 0.90772 0.04697 0.11275
 C266 C 0.86727 0.04617 0.09977
 C267 C 0.80889 0.02321 0.10516
 C268 C 0.79227 0.00251 0.12398
 C269 C 0.83280 0.00333 0.13694
 C270 C 0.76517 0.01906 0.09104
 C271 C 0.72122 0.03092 0.09647
 C272 C 0.67970 0.02615 0.08317
 C273 C 0.68146 0.00934 0.06431
 C274 C 0.72494 -0.00261 0.05878
 C275 C 0.76650 0.00217 0.07204
 C276 C 0.63955 0.00558 0.05048
 C277 C 0.60535 0.00339 0.03870
 H278 H 0.95217 0.06361 0.10821
 H279 H 0.88156 0.06316 0.08548
 H280 H 0.74758 -0.01606 0.12850
 H281 H 0.81884 -0.01432 0.15120
 H282 H 0.71939 0.04458 0.11093
 H283 H 0.64642 0.03585 0.08757
 H284 H 0.72672 -0.01564 0.04422
 H285 H 0.79919 -0.00816 0.06749
 C286 C 0.04963 0.03679 0.48789
 C287 C 0.08876 0.06913 0.47752
 C288 C 0.13340 0.10925 0.46482
 C289 C 0.13779 0.09215 0.44625
 C290 C 0.17739 0.13263 0.43330
 C291 C 0.21302 0.19087 0.43874
 C292 C 0.20918 0.20733 0.45759
 C293 C 0.16952 0.16677 0.47052
 C294 C 0.25258 0.23465 0.42466
 C295 C 0.30845 0.27823 0.43011
 C296 C 0.34522 0.31979 0.41684
 C297 C 0.32660 0.31842 0.39799
 C298 C 0.27111 0.27531 0.39244
 C299 C 0.23432 0.23372 0.40566
 C300 C 0.36477 0.36035 0.38419
 C301 C 0.39680 0.39455 0.37244
 H302 H 0.10983 0.04780 0.44167
 H303 H 0.17991 0.11846 0.41898
 H304 H 0.23546 0.25193 0.46215
 H305 H 0.16602 0.18061 0.48480
 H306 H 0.32397 0.27974 0.44457
 H307 H 0.38824 0.35277 0.42126
 H308 H 0.25627 0.27384 0.37788
 H309 H 0.19127 0.20132 0.40110
 C310 C -0.01220 0.95008 0.82118
 C311 C -0.01907 0.91085 0.81085
 C312 C -0.02366 0.86610 0.79822
 C313 C -0.00225 0.82991 0.80399
 C314 C -0.00139 0.79016 0.79111
 C315 C -0.02172 0.78631 0.77225
 C316 C -0.04435 0.82201 0.76673
 C317 C -0.04520 0.86169 0.77963
 C318 C -0.01752 0.74667 0.75822
 C319 C -0.00027 0.76488 0.73922
 C320 C 0.00452 0.72802 0.72604
 C321 C -0.00779 0.67251 0.73165
 C322 C -0.02497 0.65394 0.75051
 C323 C -0.02975 0.69078 0.76373
 C324 C -0.00407 0.63427 0.71790
 C325 C -0.00192 0.60220 0.70617
 H326 H 0.01512 0.83342 0.81828
 H327 H 0.01693 0.76382 0.79573
 H328 H -0.06106 0.81949 0.75240
 H329 H -0.06158 0.88972 0.77499
 H330 H 0.01034 0.80794 0.73461
 H331 H 0.01783 0.74282 0.71148
 H332 H -0.03496 0.61091 0.75497
 H333 H -0.04369 0.67530 0.77818
   
