data_POSCAR
  _audit_creation_date              2014-09-24
  _audit_creation_method            'ToBaCCo'
  _symmetry_space_group_name_H-M    'P1'
  _symmetry_Int_Tables_number       1
  _symmetry_cell_setting            triclinic
  loop_
  _symmetry_equiv_pos_as_xyz
 x,y,z
_cell_length_a 21.5639
_cell_length_b 21.6107
_cell_length_c 25.2283
_cell_angle_alpha 89.852000
_cell_angle_beta 90.071700
_cell_angle_gamma 90.109800
loop_
  _atom_site_label
  _atom_site_type_symbol
  _atom_site_fract_x
  _atom_site_fract_y
  _atom_site_fract_z
Zr1 Zr 0.24088 0.24163 0.34275
 O2 O 0.24864 0.25023 0.42623
 O3 O 0.17208 0.17516 0.36662
 O4 O 0.20060 0.31619 0.38659
 O5 O 0.37290 0.15316 0.32640
 O6 O 0.14706 0.36803 0.32233
 O7 O 0.31735 0.20702 0.38777
 O8 O 0.12582 0.12392 0.29865
 O9 O 0.16322 0.24363 0.29266
 O10 O 0.24810 0.16271 0.29479
 O11 O 0.24949 0.32560 0.30016
 O12 O 0.32720 0.24682 0.30351
 Zr13 Zr 0.25962 0.25858 0.15747
 Zr14 Zr 0.17254 0.32625 0.24886
 Zr15 Zr 0.33026 0.17157 0.25134
 Zr16 Zr 0.17420 0.16743 0.24073
 O17 O 0.42773 0.17630 0.24241
 O18 O 0.07653 0.17493 0.23188
 O19 O 0.25529 0.17332 0.19834
 O20 O 0.17481 0.24904 0.19850
 O21 O 0.25597 0.33642 0.20656
 O22 O 0.33840 0.25289 0.20643
 C23 C 0.13361 0.13453 0.34705
 C24 C 0.36254 0.17114 0.37484
 C25 C 0.16432 0.36025 0.37133
 O26 O 0.07539 0.31859 0.25765
 O27 O 0.13129 0.35097 0.17443
 O28 O 0.18554 0.29789 0.11180
 C29 C 0.14062 0.33380 0.12565
 O30 O 0.36260 0.34564 0.33815
 Zr31 Zr 0.33196 0.32705 0.25950
 O32 O 0.32476 0.32853 0.13358
 O33 O 0.17850 0.42321 0.23910
 O34 O 0.32465 0.42451 0.26819
 O35 O 0.42814 0.30684 0.26043
 O36 O 0.37422 0.37661 0.20157
 C37 C 0.36395 0.36843 0.15313
 O38 O 0.25352 0.24876 0.07399
 O39 O 0.32739 0.07431 0.26114
 O40 O 0.29456 0.18148 0.11431
 O41 O 0.34873 0.12797 0.17721
 O42 O 0.19577 0.07165 0.23999
 O43 O 0.15634 0.13516 0.16252
 C44 C 0.33060 0.13698 0.12856
 H45 H 0.24919 0.12402 0.31592
 H46 H 0.13695 0.24353 0.17701
 H47 H 0.37728 0.25229 0.18555
 H48 H 0.25451 0.36393 0.32088
 H49 H 0.05979 0.13353 0.22286
 H50 H 0.05869 0.36106 0.25406
 H51 H 0.13568 0.43917 0.24256
 H52 H 0.36597 0.44092 0.27824
 H53 H 0.15654 0.04825 0.23574
 H54 H 0.37092 0.05990 0.26157
 H55 H 0.44283 0.13313 0.24103
 H56 H 0.45070 0.34650 0.26444
 H57 H 0.12652 0.10035 0.16388
 H58 H 0.28393 0.27739 0.05746
 H59 H 0.22043 0.21951 0.44287
 H60 H 0.39929 0.37316 0.33708
 Zr61 Zr 0.75325 0.76063 0.34364
 O62 O 0.74084 0.75257 0.42673
 O63 O 0.82043 0.82790 0.36934
 O64 O 0.79417 0.68793 0.38980
 O65 O 0.61526 0.83981 0.32004
 O66 O 0.85282 0.63839 0.32777
 O67 O 0.67300 0.79412 0.38503
 O68 O 0.86747 0.87985 0.30194
 O69 O 0.83284 0.76071 0.29578
 O70 O 0.74594 0.83909 0.29488
 O71 O 0.74937 0.67621 0.30133
 O72 O 0.66948 0.75229 0.30105
 Zr73 Zr 0.74270 0.74300 0.15691
 Zr74 Zr 0.82820 0.67785 0.25236
 Zr75 Zr 0.66616 0.82737 0.24851
 Zr76 Zr 0.82193 0.83621 0.24291
 O77 O 0.57003 0.82077 0.23222
 O78 O 0.92012 0.83193 0.23683
 O79 O 0.74313 0.82784 0.19792
 O80 O 0.82538 0.75470 0.20106
 O81 O 0.74718 0.66535 0.20696
 O82 O 0.66211 0.74594 0.20360
 C83 C 0.85925 0.86853 0.35017
 C84 C 0.62485 0.82479 0.36930
 C85 C 0.83334 0.64569 0.37631
 O86 O 0.92483 0.68856 0.26290
 O87 O 0.87217 0.65413 0.17889
 O88 O 0.81973 0.70555 0.11366
 C89 C 0.86462 0.67044 0.12943
 O90 O 0.63492 0.65213 0.33480
 Zr91 Zr 0.66905 0.67205 0.25745
 O92 O 0.68043 0.67131 0.13091
 O93 O 0.82550 0.58054 0.24437
 O94 O 0.67901 0.57498 0.26752
 O95 O 0.57230 0.68946 0.25449
 O96 O 0.63237 0.62049 0.19841
 C97 C 0.64255 0.62983 0.15010
 O98 O 0.75285 0.75412 0.07386
 O99 O 0.66416 0.92403 0.26217
 O100 O 0.70515 0.81982 0.11296
 O101 O 0.65387 0.87573 0.17574
 O102 O 0.79647 0.93097 0.24136
 O103 O 0.84272 0.86957 0.16548
 C104 C 0.67128 0.86633 0.12714
 H105 H 0.74321 0.87758 0.31597
 H106 H 0.86386 0.76117 0.18064
 H107 H 0.62416 0.74522 0.18145
 H108 H 0.74512 0.63789 0.32237
 H109 H 0.93605 0.87382 0.22820
 H110 H 0.94269 0.64643 0.26124
 H111 H 0.86884 0.56602 0.24804
 H112 H 0.63779 0.55741 0.27632
 H113 H 0.83505 0.95581 0.23979
 H114 H 0.62012 0.93682 0.26130
 H115 H 0.55395 0.86357 0.23074
 H116 H 0.55062 0.64906 0.25608
 H117 H 0.86960 0.90659 0.16809
 H118 H 0.72345 0.72543 0.05619
 H119 H 0.76710 0.78437 0.44411
 H120 H 0.59796 0.62511 0.33219
 Zr121 Zr 0.76033 0.23986 -0.34394
 O122 O 0.75251 0.24719 -0.42752
 O123 O 0.83209 0.17602 -0.36692
 O124 O 0.79893 0.31511 -0.38820
 O125 O 0.62871 0.14971 -0.32702
 O126 O 0.85043 0.36924 -0.32421
 O127 O 0.68442 0.20316 -0.38886
 O128 O 0.88036 0.12758 -0.29835
 O129 O 0.83738 0.24496 -0.29341
 O130 O 0.75527 0.16076 -0.29580
 O131 O 0.74853 0.32370 -0.30195
 O132 O 0.67401 0.24272 -0.30468
 Zr133 Zr 0.73946 0.25594 -0.15847
 Zr134 Zr 0.82495 0.32730 -0.25021
 Zr135 Zr 0.67261 0.16708 -0.25266
 Zr136 Zr 0.82852 0.16837 -0.24128
 O137 O 0.57513 0.16805 -0.24270
 O138 O 0.92574 0.17837 -0.23084
 O139 O 0.74701 0.17111 -0.19920
 O140 O 0.82472 0.24991 -0.19953
 O141 O 0.74119 0.33423 -0.20771
 O142 O 0.66144 0.24792 -0.20792
 C143 C 0.87244 0.13740 -0.34693
 C144 C 0.63875 0.16773 -0.37548
 C145 C 0.83405 0.36024 -0.37333
 O146 O 0.92248 0.32363 -0.25755
 O147 O 0.86442 0.35335 -0.17544
 O148 O 0.81226 0.29768 -0.11267
 C149 C 0.85587 0.33545 -0.12662
 O150 O 0.63413 0.34253 -0.33906
 Zr151 Zr 0.66597 0.32273 -0.26093
 O152 O 0.67174 0.32326 -0.13447
 O153 O 0.81526 0.42405 -0.24167
 O154 O 0.67311 0.42047 -0.26832
 O155 O 0.57051 0.29905 -0.26354
 O156 O 0.62067 0.36932 -0.20275
 C157 C 0.63110 0.36166 -0.15417
 O158 O 0.74642 0.24548 -0.07508
 O159 O 0.67832 0.07025 -0.26404
 O160 O 0.70521 0.17704 -0.11603
 O161 O 0.65569 0.12049 -0.17964
 O162 O 0.80998 0.07198 -0.24125
 O163 O 0.84572 0.13706 -0.16254
 C164 C 0.67195 0.13037 -0.13079
 H165 H 0.75573 0.12220 -0.31694
 H166 H 0.86268 0.24580 -0.17795
 H167 H 0.62243 0.24588 -0.18729
 H168 H 0.74280 0.36162 -0.32324
 H169 H 0.94280 0.13768 -0.22009
 H170 H 0.93752 0.36682 -0.25461
 H171 H 0.85763 0.44161 -0.24398
 H172 H 0.63151 0.43726 -0.27681
 H173 H 0.85004 0.05030 -0.23662
 H174 H 0.63521 0.05452 -0.26518
 H175 H 0.56115 0.12441 -0.24299
 H176 H 0.54655 0.33786 -0.26722
 H177 H 0.87451 0.10150 -0.16328
 H178 H 0.71465 0.27229 -0.05845
 H179 H 0.78151 0.21706 -0.44367
 H180 H 0.59909 0.37193 -0.33739
 Zr181 Zr 0.24756 0.76195 -0.34394
 O182 O 0.26008 0.75852 -0.42721
 O183 O 0.17717 0.82562 -0.37046
 O184 O 0.20844 0.68643 -0.38921
 O185 O 0.36843 0.86127 -0.31929
 O186 O 0.15766 0.62940 -0.32631
 O187 O 0.33269 0.79422 -0.38152
 O188 O 0.12408 0.87199 -0.30380
 O189 O 0.16806 0.75349 -0.29624
 O190 O 0.24612 0.84036 -0.29444
 O191 O 0.25835 0.67782 -0.30179
 O192 O 0.33030 0.76212 -0.29923
 Zr193 Zr 0.25558 0.74387 -0.15590
 Zr194 Zr 0.18010 0.67123 -0.25239
 Zr195 Zr 0.32500 0.83660 -0.24646
 Zr196 Zr 0.17001 0.82972 -0.24365
 O197 O 0.42210 0.83709 -0.23410
 O198 O 0.07257 0.81597 -0.24196
 O199 O 0.24791 0.82964 -0.19617
 O200 O 0.17329 0.74778 -0.20205
 O201 O 0.26056 0.66662 -0.20609
 O202 O 0.33601 0.75510 -0.20214
 C203 C 0.13483 0.86319 -0.35216
 C204 C 0.37047 0.83795 -0.36688
 C205 C 0.17369 0.64005 -0.37511
 O206 O 0.08258 0.67118 -0.26104
 O207 O 0.14324 0.64088 -0.17766
 O208 O 0.17664 0.70660 -0.11349
 C209 C 0.14101 0.66198 -0.12901
 O210 O 0.37555 0.66568 -0.33307
 Zr211 Zr 0.33776 0.68150 -0.25642
 O212 O 0.32179 0.67453 -0.13084
 O213 O 0.19309 0.57457 -0.24641
 O214 O 0.33433 0.58384 -0.26616
 O215 O 0.43259 0.70750 -0.25265
 O216 O 0.37936 0.63357 -0.19763
 C217 C 0.36486 0.63814 -0.14972
 O218 O 0.24470 0.75029 -0.07258
 O219 O 0.31658 0.93363 -0.25492
 O220 O 0.29077 0.82035 -0.11088
 O221 O 0.33802 0.88174 -0.17256
 O222 O 0.18610 0.92648 -0.23960
 O223 O 0.14242 0.85814 -0.16646
 C224 C 0.32265 0.86868 -0.12411
 H225 H 0.24627 0.87969 -0.31471
 H226 H 0.13262 0.74945 -0.18421
 H227 H 0.37358 0.75751 -0.17958
 H228 H 0.26588 0.64072 -0.32360
 H229 H 0.05302 0.85614 -0.23337
 H230 H 0.06889 0.62779 -0.25604
 H231 H 0.15118 0.55580 -0.24742
 H232 H 0.37670 0.56862 -0.27389
 H233 H 0.14534 0.94745 -0.23800
 H234 H 0.35892 0.95086 -0.25138
 H235 H 0.43574 0.88073 -0.23666
 H236 H 0.45785 0.66945 -0.25548
 H237 H 0.11182 0.89202 -0.16935
 H238 H 0.27506 0.72203 -0.05566
 H239 H 0.24118 0.79616 -0.44287
 H240 H 0.41207 0.63827 -0.33003
 Zr241 Zr 1.25451 1.26064 0.84319
 O242 O 1.24200 1.25340 0.92633
 O243 O 1.32392 1.32558 0.86855
 O244 O 1.29399 1.18753 0.88941
 O245 O 1.11819 1.34273 0.81989
 O246 O 1.35170 1.13710 0.82731
 O247 O 1.17537 1.29620 0.88479
 O248 O 1.37240 1.37582 0.80098
 O249 O 1.33370 1.25878 0.79492
 O250 O 1.24884 1.33922 0.79444
 O251 O 1.24835 1.17610 0.80131
 O252 O 1.17042 1.25409 0.80101
 Zr253 Zr 1.24190 1.24308 0.65689
 Zr254 Zr 1.32670 1.17596 0.75182
 Zr255 Zr 1.16846 1.32922 0.74847
 Zr256 Zr 1.32432 1.33449 0.74206
 O257 O 1.07202 1.32524 0.73273
 O258 O 1.42219 1.32876 0.73417
 O259 O 1.24493 1.32813 0.69747
 O260 O 1.32534 1.25271 0.70040
 O261 O 1.24508 1.16529 0.70683
 O262 O 1.16193 1.24775 0.70404
 C263 C 1.36404 1.36477 0.84927
 C264 C 1.12774 1.32764 0.86907
 C265 C 1.33267 1.14497 0.87589
 O266 O 1.42373 1.18516 0.76074
 O267 O 1.36843 1.14970 0.67814
 O268 O 1.31699 1.20307 0.61347
 C269 C 1.36062 1.16638 0.62889
 O270 O 1.13370 1.15327 0.83512
 Zr271 Zr 1.16767 1.17363 0.75782
 O272 O 1.17738 1.17344 0.63122
 O273 O 1.32231 1.07870 0.74516
 O274 O 1.17736 1.07629 0.76644
 O275 O 1.07133 1.19321 0.75678
 O276 O 1.12797 1.12421 0.69885
 C277 C 1.13829 1.13322 0.65053
 O278 O 1.25212 1.25373 0.57379
 O279 O 1.16926 1.42572 0.76256
 O280 O 1.20620 1.32042 0.61273
 O281 O 1.15590 1.37703 0.67548
 O282 O 1.30169 1.43006 0.74160
 O283 O 1.34438 1.36702 0.66423
 C284 C 1.17295 1.36730 0.62689
 H285 H 1.24735 1.37769 0.81566
 H286 H 1.36377 1.25779 0.67962
 H287 H 1.12367 1.24801 0.68228
 H288 H 1.24364 1.13795 0.82252
 H289 H 1.43837 1.37050 0.72531
 H290 H 1.44091 1.14273 0.75923
 H291 H 1.36525 1.06370 0.75034
 H292 H 1.13611 1.05848 0.77479
 H293 H 1.34090 1.45395 0.73977
 H294 H 1.12730 1.44112 0.75384
 H295 H 1.05634 1.36819 0.73407
 H296 H 1.04885 1.15327 0.75860
 H297 H 1.37058 1.40456 0.66639
 H298 H 1.22192 1.22579 0.55619
 H299 H 1.26915 1.28455 0.94358
 H300 H 1.09809 1.12450 0.83251
 Zr301 Zr 0.74018 0.74192 0.84315
 O302 O 0.74863 0.74962 0.92664
 O303 O 0.66931 0.67774 0.86703
 O304 O 0.70040 0.81680 0.88689
 O305 O 0.87469 0.65572 0.82660
 O306 O 0.64560 0.86692 0.82243
 O307 O 0.81695 0.70742 0.88793
 O308 O 0.62279 0.62680 0.79903
 O309 O 0.66296 0.74266 0.79268
 O310 O 0.74818 0.66232 0.79599
 O311 O 0.74827 0.82583 0.80039
 O312 O 0.82614 0.74722 0.80359
 Zr313 Zr 0.75943 0.75731 0.65775
 Zr314 Zr 0.67154 0.82506 0.74896
 Zr315 Zr 0.83028 0.67142 0.75214
 Zr316 Zr 0.67484 0.66597 0.74138
 O317 O 0.92784 0.67627 0.74339
 O318 O 0.57751 0.66914 0.72862
 O319 O 0.75572 0.67200 0.69879
 O320 O 0.67488 0.74739 0.69907
 O321 O 0.75487 0.83570 0.70625
 O322 O 0.83780 0.75247 0.70722
 C323 C 0.62957 0.63848 0.84734
 C324 C 0.86364 0.67346 0.87490
 C325 C 0.66323 0.86002 0.87148
 O326 O 0.57452 0.81627 0.75841
 O327 O 0.62875 0.84767 0.67507
 O328 O 0.68471 0.79644 0.61234
 C329 C 0.63851 0.83079 0.62637
 O330 O 0.86017 0.84656 0.83839
 Zr331 Zr 0.83051 0.82725 0.75958
 O332 O 0.82637 0.82569 0.63371
 O333 O 0.67619 0.92190 0.73795
 O334 O 0.81920 0.92470 0.76407
 O335 O 0.92711 0.81057 0.76422
 O336 O 0.87714 0.87250 0.70171
 C337 C 0.86715 0.86404 0.65330
 O338 O 0.75254 0.74795 0.57429
 O339 O 0.82749 0.57439 0.76328
 O340 O 0.79439 0.68000 0.61487
 O341 O 0.85008 0.62828 0.67789
 O342 O 0.69719 0.57045 0.74473
 O343 O 0.65994 0.63244 0.66312
 C344 C 0.83160 0.63649 0.62919
 H345 H 0.74896 0.62425 0.81794
 H346 H 0.63724 0.74088 0.67753
 H347 H 0.87715 0.75154 0.68703
 H348 H 0.75299 0.86454 0.82066
 H349 H 0.56295 0.62704 0.71910
 H350 H 0.55717 0.85851 0.75505
 H351 H 0.63324 0.93742 0.74172
 H352 H 0.86017 0.94319 0.77224
 H353 H 0.65797 0.54678 0.74175
 H354 H 0.87096 0.55988 0.76222
 H355 H 0.94314 0.63315 0.74194
 H356 H 0.94745 0.85046 0.77269
 H357 H 0.63625 0.59323 0.66464
 H358 H 0.78313 0.77632 0.55769
 H359 H 0.72002 0.71923 0.94322
 H360 H 0.88645 0.88410 0.83850
 Zr361 Zr 1.26012 0.74087 0.15578
 O362 O 1.25378 0.74852 0.07208
 O363 O 1.33087 0.67626 0.13258
 O364 O 1.29810 0.81615 0.11174
 O365 O 1.13043 0.64893 0.17008
 O366 O 1.35026 0.86948 0.17576
 O367 O 1.18456 0.70677 0.11018
 O368 O 1.37811 0.62613 0.20073
 O369 O 1.33723 0.74503 0.20615
 O370 O 1.25443 0.66127 0.20319
 O371 O 1.24843 0.82436 0.19814
 O372 O 1.17334 0.74350 0.19443
 Zr373 Zr 1.23894 0.75513 0.34057
 Zr374 Zr 1.32491 0.82712 0.24969
 Zr375 Zr 1.17152 0.66733 0.24582
 Zr376 Zr 1.32767 0.66799 0.25780
 O377 O 1.07398 0.66955 0.25464
 O378 O 1.42508 0.67788 0.26732
 O379 O 1.24594 0.67073 0.29932
 O380 O 1.32438 0.74923 0.29983
 O381 O 1.24107 0.83380 0.29189
 O382 O 1.16065 0.74788 0.29130
 C383 C 1.37028 0.63660 0.15231
 C384 C 1.14043 0.66921 0.12218
 C385 C 1.33339 0.86095 0.12667
 O386 O 1.42244 0.82359 0.24249
 O387 O 1.36353 0.85227 0.32497
 O388 O 1.31175 0.79500 0.38691
 C389 C 1.35489 0.83334 0.37350
 O390 O 1.13395 0.84175 0.16041
 Zr391 Zr 1.16563 0.82310 0.23877
 O392 O 1.17327 0.82396 0.36509
 O393 O 1.31567 0.92382 0.25890
 O394 O 1.17112 0.92079 0.22984
 O395 O 1.06986 0.80044 0.23810
 O396 O 1.12322 0.87180 0.29723
 C397 C 1.13404 0.86390 0.34572
 O398 O 1.24449 0.74366 0.42397
 O399 O 1.17632 0.57041 0.23485
 O400 O 1.20513 0.67601 0.38257
 O401 O 1.15444 0.62062 0.31887
 O402 O 1.30845 0.57168 0.25828
 O403 O 1.34518 0.63641 0.33641
 C404 C 1.17139 0.62984 0.36770
 H405 H 1.25457 0.62278 0.18194
 H406 H 1.36246 0.74474 0.32120
 H407 H 1.12184 0.74613 0.31223
 H408 H 1.24272 0.86250 0.17715
 H409 H 1.44239 0.63714 0.27765
 H410 H 1.43742 0.86673 0.24613
 H411 H 1.35808 0.94126 0.25646
 H412 H 1.12936 0.93660 0.22054
 H413 H 1.34822 0.54955 0.26326
 H414 H 1.13308 0.55504 0.23410
 H415 H 1.05964 0.62603 0.25475
 H416 H 1.04626 0.83957 0.23511
 H417 H 1.37511 0.60180 0.33553
 H418 H 1.21293 0.77070 0.44061
 H419 H 1.28222 0.71782 0.05600
 H420 H 1.09662 0.86823 0.16186
 Zr421 Zr 0.74597 1.25917 0.15831
 O422 O 0.75906 1.25030 0.07541
 O423 O 0.67819 1.32519 0.13173
 O424 O 0.70589 1.18474 0.11295
 O425 O 0.87808 1.34728 0.18154
 O426 O 0.65238 1.13062 0.17590
 O427 O 0.82513 1.29547 0.11695
 O428 O 0.62909 1.37463 0.19912
 O429 O 0.66654 1.25536 0.20625
 O430 O 0.75023 1.33762 0.20733
 O431 O 0.75379 1.17498 0.20066
 O432 O 0.83019 1.25522 0.20096
 Zr433 Zr 0.75800 1.24104 0.34496
 Zr434 Zr 0.67527 1.17263 0.25004
 Zr435 Zr 0.83028 1.32987 0.25389
 Zr436 Zr 0.67436 1.33116 0.25894
 O437 O 0.92691 1.32710 0.26847
 O438 O 0.57651 1.32149 0.26358
 O439 O 0.75344 1.32649 0.30450
 O440 O 0.67476 1.24943 0.30097
 O441 O 0.75696 1.16378 0.29481
 O442 O 0.83830 1.24815 0.29835
 C443 C 0.63863 1.36487 0.15078
 C444 C 0.87036 1.33040 0.13254
 C445 C 0.66984 1.13964 0.12710
 O446 O 0.57829 1.17867 0.23923
 O447 O 0.63277 1.14663 0.32364
 O448 O 0.68234 1.20129 0.38839
 C449 C 0.63924 1.16397 0.37282
 O450 O 0.86929 1.15921 0.16633
 Zr451 Zr 0.83452 1.17472 0.24409
 O452 O 0.82184 1.17029 0.37007
 O453 O 0.68258 1.07564 0.25903
 O454 O 0.83077 1.07759 0.23175
 O455 O 0.93035 1.19645 0.24862
 O456 O 0.87154 1.12222 0.30231
 C457 C 0.86053 1.12996 0.35060
 O458 O 0.74842 1.25042 0.42819
 O459 O 0.82737 1.42693 0.24210
 O460 O 0.79361 1.31775 0.38963
 O461 O 0.84258 1.37688 0.32734
 O462 O 0.69531 1.42704 0.26171
 O463 O 0.65069 1.36292 0.33613
 C464 C 0.82605 1.36557 0.37596
 H465 H 0.75173 1.37654 0.18655
 H466 H 0.63588 1.25409 0.32115
 H467 H 0.87612 1.24878 0.32067
 H468 H 0.75979 1.13724 0.17938
 H469 H 0.55856 1.36277 0.27091
 H470 H 0.56206 1.13593 0.24250
 H471 H 0.63992 1.05892 0.25604
 H472 H 0.87292 1.06298 0.22236
 H473 H 0.65560 1.44988 0.26349
 H474 H 0.87079 1.44186 0.24198
 H475 H 0.94178 1.37041 0.26742
 H476 H 0.95357 1.15702 0.24691
 H477 H 0.62052 1.39720 0.33329
 H478 H 0.77835 1.22192 0.44544
 H479 H 0.73168 1.28072 0.05748
 H480 H 0.90897 1.13643 0.16852
 O481 O 0.57767 1.11850 0.09388
 O482 O 0.65377 1.06119 0.05242
 C483 C 0.63405 1.10380 0.08698
 O484 O 0.42391 0.88026 0.08969
 O485 O 0.34659 0.94160 0.05458
 C486 C 0.36766 0.89687 0.08639
 O487 O 0.57855 0.88895 0.09579
 O488 O 0.65535 0.94218 0.05150
 C489 C 0.63529 0.90186 0.08748
 O490 O 0.42328 1.11676 0.09526
 O491 O 0.34529 1.06252 0.05309
 C492 C 0.36632 1.10339 0.08806
 Zr493 Zr 0.50084 1.07845 0.06343
 O494 O 0.49755 1.07546 0.14751
 O495 O 0.50481 1.17642 0.05789
 Zr496 Zr 0.49989 0.92741 0.06593
 O497 O 0.49390 0.94055 0.14921
 O498 O 0.50159 0.83010 0.07656
 O499 O 0.55827 1.00258 0.07543
 O500 O 0.44428 1.00318 0.07568
 O501 O 0.42373 1.12604 -0.08622
 O502 O 0.34621 1.06486 -0.05123
 C503 C 0.36720 1.10982 -0.08293
 O504 O 0.57168 0.88468 -0.09620
 O505 O 0.65057 0.93854 -0.05459
 C506 C 0.62866 0.89731 -0.08935
 O507 O 0.41652 0.88655 -0.09171
 O508 O 0.34151 0.94388 -0.04916
 C509 C 0.36011 0.90145 -0.08369
 O510 O 0.57874 1.11017 -0.09870
 O511 O 0.65533 1.05633 -0.05464
 C512 C 0.63534 1.09599 -0.09107
 Zr513 Zr 0.49949 1.07580 -0.06588
 O514 O 0.48855 1.06355 -0.14893
 O515 O 0.50527 1.17289 -0.07688
 Zr516 Zr 0.49646 0.92479 -0.06335
 O517 O 0.48945 0.92843 -0.14724
 O518 O 0.49910 0.82672 -0.05895
 Zr519 Zr 0.59797 1.00041 -0.00087
 Zr520 Zr 0.40062 1.00268 0.00115
 O521 O 0.44148 1.00122 -0.07443
 O522 O 0.55547 0.99928 -0.07635
 O523 O 0.44297 1.09059 -0.00062
 O524 O 0.55421 0.91356 0.00066
 O525 O 0.55667 1.08827 -0.00192
 O526 O 0.44072 0.91389 0.00208
 H527 H 0.41822 1.00293 0.10801
 H528 H 0.58002 0.87570 0.00073
 H529 H 0.41395 1.00171 -0.10591
 H530 H 0.58371 1.12537 -0.00289
 H531 H 0.51447 0.81089 0.04285
 H532 H 0.46509 0.81238 -0.03555
 H533 H 0.52722 0.94816 -0.16186
 H534 H 0.52913 1.05271 -0.16460
 H535 H 0.51780 1.19175 -0.04289
 H536 H 0.46891 1.19112 0.03683
 H537 H 0.53536 1.05482 0.16100
 H538 H 0.53576 0.94974 0.16329
 O539 O 1.08029 0.61893 0.59262
 O540 O 1.15596 0.56153 0.55072
 C541 C 1.13679 0.60444 0.58513
 O542 O 0.92518 0.38054 0.59034
 O543 O 0.84759 0.44106 0.55455
 C544 C 0.86869 0.39646 0.58652
 O545 O 1.08018 0.38956 0.59580
 O546 O 1.15672 0.44278 0.55113
 C547 C 1.13683 0.40260 0.58729
 O548 O 0.92457 0.61638 0.59575
 O549 O 0.84651 0.56217 0.55351
 C550 C 0.86755 0.60295 0.58862
 Zr551 Zr 1.00227 0.57864 0.56332
 O552 O 0.99985 0.57559 0.64741
 O553 O 1.00563 0.67662 0.55801
 Zr554 Zr 1.00131 0.42760 0.56605
 O555 O 0.99572 0.44094 0.64933
 O556 O 1.00279 0.33028 0.57677
 O557 O 1.05978 0.50290 0.57518
 O558 O 0.94570 0.50325 0.57570
 O559 O 0.92434 0.62631 0.41428
 O560 O 0.84700 0.56476 0.44897
 C561 C 0.86783 0.61008 0.41748
 O562 O 1.07293 0.38436 0.40405
 O563 O 1.15176 0.43882 0.44508
 C564 C 1.12986 0.39731 0.41061
 O565 O 0.91891 0.38526 0.40850
 O566 O 0.84340 0.44235 0.45065
 C567 C 0.86250 0.39972 0.41632
 O568 O 1.07869 0.60958 0.40025
 O569 O 1.15573 0.55630 0.44421
 C570 C 1.13530 0.59549 0.40760
 Zr571 Zr 1.00000 0.57556 0.43393
 O572 O 0.98804 0.56337 0.35095
 O573 O 1.00617 0.67260 0.42278
 Zr574 Zr 0.99778 0.42463 0.43679
 O575 O 0.99057 0.42876 0.35292
 O576 O 1.00077 0.32656 0.44127
 Zr577 Zr 1.09910 0.50062 0.49869
 Zr578 Zr 0.90167 0.50235 0.50127
 O579 O 0.94223 0.50078 0.42564
 O580 O 1.05631 0.49923 0.42339
 O581 O 0.94391 0.59036 0.49942
 O582 O 1.05562 0.41369 0.50071
 O583 O 1.05754 0.58839 0.49759
 O584 O 0.94212 0.41375 0.50233
 H585 H 0.91973 0.50279 0.60807
 H586 H 1.08156 0.37591 0.50078
 H587 H 0.91448 0.50113 0.39430
 H588 H 1.08445 0.62556 0.49622
 H589 H 1.01736 0.31103 0.54359
 H590 H 0.96764 0.31213 0.46554
 H591 H 1.02875 0.44758 0.33821
 H592 H 1.02831 0.55209 0.33492
 H593 H 1.01727 0.69160 0.45707
 H594 H 0.96945 0.69112 0.53720
 H595 H 1.03838 0.55602 0.66058
 H596 H 1.03754 0.45078 0.66317
 O597 O 0.87593 0.42697 -0.09072
 O598 O 0.93532 0.34958 -0.05286
 C599 C 0.89142 0.37048 -0.08592
 O600 O 1.09910 0.57450 -0.11077
 O601 O 1.07018 0.65134 -0.05333
 C602 C 1.10171 0.63041 -0.09562
 O603 O 1.10266 0.42084 -0.10319
 O604 O 1.05398 0.34489 -0.05412
 C605 C 1.09151 0.36435 -0.09252
 O606 O 0.87811 0.58203 -0.08729
 O607 O 0.94224 0.65745 -0.05236
 C608 C 0.89639 0.63804 -0.08354
 Zr609 Zr 0.91803 0.50263 -0.05968
 O610 O 0.91296 0.50759 -0.14362
 O611 O 0.82066 0.49935 -0.04768
 Zr612 Zr 1.06886 0.49944 -0.07044
 O613 O 1.04837 0.49522 -0.15263
 O614 O 1.16693 0.49705 -0.07695
 O615 O 0.99165 0.44358 -0.07569
 O616 O 0.99388 0.55706 -0.07556
 O617 O 0.89241 0.57815 0.10118
 O618 O 0.94150 0.65499 0.05283
 C619 C 0.90235 0.63476 0.09045
 O620 O 1.12325 0.42463 0.08791
 O621 O 1.06038 0.34843 0.05280
 C622 C 1.10555 0.36870 0.08470
 O623 O 1.12911 0.58019 0.07823
 O624 O 1.06173 0.65594 0.05002
 C625 C 1.10876 0.63555 0.07908
 O626 O 0.89744 0.42373 0.10382
 O627 O 0.94285 0.34632 0.05471
 C628 C 0.90682 0.36680 0.09358
 Zr629 Zr 0.93024 0.50223 0.06839
 O630 O 0.94179 0.50796 0.15189
 O631 O 0.83188 0.50853 0.07117
 Zr632 Zr 1.08137 0.50154 0.05884
 O633 O 1.07815 0.50964 0.14268
 O634 O 1.17942 0.49768 0.05968
 Zr635 Zr 0.99871 0.40285 -0.00015
 Zr636 Zr 1.00207 0.60013 -0.00145
 O637 O 1.00717 0.55790 0.07362
 O638 O 1.00621 0.44453 0.07519
 O639 O 0.91296 0.56052 0.00475
 O640 O 1.08648 0.44446 -0.00596
 O641 O 0.91174 0.44571 0.00523
 O642 O 1.08951 0.55740 -0.00740
 H643 H 0.99165 0.58238 -0.10831
 H644 H 1.12396 0.41812 -0.00790
 H645 H 1.00902 0.58413 0.10575
 H646 H 0.87457 0.41884 0.00694
 H647 H 1.18414 0.53427 -0.05939
 H648 H 1.19335 0.49346 0.02262
 H649 H 1.06853 0.46871 0.15834
 H650 H 0.96459 0.47113 0.16467
 H651 H 0.81253 0.46975 0.05850
 H652 H 0.80844 0.53464 -0.02506
 H653 H 0.93720 0.47310 -0.15886
 H654 H 1.08788 0.49415 -0.17269
 O655 O 0.37327 0.92388 0.41100
 O656 O 0.43364 0.84627 0.44719
 C657 C 0.38955 0.86758 0.41474
 O658 O 0.61309 1.07192 0.40454
 O659 O 0.55995 1.15013 0.44682
 C660 C 0.60140 1.12884 0.41196
 O661 O 0.59967 0.91771 0.39809
 O662 O 0.55054 0.84126 0.44621
 C663 C 0.58823 0.86108 0.40801
 O664 O 0.37740 1.07860 0.41142
 O665 O 0.43845 1.15395 0.44994
 C666 C 0.39450 1.13477 0.41667
 Zr667 Zr 0.41529 0.99956 0.44181
 O668 O 0.40914 1.00508 0.35797
 O669 O 0.31803 0.99727 0.45429
 Zr670 Zr 0.56648 0.99675 0.43122
 O671 O 0.54814 1.00457 0.34864
 O672 O 0.66332 0.99348 0.41696
 O673 O 0.48906 0.94098 0.42521
 O674 O 0.49152 1.05412 0.42614
 O675 O 0.38202 1.07396 0.59546
 O676 O 0.43931 1.15112 0.55509
 C677 C 0.39664 1.13057 0.58929
 O678 O 0.61881 0.92156 0.59099
 O679 O 0.55791 0.84486 0.55353
 C680 C 0.60254 0.86535 0.58607
 O681 O 0.62023 1.07556 0.58898
 O682 O 0.56085 1.15242 0.55084
 C683 C 0.60489 1.13214 0.58348
 O684 O 0.43051 0.91807 0.61672
 O685 O 0.43379 0.84468 0.55350
 C686 C 0.41290 0.86530 0.59969
 Zr687 Zr 0.42807 0.99721 0.57079
 O688 O 0.43470 1.01081 0.65386
 O689 O 0.33229 0.97719 0.58036
 Zr690 Zr 0.57910 0.99778 0.55968
 O691 O 0.58297 1.00101 0.64363
 O692 O 0.67652 0.99343 0.54833
 Zr693 Zr 0.49569 0.89914 0.50062
 Zr694 Zr 0.49860 1.09639 0.50081
 O695 O 0.50431 1.05366 0.57539
 O696 O 0.50470 0.94062 0.57549
 O697 O 0.40986 1.05602 0.50708
 O698 O 0.58370 0.94061 0.49510
 O699 O 0.40832 0.94214 0.50685
 O700 O 0.58635 1.05448 0.49467
 H701 H 0.49105 1.08049 0.39396
 H702 H 0.62067 0.91356 0.49345
 H703 H 0.50584 1.07949 0.60775
 H704 H 0.37067 0.91584 0.50892
 H705 H 0.68406 0.97627 0.44862
 H706 H 0.68973 1.02950 0.52677
 H707 H 0.54922 0.97475 0.65790
 H708 H 0.39285 1.00383 0.66909
 H709 H 0.30877 1.00379 0.55562
 H710 H 0.30530 1.03643 0.47136
 H711 H 0.43253 0.97030 0.34234
 H712 H 0.53618 0.96355 0.33453
 O713 O 0.88228 0.89193 0.43447
 O714 O 0.93946 0.94254 0.37055
 C715 C 0.89607 0.90385 0.38652
 O716 O 0.89568 1.11480 0.56894
 O717 O 0.94808 1.05752 0.63166
 C718 C 0.90885 1.10102 0.61663
 O719 O 0.88188 1.10362 0.43474
 O720 O 0.93964 1.05466 0.37067
 C721 C 0.89599 1.09274 0.38675
 O722 O 0.89156 0.88478 0.56915
 O723 O 0.94607 0.93999 0.63180
 C724 C 0.90472 0.89865 0.61676
 Zr725 Zr 0.92519 0.92165 0.50124
 O726 O 0.82690 0.91575 0.50034
 O727 O 0.93695 0.82439 0.49980
 Zr728 Zr 0.92587 1.07460 0.50148
 O729 O 0.82798 1.07654 0.50871
 O730 O 0.93592 1.17214 0.49771
 O731 O 0.91174 0.99839 0.45376
 O732 O 0.91425 0.99818 0.54862
 O733 O 1.11386 0.88302 0.56542
 O734 O 1.06082 0.93733 0.62933
 C735 C 1.10149 0.89551 0.61362
 O736 O 1.11248 1.11068 0.43138
 O737 O 1.05714 1.05610 0.36878
 C738 C 1.09852 1.09750 0.38374
 O739 O 1.11467 1.11077 0.56611
 O740 O 1.06177 1.05530 0.62993
 C741 C 1.10229 1.09710 0.61406
 O742 O 1.11359 0.88762 0.43048
 O743 O 1.05719 0.94171 0.36820
 C744 C 1.09936 0.90100 0.38281
 Zr745 Zr 1.07745 0.92128 0.49881
 O746 O 1.17575 0.92329 0.50304
 O747 O 1.07304 0.82334 0.49379
 Zr748 Zr 1.07822 1.07389 0.49913
 O749 O 1.17644 1.06926 0.50244
 O750 O 1.07620 1.17197 0.49571
 Zr751 Zr 0.99986 0.99835 0.41841
 Zr752 Zr 1.00314 0.99752 0.58202
 O753 O 1.09066 0.99727 0.54592
 O754 O 1.08991 0.99790 0.45032
 O755 O 1.00218 0.90852 0.54865
 O756 O 1.00069 1.08643 0.45293
 O757 O 0.99999 0.90980 0.45249
 O758 O 1.00319 1.08659 0.54875
 H759 H 0.87761 0.99937 0.57220
 H760 H 0.99935 1.12380 0.43009
 H761 H 1.12867 0.99686 0.56806
 H762 H 0.99892 0.87280 0.42935
 H763 H 0.89374 1.19026 0.49591
 H764 H 1.04784 1.18706 0.52365
 H765 H 1.19171 1.05052 0.46919
 H766 H 1.19180 0.94727 0.47255
 H767 H 1.04802 0.80758 0.52384
 H768 H 0.89501 0.80560 0.49795
 H769 H 0.80973 0.94540 0.52620
 H770 H 0.81117 1.04117 0.48836
 O771 O 0.61657 0.38922 0.06606
 O772 O 0.56098 0.44152 0.12973
 C773 C 0.60300 0.40141 0.11404
 O774 O 0.60168 0.61999 -0.06865
 O775 O 0.55517 0.55847 -0.13158
 C776 C 0.59221 0.60353 -0.11635
 O777 O 0.61981 0.60610 0.06562
 O778 O 0.56365 0.55428 0.12946
 C779 C 0.60677 0.59333 0.11360
 O780 O 0.60820 0.38389 -0.06963
 O781 O 0.55467 0.44047 -0.13218
 C782 C 0.59486 0.39781 -0.11735
 Zr783 Zr 0.57610 0.42153 -0.00132
 O784 O 0.67437 0.41589 0.00019
 O785 O 0.56335 0.32432 -0.00011
 Zr786 Zr 0.57942 0.57352 -0.00153
 O787 O 0.67659 0.56229 -0.01055
 O788 O 0.59207 0.67054 0.00331
 O789 O 0.59120 0.49736 0.04675
 O790 O 0.58885 0.49787 -0.04930
 O791 O 0.38878 0.38597 -0.06633
 O792 O 0.44123 0.44181 -0.13011
 C793 C 0.40113 0.39968 -0.11427
 O794 O 0.39296 0.61426 0.06821
 O795 O 0.44642 0.55792 0.13089
 C796 C 0.40603 0.60019 0.11584
 O797 O 0.38810 0.61386 -0.06544
 O798 O 0.44138 0.55957 -0.12933
 C799 C 0.40073 0.60116 -0.11337
 O800 O 0.38554 0.39173 0.06874
 O801 O 0.44329 0.44389 0.13124
 C802 C 0.39987 0.40462 0.11637
 Zr803 Zr 0.42368 0.42401 0.00083
 O804 O 0.32550 0.42658 -0.00444
 O805 O 0.42585 0.32603 0.00663
 Zr806 Zr 0.42595 0.57652 0.00076
 O807 O 0.32755 0.57286 -0.00193
 O808 O 0.43017 0.67457 0.00354
 Zr809 Zr 0.50262 0.49924 0.08145
 Zr810 Zr 0.49946 0.49960 -0.08207
 O811 O 0.41193 0.50045 -0.04613
 O812 O 0.41266 0.50053 0.04939
 O813 O 0.49877 0.41035 -0.04870
 O814 O 0.50407 0.58723 0.04644
 O815 O 0.50066 0.41090 0.04725
 O816 O 0.50158 0.58824 -0.04820
 H817 H 0.62461 0.49857 -0.07390
 H818 H 0.50594 0.62469 0.06895
 H819 H 0.37391 0.50050 -0.06826
 H820 H 0.50040 0.37373 0.07036
 H821 H 0.55083 0.68955 0.00775
 H822 H 0.45489 0.68943 -0.02703
 H823 H 0.31187 0.55560 0.03188
 H824 H 0.30953 0.45272 0.02458
 H825 H 0.45178 0.30975 -0.02253
 H826 H 0.60506 0.30512 0.00137
 H827 H 0.69170 0.44318 -0.02761
 H828 H 0.69253 0.53926 0.02059
   
