data_POSCAR
  _audit_creation_date              2014-09-24
  _audit_creation_method            'ToBaCCo'
  _symmetry_space_group_name_H-M    'P1'
  _symmetry_Int_Tables_number       1
  _symmetry_cell_setting            triclinic
  loop_
  _symmetry_equiv_pos_as_xyz
 x,y,z
_cell_length_a 18.9451
_cell_length_b 18.9355
_cell_length_c 18.9632
_cell_angle_alpha 65.696700
_cell_angle_beta 115.617900
_cell_angle_gamma 65.299400
loop_
  _atom_site_label
  _atom_site_type_symbol
  _atom_site_fract_x
  _atom_site_fract_y
  _atom_site_fract_z
O1 O 0.67277 0.41211 0.09584
 O2 O 0.46395 0.45275 0.09386
 O3 O 0.59136 0.32725 0.09682
 O4 O 0.54295 0.54004 0.09054
 O5 O 0.40757 0.67185 -0.09668
 O6 O 0.45638 0.45912 -0.09040
 O7 O 0.32795 0.58512 -0.09324
 O8 O 0.53669 0.54496 -0.09134
 Cu9 Cu 0.58134 0.41994 0.11299
 Cu10 Cu 0.41845 0.57841 -0.11167
 C11 C 0.63880 0.47576 0.00249
 C12 C 0.36189 0.52155 0.00019
 C13 C 0.52803 0.35846 0.00406
 C14 C 0.47124 0.64069 -0.00406
 O15 O 0.09097 0.54101 0.54552
 O16 O 0.09536 0.33049 0.58773
 O17 O 0.09303 0.45656 0.46335
 O18 O 0.09476 0.41298 0.67175
 O19 O -0.09323 0.54694 0.53597
 O20 O -0.09495 0.59019 0.32752
 O21 O -0.09260 0.46339 0.45306
 O22 O -0.09694 0.67387 0.41058
 Cu23 Cu 0.11234 0.42205 0.58067
 Cu24 Cu -0.11322 0.58184 0.41814
 C25 C -0.00367 0.64195 0.47483
 C26 C 0.00198 0.36250 0.52376
 C27 C -0.00108 0.52645 0.36146
 C28 C 0.00099 0.47671 0.63794
 O29 O 0.45644 0.08881 0.54215
 O30 O 0.41121 0.09654 0.32838
 O31 O 0.32537 0.09735 0.40836
 O32 O 0.54209 0.08778 0.46250
 O33 O 0.67397 -0.09818 0.59352
 O34 O 0.45725 -0.08861 0.53941
 O35 O 0.54269 -0.08937 0.45967
 O36 O 0.58791 -0.09703 0.67350
 Cu37 Cu 0.42062 0.11117 0.42226
 Cu38 Cu 0.57866 -0.11187 0.57971
 C39 C 0.52556 -0.00506 0.64258
 C40 C 0.47349 0.00458 0.35930
 C41 C 0.35607 0.00566 0.46912
 C42 C 0.64319 -0.00647 0.53256
 C43 C 0.50488 -0.00811 -0.07077
 C44 C 0.49112 -0.06694 -0.01173
 C45 C 0.49025 -0.05998 0.05882
 C46 C 0.49505 0.00759 0.06892
 C47 C 0.50878 0.06646 0.00987
 C48 C 0.50989 0.05933 -0.06053
 H49 H 0.51142 0.11066 -0.11154
 H50 H 0.48906 -0.11154 0.11009
 C51 C -0.00444 0.50416 1.07168
 C52 C -0.06988 0.49700 1.00668
 C53 C -0.05896 0.48970 0.94081
 C54 C 0.00734 0.49628 0.93005
 C55 C 0.07311 0.50304 0.99531
 C56 C 0.06227 0.51029 1.06127
 H57 H 0.10508 0.52383 1.10377
 H58 H -0.10128 0.47566 0.89868
 C59 C 0.06648 0.00943 0.49163
 C60 C 0.00822 0.06863 0.50610
 C61 C -0.06019 0.05995 0.51019
 C62 C -0.06884 -0.00920 0.50754
 C63 C -0.01073 -0.06824 0.49288
 C64 C 0.05781 -0.05969 0.48894
 H65 H 0.10866 -0.11119 0.48700
 H66 H -0.11098 0.11139 0.51220
 C67 C -0.10850 0.38975 1.10150
 C68 C -0.20047 0.46737 1.08746
 C69 C -0.28339 0.47834 1.00276
 C70 C -0.19293 0.40114 1.01655
 C71 C -0.32615 0.58259 0.90436
 C72 C -0.24232 0.57170 0.98885
 C73 C -0.15014 0.49387 1.00406
 C74 C -0.23467 0.50548 0.91822
 H75 H -0.01793 0.31014 1.18044
 H76 H -0.18736 0.45162 1.15713
 H77 H -0.17294 0.33088 1.02793
 H78 H -0.41650 0.66238 0.82241
 H79 H -0.26991 0.64577 0.97201
 H80 H -0.25576 0.52430 0.84446
 C81 C 0.24531 0.42738 1.01290
 C82 C 0.20414 0.53146 0.91472
 C83 C 0.28817 0.51912 1.00012
 C84 C 0.33039 0.41504 1.09815
 C85 C 0.19862 0.59650 0.98702
 C86 C 0.11299 0.60924 0.90137
 C87 C 0.15389 0.50539 0.99830
 C88 C 0.23959 0.49238 1.08484
 H89 H 0.27182 0.35384 1.02902
 H90 H 0.19041 0.54759 0.84467
 H91 H 0.42057 0.33462 1.17997
 H92 H 0.17972 0.66613 0.97640
 H93 H 0.02265 0.68943 0.82262
 H94 H 0.26089 0.47319 1.15881
 C95 C 0.06131 -0.26701 0.58742
 C96 C -0.04146 -0.24769 0.52267
 C97 C -0.00550 -0.28268 0.47510
 C98 C 0.09732 -0.30320 0.53987
 C99 C -0.07993 -0.16033 0.37128
 C100 C -0.11573 -0.12406 0.41881
 C101 C -0.01361 -0.14368 0.48387
 C102 C 0.02251 -0.17941 0.43576
 H103 H 0.12020 -0.31053 0.67632
 H104 H -0.06879 -0.27602 0.55757
 H105 H 0.18527 -0.37705 0.58937
 H106 H -0.13800 -0.11670 0.28215
 H107 H -0.20355 -0.05080 0.36733
 H108 H 0.04716 -0.15177 0.39647
 C109 C 0.11361 0.12361 0.58113
 C110 C 0.04065 0.24668 0.47746
 C111 C 0.00363 0.28298 0.52378
 C112 C 0.07668 0.16112 0.62736
 C113 C -0.09964 0.30436 0.45792
 C114 C -0.06262 0.26699 0.41157
 C115 C 0.01101 0.14418 0.51496
 C116 C -0.02623 0.18116 0.56180
 H117 H 0.20156 0.04949 0.63377
 H118 H 0.06901 0.27410 0.44348
 H119 H 0.13401 0.11784 0.71637
 H120 H -0.18767 0.37901 0.40752
 H121 H -0.12096 0.31029 0.32273
 H122 H -0.05218 0.15484 0.60003
 C123 C 0.41205 0.05397 -0.26727
 C124 C 0.45192 0.09774 -0.30925
 C125 C 0.52529 -0.00681 -0.28209
 C126 C 0.48576 -0.05097 -0.24089
 C127 C 0.62732 -0.07108 -0.16211
 C128 C 0.55406 0.03318 -0.18798
 C129 C 0.51390 -0.01106 -0.14603
 C130 C 0.58795 -0.11536 -0.11929
 H131 H 0.32233 0.10785 -0.31271
 H132 H 0.39645 0.18575 -0.38723
 H133 H 0.45888 -0.08696 -0.26256
 H134 H 0.71512 -0.11973 -0.12106
 H135 H 0.58564 0.06679 -0.16777
 H136 H 0.64539 -0.20341 -0.04072
 C137 C 0.41160 0.11492 0.11721
 C138 C 0.37200 0.07076 0.15963
 C139 C 0.47370 0.00653 0.27977
 C140 C 0.51353 0.05051 0.23888
 C141 C 0.54719 -0.09798 0.30694
 C142 C 0.44536 -0.03350 0.18561
 C143 C 0.48580 0.01061 0.14404
 C144 C 0.58741 -0.05444 0.26540
 H145 H 0.35396 0.20310 0.03876
 H146 H 0.28404 0.11967 0.11816
 H147 H 0.54048 0.08632 0.26084
 H148 H 0.60252 -0.18588 0.38499
 H149 H 0.41376 -0.06704 0.16525
 H150 H 0.67727 -0.10855 0.31127
 C151 C 0.41379 -0.12112 -0.11694
 C152 C 0.51754 -0.24470 -0.04388
 C153 C 0.47076 -0.27948 -0.00664
 C154 C 0.36704 -0.15710 -0.07988
 C155 C 0.53726 -0.30025 0.09581
 C156 C 0.58408 -0.26445 0.05860
 C157 C 0.48062 -0.14118 -0.01509
 C158 C 0.43324 -0.17652 0.02226
 H159 H 0.36104 -0.04751 -0.20456
 H160 H 0.55143 -0.27323 -0.07197
 H161 H 0.27759 -0.11338 -0.13678
 H162 H 0.58769 -0.37422 0.18358
 H163 H 0.67335 -0.30813 0.11629
 H164 H 0.39490 -0.14877 0.04776
 C165 C 0.41576 0.26342 -0.05904
 C166 C 0.48321 0.24252 0.04413
 C167 C 0.52887 0.27866 0.00617
 C168 C 0.46147 0.30056 -0.09697
 C169 C 0.63251 0.15688 0.07802
 C170 C 0.58688 0.11954 0.11582
 C171 C 0.51913 0.14073 0.01332
 C172 C 0.56538 0.17742 -0.02481
 H173 H 0.32659 0.30681 -0.11635
 H174 H 0.45021 0.26980 0.07337
 H175 H 0.41020 0.37534 -0.18478
 H176 H 0.72183 0.11351 0.13435
 H177 H 0.64049 0.04492 0.20337
 H178 H 0.60271 0.15106 -0.05159
 C179 C -0.11441 -0.11741 0.59367
 C180 C -0.15607 -0.07315 0.63393
 C181 C -0.27684 -0.00892 0.53325
 C182 C -0.23670 -0.05307 0.49289
 C183 C -0.30489 0.09561 0.45947
 C184 C -0.18292 0.03119 0.56024
 C185 C -0.14225 -0.01301 0.51913
 C186 C -0.26416 0.05191 0.41870
 H187 H -0.03562 -0.20547 0.65039
 H188 H -0.11386 -0.12183 0.72173
 H189 H -0.25898 -0.08904 0.46643
 H190 H -0.38327 0.18350 0.40477
 H191 H -0.16206 0.06476 0.59156
 H192 H -0.31062 0.10561 0.32907
 C193 C 0.26206 -0.05205 0.58145
 C194 C 0.30354 -0.09617 0.54132
 C195 C 0.27579 0.00820 0.46778
 C196 C 0.23489 0.05276 0.50749
 C197 C 0.15522 0.07237 0.36669
 C198 C 0.18174 -0.03179 0.44015
 C199 C 0.14032 0.01287 0.48059
 C200 C 0.11280 0.11708 0.40628
 H201 H 0.30812 -0.10566 0.67095
 H202 H 0.38206 -0.18417 0.59640
 H203 H 0.25691 0.08883 0.53398
 H204 H 0.11336 0.12093 0.27901
 H205 H 0.16116 -0.06553 0.40892
 H206 H 0.03399 0.20538 0.34896
 C207 C 0.08380 0.49666 1.23542
 C208 C -0.01526 0.60111 1.19391
 C209 C -0.00106 0.52397 1.28398
 C210 C 0.09807 0.41960 1.32655
 C211 C -0.08566 0.53459 1.20152
 C212 C -0.10015 0.61217 1.10990
 C213 C -0.00197 0.50794 1.15134
 C214 C 0.01366 0.43016 1.24315
 H215 H 0.15764 0.47797 1.25631
 H216 H -0.02712 0.67148 1.17410
 H217 H 0.18039 0.33996 1.41651
 H218 H -0.15536 0.55029 1.18870
 H219 H -0.17962 0.69174 1.01984
 H220 H 0.03096 0.35594 1.27058
 C221 C 0.10119 0.38907 0.89033
 C222 C 0.01504 0.40176 0.80536
 C223 C 0.00141 0.47869 0.71578
 C224 C 0.08726 0.46643 0.79919
 C225 C -0.09673 0.58304 0.67405
 C226 C -0.08303 0.50620 0.76471
 C227 C 0.00403 0.49327 0.84974
 C228 C -0.01107 0.57085 0.75840
 H229 H 0.18048 0.30894 0.98026
 H230 H 0.02568 0.33220 0.82418
 H231 H 0.15724 0.45010 0.81219
 H232 H -0.17894 0.66323 0.58423
 H233 H -0.15725 0.52575 0.74360
 H234 H -0.02733 0.64436 0.73192
   
