data_POSCAR
  _audit_creation_date              2014-09-24
  _audit_creation_method            'ToBaCCo'
  _symmetry_space_group_name_H-M    'P1'
  _symmetry_Int_Tables_number       1
  _symmetry_cell_setting            triclinic
  loop_
  _symmetry_equiv_pos_as_xyz
 x,y,z
_cell_length_a 68.4198
_cell_length_b 11.9555
_cell_length_c 10.7730
_cell_angle_alpha 72.945300
_cell_angle_beta 90.406600
_cell_angle_gamma 86.689000
loop_
  _atom_site_label
  _atom_site_type_symbol
  _atom_site_fract_x
  _atom_site_fract_y
  _atom_site_fract_z
C1 C 0.75028 0.27895 0.48609
 C2 C 0.74790 0.27359 0.61459
 C3 C 0.72808 0.27990 0.66876
 C4 C 0.76491 0.24895 0.70542
 C5 C 0.76990 0.29210 0.42363
 C6 C 0.73322 0.26174 0.40880
 C7 C 0.71461 0.37117 0.60503
 C8 C 0.69470 0.36201 0.62578
 C9 C 0.68756 0.26224 0.71568
 C10 C 0.70156 0.17854 0.79405
 C11 C 0.72161 0.18663 0.76918
 C12 C 0.77199 0.33811 0.75061
 C13 C 0.79162 0.33072 0.79107
 C14 C 0.80386 0.23195 0.79130
 C15 C 0.79545 0.13431 0.77006
 C16 C 0.77616 0.14347 0.72516
 C17 C 0.77578 0.22876 0.33799
 C18 C 0.79488 0.23365 0.29060
 C19 C 0.80897 0.29904 0.33109
 C20 C 0.80225 0.36909 0.40927
 C21 C 0.78297 0.36814 0.45026
 C22 C 0.72195 0.16587 0.46122
 C23 C 0.70340 0.16264 0.41036
 C24 C 0.69625 0.24842 0.29753
 C25 C 0.70849 0.33868 0.23657
 C26 C 0.72678 0.34607 0.29291
 H27 H 0.71942 0.44587 0.53200
 H28 H 0.68498 0.43464 0.57118
 H29 H 0.69723 0.09985 0.86491
 H30 H 0.73182 0.11523 0.82081
 H31 H 0.76327 0.41945 0.73739
 H32 H 0.79762 0.40679 0.80843
 H33 H 0.77063 0.07268 0.69397
 H34 H 0.76572 0.17358 0.30948
 H35 H 0.79831 0.18434 0.22354
 H36 H 0.81164 0.42329 0.44397
 H37 H 0.77839 0.42430 0.50747
 H38 H 0.72677 0.09876 0.54944
 H39 H 0.69418 0.09706 0.46571
 H40 H 0.70368 0.40595 0.14865
 H41 H 0.73540 0.42027 0.24998
 H42 H 0.80434 0.05509 0.77533
 C43 C 0.24838 0.75715 0.53601
 C44 C 0.25071 0.78494 0.40442
 C45 C 0.27019 0.80824 0.34497
 C46 C 0.23397 0.77769 0.32001
 C47 C 0.22852 0.75487 0.58995
 C48 C 0.26556 0.72644 0.62702
 C49 C 0.28275 0.87858 0.38757
 C50 C 0.30238 0.88031 0.35519
 C51 C 0.30972 0.81978 0.26939
 C52 C 0.29629 0.76239 0.21273
 C53 C 0.27686 0.75458 0.25227
 C54 C 0.22245 0.87844 0.25235
 C55 C 0.20364 0.86756 0.20638
 C56 C 0.19657 0.75586 0.22603
 C57 C 0.20921 0.65651 0.27767
 C58 C 0.22772 0.66690 0.32585
 C59 C 0.22135 0.65027 0.66745
 C60 C 0.20151 0.64611 0.69953
 C61 C 0.18868 0.74681 0.65470
 C62 C 0.19636 0.85233 0.58257
 C63 C 0.21602 0.85629 0.55128
 C64 C 0.27874 0.63426 0.62168
 C65 C 0.29798 0.62965 0.66629
 C66 C 0.30459 0.71865 0.71468
 C67 C 0.29050 0.79961 0.73947
 C68 C 0.27096 0.80269 0.69683
 H69 H 0.27771 0.92612 0.45363
 H70 H 0.31171 0.92482 0.40391
 H71 H 0.30073 0.72006 0.14067
 H72 H 0.26732 0.70269 0.21413
 H73 H 0.22723 0.96455 0.24622
 H74 H 0.19410 0.94547 0.16592
 H75 H 0.23657 0.58844 0.37635
 H76 H 0.23085 0.57103 0.69737
 H77 H 0.19609 0.56316 0.75391
 H78 H 0.18710 0.93217 0.54743
 H79 H 0.22133 0.93780 0.49149
 H80 H 0.27468 0.57297 0.57096
 H81 H 0.30805 0.56157 0.65231
 H82 H 0.29477 0.86656 0.78121
 H83 H 0.26072 0.87264 0.70475
 H84 H 0.20402 0.57082 0.28963
 C85 C 0.24967 0.22856 -0.39445
 C86 C 0.24873 0.26024 -0.52735
 C87 C 0.26694 0.28746 -0.60232
 C88 C 0.22953 0.27450 -0.59832
 C89 C 0.23188 0.20094 -0.31661
 C90 C 0.26868 0.21663 -0.32486
 C91 C 0.27649 0.38789 -0.60203
 C92 C 0.29611 0.39823 -0.63611
 C93 C 0.30666 0.30921 -0.67470
 C94 C 0.29618 0.21497 -0.68889
 C95 C 0.27666 0.20354 -0.65109
 C96 C 0.21455 0.34911 -0.57367
 C97 C 0.19537 0.34635 -0.61647
 C98 C 0.19054 0.27391 -0.69368
 C99 C 0.20621 0.20597 -0.72708
 C100 C 0.22532 0.20524 -0.67860
 C101 C 0.22200 0.10262 -0.31896
 C102 C 0.20232 0.09580 -0.28698
 C103 C 0.19203 0.18765 -0.25282
 C104 C 0.20298 0.27689 -0.23067
 C105 C 0.22277 0.28348 -0.26282
 C106 C 0.28195 0.12255 -0.32178
 C107 C 0.30141 0.12314 -0.28252
 C108 C 0.30826 0.22059 -0.25029
 C109 C 0.29423 0.31009 -0.24364
 C110 C 0.27469 0.30789 -0.28027
 H111 H 0.26909 0.45463 -0.56679
 H112 H 0.30301 0.47597 -0.63063
 H113 H 0.30342 0.14372 -0.71714
 H114 H 0.26966 0.12496 -0.65123
 H115 H 0.21751 0.40588 -0.51476
 H116 H 0.18446 0.39787 -0.58159
 H117 H 0.23659 0.14739 -0.70066
 H118 H 0.22918 0.03580 -0.35485
 H119 H 0.19497 0.01993 -0.29247
 H120 H 0.19600 0.34894 -0.20268
 H121 H 0.23025 0.35961 -0.25893
 H122 H 0.27747 0.05197 -0.35717
 H123 H 0.31101 0.04828 -0.28224
 H124 H 0.29812 0.38564 -0.21655
 H125 H 0.26461 0.38164 -0.28245
 H126 H 0.20408 0.15267 -0.79077
 C127 C -0.24954 0.75767 -0.49436
 C128 C -0.24959 0.78197 -0.62728
 C129 C -0.23142 0.81020 -0.70010
 C130 C -0.26746 0.76838 -0.69839
 C131 C -0.26847 0.75562 -0.42651
 C132 C -0.23075 0.73338 -0.41667
 C133 C -0.22079 0.90148 -0.68389
 C134 C -0.20087 0.90339 -0.70812
 C135 C -0.19102 0.81304 -0.74796
 C136 C -0.20257 0.73192 -0.78295
 C137 C -0.22266 0.73117 -0.75978
 C138 C -0.27844 0.86585 -0.77853
 C139 C -0.29805 0.85565 -0.81018
 C140 C -0.30694 0.74857 -0.75806
 C141 C -0.29499 0.64893 -0.69111
 C142 C -0.27532 0.65869 -0.66505
 C143 C -0.27386 0.65623 -0.32939
 C144 C -0.29311 0.64993 -0.28375
 C145 C -0.30747 0.74288 -0.33552
 C146 C -0.30144 0.84205 -0.43155
 C147 C -0.28224 0.84998 -0.47227
 C148 C -0.21624 0.65635 -0.44188
 C149 C -0.19721 0.64994 -0.39318
 C150 C -0.19207 0.71593 -0.30988
 C151 C -0.20743 0.78341 -0.27250
 C152 C -0.22645 0.79320 -0.32671
 H153 H -0.22752 0.96458 -0.64033
 H154 H -0.19316 0.97344 -0.68967
 H155 H -0.19608 0.66047 -0.81424
 H156 H -0.23074 0.66012 -0.77325
 H157 H -0.27245 0.95135 -0.80633
 H158 H -0.30666 0.93433 -0.86300
 H159 H -0.26637 0.58263 -0.61015
 H160 H -0.26343 0.58196 -0.29252
 H161 H -0.29651 0.57203 -0.20810
 H162 H -0.31181 0.91077 -0.48445
 H163 H -0.27845 0.92707 -0.54785
 H164 H -0.21931 0.60767 -0.50857
 H165 H -0.18668 0.59694 -0.42855
 H166 H -0.20497 0.83186 -0.20428
 H167 H -0.23754 0.85139 -0.30274
 H168 H -0.30098 0.56364 -0.65688
 N169 N -0.01811 0.82583 0.25892
 N170 N -0.03484 0.82270 0.32016
 N171 N 0.02251 0.75164 0.16873
 N172 N 0.03983 0.69956 0.16239
 N173 N 0.02330 0.81629 0.24839
 N174 N 0.04121 0.80810 0.29848
 N175 N -0.01853 0.76054 0.17998
 N176 N -0.03538 0.71141 0.18652
 C177 C -0.04537 0.74957 0.27525
 C178 C 0.05121 0.73298 0.24607
 N179 N 0.01895 0.89107 -0.20658
 N180 N 0.03448 0.89034 -0.27861
 N181 N -0.02134 0.80756 -0.09760
 N182 N -0.03770 0.75257 -0.08849
 N183 N -0.02251 0.90355 -0.19652
 N184 N -0.03989 0.91679 -0.25543
 N185 N 0.01962 0.79621 -0.10687
 N186 N 0.03552 0.72887 -0.10836
 Mn187 Mn 0.00055 0.77792 0.03653
 C188 C 0.04459 0.78786 -0.21656
 C189 C -0.04900 0.82069 -0.18845
 N190 N 0.02288 1.06533 0.21519
 N191 N 0.04041 1.05394 0.27195
 N192 N -0.01972 1.17006 0.12758
 N193 N -0.03656 1.23086 0.12409
 N194 N -0.01890 1.07417 0.22653
 N195 N -0.03541 1.06710 0.29090
 N196 N 0.02122 1.16225 0.11779
 N197 N 0.03725 1.22012 0.10805
 Mn198 Mn 0.00234 0.94497 0.23927
 C199 C 0.04899 1.15256 0.20549
 C200 C -0.04604 1.16691 0.22780
 N201 N -0.02250 1.15159 -0.22998
 N202 N -0.04003 1.16251 -0.28556
 N203 N 0.01902 1.20682 -0.15925
 N204 N 0.03585 1.25628 -0.16505
 N205 N 0.01893 1.14005 -0.23698
 N206 N 0.03585 1.14249 -0.29630
 N207 N -0.02210 1.21576 -0.14986
 N208 N -0.03932 1.27123 -0.14925
 Mn209 Mn -0.00176 1.02218 -0.21947
 Mn210 Mn -0.00043 1.18983 -0.01630
 Cl211 Cl 0.00018 0.98369 0.01002
 C212 C -0.05030 1.23844 -0.23560
 C213 C 0.04615 1.21703 -0.25192
 N214 N 0.51947 0.39748 -0.19711
 N215 N 0.53513 0.39227 -0.26689
 N216 N 0.47880 0.32210 -0.09157
 N217 N 0.46246 0.26755 -0.08534
 N218 N 0.47821 0.41586 -0.19297
 N219 N 0.46131 0.42808 -0.25693
 N220 N 0.51967 0.30509 -0.09458
 N221 N 0.53537 0.23520 -0.09186
 C222 C 0.54482 0.28980 -0.20030
 C223 C 0.45187 0.33359 -0.19010
 N224 N 0.48105 0.35181 0.26108
 N225 N 0.46392 0.35689 0.31616
 N226 N 0.52192 0.26752 0.18110
 N227 N 0.53935 0.21494 0.17715
 N228 N 0.52278 0.33744 0.25495
 N229 N 0.54079 0.33427 0.30097
 N230 N 0.48039 0.28402 0.18481
 N231 N 0.46290 0.24231 0.18659
 Mn232 Mn 0.50019 0.29341 0.04573
 C233 C 0.45279 0.28696 0.27014
 C234 C 0.55087 0.25546 0.25455
 N235 N 0.47867 0.66465 -0.23445
 N236 N 0.46125 0.67361 -0.29064
 N237 N 0.52032 0.71793 -0.16390
 N238 N 0.53761 0.76264 -0.16820
 N239 N 0.52016 0.64629 -0.23607
 N240 N 0.53742 0.63914 -0.28832
 N241 N 0.47878 0.73105 -0.15658
 N242 N 0.46132 0.78505 -0.15716
 Mn243 Mn 0.49915 0.53198 -0.21675
 C244 C 0.45060 0.74978 -0.24307
 C245 C 0.54798 0.71432 -0.24776
 N246 N 0.52309 0.58755 0.21401
 N247 N 0.54010 0.58050 0.27646
 N248 N 0.48117 0.69409 0.11920
 N249 N 0.46462 0.75781 0.11345
 N250 N 0.48167 0.60073 0.22097
 N251 N 0.46530 0.59836 0.28545
 N252 N 0.52192 0.68068 0.11191
 N253 N 0.53785 0.73882 0.10261
 Mn254 Mn 0.50220 0.46838 0.23964
 Mn255 Mn 0.50050 0.70722 -0.02293
 Cl256 Cl 0.50052 0.50022 0.01151
 C257 C 0.54907 0.67646 0.20582
 C258 C 0.45506 0.69830 0.21905
 C259 C 0.36859 0.29938 0.29872
 C260 C 0.35762 0.25148 0.21865
 C261 C 0.33707 0.25553 0.22617
 C262 C 0.32732 0.31000 0.31108
 C263 C 0.33885 0.36021 0.38799
 C264 C 0.35933 0.35370 0.38324
 C265 C 0.39021 0.29211 0.29467
 C266 C 0.40112 0.33985 0.37549
 C267 C 0.42163 0.33450 0.37032
 C268 C 0.43127 0.28257 0.28417
 C269 C 0.42007 0.23451 0.20397
 C270 C 0.39952 0.23960 0.20851
 C271 C 0.37076 0.39943 0.46307
 C272 C 0.39126 0.39387 0.45831
 C273 C 0.36749 0.19946 0.13359
 C274 C 0.38805 0.19418 0.12809
 H275 H 0.36374 0.43729 0.53211
 H276 H 0.39950 0.43032 0.52160
 H277 H 0.35927 0.16082 0.07205
 H278 H 0.39503 0.15256 0.06169
 H279 H 0.32878 0.21910 0.16294
 H280 H 0.33211 0.39866 0.45782
 H281 H 0.43005 0.37272 0.43142
 H282 H 0.42729 0.19558 0.13601
 C283 C -0.12912 0.76674 0.27879
 C284 C -0.13906 0.82647 0.35575
 C285 C -0.15947 0.84124 0.34619
 C286 C -0.17024 0.79903 0.25809
 C287 C -0.15979 0.73823 0.18213
 C288 C -0.13932 0.72170 0.19251
 C289 C -0.10759 0.75360 0.28656
 C290 C -0.09760 0.69574 0.20764
 C291 C -0.07712 0.68799 0.21116
 C292 C -0.06665 0.74022 0.29040
 C293 C -0.07686 0.79580 0.37099
 C294 C -0.09737 0.80315 0.36902
 C295 C -0.12881 0.66227 0.11688
 C296 C -0.10829 0.64978 0.12404
 C297 C -0.12838 0.87293 0.43893
 C298 C -0.10787 0.86277 0.44422
 H299 H -0.13649 0.62564 0.05109
 H300 H -0.10072 0.60452 0.06299
 H301 H -0.13595 0.91975 0.49833
 H302 H -0.10017 0.90272 0.50682
 H303 H -0.16678 0.88247 0.41164
 H304 H -0.16729 0.70723 0.11103
 H305 H -0.06938 0.64588 0.14781
 H306 H -0.06890 0.83707 0.43128
 C307 C 0.63162 0.73341 0.23399
 C308 C 0.64243 0.67301 0.34678
 C309 C 0.66286 0.67534 0.34699
 C310 C 0.67255 0.74255 0.23704
 C311 C 0.66130 0.80563 0.12560
 C312 C 0.64093 0.79778 0.12235
 C313 C 0.61017 0.72599 0.23145
 C314 C 0.59950 0.78150 0.11645
 C315 C 0.57933 0.76914 0.11187
 C316 C 0.56986 0.69887 0.22033
 C317 C 0.58063 0.64637 0.33661
 C318 C 0.60085 0.66070 0.34273
 C319 C 0.62967 0.85208 0.00928
 C320 C 0.60929 0.84515 0.00689
 C321 C 0.63258 0.61139 0.45722
 C322 C 0.61211 0.60768 0.45612
 H323 H 0.63668 0.90153 -0.07763
 H324 H 0.60105 0.89094 -0.08094
 H325 H 0.64085 0.56321 0.54411
 H326 H 0.60511 0.55874 0.54317
 H327 H 0.67109 0.62978 0.43547
 H328 H 0.66844 0.85617 0.03947
 H329 H 0.57121 0.80997 0.02161
 H330 H 0.57342 0.59285 0.42065
 C331 C 0.13048 1.23674 0.23165
 C332 C 0.13593 1.33594 0.26228
 C333 C 0.15583 1.35232 0.27767
 C334 C 0.17059 1.26622 0.26991
 C335 C 0.16457 1.16960 0.23097
 C336 C 0.14467 1.15590 0.21027
 C337 C 0.10947 1.21689 0.22243
 C338 C 0.10402 1.11783 0.19041
 C339 C 0.08413 1.09512 0.18857
 C340 C 0.06981 1.17258 0.21675
 C341 C 0.07538 1.27503 0.24245
 C342 C 0.09528 1.29694 0.24658
 C343 C 0.13859 1.06123 0.17148
 C344 C 0.11862 1.04351 0.16121
 C345 C 0.12133 1.41646 0.27923
 C346 C 0.10136 1.39721 0.27365
 H347 H 0.14936 0.99904 0.15227
 H348 H 0.11449 0.96842 0.13621
 H349 H 0.12559 1.49431 0.29780
 H350 H 0.09064 1.46117 0.28999
 H351 H 0.15946 1.43300 0.29564
 H352 H 0.17490 1.10043 0.22353
 H353 H 0.07976 1.01830 0.16403
 H354 H 0.06427 1.33665 0.26005
 C355 C 0.62708 0.22904 -0.26239
 C356 C 0.63516 0.28619 -0.38110
 C357 C 0.65541 0.29626 -0.38794
 C358 C 0.66794 0.24715 -0.27714
 C359 C 0.65941 0.18257 -0.16050
 C360 C 0.63903 0.17660 -0.15208
 C361 C 0.60561 0.22974 -0.25183
 C362 C 0.59748 0.17841 -0.13111
 C363 C 0.57720 0.18983 -0.11799
 C364 C 0.56521 0.25678 -0.22356
 C365 C 0.57341 0.30270 -0.34588
 C366 C 0.59366 0.28833 -0.36062
 C367 C 0.63029 0.12232 -0.03415
 C368 C 0.60987 0.12209 -0.02432
 C369 C 0.62278 0.33570 -0.49008
 C370 C 0.60235 0.33698 -0.48004
 H371 H 0.63935 0.07891 0.05090
 H372 H 0.60366 0.07762 0.06746
 H373 H 0.62891 0.38003 -0.58223
 H374 H 0.59331 0.38223 -0.56458
 H375 H 0.66131 0.33929 -0.48178
 H376 H 0.66822 0.14537 -0.07257
 H377 H 0.57099 0.15418 -0.02326
 H378 H 0.56419 0.35339 -0.42765
 C379 C 0.12647 0.73627 -0.29821
 C380 C 0.13887 0.66527 -0.19818
 C381 C 0.15930 0.66846 -0.21228
 C382 C 0.16718 0.74188 -0.32612
 C383 C 0.15432 0.81122 -0.42516
 C384 C 0.13410 0.80922 -0.41126
 C385 C 0.10506 0.73603 -0.28413
 C386 C 0.09283 0.80977 -0.38357
 C387 C 0.07272 0.81996 -0.36457
 C388 C 0.06482 0.75732 -0.24664
 C389 C 0.07699 0.67605 -0.15170
 C390 C 0.09727 0.66626 -0.16954
 C391 C 0.12137 0.87612 -0.51101
 C392 C 0.10106 0.87607 -0.49797
 C393 C 0.13052 0.59480 -0.08550
 C394 C 0.11008 0.59502 -0.07171
 H395 H 0.12729 0.92968 -0.59896
 H396 H 0.09173 0.93031 -0.57658
 H397 H 0.13986 0.54159 -0.00590
 H398 H 0.10426 0.54277 0.01835
 H399 H 0.16895 0.61555 -0.13437
 H400 H 0.15997 0.86459 -0.51558
 H401 H 0.06338 0.88106 -0.43874
 H402 H 0.07096 0.62685 -0.06058
 C403 C 0.36673 0.75794 -0.27683
 C404 C 0.35836 0.70861 -0.36576
 C405 C 0.33818 0.70058 -0.36945
 C406 C 0.32608 0.73451 -0.27960
 C407 C 0.33466 0.78676 -0.19192
 C408 C 0.35505 0.79996 -0.19162
 C409 C 0.38817 0.76487 -0.27304
 C410 C 0.39680 0.81443 -0.18476
 C411 C 0.41739 0.81540 -0.17823
 C412 C 0.42906 0.76669 -0.25954
 C413 C 0.41997 0.72102 -0.34978
 C414 C 0.39966 0.71880 -0.35600
 C415 C 0.36411 0.85329 -0.10787
 C416 C 0.38462 0.85993 -0.10407
 C417 C 0.37033 0.66643 -0.44897
 C418 C 0.39066 0.66919 -0.44244
 H419 H 0.35531 0.88963 -0.04420
 H420 H 0.39097 0.90112 -0.03753
 H421 H 0.36384 0.63145 -0.52014
 H422 H 0.39944 0.63343 -0.50651
 H423 H 0.33199 0.66759 -0.44361
 H424 H 0.32568 0.81546 -0.12329
 H425 H 0.42428 0.85003 -0.10759
 H426 H 0.42875 0.68349 -0.41278
 C427 C -0.13402 1.25294 -0.23102
 C428 C -0.14413 1.30209 -0.14453
 C429 C -0.16450 1.29416 -0.13496
 C430 C -0.17459 1.23806 -0.21195
 C431 C -0.16417 1.19300 -0.30099
 C432 C -0.14394 1.19874 -0.30968
 C433 C -0.11260 1.25690 -0.23848
 C434 C -0.10256 1.20533 -0.32313
 C435 C -0.08217 1.20582 -0.32705
 C436 C -0.07179 1.25559 -0.24557
 C437 C -0.08207 1.30896 -0.16279
 C438 C -0.10254 1.30943 -0.15854
 C439 C -0.13344 1.14914 -0.39397
 C440 C -0.11304 1.15133 -0.39964
 C441 C -0.13362 1.35712 -0.06894
 C442 C -0.11314 1.35983 -0.07495
 H443 H -0.14103 1.10682 -0.45461
 H444 H -0.10540 1.10979 -0.46373
 H445 H -0.14125 1.39733 -0.00361
 H446 H -0.10556 1.40184 -0.01383
 H447 H -0.17241 1.33022 -0.06723
 H448 H -0.17183 1.15389 -0.36469
 H449 H -0.07435 1.16381 -0.39021
 H450 H -0.07414 1.34656 -0.09883
 C451 C 0.63157 0.72945 -0.26986
 C452 C 0.63983 0.83803 -0.31373
 C453 C 0.66013 0.84143 -0.32422
 C454 C 0.67246 0.73712 -0.30006
 C455 C 0.66380 0.62860 -0.24829
 C456 C 0.64341 0.62461 -0.23296
 C457 C 0.61008 0.72557 -0.26509
 C458 C 0.60173 0.61670 -0.22288
 C459 C 0.58126 0.61352 -0.22180
 C460 C 0.56932 0.71844 -0.25882
 C461 C 0.57787 0.82680 -0.29836
 C462 C 0.59829 0.83088 -0.30397
 C463 C 0.63450 0.51738 -0.18849
 C464 C 0.61402 0.51353 -0.18354
 C465 C 0.62761 0.94167 -0.34905
 C466 C 0.60718 0.93816 -0.34497
 H467 H 0.64340 0.43565 -0.15930
 H468 H 0.60775 0.42912 -0.14940
 H469 H 0.63389 1.02619 -0.38239
 H470 H 0.59829 1.02000 -0.37416
 H471 H 0.66613 0.92682 -0.35214
 H472 H 0.67245 0.54638 -0.22848
 H473 H 0.57460 0.53000 -0.18934
 H474 H 0.56862 0.90738 -0.32528
 C475 C 0.13002 1.21783 -0.26680
 C476 C 0.14010 1.16331 -0.34795
 C477 C 0.16057 1.15107 -0.34014
 C478 C 0.17126 1.19509 -0.25327
 C479 C 0.16070 1.25224 -0.17441
 C480 C 0.14014 1.26259 -0.18010
 C481 C 0.10840 1.22692 -0.27165
 C482 C 0.09829 1.27833 -0.18770
 C483 C 0.07779 1.28062 -0.18712
 C484 C 0.06741 1.23040 -0.26881
 C485 C 0.07774 1.18342 -0.35645
 C486 C 0.09828 1.18158 -0.35804
 C487 C 0.12946 1.31600 -0.09994
 C488 C 0.10890 1.32338 -0.10335
 C489 C 0.12951 1.12311 -0.43659
 C490 C 0.10896 1.13271 -0.44191
 H491 H 0.13710 1.35043 -0.03238
 H492 H 0.10118 1.36272 -0.03787
 H493 H 0.13723 1.08396 -0.50227
 H494 H 0.10130 1.10158 -0.51194
 H495 H 0.16810 1.11236 -0.40714
 H496 H 0.16832 1.28500 -0.10502
 H497 H 0.07002 1.31709 -0.11915
 H498 H 0.06989 1.14498 -0.41998
 C499 C 0.37014 0.26669 -0.22162
 C500 C 0.36392 0.18045 -0.27452
 C501 C 0.34386 0.16591 -0.28346
 C502 C 0.32984 0.23294 -0.23427
 C503 C 0.33668 0.31748 -0.17854
 C504 C 0.35663 0.33764 -0.17675
 C505 C 0.39117 0.28580 -0.21735
 C506 C 0.39728 0.37784 -0.17300
 C507 C 0.41729 0.39584 -0.16953
 C508 C 0.43101 0.32096 -0.20745
 C509 C 0.42478 0.22978 -0.25256
 C510 C 0.40475 0.21300 -0.25992
 C511 C 0.36332 0.42824 -0.13190
 C512 C 0.38329 0.44883 -0.13159
 C513 C 0.37786 0.11271 -0.32136
 C514 C 0.39796 0.12707 -0.31175
 H515 H 0.35302 0.48449 -0.09807
 H516 H 0.38781 0.52067 -0.09850
 H517 H 0.37320 0.04716 -0.36466
 H518 H 0.40824 0.07207 -0.34750
 H519 H 0.33948 0.10425 -0.33257
 H520 H 0.32675 0.36908 -0.13668
 H521 H 0.42227 0.46546 -0.13371
 H522 H 0.43549 0.17290 -0.28231
 C523 C -0.13061 0.74717 -0.23361
 C524 C -0.13616 0.65795 -0.28387
 C525 C -0.15610 0.64208 -0.29775
 C526 C -0.17082 0.72048 -0.27192
 C527 C -0.16468 0.80875 -0.21912
 C528 C -0.14472 0.82109 -0.19811
 C529 C -0.10962 0.76545 -0.22111
 C530 C -0.10406 0.85628 -0.17275
 C531 C -0.08411 0.87593 -0.16545
 C532 C -0.06988 0.80409 -0.20417
 C533 C -0.07559 0.71216 -0.25010
 C534 C -0.09552 0.69330 -0.26035
 C535 C -0.13856 0.90804 -0.14525
 C536 C -0.11858 0.92523 -0.13269
 C537 C -0.12165 0.58829 -0.32330
 C538 C -0.10168 0.60548 -0.31150
 H539 H -0.14927 0.96427 -0.11470
 H540 H -0.11450 0.99465 -0.09380
 H541 H -0.12577 0.52035 -0.36462
 H542 H -0.09101 0.55045 -0.34409
 H543 H -0.15973 0.56888 -0.33089
 H544 H -0.17510 0.87125 -0.19771
 H545 H -0.07959 0.94551 -0.12790
 H546 H -0.06456 0.65654 -0.27896
 C547 C 0.37212 0.77763 0.23148
 C548 C 0.36425 0.87048 0.27373
 C549 C 0.34391 0.88924 0.27605
 C550 C 0.33128 0.80998 0.24723
 C551 C 0.33966 0.71564 0.20710
 C552 C 0.35996 0.70069 0.19649
 C553 C 0.39351 0.75743 0.22941
 C554 C 0.40136 0.66307 0.18922
 C555 C 0.42168 0.64258 0.19014
 C556 C 0.43398 0.71635 0.22972
 C557 C 0.42607 0.81093 0.26903
 C558 C 0.40571 0.83108 0.27064
 C559 C 0.36838 0.60890 0.15385
 C560 C 0.38875 0.59109 0.14932
 C561 C 0.37688 0.93983 0.31820
 C562 C 0.39728 0.92123 0.31558
 H563 H 0.35915 0.55000 0.12446
 H564 H 0.39473 0.51896 0.11695
 H565 H 0.37095 1.00804 0.35728
 H566 H 0.40650 0.97673 0.35073
 H567 H 0.33818 0.96497 0.30260
 H568 H 0.33068 0.65082 0.18795
 H569 H 0.42798 0.57077 0.15795
 H570 H 0.43573 0.86768 0.29878
 C571 C -0.12882 1.25504 0.26746
 C572 C -0.14181 1.18469 0.22843
 C573 C -0.16198 1.20093 0.24612
 C574 C -0.16954 1.28983 0.29887
 C575 C -0.15601 1.36477 0.32845
 C576 C -0.13576 1.34550 0.31678
 C577 C -0.10751 1.23251 0.25802
 C578 C -0.09446 1.30139 0.29994
 C579 C -0.07420 1.27877 0.29175
 C580 C -0.06713 1.18667 0.24457
 C581 C -0.08034 1.11861 0.20273
 C582 C -0.10060 1.14190 0.20816
 C583 C -0.12226 1.41278 0.35758
 C584 C -0.10198 1.39094 0.34957
 C585 C -0.13434 1.09821 0.17376
 C586 C -0.11409 1.07723 0.16380
 H587 H -0.12741 1.48207 0.39762
 H588 H -0.09212 1.44414 0.38330
 H589 H -0.14422 1.04537 0.13958
 H590 H -0.10894 1.00839 0.12328
 H591 H -0.17138 1.14095 0.22149
 H592 H -0.16077 1.43759 0.36297
 H593 H -0.06396 1.33214 0.32206
 H594 H -0.07482 1.04934 0.16364
 C595 C 0.63460 0.24700 0.23176
 C596 C 0.64368 0.35370 0.18904
 C597 C 0.66410 0.35385 0.20228
 C598 C 0.67545 0.24779 0.25493
 C599 C 0.66611 0.14093 0.28426
 C600 C 0.64569 0.14026 0.27849
 C601 C 0.61306 0.24761 0.23356
 C602 C 0.60398 0.14158 0.28420
 C603 C 0.58346 0.14342 0.28963
 C604 C 0.57229 0.25059 0.24775
 C605 C 0.58156 0.35564 0.19570
 C606 C 0.60198 0.35473 0.18829
 C607 C 0.63613 0.03533 0.32331
 C608 C 0.61562 0.03605 0.32679
 C609 C 0.63205 0.45875 0.14157
 C610 C 0.61154 0.45907 0.14028
 H611 H 0.64458 -0.04777 0.35884
 H612 H 0.60883 -0.04656 0.36381
 H613 H 0.63885 0.54153 0.10703
 H614 H 0.60309 0.54184 0.10357
 H615 H 0.67085 0.43697 0.17961
 H616 H 0.67463 0.05810 0.31844
 H617 H 0.57621 0.06256 0.32809
 H618 H 0.57285 0.43805 0.16198
 C619 C 0.13478 0.72552 0.22509
 C620 C 0.14607 0.67132 0.33824
 C621 C 0.16637 0.67834 0.33477
 C622 C 0.17537 0.74100 0.22034
 C623 C 0.16400 0.79255 0.10657
 C624 C 0.14359 0.78397 0.10814
 C625 C 0.11329 0.72283 0.23010
 C626 C 0.10197 0.77456 0.11641
 C627 C 0.08156 0.77412 0.12264
 C628 C 0.07258 0.72503 0.24167
 C629 C 0.08399 0.67373 0.35481
 C630 C 0.10447 0.67023 0.34908
 C631 C 0.13174 0.83580 -0.00335
 C632 C 0.11128 0.83031 0.00040
 C633 C 0.13683 0.61305 0.45334
 C634 C 0.11633 0.61404 0.45926
 H635 H 0.13830 0.88182 -0.09385
 H636 H 0.10265 0.87306 -0.08712
 H637 H 0.14548 0.56912 0.54048
 H638 H 0.10974 0.57050 0.55053
 H639 H 0.17516 0.63907 0.42266
 H640 H 0.17097 0.84038 0.01844
 H641 H 0.07260 0.81567 0.03616
 H642 H 0.07694 0.63578 0.44610
   
