data_POSCAR
  _audit_creation_date              2014-09-24
  _audit_creation_method            'ToBaCCo'
  _symmetry_space_group_name_H-M    'P1'
  _symmetry_Int_Tables_number       1
  _symmetry_cell_setting            triclinic
  loop_
  _symmetry_equiv_pos_as_xyz
 x,y,z
_cell_length_a 26.2244
_cell_length_b 26.1796
_cell_length_c 26.1344
_cell_angle_alpha 90.100400
_cell_angle_beta 89.992500
_cell_angle_gamma 89.999900
loop_
  _atom_site_label
  _atom_site_type_symbol
  _atom_site_fract_x
  _atom_site_fract_y
  _atom_site_fract_z
C1 C 0.34183 1.02037 -0.47515
 C2 C 0.34174 1.02114 -0.52764
 C3 C 0.39110 1.00978 -0.54317
 N4 N 0.42109 1.00185 -0.50189
 C5 C 0.39122 1.00867 -0.46029
 C6 C 0.40682 1.00347 -0.59453
 C7 C 0.45806 0.99529 -0.60952
 C8 C 0.47331 0.97936 -0.65787
 C9 C 0.52573 0.97881 -0.65784
 C10 C 0.54127 0.99448 -0.60950
 N11 N 0.49974 1.00473 -0.58047
 C12 C 0.59265 1.00185 -0.59456
 C13 C 0.60846 1.00888 -0.54332
 C14 C 0.65786 1.02037 -0.52805
 C15 C 0.65778 1.02067 -0.47555
 C16 C 0.60838 1.00933 -0.46043
 N17 N 0.57848 1.00179 -0.50188
 C18 C 0.59257 1.00280 -0.40924
 C19 C 0.54143 0.99470 -0.39432
 C20 C 0.52623 0.97889 -0.34602
 C21 C 0.47379 0.97837 -0.34606
 C22 C 0.45834 0.99393 -0.39436
 N23 N 0.49982 1.00415 -0.42336
 C24 C 0.40707 1.00129 -0.40924
 H25 H 0.30916 1.02713 -0.45074
 H26 H 0.30894 1.02853 -0.55166
 H27 H 0.49971 1.02213 -0.45870
 H28 H 0.44916 0.96956 -0.69001
 H29 H 0.54970 0.96855 -0.68998
 H30 H 0.69067 1.02722 -0.55223
 H31 H 0.69049 1.02778 -0.45130
 H32 H 0.44979 0.96819 -0.31395
 H33 H 0.49987 1.02276 -0.54508
 H34 H 0.55039 0.96913 -0.31391
 C35 C -0.66284 1.52574 0.00116
 C36 C -0.66280 1.47345 -0.00070
 C37 C -0.61208 1.45821 -0.00118
 N38 N -0.58139 1.49967 0.00025
 C39 C -0.61215 1.54107 0.00167
 C40 C -0.59542 1.40673 -0.00135
 C41 C -0.54364 1.39093 -0.00034
 C42 C -0.52789 1.34073 0.00655
 C43 C -0.47557 1.34087 0.00596
 C44 C -0.46036 1.39111 -0.00120
 N45 N -0.50212 1.42124 -0.00586
 C46 C -0.40878 1.40712 -0.00298
 C47 C -0.39228 1.45851 -0.00194
 C48 C -0.34161 1.47374 -0.00113
 C49 C -0.34166 1.52602 0.00189
 C50 C -0.39235 1.54117 0.00260
 N51 N -0.42307 1.49981 0.00030
 C52 C -0.40895 1.59252 0.00358
 C53 C -0.46055 1.60844 0.00175
 C54 C -0.47585 1.65865 -0.00546
 C55 C -0.52816 1.65869 -0.00608
 C56 C -0.54383 1.60847 0.00085
 N57 N -0.50226 1.57824 0.00641
 C58 C -0.59558 1.59257 0.00184
 H59 H -0.69645 1.54976 0.00177
 H60 H -0.69636 1.44937 -0.00133
 H61 H -0.50235 1.54006 0.01663
 H62 H -0.55164 1.30737 0.01206
 H63 H -0.45148 1.30767 0.01100
 H64 H -0.30803 1.44972 -0.00219
 H65 H -0.30812 1.55009 0.00301
 H66 H -0.55197 1.69201 -0.01162
 H67 H -0.50226 1.45942 -0.01603
 H68 H -0.45182 1.69188 -0.01051
 C69 C 0.02089 0.52573 0.34271
 C70 C 0.02154 0.47333 0.34238
 C71 C 0.01011 0.45775 0.39182
 N72 N 0.00224 0.49891 0.42209
 C73 C 0.00918 0.54048 0.39232
 C74 C 0.00364 0.40648 0.40736
 C75 C -0.00478 0.39149 0.45869
 C76 C -0.02100 0.34331 0.47377
 C77 C -0.02166 0.34323 0.52635
 C78 C -0.00576 0.39133 0.54218
 N79 N 0.00471 0.42034 0.50066
 C80 C 0.00173 0.40601 0.59380
 C81 C 0.00904 0.45706 0.60992
 C82 C 0.02081 0.47201 0.65952
 C83 C 0.02133 0.52440 0.65977
 C84 C 0.00981 0.53986 0.61033
 N85 N 0.00199 0.49862 0.58012
 C86 C 0.00332 0.59113 0.59473
 C87 C -0.00495 0.60608 0.54338
 C88 C -0.02094 0.65430 0.52816
 C89 C -0.02142 0.65431 0.47556
 C90 C -0.00567 0.60614 0.45995
 N91 N 0.00458 0.57714 0.50151
 C92 C 0.00183 0.59142 0.40845
 H93 H 0.02769 0.55016 0.31003
 H94 H 0.02886 0.44941 0.30936
 H95 H 0.02266 0.54190 0.50127
 H96 H -0.03092 0.31135 0.44938
 H97 H -0.03212 0.31116 0.55025
 H98 H 0.02771 0.44767 0.69225
 H99 H 0.02867 0.54840 0.69273
 H100 H -0.03167 0.68636 0.45156
 H101 H 0.02291 0.45553 0.50099
 H102 H -0.03081 0.68634 0.55246
 O103 O -0.13147 1.00128 -0.06912
 O104 O 0.13107 0.99781 -0.06917
 O105 O -0.00188 1.06843 -0.13177
 O106 O 0.00155 0.93016 -0.13155
 O107 O 0.00153 0.86799 -0.06894
 O108 O -0.00188 1.13102 -0.06936
 O109 O 0.06880 0.99762 -0.13166
 O110 O -0.06921 1.00106 -0.13164
 Zr111 Zr -0.00020 0.99944 -0.09001
 O112 O 0.04605 0.95322 -0.04629
 O113 O -0.04646 1.04595 -0.04641
 C114 C -0.11621 1.00196 -0.11629
 C115 C 0.11580 0.99689 -0.11633
 C116 C -0.00265 1.11558 -0.11651
 C117 C 0.00238 0.88312 -0.11614
 H118 H 0.06760 1.06743 -0.06806
 O119 O 0.04583 1.04571 -0.04619
 H120 H -0.06803 0.93158 -0.06786
 O121 O -0.04626 0.95345 -0.04606
 O122 O 0.13109 1.00168 0.06925
 O123 O -0.13148 0.99827 0.06930
 O124 O 0.06881 1.13125 0.00158
 O125 O 0.06877 0.86821 -0.00140
 O126 O -0.06925 0.86825 0.00205
 O127 O -0.06922 1.13125 -0.00182
 O128 O 0.00157 1.06927 0.13175
 O129 O -0.00188 0.93103 0.13195
 O130 O 0.00157 1.13147 0.06917
 O131 O -0.00190 0.86845 0.06954
 O132 O 0.13107 1.06884 0.00166
 O133 O -0.13147 1.06883 -0.00173
 O134 O -0.13149 0.93068 0.00195
 O135 O 0.13106 0.93059 -0.00153
 O136 O 0.06885 1.00188 0.13180
 O137 O -0.06924 0.99846 0.13184
 Zr138 Zr 0.08956 0.99972 0.00006
 Zr139 Zr -0.08995 0.99975 0.00010
 Zr140 Zr -0.00020 1.08968 -0.00003
 Zr141 Zr -0.00022 0.90980 0.00023
 Zr142 Zr -0.00020 1.00002 0.09020
 O143 O -0.04647 0.95354 0.04661
 O144 O 0.04607 1.04623 0.04644
 C145 C 0.11586 1.00265 0.11642
 C146 C -0.11625 0.99763 0.11648
 C147 C 0.11581 1.11594 0.00238
 C148 C 0.11578 0.88350 -0.00222
 C149 C -0.11625 0.88359 0.00285
 C150 C -0.11622 1.11592 -0.00262
 C151 C 0.00241 1.11631 0.11637
 C152 C -0.00266 0.88389 0.11669
 H153 H -0.06799 1.06790 0.06805
 O154 O -0.04624 1.04602 0.04625
 H155 H 0.06760 0.93204 0.06822
 O156 O 0.04583 0.95376 0.04636
 C157 C 0.29767 1.00399 0.29628
 C158 C 0.31833 0.99808 0.24163
 C159 C 0.28126 0.99817 0.20509
 C160 C 0.22717 1.00415 0.22680
 C161 C 0.22885 1.05334 0.25881
 C162 C 0.26593 1.05325 0.29535
 C163 C 0.25863 0.96076 0.30244
 C164 C 0.22156 0.96084 0.26591
 C165 C 0.33749 1.00384 0.33563
 C166 C 0.37004 1.00366 0.36819
 C167 C 0.18729 1.00410 0.18748
 C168 C 0.15458 1.00367 0.15509
 H169 H 0.35852 0.99417 0.23246
 H170 H 0.28969 0.99435 0.16459
 H171 H 0.20319 1.08540 0.25328
 H172 H 0.27202 1.08523 0.32114
 H173 H 0.25997 0.93257 0.33284
 H174 H 0.19115 0.93271 0.26501
 C175 C -0.29814 0.99902 0.29630
 C176 C -0.28182 1.05238 0.27842
 C177 C -0.24474 1.05163 0.24191
 C178 C -0.22760 0.99758 0.22686
 C179 C -0.27666 0.96988 0.21078
 C180 C -0.31376 0.97064 0.24730
 C181 C -0.24867 0.97301 0.31380
 C182 C -0.21158 0.97225 0.27728
 C183 C -0.33797 0.99991 0.33564
 C184 C -0.37054 1.00078 0.36819
 C185 C -0.18769 0.99699 0.18755
 C186 C -0.15498 0.99699 0.15516
 H187 H -0.29797 1.08765 0.29314
 H188 H -0.22912 1.08627 0.22535
 H189 H -0.28181 0.95130 0.17397
 H190 H -0.35071 0.95273 0.24179
 H191 H -0.24326 0.95664 0.35156
 H192 H -0.17439 0.95521 0.28373
 C193 C -0.29683 1.00312 -0.29732
 C194 C -0.30868 1.03880 -0.25218
 C195 C -0.27192 1.03888 -0.21533
 C196 C -0.22693 1.00328 -0.22724
 C197 C -0.20755 1.02025 -0.27997
 C198 C -0.24431 1.02016 -0.31682
 C199 C -0.28781 0.95051 -0.27312
 C200 C -0.25105 0.95059 -0.23628
 C201 C -0.33632 1.00299 -0.33701
 C202 C -0.36867 1.00287 -0.36975
 C203 C -0.18737 1.00323 -0.18760
 C204 C -0.15486 1.00286 -0.15503
 H205 H -0.34293 1.06194 -0.24941
 H206 H -0.27466 1.06211 -0.18098
 H207 H -0.16842 1.03138 -0.28768
 H208 H -0.23668 1.03121 -0.35611
 H209 H -0.30848 0.91623 -0.28395
 H210 H -0.24023 0.91637 -0.21554
 C211 C 0.29636 0.99799 -0.29746
 C212 C 0.27035 0.94581 -0.29144
 C213 C 0.23360 0.94508 -0.25456
 C214 C 0.22650 0.99660 -0.22735
 C215 C 0.21598 1.03507 -0.27033
 C216 C 0.25271 1.03579 -0.30720
 C217 C 0.31635 1.01135 -0.24389
 C218 C 0.27961 1.01062 -0.20702
 C219 C 0.33585 0.99894 -0.33713
 C220 C 0.36825 0.99994 -0.36983
 C221 C 0.18696 0.99604 -0.18768
 C222 C 0.15445 0.99611 -0.15509
 H223 H 0.27995 0.91239 -0.31414
 H224 H 0.21170 0.91103 -0.24566
 H225 H 0.18259 1.05955 -0.27172
 H226 H 0.25079 1.06089 -0.34018
 H227 H 0.35588 1.02052 -0.23563
 H228 H 0.28767 1.01918 -0.16716
 C229 C 0.29615 1.29697 0.00112
 C230 C 0.28817 1.27073 -0.05083
 C231 C 0.25151 1.23387 -0.05011
 C232 C 0.22641 1.22686 0.00248
 C233 C 0.20660 1.28007 0.01719
 C234 C 0.24327 1.31694 0.01647
 C235 C 0.30742 1.25338 0.03868
 C236 C 0.27073 1.21651 0.03940
 C237 C 0.33555 1.33666 0.00028
 C238 C 0.36788 1.36939 -0.00048
 C239 C 0.18692 1.18720 0.00305
 C240 C 0.15445 1.15464 0.00303
 H241 H 0.30946 1.28024 -0.08515
 H242 H 0.24138 1.21180 -0.08383
 H243 H 0.16724 1.28809 0.02730
 H244 H 0.23535 1.35655 0.02594
 H245 H 0.34123 1.25163 0.06257
 H246 H 0.27310 1.18317 0.06393
 C247 C 0.29594 0.70229 -0.00074
 C248 C 0.27902 0.71973 0.05272
 C249 C 0.24240 0.75663 0.05195
 C250 C 0.22629 0.77249 -0.00221
 C251 C 0.21006 0.72264 -0.02860
 C252 C 0.24669 0.68572 -0.02782
 C253 C 0.31260 0.75134 -0.02818
 C254 C 0.27596 0.78826 -0.02896
 C255 C 0.33531 0.66258 0.00015
 C256 C 0.36766 0.62986 0.00093
 C257 C 0.18685 0.81219 -0.00284
 C258 C 0.15441 0.84478 -0.00286
 H259 H 0.29444 0.70443 0.08807
 H260 H 0.22644 0.77296 0.08666
 H261 H 0.17306 0.71685 -0.04633
 H262 H 0.24108 0.64829 -0.04486
 H263 H 0.34988 0.75660 -0.04545
 H264 H 0.28185 0.82515 -0.04691
 C265 C -0.29781 0.70380 0.00436
 C266 C -0.30517 0.74467 -0.03702
 C267 C -0.26816 0.78120 -0.03699
 C268 C -0.22743 0.77328 0.00444
 C269 C -0.20700 0.71908 -0.00465
 C270 C -0.24401 0.68254 -0.00469
 C271 C -0.29423 0.73361 0.05487
 C272 C -0.25722 0.77016 0.05492
 C273 C -0.33755 0.66444 0.00422
 C274 C -0.37006 0.63189 0.00396
 C275 C -0.18762 0.81260 0.00434
 C276 C -0.15496 0.84498 0.00388
 H277 H -0.33669 0.74491 -0.06395
 H278 H -0.26797 0.81274 -0.06390
 H279 H -0.16699 0.71017 -0.01051
 H280 H -0.23571 0.64233 -0.01058
 H281 H -0.31863 0.72665 0.08769
 H282 H -0.24989 0.79450 0.08778
 C283 C -0.29760 1.29589 -0.00390
 C284 C -0.28410 1.27621 -0.05759
 C285 C -0.24713 1.23962 -0.05768
 C286 C -0.22731 1.22632 -0.00407
 C287 C -0.27494 1.21143 0.02664
 C288 C -0.31191 1.24801 0.02672
 C289 C -0.24682 1.31397 0.01903
 C290 C -0.20986 1.27739 0.01895
 C291 C -0.33731 1.33528 -0.00370
 C292 C -0.36983 1.36781 -0.00340
 C293 C -0.18754 1.18695 -0.00401
 C294 C -0.15491 1.15455 -0.00360
 H295 H -0.30201 1.28981 -0.09245
 H296 H -0.23336 1.22186 -0.09262
 H297 H -0.27928 1.17531 0.04652
 H298 H -0.34791 1.24324 0.04666
 H299 H -0.24045 1.35216 0.03399
 H300 H -0.17182 1.28423 0.03385
 C301 C 0.00411 1.29711 0.29795
 C302 C -0.02506 1.31249 0.24944
 C303 C -0.02508 1.27574 0.21246
 C304 C 0.00407 1.22721 0.22760
 C305 C -0.02032 1.20992 0.27809
 C306 C -0.02030 1.24667 0.31508
 C307 C 0.05768 1.28248 0.27930
 C308 C 0.05766 1.24572 0.24231
 C309 C 0.00403 1.33667 0.33772
 C310 C 0.00386 1.36929 0.37036
 C311 C 0.00391 1.18765 0.18779
 C312 C 0.00343 1.15510 0.15513
 H313 H -0.04398 1.34904 0.24456
 H314 H -0.04405 1.28080 0.17589
 H315 H -0.03619 1.17213 0.28425
 H316 H -0.03614 1.24038 0.35293
 H317 H 0.09254 1.29950 0.29386
 H318 H 0.09251 1.23124 0.22517
 C319 C -0.00124 1.29624 -0.29761
 C320 C -0.00231 1.31764 -0.24290
 C321 C -0.00309 1.28084 -0.20610
 C322 C -0.00271 1.22624 -0.22761
 C323 C 0.04444 1.22381 -0.26235
 C324 C 0.04521 1.26060 -0.29915
 C325 C -0.04767 1.26068 -0.30101
 C326 C -0.04845 1.22387 -0.26420
 C327 C -0.00030 1.33589 -0.33714
 C328 C 0.00061 1.36864 -0.36951
 C329 C -0.00333 1.18665 -0.18797
 C330 C -0.00333 1.15417 -0.15535
 H331 H -0.00245 1.35814 -0.23387
 H332 H -0.00391 1.28981 -0.16553
 H333 H 0.07457 1.19564 -0.25841
 H334 H 0.07599 1.26396 -0.32673
 H335 H -0.07730 1.26410 -0.32982
 H336 H -0.07876 1.19575 -0.26144
 C337 C 0.00392 0.70112 -0.29650
 C338 C 0.00730 0.68019 -0.24178
 C339 C 0.00733 0.71726 -0.20512
 C340 C 0.00398 0.77163 -0.22677
 C341 C -0.04408 0.77170 -0.26031
 C342 C -0.04411 0.73463 -0.29697
 C343 C 0.04862 0.73869 -0.30118
 C344 C 0.04865 0.77577 -0.26451
 C345 C 0.00379 0.66122 -0.33593
 C346 C 0.00358 0.62841 -0.36836
 C347 C 0.00386 0.81152 -0.18730
 C348 C 0.00339 0.84426 -0.15482
 H349 H 0.00952 0.63981 -0.23265
 H350 H 0.00957 0.70865 -0.16456
 H351 H -0.07532 0.79852 -0.25569
 H352 H -0.07536 0.72970 -0.32377
 H353 H 0.07767 0.73637 -0.33069
 H354 H 0.07774 0.80522 -0.26259
 C355 C -0.00132 0.70323 0.29775
 C356 C -0.05419 0.72699 0.28943
 C357 C -0.05494 0.76381 0.25261
 C358 C -0.00274 0.77323 0.22776
 C359 C 0.01444 0.72073 0.20799
 C360 C 0.01519 0.68393 0.24479
 C361 C 0.03401 0.74856 0.30927
 C362 C 0.03326 0.78536 0.27247
 C363 C -0.00038 0.66359 0.33728
 C364 C 0.00057 0.63087 0.36966
 C365 C -0.00334 0.81281 0.18813
 C366 C -0.00333 0.84530 0.15551
 H367 H -0.08804 0.71590 0.31059
 H368 H -0.08943 0.78425 0.24223
 H369 H 0.02507 0.71312 0.16855
 H370 H 0.02645 0.64479 0.23688
 H371 H 0.05751 0.75151 0.34334
 H372 H 0.05614 0.81984 0.27502
   
