data_POSCAR
  _audit_creation_date              2014-09-24
  _audit_creation_method            'ToBaCCo'
  _symmetry_space_group_name_H-M    'P1'
  _symmetry_Int_Tables_number       1
  _symmetry_cell_setting            triclinic
  loop_
  _symmetry_equiv_pos_as_xyz
 x,y,z
_cell_length_a 40.5010
_cell_length_b 40.4862
_cell_length_c 45.6124
_cell_angle_alpha 90.073700
_cell_angle_beta 89.961900
_cell_angle_gamma 120.107700
loop_
  _atom_site_label
  _atom_site_type_symbol
  _atom_site_fract_x
  _atom_site_fract_y
  _atom_site_fract_z
O1 O 0.03663 0.54607 1.27792
 O2 O -0.03760 0.50850 1.22070
 O3 O -0.03763 0.50906 1.27781
 O4 O 0.03668 0.54551 1.22080
 O5 O 0.03642 0.49075 1.22118
 O6 O -0.03789 0.45430 1.27818
 O7 O -0.03786 0.45375 1.22107
 O8 O 0.03638 0.49132 1.27830
 Cu9 Cu -0.00045 0.53281 1.24927
 Cu10 Cu -0.00076 0.46700 1.24972
 C11 C 0.04898 0.52502 1.28781
 C12 C -0.05024 0.47480 1.21119
 C13 C -0.05024 0.47555 1.28766
 C14 C 0.04905 0.52426 1.21135
 O15 O 0.45315 0.49111 1.27899
 O16 O 0.49096 0.45464 1.22174
 O17 O 0.49027 0.45401 1.27887
 O18 O 0.45377 0.49166 1.22184
 O19 O 0.50844 0.54640 1.22233
 O20 O 0.54494 0.50875 1.27938
 O21 O 0.54561 0.50938 1.22225
 O22 O 0.50781 0.54583 1.27948
 Cu23 Cu 0.46652 0.46734 1.25031
 Cu24 Cu 0.53221 0.53311 1.25091
 C25 C 0.47412 0.52461 1.28894
 C26 C 0.52466 0.47588 1.21230
 C27 C 0.52374 0.47504 1.28877
 C28 C 0.47497 0.52535 1.21242
 O29 O 0.50882 0.96272 1.27946
 O30 O 0.54557 1.03695 1.22222
 O31 O 0.54611 1.03706 1.27936
 O32 O 0.50828 0.96263 1.22231
 O33 O 0.45368 0.96265 1.22271
 O34 O 0.49152 1.03708 1.27976
 O35 O 0.49098 1.03697 1.22262
 O36 O 0.45423 0.96274 1.27986
 Cu37 Cu 0.53270 0.99984 1.25080
 Cu38 Cu 0.46710 0.99986 1.25129
 C39 C 0.47534 0.95023 1.28936
 C40 C 0.52446 1.04944 1.21272
 C41 C 0.52518 1.04960 1.28922
 C42 C 0.47463 0.95014 1.21284
 O43 O 0.96355 0.50876 0.72063
 O44 O 1.03795 0.54649 0.77763
 O45 O 1.03787 0.54585 0.72048
 O46 O 0.96365 0.50941 0.77777
 O47 O 0.96345 0.45469 0.77817
 O48 O 1.03768 0.49114 0.72087
 O49 O 1.03776 0.49177 0.77802
 O50 O 0.96335 0.45403 0.72102
 Cu51 Cu 1.00078 0.53314 0.74908
 Cu52 Cu 1.00054 0.46739 0.74956
 C53 C 0.95093 0.47504 0.71118
 C54 C 1.05036 0.52547 0.78749
 C55 C 1.05027 0.52463 0.71096
 C56 C 0.95107 0.47593 0.78768
 O57 O 0.49137 0.45421 0.72127
 O58 O 0.45407 0.49116 0.77832
 O59 O 0.45455 0.49157 0.72119
 O60 O 0.49089 0.45381 0.77840
 O61 O 0.54571 0.50840 0.77876
 O62 O 0.50937 0.54615 0.72156
 O63 O 0.50889 0.54576 0.77869
 O64 O 0.54619 0.50880 0.72164
 Cu65 Cu 0.46718 0.46718 0.74976
 Cu66 Cu 0.53307 0.53279 0.75020
 C67 C 0.52505 0.47530 0.71179
 C68 C 0.47521 0.52467 0.78817
 C69 C 0.47584 0.52521 0.71169
 C70 C 0.52441 0.47476 0.78828
 O71 O 0.54551 0.03660 0.72081
 O72 O 0.50914 -0.03767 0.77782
 O73 O 0.50850 -0.03771 0.72069
 O74 O 0.54613 0.03663 0.77793
 O75 O 0.49140 0.03637 0.77843
 O76 O 0.45377 -0.03797 0.72118
 O77 O 0.45441 -0.03793 0.77832
 O78 O 0.49077 0.03634 0.72130
 Cu79 Cu 0.53284 -0.00052 0.74926
 Cu80 Cu 0.46706 -0.00083 0.74985
 C81 C 0.52425 0.04895 0.71140
 C82 C 0.47567 -0.05026 0.78774
 C83 C 0.47481 -0.05035 0.71122
 C84 C 0.52509 0.04900 0.78788
 O85 O 0.39129 0.65824 0.97563
 O86 O 0.38978 0.72106 0.96671
 C87 C 0.37169 0.73829 0.96123
 O88 O 0.34250 0.73304 0.97547
 O89 O 0.27970 0.66858 0.96628
 C90 C 0.26241 0.63318 0.96080
 O91 O 0.26753 0.60924 0.97512
 O92 O 0.33201 0.61101 0.96639
 C93 C 0.36745 0.62918 0.96115
 O94 O 0.38927 0.66852 1.03394
 O95 O 0.39104 0.73298 1.02504
 C96 C 0.36705 0.73813 1.03930
 O97 O 0.33169 0.72084 1.03376
 O98 O 0.26729 0.65797 1.02456
 C99 C 0.26198 0.62881 1.03884
 O100 O 0.27925 0.61071 1.03347
 O101 O 0.34208 0.60919 1.02474
 C102 C 0.37111 0.63308 1.03922
 Cr103 Cr 0.38822 0.69414 1.00032
 Cr104 Cr 0.30635 0.69405 1.00002
 Cr105 Cr 0.30628 0.61216 0.99994
 O106 O 0.33362 0.66679 1.00010
 O107 O 0.61078 0.33163 0.96688
 O108 O 0.60927 0.26720 0.97550
 C109 C 0.63311 0.26180 0.96125
 O110 O 0.66850 0.27901 0.96671
 O111 O 0.73304 0.34206 0.97527
 C112 C 0.73847 0.37136 0.96110
 O113 O 0.72135 0.38956 0.96668
 O114 O 0.65840 0.39096 0.97542
 C115 C 0.62902 0.36700 0.96131
 O116 O 0.60938 0.34186 1.02531
 O117 O 0.61101 0.27900 1.03393
 C118 C 0.62928 0.26194 1.03940
 O119 O 0.65856 0.26743 1.02515
 O120 O 0.72150 0.33206 1.03371
 C121 C 0.73859 0.36745 1.03926
 O122 O 0.73311 0.39126 1.02510
 O123 O 0.66863 0.38959 1.03383
 C124 C 0.63327 0.37128 1.03943
 Cr125 Cr 0.61228 0.30601 1.00040
 Cr126 Cr 0.69431 0.30622 1.00021
 Cr127 Cr 0.69429 0.38817 1.00026
 O128 O 0.66696 0.33347 1.00029
 O129 O 0.66791 0.38865 0.53347
 O130 O 0.73240 0.39052 0.52447
 C131 C 0.73765 0.36664 0.53875
 O132 O 0.72035 0.33123 0.53332
 O133 O 0.65755 0.26670 0.52430
 C134 C 0.62839 0.26138 0.53861
 O135 O 0.61024 0.27857 0.53323
 O136 O 0.60860 0.34135 0.52441
 C137 C 0.63249 0.37046 0.53881
 O138 O 0.65747 0.39038 0.47518
 O139 O 0.72031 0.38893 0.46617
 C140 C 0.73760 0.37088 0.46072
 O141 O 0.73242 0.34176 0.47501
 O142 O 0.66803 0.27881 0.46600
 C143 C 0.63263 0.26143 0.46058
 O144 O 0.60869 0.26660 0.47490
 O145 O 0.61031 0.33101 0.46607
 C146 C 0.62838 0.36645 0.46079
 Cr147 Cr 0.69346 0.38750 0.49982
 Cr148 Cr 0.69352 0.30568 0.49966
 Cr149 Cr 0.61158 0.30545 0.49965
 O150 O 0.66619 0.33287 0.49971
 O151 O 0.34183 0.60926 0.52469
 O152 O 0.27892 0.61072 0.53349
 C153 C 0.26182 0.62894 0.53910
 O154 O 0.26730 0.65828 0.52498
 O155 O 0.33188 0.72127 0.53358
 C156 C 0.36728 0.73844 0.53902
 O157 O 0.39108 0.73303 0.52473
 O158 O 0.38951 0.66856 0.53325
 C159 C 0.37123 0.63318 0.53880
 O160 O 0.33158 0.61073 0.46629
 O161 O 0.26715 0.60913 0.47509
 C162 C 0.26168 0.63300 0.46098
 O163 O 0.27882 0.66838 0.46655
 O164 O 0.34181 0.73297 0.47516
 C165 C 0.37107 0.73846 0.46088
 O166 O 0.38930 0.72133 0.46629
 O167 O 0.39086 0.65842 0.47481
 C168 C 0.36694 0.62901 0.46069
 Cr169 Cr 0.30596 0.61213 0.49989
 Cr170 Cr 0.30604 0.69414 0.50006
 Cr171 Cr 0.38802 0.69425 0.49978
 O172 O 0.33334 0.66684 0.49991
 C173 C 0.43394 0.56372 0.35205
 N174 N 0.40797 0.57455 0.34592
 N175 N 0.39472 0.58748 0.36713
 C176 C 0.40705 0.58998 0.39513
 N177 N 0.43302 0.57915 0.40126
 N178 N 0.44626 0.56623 0.38005
 C179 C 0.44821 0.54973 0.32924
 C180 C 0.46033 0.53794 0.31022
 C181 C 0.39277 0.60382 0.41804
 C182 C 0.38091 0.61537 0.43743
 C183 C 0.43621 0.87093 0.35244
 N184 N 0.44590 0.88142 0.38080
 N185 N 0.43301 0.85524 0.40199
 C186 C 0.41002 0.81776 0.39547
 N187 N 0.40032 0.80725 0.36711
 N188 N 0.41321 0.83344 0.34592
 C189 C 0.45012 0.89920 0.32965
 C190 C 0.46193 0.92312 0.31063
 C191 C 0.39616 0.78960 0.41834
 C192 C 0.38464 0.76614 0.43769
 C193 C 0.12961 0.56594 0.35225
 N194 N 0.11918 0.56620 0.38047
 N195 N 0.14527 0.57945 0.40173
 C196 C 0.18260 0.59285 0.39542
 N197 N 0.19304 0.59260 0.36719
 N198 N 0.16694 0.57935 0.34593
 C199 C 0.10144 0.55162 0.32939
 C200 C 0.07759 0.53951 0.31033
 C201 C 0.21065 0.60707 0.41836
 C202 C 0.23404 0.61894 0.43776
 C203 C 0.56338 0.43384 0.35275
 N204 N 0.58632 0.41941 0.34613
 N205 N 0.59916 0.40604 0.36725
 C206 C 0.58944 0.40671 0.39561
 N207 N 0.56651 0.42114 0.40223
 N208 N 0.55367 0.43451 0.38111
 C209 C 0.54956 0.44828 0.33007
 C210 C 0.53783 0.46047 0.31114
 C211 C 0.60328 0.39241 0.41838
 C212 C 0.61480 0.38049 0.43767
 C213 C 0.56562 0.12903 0.35215
 N214 N 0.57738 0.16606 0.34593
 N215 N 0.59068 0.19229 0.36712
 C216 C 0.59261 0.18225 0.39516
 N217 N 0.58086 0.14522 0.40136
 N218 N 0.56756 0.11901 0.38017
 C219 C 0.55121 0.10074 0.32940
 C220 C 0.53900 0.07677 0.31043
 C221 C 0.60681 0.21038 0.41801
 C222 C 0.61865 0.23381 0.43737
 C223 C 0.86925 0.43599 0.35198
 N224 N 0.83155 0.41545 0.34539
 N225 N 0.80550 0.40257 0.36667
 C226 C 0.81639 0.40986 0.39516
 N227 N 0.85408 0.43040 0.40174
 N228 N 0.88013 0.44327 0.38046
 C229 C 0.89734 0.44981 0.32914
 C230 C 0.92116 0.46152 0.31010
 C231 C 0.78843 0.39602 0.41809
 C232 C 0.76512 0.38448 0.43750
 C233 C 0.56609 0.43638 1.14805
 N234 N 0.57658 0.45453 1.12183
 N235 N 0.58994 0.44172 1.10063
 C236 C 0.59322 0.41035 1.10500
 N237 N 0.58273 0.39219 1.13123
 N238 N 0.56937 0.40501 1.15243
 C239 C 0.55154 0.45014 1.17083
 C240 C 0.53929 0.46182 1.18983
 C241 C 0.60743 0.39647 1.08207
 C242 C 0.61928 0.38491 1.06267
 C243 C 0.87027 0.43463 1.14826
 N244 N 0.86476 0.45904 1.13142
 N245 N 0.83866 0.44577 1.11016
 C246 C 0.81728 0.40770 1.10509
 N247 N 0.82278 0.38329 1.12193
 N248 N 0.84888 0.39655 1.14319
 C249 C 0.89864 0.44895 1.17097
 C250 C 0.92262 0.46107 1.18994
 C251 C 0.78941 0.39345 1.08201
 C252 C 0.76614 0.38155 1.06254
 C253 C 0.56437 0.13002 1.14824
 N254 N 0.58034 0.16767 1.15479
 N255 N 0.59321 0.19374 1.13352
 C256 C 0.59052 0.18296 1.10504
 N257 N 0.57457 0.14532 1.09849
 N258 N 0.56169 0.11926 1.11976
 C259 C 0.55043 0.10188 1.17112
 C260 C 0.53862 0.07804 1.19019
 C261 C 0.60430 0.21099 1.08207
 C262 C 0.61577 0.23435 1.06266
 C263 C 0.43537 0.56607 1.14805
 N264 N 0.43691 0.55690 1.11967
 N265 N 0.42414 0.57011 1.09839
 C266 C 0.40945 0.59286 1.10485
 N267 N 0.40790 0.60203 1.13323
 N268 N 0.42068 0.58882 1.15452
 C269 C 0.44920 0.55188 1.17091
 C270 C 0.46092 0.53983 1.18996
 C271 C 0.39581 0.60712 1.08190
 C272 C 0.38447 0.61901 1.06247
 C273 C 0.12989 0.56374 1.14728
 N274 N 0.12271 0.54464 1.12149
 N275 N 0.14886 0.55748 1.10028
 C276 C 0.18296 0.58980 1.10424
 N277 N 0.19015 0.60890 1.13004
 N278 N 0.16400 0.59605 1.15125
 C279 C 0.10164 0.54999 1.17000
 C280 C 0.07772 0.53830 1.18896
 C281 C 0.21097 0.60366 1.08135
 C282 C 0.23435 0.61521 1.06199
 C283 C 0.43377 0.86964 1.14837
 N284 N 0.44373 0.88026 1.12009
 N285 N 0.43051 0.85424 1.09875
 C286 C 0.40694 0.81683 1.10507
 N287 N 0.39698 0.80619 1.13336
 N288 N 0.41020 0.83222 1.15470
 C289 C 0.44799 0.89771 1.17128
 C290 C 0.46009 0.92153 1.19035
 C291 C 0.39274 0.78889 1.08207
 C292 C 0.38094 0.76561 1.06260
 C293 C 0.56564 0.43534 0.64750
 N294 N 0.58151 0.41366 0.65405
 N295 N 0.59469 0.40077 0.63278
 C296 C 0.59240 0.40919 0.60435
 N297 N 0.57653 0.43086 0.59782
 N298 N 0.56335 0.44375 0.61908
 C299 C 0.55144 0.44925 0.67033
 C300 C 0.53943 0.46108 0.68935
 C301 C 0.60658 0.39539 0.58144
 C302 C 0.61845 0.38393 0.56205
 C303 C 0.56374 0.12953 0.64716
 N304 N 0.58008 0.16717 0.65380
 N305 N 0.59287 0.19326 0.63256
 C306 C 0.58969 0.18247 0.60406
 N307 N 0.57335 0.14483 0.59743
 N308 N 0.56057 0.11875 0.61867
 C309 C 0.54995 0.10140 0.66996
 C310 C 0.53826 0.07756 0.68897
 C311 C 0.60341 0.21047 0.58117
 C312 C 0.61485 0.23382 0.56180
 C313 C 0.87002 0.43403 0.64708
 N314 N 0.88055 0.44259 0.61862
 N315 N 0.85435 0.42928 0.59745
 C316 C 0.81684 0.40700 0.60410
 N317 N 0.80630 0.39843 0.63256
 N318 N 0.83251 0.41174 0.65374
 C319 C 0.89829 0.44835 0.66982
 C320 C 0.92223 0.46048 0.68878
 C321 C 0.78870 0.39266 0.58126
 C322 C 0.76527 0.38072 0.56193
 C323 C 0.43637 0.56633 0.64737
 N324 N 0.44949 0.56961 0.61955
 N325 N 0.43666 0.58285 0.59833
 C326 C 0.41030 0.59323 0.60428
 N327 N 0.39716 0.58996 0.63210
 N328 N 0.41000 0.57672 0.65333
 C329 C 0.45015 0.55195 0.67018
 C330 C 0.46183 0.53978 0.68920
 C331 C 0.39642 0.60739 0.58137
 C332 C 0.38487 0.61921 0.56200
 C333 C 0.43472 0.87049 0.64794
 N334 N 0.44471 0.88098 0.61963
 N335 N 0.43142 0.85488 0.59834
 C336 C 0.40774 0.81749 0.60471
 N337 N 0.39775 0.80700 0.63302
 N338 N 0.41104 0.83310 0.65431
 C339 C 0.44900 0.89868 0.67082
 C340 C 0.46109 0.92256 0.68990
 C341 C 0.39339 0.78944 0.58173
 C342 C 0.38142 0.76606 0.56229
 C343 C 0.12953 0.56355 0.64778
 N344 N 0.11912 0.55316 0.61950
 N345 N 0.14527 0.56606 0.59828
 C346 C 0.18265 0.58975 0.60467
 N347 N 0.19307 0.60015 0.63295
 N348 N 0.16691 0.58724 0.65418
 C349 C 0.10128 0.54967 0.67061
 C350 C 0.07737 0.53793 0.68965
 C351 C 0.21077 0.60368 0.58175
 C352 C 0.23419 0.61527 0.56235
 C353 C 0.43471 0.56475 0.85244
 N354 N 0.40789 0.57449 0.84652
 N355 N 0.39465 0.58732 0.86780
 C356 C 0.40786 0.59079 0.89560
 N357 N 0.43469 0.58106 0.90150
 N358 N 0.44792 0.56822 0.88024
 C359 C 0.44885 0.55076 0.82963
 C360 C 0.46084 0.53890 0.81061
 C361 C 0.39355 0.60442 0.91854
 C362 C 0.38159 0.61578 0.93794
 C363 C 0.13090 0.56642 0.85185
 N364 N 0.12055 0.56768 0.87993
 N365 N 0.14657 0.58089 0.90122
 C366 C 0.18374 0.59324 0.89508
 N367 N 0.19411 0.59200 0.86700
 N368 N 0.16807 0.57878 0.84570
 C369 C 0.10281 0.55211 0.82899
 C370 C 0.07898 0.54000 0.80994
 C371 C 0.21168 0.60739 0.91805
 C372 C 0.23495 0.61921 0.93750
 C373 C 0.43642 0.86949 0.85222
 N374 N 0.44662 0.88028 0.88046
 N375 N 0.43387 0.85434 0.90180
 C376 C 0.41055 0.81685 0.89554
 N377 N 0.40035 0.80605 0.86730
 N378 N 0.41310 0.83199 0.84595
 C379 C 0.45010 0.89747 0.82931
 C380 C 0.46171 0.92121 0.81023
 C381 C 0.39679 0.78901 0.91855
 C382 C 0.38530 0.76577 0.93799
 C383 C 0.56390 0.43373 0.85265
 N384 N 0.58660 0.41897 0.84617
 N385 N 0.59944 0.40574 0.86741
 C386 C 0.58996 0.40687 0.89578
 N387 N 0.56726 0.42163 0.90225
 N388 N 0.55443 0.43485 0.88101
 C389 C 0.55010 0.44806 0.82982
 C390 C 0.53842 0.46020 0.81077
 C391 C 0.60382 0.39272 0.91870
 C392 C 0.61537 0.38092 0.93809
 C393 C 0.87037 0.43644 0.85214
 N394 N 0.87859 0.45396 0.87867
 N395 N 0.85252 0.44114 0.89995
 C396 C 0.81740 0.41038 0.89536
 N397 N 0.80916 0.39285 0.86883
 N398 N 0.83524 0.40568 0.84754
 C399 C 0.89858 0.45021 0.82929
 C400 C 0.92244 0.46189 0.81022
 C401 C 0.78939 0.39651 0.91837
 C402 C 0.76605 0.38496 0.93781
 C403 C 0.56596 0.12968 0.85239
 N404 N 0.58417 0.16743 0.84580
 N405 N 0.59742 0.19354 0.86709
 C406 C 0.59285 0.18269 0.89562
 N407 N 0.57464 0.14494 0.90220
 N408 N 0.56140 0.11884 0.88092
 C409 C 0.55168 0.10150 0.82950
 C410 C 0.53959 0.07764 0.81042
 C411 C 0.60711 0.21075 0.91859
 C412 C 0.61902 0.23416 0.93800
   
