data_POSCAR
  _audit_creation_date              2014-09-24
  _audit_creation_method            'ToBaCCo'
  _symmetry_space_group_name_H-M    'P1'
  _symmetry_Int_Tables_number       1
  _symmetry_cell_setting            triclinic
  loop_
  _symmetry_equiv_pos_as_xyz
 x,y,z
_cell_length_a 59.3336
_cell_length_b 59.0997
_cell_length_c 27.7674
_cell_angle_alpha 89.961600
_cell_angle_beta 90.013400
_cell_angle_gamma 119.710700
loop_
  _atom_site_label
  _atom_site_type_symbol
  _atom_site_fract_x
  _atom_site_fract_y
  _atom_site_fract_z
C1 C 0.49980 1.00050 0.47683
 C2 C 0.49913 1.00045 0.52589
 C3 C 0.48687 0.97585 0.55409
 C4 C 0.51062 1.02500 0.55419
 C5 C 0.51326 1.02511 0.44875
 C6 C 0.48697 0.97596 0.44846
 C7 C 0.46730 0.97126 0.58712
 C8 C 0.45555 0.94838 0.61424
 C9 C 0.46312 0.92914 0.60964
 C10 C 0.48330 0.93443 0.57625
 C11 C 0.49495 0.95740 0.54915
 C12 C 0.50294 1.04371 0.54667
 C13 C 0.51402 1.06669 0.57373
 C14 C 0.53278 1.07123 0.60910
 C15 C 0.54004 1.05221 0.61701
 C16 C 0.52902 1.02933 0.58992
 C17 C 0.53958 1.04318 0.45644
 C18 C 0.55180 1.06631 0.42984
 C19 C 0.53795 1.07166 0.39477
 C20 C 0.51174 1.05325 0.38662
 C21 C 0.49956 1.03021 0.41325
 C22 C 0.50133 0.97107 0.41410
 C23 C 0.48962 0.94827 0.38676
 C24 C 0.46322 0.92988 0.39308
 C25 C 0.44877 0.93498 0.42720
 C26 C 0.46050 0.95788 0.45441
 H27 H 0.46109 0.98553 0.59205
 H28 H 0.44149 0.94693 0.64053
 H29 H 0.48967 0.92056 0.56864
 H30 H 0.51025 0.96071 0.52401
 H31 H 0.48841 1.04052 0.51985
 H32 H 0.50810 1.08100 0.56664
 H33 H 0.53499 1.01500 0.59662
 H34 H 0.55063 1.03939 0.48311
 H35 H 0.57197 1.08015 0.43709
 H36 H 0.50068 1.05653 0.35921
 H37 H 0.47931 1.01639 0.40643
 H38 H 0.52171 0.98491 0.40859
 H39 H 0.50117 0.94522 0.36013
 H40 H 0.42844 0.92116 0.43313
 H41 H 0.44893 0.96153 0.48007
 H42 H 0.55402 1.05486 0.64463
 C43 C -0.00026 0.49956 0.47605
 C44 C -0.00070 0.49947 0.52513
 C45 C 0.02351 0.51246 0.55413
 C46 C -0.02544 0.48633 0.55258
 C47 C -0.02450 0.48791 0.44711
 C48 C 0.02445 0.51132 0.44848
 C49 C 0.02800 0.49821 0.58951
 C50 C 0.05062 0.50998 0.61711
 C51 C 0.06923 0.53633 0.61003
 C52 C 0.06451 0.55070 0.57503
 C53 C 0.04178 0.53891 0.54751
 C54 C -0.04347 0.45986 0.54547
 C55 C -0.06661 0.44786 0.57176
 C56 C -0.07202 0.46206 0.60600
 C57 C -0.05370 0.48845 0.61348
 C58 C -0.03065 0.50042 0.58713
 C59 C -0.04276 0.49622 0.45242
 C60 C -0.06540 0.48511 0.42467
 C61 C -0.07038 0.46539 0.39051
 C62 C -0.05152 0.45755 0.38529
 C63 C -0.02895 0.46873 0.41302
 C64 C 0.02917 0.53022 0.41336
 C65 C 0.05220 0.54148 0.38692
 C66 C 0.07099 0.53399 0.39490
 C67 C 0.06607 0.51477 0.42970
 C68 C 0.04295 0.50344 0.45607
 H69 H 0.01401 0.47786 0.59553
 H70 H 0.05340 0.49851 0.64443
 H71 H 0.07850 0.57098 0.56853
 H72 H 0.03846 0.55038 0.52099
 H73 H -0.03960 0.44850 0.51959
 H74 H -0.08037 0.42754 0.56499
 H75 H -0.01687 0.52079 0.59351
 H76 H -0.03951 0.51126 0.47825
 H77 H -0.07927 0.49151 0.43169
 H78 H -0.05338 0.44350 0.35841
 H79 H -0.01486 0.46235 0.40787
 H80 H 0.01503 0.53637 0.40660
 H81 H 0.05513 0.55582 0.35972
 H82 H 0.08020 0.50867 0.43686
 H83 H 0.03947 0.48852 0.48240
 H84 H -0.05702 0.49980 0.64025
 C85 C 0.50081 0.50140 0.47708
 C86 C 0.49941 0.50031 0.52587
 C87 C 0.48614 0.51192 0.55281
 C88 C 0.51106 0.48766 0.55484
 C89 C 0.51407 0.49001 0.44920
 C90 C 0.48895 0.51409 0.44905
 C91 C 0.49723 0.53895 0.55670
 C92 C 0.48505 0.54972 0.58392
 C93 C 0.46124 0.53366 0.60788
 C94 C 0.45015 0.50635 0.60245
 C95 C 0.46258 0.49573 0.57575
 C96 C 0.53018 0.50233 0.58884
 C97 C 0.54173 0.49097 0.61606
 C98 C 0.53422 0.46437 0.61053
 C99 C 0.51451 0.44968 0.57659
 C100 C 0.50315 0.46122 0.54913
 C101 C 0.50016 0.47096 0.41437
 C102 C 0.51219 0.45981 0.38799
 C103 C 0.53848 0.46767 0.39563
 C104 C 0.55252 0.48708 0.43009
 C105 C 0.54042 0.49819 0.45661
 C106 C 0.46200 0.50188 0.44294
 C107 C 0.45110 0.51357 0.41466
 C108 C 0.46698 0.53785 0.39245
 C109 C 0.49399 0.55019 0.39975
 C110 C 0.50486 0.53827 0.42737
 H111 H 0.51565 0.55170 0.53952
 H112 H 0.49526 0.57066 0.58760
 H113 H 0.43143 0.49279 0.61744
 H114 H 0.45366 0.47476 0.57254
 H115 H 0.53632 0.52274 0.59414
 H116 H 0.55581 0.50309 0.64279
 H117 H 0.48825 0.44953 0.52316
 H118 H 0.47986 0.46452 0.40792
 H119 H 0.50099 0.44525 0.36112
 H120 H 0.57277 0.49345 0.43687
 H121 H 0.55158 0.51315 0.48289
 H122 H 0.44951 0.48309 0.45933
 H123 H 0.43030 0.50328 0.40929
 H124 H 0.50680 0.56911 0.38424
 H125 H 0.52572 0.54796 0.43207
 H126 H 0.50838 0.42946 0.56947
 O127 O 0.37086 0.66105 -0.04234
 O128 O 0.36927 0.70380 -0.05646
 C129 C 0.35699 0.71585 -0.06464
 O130 O 0.33730 0.71204 -0.04018
 O131 O 0.29456 0.66788 -0.05328
 C132 C 0.28268 0.64363 -0.06188
 O133 O 0.28690 0.62758 -0.03846
 O134 O 0.33063 0.62830 -0.05404
 C135 C 0.35456 0.64060 -0.06449
 O136 O 0.37115 0.66851 0.05347
 O137 O 0.37150 0.71236 0.03944
 C138 C 0.35558 0.71632 0.06370
 O139 O 0.33137 0.70427 0.05570
 O140 O 0.28744 0.66133 0.04268
 C141 C 0.28387 0.64141 0.06640
 O142 O 0.29589 0.62922 0.05718
 O143 O 0.33858 0.62808 0.04158
 C144 C 0.35905 0.64443 0.06354
 Cr145 Cr 0.36922 0.68569 -0.00138
 Cr146 Cr 0.31342 0.68563 0.00119
 Cr147 Cr 0.31373 0.62978 0.00151
 O148 O 0.33213 0.66701 0.00046
 O149 O 0.62787 0.34023 -0.03767
 O150 O 0.62843 0.29689 -0.05197
 C151 C 0.64038 0.28462 -0.06141
 O152 O 0.66058 0.28843 -0.03866
 O153 O 0.70328 0.33199 -0.05564
 C154 C 0.71531 0.35613 -0.06524
 O155 O 0.71186 0.37262 -0.04169
 O156 O 0.66794 0.37185 -0.05489
 C157 C 0.64369 0.35981 -0.06252
 O158 O 0.63034 0.33398 0.05813
 O159 O 0.62871 0.28957 0.04384
 C160 C 0.64502 0.28565 0.06676
 O161 O 0.66901 0.29738 0.05672
 O162 O 0.71271 0.33995 0.03968
 C163 C 0.71692 0.36021 0.06297
 O164 O 0.70495 0.37255 0.05432
 O165 O 0.66216 0.37404 0.04103
 C166 C 0.64266 0.35830 0.06600
 Cr167 Cr 0.63029 0.31588 0.00301
 Cr168 Cr 0.68567 0.31518 0.00055
 Cr169 Cr 0.68600 0.37131 -0.00026
 O170 O 0.66732 0.33411 0.00110
 C171 C 0.42842 0.86106 -0.30426
 C172 C 0.41581 0.87544 -0.31232
 C173 C 0.42708 0.89772 -0.34118
 C174 C 0.45163 0.90669 -0.36331
 C175 C 0.46378 0.89146 -0.35569
 C176 C 0.45240 0.86919 -0.32665
 C177 C 0.41684 0.83810 -0.27177
 N178 N 0.42915 0.82431 -0.26298
 N179 N 0.41911 0.80424 -0.23253
 C180 C 0.39633 0.79709 -0.20955
 N181 N 0.38395 0.81077 -0.21859
 N182 N 0.39398 0.83083 -0.24903
 C183 C 0.38560 0.77541 -0.17420
 C184 C 0.36267 0.76896 -0.14890
 C185 C 0.35318 0.74938 -0.11394
 C186 C 0.36637 0.73571 -0.10343
 C187 C 0.38902 0.74177 -0.12943
 C188 C 0.39853 0.76140 -0.16437
 H189 H 0.39705 0.86950 -0.29631
 H190 H 0.41554 0.90695 -0.34726
 H191 H 0.48290 0.89718 -0.36937
 H192 H 0.46277 0.85863 -0.32103
 H193 H 0.35215 0.77928 -0.15559
 H194 H 0.33564 0.74517 -0.09475
 H195 H 0.39964 0.73160 -0.12235
 H196 H 0.41620 0.76578 -0.18325
 C197 C 0.13790 0.57128 -0.30113
 C198 C 0.12811 0.54594 -0.31939
 C199 C 0.10611 0.53481 -0.34877
 C200 C 0.09329 0.54869 -0.36048
 C201 C 0.10332 0.57420 -0.34293
 C202 C 0.12539 0.58538 -0.31364
 C203 C 0.16059 0.58262 -0.26828
 N204 N 0.17126 0.60768 -0.25297
 N205 N 0.19116 0.61757 -0.22235
 C206 C 0.20122 0.60283 -0.20564
 N207 N 0.19063 0.57782 -0.22113
 N208 N 0.17077 0.56794 -0.25181
 C209 C 0.22279 0.61353 -0.17028
 C210 C 0.23093 0.59729 -0.14854
 C211 C 0.25053 0.60711 -0.11377
 C212 C 0.26257 0.63345 -0.10006
 C213 C 0.25477 0.64981 -0.12244
 C214 C 0.23507 0.63995 -0.15704
 H215 H 0.13735 0.53459 -0.31083
 H216 H 0.09917 0.51530 -0.36243
 H217 H 0.09374 0.58530 -0.35085
 H218 H 0.13236 0.60492 -0.30013
 H219 H 0.22192 0.57685 -0.15786
 H220 H 0.25612 0.59399 -0.09741
 H221 H 0.26364 0.67020 -0.11277
 H222 H 0.22936 0.65304 -0.17316
 C223 C 0.42580 0.56629 -0.30305
 C224 C 0.41963 0.54028 -0.29741
 C225 C 0.43115 0.52960 -0.32653
 C226 C 0.44912 0.54449 -0.36298
 C227 C 0.45482 0.57061 -0.36875
 C228 C 0.44348 0.58132 -0.33907
 C229 C 0.41422 0.57773 -0.27078
 N230 N 0.42505 0.60396 -0.26626
 N231 N 0.41511 0.61417 -0.23590
 C232 C 0.39383 0.59857 -0.20904
 N233 N 0.38287 0.57235 -0.21393
 N234 N 0.39289 0.56214 -0.24405
 C235 C 0.38326 0.60980 -0.17399
 C236 C 0.35839 0.59437 -0.15427
 C237 C 0.34883 0.60456 -0.11957
 C238 C 0.36408 0.63033 -0.10333
 C239 C 0.38881 0.64589 -0.12355
 C240 C 0.39823 0.63578 -0.15873
 H241 H 0.40633 0.52825 -0.26949
 H242 H 0.42658 0.50991 -0.31830
 H243 H 0.46742 0.58291 -0.39707
 H244 H 0.44838 0.60138 -0.34476
 H245 H 0.34631 0.57432 -0.16546
 H246 H 0.32971 0.59206 -0.10469
 H247 H 0.40098 0.66586 -0.11198
 H248 H 0.41749 0.64817 -0.17315
 C249 C 0.56682 0.14036 -0.30268
 C250 C 0.58208 0.13017 -0.32080
 C251 C 0.57111 0.10805 -0.35005
 C252 C 0.54461 0.09552 -0.36183
 C253 C 0.52943 0.10599 -0.34458
 C254 C 0.54042 0.12818 -0.31535
 C255 C 0.57827 0.16307 -0.26968
 N256 N 0.56408 0.17387 -0.25372
 N257 N 0.57418 0.19373 -0.22282
 C258 C 0.59888 0.20358 -0.20648
 N259 N 0.61309 0.19287 -0.22266
 N260 N 0.60302 0.17307 -0.25360
 C261 C 0.60986 0.22504 -0.17074
 C262 C 0.63421 0.23295 -0.14972
 C263 C 0.64418 0.25243 -0.11463
 C264 C 0.63012 0.26459 -0.09983
 C265 C 0.60598 0.25702 -0.12145
 C266 C 0.59593 0.23742 -0.15640
 H267 H 0.60252 0.13915 -0.31212
 H268 H 0.58343 0.10075 -0.36349
 H269 H 0.50890 0.09664 -0.35261
 H270 H 0.52809 0.13547 -0.30200
 H271 H 0.64549 0.22387 -0.15988
 H272 H 0.66289 0.25786 -0.09890
 H273 H 0.59464 0.26599 -0.11092
 H274 H 0.57716 0.23187 -0.17194
 C275 C 0.85842 0.42658 -0.30759
 C276 C 0.87129 0.41270 -0.31901
 C277 C 0.89362 0.42402 -0.34765
 C278 C 0.90354 0.44945 -0.36560
 C279 C 0.89031 0.46307 -0.35513
 C280 C 0.86806 0.45180 -0.32642
 C281 C 0.83560 0.41524 -0.27502
 N282 N 0.82511 0.42981 -0.25957
 N283 N 0.80528 0.42004 -0.22884
 C284 C 0.79502 0.39525 -0.21226
 N285 N 0.80535 0.38058 -0.22802
 N286 N 0.82524 0.39037 -0.25870
 C287 C 0.77366 0.38481 -0.17646
 C288 C 0.76168 0.35859 -0.16191
 C289 C 0.74237 0.34912 -0.12651
 C290 C 0.73472 0.36570 -0.10464
 C291 C 0.74638 0.39179 -0.11982
 C292 C 0.76555 0.40120 -0.15538
 H293 H 0.86444 0.39326 -0.30505
 H294 H 0.90350 0.41312 -0.35465
 H295 H 0.89718 0.48251 -0.36915
 H296 H 0.85854 0.46299 -0.31872
 H297 H 0.76738 0.34539 -0.17752
 H298 H 0.73378 0.32891 -0.11569
 H299 H 0.74086 0.40507 -0.10392
 H300 H 0.77432 0.42150 -0.16571
 C301 C 0.56900 0.43039 -0.30255
 C302 C 0.54397 0.41496 -0.32144
 C303 C 0.53268 0.42594 -0.35063
 C304 C 0.54599 0.45286 -0.36145
 C305 C 0.57135 0.46806 -0.34286
 C306 C 0.58264 0.45699 -0.31408
 C307 C 0.58062 0.41902 -0.27002
 N308 N 0.60565 0.43339 -0.25526
 N309 N 0.61587 0.42354 -0.22475
 C310 C 0.60147 0.39889 -0.20757
 N311 N 0.57648 0.38446 -0.22254
 N312 N 0.56628 0.39429 -0.25316
 C313 C 0.61255 0.38832 -0.17208
 C314 C 0.59666 0.36435 -0.14918
 C315 C 0.60683 0.35498 -0.11405
 C316 C 0.63318 0.36928 -0.10115
 C317 C 0.64921 0.39299 -0.12479
 C318 C 0.63900 0.40244 -0.15973
 H319 H 0.53287 0.39437 -0.31320
 H320 H 0.51296 0.41329 -0.36245
 H321 H 0.58312 0.48851 -0.35154
 H322 H 0.60209 0.46944 -0.30056
 H323 H 0.57622 0.35296 -0.15780
 H324 H 0.59396 0.33658 -0.09675
 H325 H 0.66959 0.40449 -0.11577
 H326 H 0.65182 0.42092 -0.17677
 C327 C 0.86180 0.43175 0.30212
 C328 C 0.87111 0.45658 0.32229
 C329 C 0.89311 0.46752 0.35180
 C330 C 0.90666 0.45400 0.36197
 C331 C 0.89673 0.42879 0.34219
 C332 C 0.87474 0.41792 0.31284
 C333 C 0.83911 0.42050 0.26924
 N334 N 0.83087 0.39690 0.24838
 N335 N 0.81101 0.38705 0.21773
 C336 C 0.79849 0.40036 0.20657
 N337 N 0.80662 0.42390 0.22764
 N338 N 0.82651 0.43376 0.25831
 C339 C 0.77692 0.38968 0.17120
 C340 C 0.76373 0.40325 0.15981
 C341 C 0.74403 0.39355 0.12517
 C342 C 0.73710 0.37008 0.10103
 C343 C 0.75004 0.35634 0.11296
 C344 C 0.76967 0.36600 0.14762
 H345 H 0.86168 0.46786 0.31463
 H346 H 0.90000 0.48717 0.36442
 H347 H 0.90528 0.41678 0.35031
 H348 H 0.86792 0.39857 0.29848
 H349 H 0.76876 0.42151 0.17734
 H350 H 0.73444 0.40462 0.11693
 H351 H 0.74515 0.33815 0.09523
 H352 H 0.77936 0.35498 0.15550
 C353 C 0.57386 0.14151 0.30838
 C354 C 0.58761 0.12858 0.32038
 C355 C 0.57615 0.10615 0.34903
 C356 C 0.55071 0.09618 0.36635
 C357 C 0.53721 0.10946 0.35528
 C358 C 0.54862 0.13182 0.32662
 C359 C 0.58535 0.16445 0.27586
 N360 N 0.57102 0.17520 0.26046
 N361 N 0.58090 0.19515 0.22980
 C362 C 0.60558 0.20527 0.21323
 N363 N 0.62000 0.19466 0.22893
 N364 N 0.61009 0.17466 0.25955
 C365 C 0.61613 0.22677 0.17753
 C366 C 0.64217 0.23847 0.16260
 C367 C 0.65171 0.25793 0.12733
 C368 C 0.63540 0.26604 0.10598
 C369 C 0.60950 0.25467 0.12153
 C370 C 0.60001 0.23533 0.15695
 H371 H 0.60706 0.13547 0.30692
 H372 H 0.58696 0.09622 0.35654
 H373 H 0.51776 0.10256 0.36881
 H374 H 0.53752 0.14138 0.31846
 H375 H 0.65515 0.23242 0.17781
 H376 H 0.67177 0.26630 0.11621
 H377 H 0.59643 0.26054 0.10605
 H378 H 0.57987 0.22680 0.16758
 C379 C 0.57400 0.43349 0.30868
 C380 C 0.54927 0.41788 0.32892
 C381 C 0.53797 0.42893 0.35774
 C382 C 0.55113 0.45582 0.36714
 C383 C 0.57610 0.47136 0.34791
 C384 C 0.58739 0.46032 0.31893
 C385 C 0.58533 0.42196 0.27588
 N386 N 0.60841 0.43721 0.25365
 N387 N 0.61808 0.42699 0.22273
 C388 C 0.60510 0.40109 0.21272
 N389 N 0.58212 0.38581 0.23524
 N390 N 0.57244 0.39603 0.26613
 C391 C 0.61534 0.38990 0.17680
 C392 C 0.60194 0.36306 0.16666
 C393 C 0.61100 0.35272 0.13125
 C394 C 0.63363 0.36899 0.10506
 C395 C 0.64728 0.39575 0.11582
 C396 C 0.63826 0.40607 0.15127
 H397 H 0.53844 0.39714 0.32202
 H398 H 0.51887 0.41640 0.37267
 H399 H 0.58661 0.49217 0.35420
 H400 H 0.60647 0.47293 0.30401
 H401 H 0.58427 0.35001 0.18570
 H402 H 0.60004 0.33201 0.12398
 H403 H 0.66484 0.40884 0.09651
 H404 H 0.64911 0.42682 0.15817
 C405 C 0.14047 0.56858 0.30822
 C406 C 0.12819 0.54200 0.32044
 C407 C 0.10590 0.53084 0.34916
 C408 C 0.09541 0.54602 0.36642
 C409 C 0.10804 0.57271 0.35514
 C410 C 0.13026 0.58384 0.32634
 C411 C 0.16326 0.58016 0.27560
 N412 N 0.17316 0.60496 0.25926
 N413 N 0.19299 0.61510 0.22852
 C414 C 0.20384 0.60089 0.21285
 N415 N 0.19409 0.57616 0.22950
 N416 N 0.17421 0.56600 0.26017
 C417 C 0.22523 0.61184 0.17713
 C418 C 0.23772 0.59790 0.16351
 C419 C 0.25709 0.60772 0.12826
 C420 C 0.26433 0.63164 0.10558
 C421 C 0.25216 0.64580 0.11980
 C422 C 0.23290 0.63605 0.15523
 H423 H 0.13549 0.52965 0.30704
 H424 H 0.09648 0.51017 0.35677
 H425 H 0.10073 0.58504 0.36861
 H426 H 0.13932 0.60441 0.31801
 H427 H 0.23239 0.57925 0.17976
 H428 H 0.26608 0.59632 0.11822
 H429 H 0.25734 0.66435 0.10325
 H430 H 0.22373 0.64733 0.16485
 C431 C 0.42824 0.86101 0.30408
 C432 C 0.45330 0.87049 0.32303
 C433 C 0.46443 0.89254 0.35250
 C434 C 0.45084 0.90573 0.36358
 C435 C 0.42562 0.89601 0.34531
 C436 C 0.41442 0.87388 0.31597
 C437 C 0.41689 0.83828 0.27114
 N438 N 0.39194 0.82769 0.25582
 N439 N 0.38202 0.80777 0.22510
 C440 C 0.39664 0.79762 0.20829
 N441 N 0.42154 0.80813 0.22379
 N442 N 0.43144 0.82801 0.25459
 C443 C 0.38589 0.77605 0.17277
 C444 C 0.40204 0.76805 0.15040
 C445 C 0.39215 0.74848 0.11541
 C446 C 0.36585 0.73635 0.10214
 C447 C 0.34959 0.74399 0.12520
 C448 C 0.35951 0.76366 0.15999
 H449 H 0.46442 0.86096 0.31495
 H450 H 0.48371 0.89924 0.36671
 H451 H 0.41474 0.90589 0.35267
 H452 H 0.39511 0.86717 0.30191
 H453 H 0.42245 0.77715 0.15936
 H454 H 0.40520 0.74300 0.09852
 H455 H 0.32923 0.73505 0.11589
 H456 H 0.34649 0.76926 0.17661
 C457 C 0.43388 0.57263 0.30000
 C458 C 0.45844 0.57568 0.29012
 C459 C 0.46905 0.56433 0.31993
 C460 C 0.45557 0.55000 0.36092
 C461 C 0.43107 0.54719 0.37104
 C462 C 0.42026 0.55822 0.34071
 C463 C 0.42252 0.58421 0.26755
 N464 N 0.39651 0.57499 0.26662
 N465 N 0.38629 0.58497 0.23633
 C466 C 0.40169 0.60471 0.20602
 N467 N 0.42771 0.61405 0.20728
 N468 N 0.43790 0.60396 0.23729
 C469 C 0.39040 0.61538 0.17136
 C470 C 0.40602 0.63986 0.14997
 C471 C 0.39567 0.64955 0.11581
 C472 C 0.36956 0.63478 0.10172
 C473 C 0.35385 0.61042 0.12348
 C474 C 0.36411 0.60091 0.15824
 H475 H 0.46930 0.58644 0.25872
 H476 H 0.48767 0.56644 0.31025
 H477 H 0.42030 0.53670 0.40267
 H478 H 0.40137 0.55570 0.34944
 H479 H 0.42632 0.65153 0.15953
 H480 H 0.40829 0.66836 0.09963
 H481 H 0.33362 0.59866 0.11354
 H482 H 0.35159 0.58196 0.17400
   
