data_POSCAR
  _audit_creation_date              2014-09-24
  _audit_creation_method            'ToBaCCo'
  _symmetry_space_group_name_H-M    'P1'
  _symmetry_Int_Tables_number       1
  _symmetry_cell_setting            triclinic
  loop_
  _symmetry_equiv_pos_as_xyz
 x,y,z
_cell_length_a 36.3421
_cell_length_b 36.2456
_cell_length_c 44.6425
_cell_angle_alpha 89.954600
_cell_angle_beta 89.025100
_cell_angle_gamma 90.079300
loop_
  _atom_site_label
  _atom_site_type_symbol
  _atom_site_fract_x
  _atom_site_fract_y
  _atom_site_fract_z
C1 C 0.00056 0.53554 1.01663
 C2 C 0.00014 0.53550 0.98498
 C3 C -0.00022 0.50188 0.96949
 C4 C 0.00000 0.46835 0.98510
 C5 C 0.00074 0.46836 1.01668
 C6 C 0.00094 0.50195 1.03222
 H7 H 0.00139 0.50195 1.05654
 H8 H -0.00067 0.50173 0.94518
 C9 C 0.46675 -0.00451 0.51498
 C10 C 0.46735 -0.00408 0.48343
 C11 C 0.50109 -0.00409 0.46779
 C12 C 0.53429 -0.00434 0.48332
 C13 C 0.53367 -0.00447 0.51493
 C14 C 0.49989 -0.00464 0.53053
 H15 H 0.49940 -0.00481 0.55483
 H16 H 0.50143 -0.00384 0.44347
 C17 C 0.08003 0.00577 0.26055
 H18 H 0.08162 0.00719 0.23635
 C19 C 0.11220 0.00650 0.27719
 H20 H 0.13871 0.00839 0.26582
 C21 C 0.04355 0.00175 0.30500
 H22 H 0.01677 0.00035 0.31578
 C23 C 0.07506 0.00241 0.32250
 H24 H 0.07247 0.00117 0.34669
 N25 N 0.04661 0.00289 0.27458
 C26 C -0.02479 -0.04759 0.20848
 H27 H -0.04689 -0.02765 0.20792
 C28 C -0.02654 -0.07947 0.19098
 H29 H -0.04998 -0.08410 0.17678
 C30 C 0.03250 -0.06638 0.22805
 H31 H 0.05515 -0.06158 0.24290
 C32 C 0.03182 -0.09860 0.21094
 H33 H 0.05413 -0.11828 0.21244
 Zn34 Zn 0.00459 0.00181 0.25008
 N35 N 0.00462 -0.04146 0.22630
 C36 C 0.00582 0.04225 0.19523
 N37 N 0.00627 0.04455 0.22567
 C38 C 0.00880 0.07771 0.23977
 C39 C 0.00986 0.11038 0.22320
 C40 C 0.00684 0.07429 0.17780
 C41 C -0.04573 -0.02863 0.29156
 C42 C -0.07798 -0.03080 0.30897
 C43 C -0.09654 0.02817 0.28900
 C44 C -0.06397 0.02926 0.27198
 N45 N -0.03916 0.00127 0.27378
 H46 H 0.00469 0.01567 0.18439
 H47 H 0.00966 0.07869 0.26397
 H48 H 0.01145 0.13668 0.23463
 H49 H 0.00613 0.07230 0.15361
 H50 H -0.02585 -0.05080 0.29216
 H51 H -0.08297 -0.05463 0.32313
 H52 H -0.11614 0.05057 0.28745
 H53 H -0.05880 0.05231 0.25716
 C54 C 0.00208 -0.10515 0.19220
 C55 C 0.10968 0.00460 0.30844
 C56 C -0.10356 -0.00208 0.30769
 C57 C 0.00866 0.10865 0.19195
 C58 C -0.00882 0.07689 0.76030
 H59 H -0.00980 0.07794 0.73610
 C60 C -0.00980 0.10952 0.77689
 H61 H -0.01143 0.13584 0.76549
 C62 C -0.00565 0.04132 0.80481
 H63 H -0.00447 0.01471 0.81563
 C64 C -0.00657 0.07331 0.82225
 H65 H -0.00575 0.07125 0.84644
 N66 N -0.00623 0.04370 0.77437
 C67 C 0.04538 -0.02922 0.70830
 H68 H 0.02552 -0.05147 0.70782
 C69 C 0.07749 -0.03124 0.69071
 H70 H 0.08238 -0.05503 0.67653
 C71 C 0.06373 0.02872 0.72774
 H72 H 0.05865 0.05174 0.74256
 C73 C 0.09616 0.02778 0.71053
 H74 H 0.11573 0.05026 0.71194
 Zn75 Zn -0.00468 0.00101 0.74996
 N76 N 0.03893 0.00064 0.72609
 C77 C -0.04393 0.00095 0.69518
 N78 N -0.04684 0.00201 0.72561
 C79 C -0.08020 0.00475 0.73975
 C80 C -0.11245 0.00541 0.72322
 C81 C -0.07553 0.00155 0.67778
 C82 C 0.02494 -0.04835 0.79146
 C83 C 0.02677 -0.08020 0.80901
 C84 C -0.03173 -0.09947 0.78932
 C85 C -0.03248 -0.06728 0.77214
 N86 N -0.00457 -0.04229 0.77375
 H87 H -0.01720 -0.00033 0.68431
 H88 H -0.08167 0.00611 0.76395
 H89 H -0.13891 0.00718 0.73467
 H90 H -0.07306 0.00038 0.65358
 H91 H 0.04705 -0.02835 0.79191
 H92 H 0.05028 -0.08477 0.82314
 H93 H -0.05407 -0.11919 0.78795
 H94 H -0.05522 -0.06253 0.75738
 C95 C 0.10305 -0.00242 0.69182
 C96 C -0.00845 0.10770 0.80814
 C97 C -0.00189 -0.10594 0.80795
 C98 C -0.11008 0.00360 0.69196
 C99 C 0.00048 -0.43221 0.03252
 C100 C 0.00030 -0.40356 0.04621
 C101 C -0.00001 -0.36921 0.06233
 C102 C -0.01180 -0.36823 0.09231
 C103 C -0.01219 -0.33485 0.10797
 C104 C -0.00077 -0.30196 0.09382
 C105 C 0.01100 -0.30325 0.06364
 C106 C 0.01136 -0.33667 0.04802
 C107 C -0.00090 -0.26656 0.11055
 C108 C 0.02827 -0.24127 0.10693
 C109 C 0.02843 -0.20824 0.12308
 C110 C -0.00055 -0.20000 0.14300
 C111 C -0.02980 -0.22484 0.14662
 C112 C -0.03000 -0.25790 0.13051
 C113 C 0.00007 -0.16637 0.16010
 C114 C 0.00083 -0.13836 0.17462
 H115 H -0.02059 -0.39328 0.10362
 H116 H -0.02091 -0.33485 0.13129
 H117 H 0.01953 -0.27836 0.05201
 H118 H 0.02045 -0.33713 0.02478
 H119 H 0.05129 -0.24735 0.09203
 H120 H 0.05128 -0.18927 0.12020
 H121 H -0.05239 -0.21870 0.16195
 H122 H -0.05307 -0.27656 0.13349
 C123 C 0.00143 0.43609 0.03250
 C124 C 0.00217 0.40745 0.04621
 C125 C 0.00318 0.37317 0.06242
 C126 C 0.01332 0.34058 0.04767
 C127 C 0.01447 0.30727 0.06345
 C128 C 0.00555 0.30616 0.09424
 C129 C -0.00467 0.33909 0.10883
 C130 C -0.00585 0.37235 0.09300
 C131 C 0.00689 0.27086 0.11110
 C132 C 0.02091 0.26984 0.14029
 C133 C 0.02177 0.23671 0.15631
 C134 C 0.00868 0.20418 0.14341
 C135 C -0.00515 0.20484 0.11435
 C136 C -0.00602 0.23794 0.09827
 C137 C 0.00895 0.17028 0.16021
 C138 C 0.00896 0.14207 0.17454
 H139 H 0.02050 0.34095 0.02402
 H140 H 0.02287 0.28249 0.05167
 H141 H -0.01220 0.33906 0.13240
 H142 H -0.01384 0.39741 0.10461
 H143 H 0.03152 0.29459 0.15062
 H144 H 0.03260 0.23650 0.17877
 H145 H -0.01549 0.17983 0.10420
 H146 H -0.01738 0.23791 0.07600
 C147 C 0.43239 -0.00481 0.53169
 C148 C 0.40349 -0.00513 0.54532
 C149 C 0.36885 -0.00554 0.56139
 C150 C 0.33700 0.00724 0.54761
 C151 C 0.30332 0.00692 0.56322
 C152 C 0.30109 -0.00623 0.59287
 C153 C 0.33327 -0.01911 0.60649
 C154 C 0.36691 -0.01875 0.59083
 C155 C 0.26543 -0.00622 0.60964
 C156 C 0.25560 -0.03602 0.62837
 C157 C 0.22233 -0.03567 0.64457
 C158 C 0.19846 -0.00558 0.64227
 C159 C 0.20788 0.02409 0.62356
 C160 C 0.24111 0.02379 0.60733
 C161 C 0.16464 -0.00482 0.65949
 C162 C 0.13647 -0.00390 0.67412
 H163 H 0.33819 0.01745 0.52479
 H164 H 0.27897 0.01659 0.55200
 H165 H 0.33255 -0.02892 0.62941
 H166 H 0.39142 -0.02863 0.60173
 H167 H 0.27350 -0.05973 0.63032
 H168 H 0.21528 -0.05881 0.65895
 H169 H 0.18966 0.04759 0.62172
 H170 H 0.24810 0.04734 0.59342
 C171 C -0.43270 -0.00411 0.53173
 C172 C -0.40446 -0.00360 0.54550
 C173 C -0.37067 -0.00280 0.56180
 C174 C -0.33819 0.00962 0.54782
 C175 C -0.30539 0.01069 0.56372
 C176 C -0.30469 -0.00062 0.59387
 C177 C -0.33750 -0.01316 0.60768
 C178 C -0.37024 -0.01424 0.59173
 C179 C -0.26996 0.00074 0.61090
 C180 C -0.27014 0.01256 0.64093
 C181 C -0.23752 0.01355 0.65705
 C182 C -0.20429 0.00278 0.64342
 C183 C -0.20377 -0.00889 0.61353
 C184 C -0.23637 -0.00988 0.59735
 C185 C -0.17087 0.00330 0.66024
 C186 C -0.14306 0.00356 0.67457
 H187 H -0.33826 0.01868 0.52468
 H188 H -0.28071 0.02089 0.55257
 H189 H -0.33775 -0.02253 0.63072
 H190 H -0.39522 -0.02400 0.60274
 H191 H -0.29545 0.02140 0.65186
 H192 H -0.23822 0.02270 0.68015
 H193 H -0.17821 -0.01742 0.60280
 H194 H -0.23540 -0.01952 0.57440
 C195 C 0.00018 -0.43230 0.96898
 C196 C 0.00034 -0.40370 0.95517
 C197 C 0.00062 -0.36943 0.93891
 C198 C 0.01238 -0.36854 0.90892
 C199 C 0.01272 -0.33524 0.89311
 C200 C 0.00127 -0.30233 0.90713
 C201 C -0.01047 -0.30352 0.93732
 C202 C -0.01077 -0.33687 0.95309
 C203 C 0.00134 -0.26701 0.89024
 C204 C -0.02785 -0.24183 0.89376
 C205 C -0.02807 -0.20888 0.87747
 C206 C 0.00088 -0.20061 0.85749
 C207 C 0.03016 -0.22534 0.85396
 C208 C 0.03042 -0.25833 0.87022
 C209 C 0.00022 -0.16706 0.84026
 C210 C -0.00059 -0.13911 0.82563
 H211 H 0.02118 -0.39362 0.89772
 H212 H 0.02142 -0.33532 0.86979
 H213 H -0.01901 -0.27860 0.94884
 H214 H -0.01985 -0.33724 0.97633
 H215 H -0.05085 -0.24792 0.90870
 H216 H -0.05094 -0.18999 0.88027
 H217 H 0.05273 -0.21919 0.83859
 H218 H 0.05351 -0.27690 0.86731
 C219 C -0.00072 0.43428 0.96833
 C220 C -0.00146 0.40570 0.95458
 C221 C -0.00248 0.37151 0.93828
 C222 C -0.01341 0.33895 0.95279
 C223 C -0.01459 0.30574 0.93692
 C224 C -0.00492 0.30470 0.90627
 C225 C 0.00609 0.33760 0.89192
 C226 C 0.00730 0.37076 0.90784
 C227 C -0.00632 0.26951 0.88930
 C228 C -0.01962 0.26880 0.85988
 C229 C -0.02055 0.23577 0.84377
 C230 C -0.00823 0.20302 0.85681
 C231 C 0.00490 0.20338 0.88610
 C232 C 0.00583 0.23639 0.90227
 C233 C -0.00859 0.16921 0.83995
 C234 C -0.00867 0.14107 0.82557
 H235 H -0.02117 0.33926 0.97633
 H236 H -0.02360 0.28098 0.94851
 H237 H 0.01420 0.33762 0.86847
 H238 H 0.01589 0.39579 0.89642
 H239 H -0.02964 0.29372 0.84943
 H240 H -0.03083 0.23579 0.82113
 H241 H 0.01464 0.17820 0.89636
 H242 H 0.01664 0.23611 0.92472
 C243 C -0.43321 -0.00450 0.46748
 C244 C -0.40438 -0.00472 0.45373
 C245 C -0.36987 -0.00505 0.43747
 C246 C -0.33742 -0.01445 0.45208
 C247 C -0.30387 -0.01480 0.43627
 C248 C -0.30238 -0.00581 0.40560
 C249 C -0.33518 0.00362 0.39115
 C250 C -0.36868 0.00399 0.40700
 C251 C -0.26680 -0.00616 0.38873
 C252 C -0.26480 -0.02008 0.35933
 C253 C -0.23144 -0.01989 0.34327
 C254 C -0.19965 -0.00581 0.35635
 C255 C -0.20129 0.00790 0.38564
 C256 C -0.23462 0.00771 0.40176
 C257 C -0.16556 -0.00485 0.33949
 C258 C -0.13719 -0.00377 0.32513
 H259 H -0.33808 -0.02163 0.47564
 H260 H -0.27919 -0.02260 0.44794
 H261 H -0.33487 0.01118 0.36768
 H262 H -0.39363 0.01142 0.39551
 H263 H -0.28896 -0.03141 0.34883
 H264 H -0.23047 -0.03062 0.32063
 H265 H -0.17687 0.01900 0.39593
 H266 H -0.23536 0.01902 0.42420
 C267 C 0.43363 -0.00334 0.46681
 C268 C 0.40525 -0.00255 0.45325
 C269 C 0.37124 -0.00144 0.43726
 C270 C 0.33827 -0.01182 0.45159
 C271 C 0.30518 -0.01058 0.43610
 C272 C 0.30465 0.00111 0.40603
 C273 C 0.33797 0.01149 0.39185
 C274 C 0.37102 0.01022 0.40738
 C275 C 0.26958 0.00230 0.38946
 C276 C 0.26215 0.03167 0.36984
 C277 C 0.22939 0.03247 0.35388
 C278 C 0.20363 0.00399 0.35731
 C279 C 0.21065 -0.02523 0.37690
 C280 C 0.24338 -0.02609 0.39290
 C281 C 0.17031 0.00444 0.34036
 C282 C 0.14257 0.00463 0.32593
 H283 H 0.33814 -0.02080 0.47475
 H284 H 0.27995 -0.01831 0.44774
 H285 H 0.33856 0.02011 0.36862
 H286 H 0.39640 0.01824 0.39606
 H287 H 0.28152 0.05417 0.36701
 H288 H 0.22420 0.05525 0.33881
 H289 H 0.19096 -0.04750 0.37963
 H290 H 0.24850 -0.04929 0.40753
   
