data_POSCAR
  _audit_creation_date              2014-09-24
  _audit_creation_method            'ToBaCCo'
  _symmetry_space_group_name_H-M    'P1'
  _symmetry_Int_Tables_number       1
  _symmetry_cell_setting            triclinic
  loop_
  _symmetry_equiv_pos_as_xyz
 x,y,z
_cell_length_a 55.3296
_cell_length_b 54.9683
_cell_length_c 55.1387
_cell_angle_alpha 90.310700
_cell_angle_beta 90.250400
_cell_angle_gamma 89.606100
loop_
  _atom_site_label
  _atom_site_type_symbol
  _atom_site_fract_x
  _atom_site_fract_y
  _atom_site_fract_z
N1 N 0.30337 0.27176 0.23325
 N2 N 0.29232 0.29132 0.22509
 C3 C 0.30278 0.29822 0.20426
 C4 C 0.32149 0.28212 0.19907
 C5 C 0.32129 0.26559 0.21796
 H6 H 0.29697 0.31365 0.19360
 H7 H 0.33280 0.24977 0.22007
 Cu8 Cu 0.26481 0.30547 0.24190
 Cu9 Cu 0.29286 0.25488 0.26225
 Cu10 Cu 0.23983 0.27550 0.28845
 N11 N 0.23298 0.31409 0.25408
 N12 N 0.22351 0.30250 0.27247
 C13 C 0.20141 0.31168 0.27698
 C14 C 0.19661 0.33007 0.26051
 C15 C 0.21715 0.33106 0.24620
 H16 H 0.18949 0.30495 0.29084
 H17 H 0.22034 0.34305 0.23109
 N18 N 0.25902 0.24837 0.30179
 N19 N 0.27914 0.24036 0.29169
 C20 C 0.28701 0.22063 0.30384
 C21 C 0.27105 0.21595 0.32250
 C22 C 0.25360 0.23402 0.32067
 H23 H 0.30285 0.21009 0.29906
 H24 H 0.23749 0.23587 0.33156
 H25 H 0.25715 0.26478 0.25692
 H26 H 0.27504 0.28347 0.27896
 N27 N 0.69161 -0.24650 0.24074
 N28 N 0.70125 -0.26674 0.23241
 C29 C 0.68942 -0.27365 0.21221
 C30 C 0.67116 -0.25679 0.20746
 C31 C 0.67312 -0.23986 0.22622
 H32 H 0.69425 -0.28958 0.20170
 H33 H 0.66234 -0.22362 0.22904
 Cu34 Cu 0.72910 -0.28171 0.24795
 Cu35 Cu 0.70433 -0.23041 0.26957
 Cu36 Cu 0.76390 -0.24567 0.28284
 N37 N 0.76237 -0.29008 0.25517
 N38 N 0.77638 -0.27522 0.26744
 C39 C 0.79895 -0.28448 0.26797
 C40 C 0.79911 -0.30654 0.25547
 C41 C 0.77538 -0.30945 0.24772
 H42 H 0.81394 -0.27590 0.27719
 H43 H 0.76815 -0.32399 0.23665
 N44 N 0.74738 -0.21690 0.29685
 N45 N 0.72460 -0.21146 0.29204
 C46 C 0.71823 -0.19148 0.30471
 C47 C 0.73789 -0.18393 0.31837
 C48 C 0.75606 -0.20055 0.31292
 H49 H 0.70043 -0.18328 0.30422
 H50 H 0.77424 -0.20076 0.32017
 H51 H 0.73779 -0.23932 0.25663
 H52 H 0.72851 -0.25590 0.28445
 N53 N 0.70739 0.27345 0.77394
 N54 N 0.71610 0.29492 0.77961
 C55 C 0.70419 0.30376 0.79905
 C56 C 0.68695 0.28694 0.80582
 C57 C 0.68955 0.26796 0.78941
 H58 H 0.70786 0.32108 0.80765
 H59 H 0.67972 0.25103 0.78919
 Cu60 Cu 0.74226 0.30913 0.76114
 Cu61 Cu 0.72058 0.25361 0.74784
 Cu62 Cu 0.77163 0.27516 0.71930
 N63 N 0.77279 0.31935 0.74738
 N64 N 0.78411 0.30617 0.73100
 C65 C 0.80473 0.31735 0.72488
 C66 C 0.80662 0.33882 0.73820
 C67 C 0.78584 0.33936 0.75230
 H68 H 0.81746 0.31006 0.71189
 H69 H 0.78059 0.35303 0.76543
 N70 N 0.75610 0.24420 0.71018
 N71 N 0.73658 0.23615 0.72108
 C72 C 0.73050 0.21454 0.71138
 C73 C 0.74697 0.20850 0.69343
 C74 C 0.76296 0.22784 0.69320
 H75 H 0.71534 0.20387 0.71727
 H76 H 0.77856 0.22982 0.68167
 H77 H 0.75507 0.26773 0.75185
 H78 H 0.73573 0.28103 0.72729
 N79 N 0.31188 -0.24559 0.76112
 N80 N 0.29654 -0.25935 0.77282
 C81 C 0.30581 -0.26475 0.79478
 C82 C 0.32825 -0.25394 0.79685
 C83 C 0.33155 -0.24200 0.77511
 H84 H 0.29694 -0.27578 0.80822
 H85 H 0.34675 -0.23081 0.77021
 Cu86 Cu 0.26582 -0.26890 0.75855
 Cu87 Cu 0.30415 -0.23141 0.72977
 Cu88 Cu 0.25260 -0.25237 0.70119
 N89 N 0.23998 -0.28423 0.74011
 N90 N 0.23469 -0.27749 0.71790
 C91 C 0.21568 -0.29035 0.70981
 C92 C 0.20856 -0.30625 0.72791
 C93 C 0.22462 -0.30180 0.74688
 H94 H 0.20778 -0.28817 0.69201
 H95 H 0.22498 -0.31029 0.76451
 N96 N 0.27322 -0.22701 0.68732
 N97 N 0.29301 -0.21915 0.69812
 C98 C 0.30225 -0.20083 0.68506
 C99 C 0.28755 -0.19690 0.66503
 C100 C 0.26937 -0.21395 0.66707
 H101 H 0.31807 -0.19058 0.69023
 H102 H 0.25382 -0.21594 0.65533
 H103 H 0.26691 -0.23432 0.73106
 H104 H 0.28415 -0.26141 0.71942
 N105 N 0.69361 -0.26402 0.76642
 N106 N 0.70486 -0.28253 0.77649
 C107 C 0.69183 -0.29031 0.79546
 C108 C 0.67123 -0.27590 0.79748
 C109 C 0.67305 -0.25941 0.77862
 H110 H 0.69725 -0.30504 0.80721
 H111 H 0.66069 -0.24473 0.77435
 Cu112 Cu 0.73607 -0.29375 0.76454
 Cu113 Cu 0.70706 -0.24647 0.73897
 Cu114 Cu 0.76250 -0.26678 0.71727
 N115 N 0.76723 -0.30501 0.75243
 N116 N 0.77738 -0.29434 0.73386
 C117 C 0.79894 -0.30490 0.72952
 C118 C 0.80274 -0.32331 0.74634
 C119 C 0.78204 -0.32278 0.76057
 H120 H 0.81099 -0.29918 0.71532
 H121 H 0.77811 -0.33415 0.77594
 N122 N 0.74463 -0.23914 0.70298
 N123 N 0.72368 -0.23124 0.71137
 C124 C 0.71682 -0.21146 0.69868
 C125 C 0.73426 -0.20667 0.68143
 C126 C 0.75157 -0.22467 0.68469
 H127 H 0.70046 -0.20113 0.70194
 H128 H 0.76842 -0.22656 0.67501
 H129 H 0.72709 -0.27520 0.72545
 H130 H 0.74289 -0.25395 0.74661
 N131 N 0.28550 0.22968 0.77854
 N132 N 0.28042 0.25240 0.78417
 C133 C 0.29266 0.25855 0.80446
 C134 C 0.30588 0.23846 0.81202
 C135 C 0.30083 0.22048 0.79517
 H136 H 0.29193 0.27623 0.81313
 H137 H 0.30849 0.20234 0.79457
 Cu138 Cu 0.25829 0.27179 0.76452
 Cu139 Cu 0.27395 0.21448 0.74883
 Cu140 Cu 0.23049 0.24572 0.71629
 N141 N 0.23014 0.28660 0.74907
 N142 N 0.21961 0.27647 0.73019
 C143 C 0.20063 0.29024 0.72337
 C144 C 0.19900 0.31015 0.73882
 C145 C 0.21809 0.30718 0.75497
 H146 H 0.18853 0.28566 0.70863
 H147 H 0.22282 0.31899 0.76997
 N148 N 0.24395 0.21423 0.70550
 N149 N 0.26031 0.20221 0.71819
 C150 C 0.26622 0.18164 0.70623
 C151 C 0.25295 0.18056 0.68490
 C152 C 0.23894 0.20156 0.68511
 H153 H 0.27933 0.16847 0.71259
 H154 H 0.22635 0.20741 0.67125
 H155 H 0.26558 0.24566 0.72936
 H156 H 0.24155 0.23371 0.74993
 N157 N 0.30231 -0.28097 0.23916
 N158 N 0.29209 -0.30171 0.23337
 C159 C 0.30284 -0.31091 0.21343
 C160 C 0.32094 -0.29511 0.20643
 C161 C 0.32011 -0.27637 0.22333
 H162 H 0.29764 -0.32769 0.20459
 H163 H 0.33096 -0.26008 0.22362
 Cu164 Cu 0.26516 -0.31422 0.25195
 Cu165 Cu 0.29095 -0.26105 0.26612
 Cu166 Cu 0.23246 -0.27374 0.28426
 N167 N 0.23269 -0.32149 0.26270
 N168 N 0.21957 -0.30513 0.27421
 C169 C 0.19726 -0.31401 0.27765
 C170 C 0.19640 -0.33725 0.26792
 C171 C 0.21927 -0.34146 0.25864
 H172 H 0.18272 -0.30429 0.28657
 H173 H 0.22534 -0.35739 0.24875
 N174 N 0.24916 -0.24326 0.29285
 N175 N 0.27159 -0.23874 0.28633
 C176 C 0.27804 -0.21681 0.29503
 C177 C 0.25876 -0.20697 0.30780
 C178 C 0.24078 -0.22433 0.30604
 H179 H 0.29553 -0.20869 0.29224
 H180 H 0.22285 -0.22320 0.31365
 H181 H 0.26788 -0.28422 0.28514
 H182 H 0.25681 -0.27101 0.25604
 N183 N 0.69252 0.24583 0.24139
 N184 N 0.70637 0.25950 0.22785
 C185 C 0.69612 0.26196 0.20582
 C186 C 0.67461 0.24927 0.20556
 C187 C 0.67285 0.23932 0.22849
 H188 H 0.70368 0.27234 0.19111
 H189 H 0.65872 0.22757 0.23500
 Cu190 Cu 0.73651 0.27285 0.24000
 Cu191 Cu 0.70232 0.23567 0.27377
 Cu192 Cu 0.75247 0.26395 0.29836
 N193 N 0.76100 0.29253 0.25588
 N194 N 0.76738 0.28890 0.27856
 C195 C 0.78519 0.30442 0.28451
 C196 C 0.79020 0.31866 0.26450
 C197 C 0.77440 0.31059 0.24667
 H198 H 0.79385 0.30522 0.30210
 H199 H 0.77311 0.31694 0.22819
 N200 N 0.73470 0.23823 0.31536
 N201 N 0.71537 0.22772 0.30610
 C202 C 0.70829 0.20989 0.32105
 C203 C 0.72396 0.20897 0.34073
 C204 C 0.74043 0.22736 0.33647
 H205 H 0.69342 0.19781 0.31728
 H206 H 0.75611 0.23179 0.34731
 H207 H 0.71989 0.26821 0.28032
 H208 H 0.73915 0.24157 0.27106
 C209 C 0.25311 0.00263 0.41548
 C210 C 0.25803 0.02351 0.42931
 C211 C 0.25769 0.02209 0.45472
 C212 C 0.25173 0.00024 0.46648
 C213 C 0.24611 -0.02028 0.45211
 C214 C 0.24751 -0.01943 0.42671
 C215 C 0.25260 -0.00149 0.49356
 C216 C 0.25881 -0.02366 0.50484
 C217 C 0.26035 -0.02542 0.53015
 C218 C 0.25644 -0.00460 0.54436
 C219 C 0.25087 0.01783 0.53366
 C220 C 0.24826 0.01913 0.50835
 H221 H 0.25339 0.00358 0.39586
 H222 H 0.26295 0.03791 0.46517
 H223 H 0.24128 -0.03724 0.46060
 H224 H 0.26326 -0.03956 0.49406
 H225 H 0.25747 -0.00588 0.56394
 H226 H 0.24337 0.03638 0.50030
 C227 C 0.75245 0.00296 0.58001
 C228 C 0.75735 0.02485 0.56814
 C229 C 0.75803 0.02516 0.54270
 C230 C 0.75229 0.00423 0.52894
 C231 C 0.74707 -0.01747 0.54138
 C232 C 0.74742 -0.01830 0.56683
 C233 C 0.75031 0.00545 0.50185
 C234 C 0.75401 -0.01547 0.48729
 C235 C 0.75009 -0.01476 0.46211
 C236 C 0.74380 0.00739 0.45123
 C237 C 0.74049 0.02849 0.46514
 C238 C 0.74345 0.02737 0.49037
 H239 H 0.75264 0.00246 0.59965
 H240 H 0.76232 0.04202 0.53374
 H241 H 0.74173 -0.03362 0.53150
 H242 H 0.75939 -0.03252 0.49546
 H243 H 0.74163 0.00824 0.43171
 H244 H 0.73948 0.04353 0.50094
 C245 C 0.43804 0.24876 0.00155
 C246 C 0.45113 0.25282 0.02299
 C247 C 0.47648 0.25337 0.02213
 C248 C 0.48893 0.24938 0.00019
 C249 C 0.47530 0.24525 -0.02110
 C250 C 0.44994 0.24535 -0.02059
 C251 C 0.51596 0.25022 -0.00051
 C252 C 0.52805 0.25774 -0.02159
 C253 C 0.55337 0.25868 -0.02238
 C254 C 0.56674 0.25312 -0.00146
 C255 C 0.55522 0.24581 0.01991
 C256 C 0.52990 0.24385 0.02001
 H257 H 0.41846 0.24864 0.00199
 H258 H 0.48634 0.25772 0.03856
 H259 H 0.48421 0.24170 -0.03820
 H260 H 0.51790 0.26340 -0.03742
 H261 H 0.58624 0.25448 -0.00188
 H262 H 0.52116 0.23703 0.03608
 C263 C 0.56210 0.72464 0.00073
 C264 C 0.55102 0.72952 0.02304
 C265 C 0.52585 0.73275 0.02384
 C266 C 0.51146 0.72970 0.00284
 C267 C 0.52312 0.72447 -0.01934
 C268 C 0.54838 0.72229 -0.02055
 C269 C 0.48443 0.73099 0.00426
 C270 C 0.47041 0.73772 -0.01607
 C271 C 0.44500 0.73741 -0.01533
 C272 C 0.43354 0.73168 0.00657
 C273 C 0.44706 0.72591 0.02735
 C274 C 0.47236 0.72495 0.02585
 H275 H 0.58161 0.72301 -0.00012
 H276 H 0.51758 0.73715 0.04106
 H277 H 0.51269 0.72129 -0.03568
 H278 H 0.47918 0.74346 -0.03254
 H279 H 0.41401 0.73167 0.00753
 H280 H 0.48244 0.71891 0.04156
 C281 C -0.01112 0.43438 0.24042
 C282 C 0.01001 0.44677 0.23431
 C283 C 0.00898 0.47203 0.23076
 C284 C -0.01251 0.48534 0.23510
 C285 C -0.03343 0.47236 0.24166
 C286 C -0.03291 0.44695 0.24396
 C287 C -0.01277 0.51266 0.23447
 C288 C -0.03449 0.52564 0.23034
 C289 C -0.03544 0.55113 0.23241
 C290 C -0.01403 0.56379 0.23731
 C291 C 0.00817 0.55159 0.23972
 C292 C 0.00851 0.52604 0.23899
 H293 H -0.01059 0.41478 0.24241
 H294 H 0.02530 0.48119 0.22539
 H295 H -0.05004 0.48187 0.24602
 H296 H -0.05079 0.51603 0.22545
 H297 H -0.01466 0.58331 0.23991
 H298 H 0.02546 0.51675 0.24210
 C299 C 0.01419 0.57442 0.74841
 C300 C 0.03570 0.56101 0.74677
 C301 C 0.03485 0.53552 0.74719
 C302 C 0.01278 0.52313 0.75029
 C303 C -0.00855 0.53727 0.75282
 C304 C -0.00808 0.56275 0.75091
 C305 C 0.01191 0.49573 0.74955
 C306 C -0.00970 0.48351 0.74335
 C307 C -0.01046 0.45805 0.74166
 C308 C 0.01080 0.44458 0.74506
 C309 C 0.03262 0.45610 0.75062
 C310 C 0.03289 0.48146 0.75383
 H311 H 0.01480 0.59411 0.74790
 H312 H 0.05153 0.52567 0.74419
 H313 H -0.02580 0.52871 0.75562
 H314 H -0.02600 0.49349 0.73897
 H315 H 0.01037 0.42491 0.74362
 H316 H 0.04975 0.48980 0.75903
 C317 C 0.33151 0.29568 0.15689
 C318 C 0.34598 0.29455 0.13620
 C319 C 0.36653 0.27963 0.13566
 C320 C 0.37273 0.26599 0.15625
 C321 C 0.35827 0.26704 0.17695
 C322 C 0.33736 0.28176 0.17745
 N323 N 0.38033 0.27813 0.11379
 N324 N 0.39931 0.26503 0.11205
 C325 C 0.41259 0.26307 0.08988
 C326 C 0.43342 0.24851 0.08920
 C327 C 0.44622 0.24545 0.06757
 C328 C 0.43823 0.25687 0.04620
 C329 C 0.41750 0.27177 0.04703
 C330 C 0.40478 0.27486 0.06866
 H331 H 0.31551 0.30709 0.15650
 H332 H 0.34099 0.30511 0.12040
 H333 H 0.38858 0.25433 0.15629
 H334 H 0.36352 0.25629 0.19249
 H335 H 0.43957 0.23927 0.10541
 H336 H 0.46202 0.23371 0.06741
 H337 H 0.41113 0.28107 0.03094
 H338 H 0.38875 0.28626 0.06873
 C339 C 0.63752 0.76214 0.18491
 C340 C 0.62198 0.76256 0.16481
 C341 C 0.62345 0.74445 0.14698
 C342 C 0.64050 0.72562 0.14962
 C343 C 0.65599 0.72509 0.16964
 C344 C 0.65495 0.74345 0.18760
 N345 N 0.60777 0.74561 0.12624
 N346 N 0.60922 0.72988 0.10928
 C347 C 0.59417 0.73033 0.08812
 C348 C 0.59776 0.71244 0.07039
 C349 C 0.58375 0.71226 0.04931
 C350 C 0.56578 0.73007 0.04557
 C351 C 0.56203 0.74799 0.06350
 C352 C 0.57618 0.74817 0.08464
 H353 H 0.63579 0.77662 0.19813
 H354 H 0.60887 0.77717 0.16302
 H355 H 0.64199 0.71131 0.13612
 H356 H 0.66884 0.71024 0.17069
 H357 H 0.61152 0.69856 0.07294
 H358 H 0.58678 0.69799 0.03603
 H359 H 0.54841 0.76201 0.06102
 H360 H 0.57312 0.76221 0.09814
 C361 C 0.67465 0.30374 -0.15357
 C362 C 0.65943 0.30372 -0.13337
 C363 C 0.63937 0.28837 -0.13269
 C364 C 0.63443 0.27324 -0.15270
 C365 C 0.64969 0.27312 -0.17280
 C366 C 0.67013 0.28816 -0.17337
 N367 N 0.62495 0.28761 -0.11118
 N368 N 0.60610 0.27454 -0.10993
 C369 C 0.59215 0.27256 -0.08823
 C370 C 0.57150 0.25802 -0.08855
 C371 C 0.55846 0.25413 -0.06730
 C372 C 0.56597 0.26469 -0.04527
 C373 C 0.58635 0.27985 -0.04513
 C374 C 0.59934 0.28377 -0.06643
 H375 H 0.69028 0.31546 -0.15336
 H376 H 0.66347 0.31542 -0.11803
 H377 H 0.61903 0.26120 -0.15265
 H378 H 0.64546 0.26116 -0.18785
 H379 H 0.56585 0.24920 -0.10523
 H380 H 0.54300 0.24216 -0.06792
 H381 H 0.59238 0.28846 -0.02848
 H382 H 0.61524 0.29512 -0.06574
 C383 C 0.36977 0.74791 -0.18507
 C384 C 0.38529 0.74766 -0.16499
 C385 C 0.37598 0.74596 -0.14152
 C386 C 0.35088 0.74409 -0.13830
 C387 C 0.33538 0.74381 -0.15839
 C388 C 0.34468 0.74585 -0.18195
 N389 N 0.39232 0.74550 -0.12130
 N390 N 0.38516 0.74947 -0.09973
 C391 C 0.40113 0.74787 -0.07928
 C392 C 0.39335 0.75680 -0.05682
 C393 C 0.40791 0.75425 -0.03620
 C394 C 0.43042 0.74221 -0.03760
 C395 C 0.43832 0.73363 -0.06035
 C396 C 0.42389 0.73655 -0.08102
 H397 H 0.37741 0.74932 -0.20305
 H398 H 0.40461 0.74895 -0.16771
 H399 H 0.34329 0.74254 -0.12032
 H400 H 0.31611 0.74237 -0.15545
 H401 H 0.37587 0.76565 -0.05527
 H402 H 0.40144 0.76156 -0.01914
 H403 H 0.45532 0.72391 -0.06209
 H404 H 0.43019 0.72930 -0.09817
 C405 C 0.15668 0.34408 0.27689
 C406 C 0.13510 0.35714 0.27474
 C407 C 0.13038 0.37114 0.25417
 C408 C 0.14769 0.37219 0.23566
 C409 C 0.16939 0.35906 0.23776
 C410 C 0.17406 0.34469 0.25836
 N411 N 0.10772 0.38372 0.25266
 N412 N 0.10172 0.39741 0.23506
 C413 C 0.07858 0.40932 0.23461
 C414 C 0.07305 0.42576 0.21603
 C415 C 0.05069 0.43789 0.21563
 C416 C 0.03346 0.43352 0.23375
 C417 C 0.03904 0.41685 0.25220
 C418 C 0.06133 0.40489 0.25265
 H419 H 0.15965 0.33357 0.29316
 H420 H 0.12189 0.35629 0.28915
 H421 H 0.14438 0.38292 0.21957
 H422 H 0.18226 0.35992 0.22310
 H423 H 0.08615 0.42931 0.20198
 H424 H 0.04681 0.45056 0.20113
 H425 H 0.02633 0.41342 0.26665
 H426 H 0.06508 0.39229 0.26723
 C427 C 0.17300 0.67667 0.70737
 C428 C 0.15320 0.66105 0.70717
 C429 C 0.14907 0.64548 0.72661
 C430 C 0.16512 0.64554 0.74639
 C431 C 0.18483 0.66134 0.74679
 C432 C 0.18905 0.67731 0.72733
 N433 N 0.12798 0.63054 0.72618
 N434 N 0.12420 0.61414 0.74189
 C435 C 0.10246 0.60013 0.74180
 C436 C 0.10035 0.58065 0.75789
 C437 C 0.07887 0.56744 0.75905
 C438 C 0.05904 0.57379 0.74432
 C439 C 0.06133 0.59311 0.72793
 C440 C 0.08288 0.60611 0.72659
 H441 H 0.17523 0.68847 0.69195
 H442 H 0.14088 0.66121 0.69185
 H443 H 0.16222 0.63368 0.76170
 H444 H 0.19661 0.66087 0.76247
 H445 H 0.11528 0.57590 0.76975
 H446 H 0.07748 0.55273 0.77195
 H447 H 0.04638 0.59822 0.71623
 H448 H 0.08404 0.62112 0.71403
 C449 C -0.15729 0.68519 0.25661
 C450 C -0.13766 0.66973 0.25211
 C451 C -0.14128 0.64633 0.24286
 C452 C -0.16483 0.63859 0.23759
 C453 C -0.18450 0.65422 0.24148
 C454 C -0.18108 0.67775 0.25125
 N455 N -0.12074 0.63086 0.23903
 N456 N -0.12247 0.60786 0.23698
 C457 C -0.10147 0.59299 0.23321
 C458 C -0.10144 0.56884 0.24105
 C459 C -0.08023 0.55485 0.24010
 C460 C -0.05880 0.56471 0.23069
 C461 C -0.05951 0.58846 0.22126
 C462 C -0.08051 0.60257 0.22281
 H463 H -0.15357 0.70311 0.26383
 H464 H -0.11953 0.67591 0.25615
 H465 H -0.16800 0.62056 0.23029
 H466 H -0.20234 0.64750 0.23722
 H467 H -0.11754 0.56123 0.24903
 H468 H -0.08039 0.53675 0.24772
 H469 H -0.04366 0.59641 0.21313
 H470 H -0.08032 0.62106 0.21615
 C471 C -0.17487 0.37665 0.75307
 C472 C -0.15563 0.39301 0.75336
 C473 C -0.13550 0.38910 0.73860
 C474 C -0.13496 0.36875 0.72312
 C475 C -0.15415 0.35236 0.72276
 C476 C -0.17437 0.35585 0.73794
 N477 N -0.11550 0.40545 0.74031
 N478 N -0.09645 0.40237 0.72778
 C479 C -0.07590 0.41793 0.73001
 C480 C -0.05510 0.41220 0.71678
 C481 C -0.03402 0.42570 0.71998
 C482 C -0.03346 0.44529 0.73646
 C483 C -0.05464 0.45161 0.74906
 C484 C -0.07570 0.43798 0.74594
 H485 H -0.18991 0.38039 0.76499
 H486 H -0.15626 0.40864 0.76538
 H487 H -0.11959 0.36533 0.71148
 H488 H -0.15277 0.33689 0.71066
 H489 H -0.05506 0.39683 0.70441
 H490 H -0.01804 0.42062 0.70981
 H491 H -0.05464 0.46651 0.76200
 H492 H -0.09159 0.44277 0.75636
 C493 C 0.25644 0.19492 0.35992
 C494 C 0.25523 0.17440 0.37471
 C495 C 0.26852 0.15343 0.36900
 C496 C 0.28366 0.15341 0.34861
 C497 C 0.28497 0.17395 0.33386
 C498 C 0.27108 0.19483 0.33913
 N499 N 0.26556 0.13216 0.38354
 N500 N 0.27600 0.11209 0.37840
 C501 C 0.27240 0.09052 0.39232
 C502 C 0.28332 0.06881 0.38460
 C503 C 0.27901 0.04709 0.39684
 C504 C 0.26370 0.04677 0.41712
 C505 C 0.25323 0.06871 0.42522
 C506 C 0.25748 0.09042 0.41288
 H507 H 0.24573 0.21076 0.36473
 H508 H 0.24354 0.17466 0.39041
 H509 H 0.29414 0.13740 0.34382
 H510 H 0.29634 0.17312 0.31797
 H511 H 0.29489 0.06868 0.36881
 H512 H 0.28759 0.03052 0.39040
 H513 H 0.24122 0.06896 0.44067
 H514 H 0.24882 0.10698 0.41919
 C515 C 0.72917 0.16850 0.68071
 C516 C 0.72971 0.14710 0.66703
 C517 C 0.74844 0.14259 0.65070
 C518 C 0.76681 0.15987 0.64807
 C519 C 0.76635 0.18137 0.66183
 C520 C 0.74752 0.18594 0.67841
 N521 N 0.74820 0.12025 0.63727
 N522 N 0.76388 0.11462 0.62134
 C523 C 0.76261 0.09187 0.60855
 C524 C 0.77892 0.08690 0.58977
 C525 C 0.77752 0.06503 0.57668
 C526 C 0.75985 0.04771 0.58237
 C527 C 0.74371 0.05269 0.60139
 C528 C 0.74505 0.07451 0.61433
 H529 H 0.71427 0.17119 0.69307
 H530 H 0.71543 0.13391 0.66916
 H531 H 0.78151 0.15672 0.63552
 H532 H 0.78082 0.19426 0.65952
 H533 H 0.79258 0.10008 0.58515
 H534 H 0.79028 0.06161 0.56219
 H535 H 0.72965 0.03991 0.60594
 H536 H 0.73219 0.07784 0.62873
 C537 C 0.30449 -0.15709 0.65110
 C538 C 0.30466 -0.13755 0.63501
 C539 C 0.28972 -0.13758 0.61451
 C540 C 0.27499 -0.15779 0.60981
 C541 C 0.27478 -0.17736 0.62589
 C542 C 0.28923 -0.17707 0.64696
 N543 N 0.28881 -0.11631 0.59966
 N544 N 0.27539 -0.11481 0.58091
 C545 C 0.27361 -0.09288 0.56709
 C546 C 0.25821 -0.09218 0.54690
 C547 C 0.25445 -0.07042 0.53435
 C548 C 0.26601 -0.04898 0.54195
 C549 C 0.28207 -0.04994 0.56174
 C550 C 0.28586 -0.07168 0.57421
 H551 H 0.31581 -0.15609 0.66710
 H552 H 0.31603 -0.12202 0.63885
 H553 H 0.26330 -0.15825 0.59402
 H554 H 0.26305 -0.19254 0.62190
 H555 H 0.24861 -0.10837 0.54128
 H556 H 0.24185 -0.07016 0.51927
 H557 H 0.29150 -0.03378 0.56776
 H558 H 0.29792 -0.07176 0.58971
 C559 C 0.72083 -0.14482 0.33461
 C560 C 0.72133 -0.12525 0.35081
 C561 C 0.73977 -0.12330 0.36808
 C562 C 0.75804 -0.14115 0.36890
 C563 C 0.75761 -0.16080 0.35262
 C564 C 0.73889 -0.16292 0.33535
 N565 N 0.73927 -0.10298 0.38440
 N566 N 0.75490 -0.09955 0.40106
 C567 C 0.75332 -0.07870 0.41675
 C568 C 0.77102 -0.07494 0.43462
 C569 C 0.76999 -0.05434 0.44971
 C570 C 0.75121 -0.03718 0.44701
 C571 C 0.73328 -0.04131 0.42936
 C572 C 0.73432 -0.06178 0.41439
 H573 H 0.70631 -0.14559 0.32143
 H574 H 0.70722 -0.11152 0.34994
 H575 H 0.77251 -0.13997 0.38212
 H576 H 0.77175 -0.17444 0.35381
 H577 H 0.78575 -0.08785 0.43668
 H578 H 0.78409 -0.05157 0.46311
 H579 H 0.71833 -0.02868 0.42717
 H580 H 0.72028 -0.06428 0.40089
 C581 C 0.63274 0.73956 -0.18339
 C582 C 0.61578 0.73941 -0.16464
 C583 C 0.61804 0.72287 -0.14556
 C584 C 0.63721 0.70599 -0.14575
 C585 C 0.65415 0.70609 -0.16446
 C586 C 0.65237 0.72311 -0.18339
 N587 N 0.60140 0.72427 -0.12573
 N588 N 0.60340 0.71038 -0.10742
 C589 C 0.58778 0.71214 -0.08683
 C590 C 0.59283 0.69762 -0.06667
 C591 C 0.57951 0.70036 -0.04537
 C592 C 0.56072 0.71764 -0.04395
 C593 C 0.55496 0.73150 -0.06456
 C594 C 0.56847 0.72887 -0.08584
 H595 H 0.63054 0.75283 -0.19765
 H596 H 0.60109 0.75252 -0.16473
 H597 H 0.63936 0.69296 -0.13124
 H598 H 0.66880 0.69300 -0.16375
 H599 H 0.60761 0.68461 -0.06724
 H600 H 0.58414 0.68925 -0.02985
 H601 H 0.54065 0.74503 -0.06388
 H602 H 0.56421 0.74028 -0.10124
 C603 C 0.32654 0.21427 -0.15560
 C604 C 0.34290 0.21237 -0.13631
 C605 C 0.35619 0.23261 -0.12873
 C606 C 0.35249 0.25507 -0.14030
 C607 C 0.33572 0.25713 -0.15925
 C608 C 0.32278 0.23668 -0.16722
 N609 N 0.37289 0.23006 -0.10898
 N610 N 0.38939 0.24559 -0.10488
 C611 C 0.40545 0.24368 -0.08453
 C612 C 0.42560 0.25890 -0.08331
 C613 C 0.44074 0.25863 -0.06294
 C614 C 0.43567 0.24338 -0.04328
 C615 C 0.41574 0.22772 -0.04474
 C616 C 0.40083 0.22773 -0.06528
 H617 H 0.31665 0.19828 -0.16126
 H618 H 0.34546 0.19502 -0.12742
 H619 H 0.36240 0.27103 -0.13457
 H620 H 0.33326 0.27456 -0.16799
 H621 H 0.42932 0.27130 -0.09800
 H622 H 0.45585 0.27103 -0.06213
 H623 H 0.41153 0.21575 -0.02982
 H624 H 0.38532 0.21583 -0.06579
 C625 C 0.33021 0.68816 0.16499
 C626 C 0.34425 0.68773 0.14396
 C627 C 0.36494 0.70210 0.14228
 C628 C 0.37173 0.71669 0.16215
 C629 C 0.35765 0.71724 0.18313
 C630 C 0.33658 0.70319 0.18470
 N631 N 0.37814 0.70234 0.11998
 N632 N 0.39741 0.71459 0.11758
 C633 C 0.41020 0.71582 0.09510
 C634 C 0.43160 0.72917 0.09420
 C635 C 0.44386 0.73196 0.07229
 C636 C 0.43480 0.72149 0.05081
 C637 C 0.41350 0.70771 0.05183
 C638 C 0.40131 0.70486 0.07379
 H639 H 0.31404 0.67721 0.16549
 H640 H 0.33879 0.67645 0.12875
 H641 H 0.38768 0.72794 0.16134
 H642 H 0.36327 0.72878 0.19805
 H643 H 0.43858 0.73779 0.11046
 H644 H 0.46005 0.74291 0.07203
 H645 H 0.40624 0.69921 0.03563
 H646 H 0.38478 0.69444 0.07404
 C647 C 0.63290 0.24267 0.18901
 C648 C 0.61685 0.24061 0.16942
 C649 C 0.62536 0.24161 0.14558
 C650 C 0.65017 0.24487 0.14149
 C651 C 0.66614 0.24743 0.16102
 C652 C 0.65766 0.24636 0.18496
 N653 N 0.60849 0.24033 0.12584
 N654 N 0.61541 0.23628 0.10420
 C655 C 0.59912 0.23653 0.08395
 C656 C 0.60742 0.22833 0.06142
 C657 C 0.59281 0.23034 0.04079
 C658 C 0.56968 0.24106 0.04226
 C659 C 0.56111 0.24860 0.06513
 C660 C 0.57566 0.24627 0.08582
 H661 H 0.62586 0.24193 0.20728
 H662 H 0.59775 0.23825 0.17282
 H663 H 0.65716 0.24589 0.12322
 H664 H 0.68515 0.25003 0.15737
 H665 H 0.62545 0.22071 0.05978
 H666 H 0.59980 0.22382 0.02362
 H667 H 0.54355 0.25721 0.06692
 H668 H 0.56892 0.25289 0.10305
 C669 C -0.17534 0.64358 0.76706
 C670 C -0.15472 0.62890 0.76963
 C671 C -0.13502 0.63167 0.75414
 C672 C -0.13625 0.64922 0.73577
 C673 C -0.15680 0.66387 0.73309
 C674 C -0.17671 0.66146 0.74878
 N675 N -0.11394 0.61666 0.75737
 N676 N -0.09541 0.61923 0.74406
 C677 C -0.07392 0.60478 0.74651
 C678 C -0.05459 0.60951 0.73106
 C679 C -0.03328 0.59592 0.73266
 C680 C -0.03083 0.57725 0.74986
 C681 C -0.05033 0.57243 0.76538
 C682 C -0.07173 0.58614 0.76377
 H683 H -0.19006 0.64079 0.77954
 H684 H -0.15405 0.61539 0.78385
 H685 H -0.12130 0.65171 0.72345
 H686 H -0.15674 0.67712 0.71869
 H687 H -0.05612 0.62375 0.71764
 H688 H -0.01879 0.59979 0.72014
 H689 H -0.04892 0.55827 0.77890
 H690 H -0.08649 0.58219 0.77592
 C691 C -0.19179 0.35442 0.24315
 C692 C -0.17345 0.37156 0.24043
 C693 C -0.15386 0.37203 0.25653
 C694 C -0.15307 0.35546 0.27585
 C695 C -0.17147 0.33843 0.27869
 C696 C -0.19091 0.33752 0.26220
 N697 N -0.13463 0.38883 0.25239
 N698 N -0.11539 0.38860 0.26512
 C699 C -0.09566 0.40469 0.26071
 C700 C -0.07407 0.40113 0.27350
 C701 C -0.05383 0.41523 0.26845
 C702 C -0.05495 0.43337 0.25060
 C703 C -0.07691 0.43756 0.23836
 C704 C -0.09711 0.42323 0.24327
 H705 H -0.20661 0.35444 0.23028
 H706 H -0.17429 0.38424 0.22549
 H707 H -0.13811 0.35546 0.28856
 H708 H -0.17011 0.32563 0.29348
 H709 H -0.07276 0.38696 0.28703
 H710 H -0.03720 0.41183 0.27834
 H711 H -0.07818 0.45135 0.22446
 H712 H -0.11366 0.42637 0.23319
 C713 C 0.16507 0.33231 0.71811
 C714 C 0.14666 0.34976 0.71799
 C715 C 0.14302 0.36497 0.73805
 C716 C 0.15839 0.36285 0.75828
 C717 C 0.17691 0.34532 0.75845
 C718 C 0.18027 0.32963 0.73845
 N719 N 0.12302 0.38160 0.73747
 N720 N 0.11821 0.39666 0.75443
 C721 C 0.09729 0.41218 0.75298
 C722 C 0.09294 0.42951 0.77122
 C723 C 0.07212 0.44420 0.77046
 C724 C 0.05524 0.44148 0.75152
 C725 C 0.05987 0.42432 0.73312
 C726 C 0.08064 0.40986 0.73380
 H727 H 0.16725 0.32090 0.70222
 H728 H 0.13494 0.35128 0.70228
 H729 H 0.15585 0.37442 0.77403
 H730 H 0.18819 0.34375 0.77445
 H731 H 0.10559 0.43148 0.78613
 H732 H 0.06894 0.45727 0.78488
 H733 H 0.04736 0.42212 0.71810
 H734 H 0.08351 0.39669 0.71942
 C735 C 0.17808 0.62123 0.26571
 C736 C 0.15789 0.60610 0.26387
 C737 C 0.13465 0.61616 0.26197
 C738 C 0.13172 0.64157 0.26263
 C739 C 0.15180 0.65665 0.26501
 C740 C 0.17518 0.64664 0.26632
 N741 N 0.11430 0.60040 0.25914
 N742 N 0.09427 0.60841 0.25093
 C743 C 0.07332 0.59351 0.24821
 C744 C 0.05435 0.60194 0.23368
 C745 C 0.03347 0.58815 0.23071
 C746 C 0.03085 0.56581 0.24277
 C747 C 0.05001 0.55742 0.25750
 C748 C 0.07117 0.57107 0.26005
 H749 H 0.19591 0.61306 0.26687
 H750 H 0.16038 0.58655 0.26346
 H751 H 0.11391 0.64976 0.26136
 H752 H 0.14904 0.67617 0.26526
 H753 H 0.05587 0.61917 0.22441
 H754 H 0.01945 0.59497 0.21874
 H755 H 0.04856 0.54055 0.26740
 H756 H 0.08559 0.56436 0.27159
 C757 C 0.75101 -0.18642 0.64446
 C758 C 0.75262 -0.16645 0.62896
 C759 C 0.73856 -0.14560 0.63305
 C760 C 0.72237 -0.14513 0.65262
 C761 C 0.72063 -0.16513 0.66806
 C762 C 0.73514 -0.18593 0.66433
 N763 N 0.74162 -0.12496 0.61761
 N764 N 0.73056 -0.10493 0.62142
 C765 C 0.73398 -0.08393 0.60657
 C766 C 0.72269 -0.06209 0.61328
 C767 C 0.72670 -0.04087 0.60012
 C768 C 0.74203 -0.04118 0.57985
 C769 C 0.75283 -0.06329 0.57269
 C770 C 0.74894 -0.08450 0.58602
 H771 H 0.76224 -0.20220 0.64084
 H772 H 0.76514 -0.16707 0.61393
 H773 H 0.71128 -0.12922 0.65617
 H774 H 0.70834 -0.16400 0.68323
 H775 H 0.71108 -0.06144 0.62903
 H776 H 0.71788 -0.02416 0.60584
 H777 H 0.76481 -0.06399 0.55723
 H778 H 0.75785 -0.10120 0.58046
 C779 C 0.27544 -0.16542 0.31630
 C780 C 0.27465 -0.14306 0.32841
 C781 C 0.25622 -0.13786 0.34494
 C782 C 0.23833 -0.15531 0.34918
 C783 C 0.23905 -0.17773 0.33703
 C784 C 0.25769 -0.18309 0.32050
 N785 N 0.25645 -0.11492 0.35735
 N786 N 0.24084 -0.10894 0.37323
 C787 C 0.24191 -0.08597 0.38562
 C788 C 0.22527 -0.08079 0.40403
 C789 C 0.22668 -0.05898 0.41718
 C790 C 0.24475 -0.04194 0.41197
 C791 C 0.26111 -0.04702 0.39315
 C792 C 0.25974 -0.06880 0.38012
 H793 H 0.28993 -0.16872 0.30358
 H794 H 0.28853 -0.12973 0.32499
 H795 H 0.22390 -0.15170 0.36194
 H796 H 0.22517 -0.19089 0.34088
 H797 H 0.21139 -0.09383 0.40842
 H798 H 0.21370 -0.05546 0.43143
 H799 H 0.27545 -0.03442 0.38894
 H800 H 0.27285 -0.07234 0.36599
 C801 C 0.74168 0.19212 0.37938
 C802 C 0.74348 0.17374 0.39677
 C803 C 0.72836 0.15348 0.39556
 C804 C 0.71080 0.15217 0.37714
 C805 C 0.70895 0.17050 0.35978
 C806 C 0.72466 0.19053 0.36038
 N807 N 0.73200 0.13391 0.41229
 N808 N 0.71963 0.11451 0.41090
 C809 C 0.72365 0.09407 0.42643
 C810 C 0.71060 0.07281 0.42196
 C811 C 0.71558 0.05170 0.43506
 C812 C 0.73365 0.05156 0.45304
 C813 C 0.74606 0.07321 0.45826
 C814 C 0.74119 0.09432 0.44495
 H815 H 0.75393 0.20732 0.38070
 H816 H 0.75708 0.17501 0.41090
 H817 H 0.69882 0.13672 0.37581
 H818 H 0.69553 0.16852 0.34562
 H819 H 0.69702 0.07242 0.40777
 H820 H 0.70555 0.03533 0.43089
 H821 H 0.76014 0.07351 0.47196
 H822 H 0.75150 0.11059 0.44873
 C823 C 0.27308 0.14419 0.66601
 C824 C 0.27413 0.12582 0.64850
 C825 C 0.25633 0.12411 0.63055
 C826 C 0.23736 0.14121 0.63011
 C827 C 0.23627 0.15970 0.64767
 C828 C 0.25408 0.16131 0.66593
 N829 N 0.25796 0.10452 0.61344
 N830 N 0.24283 0.10115 0.59631
 C831 C 0.24536 0.08079 0.58011
 C832 C 0.22844 0.07730 0.56144
 C833 C 0.23026 0.05704 0.54598
 C834 C 0.24900 0.03992 0.54914
 C835 C 0.26613 0.04375 0.56762
 C836 C 0.26436 0.06392 0.58293
 H837 H 0.28731 0.14493 0.67949
 H838 H 0.28886 0.11275 0.64896
 H839 H 0.22335 0.14018 0.61637
 H840 H 0.22132 0.17247 0.64709
 H841 H 0.21371 0.09014 0.55905
 H842 H 0.21676 0.05446 0.53194
 H843 H 0.28102 0.03111 0.57021
 H844 H 0.27778 0.06619 0.59709
   
