data_POSCAR
  _audit_creation_date              2014-09-24
  _audit_creation_method            'ToBaCCo'
  _symmetry_space_group_name_H-M    'P1'
  _symmetry_Int_Tables_number       1
  _symmetry_cell_setting            triclinic
  loop_
  _symmetry_equiv_pos_as_xyz
 x,y,z
_cell_length_a 48.4938
_cell_length_b 50.7122
_cell_length_c 46.5630
_cell_angle_alpha 89.992400
_cell_angle_beta 88.126800
_cell_angle_gamma 89.672200
loop_
  _atom_site_label
  _atom_site_type_symbol
  _atom_site_fract_x
  _atom_site_fract_y
  _atom_site_fract_z
N1 N 0.15341 0.19346 0.23348
 N2 N 0.17546 0.18070 0.24155
 C3 C 0.16818 0.16370 0.26266
 C4 C 0.13978 0.16572 0.26791
 C5 C 0.13125 0.18482 0.24869
 H6 H 0.18250 0.15055 0.27284
 H7 H 0.11064 0.19247 0.24611
 Cu8 Cu 0.21106 0.18676 0.22221
 Cu9 Cu 0.15503 0.22050 0.20399
 Cu10 Cu 0.22049 0.24238 0.18411
 N11 N 0.24215 0.19066 0.19502
 N12 N 0.24631 0.21259 0.18052
 C13 C 0.26909 0.20975 0.16341
 C14 C 0.27966 0.18439 0.16699
 C15 C 0.26186 0.17301 0.18745
 H16 H 0.27667 0.22482 0.14881
 H17 H 0.26275 0.15329 0.19617
 N18 N 0.18690 0.26375 0.17872
 N19 N 0.16204 0.25465 0.18521
 C20 C 0.14321 0.27326 0.17946
 C21 C 0.15670 0.29531 0.16872
 C22 C 0.18451 0.28852 0.16852
 H23 H 0.12133 0.27115 0.18392
 H24 H 0.20173 0.30065 0.16156
 H25 H 0.19302 0.21333 0.18318
 H26 H 0.19278 0.23150 0.21803
 N27 N -0.20115 0.79734 0.25188
 N28 N -0.21897 0.81695 0.25230
 C29 C -0.21295 0.83348 0.27392
 C30 C -0.18994 0.82371 0.28751
 C31 C -0.18330 0.80063 0.27301
 H32 H -0.22349 0.85194 0.27840
 H33 H -0.16599 0.78770 0.27667
 Cu34 Cu -0.24652 0.81967 0.22276
 Cu35 Cu -0.19915 0.77123 0.22148
 Cu36 Cu -0.24688 0.77612 0.16801
 N37 N -0.27455 0.82111 0.19367
 N38 N -0.27461 0.80400 0.17247
 C39 C -0.29577 0.80952 0.15543
 C40 C -0.30990 0.83146 0.16634
 C41 C -0.29567 0.83817 0.19075
 H42 H -0.30014 0.79848 0.13629
 H43 H -0.30015 0.85430 0.20533
 N44 N -0.21724 0.74921 0.16772
 N45 N -0.19996 0.74681 0.18887
 C46 C -0.18157 0.72764 0.18232
 C47 C -0.18726 0.71750 0.15566
 C48 C -0.21008 0.73164 0.14698
 H49 H -0.16416 0.72259 0.19517
 H50 H -0.22022 0.72975 0.12675
 H51 H -0.21621 0.79458 0.18991
 H52 H -0.24051 0.77312 0.21118
 N53 N -0.16166 0.18801 -0.22543
 N54 N -0.18400 0.17353 -0.22612
 C55 C -0.18230 0.15791 -0.24955
 C56 C -0.15756 0.16293 -0.26436
 C57 C -0.14509 0.18221 -0.24831
 H58 H -0.19785 0.14385 -0.25528
 H59 H -0.12512 0.19101 -0.25252
 Cu60 Cu -0.21281 0.17608 -0.19595
 Cu61 Cu -0.15504 0.21265 -0.19452
 Cu62 Cu -0.20408 0.21589 -0.13901
 N63 N -0.23979 0.17782 -0.16393
 N64 N -0.23610 0.19333 -0.14183
 C65 C -0.25727 0.19053 -0.12274
 C66 C -0.27549 0.17212 -0.13323
 C67 C -0.26356 0.16454 -0.15959
 H68 H -0.25896 0.20110 -0.10262
 H69 H -0.27131 0.15022 -0.17444
 N70 N -0.17038 0.23730 -0.13998
 N71 N -0.15190 0.23635 -0.16138
 C72 C -0.13170 0.25365 -0.15624
 C73 C -0.13767 0.26603 -0.13029
 C74 C -0.16233 0.25512 -0.12056
 H75 H -0.11385 0.25688 -0.17027
 H76 H -0.17385 0.26022 -0.10107
 H77 H -0.17798 0.19207 -0.16376
 H78 H -0.19593 0.21949 -0.18261
 N79 N 0.18726 0.80394 -0.28054
 N80 N 0.20617 0.82237 -0.28224
 C81 C 0.20166 0.83747 -0.30547
 C82 C 0.17860 0.82800 -0.31901
 C83 C 0.17017 0.80662 -0.30250
 H84 H 0.21375 0.85450 -0.31157
 H85 H 0.15213 0.79463 -0.30533
 Cu86 Cu 0.23337 0.82564 -0.25251
 Cu87 Cu 0.18405 0.77942 -0.24852
 Cu88 Cu 0.23222 0.78503 -0.19556
 N89 N 0.26075 0.82837 -0.22289
 N90 N 0.26013 0.81212 -0.20093
 C91 C 0.28017 0.81849 -0.18300
 C92 C 0.29429 0.84018 -0.19402
 C93 C 0.28132 0.84579 -0.21958
 H94 H 0.28345 0.80845 -0.16295
 H95 H 0.28597 0.86168 -0.23435
 N96 N 0.20236 0.75893 -0.19403
 N97 N 0.18421 0.75660 -0.21435
 C98 C 0.16586 0.73791 -0.20658
 C99 C 0.17265 0.72809 -0.17999
 C100 C 0.19596 0.74186 -0.17274
 H101 H 0.14819 0.73258 -0.21883
 H102 H 0.20721 0.73984 -0.15320
 H103 H 0.20188 0.80352 -0.21862
 H104 H 0.22522 0.77995 -0.23867
 N105 N 0.17751 1.17388 0.75676
 N106 N 0.16534 1.19597 0.74944
 C107 C 0.15089 1.19166 0.72563
 C108 C 0.15431 1.16542 0.71765
 C109 C 0.17136 1.15487 0.73800
 H110 H 0.13869 1.20643 0.71503
 H111 H 0.17828 1.13466 0.73959
 Cu112 Cu 0.16931 1.22776 0.77252
 Cu113 Cu 0.19982 1.17072 0.79045
 Cu114 Cu 0.20939 1.22729 0.83030
 N115 N 0.17489 1.25950 0.79523
 N116 N 0.19119 1.25919 0.81725
 C117 C 0.19061 1.28301 0.82992
 C118 C 0.17281 1.29919 0.81531
 C119 C 0.16320 1.28360 0.79334
 H120 H 0.20109 1.28773 0.84938
 H121 H 0.14828 1.28919 0.77766
 N122 N 0.22589 1.19301 0.84010
 N123 N 0.22176 1.17139 0.82515
 C124 C 0.23503 1.15116 0.83740
 C125 C 0.24821 1.16043 0.86125
 C126 C 0.24201 1.18710 0.86226
 H127 H 0.23550 1.13121 0.82926
 H128 H 0.24855 1.20110 0.87811
 H129 H 0.18144 1.20118 0.81394
 H130 H 0.21208 1.20966 0.79042
 N131 N 0.79905 0.81367 0.76286
 N132 N 0.81743 0.79452 0.76245
 C133 C 0.83832 0.80099 0.74390
 C134 C 0.83262 0.82567 0.73258
 C135 C 0.80755 0.83294 0.74503
 H136 H 0.85681 0.78932 0.74004
 H137 H 0.79656 0.85125 0.74177
 Cu138 Cu 0.81316 0.76437 0.78833
 Cu139 Cu 0.76608 0.81352 0.78735
 Cu140 Cu 0.76321 0.76675 0.84096
 N141 N 0.81275 0.74015 0.82094
 N142 N 0.79354 0.74156 0.84148
 C143 C 0.79883 0.72352 0.86177
 C144 C 0.82260 0.70992 0.85359
 C145 C 0.83086 0.72096 0.82745
 H146 H 0.78626 0.72055 0.88109
 H147 H 0.84910 0.71595 0.81457
 N148 N 0.73442 0.79387 0.83657
 N149 N 0.73533 0.81123 0.81550
 C150 C 0.71394 0.82800 0.81879
 C151 C 0.69885 0.82117 0.84333
 C152 C 0.71242 0.79932 0.85405
 H153 H 0.71065 0.84505 0.80539
 H154 H 0.70723 0.78878 0.87365
 H155 H 0.78705 0.79438 0.81961
 H156 H 0.76409 0.77351 0.79741
 N157 N 0.20703 0.81536 1.25777
 N158 N 0.19151 0.79476 1.26344
 C159 C 0.17568 0.79987 1.28718
 C160 C 0.18182 0.82506 1.29684
 C161 C 0.20174 0.83421 1.27743
 H162 H 0.16067 0.78642 1.29650
 H163 H 0.21129 0.85343 1.27700
 Cu164 Cu 0.19305 0.76413 1.23797
 Cu165 Cu 0.23172 0.81730 1.22436
 Cu166 Cu 0.24709 0.75772 1.19116
 N167 N 0.19363 0.73748 1.20774
 N168 N 0.21484 0.73486 1.18963
 C169 C 0.21001 0.71490 1.17143
 C170 C 0.18422 0.70442 1.17832
 C171 C 0.17452 0.71937 1.20158
 H172 H 0.22424 0.70875 1.15435
 H173 H 0.15493 0.71750 1.21310
 N174 N 0.27086 0.78906 1.18684
 N175 N 0.26429 0.81181 1.19903
 C176 C 0.28391 0.82955 1.19238
 C177 C 0.30395 0.81757 1.17501
 C178 C 0.29489 0.79184 1.17174
 H179 H 0.28343 0.84981 1.19956
 H180 H 0.30500 0.77631 1.15937
 H181 H 0.21888 0.78588 1.19880
 H182 H 0.24081 0.77836 1.23000
 N183 N 0.84118 1.16834 1.20957
 N184 N 0.85038 1.19100 1.21889
 C185 C 0.86628 1.18649 1.24167
 C186 C 0.86723 1.15945 1.24645
 C187 C 0.85110 1.14869 1.22557
 H188 H 0.87668 1.20162 1.25351
 H189 H 0.84624 1.12811 1.22260
 Cu190 Cu 0.84144 1.22358 1.19883
 Cu191 Cu 0.81653 1.16559 1.17783
 Cu192 Cu 0.78782 1.22390 1.15474
 N193 N 0.83676 1.25143 1.17043
 N194 N 0.81602 1.25135 1.15289
 C195 C 0.81882 1.27166 1.13441
 C196 C 0.84260 1.28524 1.14071
 C197 C 0.85335 1.27189 1.16382
 H198 H 0.80486 1.27589 1.11733
 H199 H 0.87248 1.27601 1.17422
 N200 N 0.77042 1.18945 1.14864
 N201 N 0.78235 1.16726 1.15638
 C202 C 0.76586 1.14697 1.15038
 C203 C 0.74216 1.15670 1.13830
 C204 C 0.74589 1.18385 1.13731
 H205 H 0.77061 1.12667 1.15533
 H206 H 0.73161 1.19850 1.12966
 H207 H 0.82167 1.20170 1.15751
 H208 H 0.79855 1.20039 1.19035
 O209 O 0.50865 0.98573 0.94148
 O210 O 0.46580 0.99298 1.06196
 O211 O 0.53130 0.97209 1.01188
 O212 O 0.44924 0.96470 0.98011
 O213 O 0.51530 0.98403 1.05294
 O214 O 0.45716 0.98910 0.94337
 O215 O 0.45953 0.96628 1.02871
 O216 O 0.54357 0.99657 0.96715
 C217 C 0.53366 0.98344 0.94709
 C218 C 0.45977 0.97028 1.05465
 C219 C 0.52771 0.96710 1.03770
 C220 C 0.44879 0.96784 0.95377
 O221 O 0.45845 1.03858 0.95462
 O222 O 0.52318 1.03551 1.04041
 O223 O 0.52986 1.04129 0.98999
 O224 O 0.43660 1.01717 1.03238
 O225 O 0.47164 1.04173 1.04270
 O226 O 0.51158 1.03722 0.94859
 O227 O 0.42926 1.01518 0.98146
 O228 O 0.55865 1.01409 1.02021
 Co229 Co 0.48449 1.01214 0.95193
 Co230 Co 0.49344 1.01271 1.04472
 Co231 Co 0.52786 1.00655 1.00161
 Co232 Co 0.44693 0.99187 1.00561
 O233 O 0.48675 1.00511 0.99857
 C234 C 0.43471 1.03517 0.96575
 C235 C 0.54922 1.03061 1.04010
 C236 C 0.52732 1.04919 0.96490
 C237 C 0.44606 1.03898 1.04072
 O238 O 0.02491 0.48698 0.05963
 O239 O 0.04065 0.53175 -0.05670
 O240 O 0.06236 0.47250 -0.02083
 O241 O 0.04491 0.55293 0.01166
 O242 O 0.04180 0.48289 -0.05933
 O243 O 0.03340 0.53481 0.05171
 O244 O 0.02050 0.56326 -0.03289
 O245 O 0.05557 0.48206 0.02790
 C246 C 0.04900 0.48055 0.05339
 C247 C 0.03769 0.55579 -0.05187
 C248 C 0.06203 0.47296 -0.04739
 C249 C 0.04988 0.54892 0.03725
 O250 O -0.02055 0.53995 0.03837
 O251 O -0.01076 0.47982 -0.05306
 O252 O 0.00301 0.45853 0.02676
 O253 O -0.02550 0.54455 -0.01196
 O254 O -0.01432 0.53008 -0.05431
 O255 O -0.02415 0.49152 0.03832
 O256 O -0.00172 0.57554 0.01954
 O257 O 0.01102 0.45238 -0.02461
 Co258 Co 0.00489 0.51303 0.04216
 Co259 Co 0.01436 0.50662 -0.05090
 Co260 Co 0.03167 0.46960 0.00238
 Co261 Co 0.01013 0.54654 0.00039
 O262 O 0.01640 0.50749 -0.00386
 C263 C -0.01818 0.56502 0.03932
 C264 C -0.00699 0.45695 -0.04330
 C265 C -0.02032 0.46719 0.03561
 C266 C -0.03101 0.54206 -0.03775
 O267 O 1.02613 0.03045 0.47813
 O268 O 0.93967 0.02248 0.52826
 O269 O 0.96352 0.00535 0.43897
 O270 O 1.01318 0.00081 0.56852
 O271 O 0.93859 0.02549 0.47314
 O272 O 1.02895 0.02248 0.53046
 O273 O 0.98136 0.02859 0.54146
 O274 O 1.01331 0.00794 0.44114
 C275 C 1.02289 0.02889 0.45165
 C276 C 0.95674 0.03574 0.54173
 C277 C 0.94741 0.02394 0.44736
 C278 C 1.03166 0.01692 0.55705
 O279 O 1.04042 -0.02867 0.51870
 O280 O 0.93018 -0.02420 0.47090
 O281 O 1.01293 -0.04431 0.46145
 O282 O 0.96126 -0.01623 0.55758
 O283 O 0.93513 -0.02971 0.52387
 O284 O 1.04478 -0.01759 0.46735
 O285 O 1.00292 -0.04062 0.53987
 O286 O 0.96548 -0.04607 0.45547
 Co287 Co 1.03044 0.00070 0.49856
 Co288 Co 0.94066 -0.00190 0.49912
 Co289 Co 0.98904 -0.01833 0.45284
 Co290 Co 0.99256 -0.00614 0.53804
 O291 O 0.98580 -0.00723 0.49575
 C292 C 1.02721 -0.04571 0.53276
 C293 C 0.94011 -0.04378 0.45809
 C294 C 1.03776 -0.04006 0.46028
 C295 C 0.94279 -0.03132 0.54923
 C296 C 1.09415 0.15398 0.28828
 C297 C 1.07766 0.13990 0.30799
 C298 C 1.08961 0.12359 0.32844
 C299 C 1.11849 0.12113 0.32848
 C300 C 1.13506 0.13486 0.30845
 C301 C 1.12318 0.15165 0.28806
 C302 C 1.07146 0.10827 0.34830
 C303 C 1.07852 0.10198 0.37504
 C304 C 1.06134 0.08515 0.39440
 C305 C 1.06401 0.08743 0.42420
 C306 C 1.05024 0.07008 0.44300
 C307 C 1.03392 0.04973 0.43229
 C308 C 1.03064 0.04790 0.40248
 C309 C 1.04414 0.06544 0.38372
 H310 H 1.08380 0.16627 0.27298
 H311 H 1.05543 0.14186 0.30734
 H312 H 1.12833 0.10813 0.34354
 H313 H 1.15717 0.13232 0.30930
 H314 H 1.05134 0.10283 0.34087
 H315 H 1.09744 0.10974 0.38335
 H316 H 1.07728 0.10234 0.43293
 H317 H 1.05333 0.07193 0.46584
 H318 H 1.01851 0.03224 0.39352
 H319 H 1.04212 0.06261 0.36085
 C320 C 0.85389 -0.17112 0.31389
 C321 C 0.86982 -0.15845 0.33404
 C322 C 0.85862 -0.13805 0.35109
 C323 C 0.83097 -0.13042 0.34748
 C324 C 0.81502 -0.14303 0.32708
 C325 C 0.82634 -0.16347 0.30998
 C326 C 0.87711 -0.12415 0.37069
 C327 C 0.86830 -0.11087 0.39417
 C328 C 0.88702 -0.09557 0.41240
 C329 C 0.87593 -0.07468 0.42891
 C330 C 0.89307 -0.05842 0.44459
 C331 C 0.92174 -0.06279 0.44420
 C332 C 0.93271 -0.08451 0.42893
 C333 C 0.91554 -0.10084 0.41333
 H334 H 0.86357 -0.18647 0.30091
 H335 H 0.89113 -0.16449 0.33613
 H336 H 0.82181 -0.11426 0.35963
 H337 H 0.79390 -0.13664 0.32461
 H338 H 0.89890 -0.12490 0.36502
 H339 H 0.84646 -0.11004 0.39964
 H340 H 0.85402 -0.07036 0.42889
 H341 H 0.88395 -0.04194 0.45632
 H342 H 0.95466 -0.08862 0.42859
 H343 H 0.92482 -0.11741 0.40199
 C344 C 0.84149 0.12703 0.69848
 C345 C 0.85268 0.11435 0.67409
 C346 C 0.87648 0.12407 0.65985
 C347 C 0.88842 0.14732 0.67007
 C348 C 0.87722 0.16002 0.69447
 C349 C 0.85376 0.14990 0.70916
 C350 C 0.88783 0.10950 0.63442
 C351 C 0.91410 0.11126 0.62454
 C352 C 0.92544 0.09441 0.60086
 C353 C 0.95353 0.08748 0.60038
 C354 C 0.96423 0.06940 0.58015
 C355 C 0.94702 0.05813 0.55984
 C356 C 0.91937 0.06650 0.55908
 C357 C 0.90870 0.08449 0.57929
 H358 H 0.82346 0.11858 0.70912
 H359 H 0.84291 0.09659 0.66656
 H360 H 0.90620 0.15601 0.65919
 H361 H 0.88698 0.17786 0.70164
 H362 H 0.87433 0.09526 0.62486
 H363 H 0.92849 0.12352 0.63564
 H364 H 0.96697 0.09517 0.61648
 H365 H 0.98565 0.06340 0.58125
 H366 H 0.90569 0.05848 0.54340
 H367 H 0.88724 0.09024 0.57820
 C368 C 1.17159 -0.13537 0.64550
 C369 C 1.15652 -0.12352 0.62385
 C370 C 1.13350 -0.13613 0.61274
 C371 C 1.12669 -0.16153 0.62263
 C372 C 1.14182 -0.17343 0.64421
 C373 C 1.16411 -0.16028 0.65636
 C374 C 1.11697 -0.12188 0.59140
 C375 C 1.09000 -0.12623 0.58781
 C376 C 1.07284 -0.10861 0.57024
 C377 C 1.04505 -0.10446 0.57854
 C378 C 1.02940 -0.08505 0.56511
 C379 C 1.04131 -0.06965 0.54297
 C380 C 1.06835 -0.07539 0.53303
 C381 C 1.08396 -0.09472 0.54647
 H382 H 1.18862 -0.12460 0.65412
 H383 H 1.16241 -0.10406 0.61636
 H384 H 1.10973 -0.17231 0.61384
 H385 H 1.13575 -0.19286 0.65147
 H386 H 1.12679 -0.10536 0.58055
 H387 H 1.07940 -0.14099 0.60074
 H388 H 1.03587 -0.11522 0.59650
 H389 H 1.00855 -0.08113 0.57310
 H390 H 1.07788 -0.06415 0.51562
 H391 H 1.10494 -0.09820 0.53871
 C392 C 0.31932 1.18667 1.13258
 C393 C 0.34119 1.17431 1.11732
 C394 C 0.34641 1.14732 1.12090
 C395 C 0.33023 1.13317 1.14108
 C396 C 0.30865 1.14549 1.15658
 C397 C 0.30243 1.17238 1.15229
 C398 C 0.36875 1.13412 1.10364
 C399 C 0.36578 1.10946 1.09387
 C400 C 0.38725 1.09433 1.07742
 C401 C 0.37872 1.07299 1.06085
 C402 C 0.39798 1.05592 1.04785
 C403 C 0.42639 1.05955 1.05132
 C404 C 0.43513 1.08160 1.06686
 C405 C 0.41572 1.09886 1.07986
 H406 H 0.31580 1.20743 1.12874
 H407 H 0.35364 1.18572 1.10215
 H408 H 0.33430 1.11249 1.14503
 H409 H 0.29673 1.13351 1.17156
 H410 H 0.38708 1.14525 1.09785
 H411 H 0.34611 1.09978 1.09759
 H412 H 0.35696 1.06906 1.05856
 H413 H 0.39049 1.03928 1.03586
 H414 H 0.45688 1.08489 1.06994
 H415 H 0.42304 1.11488 1.09286
 C416 C 0.32728 0.87683 0.80592
 C417 C 0.34737 0.89143 0.81969
 C418 C 0.35676 0.88369 0.84662
 C419 C 0.34573 0.86079 0.85943
 C420 C 0.32570 0.84619 0.84571
 C421 C 0.31577 0.85414 0.81890
 C422 C 0.37646 0.90098 0.86138
 C423 C 0.39123 0.89338 0.88387
 C424 C 0.40795 0.91187 0.90064
 C425 C 0.41172 0.90651 0.92982
 C426 C 0.42561 0.92434 0.94701
 C427 C 0.43625 0.94781 0.93522
 C428 C 0.43364 0.95258 0.90569
 C429 C 0.41966 0.93481 0.88854
 H430 H 0.32060 0.88381 0.78534
 H431 H 0.35541 0.90904 0.80934
 H432 H 0.35165 0.85436 0.88048
 H433 H 0.31774 0.82899 0.85679
 H434 H 0.37793 0.92113 0.85384
 H435 H 0.38987 0.87335 0.89170
 H436 H 0.40312 0.88885 0.93957
 H437 H 0.42751 0.91999 0.96964
 H438 H 0.44196 0.97033 0.89589
 H439 H 0.41804 0.93917 0.86592
 C440 C 0.65607 0.86758 1.16758
 C441 C 0.63400 0.88098 1.15550
 C442 C 0.62215 0.87178 1.13034
 C443 C 0.63237 0.84820 1.11800
 C444 C 0.65456 0.83483 1.12997
 C445 C 0.66707 0.84445 1.15479
 C446 C 0.59964 0.88766 1.11775
 C447 C 0.59162 0.88534 1.09051
 C448 C 0.57216 0.90407 1.07715
 C449 C 0.57408 0.90782 1.04727
 C450 C 0.55846 0.92739 1.03414
 C451 C 0.54040 0.94352 1.05064
 C452 C 0.53695 0.93854 1.08021
 C453 C 0.55260 0.91897 1.09336
 H454 H 0.66459 0.87584 1.18673
 H455 H 0.62649 0.89897 1.16566
 H456 H 0.62336 0.83979 1.09919
 H457 H 0.66170 0.81691 1.11952
 H458 H 0.59107 0.90345 1.13094
 H459 H 0.60161 0.87102 1.07641
 H460 H 0.58864 0.89638 1.03419
 H461 H 0.56149 0.93068 1.01127
 H462 H 0.52284 0.95040 1.09338
 H463 H 0.54960 0.91593 1.11623
 C464 C 0.69113 1.17214 0.90765
 C465 C 0.66734 1.16226 0.92145
 C466 C 0.65138 1.14308 0.90829
 C467 C 0.65980 1.13384 0.88087
 C468 C 0.68364 1.14365 0.86703
 C469 C 0.69990 1.16283 0.88026
 C470 C 0.62744 1.13182 0.92463
 C471 C 0.60637 1.11980 0.91211
 C472 C 0.58408 1.10534 0.92799
 C473 C 0.56125 1.09694 0.91269
 C474 C 0.54172 1.08002 0.92531
 C475 C 0.54457 1.07108 0.95362
 C476 C 0.56648 1.08067 0.96957
 C477 C 0.58612 1.09749 0.95690
 H478 H 0.70265 1.18683 0.91892
 H479 H 0.66149 1.16954 0.94268
 H480 H 0.64861 1.11843 0.87031
 H481 H 0.68933 1.13572 0.84611
 H482 H 0.62739 1.13379 0.94774
 H483 H 0.60549 1.12005 0.88891
 H484 H 0.55909 1.10263 0.89044
 H485 H 0.52508 1.07298 0.91243
 H486 H 0.56939 1.07398 0.99137
 H487 H 0.60348 1.10300 0.96950
 C488 C 0.11510 0.32210 0.15677
 C489 C 0.10255 0.34578 0.14921
 C490 C 0.11821 0.36863 0.14465
 C491 C 0.14689 0.36739 0.14846
 C492 C 0.15951 0.34359 0.15612
 C493 C 0.14374 0.32064 0.16032
 C494 C 0.10362 0.39282 0.13539
 C495 C 0.11593 0.41307 0.12169
 C496 C 0.09990 0.43399 0.10736
 C497 C 0.11091 0.44507 0.08193
 C498 C 0.09479 0.46154 0.06519
 C499 C 0.06741 0.46754 0.07377
 C500 C 0.05714 0.45833 0.10045
 C501 C 0.07326 0.44170 0.11715
 H502 H 0.10221 0.30489 0.15943
 H503 H 0.08046 0.34608 0.14639
 H504 H 0.15967 0.38468 0.14583
 H505 H 0.18156 0.34328 0.15899
 H506 H 0.08131 0.39253 0.13729
 H507 H 0.13797 0.41258 0.11736
 H508 H 0.13150 0.43977 0.07413
 H509 H 0.10335 0.46859 0.04485
 H510 H 0.03621 0.46287 0.10771
 H511 H 0.06452 0.43434 0.13726
 C512 C -0.12522 0.29215 -0.08688
 C513 C -0.11026 0.31217 -0.07397
 C514 C -0.09177 0.32762 -0.09039
 C515 C -0.08775 0.32209 -0.11983
 C516 C -0.10250 0.30196 -0.13267
 C517 C -0.12158 0.28692 -0.11641
 C518 C -0.07655 0.34896 -0.07628
 C519 C -0.06914 0.37110 -0.09014
 C520 C -0.05395 0.39281 -0.07667
 C521 C -0.05659 0.41831 -0.08790
 C522 C -0.04171 0.43920 -0.07673
 C523 C -0.02352 0.43494 -0.05428
 C524 C -0.02082 0.40937 -0.04302
 C525 C -0.03593 0.38849 -0.05404
 H526 H -0.13945 0.28068 -0.07365
 H527 H -0.11343 0.31586 -0.05118
 H528 H -0.07300 0.33308 -0.13294
 H529 H -0.09917 0.29848 -0.15545
 H530 H -0.07279 0.34692 -0.05359
 H531 H -0.07550 0.37412 -0.11199
 H532 H -0.07019 0.42209 -0.10546
 H533 H -0.04419 0.45863 -0.08599
 H534 H -0.00675 0.40540 -0.02594
 H535 H -0.03280 0.36895 -0.04538
 C536 C 0.16078 0.70678 -0.13262
 C537 C 0.14553 0.68880 -0.11593
 C538 C 0.12674 0.67187 -0.12868
 C539 C 0.12307 0.67356 -0.15847
 C540 C 0.13819 0.69163 -0.17512
 C541 C 0.15721 0.70845 -0.16240
 C542 C 0.11064 0.65340 -0.11024
 C543 C 0.10104 0.63046 -0.11995
 C544 C 0.08504 0.61181 -0.10169
 C545 C 0.08566 0.58497 -0.10890
 C546 C 0.07044 0.56677 -0.09257
 C547 C 0.05396 0.57512 -0.06886
 C548 C 0.05309 0.60204 -0.06177
 C549 C 0.06846 0.62024 -0.07803
 H550 H 0.17494 0.71968 -0.12202
 H551 H 0.14848 0.68806 -0.09298
 H552 H 0.10815 0.66137 -0.16892
 H553 H 0.13492 0.69237 -0.19798
 H554 H 0.10791 0.65833 -0.08769
 H555 H 0.10624 0.62432 -0.14174
 H556 H 0.09809 0.57804 -0.12716
 H557 H 0.07142 0.54616 -0.09864
 H558 H 0.04047 0.60905 -0.04370
 H559 H 0.06685 0.64089 -0.07236
 C560 C -0.17030 0.69731 0.10902
 C561 C -0.15201 0.68070 0.09361
 C562 C -0.13356 0.66431 0.10803
 C563 C -0.13391 0.66471 0.13824
 C564 C -0.15207 0.68132 0.15357
 C565 C -0.17017 0.69810 0.13917
 C566 C -0.11307 0.64842 0.09110
 C567 C -0.10112 0.62659 0.10134
 C568 C -0.07961 0.61140 0.08512
 C569 C -0.07658 0.58443 0.09093
 C570 C -0.05636 0.56946 0.07631
 C571 C -0.03844 0.58128 0.05587
 C572 C -0.04094 0.60845 0.05057
 C573 C -0.06136 0.62339 0.06502
 H574 H -0.18380 0.71015 0.09726
 H575 H -0.15202 0.68091 0.07035
 H576 H -0.11956 0.65296 0.15020
 H577 H -0.15155 0.68127 0.17679
 H578 H -0.10819 0.65470 0.06930
 H579 H -0.10800 0.61876 0.12196
 H580 H -0.09016 0.57483 0.10658
 H581 H -0.05488 0.54857 0.08089
 H582 H -0.02734 0.61812 0.03503
 H583 H -0.06251 0.64433 0.06071
 C584 C 1.11960 0.16209 0.67876
 C585 C 1.10662 0.14758 0.65752
 C586 C 1.11513 0.12169 0.65109
 C587 C 1.13782 0.11105 0.66519
 C588 C 1.15083 0.12552 0.68626
 C589 C 1.14156 0.15102 0.69374
 C590 C 1.10002 0.10619 0.62978
 C591 C 1.09739 0.07993 0.63178
 C592 C 1.08107 0.06405 0.61189
 C593 C 1.06909 0.04056 0.62202
 C594 C 1.05322 0.02514 0.60410
 C595 C 1.04944 0.03268 0.57550
 C596 C 1.06210 0.05576 0.56501
 C597 C 1.07771 0.07138 0.58306
 H598 H 1.11194 0.18167 0.68384
 H599 H 1.08940 0.15633 0.64665
 H600 H 1.14566 0.09156 0.65993
 H601 H 1.16812 0.11654 0.69669
 H602 H 1.08917 0.11691 0.61346
 H603 H 1.10590 0.06970 0.64993
 H604 H 1.07163 0.03435 0.64405
 H605 H 1.04385 0.00734 0.61266
 H606 H 1.05963 0.06194 0.54298
 H607 H 1.08734 0.08897 0.57432
 C608 C 0.84955 -0.13018 0.71731
 C609 C 0.86445 -0.11377 0.69859
 C610 C 0.87954 -0.12435 0.67512
 C611 C 0.88051 -0.15191 0.67141
 C612 C 0.86599 -0.16847 0.69065
 C613 C 0.84997 -0.15763 0.71342
 C614 C 0.89409 -0.10589 0.65538
 C615 C 0.89731 -0.11006 0.62705
 C616 C 0.90932 -0.08990 0.60733
 C617 C 0.90077 -0.08873 0.57884
 C618 C 0.91121 -0.06943 0.56000
 C619 C 0.93064 -0.05108 0.56927
 C620 C 0.93953 -0.05259 0.59766
 C621 C 0.92908 -0.07180 0.61644
 H622 H 0.83769 -0.12133 0.73495
 H623 H 0.86365 -0.09265 0.70206
 H624 H 0.89254 -0.16063 0.65384
 H625 H 0.86665 -0.18960 0.68731
 H626 H 0.89987 -0.08704 0.66422
 H627 H 0.88889 -0.12773 0.61772
 H628 H 0.88572 -0.10258 0.57126
 H629 H 0.90423 -0.06900 0.53815
 H630 H 0.95480 -0.03905 0.60537
 H631 H 0.93686 -0.07262 0.63794
 C632 C 1.18150 -0.13673 0.33096
 C633 C 1.16861 -0.12125 0.35226
 C634 C 1.14311 -0.12864 0.36470
 C635 C 1.13093 -0.15227 0.35566
 C636 C 1.14386 -0.16778 0.33423
 C637 C 1.16906 -0.15993 0.32126
 C638 C 1.12904 -0.11003 0.38499
 C639 C 1.10890 -0.11698 0.40384
 C640 C 1.09236 -0.09751 0.42091
 C641 C 1.06530 -0.10418 0.42936
 C642 C 1.04793 -0.08571 0.44298
 C643 C 1.05733 -0.06014 0.44872
 C644 C 1.08491 -0.05384 0.44185
 C645 C 1.10232 -0.07235 0.42806
 H646 H 1.20112 -0.13020 0.32191
 H647 H 1.17844 -0.10317 0.35876
 H648 H 1.11095 -0.15839 0.36409
 H649 H 1.13359 -0.18541 0.32718
 H650 H 1.13510 -0.08958 0.38339
 H651 H 1.10277 -0.13742 0.40544
 H652 H 1.05721 -0.12347 0.42442
 H653 H 1.02686 -0.09127 0.44839
 H654 H 1.09281 -0.03440 0.44639
 H655 H 1.12338 -0.06676 0.42288
 C656 C 0.88829 0.11789 0.26443
 C657 C 0.90005 0.10298 0.28601
 C658 C 0.90512 0.11419 0.31283
 C659 C 0.89920 0.14115 0.31723
 C660 C 0.88760 0.15623 0.29539
 C661 C 0.88156 0.14457 0.26897
 C662 C 0.91675 0.09688 0.33510
 C663 C 0.91427 0.10135 0.36349
 C664 C 0.92379 0.08203 0.38508
 C665 C 0.91136 0.08199 0.41276
 C666 C 0.91897 0.06322 0.43316
 C667 C 0.93919 0.04409 0.42621
 C668 C 0.95209 0.04458 0.39877
 C669 C 0.94475 0.06346 0.37858
 H670 H 0.88443 0.10840 0.24415
 H671 H 0.90472 0.08237 0.28189
 H672 H 0.90354 0.15068 0.33735
 H673 H 0.88273 0.17679 0.29941
 H674 H 0.92574 0.07848 0.32756
 H675 H 0.90305 0.11855 0.37131
 H676 H 0.89536 0.09623 0.41846
 H677 H 0.90882 0.06352 0.45423
 H678 H 0.96802 0.03039 0.39283
 H679 H 0.95574 0.06342 0.35800
 C680 C 0.13786 0.33583 -0.18437
 C681 C 0.12766 0.35969 -0.17327
 C682 C 0.14279 0.37419 -0.15354
 C683 C 0.16923 0.36514 -0.14658
 C684 C 0.17932 0.34118 -0.15749
 C685 C 0.16346 0.32594 -0.17593
 C686 C 0.12967 0.39779 -0.13992
 C687 C 0.13701 0.40757 -0.11448
 C688 C 0.12033 0.42750 -0.09821
 C689 C 0.12188 0.42808 -0.06816
 C690 C 0.10392 0.44399 -0.05160
 C691 C 0.08408 0.45974 -0.06482
 C692 C 0.08386 0.46063 -0.09498
 C693 C 0.10191 0.44481 -0.11154
 H694 H 0.12512 0.32465 -0.19855
 H695 H 0.10738 0.36632 -0.17931
 H696 H 0.18214 0.37624 -0.13252
 H697 H 0.19945 0.33445 -0.15115
 H698 H 0.11136 0.40535 -0.14980
 H699 H 0.15389 0.39857 -0.10335
 H700 H 0.13614 0.41523 -0.05734
 H701 H 0.10473 0.44301 -0.02841
 H702 H 0.06909 0.47290 -0.10582
 H703 H 0.10090 0.44585 -0.13468
 C704 C -0.14946 0.31117 0.09535
 C705 C -0.13613 0.33132 0.07987
 C706 C -0.11848 0.34875 0.09360
 C707 C -0.11418 0.34552 0.12313
 C708 C -0.12710 0.32508 0.13848
 C709 C -0.14480 0.30764 0.12474
 C710 C -0.10326 0.36881 0.07635
 C711 C -0.09627 0.39231 0.08702
 C712 C -0.07876 0.41149 0.07093
 C713 C -0.08140 0.43844 0.07736
 C714 C -0.06329 0.45679 0.06473
 C715 C -0.04173 0.44843 0.04591
 C716 C -0.03948 0.42152 0.03896
 C717 C -0.05785 0.40324 0.05123
 H718 H -0.16272 0.29785 0.08409
 H719 H -0.13949 0.33322 0.05708
 H720 H -0.10014 0.35821 0.13420
 H721 H -0.12312 0.32284 0.16110
 H722 H -0.09813 0.36417 0.05410
 H723 H -0.10382 0.39792 0.10833
 H724 H -0.09723 0.44526 0.09260
 H725 H -0.06547 0.47737 0.07064
 H726 H -0.02301 0.41448 0.02465
 H727 H -0.05480 0.38256 0.04627
 C728 C -0.16811 0.68666 -0.10019
 C729 C -0.15462 0.66723 -0.08456
 C730 C -0.13660 0.64928 -0.09846
 C731 C -0.13193 0.65144 -0.12837
 C732 C -0.14519 0.67110 -0.14397
 C733 C -0.16346 0.68889 -0.13006
 C734 C -0.12160 0.62983 -0.08096
 C735 C -0.11320 0.60627 -0.09114
 C736 C -0.09514 0.58778 -0.07550
 C737 C -0.08101 0.56816 -0.09145
 C738 C -0.06131 0.55221 -0.07870
 C739 C -0.05535 0.55540 -0.04959
 C740 C -0.07079 0.57376 -0.03305
 C741 C -0.09057 0.58975 -0.04583
 H742 H -0.18175 0.70027 -0.08872
 H743 H -0.15825 0.66622 -0.06150
 H744 H -0.11748 0.63848 -0.13967
 H745 H -0.14116 0.67229 -0.16693
 H746 H -0.11721 0.63562 -0.05927
 H747 H -0.11841 0.60080 -0.11276
 H748 H -0.08434 0.56590 -0.11422
 H749 H -0.04991 0.53810 -0.09199
 H750 H -0.06680 0.57656 -0.01051
 H751 H -0.10168 0.60386 -0.03239
 C752 C 0.14438 0.67313 0.17466
 C753 C 0.13064 0.65286 0.16077
 C754 C 0.14190 0.64135 0.13558
 C755 C 0.16778 0.65013 0.12499
 C756 C 0.18154 0.67047 0.13888
 C757 C 0.16992 0.68242 0.16379
 C758 C 0.12594 0.62032 0.12141
 C759 C 0.12980 0.61305 0.09380
 C760 C 0.11146 0.59419 0.07931
 C761 C 0.10832 0.59640 0.04953
 C762 C 0.08922 0.58080 0.03552
 C763 C 0.07306 0.56238 0.05099
 C764 C 0.07750 0.55892 0.08043
 C765 C 0.09652 0.57460 0.09446
 H766 H 0.13481 0.68144 0.19392
 H767 H 0.11090 0.64634 0.16964
 H768 H 0.17769 0.64126 0.10621
 H769 H 0.20125 0.67680 0.12991
 H770 H 0.10888 0.61198 0.13385
 H771 H 0.14518 0.62295 0.08046
 H772 H 0.11984 0.61103 0.03724
 H773 H 0.08637 0.58388 0.01278
 H774 H 0.06562 0.54465 0.09286
 H775 H 0.09918 0.57152 0.11719
 C776 C 0.26466 1.11750 0.88118
 C777 C 0.28259 1.10292 0.89791
 C778 C 0.30242 1.11562 0.91414
 C779 C 0.30296 1.14336 0.91461
 C780 C 0.28489 1.15797 0.89796
 C781 C 0.26594 1.14517 0.88059
 C782 C 0.32262 1.09924 0.92940
 C783 C 0.34832 1.10734 0.93425
 C784 C 0.37008 1.08942 0.94450
 C785 C 0.39757 1.09457 0.93619
 C786 C 0.41859 1.07712 0.94341
 C787 C 0.41257 1.05424 0.95939
 C788 C 0.38519 1.04966 0.96882
 C789 C 0.36413 1.06710 0.96151
 H790 H 0.24996 1.10700 0.86853
 H791 H 0.28152 1.08159 0.89748
 H792 H 0.31737 1.15384 0.92763
 H793 H 0.28633 1.17925 0.89817
 H794 H 0.31709 1.07893 0.93365
 H795 H 0.35466 1.12685 0.92741
 H796 H 0.40272 1.11176 0.92332
 H797 H 0.43952 1.08143 0.93613
 H798 H 0.37994 1.03239 0.98150
 H799 H 0.34328 1.06298 0.96913
 C800 C 0.34230 0.81998 1.13753
 C801 C 0.36418 0.83361 1.12411
 C802 C 0.37336 0.85763 1.13531
 C803 C 0.36050 0.86748 1.16064
 C804 C 0.33864 0.85392 1.17397
 C805 C 0.32891 0.83031 1.16226
 C806 C 0.39413 0.87309 1.11845
 C807 C 0.40885 0.89292 1.12933
 C808 C 0.42543 0.91139 1.11115
 C809 C 0.43003 0.93703 1.12138
 C810 C 0.44251 0.95605 1.10353
 C811 C 0.45056 0.94970 1.07515
 C812 C 0.44772 0.92362 1.06559
 C813 C 0.43549 0.90461 1.08343
 H814 H 0.33523 0.80193 1.12788
 H815 H 0.37351 0.82569 1.10446
 H816 H 0.36625 0.88622 1.16964
 H817 H 0.32905 0.86231 1.19321
 H818 H 0.39592 0.86869 1.09575
 H819 H 0.40714 0.89726 1.15205
 H820 H 0.42283 0.94269 1.14279
 H821 H 0.44468 0.97597 1.11149
 H822 H 0.45434 0.91806 1.04396
 H823 H 0.43361 0.88481 1.07517
 C824 C 0.71560 1.11449 1.13776
 C825 C 0.69357 1.09931 1.12895
 C826 C 0.67306 1.11029 1.11207
 C827 C 0.67495 1.13707 1.10428
 C828 C 0.69715 1.15235 1.11311
 C829 C 0.71791 1.14113 1.12970
 C830 C 0.65149 1.09251 1.10152
 C831 C 0.62709 1.10055 1.09187
 C832 C 0.60711 1.08183 1.07985
 C833 C 0.57877 1.08771 1.08151
 C834 C 0.55968 1.07065 1.06947
 C835 C 0.56871 1.04761 1.05517
 C836 C 0.59703 1.04173 1.05361
 C837 C 0.61602 1.05867 1.06564
 H838 H 0.73081 1.10509 1.15085
 H839 H 0.69269 1.07873 1.13518
 H840 H 0.65991 1.14609 1.09065
 H841 H 0.69833 1.17274 1.10636
 H842 H 0.65590 1.07157 1.10240
 H843 H 0.62114 1.12111 1.09343
 H844 H 0.57143 1.10555 1.09209
 H845 H 0.53796 1.07577 1.07078
 H846 H 0.60466 1.02424 1.04255
 H847 H 0.63773 1.05391 1.06300
 C848 C 0.66990 0.83449 0.88662
 C849 C 0.65067 0.85148 0.90002
 C850 C 0.63699 0.87078 0.88412
 C851 C 0.64251 0.87237 0.85432
 C852 C 0.66171 0.85542 0.84096
 C853 C 0.67606 0.83668 0.85704
 C854 C 0.61897 0.89013 0.89958
 C855 C 0.59986 0.90487 0.88680
 C856 C 0.58349 0.92543 0.90223
 C857 C 0.55722 0.93196 0.89262
 C858 C 0.54116 0.95118 0.90684
 C859 C 0.55132 0.96457 0.93069
 C860 C 0.57800 0.95860 0.93974
 C861 C 0.59395 0.93927 0.92565
 H862 H 0.68070 0.82042 0.89969
 H863 H 0.64693 0.84993 0.92303
 H864 H 0.63298 0.88732 0.84132
 H865 H 0.66574 0.85750 0.81809
 H866 H 0.62148 0.89204 0.92251
 H867 H 0.59518 0.90130 0.86458
 H868 H 0.54890 0.92183 0.87437
 H869 H 0.52068 0.95534 0.89934
 H870 H 0.58642 0.96857 0.95803
 H871 H 0.61453 0.93544 0.93298
   
