data_POSCAR
  _audit_creation_date              2014-09-24
  _audit_creation_method            'ToBaCCo'
  _symmetry_space_group_name_H-M    'P1'
  _symmetry_Int_Tables_number       1
  _symmetry_cell_setting            triclinic
  loop_
  _symmetry_equiv_pos_as_xyz
 x,y,z
_cell_length_a 39.7957
_cell_length_b 40.0851
_cell_length_c 36.2296
_cell_angle_alpha 90.084300
_cell_angle_beta 89.995400
_cell_angle_gamma 84.063300
loop_
  _atom_site_label
  _atom_site_type_symbol
  _atom_site_fract_x
  _atom_site_fract_y
  _atom_site_fract_z
C1 C -0.09555 0.25619 -0.01463
 C2 C -0.09555 0.25522 0.02320
 C3 C -0.06921 0.27281 0.03498
 N4 N -0.05289 0.28407 0.00540
 C5 C -0.06890 0.27379 -0.02488
 C6 C -0.06035 0.27826 0.07236
 C7 C -0.02984 0.29170 0.08164
 C8 C -0.02390 0.30813 0.11445
 C9 C 0.00941 0.31431 0.11411
 C10 C 0.02271 0.30205 0.08088
 N11 N -0.00139 0.28869 0.06101
 C12 C 0.05705 0.30036 0.07110
 C13 C 0.06805 0.29521 0.03441
 C14 C 0.10083 0.28438 0.02398
 C15 C 0.10116 0.28420 -0.01378
 C16 C 0.06864 0.29546 -0.02518
 N17 N 0.04831 0.30186 0.00442
 C18 C 0.05813 0.30015 -0.06235
 C19 C 0.02361 0.30117 -0.07235
 C20 C 0.01002 0.31293 -0.10574
 C21 C -0.02355 0.30766 -0.10534
 C22 C -0.02965 0.29312 -0.07163
 N23 N -0.00088 0.28946 -0.05155
 C24 C -0.06037 0.28085 -0.06167
 H25 H -0.11276 0.24460 -0.03256
 H26 H -0.11262 0.24225 0.03984
 H27 H 0.00266 0.27608 -0.02702
 H28 H -0.04164 0.31462 0.13660
 H29 H 0.02248 0.32610 0.13599
 H30 H 0.12215 0.27682 0.04170
 H31 H 0.12281 0.27607 -0.03082
 H32 H -0.04139 0.31355 -0.12752
 H33 H 0.00257 0.27447 0.03704
 H34 H 0.02291 0.32406 -0.12816
 C35 C 0.61427 0.78831 0.47469
 C36 C 0.61524 0.78913 0.51243
 C37 C 0.58324 0.80176 0.52406
 N38 N 0.56278 0.80881 0.49474
 C39 C 0.58174 0.80055 0.46452
 C40 C 0.57367 0.80769 0.56115
 C41 C 0.53956 0.81232 0.57254
 C42 C 0.52859 0.82349 0.60715
 C43 C 0.49435 0.82098 0.60843
 C44 C 0.48541 0.80827 0.57459
 N45 N 0.51308 0.80326 0.55284
 C46 C 0.45309 0.79885 0.56567
 C47 C 0.44280 0.79342 0.52892
 C48 C 0.41367 0.77944 0.51894
 C49 C 0.41257 0.77950 0.48109
 C50 C 0.44111 0.79342 0.46911
 N51 N 0.45946 0.80209 0.49839
 C52 C 0.44936 0.79864 0.43171
 C53 C 0.48139 0.80725 0.42038
 C54 C 0.48875 0.81905 0.38561
 C55 C 0.52312 0.82074 0.38442
 C56 C 0.53575 0.81010 0.41854
 N57 N 0.51017 0.80206 0.44031
 C58 C 0.57037 0.80520 0.42783
 H59 H 0.63509 0.77931 0.45688
 H60 H 0.63692 0.78086 0.52933
 H61 H 0.51283 0.78947 0.46535
 H62 H 0.54379 0.83190 0.62941
 H63 H 0.47803 0.82720 0.63187
 H64 H 0.39528 0.76976 0.53693
 H65 H 0.39318 0.76989 0.46438
 H66 H 0.53728 0.82836 0.36093
 H67 H 0.51462 0.79013 0.52804
 H68 H 0.47127 0.82515 0.36315
 C69 C 1.11828 0.66740 -0.01739
 C70 C 1.11685 0.66841 0.02049
 C71 C 1.08989 0.69171 0.02950
 N72 N 1.07430 0.70429 -0.00120
 C73 C 1.09212 0.69013 -0.02981
 C74 C 1.08188 0.70485 0.06485
 C75 C 1.04715 0.71293 0.07363
 C76 C 1.03375 0.73321 0.10232
 C77 C 0.99922 0.73253 0.10123
 C78 C 0.99236 0.71235 0.07167
 N79 N 1.02154 0.70090 0.05478
 C80 C 0.96017 0.70319 0.06183
 C81 C 0.95281 0.69558 0.02463
 C82 C 0.92415 0.68204 0.01227
 C83 C 0.92533 0.68238 -0.02569
 C84 C 0.95477 0.69591 -0.03533
 N85 N 0.97163 0.70372 -0.00455
 C86 C 0.96452 0.70369 -0.07167
 C87 C 0.99768 0.71136 -0.07944
 C88 C 1.00704 0.73025 -0.10902
 C89 C 1.04170 0.72954 -0.10788
 C90 C 1.05264 0.70984 -0.07781
 N91 N 1.02547 0.69940 -0.06038
 C92 C 1.08659 0.70113 -0.06640
 H93 H 1.13693 0.65255 -0.03392
 H94 H 1.13421 0.65455 0.03929
 H95 H 1.02604 0.68251 -0.03842
 H96 H 1.04689 0.74776 0.12166
 H97 H 0.98117 0.74586 0.11975
 H98 H 0.90434 0.67291 0.02869
 H99 H 0.90661 0.67368 -0.04401
 H100 H 1.05660 0.74291 -0.12665
 H101 H 1.02398 0.68332 0.03340
 H102 H 0.99058 0.74360 -0.12906
 C103 C 0.60081 0.22344 0.48706
 C104 C 0.59996 0.22452 0.52490
 C105 C 0.57060 0.21136 0.53558
 N106 N 0.55361 0.20208 0.50557
 C107 C 0.57194 0.20964 0.47586
 C108 C 0.56034 0.20724 0.57250
 C109 C 0.52795 0.19857 0.58210
 C110 C 0.51917 0.18694 0.61645
 C111 C 0.48487 0.18492 0.61575
 C112 C 0.47371 0.19535 0.58098
 N113 N 0.50014 0.20348 0.56061
 C114 C 0.43955 0.19980 0.56990
 C115 C 0.42962 0.20424 0.53266
 C116 C 0.39720 0.21512 0.52085
 C117 C 0.39797 0.21453 0.48303
 C118 C 0.43083 0.20332 0.47301
 N119 N 0.45012 0.19695 0.50338
 C120 C 0.44222 0.19763 0.43641
 C121 C 0.47676 0.19226 0.42706
 C122 C 0.48918 0.18012 0.39336
 C123 C 0.52358 0.18149 0.39419
 C124 C 0.53114 0.19460 0.42831
 N125 N 0.50248 0.20089 0.44824
 C126 C 0.56325 0.20353 0.43882
 H127 H 0.62027 0.23225 0.46985
 H128 H 0.61866 0.23430 0.54245
 H129 H 0.50004 0.21453 0.47268
 H130 H 0.53566 0.18109 0.63982
 H131 H 0.46979 0.17722 0.63846
 H132 H 0.37531 0.22292 0.53766
 H133 H 0.37678 0.22175 0.46502
 H134 H 0.54095 0.17433 0.37189
 H135 H 0.49860 0.21593 0.53543
 H136 H 0.47488 0.17169 0.37036
 C137 C 0.72476 -0.10548 -0.01860
 C138 C 0.72373 -0.10493 0.01901
 C139 C 0.70653 -0.07440 0.02902
 N140 N 0.69730 -0.05598 -0.00124
 C141 C 0.70800 -0.07534 -0.03040
 C142 C 0.69866 -0.06462 0.06576
 C143 C 0.69448 -0.03042 0.07621
 C144 C 0.68176 -0.01806 0.10973
 C145 C 0.68287 0.01618 0.10892
 C146 C 0.69613 0.02376 0.07488
 N147 N 0.70316 -0.00476 0.05519
 C148 C 0.70372 0.05595 0.06385
 C149 C 0.71214 0.06378 0.02715
 C150 C 0.72807 0.09152 0.01714
 C151 C 0.73086 0.09077 -0.02051
 C152 C 0.71599 0.06284 -0.03256
 N153 N 0.70477 0.04618 -0.00323
 C154 C 0.71254 0.05329 -0.07005
 C155 C 0.70318 0.02119 -0.07964
 C156 C 0.68800 0.01336 -0.11262
 C157 C 0.68505 -0.02049 -0.11203
 C158 C 0.69833 -0.03243 -0.07864
 N159 N 0.70889 -0.00679 -0.05883
 C160 C 0.70193 -0.06646 -0.06767
 H161 H 0.73696 -0.12558 -0.03536
 H162 H 0.73486 -0.12457 0.03704
 H163 H 0.72254 -0.00893 -0.03425
 H164 H 0.67259 -0.03218 0.13239
 H165 H 0.67499 0.03349 0.13097
 H166 H 0.73742 0.11003 0.03517
 H167 H 0.74319 0.10848 -0.03685
 H168 H 0.67418 -0.03462 -0.13366
 H169 H 0.71625 -0.00697 0.03031
 H170 H 0.67977 0.03033 -0.13480
 C171 C 0.17418 0.41639 0.48197
 C172 C 0.17294 0.41715 0.51984
 C173 C 0.18896 0.44461 0.53087
 N174 N 0.19990 0.46063 0.50107
 C175 C 0.19104 0.44334 0.47115
 C176 C 0.19603 0.45287 0.56779
 C177 C 0.20657 0.48441 0.57761
 C178 C 0.22148 0.49178 0.61089
 C179 C 0.22472 0.52558 0.61081
 C180 C 0.21268 0.53779 0.57705
 N181 N 0.20157 0.51261 0.55701
 C182 C 0.21052 0.57171 0.56620
 C183 C 0.20885 0.58178 0.52891
 C184 C 0.20728 0.61473 0.51695
 C185 C 0.21066 0.61358 0.47940
 C186 C 0.21400 0.57994 0.46948
 N187 N 0.21318 0.56058 0.49988
 C188 C 0.22143 0.56758 0.43355
 C189 C 0.22283 0.53317 0.42426
 C190 C 0.23683 0.51890 0.39215
 C191 C 0.23157 0.48559 0.39281
 C192 C 0.21365 0.48047 0.42479
 N193 N 0.20859 0.50958 0.44391
 C194 C 0.20066 0.45007 0.43458
 H195 H 0.16407 0.39793 0.46450
 H196 H 0.16168 0.39941 0.53724
 H197 H 0.19295 0.51389 0.46680
 H198 H 0.22919 0.47476 0.63316
 H199 H 0.23504 0.53941 0.63303
 H200 H 0.20542 0.63732 0.53351
 H201 H 0.21181 0.63522 0.46186
 H202 H 0.23989 0.46736 0.37181
 H203 H 0.18795 0.51531 0.53247
 H204 H 0.24940 0.53099 0.37021
 C205 C 0.30163 1.09707 -0.01955
 C206 C 0.30231 1.09682 0.01831
 C207 C 0.28135 1.07320 0.02956
 N208 N 0.26820 1.05878 -0.00024
 C209 C 0.28025 1.07361 -0.03032
 C210 C 0.27372 1.06553 0.06663
 C211 C 0.25901 1.03560 0.07481
 C212 C 0.23933 1.03043 0.10553
 C213 C 0.23392 0.99719 0.10546
 C214 C 0.24913 0.98319 0.07386
 N215 N 0.26403 1.00686 0.05506
 C216 C 0.25161 0.94884 0.06453
 C217 C 0.25743 0.93749 0.02808
 C218 C 0.26219 0.90424 0.01713
 C219 C 0.26211 0.90430 -0.02080
 C220 C 0.25734 0.93768 -0.03173
 N221 N 0.25428 0.95775 -0.00170
 C222 C 0.25042 0.94935 -0.06808
 C223 C 0.24637 0.98423 -0.07610
 C224 C 0.23072 0.99913 -0.10708
 C225 C 0.23578 1.03243 -0.10601
 C226 C 0.25596 1.03694 -0.07558
 N227 N 0.26142 1.00770 -0.05687
 C228 C 0.27117 1.06662 -0.06718
 H229 H 0.31600 1.11224 -0.03702
 H230 H 0.31730 1.11174 0.03542
 H231 H 0.27837 1.00314 -0.03507
 H232 H 0.23015 1.04856 0.12628
 H233 H 0.22037 0.98499 0.12651
 H234 H 0.26403 0.88220 0.03451
 H235 H 0.26354 0.88214 -0.03802
 H236 H 0.22634 1.05098 -0.12616
 H237 H 0.28023 1.00269 0.03252
 H238 H 0.21743 0.98777 -0.12893
 C239 C 0.75386 0.39288 0.51406
 C240 C 0.75385 0.39355 0.47616
 C241 C 0.76646 0.42316 0.46585
 N242 N 0.77431 0.44047 0.49614
 C243 C 0.76643 0.42211 0.52562
 C244 C 0.77200 0.43300 0.42906
 C245 C 0.78112 0.46509 0.41952
 C246 C 0.79479 0.47303 0.38586
 C247 C 0.79817 0.50683 0.38664
 C248 C 0.78626 0.51875 0.42068
 N249 N 0.77601 0.49307 0.44061
 C250 C 0.78302 0.55294 0.43148
 C251 C 0.77716 0.56328 0.46858
 C252 C 0.76718 0.59587 0.47994
 C253 C 0.76589 0.59536 0.51783
 C254 C 0.77501 0.56248 0.52840
 N255 N 0.78200 0.54295 0.49829
 C256 C 0.77802 0.55110 0.56529
 C257 C 0.78332 0.51675 0.57451
 C258 C 0.79468 0.50443 0.60853
 C259 C 0.79283 0.47040 0.60779
 C260 C 0.78036 0.46289 0.57335
 N261 N 0.77489 0.49125 0.55311
 C262 C 0.77142 0.43104 0.56278
 H263 H 0.74544 0.37321 0.53109
 H264 H 0.74539 0.37443 0.45830
 H265 H 0.76172 0.49378 0.52832
 H266 H 0.80155 0.45622 0.36303
 H267 H 0.80809 0.52100 0.36447
 H268 H 0.76114 0.61773 0.46277
 H269 H 0.75883 0.61673 0.53549
 H270 H 0.79926 0.45322 0.63033
 H271 H 0.76267 0.49518 0.46531
 H272 H 0.80285 0.51859 0.63174
 O273 O 0.25249 0.20433 0.23309
 O274 O 0.22728 0.26476 0.30724
 O275 O 0.19842 0.24429 0.24717
 O276 O 0.28011 0.22386 0.29325
 O277 O 0.30138 0.26413 0.26219
 O278 O 0.21969 0.28387 0.21497
 O279 O 0.24691 0.30496 0.27444
 O280 O 0.27320 0.24432 0.20098
 Cu281 Cu 0.23738 0.23034 0.27336
 Cu282 Cu 0.26267 0.27831 0.23507
 C283 C 0.26652 0.21417 0.20415
 C284 C 0.23300 0.29515 0.30342
 C285 C 0.19528 0.26704 0.22267
 C286 C 0.30449 0.24083 0.28613
 O287 O 0.76093 0.78947 0.23125
 O288 O 0.77956 0.70927 0.27992
 O289 O 0.80534 0.73765 0.22147
 O290 O 0.73246 0.75957 0.28390
 O291 O 0.69998 0.73363 0.24630
 O292 O 0.77109 0.71520 0.18286
 O293 O 0.74678 0.68482 0.24143
 O294 O 0.72612 0.76595 0.19420
 Cu295 Cu 0.77322 0.75099 0.25798
 Cu296 Cu 0.73317 0.72216 0.21211
 C297 C 0.73976 0.79161 0.20497
 C298 C 0.76538 0.68378 0.27008
 C299 C 0.79994 0.72404 0.19057
 C300 C 0.70378 0.75024 0.27552
 O301 O 0.80578 0.22778 0.23483
 O302 O 0.74558 0.20332 0.30521
 O303 O 0.76778 0.17905 0.24195
 O304 O 0.78646 0.24956 0.30030
 O305 O 0.74566 0.28238 0.27352
 O306 O 0.72669 0.21100 0.21454
 O307 O 0.70499 0.23595 0.27777
 O308 O 0.76439 0.25973 0.20787
 Cu309 Cu 0.78054 0.21173 0.27323
 Cu310 Cu 0.73138 0.25053 0.24071
 C311 C 0.79509 0.24765 0.20905
 C312 C 0.71492 0.21586 0.30345
 C313 C 0.74427 0.18283 0.21822
 C314 C 0.76912 0.27782 0.29742
 O315 O 0.19515 0.77113 0.24725
 O316 O 0.26222 0.79743 0.30728
 O317 O 0.23652 0.81632 0.24182
 O318 O 0.22076 0.75023 0.30808
 O319 O 0.25864 0.71514 0.27944
 O320 O 0.27662 0.78209 0.21552
 O321 O 0.29983 0.76139 0.27977
 O322 O 0.23342 0.73774 0.21694
 Cu323 Cu 0.22533 0.78771 0.27933
 Cu324 Cu 0.27103 0.74567 0.24511
 C325 C 0.20295 0.74992 0.22185
 C326 C 0.29225 0.78346 0.30439
 C327 C 0.25893 0.81025 0.21704
 C328 C 0.23628 0.72111 0.30420
 O329 O 0.70030 0.24958 0.73282
 O330 O 0.76267 0.27740 0.79795
 O331 O 0.74270 0.29434 0.73082
 O332 O 0.72012 0.23275 0.79944
 O333 O 0.75823 0.19484 0.77558
 O334 O 0.78188 0.25702 0.70789
 O335 O 0.80137 0.23950 0.77518
 O336 O 0.73924 0.21239 0.70916
 Cu337 Cu 0.72764 0.26736 0.76757
 Cu338 Cu 0.77422 0.22226 0.73970
 C339 C 0.70916 0.22651 0.70966
 C340 C 0.79251 0.26270 0.79819
 C341 C 0.76568 0.28605 0.70723
 C342 C 0.73530 0.20327 0.79919
 O343 O 0.31136 0.75910 0.72683
 O344 O 0.24525 0.73162 0.78836
 O345 O 0.27960 0.70744 0.72901
 O346 O 0.28888 0.77804 0.79070
 O347 O 0.24604 0.80755 0.76342
 O348 O 0.23860 0.73723 0.69880
 O349 O 0.20583 0.75925 0.75402
 O350 O 0.27134 0.78939 0.69588
 Cu351 Cu 0.28424 0.74105 0.76241
 Cu352 Cu 0.23712 0.77740 0.72563
 C353 C 0.30224 0.77885 0.70035
 C354 C 0.21423 0.74021 0.78104
 C355 C 0.25775 0.71008 0.70343
 C356 C 0.26879 0.80458 0.78828
 O357 O 0.24252 0.30918 0.72980
 O358 O 0.26850 0.24774 0.80249
 O359 O 0.29657 0.26788 0.74168
 O360 O 0.21561 0.28831 0.78961
 O361 O 0.19315 0.24961 0.75705
 O362 O 0.27463 0.22812 0.71030
 O363 O 0.24678 0.20843 0.77011
 O364 O 0.22216 0.26943 0.69679
 Cu365 Cu 0.25819 0.28224 0.76899
 Cu366 Cu 0.23184 0.23498 0.73038
 C367 C 0.22844 0.29963 0.70075
 C368 C 0.26137 0.21775 0.79895
 C369 C 0.29931 0.24471 0.71754
 C370 C 0.19074 0.27212 0.78192
 O371 O 0.74102 0.77056 0.70105
 O372 O 0.81465 0.75121 0.76340
 O373 O 0.79346 0.72527 0.70144
 O374 O 0.76704 0.80011 0.75599
 O375 O 0.73550 0.77095 0.79120
 O376 O 0.76205 0.69514 0.73560
 O377 O 0.78303 0.72176 0.79821
 O378 O 0.71116 0.73991 0.73650
 Cu379 Cu 0.78232 0.76438 0.72687
 Cu380 Cu 0.74534 0.72872 0.76910
 C381 C 0.71341 0.75850 0.70859
 C382 C 0.81051 0.73419 0.79240
 C383 C 0.78143 0.69785 0.70801
 C384 C 0.74663 0.79859 0.78262
 C385 C 0.27660 0.14529 0.11589
 C386 C 0.28098 0.13431 0.15247
 N387 N 0.28645 0.10104 0.15960
 C388 C 0.28631 0.07812 0.13198
 C389 C 0.27889 0.08872 0.09537
 N390 N 0.27530 0.12238 0.08841
 N391 N 0.27212 0.17869 0.10868
 C392 C 0.27100 0.20157 0.13656
 C393 C 0.27340 0.19053 0.17339
 N394 N 0.27867 0.15705 0.18037
 H395 H 0.29168 0.05183 0.13873
 H396 H 0.26655 0.22802 0.13013
 C397 C 0.79502 0.62274 0.62585
 C398 C 0.77019 0.62149 0.65325
 N399 N 0.74858 0.59747 0.65148
 C400 C 0.75062 0.57468 0.62353
 C401 C 0.77531 0.57596 0.59591
 N402 N 0.79702 0.60004 0.59784
 N403 N 0.81630 0.64704 0.62733
 C404 C 0.81357 0.67052 0.65459
 C405 C 0.78827 0.66984 0.68169
 N406 N 0.76731 0.64505 0.68041
 H407 H 0.73305 0.55580 0.62267
 H408 H 0.83048 0.69000 0.65456
 C409 C 0.71860 0.88258 0.14645
 C410 C 0.70364 0.85364 0.13644
 N411 N 0.68418 0.85388 0.10579
 C412 C 0.68008 0.88128 0.08373
 C413 C 0.69665 0.90983 0.09225
 N414 N 0.71472 0.91006 0.12425
 N415 N 0.73888 0.88178 0.17666
 C416 C 0.74538 0.85319 0.19683
 C417 C 0.73125 0.82389 0.18607
 N418 N 0.71031 0.82513 0.15635
 H419 H 0.66499 0.88041 0.05893
 H420 H 0.76201 0.85317 0.22046
 C421 C 0.21262 0.37060 0.61543
 C422 C 0.20059 0.37832 0.65118
 N423 N 0.18476 0.40927 0.65836
 C424 C 0.18124 0.43318 0.63164
 C425 C 0.19543 0.42632 0.59648
 N426 N 0.21028 0.39483 0.58921
 N427 N 0.22731 0.33928 0.60780
 C428 C 0.23108 0.31544 0.63453
 C429 C 0.22069 0.32362 0.67076
 N430 N 0.20551 0.35492 0.67824
 H431 H 0.16842 0.45764 0.63808
 H432 H 0.24337 0.29078 0.62796
 C433 C 0.86163 0.27114 0.12421
 C434 C 0.87412 0.25569 0.15686
 N435 N 0.90788 0.24806 0.16107
 C436 C 0.92980 0.25529 0.13418
 C437 C 0.91749 0.27067 0.10108
 N438 N 0.88345 0.27800 0.09714
 N439 N 0.82789 0.27913 0.12011
 C440 C 0.80600 0.27229 0.14719
 C441 C 0.81835 0.25638 0.17981
 N442 N 0.85226 0.24843 0.18377
 H443 H 0.95653 0.24816 0.13819
 H444 H 0.77919 0.27882 0.14304
 C445 C 0.37417 0.80367 0.62168
 C446 C 0.38338 0.78075 0.65010
 N447 N 0.41528 0.76510 0.65119
 C448 C 0.43835 0.77110 0.62496
 C449 C 0.42913 0.79374 0.59617
 N450 N 0.39715 0.80960 0.59541
 N451 N 0.34213 0.81890 0.62022
 C452 C 0.31871 0.81202 0.64568
 C453 C 0.32764 0.78869 0.67393
 N454 N 0.35997 0.77377 0.67548
 H455 H 0.46344 0.75785 0.62607
 H456 H 0.29326 0.82433 0.64355
 C457 C 0.12651 0.72285 0.15047
 C458 C 0.15911 0.72621 0.13734
 N459 N 0.16566 0.72285 0.10082
 C460 C 0.14121 0.71598 0.07671
 C461 C 0.10828 0.71153 0.08956
 N462 N 0.10216 0.71530 0.12649
 N463 N 0.11947 0.72819 0.18681
 C464 C 0.14364 0.73687 0.21052
 C465 C 0.17646 0.73979 0.19740
 N466 N 0.18339 0.73422 0.16104
 H467 H 0.14742 0.71558 0.04768
 H468 H 0.13740 0.74121 0.23933
 C469 C 0.63840 0.20200 0.62969
 C470 C 0.62960 0.22658 0.65662
 N471 N 0.59836 0.24370 0.65617
 C472 C 0.57550 0.23749 0.62983
 C473 C 0.58430 0.21313 0.60259
 N474 N 0.61564 0.19588 0.60325
 N475 N 0.66978 0.18514 0.62999
 C476 C 0.69291 0.19193 0.65586
 C477 C 0.68433 0.21687 0.68259
 N478 N 0.65270 0.23348 0.68229
 H479 H 0.55088 0.25176 0.62975
 H480 H 0.71784 0.17829 0.65522
 C481 C 0.71299 0.13272 0.87989
 C482 C 0.73073 0.12239 0.84773
 N483 N 0.74136 0.08944 0.84281
 C484 C 0.73519 0.06628 0.86867
 C485 C 0.71797 0.07649 0.90155
 N486 N 0.70732 0.10973 0.90601
 N487 N 0.70202 0.16564 0.88468
 C488 C 0.70821 0.18879 0.85881
 C489 C 0.72666 0.17866 0.82687
 N490 N 0.73743 0.14554 0.82216
 H491 H 0.74488 0.04035 0.86421
 H492 H 0.69937 0.21490 0.86351
 C493 C 0.21184 0.64202 0.37242
 C494 C 0.24464 0.64238 0.35827
 N495 N 0.26901 0.61769 0.36786
 C496 C 0.26209 0.59273 0.39118
 C497 C 0.22915 0.59208 0.40500
 N498 N 0.20481 0.61683 0.39513
 N499 N 0.18788 0.66757 0.36445
 C500 C 0.19524 0.69358 0.34293
 C501 C 0.22791 0.69380 0.32828
 N502 N 0.25184 0.66800 0.33616
 H503 H 0.28218 0.57395 0.39944
 H504 H 0.17565 0.71362 0.33689
 C505 C 0.27451 0.87941 0.86962
 C506 C 0.24520 0.87846 0.84829
 N507 N 0.21782 0.90062 0.85543
 C508 C 0.21858 0.92403 0.88257
 C509 C 0.24826 0.92570 0.90342
 N510 N 0.27533 0.90283 0.89656
 N511 N 0.30157 0.85666 0.86336
 C512 C 0.30062 0.83279 0.83683
 C513 C 0.27129 0.83165 0.81536
 N514 N 0.24424 0.85470 0.82161
 H515 H 0.19586 0.94036 0.88863
 H516 H 0.32250 0.81477 0.83270
 C517 C 0.78532 0.35416 0.37426
 C518 C 0.76093 0.35997 0.34635
 N519 N 0.74148 0.38986 0.34516
 C520 C 0.74511 0.41408 0.37082
 C521 C 0.76905 0.40804 0.39921
 N522 N 0.78870 0.37816 0.40007
 N523 N 0.80472 0.32433 0.37562
 C524 C 0.80065 0.29980 0.35059
 C525 C 0.77576 0.30512 0.32298
 N526 N 0.75657 0.33532 0.32149
 H527 H 0.72904 0.43755 0.36959
 H528 H 0.81631 0.27615 0.35272
 C529 C 0.10556 0.28446 0.85178
 C530 C 0.13398 0.30153 0.85850
 N531 N 0.13567 0.31981 0.88980
 C532 C 0.11066 0.32100 0.91539
 C533 C 0.08268 0.30263 0.90980
 N534 N 0.08056 0.28551 0.87741
 N535 N 0.10440 0.26547 0.82081
 C536 C 0.13076 0.26219 0.79666
 C537 C 0.15971 0.27847 0.80398
 N538 N 0.16027 0.29811 0.83459
 H539 H 0.11275 0.33595 0.94003
 H540 H 0.12949 0.24629 0.77264
 C541 C 0.62047 0.77250 0.34682
 C542 C 0.64848 0.79109 0.34857
 N543 N 0.64901 0.81593 0.37400
 C544 C 0.62317 0.82245 0.39837
 C545 C 0.59590 0.80273 0.39787
 N546 N 0.59503 0.77850 0.37164
 N547 N 0.61978 0.74783 0.32127
 C548 C 0.64599 0.74063 0.29757
 C549 C 0.67456 0.75849 0.29995
 N550 N 0.67499 0.78350 0.32537
 H551 H 0.62447 0.84191 0.41891
 H552 H 0.64482 0.72066 0.27762
 C553 C 0.88341 0.72390 0.87736
 C554 C 0.89208 0.71296 0.84140
 N555 N 0.92369 0.69807 0.83470
 C556 C 0.94711 0.69399 0.86215
 C557 C 0.93891 0.70599 0.89800
 N558 N 0.90699 0.72051 0.90455
 N559 N 0.85150 0.73758 0.88459
 C560 C 0.82782 0.74089 0.85749
 C561 C 0.83651 0.73068 0.82131
 N562 N 0.86858 0.71692 0.81399
 H563 H 0.97199 0.68169 0.85602
 H564 H 0.80246 0.75179 0.86399
 C565 C 0.39061 0.22520 0.35442
 C566 C 0.36486 0.20382 0.35610
 N567 N 0.36613 0.17941 0.38211
 C568 C 0.39166 0.17584 0.40715
 C569 C 0.41675 0.19806 0.40655
 N570 N 0.41588 0.22197 0.37977
 N571 N 0.38896 0.24990 0.32866
 C572 C 0.36236 0.25464 0.30495
 C573 C 0.33592 0.23402 0.30748
 N574 N 0.33814 0.20886 0.33286
 H575 H 0.39184 0.15658 0.42808
 H576 H 0.36136 0.27497 0.28522
 C577 C 0.72251 0.88460 0.84870
 C578 C 0.71040 0.85395 0.85769
 N579 N 0.69282 0.85129 0.88938
 C580 C 0.68789 0.87749 0.91324
 C581 C 0.70177 0.90779 0.90555
 N582 N 0.71789 0.91072 0.87268
 N583 N 0.74059 0.88708 0.81727
 C584 C 0.74771 0.86009 0.79479
 C585 C 0.73656 0.82902 0.80437
 N586 N 0.71773 0.82692 0.83546
 H587 H 0.67382 0.87446 0.93838
 H588 H 0.76261 0.86272 0.77017
 C589 C 0.21575 0.36678 0.38827
 C590 C 0.20561 0.37463 0.35193
 N591 N 0.19140 0.40600 0.34388
 C592 C 0.18771 0.43019 0.37034
 C593 C 0.20005 0.42314 0.40622
 N594 N 0.21327 0.39125 0.41434
 N595 N 0.22889 0.33508 0.39660
 C596 C 0.23297 0.31099 0.37002
 C597 C 0.22456 0.31928 0.33328
 N598 N 0.21088 0.35095 0.32514
 H599 H 0.17632 0.45503 0.36316
 H600 H 0.24409 0.28604 0.37718
 C601 C 0.27272 0.14729 0.88536
 C602 C 0.27648 0.13701 0.84847
 N603 N 0.28186 0.10388 0.84042
 C604 C 0.28227 0.08043 0.86748
 C605 C 0.27555 0.09034 0.90447
 N606 N 0.27198 0.12387 0.91231
 N607 N 0.26833 0.18055 0.89347
 C608 C 0.26674 0.20396 0.86618
 C609 C 0.26856 0.19359 0.82907
 N610 N 0.27372 0.16026 0.82118
 H611 H 0.28756 0.05428 0.86001
 H612 H 0.26239 0.23028 0.87331
 C613 C 0.76813 0.60247 0.34466
 C614 C 0.78900 0.62822 0.34983
 N615 N 0.80844 0.62835 0.38061
 C616 C 0.80758 0.60415 0.40679
 C617 C 0.78575 0.57894 0.40247
 N618 N 0.76682 0.57859 0.37110
 N619 N 0.74882 0.60230 0.31377
 C620 C 0.74889 0.62710 0.28813
 C621 C 0.76882 0.65368 0.29385
 N622 N 0.78862 0.65331 0.32461
 H623 H 0.82345 0.60479 0.43099
 H624 H 0.73259 0.62668 0.26426
 C625 C 0.13593 0.71293 0.84964
 C626 C 0.16771 0.71766 0.86428
 N627 N 0.17236 0.71648 0.90127
 C628 C 0.14675 0.71076 0.92443
 C629 C 0.11451 0.70560 0.91010
 N630 N 0.11040 0.70681 0.87272
 N631 N 0.13070 0.71598 0.81273
 C632 C 0.15576 0.72395 0.78988
 C633 C 0.18763 0.72879 0.80453
 N634 N 0.19288 0.72525 0.84148
 H635 H 0.15141 0.71210 0.95374
 H636 H 0.15082 0.72672 0.76060
 C637 C 0.64340 0.19628 0.38479
 C638 C 0.63491 0.21870 0.35575
 N639 N 0.60349 0.23530 0.35407
 C640 C 0.58004 0.23054 0.38023
 C641 C 0.58831 0.20810 0.40940
 N642 N 0.61995 0.19147 0.41099
 N643 N 0.67509 0.18007 0.38652
 C644 C 0.69873 0.18540 0.36058
 C645 C 0.69026 0.20801 0.33157
 N646 N 0.65842 0.22399 0.32998
 H647 H 0.55524 0.24438 0.37853
 H648 H 0.72384 0.17232 0.36274
 C649 C 0.86160 0.28513 0.88108
 C650 C 0.87125 0.26177 0.85313
 N651 N 0.90282 0.24536 0.85334
 C652 C 0.92524 0.25121 0.88030
 C653 C 0.91562 0.27440 0.90847
 N654 N 0.88390 0.29083 0.90818
 N655 N 0.83001 0.30154 0.88078
 C656 C 0.80750 0.29548 0.85395
 C657 C 0.81689 0.27173 0.82618
 N658 N 0.84871 0.25552 0.82652
 H659 H 0.95027 0.23776 0.87997
 H660 H 0.78238 0.30871 0.85468
 C661 C 0.36782 0.80547 0.38023
 C662 C 0.37498 0.78187 0.35191
 N663 N 0.40624 0.76492 0.34956
 C664 C 0.43070 0.77036 0.37439
 C665 C 0.42362 0.79378 0.40301
 N666 N 0.39220 0.81083 0.40517
 N667 N 0.33641 0.82213 0.38275
 C668 C 0.31172 0.81610 0.35837
 C669 C 0.31867 0.79216 0.33020
 N670 N 0.35032 0.77574 0.32770
 H671 H 0.45528 0.75617 0.37224
 H672 H 0.28685 0.82957 0.36125
 C673 C 0.27129 0.88112 0.13341
 C674 C 0.23958 0.87894 0.14971
 N675 N 0.21223 0.89875 0.13720
 C676 C 0.21524 0.92096 0.10935
 C677 C 0.24714 0.92400 0.09384
 N678 N 0.27441 0.90373 0.10608
 N679 N 0.29838 0.86042 0.14497
 C680 C 0.29521 0.83756 0.17211
 C681 C 0.26362 0.83568 0.18890
 N682 N 0.23652 0.85653 0.17725
 H683 H 0.19308 0.93640 0.09966
 H684 H 0.31713 0.82113 0.18062
 C685 C 0.78198 0.35444 0.62170
 C686 C 0.75722 0.36237 0.64883
 N687 N 0.73750 0.39203 0.64714
 C688 C 0.74146 0.41424 0.61958
 C689 C 0.76626 0.40650 0.59239
 N690 N 0.78596 0.37662 0.59406
 N691 N 0.80160 0.32468 0.62349
 C692 C 0.79748 0.30240 0.65106
 C693 C 0.77253 0.31019 0.67816
 N694 N 0.75305 0.34014 0.67624
 H695 H 0.72549 0.43779 0.61886
 H696 H 0.81329 0.27876 0.65157
 C697 C 0.72965 0.10232 0.14632
 C698 C 0.71054 0.13356 0.14220
 N699 N 0.68839 0.13836 0.11373
 C700 C 0.68485 0.11349 0.08888
 C701 C 0.70458 0.08245 0.09242
 N702 N 0.72633 0.07757 0.12137
 N703 N 0.75207 0.09758 0.17449
 C704 C 0.75660 0.12279 0.19853
 C705 C 0.73802 0.15439 0.19414
 N706 N 0.71519 0.15887 0.16608
 H707 H 0.66735 0.11803 0.06613
 H708 H 0.77493 0.11829 0.22049
 C709 C 0.24738 0.62725 0.63386
 C710 C 0.21976 0.65114 0.64100
 N711 N 0.18930 0.64743 0.62554
 C712 C 0.18533 0.62114 0.60279
 C713 C 0.21319 0.59786 0.59459
 N714 N 0.24360 0.60142 0.61049
 N715 N 0.27765 0.63061 0.64990
 C716 C 0.28163 0.65689 0.67268
 C717 C 0.25427 0.68131 0.67914
 N718 N 0.22390 0.67775 0.66312
 H719 H 0.16097 0.61895 0.59023
 H720 H 0.30605 0.65900 0.68514
 C721 C 0.87582 0.71640 0.10839
 C722 C 0.88390 0.70727 0.14498
 N723 N 0.91620 0.69565 0.15353
 C724 C 0.94084 0.69318 0.12731
 C725 C 0.93323 0.70372 0.09083
 N726 N 0.90060 0.71491 0.08246
 N727 N 0.84331 0.72657 0.09933
 C728 C 0.81851 0.72826 0.12526
 C729 C 0.82660 0.72023 0.16220
 N730 N 0.85927 0.70992 0.17125
 H731 H 0.96621 0.68330 0.13496
 H732 H 0.79280 0.73668 0.11732
 C733 C 0.38607 0.22837 0.65026
 C734 C 0.35997 0.20746 0.64777
 N735 N 0.36139 0.18313 0.62157
 C736 C 0.38745 0.17919 0.59718
 C737 C 0.41295 0.20094 0.59864
 N738 N 0.41186 0.22478 0.62558
 N739 N 0.38442 0.25289 0.67630
 C740 C 0.35751 0.25787 0.69955
 C741 C 0.33076 0.23768 0.69627
 N742 N 0.33293 0.21273 0.67057
 H743 H 0.38783 0.15991 0.57618
 H744 H 0.35657 0.27801 0.71956
 C745 C 0.10892 0.27873 0.15455
 C746 C 0.13465 0.29995 0.15083
 N747 N 0.13324 0.32258 0.12291
 C748 C 0.10763 0.32442 0.09795
 C749 C 0.08264 0.30217 0.10059
 N750 N 0.08364 0.28018 0.12929
 N751 N 0.11061 0.25583 0.18221
 C752 C 0.13727 0.25264 0.20589
 C753 C 0.16377 0.27296 0.20133
 N754 N 0.16150 0.29642 0.17406
 H755 H 0.10732 0.34229 0.07555
 H756 H 0.13829 0.23365 0.22717
 C757 C 0.62772 0.77749 0.64001
 C758 C 0.65518 0.79664 0.63646
 N759 N 0.65429 0.82088 0.61024
 C760 C 0.62749 0.82632 0.58692
 C761 C 0.60062 0.80621 0.58951
 N762 N 0.60128 0.78252 0.61639
 N763 N 0.62845 0.75328 0.66614
 C764 C 0.65554 0.74710 0.68877
 C765 C 0.68351 0.76565 0.68483
 N766 N 0.68255 0.79019 0.65876
 H767 H 0.62761 0.84531 0.56573
 H768 H 0.65541 0.72747 0.70923
   
