data_POSCAR
  _audit_creation_date              2014-09-24
  _audit_creation_method            'ToBaCCo'
  _symmetry_space_group_name_H-M    'P1'
  _symmetry_Int_Tables_number       1
  _symmetry_cell_setting            triclinic
  loop_
  _symmetry_equiv_pos_as_xyz
 x,y,z
_cell_length_a 25.7441
_cell_length_b 24.5480
_cell_length_c 24.0721
_cell_angle_alpha 92.859800
_cell_angle_beta 92.787000
_cell_angle_gamma 92.396900
loop_
  _atom_site_label
  _atom_site_type_symbol
  _atom_site_fract_x
  _atom_site_fract_y
  _atom_site_fract_z
Si1 Si 0.24803 0.48789 1.01673
 Si2 Si 0.73995 0.50449 -0.01964
 Si3 Si 0.01327 0.24853 0.47806
 Si4 Si 1.00498 0.75490 0.51584
 Si5 Si 0.50595 -0.00075 0.25612
 Si6 Si 0.51472 -0.00617 0.74240
 C7 C 0.29419 0.04177 0.39371
 H8 H 0.26635 0.07333 0.39732
 C9 C 0.32978 0.04308 0.35167
 H10 H 0.32843 0.07550 0.32277
 C11 C 0.33191 -0.03672 0.42879
 H12 H 0.33320 -0.06696 0.45998
 C13 C 0.36812 -0.03704 0.38740
 H14 H 0.39601 -0.06868 0.38697
 N15 N 0.29628 0.00257 0.43160
 C16 C 0.21557 0.10358 0.53894
 H17 H 0.24561 0.10193 0.57164
 C18 C 0.17942 0.14435 0.54214
 H19 H 0.18257 0.17418 0.57698
 C20 C 0.17318 0.06524 0.45566
 H21 H 0.17032 0.03329 0.42289
 C22 C 0.13614 0.10526 0.45724
 H23 H 0.10498 0.10298 0.42539
 Zn24 Zn 0.25621 0.00533 0.49565
 N25 N 0.21184 0.06504 0.49616
 C26 C 0.34039 0.05606 0.55605
 N27 N 0.30502 0.01345 0.55685
 C28 C 0.30771 -0.02323 0.59726
 C29 C 0.34787 -0.01818 0.63865
 C30 C 0.38112 0.06260 0.59645
 C31 C 0.21099 -0.09841 0.45729
 C32 C 0.17519 -0.14276 0.45776
 C33 C 0.14494 -0.10548 0.54450
 C34 C 0.18125 -0.06180 0.54228
 N35 N 0.21314 -0.05886 0.49903
 H36 H 0.33756 0.08427 0.52303
 H37 H 0.27955 -0.05715 0.59677
 H38 H 0.34897 -0.04784 0.67034
 H39 H 0.40959 0.09610 0.59436
 H40 H 0.23584 -0.09485 0.42266
 H41 H 0.17328 -0.17317 0.42344
 H42 H 0.12006 -0.10590 0.57930
 H43 H 0.18329 -0.02937 0.57456
 C44 C 0.13891 0.14558 0.50116
 C45 C 0.36821 0.00416 0.34877
 C46 C 0.14087 -0.14640 0.50116
 C47 C 0.38602 0.02456 0.63767
 C48 C 0.68550 0.03857 0.57655
 H49 H 0.68186 0.06730 0.54409
 C50 C 0.64955 0.03740 0.61807
 H51 H 0.61891 0.06628 0.61796
 C52 C 0.72944 -0.03472 0.61529
 H53 H 0.75950 -0.06400 0.61310
 C54 C 0.69475 -0.03678 0.65805
 H55 H 0.69885 -0.06718 0.68890
 N56 N 0.72400 0.00236 0.57544
 C57 C 0.83767 0.06864 0.46591
 H58 H 0.83488 0.03659 0.43324
 C59 C 0.87587 0.11052 0.46506
 H60 H 0.90222 0.10974 0.43143
 C61 C 0.80955 0.10438 0.55210
 H62 H 0.78485 0.10056 0.58687
 C63 C 0.84757 0.14690 0.55313
 H64 H 0.85138 0.17612 0.58848
 Zn65 Zn 0.76473 0.00079 0.51221
 N66 N 0.80587 0.06598 0.50919
 C67 C 0.71061 0.03052 0.41298
 N68 N 0.71726 -0.00954 0.44946
 C69 C 0.68552 -0.05536 0.44634
 C70 C 0.64486 -0.06206 0.40570
 C71 C 0.67011 0.02565 0.37185
 C72 C 0.84881 -0.04820 0.55984
 C73 C 0.88728 -0.08574 0.56725
 C74 C 0.85139 -0.13755 0.48528
 C75 C 0.81317 -0.09892 0.47959
 N76 N 0.81250 -0.05551 0.51693
 H77 H 0.73551 0.06719 0.41689
 H78 H 0.69086 -0.08601 0.47664
 H79 H 0.61950 -0.09849 0.40443
 H80 H 0.66564 0.05810 0.34345
 H81 H 0.84778 -0.01288 0.58844
 H82 H 0.91574 -0.07912 0.60184
 H83 H 0.85073 -0.17215 0.45561
 H84 H 0.78442 -0.10348 0.44526
 C85 C 0.88170 0.15003 0.50956
 C86 C 0.65339 -0.00154 0.65878
 C87 C 0.88930 -0.13087 0.52960
 C88 C 0.63594 -0.02078 0.36860
 C89 C 0.45914 0.17210 1.08050
 H90 H 0.42540 0.16696 1.05183
 C91 C 0.46496 0.13734 1.12445
 H92 H 0.43506 0.10589 1.12954
 C93 C 0.54020 0.21771 1.10678
 H94 H 0.57034 0.24780 1.09878
 C95 C 0.54755 0.18394 1.15122
 H96 H 0.58298 0.18904 1.17748
 N97 N 0.49667 0.21109 1.07229
 C98 C 0.42867 0.32411 0.95830
 H99 H 0.45842 0.32218 0.92811
 C100 C 0.38856 0.35981 0.95179
 H101 H 0.38772 0.38533 0.91634
 C102 C 0.39512 0.29415 1.04207
 H103 H 0.39847 0.26892 1.07751
 C104 C 0.35414 0.32972 1.03731
 H105 H 0.32588 0.33060 1.06906
 Zn106 Zn 0.49133 0.25086 1.00688
 N107 N 0.43139 0.29235 1.00286
 C108 C 0.44693 0.19389 0.90977
 N109 N 0.48978 0.20001 0.94526
 C110 C 0.53077 0.16738 0.93974
 C111 C 0.53007 0.12719 0.89655
 C112 C 0.44453 0.15418 0.86611
 C113 C 0.55026 0.34189 1.04703
 C114 C 0.58883 0.38348 1.04894
 C115 C 0.62216 0.34297 0.96507
 C116 C 0.58285 0.30179 0.96490
 N117 N 0.54812 0.30196 1.00574
 H118 H 0.41397 0.21890 0.91589
 H119 H 0.56370 0.17211 0.96953
 H120 H 0.56263 0.10090 0.89418
 H121 H 0.40994 0.14951 0.83852
 H122 H 0.52158 0.34144 1.07842
 H123 H 0.58984 0.41490 1.08228
 H124 H 0.64970 0.34160 0.93259
 H125 H 0.57981 0.27024 0.93184
 C126 C 0.35111 0.36379 0.99192
 C127 C 0.51015 0.14258 1.16002
 C128 C 0.62516 0.38475 1.00749
 C129 C 0.48647 0.12043 0.85882
 C130 C 0.45196 0.82709 -0.06766
 H131 H 0.42342 0.82432 -0.03627
 C132 C 0.44954 0.86807 -0.10566
 H133 H 0.41864 0.89662 -0.10350
 C134 C 0.52792 0.79429 -0.10718
 H135 H 0.55908 0.76620 -0.10689
 C136 C 0.52695 0.83461 -0.14608
 H137 H 0.55705 0.83569 -0.17576
 N138 N 0.49071 0.79125 -0.06908
 C139 C 0.43804 0.64983 0.01714
 H140 H 0.47170 0.64722 0.04544
 C141 C 0.39772 0.61021 0.01629
 H142 H 0.40155 0.57681 0.04362
 C143 C 0.39486 0.69525 -0.05515
 H144 H 0.39446 0.72797 -0.08354
 C145 C 0.35335 0.65642 -0.05729
 H146 H 0.32086 0.65982 -0.08705
 Zn147 Zn 0.49434 0.74059 -0.01277
 N148 N 0.43572 0.69157 -0.01771
 C149 C 0.45924 0.77366 0.09308
 N150 N 0.49728 0.78108 0.05649
 C151 C 0.53468 0.82173 0.06555
 C152 C 0.53399 0.85782 0.11224
 C153 C 0.45727 0.80858 0.14047
 C154 C 0.55074 0.66370 -0.06788
 C155 C 0.58988 0.62725 -0.07670
 C156 C 0.63278 0.66095 0.01057
 C157 C 0.59270 0.69708 0.01765
 N158 N 0.55270 0.69754 -0.02133
 H159 H 0.42913 0.74198 0.08464
 H160 H 0.56396 0.82729 0.03533
 H161 H 0.56345 0.89068 0.11789
 H162 H 0.42599 0.80292 0.16842
 H163 H 0.51810 0.66458 -0.09783
 H164 H 0.58720 0.60014 -0.11374
 H165 H 0.66429 0.66152 0.04199
 H166 H 0.59313 0.72401 0.05461
 C167 C 0.35411 0.61368 -0.02070
 C168 C 0.48760 0.87267 -0.14517
 C169 C 0.63110 0.62477 -0.03687
 C170 C 0.49422 0.85201 0.14992
 C171 C 1.04293 0.45503 0.15845
 H172 H 1.00699 0.43038 0.15451
 C173 C 1.08274 0.44404 0.12303
 H174 H 1.07717 0.41087 0.09160
 C175 C 1.09315 0.52887 0.20385
 H176 H 1.09674 0.56205 0.23521
 C177 C 1.13414 0.51933 0.16908
 H178 H 1.16932 0.54500 0.17509
 N179 N 1.04880 0.49663 0.19798
 C180 C 0.94320 0.44691 0.32363
 H181 H 0.91609 0.47942 0.32417
 C182 C 0.93976 0.40606 0.36197
 H183 H 0.90956 0.40706 0.39176
 C184 C 1.01689 0.40725 0.28577
 H185 H 1.04773 0.40827 0.25703
 C186 C 1.01472 0.36565 0.32298
 H187 H 1.04300 0.33440 0.32045
 Zn188 Zn 0.99048 0.50691 0.24108
 N189 N 0.98166 0.44702 0.28685
 C190 C 0.89017 0.47942 0.18771
 N191 N 0.93386 0.51265 0.18952
 C192 C 0.94048 0.55154 0.15193
 C193 C 0.90208 0.55870 0.11056
 C194 C 0.85068 0.48500 0.14664
 C195 C 1.03593 0.57559 0.32919
 C196 C 1.03827 0.61973 0.36839
 C197 C 0.96231 0.65436 0.32162
 C198 C 0.96144 0.60970 0.28348
 N199 N 0.99766 0.57117 0.28807
 H200 H 0.88603 0.44849 0.21780
 H201 H 0.97593 0.57701 0.15418
 H202 H 0.90813 0.58984 0.08090
 H203 H 0.81590 0.45871 0.14641
 H204 H 1.06386 0.54402 0.33236
 H205 H 1.06916 0.62205 0.40056
 H206 H 0.93229 0.68380 0.31803
 H207 H 0.93047 0.60499 0.25153
 C208 C 0.97656 0.36547 0.36279
 C209 C 1.12883 0.47664 0.12757
 C210 C 1.00018 0.65921 0.36558
 C211 C 0.85680 0.52487 0.10706
 C212 C -0.06905 0.44764 0.82520
 H213 H -0.03966 0.41743 0.82389
 C214 C -0.11068 0.44121 0.85947
 H215 H -0.11307 0.40580 0.88449
 C216 C -0.10039 0.53121 0.79511
 H217 H -0.09568 0.56657 0.77051
 C218 C -0.14282 0.52647 0.82911
 H219 H -0.17080 0.55808 0.82913
 N220 N -0.06455 0.49205 0.79398
 C221 C 0.03864 0.42781 0.67063
 H222 H 0.07339 0.45387 0.67877
 C223 C 0.03669 0.38751 0.62725
 H224 H 0.07023 0.38312 0.60229
 C225 C -0.04870 0.40533 0.69038
 H226 H -0.08255 0.41352 0.71369
 C227 C -0.05255 0.36519 0.64707
 H228 H -0.08912 0.34227 0.63810
 Zn229 Zn -0.00325 0.49617 0.75377
 N230 N -0.00366 0.43585 0.70126
 C231 C 0.08960 0.45901 0.81009
 N232 N 0.05235 0.49671 0.80819
 C233 C 0.05057 0.53704 0.84873
 C234 C 0.08693 0.54067 0.89362
 C235 C 0.12724 0.46140 0.85433
 C236 C -0.03590 0.56977 0.67449
 C237 C -0.03009 0.61306 0.63938
 C238 C 0.05430 0.63594 0.68475
 C239 C 0.04665 0.59263 0.71937
 N240 N 0.00224 0.56035 0.71346
 H241 H 0.08953 0.42647 0.77816
 H242 H 0.02010 0.56602 0.84648
 H243 H 0.08430 0.57269 0.92587
 H244 H 0.15567 0.43022 0.85593
 H245 H -0.07010 0.54249 0.66947
 H246 H -0.06010 0.61829 0.60730
 H247 H 0.09053 0.66021 0.68888
 H248 H 0.07726 0.58352 0.74932
 C249 C -0.00967 0.35591 0.61482
 C250 C -0.14786 0.48118 0.86254
 C251 C 0.01583 0.64651 0.64402
 C252 C 0.12590 0.50270 0.89695
 C253 C 0.06509 0.19960 0.46712
 C254 C 0.09909 0.18722 0.50781
 H255 H 0.06575 0.18067 0.42572
 H256 H 0.09762 0.20821 0.54830
 C257 C 0.70122 0.56482 -0.00586
 C258 C 0.67010 0.58299 -0.04618
 H259 H 0.70042 0.58047 0.03682
 H260 H 0.67043 0.56325 -0.08749
 C261 C 0.94776 -0.20414 0.49969
 C262 C 0.93130 -0.16940 0.53884
 H263 H 0.93055 -0.20626 0.45784
 H264 H 0.95165 -0.16695 0.57949
 C265 C 0.28224 0.42407 1.02563
 C266 C 0.31193 0.40584 0.98535
 H267 H 0.28339 0.40752 1.06638
 H268 H 0.31093 0.42651 0.94654
 C269 C 0.95122 0.20737 0.47062
 C270 C 0.92598 0.19092 0.51445
 H271 H 0.93832 0.19374 0.42864
 H272 H 0.93938 0.20628 0.55586
 C273 C 0.29940 0.54255 0.01994
 C274 C 0.31021 0.57248 -0.02321
 H275 H 0.32120 0.54868 0.05942
 H276 H 0.28597 0.56705 -0.06131
 C277 C 0.06100 -0.19595 0.53176
 C278 C 0.09999 -0.19133 0.49720
 H279 H 0.05792 -0.16820 0.56749
 H280 H 0.10005 -0.21995 0.46146
 C281 C 0.69441 0.44438 0.96936
 C282 C 0.66525 0.42997 1.01110
 H283 H 0.69055 0.42373 0.92858
 H284 H 0.66970 0.45415 1.05015
 C285 C 0.48848 0.06169 1.21195
 C286 C 0.52066 0.10421 1.20440
 H287 H 0.49611 0.03942 1.24588
 H288 H 0.55665 0.10972 1.22974
 C289 C -0.01011 0.71414 0.57596
 C290 C 0.02701 0.68858 0.60365
 H291 H -0.05076 0.70689 0.58380
 H292 H 0.06738 0.69771 0.59534
 C293 C 0.52164 0.93194 -0.21804
 C294 C 0.48490 0.91825 -0.18320
 H295 H 0.55708 0.91032 -0.22134
 H296 H 0.45124 0.94327 -0.18096
 C297 C 1.01581 0.29645 0.42166
 C298 C 0.97453 0.32425 0.40572
 H299 H 1.05350 0.30393 0.40498
 H300 H 0.93854 0.31832 0.42665
 C301 C 0.51728 0.93841 0.20270
 C302 C 0.48867 0.89188 0.19728
 H303 H 0.51237 0.96363 0.23634
 H304 H 0.45869 0.88423 0.22642
 C305 C 0.02288 0.28984 0.54468
 C306 C -0.01622 0.31673 0.56592
 H307 H 0.06204 0.29566 0.56293
 H308 H -0.05506 0.30975 0.54673
 C309 C 0.52272 0.05258 0.79331
 C310 C 0.48185 0.07680 0.81390
 H311 H 0.56213 0.06479 0.80754
 H312 H 0.44310 0.06398 0.79744
 C313 C 1.01912 0.70435 0.45950
 C314 C 0.99644 0.70423 0.40843
 H315 H 1.04424 0.67239 0.47161
 H316 H 0.97075 0.73652 0.39863
 C317 C 1.20634 0.50158 0.07549
 C318 C 1.16929 0.46510 0.08753
 H319 H 1.20946 0.54214 0.09528
 H320 H 1.16603 0.42631 0.06371
 C321 C 0.56395 0.00070 0.68986
 C322 C 0.61425 -0.00708 0.70129
 H323 H 0.55039 0.01258 0.64915
 H324 H 0.62650 -0.02113 0.74163
 C325 C -0.21893 0.51440 0.92054
 C326 C -0.18953 0.47431 0.90244
 H327 H -0.21508 0.55514 0.90582
 H328 H -0.19341 0.43519 0.92124
 C329 C 0.45188 -0.01823 0.30557
 C330 C 0.40849 0.01001 0.30689
 H331 H 0.45986 -0.04962 0.33420
 H332 H 0.40358 0.04159 0.27747
 C333 C 0.20816 0.48391 0.95016
 C334 C 0.16150 0.50574 0.94730
 H335 H 0.22390 0.46390 0.91407
 H336 H 0.14873 0.52820 0.98368
 C337 C 0.56790 0.01333 0.30328
 C338 C 0.59066 -0.02780 0.32791
 H339 H 0.58119 0.05531 0.31237
 H340 H 0.57345 -0.06868 0.31992
 C341 C 0.78305 0.49361 0.04178
 C342 C 0.81752 0.53265 0.06159
 H343 H 0.78181 0.45346 0.05830
 H344 H 0.81915 0.57108 0.04124
 C345 C 0.45026 -0.01155 0.70499
 C346 C 0.43245 0.02982 0.67675
 H347 H 0.43081 -0.05150 0.70167
 H348 H 0.45543 0.06798 0.67883
   
