data_POSCAR
  _audit_creation_date              2014-09-24
  _audit_creation_method            'ToBaCCo'
  _symmetry_space_group_name_H-M    'P1'
  _symmetry_Int_Tables_number       1
  _symmetry_cell_setting            triclinic
  loop_
  _symmetry_equiv_pos_as_xyz
 x,y,z
_cell_length_a 39.8468
_cell_length_b 39.0384
_cell_length_c 39.6964
_cell_angle_alpha 88.779300
_cell_angle_beta 90.762300
_cell_angle_gamma 89.323500
loop_
  _atom_site_label
  _atom_site_type_symbol
  _atom_site_fract_x
  _atom_site_fract_y
  _atom_site_fract_z
C1 C 0.71496 0.62895 0.94915
 H2 H 0.72751 0.61227 0.93187
 C3 C 0.68566 0.64632 0.93870
 H4 H 0.67609 0.64269 0.91341
 C5 C 0.71228 0.65413 1.00279
 H6 H 0.72247 0.65676 1.02793
 C7 C 0.68302 0.67210 0.99334
 H8 H 0.67100 0.68814 1.01162
 N9 N 0.72712 0.63230 0.98109
 C10 C 0.82767 0.61410 1.02250
 H11 H 0.82575 0.58732 1.02969
 C12 C 0.85680 0.63195 1.03009
 H13 H 0.87719 0.61836 1.04292
 C14 C 0.80303 0.66375 0.99672
 H15 H 0.78189 0.67596 0.98378
 C16 C 0.83171 0.68269 1.00398
 H17 H 0.83197 0.70951 0.99670
 Zn18 Zn 0.76297 0.60374 0.99762
 N19 N 0.80160 0.63010 1.00602
 C20 C 0.80440 0.56953 0.95149
 N21 N 0.77323 0.56998 0.96512
 C22 C 0.74860 0.54946 0.95315
 C23 C 0.75441 0.52878 0.92544
 C24 C 0.81137 0.54902 0.92403
 C25 C 0.75351 0.60483 1.06651
 C26 C 0.74080 0.59543 1.09783
 C27 C 0.72107 0.54298 1.07384
 C28 C 0.73423 0.55351 1.04280
 N29 N 0.74948 0.58435 1.03956
 H30 H 0.82358 0.58634 0.96071
 H31 H 0.72377 0.55071 0.96375
 H32 H 0.73411 0.51359 0.91562
 H33 H 0.83592 0.55041 0.91279
 H34 H 0.76589 0.62917 1.06350
 H35 H 0.74452 0.61296 1.11816
 H36 H 0.70841 0.51868 1.07512
 H37 H 0.73139 0.53738 1.02124
 C38 C 0.85915 0.66681 1.02095
 C39 C 0.66886 0.66763 0.96119
 C40 C 0.72337 0.56447 1.10194
 C41 C 0.78591 0.52908 0.90999
 C42 C 0.71433 0.30859 0.51841
 H43 H 0.73235 0.29551 0.50302
 C44 C 0.69122 0.28950 0.53690
 H45 H 0.69213 0.26191 0.53535
 C46 C 0.69052 0.36039 0.53750
 H47 H 0.69028 0.38812 0.53733
 C48 C 0.66710 0.34236 0.55648
 H49 H 0.64924 0.35672 0.57101
 N50 N 0.71392 0.34339 0.51947
 C51 C 0.78199 0.34754 0.43864
 H52 H 0.76715 0.36592 0.42395
 C53 C 0.80864 0.33026 0.42364
 H54 H 0.81374 0.33499 0.39723
 C55 C 0.79503 0.32069 0.49140
 H56 H 0.79032 0.31815 0.51811
 C57 C 0.82144 0.30245 0.47733
 H58 H 0.83687 0.28582 0.49345
 Zn59 Zn 0.74480 0.37024 0.49488
 N60 N 0.77591 0.34264 0.47203
 C61 C 0.79515 0.41610 0.50877
 N62 N 0.77059 0.39774 0.52391
 C63 C 0.76504 0.40002 0.55751
 C64 C 0.78341 0.42295 0.57684
 C65 C 0.81419 0.43910 0.52710
 C66 C 0.70089 0.38579 0.43950
 C67 C 0.68054 0.40721 0.41889
 C68 C 0.69934 0.45553 0.45078
 C69 C 0.71938 0.43339 0.47048
 N70 N 0.71981 0.39920 0.46469
 H71 H 0.79936 0.41341 0.48208
 H72 H 0.74599 0.38462 0.56932
 H73 H 0.77778 0.42498 0.60329
 H74 H 0.83323 0.45345 0.51404
 H75 H 0.70123 0.35842 0.43577
 H76 H 0.66522 0.39617 0.39928
 H77 H 0.69955 0.48262 0.45600
 H78 H 0.73387 0.44360 0.49103
 C79 C 0.82887 0.30761 0.44318
 C80 C 0.66726 0.30634 0.55653
 C81 C 0.67927 0.44251 0.42487
 C82 C 0.80797 0.44344 0.56152
 C83 C 0.22390 -0.13306 0.05930
 H84 H 0.25000 -0.13345 0.06719
 C85 C 0.19942 -0.14485 0.08137
 H86 H 0.20684 -0.15466 0.10612
 C87 C 0.18237 -0.11807 0.01813
 H88 H 0.17563 -0.10644 -0.00595
 C89 C 0.15712 -0.13053 0.03910
 H90 H 0.13115 -0.12858 0.03080
 N91 N 0.21504 -0.11938 0.02861
 C92 C 0.30493 -0.11747 -0.03273
 H93 H 0.30649 -0.09004 -0.03675
 C94 C 0.32829 -0.13914 -0.04742
 H95 H 0.34749 -0.12785 -0.06294
 C96 C 0.27712 -0.16488 -0.00808
 H97 H 0.25700 -0.17466 0.00725
 C98 C 0.30014 -0.18763 -0.02230
 H99 H 0.29760 -0.21482 -0.01737
 Zn100 Zn 0.25025 -0.09800 0.00463
 N101 N 0.28013 -0.13051 -0.01336
 C102 C 0.30604 -0.07571 0.04461
 N103 N 0.27308 -0.07056 0.03629
 C104 C 0.25488 -0.04475 0.04994
 C105 C 0.27040 -0.02112 0.07068
 C106 C 0.32230 -0.05328 0.06630
 C107 C 0.21418 -0.08046 -0.05681
 C108 C 0.20194 -0.05780 -0.08214
 C109 C 0.23302 -0.01252 -0.05620
 C110 C 0.24476 -0.03593 -0.03184
 N111 N 0.23417 -0.06889 -0.03152
 H112 H 0.31985 -0.09685 0.03411
 H113 H 0.22856 -0.04165 0.04338
 H114 H 0.25591 0.00008 0.08033
 H115 H 0.34868 -0.05713 0.07234
 H116 H 0.20729 -0.10718 -0.05708
 H117 H 0.18516 -0.06755 -0.10121
 H118 H 0.24240 0.01329 -0.05517
 H119 H 0.26272 -0.02750 -0.01335
 C120 C 0.32630 -0.17479 -0.04219
 C121 C 0.16557 -0.14330 0.07145
 C122 C 0.21043 -0.02283 -0.08143
 C123 C 0.30453 -0.02512 0.07872
 C124 C 0.21503 0.13485 0.45255
 H125 H 0.23180 0.12177 0.43586
 C126 C 0.19038 0.15681 0.43888
 H127 H 0.18820 0.15986 0.41176
 C128 C 0.19831 0.14783 0.50790
 H129 H 0.20152 0.14445 0.53477
 C130 C 0.17342 0.17034 0.49525
 H131 H 0.15730 0.18343 0.51267
 N132 N 0.21807 0.13004 0.48652
 C133 C 0.31108 0.10602 0.54009
 H134 H 0.30942 0.07848 0.54310
 C135 C 0.33693 0.12355 0.55598
 H136 H 0.35492 0.10897 0.57121
 C137 C 0.28856 0.15807 0.51727
 H138 H 0.26952 0.17137 0.50220
 C139 C 0.31409 0.17664 0.53257
 H140 H 0.31437 0.20411 0.52868
 Zn141 Zn 0.25166 0.09869 0.50312
 N142 N 0.28747 0.12346 0.52143
 C143 C 0.29906 0.07161 0.45679
 N144 N 0.26648 0.07195 0.46661
 C145 C 0.24270 0.05421 0.44965
 C146 C 0.25117 0.03537 0.42154
 C147 C 0.30865 0.05311 0.42861
 C148 C 0.22649 0.08266 0.56803
 C149 C 0.21469 0.06146 0.59404
 C150 C 0.22132 0.01301 0.55790
 C151 C 0.23296 0.03505 0.53270
 N152 N 0.23476 0.06934 0.53778
 H153 H 0.31751 0.08618 0.47040
 H154 H 0.21692 0.05510 0.45784
 H155 H 0.23166 0.02142 0.40878
 H156 H 0.33454 0.05380 0.42078
 H157 H 0.22973 0.10966 0.57230
 H158 H 0.20835 0.07264 0.61787
 H159 H 0.21951 -0.01395 0.55261
 H160 H 0.24078 0.02443 0.50920
 C161 C 0.33859 0.15944 0.55257
 C162 C 0.16889 0.17454 0.46028
 C163 C 0.21186 0.02608 0.58908
 C164 C 0.28442 0.03500 0.41032
 C165 C 0.16770 0.49955 0.21660
 H166 H 0.17086 0.52636 0.22208
 C167 C 0.18790 0.48411 0.19272
 H168 H 0.20657 0.49933 0.17995
 C169 C 0.13763 0.44809 0.22497
 H170 H 0.11732 0.43450 0.23679
 C171 C 0.15701 0.43175 0.20090
 H172 H 0.15184 0.40538 0.19494
 N173 N 0.14310 0.48151 0.23207
 C174 C 0.12086 0.54949 0.31496
 H175 H 0.09457 0.55531 0.31026
 C176 C 0.13758 0.56406 0.34223
 H177 H 0.12390 0.58148 0.35798
 C178 C 0.17020 0.51933 0.30013
 H179 H 0.18264 0.50112 0.28428
 C180 C 0.18784 0.53319 0.32712
 H181 H 0.21371 0.52542 0.33129
 Zn182 Zn 0.11342 0.50672 0.25901
 N183 N 0.13739 0.52782 0.29438
 C184 C 0.04777 0.48226 0.27151
 N185 N 0.08101 0.47727 0.27835
 C186 C 0.09189 0.45113 0.29907
 C187 C 0.06905 0.42804 0.31294
 C188 C 0.02409 0.45984 0.28485
 C189 C 0.09501 0.57360 0.23105
 C190 C 0.08170 0.59516 0.20534
 C191 C 0.06392 0.54503 0.17564
 C192 C 0.07746 0.52461 0.20171
 N193 N 0.09265 0.53897 0.22870
 H194 H 0.03949 0.50354 0.25554
 H195 H 0.11845 0.44797 0.30444
 H196 H 0.07835 0.40738 0.32923
 H197 H -0.00206 0.46406 0.27825
 H198 H 0.10793 0.58454 0.25230
 H199 H 0.08427 0.62261 0.20728
 H200 H 0.05175 0.53262 0.15477
 H201 H 0.07635 0.49700 0.20024
 C202 C 0.17160 0.55593 0.34867
 C203 C 0.18220 0.44999 0.18413
 C204 C 0.06629 0.58082 0.17691
 C205 C 0.03459 0.43210 0.30573
 C206 C -0.11508 0.07820 0.20719
 H207 H -0.09898 0.08802 0.22661
 C208 C -0.12262 0.09912 0.17931
 H209 H -0.11274 0.12474 0.17922
 C210 C -0.14685 0.03314 0.18468
 H211 H -0.15531 0.00696 0.18645
 C212 C -0.15518 0.05340 0.15605
 H213 H -0.17031 0.04225 0.13641
 N214 N -0.12672 0.04568 0.20938
 C215 C -0.13442 0.00126 0.30976
 H216 H -0.10939 0.00820 0.31760
 C217 C -0.15557 -0.01418 0.33306
 H218 H -0.14681 -0.01774 0.35883
 C219 C -0.17507 -0.00470 0.26625
 H220 H -0.18203 -0.00209 0.23993
 C221 C -0.19717 -0.02027 0.28889
 H222 H -0.22108 -0.02932 0.27967
 Zn223 Zn -0.11016 0.01754 0.24594
 N224 N -0.14415 0.00528 0.27693
 C225 C -0.08573 0.06856 0.28856
 N226 N -0.07623 0.04194 0.26912
 C227 C -0.04326 0.03419 0.26464
 C228 C -0.01836 0.05439 0.27892
 C229 C -0.06168 0.08934 0.30338
 C230 C -0.09863 -0.05334 0.24566
 C231 C -0.08534 -0.08431 0.23490
 C232 C -0.05765 -0.05371 0.18988
 C233 C -0.07161 -0.02313 0.20153
 N234 N -0.09165 -0.02352 0.22903
 H235 H -0.11213 0.07421 0.29173
 H236 H -0.03616 0.01295 0.24917
 H237 H 0.00759 0.04821 0.27395
 H238 H -0.07003 0.11051 0.31840
 H239 H -0.11427 -0.05322 0.26765
 H240 H -0.09094 -0.10745 0.24908
 H241 H -0.04197 -0.05296 0.16783
 H242 H -0.06641 0.00093 0.18873
 C243 C -0.18704 -0.02603 0.32258
 C244 C -0.14212 0.08671 0.15250
 C245 C -0.06463 -0.08487 0.20661
 C246 C -0.02741 0.08274 0.29822
 C247 C 0.33012 0.50398 0.73582
 H248 H 0.31923 0.49386 0.75867
 C249 C 0.30957 0.52110 0.71190
 H250 H 0.28305 0.52356 0.71682
 C251 C 0.37815 0.51483 0.70299
 H252 H 0.40502 0.51262 0.69992
 C253 C 0.35857 0.53202 0.67842
 H254 H 0.37082 0.54244 0.65640
 N255 N 0.36374 0.50093 0.73085
 C256 C 0.37783 0.46255 0.83161
 H257 H 0.39817 0.47933 0.83806
 C258 C 0.36113 0.44483 0.85722
 H259 H 0.36818 0.44895 0.88324
 C260 C 0.34480 0.43564 0.79000
 H261 H 0.33917 0.43159 0.76366
 C262 C 0.32708 0.41789 0.81478
 H263 H 0.30768 0.40032 0.80728
 Zn264 Zn 0.39302 0.47989 0.76349
 N265 N 0.36909 0.45809 0.79874
 C266 C 0.40843 0.53841 0.80172
 N267 N 0.42109 0.51465 0.78059
 C268 C 0.45370 0.51554 0.77102
 C269 C 0.47549 0.53947 0.78449
 C270 C 0.42947 0.56279 0.81601
 C271 C 0.44470 0.43195 0.76494
 C272 C 0.46788 0.40841 0.75279
 C273 C 0.43832 0.41023 0.69923
 C274 C 0.41612 0.43457 0.71217
 N275 N 0.42018 0.44541 0.74433
 H276 H 0.38216 0.53777 0.80825
 H277 H 0.46298 0.49765 0.75287
 H278 H 0.50129 0.53936 0.77642
 H279 H 0.41916 0.58059 0.83377
 H280 H 0.44693 0.44053 0.79060
 H281 H 0.48788 0.39879 0.76927
 H282 H 0.43538 0.40228 0.67340
 H283 H 0.39595 0.44497 0.69646
 C284 C 0.33515 0.42246 0.84889
 C285 C 0.32372 0.53547 0.68265
 C286 C 0.46504 0.39761 0.71948
 C287 C 0.46371 0.56300 0.80799
 C288 C 0.63326 0.92396 0.70591
 H289 H 0.61466 0.90755 0.71703
 C290 C 0.65014 0.91327 0.67728
 H291 H 0.64419 0.88873 0.66665
 C292 C 0.66394 0.97554 0.70614
 H293 H 0.66925 0.99980 0.71758
 C294 C 0.68167 0.96570 0.67781
 H295 H 0.70004 0.98295 0.66732
 N296 N 0.63975 0.95508 0.71919
 C297 C 0.63355 1.01860 0.80520
 H298 H 0.60928 1.03013 0.79943
 C299 C 0.65222 1.02990 0.83262
 H300 H 0.64201 1.05089 0.84667
 C301 C 0.67485 0.97646 0.79389
 H302 H 0.68283 0.95480 0.77932
 C303 C 0.69465 0.98721 0.82090
 H304 H 0.71788 0.97349 0.82624
 Zn305 Zn 0.61500 0.97267 0.75561
 N306 N 0.64484 0.99203 0.78684
 C307 C 0.59511 0.93517 0.81277
 N308 N 0.59042 0.93819 0.77879
 C309 C 0.56595 0.92035 0.76279
 C310 C 0.54469 0.89898 0.78125
 C311 C 0.57382 0.91504 0.83216
 C312 C 0.59432 1.03203 0.71745
 C313 C 0.57147 1.05699 0.70535
 C314 C 0.52883 1.03109 0.73980
 C315 C 0.55238 1.00666 0.75113
 N316 N 0.58433 1.00714 0.73952
 H317 H 0.61429 0.94969 0.82527
 H318 H 0.56177 0.92409 0.73599
 H319 H 0.52460 0.88576 0.76851
 H320 H 0.57693 0.91407 0.85932
 H321 H 0.61990 1.03246 0.70891
 H322 H 0.57982 1.07605 0.68724
 H323 H 0.50372 1.03009 0.74975
 H324 H 0.54508 0.98750 0.76954
 C325 C 0.68309 1.01379 0.84144
 C326 C 0.67437 0.93449 0.66264
 C327 C 0.53807 1.05647 0.71623
 C328 C 0.54808 0.89710 0.81640
 C329 C 0.06068 0.22641 -0.13580
 H330 H 0.07308 0.23457 -0.11303
 C331 C 0.07480 0.19998 -0.15426
 H332 H 0.09842 0.18858 -0.14579
 C333 C 0.01412 0.23009 -0.17353
 H334 H -0.01005 0.24136 -0.18026
 C335 C 0.02752 0.20394 -0.19293
 H336 H 0.01347 0.19525 -0.21458
 N337 N 0.03074 0.24074 -0.14556
 C338 C -0.02174 0.33612 -0.12475
 H339 H -0.02722 0.33103 -0.09851
 C340 C -0.03497 0.36532 -0.14099
 H341 H -0.05038 0.38292 -0.12701
 C342 C 0.00457 0.31877 -0.17495
 H343 H 0.01980 0.30039 -0.18804
 C344 C -0.00777 0.34801 -0.19209
 H345 H -0.00222 0.35168 -0.21853
 Zn346 Zn 0.00875 0.27264 -0.11800
 N347 N -0.00329 0.31308 -0.14210
 C348 C 0.06638 0.30069 -0.08957
 N349 N 0.03668 0.28595 -0.08165
 C350 C 0.02662 0.28316 -0.04913
 C351 C 0.04713 0.29462 -0.02302
 C352 C 0.08763 0.31262 -0.06426
 C353 C -0.06068 0.26116 -0.11778
 C354 C -0.09048 0.24561 -0.10826
 C355 C -0.05881 0.21001 -0.06846
 C356 C -0.02947 0.22567 -0.07949
 N357 N -0.03102 0.25148 -0.10298
 H358 H 0.07343 0.30337 -0.11571
 H359 H 0.00239 0.27272 -0.04329
 H360 H 0.03845 0.29164 0.00252
 H361 H 0.11096 0.32443 -0.07141
 H362 H -0.06133 0.28070 -0.13746
 H363 H -0.11350 0.25463 -0.12031
 H364 H -0.05659 0.18971 -0.04958
 H365 H -0.00540 0.21736 -0.06914
 C366 C -0.02844 0.37124 -0.17521
 C367 C 0.05797 0.18815 -0.18299
 C368 C -0.09008 0.21984 -0.08292
 C369 C 0.07813 0.30973 -0.03035
 C370 C 0.49702 0.22780 0.16723
 H371 H 0.49603 0.25465 0.17293
 C372 C 0.47926 0.20450 0.18728
 H373 H 0.46509 0.21379 0.20836
 C374 C 0.51403 0.18329 0.13139
 H375 H 0.52612 0.17510 0.10873
 C376 C 0.49639 0.15934 0.15043
 H377 H 0.49628 0.13291 0.14272
 N378 N 0.51369 0.21698 0.13961
 C379 C 0.58703 0.28856 0.11644
 H380 H 0.59780 0.27141 0.09848
 C381 C 0.60694 0.31426 0.12958
 H382 H 0.63252 0.31609 0.12111
 C383 C 0.54034 0.30786 0.14725
 H384 H 0.51410 0.30590 0.15338
 C385 C 0.55950 0.33407 0.16116
 H386 H 0.54781 0.35147 0.17845
 Zn387 Zn 0.52985 0.24860 0.10652
 N388 N 0.55447 0.28532 0.12570
 C389 C 0.48206 0.29792 0.07777
 N390 N 0.49133 0.26442 0.08216
 C391 C 0.47168 0.23883 0.07071
 C392 C 0.44074 0.24619 0.05550
 C393 C 0.45112 0.30652 0.06231
 C394 C 0.58402 0.20499 0.09026
 C395 C 0.60391 0.18494 0.06949
 C396 C 0.57092 0.20562 0.02160
 C397 C 0.55172 0.22528 0.04325
 N398 N 0.55815 0.22420 0.07697
 H399 H 0.49813 0.31787 0.08700
 H400 H 0.47976 0.21245 0.07419
 H401 H 0.42530 0.22526 0.04723
 H402 H 0.44335 0.33314 0.06002
 H403 H 0.58866 0.20467 0.11718
 H404 H 0.62376 0.16916 0.08071
 H405 H 0.56524 0.20696 -0.00511
 H406 H 0.53150 0.24121 0.03308
 C407 C 0.59346 0.33734 0.15256
 C408 C 0.47805 0.16997 0.17827
 C409 C 0.59708 0.18467 0.03471
 C410 C 0.42974 0.28029 0.05185
 C411 C 0.93731 0.74127 0.64615
 H412 H 0.93211 0.76824 0.64946
 C413 C 0.91761 0.71682 0.66234
 H414 H 0.89739 0.72522 0.67823
 C415 C 0.96882 0.69783 0.61969
 H416 H 0.98798 0.69056 0.60215
 C417 C 0.94945 0.67251 0.63506
 H418 H 0.95472 0.64588 0.62995
 N419 N 0.96260 0.73147 0.62566
 C420 C 1.01366 0.82924 0.61719
 H421 H 1.01329 0.83250 0.59006
 C422 C 1.02791 0.85426 0.63726
 H423 H 1.03799 0.87691 0.62516
 C424 C 1.00120 0.79531 0.66549
 H425 H 0.99168 0.77180 0.67633
 C426 C 1.01527 0.81971 0.68656
 H427 H 1.01618 0.81459 0.71344
 Zn428 Zn 0.98472 0.76680 0.60192
 N429 N 1.00060 0.80052 0.63148
 C430 C 0.93781 0.81651 0.57377
 N431 N 0.95229 0.78496 0.57101
 C432 C 0.94313 0.76358 0.54600
 C433 C 0.91981 0.77423 0.52140
 C434 C 0.91357 0.82788 0.55008
 C435 C 1.04464 0.72756 0.59191
 C436 C 1.07102 0.71433 0.57292
 C437 C 1.05219 0.75013 0.52592
 C438 C 1.02612 0.76229 0.54559
 N439 N 1.02209 0.75012 0.57758
 H440 H 0.94485 0.83273 0.59437
 H441 H 0.95449 0.73832 0.54490
 H442 H 0.91327 0.75705 0.50135
 H443 H 0.90238 0.85314 0.55224
 H444 H 1.04165 0.71914 0.61782
 H445 H 1.08784 0.69540 0.58442
 H446 H 1.05445 0.76042 0.50058
 H447 H 1.00904 0.78156 0.53517
 C448 C 1.02916 0.84956 0.67247
 C449 C 0.92344 0.68195 0.65665
 C450 C 1.07459 0.72507 0.53913
 C451 C 0.90483 0.80674 0.52324
 C452 C 0.52647 0.69805 0.37475
 H453 H 0.54399 0.71113 0.39073
 C454 C 0.53748 0.66961 0.35695
 H455 H 0.56336 0.66115 0.35972
 C456 C 0.47200 0.69345 0.35088
 H457 H 0.44660 0.70317 0.34812
 C458 C 0.48209 0.66528 0.33222
 H459 H 0.46402 0.65308 0.31595
 N460 N 0.49400 0.70904 0.37197
 C461 C 0.42938 0.79778 0.37858
 H462 H 0.42181 0.79524 0.40457
 C463 C 0.41585 0.82415 0.35808
 H464 H 0.39724 0.84093 0.36876
 C465 C 0.46410 0.77948 0.33434
 H466 H 0.48394 0.76284 0.32569
 C467 C 0.45101 0.80512 0.31285
 H468 H 0.46114 0.80698 0.28781
 Zn469 Zn 0.47765 0.74710 0.39661
 N470 N 0.45349 0.77657 0.36661
 C471 C 0.51394 0.80721 0.40801
 N472 N 0.51329 0.77309 0.41589
 C473 C 0.53596 0.75883 0.43825
 C474 C 0.56037 0.77913 0.45351
 C475 C 0.53712 0.82847 0.42342
 C476 C 0.42132 0.71246 0.42262
 C477 C 0.39964 0.70036 0.44744
 C478 C 0.43328 0.72867 0.48919
 C479 C 0.45437 0.74012 0.46359
 N480 N 0.44838 0.73155 0.43105
 H481 H 0.49588 0.81840 0.39041
 H482 H 0.53454 0.73190 0.44496
 H483 H 0.57789 0.76767 0.47167
 H484 H 0.53663 0.85568 0.41748
 H485 H 0.41644 0.70654 0.39661
 H486 H 0.37870 0.68474 0.43997
 H487 H 0.43869 0.73616 0.51473
 H488 H 0.47539 0.75609 0.46984
 C489 C 0.42724 0.82884 0.32481
 C490 C 0.51511 0.65279 0.33546
 C491 C 0.40561 0.70815 0.48138
 C492 C 0.56055 0.81449 0.44652
 C493 C 0.36390 0.01202 0.19893
 C494 C 0.37778 0.02068 0.23013
 C495 C 0.39593 0.05101 0.23317
 C496 C 0.40076 0.07250 0.20488
 C497 C 0.38587 0.06401 0.17386
 C498 C 0.36720 0.03393 0.17081
 C499 C 0.37288 -0.00217 0.25951
 C500 C 0.38749 -0.03495 0.26039
 C501 C 0.38186 -0.05803 0.28752
 C502 C 0.36083 -0.04720 0.31376
 C503 C 0.34554 -0.01463 0.31237
 C504 C 0.35187 0.00789 0.28545
 H505 H 0.34934 -0.01116 0.19703
 H506 H 0.40711 0.05713 0.25729
 H507 H 0.40365 -0.04162 0.23985
 H508 H 0.33954 0.03280 0.28408
 H509 H 0.38870 0.08083 0.15206
 H510 H 0.35476 -0.06432 0.33452
 C511 C 0.14754 0.99977 0.71373
 C512 C 0.12586 0.99452 0.74084
 C513 C 0.10380 0.96675 0.74086
 C514 C 0.10336 0.94407 0.71380
 C515 C 0.12619 0.94896 0.68748
 C516 C 0.14815 0.97673 0.68718
 C517 C 0.12624 1.01854 0.76890
 C518 C 0.11054 1.05071 0.76489
 C519 C 0.11272 1.07496 0.79043
 C520 C 0.13196 1.06672 0.81948
 C521 C 0.14788 1.03450 0.82408
 C522 C 0.14407 1.01014 0.79872
 H523 H 0.16442 1.02135 0.71375
 H524 H 0.08653 0.96361 0.76149
 H525 H 0.09657 1.05637 0.74187
 H526 H 0.15643 0.98533 0.80100
 H527 H 0.12663 0.93146 0.66673
 H528 H 0.13370 1.08530 0.83906
 C529 C 0.64210 0.51577 0.22127
 C530 C 0.62288 0.49229 0.23976
 C531 C 0.61918 0.45880 0.22833
 C532 C 0.63493 0.44879 0.19868
 C533 C 0.65424 0.47244 0.18045
 C534 C 0.65818 0.50628 0.19139
 C535 C 0.60798 0.50309 0.27175
 C536 C 0.58485 0.53053 0.27170
 C537 C 0.57394 0.54413 0.30213
 C538 C 0.58612 0.52975 0.33262
 C539 C 0.60999 0.50297 0.33324
 C540 C 0.62028 0.48921 0.30252
 H541 H 0.64404 0.54145 0.23065
 H542 H 0.60463 0.44050 0.24274
 H543 H 0.57649 0.54206 0.24794
 H544 H 0.63931 0.46919 0.30227
 H545 H 0.66646 0.46388 0.15793
 H546 H 0.57699 0.53983 0.35596
 C547 C 0.84701 0.50284 0.68372
 C548 C 0.85250 0.51925 0.71433
 C549 C 0.86011 0.55415 0.71440
 C550 C 0.86349 0.57256 0.68400
 C551 C 0.85783 0.55602 0.65343
 C552 C 0.84936 0.52117 0.65302
 C553 C 0.85534 0.49924 0.74603
 C554 C 0.88335 0.47785 0.75144
 C555 C 0.88954 0.46205 0.78303
 C556 C 0.86657 0.46744 0.80915
 C557 C 0.83778 0.48805 0.80353
 C558 C 0.83243 0.50407 0.77193
 H559 H 0.84199 0.47562 0.68393
 H560 H 0.86564 0.56626 0.73812
 H561 H 0.90054 0.47428 0.73091
 H562 H 0.81103 0.52111 0.76774
 H563 H 0.85975 0.57051 0.63001
 H564 H 0.87094 0.45576 0.83382
 C565 C 0.20402 0.35210 0.01744
 C566 C 0.23535 0.36370 0.02854
 C567 C 0.23799 0.38092 0.05903
 C568 C 0.20947 0.38745 0.07830
 C569 C 0.17824 0.37539 0.06706
 C570 C 0.17526 0.35728 0.03693
 C571 C 0.26578 0.35753 0.00873
 C572 C 0.26833 0.37075 -0.02418
 C573 C 0.29823 0.36681 -0.04214
 C574 C 0.32562 0.34903 -0.02692
 C575 C 0.32250 0.33424 0.00545
 C576 C 0.29274 0.33905 0.02323
 H577 H 0.20246 0.33820 -0.00583
 H578 H 0.26244 0.38933 0.06739
 H579 H 0.24732 0.38497 -0.03535
 H580 H 0.29039 0.32807 0.04840
 H581 H 0.15603 0.38092 0.08135
 H582 H 0.34845 0.34499 -0.04089
 C583 C 0.71679 0.11832 0.99840
 C584 C 0.74683 0.10288 0.98827
 C585 C 0.74634 0.07830 0.96302
 C586 C 0.71611 0.06961 0.94684
 C587 C 0.68612 0.08496 0.95784
 C588 C 0.68623 0.10984 0.98287
 C589 C 0.77911 0.11811 0.99775
 C590 C 0.79366 0.11286 1.02982
 C591 C 0.82433 0.12852 1.03807
 C592 C 0.84040 0.14840 1.01302
 C593 C 0.82603 0.15379 0.98073
 C594 C 0.79511 0.13859 0.97367
 H595 H 0.71772 0.13869 1.01648
 H596 H 0.77012 0.06842 0.95440
 H597 H 0.78050 0.09747 1.04829
 H598 H 0.78338 0.14155 0.94903
 H599 H 0.66240 0.07768 0.94690
 H600 H 0.86432 0.15972 1.01860
 C601 C 0.19761 0.65341 0.51641
 C602 C 0.22603 0.63303 0.51008
 C603 C 0.22766 0.61433 0.48034
 C604 C 0.20102 0.61560 0.45682
 C605 C 0.17293 0.63633 0.46330
 C606 C 0.17115 0.65568 0.49266
 C607 C 0.25520 0.63272 0.53334
 C608 C 0.25528 0.61242 0.56294
 C609 C 0.28401 0.61040 0.58396
 C610 C 0.31226 0.62981 0.57521
 C611 C 0.31248 0.65022 0.54564
 C612 C 0.28383 0.65128 0.52468
 H613 H 0.19681 0.66848 0.53899
 H614 H 0.24969 0.59868 0.47586
 H615 H 0.23336 0.59739 0.56868
 H616 H 0.28355 0.66670 0.50166
 H617 H 0.15246 0.63779 0.44515
 H618 H 0.33445 0.62854 0.59113
 C619 C 0.68834 0.86668 0.48041
 C620 C 0.72017 0.87653 0.49194
 C621 C 0.72407 0.88839 0.52486
 C622 C 0.69630 0.89176 0.54602
 C623 C 0.66449 0.88232 0.53389
 C624 C 0.66042 0.86950 0.50136
 C625 C 0.74927 0.87626 0.46927
 C626 C 0.74787 0.89469 0.43845
 C627 C 0.77636 0.89689 0.41808
 C628 C 0.80572 0.87892 0.42806
 C629 C 0.80736 0.86036 0.45865
 C630 C 0.77924 0.85959 0.47945
 H631 H 0.68519 0.85767 0.45494
 H632 H 0.74880 0.89562 0.53350
 H633 H 0.72516 0.90873 0.43139
 H634 H 0.78038 0.84548 0.50325
 H635 H 0.64261 0.88520 0.54949
 H636 H 0.82768 0.87986 0.41231
 C637 C 0.01106 0.20967 0.34968
 C638 C 0.01826 0.23972 0.36699
 C639 C 0.04732 0.24127 0.38719
 C640 C 0.06894 0.21271 0.39070
 C641 C 0.06170 0.18302 0.37268
 C642 C 0.03286 0.18117 0.35217
 C643 C -0.00656 0.26801 0.36725
 C644 C -0.03779 0.26230 0.38191
 C645 C -0.06114 0.28915 0.38510
 C646 C -0.05327 0.32172 0.37178
 C647 C -0.02237 0.32775 0.35601
 C648 C 0.00121 0.30070 0.35448
 H649 H -0.01169 0.20859 0.33451
 H650 H 0.05227 0.26430 0.40106
 H651 H -0.04328 0.23685 0.39148
 H652 H 0.02535 0.30465 0.34294
 H653 H 0.07751 0.16052 0.37616
 H654 H -0.07079 0.34269 0.37470
 C655 C 1.02487 0.70839 0.11625
 C656 C 1.00793 0.73853 0.10557
 C657 C 0.97974 0.73657 0.08419
 C658 C 0.96824 0.70479 0.07336
 C659 C 0.98554 0.67484 0.08396
 C660 C 1.01372 0.67637 0.10552
 C661 C 1.01787 0.77203 0.11868
 C662 C 1.04978 0.78529 0.11251
 C663 C 1.05880 0.81718 0.12532
 C664 C 1.03572 0.83569 0.14454
 C665 C 1.00353 0.82276 0.15056
 C666 C 0.99486 0.79096 0.13733
 H667 H 1.04632 0.70987 0.13320
 H668 H 0.96630 0.75989 0.07687
 H669 H 1.06756 0.77075 0.09792
 H670 H 0.97006 0.78071 0.14132
 H671 H 0.97667 0.65017 0.07592
 H672 H 1.04285 0.86015 0.15467
 C673 C 0.50122 0.18538 0.65846
 C674 C 0.49246 0.21607 0.64129
 C675 C 0.46225 0.21854 0.62288
 C676 C 0.44086 0.19035 0.62107
 C677 C 0.44954 0.16003 0.63894
 C678 C 0.47945 0.15737 0.65794
 C679 C 0.51499 0.24564 0.64224
 C680 C 0.54611 0.24416 0.62627
 C681 C 0.56732 0.27261 0.62609
 C682 C 0.55760 0.30209 0.64337
 C683 C 0.52666 0.30367 0.65981
 C684 C 0.50509 0.27557 0.65851
 H685 H 0.52446 0.18380 0.67291
 H686 H 0.45614 0.24212 0.60917
 H687 H 0.55304 0.22124 0.61299
 H688 H 0.48114 0.27644 0.67110
 H689 H 0.43299 0.13833 0.63793
 H690 H 0.57408 0.32392 0.64399
 C691 C 0.49376 0.68705 0.87221
 C692 C 0.50152 0.71725 0.88902
 C693 C 0.53154 0.71921 0.90772
 C694 C 0.55394 0.69126 0.91003
 C695 C 0.54601 0.66129 0.89283
 C696 C 0.51636 0.65908 0.87341
 C697 C 0.47982 0.74803 0.88546
 C698 C 0.44756 0.74883 0.89939
 C699 C 0.42918 0.77985 0.90013
 C700 C 0.44325 0.80961 0.88593
 C701 C 0.47521 0.80892 0.87178
 C702 C 0.49324 0.77801 0.87129
 H703 H 0.47102 0.68607 0.85703
 H704 H 0.53747 0.74294 0.91994
 H705 H 0.43781 0.72584 0.91123
 H706 H 0.51847 0.77752 0.86141
 H707 H 0.56279 0.63939 0.89491
 H708 H 0.42946 0.83365 0.88590
 N709 N 0.41288 -0.10510 0.26189
 N710 N 0.42528 -0.13717 0.27224
 C711 C 0.41667 -0.14260 0.30469
 C712 C 0.39812 -0.11433 0.31523
 C713 C 0.39668 -0.09114 0.28803
 H714 H 0.38867 -0.11017 0.34020
 H715 H 0.41567 -0.09513 0.23753
 H716 H 0.43876 -0.15324 0.25656
 N717 N 0.94701 0.44027 0.76827
 N718 N 0.96847 0.41635 0.77916
 C719 C 0.95575 0.40069 0.80660
 C720 C 0.92481 0.41535 0.81353
 C721 C 0.91995 0.44020 0.78843
 H722 H 0.90761 0.40775 0.83309
 H723 H 0.95127 0.45625 0.74740
 H724 H 0.99144 0.41110 0.76788
 N725 N 0.07874 1.12117 0.75953
 N726 N 0.06439 1.15088 0.76653
 C727 C 0.07110 1.15812 0.79895
 C728 C 0.09045 1.13183 0.81312
 C729 C 0.09479 1.10865 0.78744
 H730 H 0.09872 1.12948 0.83911
 H731 H 0.07724 1.10998 0.73594
 H732 H 0.05033 1.16579 0.74922
 N733 N 0.52845 0.58328 0.27866
 N734 N 0.51287 0.61175 0.28754
 C735 C 0.52605 0.62209 0.31706
 C736 C 0.55093 0.59904 0.32743
 C737 C 0.55160 0.57470 0.30253
 H738 H 0.56629 0.59981 0.35008
 H739 H 0.52284 0.56985 0.25687
 H740 H 0.49378 0.62389 0.27333
 N741 N 0.65909 0.39542 0.17559
 N742 N 0.64838 0.36620 0.16356
 C743 C 0.61467 0.36495 0.16646
 C744 C 0.60367 0.39470 0.18187
 C745 C 0.63266 0.41335 0.18686
 H746 H 0.57816 0.40278 0.18673
 H747 H 0.68413 0.40305 0.17561
 H748 H 0.66427 0.34785 0.15332
 N749 N 0.06193 0.90248 0.73843
 N750 N 0.04240 0.87773 0.72756
 C751 C 0.04611 0.87495 0.69398
 C752 C 0.06907 0.89901 0.68321
 C753 C 0.07869 0.91592 0.71207
 H754 H 0.07775 0.90343 0.65783
 H755 H 0.06391 0.90947 0.76361
 H756 H 0.02678 0.86330 0.74310
 N757 N 0.86981 0.63060 0.70892
 N758 N 0.88570 0.65932 0.70177
 C759 C 0.90197 0.65567 0.67246
 C760 C 0.89579 0.62334 0.66029
 C761 C 0.87533 0.60825 0.68413
 H762 H 0.90541 0.61205 0.63765
 H763 H 0.85557 0.62654 0.73051
 H764 H 0.88592 0.68061 0.71725
 N765 N 0.42627 0.12182 0.23538
 N766 N 0.44661 0.14749 0.22841
 C767 C 0.45591 0.14555 0.19597
 C768 C 0.44051 0.11765 0.18167
 C769 C 0.42188 0.10330 0.20739
 H770 H 0.44244 0.10908 0.15602
 H771 H 0.41530 0.11755 0.25882
 H772 H 0.45405 0.16575 0.24575
 N773 N 0.27387 0.38142 -0.09897
 N774 N 0.28361 0.39567 -0.12761
 C775 C 0.31612 0.40437 -0.12454
 C776 C 0.32768 0.39485 -0.09248
 C777 C 0.30003 0.38042 -0.07708
 H778 H 0.35245 0.39840 -0.08169
 H779 H 0.24967 0.37246 -0.09469
 H780 H 0.26785 0.40002 -0.14853
 N781 N 0.74922 0.92891 0.36888
 N782 N 0.75883 0.94930 0.34381
 C783 C 0.79231 0.95356 0.34624
 C784 C 0.80443 0.93478 0.37386
 C785 C 0.77645 0.91943 0.38753
 H786 H 0.83015 0.93250 0.38275
 H787 H 0.72447 0.92143 0.37270
 H788 H 0.74254 0.96020 0.32565
 N789 N 0.86218 0.14641 1.08289
 N790 N 0.87095 0.13520 1.11532
 C791 C 0.85328 0.10672 1.12262
 C792 C 0.83234 0.09983 1.09509
 C793 C 0.83885 0.12506 1.07062
 H794 H 0.81537 0.07860 1.09265
 H795 H 0.87155 0.16868 1.07170
 H796 H 0.88977 0.14657 1.12957
 N797 N 0.25834 0.57375 0.62966
 N798 N 0.26872 0.55412 0.65539
 C799 C 0.30258 0.55447 0.65708
 C800 C 0.31402 0.57543 0.63112
 C801 C 0.28526 0.58725 0.61426
 H802 H 0.33976 0.58115 0.62517
 H803 H 0.23312 0.57787 0.62320
 H804 H 0.25257 0.54056 0.67113
 N805 N 0.23118 0.58530 0.41069
 N806 N 0.22352 0.56997 0.38228
 C807 C 0.18986 0.57059 0.37785
 C808 C 0.17565 0.58717 0.40484
 C809 C 0.20265 0.59615 0.42513
 H810 H 0.14929 0.59170 0.40937
 H811 H 0.25572 0.58889 0.41935
 H812 H 0.24141 0.55999 0.36609
 N813 N 0.74207 0.02862 0.90869
 N814 N 0.73272 0.01284 0.87883
 C815 C 0.70125 0.02347 0.87048
 C816 C 0.68997 0.04547 0.89512
 C817 C 0.71602 0.04825 0.91855
 H818 H 0.66600 0.05859 0.89556
 H819 H 0.76521 0.02464 0.92084
 H820 H 0.74860 -0.00320 0.86547
 N821 N 0.72638 0.92573 0.58996
 N822 N 0.72065 0.93692 0.62055
 C823 C 0.69086 0.92496 0.63095
 C824 C 0.67713 0.90515 0.60585
 C825 C 0.70028 0.90645 0.58004
 H826 H 0.65299 0.89277 0.60595
 H827 H 0.74737 0.93245 0.57595
 H828 H 0.73686 0.95284 0.63369
 N829 N 0.23776 0.42855 0.11708
 N830 N 0.23070 0.44485 0.14498
 C831 C 0.20055 0.43455 0.15600
 C832 C 0.18798 0.41049 0.13420
 C833 C 0.21216 0.40757 0.10955
 H834 H 0.16381 0.39826 0.13533
 H835 H 0.25923 0.43307 0.10296
 H836 H 0.24615 0.46320 0.15572
 N837 N -0.09801 0.25702 0.42545
 N838 N -0.12693 0.26180 0.44061
 C839 C -0.14099 0.29133 0.42893
 C840 C -0.12013 0.30588 0.40508
 C841 C -0.09279 0.28353 0.40379
 H842 H -0.12361 0.33035 0.39215
 H843 H -0.08169 0.23660 0.43132
 H844 H -0.13630 0.24539 0.45925
 N845 N 0.37560 0.75600 0.92382
 N846 N 0.34860 0.76791 0.93901
 C847 C 0.35158 0.80207 0.94261
 C848 C 0.38192 0.81204 0.92919
 C849 C 0.39638 0.78228 0.91731
 H850 H 0.39242 0.83744 0.92871
 H851 H 0.37920 0.73039 0.91755
 H852 H 0.32837 0.75276 0.94611
 N853 N 1.11195 0.84538 0.14265
 N854 N 1.14032 0.85498 0.12863
 C855 C 1.13922 0.84735 0.09568
 C856 C 1.10893 0.83181 0.08847
 C857 C 1.09244 0.83102 0.11901
 H858 H 1.09992 0.82289 0.06439
 H859 H 1.10622 0.84854 0.16800
 H860 H 1.15964 0.86738 0.14134
 N861 N 0.61662 0.24353 0.59968
 N862 N 0.64277 0.25233 0.58142
 C863 C 0.64240 0.28668 0.57655
 C864 C 0.61473 0.30014 0.59281
 C865 C 0.59903 0.27201 0.60707
 H866 H 0.60635 0.32656 0.59337
 H867 H 0.61129 0.21837 0.60707
 H868 H 0.66043 0.23476 0.57277
 N869 N 0.39290 0.22110 0.59134
 N870 N 0.36609 0.21301 0.57334
 C871 C 0.36534 0.17864 0.57020
 C872 C 0.39302 0.16446 0.58704
 C873 C 0.40978 0.19211 0.60021
 H874 H 0.40030 0.13774 0.58922
 H875 H 0.39884 0.24606 0.59796
 H876 H 0.34850 0.23099 0.56413
 N877 N 0.92547 0.72802 0.03158
 N878 N 0.89687 0.71812 0.01785
 C879 C 0.88978 0.68635 0.02961
 C880 C 0.91534 0.67567 0.05166
 C881 C 0.93739 0.70279 0.05230
 H882 H 0.91715 0.65204 0.06631
 H883 H 0.93657 0.75164 0.02649
 H884 H 0.88282 0.73312 0.00063
 N885 N 0.59176 0.71657 0.95401
 N886 N 0.62193 0.71056 0.96724
 C887 C 0.63599 0.68363 0.95180
 C888 C 0.61363 0.67209 0.92763
 C889 C 0.58574 0.69352 0.92987
 H890 H 0.61698 0.65055 0.91128
 H891 H 0.57550 0.73571 0.96223
 H892 H 0.63239 0.72479 0.98663
 N893 N 0.09880 0.23146 0.44317
 N894 N 0.12489 0.22112 0.46184
 C895 C 0.14084 0.19558 0.44598
 C896 C 0.12427 0.18964 0.41587
 C897 C 0.09744 0.21256 0.41512
 H898 H 0.12985 0.16984 0.39807
 H899 H 0.08139 0.24991 0.45061
 H900 H 0.13098 0.23097 0.48536
 N901 N 0.46404 0.10341 0.68875
 N902 N 0.47930 0.07712 0.70406
 C903 C 0.51279 0.08159 0.70277
 C904 C 0.51896 0.11240 0.68587
 C905 C 0.48734 0.12535 0.67729
 H906 H 0.54297 0.12357 0.68008
 H907 H 0.43800 0.10608 0.68652
 H908 H 0.46664 0.05625 0.71444
 N909 N 1.03275 0.61588 0.09865
 N910 N 1.04637 0.59088 0.11729
 C911 C 1.05302 0.60256 0.14842
 C912 C 1.04364 0.63697 0.14925
 C913 C 1.03056 0.64424 0.11724
 H914 H 1.04436 0.65378 0.17057
 H915 H 1.02498 0.61332 0.07361
 H916 H 1.05088 0.56628 0.10846
 N917 N 0.95352 0.82718 0.18766
 N918 N 0.93566 0.85127 0.20216
 C919 C 0.94905 0.88206 0.19477
 C920 C 0.97687 0.87716 0.17460
 C921 C 0.97880 0.84192 0.17064
 H922 H 0.99321 0.89644 0.16407
 H923 H 0.94838 0.80108 0.18983
 H924 H 0.91433 0.84636 0.21636
 N925 N 0.54005 0.35218 0.69737
 N926 N 0.52381 0.37638 0.71349
 C927 C 0.49084 0.37449 0.70588
 C928 C 0.48579 0.34770 0.68407
 C929 C 0.51772 0.33411 0.67943
 H930 H 0.46226 0.33905 0.67354
 H931 H 0.56590 0.34772 0.69941
 H932 H 0.53529 0.39395 0.72928
 N933 N 0.53463 0.60671 0.84309
 N934 N 0.52097 0.58185 0.82581
 C935 C 0.48740 0.58667 0.82451
 C936 C 0.47945 0.61616 0.84193
 C937 C 0.51018 0.62806 0.85341
 H938 H 0.45487 0.62727 0.84592
 H939 H 0.56044 0.60896 0.84717
 H940 H 0.53476 0.56172 0.81572
 N941 N 0.04746 0.12415 0.32791
 N942 N 0.03170 0.09825 0.31414
 C943 C -0.00144 0.10566 0.31223
 C944 C -0.00679 0.13797 0.32532
 C945 C 0.02482 0.14879 0.33509
 H946 H -0.03036 0.15160 0.32785
 H947 H 0.07338 0.12470 0.33200
 H948 H 0.04378 0.07584 0.30673
 N949 N -0.03840 0.38655 0.33390
 N950 N -0.02358 0.41375 0.32086
 C951 C 0.00975 0.40762 0.31961
 C952 C 0.01628 0.37483 0.33262
 C953 C -0.01496 0.36224 0.34143
 H954 H 0.04035 0.36187 0.33503
 H955 H -0.06432 0.38483 0.33683
 H956 H -0.03646 0.43607 0.31322
 N957 N 0.48745 0.87095 0.87696
 N958 N 0.50720 0.89388 0.86288
 C959 C 0.52321 0.87930 0.83711
 C960 C 0.51352 0.84550 0.83471
 C961 C 0.49087 0.84120 0.86067
 H962 H 0.52248 0.82656 0.81734
 H963 H 0.47292 0.87540 0.89817
 H964 H 0.50981 0.91899 0.87101
 N965 N 0.68739 0.56079 0.18446
 N966 N 0.70621 0.57688 0.15955
 C967 C 0.70791 0.55597 0.13291
 C968 C 0.69054 0.52607 0.14074
 C969 C 0.67788 0.52999 0.17309
 H970 H 0.68676 0.50454 0.12455
 H971 H 0.68298 0.57141 0.20789
 H972 H 0.71581 0.60144 0.16196
 N973 N 0.18528 0.95559 0.64181
 N974 N 0.20204 0.96844 0.61613
 C975 C 0.19888 1.00292 0.61591
 C976 C 0.17961 1.01231 0.64322
 C977 C 0.17124 0.98149 0.65873
 H978 H 0.17107 1.03770 0.64975
 H979 H 0.18343 0.92942 0.64740
 H980 H 0.21517 0.95347 0.59914
 N981 N 0.17974 1.05190 0.87356
 N982 N 0.19797 1.03583 0.89961
 C983 C 0.19647 1.00163 0.89547
 C984 C 0.17771 0.99541 0.86628
 C985 C 0.16755 1.02750 0.85334
 H986 H 0.17159 0.97074 0.85613
 H987 H 0.17804 1.07846 0.87035
 H988 H 0.20868 1.04909 0.91950
 N989 N 0.62568 0.51094 0.39381
 N990 N 0.64394 0.49530 0.41755
 C991 C 0.65640 0.46588 0.40544
 C992 C 0.64527 0.46253 0.37237
 C993 C 0.62587 0.49187 0.36583
 H994 H 0.65131 0.44218 0.35532
 H995 H 0.61440 0.53491 0.39685
 H996 H 0.64768 0.50495 0.44162
 N997 N 0.85646 0.51460 0.59088
 N998 N 0.84584 0.49418 0.56700
 C999 C 0.82619 0.46985 0.58085
 C1000 C 0.82451 0.47520 0.61529
 C1001 C 0.84388 0.50391 0.62058
 H1002 H 0.81048 0.46094 0.63389
 H1003 H 0.87217 0.53541 0.58658
 H1004 H 0.85170 0.49771 0.54165
 N1005 N 0.33442 0.05025 0.11881
 N1006 N 0.31722 0.03467 0.09507
 C1007 C 0.32146 0.00057 0.09934
 C1008 C 0.34209 -0.00594 0.12709
 C1009 C 0.34956 0.02632 0.13894
 H1010 H 0.34933 -0.03064 0.13796
 H1011 H 0.33443 0.07674 0.12195
 H1012 H 0.30248 0.04725 0.07659
 N1013 N 0.28683 -0.00441 0.32928
 N1014 N 0.27068 0.00884 0.35481
 C1015 C 0.29317 0.01699 0.37902
 C1016 C 0.32516 0.00820 0.36825
 C1017 C 0.31982 -0.00531 0.33672
 H1018 H 0.34902 0.01223 0.38078
 H1019 H 0.27548 -0.01169 0.30671
 H1020 H 0.24483 0.01346 0.35465
 N1021 N 0.78030 0.49606 0.82643
 N1022 N 0.76662 0.50631 0.85468
 C1023 C 0.79119 0.51159 0.87764
 C1024 C 0.82190 0.50362 0.86334
 C1025 C 0.81383 0.49417 0.83083
 H1026 H 0.84677 0.50665 0.87405
 H1027 H 0.76688 0.49158 0.80421
 H1028 H 0.74103 0.51156 0.85723
 N1029 N 0.12489 0.69415 0.47122
 N1030 N 0.09985 0.71234 0.48324
 C1031 C 0.10048 0.70967 0.51720
 C1032 C 0.12757 0.68873 0.52710
 C1033 C 0.14221 0.67926 0.49707
 H1034 H 0.13506 0.68064 0.55235
 H1035 H 0.12980 0.69214 0.44556
 H1036 H 0.08227 0.72545 0.46794
 N1037 N 0.62845 0.13208 0.96859
 N1038 N 0.60538 0.15197 0.98191
 C1039 C 0.61642 0.16215 1.01228
 C1040 C 0.64806 0.14789 1.01855
 C1041 C 0.65482 0.12894 0.99017
 H1042 H 0.66405 0.15115 1.04045
 H1043 H 0.62613 0.12171 0.94467
 H1044 H 0.58240 0.15803 0.97018
 N1045 N 0.82693 0.18729 0.92796
 N1046 N 0.85042 0.20655 0.91036
 C1047 C 0.87991 0.20425 0.92744
 C1048 C 0.87557 0.18404 0.95633
 C1049 C 0.84213 0.17399 0.95598
 H1050 H 0.89446 0.17748 0.97523
 H1051 H 0.80174 0.18575 0.92072
 H1052 H 0.84531 0.21894 0.88729
 N1053 N 0.36680 0.67941 0.55839
 N1054 N 0.39112 0.69455 0.54163
 C1055 C 0.38349 0.69471 0.50839
 C1056 C 0.35264 0.67900 0.50406
 C1057 C 0.34297 0.66952 0.53636
 H1058 H 0.33938 0.67427 0.48072
 H1059 H 0.36680 0.67609 0.58456
 H1060 H 0.41279 0.70381 0.55311
 N1061 N 0.59934 0.88132 0.49307
 N1062 N 0.57329 0.86714 0.47823
 C1063 C 0.58329 0.83741 0.46472
 C1064 C 0.61739 0.83259 0.47084
 C1065 C 0.62656 0.86119 0.48883
 H1066 H 0.63320 0.81147 0.46323
 H1067 H 0.59848 0.90468 0.50541
 H1068 H 0.54901 0.87755 0.47776
 N1069 N 0.11600 0.33880 0.04683
 N1070 N 0.09070 0.32631 0.02935
 C1071 C 0.10004 0.32281 -0.00296
 C1072 C 0.13298 0.33370 -0.00594
 C1073 C 0.14220 0.34372 0.02619
 H1074 H 0.14815 0.33438 -0.02831
 H1075 H 0.11511 0.34325 0.07263
 H1076 H 0.06747 0.32069 0.03979
 N1077 N 0.34121 0.28062 0.03476
 N1078 N 0.36921 0.26637 0.04662
 C1079 C 0.39497 0.28745 0.04000
 C1080 C 0.38273 0.31649 0.02276
 C1081 C 0.34843 0.31095 0.02002
 H1082 H 0.39651 0.33870 0.01427
 H1083 H 0.31750 0.26972 0.03699
 H1084 H 0.37026 0.24304 0.05999
 N1085 N 0.85847 0.82538 0.44684
 N1086 N 0.88384 0.81105 0.46384
 C1087 C 0.88084 0.81844 0.49668
 C1088 C 0.85206 0.83811 0.50085
 C1089 C 0.83856 0.84182 0.46857
 H1090 H 0.84231 0.84817 0.52401
 H1091 H 0.85472 0.82340 0.42087
 H1092 H 0.90303 0.79679 0.45294
   
