data_POSCAR
  _audit_creation_date              2014-09-24
  _audit_creation_method            'ToBaCCo'
  _symmetry_space_group_name_H-M    'P1'
  _symmetry_Int_Tables_number       1
  _symmetry_cell_setting            triclinic
  loop_
  _symmetry_equiv_pos_as_xyz
 x,y,z
_cell_length_a 48.9912
_cell_length_b 25.5755
_cell_length_c 22.5288
_cell_angle_alpha 89.980900
_cell_angle_beta 89.920900
_cell_angle_gamma 89.881200
loop_
  _atom_site_label
  _atom_site_type_symbol
  _atom_site_fract_x
  _atom_site_fract_y
  _atom_site_fract_z
C1 C 0.68559 0.31682 0.49450
 C2 C 0.69876 0.30973 0.54944
 C3 C 0.72442 0.28453 0.54949
 C4 C 0.73606 0.26374 0.49699
 C5 C 0.72131 0.26934 0.44351
 C6 C 0.69687 0.29775 0.44168
 C7 C 0.76391 0.23849 0.49761
 C8 C 0.77966 0.23466 0.44503
 C9 C 0.80600 0.21225 0.44480
 C10 C 0.81722 0.19690 0.49957
 C11 C 0.80248 0.20147 0.55253
 C12 C 0.77555 0.21989 0.55100
 H13 H 0.66565 0.33493 0.49221
 H14 H 0.73592 0.28398 0.59026
 H15 H 0.72880 0.25289 0.40247
 H16 H 0.77222 0.25170 0.40437
 H17 H 0.83711 0.17856 0.50163
 H18 H 0.76421 0.22048 0.59212
 C19 C 0.17965 0.79170 0.50562
 C20 C 0.19173 0.77725 0.55995
 C21 C 0.21878 0.75812 0.55867
 C22 C 0.23432 0.75710 0.50574
 C23 C 0.22171 0.77431 0.45290
 C24 C 0.19424 0.78960 0.45222
 C25 C 0.26343 0.73788 0.50565
 C26 C 0.27607 0.72071 0.45271
 C27 C 0.30359 0.70584 0.45186
 C28 C 0.31823 0.70409 0.50506
 C29 C 0.30615 0.71838 0.55943
 C30 C 0.27901 0.73698 0.55850
 H31 H 0.15925 0.80789 0.50440
 H32 H 0.22722 0.74188 0.59886
 H33 H 0.23285 0.77561 0.41157
 H34 H 0.26493 0.71914 0.41146
 H35 H 0.33870 0.68820 0.50368
 H36 H 0.27055 0.75295 0.59886
 C37 C 0.31593 0.30169 -0.50473
 C38 C 0.30386 0.28656 -0.55819
 C39 C 0.27750 0.26538 -0.55736
 C40 C 0.26226 0.26214 -0.50409
 C41 C 0.27475 0.27932 -0.45098
 C42 C 0.30184 0.29717 -0.45090
 C43 C 0.23377 0.24029 -0.50427
 C44 C 0.22198 0.21885 -0.45239
 C45 C 0.19537 0.19755 -0.45245
 C46 C 0.18124 0.19566 -0.50694
 C47 C 0.19268 0.21573 -0.55913
 C48 C 0.21834 0.23947 -0.55701
 H49 H 0.33630 0.31816 -0.50500
 H50 H 0.26943 0.25066 -0.59868
 H51 H 0.26385 0.27841 -0.40928
 H52 H 0.23403 0.21601 -0.41246
 H53 H 0.16085 0.17976 -0.50931
 H54 H 0.22588 0.25752 -0.59715
 C55 C -0.18129 0.79424 -0.49631
 C56 C -0.19312 0.78165 -0.55137
 C57 C -0.22004 0.76201 -0.55144
 C58 C -0.23566 0.75837 -0.49866
 C59 C -0.22328 0.77411 -0.44493
 C60 C -0.19596 0.78990 -0.44330
 C61 C -0.26460 0.73823 -0.49950
 C62 C -0.27740 0.72059 -0.44686
 C63 C -0.30488 0.70564 -0.44654
 C64 C -0.31933 0.70363 -0.49993
 C65 C -0.30680 0.71752 -0.55356
 C66 C -0.27992 0.73664 -0.55271
 H67 H -0.16103 0.81083 -0.49404
 H68 H -0.22819 0.74745 -0.59265
 H69 H -0.23443 0.77397 -0.40361
 H70 H -0.26652 0.71880 -0.40529
 H71 H -0.34016 0.68946 -0.49966
 H72 H -0.27152 0.75077 -0.59400
 O73 O -0.03685 0.91311 0.11636
 O74 O -0.06752 0.95664 0.05717
 C75 C -0.06145 0.92555 0.10067
 O76 O 0.03850 1.09773 0.09969
 O77 O 0.06876 1.04618 0.04800
 C78 C 0.06298 1.08311 0.08545
 O79 O -0.03784 1.09243 0.10600
 O80 O -0.06828 1.04330 0.05222
 C81 C -0.06238 1.07782 0.09226
 O82 O 0.03915 0.90863 0.10948
 O83 O 0.06908 0.95579 0.05197
 C84 C 0.06355 0.92225 0.09346
 Zr85 Zr 0.00080 0.93501 0.07812
 O86 O 0.00203 0.93021 0.17177
 O87 O 0.00002 0.85264 0.07103
 Zr88 Zr 0.00045 1.06740 0.07238
 O89 O 0.00343 1.07128 0.16601
 O90 O -0.00271 1.14987 0.06759
 O91 O -0.02348 1.00155 0.08776
 O92 O 0.02427 1.00175 0.08580
 O93 O 0.03822 0.90034 -0.09958
 O94 O 0.06869 0.95186 -0.04887
 C95 C 0.06277 0.91493 -0.08613
 O96 O -0.03883 1.08355 -0.11166
 O97 O -0.06875 1.03940 -0.05102
 C98 C -0.06326 1.07023 -0.09505
 O99 O 0.03803 1.08896 -0.10952
 O100 O 0.06856 1.04219 -0.05305
 C101 C 0.06261 1.07546 -0.09444
 O102 O -0.03794 0.90609 -0.10542
 O103 O -0.06797 0.95390 -0.04898
 C104 C -0.06235 0.92055 -0.09047
 Zr105 Zr 0.00011 0.92983 -0.07047
 O106 O 0.00274 0.92260 -0.16383
 O107 O -0.00275 0.84755 -0.06196
 Zr108 Zr -0.00010 1.06237 -0.07667
 O109 O 0.00228 1.06312 -0.17046
 O110 O -0.00330 1.14501 -0.07599
 Zr111 Zr -0.04047 0.99869 0.00185
 Zr112 Zr 0.04120 0.99894 -0.00011
 O113 O 0.02351 0.99574 -0.08522
 O114 O -0.02415 0.99573 -0.08482
 O115 O 0.02515 0.92252 0.00376
 O116 O -0.02377 1.07436 -0.00207
 O117 O -0.02369 0.92298 0.00484
 O118 O 0.02476 1.07519 -0.00319
 H119 H 0.03650 1.00326 0.12073
 H120 H -0.03639 1.10470 -0.00324
 H121 H 0.03531 0.99430 -0.12092
 H122 H -0.03635 0.89279 0.00623
 H123 H 0.01230 1.16241 0.04190
 H124 H 0.01414 1.15912 -0.06078
 H125 H -0.01121 1.03764 -0.18539
 H126 H -0.00893 0.95022 -0.18110
 H127 H 0.01339 0.83552 -0.03934
 H128 H -0.00007 0.83923 0.11229
 H129 H 0.00481 0.96614 0.18656
 H130 H -0.01142 1.04966 0.18282
 O131 O 0.46215 0.40670 0.10488
 O132 O 0.43167 0.45419 0.04915
 C133 C 0.43760 0.42052 0.09020
 O134 O 0.53743 0.59097 0.10912
 O135 O 0.56813 0.54443 0.05272
 C136 C 0.56204 0.57812 0.09368
 O137 O 0.46132 0.58465 0.11376
 O138 O 0.43131 0.54065 0.05368
 C139 C 0.43692 0.57127 0.09776
 O140 O 0.53824 0.40199 0.09910
 O141 O 0.56853 0.45362 0.04769
 C142 C 0.56275 0.41687 0.08532
 Zr143 Zr 0.50006 0.43068 0.06936
 O144 O 0.50053 0.41765 0.16206
 O145 O 0.49932 0.34930 0.05346
 Zr146 Zr 0.49956 0.56301 0.07746
 O147 O 0.50191 0.56034 0.17123
 O148 O 0.49613 0.64554 0.07947
 O149 O 0.47564 0.49612 0.08492
 O150 O 0.52340 0.49662 0.08491
 O151 O 0.53901 0.41137 -0.11035
 O152 O 0.56887 0.45852 -0.05285
 C153 C 0.56341 0.42531 -0.09457
 O154 O 0.46206 0.59461 -0.10593
 O155 O 0.43161 0.54572 -0.05177
 C156 C 0.43753 0.58030 -0.09183
 O157 O 0.53818 0.59869 -0.10095
 O158 O 0.56838 0.54786 -0.04847
 C159 C 0.56266 0.58388 -0.08691
 O160 O 0.46261 0.41573 -0.11675
 O161 O 0.43195 0.45891 -0.05700
 C162 C 0.43800 0.42858 -0.10113
 Zr163 Zr 0.50047 0.43739 -0.07885
 O164 O 0.50353 0.43701 -0.17253
 O165 O 0.49802 0.35471 -0.07835
 Zr166 Zr 0.50002 0.56989 -0.07123
 O167 O 0.50283 0.57917 -0.16434
 O168 O 0.49688 0.65199 -0.06041
 Zr169 Zr 0.45901 0.49998 -0.00133
 Zr170 Zr 0.54089 0.50078 -0.00025
 O171 O 0.52372 0.50431 -0.08591
 O172 O 0.47610 0.50401 -0.08728
 O173 O 0.52501 0.42427 -0.00495
 O174 O 0.47568 0.57564 0.00338
 O175 O 0.47605 0.42447 -0.00546
 O176 O 0.52440 0.57691 0.00394
 H177 H 0.53544 0.49545 0.12017
 H178 H 0.46300 0.60585 0.00507
 H179 H 0.53559 0.50580 -0.12149
 H180 H 0.46346 0.39421 -0.00721
 H181 H 0.51218 0.66006 0.05856
 H182 H 0.51452 0.66475 -0.04480
 H183 H 0.49086 0.55257 -0.18250
 H184 H 0.49154 0.46523 -0.18743
 H185 H 0.51450 0.34121 -0.05807
 H186 H 0.49911 0.33251 0.09308
 H187 H 0.50514 0.45129 0.18102
 H188 H 0.48832 0.53445 0.18506
 C189 C 0.36145 0.29679 0.33028
 C190 C 0.34846 0.32196 0.28291
 C191 C 0.32036 0.33178 0.28556
 C192 C 0.30549 0.31797 0.33631
 C193 C 0.31868 0.29466 0.38510
 C194 C 0.34669 0.28317 0.38100
 C195 C 0.36467 0.34134 0.23435
 C196 C 0.37954 0.35857 0.19647
 C197 C 0.39840 0.37959 0.15558
 C198 C 0.41569 0.39807 0.12383
 H199 H 0.38320 0.28911 0.32877
 H200 H 0.31013 0.35158 0.24933
 H201 H 0.28398 0.32767 0.33853
 H202 H 0.35728 0.26472 0.41763
 C203 C -0.13516 0.80558 0.34387
 C204 C -0.14901 0.82138 0.29283
 C205 C -0.17751 0.81943 0.29132
 C206 C -0.19217 0.80369 0.34169
 C207 C -0.17849 0.79059 0.39501
 C208 C -0.14962 0.79020 0.39423
 C209 C -0.13355 0.84274 0.24421
 C210 C -0.11905 0.86161 0.20666
 C211 C -0.10043 0.88418 0.16632
 C212 C -0.08327 0.90337 0.13480
 H213 H -0.11305 0.80626 0.34529
 H214 H -0.18845 0.83176 0.25194
 H215 H -0.21421 0.80563 0.33963
 H216 H -0.13789 0.77770 0.43233
 C217 C 0.63597 0.70566 0.33417
 C218 C 0.64930 0.68067 0.28706
 C219 C 0.67745 0.67161 0.29012
 C220 C 0.69203 0.68598 0.34095
 C221 C 0.67856 0.70926 0.38949
 C222 C 0.65046 0.71997 0.38497
 C223 C 0.63349 0.66062 0.23832
 C224 C 0.61907 0.64268 0.20013
 C225 C 0.60073 0.62072 0.15885
 C226 C 0.58377 0.60143 0.12699
 H227 H 0.61416 0.71265 0.33240
 H228 H 0.68796 0.65189 0.25415
 H229 H 0.71357 0.67664 0.34341
 H230 H 0.63957 0.73830 0.42130
 C231 C 0.17785 1.17807 0.28149
 C232 C 0.14961 1.18599 0.27873
 C233 C 0.13583 1.20754 0.32742
 C234 C 0.15000 1.21931 0.37949
 C235 C 0.17818 1.20965 0.38350
 C236 C 0.19210 1.19008 0.33351
 C237 C 0.13416 1.16729 0.22879
 C238 C 0.11999 1.14983 0.18989
 C239 C 0.10184 1.12767 0.14836
 C240 C 0.08489 1.10769 0.11702
 H241 H 0.18868 1.16095 0.24430
 H242 H 0.11394 1.21367 0.32585
 H243 H 0.13884 1.23489 0.41708
 H244 H 0.21377 1.18179 0.33562
 C245 C 0.65284 0.38210 -0.34578
 C246 C 0.65689 0.35439 -0.29314
 C247 C 0.67633 0.31433 -0.29121
 C248 C 0.69102 0.30088 -0.34242
 C249 C 0.68617 0.32681 -0.39697
 C250 C 0.66726 0.36868 -0.39699
 C251 C 0.63965 0.36560 -0.24289
 C252 C 0.62379 0.37643 -0.20378
 C253 C 0.60381 0.39102 -0.16168
 C254 C 0.58577 0.40541 -0.12905
 H255 H 0.63809 0.41369 -0.34763
 H256 H 0.67955 0.29242 -0.25064
 H257 H 0.70480 0.26785 -0.33963
 H258 H 0.66370 0.39205 -0.43625
 C259 C 0.13428 0.79620 -0.33224
 C260 C 0.14843 0.80929 -0.28061
 C261 C 0.17693 0.80729 -0.28015
 C262 C 0.19128 0.79425 -0.33193
 C263 C 0.17732 0.78381 -0.38564
 C264 C 0.14846 0.78348 -0.38403
 C265 C 0.13339 0.82884 -0.23032
 C266 C 0.11941 0.84697 -0.19135
 C267 C 0.10138 0.86979 -0.14981
 C268 C 0.08455 0.89016 -0.11827
 H269 H 0.11216 0.79705 -0.33298
 H270 H 0.18811 0.81764 -0.24041
 H271 H 0.21332 0.79624 -0.33029
 H272 H 0.13651 0.77302 -0.42257
 C273 C 0.36399 0.70034 -0.33427
 C274 C 0.35013 0.68564 -0.28277
 C275 C 0.32161 0.68677 -0.28160
 C276 C 0.30697 0.70034 -0.33275
 C277 C 0.32070 0.71202 -0.38648
 C278 C 0.34955 0.71347 -0.38544
 C279 C 0.36556 0.66532 -0.23358
 C280 C 0.37999 0.64676 -0.19573
 C281 C 0.39852 0.62389 -0.15545
 C282 C 0.41566 0.60394 -0.12449
 H283 H 0.38611 0.70025 -0.33546
 H284 H 0.31065 0.67524 -0.24191
 H285 H 0.28495 0.69763 -0.33083
 H286 H 0.36126 0.72497 -0.42401
 C287 C -0.14322 1.19126 -0.32921
 C288 C -0.15538 1.15762 -0.28810
 C289 C -0.18219 1.14032 -0.29719
 C290 C -0.19651 1.15578 -0.34819
 C291 C -0.18393 1.18813 -0.39065
 C292 C -0.15735 1.20643 -0.38000
 C293 C -0.13912 1.13860 -0.23949
 C294 C -0.12361 1.12316 -0.20183
 C295 C -0.10373 1.10528 -0.16129
 C296 C -0.08567 1.08971 -0.12954
 H297 H -0.12250 1.20481 -0.32271
 H298 H -0.19176 1.11403 -0.26574
 H299 H -0.21693 1.14102 -0.35552
 H300 H -0.14733 1.23195 -0.41158
 C301 C 0.64267 0.70715 -0.32360
 C302 C 0.65264 0.66828 -0.28562
 C303 C 0.67710 0.64244 -0.29933
 C304 C 0.69139 0.65518 -0.35125
 C305 C 0.68105 0.69328 -0.39019
 C306 C 0.65672 0.71945 -0.37567
 C307 C 0.63641 0.65251 -0.23546
 C308 C 0.62138 0.63886 -0.19602
 C309 C 0.60223 0.62182 -0.15338
 C310 C 0.58470 0.60568 -0.12063
 H311 H 0.62373 0.72726 -0.31356
 H312 H 0.68483 0.61183 -0.27061
 H313 H 0.71003 0.63434 -0.36191
 H314 H 0.64857 0.74932 -0.40483
 C315 C 0.17516 1.18654 -0.29203
 C316 C 0.15417 1.14973 -0.29539
 C317 C 0.14822 1.12608 -0.34965
 C318 C 0.16235 1.14045 -0.40087
 C319 C 0.18288 1.17924 -0.39927
 C320 C 0.18956 1.20092 -0.34328
 C321 C 0.13745 1.13758 -0.24462
 C322 C 0.12197 1.12610 -0.20505
 C323 C 0.10238 1.11084 -0.16241
 C324 C 0.08464 1.09591 -0.12939
 H325 H 0.17990 1.20525 -0.25017
 H326 H 0.13225 1.09694 -0.35264
 H327 H 0.15728 1.12008 -0.44140
 H328 H 0.20465 1.23149 -0.33909
 C329 C 0.31928 0.35815 -0.30191
 C330 C 0.34609 0.34011 -0.29419
 C331 C 0.35759 0.30600 -0.33579
 C332 C 0.34278 0.29110 -0.38574
 C333 C 0.31618 0.31008 -0.39492
 C334 C 0.30429 0.34295 -0.35199
 C335 C 0.36289 0.35892 -0.24641
 C336 C 0.37850 0.37451 -0.20915
 C337 C 0.39824 0.39280 -0.16862
 C338 C 0.41602 0.40878 -0.13652
 H339 H 0.31025 0.38485 -0.27013
 H340 H 0.37831 0.29188 -0.33035
 H341 H 0.35228 0.26526 -0.41780
 H342 H 0.28388 0.35831 -0.35830
 C343 C -0.18006 0.84954 -0.29280
 C344 C -0.15350 0.83082 -0.28351
 C345 C -0.14165 0.79668 -0.32463
 C346 C -0.15588 0.78238 -0.37562
 C347 C -0.18222 0.80209 -0.38638
 C348 C -0.19445 0.83501 -0.34393
 C349 C -0.13719 0.84933 -0.23483
 C350 C -0.12189 0.86487 -0.19696
 C351 C -0.10235 0.88337 -0.15615
 C352 C -0.08456 0.89980 -0.12439
 H353 H -0.18934 0.87632 -0.26143
 H354 H -0.12109 0.78213 -0.31802
 H355 H -0.14612 0.75649 -0.40727
 H356 H -0.21464 0.85098 -0.35138
 C357 C 0.35800 0.69650 0.33314
 C358 C 0.34638 0.66094 0.29344
 C359 C 0.32002 0.64182 0.30382
 C360 C 0.30558 0.65745 0.35456
 C361 C 0.31754 0.69195 0.39555
 C362 C 0.34371 0.71191 0.38379
 C363 C 0.36263 0.64173 0.24486
 C364 C 0.37777 0.62574 0.20676
 C365 C 0.39707 0.60702 0.16536
 C366 C 0.41472 0.59088 0.13285
 H367 H 0.37840 0.71144 0.32565
 H368 H 0.31093 0.61396 0.27355
 H369 H 0.28553 0.64124 0.36281
 H370 H 0.35325 0.73901 0.41427
 C371 C -0.13604 1.18877 0.33969
 C372 C -0.14992 1.17721 0.28729
 C373 C -0.17837 1.18121 0.28552
 C374 C -0.19295 1.19507 0.33674
 C375 C -0.17928 1.20424 0.39110
 C376 C -0.15043 1.20222 0.39088
 C377 C -0.13459 1.15812 0.23724
 C378 C -0.12015 1.14082 0.19860
 C379 C -0.10151 1.11948 0.15736
 C380 C -0.08428 1.10066 0.12566
 H381 H -0.11396 1.18637 0.34135
 H382 H -0.18936 1.17204 0.24515
 H383 H -0.21500 1.19500 0.33417
 H384 H -0.13863 1.21168 0.42995
 C385 C 0.66415 0.28188 0.28971
 C386 C 0.65435 0.33267 0.27981
 C387 C 0.65953 0.37197 0.32139
 C388 C 0.67381 0.36053 0.37328
 C389 C 0.68316 0.30948 0.38451
 C390 C 0.67865 0.27036 0.34175
 C391 C 0.63722 0.34466 0.22975
 C392 C 0.62173 0.35762 0.19089
 C393 C 0.60234 0.37580 0.14941
 C394 C 0.58477 0.39352 0.11782
 H395 H 0.66009 0.25107 0.25796
 H396 H 0.65202 0.41136 0.31427
 H397 H 0.67736 0.39156 0.40504
 H398 H 0.68557 0.23070 0.34946
 C399 C 0.14006 0.79897 0.33301
 C400 C 0.15235 0.83239 0.29179
 C401 C 0.17891 0.85056 0.30180
 C402 C 0.19293 0.83595 0.35343
 C403 C 0.18037 0.80338 0.39574
 C404 C 0.15393 0.78454 0.38453
 C405 C 0.13666 0.85048 0.24182
 C406 C 0.12196 0.86587 0.20261
 C407 C 0.10311 0.88449 0.16020
 C408 C 0.08570 0.90116 0.12748
 H409 H 0.11949 0.78480 0.32589
 H410 H 0.18855 0.87679 0.27039
 H411 H 0.21319 0.85133 0.36110
 H412 H 0.14391 0.75884 0.41595
   
