data_POSCAR
  _audit_creation_date              2014-09-24
  _audit_creation_method            'ToBaCCo'
  _symmetry_space_group_name_H-M    'P1'
  _symmetry_Int_Tables_number       1
  _symmetry_cell_setting            triclinic
  loop_
  _symmetry_equiv_pos_as_xyz
 x,y,z
_cell_length_a 41.4977
_cell_length_b 42.6536
_cell_length_c 41.5501
_cell_angle_alpha 89.834200
_cell_angle_beta 89.579600
_cell_angle_gamma 90.138800
loop_
  _atom_site_label
  _atom_site_type_symbol
  _atom_site_fract_x
  _atom_site_fract_y
  _atom_site_fract_z
N1 N 0.61960 0.62509 0.62896
 N2 N 0.87857 0.37524 0.12887
 N3 N 0.37881 0.12486 -0.13005
 N4 N 0.12171 0.87511 0.37199
 N5 N 0.08952 0.17703 0.11271
 N6 N 0.07660 0.16420 0.13854
 C7 C 0.05117 0.18153 0.14803
 C8 C 0.04798 0.20664 0.12702
 C9 C 0.07283 0.20293 0.10491
 H10 H 0.03622 0.17634 0.16877
 H11 H 0.07823 0.21769 0.08439
 Cu12 Cu 0.09424 0.12597 0.15699
 Cu13 Cu 0.12680 0.15915 0.09083
 Cu14 Cu 0.15851 0.09094 0.12312
 N15 N 0.11235 0.08773 0.17495
 N16 N 0.13733 0.07408 0.16142
 C17 C 0.14478 0.04812 0.17823
 C18 C 0.12335 0.04525 0.20380
 C19 C 0.10311 0.07090 0.20093
 H20 H 0.16457 0.03267 0.17238
 H21 H 0.08292 0.07667 0.21636
 N22 N 0.17655 0.11161 0.08448
 N23 N 0.16443 0.13753 0.07217
 C24 C 0.18192 0.14581 0.04606
 C25 C 0.20631 0.12409 0.04166
 C26 C 0.20209 0.10275 0.06654
 H27 H 0.17744 0.16636 0.03153
 H28 H 0.21643 0.08214 0.07115
 H29 H 0.11843 0.11334 0.10498
 H30 H 0.14578 0.13713 0.13079
 N31 N 0.40710 0.82174 0.61419
 N32 N 0.42161 0.83612 0.63796
 C33 C 0.44701 0.81887 0.64735
 C34 C 0.44864 0.79220 0.62837
 C35 C 0.42277 0.79491 0.60761
 H36 H 0.46322 0.82538 0.66644
 H37 H 0.41617 0.77896 0.58860
 Cu38 Cu 0.40634 0.87635 0.65385
 Cu39 Cu 0.36995 0.83955 0.59245
 Cu40 Cu 0.34278 0.91167 0.61954
 N41 N 0.38938 0.91579 0.67013
 N42 N 0.36479 0.92962 0.65640
 C43 C 0.35764 0.95599 0.67263
 C44 C 0.37887 0.95893 0.69806
 C45 C 0.39870 0.93290 0.69562
 H46 H 0.33792 0.97141 0.66673
 H47 H 0.41834 0.92673 0.71132
 N48 N 0.32353 0.88959 0.58277
 N49 N 0.33292 0.86148 0.57342
 C50 C 0.31419 0.85204 0.54893
 C51 C 0.29223 0.87547 0.54233
 C52 C 0.29890 0.89895 0.56416
 H53 H 0.31667 0.83003 0.53633
 H54 H 0.28627 0.92096 0.56662
 H55 H 0.38111 0.88581 0.60187
 H56 H 0.35348 0.86571 0.63107
 N57 N 0.91181 0.67532 0.38825
 N58 N 0.92578 0.66131 0.36376
 C59 C 0.95173 0.67819 0.35447
 C60 C 0.95416 0.70423 0.37420
 C61 C 0.92833 0.70155 0.39536
 H62 H 0.96744 0.67216 0.33460
 H63 H 0.92210 0.71732 0.41473
 Cu64 Cu 0.90855 0.62254 0.34613
 Cu65 Cu 0.87337 0.65857 0.40924
 Cu66 Cu 0.84102 0.59051 0.37755
 N67 N 0.88927 0.58494 0.32800
 N68 N 0.86297 0.57253 0.34044
 C69 C 0.85482 0.54697 0.32342
 C70 C 0.87717 0.54305 0.29882
 C71 C 0.89869 0.56768 0.30253
 H72 H 0.83390 0.53257 0.32839
 H73 H 0.91973 0.57261 0.28789
 N74 N 0.82226 0.61214 0.41505
 N75 N 0.83461 0.63803 0.42716
 C76 C 0.81661 0.64693 0.45263
 C77 C 0.79165 0.62565 0.45680
 C78 C 0.79606 0.60392 0.43246
 H79 H 0.82125 0.66752 0.46696
 H80 H 0.78151 0.58339 0.42796
 H81 H 0.88090 0.61219 0.39713
 H82 H 0.85608 0.63604 0.36886
 N83 N 0.59062 0.32294 -0.11173
 N84 N 0.57803 0.33584 -0.13746
 C85 C 0.55247 0.31868 -0.14676
 C86 C 0.54883 0.29358 -0.12575
 C87 C 0.57357 0.29713 -0.10382
 H88 H 0.53776 0.32396 -0.16742
 H89 H 0.57870 0.28227 -0.08340
 Cu90 Cu 0.59623 0.37382 -0.15632
 Cu91 Cu 0.62806 0.34056 -0.09031
 Cu92 Cu 0.66022 0.40896 -0.12251
 N93 N 0.61408 0.41266 -0.17357
 N94 N 0.63906 0.42626 -0.16025
 C95 C 0.64642 0.45253 -0.17677
 C96 C 0.62489 0.45567 -0.20193
 C97 C 0.60469 0.42985 -0.19905
 H98 H 0.66619 0.46800 -0.17098
 H99 H 0.58450 0.42409 -0.21421
 N100 N 0.67821 0.38789 -0.08442
 N101 N 0.66589 0.36192 -0.07209
 C102 C 0.68334 0.35343 -0.04631
 C103 C 0.70791 0.37506 -0.04215
 C104 C 0.70384 0.39656 -0.06683
 H105 H 0.67869 0.33282 -0.03182
 H106 H 0.71831 0.41719 -0.07148
 H107 H 0.61981 0.38639 -0.10436
 H108 H 0.64748 0.36274 -0.13028
 C109 C -0.04917 0.30417 0.12869
 C110 C -0.05860 0.31861 0.09980
 C111 C -0.08220 0.34191 0.09989
 C112 C -0.09690 0.35127 0.12884
 C113 C -0.08749 0.33691 0.15773
 C114 C -0.06389 0.31359 0.15767
 C115 C -0.02415 0.27933 0.12855
 C116 C -0.02755 0.25258 0.14811
 C117 C -0.00414 0.22907 0.14771
 C118 C 0.02325 0.23175 0.12774
 C119 C 0.02668 0.25862 0.10831
 C120 C 0.00327 0.28211 0.10871
 H121 H -0.08897 0.35276 0.07735
 H122 H -0.09861 0.34365 0.18032
 H123 H -0.00785 0.20865 0.16279
 H124 H 0.04756 0.26178 0.09291
 H125 H -0.05690 0.30317 0.18035
 H126 H -0.04863 0.24955 0.16332
 H127 H -0.04800 0.31162 0.07704
 H128 H 0.00685 0.30267 0.09375
 C129 C 0.54613 0.69496 0.62966
 C130 C 0.55555 0.68052 0.60071
 C131 C 0.57957 0.65763 0.60050
 C132 C 0.59465 0.64865 0.62922
 C133 C 0.58519 0.66294 0.65818
 C134 C 0.56121 0.68588 0.65840
 C135 C 0.52088 0.71956 0.62980
 C136 C 0.52437 0.74657 0.64874
 C137 C 0.50088 0.76999 0.64845
 C138 C 0.47328 0.76699 0.62923
 C139 C 0.46971 0.73978 0.61051
 C140 C 0.49323 0.71639 0.61078
 H141 H 0.58636 0.64680 0.57793
 H142 H 0.59659 0.65647 0.68058
 H143 H 0.50474 0.79060 0.66303
 H144 H 0.44872 0.73635 0.59566
 H145 H 0.55424 0.69633 0.68113
 H146 H 0.54561 0.74988 0.66334
 H147 H 0.54465 0.68726 0.57813
 H148 H 0.48962 0.69563 0.59629
 C149 C 1.05090 0.80249 0.37043
 C150 C 1.08377 0.79513 0.37328
 C151 C 1.10701 0.81889 0.37355
 C152 C 1.09785 0.85046 0.37100
 C153 C 1.06511 0.85783 0.36760
 C154 C 1.04185 0.83411 0.36740
 C155 C 1.02607 0.77737 0.37111
 C156 C 0.99729 0.78142 0.38861
 C157 C 0.97400 0.75773 0.38958
 C158 C 0.97888 0.72942 0.37300
 C159 C 1.00764 0.72543 0.35539
 C160 C 1.03100 0.74911 0.35452
 H161 H 1.13219 0.81274 0.37590
 H162 H 1.05758 0.88203 0.36553
 H163 H 0.95212 0.76179 0.40322
 H164 H 1.01236 0.70393 0.34247
 H165 H 1.01677 0.84048 0.36472
 H166 H 0.99296 0.80279 0.40194
 H167 H 1.09145 0.77102 0.37591
 H168 H 1.05281 0.74543 0.34059
 C169 C 0.45141 0.19591 -0.12849
 C170 C 0.43727 0.18682 -0.15768
 C171 C 0.41358 0.16350 -0.15819
 C172 C 0.40351 0.14878 -0.12955
 C173 C 0.41768 0.15775 -0.10039
 C174 C 0.44137 0.18107 -0.09986
 C175 C 0.47643 0.22085 -0.12789
 C176 C 0.50348 0.21798 -0.10797
 C177 C 0.52695 0.24152 -0.10730
 C178 C 0.52393 0.26853 -0.12653
 C179 C 0.49686 0.27134 -0.14648
 C180 C 0.47341 0.24779 -0.14715
 H181 H 0.40288 0.15705 -0.18093
 H182 H 0.41040 0.14661 -0.07804
 H183 H 0.54757 0.23828 -0.09189
 H184 H 0.49345 0.29188 -0.16138
 H185 H 0.45153 0.18779 -0.07695
 H186 H 0.50675 0.19728 -0.09321
 H187 H 0.44475 0.19754 -0.18018
 H188 H 0.45260 0.25092 -0.16240
 C189 C 0.12005 -0.05256 0.30094
 C190 C 0.12266 -0.04505 0.33375
 C191 C 0.12298 -0.06873 0.35708
 C192 C 0.12069 -0.10034 0.34805
 C193 C 0.11754 -0.10786 0.31536
 C194 C 0.11731 -0.08422 0.29202
 C195 C 0.12067 -0.02753 0.27604
 C196 C 0.13843 -0.03153 0.24745
 C197 C 0.13930 -0.00794 0.22406
 C198 C 0.12233 0.02020 0.22866
 C199 C 0.10446 0.02415 0.25725
 C200 C 0.10371 0.00058 0.28071
 H201 H 0.12514 -0.06247 0.38220
 H202 H 0.11569 -0.13210 0.30794
 H203 H 0.15314 -0.01196 0.20231
 H204 H 0.09125 0.04555 0.26174
 H205 H 0.11483 -0.09070 0.26699
 H206 H 0.15205 -0.05279 0.24332
 H207 H 0.12506 -0.02089 0.34133
 H208 H 0.08957 0.00422 0.30238
 C209 C 0.62134 0.55402 -0.29854
 C210 C 0.64996 0.56902 -0.30847
 C211 C 0.64935 0.59235 -0.33212
 C212 C 0.62014 0.60120 -0.34633
 C213 C 0.59152 0.58637 -0.33634
 C214 C 0.59210 0.56300 -0.31271
 C215 C 0.62205 0.52897 -0.27366
 C216 C 0.60308 0.50186 -0.27694
 C217 C 0.60395 0.47815 -0.25369
 C218 C 0.62381 0.48097 -0.22655
 C219 C 0.64270 0.50818 -0.22326
 C220 C 0.64184 0.53187 -0.24654
 H221 H 0.67169 0.60359 -0.33934
 H222 H 0.56874 0.59273 -0.34707
 H223 H 0.58928 0.45749 -0.25731
 H224 H 0.65803 0.51144 -0.20261
 H225 H 0.56962 0.55214 -0.30531
 H226 H 0.58793 0.49873 -0.29780
 H227 H 0.67290 0.56238 -0.29828
 H228 H 0.65638 0.55269 -0.24310
 C229 C 0.37955 1.05516 0.79643
 C230 C 0.40832 1.06422 0.81149
 C231 C 0.40808 1.08707 0.83552
 C232 C 0.37907 1.10131 0.84504
 C233 C 0.35031 1.09231 0.83001
 C234 C 0.35053 1.06949 0.80595
 C235 C 0.37974 1.03075 0.77102
 C236 C 0.36060 1.03406 0.74348
 C237 C 0.36048 1.01090 0.71975
 C238 C 0.37946 0.98382 0.72300
 C239 C 0.39876 0.98064 0.75051
 C240 C 0.39889 1.00382 0.77421
 H241 H 0.43052 1.09355 0.84688
 H242 H 0.32769 1.10308 0.83685
 H243 H 0.34558 1.01445 0.69882
 H244 H 0.41351 0.96009 0.75411
 H245 H 0.32793 1.06276 0.79508
 H246 H 0.34595 1.05477 0.74009
 H247 H 0.43109 1.05387 0.80444
 H248 H 0.41357 1.00039 0.79537
 C249 C 0.87844 0.44614 0.20119
 C250 C 0.84947 0.43191 0.19159
 C251 C 0.84954 0.40868 0.16795
 C252 C 0.87855 0.39919 0.15340
 C253 C 0.90751 0.41335 0.16297
 C254 C 0.90747 0.43658 0.18662
 C255 C 0.87833 0.47086 0.22630
 C256 C 0.89819 0.49745 0.22318
 C257 C 0.89789 0.52081 0.24671
 C258 C 0.87772 0.51814 0.27393
 C259 C 0.85796 0.49146 0.27707
 C260 C 0.85827 0.46812 0.25355
 H261 H 0.82694 0.39799 0.16106
 H262 H 0.93014 0.40650 0.15197
 H263 H 0.91321 0.54110 0.24324
 H264 H 0.84240 0.48833 0.29783
 H265 H 0.93021 0.44683 0.19375
 H266 H 0.91358 0.50046 0.20224
 H267 H 0.82668 0.43901 0.20207
 H268 H 0.84308 0.44768 0.25692
 C269 C 0.30517 0.12408 -0.05775
 C270 C 0.31969 0.09597 -0.06779
 C271 C 0.34374 0.09623 -0.09151
 C272 C 0.35380 0.12457 -0.10567
 C273 C 0.33928 0.15266 -0.09572
 C274 C 0.31523 0.15243 -0.07201
 C275 C 0.27972 0.12387 -0.03242
 C276 C 0.25263 0.14338 -0.03505
 C277 C 0.22881 0.14339 -0.01110
 C278 C 0.23150 0.12389 0.01609
 C279 C 0.25857 0.10429 0.01864
 C280 C 0.28239 0.10429 -0.00533
 H281 H 0.35471 0.07430 -0.09870
 H282 H 0.34653 0.17477 -0.10642
 H283 H 0.20818 0.15852 -0.01417
 H284 H 0.26171 0.08918 0.03932
 H285 H 0.30479 0.17450 -0.06454
 H286 H 0.24961 0.15837 -0.05588
 H287 H 0.31221 0.07372 -0.05755
 H288 H 0.30320 0.08932 -0.00236
 C289 C 0.69198 0.62580 0.55541
 C290 C 0.67773 0.59746 0.56551
 C291 C 0.65399 0.59725 0.58952
 C292 C 0.64399 0.62535 0.60397
 C293 C 0.65814 0.65369 0.59386
 C294 C 0.68189 0.65393 0.56984
 C295 C 0.71737 0.62598 0.53002
 C296 C 0.74449 0.64556 0.53268
 C297 C 0.76851 0.64553 0.50892
 C298 C 0.76601 0.62589 0.48192
 C299 C 0.73879 0.60638 0.47924
 C300 C 0.71478 0.60643 0.50299
 H301 H 0.64330 0.57514 0.59681
 H302 H 0.65092 0.67563 0.60477
 H303 H 0.78921 0.66063 0.51206
 H304 H 0.73575 0.59122 0.45866
 H305 H 0.69213 0.67617 0.56234
 H306 H 0.74742 0.66056 0.55344
 H307 H 0.68524 0.57537 0.55514
 H308 H 0.69393 0.59143 0.49999
 C309 C 0.80613 0.37525 0.05643
 C310 C 0.82077 0.40344 0.06605
 C311 C 0.84447 0.40343 0.08976
 C312 C 0.85405 0.37525 0.10437
 C313 C 0.83945 0.34707 0.09480
 C314 C 0.81575 0.34706 0.07109
 C315 C 0.78095 0.37524 0.03120
 C316 C 0.75365 0.35587 0.03419
 C317 C 0.72998 0.35581 0.01043
 C318 C 0.73303 0.37514 -0.01689
 C319 C 0.76035 0.39454 -0.01984
 C320 C 0.78402 0.39457 0.00391
 H321 H 0.85551 0.42541 0.09664
 H322 H 0.84633 0.32509 0.10584
 H323 H 0.70915 0.34084 0.01379
 H324 H 0.76378 0.40947 -0.04067
 H325 H 0.80523 0.32492 0.06394
 H326 H 0.75032 0.34106 0.05518
 H327 H 0.81363 0.42557 0.05551
 H328 H 0.80501 0.40940 0.00065
 C329 C 0.19420 0.87533 0.44452
 C330 C 0.20046 0.88869 0.41424
 C331 C 0.17689 0.88831 0.39040
 C332 C 0.14629 0.87520 0.39660
 C333 C 0.14007 0.86216 0.42720
 C334 C 0.16390 0.86191 0.45078
 C335 C 0.21926 0.87537 0.46957
 C336 C 0.22861 0.84722 0.48433
 C337 C 0.25262 0.84720 0.50774
 C338 C 0.26712 0.87544 0.51731
 C339 C 0.25746 0.90363 0.50279
 C340 C 0.23399 0.90355 0.47883
 H341 H 0.18267 0.89814 0.36701
 H342 H 0.11667 0.85229 0.43297
 H343 H 0.25949 0.82518 0.51872
 H344 H 0.26842 0.92568 0.50958
 H345 H 0.15855 0.85169 0.47411
 H346 H 0.21758 0.82523 0.47741
 H347 H 0.22380 0.89895 0.40889
 H348 H 0.22701 0.92552 0.46778
   
