data_POSCAR
  _audit_creation_date              2014-09-24
  _audit_creation_method            'ToBaCCo'
  _symmetry_space_group_name_H-M    'P1'
  _symmetry_Int_Tables_number       1
  _symmetry_cell_setting            triclinic
  loop_
  _symmetry_equiv_pos_as_xyz
 x,y,z
_cell_length_a 43.7569
_cell_length_b 36.6386
_cell_length_c 39.7051
_cell_angle_alpha 90.553800
_cell_angle_beta 90.434200
_cell_angle_gamma 89.663400
loop_
  _atom_site_label
  _atom_site_type_symbol
  _atom_site_fract_x
  _atom_site_fract_y
  _atom_site_fract_z
C1 C 0.29324 0.30403 0.23299
 H2 H 0.29220 0.31075 0.25955
 C3 C 0.31151 0.32460 0.21172
 H4 H 0.32394 0.34758 0.22213
 C5 C 0.27755 0.26638 0.18732
 H6 H 0.26477 0.24321 0.17801
 C7 C 0.29585 0.28585 0.16523
 H8 H 0.29685 0.27730 0.13909
 N9 N 0.27608 0.27619 0.22039
 C10 C 0.20778 0.26726 0.29933
 H11 H 0.20930 0.23823 0.30385
 C12 C 0.18869 0.28909 0.31914
 H13 H 0.17601 0.27660 0.33925
 C14 C 0.22329 0.31861 0.26811
 H15 H 0.23635 0.32991 0.24778
 C16 C 0.20426 0.34145 0.28714
 H17 H 0.20300 0.37019 0.28121
 Zn18 Zn 0.25101 0.25022 0.25047
 N19 N 0.22515 0.28235 0.27495
 C20 C 0.27910 0.23414 0.31335
 N21 N 0.27723 0.22454 0.28023
 C22 C 0.29460 0.19691 0.26740
 C23 C 0.31346 0.17627 0.28851
 C24 C 0.29798 0.21457 0.33527
 C25 C 0.20712 0.23222 0.20194
 C26 C 0.18795 0.20993 0.18260
 C27 C 0.20489 0.15825 0.21528
 C28 C 0.22399 0.18152 0.23380
 N29 N 0.22519 0.21766 0.22641
 H30 H 0.26612 0.25714 0.32284
 H31 H 0.29318 0.19034 0.24082
 H32 H 0.32602 0.15341 0.27794
 H33 H 0.29921 0.22287 0.36149
 H34 H 0.20811 0.26117 0.19701
 H35 H 0.17470 0.22199 0.16240
 H36 H 0.20415 0.12962 0.22169
 H37 H 0.23760 0.17066 0.25421
 C38 C 0.18688 0.32682 0.31336
 C39 C 0.31282 0.31582 0.17720
 C40 C 0.18678 0.17230 0.18898
 C41 C 0.31511 0.18474 0.32309
 C42 C 0.80539 0.77875 0.22173
 H43 H 0.81571 0.76393 0.24229
 C44 C 0.82400 0.79904 0.20054
 H45 H 0.84842 0.79796 0.20483
 C46 C 0.76132 0.79707 0.19146
 H47 H 0.73686 0.79764 0.18860
 C48 C 0.77902 0.81730 0.16941
 H49 H 0.76720 0.83309 0.15043
 N50 N 0.77459 0.77792 0.21687
 C51 C 0.70526 0.76750 0.29460
 H52 H 0.70441 0.73810 0.29675
 C53 C 0.68682 0.78945 0.31503
 H54 H 0.67222 0.77653 0.33322
 C55 C 0.72667 0.81964 0.26926
 H56 H 0.74245 0.83127 0.25159
 C57 C 0.70822 0.84264 0.28879
 H58 H 0.70967 0.87184 0.28534
 Zn59 Zn 0.74999 0.75077 0.24724
 N60 N 0.72496 0.78281 0.27262
 C61 C 0.77696 0.73329 0.31035
 N62 N 0.77618 0.72445 0.27701
 C63 C 0.79427 0.69735 0.26436
 C64 C 0.81276 0.67658 0.28575
 C65 C 0.79550 0.71364 0.33256
 C66 C 0.70205 0.73252 0.20244
 C67 C 0.68303 0.70997 0.18318
 C68 C 0.70647 0.65766 0.20946
 C69 C 0.72542 0.68125 0.22782
 N70 N 0.72361 0.71800 0.22331
 H71 H 0.76334 0.75574 0.31985
 H72 H 0.79384 0.69139 0.23762
 H73 H 0.82588 0.65417 0.27520
 H74 H 0.79590 0.72148 0.35891
 H75 H 0.69929 0.76169 0.20085
 H76 H 0.66708 0.72243 0.16573
 H77 H 0.70832 0.62858 0.21367
 H78 H 0.74129 0.66995 0.24586
 C79 C 0.68812 0.82766 0.31238
 C80 C 0.81105 0.81877 0.17356
 C81 C 0.68527 0.67187 0.18620
 C82 C 0.81335 0.68436 0.32050
 C83 C 0.79524 0.30551 0.73363
 H84 H 0.79413 0.31213 0.76021
 C85 C 0.81346 0.32626 0.71243
 H86 H 0.82581 0.34925 0.72294
 C87 C 0.77969 0.26800 0.68780
 H88 H 0.76697 0.24484 0.67837
 C89 C 0.79794 0.28764 0.66581
 H90 H 0.79897 0.27921 0.63964
 N91 N 0.77815 0.27766 0.72090
 C92 C 0.70796 0.26805 0.79789
 H93 H 0.70912 0.23893 0.80205
 C94 C 0.68844 0.28977 0.81728
 H95 H 0.67510 0.27708 0.83675
 C96 C 0.72478 0.31972 0.76798
 H97 H 0.73853 0.33121 0.74831
 C98 C 0.70530 0.34244 0.78655
 H99 H 0.70441 0.37128 0.78092
 Zn100 Zn 0.75281 0.25145 0.75056
 N101 N 0.72625 0.28335 0.77444
 C102 C 0.77828 0.23308 0.81433
 N103 N 0.77866 0.22578 0.78077
 C104 C 0.79798 0.20033 0.76776
 C105 C 0.81687 0.17969 0.78885
 C106 C 0.79669 0.21316 0.83643
 C107 C 0.70921 0.23339 0.70186
 C108 C 0.69033 0.21108 0.68221
 C109 C 0.70857 0.15902 0.71355
 C110 C 0.72739 0.18234 0.73238
 N111 N 0.72770 0.21872 0.72589
 H112 H 0.76394 0.25471 0.82413
 H113 H 0.79812 0.19536 0.74085
 H114 H 0.83012 0.15830 0.77694
 H115 H 0.79616 0.22141 0.86261
 H116 H 0.70960 0.26250 0.69757
 H117 H 0.67670 0.22331 0.66242
 H118 H 0.70846 0.13020 0.71931
 H119 H 0.74150 0.17134 0.75232
 C120 C 0.68708 0.32762 0.81197
 C121 C 0.81477 0.31766 0.67788
 C122 C 0.68989 0.17326 0.68781
 C123 C 0.81633 0.18511 0.82429
 C124 C 0.30720 0.77547 0.71974
 H125 H 0.31745 0.75706 0.73767
 C126 C 0.32606 0.79504 0.69825
 H127 H 0.35058 0.79099 0.69957
 C128 C 0.26319 0.80359 0.69633
 H129 H 0.23886 0.80823 0.69648
 C130 C 0.28116 0.82352 0.67430
 H131 H 0.27027 0.84269 0.65737
 N132 N 0.27626 0.77971 0.71829
 C133 C 0.20605 0.76857 0.79517
 H134 H 0.20464 0.73913 0.79612
 C135 C 0.18753 0.79004 0.81596
 H136 H 0.17231 0.77665 0.83321
 C137 C 0.22900 0.82128 0.77263
 H138 H 0.24557 0.83338 0.75618
 C139 C 0.21046 0.84383 0.79247
 H140 H 0.21253 0.87311 0.79020
 Zn141 Zn 0.25112 0.75253 0.74813
 N142 N 0.22642 0.78437 0.77424
 C143 C 0.27822 0.73398 0.81076
 N144 N 0.27659 0.72482 0.77752
 C145 C 0.29312 0.69634 0.76485
 C146 C 0.31118 0.67487 0.78610
 C147 C 0.29631 0.71356 0.83282
 C148 C 0.20602 0.73516 0.69917
 C149 C 0.18700 0.71278 0.67974
 C150 C 0.20461 0.66108 0.71180
 C151 C 0.22352 0.68446 0.73044
 N152 N 0.22454 0.72074 0.72334
 H153 H 0.26564 0.75730 0.82025
 H154 H 0.29183 0.68991 0.73823
 H155 H 0.32320 0.65156 0.77559
 H156 H 0.29747 0.72167 0.85908
 H157 H 0.20582 0.76408 0.69479
 H158 H 0.17338 0.72491 0.65987
 H159 H 0.20414 0.63238 0.71799
 H160 H 0.23704 0.67349 0.75083
 C161 C 0.18947 0.82831 0.81480
 C162 C 0.31303 0.81928 0.67501
 C163 C 0.18630 0.67509 0.68569
 C164 C 0.31280 0.68319 0.82070
 C165 C -0.03369 -0.02386 0.02235
 C166 C -0.01728 -0.00124 0.00083
 C167 C -0.03289 0.02212 -0.02119
 C168 C -0.06496 0.02352 -0.02143
 C169 C -0.08119 0.00072 0.00027
 C170 C -0.06581 -0.02334 0.02208
 C171 C 0.01632 -0.00168 0.00171
 C172 C 0.03269 -0.01998 -0.02353
 C173 C 0.06482 -0.02118 -0.02252
 C174 C 0.08022 -0.00268 0.00376
 C175 C 0.06402 0.01657 0.02880
 C176 C 0.03193 0.01634 0.02782
 H177 H -0.02133 -0.04231 0.03877
 H178 H -0.01999 0.03982 -0.03747
 H179 H 0.02025 -0.03321 -0.04389
 H180 H 0.01896 0.03027 0.04726
 H181 H -0.10594 0.00172 0.00013
 H182 H 0.10493 -0.00309 0.00470
 C183 C -0.03375 0.47648 0.52112
 C184 C -0.01786 0.49963 0.49965
 C185 C -0.03396 0.52293 0.47803
 C186 C -0.06608 0.52332 0.47761
 C187 C -0.08177 0.49981 0.49924
 C188 C -0.06586 0.47628 0.52113
 C189 C 0.01573 0.49955 0.49985
 C190 C 0.03175 0.48068 0.47470
 C191 C 0.06387 0.48017 0.47479
 C192 C 0.07967 0.49972 0.50009
 C193 C 0.06381 0.51917 0.52528
 C194 C 0.03170 0.51848 0.52514
 H195 H -0.02096 0.45821 0.53733
 H196 H -0.02131 0.54119 0.46206
 H197 H 0.01909 0.46647 0.45508
 H198 H 0.01899 0.53265 0.54464
 H199 H -0.10650 0.49983 0.49909
 H200 H 0.10440 0.49981 0.50015
 C201 C 0.46892 -0.02359 0.52216
 C202 C 0.48490 -0.00024 0.50094
 C203 C 0.46889 0.02301 0.47917
 C204 C 0.43677 0.02316 0.47842
 C205 C 0.42101 -0.00077 0.49956
 C206 C 0.43684 -0.02422 0.52152
 C207 C 0.51850 -0.00036 0.50131
 C208 C 0.53455 -0.01875 0.47589
 C209 C 0.56667 -0.01982 0.47629
 C210 C 0.58243 -0.00103 0.50213
 C211 C 0.56655 0.01822 0.52744
 C212 C 0.53443 0.01783 0.52707
 H213 H 0.48157 -0.04177 0.53860
 H214 H 0.48155 0.04143 0.46337
 H215 H 0.52185 -0.03220 0.45585
 H216 H 0.52170 0.03171 0.54672
 H217 H 0.39627 -0.00113 0.49900
 H218 H 0.60715 -0.00130 0.50252
 C219 C 0.46505 0.47420 0.02081
 C220 C 0.48094 0.49723 -0.00077
 C221 C 0.46484 0.52040 -0.02251
 C222 C 0.43273 0.52090 -0.02283
 C223 C 0.41703 0.49753 -0.00110
 C224 C 0.43293 0.47401 0.02080
 C225 C 0.51455 0.49721 -0.00060
 C226 C 0.53055 0.47932 -0.02636
 C227 C 0.56266 0.47908 -0.02647
 C228 C 0.57846 0.49815 -0.00086
 C229 C 0.56265 0.51663 0.02500
 C230 C 0.53053 0.51540 0.02514
 H231 H 0.47782 0.45598 0.03707
 H232 H 0.47747 0.53855 -0.03861
 H233 H 0.51787 0.46562 -0.04627
 H234 H 0.51779 0.52867 0.04513
 H235 H 0.39229 0.49768 -0.00121
 H236 H 0.60317 0.49859 -0.00111
 C237 C 0.13478 -0.10534 -0.11878
 C238 C 0.16395 -0.09340 -0.12791
 C239 C 0.18167 -0.11508 -0.14965
 C240 C 0.17023 -0.14827 -0.16280
 C241 C 0.14054 -0.15932 -0.15385
 C242 C 0.12292 -0.13823 -0.13153
 C243 C 0.11647 -0.08324 -0.09504
 C244 C 0.08771 -0.09577 -0.08506
 C245 C 0.07084 -0.07527 -0.06159
 C246 C 0.08230 -0.04208 -0.04847
 C247 C 0.11093 -0.02956 -0.05955
 C248 C 0.12826 -0.05026 -0.08242
 C249 C 0.09379 -0.14955 -0.12143
 C250 C 0.07656 -0.12880 -0.09843
 C251 C 0.17497 -0.06018 -0.11481
 C252 C 0.15734 -0.03886 -0.09262
 H253 H 0.08437 -0.17489 -0.13109
 H254 H 0.05436 -0.13873 -0.09101
 H255 H 0.19742 -0.05059 -0.12173
 H256 H 0.16672 -0.01346 -0.08306
 H257 H 0.20459 -0.10639 -0.15567
 H258 H 0.13107 -0.18430 -0.16420
 H259 H 0.04914 -0.08565 -0.05301
 H260 H 0.11982 -0.00375 -0.05037
 C261 C 0.13236 0.39437 0.37865
 C262 C 0.16015 0.40771 0.36650
 C263 C 0.17765 0.38576 0.34476
 C264 C 0.16749 0.35072 0.33502
 C265 C 0.13920 0.33816 0.34700
 C266 C 0.12168 0.35974 0.36901
 C267 C 0.11435 0.41685 0.40239
 C268 C 0.08693 0.40314 0.41515
 C269 C 0.07035 0.42414 0.43847
 C270 C 0.08092 0.45876 0.44895
 C271 C 0.10824 0.47232 0.43534
 C272 C 0.12515 0.45136 0.41226
 C273 C 0.09389 0.34718 0.38192
 C274 C 0.07685 0.36846 0.40468
 C275 C 0.17009 0.44252 0.37675
 C276 C 0.15284 0.46402 0.39916
 H277 H 0.08539 0.32050 0.37465
 H278 H 0.05569 0.35760 0.41430
 H279 H 0.19147 0.45316 0.36751
 H280 H 0.16142 0.49062 0.40656
 H281 H 0.19953 0.39559 0.33617
 H282 H 0.13084 0.31156 0.33928
 H283 H 0.04964 0.41314 0.44908
 H284 H 0.11636 0.49913 0.44271
 C285 C 0.63465 -0.10496 0.37905
 C286 C 0.66346 -0.09291 0.36874
 C287 C 0.68072 -0.11483 0.34675
 C288 C 0.66920 -0.14843 0.33464
 C289 C 0.63986 -0.15957 0.34473
 C290 C 0.62269 -0.13818 0.36722
 C291 C 0.61687 -0.08263 0.40311
 C292 C 0.58849 -0.09524 0.41421
 C293 C 0.57213 -0.07450 0.43792
 C294 C 0.58371 -0.04102 0.45021
 C295 C 0.61198 -0.02847 0.43812
 C296 C 0.62880 -0.04937 0.41491
 C297 C 0.59394 -0.14959 0.37845
 C298 C 0.57720 -0.12858 0.40170
 C299 C 0.67460 -0.05939 0.38100
 C300 C 0.65750 -0.03789 0.40355
 H301 H 0.58445 -0.17519 0.36951
 H302 H 0.55528 -0.13856 0.41000
 H303 H 0.69678 -0.04972 0.37318
 H304 H 0.66697 -0.01227 0.41246
 H305 H 0.70339 -0.10608 0.33977
 H306 H 0.63036 -0.18490 0.33518
 H307 H 0.55073 -0.08489 0.44732
 H308 H 0.62096 -0.00249 0.44674
 C309 C 0.63168 0.39477 -0.12326
 C310 C 0.65968 0.40813 -0.13477
 C311 C 0.67746 0.38633 -0.15637
 C312 C 0.66734 0.35144 -0.16664
 C313 C 0.63880 0.33890 -0.15537
 C314 C 0.62103 0.36030 -0.13345
 C315 C 0.61344 0.41700 -0.09954
 C316 C 0.58585 0.40319 -0.08729
 C317 C 0.56914 0.42386 -0.06383
 C318 C 0.57970 0.45826 -0.05274
 C319 C 0.60713 0.47199 -0.06595
 C320 C 0.62422 0.45133 -0.08910
 C321 C 0.59304 0.34768 -0.12111
 C322 C 0.57580 0.36871 -0.09832
 C323 C 0.66958 0.44277 -0.12400
 C324 C 0.65210 0.46406 -0.10165
 H325 H 0.58455 0.32113 -0.12881
 H326 H 0.55451 0.35778 -0.08911
 H327 H 0.69112 0.45344 -0.13277
 H328 H 0.66066 0.49053 -0.09381
 H329 H 0.69953 0.39615 -0.16438
 H330 H 0.63044 0.31245 -0.16350
 H331 H 0.54836 0.41269 -0.05355
 H332 H 0.61526 0.49866 -0.05814
 C333 C -0.13192 0.11915 -0.11011
 C334 C -0.12335 0.12173 -0.14390
 C335 C -0.14043 0.14402 -0.16568
 C336 C -0.16638 0.16406 -0.15421
 C337 C -0.17407 0.16092 -0.11959
 C338 C -0.15711 0.13866 -0.09774
 C339 C -0.11432 0.09525 -0.08726
 C340 C -0.12328 0.09223 -0.05354
 C341 C -0.10684 0.06904 -0.03207
 C342 C -0.08162 0.04886 -0.04412
 C343 C -0.07272 0.05254 -0.07795
 C344 C -0.08908 0.07563 -0.09967
 C345 C -0.16526 0.13511 -0.06374
 C346 C -0.14863 0.11230 -0.04202
 C347 C -0.09777 0.10190 -0.15535
 C348 C -0.08094 0.07925 -0.13362
 H349 H -0.18474 0.14999 -0.05384
 H350 H -0.15577 0.11024 -0.01604
 H351 H -0.09078 0.10373 -0.18140
 H352 H -0.06150 0.06430 -0.14353
 H353 H -0.13222 0.14658 -0.19114
 H354 H -0.19432 0.17378 -0.10942
 H355 H -0.11357 0.06680 -0.00596
 H356 H -0.05352 0.03685 -0.08750
 C357 C -0.13405 0.61752 0.38818
 C358 C -0.16191 0.63262 0.39891
 C359 C -0.17892 0.65441 0.37671
 C360 C -0.16809 0.66169 0.34408
 C361 C -0.13979 0.64665 0.33399
 C362 C -0.12284 0.62429 0.35583
 C363 C -0.11640 0.59392 0.41120
 C364 C -0.08886 0.57816 0.40025
 C365 C -0.07249 0.55513 0.42201
 C366 C -0.08327 0.54820 0.45473
 C367 C -0.11075 0.56483 0.46538
 C368 C -0.12754 0.58737 0.44363
 C369 C -0.09499 0.60836 0.34589
 C370 C -0.07836 0.58555 0.36767
 C371 C -0.17233 0.62542 0.43155
 C372 C -0.15535 0.60332 0.45360
 H373 H -0.08608 0.61335 0.32098
 H374 H -0.05711 0.57362 0.35892
 H375 H -0.19378 0.63697 0.44015
 H376 H -0.16420 0.59846 0.47856
 H377 H -0.20087 0.66509 0.38470
 H378 H -0.13084 0.65243 0.30926
 H379 H -0.05166 0.54217 0.41323
 H380 H -0.11904 0.56044 0.49065
 C381 C 0.36839 0.11795 0.39005
 C382 C 0.34073 0.13323 0.40119
 C383 C 0.32354 0.15510 0.37925
 C384 C 0.33394 0.16215 0.34641
 C385 C 0.36201 0.14690 0.33586
 C386 C 0.37920 0.12457 0.35749
 C387 C 0.38623 0.09427 0.41281
 C388 C 0.41361 0.07839 0.40149
 C389 C 0.43015 0.05528 0.42303
 C390 C 0.41960 0.04826 0.45581
 C391 C 0.39229 0.06499 0.46683
 C392 C 0.37540 0.08772 0.44537
 C393 C 0.40688 0.10852 0.34717
 C394 C 0.42374 0.08572 0.36875
 C395 C 0.33068 0.12610 0.43398
 C396 C 0.34778 0.10384 0.45575
 H397 H 0.41549 0.11341 0.32210
 H398 H 0.44485 0.07369 0.35970
 H399 H 0.30938 0.13778 0.44289
 H400 H 0.33920 0.09899 0.48083
 H401 H 0.30177 0.16600 0.38756
 H402 H 0.37057 0.15250 0.31091
 H403 H 0.45088 0.04227 0.41405
 H404 H 0.38421 0.06047 0.49218
 C405 C 0.36494 0.61542 -0.11206
 C406 C 0.33751 0.63135 -0.10098
 C407 C 0.32062 0.65343 -0.12305
 C408 C 0.33113 0.66007 -0.15592
 C409 C 0.35895 0.64411 -0.16641
 C410 C 0.37581 0.62157 -0.14468
 C411 C 0.38252 0.59165 -0.08912
 C412 C 0.40969 0.57521 -0.10037
 C413 C 0.42604 0.55214 -0.07863
 C414 C 0.41556 0.54577 -0.04570
 C415 C 0.38843 0.56299 -0.03478
 C416 C 0.37170 0.58568 -0.05646
 C417 C 0.40325 0.60489 -0.15493
 C418 C 0.41984 0.58200 -0.13320
 C419 C 0.32741 0.62471 -0.06811
 C420 C 0.34429 0.60238 -0.04617
 H421 H 0.41190 0.60940 -0.18004
 H422 H 0.44080 0.56952 -0.14218
 H423 H 0.30629 0.63688 -0.05925
 H424 H 0.33570 0.59796 -0.02103
 H425 H 0.29904 0.66489 -0.11476
 H426 H 0.36761 0.64940 -0.19138
 H427 H 0.44661 0.53872 -0.08756
 H428 H 0.38039 0.55896 -0.00935
 C429 C -0.13540 -0.11658 0.10873
 C430 C -0.16275 -0.13177 0.09670
 C431 C -0.18024 -0.15331 0.11815
 C432 C -0.17065 -0.16015 0.15169
 C433 C -0.14259 -0.14497 0.16290
 C434 C -0.12513 -0.12302 0.14168
 C435 C -0.11728 -0.09322 0.08644
 C436 C -0.09021 -0.07737 0.09868
 C437 C -0.07338 -0.05462 0.07756
 C438 C -0.08336 -0.04790 0.04432
 C439 C -0.11039 -0.06454 0.03240
 C440 C -0.12752 -0.08698 0.05340
 C441 C -0.09778 -0.10689 0.15297
 C442 C -0.08066 -0.08438 0.13187
 C443 C -0.17216 -0.12509 0.06339
 C444 C -0.15480 -0.10315 0.04208
 H445 H -0.08961 -0.11153 0.17841
 H446 H -0.05981 -0.07234 0.14164
 H447 H -0.19318 -0.13681 0.05373
 H448 H -0.16293 -0.09858 0.01662
 H449 H -0.20081 -0.16567 0.10804
 H450 H -0.13485 -0.14846 0.18862
 H451 H -0.05285 -0.04168 0.08719
 H452 H -0.11802 -0.06020 0.00671
 C453 C -0.13318 0.38361 0.61047
 C454 C -0.16077 0.36815 0.59932
 C455 C -0.17762 0.34668 0.62145
 C456 C -0.16691 0.34015 0.65447
 C457 C -0.13894 0.35562 0.66505
 C458 C -0.12212 0.37759 0.64324
 C459 C -0.11567 0.40679 0.58747
 C460 C -0.08837 0.42283 0.59880
 C461 C -0.07211 0.44542 0.57702
 C462 C -0.08282 0.45172 0.54396
 C463 C -0.11006 0.43485 0.53294
 C464 C -0.12670 0.41266 0.55467
 C465 C -0.09453 0.39381 0.65357
 C466 C -0.07800 0.41616 0.63177
 C467 C -0.17107 0.37465 0.56630
 C468 C -0.15425 0.39641 0.54430
 H469 H -0.08573 0.38939 0.67879
 H470 H -0.05694 0.42833 0.64082
 H471 H -0.19231 0.36282 0.55737
 H472 H -0.16300 0.40075 0.51905
 H473 H -0.19932 0.33562 0.61309
 H474 H -0.13014 0.35042 0.69013
 H475 H -0.05146 0.45858 0.58602
 H476 H -0.11828 0.43882 0.50742
 C477 C 0.36780 -0.11714 0.60877
 C478 C 0.34136 -0.13423 0.59625
 C479 C 0.32376 -0.15534 0.61795
 C480 C 0.33244 -0.15946 0.65195
 C481 C 0.35927 -0.14252 0.66398
 C482 C 0.37698 -0.12117 0.64250
 C483 C 0.38599 -0.09418 0.58623
 C484 C 0.41214 -0.07655 0.59887
 C485 C 0.42895 -0.05407 0.57751
 C486 C 0.41974 -0.04917 0.54374
 C487 C 0.39369 -0.06757 0.53142
 C488 C 0.37665 -0.08994 0.55259
 C489 C 0.40344 -0.10337 0.65416
 C490 C 0.42070 -0.08140 0.63272
 C491 C 0.33292 -0.12961 0.56234
 C492 C 0.35029 -0.10788 0.54086
 H493 H 0.41076 -0.10625 0.68013
 H494 H 0.44083 -0.06797 0.64279
 H495 H 0.31261 -0.14274 0.55237
 H496 H 0.34289 -0.10486 0.51493
 H497 H 0.30335 -0.16865 0.60842
 H498 H 0.36593 -0.14523 0.69019
 H499 H 0.44875 -0.03974 0.58735
 H500 H 0.38669 -0.06449 0.50535
 C501 C 0.36530 0.38132 0.10984
 C502 C 0.37627 0.37526 0.14264
 C503 C 0.35932 0.35338 0.16440
 C504 C 0.33131 0.33805 0.15376
 C505 C 0.32072 0.34457 0.12070
 C506 C 0.33770 0.36595 0.09861
 C507 C 0.38292 0.40446 0.08690
 C508 C 0.37198 0.41040 0.05408
 C509 C 0.38869 0.43259 0.03244
 C510 C 0.41592 0.44941 0.04355
 C511 C 0.42656 0.44302 0.07662
 C512 C 0.41023 0.42043 0.09833
 C513 C 0.32750 0.37250 0.06556
 C514 C 0.34442 0.39422 0.04362
 C515 C 0.40387 0.39138 0.15305
 C516 C 0.42050 0.41370 0.13132
 H517 H 0.30625 0.36075 0.05657
 H518 H 0.33573 0.39860 0.01835
 H519 H 0.41260 0.38693 0.17830
 H520 H 0.44156 0.42581 0.14044
 H521 H 0.36805 0.34817 0.18952
 H522 H 0.29900 0.33360 0.11228
 H523 H 0.38053 0.43661 0.00690
 H524 H 0.44721 0.45613 0.08569
 C525 C 0.13197 0.10329 0.12507
 C526 C 0.12105 0.13809 0.13414
 C527 C 0.13866 0.16013 0.15575
 C528 C 0.16728 0.14788 0.16785
 C529 C 0.17767 0.11266 0.15872
 C530 C 0.16008 0.09024 0.13742
 C531 C 0.11392 0.08037 0.10164
 C532 C 0.12500 0.04574 0.09225
 C533 C 0.10815 0.02447 0.06926
 C534 C 0.08065 0.03788 0.05517
 C535 C 0.06974 0.07257 0.06527
 C536 C 0.08624 0.09386 0.08854
 C537 C 0.17026 0.05526 0.12773
 C538 C 0.15297 0.03334 0.10562
 C539 C 0.09296 0.15037 0.12100
 C540 C 0.07589 0.12868 0.09849
 H541 H 0.19188 0.04483 0.13715
 H542 H 0.16176 0.00665 0.09861
 H543 H 0.08426 0.17716 0.12783
 H544 H 0.05453 0.13937 0.08862
 H545 H 0.13010 0.18686 0.16302
 H546 H 0.19981 0.10305 0.16740
 H547 H 0.11655 -0.00238 0.06218
 H548 H 0.04891 0.08348 0.05429
 C549 C 0.13194 0.60619 0.62121
 C550 C 0.12070 0.64068 0.63078
 C551 C 0.13815 0.66265 0.65261
 C552 C 0.16695 0.65065 0.66442
 C553 C 0.17767 0.61571 0.65481
 C554 C 0.16022 0.59336 0.63328
 C555 C 0.11402 0.58335 0.59760
 C556 C 0.12538 0.54899 0.58778
 C557 C 0.10854 0.52771 0.56478
 C558 C 0.08076 0.54083 0.55115
 C559 C 0.06965 0.57531 0.56157
 C560 C 0.08612 0.59660 0.58485
 C561 C 0.17072 0.55867 0.62311
 C562 C 0.15354 0.53681 0.60084
 C563 C 0.09243 0.65275 0.61793
 C564 C 0.07548 0.63114 0.59526
 H565 H 0.19248 0.54842 0.63229
 H566 H 0.16255 0.51033 0.59349
 H567 H 0.08349 0.67931 0.62515
 H568 H 0.05395 0.64164 0.58566
 H569 H 0.12934 0.68913 0.66027
 H570 H 0.19992 0.60630 0.66329
 H571 H 0.11711 0.50100 0.55746
 H572 H 0.04858 0.58601 0.55094
 C573 C 0.63514 0.10460 0.62348
 C574 C 0.62396 0.13906 0.63326
 C575 C 0.64156 0.16095 0.65500
 C576 C 0.67047 0.14893 0.66650
 C577 C 0.68113 0.11405 0.65663
 C578 C 0.66352 0.09175 0.63523
 C579 C 0.61703 0.08183 0.59998
 C580 C 0.62831 0.04750 0.58997
 C581 C 0.61133 0.02632 0.56702
 C582 C 0.58350 0.03955 0.55357
 C583 C 0.57245 0.07398 0.56423
 C584 C 0.58906 0.09514 0.58750
 C585 C 0.67393 0.05709 0.62488
 C586 C 0.65657 0.03528 0.60273
 C587 C 0.59559 0.15117 0.62070
 C588 C 0.57849 0.12964 0.59811
 H589 H 0.69577 0.04681 0.63382
 H590 H 0.66552 0.00882 0.59523
 H591 H 0.58670 0.17770 0.62809
 H592 H 0.55690 0.14018 0.58871
 H593 H 0.63277 0.18737 0.66285
 H594 H 0.70347 0.10462 0.66484
 H595 H 0.61985 -0.00035 0.55954
 H596 H 0.55137 0.08478 0.55374
 C597 C 0.63096 0.60279 0.12161
 C598 C 0.61871 0.63601 0.13331
 C599 C 0.63612 0.65788 0.15526
 C600 C 0.66598 0.64728 0.16489
 C601 C 0.67773 0.61362 0.15302
 C602 C 0.66025 0.59120 0.13158
 C603 C 0.61299 0.58004 0.09795
 C604 C 0.62525 0.54685 0.08621
 C605 C 0.60833 0.52566 0.06322
 C606 C 0.57963 0.53789 0.05122
 C607 C 0.56768 0.57125 0.06355
 C608 C 0.58415 0.59227 0.08706
 C609 C 0.67168 0.55767 0.11946
 C610 C 0.65441 0.53578 0.09732
 C611 C 0.58948 0.64697 0.12238
 C612 C 0.57256 0.62557 0.09950
 H613 H 0.69423 0.54835 0.12704
 H614 H 0.66413 0.51021 0.08845
 H615 H 0.57976 0.67255 0.13123
 H616 H 0.55028 0.63526 0.09137
 H617 H 0.62641 0.68322 0.16468
 H618 H 0.70076 0.60524 0.15966
 H619 H 0.61760 0.49976 0.05461
 H620 H 0.54594 0.58142 0.05423
   
