data_POSCAR
  _audit_creation_date              2014-09-24
  _audit_creation_method            'ToBaCCo'
  _symmetry_space_group_name_H-M    'P1'
  _symmetry_Int_Tables_number       1
  _symmetry_cell_setting            triclinic
  loop_
  _symmetry_equiv_pos_as_xyz
 x,y,z
_cell_length_a 29.0761
_cell_length_b 30.0920
_cell_length_c 29.3644
_cell_angle_alpha 90.554400
_cell_angle_beta 89.445800
_cell_angle_gamma 91.525700
loop_
  _atom_site_label
  _atom_site_type_symbol
  _atom_site_fract_x
  _atom_site_fract_y
  _atom_site_fract_z
C1 C 0.30152 0.93686 -0.02226
 C2 C 0.29632 0.90550 0.01243
 C3 C 0.27679 0.91684 0.05468
 C4 C 0.26582 0.96214 0.06348
 C5 C 0.26798 0.99318 0.02724
 C6 C 0.28507 0.98016 -0.01592
 C7 C 0.28559 1.01090 -0.05181
 C8 C 0.26816 1.05325 -0.04569
 C9 C 0.25121 1.06703 -0.00302
 C10 C 0.25277 1.03733 0.03407
 C11 C 0.25422 0.97802 0.10726
 C12 C 0.23955 1.02125 0.11398
 C13 C 0.23684 1.05086 0.07743
 C14 C 0.21732 1.09303 0.08324
 C15 C 0.21408 1.12151 0.04594
 C16 C 0.23052 1.10883 0.00269
 H17 H 0.29837 1.00198 -0.08534
 H18 H 0.26813 1.07529 -0.07464
 H19 H 0.25732 0.95809 0.13732
 H20 H 0.22999 1.03124 0.14824
 H21 H 0.30728 0.87177 0.00645
 H22 H 0.19562 1.15219 0.04981
 C23 C 0.75539 0.39427 0.51364
 C24 C 0.74588 0.37199 0.47323
 C25 C 0.73853 0.39398 0.43286
 C26 C 0.73840 0.44106 0.43273
 C27 C 0.75072 0.46481 0.47323
 C28 C 0.76040 0.44133 0.51378
 C29 C 0.77622 0.46548 0.55193
 C30 C 0.77945 0.51172 0.55163
 C31 C 0.76660 0.53594 0.51330
 C32 C 0.75335 0.51208 0.47313
 C33 C 0.72480 0.46504 0.39462
 C34 C 0.72666 0.51125 0.39475
 C35 C 0.74281 0.53544 0.43276
 C36 C 0.74728 0.58244 0.43276
 C37 C 0.75839 0.60493 0.47251
 C38 C 0.76764 0.58320 0.51253
 H39 H 0.78803 0.44928 0.58205
 H40 H 0.79343 0.52754 0.58167
 H41 H 0.71090 0.44883 0.36469
 H42 H 0.71389 0.52738 0.36496
 H43 H 0.74394 0.33592 0.47322
 H44 H 0.76052 0.64100 0.47212
 C45 C 0.73580 1.01388 1.06833
 C46 C 0.72613 0.97043 1.08356
 C47 C 0.73426 0.93342 1.05576
 C48 C 0.75414 0.93924 1.01232
 C49 C 0.76350 0.98249 0.99562
 C50 C 0.75453 1.02030 1.02350
 C51 C 0.76572 1.06266 1.00572
 C52 C 0.78027 1.06787 0.96053
 C53 C 0.78646 1.03088 0.93182
 C54 C 0.78104 0.98771 0.95048
 C55 C 0.76342 0.90219 0.98456
 C56 C 0.78136 0.90723 0.94102
 C57 C 0.79113 0.94960 0.92330
 C58 C 0.80861 0.95545 0.87846
 C59 C 0.81205 0.99779 0.86058
 C60 C 0.79903 1.03502 0.88519
 H61 H 0.76376 1.09257 1.02596
 H62 H 0.78827 1.10121 0.94903
 H63 H 0.75666 0.86860 0.99624
 H64 H 0.78598 0.87715 0.92157
 H65 H 0.71082 0.96558 1.11702
 H66 H 0.82185 1.00151 0.82504
 C67 C 0.25234 0.56140 0.62726
 C68 C 0.25702 0.52237 0.65107
 C69 C 0.25524 0.48104 0.63022
 C70 C 0.25025 0.47787 0.58217
 C71 C 0.24377 0.51734 0.55676
 C72 C 0.24414 0.55951 0.57948
 C73 C 0.23487 0.59744 0.55401
 C74 C 0.22807 0.59483 0.50709
 C75 C 0.23030 0.55415 0.48323
 C76 C 0.23697 0.51458 0.50864
 C77 C 0.25332 0.43726 0.55860
 C78 C 0.24692 0.43450 0.51172
 C79 C 0.23706 0.47224 0.48607
 C80 C 0.22869 0.46996 0.43836
 C81 C 0.22346 0.50905 0.41452
 C82 C 0.22495 0.55078 0.43505
 H83 H 0.23134 0.62963 0.56986
 H84 H 0.21974 0.62529 0.49057
 H85 H 0.26213 0.40709 0.57564
 H86 H 0.25123 0.40229 0.49630
 H87 H 0.26207 0.52424 0.68763
 H88 H 0.21846 0.50691 0.37797
 C89 C 1.05039 0.24124 0.08328
 C90 C 1.08601 0.26057 0.05651
 C91 C 1.08359 0.25933 0.00855
 C92 C 1.04481 0.23932 -0.01227
 C93 C 1.00771 0.22286 0.01479
 C94 C 1.01172 0.22141 0.06235
 C95 C 0.97553 0.20215 0.08824
 C96 C 0.93367 0.19099 0.06813
 C97 C 0.92621 0.20044 0.02203
 C98 C 0.96494 0.21178 -0.00543
 C99 C 1.04090 0.23804 -0.05976
 C100 C 0.99949 0.22574 -0.07971
 C101 C 0.96033 0.21537 -0.05266
 C102 C 0.91668 0.21072 -0.07207
 C103 C 0.87719 0.20401 -0.04460
 C104 C 0.88132 0.20023 0.00291
 H105 H 0.97873 0.19711 0.12453
 H106 H 0.90705 0.17606 0.08941
 H107 H 1.06929 0.24803 -0.08178
 H108 H 0.99800 0.22675 -0.11649
 H109 H 1.11439 0.27822 0.07294
 H110 H 0.84337 0.20397 -0.05978
 C111 C 0.61091 0.75529 0.44693
 C112 C 0.63770 0.75382 0.48585
 C113 C 0.61877 0.74703 0.52897
 C114 C 0.57033 0.74020 0.53294
 C115 C 0.54199 0.74542 0.49367
 C116 C 0.56237 0.75441 0.45074
 C117 C 0.53379 0.76304 0.41352
 C118 C 0.48593 0.75975 0.41728
 C119 C 0.46446 0.74776 0.45851
 C120 C 0.49324 0.74105 0.49724
 C121 C 0.54946 0.72607 0.57354
 C122 C 0.50200 0.72050 0.57669
 C123 C 0.47337 0.73066 0.54001
 C124 C 0.42520 0.73034 0.54470
 C125 C 0.39756 0.73460 0.50687
 C126 C 0.41545 0.74340 0.46383
 H127 H 0.54785 0.77413 0.38129
 H128 H 0.46656 0.76762 0.38749
 H129 H 0.56930 0.71767 0.60293
 H130 H 0.48826 0.70705 0.60812
 H131 H 0.67485 0.75593 0.48215
 H132 H 0.36049 0.73376 0.51167
 C133 C 0.01314 0.76420 0.09503
 C134 C -0.03183 0.74588 0.09754
 C135 C -0.05863 0.74098 0.05805
 C136 C -0.04107 0.75358 0.01552
 C137 C 0.00318 0.77308 0.01240
 C138 C 0.02964 0.78057 0.05232
 C139 C 0.07168 0.80438 0.04807
 C140 C 0.09036 0.81371 0.00538
 C141 C 0.06675 0.80118 -0.03455
 C142 C 0.02166 0.78348 -0.03107
 C143 C -0.06718 0.74651 -0.02428
 C144 C -0.04865 0.75577 -0.06679
 C145 C -0.00364 0.77294 -0.07099
 C146 C 0.01743 0.77727 -0.11408
 C147 C 0.06375 0.79208 -0.11693
 C148 C 0.08836 0.80376 -0.07741
 H149 H 0.09083 0.81595 0.07741
 H150 H 0.12391 0.83018 0.00383
 H151 H -0.10177 0.73234 -0.02314
 H152 H -0.06945 0.74831 -0.09638
 H153 H -0.04539 0.73422 0.12992
 H154 H 0.08145 0.79187 -0.14961
 C155 C 0.52225 0.23662 0.60146
 C156 C 0.48212 0.24029 0.62720
 C157 C 0.44011 0.25030 0.60807
 C158 C 0.43865 0.25782 0.56023
 C159 C 0.47898 0.25060 0.53270
 C160 C 0.52059 0.23866 0.55333
 C161 C 0.55859 0.22829 0.52530
 C162 C 0.55725 0.23278 0.47804
 C163 C 0.51768 0.24749 0.45657
 C164 C 0.47787 0.25586 0.48450
 C165 C 0.39970 0.27420 0.53921
 C166 C 0.39902 0.28051 0.49237
 C167 C 0.43651 0.26898 0.46426
 C168 C 0.43424 0.27083 0.41634
 C169 C 0.47332 0.26480 0.38988
 C170 C 0.51501 0.25306 0.40822
 H171 H 0.58951 0.21496 0.53919
 H172 H 0.58747 0.22375 0.45894
 H173 H 0.36976 0.28376 0.55849
 H174 H 0.36892 0.29572 0.47885
 H175 H 0.48412 0.23727 0.66391
 H176 H 0.47046 0.26692 0.35314
 C177 C 0.89074 -0.05469 0.18931
 C178 C 0.86238 -0.01812 0.18900
 C179 C 0.87538 0.02202 0.20917
 C180 C 0.91856 0.02600 0.23072
 C181 C 0.95005 -0.00935 0.22701
 C182 C 0.93651 -0.04978 0.20529
 C183 C 0.96915 -0.08307 0.19971
 C184 C 1.01375 -0.07742 0.21681
 C185 C 1.02685 -0.03909 0.24202
 C186 C 0.99441 -0.00473 0.24666
 C187 C 0.93031 0.06324 0.25758
 C188 C 0.97321 0.06757 0.27701
 C189 C 1.00600 0.03445 0.27121
 C190 C 1.04979 0.04006 0.29019
 C191 C 1.08238 0.00708 0.28472
 C192 C 1.07146 -0.03295 0.26179
 H193 H 0.96125 -0.11301 0.18036
 H194 H 1.03765 -0.10336 0.20927
 H195 H 0.90647 0.08913 0.26531
 H196 H 0.98030 0.09739 0.29692
 H197 H 0.82766 -0.02214 0.17609
 H198 H 1.11616 0.01194 0.29956
 C199 C 0.42738 0.46759 0.77019
 C200 C 0.40745 0.50879 0.77690
 C201 C 0.43249 0.54891 0.77574
 C202 C 0.48141 0.54813 0.77048
 C203 C 0.50269 0.50661 0.76225
 C204 C 0.47533 0.46629 0.76066
 C205 C 0.49651 0.42682 0.74780
 C206 C 0.54360 0.42572 0.73996
 C207 C 0.57211 0.46377 0.74590
 C208 C 0.55145 0.50529 0.75529
 C209 C 0.50992 0.58662 0.77424
 C210 C 0.55757 0.58529 0.76758
 C211 C 0.57941 0.54528 0.75740
 C212 C 0.62810 0.54271 0.74967
 C213 C 0.64677 0.50135 0.74206
 C214 C 0.62058 0.46228 0.74112
 H215 H 0.47718 0.39633 0.74192
 H216 H 0.55654 0.39457 0.72775
 H217 H 0.49643 0.61839 0.78381
 H218 H 0.57667 0.61620 0.77145
 H219 H 0.37053 0.50973 0.78234
 H220 H 0.68373 0.49938 0.73719
 C221 C 0.96561 1.08785 0.72372
 C222 C 0.99085 1.12104 0.74720
 C223 C 1.03446 1.11240 0.76494
 C224 C 1.05273 1.06962 0.75954
 C225 C 1.02680 1.03561 0.73685
 C226 C 0.98380 1.04516 0.71796
 C227 C 0.95954 1.01145 0.69401
 C228 C 0.97574 0.96840 0.69150
 C229 C 1.01612 0.95684 0.71406
 C230 C 1.04323 0.99158 0.73426
 C231 C 1.09582 1.05966 0.77722
 C232 C 1.11277 1.01703 0.77304
 C233 C 1.08671 0.98245 0.75206
 C234 C 1.10381 0.93927 0.74805
 C235 C 1.07572 0.90419 0.73135
 C236 C 1.03083 0.91195 0.71639
 H237 H 0.92765 1.01811 0.67693
 H238 H 0.95659 0.94482 0.67064
 H239 H 1.11679 1.08481 0.79439
 H240 H 1.14623 1.01122 0.78732
 H241 H 0.97581 1.15321 0.75313
 H242 H 1.08827 0.87060 0.73116
 C243 C 0.43540 0.58421 0.24900
 C244 C 0.47890 0.60355 0.25249
 C245 C 0.51834 0.57887 0.25336
 C246 C 0.51494 0.53190 0.25325
 C247 C 0.47082 0.51094 0.24862
 C248 C 0.43062 0.53710 0.24578
 C249 C 0.38803 0.51524 0.23838
 C250 C 0.38422 0.46906 0.23728
 C251 C 0.42284 0.44273 0.24315
 C252 C 0.46697 0.46376 0.24662
 C253 C 0.55347 0.50538 0.25906
 C254 C 0.54971 0.45924 0.25656
 C255 C 0.50716 0.43762 0.24860
 C256 C 0.50253 0.39059 0.24457
 C257 C 0.45892 0.37103 0.24333
 C258 C 0.41940 0.39581 0.24425
 H259 H 0.35708 0.53298 0.23218
 H260 H 0.35071 0.45458 0.23004
 H261 H 0.58690 0.51951 0.26715
 H262 H 0.58051 0.44112 0.26265
 H263 H 0.48232 0.63957 0.25339
 H264 H 0.45556 0.33503 0.24277
 O265 O 0.18610 0.13104 0.23160
 O266 O 0.24917 0.12251 0.28534
 O267 O 0.08305 0.18588 0.31610
 O268 O 0.06985 0.24679 0.35478
 O269 O 0.12265 0.24501 0.18067
 O270 O 0.18429 0.29118 0.15755
 O271 O 0.21467 0.31521 0.40547
 O272 O 0.16104 0.25679 0.42471
 O273 O 0.32252 0.25650 0.33674
 O274 O 0.33314 0.20468 0.27733
 O275 O 0.26311 0.36510 0.28011
 O276 O 0.19544 0.37665 0.23683
 O277 O 0.21015 0.36598 0.34901
 O278 O 0.14771 0.37464 0.29560
 O279 O 0.31538 0.31094 0.27112
 O280 O 0.32172 0.24161 0.22223
 O281 O 0.27524 0.25615 0.39881
 O282 O 0.21414 0.20604 0.42283
 O283 O 0.18449 0.18155 0.17462
 O284 O 0.23519 0.24377 0.15444
 O285 O 0.07404 0.24654 0.24177
 O286 O 0.06575 0.29537 0.29942
 O287 O 0.13625 0.13258 0.30600
 O288 O 0.20627 0.12247 0.34325
 Zr289 Zr 0.19628 0.16920 0.29121
 O290 O 0.24384 0.20968 0.32679
 Zr291 Zr 0.11693 0.24653 0.29923
 O292 O 0.16134 0.29072 0.33508
 Zr293 Zr 0.18770 0.24323 0.20948
 O294 O 0.23474 0.28743 0.24117
 Zr295 Zr 0.20944 0.25389 0.37058
 O296 O 0.16188 0.20965 0.33891
 Zr297 Zr 0.27943 0.25071 0.28048
 O298 O 0.23606 0.20593 0.24416
 Zr299 Zr 0.20102 0.32850 0.28863
 O300 O 0.15278 0.28792 0.25263
 O301 O 0.14853 0.20349 0.25380
 O302 O 0.24831 0.29408 0.32642
 C303 C 0.18327 0.14150 0.18946
 C304 C 0.09613 0.14539 0.31730
 C305 C 0.08256 0.24735 0.19873
 C306 C 0.21460 0.35534 0.39110
 C307 C 0.31501 0.25750 0.37983
 C308 C 0.30404 0.35183 0.27267
 H309 H 0.26508 0.19071 0.34343
 H310 H 0.25135 0.30463 0.21738
 H311 H 0.12557 0.18362 0.23862
 H312 H 0.14360 0.30995 0.35589
 H313 H 0.13699 0.23365 0.41845
 H314 H 0.08238 0.26747 0.37821
 H315 H 0.31560 0.26592 0.20084
 H316 H 0.25848 0.22140 0.16121
 H317 H 0.23641 0.18355 0.41296
 H318 H 0.19052 0.13408 0.37075
 H319 H 0.21395 0.36697 0.21031
 H320 H 0.16694 0.31627 0.17051
 H321 H 0.26758 0.13054 0.25794
 H322 H 0.32255 0.17799 0.29419
 H323 H 0.07687 0.32065 0.31846
 H324 H 0.12274 0.36452 0.27493
 O325 O 0.72864 0.84103 0.14537
 O326 O 0.69031 0.85604 0.21509
 O327 O 0.85886 0.79058 0.19707
 O328 O 0.87976 0.73562 0.23992
 O329 O 0.78604 0.71888 0.08752
 O330 O 0.71893 0.67339 0.08320
 O331 O 0.74863 0.67133 0.32934
 O332 O 0.80809 0.73116 0.33215
 O333 O 0.62906 0.72915 0.29019
 O334 O 0.60551 0.77381 0.22764
 O335 O 0.67562 0.61172 0.22503
 O336 O 0.73468 0.59884 0.16436
 O337 O 0.74464 0.61525 0.27705
 O338 O 0.78801 0.60021 0.20741
 O339 O 0.62263 0.66532 0.23346
 O340 O 0.60155 0.72686 0.17898
 O341 O 0.69143 0.73478 0.33602
 O342 O 0.75474 0.78068 0.34291
 O343 O 0.71773 0.78430 0.09468
 O344 O 0.67134 0.71944 0.08788
 O345 O 0.84786 0.72561 0.13416
 O346 O 0.86660 0.67766 0.19661
 O347 O 0.80354 0.84244 0.19658
 O348 O 0.74809 0.85858 0.25613
 Zr349 Zr 0.74104 0.80755 0.20645
 O350 O 0.70382 0.77125 0.25589
 Zr351 Zr 0.82002 0.73061 0.19937
 O352 O 0.78636 0.69038 0.24819
 Zr353 Zr 0.72895 0.72563 0.13104
 O354 O 0.69133 0.68540 0.17688
 Zr355 Zr 0.74802 0.73062 0.29202
 O356 O 0.78644 0.77169 0.24676
 Zr357 Zr 0.65773 0.72617 0.22433
 O358 O 0.69082 0.76649 0.17486
 Zr359 Zr 0.73715 0.64879 0.21564
 O360 O 0.77455 0.68549 0.16625
 O361 O 0.77730 0.76921 0.15998
 O362 O 0.70020 0.68668 0.26263
 C363 C 0.71788 0.82569 0.10586
 C364 C 0.84578 0.83090 0.19575
 C365 C 0.82935 0.71897 0.09526
 C366 C 0.74763 0.62990 0.31792
 C367 C 0.64790 0.73347 0.32928
 C368 C 0.63450 0.62453 0.23189
 H369 H 0.68782 0.79240 0.27611
 H370 H 0.66957 0.66601 0.15969
 H371 H 0.79393 0.78732 0.13678
 H372 H 0.80906 0.67337 0.26522
 H373 H 0.82909 0.75461 0.31973
 H374 H 0.87317 0.71936 0.26845
 H375 H 0.60120 0.69869 0.16131
 H376 H 0.64644 0.73617 0.10284
 H377 H 0.74064 0.80766 0.33096
 H378 H 0.77465 0.85112 0.27521
 H379 H 0.70559 0.60169 0.14757
 H380 H 0.73925 0.64923 0.09236
 H381 H 0.66239 0.84420 0.19967
 H382 H 0.61698 0.79888 0.24677
 H383 H 0.85383 0.65511 0.17509
 H384 H 0.81371 0.60816 0.22803
 O385 O 0.76061 0.12706 0.79289
 O386 O 0.69645 0.11684 0.73903
 O387 O 0.87159 0.17176 0.71140
 O388 O 0.88175 0.23282 0.65875
 O389 O 0.83832 0.23387 0.83609
 O390 O 0.78373 0.29163 0.85725
 O391 O 0.74963 0.30359 0.61488
 O392 O 0.79273 0.23414 0.59349
 O393 O 0.63421 0.24659 0.68417
 O394 O 0.62418 0.19937 0.75133
 O395 O 0.70651 0.35813 0.73715
 O396 O 0.78147 0.36620 0.78169
 O397 O 0.75998 0.35694 0.66930
 O398 O 0.81971 0.36779 0.72402
 O399 O 0.64685 0.30849 0.74537
 O400 O 0.63436 0.24645 0.79824
 O401 O 0.68139 0.24822 0.62206
 O402 O 0.73644 0.19498 0.59688
 O403 O 0.76684 0.18076 0.84773
 O404 O 0.72845 0.24606 0.86737
 O405 O 0.88505 0.23292 0.77343
 O406 O 0.89462 0.28138 0.70988
 O407 O 0.81069 0.12285 0.71453
 O408 O 0.73755 0.11110 0.68241
 Zr409 Zr 0.75341 0.16132 0.73096
 O410 O 0.70920 0.20193 0.69478
 Zr411 Zr 0.84036 0.23392 0.71834
 O412 O 0.79992 0.27851 0.68283
 Zr413 Zr 0.77197 0.23934 0.80978
 O414 O 0.72771 0.28315 0.77786
 Zr415 Zr 0.74725 0.24264 0.64945
 O416 O 0.79078 0.19722 0.68098
 Zr417 Zr 0.67831 0.24658 0.74031
 O418 O 0.71881 0.20257 0.77744
 Zr419 Zr 0.76531 0.31990 0.72909
 O420 O 0.81098 0.27936 0.76449
 O421 O 0.80481 0.19534 0.76591
 O422 O 0.71341 0.28642 0.69288
 C423 C 0.76466 0.14007 0.83469
 C424 C 0.85371 0.13231 0.70915
 C425 C 0.87786 0.23172 0.81644
 C426 C 0.75450 0.34438 0.62790
 C427 C 0.64156 0.24774 0.64098
 C428 C 0.66365 0.34820 0.74310
 H429 H 0.68630 0.18280 0.67878
 H430 H 0.71342 0.30242 0.80114
 H431 H 0.82514 0.17459 0.78147
 H432 H 0.81983 0.29564 0.66149
 H433 H 0.81643 0.25831 0.59479
 H434 H 0.86686 0.21123 0.63754
 H435 H 0.64572 0.26993 0.81943
 H436 H 0.69956 0.22944 0.86016
 H437 H 0.71366 0.17260 0.60814
 H438 H 0.75081 0.12159 0.65313
 H439 H 0.75643 0.36468 0.80471
 H440 H 0.80871 0.31087 0.84446
 H441 H 0.67902 0.12723 0.76606
 H442 H 0.62732 0.17549 0.72823
 H443 H 0.88920 0.30537 0.73246
 H444 H 0.84106 0.35755 0.69994
 O445 O 0.32945 0.89486 0.83073
 O446 O 0.37533 0.89492 0.76037
 O447 O 0.19394 0.85653 0.77434
 O448 O 0.16240 0.79775 0.73981
 O449 O 0.24763 0.79704 0.89691
 O450 O 0.30097 0.73683 0.90739
 O451 O 0.28011 0.71377 0.65953
 O452 O 0.23543 0.77604 0.65124
 O453 O 0.41054 0.75836 0.70128
 O454 O 0.43812 0.81128 0.76303
 O455 O 0.34472 0.65708 0.77499
 O456 O 0.28159 0.65366 0.83102
 O457 O 0.27699 0.66361 0.71691
 O458 O 0.22942 0.65867 0.78855
 O459 O 0.40741 0.70273 0.76501
 O460 O 0.43665 0.76382 0.81139
 O461 O 0.34968 0.76013 0.65343
 O462 O 0.30203 0.82130 0.64213
 O463 O 0.32170 0.84614 0.88914
 O464 O 0.36121 0.77814 0.90111
 O465 O 0.18870 0.80207 0.84703
 O466 O 0.16406 0.74625 0.79092
 O467 O 0.25832 0.90119 0.77146
 O468 O 0.31580 0.90808 0.72170
 Zr469 Zr 0.31336 0.85784 0.77160
 O470 O 0.34428 0.81217 0.72727
 Zr471 Zr 0.21976 0.79246 0.78309
 O472 O 0.24732 0.74325 0.74018
 Zr473 Zr 0.30585 0.78540 0.85589
 O474 O 0.33788 0.73637 0.81570
 Zr475 Zr 0.29331 0.77361 0.69425
 O476 O 0.26223 0.82344 0.73355
 Zr477 Zr 0.38058 0.76675 0.76617
 O478 O 0.35340 0.81555 0.81049
 Zr479 Zr 0.28821 0.70039 0.77783
 O480 O 0.25542 0.74634 0.82220
 O481 O 0.26820 0.83036 0.81928
 O482 O 0.33247 0.72850 0.72967
 C483 C 0.33085 0.88497 0.87308
 C484 C 0.21457 0.89472 0.77104
 C485 C 0.20523 0.80287 0.88738
 C486 C 0.27517 0.67415 0.67444
 C487 C 0.39240 0.75570 0.66171
 C488 C 0.38838 0.66412 0.76930
 H489 H 0.36427 0.82820 0.70511
 H490 H 0.35530 0.71673 0.83563
 H491 H 0.25425 0.85384 0.83833
 H492 H 0.22223 0.72707 0.72405
 H493 H 0.21808 0.80250 0.66067
 H494 H 0.16712 0.77763 0.71346
 H495 H 0.42684 0.74503 0.83734
 H496 H 0.38802 0.79404 0.88725
 H497 H 0.28296 0.84686 0.65075
 H498 H 0.32544 0.89398 0.69272
 H499 H 0.30602 0.66081 0.85332
 H500 H 0.27351 0.71789 0.90046
 H501 H 0.39782 0.88477 0.78287
 H502 H 0.43524 0.82952 0.73541
 H503 H 0.17241 0.72565 0.81541
 H504 H 0.20575 0.66738 0.76663
 O505 O 0.25270 0.38540 0.72935
 O506 O 0.21549 0.40588 0.80330
 O507 O 0.36915 0.31582 0.77790
 O508 O 0.37833 0.25282 0.82193
 O509 O 0.28590 0.26447 0.66710
 O510 O 0.21025 0.22183 0.66908
 O511 O 0.23676 0.21068 0.91261
 O512 O 0.31174 0.25077 0.91122
 O513 O 0.13966 0.29686 0.88098
 O514 O 0.12766 0.34949 0.81109
 O515 O 0.14949 0.17423 0.79851
 O516 O 0.21217 0.14998 0.74180
 O517 O 0.21027 0.16275 0.85806
 O518 O 0.25463 0.13540 0.79880
 O519 O 0.11267 0.23634 0.82130
 O520 O 0.09888 0.29687 0.77701
 O521 O 0.20236 0.28407 0.92413
 O522 O 0.27668 0.31644 0.92450
 O523 O 0.23119 0.33336 0.67656
 O524 O 0.17306 0.28072 0.67024
 O525 O 0.34770 0.25673 0.71290
 O526 O 0.35715 0.20155 0.76926
 O527 O 0.32456 0.37660 0.78283
 O528 O 0.27587 0.40095 0.83959
 Zr529 Zr 0.25790 0.35078 0.79160
 O530 O 0.21724 0.32060 0.84283
 Zr531 Zr 0.32065 0.26090 0.77957
 O532 O 0.27906 0.22473 0.82733
 Zr533 Zr 0.23003 0.27446 0.71363
 O534 O 0.18389 0.24364 0.76025
 Zr535 Zr 0.25267 0.26949 0.87534
 O536 O 0.29645 0.30540 0.82949
 Zr537 Zr 0.16134 0.28804 0.81161
 O538 O 0.20061 0.32063 0.75980
 Zr539 Zr 0.21991 0.19612 0.79620
 O540 O 0.26598 0.22516 0.74730
 O541 O 0.28546 0.30802 0.74348
 O542 O 0.19482 0.23896 0.84608
 C543 C 0.24114 0.37334 0.68863
 C544 C 0.36378 0.35843 0.77904
 C545 C 0.32924 0.25852 0.67332
 C546 C 0.21776 0.17349 0.89976
 C547 C 0.16033 0.29457 0.91972
 C548 C 0.11320 0.19473 0.81177
 H549 H 0.20752 0.34412 0.86430
 H550 H 0.15791 0.23048 0.74279
 H551 H 0.30512 0.32430 0.72120
 H552 H 0.29676 0.20154 0.84245
 H553 H 0.33762 0.27003 0.90027
 H554 H 0.37028 0.22962 0.84452
 H555 H 0.10263 0.28345 0.74639
 H556 H 0.15136 0.30020 0.68657
 H557 H 0.26231 0.34507 0.91804
 H558 H 0.29619 0.38706 0.86194
 H559 H 0.18447 0.15814 0.72479
 H560 H 0.23418 0.19912 0.67084
 H561 H 0.18995 0.40339 0.78130
 H562 H 0.13729 0.36639 0.83862
 H563 H 0.33914 0.18278 0.74762
 H564 H 0.28707 0.14225 0.79058
 O565 O 0.78836 0.62658 0.66606
 O566 O 0.84482 0.61171 0.71813
 O567 O 0.68579 0.69245 0.74666
 O568 O 0.68617 0.75297 0.79412
 O569 O 0.72473 0.74306 0.61697
 O570 O 0.78593 0.78568 0.58711
 O571 O 0.83963 0.80918 0.83434
 O572 O 0.79756 0.75102 0.86356
 O573 O 0.94061 0.73644 0.75149
 O574 O 0.93799 0.69432 0.68535
 O575 O 0.88027 0.85767 0.71396
 O576 O 0.82050 0.87368 0.66913
 O577 O 0.82495 0.86065 0.78057
 O578 O 0.76518 0.87235 0.72736
 O579 O 0.93200 0.80323 0.70331
 O580 O 0.92261 0.74154 0.63780
 O581 O 0.90263 0.75002 0.81785
 O582 O 0.83427 0.69541 0.84624
 O583 O 0.78458 0.67778 0.60986
 O584 O 0.83631 0.73991 0.58390
 O585 O 0.68052 0.75104 0.68058
 O586 O 0.68936 0.80587 0.74926
 O587 O 0.73519 0.63559 0.73866
 O588 O 0.80991 0.62376 0.77993
 Zr589 Zr 0.80067 0.66618 0.72390
 O590 O 0.85686 0.70290 0.75180
 Zr591 Zr 0.72843 0.74880 0.73538
 O592 O 0.78008 0.78695 0.76881
 Zr593 Zr 0.79203 0.74070 0.64149
 O594 O 0.84383 0.78309 0.66880
 Zr595 Zr 0.83091 0.74827 0.79940
 O596 O 0.77408 0.70968 0.77317
 Zr597 Zr 0.89033 0.74364 0.70276
 O598 O 0.83983 0.70042 0.67327
 Zr599 Zr 0.81656 0.82421 0.71982
 O600 O 0.76297 0.78806 0.68607
 O601 O 0.75413 0.70365 0.68865
 O602 O 0.86601 0.78733 0.75224
 C603 C 0.78385 0.63748 0.62437
 C604 C 0.69458 0.65096 0.74607
 C605 C 0.68568 0.74809 0.63688
 C606 C 0.83365 0.84924 0.82164
 C607 C 0.93986 0.74293 0.79443
 C608 C 0.92151 0.84435 0.70900
 H609 H 0.87820 0.68202 0.76574
 H610 H 0.85902 0.80102 0.64464
 H611 H 0.72971 0.68509 0.67409
 H612 H 0.76431 0.80592 0.79144
 H613 H 0.76629 0.76174 0.85788
 H614 H 0.70234 0.73719 0.81841
 H615 H 0.92848 0.77244 0.62762
 H616 H 0.85721 0.71482 0.58781
 H617 H 0.86426 0.68110 0.84185
 H618 H 0.78801 0.63296 0.80404
 H619 H 0.80284 0.86177 0.64298
 H620 H 0.76800 0.81091 0.59885
 H621 H 0.86808 0.61980 0.69461
 H622 H 0.92900 0.66762 0.70305
 H623 H 0.68381 0.82059 0.71992
 H624 H 0.74338 0.86788 0.70193
 O625 O 0.22516 0.64385 0.33386
 O626 O 0.16688 0.63131 0.27356
 O627 O 0.34227 0.68329 0.25454
 O628 O 0.35678 0.74429 0.19918
 O629 O 0.30679 0.75627 0.37342
 O630 O 0.24644 0.81317 0.38731
 O631 O 0.23250 0.80935 0.14198
 O632 O 0.27596 0.73654 0.13180
 O633 O 0.10823 0.75722 0.20637
 O634 O 0.09887 0.70702 0.27758
 O635 O 0.17396 0.87040 0.26023
 O636 O 0.24693 0.88127 0.30889
 O637 O 0.23310 0.86504 0.19475
 O638 O 0.28677 0.88270 0.25182
 O639 O 0.11586 0.81895 0.26718
 O640 O 0.09844 0.76249 0.31819
 O641 O 0.16108 0.75254 0.14917
 O642 O 0.21548 0.70250 0.12925
 O643 O 0.23613 0.70035 0.38493
 O644 O 0.19415 0.76464 0.39927
 O645 O 0.35643 0.74918 0.31365
 O646 O 0.36866 0.79271 0.24937
 O647 O 0.28289 0.63353 0.26463
 O648 O 0.21615 0.62105 0.22227
 Zr649 Zr 0.22553 0.67423 0.26910
 O650 O 0.18420 0.71181 0.22615
 Zr651 Zr 0.31286 0.74684 0.25697
 O652 O 0.27403 0.78940 0.21685
 Zr653 Zr 0.24002 0.75709 0.34364
 O654 O 0.19547 0.79698 0.30585
 Zr655 Zr 0.22496 0.75078 0.18134
 O656 O 0.26601 0.70737 0.21905
 Zr657 Zr 0.14909 0.75809 0.26631
 O658 O 0.18831 0.71835 0.31026
 Zr659 Zr 0.23471 0.83258 0.25757
 O660 O 0.28006 0.79512 0.29766
 O661 O 0.27504 0.71083 0.30488
 O662 O 0.18673 0.79614 0.21915
 C663 C 0.23006 0.65906 0.37482
 C664 C 0.32560 0.64331 0.25837
 C665 C 0.34782 0.75264 0.35641
 C666 C 0.23446 0.85074 0.15353
 C667 C 0.11955 0.75483 0.16385
 C668 C 0.13099 0.85914 0.26412
 H669 H 0.16283 0.69163 0.20938
 H670 H 0.17902 0.81695 0.32697
 H671 H 0.29446 0.69175 0.32356
 H672 H 0.29538 0.80578 0.19623
 H673 H 0.29831 0.76192 0.13134
 H674 H 0.34628 0.71853 0.18043
 H675 H 0.11322 0.77755 0.34452
 H676 H 0.16618 0.74669 0.39176
 H677 H 0.20207 0.67560 0.14382
 H678 H 0.23465 0.62891 0.19490
 H679 H 0.22002 0.88099 0.32976
 H680 H 0.27296 0.83130 0.37593
 H681 H 0.14831 0.64168 0.29983
 H682 H 0.09669 0.68860 0.24955
 H683 H 0.36074 0.81929 0.26767
 H684 H 0.31256 0.86967 0.23457
 O685 O 0.72696 0.35125 0.27765
 O686 O 0.77069 0.35882 0.20811
 O687 O 0.59960 0.29436 0.23156
 O688 O 0.57529 0.23347 0.19224
 O689 O 0.66725 0.23912 0.34794
 O690 O 0.72997 0.19053 0.35450
 O691 O 0.70569 0.16253 0.10753
 O692 O 0.64974 0.21956 0.09907
 O693 O 0.82655 0.22971 0.14558
 O694 O 0.84916 0.28153 0.20751
 O695 O 0.77673 0.11756 0.21889
 O696 O 0.71574 0.10716 0.27877
 O697 O 0.71266 0.11307 0.16483
 O698 O 0.66242 0.10399 0.23412
 O699 O 0.83228 0.17079 0.20672
 O700 O 0.85425 0.23531 0.25548
 O701 O 0.76707 0.22049 0.09647
 O702 O 0.71018 0.27243 0.08739
 O703 O 0.73148 0.30062 0.33435
 O704 O 0.78276 0.23917 0.34446
 O705 O 0.60594 0.23660 0.30043
 O706 O 0.58611 0.18055 0.24003
 O707 O 0.65577 0.34758 0.22210
 O708 O 0.71592 0.35732 0.16460
 Zr709 Zr 0.71666 0.31151 0.21883
 O710 O 0.75351 0.27074 0.17360
 Zr711 Zr 0.63460 0.23388 0.23336
 O712 O 0.66805 0.18978 0.18780
 Zr713 Zr 0.72393 0.23821 0.30265
 O714 O 0.76119 0.19434 0.26108
 Zr715 Zr 0.70891 0.22521 0.14033
 O716 O 0.67050 0.26983 0.18177
 Zr717 Zr 0.79733 0.23091 0.21105
 O718 O 0.76438 0.27534 0.25603
 Zr719 Zr 0.71538 0.15275 0.22433
 O720 O 0.67800 0.19308 0.27053
 O721 O 0.67833 0.27743 0.26813
 O722 O 0.75461 0.18656 0.17545
 C723 C 0.73188 0.34073 0.31956
 C724 C 0.61355 0.33512 0.22700
 C725 C 0.62377 0.23859 0.34066
 C726 C 0.70973 0.12282 0.12245
 C727 C 0.81028 0.22412 0.10548
 C728 C 0.81859 0.13017 0.21091
 H729 H 0.77035 0.28972 0.15136
 H730 H 0.78197 0.17710 0.28013
 H731 H 0.66145 0.29772 0.28863
 H732 H 0.64521 0.17042 0.17196
 H733 H 0.62963 0.24422 0.10814
 H734 H 0.58296 0.21709 0.16395
 H735 H 0.84985 0.21226 0.27902
 H736 H 0.80568 0.25952 0.32990
 H737 H 0.68918 0.29617 0.09677
 H738 H 0.68763 0.35102 0.14699
 H739 H 0.74347 0.11385 0.29711
 H740 H 0.70750 0.16622 0.34738
 H741 H 0.79614 0.35063 0.22828
 H742 H 0.84052 0.30231 0.18333
 H743 H 0.59804 0.16058 0.26350
 H744 H 0.63926 0.10766 0.21010
 N745 N 0.19578 0.10207 0.12151
 N746 N 0.17507 0.10588 0.15807
 N747 N 0.77712 0.61251 0.55009
 N748 N 0.77620 0.60270 0.59194
 N749 N 0.71836 0.89380 0.06714
 N750 N 0.70279 0.85564 0.07213
 N751 N 0.25785 0.44441 0.66085
 N752 N 0.23917 0.40638 0.65427
 N753 N 0.79374 0.07378 0.85815
 N754 N 0.76953 0.10691 0.86840
 N755 N 0.22249 0.58695 0.40342
 N756 N 0.23096 0.62789 0.41135
 N757 N 0.32308 0.92648 0.93990
 N758 N 0.34376 0.91992 0.90377
 N759 N 0.73211 0.36533 0.39415
 N760 N 0.73716 0.37554 0.35252
 N761 N 0.04932 0.24682 0.12751
 N762 N 0.04470 0.25094 0.16905
 N763 N 0.65195 0.74484 0.56519
 N764 N 0.64594 0.75004 0.60801
 N765 N 0.13312 0.80915 0.92121
 N766 N 0.17524 0.81275 0.92429
 N767 N 0.55059 0.24613 0.37420
 N768 N 0.59368 0.24274 0.37977
 N769 N 0.89939 0.72492 0.05988
 N770 N 0.85916 0.71166 0.05800
 N771 N 0.40277 0.25449 0.64077
 N772 N 0.35946 0.25506 0.63416
 N773 N 0.91373 0.21771 0.88443
 N774 N 0.91674 0.22516 0.84350
 N775 N 0.38068 0.74866 0.42943
 N776 N 0.38646 0.74987 0.38650
 N777 N 0.05937 0.07669 0.31288
 N778 N 0.06398 0.11257 0.33294
 N779 N 0.66203 0.57871 0.74756
 N780 N 0.65615 0.62024 0.75167
 N781 N 0.92315 0.09449 0.71132
 N782 N 0.88267 0.09591 0.69953
 N783 N 0.39901 0.61553 0.24871
 N784 N 0.35683 0.60747 0.25741
 N785 N 0.14691 0.93326 0.75811
 N786 N 0.18813 0.93344 0.76720
 N787 N 0.53963 0.36003 0.24272
 N788 N 0.58013 0.36905 0.22847
 N789 N 0.86669 0.90381 0.18268
 N790 N 0.87971 0.86595 0.19524
 N791 N 0.39546 0.42993 0.77282
 N792 N 0.40314 0.38839 0.77528
 N793 N 0.11226 0.28384 0.98381
 N794 N 0.13689 0.30877 0.96030
 N795 N 0.63554 0.75313 0.40472
 N796 N 0.61877 0.73727 0.36808
 N797 N 0.99804 0.75887 0.84987
 N798 N 0.98381 0.73894 0.81571
 N799 N 0.39232 0.27216 0.39182
 N800 N 0.35381 0.25951 0.40838
 N801 N 0.04246 0.76240 0.13460
 N802 N 0.08516 0.75507 0.12917
 N803 N 0.56379 0.23479 0.62696
 N804 N 0.60276 0.24827 0.61205
 N805 N 0.84067 0.20237 0.03164
 N806 N 0.84416 0.22222 0.07002
 N807 N 0.40212 0.73379 0.58738
 N808 N 0.42111 0.74794 0.62363
 N809 N 0.21559 0.12953 0.96679
 N810 N 0.19708 0.14437 0.93277
 N811 N 0.74278 0.61013 0.39390
 N812 N 0.75023 0.59802 0.35311
 N813 N 0.72757 0.04954 0.10037
 N814 N 0.71382 0.08779 0.08934
 N815 N 0.25713 0.60069 0.65505
 N816 N 0.26816 0.63943 0.64153
 N817 N 0.81543 0.91993 0.84658
 N818 N 0.83280 0.88291 0.85599
 N819 N 0.22497 0.43030 0.41060
 N820 N 0.21941 0.39051 0.42406
 N821 N 0.26925 0.88158 0.08720
 N822 N 0.23941 0.88378 0.11910
 N823 N 0.75822 0.36607 0.55247
 N824 N 0.75379 0.37780 0.59386
 N825 N 0.05461 0.14241 0.79141
 N826 N 0.07044 0.17068 0.81810
 N827 N 0.56000 0.60484 0.25085
 N828 N 0.59882 0.59173 0.23699
 N829 N 0.10646 0.93395 0.26029
 N830 N 0.09700 0.89277 0.26531
 N831 N 0.64659 0.42269 0.73651
 N832 N 0.63281 0.38389 0.74761
 N833 N 0.84181 0.05607 0.21077
 N834 N 0.85250 0.09707 0.20677
 N835 N 0.40509 0.58824 0.77896
 N836 N 0.41827 0.62699 0.76683
 N837 N 0.99990 0.87400 0.70896
 N838 N 0.95661 0.87842 0.71311
 N839 N 0.37767 0.37031 0.24947
 N840 N 0.34000 0.38407 0.26583
   
