data_POSCAR
  _audit_creation_date              2014-09-24
  _audit_creation_method            'ToBaCCo'
  _symmetry_space_group_name_H-M    'P1'
  _symmetry_Int_Tables_number       1
  _symmetry_cell_setting            triclinic
  loop_
  _symmetry_equiv_pos_as_xyz
 x,y,z
_cell_length_a 24.1413
_cell_length_b 24.0416
_cell_length_c 24.0461
_cell_angle_alpha 90.109400
_cell_angle_beta 90.233200
_cell_angle_gamma 90.235500
loop_
  _atom_site_label
  _atom_site_type_symbol
  _atom_site_fract_x
  _atom_site_fract_y
  _atom_site_fract_z
C1 C 0.52793 0.99805 -0.67516
 C2 C 0.47127 1.00123 -0.67547
 C3 C 0.45463 1.00230 -0.62026
 N4 N 0.49948 1.00007 -0.58651
 C5 C 0.54435 0.99753 -0.61982
 C6 C 0.39880 1.00351 -0.60241
 C7 C 0.38163 1.00163 -0.54604
 C8 C 0.32714 0.99396 -0.52923
 C9 C 0.32733 0.99334 -0.47219
 C10 C 0.38187 1.00072 -0.45519
 N11 N 0.41456 1.00664 -0.50050
 C12 C 0.39919 1.00168 -0.39879
 C13 C 0.45493 1.00163 -0.38049
 C14 C 0.47134 1.00089 -0.32515
 C15 C 0.52807 0.99913 -0.32485
 C16 C 0.54473 0.99895 -0.38006
 N17 N 0.49985 1.00048 -0.41379
 C18 C 0.60056 0.99911 -0.39794
 C19 C 0.61764 1.00030 -0.45437
 C20 C 0.67204 1.00821 -0.47136
 C21 C 0.67187 1.00740 -0.52841
 C22 C 0.61741 0.99911 -0.54522
 N23 N 0.58476 0.99392 -0.49980
 C24 C 0.60008 0.99675 -0.60155
 H25 H 0.55404 0.99675 -0.71162
 H26 H 0.44526 1.00222 -0.71223
 H27 H 0.54339 0.98243 -0.49984
 H28 H 0.29092 0.98854 -0.55539
 H29 H 0.29127 0.98743 -0.44622
 H30 H 0.44521 1.00126 -0.28869
 H31 H 0.55410 0.99838 -0.28810
 H32 H 0.70786 1.01308 -0.55452
 H33 H 0.45607 1.01755 -0.50030
 H34 H 0.70822 1.01454 -0.44533
 C35 C -0.47238 1.32508 0.00087
 C36 C -0.52913 1.32489 -0.00071
 C37 C -0.54567 1.38015 -0.00104
 N38 N -0.50071 1.41380 0.00022
 C39 C -0.45585 1.38040 0.00136
 C40 C -0.60146 1.39815 -0.00081
 C41 C -0.61842 1.45463 0.00027
 C42 C -0.67272 1.47177 0.00820
 C43 C -0.67245 1.52882 0.00729
 C44 C -0.61802 1.54548 -0.00107
 N45 N -0.58551 1.49996 -0.00622
 C46 C -0.60060 1.60177 -0.00351
 C47 C -0.54482 1.61994 -0.00285
 C48 C -0.52829 1.67525 -0.00236
 C49 C -0.47160 1.67546 0.00066
 C50 C -0.45506 1.62021 0.00165
 N51 N -0.49999 1.58654 -0.00046
 C52 C -0.39926 1.60225 0.00265
 C53 C -0.38224 1.54582 0.00073
 C54 C -0.32789 1.52887 -0.00721
 C55 C -0.32820 1.47181 -0.00773
 C56 C -0.38267 1.45496 -0.00003
 N57 N -0.41519 1.50037 0.00599
 C58 C -0.40008 1.39860 0.00115
 H59 H -0.44632 1.28856 0.00129
 H60 H -0.55524 1.28818 -0.00126
 H61 H -0.45654 1.50032 0.01715
 H62 H -0.70889 1.44584 0.01461
 H63 H -0.70833 1.55504 0.01296
 H64 H -0.55434 1.71177 -0.00357
 H65 H -0.44551 1.71218 0.00158
 H66 H -0.29227 1.44573 -0.01379
 H67 H -0.54425 1.49985 -0.01771
 H68 H -0.29169 1.55494 -0.01285
 C69 C 0.02215 0.32707 0.52976
 C70 C 0.02294 0.32694 0.47272
 C71 C 0.01011 0.38058 0.45593
 N72 N 0.00123 0.41322 0.50084
 C73 C 0.00893 0.38080 0.54606
 C74 C 0.00308 0.39758 0.40010
 C75 C -0.00610 0.45338 0.38395
 C76 C -0.02363 0.46995 0.33147
 C77 C -0.02424 0.52713 0.33162
 C78 C -0.00704 0.54407 0.38412
 N79 N 0.00423 0.49888 0.41560
 C80 C 0.00113 0.60006 0.40029
 C81 C 0.00916 0.61743 0.45583
 C82 C 0.02211 0.67131 0.47211
 C83 C 0.02271 0.67154 0.52916
 C84 C 0.00999 0.61777 0.54591
 N85 N 0.00138 0.58496 0.50097
 C86 C 0.00271 0.60076 0.60165
 C87 C -0.00661 0.54489 0.61773
 C88 C -0.02455 0.52831 0.66994
 C89 C -0.02529 0.47114 0.66988
 C90 C -0.00769 0.45413 0.61765
 N91 N 0.00387 0.49939 0.58630
 C92 C 0.00061 0.39808 0.60163
 H93 H 0.02980 0.29151 0.55621
 H94 H 0.03126 0.29126 0.44658
 H95 H 0.02389 0.49921 0.54819
 H96 H -0.03437 0.44356 0.29650
 H97 H -0.03550 0.55324 0.29677
 H98 H 0.02973 0.70688 0.44566
 H99 H 0.03081 0.70736 0.55533
 H100 H -0.03686 0.44504 0.70461
 H101 H 0.02397 0.49914 0.45401
 H102 H -0.03552 0.55469 0.70469
 O103 O -0.14320 1.00155 -0.07555
 O104 O 0.14203 0.99878 -0.07529
 O105 O -0.00255 1.07542 -0.14326
 O106 O 0.00103 0.92479 -0.14345
 O107 O 0.00116 0.85692 -0.07558
 O108 O -0.00227 1.14338 -0.07522
 O109 O 0.07418 0.99852 -0.14331
 O110 O -0.07578 1.00171 -0.14344
 Zr111 Zr -0.00066 1.00014 -0.09811
 O112 O 0.04970 0.94986 -0.05066
 O113 O -0.05072 1.05049 -0.05061
 C114 C -0.12680 1.00242 -0.12681
 C115 C 0.12530 0.99785 -0.12659
 C116 C -0.00328 1.12672 -0.12652
 C117 C 0.00192 0.87352 -0.12684
 H118 H 0.07313 1.07435 -0.07394
 O119 O 0.04954 1.05055 -0.05026
 H120 H -0.07430 0.92594 -0.07428
 O121 O -0.05056 0.94977 -0.05050
 O122 O 0.14252 1.00256 0.07522
 O123 O -0.14272 0.99791 0.07496
 O124 O 0.07478 1.14366 0.00194
 O125 O 0.07450 0.85722 -0.00219
 O126 O -0.07545 0.85675 0.00149
 O127 O -0.07519 1.14318 -0.00184
 O128 O 0.00203 1.07555 0.14316
 O129 O -0.00177 0.92496 0.14293
 O130 O 0.00189 1.14346 0.07534
 O131 O -0.00205 0.85700 0.07490
 O132 O 0.14235 1.07592 0.00189
 O133 O -0.14289 1.07501 -0.00201
 O134 O -0.14302 0.92449 0.00150
 O135 O 0.14220 0.92539 -0.00204
 O136 O 0.07511 1.00238 0.14311
 O137 O -0.07487 0.99814 0.14297
 Zr138 Zr 0.09717 1.00051 -0.00008
 Zr139 Zr -0.09786 0.99989 -0.00025
 Zr140 Zr -0.00025 1.09815 -0.00001
 Zr141 Zr -0.00043 0.90226 -0.00029
 Zr142 Zr -0.00002 1.00024 0.09778
 O143 O -0.05049 0.94959 0.05020
 O144 O 0.05013 1.05086 0.05043
 C145 C 0.12612 1.00341 0.12649
 C146 C -0.12599 0.99709 0.12625
 C147 C 0.12583 1.12715 0.00278
 C148 C 0.12558 0.87405 -0.00302
 C149 C -0.12650 0.87326 0.00236
 C150 C -0.12628 1.12635 -0.00275
 C151 C 0.00289 1.12683 0.12659
 C152 C -0.00271 0.87366 0.12620
 H153 H -0.07369 1.07395 0.07385
 O154 O -0.05014 1.05028 0.05009
 H155 H 0.07350 0.92650 0.07375
 O156 O 0.04979 0.95015 0.05004
 C157 C 0.35828 1.00406 0.35735
 C158 C 0.32267 1.00454 0.32204
 C159 C 0.28100 1.00497 0.28071
 C160 C 0.24543 1.00513 0.24541
 C161 C 0.20380 1.00500 0.20403
 C162 C 0.16830 1.00452 0.16865
 C163 C -0.35717 0.99622 0.35619
 C164 C -0.32165 0.99581 0.32109
 C165 C -0.28011 0.99545 0.27997
 C166 C -0.24467 0.99533 0.24483
 C167 C -0.20323 0.99549 0.20360
 C168 C -0.16791 0.99598 0.16832
 C169 C -0.35890 1.00028 -0.35773
 C170 C -0.32329 1.00125 -0.32242
 C171 C -0.28163 1.00224 -0.28108
 C172 C -0.24608 1.00286 -0.24577
 C173 C -0.20446 1.00322 -0.20437
 C174 C -0.16897 1.00313 -0.16898
 C175 C 0.35644 1.00034 -0.35654
 C176 C 0.32094 0.99927 -0.32144
 C177 C 0.27940 0.99819 -0.28033
 C178 C 0.24397 0.99750 -0.24518
 C179 C 0.20253 0.99708 -0.20395
 C180 C 0.16721 0.99715 -0.16867
 C181 C 0.35793 1.35802 0.00052
 C182 C 0.32227 1.32277 0.00162
 C183 C 0.28057 1.28151 0.00272
 C184 C 0.24499 1.24622 0.00340
 C185 C 0.20338 1.20483 0.00377
 C186 C 0.16792 1.16941 0.00363
 C187 C 0.35674 0.64412 -0.00397
 C188 C 0.32128 0.67928 -0.00435
 C189 C 0.27978 0.72043 -0.00467
 C190 C 0.24435 0.75559 -0.00476
 C191 C 0.20290 0.79681 -0.00459
 C192 C 0.16756 0.83206 -0.00410
 C193 C -0.35865 0.64240 0.00306
 C194 C -0.32298 0.67766 0.00344
 C195 C -0.28126 0.71893 0.00378
 C196 C -0.24567 0.75422 0.00391
 C197 C -0.20404 0.79560 0.00378
 C198 C -0.16858 0.83101 0.00334
 C199 C -0.35743 1.35626 -0.00025
 C200 C -0.32199 1.32110 -0.00135
 C201 C -0.28050 1.27995 -0.00247
 C202 C -0.24508 1.24479 -0.00317
 C203 C -0.20363 1.20358 -0.00359
 C204 C -0.16827 1.16834 -0.00350
 C205 C 0.00355 1.35752 0.35939
 C206 C 0.00399 1.32229 0.32363
 C207 C 0.00440 1.28103 0.28181
 C208 C 0.00457 1.24575 0.24614
 C209 C 0.00446 1.20438 0.20442
 C210 C 0.00399 1.16900 0.16884
 C211 C -0.00080 1.35805 -0.35781
 C212 C -0.00196 1.32276 -0.32225
 C213 C -0.00312 1.28134 -0.28075
 C214 C -0.00383 1.24591 -0.24537
 C215 C -0.00423 1.20437 -0.20396
 C216 C -0.00410 1.16889 -0.16861
 C217 C 0.00291 0.64094 -0.35775
 C218 C 0.00314 0.67642 -0.32223
 C219 C 0.00336 0.71812 -0.28084
 C220 C 0.00342 0.75380 -0.24557
 C221 C 0.00327 0.79561 -0.20429
 C222 C 0.00285 0.83125 -0.16898
 C223 C -0.00026 0.64236 0.35743
 C224 C -0.00134 0.67765 0.32190
 C225 C -0.00243 0.71906 0.28040
 C226 C -0.00311 0.75449 0.24502
 C227 C -0.00352 0.79602 0.20362
 C228 C -0.00343 0.83149 0.16828
   
