data_POSCAR
  _audit_creation_date              2014-09-24
  _audit_creation_method            'ToBaCCo'
  _symmetry_space_group_name_H-M    'P1'
  _symmetry_Int_Tables_number       1
  _symmetry_cell_setting            triclinic
  loop_
  _symmetry_equiv_pos_as_xyz
 x,y,z
_cell_length_a 42.2666
_cell_length_b 42.1826
_cell_length_c 61.2906
_cell_angle_alpha 90.011800
_cell_angle_beta 90.007700
_cell_angle_gamma 119.306800
loop_
  _atom_site_label
  _atom_site_type_symbol
  _atom_site_fract_x
  _atom_site_fract_y
  _atom_site_fract_z
C1 C 0.01802 0.51614 1.27123
 C2 C -0.01981 0.49006 1.27128
 C3 C -0.03765 0.47714 1.25109
 C4 C -0.02016 0.49062 1.23094
 C5 C 0.01730 0.51682 1.23109
 C6 C 0.03538 0.52955 1.25102
 H7 H 0.06443 0.54784 1.25057
 H8 H -0.06673 0.45912 1.25109
 C9 C 0.51192 0.49261 1.23025
 C10 C 0.48815 0.50721 1.23017
 C11 C 0.47649 0.51438 1.25006
 C12 C 0.48866 0.50843 1.27029
 C13 C 0.51236 0.49335 1.27018
 C14 C 0.52379 0.48608 1.25022
 H15 H 0.54100 0.47366 1.25023
 H16 H 0.45956 0.52708 1.24958
 C17 C 0.48908 0.98100 1.26962
 C18 C 0.51440 1.01919 1.26968
 C19 C 0.52716 1.03706 1.24948
 C20 C 0.51433 1.01901 1.22955
 C21 C 0.48874 0.98161 1.22949
 C22 C 0.47618 0.96334 1.24938
 H23 H 0.45813 0.93421 1.24887
 H24 H 0.54520 1.06620 1.24907
 C25 C 0.98182 0.48422 0.72919
 C26 C 1.01957 0.50851 0.72913
 C27 C 1.03807 0.52043 0.74903
 C28 C 1.02024 0.50808 0.76926
 C29 C 0.98211 0.48376 0.76913
 C30 C 0.96373 0.47201 0.74915
 H31 H 0.93454 0.45440 0.74914
 H32 H 1.06726 0.53781 0.74857
 C33 C 0.49056 0.51052 0.77066
 C34 C 0.51058 0.49171 0.77061
 C35 C 0.52032 0.48267 0.75063
 C36 C 0.51068 0.49195 0.73068
 C37 C 0.49084 0.51093 0.73073
 C38 C 0.48105 0.51992 0.75072
 H39 H 0.46577 0.53440 0.75075
 H40 H 0.53557 0.46817 0.75059
 C41 C 0.48773 -0.02032 0.77077
 C42 C 0.51169 0.01796 0.77071
 C43 C 0.52289 0.03656 0.75076
 C44 C 0.51061 0.01853 0.73078
 C45 C 0.48673 -0.01936 0.73065
 C46 C 0.47523 -0.03807 0.75052
 H47 H 0.45816 -0.06736 0.74998
 H48 H 0.54025 0.06584 0.75081
 O49 O 0.38225 0.66684 0.97549
 O50 O 0.38406 0.72879 0.98191
 C51 C 0.36148 0.73350 0.97056
 O52 O 0.32776 0.71718 0.97456
 O53 O 0.26642 0.65822 0.98170
 C54 C 0.26192 0.63057 0.97086
 O55 O 0.27846 0.61319 0.97538
 O56 O 0.33790 0.61072 0.98267
 C57 C 0.36520 0.63303 0.97153
 O58 O 0.38373 0.65697 1.01896
 O59 O 0.38203 0.71720 1.02540
 C60 C 0.36506 0.73440 1.02924
 O61 O 0.33802 0.73016 1.01791
 O62 O 0.27841 0.66949 1.02507
 C63 C 0.26180 0.63587 1.02958
 O64 O 0.26622 0.61259 1.01874
 O65 O 0.32731 0.61338 1.02599
 C66 C 0.36098 0.62997 1.03014
 Cr67 Cr 0.38108 0.69151 1.00044
 Cr68 Cr 0.30361 0.69276 0.99983
 Cr69 Cr 0.30344 0.61441 1.00068
 O70 O 0.32937 0.66622 1.00031
 O71 O 0.61742 0.33314 0.97525
 O72 O 0.61569 0.27128 0.98188
 C73 C 0.63824 0.26649 0.97054
 O74 O 0.67197 0.28283 0.97452
 O75 O 0.73332 0.34188 0.98153
 C76 C 0.73770 0.36933 0.97053
 O77 O 0.72115 0.38674 0.97492
 O78 O 0.66177 0.38932 0.98228
 C79 C 0.63442 0.36692 0.97120
 O80 O 0.61618 0.34343 1.01870
 O81 O 0.61789 0.28326 1.02533
 C82 C 0.63489 0.26611 1.02923
 O83 O 0.66187 0.27025 1.01789
 O84 O 0.72147 0.33103 1.02492
 C85 C 0.73814 0.36471 1.02926
 O86 O 0.73371 0.38785 1.01827
 O87 O 0.67265 0.38710 1.02559
 C88 C 0.63900 0.37050 1.02981
 Cr89 Cr 0.61873 0.30872 1.00028
 Cr90 Cr 0.69620 0.30750 0.99973
 Cr91 Cr 0.69636 0.38582 1.00026
 O92 O 0.67043 0.33401 1.00009
 O93 O 0.65721 0.38541 0.51896
 O94 O 0.71692 0.38303 0.52563
 C95 C 0.73384 0.36577 0.52944
 O96 O 0.72949 0.33871 0.51803
 O97 O 0.66851 0.27918 0.52487
 C98 C 0.63489 0.26271 0.52917
 O99 O 0.61198 0.26755 0.51825
 O100 O 0.61325 0.32896 0.52570
 C101 C 0.63002 0.36265 0.52998
 O102 O 0.66764 0.38430 0.47552
 O103 O 0.72906 0.38545 0.48220
 C104 C 0.73357 0.36280 0.47074
 O105 O 0.71700 0.32896 0.47462
 O106 O 0.65777 0.26771 0.48144
 C107 C 0.63044 0.26359 0.47047
 O108 O 0.61330 0.28039 0.47493
 O109 O 0.61135 0.34016 0.48239
 C110 C 0.63397 0.36746 0.47135
 Cr111 Cr 0.69175 0.38261 0.50057
 Cr112 Cr 0.69221 0.30462 0.49976
 Cr113 Cr 0.61441 0.30522 0.50032
 O114 O 0.66611 0.33081 0.50023
 O115 O 0.33210 0.61618 0.52521
 O116 O 0.27064 0.61464 0.51782
 C117 C 0.26570 0.63752 0.52873
 O118 O 0.28214 0.67124 0.52448
 O119 O 0.34143 0.73241 0.51755
 C120 C 0.36850 0.73681 0.52892
 O121 O 0.38583 0.71999 0.52500
 O122 O 0.38835 0.66026 0.51828
 C123 C 0.36575 0.63311 0.52942
 O124 O 0.34309 0.61417 0.48188
 O125 O 0.28327 0.61591 0.47449
 C126 C 0.26637 0.63299 0.47011
 O127 O 0.27051 0.66038 0.48108
 O128 O 0.33149 0.71982 0.47414
 C129 C 0.36522 0.73642 0.47016
 O130 O 0.38795 0.73204 0.48157
 O131 O 0.38694 0.67059 0.47486
 C132 C 0.37023 0.63682 0.47076
 Cr133 Cr 0.30822 0.61716 0.49985
 Cr134 Cr 0.30738 0.69500 0.49933
 Cr135 Cr 0.38533 0.69476 0.49992
 O136 O 0.33363 0.66896 0.49971
 C137 C 0.43222 0.52488 0.31093
 C138 C 0.45693 0.54113 0.32799
 C139 C 0.49222 0.54668 0.32600
 C140 C 0.50278 0.53592 0.30704
 C141 C 0.47805 0.51900 0.28974
 C142 C 0.44266 0.51409 0.29195
 C143 C 0.44622 0.55275 0.34735
 C144 C 0.43715 0.56267 0.36344
 C145 C 0.42640 0.57456 0.38211
 C146 C 0.41713 0.58496 0.39791
 C147 C 0.40596 0.59772 0.41658
 C148 C 0.42434 0.63468 0.42196
 C149 C 0.41297 0.64736 0.43971
 C150 C 0.38298 0.62319 0.45235
 C151 C 0.36485 0.58600 0.44690
 C152 C 0.37629 0.57339 0.42912
 H153 H 0.40480 0.52049 0.31230
 H154 H 0.51177 0.55980 0.33898
 H155 H 0.53079 0.54227 0.30568
 H156 H 0.42252 0.50082 0.27929
 H157 H 0.44731 0.65376 0.41232
 H158 H 0.42753 0.67615 0.44341
 H159 H 0.34164 0.56665 0.45624
 H160 H 0.36182 0.54473 0.42506
 C161 C 0.49431 0.94349 0.32411
 C162 C 0.45860 0.91540 0.32659
 C163 C 0.43316 0.90875 0.31017
 C164 C 0.44322 0.93024 0.29138
 C165 C 0.47897 0.95922 0.28876
 C166 C 0.50450 0.96508 0.30534
 C167 C 0.44794 0.89325 0.34595
 C168 C 0.43854 0.87446 0.36205
 C169 C 0.42701 0.85214 0.38077
 C170 C 0.41676 0.83280 0.39664
 C171 C 0.40405 0.80934 0.41541
 C172 C 0.36710 0.79126 0.42063
 C173 C 0.35449 0.76781 0.43855
 C174 C 0.37874 0.76211 0.45153
 C175 C 0.41591 0.78063 0.44622
 C176 C 0.42844 0.80407 0.42828
 H177 H 0.51436 0.94859 0.33662
 H178 H 0.40542 0.88705 0.31193
 H179 H 0.42254 0.92492 0.27927
 H180 H 0.53263 0.98582 0.30362
 H181 H 0.34798 0.79511 0.41075
 H182 H 0.32572 0.75398 0.44213
 H183 H 0.43531 0.77683 0.45582
 H184 H 0.45710 0.81790 0.42436
 C185 C 0.05661 0.51061 0.32526
 C186 C 0.08440 0.54648 0.32787
 C187 C 0.09033 0.57221 0.31173
 C188 C 0.06850 0.56224 0.29310
 C189 C 0.03991 0.52628 0.29033
 C190 C 0.03469 0.50051 0.30665
 C191 C 0.10711 0.55688 0.34697
 C192 C 0.12635 0.56584 0.36288
 C193 C 0.14916 0.57658 0.38138
 C194 C 0.16888 0.58593 0.39708
 C195 C 0.19273 0.59727 0.41568
 C196 C 0.19775 0.62725 0.42808
 C197 C 0.22148 0.63874 0.44589
 C198 C 0.24055 0.62035 0.45154
 C199 C 0.23512 0.59010 0.43902
 C200 C 0.21138 0.57868 0.42122
 H201 H 0.05207 0.49033 0.33754
 H202 H 0.11180 0.60009 0.31358
 H203 H 0.07334 0.58310 0.28119
 H204 H 0.01429 0.47224 0.30480
 H205 H 0.18349 0.64188 0.42391
 H206 H 0.22504 0.66214 0.45513
 H207 H 0.24937 0.57534 0.44287
 H208 H 0.20774 0.55547 0.41172
 C209 C 0.50569 0.44525 0.32369
 C210 C 0.54233 0.45746 0.32824
 C211 C 0.56909 0.48121 0.31378
 C212 C 0.55930 0.49284 0.29488
 C213 C 0.52262 0.48099 0.29031
 C214 C 0.49585 0.45684 0.30478
 C215 C 0.55258 0.44548 0.34762
 C216 C 0.56163 0.43560 0.36375
 C217 C 0.57275 0.42421 0.38247
 C218 C 0.58274 0.41462 0.39831
 C219 C 0.59527 0.40332 0.41703
 C220 C 0.57095 0.37336 0.42941
 C221 C 0.58340 0.36188 0.44724
 C222 C 0.62043 0.38025 0.45291
 C223 C 0.64459 0.41052 0.44043
 C224 C 0.63206 0.42193 0.42262
 H225 H 0.48476 0.42674 0.33472
 H226 H 0.59752 0.49075 0.31712
 H227 H 0.58033 0.51137 0.28391
 H228 H 0.46739 0.44699 0.30139
 H229 H 0.54241 0.35872 0.42518
 H230 H 0.56409 0.33845 0.45645
 H231 H 0.67325 0.42527 0.44429
 H232 H 0.65113 0.44512 0.41313
 C233 C 0.57021 0.09125 0.31040
 C234 C 0.54471 0.08448 0.32681
 C235 C 0.50906 0.05631 0.32427
 C236 C 0.49895 0.03479 0.30547
 C237 C 0.52451 0.04080 0.28890
 C238 C 0.56023 0.06982 0.29158
 C239 C 0.55515 0.10670 0.34614
 C240 C 0.56411 0.12554 0.36223
 C241 C 0.57481 0.14787 0.38096
 C242 C 0.58406 0.16722 0.39684
 C243 C 0.59522 0.19068 0.41564
 C244 C 0.62516 0.19565 0.42798
 C245 C 0.63648 0.21910 0.44595
 C246 C 0.61795 0.23794 0.45180
 C247 C 0.58771 0.23254 0.43934
 C248 C 0.57647 0.20908 0.42139
 H249 H 0.59791 0.11303 0.31219
 H250 H 0.48895 0.05114 0.33676
 H251 H 0.47083 0.01404 0.30371
 H252 H 0.58092 0.07526 0.27946
 H253 H 0.63991 0.18158 0.42364
 H254 H 0.65988 0.22266 0.45514
 H255 H 0.57284 0.24661 0.44334
 H256 H 0.55328 0.20548 0.41193
 C257 C 0.90880 0.43278 0.31192
 C258 C 0.91494 0.45809 0.32838
 C259 C 0.94260 0.49406 0.32598
 C260 C 0.96417 0.50470 0.30722
 C261 C 0.95870 0.47937 0.29054
 C262 C 0.93028 0.44329 0.29314
 C263 C 0.89255 0.44707 0.34763
 C264 C 0.87349 0.43742 0.36361
 C265 C 0.85082 0.42565 0.38216
 C266 C 0.83115 0.41520 0.39786
 C267 C 0.80730 0.40227 0.41644
 C268 C 0.80180 0.42657 0.42929
 C269 C 0.77804 0.41383 0.44707
 C270 C 0.75944 0.37653 0.45223
 C271 C 0.76536 0.35236 0.43926
 C272 C 0.78912 0.36518 0.42150
 H273 H 0.88744 0.40483 0.31362
 H274 H 0.94730 0.51400 0.33852
 H275 H 0.98448 0.53303 0.30555
 H276 H 0.92530 0.42275 0.28096
 H277 H 0.81570 0.45534 0.42550
 H278 H 0.77409 0.43317 0.45667
 H279 H 0.75148 0.32350 0.44273
 H280 H 0.79314 0.34612 0.41165
 C281 C 0.50847 0.44814 1.17586
 C282 C 0.54539 0.46116 1.17182
 C283 C 0.57133 0.48471 1.18675
 C284 C 0.56042 0.49512 1.20570
 C285 C 0.52342 0.48219 1.20987
 C286 C 0.49751 0.45851 1.19482
 C287 C 0.55669 0.44978 1.15260
 C288 C 0.56638 0.44012 1.13665
 C289 C 0.57802 0.42869 1.11816
 C290 C 0.58823 0.41888 1.10251
 C291 C 0.60077 0.40713 1.08400
 C292 C 0.63765 0.42514 1.07863
 C293 C 0.65008 0.41339 1.06093
 C294 C 0.62571 0.38338 1.04833
 C295 C 0.58861 0.36555 1.05382
 C296 C 0.57627 0.37738 1.07154
 H297 H 0.48816 0.42974 1.16447
 H298 H 0.59997 0.49487 1.18380
 H299 H 0.58081 0.51335 1.21711
 H300 H 0.46882 0.44776 1.19788
 H301 H 0.65686 0.44817 1.08820
 H302 H 0.67879 0.42772 1.05720
 H303 H 0.56913 0.34235 1.04450
 H304 H 0.54765 0.36320 1.07559
 C305 C 0.91004 0.43149 1.18995
 C306 C 0.91635 0.45625 1.17312
 C307 C 0.94365 0.49240 1.17537
 C308 C 0.96465 0.50378 1.19435
 C309 C 0.95900 0.47908 1.21144
 C310 C 0.93097 0.44276 1.20896
 C311 C 0.89434 0.44473 1.15372
 C312 C 0.87570 0.43506 1.13757
 C313 C 0.85358 0.42365 1.11877
 C314 C 0.83440 0.41375 1.10284
 C315 C 0.81111 0.40169 1.08399
 C316 C 0.80589 0.42658 1.07156
 C317 C 0.78248 0.41468 1.05360
 C318 C 0.76393 0.37763 1.04783
 C319 C 0.76962 0.35287 1.06035
 C320 C 0.79304 0.36486 1.07829
 H321 H 0.88892 0.40341 1.18839
 H322 H 0.94840 0.51195 1.16258
 H323 H 0.98431 0.53233 1.19590
 H324 H 0.92584 0.42263 1.22144
 H325 H 0.81970 0.45516 1.07586
 H326 H 0.77869 0.43446 1.04437
 H327 H 0.75577 0.32417 1.05641
 H328 H 0.79684 0.34534 1.08781
 C329 C 0.51176 0.06140 1.17549
 C330 C 0.54879 0.08329 1.17110
 C331 C 0.57456 0.08382 1.18568
 C332 C 0.56336 0.06267 1.20462
 C333 C 0.52624 0.04064 1.20912
 C334 C 0.50053 0.04027 1.19443
 C335 C 0.56025 0.10591 1.15195
 C336 C 0.56967 0.12514 1.13603
 C337 C 0.58053 0.14799 1.11753
 C338 C 0.58970 0.16780 1.10187
 C339 C 0.60059 0.19180 1.08334
 C340 C 0.63015 0.19690 1.07057
 C341 C 0.64115 0.22082 1.05284
 C342 C 0.62269 0.24001 1.04766
 C343 C 0.59285 0.23449 1.06055
 C344 C 0.58191 0.21056 1.07826
 H345 H 0.49159 0.06095 1.16440
 H346 H 0.60328 0.10077 1.18247
 H347 H 0.58360 0.06341 1.21577
 H348 H 0.47178 0.02397 1.19776
 H349 H 0.64483 0.18255 1.07438
 H350 H 0.66426 0.22445 1.04331
 H351 H 0.57805 0.24883 1.05707
 H352 H 0.55901 0.20685 1.08806
 C353 C 0.42874 0.51470 1.18649
 C354 C 0.45470 0.53820 1.17155
 C355 C 0.49161 0.55114 1.17561
 C356 C 0.50255 0.54083 1.19459
 C357 C 0.47663 0.51728 1.20966
 C358 C 0.43963 0.50435 1.20547
 C359 C 0.44345 0.54971 1.15237
 C360 C 0.43382 0.55955 1.13648
 C361 C 0.42223 0.57121 1.11807
 C362 C 0.41203 0.58121 1.10251
 C363 C 0.39944 0.59313 1.08411
 C364 C 0.42390 0.62290 1.07165
 C365 C 0.41149 0.63484 1.05401
 C366 C 0.37436 0.61710 1.04861
 C367 C 0.35002 0.58709 1.06122
 C368 C 0.36251 0.57524 1.07883
 H369 H 0.40011 0.50461 1.18354
 H370 H 0.51193 0.56950 1.16422
 H371 H 0.53124 0.55159 1.19768
 H372 H 0.41924 0.48624 1.21690
 H373 H 0.45255 0.63699 1.07563
 H374 H 0.43094 0.65803 1.04469
 H375 H 0.32128 0.57283 1.05755
 H376 H 0.34333 0.55220 1.08839
 C377 C 0.08365 0.57503 1.18720
 C378 C 0.08302 0.54850 1.17318
 C379 C 0.06097 0.51163 1.17810
 C380 C 0.03960 0.50130 1.19693
 C381 C 0.03983 0.52778 1.21097
 C382 C 0.06226 0.56474 1.20604
 C383 C 0.10527 0.55912 1.15389
 C384 C 0.12406 0.56810 1.13779
 C385 C 0.14630 0.57881 1.11905
 C386 C 0.16556 0.58822 1.10315
 C387 C 0.18892 0.59989 1.08434
 C388 C 0.19421 0.57477 1.07219
 C389 C 0.21761 0.58634 1.05422
 C390 C 0.23607 0.62326 1.04818
 C391 C 0.23032 0.64823 1.06044
 C392 C 0.20692 0.63659 1.07837
 H393 H 0.10069 0.60364 1.18358
 H394 H 0.06042 0.49088 1.16743
 H395 H 0.02293 0.47267 1.20061
 H396 H 0.06292 0.58556 1.21668
 H397 H 0.18045 0.54629 1.07669
 H398 H 0.22146 0.56641 1.04519
 H399 H 0.24409 0.67685 1.05629
 H400 H 0.20306 0.65627 1.08768
 C401 C 0.42770 0.91728 1.18568
 C402 C 0.45319 0.91793 1.17083
 C403 C 0.49030 0.93980 1.17500
 C404 C 0.50190 0.96076 1.19400
 C405 C 0.47647 0.96024 1.20899
 C406 C 0.43926 0.93826 1.20469
 C407 C 0.44135 0.89539 1.15164
 C408 C 0.43161 0.87618 1.13571
 C409 C 0.42041 0.85328 1.11722
 C410 C 0.41098 0.83340 1.10159
 C411 C 0.39989 0.80924 1.08311
 C412 C 0.41853 0.79047 1.07800
 C413 C 0.40742 0.76637 1.06038
 C414 C 0.37741 0.76069 1.04758
 C415 C 0.35898 0.77990 1.05278
 C416 C 0.37017 0.80399 1.07044
 H417 H 0.39892 0.90035 1.18265
 H418 H 0.51026 0.94034 1.16370
 H419 H 0.53070 0.97703 1.19717
 H420 H 0.41923 0.93740 1.21605
 H421 H 0.44155 0.79429 1.08773
 H422 H 0.42221 0.75203 1.05688
 H423 H 0.33575 0.77614 1.04332
 H424 H 0.35550 0.81835 1.07428
 C425 C 0.50499 0.44830 0.67563
 C426 C 0.54146 0.45855 0.67195
 C427 C 0.56778 0.47992 0.68735
 C428 C 0.55770 0.49091 0.70640
 C429 C 0.52119 0.48076 0.71021
 C430 C 0.49487 0.45927 0.69470
 C431 C 0.55191 0.44658 0.65262
 C432 C 0.56104 0.43645 0.63663
 C433 C 0.57208 0.42443 0.61812
 C434 C 0.58172 0.41400 0.60249
 C435 C 0.59341 0.40130 0.58401
 C436 C 0.62331 0.42572 0.57165
 C437 C 0.63513 0.41324 0.55399
 C438 C 0.61717 0.37609 0.54846
 C439 C 0.58702 0.35179 0.56096
 C440 C 0.57526 0.36435 0.57860
 H441 H 0.48438 0.43161 0.66387
 H442 H 0.59605 0.48793 0.68470
 H443 H 0.57839 0.50744 0.71816
 H444 H 0.46650 0.45071 0.69747
 H445 H 0.63760 0.45438 0.57573
 H446 H 0.65845 0.43268 0.54476
 H447 H 0.57257 0.32303 0.55720
 H448 H 0.55213 0.34520 0.58809
 C449 C 0.56948 0.08443 0.68698
 C450 C 0.54334 0.08252 0.67220
 C451 C 0.50646 0.05957 0.67652
 C452 C 0.49575 0.03866 0.69556
 C453 C 0.52186 0.04033 0.71042
 C454 C 0.55881 0.06351 0.70602
 C455 C 0.55438 0.10458 0.65281
 C456 C 0.56381 0.12335 0.63670
 C457 C 0.57512 0.14571 0.61800
 C458 C 0.58505 0.16514 0.60217
 C459 C 0.59729 0.18878 0.58346
 C460 C 0.57265 0.19452 0.57116
 C461 C 0.58476 0.21826 0.55334
 C462 C 0.62175 0.23663 0.54761
 C463 C 0.64624 0.23041 0.56001
 C464 C 0.63405 0.20666 0.57780
 H465 H 0.59809 0.10216 0.68383
 H466 H 0.48600 0.05803 0.66525
 H467 H 0.46710 0.02139 0.69880
 H468 H 0.57936 0.06522 0.71727
 H469 H 0.54413 0.18085 0.57543
 H470 H 0.56519 0.22245 0.54420
 H471 H 0.67488 0.24410 0.55609
 H472 H 0.65337 0.20246 0.58724
 C473 C 0.94035 0.48792 0.67504
 C474 C 0.91742 0.45093 0.67082
 C475 C 0.91589 0.42484 0.68554
 C476 C 0.93708 0.43568 0.70446
 C477 C 0.96014 0.47275 0.70880
 C478 C 0.96153 0.49880 0.69396
 C479 C 0.89478 0.43982 0.65169
 C480 C 0.87548 0.43057 0.63581
 C481 C 0.85251 0.41980 0.61738
 C482 C 0.83259 0.41066 0.60179
 C483 C 0.80843 0.39981 0.58335
 C484 C 0.80304 0.37009 0.57056
 C485 C 0.77899 0.35913 0.55291
 C486 C 0.75998 0.37781 0.54783
 C487 C 0.76577 0.40779 0.56075
 C488 C 0.78983 0.41867 0.57837
 H489 H 0.94158 0.50835 0.66383
 H490 H 0.89815 0.39615 0.68246
 H491 H 0.93556 0.41518 0.71571
 H492 H 0.97866 0.52753 0.69716
 H493 H 0.81727 0.35525 0.57430
 H494 H 0.77515 0.33592 0.54336
 H495 H 0.75159 0.42276 0.55734
 H496 H 0.79377 0.44169 0.58819
 C497 C 0.43363 0.52288 0.68745
 C498 C 0.45989 0.54422 0.67201
 C499 C 0.49639 0.55459 0.67570
 C500 C 0.50659 0.54373 0.69478
 C501 C 0.48031 0.52222 0.71030
 C502 C 0.44378 0.51200 0.70650
 C503 C 0.44926 0.55583 0.65261
 C504 C 0.43982 0.56548 0.63654
 C505 C 0.42818 0.57670 0.61795
 C506 C 0.41781 0.58623 0.60224
 C507 C 0.40496 0.59756 0.58368
 C508 C 0.42916 0.62738 0.57116
 C509 C 0.41649 0.63882 0.55341
 C510 C 0.37937 0.62057 0.54795
 C511 C 0.35531 0.59049 0.56060
 C512 C 0.36806 0.57911 0.57833
 H513 H 0.40533 0.51476 0.68478
 H514 H 0.51696 0.57124 0.66391
 H515 H 0.53497 0.55233 0.69754
 H516 H 0.42312 0.49543 0.71826
 H517 H 0.45778 0.64190 0.57518
 H518 H 0.43575 0.66209 0.54406
 H519 H 0.32659 0.57583 0.55690
 H520 H 0.34908 0.55603 0.58794
 C521 C 0.48982 0.94071 0.67578
 C522 C 0.45288 0.91763 0.67171
 C523 C 0.42699 0.91547 0.68677
 C524 C 0.43800 0.93620 0.70589
 C525 C 0.47503 0.95941 0.71008
 C526 C 0.50086 0.96141 0.69490
 C527 C 0.44164 0.89545 0.65236
 C528 C 0.43237 0.87656 0.63629
 C529 C 0.42169 0.85405 0.61764
 C530 C 0.41269 0.83449 0.60187
 C531 C 0.40207 0.81072 0.58322
 C532 C 0.37237 0.80536 0.57048
 C533 C 0.36161 0.78159 0.55268
 C534 C 0.38044 0.76281 0.54739
 C535 C 0.41043 0.76862 0.56025
 C536 C 0.42112 0.79240 0.57802
 H537 H 0.51009 0.94242 0.66431
 H538 H 0.39834 0.89760 0.68381
 H539 H 0.41768 0.93420 0.71741
 H540 H 0.52957 0.97867 0.69797
 H541 H 0.35739 0.81938 0.57439
 H542 H 0.33838 0.77772 0.54318
 H543 H 0.42552 0.75461 0.55668
 H544 H 0.44413 0.79631 0.58780
 C545 C 0.08461 0.56893 0.68547
 C546 C 0.08292 0.54320 0.67040
 C547 C 0.06015 0.50610 0.67438
 C548 C 0.03930 0.49476 0.69341
 C549 C 0.04086 0.52045 0.70861
 C550 C 0.06375 0.55763 0.70450
 C551 C 0.10525 0.55485 0.65115
 C552 C 0.12433 0.56476 0.63518
 C553 C 0.14710 0.57655 0.61668
 C554 C 0.16690 0.58681 0.60104
 C555 C 0.19096 0.59933 0.58256
 C556 C 0.19686 0.57476 0.57024
 C557 C 0.22093 0.58708 0.55261
 C558 C 0.23947 0.62423 0.54707
 C559 C 0.23315 0.64866 0.55950
 C560 C 0.20906 0.63626 0.57711
 H561 H 0.10221 0.59770 0.68258
 H562 H 0.05880 0.48595 0.66289
 H563 H 0.02228 0.46595 0.69643
 H564 H 0.06539 0.57785 0.71603
 H565 H 0.18303 0.54612 0.57435
 H566 H 0.22519 0.56755 0.54344
 H567 H 0.24696 0.67742 0.55573
 H568 H 0.20475 0.65552 0.58656
 C569 C 0.44627 0.50296 0.82569
 C570 C 0.45555 0.53923 0.82952
 C571 C 0.47634 0.56598 0.81418
 C572 C 0.48778 0.55656 0.79507
 C573 C 0.47868 0.52027 0.79113
 C574 C 0.45769 0.49349 0.80655
 C575 C 0.44340 0.54913 0.84900
 C576 C 0.43338 0.55811 0.86509
 C577 C 0.42184 0.56939 0.88370
 C578 C 0.41215 0.57968 0.89938
 C579 C 0.40082 0.59272 0.91785
 C580 C 0.41954 0.62970 0.92318
 C581 C 0.40816 0.64276 0.94074
 C582 C 0.37779 0.61895 0.95326
 C583 C 0.35928 0.58174 0.94785
 C584 C 0.37074 0.56875 0.93026
 H585 H 0.43005 0.48202 0.83741
 H586 H 0.48362 0.59410 0.81697
 H587 H 0.50392 0.57760 0.78339
 H588 H 0.44995 0.46528 0.80368
 H589 H 0.44282 0.64850 0.91366
 H590 H 0.42302 0.67154 0.94440
 H591 H 0.33578 0.56268 0.95710
 H592 H 0.35600 0.54008 0.92624
 C593 C 0.05505 0.50610 0.82520
 C594 C 0.08349 0.54178 0.82714
 C595 C 0.09111 0.56620 0.80993
 C596 C 0.07031 0.55509 0.79088
 C597 C 0.04109 0.51930 0.78874
 C598 C 0.03416 0.49487 0.80618
 C599 C 0.10535 0.55319 0.84659
 C600 C 0.12395 0.56280 0.86276
 C601 C 0.14609 0.57407 0.88155
 C602 C 0.16535 0.58364 0.89744
 C603 C 0.18879 0.59496 0.91622
 C604 C 0.19424 0.62538 0.92831
 C605 C 0.21775 0.63683 0.94623
 C606 C 0.23616 0.61796 0.95228
 C607 C 0.23025 0.58724 0.94008
 C608 C 0.20674 0.57587 0.92219
 H609 H 0.04930 0.48677 0.83830
 H610 H 0.11314 0.59391 0.81124
 H611 H 0.07646 0.57502 0.77812
 H612 H 0.01352 0.46661 0.80489
 H613 H 0.18052 0.64040 0.92380
 H614 H 0.22171 0.66060 0.95522
 H615 H 0.24398 0.57209 0.94424
 H616 H 0.20276 0.55232 0.91292
 C617 C 0.43116 0.90766 0.81127
 C618 C 0.45592 0.91527 0.82825
 C619 C 0.49129 0.94420 0.82627
 C620 C 0.50189 0.96555 0.80740
 C621 C 0.47712 0.95857 0.79017
 C622 C 0.44163 0.92891 0.79238
 C623 C 0.44504 0.89295 0.84753
 C624 C 0.43553 0.87388 0.86353
 C625 C 0.42392 0.85115 0.88207
 C626 C 0.41359 0.83139 0.89775
 C627 C 0.40075 0.80742 0.91628
 C628 C 0.42499 0.80163 0.92896
 C629 C 0.41232 0.77778 0.94672
 C630 C 0.37514 0.75936 0.95202
 C631 C 0.35104 0.76552 0.93919
 C632 C 0.36379 0.78938 0.92147
 H633 H 0.40367 0.88529 0.81262
 H634 H 0.51086 0.94999 0.83920
 H635 H 0.52995 0.98656 0.80604
 H636 H 0.42144 0.92270 0.77979
 H637 H 0.45366 0.81542 0.92506
 H638 H 0.43161 0.77363 0.95620
 H639 H 0.32227 0.75180 0.94277
 H640 H 0.34477 0.79362 0.91174
 C641 C 0.55401 0.49801 0.82580
 C642 C 0.54465 0.46165 0.82935
 C643 C 0.52408 0.43525 0.81377
 C644 C 0.51295 0.44511 0.79470
 C645 C 0.52215 0.48149 0.79104
 C646 C 0.54290 0.50792 0.80670
 C647 C 0.55649 0.45131 0.84877
 C648 C 0.56630 0.44203 0.86483
 C649 C 0.57766 0.43047 0.88340
 C650 C 0.58727 0.42006 0.89905
 C651 C 0.59862 0.40701 0.91751
 C652 C 0.57998 0.37003 0.92282
 C653 C 0.59142 0.35702 0.94038
 C654 C 0.62175 0.38089 0.95292
 C655 C 0.64018 0.41810 0.94752
 C656 C 0.62867 0.43103 0.92993
 H657 H 0.57005 0.51868 0.83771
 H658 H 0.51675 0.40706 0.81633
 H659 H 0.49699 0.42434 0.78283
 H660 H 0.55070 0.53620 0.80406
 H661 H 0.55673 0.35118 0.91329
 H662 H 0.57663 0.32823 0.94404
 H663 H 0.66365 0.43721 0.95678
 H664 H 0.64334 0.45971 0.92593
 C665 C 0.91474 0.42651 0.81275
 C666 C 0.91661 0.45326 0.82705
 C667 C 0.93981 0.49004 0.82240
 C668 C 0.96113 0.50004 0.80354
 C669 C 0.95964 0.47329 0.78923
 C670 C 0.93605 0.43646 0.79390
 C671 C 0.89440 0.44295 0.84636
 C672 C 0.87560 0.43415 0.86244
 C673 C 0.85330 0.42371 0.88114
 C674 C 0.83398 0.41469 0.89701
 C675 C 0.81057 0.40383 0.91579
 C676 C 0.79250 0.42294 0.92147
 C677 C 0.76906 0.41195 0.93939
 C678 C 0.76336 0.38160 0.95190
 C679 C 0.78188 0.36272 0.94613
 C680 C 0.80531 0.37378 0.92819
 H681 H 0.89679 0.39798 0.81617
 H682 H 0.94133 0.51096 0.83330
 H683 H 0.97875 0.52860 0.80007
 H684 H 0.93443 0.41546 0.78304
 H685 H 0.79634 0.44621 0.91195
 H686 H 0.75524 0.42708 0.94333
 H687 H 0.77808 0.33922 0.95536
 H688 H 0.81912 0.35876 0.92391
 C689 C 0.56969 0.08577 0.81398
 C690 C 0.54334 0.08372 0.82862
 C691 C 0.50656 0.06008 0.82439
 C692 C 0.49616 0.03857 0.80557
 C693 C 0.52252 0.04033 0.79088
 C694 C 0.55936 0.06428 0.79517
 C695 C 0.55417 0.10627 0.84782
 C696 C 0.56370 0.12549 0.86375
 C697 C 0.57538 0.14837 0.88223
 C698 C 0.58580 0.16822 0.89787
 C699 C 0.59873 0.19230 0.91637
 C700 C 0.63571 0.21034 0.92152
 C701 C 0.64854 0.23427 0.93922
 C702 C 0.62450 0.24052 0.95205
 C703 C 0.58730 0.22208 0.94679
 C704 C 0.57454 0.19815 0.92907
 H705 H 0.59822 0.10404 0.81707
 H706 H 0.48594 0.05840 0.83556
 H707 H 0.46760 0.02066 0.80240
 H708 H 0.58007 0.06611 0.78403
 H709 H 0.65468 0.20604 0.91178
 H710 H 0.67733 0.24801 0.94276
 H711 H 0.56805 0.22629 0.95627
 H712 H 0.54586 0.18436 0.92520
   
