data_POSCAR
  _audit_creation_date              2014-09-24
  _audit_creation_method            'ToBaCCo'
  _symmetry_space_group_name_H-M    'P1'
  _symmetry_Int_Tables_number       1
  _symmetry_cell_setting            triclinic
  loop_
  _symmetry_equiv_pos_as_xyz
 x,y,z
_cell_length_a 47.3488
_cell_length_b 47.5097
_cell_length_c 8.6584
_cell_angle_alpha 90.002600
_cell_angle_beta 89.988200
_cell_angle_gamma 90.001000
loop_
  _atom_site_label
  _atom_site_type_symbol
  _atom_site_fract_x
  _atom_site_fract_y
  _atom_site_fract_z
O1 O 0.28099 0.22239 0.16242
 O2 O 0.22723 0.27712 0.09782
 O3 O 0.28091 0.27716 0.16293
 O4 O 0.22728 0.22228 0.09793
 O5 O 0.21772 0.22228 0.34694
 O6 O 0.27132 0.27713 0.41214
 O7 O 0.21765 0.27707 0.34704
 O8 O 0.27142 0.22233 0.41165
 Cu9 Cu 0.25513 0.24974 0.10570
 Cu10 Cu 0.24349 0.24970 0.40396
 C11 C 0.28546 0.21299 0.29755
 C12 C 0.21321 0.28649 0.21192
 C13 C 0.28533 0.28655 0.29815
 C14 C 0.21323 0.21282 0.21185
 O15 O 0.78110 0.27689 0.33552
 O16 O 0.72748 0.22204 0.40086
 O17 O 0.78118 0.22211 0.33563
 O18 O 0.72742 0.27686 0.40059
 O19 O 0.71783 0.27680 0.15140
 O20 O 0.77159 0.22207 0.08645
 O21 O 0.71791 0.22202 0.15191
 O22 O 0.77151 0.27688 0.08633
 Cu23 Cu 0.75533 0.24947 0.39270
 Cu24 Cu 0.74367 0.24943 0.09449
 C25 C 0.78552 0.28630 0.20033
 C26 C 0.71342 0.21257 0.28706
 C27 C 0.78564 0.21272 0.20045
 C28 C 0.71340 0.28622 0.28652
 O29 O 0.71896 0.72237 0.83585
 O30 O 0.77272 0.77710 0.90066
 O31 O 0.71903 0.77715 0.83556
 O32 O 0.77266 0.72227 0.90043
 O33 O 0.78223 0.72227 0.65146
 O34 O 0.72862 0.77712 0.58637
 O35 O 0.78231 0.77705 0.65146
 O36 O 0.72855 0.72231 0.58665
 Cu37 Cu 0.74482 0.74972 0.89267
 Cu38 Cu 0.75646 0.74969 0.59444
 C39 C 0.71451 0.71296 0.70073
 C40 C 0.78676 0.78646 0.78660
 C41 C 0.71461 0.78654 0.70036
 C42 C 0.78672 0.71281 0.78654
 O43 O 0.28161 0.77778 0.85029
 O44 O 0.22788 0.72304 0.91542
 O45 O 0.28156 0.72300 0.85001
 O46 O 0.22793 0.77785 0.91522
 O47 O 0.21834 0.77785 0.66628
 O48 O 0.27196 0.72301 0.60084
 O49 O 0.21828 0.72307 0.66624
 O50 O 0.27202 0.77783 0.60112
 Cu51 Cu 0.25578 0.75041 0.90727
 Cu52 Cu 0.24412 0.75044 0.60908
 C53 C 0.28606 0.78719 0.71515
 C54 C 0.21384 0.71367 0.80142
 C55 C 0.28598 0.71360 0.71481
 C56 C 0.21386 0.78731 0.80141
 C57 C 1.01493 0.08724 0.08441
 C58 C 0.98601 0.08741 0.07664
 C59 C 0.97767 0.05989 0.04870
 N60 N 1.00058 0.04303 0.03899
 C61 C 1.02341 0.05963 0.06057
 C62 C 0.94928 0.05088 0.03755
 C63 C 0.94056 0.02262 0.01606
 C64 C 0.91281 0.01351 0.02916
 C65 C 0.91288 -0.01500 0.00356
 C66 C 0.94067 -0.02273 -0.02475
 N67 N 0.95733 0.00043 -0.01944
 C68 C 0.94953 -0.05072 -0.05417
 C69 C 0.97796 -0.05972 -0.06083
 C70 C 0.98644 -0.08732 -0.08515
 C71 C 1.01536 -0.08750 -0.07712
 C72 C 1.02370 -0.05999 -0.04859
 N73 N 1.00079 -0.04314 -0.03874
 C74 C 1.05209 -0.05101 -0.03695
 C75 C 1.06082 -0.02275 -0.01527
 C76 C 1.08859 -0.01367 -0.02780
 C77 C 1.08852 0.01485 -0.00247
 C78 C 1.06071 0.02262 0.02515
 N79 N 1.04404 -0.00055 0.01967
 C80 C 1.05185 0.05062 0.05409
 H81 H 1.02818 0.10544 0.10448
 H82 H 0.97267 0.10572 0.09113
 H83 H 1.02289 -0.00148 0.04940
 H84 H 0.89439 0.02603 0.05663
 H85 H 0.89451 -0.02854 0.00737
 H86 H 0.97319 -0.10550 -0.10569
 H87 H 1.02870 -0.10580 -0.09180
 H88 H 1.10690 0.02838 -0.00599
 H89 H 0.97846 0.00139 -0.04974
 H90 H 1.10703 -0.02621 -0.05470
 C91 C 0.51437 0.58736 0.57837
 C92 C 0.48545 0.58718 0.58624
 C93 C 0.47697 0.55958 0.56173
 N94 N 0.49980 0.54301 0.53959
 C95 C 0.52271 0.55986 0.54965
 C96 C 0.44853 0.55058 0.55501
 C97 C 0.43968 0.52259 0.52556
 C98 C 0.41188 0.51484 0.49764
 C99 C 0.41182 0.48633 0.47186
 C100 C 0.43958 0.47725 0.48438
 N101 N 0.45635 0.49943 0.51975
 C102 C 0.44831 0.44900 0.46233
 C103 C 0.47671 0.44002 0.45071
 C104 C 0.48505 0.41252 0.42211
 C105 C 0.51397 0.41271 0.41411
 C106 C 0.52244 0.44031 0.43850
 N107 N 0.49961 0.45688 0.46060
 C108 C 0.55088 0.44931 0.44507
 C109 C 0.55974 0.47730 0.47449
 C110 C 0.58754 0.48505 0.50227
 C111 C 0.58760 0.51355 0.52817
 C112 C 0.55984 0.52264 0.51581
 N113 N 0.54306 0.50046 0.48041
 C114 C 0.55110 0.55089 0.53804
 H115 H 0.52771 0.60566 0.59323
 H116 H 0.47219 0.60535 0.60687
 H117 H 0.52191 0.50140 0.45071
 H118 H 0.39350 0.52837 0.49428
 H119 H 0.39338 0.47381 0.44465
 H120 H 0.47171 0.39421 0.40736
 H121 H 0.52722 0.39453 0.39355
 H122 H 0.60604 0.52608 0.55535
 H123 H 0.47749 0.49848 0.54963
 H124 H 0.60592 0.47152 0.50554
 C125 C 0.01384 0.41292 0.08415
 C126 C -0.01507 0.41270 0.07633
 C127 C -0.02346 0.44021 0.04845
 N128 N -0.00058 0.45711 0.03882
 C129 C 0.02227 0.44054 0.06037
 C130 C -0.05187 0.44916 0.03738
 C131 C -0.06064 0.47741 0.01583
 C132 C -0.08840 0.48646 0.02903
 C133 C -0.08838 0.51498 0.00346
 C134 C -0.06061 0.52276 -0.02496
 N135 N -0.04391 0.49962 -0.01972
 C136 C -0.05181 0.55076 -0.05443
 C137 C -0.02338 0.55981 -0.06114
 C138 C -0.01495 0.58741 -0.08560
 C139 C 0.01397 0.58764 -0.07766
 C140 C 0.02235 0.56015 -0.04899
 N141 N -0.00053 0.54326 -0.03905
 C142 C 0.05076 0.55122 -0.03734
 C143 C 0.05954 0.52298 -0.01547
 C144 C 0.08732 0.51395 -0.02795
 C145 C 0.08730 0.48543 -0.00251
 C146 C 0.05951 0.47762 0.02508
 N147 N 0.04280 0.50075 0.01951
 C148 C 0.05070 0.44960 0.05394
 H149 H 0.02712 0.39474 0.10423
 H150 H -0.02838 0.39436 0.09073
 H151 H 0.02164 0.50164 0.04916
 H152 H -0.10681 0.47391 0.05653
 H153 H -0.10678 0.52849 0.00737
 H154 H -0.02822 0.60557 -0.10616
 H155 H 0.02728 0.60596 -0.09245
 H156 H 0.10571 0.47193 -0.00602
 H157 H -0.02279 0.49869 -0.05013
 H158 H 0.10574 0.52652 -0.05495
 C159 C 0.51483 1.08740 0.41385
 C160 C 0.48591 1.08762 0.42147
 C161 C 0.47752 1.06014 0.45014
 N162 N 0.50040 1.04325 0.46043
 C163 C 0.52326 1.05980 0.43854
 C164 C 0.44911 1.05119 0.46153
 C165 C 0.44034 1.02296 0.48378
 C166 C 0.41256 1.01391 0.47142
 C167 C 0.41258 0.98541 0.49748
 C168 C 0.44037 0.97763 0.52533
 N169 N 0.45708 1.00075 0.51926
 C170 C 0.44918 0.94963 0.55492
 C171 C 0.47760 0.94057 0.56136
 C172 C 0.48603 0.91296 0.58559
 C173 C 0.51495 0.91272 0.57748
 C174 C 0.52334 0.94022 0.54903
 N175 N 0.50046 0.95711 0.53925
 C176 C 0.55175 0.94915 0.53744
 C177 C 0.56052 0.97740 0.51577
 C178 C 0.58829 0.98645 0.52853
 C179 C 0.58827 1.01496 0.50297
 C180 C 0.56049 1.02275 0.47495
 N181 N 0.54379 0.99962 0.48039
 C182 C 0.55168 1.05076 0.44550
 H183 H 0.52811 1.10556 0.39335
 H184 H 0.47259 1.10594 0.40644
 H185 H 0.52265 0.99870 0.45040
 H186 H 0.39414 1.02645 0.44421
 H187 H 0.39418 0.97191 0.49431
 H188 H 0.47275 0.89480 0.60612
 H189 H 0.52826 0.89440 0.59211
 H190 H 0.60667 1.02847 0.50659
 H191 H 0.47823 1.00167 0.54899
 H192 H 0.60670 0.97389 0.55577
 C193 C 1.16673 0.16017 0.01843
 C194 C 1.15142 0.14982 0.14441
 C195 C 1.15663 0.16036 0.29243
 C196 C 1.17706 0.18118 0.31482
 C197 C 1.19269 0.19185 0.18898
 C198 C 1.18722 0.18102 0.04023
 C199 C 1.13029 0.12842 0.12235
 C200 C 1.11250 0.11054 0.10542
 C201 C 1.09157 0.08967 0.08696
 C202 C 1.07359 0.07191 0.07188
 H203 H 1.16284 0.15214 -0.09674
 H204 H 1.14489 0.15249 0.39078
 H205 H 1.18055 0.18887 0.43107
 H206 H 1.19871 0.18861 -0.05965
 C207 C 0.66651 0.65978 0.50583
 C208 C 0.65135 0.64928 0.63213
 C209 C 0.65687 0.65954 0.78053
 C210 C 0.67743 0.68024 0.80281
 C211 C 0.69279 0.69097 0.67667
 C212 C 0.68711 0.68050 0.52781
 C213 C 0.63004 0.62806 0.60988
 C214 C 0.61211 0.61033 0.59255
 C215 C 0.59103 0.58964 0.57324
 C216 C 0.57295 0.57202 0.55720
 H217 H 0.66238 0.65199 0.39041
 H218 H 0.64526 0.65156 0.87911
 H219 H 0.68128 0.68783 0.91886
 H220 H 0.69854 0.68833 0.42835
 C221 C -0.16675 0.33970 0.00516
 C222 C -0.15165 0.35030 0.13139
 C223 C -0.15709 0.34000 0.27980
 C224 C -0.17754 0.31918 0.30216
 C225 C -0.19285 0.30837 0.17610
 C226 C -0.18724 0.31887 0.02722
 C227 C -0.13049 0.37166 0.10911
 C228 C -0.11266 0.38949 0.09178
 C229 C -0.09169 0.41029 0.07247
 C230 C -0.07367 0.42798 0.05645
 H231 H -0.16268 0.34752 -0.11025
 H232 H -0.14552 0.34805 0.37834
 H233 H -0.18133 0.31157 0.41821
 H234 H -0.19864 0.31098 -0.07219
 C235 C 0.34368 0.84062 0.79500
 C236 C 0.34917 0.85093 0.64667
 C237 C 0.33401 0.84045 0.52036
 C238 C 0.31342 0.81971 0.54227
 C239 C 0.30777 0.80919 0.69106
 C240 C 0.32313 0.81990 0.81720
 C241 C 0.37044 0.87220 0.62462
 C242 C 0.38833 0.88997 0.60757
 C243 C 0.40936 0.91072 0.58881
 C244 C 0.42740 0.92841 0.57331
 H245 H 0.35529 0.84859 0.89358
 H246 H 0.33811 0.84828 0.40499
 H247 H 0.30198 0.81190 0.44282
 H248 H 0.31930 0.81228 0.93320
 C249 C -0.16679 0.66020 -0.01977
 C250 C -0.15147 0.64983 -0.14567
 C251 C -0.15668 0.66034 -0.29376
 C252 C -0.17711 0.68116 -0.31628
 C253 C -0.19274 0.69185 -0.19052
 C254 C -0.18728 0.68104 -0.04172
 C255 C -0.13033 0.62844 -0.12342
 C256 C -0.11253 0.61058 -0.10632
 C257 C -0.09158 0.58974 -0.08765
 C258 C -0.07358 0.57200 -0.07239
 H259 H -0.16290 0.65220 0.09547
 H260 H -0.14491 0.65246 -0.39203
 H261 H -0.18058 0.68883 -0.43255
 H262 H -0.19877 0.68864 0.05812
 C263 C 0.34323 1.15968 0.21803
 C264 C 0.34878 1.14947 0.36650
 C265 C 0.33358 1.15995 0.49271
 C266 C 0.31292 1.18061 0.47059
 C267 C 0.30722 1.19104 0.32167
 C268 C 0.32261 1.18033 0.19560
 C269 C 0.37013 1.12831 0.38889
 C270 C 0.38809 1.11062 0.40641
 C271 C 0.40920 1.08996 0.42596
 C272 C 0.42729 1.07235 0.44214
 H273 H 0.35487 1.15172 0.11950
 H274 H 0.33772 1.15220 0.60818
 H275 H 0.30147 1.18843 0.57003
 H276 H 0.31875 1.18789 0.07951
 C277 C 1.15716 -0.16031 -0.27840
 C278 C 1.15198 -0.14980 -0.13029
 C279 C 1.16735 -0.16014 -0.00452
 C280 C 1.18786 -0.18095 -0.02664
 C281 C 1.19330 -0.19176 -0.17549
 C282 C 1.17762 -0.18110 -0.30111
 C283 C 1.13080 -0.12845 -0.10785
 C284 C 1.11296 -0.11063 -0.09048
 C285 C 1.09197 -0.08985 -0.07138
 C286 C 1.07393 -0.07217 -0.05567
 H287 H 1.14536 -0.15245 -0.37658
 H288 H 1.16347 -0.15214 0.11075
 H289 H 1.19939 -0.18853 0.07308
 H290 H 1.18108 -0.18877 -0.41741
 C291 C 0.65590 0.33978 0.20652
 C292 C 0.65049 0.35018 0.35475
 C293 C 0.66564 0.33968 0.48107
 C294 C 0.68614 0.31885 0.45925
 C295 C 0.69173 0.30826 0.31054
 C296 C 0.67636 0.31897 0.18440
 C297 C 0.62934 0.37156 0.37667
 C298 C 0.61153 0.38943 0.39351
 C299 C 0.59060 0.41028 0.41194
 C300 C 0.57262 0.42804 0.42709
 H301 H 0.64430 0.34775 0.10794
 H302 H 0.66160 0.34758 0.59636
 H303 H 0.69759 0.31105 0.55870
 H304 H 0.68013 0.31129 0.06847
 C305 C 0.84434 -0.16005 -0.29304
 C306 C 0.84978 -0.14972 -0.14471
 C307 C 0.83462 -0.16023 -0.01845
 C308 C 0.81407 -0.18101 -0.04045
 C309 C 0.80845 -0.19153 -0.18927
 C310 C 0.82383 -0.18080 -0.31534
 C311 C 0.87098 -0.12840 -0.12258
 C312 C 0.88882 -0.11057 -0.10562
 C313 C 0.90979 -0.08974 -0.08715
 C314 C 0.92779 -0.07200 -0.07202
 H315 H 0.85596 -0.15207 -0.39156
 H316 H 0.83868 -0.15239 0.09693
 H317 H 0.80262 -0.18883 0.05896
 H318 H 0.82004 -0.18844 -0.43136
 C319 C 0.33318 0.33977 0.49387
 C320 C 0.34830 0.35039 0.36775
 C321 C 0.34282 0.34018 0.21919
 C322 C 0.32233 0.31942 0.19657
 C323 C 0.30699 0.30858 0.32252
 C324 C 0.31264 0.31900 0.47154
 C325 C 0.36953 0.37168 0.39031
 C326 C 0.38740 0.38946 0.40785
 C327 C 0.40842 0.41020 0.42726
 C328 C 0.42648 0.42785 0.44327
 H329 H 0.33727 0.34751 0.60942
 H330 H 0.35441 0.34824 0.12075
 H331 H 0.31851 0.31187 0.08041
 H332 H 0.30123 0.31109 0.57088
 C333 C 0.16595 0.66040 -0.00343
 C334 C 0.15077 0.64990 -0.12961
 C335 C 0.15622 0.66021 -0.27799
 C336 C 0.17674 0.68095 -0.30039
 C337 C 0.19213 0.69167 -0.17437
 C338 C 0.18652 0.68116 -0.02552
 C339 C 0.12953 0.62861 -0.10740
 C340 C 0.11165 0.61083 -0.09033
 C341 C 0.09062 0.59007 -0.07150
 C342 C 0.07257 0.57240 -0.05594
 H343 H 0.16188 0.65257 0.11197
 H344 H 0.14459 0.65223 -0.37649
 H345 H 0.18054 0.68857 -0.41641
 H346 H 0.19797 0.68898 0.07386
 C347 C 0.66683 1.16008 0.48114
 C348 C 0.65149 1.14972 0.35531
 C349 C 0.65672 1.16020 0.20717
 C350 C 0.67720 1.18096 0.18450
 C351 C 0.69285 1.19164 0.31018
 C352 C 0.68736 1.18087 0.45906
 C353 C 0.63030 1.12838 0.37758
 C354 C 0.61246 1.11055 0.39450
 C355 C 0.59148 1.08973 0.41285
 C356 C 0.57346 1.07200 0.42781
 H357 H 0.66291 1.15211 0.59641
 H358 H 0.64495 1.15231 0.10893
 H359 H 0.68070 1.18860 0.06817
 H360 H 0.69886 1.18847 0.55885
 C361 C 0.15575 0.34010 0.29175
 C362 C 0.15034 0.35046 0.14344
 C363 C 0.16547 0.33992 0.01716
 C364 C 0.18597 0.31909 0.03909
 C365 C 0.19155 0.30854 0.18787
 C366 C 0.17620 0.31929 0.31398
 C367 C 0.12920 0.37185 0.12142
 C368 C 0.11140 0.38973 0.10460
 C369 C 0.09046 0.41059 0.08635
 C370 C 0.07247 0.42834 0.07148
 H371 H 0.14416 0.34811 0.39031
 H372 H 0.16143 0.34780 -0.09818
 H373 H 0.19740 0.31125 -0.06034
 H374 H 0.17998 0.31164 0.42998
 C375 C 0.66677 0.83978 0.50484
 C376 C 0.65165 0.85040 0.63101
 C377 C 0.65714 0.84018 0.77953
 C378 C 0.67763 0.81941 0.80206
 C379 C 0.69295 0.80858 0.67605
 C380 C 0.68730 0.81900 0.52707
 C381 C 0.63044 0.87171 0.60856
 C382 C 0.61259 0.88951 0.59116
 C383 C 0.59159 0.91029 0.57202
 C384 C 0.57355 0.92797 0.55623
 H385 H 0.66267 0.84754 0.38931
 H386 H 0.64555 0.84824 0.87800
 H387 H 0.68145 0.81186 0.91820
 H388 H 0.69871 0.81110 0.42771
 C389 C 0.83372 0.15967 0.00494
 C390 C 0.84892 0.14918 0.13108
 C391 C 0.84340 0.15940 0.27956
 C392 C 0.82279 0.18005 0.30212
 C393 C 0.80739 0.19077 0.17615
 C394 C 0.81307 0.18034 0.02719
 C395 C 0.87026 0.12800 0.10865
 C396 C 0.88822 0.11030 0.09130
 C397 C 0.90933 0.08963 0.07220
 C398 C 0.92743 0.07202 0.05642
 H399 H 0.83784 0.15191 -0.11056
 H400 H 0.85505 0.15143 0.37801
 H401 H 0.81895 0.18762 0.41824
 H402 H 0.80161 0.18816 -0.07215
 C403 C 0.33376 0.66024 0.51953
 C404 C 0.34889 0.64967 0.64574
 C405 C 0.34345 0.65998 0.79414
 C406 C 0.32298 0.68077 0.81654
 C407 C 0.30764 0.69156 0.69053
 C408 C 0.31325 0.68105 0.54163
 C409 C 0.37005 0.62831 0.62355
 C410 C 0.38786 0.61045 0.60659
 C411 C 0.40881 0.58960 0.58810
 C412 C 0.42679 0.57185 0.57293
 H413 H 0.33783 0.65242 0.40411
 H414 H 0.35504 0.65195 0.89264
 H415 H 0.31919 0.68838 0.93261
 H416 H 0.30182 0.68892 0.44227
   
