data_POSCAR
  _audit_creation_date              2014-09-24
  _audit_creation_method            'ToBaCCo'
  _symmetry_space_group_name_H-M    'P1'
  _symmetry_Int_Tables_number       1
  _symmetry_cell_setting            triclinic
  loop_
  _symmetry_equiv_pos_as_xyz
 x,y,z
_cell_length_a 28.5044
_cell_length_b 28.5223
_cell_length_c 28.5036
_cell_angle_alpha 89.408200
_cell_angle_beta 90.989600
_cell_angle_gamma 89.459500
loop_
  _atom_site_label
  _atom_site_type_symbol
  _atom_site_fract_x
  _atom_site_fract_y
  _atom_site_fract_z
O1 O 0.56454 0.49881 0.03837
 O2 O 0.43515 0.49988 0.03874
 O3 O 0.49988 0.43481 0.03852
 O4 O 0.49982 0.56382 0.03855
 O5 O 0.49824 0.56467 -0.03906
 O6 O 0.49831 0.43566 -0.03909
 O7 O 0.43357 0.50072 -0.03885
 O8 O 0.56297 0.49965 -0.03923
 Cu9 Cu 0.50000 0.49924 0.04637
 Cu10 Cu 0.49811 0.50025 -0.04688
 C11 C 0.58560 0.49912 -0.00049
 C12 C 0.41250 0.50048 0.00002
 C13 C 0.49907 0.41347 -0.00029
 C14 C 0.49907 0.58601 -0.00025
 O15 O -0.03863 0.56556 0.49901
 O16 O -0.03853 0.43630 0.49913
 O17 O -0.03882 0.50037 0.56364
 O18 O -0.03830 0.50150 0.43449
 O19 O 0.03930 0.50080 0.43615
 O20 O 0.03878 0.49967 0.56529
 O21 O 0.03907 0.43559 0.50079
 O22 O 0.03896 0.56486 0.50067
 Cu23 Cu -0.04639 0.50100 0.49890
 Cu24 Cu 0.04685 0.50016 0.50089
 C25 C 0.00015 0.58705 0.49986
 C26 C 0.00028 0.41412 0.49996
 C27 C -0.00010 0.49987 0.58626
 C28 C 0.00059 0.50132 0.41353
 O29 O 0.50016 0.03829 0.56519
 O30 O 0.49927 0.03829 0.43590
 O31 O 0.43519 0.03824 0.49987
 O32 O 0.56425 0.03826 0.50121
 O33 O 0.56502 -0.03930 0.50205
 O34 O 0.43597 -0.03932 0.50070
 O35 O 0.50004 -0.03926 0.43673
 O36 O 0.50093 -0.03925 0.56603
 Cu37 Cu 0.49965 0.04611 0.50047
 Cu38 Cu 0.50057 -0.04712 0.50146
 C39 C 0.50068 -0.00047 0.58745
 C40 C 0.49950 -0.00048 0.41449
 C41 C 0.41382 -0.00055 0.50005
 C42 C 0.58640 -0.00052 0.50184
 C43 C 0.49838 0.12141 -0.08848
 C44 C 0.50113 0.08771 -0.12224
 C45 C 0.50160 0.04476 -0.09901
 N46 N 0.49961 0.05127 -0.05219
 C47 C 0.49774 0.09807 -0.04557
 C48 C 0.50259 0.00078 -0.12150
 C49 C 0.50168 -0.04318 -0.09784
 C50 C 0.49486 -0.08560 -0.12021
 C51 C 0.49472 -0.11972 -0.08595
 C52 C 0.50147 -0.09746 -0.04334
 N53 N 0.50646 -0.05083 -0.05098
 C54 C 0.50222 -0.12100 0.00073
 C55 C 0.50139 -0.09862 0.04478
 C56 C 0.50073 -0.12196 0.08769
 C57 C 0.49809 -0.08826 0.12146
 C58 C 0.49770 -0.04530 0.09823
 N59 N 0.49963 -0.05182 0.05141
 C60 C 0.49682 -0.00132 0.12072
 C61 C 0.49767 0.04263 0.09706
 C62 C 0.50450 0.08506 0.11941
 C63 C 0.50452 0.11918 0.08515
 C64 C 0.49771 0.09691 0.04256
 N65 N 0.49278 0.05028 0.05021
 C66 C 0.49683 0.12046 -0.00152
 H67 H 0.49729 0.15887 -0.09491
 H68 H 0.50238 0.09423 -0.15967
 H69 H 0.48331 0.02573 0.02535
 H70 H 0.48958 -0.09142 -0.15738
 H71 H 0.48935 -0.15673 -0.09183
 H72 H 0.50173 -0.15942 0.09411
 H73 H 0.49685 -0.09478 0.15889
 H74 H 0.50986 0.15620 0.09102
 H75 H 0.51589 -0.02628 -0.02611
 H76 H 0.50984 0.09088 0.15657
 C77 C -0.08579 0.52157 0.88015
 C78 C -0.11962 0.52155 0.91382
 C79 C -0.09749 0.50800 0.95553
 N80 N -0.05141 0.49961 0.94846
 C81 C -0.04415 0.50803 0.90243
 C82 C -0.12028 0.50098 0.99861
 C83 C -0.09567 0.49324 1.04155
 C84 C -0.11567 0.47642 1.08233
 C85 C -0.08115 0.47670 1.11661
 C86 C -0.04097 0.49369 1.09586
 N87 N -0.05013 0.50376 1.05012
 C88 C 0.00182 0.50216 1.12001
 C89 C 0.04473 0.50945 1.09710
 C90 C 0.08599 0.52353 1.11897
 C91 C 0.11982 0.52346 1.08529
 C92 C 0.09807 0.50935 1.04401
 N93 N 0.05222 0.50066 1.05134
 C94 C 0.12107 0.50207 1.00115
 C95 C 0.09668 0.49368 0.95847
 C96 C 0.11716 0.47661 0.91822
 C97 C 0.08264 0.47623 0.88395
 C98 C 0.04199 0.49306 0.90417
 N99 N 0.05085 0.50369 0.94958
 C100 C -0.00103 0.50092 0.87975
 H101 H -0.09130 0.53038 0.84343
 H102 H -0.15631 0.53036 0.90818
 H103 H 0.02842 0.52181 0.97148
 H104 H -0.15152 0.46534 1.08700
 H105 H -0.08529 0.46591 1.15280
 H106 H 0.09126 0.53271 1.15541
 H107 H 0.15627 0.53260 1.09066
 H108 H 0.08709 0.46511 0.84809
 H109 H -0.02822 0.52185 1.02764
 H110 H 0.15332 0.46581 0.91389
 C111 C 0.12167 -0.08877 0.49786
 C112 C 0.08803 -0.12264 0.50056
 C113 C 0.04508 -0.09947 0.50139
 N114 N 0.05154 -0.05261 0.49963
 C115 C 0.09830 -0.04589 0.49759
 C116 C 0.00110 -0.12200 0.50258
 C117 C -0.04286 -0.09829 0.50222
 C118 C -0.08559 -0.12037 0.49568
 C119 C -0.11966 -0.08610 0.49605
 C120 C -0.09705 -0.04376 0.50280
 N121 N -0.05024 -0.05161 0.50732
 C122 C -0.12048 0.00028 0.50397
 C123 C -0.09808 0.04435 0.50313
 C124 C -0.12145 0.08723 0.50268
 C125 C -0.08783 0.12109 0.49986
 C126 C -0.04487 0.09793 0.49915
 N127 N -0.05132 0.05107 0.50109
 C128 C -0.00089 0.12046 0.49798
 C129 C 0.04306 0.09674 0.49852
 C130 C 0.08577 0.11881 0.50526
 C131 C 0.11983 0.08454 0.50501
 C132 C 0.09725 0.04221 0.49810
 N133 N 0.05046 0.05006 0.49340
 C134 C 0.12070 -0.00182 0.49692
 H135 H 0.15911 -0.09513 0.49659
 H136 H 0.09458 -0.16007 0.50160
 H137 H 0.02557 0.02553 0.48392
 H138 H -0.09168 -0.15734 0.49026
 H139 H -0.15689 -0.09176 0.49100
 H140 H -0.15890 0.09359 0.50390
 H141 H -0.09438 0.15852 0.49868
 H142 H 0.15705 0.09020 0.51022
 H143 H -0.02532 -0.02705 0.51662
 H144 H 0.09183 0.15577 0.51074
 C145 C -0.27109 0.49950 0.99918
 C146 C -0.24653 0.53386 1.02404
 C147 C -0.19746 0.53433 1.02384
 C148 C -0.36400 0.49905 0.99937
 C149 C -0.19725 0.46598 0.97398
 C150 C -0.24633 0.46556 0.97418
 C151 C -0.32166 0.49917 0.99928
 C152 C -0.17247 0.50045 0.99873
 H153 H -0.26529 0.56029 1.04351
 H154 H -0.17891 0.56115 1.04312
 H155 H -0.17853 0.43945 0.95461
 H156 H -0.26493 0.43878 0.95486
 C157 C 0.27190 0.50131 1.00056
 C158 C 0.24651 0.53533 0.97469
 C159 C 0.19743 0.53560 0.97492
 C160 C 0.36482 0.50081 1.00017
 C161 C 0.19888 0.46774 1.02688
 C162 C 0.24796 0.46753 1.02664
 C163 C 0.32247 0.50106 1.00033
 C164 C 0.17326 0.50185 1.00108
 H165 H 0.26464 0.56163 0.95436
 H166 H 0.17823 0.56213 0.95481
 H167 H 0.18080 0.44132 1.04706
 H168 H 0.26721 0.44101 1.04674
 C169 C 0.00019 -0.27252 0.50078
 C170 C -0.00976 -0.24860 0.54219
 C171 C -0.00947 -0.19957 0.54274
 C172 C 0.00012 -0.36533 0.50004
 C173 C 0.01058 -0.19813 0.46040
 C174 C 0.01031 -0.24717 0.45989
 C175 C 0.00013 -0.32303 0.50032
 C176 C 0.00084 -0.17408 0.50190
 H177 H -0.01767 -0.26784 0.57401
 H178 H -0.01718 -0.18144 0.57495
 H179 H 0.01842 -0.17888 0.42859
 H180 H 0.01801 -0.26528 0.42766
 C181 C 0.00013 0.27098 0.49934
 C182 C -0.01020 0.24575 0.54026
 C183 C -0.01052 0.19672 0.53988
 C184 C 0.00030 0.36378 0.49986
 C185 C 0.00990 0.19790 0.45764
 C186 C 0.01024 0.24693 0.45806
 C187 C 0.00026 0.32148 0.49967
 C188 C -0.00062 0.17253 0.49851
 H189 H -0.01802 0.26398 0.57240
 H190 H -0.01852 0.17757 0.57172
 H191 H 0.01774 0.17967 0.42552
 H192 H 0.01832 0.26606 0.42622
 C193 C 0.50151 -0.00017 -0.27208
 C194 C 0.54279 -0.01128 -0.24680
 C195 C 0.54313 -0.01095 -0.19774
 C196 C 0.50097 -0.00044 -0.36491
 C197 C 0.46083 0.01151 -0.19901
 C198 C 0.46053 0.01119 -0.24807
 C199 C 0.50122 -0.00035 -0.32259
 C200 C 0.50219 0.00059 -0.17359
 H201 H 0.57467 -0.02016 -0.26501
 H202 H 0.57522 -0.01959 -0.17853
 H203 H 0.42895 0.02029 -0.18079
 H204 H 0.42840 0.01979 -0.26726
 C205 C 0.49834 -0.00059 0.27130
 C206 C 0.45701 0.01062 0.24616
 C207 C 0.45653 0.01038 0.19710
 C208 C 0.49911 -0.00049 0.36414
 C209 C 0.53880 -0.01217 0.19810
 C210 C 0.53924 -0.01194 0.24716
 C211 C 0.49877 -0.00051 0.32182
 C212 C 0.49739 -0.00115 0.17282
 H213 H 0.42519 0.01950 0.26448
 H214 H 0.42439 0.01909 0.17800
 H215 H 0.57062 -0.02095 0.17976
 H216 H 0.57141 -0.02061 0.26624
 C217 C 0.50023 -0.27118 -0.00009
 C218 C 0.45918 -0.24587 0.00933
 C219 C 0.45977 -0.19689 0.00959
 C220 C 0.49931 -0.36378 -0.00023
 C221 C 0.54251 -0.19840 -0.00905
 C222 C 0.54187 -0.24738 -0.00932
 C223 C 0.49967 -0.32156 -0.00019
 C224 C 0.50149 -0.17295 0.00054
 H225 H 0.42679 -0.26398 0.01646
 H226 H 0.42786 -0.17758 0.01687
 H227 H 0.57487 -0.18027 -0.01621
 H228 H 0.57379 -0.26666 -0.01669
 C229 C 0.49829 0.27065 -0.00057
 C230 C 0.45675 0.24668 0.00871
 C231 C 0.45629 0.19770 0.00837
 C232 C 0.49892 0.36326 -0.00032
 C233 C 0.53899 0.19651 -0.01042
 C234 C 0.53941 0.24550 -0.01010
 C235 C 0.49868 0.32104 -0.00041
 C236 C 0.49737 0.17241 -0.00132
 H237 H 0.42478 0.26584 0.01615
 H238 H 0.42401 0.17945 0.01558
 H239 H 0.57096 0.17733 -0.01777
 H240 H 0.57172 0.26373 -0.01727
 C241 C -0.27073 -0.00039 0.50292
 C242 C -0.24676 0.00999 0.46168
 C243 C -0.19775 0.01021 0.46197
 C244 C -0.36337 -0.00051 0.50228
 C245 C -0.19655 -0.01040 0.54480
 C246 C -0.24557 -0.01063 0.54446
 C247 C -0.32113 -0.00048 0.50260
 C248 C -0.17245 0.00014 0.50359
 H249 H -0.26593 0.01791 0.42937
 H250 H -0.17947 0.01823 0.42992
 H251 H -0.17736 -0.01836 0.57707
 H252 H -0.26383 -0.01875 0.57652
 C253 C 0.27095 -0.00091 0.49854
 C254 C 0.24593 0.00953 0.45696
 C255 C 0.19691 0.00919 0.45643
 C256 C 0.36359 -0.00059 0.49950
 C257 C 0.19783 -0.01194 0.53913
 C258 C 0.24684 -0.01161 0.53962
 C259 C 0.32135 -0.00070 0.49905
 C260 C 0.17267 -0.00167 0.49748
 H261 H 0.26430 0.01789 0.42503
 H262 H 0.17782 0.01731 0.42413
 H263 H 0.17944 -0.02020 0.57106
 H264 H 0.26591 -0.01968 0.57196
 C265 C 0.00127 0.50189 1.27053
 C266 C -0.02403 0.53626 1.24509
 C267 C -0.02380 0.53638 1.19606
 C268 C 0.00081 0.50160 1.36325
 C269 C 0.02701 0.46766 1.19775
 C270 C 0.02678 0.46760 1.24678
 C271 C 0.00101 0.50177 1.32098
 C272 C 0.00178 0.50211 1.17209
 H273 H -0.04389 0.56293 1.26314
 H274 H -0.04345 0.56316 1.17674
 H275 H 0.04673 0.44087 1.17975
 H276 H 0.04641 0.44082 1.26615
 C277 C -0.00052 0.49988 0.72925
 C278 C -0.02503 0.46546 0.75390
 C279 C -0.02522 0.46574 0.80293
 C280 C -0.00029 0.49968 0.63654
 C281 C 0.02367 0.53489 0.80281
 C282 C 0.02386 0.53456 0.75379
 C283 C -0.00041 0.49969 0.67880
 C284 C -0.00094 0.50053 0.82768
 H285 H -0.04396 0.43846 0.73523
 H286 H -0.04419 0.43888 0.82164
 H287 H 0.04257 0.56194 0.82143
 H288 H 0.04294 0.56133 0.73505
   
