data_POSCAR
  _audit_creation_date              2014-09-24
  _audit_creation_method            'ToBaCCo'
  _symmetry_space_group_name_H-M    'P1'
  _symmetry_Int_Tables_number       1
  _symmetry_cell_setting            triclinic
  loop_
  _symmetry_equiv_pos_as_xyz
 x,y,z
_cell_length_a 37.1629
_cell_length_b 33.3831
_cell_length_c 39.1194
_cell_angle_alpha 88.851700
_cell_angle_beta 90.433300
_cell_angle_gamma 90.475900
loop_
  _atom_site_label
  _atom_site_type_symbol
  _atom_site_fract_x
  _atom_site_fract_y
  _atom_site_fract_z
C1 C 0.32172 0.38382 1.34968
 C2 C 0.34061 0.35575 1.37015
 C3 C 0.37019 0.33444 1.35769
 C4 C 0.38068 0.34174 1.32349
 C5 C 0.36311 0.37066 1.30285
 C6 C 0.33403 0.39175 1.31627
 H7 H 0.33175 0.35000 1.39604
 H8 H 0.40377 0.32661 1.31328
 H9 H 0.31949 0.41233 1.29959
 C10 C 1.18373 0.61970 0.84061
 C11 C 1.17192 0.65675 0.85296
 C12 C 1.14152 0.67606 0.83940
 C13 C 1.12156 0.65757 0.81350
 C14 C 1.13245 0.62067 0.80054
 C15 C 1.16336 0.60189 0.81416
 H16 H 1.18523 0.67024 0.87461
 H17 H 1.09825 0.67251 0.80259
 H18 H 1.17184 0.57403 0.80319
 C19 C 0.70032 -0.11886 0.17171
 C20 C 0.68342 -0.09899 0.19888
 C21 C 0.65145 -0.11369 0.21306
 C22 C 0.63603 -0.14884 0.20102
 C23 C 0.65115 -0.16911 0.17359
 C24 C 0.68274 -0.15326 0.15841
 H25 H 0.69396 -0.07107 0.20851
 H26 H 0.61104 -0.15933 0.21235
 H27 H 0.69516 -0.17021 0.13849
 C28 C -0.18723 1.10756 -0.36160
 C29 C -0.17740 1.08607 -0.33200
 C30 C -0.15240 1.10211 -0.30909
 C31 C -0.13678 1.13977 -0.31623
 C32 C -0.14538 1.16133 -0.34643
 C33 C -0.17107 1.14476 -0.36894
 H34 H -0.19040 1.05760 -0.32611
 H35 H -0.11623 1.15099 -0.29904
 H36 H -0.17968 1.16124 -0.39166
 C37 C 0.70475 0.61393 0.65814
 C38 C 0.69139 0.65009 0.64435
 C39 C 0.66003 0.66743 0.65730
 C40 C 0.64189 0.64779 0.68435
 C41 C 0.65467 0.61133 0.69814
 C42 C 0.68578 0.59446 0.68463
 H43 H 0.70586 0.66522 0.62387
 H44 H 0.61822 0.66121 0.69518
 H45 H 0.69578 0.56657 0.69550
 C46 C 0.80980 0.37234 0.14011
 C47 C 0.82856 0.33758 0.13178
 C48 C 0.85540 0.32167 0.15373
 C49 C 0.86368 0.34229 0.18387
 C50 C 0.84573 0.37762 0.19234
 C51 C 0.81859 0.39225 0.17039
 H52 H 0.82036 0.32164 0.10914
 H53 H 0.88576 0.33219 0.19995
 H54 H 0.80415 0.41907 0.17689
 C55 C 0.30578 0.14266 0.84178
 C56 C 0.31870 0.17659 0.85910
 C57 C 0.34688 0.20042 0.84608
 C58 C 0.36328 0.18968 0.81544
 C59 C 0.35099 0.15620 0.79718
 C60 C 0.32245 0.13285 0.81074
 H61 H 0.30791 0.18401 0.88378
 H62 H 0.38522 0.20793 0.80560
 H63 H 0.31170 0.10856 0.79579
 C64 C 0.19564 0.86900 0.33592
 C65 C 0.17526 0.88720 0.30930
 C66 C 0.14342 0.86921 0.29722
 C67 C 0.13203 0.83230 0.31113
 C68 C 0.15233 0.81298 0.33670
 C69 C 0.18364 0.83156 0.34904
 H70 H 0.18275 0.91631 0.29885
 H71 H 0.10799 0.81799 0.30112
 H72 H 0.19921 0.81563 0.36831
 Zn73 Zn 0.00187 1.04978 -0.02428
 Zn74 Zn -0.03296 0.96948 -0.02832
 Zn75 Zn 0.04411 0.97833 -0.00677
 Zn76 Zn -0.01578 1.00531 0.03972
 O77 O -0.00072 1.00044 -0.00473
 O78 O -0.02653 1.05490 -0.06016
 O79 O -0.01279 0.92606 -0.04584
 O80 O 0.07769 1.01050 -0.02675
 O81 O -0.05381 0.99596 -0.06359
 O82 O 0.04564 1.06470 -0.03759
 O83 O 0.04427 0.93240 -0.03006
 O84 O 0.01799 0.98792 0.06948
 O85 O -0.06913 0.95141 -0.00209
 O86 O 0.06121 0.96735 0.03519
 O87 O -0.05608 0.97654 0.04844
 O88 O -0.02737 1.05636 0.05077
 O89 O -0.01346 1.08751 0.00236
 C90 C -0.04918 1.03183 -0.07408
 C91 C 0.01932 0.91339 -0.04533
 C92 C 0.07531 1.04635 -0.03792
 C93 C 0.04885 0.97267 0.06497
 C94 C -0.07647 0.95586 0.02925
 C95 C -0.02619 1.08803 0.03219
 Zn96 Zn 0.47859 -0.00954 0.46549
 Zn97 Zn 0.46187 -0.04170 0.53541
 Zn98 Zn 0.53727 -0.02920 0.51399
 Zn99 Zn 0.49070 0.04220 0.52605
 O100 O 0.49203 -0.00941 0.51031
 O101 O 0.43783 -0.03683 0.45868
 O102 O 0.48360 -0.08531 0.55382
 O103 O 0.55604 -0.04261 0.47410
 O104 O 0.42447 -0.05954 0.51064
 O105 O 0.51195 -0.02935 0.43765
 O106 O 0.54026 -0.07345 0.54013
 O107 O 0.53447 0.05970 0.53915
 O108 O 0.44331 -0.01597 0.57079
 O109 O 0.56773 0.00608 0.53118
 O110 O 0.46284 0.04646 0.56348
 O111 O 0.47539 0.07823 0.49390
 O112 O 0.46971 0.03932 0.44906
 C113 C 0.41695 -0.05565 0.47901
 C114 C 0.51656 -0.09512 0.55476
 C115 C 0.54357 -0.04171 0.44387
 C116 C 0.56464 0.04208 0.54036
 C117 C 0.44529 0.02007 0.58055
 C118 C 0.46853 0.07363 0.46228
 Zn119 Zn 0.98695 0.48032 0.53767
 Zn120 Zn 0.97244 0.51402 0.46681
 Zn121 Zn 1.04783 0.51151 0.49465
 Zn122 Zn 1.01074 0.43697 0.47609
 O123 O 1.00438 0.48592 0.49393
 O124 O 0.94547 0.50667 0.54265
 O125 O 0.99182 0.55900 0.44911
 O126 O 1.06203 0.52326 0.53717
 O127 O 0.93403 0.52957 0.49021
 O128 O 1.01778 0.49943 0.56955
 O129 O 1.04730 0.55712 0.47019
 O130 O 1.05616 0.42567 0.46621
 O131 O 0.95517 0.48589 0.43108
 O132 O 1.08381 0.48283 0.47732
 O133 O 0.98537 0.42962 0.43827
 O134 O 0.99499 0.39829 0.50313
 O135 O 0.97615 0.42876 0.54924
 C136 C 0.92541 0.52548 0.52144
 C137 C 1.02314 0.57404 0.45205
 C138 C 1.04826 0.51675 0.56643
 C139 C 1.08441 0.44712 0.46692
 C140 C 0.96249 0.45058 0.42199
 C141 C 0.97984 0.39722 0.53196
 Zn142 Zn 0.51035 0.53102 1.04833
 Zn143 Zn 0.53009 0.49077 0.98324
 Zn144 Zn 0.45237 0.49738 1.00461
 Zn145 Zn 0.49343 0.57060 0.98298
 O146 O 0.49659 0.52213 1.00459
 O147 O 0.54799 0.50184 1.06022
 O148 O 0.50983 0.44606 0.96618
 O149 O 0.43547 0.48699 1.04734
 O150 O 0.56567 0.47393 1.01235
 O151 O 0.47659 0.51818 1.07863
 O152 O 0.45308 0.45097 0.98245
 O153 O 0.44885 0.58215 0.96891
 O154 O 0.55095 0.51645 0.94691
 O155 O 0.41844 0.52696 0.98289
 O156 O 0.52077 0.57341 0.94644
 O157 O 0.51008 0.61158 1.00739
 O158 O 0.52409 0.58151 1.05630
 C159 C 0.56945 0.47970 1.04429
 C160 C 0.47772 0.43257 0.96695
 C161 C 0.44735 0.49864 1.07609
 C162 C 0.41981 0.56184 0.96929
 C163 C 0.54430 0.55089 0.93391
 C164 C 0.52369 0.61258 1.03715
 C165 C 1.26749 0.38166 0.38524
 C166 C 1.23643 0.39950 0.39780
 C167 C 1.22808 0.43932 0.38811
 C168 C 1.25055 0.46019 0.36517
 C169 C 1.28106 0.44184 0.35201
 C170 C 1.29044 0.40247 0.36225
 C171 C 1.19719 0.45735 0.40118
 C172 C 1.17400 0.43547 0.42290
 C173 C 1.18192 0.39513 0.43162
 C174 C 1.21331 0.37765 0.41945
 C175 C 1.15801 0.37264 0.45197
 C176 C 1.12627 0.38975 0.46334
 C177 C 1.11844 0.42992 0.45539
 C178 C 1.14258 0.45287 0.43547
 H179 H 1.27260 0.35065 0.39224
 H180 H 1.24451 0.49073 0.35732
 H181 H 1.29807 0.45935 0.33494
 H182 H 1.19089 0.48806 0.39400
 H183 H 1.21948 0.34683 0.42644
 H184 H 1.16359 0.34165 0.45869
 H185 H 1.10790 0.37169 0.47865
 H186 H 1.13628 0.48375 0.42889
 C187 C 0.24255 0.62484 0.86984
 C188 C 0.27212 0.60725 0.88651
 C189 C 0.27511 0.56517 0.88830
 C190 C 0.24871 0.54148 0.87250
 C191 C 0.21916 0.55925 0.85586
 C192 C 0.21498 0.60130 0.85497
 C193 C 0.30438 0.54762 0.90585
 C194 C 0.33082 0.57183 0.92127
 C195 C 0.32797 0.61402 0.91875
 C196 C 0.29865 0.63139 0.90154
 C197 C 0.35463 0.63832 0.93333
 C198 C 0.38415 0.62112 0.94999
 C199 C 0.38735 0.57929 0.95295
 C200 C 0.36034 0.55470 0.93879
 H201 H 0.24180 0.65723 0.86786
 H202 H 0.25059 0.50910 0.87346
 H203 H 0.19878 0.53959 0.84541
 H204 H 0.30661 0.51526 0.90742
 H205 H 0.29646 0.66376 0.89990
 H206 H 0.35283 0.67068 0.93154
 H207 H 0.40458 0.64063 0.96069
 H208 H 0.36281 0.52239 0.94057
 C209 C -0.25409 0.88640 0.12552
 C210 C -0.22052 0.90026 0.11340
 C211 C -0.19788 0.92308 0.13482
 C212 C -0.20890 0.93132 0.16798
 C213 C -0.24211 0.91746 0.17991
 C214 C -0.26572 0.89496 0.15900
 C215 C -0.16462 0.93748 0.12278
 C216 C -0.15364 0.92954 0.08939
 C217 C -0.17611 0.90647 0.06794
 C218 C -0.20936 0.89196 0.08006
 C219 C -0.16507 0.89865 0.03457
 C220 C -0.13243 0.91407 0.02234
 C221 C -0.11001 0.93757 0.04323
 C222 C -0.12074 0.94479 0.07697
 H223 H -0.27144 0.87039 0.10806
 H224 H -0.19166 0.94832 0.18492
 H225 H -0.24823 0.92335 0.20629
 H226 H -0.14742 0.95514 0.13931
 H227 H -0.22661 0.87443 0.06348
 H228 H -0.18188 0.88095 0.01777
 H229 H -0.12494 0.90792 -0.00372
 H230 H -0.10385 0.96288 0.09341
 C231 C 0.75235 0.11485 0.61150
 C232 C 0.72230 0.09813 0.59516
 C233 C 0.72409 0.05862 0.58284
 C234 C 0.75596 0.03677 0.58668
 C235 C 0.78537 0.05327 0.60386
 C236 C 0.78358 0.09213 0.61665
 C237 C 0.69365 0.04104 0.56800
 C238 C 0.66116 0.06195 0.56624
 C239 C 0.65928 0.10151 0.57826
 C240 C 0.69006 0.11959 0.59226
 C241 C 0.62640 0.12187 0.57678
 C242 C 0.59550 0.10284 0.56419
 C243 C 0.59711 0.06327 0.55272
 C244 C 0.63025 0.04331 0.55342
 H245 H 0.75087 0.14468 0.62187
 H246 H 0.75773 0.00649 0.57739
 H247 H 0.80935 0.03548 0.60777
 H248 H 0.69494 0.01063 0.55883
 H249 H 0.68865 0.14981 0.60183
 H250 H 0.62447 0.15223 0.58583
 H251 H 0.57031 0.11894 0.56375
 H252 H 0.63199 0.01284 0.54453
 C253 C 0.40251 0.27051 0.36553
 C254 C 0.41605 0.24002 0.38727
 C255 C 0.41654 0.24516 0.42304
 C256 C 0.40402 0.28089 0.43645
 C257 C 0.38969 0.31058 0.41488
 C258 C 0.38788 0.30570 0.37907
 C259 C 0.42870 0.21417 0.44491
 C260 C 0.43947 0.17753 0.43152
 C261 C 0.43904 0.17244 0.39569
 C262 C 0.42780 0.20381 0.37382
 C263 C 0.44916 0.13571 0.38229
 C264 C 0.45890 0.10400 0.40409
 C265 C 0.45913 0.10837 0.43982
 C266 C 0.44984 0.14557 0.45337
 H267 H 0.40102 0.26523 0.33832
 H268 H 0.40466 0.28564 0.46378
 H269 H 0.38070 0.33784 0.42652
 H270 H 0.42885 0.21818 0.47236
 H271 H 0.42730 0.19964 0.34638
 H272 H 0.44905 0.13127 0.35492
 H273 H 0.46622 0.07585 0.39284
 H274 H 0.44984 0.14936 0.48082
 C275 C 0.88006 0.20843 0.61147
 C276 C 0.89888 0.24375 0.60331
 C277 C 0.90859 0.27066 0.62928
 C278 C 0.90030 0.26088 0.66332
 C279 C 0.88279 0.22474 0.67149
 C280 C 0.87202 0.19812 0.64563
 C281 C 0.92670 0.30658 0.62076
 C282 C 0.93621 0.31510 0.58668
 C283 C 0.92774 0.28701 0.56112
 C284 C 0.90873 0.25195 0.56949
 C285 C 0.93829 0.29435 0.52740
 C286 C 0.95644 0.32957 0.51872
 C287 C 0.96397 0.35861 0.54344
 C288 C 0.95394 0.35114 0.57757
 H289 H 0.87360 0.18790 0.59115
 H290 H 0.90758 0.28103 0.68366
 H291 H 0.87650 0.21851 0.69805
 H292 H 0.93364 0.32761 0.64058
 H293 H 0.90184 0.23087 0.54967
 H294 H 0.93221 0.27299 0.50762
 H295 H 0.96354 0.33461 0.49217
 H296 H 0.95974 0.37325 0.59681
 C297 C 0.09554 0.72436 -0.13906
 C298 C 0.08700 0.76067 -0.12347
 C299 C 0.11463 0.78882 -0.11646
 C300 C 0.15006 0.78075 -0.12588
 C301 C 0.15833 0.74464 -0.14117
 C302 C 0.13139 0.71578 -0.14735
 C303 C 0.10659 0.82437 -0.09973
 C304 C 0.07122 0.83230 -0.08989
 C305 C 0.04339 0.80465 -0.09750
 C306 C 0.05145 0.76897 -0.11418
 C307 C 0.00796 0.81313 -0.08815
 C308 C 0.00018 0.84854 -0.07133
 C309 C 0.02774 0.87592 -0.06313
 C310 C 0.06327 0.86752 -0.07253
 H311 H 0.07460 0.70225 -0.14358
 H312 H 0.17149 0.80213 -0.12098
 H313 H 0.18603 0.73902 -0.14787
 H314 H 0.12791 0.84569 -0.09412
 H315 H 0.03016 0.74758 -0.11966
 H316 H -0.01375 0.79239 -0.09386
 H317 H -0.02742 0.85431 -0.06439
 H318 H 0.08468 0.88861 -0.06669
 C319 C 0.63133 0.78721 1.12697
 C320 C 0.61081 0.75421 1.11588
 C321 C 0.59559 0.72727 1.14023
 C322 C 0.60026 0.73420 1.17510
 C323 C 0.61884 0.76812 1.18589
 C324 C 0.63454 0.79530 1.16213
 C325 C 0.57532 0.69420 1.12946
 C326 C 0.56875 0.68845 1.09460
 C327 C 0.58269 0.71617 1.07019
 C328 C 0.60416 0.74847 1.08092
 C329 C 0.57486 0.71105 1.03543
 C330 C 0.55415 0.67833 1.02491
 C331 C 0.54133 0.64978 1.04889
 C332 C 0.54848 0.65530 1.08379
 H333 H 0.64244 0.80808 1.10818
 H334 H 0.58884 0.71383 1.19409
 H335 H 0.62163 0.77253 1.21314
 H336 H 0.56417 0.67330 1.14823
 H337 H 0.61518 0.76945 1.06215
 H338 H 0.58506 0.73211 1.01635
 H339 H 0.54929 0.67457 0.99782
 H340 H 0.53860 0.63357 1.10251
 C341 C 0.37628 0.41820 1.25382
 C342 C 0.38662 0.42603 1.21987
 C343 C 0.39537 0.39393 1.19850
 C344 C 0.39361 0.35452 1.21157
 C345 C 0.38345 0.34699 1.24549
 C346 C 0.37463 0.37868 1.26696
 C347 C 0.40618 0.40179 1.16463
 C348 C 0.40913 0.44143 1.15212
 C349 C 0.40042 0.47347 1.17366
 C350 C 0.38883 0.46555 1.20717
 C351 C 0.40457 0.51309 1.16170
 C352 C 0.41856 0.52100 1.12924
 C353 C 0.42753 0.48954 1.10775
 C354 C 0.42203 0.44972 1.11894
 H355 H 0.37002 0.44296 1.27021
 H356 H 0.40018 0.32950 1.19560
 H357 H 0.38195 0.31626 1.25480
 H358 H 0.41307 0.37715 1.14831
 H359 H 0.38231 0.49020 1.22363
 H360 H 0.39816 0.53797 1.17789
 H361 H 0.42310 0.55182 1.12106
 H362 H 0.42974 0.42540 1.10263
 C363 C 0.64442 -0.09833 0.27456
 C364 C 0.62356 -0.08383 0.30132
 C365 C 0.59151 -0.06268 0.29379
 C366 C 0.58127 -0.05576 0.25961
 C367 C 0.60185 -0.07096 0.23319
 C368 C 0.63324 -0.09257 0.24055
 C369 C 0.56973 -0.04978 0.32047
 C370 C 0.57932 -0.05815 0.35460
 C371 C 0.61160 -0.07881 0.36211
 C372 C 0.63359 -0.09135 0.33546
 C373 C 0.62119 -0.08696 0.39623
 C374 C 0.59898 -0.07497 0.42269
 C375 C 0.56663 -0.05477 0.41557
 C376 C 0.55700 -0.04643 0.38135
 H377 H 0.66840 -0.11565 0.28012
 H378 H 0.55682 -0.03966 0.25336
 H379 H 0.59280 -0.06684 0.20698
 H380 H 0.54502 -0.03387 0.31466
 H381 H 0.65814 -0.10755 0.34126
 H382 H 0.64584 -0.10271 0.40246
 H383 H 0.60710 -0.08172 0.44881
 H384 H 0.53228 -0.03058 0.37552
 C385 C -0.13940 1.10052 -0.24670
 C386 C -0.12717 1.08090 -0.21704
 C387 C -0.11889 1.03965 -0.21767
 C388 C -0.12382 1.01858 -0.24802
 C389 C -0.13549 1.03862 -0.27775
 C390 C -0.14269 1.07989 -0.27739
 C391 C -0.10473 1.02061 -0.18831
 C392 C -0.09768 1.04275 -0.15886
 C393 C -0.10647 1.08395 -0.15838
 C394 C -0.12179 1.10250 -0.18720
 C395 C -0.09846 1.10649 -0.12953
 C396 C -0.08042 1.08890 -0.10192
 C397 C -0.07089 1.04830 -0.10235
 C398 C -0.08052 1.02492 -0.13040
 H399 H -0.14562 1.13218 -0.24610
 H400 H -0.11769 0.98696 -0.24902
 H401 H -0.13785 1.02216 -0.30124
 H402 H -0.09792 0.98909 -0.18882
 H403 H -0.12810 1.13417 -0.18687
 H404 H -0.10510 1.13801 -0.12876
 H405 H -0.07354 1.10721 -0.08022
 H406 H -0.07299 0.99362 -0.13079
 C407 C 1.12992 0.59211 0.74175
 C408 C 1.11041 0.57743 0.71365
 C409 C 1.07268 0.57219 0.71594
 C410 C 1.05513 0.58208 0.74622
 C411 C 1.07464 0.59755 0.77376
 C412 C 1.11213 0.60266 0.77180
 C413 C 1.05308 0.55780 0.68778
 C414 C 1.07059 0.54951 0.65703
 C415 C 1.10825 0.55534 0.65469
 C416 C 1.12794 0.56876 0.68307
 C417 C 1.12563 0.54817 0.62378
 C418 C 1.10595 0.53574 0.59531
 C419 C 1.06854 0.52953 0.59722
 C420 C 1.05103 0.53613 0.62839
 H421 H 1.15879 0.59653 0.73991
 H422 H 1.02624 0.57840 0.74844
 H423 H 1.06047 0.60549 0.79671
 H424 H 1.02417 0.55372 0.68961
 H425 H 1.15682 0.57311 0.68117
 H426 H 1.15444 0.55257 0.62151
 H427 H 1.12016 0.53069 0.57173
 H428 H 1.02216 0.53174 0.63011
 C429 C 0.74861 0.59932 0.61135
 C430 C 0.78182 0.58473 0.60034
 C431 C 0.80611 0.56768 0.62442
 C432 C 0.79692 0.56580 0.65906
 C433 C 0.76403 0.58072 0.66985
 C434 C 0.73945 0.59752 0.64619
 C435 C 0.83923 0.55291 0.61354
 C436 C 0.84852 0.55514 0.57888
 C437 C 0.82438 0.57249 0.55482
 C438 C 0.79115 0.58705 0.56567
 C439 C 0.83390 0.57492 0.52025
 C440 C 0.86689 0.56007 0.50953
 C441 C 0.89098 0.54236 0.53316
 C442 C 0.88157 0.54017 0.56790
 H443 H 0.72982 0.61180 0.59276
 H444 H 0.81531 0.55308 0.67789
 H445 H 0.75811 0.57971 0.69691
 H446 H 0.85777 0.53972 0.63204
 H447 H 0.77261 0.60024 0.54717
 H448 H 0.81579 0.58819 0.50146
 H449 H 0.87338 0.56214 0.48261
 H450 H 0.89988 0.52670 0.58644
 C451 C 0.74683 0.39702 1.13222
 C452 C 0.71798 0.40942 1.11135
 C453 C 0.72214 0.41198 1.07547
 C454 C 0.75521 0.40169 1.06111
 C455 C 0.78377 0.38901 1.08209
 C456 C 0.77988 0.38670 1.11781
 C457 C 0.69324 0.42482 1.05465
 C458 C 0.66029 0.43520 1.06935
 C459 C 0.65631 0.43214 1.10529
 C460 C 0.68504 0.41921 1.12596
 C461 C 0.62375 0.44260 1.12020
 C462 C 0.59558 0.45701 1.09995
 C463 C 0.59912 0.46103 1.06425
 C464 C 0.63143 0.44932 1.04894
 H465 H 0.74338 0.39469 1.15969
 H466 H 0.75898 0.40340 1.03368
 H467 H 0.80905 0.38128 1.07044
 H468 H 0.69650 0.42703 1.02715
 H469 H 0.68184 0.41712 1.15349
 H470 H 0.62022 0.44024 1.14765
 H471 H 0.57091 0.46543 1.11241
 H472 H 0.63451 0.45244 1.02148
 C473 C 0.24996 1.13770 -0.12461
 C474 C 0.22127 1.11530 -0.11080
 C475 C 0.21862 1.07382 -0.11672
 C476 C 0.24447 1.05568 -0.13708
 C477 C 0.27277 1.07830 -0.15125
 C478 C 0.27643 1.11968 -0.14488
 C479 C 0.19004 1.05136 -0.10241
 C480 C 0.16365 1.07021 -0.08293
 C481 C 0.16608 1.11200 -0.07783
 C482 C 0.19497 1.13412 -0.09145
 C483 C 0.13930 1.13127 -0.05948
 C484 C 0.11006 1.10956 -0.04660
 C485 C 0.10734 1.06800 -0.05109
 C486 C 0.13450 1.04827 -0.06897
 H487 H 0.25051 1.16970 -0.12056
 H488 H 0.24290 1.02387 -0.14197
 H489 H 0.29262 1.06265 -0.16591
 H490 H 0.18811 1.01943 -0.10678
 H491 H 0.19680 1.16610 -0.08723
 H492 H 0.14073 1.16327 -0.05545
 H493 H 0.08952 1.12531 -0.03282
 H494 H 0.13235 1.01628 -0.07287
 C495 C 0.23930 -0.12152 0.38285
 C496 C 0.27196 -0.10637 0.39533
 C497 C 0.29336 -0.08121 0.37425
 C498 C 0.28139 -0.07121 0.34116
 C499 C 0.24890 -0.08677 0.32869
 C500 C 0.22752 -0.11294 0.34904
 C501 C 0.32641 -0.06662 0.38657
 C502 C 0.33821 -0.07700 0.41974
 C503 C 0.31656 -0.10195 0.44091
 C504 C 0.28354 -0.11638 0.42860
 C505 C 0.32828 -0.11205 0.47408
 C506 C 0.36111 -0.09737 0.48635
 C507 C 0.38288 -0.07253 0.46558
 C508 C 0.37126 -0.06264 0.43216
 H509 H 0.22279 -0.13925 0.40020
 H510 H 0.29750 -0.05193 0.32462
 H511 H 0.24181 -0.07969 0.30242
 H512 H 0.34295 -0.04735 0.37036
 H513 H 0.26700 -0.13565 0.44482
 H514 H 0.31199 -0.13115 0.49062
 H515 H 0.36939 -0.10540 0.51217
 H516 H 0.38766 -0.04327 0.41593
 C517 C 0.61020 -0.28586 0.63852
 C518 C 0.59845 -0.24909 0.62438
 C519 C 0.62405 -0.21941 0.61487
 C520 C 0.66075 -0.22658 0.62023
 C521 C 0.67217 -0.26303 0.63440
 C522 C 0.64720 -0.29330 0.64333
 C523 C 0.61266 -0.18310 0.59995
 C524 C 0.57595 -0.17591 0.59439
 C525 C 0.55019 -0.20514 0.60442
 C526 C 0.56159 -0.24162 0.61931
 C527 C 0.51347 -0.19744 0.59910
 C528 C 0.50242 -0.16141 0.58354
 C529 C 0.52788 -0.13251 0.57283
 C530 C 0.56466 -0.13997 0.57866
 H531 H 0.59062 -0.30894 0.64508
 H532 H 0.68068 -0.20400 0.61338
 H533 H 0.70071 -0.26741 0.63857
 H534 H 0.63241 -0.16055 0.59242
 H535 H 0.54186 -0.26421 0.62672
 H536 H 0.49331 -0.21942 0.60673
 H537 H 0.47394 -0.15647 0.57938
 H538 H 0.58463 -0.11788 0.57077
 C539 C 1.10518 0.76490 0.35856
 C540 C 1.09536 0.72814 0.37398
 C541 C 1.12211 0.69929 0.38150
 C542 C 1.15791 0.70708 0.37253
 C543 C 1.16740 0.74357 0.35709
 C544 C 1.14135 0.77312 0.35057
 C545 C 1.11279 0.66330 0.39821
 C546 C 1.07703 0.65558 0.40737
 C547 C 1.05000 0.68378 0.39902
 C548 C 1.05937 0.72002 0.38249
 C549 C 1.01411 0.67525 0.40754
 C550 C 1.00517 0.63929 0.42447
 C551 C 1.03207 0.61168 0.43361
 C552 C 1.06793 0.62001 0.42486
 H553 H 1.08491 0.78752 0.35375
 H554 H 1.17863 0.68509 0.37775
 H555 H 1.19529 0.74880 0.35040
 H556 H 1.13342 0.64143 0.40434
 H557 H 1.03877 0.74194 0.37648
 H558 H 0.99300 0.69638 0.40118
 H559 H 0.97732 0.63334 0.43094
 H560 H 1.08877 0.59856 0.43137
 C561 C -0.12006 1.27601 0.11147
 C562 C -0.10187 1.24089 0.10335
 C563 C -0.09059 1.21404 0.12958
 C564 C -0.09673 1.22362 0.16372
 C565 C -0.11397 1.25930 0.17174
 C566 C -0.12639 1.28591 0.14574
 C567 C -0.07326 1.17826 0.12120
 C568 C -0.06630 1.16962 0.08688
 C569 C -0.07651 1.19753 0.06091
 C570 C -0.09450 1.23260 0.06925
 C571 C -0.06873 1.19001 0.02681
 C572 C -0.05147 1.15492 0.01821
 C573 C -0.04195 1.12612 0.04343
 C574 C -0.04939 1.13368 0.07791
 H575 H -0.12774 1.29647 0.09088
 H576 H -0.08826 1.20351 0.18426
 H577 H -0.11892 1.26493 0.19844
 H578 H -0.06507 1.15735 0.14131
 H579 H -0.10268 1.25354 0.04914
 H580 H -0.07622 1.21118 0.00667
 H581 H -0.04643 1.14990 -0.00860
 H582 H -0.04210 1.11180 0.09755
 C583 C 0.39445 0.24739 0.86924
 C584 C 0.40423 0.28171 0.88765
 C585 C 0.37708 0.30629 0.90100
 C586 C 0.34083 0.29652 0.89553
 C587 C 0.33137 0.26246 0.87737
 C588 C 0.35792 0.23732 0.86428
 C589 C 0.38650 0.34027 0.91966
 C590 C 0.42275 0.35025 0.92517
 C591 C 0.45002 0.32598 0.91175
 C592 C 0.44060 0.29177 0.89314
 C593 C 0.48624 0.33653 0.91708
 C594 C 0.49532 0.37093 0.93527
 C595 C 0.46838 0.39524 0.94876
 C596 C 0.43208 0.38442 0.94370
 H597 H 0.41515 0.22815 0.85944
 H598 H 0.31972 0.31517 0.90540
 H599 H 0.30309 0.25581 0.87340
 H600 H 0.36558 0.35898 0.92988
 H601 H 0.46152 0.27308 0.88291
 H602 H 0.50755 0.31835 0.90697
 H603 H 0.52348 0.37853 0.93871
 H604 H 0.41096 0.40299 0.95368
 C605 C 0.62967 0.61516 0.75702
 C606 C 0.61594 0.59695 0.78684
 C607 C 0.60931 0.55516 0.78807
 C608 C 0.61665 0.53233 0.75926
 C609 C 0.63075 0.55066 0.72975
 C610 C 0.63740 0.59218 0.72840
 C611 C 0.59555 0.53701 0.81804
 C612 C 0.58823 0.56022 0.84670
 C613 C 0.59514 0.60202 0.84525
 C614 C 0.60904 0.62000 0.81549
 C615 C 0.58745 0.62549 0.87342
 C616 C 0.57196 0.60811 0.90244
 C617 C 0.56435 0.56681 0.90416
 C618 C 0.57328 0.54269 0.87650
 H619 H 0.63533 0.64708 0.75640
 H620 H 0.61176 0.50028 0.75965
 H621 H 0.63654 0.53240 0.70792
 H622 H 0.59030 0.50500 0.81894
 H623 H 0.61419 0.65205 0.81452
 H624 H 0.59268 0.65748 0.87276
 H625 H 0.56544 0.62717 0.92358
 H626 H 0.56715 0.51089 0.87759
 C627 C 0.36953 0.10661 0.75272
 C628 C 0.38324 0.09765 0.72038
 C629 C 0.39537 0.12894 0.69839
 C630 C 0.39292 0.16870 0.70888
 C631 C 0.37854 0.17745 0.74078
 C632 C 0.36681 0.14660 0.76326
 C633 C 0.40961 0.12000 0.66625
 C634 C 0.41143 0.08012 0.65562
 C635 C 0.39851 0.04895 0.67740
 C636 C 0.38478 0.05786 0.70967
 C637 C 0.39967 0.00925 0.66661
 C638 C 0.41399 0.00029 0.63481
 C639 C 0.42776 0.03077 0.61312
 C640 C 0.42612 0.07082 0.62368
 H641 H 0.36118 0.08230 0.76972
 H642 H 0.40176 0.19314 0.69225
 H643 H 0.37606 0.20858 0.74751
 H644 H 0.41922 0.14404 0.64954
 H645 H 0.37520 0.03381 0.72640
 H646 H 0.38974 -0.01498 0.68290
 H647 H 0.41493 -0.03081 0.62753
 H648 H 0.43652 0.09467 0.60723
 C649 C 0.13879 0.89902 0.23837
 C650 C 0.11824 0.91410 0.21085
 C651 C 0.08081 0.91971 0.21479
 C652 C 0.06460 0.91003 0.24617
 C653 C 0.08512 0.89410 0.27314
 C654 C 0.12225 0.88837 0.26940
 C655 C 0.06007 0.93404 0.18713
 C656 C 0.07611 0.94181 0.15531
 C657 C 0.11348 0.93586 0.15133
 C658 C 0.13437 0.92257 0.17923
 C659 C 0.12925 0.94264 0.11930
 C660 C 0.10817 0.95465 0.09132
 C661 C 0.07101 0.96070 0.09494
 C662 C 0.05521 0.95464 0.12718
 H663 H 0.16739 0.89413 0.23531
 H664 H 0.03596 0.91406 0.24964
 H665 H 0.07201 0.88608 0.29698
 H666 H 0.03137 0.93830 0.19015
 H667 H 0.16302 0.91797 0.17612
 H668 H 0.15783 0.93819 0.11579
 H669 H 0.12102 0.95934 0.06679
 H670 H 0.02654 0.95896 0.13022
 C671 C 0.86637 0.37752 0.25347
 C672 C 0.88035 0.39711 0.28203
 C673 C 0.88307 0.43936 0.28181
 C674 C 0.87136 0.46125 0.25288
 C675 C 0.85832 0.44137 0.22406
 C676 C 0.85624 0.39926 0.22386
 C677 C 0.89825 0.45880 0.31013
 C678 C 0.91163 0.43632 0.33815
 C679 C 0.90886 0.39399 0.33801
 C680 C 0.89275 0.37478 0.31031
 C681 C 0.92298 0.37128 0.36529
 C682 C 0.94033 0.39011 0.39227
 C683 C 0.94342 0.43210 0.39293
 C684 C 0.92849 0.45521 0.36598
 H685 H 0.86414 0.34512 0.25407
 H686 H 0.87324 0.49366 0.25215
 H687 H 0.85100 0.45895 0.20156
 H688 H 0.90047 0.49122 0.30997
 H689 H 0.89083 0.34233 0.31031
 H690 H 0.92106 0.33886 0.36553
 H691 H 0.95120 0.37165 0.41291
 H692 H 0.93085 0.48759 0.36624
   
