data_POSCAR
  _audit_creation_date              2014-09-24
  _audit_creation_method            'ToBaCCo'
  _symmetry_space_group_name_H-M    'P1'
  _symmetry_Int_Tables_number       1
  _symmetry_cell_setting            triclinic
  loop_
  _symmetry_equiv_pos_as_xyz
 x,y,z
_cell_length_a 56.7002
_cell_length_b 56.7041
_cell_length_c 19.4332
_cell_angle_alpha 89.962600
_cell_angle_beta 90.032200
_cell_angle_gamma 119.769700
loop_
  _atom_site_label
  _atom_site_type_symbol
  _atom_site_fract_x
  _atom_site_fract_y
  _atom_site_fract_z
O1 O 0.20825 0.45890 0.43149
 O2 O 0.25506 0.46151 0.56676
 O3 O 0.20770 0.45877 0.56523
 O4 O 0.25598 0.46231 0.43299
 O5 O 0.27557 0.50703 0.43336
 O6 O 0.22799 0.50353 0.56645
 O7 O 0.27553 0.50624 0.56614
 O8 O 0.22790 0.50362 0.43338
 Cu9 Cu 0.22974 0.45589 0.49902
 Cu10 Cu 0.25372 0.50957 0.50000
 C11 C 0.20977 0.48080 0.41013
 C12 C 0.27371 0.48433 0.58869
 C13 C 0.20941 0.48060 0.58780
 C14 C 0.27426 0.48535 0.41122
 O15 O 0.53702 -0.20627 0.56806
 O16 O 0.54003 -0.25180 0.43801
 O17 O 0.53798 -0.20635 0.43403
 O18 O 0.53800 -0.25163 0.57077
 O19 O 0.49331 -0.27537 0.56512
 O20 O 0.49319 -0.22964 0.43194
 O21 O 0.49522 -0.27442 0.43169
 O22 O 0.49228 -0.22956 0.56479
 Cu23 Cu 0.54276 -0.22661 0.50278
 Cu24 Cu 0.48903 -0.25459 0.49821
 C25 C 0.51417 -0.20993 0.58852
 C26 C 0.51819 -0.27106 0.41337
 C27 C 0.51545 -0.21001 0.41059
 C28 C 0.51558 -0.27166 0.59036
 O29 O 1.25537 0.78620 0.43576
 O30 O 1.21084 0.73838 0.56823
 O31 O 1.25605 0.78506 0.56950
 O32 O 1.21077 0.73898 0.43453
 O33 O 1.23525 0.71857 0.43127
 O34 O 1.27941 0.76347 0.56759
 O35 O 1.23425 0.71690 0.56414
 O36 O 1.27988 0.76580 0.43457
 Cu37 Cu 1.23087 0.76427 0.50225
 Cu38 Cu 1.25960 0.73911 0.49911
 C39 C 1.27552 0.78450 0.41337
 C40 C 1.21453 0.71907 0.58801
 C41 C 1.27566 0.78222 0.59115
 C42 C 1.21513 0.72065 0.41048
 O43 O 0.74495 0.53803 0.56519
 O44 O 0.79320 0.54056 0.43418
 O45 O 0.74603 0.53832 0.43134
 O46 O 0.79223 0.54035 0.56786
 O47 O 0.77159 0.49557 0.56741
 O48 O 0.72576 0.49356 0.43086
 O49 O 0.77281 0.49578 0.43469
 O50 O 0.72433 0.49330 0.56403
 Cu51 Cu 0.77115 0.54381 0.49975
 Cu52 Cu 0.74654 0.49009 0.49932
 C53 C 0.72602 0.51518 0.58625
 C54 C 0.79149 0.51858 0.41283
 C55 C 0.72780 0.51552 0.40821
 C56 C 0.79010 0.51829 0.59009
 O57 O 0.46441 0.21052 0.56888
 O58 O 0.46521 0.25754 0.43575
 O59 O 0.46258 0.21016 0.43506
 O60 O 0.46610 0.25758 0.56956
 O61 O 0.51086 0.27851 0.56556
 O62 O 0.50734 0.23043 0.43335
 O63 O 0.50994 0.27769 0.43254
 O64 O 0.50916 0.23170 0.56631
 Cu65 Cu 0.46007 0.23187 0.50267
 Cu66 Cu 0.51378 0.25663 0.49916
 C67 C 0.48676 0.21290 0.58984
 C68 C 0.48784 0.27586 0.41191
 C69 C 0.48435 0.21193 0.41194
 C70 C 0.48910 0.27647 0.58970
 O71 O 0.74016 0.21005 0.43460
 O72 O 0.78550 0.25508 0.57091
 O73 O 0.73883 0.21032 0.56843
 O74 O 0.78764 0.25512 0.43825
 O75 O 0.76571 0.27812 0.43032
 O76 O 0.71852 0.23491 0.56581
 O77 O 0.76563 0.27995 0.56352
 O78 O 0.71880 0.23363 0.43270
 Cu79 Cu 0.76507 0.23017 0.50321
 Cu80 Cu 0.74007 0.25905 0.49778
 C81 C 0.72129 0.21382 0.41149
 C82 C 0.78379 0.27570 0.58932
 C83 C 0.72027 0.21491 0.58934
 C84 C 0.78520 0.27442 0.41270
 N85 N 0.97380 0.52817 0.07377
 N86 N 0.95449 0.53435 0.08419
 N87 N 1.02989 0.53667 0.11950
 N88 N 1.05050 0.54889 0.16243
 N89 N 1.03079 0.55376 0.07254
 N90 N 1.05195 0.57817 0.08268
 N91 N 0.97278 0.51102 0.12075
 N92 N 0.95270 0.50500 0.16420
 C93 C 0.94145 0.51968 0.14076
 C94 C 1.06410 0.57475 0.13888
 N95 N 1.02550 0.46746 0.07182
 N96 N 1.04519 0.46167 0.08074
 N97 N 0.96976 0.45870 0.12086
 N98 N 0.95014 0.44600 0.16632
 N99 N 0.96828 0.44189 0.07239
 N100 N 0.94732 0.41740 0.08287
 N101 N 1.02673 0.48456 0.11911
 N102 N 1.04728 0.49096 0.16120
 Mn103 Mn 0.99977 0.49775 0.12082
 C104 C 1.05864 0.47655 0.13674
 C105 C 0.93621 0.42032 0.14162
 N106 N 1.03036 0.55374 -0.07613
 N107 N 1.05181 0.57799 -0.08622
 N108 N 0.97195 0.51108 -0.12193
 N109 N 0.95147 0.50490 -0.16414
 N110 N 0.97328 0.52820 -0.07459
 N111 N 0.95379 0.53424 -0.08354
 N112 N 1.02909 0.53658 -0.12329
 N113 N 1.04970 0.54855 -0.16629
 Mn114 Mn 1.00209 0.54129 -0.00111
 C115 C 1.06372 0.57437 -0.14266
 C116 C 0.94031 0.51949 -0.13959
 N117 N 0.96795 0.44180 -0.07561
 N118 N 0.94687 0.41734 -0.08555
 N119 N 1.02581 0.48439 -0.12379
 N120 N 1.04612 0.49074 -0.16670
 N121 N 1.02495 0.46742 -0.07657
 N122 N 1.04455 0.46162 -0.08630
 N123 N 0.96864 0.45883 -0.12239
 N124 N 0.94793 0.44652 -0.16508
 Mn125 Mn 0.99666 0.45434 -0.00197
 Mn126 Mn 0.99886 0.49772 -0.12364
 Cl127 Cl 0.99934 0.49777 -0.00147
 C128 C 0.93450 0.42065 -0.14143
 C129 C 1.05763 0.47637 -0.14273
 N130 N 0.46305 0.49153 0.12155
 N131 N 0.45028 0.49921 0.16490
 N132 N 0.47487 0.44617 0.07294
 N133 N 0.47043 0.42124 0.08328
 N134 N 0.49174 0.46287 0.11927
 N135 N 0.49945 0.44989 0.16188
 N136 N 0.44612 0.47472 0.07543
 N137 N 0.42129 0.47039 0.08647
 C138 C 0.42425 0.48586 0.14248
 C139 C 0.48603 0.42397 0.13891
 N140 N 0.48974 0.46275 -0.12350
 N141 N 0.49766 0.45002 -0.16625
 N142 N 0.44477 0.47449 -0.07302
 N143 N 0.41959 0.46946 -0.08208
 N144 N 0.46088 0.49131 -0.12032
 N145 N 0.44719 0.49839 -0.16240
 N146 N 0.47372 0.44609 -0.07582
 N147 N 0.47014 0.42143 -0.08528
 Mn148 Mn 0.45956 0.46003 -0.00011
 C149 C 0.48526 0.42427 -0.14201
 C150 C 0.42147 0.48464 -0.13790
 N151 N 0.54208 0.51321 0.11728
 N152 N 0.55524 0.50533 0.15867
 N153 N 0.52952 0.55846 0.07169
 N154 N 0.53430 0.58348 0.08212
 N155 N 0.51382 0.54213 0.12031
 N156 N 0.50788 0.55565 0.16582
 N157 N 0.55837 0.52975 0.06982
 N158 N 0.58326 0.53377 0.07817
 Mn159 Mn 0.50264 0.50244 0.12031
 C160 C 0.58089 0.51829 0.13386
 C161 C 0.52064 0.58136 0.14107
 N162 N 0.51135 0.54184 -0.12228
 N163 N 0.50350 0.55499 -0.16394
 N164 N 0.55711 0.52964 -0.07900
 N165 N 0.58183 0.53364 -0.09004
 N166 N 0.54011 0.51316 -0.12547
 N167 N 0.55268 0.50529 -0.16891
 N168 N 0.52855 0.55839 -0.07629
 N169 N 0.53306 0.58336 -0.08575
 Mn170 Mn 0.50049 0.50228 -0.12364
 Mn171 Mn 0.54373 0.54437 -0.00344
 Cl172 Cl 0.50161 0.50229 -0.00172
 C173 C 0.51720 0.58087 -0.14055
 C174 C 0.57869 0.51823 -0.14634
 N175 N 0.44085 -0.02955 0.07114
 N176 N 0.41611 -0.05019 0.08109
 N177 N 0.48485 0.02810 0.11748
 N178 N 0.49162 0.04860 0.15996
 N179 N 0.46820 0.02760 0.06979
 N180 N 0.46305 0.04770 0.07885
 N181 N 0.45751 -0.02911 0.11873
 N182 N 0.44460 -0.04947 0.16216
 C183 C 0.41878 -0.06248 0.13803
 C184 C 0.47790 0.06067 0.13530
 N185 N 0.55316 0.02979 0.07284
 N186 N 0.57785 0.05046 0.08364
 N187 N 0.50895 -0.02770 0.12033
 N188 N 0.50188 -0.04801 0.16362
 N189 N 0.52605 -0.02729 0.07417
 N190 N 0.53123 -0.04728 0.08519
 N191 N 0.53615 0.02944 0.11918
 N192 N 0.54868 0.04993 0.16228
 Mn193 Mn 0.49686 0.00017 0.11968
 C194 C 0.57466 0.06289 0.13958
 C195 C 0.51592 -0.06005 0.14118
 N196 N 0.46853 0.02706 -0.07886
 N197 N 0.46414 0.04763 -0.08913
 N198 N 0.45813 -0.02999 -0.12327
 N199 N 0.44575 -0.05102 -0.16480
 N200 N 0.44115 -0.03013 -0.07720
 N201 N 0.41661 -0.05125 -0.08648
 N202 N 0.48539 0.02711 -0.12521
 N203 N 0.49308 0.04771 -0.16783
 Mn204 Mn 0.45436 -0.00124 -0.00379
 C205 C 0.47966 0.06032 -0.14495
 C206 C 0.41988 -0.06409 -0.14139
 N207 N 0.52631 -0.02793 -0.07441
 N208 N 0.53128 -0.04818 -0.08297
 N209 N 0.53656 0.02846 -0.12346
 N210 N 0.54883 0.04932 -0.16559
 N211 N 0.55343 0.02930 -0.07596
 N212 N 0.57779 0.05075 -0.08492
 N213 N 0.50933 -0.02874 -0.12155
 N214 N 0.50209 -0.04962 -0.16300
 Mn215 Mn 0.54009 0.00100 -0.00086
 Mn216 Mn 0.49735 -0.00082 -0.12407
 Cl217 Cl 0.49717 -0.00022 -0.00222
 C218 C 0.51594 -0.06157 -0.13844
 C219 C 0.57454 0.06304 -0.14117
 C220 C 1.14892 0.47751 0.27404
 C221 C 1.15086 0.45402 0.28469
 C222 C 1.17117 0.45519 0.32769
 C223 C 1.18966 0.47970 0.35973
 C224 C 1.18746 0.50285 0.34617
 N225 N 1.16727 0.50110 0.30506
 C226 C 1.12631 0.47703 0.23482
 N227 N 1.11845 0.49543 0.25135
 C228 C 1.09723 0.49582 0.22006
 C229 C 1.08247 0.47689 0.16846
 C230 C 1.09058 0.45816 0.14907
 C231 C 1.11246 0.45811 0.18221
 H232 H 1.17204 0.43680 0.33699
 H233 H 1.20119 0.52214 0.36996
 H234 H 1.09184 0.51082 0.23596
 H235 H 1.07982 0.44337 0.10905
 H236 H 1.13626 0.43469 0.26256
 H237 H 1.11846 0.44356 0.16642
 C238 C 0.52045 0.66974 0.28315
 C239 C 0.50153 0.67822 0.26933
 C240 C 0.50082 0.69785 0.31143
 C241 C 0.51952 0.70952 0.36544
 C242 C 0.53866 0.70106 0.37601
 N243 N 0.53832 0.68126 0.33599
 C244 C 0.52021 0.64733 0.24459
 N245 N 0.51943 0.62626 0.28005
 C246 C 0.51914 0.60487 0.24781
 C247 C 0.52048 0.60434 0.17586
 C248 C 0.52174 0.62604 0.13822
 C249 C 0.52116 0.64743 0.17248
 H250 H 0.48569 0.70383 0.30209
 H251 H 0.55316 0.70940 0.41777
 H252 H 0.51837 0.58855 0.27845
 H253 H 0.52275 0.62622 0.08255
 H254 H 0.48687 0.66905 0.22811
 H255 H 0.52197 0.66409 0.14326
 C256 C 0.33250 -0.15371 0.27901
 C257 C 0.30673 -0.15640 0.28862
 C258 C 0.28788 -0.17695 0.33126
 C259 C 0.29451 -0.19497 0.36395
 C260 C 0.32027 -0.19196 0.35176
 N261 N 0.33844 -0.17152 0.31093
 C262 C 0.35404 -0.13095 0.23918
 N263 N 0.38046 -0.12156 0.25686
 C264 C 0.40138 -0.10004 0.22474
 C265 C 0.39625 -0.08663 0.17110
 C266 C 0.36925 -0.09637 0.15064
 C267 C 0.34809 -0.11848 0.18458
 H268 H 0.26829 -0.17845 0.33952
 H269 H 0.32630 -0.20529 0.37629
 H270 H 0.42195 -0.09335 0.24153
 H271 H 0.36447 -0.08672 0.10907
 H272 H 0.30145 -0.14223 0.26576
 H273 H 0.32740 -0.12575 0.16786
 C274 C 0.85280 0.52099 0.28035
 C275 C 0.85125 0.54473 0.29039
 C276 C 0.83087 0.54389 0.33242
 C277 C 0.81193 0.51947 0.36401
 C278 C 0.81384 0.49611 0.35134
 N279 N 0.83410 0.49752 0.31116
 C280 C 0.87520 0.52103 0.24135
 N281 N 0.88289 0.50255 0.25855
 C282 C 0.90375 0.50164 0.22677
 C283 C 0.91820 0.52002 0.17389
 C284 C 0.91028 0.53886 0.15406
 C285 C 0.88883 0.53948 0.18775
 H286 H 0.83022 0.56242 0.34113
 H287 H 0.79977 0.47688 0.37494
 H288 H 0.90905 0.48660 0.24312
 H289 H 0.92081 0.55325 0.11308
 H290 H 0.86614 0.56395 0.26834
 H291 H 0.88291 0.55405 0.17145
 C292 C 0.49051 0.33700 0.27841
 C293 C 0.51481 0.33829 0.29936
 C294 C 0.51387 0.31783 0.34097
 C295 C 0.48880 0.29599 0.36181
 C296 C 0.46493 0.29480 0.33713
 N297 N 0.46637 0.31511 0.29681
 C298 C 0.49063 0.35953 0.23983
 N299 N 0.47018 0.35421 0.19470
 C300 C 0.46865 0.37433 0.16022
 C301 C 0.48808 0.40163 0.17196
 C302 C 0.50924 0.40752 0.21830
 C303 C 0.51066 0.38660 0.25204
 H304 H 0.53281 0.31949 0.35814
 H305 H 0.44518 0.27817 0.35132
 H306 H 0.45192 0.36902 0.12512
 H307 H 0.52459 0.42834 0.22893
 H308 H 0.53437 0.35504 0.28434
 H309 H 0.52678 0.39169 0.28898
 C310 C 0.66046 0.15468 0.27934
 C311 C 0.65841 0.17719 0.30102
 C312 C 0.67877 0.19695 0.34209
 C313 C 0.70126 0.19445 0.36171
 C314 C 0.70316 0.17226 0.33634
 N315 N 0.68295 0.15314 0.29653
 C316 C 0.63816 0.13206 0.24107
 N317 N 0.64393 0.11751 0.19509
 C318 C 0.62410 0.09579 0.16060
 C319 C 0.59664 0.08726 0.17311
 C320 C 0.59028 0.10190 0.22042
 C321 C 0.61091 0.12432 0.25422
 H322 H 0.67652 0.21382 0.35986
 H323 H 0.72030 0.16969 0.34961
 H324 H 0.62978 0.08487 0.12474
 H325 H 0.56934 0.09591 0.23170
 H326 H 0.64116 0.17944 0.28695
 H327 H 0.60549 0.13488 0.29183
 C328 C 0.48698 0.15381 -0.28011
 C329 C 0.51169 0.17616 -0.30071
 C330 C 0.51160 0.19622 -0.34186
 C331 C 0.48692 0.19425 -0.36277
 C332 C 0.46263 0.17227 -0.33762
 N333 N 0.46327 0.15281 -0.29791
 C334 C 0.48622 0.13071 -0.24284
 N335 N 0.46566 0.11594 -0.19779
 C336 C 0.46343 0.09378 -0.16444
 C337 C 0.48222 0.08503 -0.17726
 C338 C 0.50344 0.09990 -0.22363
 C339 C 0.50557 0.12272 -0.25625
 H340 H 0.53095 0.21290 -0.35861
 H341 H 0.44310 0.17002 -0.35123
 H342 H 0.44668 0.08270 -0.12925
 H343 H 0.51832 0.09378 -0.23510
 H344 H 0.53095 0.17802 -0.28590
 H345 H 0.52172 0.13342 -0.29322
 C346 C 0.66489 0.51228 -0.28571
 C347 C 0.66338 0.48799 -0.30747
 C348 C 0.68410 0.48890 -0.34805
 C349 C 0.70638 0.51400 -0.36756
 C350 C 0.70762 0.53783 -0.34202
 N351 N 0.68713 0.53637 -0.30254
 C352 C 0.64243 0.51238 -0.24733
 N353 N 0.64804 0.53276 -0.20176
 C354 C 0.62813 0.53467 -0.16745
 C355 C 0.60072 0.51574 -0.17980
 C356 C 0.59450 0.49465 -0.22662
 C357 C 0.61524 0.49281 -0.26017
 H358 H 0.68223 0.46990 -0.36547
 H359 H 0.72450 0.55767 -0.35459
 H360 H 0.63370 0.55131 -0.13193
 H361 H 0.57359 0.47967 -0.23767
 H362 H 0.64631 0.46844 -0.29363
 H363 H 0.60996 0.47677 -0.29741
 C364 C 0.84293 0.33432 -0.28017
 C365 C 0.84243 0.30960 -0.29056
 C366 C 0.82245 0.28981 -0.33266
 C367 C 0.80261 0.29435 -0.36358
 C368 C 0.80315 0.31893 -0.34892
 N369 N 0.82321 0.33811 -0.30914
 C370 C 0.86535 0.35670 -0.24154
 N371 N 0.88034 0.35129 -0.19604
 C372 C 0.90196 0.37131 -0.16190
 C373 C 0.90999 0.39865 -0.17426
 C374 C 0.89471 0.40469 -0.22034
 C375 C 0.87223 0.38379 -0.25352
 H376 H 0.82290 0.27120 -0.34184
 H377 H 0.78831 0.32345 -0.37104
 H378 H 0.91328 0.36586 -0.12669
 H379 H 0.90022 0.42556 -0.23098
 H380 H 0.85788 0.30598 -0.26847
 H381 H 0.86085 0.38881 -0.28968
 C382 C 0.51245 -0.15251 -0.27776
 C383 C 0.48801 -0.17351 -0.30431
 C384 C 0.48839 -0.19319 -0.34673
 C385 C 0.51317 -0.19173 -0.36402
 C386 C 0.53713 -0.17067 -0.33473
 N387 N 0.53616 -0.15190 -0.29315
 C388 C 0.51296 -0.13019 -0.23721
 N389 N 0.49283 -0.12397 -0.24587
 C390 C 0.49318 -0.10253 -0.21378
 C391 C 0.51469 -0.08585 -0.16977
 C392 C 0.53531 -0.09224 -0.15856
 C393 C 0.53465 -0.11425 -0.19273
 H394 H 0.46933 -0.20900 -0.36757
 H395 H 0.55673 -0.16876 -0.34564
 H396 H 0.47676 -0.09839 -0.22321
 H397 H 0.55225 -0.07982 -0.12497
 H398 H 0.46881 -0.17457 -0.29295
 H399 H 0.55098 -0.11865 -0.18483
 C400 C 0.33325 0.48650 -0.27815
 C401 C 0.33596 0.51089 -0.30339
 C402 C 0.31571 0.51030 -0.34543
 C403 C 0.29291 0.48538 -0.36375
 C404 C 0.29073 0.46145 -0.33575
 N405 N 0.31064 0.46262 -0.29441
 C406 C 0.35530 0.48632 -0.23787
 N407 N 0.38139 0.50666 -0.24679
 C408 C 0.40269 0.50671 -0.21456
 C409 C 0.39830 0.48544 -0.17002
 C410 C 0.37155 0.46459 -0.15869
 C411 C 0.35001 0.46481 -0.19310
 H412 H 0.31841 0.52935 -0.36527
 H413 H 0.27348 0.44175 -0.34752
 H414 H 0.42304 0.52328 -0.22413
 H415 H 0.36737 0.44781 -0.12472
 H416 H 0.35368 0.53021 -0.29126
 H417 H 0.32948 0.44833 -0.18500
 C418 C 1.15664 0.65866 -0.28243
 C419 C 1.17871 0.65627 -0.30628
 C420 C 1.19845 0.67673 -0.34739
 C421 C 1.19624 0.69960 -0.36537
 C422 C 1.17437 0.70167 -0.33780
 N423 N 1.15542 0.68144 -0.29785
 C424 C 1.13407 0.63660 -0.24344
 N425 N 1.12001 0.64286 -0.19705
 C426 C 1.09803 0.62341 -0.16258
 C427 C 1.08860 0.59582 -0.17570
 C428 C 1.10278 0.58892 -0.22320
 C429 C 1.12556 0.60920 -0.25685
 H430 H 1.21502 0.67422 -0.36646
 H431 H 1.17190 0.71902 -0.34910
 H432 H 1.08754 0.62952 -0.12651
 H433 H 1.09610 0.56785 -0.23484
 H434 H 1.18069 0.63873 -0.29367
 H435 H 1.13573 0.60341 -0.29474
 C436 C 0.85063 0.52035 -0.27499
 C437 C 0.84930 0.54418 -0.28567
 C438 C 0.82904 0.54343 -0.32812
 C439 C 0.81001 0.51900 -0.35947
 C440 C 0.81158 0.49551 -0.34575
 N441 N 0.83174 0.49685 -0.30527
 C442 C 0.87314 0.52036 -0.23652
 N443 N 0.88060 0.50172 -0.25375
 C444 C 0.90169 0.50090 -0.22297
 C445 C 0.91669 0.51961 -0.17119
 C446 C 0.90899 0.53859 -0.15117
 C447 C 0.88727 0.53909 -0.18380
 H448 H 0.82867 0.56206 -0.33763
 H449 H 0.79742 0.47627 -0.36908
 H450 H 0.90678 0.48573 -0.23935
 H451 H 0.91994 0.55322 -0.11098
 H452 H 0.86434 0.56342 -0.26406
 H453 H 0.88157 0.55382 -0.16751
 C454 C 0.49244 0.33825 -0.27834
 C455 C 0.51666 0.34058 -0.30399
 C456 C 0.51565 0.31995 -0.34504
 C457 C 0.49062 0.29694 -0.36058
 C458 C 0.46700 0.29480 -0.33121
 N459 N 0.46847 0.31527 -0.29163
 C460 C 0.49219 0.36070 -0.24030
 N461 N 0.47229 0.35500 -0.19312
 C462 C 0.47008 0.37487 -0.15946
 C463 C 0.48816 0.40229 -0.17422
 C464 C 0.50879 0.40859 -0.22256
 C465 C 0.51095 0.38793 -0.25545
 H466 H 0.53442 0.32236 -0.36604
 H467 H 0.44730 0.27727 -0.34118
 H468 H 0.45382 0.36923 -0.12266
 H469 H 0.52312 0.42951 -0.23551
 H470 H 0.53617 0.35824 -0.29309
 H471 H 0.52654 0.39331 -0.29408
 C472 C 0.65902 0.15685 -0.27748
 C473 C 0.65615 0.17831 -0.30424
 C474 C 0.67659 0.19786 -0.34574
 C475 C 0.69991 0.19614 -0.36063
 C476 C 0.70254 0.17509 -0.33020
 N477 N 0.68229 0.15619 -0.29022
 C478 C 0.63689 0.13417 -0.23892
 N479 N 0.64310 0.12021 -0.19196
 C480 C 0.62361 0.09800 -0.15829
 C481 C 0.59606 0.08821 -0.17288
 C482 C 0.58923 0.10232 -0.22082
 C483 C 0.60951 0.12531 -0.25368
 H484 H 0.67380 0.21387 -0.36764
 H485 H 0.72034 0.17319 -0.33960
 H486 H 0.62967 0.08758 -0.12177
 H487 H 0.56819 0.09540 -0.23361
 H488 H 0.63824 0.17989 -0.29386
 H489 H 0.60372 0.13531 -0.29212
 C490 C 1.14780 0.47708 -0.27916
 C491 C 1.14954 0.45350 -0.29004
 C492 C 1.17010 0.45472 -0.33206
 C493 C 1.18901 0.47936 -0.36277
 C494 C 1.18696 0.50257 -0.34903
 N495 N 1.16652 0.50079 -0.30894
 C496 C 1.12508 0.47661 -0.24073
 N497 N 1.11721 0.49496 -0.25783
 C498 C 1.09598 0.49539 -0.22681
 C499 C 1.08129 0.47659 -0.17490
 C500 C 1.08940 0.45790 -0.15509
 C501 C 1.11125 0.45778 -0.18798
 H502 H 1.17085 0.43629 -0.34161
 H503 H 1.20101 0.52197 -0.37191
 H504 H 1.09055 0.51035 -0.24302
 H505 H 1.07870 0.44321 -0.11480
 H506 H 1.13464 0.43411 -0.26882
 H507 H 1.11729 0.44329 -0.17179
 C508 C 0.51480 0.66932 -0.27745
 C509 C 0.53935 0.69337 -0.28945
 C510 C 0.53963 0.71335 -0.33202
 C511 C 0.51540 0.70966 -0.36185
 C512 C 0.49107 0.68580 -0.34544
 N513 N 0.49147 0.66641 -0.30523
 C514 C 0.51418 0.64654 -0.23885
 N515 N 0.53484 0.65111 -0.19520
 C516 C 0.53580 0.63058 -0.16147
 C517 C 0.51549 0.60355 -0.17245
 C518 C 0.49389 0.59840 -0.21652
 C519 C 0.49302 0.61983 -0.24924
 H520 H 0.55891 0.73141 -0.34255
 H521 H 0.47181 0.68197 -0.36656
 H522 H 0.55279 0.63532 -0.12779
 H523 H 0.47778 0.57780 -0.22602
 H524 H 0.55829 0.69627 -0.26833
 H525 H 0.47638 0.61545 -0.28392
 C526 C 0.33510 -0.15833 -0.27507
 C527 C 0.33775 -0.18054 -0.29630
 C528 C 0.31780 -0.20048 -0.33780
 C529 C 0.29510 -0.19847 -0.35810
 C530 C 0.29249 -0.17669 -0.33272
 N531 N 0.31237 -0.15733 -0.29270
 C532 C 0.35716 -0.13526 -0.23755
 N533 N 0.35104 -0.12054 -0.19299
 C534 C 0.37064 -0.09819 -0.15998
 C535 C 0.39818 -0.08918 -0.17278
 C536 C 0.40488 -0.10404 -0.21847
 C537 C 0.38450 -0.12709 -0.25069
 H538 H 0.32053 -0.21708 -0.35545
 H539 H 0.27516 -0.17453 -0.34646
 H540 H 0.36471 -0.08714 -0.12526
 H541 H 0.42590 -0.09769 -0.22986
 H542 H 0.35521 -0.18237 -0.28180
 H543 H 0.39019 -0.13776 -0.28732
 C544 C 0.51306 -0.15111 0.27839
 C545 C 0.48878 -0.17431 0.29754
 C546 C 0.48969 -0.19399 0.33843
 C547 C 0.51472 -0.19075 0.36036
 C548 C 0.53862 -0.16790 0.33719
 N549 N 0.53722 -0.14883 0.29755
 C550 C 0.51278 -0.12855 0.24106
 N551 N 0.53307 -0.11328 0.19586
 C552 C 0.53423 -0.09169 0.16204
 C553 C 0.51453 -0.08408 0.17446
 C554 C 0.49361 -0.09943 0.22111
 C555 C 0.49259 -0.12168 0.25423
 H556 H 0.47072 -0.21141 0.35435
 H557 H 0.55836 -0.16475 0.35228
 H558 H 0.55079 -0.08018 0.12668
 H559 H 0.47807 -0.09416 0.23227
 H560 H 0.46923 -0.17710 0.28180
 H561 H 0.47659 -0.13286 0.29126
 C562 C 0.33694 0.48990 0.28083
 C563 C 0.33844 0.51392 0.30508
 C564 C 0.31748 0.51246 0.34556
 C565 C 0.29499 0.48715 0.36201
 C566 C 0.29369 0.46369 0.33416
 N567 N 0.31446 0.46562 0.29498
 C568 C 0.35970 0.49029 0.24295
 N569 N 0.35448 0.47053 0.19578
 C570 C 0.37468 0.46907 0.16172
 C571 C 0.40197 0.48785 0.17593
 C572 C 0.40779 0.50830 0.22444
 C573 C 0.38677 0.50966 0.25781
 H574 H 0.31925 0.53111 0.36543
 H575 H 0.27658 0.44379 0.34493
 H576 H 0.36941 0.45291 0.12484
 H577 H 0.42860 0.52312 0.23699
 H578 H 0.35569 0.53362 0.29343
 H579 H 0.39175 0.52518 0.29643
 C580 C 1.15648 0.65998 0.27752
 C581 C 1.17880 0.65777 0.30017
 C582 C 1.19849 0.67812 0.34140
 C583 C 1.19605 0.70071 0.36023
 C584 C 1.17406 0.70276 0.33387
 N585 N 1.15504 0.68257 0.29390
 C586 C 1.13389 0.63775 0.23920
 N587 N 1.11958 0.64369 0.19277
 C588 C 1.09772 0.62397 0.15856
 C589 C 1.08873 0.59648 0.17193
 C590 C 1.10313 0.58993 0.21960
 C591 C 1.12575 0.61045 0.25305
 H592 H 1.21520 0.67576 0.36006
 H593 H 1.17156 0.71997 0.34650
 H594 H 1.08700 0.62979 0.12236
 H595 H 1.09678 0.56894 0.23146
 H596 H 1.18094 0.64039 0.28678
 H597 H 1.13613 0.60493 0.29103
 C598 C 0.48024 0.15108 0.27491
 C599 C 0.45682 0.15302 0.28666
 C600 C 0.45824 0.17330 0.33012
 C601 C 0.48293 0.19175 0.36146
 C602 C 0.50599 0.18953 0.34688
 N603 N 0.50400 0.16935 0.30537
 C604 C 0.47949 0.12850 0.23508
 N605 N 0.49764 0.12027 0.25117
 C606 C 0.49771 0.09900 0.21927
 C607 C 0.47869 0.08462 0.16751
 C608 C 0.46024 0.09315 0.14854
 C609 C 0.46051 0.11505 0.18231
 H610 H 0.43993 0.17421 0.34020
 H611 H 0.52541 0.20323 0.37016
 H612 H 0.51250 0.09327 0.23483
 H613 H 0.44538 0.08268 0.10843
 H614 H 0.43738 0.13846 0.26497
 H615 H 0.44616 0.12138 0.16692
 C616 C 0.66759 0.51253 0.27071
 C617 C 0.66611 0.48825 0.29279
 C618 C 0.68628 0.48924 0.33569
 C619 C 0.70804 0.51435 0.35657
 C620 C 0.70951 0.53816 0.33047
 N621 N 0.68945 0.53668 0.28908
 C622 C 0.64517 0.51246 0.23166
 N623 N 0.65060 0.53313 0.18713
 C624 C 0.63055 0.53498 0.15320
 C625 C 0.60322 0.51572 0.16512
 C626 C 0.59723 0.49427 0.21057
 C627 C 0.61807 0.49250 0.24363
 H628 H 0.68445 0.47035 0.35390
 H629 H 0.72612 0.55794 0.34457
 H630 H 0.63593 0.55191 0.11872
 H631 H 0.57638 0.47902 0.22129
 H632 H 0.64938 0.46866 0.27785
 H633 H 0.61287 0.47623 0.28016
 C634 C 0.84684 0.33328 0.28323
 C635 C 0.81958 0.32496 0.26872
 C636 C 0.79918 0.30537 0.31045
 C637 C 0.80599 0.29357 0.36476
 C638 C 0.83345 0.30185 0.37599
 N639 N 0.85299 0.32161 0.33630
 C640 C 0.86907 0.35555 0.24486
 N641 N 0.88945 0.37635 0.28045
 C642 C 0.91071 0.39749 0.24832
 C643 C 0.91266 0.39797 0.17640
 C644 C 0.89207 0.37658 0.13866
 C645 C 0.86995 0.35549 0.17277
 H646 H 0.77817 0.29955 0.30067
 H647 H 0.83945 0.29342 0.41804
 H648 H 0.92638 0.41356 0.27902
 H649 H 0.89297 0.37636 0.08300
 H650 H 0.81426 0.33423 0.22727
 H651 H 0.85404 0.33903 0.14347
   
