data_POSCAR
  _audit_creation_date              2014-09-24
  _audit_creation_method            'ToBaCCo'
  _symmetry_space_group_name_H-M    'P1'
  _symmetry_Int_Tables_number       1
  _symmetry_cell_setting            triclinic
  loop_
  _symmetry_equiv_pos_as_xyz
 x,y,z
_cell_length_a 26.7623
_cell_length_b 27.3100
_cell_length_c 43.3147
_cell_angle_alpha 87.103000
_cell_angle_beta 88.641200
_cell_angle_gamma 97.836900
loop_
  _atom_site_label
  _atom_site_type_symbol
  _atom_site_fract_x
  _atom_site_fract_y
  _atom_site_fract_z
O1 O -0.03369 0.44612 1.02525
 O2 O -0.01417 0.55135 0.96808
 O3 O -0.02261 0.45532 0.96547
 O4 O -0.02155 0.54223 1.02824
 O5 O 0.06060 0.54206 1.03200
 O6 O 0.06031 0.46002 0.96746
 O7 O 0.06834 0.55540 0.97213
 O8 O 0.04874 0.44649 1.02742
 Cu9 Cu -0.03129 0.49859 0.99646
 Cu10 Cu 0.06776 0.50115 1.00006
 C11 C 0.00399 0.42798 1.03581
 C12 C 0.03026 0.57175 0.96054
 C13 C 0.01894 0.44317 0.95573
 C14 C 0.01991 0.55668 1.04087
 O15 O 0.45420 0.04080 0.53322
 O16 O 0.55483 0.05781 0.47257
 O17 O 0.45666 0.05647 0.47353
 O18 O 0.55153 0.04131 0.53224
 O19 O 0.53940 -0.03957 0.52745
 O20 O 0.44760 -0.02390 0.46698
 O21 O 0.54546 -0.02291 0.46752
 O22 O 0.44268 -0.03963 0.52674
 Cu23 Cu 0.50540 0.05723 0.50336
 Cu24 Cu 0.49283 -0.03956 0.49645
 C25 C 0.43120 -0.00231 0.54021
 C26 C 0.56785 0.02030 0.46002
 C27 C 0.43578 0.01881 0.46039
 C28 C 0.56116 -0.00180 0.54007
 C29 C 0.10372 -0.03617 0.25694
 H30 H 0.10467 -0.04231 0.23246
 C31 C 0.14705 -0.03824 0.27403
 H32 H 0.18132 -0.04605 0.26262
 C33 C 0.05786 -0.01894 0.30165
 H34 H 0.02292 -0.01188 0.31242
 C35 C 0.10058 -0.01978 0.31949
 H36 H 0.09779 -0.01394 0.34397
 N37 N 0.06024 -0.02662 0.27089
 C38 C -0.03909 -0.07892 0.19764
 H39 H -0.05760 -0.04686 0.19257
 C40 C -0.04735 -0.11938 0.17905
 H41 H -0.07195 -0.11791 0.15962
 C42 C 0.01474 -0.12031 0.22925
 H43 H 0.03779 -0.12111 0.24936
 C44 C 0.00766 -0.16152 0.21120
 H45 H 0.02554 -0.19350 0.21784
 Zn46 Zn 0.00237 -0.02378 0.24657
 N47 N -0.00783 -0.07970 0.22192
 C48 C -0.03012 0.05133 0.20842
 N49 N 0.01135 0.03520 0.22072
 C50 C 0.05805 0.06116 0.21526
 C51 C 0.06446 0.10458 0.19631
 C52 C -0.02556 0.09468 0.18941
 C53 C -0.08896 -0.06587 0.27662
 C54 C -0.13216 -0.06690 0.29543
 C55 C -0.10611 0.01896 0.30535
 C56 C -0.06322 0.01819 0.28640
 N57 N -0.05551 -0.02379 0.27251
 H58 H -0.06704 0.03065 0.21360
 H59 H 0.09059 0.04836 0.22550
 H60 H 0.10217 0.12435 0.19222
 H61 H -0.05967 0.10559 0.18013
 H62 H -0.08203 -0.09889 0.26542
 H63 H -0.15812 -0.10103 0.29838
 H64 H -0.11041 0.05308 0.31600
 H65 H -0.03594 0.05118 0.28271
 C66 C -0.02319 -0.16101 0.18540
 C67 C 0.14596 -0.02926 0.30557
 C68 C -0.14157 -0.02418 0.31014
 C69 C 0.02248 0.12214 0.18296
 C70 C -0.01018 0.11492 0.76900
 H71 H -0.00203 0.12224 0.74449
 C72 C -0.01552 0.15400 0.78786
 H73 H -0.01160 0.19134 0.77760
 C74 C -0.02755 0.05689 0.81175
 H75 H -0.03313 0.01892 0.82086
 C76 C -0.03403 0.09476 0.83133
 H77 H -0.04387 0.08571 0.85555
 N78 N -0.01536 0.06759 0.78126
 C79 C 0.06087 -0.01028 0.71294
 H80 H 0.03142 -0.04104 0.71047
 C81 C 0.10562 -0.00682 0.69534
 H82 H 0.10948 -0.03483 0.67903
 C83 C 0.08962 0.06442 0.73649
 H84 H 0.08342 0.09182 0.75276
 C85 C 0.13508 0.06939 0.71928
 H86 H 0.16342 0.10098 0.72225
 Zn87 Zn -0.00973 0.01615 0.75428
 N88 N 0.05339 0.02532 0.73268
 C89 C -0.05007 0.03231 0.69568
 N90 N -0.06204 0.01700 0.72562
 C91 C -0.11094 0.00578 0.73572
 C92 C -0.15011 0.00736 0.71505
 C93 C -0.08793 0.03563 0.67442
 C94 C 0.02374 -0.05002 0.79705
 C95 C 0.02475 -0.09407 0.81466
 C96 C -0.05193 -0.12828 0.79072
 C97 C -0.05107 -0.08367 0.77331
 N98 N -0.01395 -0.04540 0.77709
 H99 H -0.01111 0.04303 0.68830
 H100 H -0.11955 -0.00429 0.75993
 H101 H -0.18845 -0.00149 0.72406
 H102 H -0.07733 0.04814 0.65072
 H103 H 0.05308 -0.01911 0.79936
 H104 H 0.05495 -0.09540 0.83062
 H105 H -0.08214 -0.15812 0.78748
 H106 H -0.07994 -0.07996 0.75671
 C107 C 0.14358 0.03345 0.69845
 C108 C -0.02734 0.14400 0.81952
 C109 C -0.01364 -0.13426 0.81172
 C110 C -0.13880 0.02237 0.68374
 C111 C 0.02202 -0.40890 0.06593
 C112 C -0.01850 -0.38478 0.07432
 C113 C -0.01369 -0.34738 0.09779
 N114 N -0.05138 -0.31979 0.10263
 N115 N -0.04661 -0.28477 0.12314
 C116 C -0.00400 -0.27616 0.13961
 N117 N 0.03344 -0.30406 0.13496
 N118 N 0.02873 -0.33893 0.11442
 C119 C 0.00276 -0.23687 0.16176
 C120 C -0.03145 -0.20305 0.16496
 H121 H -0.05377 -0.39182 0.06250
 H122 H 0.03717 -0.23311 0.17455
 H123 H 0.05767 -0.40061 0.07718
 H124 H -0.06389 -0.20543 0.15033
 C125 C -0.00535 0.38472 0.05778
 C126 C 0.03335 0.36162 0.07046
 C127 C 0.02271 0.31701 0.09139
 N128 N 0.06124 0.29577 0.10368
 N129 N 0.05196 0.25504 0.12236
 C130 C 0.00377 0.23403 0.12939
 N131 N -0.03470 0.25530 0.11710
 N132 N -0.02543 0.29600 0.09847
 C133 C -0.00745 0.18873 0.14967
 C134 C 0.03053 0.16598 0.16384
 H135 H 0.07232 0.37619 0.06468
 H136 H -0.04677 0.17394 0.15320
 H137 H -0.04427 0.37021 0.06378
 H138 H 0.06912 0.18360 0.15983
 C139 C 0.39048 -0.00977 0.56403
 C140 C 0.37519 0.02931 0.57967
 C141 C 0.33303 0.02174 0.60260
 N142 N 0.31796 0.06108 0.61633
 N143 N 0.27905 0.05481 0.63659
 C144 C 0.25387 0.00890 0.64390
 N145 N 0.26911 -0.03042 0.63028
 N146 N 0.30796 -0.02415 0.61002
 C147 C 0.20964 0.00120 0.66525
 C148 C 0.19104 0.04007 0.67946
 H149 H 0.39397 0.06666 0.57459
 H150 H 0.19113 -0.03636 0.66947
 H151 H 0.37164 -0.04710 0.56907
 H152 H 0.21218 0.07688 0.67673
 C153 C -0.40243 -0.00859 0.56423
 C154 C -0.36743 0.03040 0.57294
 C155 C -0.33104 0.02375 0.59714
 N156 N -0.28842 0.05663 0.59843
 N157 N -0.25503 0.05100 0.62020
 C158 C -0.26333 0.01257 0.64169
 N159 N -0.30631 -0.01992 0.64067
 N160 N -0.33945 -0.01460 0.61869
 C161 C -0.22681 0.00618 0.66590
 C162 C -0.17597 0.02595 0.66165
 H163 H -0.36513 0.06631 0.56075
 H164 H -0.23997 -0.01721 0.68614
 H165 H -0.40199 -0.04546 0.57460
 H166 H -0.16407 0.04352 0.63917
 C167 C 0.03773 -0.38723 0.93961
 C168 C -0.00237 -0.36838 0.92527
 C169 C 0.00478 -0.32341 0.90461
 N170 N -0.03496 -0.30961 0.88913
 N171 N -0.02958 -0.26830 0.87094
 C172 C 0.01577 -0.23913 0.86765
 N173 N 0.05551 -0.25289 0.88318
 N174 N 0.05018 -0.29432 0.90128
 C175 C 0.02200 -0.19252 0.84848
 C176 C -0.01583 -0.17954 0.82912
 H177 H -0.04057 -0.38695 0.92933
 H178 H 0.05769 -0.16902 0.84963
 H179 H 0.07599 -0.36953 0.93451
 H180 H -0.04899 -0.20670 0.82709
 C181 C 0.02004 0.40905 0.93068
 C182 C -0.02238 0.37714 0.92293
 C183 C -0.01925 0.34007 0.89973
 N184 N -0.05562 0.30035 0.89912
 N185 N -0.05217 0.26564 0.87892
 C186 C -0.01240 0.26962 0.85843
 N187 N 0.02353 0.30973 0.85872
 N188 N 0.02031 0.34420 0.87908
 C189 C -0.00745 0.23126 0.83637
 C190 C -0.03424 0.18378 0.84046
 H191 H -0.05776 0.37695 0.93565
 H192 H 0.02049 0.23970 0.81769
 H193 H 0.05621 0.40653 0.91954
 H194 H -0.05823 0.17436 0.86099
 C195 C -0.39235 0.02720 0.43818
 C196 C -0.37506 -0.01211 0.42368
 C197 C -0.33056 -0.00507 0.40249
 N198 N -0.31575 -0.04459 0.38886
 N199 N -0.27487 -0.03914 0.37019
 C200 C -0.24716 0.00606 0.36448
 N201 N -0.26200 0.04561 0.37809
 N202 N -0.30294 0.04017 0.39673
 C203 C -0.20129 0.01256 0.34435
 C204 C -0.18557 -0.02688 0.32902
 H205 H -0.39393 -0.04952 0.42845
 H206 H -0.18038 0.04931 0.34189
 H207 H -0.37366 0.06454 0.43288
 H208 H -0.20936 -0.06237 0.33183
 C209 C 0.39643 0.02506 0.43797
 C210 C 0.37538 -0.01353 0.42046
 C211 C 0.33181 -0.00925 0.40091
 N212 N 0.31715 -0.04480 0.38094
 N213 N 0.27671 -0.04229 0.36387
 C214 C 0.24920 -0.00430 0.36633
 N215 N 0.26374 0.03113 0.38638
 N216 N 0.30437 0.02880 0.40330
 C217 C 0.20356 -0.00176 0.34838
 C218 C 0.19202 -0.03127 0.32348
 H219 H 0.39075 -0.04826 0.42143
 H220 H 0.17929 0.02518 0.35441
 H221 H 0.38281 0.06062 0.43582
 H222 H 0.21899 -0.05455 0.31570
   
