data_POSCAR
  _audit_creation_date              2014-09-24
  _audit_creation_method            'ToBaCCo'
  _symmetry_space_group_name_H-M    'P1'
  _symmetry_Int_Tables_number       1
  _symmetry_cell_setting            triclinic
  loop_
  _symmetry_equiv_pos_as_xyz
 x,y,z
_cell_length_a 65.2322
_cell_length_b 65.2618
_cell_length_c 18.9921
_cell_angle_alpha 89.793100
_cell_angle_beta 90.023300
_cell_angle_gamma 119.981400
loop_
  _atom_site_label
  _atom_site_type_symbol
  _atom_site_fract_x
  _atom_site_fract_y
  _atom_site_fract_z
C1 C 0.24855 0.49622 0.53432
 C2 C 0.24743 0.49477 0.46238
 C3 C 0.22835 0.49583 0.42271
 C4 C 0.26530 0.49245 0.41966
 C5 C 0.26951 0.49889 0.57395
 C6 C 0.22874 0.49501 0.57698
 C7 C 0.21264 0.47665 0.38150
 C8 C 0.19371 0.47681 0.34757
 C9 C 0.19030 0.49661 0.35185
 C10 C 0.20710 0.51628 0.39150
 C11 C 0.22563 0.51574 0.42682
 C12 C 0.27242 0.47606 0.43783
 C13 C 0.29077 0.47564 0.40128
 C14 C 0.30178 0.49092 0.34371
 C15 C 0.29346 0.50619 0.32278
 C16 C 0.27557 0.50705 0.36061
 C17 C 0.29269 0.51596 0.55427
 C18 C 0.31216 0.51715 0.58900
 C19 C 0.30876 0.50196 0.64577
 C20 C 0.28569 0.48575 0.66784
 C21 C 0.26623 0.48412 0.63195
 C22 C 0.23356 0.51064 0.63325
 C23 C 0.21515 0.50971 0.67337
 C24 C 0.19132 0.49357 0.65689
 C25 C 0.18667 0.47765 0.60110
 C26 C 0.20511 0.47789 0.56334
 H27 H 0.21474 0.46126 0.37688
 H28 H 0.18258 0.46165 0.31526
 H29 H 0.20535 0.53170 0.39990
 H30 H 0.23770 0.53076 0.45840
 H31 H 0.26426 0.46406 0.48180
 H32 H 0.29670 0.46375 0.41959
 H33 H 0.27009 0.51955 0.34465
 H34 H 0.29571 0.52803 0.51109
 H35 H 0.32987 0.52994 0.57178
 H36 H 0.28277 0.47391 0.71162
 H37 H 0.24857 0.47098 0.64856
 H38 H 0.25164 0.52367 0.64616
 H39 H 0.21978 0.52169 0.71735
 H40 H 0.16878 0.46511 0.58529
 H41 H 0.20083 0.46478 0.52276
 H42 H 0.30089 0.51766 0.27741
 C43 C 0.50408 -0.24814 0.53520
 C44 C 0.50540 -0.24794 0.46352
 C45 C 0.50459 -0.26815 0.42532
 C46 C 0.50748 -0.22796 0.42005
 C47 C 0.50263 -0.22941 0.57519
 C48 C 0.50471 -0.26702 0.57696
 C49 C 0.52416 -0.26480 0.38564
 C50 C 0.52386 -0.28394 0.35182
 C51 C 0.50381 -0.30665 0.35610
 C52 C 0.48403 -0.30984 0.39462
 C53 C 0.48445 -0.29076 0.42917
 C54 C 0.52382 -0.20436 0.43691
 C55 C 0.52454 -0.18579 0.39815
 C56 C 0.50965 -0.19036 0.33958
 C57 C 0.49432 -0.21406 0.32035
 C58 C 0.49313 -0.23260 0.36043
 C59 C 0.48415 -0.22467 0.56346
 C60 C 0.48373 -0.20613 0.59897
 C61 C 0.50188 -0.19198 0.64632
 C62 C 0.52008 -0.19708 0.65894
 C63 C 0.52030 -0.21580 0.62425
 C64 C 0.48532 -0.28234 0.61853
 C65 C 0.48526 -0.30108 0.65458
 C66 C 0.50478 -0.30488 0.65037
 C67 C 0.52455 -0.28865 0.60993
 C68 C 0.52446 -0.27005 0.57383
 H69 H 0.53980 -0.24744 0.38198
 H70 H 0.53923 -0.28098 0.32185
 H71 H 0.46842 -0.32719 0.39900
 H72 H 0.46914 -0.29359 0.45921
 H73 H 0.53582 -0.20024 0.48082
 H74 H 0.53646 -0.16789 0.41526
 H75 H 0.48072 -0.25064 0.34535
 H76 H 0.47026 -0.23514 0.52619
 H77 H 0.46955 -0.20248 0.58824
 H78 H 0.53412 -0.18657 0.69574
 H79 H 0.53465 -0.21926 0.63418
 H80 H 0.46988 -0.28025 0.62116
 H81 H 0.46925 -0.31315 0.68251
 H82 H 0.54058 -0.28964 0.60737
 H83 H 0.53982 -0.25798 0.54310
 H84 H 0.48312 -0.21837 0.27438
 C85 C 1.24704 0.75392 0.53758
 C86 C 1.24666 0.75429 0.46569
 C87 C 1.26665 0.77320 0.42511
 C88 C 1.22663 0.73573 0.42408
 C89 C 1.22858 0.73375 0.57870
 C90 C 1.26588 0.77371 0.57879
 C91 C 1.26292 0.78854 0.38237
 C92 C 1.28178 0.80698 0.34611
 C93 C 1.30485 0.81020 0.35010
 C94 C 1.30816 0.79405 0.39165
 C95 C 1.28933 0.77594 0.42908
 C96 C 1.20300 0.72804 0.44214
 C97 C 1.18448 0.70945 0.40588
 C98 C 1.18901 0.69894 0.34775
 C99 C 1.21271 0.70787 0.32680
 C100 C 1.23126 0.72581 0.36501
 C101 C 1.22521 0.71093 0.57126
 C102 C 1.20698 0.69187 0.60770
 C103 C 1.19135 0.69514 0.65166
 C104 C 1.19536 0.71838 0.65971
 C105 C 1.21393 0.73742 0.62449
 C106 C 1.27781 0.76900 0.63196
 C107 C 1.29578 0.78742 0.67040
 C108 C 1.30258 0.81132 0.65643
 C109 C 1.28987 0.81569 0.60367
 C110 C 1.27162 0.79716 0.56640
 H111 H 1.24542 0.78645 0.37805
 H112 H 1.27791 0.81813 0.31295
 H113 H 1.32548 0.79594 0.39843
 H114 H 1.29246 0.76413 0.46170
 H115 H 1.19880 0.73613 0.48517
 H116 H 1.16666 0.70313 0.42470
 H117 H 1.24930 0.73177 0.34878
 H118 H 1.23649 0.70783 0.53626
 H119 H 1.20450 0.67445 0.59800
 H120 H 1.18466 0.72217 0.69495
 H121 H 1.21650 0.75503 0.63151
 H122 H 1.27329 0.75095 0.64362
 H123 H 1.30366 0.78250 0.71239
 H124 H 1.29438 0.83339 0.58814
 H125 H 1.26216 0.80122 0.52704
 H126 H 1.21709 0.70105 0.28092
 C127 C 0.75304 0.50538 0.53684
 C128 C 0.75238 0.50383 0.46500
 C129 C 0.77069 0.50159 0.42418
 C130 C 0.73333 0.50453 0.42354
 C131 C 0.73320 0.50468 0.57719
 C132 C 0.77324 0.50747 0.57892
 C133 C 0.78143 0.51628 0.36545
 C134 C 0.79922 0.51502 0.32812
 C135 C 0.80675 0.49926 0.34942
 C136 C 0.79567 0.48412 0.40682
 C137 C 0.77744 0.48493 0.44304
 C138 C 0.72756 0.52231 0.43479
 C139 C 0.70915 0.52235 0.39742
 C140 C 0.69666 0.50516 0.34566
 C141 C 0.70322 0.48799 0.33236
 C142 C 0.72123 0.48760 0.37119
 C143 C 0.71039 0.48497 0.57359
 C144 C 0.69167 0.48474 0.61008
 C145 C 0.69524 0.50440 0.65058
 C146 C 0.71846 0.52399 0.65443
 C147 C 0.73719 0.52395 0.61893
 C148 C 0.76892 0.49222 0.63605
 C149 C 0.78764 0.49307 0.67406
 C150 C 0.81146 0.50918 0.65587
 C151 C 0.81549 0.52510 0.59967
 C152 C 0.79666 0.52440 0.56247
 H153 H 0.77638 0.52908 0.34940
 H154 H 0.80761 0.52683 0.28389
 H155 H 0.80115 0.47169 0.42347
 H156 H 0.76891 0.47286 0.48660
 H157 H 0.73718 0.53610 0.47305
 H158 H 0.70455 0.53570 0.41005
 H159 H 0.72564 0.47396 0.36062
 H160 H 0.70704 0.46987 0.54176
 H161 H 0.67423 0.46950 0.60331
 H162 H 0.72254 0.53915 0.68684
 H163 H 0.75480 0.53919 0.62297
 H164 H 0.75094 0.47933 0.65078
 H165 H 0.78307 0.48132 0.71882
 H166 H 0.83311 0.53750 0.58124
 H167 H 0.80042 0.53672 0.51943
 H168 H 0.69454 0.47486 0.29169
 C169 C 0.49426 0.24693 0.53618
 C170 C 0.49403 0.24648 0.46429
 C171 C 0.49504 0.26619 0.42231
 C172 C 0.49299 0.22643 0.42404
 C173 C 0.49579 0.22849 0.57792
 C174 C 0.49303 0.26578 0.57668
 C175 C 0.47648 0.26178 0.37625
 C176 C 0.47664 0.28036 0.33904
 C177 C 0.49562 0.30357 0.34617
 C178 C 0.51458 0.30784 0.39058
 C179 C 0.51426 0.28929 0.42858
 C180 C 0.47628 0.20287 0.44051
 C181 C 0.47644 0.18424 0.40514
 C182 C 0.49261 0.18869 0.35009
 C183 C 0.50843 0.21235 0.33111
 C184 C 0.50873 0.23098 0.36802
 C185 C 0.51553 0.22546 0.57235
 C186 C 0.51622 0.20721 0.60909
 C187 C 0.49693 0.19122 0.65139
 C188 C 0.47742 0.19492 0.65764
 C189 C 0.47705 0.21350 0.62213
 C190 C 0.50903 0.27732 0.63148
 C191 C 0.50847 0.29537 0.66910
 C192 C 0.49198 0.30277 0.65257
 C193 C 0.47550 0.29044 0.59828
 C194 C 0.47581 0.27203 0.56196
 H195 H 0.46160 0.24403 0.37051
 H196 H 0.46196 0.27661 0.30453
 H197 H 0.52936 0.32561 0.39707
 H198 H 0.52884 0.29294 0.46338
 H199 H 0.46328 0.19884 0.48149
 H200 H 0.46411 0.16637 0.42207
 H201 H 0.52147 0.24900 0.35329
 H202 H 0.53021 0.23699 0.53852
 H203 H 0.53140 0.20498 0.60082
 H204 H 0.46259 0.18393 0.69163
 H205 H 0.46180 0.21581 0.62763
 H206 H 0.52215 0.27242 0.64508
 H207 H 0.52072 0.30286 0.71240
 H208 H 0.46277 0.29533 0.58083
 H209 H 0.46273 0.26288 0.52139
 H210 H 0.52064 0.21659 0.28766
 C211 C 0.75247 0.24881 0.53802
 C212 C 0.75236 0.24800 0.46614
 C213 C 0.73348 0.22772 0.42586
 C214 C 0.77108 0.26771 0.42422
 C215 C 0.77259 0.26779 0.57815
 C216 C 0.73242 0.23068 0.58004
 C217 C 0.72607 0.20418 0.44450
 C218 C 0.70756 0.18544 0.40851
 C219 C 0.69674 0.18967 0.35037
 C220 C 0.70519 0.21330 0.32937
 C221 C 0.72312 0.23204 0.36709
 C222 C 0.78509 0.26330 0.37766
 C223 C 0.80351 0.28191 0.34057
 C224 C 0.80797 0.30518 0.34863
 C225 C 0.79341 0.30944 0.39360
 C226 C 0.77510 0.29084 0.43109
 C227 C 0.76828 0.28020 0.63054
 C228 C 0.78699 0.29840 0.66760
 C229 C 0.81079 0.30491 0.65325
 C230 C 0.81477 0.29175 0.60132
 C231 C 0.79597 0.27335 0.56514
 C232 C 0.70957 0.22743 0.57236
 C233 C 0.69049 0.20910 0.60835
 C234 C 0.69401 0.19366 0.65172
 C235 C 0.71696 0.19735 0.66080
 C236 C 0.73609 0.21595 0.62597
 H237 H 0.73443 0.20022 0.48749
 H238 H 0.70159 0.16767 0.42729
 H239 H 0.69807 0.21746 0.28359
 H240 H 0.72880 0.25000 0.35053
 H241 H 0.78209 0.24552 0.37132
 H242 H 0.81428 0.27813 0.30550
 H243 H 0.76424 0.29450 0.46616
 H244 H 0.75033 0.27590 0.64257
 H245 H 0.78238 0.30669 0.70899
 H246 H 0.83239 0.29603 0.58561
 H247 H 0.79974 0.26364 0.52606
 H248 H 0.70652 0.23880 0.53750
 H249 H 0.67290 0.20650 0.60072
 H250 H 0.72002 0.18572 0.69450
 H251 H 0.75364 0.21831 0.63264
 H252 H 0.79654 0.32722 0.40097
 O253 O 1.03300 0.55271 0.12967
 O254 O 1.05939 0.54733 0.06372
 C255 C 1.05438 0.55833 0.11147
 O256 O 0.96661 0.44639 0.12393
 O257 O 0.94089 0.45345 0.06019
 C258 C 0.94540 0.44141 0.10580
 O259 O 1.03289 0.48069 0.13152
 O260 O 1.05922 0.51278 0.06616
 C261 C 1.05423 0.49681 0.11433
 O262 O 0.96661 0.52046 0.12423
 O263 O 0.94083 0.48857 0.05764
 C264 C 0.94540 0.50464 0.10469
 Zr265 Zr 1.00005 0.52642 0.08911
 O266 O 0.99993 0.52920 0.20006
 O267 O 1.00032 0.55875 0.07733
 Zr268 Zr 1.00001 0.47457 0.09118
 O269 O 0.99753 0.47396 0.20240
 O270 O 1.00235 0.44336 0.09288
 O271 O 1.02109 0.51103 0.10473
 O272 O 0.97947 0.49022 0.10271
 O273 O 0.96786 0.52210 -0.12145
 O274 O 0.94165 0.48901 -0.05979
 C275 C 0.94651 0.50595 -0.10433
 O276 O 1.03398 0.48065 -0.12278
 O277 O 1.05983 0.51258 -0.05673
 C278 C 1.05522 0.49651 -0.10383
 O279 O 0.96754 0.44620 -0.11963
 O280 O 0.94137 0.45337 -0.05907
 C281 C 0.94620 0.44124 -0.10317
 O282 O 1.03390 0.55326 -0.12630
 O283 O 1.05975 0.54713 -0.05984
 C284 C 1.05511 0.55836 -0.10810
 Zr285 Zr 1.00075 0.52638 -0.08803
 O286 O 0.99861 0.52433 -0.19928
 O287 O 1.00295 0.55985 -0.09025
 Zr288 Zr 1.00066 0.47461 -0.08662
 O289 O 0.99866 0.47451 -0.19793
 O290 O 1.00296 0.44340 -0.08849
 Zr291 Zr 1.03580 0.51813 0.00255
 Zr292 Zr 0.96512 0.48284 0.00062
 O293 O 0.98013 0.49023 -0.10081
 O294 O 1.02199 0.51107 -0.10057
 O295 O 0.97921 0.51978 -0.00000
 O296 O 1.02089 0.48111 0.00308
 O297 O 1.02113 0.54044 0.00111
 O298 O 0.97919 0.45997 0.00188
 H299 H 0.96861 0.48472 0.14369
 H300 H 1.03135 0.47416 0.00414
 H301 H 0.96951 0.48493 -0.14228
 H302 H 1.03174 0.55783 0.00097
 H303 H 0.98930 0.43145 0.06366
 H304 H 0.99080 0.43196 -0.05578
 H305 H 1.01323 0.48849 -0.21555
 H306 H 1.01257 0.52367 -0.21658
 H307 H 0.99193 0.55958 -0.05399
 H308 H 1.00050 0.56451 0.12564
 H309 H 0.99364 0.51312 0.21966
 H310 H 1.01069 0.48913 0.21986
 O311 O 0.44724 0.47936 0.12580
 O312 O 0.45332 0.51174 0.06153
 C313 C 0.44203 0.49550 0.10867
 O314 O 0.55428 0.51997 0.12022
 O315 O 0.54714 0.48720 0.05693
 C316 C 0.55924 0.50378 0.10200
 O317 O 0.51934 0.55121 0.12977
 O318 O 0.48790 0.54617 0.06298
 C319 C 0.50349 0.55677 0.11202
 O320 O 0.47851 0.44452 0.11768
 O321 O 0.51153 0.45177 0.05519
 C322 C 0.49472 0.43949 0.09981
 Zr323 Zr 0.47391 0.47310 0.08573
 O324 O 0.47400 0.47047 0.19684
 O325 O 0.44106 0.44141 0.07714
 Zr326 Zr 0.52579 0.52475 0.08885
 O327 O 0.52603 0.52169 0.19987
 O328 O 0.55686 0.55834 0.09263
 O329 O 0.48929 0.50946 0.10203
 O330 O 0.51005 0.48848 0.09954
 O331 O 0.47915 0.44607 -0.12451
 O332 O 0.51208 0.45254 -0.06259
 C333 C 0.49524 0.44072 -0.10736
 O334 O 0.51966 0.55265 -0.12770
 O335 O 0.48823 0.54705 -0.05977
 C336 C 0.50382 0.55806 -0.10870
 O337 O 0.55468 0.52135 -0.12291
 O338 O 0.54735 0.48791 -0.06233
 C339 C 0.55953 0.50489 -0.10656
 O340 O 0.44866 0.48216 -0.13203
 O341 O 0.45356 0.51263 -0.06089
 C342 C 0.44312 0.49777 -0.11165
 Zr343 Zr 0.47450 0.47455 -0.09160
 O344 O 0.47632 0.47391 -0.20281
 O345 O 0.44083 0.44354 -0.09312
 Zr346 Zr 0.52635 0.52610 -0.08887
 O347 O 0.52803 0.52553 -0.20014
 O348 O 0.55739 0.55978 -0.08648
 Zr349 Zr 0.48256 0.51746 -0.00004
 Zr350 Zr 0.51768 0.48188 -0.00269
 O351 O 0.51066 0.49003 -0.10398
 O352 O 0.48996 0.51109 -0.10324
 O353 O 0.48073 0.45923 -0.00380
 O354 O 0.51959 0.53953 0.00085
 O355 O 0.46019 0.48052 -0.00239
 O356 O 0.54062 0.51881 -0.00058
 H357 H 0.51525 0.48281 0.14057
 H358 H 0.52641 0.55692 0.00168
 H359 H 0.51601 0.48485 -0.14562
 H360 H 0.44280 0.47385 -0.00298
 H361 H 0.56841 0.55799 0.05966
 H362 H 0.56953 0.55816 -0.05980
 H363 H 0.51315 0.52396 -0.21874
 H364 H 0.47835 0.48906 -0.22072
 H365 H 0.44101 0.43274 -0.05673
 H366 H 0.43580 0.43585 0.12595
 H367 H 0.47696 0.48578 0.21608
 H368 H 0.51167 0.52133 0.21827
 O369 O 0.48127 0.03236 0.12975
 O370 O 0.51285 0.05873 0.06276
 C371 C 0.49707 0.05371 0.11150
 O372 O 0.52264 -0.03344 0.11591
 O373 O 0.48918 -0.05932 0.05571
 C374 C 0.50639 -0.05467 0.09869
 O375 O 0.55379 0.03263 0.12353
 O376 O 0.54750 0.05882 0.05947
 C377 C 0.55899 0.05396 0.10615
 O378 O 0.44653 -0.03390 0.12199
 O379 O 0.45334 -0.05975 0.05835
 C380 C 0.44142 -0.05513 0.10395
 Zr381 Zr 0.47483 -0.00057 0.08958
 O382 O 0.47407 -0.00322 0.20079
 O383 O 0.44295 0.00045 0.08695
 Zr384 Zr 0.52661 -0.00038 0.08569
 O385 O 0.52464 -0.00336 0.19689
 O386 O 0.56024 0.00214 0.08689
 O387 O 0.51137 0.02071 0.10182
 O388 O 0.49052 -0.02115 0.10035
 O389 O 0.44510 -0.03289 -0.11914
 O390 O 0.45263 -0.05905 -0.05966
 C391 C 0.44018 -0.05420 -0.10267
 O392 O 0.55199 0.03341 -0.13190
 O393 O 0.54675 0.05913 -0.06263
 C394 C 0.55746 0.05463 -0.11250
 O395 O 0.52044 -0.03322 -0.12664
 O396 O 0.48808 -0.05930 -0.06196
 C397 C 0.50438 -0.05455 -0.10855
 O398 O 0.47997 0.03317 -0.12583
 O399 O 0.51231 0.05903 -0.06117
 C400 C 0.49624 0.05438 -0.10849
 Zr401 Zr 0.47396 0.00005 -0.08783
 O402 O 0.47273 -0.00229 -0.19910
 O403 O 0.44260 0.00211 -0.08618
 Zr404 Zr 0.52567 0.00003 -0.09226
 O405 O 0.52343 -0.00224 -0.20346
 O406 O 0.55934 0.00266 -0.09534
 Zr407 Zr 0.51796 0.03519 -0.00062
 Zr408 Zr 0.48270 -0.03549 -0.00160
 O409 O 0.48942 -0.02054 -0.10322
 O410 O 0.51032 0.02127 -0.10352
 O411 O 0.45989 -0.02139 0.00094
 O412 O 0.54014 0.02036 -0.00336
 O413 O 0.48098 0.02041 0.00151
 O414 O 0.51969 -0.02124 -0.00388
 H415 H 0.48537 -0.03204 0.14134
 H416 H 0.55754 0.03090 -0.00432
 H417 H 0.48375 -0.03117 -0.14456
 H418 H 0.47414 0.03097 0.00239
 H419 H 0.56001 -0.00881 0.05066
 H420 H 0.55821 -0.01088 -0.06849
 H421 H 0.52211 0.01135 -0.22094
 H422 H 0.48710 0.01168 -0.21769
 H423 H 0.43294 -0.00776 -0.04622
 H424 H 0.43811 -0.00004 0.13667
 H425 H 0.48929 0.00979 0.21844
 H426 H 0.52531 0.01108 0.21566
 C427 C 1.13265 0.49668 0.25308
 C428 C 1.13094 0.47514 0.27220
 C429 C 1.15034 0.47516 0.30426
 C430 C 1.17151 0.49665 0.31943
 C431 C 1.17241 0.51816 0.30009
 C432 C 1.15329 0.51821 0.26638
 C433 C 1.11241 0.49669 0.21826
 C434 C 1.11444 0.51824 0.19695
 C435 C 1.09536 0.51812 0.16255
 C436 C 1.07416 0.49674 0.15109
 C437 C 1.07225 0.47529 0.17393
 C438 C 1.09147 0.47515 0.20672
 C439 C 1.15454 0.53945 0.24496
 C440 C 1.13550 0.53945 0.21051
 C441 C 1.10972 0.45391 0.25950
 C442 C 1.09029 0.45392 0.22769
 H443 H 1.17042 0.55624 0.25462
 H444 H 1.13724 0.55620 0.19465
 H445 H 1.10810 0.43711 0.27442
 H446 H 1.07427 0.43717 0.21901
 H447 H 1.14806 0.45828 0.32095
 H448 H 1.18840 0.53503 0.30694
 H449 H 1.09686 0.53464 0.14550
 H450 H 1.05604 0.45874 0.16470
 C451 C 0.50337 0.63473 0.25358
 C452 C 0.48395 0.63825 0.24537
 C453 C 0.48408 0.65735 0.27956
 C454 C 0.50360 0.67303 0.32078
 C455 C 0.52297 0.66927 0.32819
 C456 C 0.52288 0.65005 0.29503
 C457 C 0.50332 0.61466 0.21785
 C458 C 0.52262 0.61098 0.22668
 C459 C 0.52248 0.59186 0.19265
 C460 C 0.50337 0.57667 0.14914
 C461 C 0.48426 0.58081 0.14054
 C462 C 0.48405 0.59964 0.17523
 C463 C 0.54189 0.64583 0.30247
 C464 C 0.54173 0.62659 0.26906
 C465 C 0.46488 0.62270 0.20278
 C466 C 0.46498 0.60379 0.16805
 H467 H 0.55702 0.65750 0.33441
 H468 H 0.55674 0.62397 0.27622
 H469 H 0.44981 0.62524 0.19593
 H470 H 0.44999 0.59231 0.13534
 H471 H 0.46922 0.66027 0.27323
 H472 H 0.53792 0.68114 0.36048
 H473 H 0.53738 0.58902 0.19934
 H474 H 0.46951 0.56939 0.10699
 C475 C 0.36237 -0.13302 0.24322
 C476 C 0.34354 -0.13032 0.26718
 C477 C 0.32441 -0.14927 0.30163
 C478 C 0.32409 -0.17085 0.31398
 C479 C 0.34351 -0.17294 0.28982
 C480 C 0.36246 -0.15425 0.25388
 C481 C 0.38246 -0.11317 0.20654
 C482 C 0.40108 -0.11605 0.18118
 C483 C 0.42010 -0.09714 0.14622
 C484 C 0.42087 -0.07529 0.13828
 C485 C 0.40209 -0.07269 0.16435
 C486 C 0.38272 -0.09167 0.19791
 C487 C 0.38148 -0.15642 0.22803
 C488 C 0.40039 -0.13769 0.19196
 C489 C 0.34431 -0.10860 0.25692
 C490 C 0.36362 -0.08957 0.22319
 H491 H 0.38175 -0.17274 0.23565
 H492 H 0.41465 -0.14012 0.17281
 H493 H 0.32992 -0.10624 0.27547
 H494 H 0.36357 -0.07309 0.21674
 H495 H 0.31037 -0.14661 0.32163
 H496 H 0.34358 -0.18941 0.29601
 H497 H 0.43452 -0.09925 0.12662
 H498 H 0.40246 -0.05600 0.15791
 C499 C 0.86561 0.50119 0.24473
 C500 C 0.84460 0.49421 0.20707
 C501 C 0.82528 0.49359 0.24160
 C502 C 0.82680 0.49934 0.31343
 C503 C 0.84779 0.50589 0.35074
 C504 C 0.86740 0.50714 0.31637
 C505 C 0.88616 0.50238 0.20840
 C506 C 0.90736 0.51000 0.24559
 C507 C 0.92691 0.51129 0.21070
 C508 C 0.92513 0.50443 0.13977
 C509 C 0.90369 0.49664 0.10335
 C510 C 0.88420 0.49585 0.13725
 C511 C 0.88883 0.51444 0.35195
 C512 C 0.90851 0.51598 0.31705
 C513 C 0.84339 0.48803 0.13575
 C514 C 0.86281 0.48869 0.10155
 H515 H 0.89044 0.51914 0.40715
 H516 H 0.92475 0.52179 0.34634
 H517 H 0.82727 0.48255 0.10619
 H518 H 0.86110 0.48367 0.04661
 H519 H 0.80904 0.48852 0.21308
 H520 H 0.84894 0.51051 0.40597
 H521 H 0.94329 0.51703 0.23915
 H522 H 0.90229 0.49144 0.04860
 C523 C 0.49482 0.36083 0.23804
 C524 C 0.47478 0.34455 0.27627
 C525 C 0.47509 0.32571 0.31097
 C526 C 0.49537 0.32332 0.30842
 C527 C 0.51537 0.33988 0.27022
 C528 C 0.51512 0.35860 0.23442
 C529 C 0.49457 0.38067 0.20142
 C530 C 0.51449 0.39680 0.16255
 C531 C 0.51422 0.41570 0.12814
 C532 C 0.49438 0.41882 0.13351
 C533 C 0.47451 0.40238 0.17259
 C534 C 0.47447 0.38320 0.20632
 C535 C 0.53473 0.37512 0.19504
 C536 C 0.53438 0.39383 0.15943
 C537 C 0.45490 0.34752 0.27938
 C538 C 0.45478 0.36657 0.24521
 H539 H 0.55047 0.37355 0.19163
 H540 H 0.54984 0.40615 0.12950
 H541 H 0.43935 0.33509 0.30878
 H542 H 0.43914 0.36830 0.24928
 H543 H 0.45976 0.31314 0.34096
 H544 H 0.53094 0.33798 0.26774
 H545 H 0.52960 0.42816 0.09820
 H546 H 0.45908 0.40448 0.17678
 C547 C 0.63840 0.13180 0.24320
 C548 C 0.65557 0.12812 0.27602
 C549 C 0.67485 0.14715 0.30935
 C550 C 0.67667 0.16964 0.31236
 C551 C 0.65899 0.17279 0.27953
 C552 C 0.64011 0.15409 0.24393
 C553 C 0.61820 0.11190 0.20757
 C554 C 0.60142 0.11577 0.17292
 C555 C 0.58233 0.09685 0.13873
 C556 C 0.57952 0.07399 0.14094
 C557 C 0.59654 0.07044 0.17613
 C558 C 0.61607 0.08941 0.20880
 C559 C 0.62286 0.15724 0.20906
 C560 C 0.60400 0.13847 0.17348
 C561 C 0.65306 0.10544 0.27508
 C562 C 0.63355 0.08637 0.24254
 H563 H 0.62405 0.17440 0.20881
 H564 H 0.59127 0.14172 0.14653
 H565 H 0.66618 0.10235 0.30028
 H566 H 0.63219 0.06914 0.24358
 H567 H 0.68842 0.14434 0.33246
 H568 H 0.65960 0.18965 0.28232
 H569 H 0.56958 0.09988 0.11109
 H570 H 0.59477 0.05302 0.17733
 C571 C 0.49675 0.13318 -0.24710
 C572 C 0.47532 0.13111 -0.26952
 C573 C 0.47546 0.15047 -0.30219
 C574 C 0.49693 0.17186 -0.31430
 C575 C 0.51834 0.17331 -0.29193
 C576 C 0.51828 0.15419 -0.25768
 C577 C 0.49662 0.11294 -0.21184
 C578 C 0.51800 0.11523 -0.18761
 C579 C 0.51772 0.09605 -0.15315
 C580 C 0.49636 0.07455 -0.14441
 C581 C 0.47512 0.07244 -0.16994
 C582 C 0.47512 0.09170 -0.20297
 C583 C 0.53936 0.15573 -0.23329
 C584 C 0.53921 0.13662 -0.19854
 C585 C 0.45413 0.10961 -0.25937
 C586 C 0.45405 0.09020 -0.22699
 H587 H 0.55612 0.17187 -0.24089
 H588 H 0.55583 0.13858 -0.18035
 H589 H 0.43746 0.10773 -0.27680
 H590 H 0.43733 0.07393 -0.22039
 H591 H 0.45882 0.14831 -0.32100
 H592 H 0.53504 0.18960 -0.29812
 H593 H 0.53412 0.09773 -0.13407
 H594 H 0.45859 0.05599 -0.16291
 C595 C 0.63800 0.50483 -0.24499
 C596 C 0.63751 0.48331 -0.25505
 C597 C 0.65640 0.48322 -0.29004
 C598 C 0.67611 0.50455 -0.31411
 C599 C 0.67619 0.52603 -0.30243
 C600 C 0.65715 0.52621 -0.26872
 C601 C 0.61801 0.50496 -0.20906
 C602 C 0.61817 0.52642 -0.20067
 C603 C 0.59893 0.52637 -0.16742
 C604 C 0.57989 0.50510 -0.14144
 C605 C 0.58021 0.48381 -0.14955
 C606 C 0.59909 0.48360 -0.18400
 C607 C 0.65678 0.54737 -0.25889
 C608 C 0.63759 0.54746 -0.22574
 C609 C 0.61818 0.46227 -0.22953
 C610 C 0.59934 0.46243 -0.19433
 H611 H 0.67143 0.56401 -0.27723
 H612 H 0.63798 0.56415 -0.21952
 H613 H 0.61760 0.44553 -0.23674
 H614 H 0.58481 0.44583 -0.17540
 H615 H 0.65602 0.46653 -0.29554
 H616 H 0.69048 0.54261 -0.32232
 H617 H 0.59888 0.54284 -0.16097
 H618 H 0.56557 0.46736 -0.13019
 C619 C 0.86811 0.36230 -0.24085
 C620 C 0.84614 0.36122 -0.24426
 C621 C 0.82730 0.34228 -0.27928
 C622 C 0.82998 0.32404 -0.31065
 C623 C 0.85244 0.32561 -0.30547
 C624 C 0.87145 0.34467 -0.27134
 C625 C 0.88808 0.38238 -0.20491
 C626 C 0.91020 0.38365 -0.20242
 C627 C 0.92920 0.40295 -0.16908
 C628 C 0.92610 0.42074 -0.13763
 C629 C 0.90368 0.41900 -0.13999
 C630 C 0.88467 0.39997 -0.17405
 C631 C 0.89379 0.34640 -0.26707
 C632 C 0.91285 0.36560 -0.23344
 C633 C 0.84345 0.37925 -0.21304
 C634 C 0.86237 0.39824 -0.17832
 H635 H 0.89661 0.33287 -0.29034
 H636 H 0.92979 0.36631 -0.23174
 H637 H 0.82657 0.37866 -0.21534
 H638 H 0.85952 0.41174 -0.15487
 H639 H 0.81094 0.34259 -0.28412
 H640 H 0.85525 0.31173 -0.32558
 H641 H 0.94633 0.40403 -0.16719
 H642 H 0.90111 0.43264 -0.11634
 C643 C 0.50291 -0.13331 -0.24972
 C644 C 0.48203 -0.15544 -0.24923
 C645 C 0.48166 -0.17455 -0.28414
 C646 C 0.50210 -0.17168 -0.31819
 C647 C 0.52289 -0.14938 -0.31803
 C648 C 0.52334 -0.13008 -0.28428
 C649 C 0.50339 -0.11314 -0.21325
 C650 C 0.52413 -0.09092 -0.21472
 C651 C 0.52442 -0.07175 -0.18045
 C652 C 0.50426 -0.07480 -0.14405
 C653 C 0.48371 -0.09734 -0.14245
 C654 C 0.48310 -0.11650 -0.17752
 C655 C 0.54379 -0.10760 -0.28441
 C656 C 0.54415 -0.08834 -0.25043
 C657 C 0.46202 -0.15803 -0.21344
 C658 C 0.46259 -0.13893 -0.17788
 H659 H 0.55965 -0.10487 -0.31112
 H660 H 0.56028 -0.07131 -0.25189
 H661 H 0.44582 -0.17501 -0.21260
 H662 H 0.44682 -0.14174 -0.15052
 H663 H 0.46567 -0.19172 -0.28379
 H664 H 0.53858 -0.14705 -0.34492
 H665 H 0.54036 -0.05454 -0.18167
 H666 H 0.46805 -0.09991 -0.11486
 C667 C 0.36686 0.50150 -0.25179
 C668 C 0.35207 0.50720 -0.21292
 C669 C 0.33305 0.50740 -0.24681
 C670 C 0.32920 0.50248 -0.31919
 C671 C 0.34442 0.49727 -0.35775
 C672 C 0.36314 0.49644 -0.32404
 C673 C 0.38647 0.50060 -0.21601
 C674 C 0.40076 0.49412 -0.25430
 C675 C 0.41912 0.49287 -0.21968
 C676 C 0.42353 0.49861 -0.14781
 C677 C 0.40921 0.50537 -0.11043
 C678 C 0.39046 0.50610 -0.14409
 C679 C 0.37802 0.49036 -0.36081
 C680 C 0.39643 0.48909 -0.32644
 C681 C 0.35655 0.51247 -0.14095
 C682 C 0.37551 0.51208 -0.10721
 H683 H 0.37530 0.48636 -0.41650
 H684 H 0.40738 0.48416 -0.35664
 H685 H 0.34533 0.51697 -0.11046
 H686 H 0.37839 0.51631 -0.05167
 H687 H 0.32131 0.51147 -0.21730
 H688 H 0.34127 0.49328 -0.41342
 H689 H 0.43023 0.48786 -0.24876
 H690 H 0.41243 0.50964 -0.05493
 C691 C 1.13358 0.63708 -0.24653
 C692 C 1.13160 0.65667 -0.26694
 C693 C 1.15087 0.67596 -0.29974
 C694 C 1.17206 0.67569 -0.31400
 C695 C 1.17340 0.65550 -0.29360
 C696 C 1.15440 0.63638 -0.25922
 C697 C 1.11344 0.61688 -0.21116
 C698 C 1.11567 0.59755 -0.18889
 C699 C 1.09660 0.57856 -0.15435
 C700 C 1.07523 0.57852 -0.14384
 C701 C 1.07318 0.59791 -0.16737
 C702 C 1.09236 0.61729 -0.20028
 C703 C 1.15587 0.61660 -0.23677
 C704 C 1.13688 0.59759 -0.20187
 C705 C 1.11027 0.65653 -0.25467
 C706 C 1.09094 0.63712 -0.22227
 H707 H 1.17187 0.61584 -0.24600
 H708 H 1.13878 0.58276 -0.18528
 H709 H 1.10847 0.67152 -0.27047
 H710 H 1.07480 0.63770 -0.21403
 H711 H 1.14877 0.69065 -0.31696
 H712 H 1.18955 0.65493 -0.30140
 H713 H 1.09823 0.56368 -0.13672
 H714 H 1.05683 0.59809 -0.15886
 C715 C 0.86859 0.50837 -0.23884
 C716 C 0.84607 0.48815 -0.23734
 C717 C 0.82729 0.48853 -0.27204
 C718 C 0.83059 0.50908 -0.30794
 C719 C 0.85357 0.52933 -0.30756
 C720 C 0.87252 0.52897 -0.27378
 C721 C 0.88850 0.50788 -0.20355
 C722 C 0.91116 0.52800 -0.20609
 C723 C 0.93011 0.52731 -0.17354
 C724 C 0.92646 0.50674 -0.13803
 C725 C 0.90351 0.48683 -0.13522
 C726 C 0.88452 0.48725 -0.16838
 C727 C 0.89540 0.54888 -0.27437
 C728 C 0.91440 0.54838 -0.24133
 C729 C 0.84279 0.46779 -0.20173
 C730 C 0.86166 0.46738 -0.16758
 H731 H 0.89869 0.56495 -0.30107
 H732 H 0.93177 0.56405 -0.24351
 H733 H 0.82546 0.45203 -0.20019
 H734 H 0.85836 0.45135 -0.14067
 H735 H 0.81045 0.47226 -0.27317
 H736 H 0.85690 0.54578 -0.33139
 H737 H 0.94763 0.54280 -0.17557
 H738 H 0.90045 0.47091 -0.10814
 C739 C 0.49284 0.36066 -0.24229
 C740 C 0.51302 0.35829 -0.24084
 C741 C 0.51269 0.33924 -0.27573
 C742 C 0.49212 0.32201 -0.31130
 C743 C 0.47186 0.32476 -0.31047
 C744 C 0.47225 0.34408 -0.27703
 C745 C 0.49331 0.38099 -0.20700
 C746 C 0.47325 0.38364 -0.20970
 C747 C 0.47395 0.40325 -0.17717
 C748 C 0.49443 0.41994 -0.14126
 C749 C 0.51423 0.41672 -0.13806
 C750 C 0.51385 0.39743 -0.17145
 C751 C 0.45238 0.34712 -0.27772
 C752 C 0.45291 0.36663 -0.24496
 C753 C 0.53331 0.37518 -0.20496
 C754 C 0.53365 0.39432 -0.17042
 H755 H 0.43633 0.33442 -0.30434
 H756 H 0.43727 0.36840 -0.24724
 H757 H 0.54903 0.37354 -0.20330
 H758 H 0.54958 0.40683 -0.14298
 H759 H 0.52898 0.33871 -0.27699
 H760 H 0.45535 0.31168 -0.33371
 H761 H 0.45852 0.40539 -0.17941
 H762 H 0.53005 0.42936 -0.11038
 C763 C 0.63541 0.13442 -0.24957
 C764 C 0.65056 0.13074 -0.29362
 C765 C 0.66983 0.15029 -0.32537
 C766 C 0.67370 0.17326 -0.31426
 C767 C 0.65819 0.17665 -0.27084
 C768 C 0.63913 0.15727 -0.23759
 C769 C 0.61536 0.11395 -0.21502
 C770 C 0.60063 0.11768 -0.16943
 C771 C 0.58185 0.09823 -0.13573
 C772 C 0.57738 0.07506 -0.14853
 C773 C 0.59228 0.07167 -0.19491
 C774 C 0.61142 0.09108 -0.22781
 C775 C 0.62384 0.16025 -0.19218
 C776 C 0.60501 0.14081 -0.15827
 C777 C 0.64611 0.10761 -0.30497
 C778 C 0.62681 0.08810 -0.27287
 H779 H 0.62656 0.17778 -0.18233
 H780 H 0.59377 0.14390 -0.12310
 H781 H 0.65764 0.10456 -0.33903
 H782 H 0.62399 0.07056 -0.28309
 H783 H 0.68169 0.14770 -0.35938
 H784 H 0.66127 0.19438 -0.26209
 H785 H 0.57077 0.10118 -0.09954
 H786 H 0.58920 0.05400 -0.20471
 C787 C 1.13360 0.49412 -0.23454
 C788 C 1.12994 0.47320 -0.26634
 C789 C 1.14902 0.47284 -0.29900
 C790 C 1.17148 0.49355 -0.30344
 C791 C 1.17462 0.51443 -0.27125
 C792 C 1.15592 0.51465 -0.23555
 C793 C 1.11360 0.49459 -0.20005
 C794 C 1.11745 0.51527 -0.16602
 C795 C 1.09839 0.51561 -0.13319
 C796 C 1.07541 0.49581 -0.13678
 C797 C 1.07190 0.47518 -0.17107
 C798 C 1.09101 0.47437 -0.20191
 C799 C 1.15908 0.53506 -0.20115
 C800 C 1.14024 0.53523 -0.16602
 C801 C 1.10720 0.45311 -0.26553
 C802 C 1.08801 0.45376 -0.23450
 H803 H 1.17629 0.55097 -0.20094
 H804 H 1.14351 0.55120 -0.13921
 H805 H 1.10414 0.43685 -0.28999
 H806 H 1.07070 0.43798 -0.23587
 H807 H 1.14618 0.45635 -0.32093
 H808 H 1.19139 0.53074 -0.27487
 H809 H 1.10141 0.53135 -0.10562
 H810 H 1.05440 0.45966 -0.17293
 C811 C 0.50402 0.63674 -0.24763
 C812 C 0.51840 0.64693 -0.30693
 C813 C 0.51854 0.66615 -0.34046
 C814 C 0.50451 0.67557 -0.31518
 C815 C 0.49014 0.66484 -0.25505
 C816 C 0.48982 0.64551 -0.22142
 C817 C 0.50383 0.61650 -0.21226
 C818 C 0.48942 0.60628 -0.15285
 C819 C 0.48936 0.58707 -0.11934
 C820 C 0.50370 0.57817 -0.14466
 C821 C 0.51803 0.58867 -0.20442
 C822 C 0.51812 0.60779 -0.23847
 C823 C 0.47566 0.63485 -0.16168
 C824 C 0.47544 0.61554 -0.12805
 C825 C 0.53234 0.63762 -0.33193
 C826 C 0.53224 0.61841 -0.29819
 H827 H 0.46463 0.64146 -0.14078
 H828 H 0.46425 0.60784 -0.08219
 H829 H 0.54350 0.64530 -0.37784
 H830 H 0.54332 0.61184 -0.31901
 H831 H 0.52896 0.67296 -0.38799
 H832 H 0.47980 0.67191 -0.23209
 H833 H 0.47830 0.57921 -0.07332
 H834 H 0.52907 0.58195 -0.22466
 C835 C 0.36006 -0.13195 -0.23656
 C836 C 0.34278 -0.12825 -0.26829
 C837 C 0.32358 -0.14713 -0.30225
 C838 C 0.32163 -0.16975 -0.30655
 C839 C 0.33947 -0.17283 -0.27371
 C840 C 0.35846 -0.15416 -0.23847
 C841 C 0.38034 -0.11210 -0.20111
 C842 C 0.39757 -0.11587 -0.16897
 C843 C 0.41689 -0.09694 -0.13578
 C844 C 0.41930 -0.07425 -0.13570
 C845 C 0.40182 -0.07079 -0.16816
 C846 C 0.38222 -0.08972 -0.20056
 C847 C 0.37609 -0.15723 -0.20576
 C848 C 0.39524 -0.13844 -0.17125
 C849 C 0.34504 -0.10568 -0.26565
 C850 C 0.36449 -0.08671 -0.23267
 H851 H 0.37506 -0.17432 -0.20673
 H852 H 0.40840 -0.14157 -0.14655
 H853 H 0.33178 -0.10260 -0.28988
 H854 H 0.36567 -0.06955 -0.23243
 H855 H 0.30996 -0.14402 -0.32322
 H856 H 0.33947 -0.18934 -0.27764
 H857 H 0.43022 -0.09981 -0.11109
 H858 H 0.40341 -0.05344 -0.16796
 C859 C 0.50903 -0.13288 0.23015
 C860 C 0.53024 -0.12943 0.25970
 C861 C 0.53054 -0.14841 0.29356
 C862 C 0.50965 -0.17058 0.29998
 C863 C 0.48852 -0.17358 0.26995
 C864 C 0.48819 -0.15492 0.23432
 C865 C 0.50856 -0.11296 0.19491
 C866 C 0.48741 -0.11652 0.16456
 C867 C 0.48699 -0.09749 0.13167
 C868 C 0.50736 -0.07486 0.13064
 C869 C 0.52847 -0.07162 0.16115
 C870 C 0.52921 -0.09068 0.19286
 C871 C 0.46735 -0.15780 0.20331
 C872 C 0.46702 -0.13897 0.16849
 C873 C 0.55067 -0.10700 0.25541
 C874 C 0.55013 -0.08791 0.22295
 H875 H 0.45117 -0.17476 0.20588
 H876 H 0.45063 -0.14195 0.14499
 H877 H 0.56716 -0.10409 0.27804
 H878 H 0.56620 -0.07084 0.22148
 H879 H 0.54707 -0.14583 0.31484
 H880 H 0.47216 -0.19026 0.27546
 H881 H 0.47069 -0.10020 0.10819
 H882 H 0.54430 -0.05434 0.15997
 C883 C 0.36149 0.49277 0.24163
 C884 C 0.36021 0.51356 0.24598
 C885 C 0.34071 0.51284 0.27938
 C886 C 0.32222 0.49141 0.30698
 C887 C 0.32370 0.47064 0.30078
 C888 C 0.34342 0.47130 0.26906
 C889 C 0.38222 0.49353 0.20795
 C890 C 0.38377 0.47286 0.20513
 C891 C 0.40362 0.47372 0.17365
 C892 C 0.42158 0.49495 0.14386
 C893 C 0.41961 0.51546 0.14652
 C894 C 0.40008 0.51491 0.17923
 C895 C 0.34548 0.45092 0.26455
 C896 C 0.36538 0.45171 0.23348
 C897 C 0.37853 0.53468 0.21716
 C898 C 0.39806 0.53531 0.18394
 H899 H 0.33167 0.43424 0.28566
 H900 H 0.36635 0.43562 0.23144
 H901 H 0.37771 0.55083 0.22005
 H902 H 0.41173 0.55192 0.16208
 H903 H 0.34021 0.52910 0.28488
 H904 H 0.30951 0.45393 0.32033
 H905 H 0.40486 0.45778 0.17115
 H906 H 0.43333 0.53185 0.12377
 C907 C 1.13166 0.63933 0.24380
 C908 C 1.12746 0.65609 0.27675
 C909 C 1.14636 0.67588 0.30844
 C910 C 1.16922 0.67856 0.31019
 C911 C 1.17292 0.66129 0.27717
 C912 C 1.15434 0.64195 0.24282
 C913 C 1.11188 0.61858 0.20987
 C914 C 1.11624 0.60227 0.17466
 C915 C 1.09744 0.58275 0.14164
 C916 C 1.07425 0.57900 0.14600
 C917 C 1.07021 0.59553 0.18190
 C918 C 1.08902 0.61552 0.21307
 C919 C 1.15799 0.62512 0.20763
 C920 C 1.13932 0.60579 0.17331
 C921 C 1.10441 0.65265 0.27775
 C922 C 1.08547 0.63259 0.24701
 H923 H 1.17546 0.62702 0.20609
 H924 H 1.14295 0.59342 0.14590
 H925 H 1.10093 0.66544 0.30317
 H926 H 1.06792 0.63049 0.24952
 H927 H 1.14311 0.68914 0.33150
 H928 H 1.19010 0.66255 0.27897
 H929 H 1.10086 0.57048 0.11290
 H930 H 1.05252 0.59309 0.18449
 C931 C 0.49447 0.13103 0.24721
 C932 C 0.51540 0.15290 0.25355
 C933 C 0.51471 0.17159 0.28750
 C934 C 0.49317 0.16879 0.31341
 C935 C 0.47226 0.14675 0.30511
 C936 C 0.47289 0.12775 0.27309
 C937 C 0.49519 0.11118 0.21285
 C938 C 0.47438 0.08913 0.20813
 C939 C 0.47522 0.07025 0.17605
 C940 C 0.49655 0.07350 0.14726
 C941 C 0.51717 0.09583 0.15160
 C942 C 0.51666 0.11466 0.18522
 C943 C 0.45236 0.10549 0.26662
 C944 C 0.45312 0.08646 0.23512
 C945 C 0.53661 0.15563 0.22595
 C946 C 0.53719 0.13688 0.19184
 H947 H 0.43559 0.10272 0.28650
 H948 H 0.43692 0.06955 0.23157
 H949 H 0.55288 0.17244 0.23030
 H950 H 0.55384 0.13978 0.17076
 H951 H 0.53106 0.18815 0.29453
 H952 H 0.45544 0.14432 0.32311
 H953 H 0.45919 0.05319 0.17217
 H954 H 0.53359 0.09846 0.12949
 C955 C 0.63866 0.50471 0.23652
 C956 C 0.63807 0.48324 0.24959
 C957 C 0.65702 0.48347 0.28519
 C958 C 0.67678 0.50503 0.30645
 C959 C 0.67719 0.52643 0.29127
 C960 C 0.65806 0.52634 0.25733
 C961 C 0.61847 0.50452 0.20096
 C962 C 0.61873 0.52594 0.18996
 C963 C 0.59923 0.52560 0.15774
 C964 C 0.57983 0.50409 0.13530
 C965 C 0.58005 0.48283 0.14555
 C966 C 0.59921 0.48290 0.17923
 C967 C 0.65787 0.54745 0.24431
 C968 C 0.63846 0.54724 0.21160
 C969 C 0.61843 0.46195 0.22731
 C970 C 0.59939 0.46179 0.19234
 H971 H 0.67273 0.56426 0.26020
 H972 H 0.63891 0.56389 0.20319
 H973 H 0.61778 0.44525 0.23690
 H974 H 0.58461 0.44500 0.17598
 H975 H 0.65611 0.46681 0.29742
 H976 H 0.69239 0.54320 0.30563
 H977 H 0.59922 0.54205 0.14943
 H978 H 0.56509 0.46621 0.12882
 C979 C 0.86637 0.36285 0.24282
 C980 C 0.84418 0.36147 0.24257
 C981 C 0.82509 0.34255 0.27723
 C982 C 0.82807 0.32502 0.31138
 C983 C 0.85042 0.32662 0.31073
 C984 C 0.86967 0.34557 0.27679
 C985 C 0.88658 0.38284 0.20713
 C986 C 0.90885 0.38443 0.20838
 C987 C 0.92808 0.40363 0.17511
 C988 C 0.92506 0.42102 0.14018
 C989 C 0.90251 0.41901 0.13899
 C990 C 0.88325 0.40003 0.17277
 C991 C 0.89218 0.34767 0.27652
 C992 C 0.91146 0.36680 0.24302
 C993 C 0.84156 0.37905 0.20773
 C994 C 0.86075 0.39798 0.17328
 H995 H 0.89495 0.33446 0.30263
 H996 H 0.92854 0.36781 0.24426
 H997 H 0.82453 0.37818 0.20711
 H998 H 0.85798 0.41118 0.14706
 H999 H 0.80788 0.34129 0.27709
 H1000 H 0.85289 0.31335 0.33773
 H1001 H 0.94531 0.40494 0.17605
 H1002 H 0.90002 0.43239 0.11277
   
