data_POSCAR
  _audit_creation_date              2014-09-24
  _audit_creation_method            'ToBaCCo'
  _symmetry_space_group_name_H-M    'P1'
  _symmetry_Int_Tables_number       1
  _symmetry_cell_setting            triclinic
  loop_
  _symmetry_equiv_pos_as_xyz
 x,y,z
_cell_length_a 28.6722
_cell_length_b 29.0240
_cell_length_c 28.6921
_cell_angle_alpha 89.900500
_cell_angle_beta 90.101700
_cell_angle_gamma 89.994200
loop_
  _atom_site_label
  _atom_site_type_symbol
  _atom_site_fract_x
  _atom_site_fract_y
  _atom_site_fract_z
C1 C 0.33619 0.33864 1.40112
 C2 C 0.29527 0.35559 1.42162
 C3 C 0.27374 0.39618 1.40497
 C4 C 0.29274 0.41755 1.36500
 C5 C 0.33350 0.40081 1.34404
 C6 C 0.35560 0.36145 1.36246
 C7 C 0.35701 0.29823 1.41799
 C8 C 0.39846 0.28074 1.39813
 C9 C 0.41659 0.30331 1.35840
 C10 C 0.39564 0.34348 1.34071
 C11 C 0.41329 0.36510 1.30066
 C12 C 0.39205 0.40504 1.28224
 C13 C 0.35153 0.42206 1.30399
 H14 H 0.27986 0.33603 1.44976
 H15 H 0.27527 0.44694 1.34946
 H16 H 0.33974 0.27996 1.44595
 H17 H 0.44641 0.28905 1.34032
 H18 H 0.44308 0.35012 1.28313
 H19 H 0.33277 0.45088 1.28915
 C20 C 1.15963 0.66390 0.89890
 C21 C 1.19974 0.64659 0.92094
 C22 C 1.22168 0.60601 0.90494
 C23 C 1.20349 0.58460 0.86458
 C24 C 1.16348 0.60159 0.84222
 C25 C 1.14133 0.64129 0.85958
 C26 C 1.13839 0.70437 0.91497
 C27 C 1.09816 0.72254 0.89312
 C28 C 1.08118 0.70011 0.85281
 C29 C 1.10221 0.65961 0.83631
 C30 C 1.08538 0.63788 0.79601
 C31 C 1.10648 0.59752 0.77872
 C32 C 1.14619 0.58015 0.80189
 H33 H 1.21430 0.66602 0.94958
 H34 H 1.22113 0.55499 0.84983
 H35 H 1.15374 0.72224 0.94439
 H36 H 1.05260 0.71445 0.83295
 H37 H 1.05604 0.65284 0.77752
 H38 H 1.16489 0.55086 0.78817
 C39 C 0.65878 -0.16563 0.09685
 C40 C 0.69975 -0.14884 0.07610
 C41 C 0.72157 -0.10853 0.09280
 C42 C 0.70219 -0.08617 0.13185
 C43 C 0.66127 -0.10248 0.15289
 C44 C 0.63950 -0.14236 0.13529
 C45 C 0.63769 -0.20624 0.08064
 C46 C 0.59682 -0.22390 0.10168
 C47 C 0.57930 -0.20106 0.14135
 C48 C 0.59985 -0.16035 0.15769
 C49 C 0.58212 -0.13836 0.19730
 C50 C 0.60244 -0.09754 0.21442
 C51 C 0.64275 -0.08045 0.19230
 H52 H 0.71513 -0.16834 0.04800
 H53 H 0.71963 -0.05644 0.14660
 H54 H 0.65380 -0.22462 0.05204
 H55 H 0.55044 -0.21532 0.16082
 H56 H 0.55325 -0.15421 0.21548
 H57 H 0.66062 -0.05075 0.20654
 C58 C -0.15634 1.16267 -0.39767
 C59 C -0.19656 1.14503 -0.41916
 C60 C -0.21843 1.10475 -0.40221
 C61 C -0.20022 1.08412 -0.36141
 C62 C -0.15974 1.10100 -0.34007
 C63 C -0.13759 1.14033 -0.35828
 C64 C -0.13548 1.20321 -0.41413
 C65 C -0.09550 1.22163 -0.39238
 C66 C -0.07755 1.19922 -0.35256
 C67 C -0.09813 1.15867 -0.33565
 C68 C -0.08074 1.13704 -0.29545
 C69 C -0.10179 1.09683 -0.27762
 C70 C -0.14213 1.07987 -0.29975
 H71 H -0.21148 1.16359 -0.44839
 H72 H -0.21806 1.05557 -0.34497
 H73 H -0.15098 1.22107 -0.44353
 H74 H -0.04863 1.21379 -0.33343
 H75 H -0.05122 1.15210 -0.27742
 H76 H -0.16096 1.05100 -0.28517
 C77 C 0.65554 0.66543 0.59984
 C78 C 0.69408 0.64404 0.57886
 C79 C 0.71343 0.60340 0.59767
 C80 C 0.69336 0.58466 0.63833
 C81 C 0.65436 0.60518 0.65908
 C82 C 0.63557 0.64589 0.64006
 C83 C 0.63802 0.70712 0.58232
 C84 C 0.60228 0.73134 0.60580
 C85 C 0.58087 0.70976 0.64442
 C86 C 0.59776 0.66780 0.66210
 C87 C 0.57851 0.64843 0.70262
 C88 C 0.59664 0.60728 0.72170
 C89 C 0.63509 0.58646 0.69975
 H90 H 0.71038 0.66025 0.54899
 H91 H 0.70889 0.55517 0.65535
 H92 H 0.65301 0.72090 0.55060
 H93 H 0.55121 0.72566 0.66129
 H94 H 0.55085 0.66688 0.71995
 H95 H 0.65066 0.55590 0.71501
 C96 C 0.83910 0.33055 0.09991
 C97 C 0.79780 0.34769 0.08022
 C98 C 0.77410 0.38541 0.10028
 C99 C 0.79536 0.40803 0.13843
 C100 C 0.83682 0.39132 0.15836
 C101 C 0.85859 0.35223 0.13917
 C102 C 0.86023 0.29100 0.08158
 C103 C 0.90150 0.27271 0.10126
 C104 C 0.91976 0.29419 0.14149
 C105 C 0.89899 0.33392 0.16011
 C106 C 0.91724 0.35464 0.20032
 C107 C 0.89657 0.39449 0.21940
 C108 C 0.85593 0.41217 0.19816
 H109 H 0.78490 0.33132 0.04900
 H110 H 0.77906 0.43832 0.15331
 H111 H 0.84288 0.27362 0.05311
 H112 H 0.94968 0.27941 0.15916
 H113 H 0.94666 0.33840 0.21723
 H114 H 0.83828 0.44142 0.21357
 C115 C 0.34350 0.16429 0.89640
 C116 C 0.30401 0.14705 0.91936
 C117 C 0.27963 0.10840 0.90189
 C118 C 0.29866 0.08506 0.86308
 C119 C 0.33836 0.10173 0.84003
 C120 C 0.36046 0.14190 0.85642
 C121 C 0.36535 0.20462 0.91209
 C122 C 0.40303 0.22420 0.88758
 C123 C 0.42019 0.20093 0.84806
 C124 C 0.39908 0.16013 0.83239
 C125 C 0.41538 0.13795 0.79226
 C126 C 0.39423 0.09728 0.77574
 C127 C 0.35525 0.07971 0.79986
 H128 H 0.29283 0.16452 0.95053
 H129 H 0.28160 0.05434 0.84996
 H130 H 0.35210 0.22184 0.94287
 H131 H 0.44977 0.21392 0.82899
 H132 H 0.44425 0.15292 0.77314
 H133 H 0.33668 0.05000 0.78690
 C134 C 0.16135 0.83470 0.40434
 C135 C 0.20236 0.85273 0.42379
 C136 C 0.22336 0.89260 0.40518
 C137 C 0.20344 0.91294 0.36515
 C138 C 0.16257 0.89513 0.34517
 C139 C 0.14128 0.85604 0.36505
 C140 C 0.14120 0.79457 0.42271
 C141 C 0.10011 0.77570 0.40324
 C142 C 0.08127 0.79695 0.36312
 C143 C 0.10135 0.83683 0.34418
 C144 C 0.08298 0.85664 0.30355
 C145 C 0.10324 0.89634 0.28370
 C146 C 0.14356 0.91487 0.30467
 H147 H 0.21836 0.83452 0.45254
 H148 H 0.22038 0.94222 0.34892
 H149 H 0.15901 0.77758 0.45116
 H150 H 0.05142 0.78170 0.34577
 H151 H 0.05394 0.83967 0.28678
 H152 H 0.16094 0.94404 0.28870
 Zn153 Zn 0.06026 0.96859 0.01225
 Zn154 Zn 0.01552 1.05288 -0.02619
 Zn155 Zn -0.03228 0.96156 -0.03593
 Zn156 Zn -0.02506 1.00749 0.05710
 O157 O 0.00455 0.99749 0.00176
 O158 O 0.10973 1.00069 -0.00854
 O159 O -0.01171 1.05717 -0.08178
 O160 O -0.00458 0.90839 -0.05199
 O161 O 0.07583 1.06333 -0.03667
 O162 O 0.06360 0.91399 -0.01613
 O163 O -0.04721 0.98987 -0.08962
 O164 O -0.08051 0.97962 0.05992
 O165 O -0.00608 1.10090 0.00622
 O166 O -0.08661 0.94583 -0.00891
 O167 O -0.03721 1.06702 0.06780
 O168 O 0.00723 0.98628 0.10604
 O169 O 0.07003 0.95666 0.07270
 C170 C 0.11210 1.03950 -0.02889
 C171 C -0.03681 1.02958 -0.10510
 C172 C 0.03525 0.89203 -0.04181
 C173 C -0.10307 0.95514 0.03105
 C174 C -0.02850 1.10301 0.04422
 C175 C 0.04575 0.96484 0.10871
 Zn176 Zn 0.47369 0.01547 0.44002
 Zn177 Zn 0.46847 -0.03315 0.53244
 Zn178 Zn 0.55982 -0.02182 0.48357
 Zn179 Zn 0.51338 0.05984 0.52473
 O180 O 0.50367 0.00501 0.49529
 O181 O 0.41875 -0.01329 0.43719
 O182 O 0.49840 -0.08575 0.54791
 O183 O 0.56910 -0.03346 0.42332
 O184 O 0.41480 -0.04979 0.50494
 O185 O 0.50566 -0.00473 0.39035
 O186 O 0.56583 -0.07599 0.51193
 O187 O 0.57353 0.07092 0.53667
 O188 O 0.45197 -0.00635 0.58649
 O189 O 0.60828 0.01128 0.50377
 O190 O 0.48523 0.06220 0.58003
 O191 O 0.49143 0.10824 0.49267
 O192 O 0.46086 0.07506 0.43032
 C193 C 0.39740 -0.03937 0.46555
 C194 C 0.53915 -0.09968 0.53774
 C195 C 0.54437 -0.02577 0.38745
 C196 C 0.61015 0.04841 0.52694
 C197 C 0.46071 0.03347 0.60261
 C198 C 0.46919 0.11075 0.45445
 Zn199 Zn 1.02372 0.51121 0.44400
 Zn200 Zn 1.03262 0.46459 0.53683
 Zn201 Zn 0.98426 0.55544 0.52877
 Zn202 Zn 0.93961 0.47154 0.48926
 O203 O 0.99512 0.50060 0.49979
 O204 O 1.07916 0.48377 0.44037
 O205 O 1.04858 0.49224 0.59056
 O206 O 1.00579 0.60383 0.49669
 O207 O 1.08643 0.44939 0.50891
 O208 O 1.03556 0.57080 0.43398
 O209 O 1.01217 0.55917 0.58430
 O210 O 0.89023 0.50358 0.50979
 O211 O 1.00534 0.41125 0.55274
 O212 O 0.92384 0.56546 0.53976
 O213 O 0.93664 0.41694 0.51781
 O214 O 0.92961 0.45923 0.42897
 O215 O 0.99142 0.48996 0.39497
 C216 C 1.10222 0.45918 0.46878
 C217 C 1.03816 0.53159 0.60677
 C218 C 1.02766 0.60638 0.45836
 C219 C 0.88765 0.54178 0.53114
 C220 C 0.96544 0.39487 0.54297
 C221 C 0.95341 0.46766 0.39269
 Zn222 Zn 0.50925 0.44431 1.03028
 Zn223 Zn 0.46307 0.53652 1.03825
 Zn224 Zn 0.55585 0.52721 0.99096
 Zn225 Zn 0.47062 0.48952 0.94565
 O226 O 0.49961 0.49950 1.00139
 O227 O 0.48132 0.44107 1.08557
 O228 O 0.49137 0.58998 1.05287
 O229 O 0.60456 0.49433 1.01197
 O230 O 0.44773 0.50940 1.09265
 O231 O 0.56942 0.43322 1.04186
 O232 O 0.56012 0.58173 1.01885
 O233 O 0.50217 0.51235 0.89714
 O234 O 0.40880 0.55188 1.01059
 O235 O 0.56590 0.53964 0.93073
 O236 O 0.41484 0.51636 0.94265
 O237 O 0.46044 0.42987 0.93392
 O238 O 0.48794 0.39619 0.99749
 C239 C 0.45703 0.46956 1.10859
 C240 C 0.53174 0.60516 1.04297
 C241 C 0.60618 0.45601 1.03331
 C242 C 0.54094 0.53324 0.89475
 C243 C 0.39231 0.54151 0.97083
 C244 C 0.46819 0.39392 0.95794
 C245 C 1.23012 0.41258 0.42409
 C246 C 1.21861 0.39832 0.47486
 C247 C 1.17618 0.41317 0.49002
 C248 C 1.14917 0.44168 0.45370
 C249 C 1.18284 0.48060 0.44024
 C250 C 1.22515 0.46558 0.42516
 C251 C 1.18834 0.39564 0.39513
 C252 C 1.14629 0.41074 0.41055
 H253 H 1.24278 0.38163 0.49859
 H254 H 1.16450 0.40760 0.52555
 H255 H 1.17477 0.51695 0.44408
 H256 H 1.25313 0.48942 0.41691
 H257 H 1.19158 0.37325 0.36501
 H258 H 1.11377 0.40126 0.39363
 C259 C 0.26499 0.58944 0.92495
 C260 C 0.26895 0.53641 0.92753
 C261 C 0.31101 0.52093 0.94309
 C262 C 0.34549 0.55949 0.95551
 C263 C 0.34882 0.58935 0.91152
 C264 C 0.30704 0.60488 0.89562
 C265 C 0.27695 0.60475 0.97532
 C266 C 0.31914 0.58939 0.99097
 H267 H 0.24052 0.51294 0.91971
 H268 H 0.31840 0.48453 0.94786
 H269 H 0.38146 0.59789 0.89442
 H270 H 0.30421 0.62667 0.86493
 H271 H 0.25323 0.62249 0.99855
 H272 H 0.33105 0.59557 1.02633
 C273 C -0.23191 0.90828 0.07330
 C274 C -0.21838 0.89195 0.02386
 C275 C -0.17568 0.90696 0.00943
 C276 C -0.15033 0.93740 0.04529
 C277 C -0.18507 0.97626 0.05587
 C278 C -0.22766 0.96116 0.07017
 C279 C -0.19101 0.89316 0.10448
 C280 C -0.14859 0.90823 0.08989
 H281 H -0.24120 0.87315 0.00052
 H282 H -0.16243 0.89965 -0.02518
 H283 H -0.17730 1.01257 0.05106
 H284 H -0.25619 0.98477 0.07698
 H285 H -0.19512 0.87194 0.13540
 H286 H -0.11659 0.89987 0.10834
 C287 C 0.73789 0.08921 0.57801
 C288 C 0.72605 0.03781 0.58593
 C289 C 0.68349 0.02519 0.56954
 C290 C 0.65663 0.06425 0.54529
 C291 C 0.65421 0.10297 0.58168
 C292 C 0.69646 0.11586 0.59866
 C293 C 0.73272 0.09492 0.52461
 C294 C 0.69014 0.08210 0.50771
 H295 H 0.75011 0.01233 0.59968
 H296 H 0.67133 -0.01022 0.57112
 H297 H 0.62208 0.11896 0.59337
 H298 H 0.70010 0.14278 0.62467
 H299 H 0.76062 0.10597 0.50165
 H300 H 0.68169 0.08312 0.47082
 C301 C 0.41803 0.23738 0.41381
 C302 C 0.47166 0.23292 0.41000
 C303 C 0.48853 0.19078 0.42281
 C304 C 0.45070 0.15686 0.43881
 C305 C 0.42483 0.18231 0.47787
 C306 C 0.40843 0.22446 0.46526
 C307 C 0.39871 0.19679 0.38534
 C308 C 0.41566 0.15494 0.39823
 H309 H 0.49473 0.26093 0.40017
 H310 H 0.52554 0.18286 0.42299
 H311 H 0.42214 0.16952 0.51335
 H312 H 0.39353 0.24752 0.49095
 H313 H 0.37358 0.20066 0.35723
 H314 H 0.40479 0.12342 0.38106
 C315 C 0.92382 0.26760 0.59061
 C316 C 0.92638 0.27183 0.53711
 C317 C 0.94045 0.31396 0.52172
 C318 C 0.95136 0.34823 0.56097
 C319 C 0.90703 0.34982 0.59073
 C320 C 0.89269 0.30786 0.60611
 C321 C 0.97344 0.28108 0.60681
 C322 C 0.98761 0.32330 0.59153
 H323 H 0.91923 0.24366 0.51331
 H324 H 0.94481 0.32172 0.48495
 H325 H 0.88860 0.38137 0.59928
 H326 H 0.86198 0.30367 0.62780
 H327 H 0.99716 0.25859 0.62551
 H328 H 1.02234 0.33645 0.59860
 C329 C 0.07893 0.76574 -0.09051
 C330 C 0.10953 0.80675 -0.10537
 C331 C 0.09447 0.84826 -0.08963
 C332 C 0.04999 0.84572 -0.06018
 C333 C 0.01428 0.82072 -0.09121
 C334 C 0.02908 0.77884 -0.10679
 C335 C 0.07573 0.76932 -0.03689
 C336 C 0.06105 0.81109 -0.02121
 H337 H 0.14042 0.80341 -0.12696
 H338 H 0.11247 0.88018 -0.09777
 H339 H -0.02070 0.83335 -0.09804
 H340 H 0.00543 0.75618 -0.12528
 H341 H 0.08269 0.74091 -0.01320
 H342 H 0.05608 0.81824 0.01558
 C343 C 0.57746 0.73263 1.08624
 C344 C 0.60517 0.69164 1.10607
 C345 C 0.58940 0.64973 1.09210
 C346 C 0.54715 0.65195 1.05935
 C347 C 0.51052 0.68031 1.08579
 C348 C 0.52603 0.72259 1.09945
 C349 C 0.57785 0.72558 1.03291
 C350 C 0.56236 0.68345 1.01904
 H351 H 0.63472 0.69529 1.12950
 H352 H 0.60543 0.61778 1.10361
 H353 H 0.47461 0.66957 1.09070
 H354 H 0.50221 0.74752 1.11438
 H355 H 0.58736 0.75208 1.00792
 H356 H 0.55941 0.67408 0.98253
 C357 C 0.40961 0.42521 1.23637
 C358 C 0.39237 0.39675 1.19466
 C359 C 0.40770 0.41211 1.15265
 C360 C 0.43920 0.45471 1.15557
 C361 C 0.41042 0.49054 1.18252
 C362 C 0.39521 0.47533 1.22485
 C363 C 0.46316 0.42598 1.23158
 C364 C 0.47851 0.44111 1.18937
 H365 H 0.36960 0.36704 1.19795
 H366 H 0.39799 0.39553 1.12015
 H367 H 0.40456 0.52559 1.17066
 H368 H 0.37772 0.49838 1.24882
 H369 H 0.48709 0.41711 1.25954
 H370 H 0.51533 0.44456 1.18133
 C371 C 0.58563 -0.07660 0.26009
 C372 C 0.61310 -0.09625 0.30158
 C373 C 0.59990 -0.07934 0.34361
 C374 C 0.56003 -0.04396 0.34089
 C375 C 0.57738 -0.00686 0.30686
 C376 C 0.59064 -0.02381 0.26453
 C377 C 0.53389 -0.08532 0.27210
 C378 C 0.52085 -0.06883 0.31442
 H379 H 0.64074 -0.12158 0.29811
 H380 H 0.61637 -0.09050 0.37579
 H381 H 0.57804 0.02967 0.31490
 H382 H 0.60189 -0.00141 0.23641
 H383 H 0.50856 -0.10018 0.24838
 H384 H 0.48515 -0.07115 0.32679
 C385 C -0.08415 1.07609 -0.23208
 C386 C -0.09846 1.02577 -0.22149
 C387 C -0.08324 1.00990 -0.17941
 C388 C -0.05449 1.04531 -0.15180
 C389 C -0.01520 1.05948 -0.18522
 C390 C -0.03060 1.07531 -0.22719
 C391 C -0.10140 1.10386 -0.18996
 C392 C -0.08601 1.08784 -0.14819
 H393 H -0.11573 1.00301 -0.24596
 H394 H -0.08892 0.97460 -0.16826
 H395 H 0.02164 1.05595 -0.17711
 H396 H -0.00672 1.08473 -0.25492
 H397 H -0.12417 1.13363 -0.19282
 H398 H -0.09564 1.10390 -0.11543
 C399 C 1.08857 0.57680 0.73320
 C400 C 1.10478 0.52752 0.72069
 C401 C 1.08849 0.51211 0.67883
 C402 C 1.05703 0.54689 0.65325
 C403 C 1.01857 0.55841 0.68854
 C404 C 1.03494 0.57374 0.73029
 C405 C 1.10282 0.60642 0.69112
 C406 C 1.08648 0.59086 0.64955
 H407 H 1.12426 0.50491 0.74363
 H408 H 1.09546 0.47748 0.66646
 H409 H 0.98162 0.55365 0.68173
 H410 H 1.01181 0.58164 0.75910
 H411 H 1.12442 0.63703 0.69382
 H412 H 1.09411 0.60818 0.61687
 C413 C 0.75946 0.58506 0.57868
 C414 C 0.80059 0.61391 0.59673
 C415 C 0.84293 0.60007 0.58095
 C416 C 0.84087 0.55820 0.54823
 C417 C 0.81460 0.52117 0.57603
 C418 C 0.77198 0.53483 0.59148
 C419 C 0.76428 0.58620 0.52512
 C420 C 0.80689 0.57233 0.50929
 H421 H 0.79667 0.64292 0.62024
 H422 H 0.87487 0.61742 0.59117
 H423 H 0.82729 0.48623 0.58088
 H424 H 0.74841 0.51053 0.60785
 H425 H 0.73623 0.59575 0.50156
 H426 H 0.81526 0.57063 0.47246
 C427 C 0.73010 0.40231 1.08199
 C428 C 0.70245 0.36995 1.04900
 C429 C 0.66219 0.38851 1.03225
 C430 C 0.65206 0.43716 1.05029
 C431 C 0.65377 0.43261 1.10359
 C432 C 0.69414 0.41413 1.12014
 C433 C 0.73612 0.44726 1.05407
 C434 C 0.69555 0.46545 1.03756
 H435 H 0.71050 0.33409 1.04242
 H436 H 0.63821 0.36909 1.01052
 H437 H 0.62512 0.44205 1.12636
 H438 H 0.69932 0.40735 1.15701
 H439 H 0.76968 0.46336 1.04759
 H440 H 0.69474 0.49695 1.01713
 C441 C 0.23614 1.09206 -0.07823
 C442 C 0.24148 1.04484 -0.05413
 C443 C 0.20090 1.02694 -0.03735
 C444 C 0.15814 1.05777 -0.04596
 C445 C 0.17112 1.10440 -0.02460
 C446 C 0.21147 1.12265 -0.04142
 C447 C 0.19802 1.08459 -0.11550
 C448 C 0.15775 1.06637 -0.09876
 H449 H 0.27461 1.02710 -0.05026
 H450 H 0.19964 0.99404 -0.01938
 H451 H 0.14924 1.12265 0.00011
 H452 H 0.22174 1.15709 -0.03135
 H453 H 0.20199 1.09369 -0.15201
 H454 H 0.12788 1.05958 -0.12103
 C455 C 0.26953 -0.08911 0.42404
 C456 C 0.28308 -0.10348 0.47421
 C457 C 0.32548 -0.08749 0.48828
 C458 C 0.35051 -0.05798 0.45145
 C459 C 0.35287 -0.08854 0.40799
 C460 C 0.31073 -0.10471 0.39372
 C461 C 0.27296 -0.03611 0.42510
 C462 C 0.31527 -0.01994 0.43917
 H463 H 0.26029 -0.12130 0.49834
 H464 H 0.33851 -0.09315 0.52337
 H465 H 0.38506 -0.09697 0.39003
 H466 H 0.30701 -0.12696 0.36355
 H467 H 0.24414 -0.01318 0.41704
 H468 H 0.32252 0.01662 0.44260
 C469 C 0.58654 -0.22405 0.58919
 C470 C 0.62457 -0.19446 0.56552
 C471 C 0.60885 -0.15374 0.54819
 C472 C 0.55656 -0.14507 0.55665
 C473 C 0.53181 -0.18710 0.53578
 C474 C 0.54743 -0.22820 0.55265
 C475 C 0.56675 -0.19116 0.62674
 C476 C 0.55088 -0.15022 0.60959
 H477 H 0.66147 -0.20277 0.56535
 H478 H 0.63241 -0.12880 0.53268
 H479 H 0.50431 -0.18475 0.50983
 H480 H 0.53312 -0.26087 0.54103
 H481 H 0.56785 -0.19777 0.66396
 H482 H 0.53771 -0.12309 0.63200
 C483 C 1.08083 0.73242 0.41930
 C484 C 1.09431 0.71668 0.46909
 C485 C 1.07697 0.67473 0.48108
 C486 C 1.04671 0.65228 0.44319
 C487 C 1.00924 0.68840 0.43196
 C488 C 1.02692 0.73035 0.41980
 C489 C 1.09578 0.69246 0.38750
 C490 C 1.07805 0.65082 0.39980
 H491 H 1.11201 0.73778 0.49474
 H492 H 1.08181 0.66023 0.51567
 H493 H 0.97205 0.68193 0.43454
 H494 H 1.00449 0.75968 0.41271
 H495 H 1.11868 0.69660 0.35766
 H496 H 1.08591 0.61977 0.38032
 C497 C -0.07927 1.22943 0.08519
 C498 C -0.02555 1.22520 0.08804
 C499 C -0.00877 1.18311 0.07518
 C500 C -0.04681 1.14901 0.06007
 C501 C -0.08093 1.14700 0.10128
 C502 C -0.09777 1.18879 0.11424
 C503 C -0.08997 1.21638 0.03401
 C504 C -0.07364 1.17427 0.02135
 H505 H -0.00243 1.25332 0.09741
 H506 H 0.02825 1.17531 0.07445
 H507 H -0.09124 1.11547 0.11885
 H508 H -0.12231 1.19260 0.14278
 H509 H -0.10534 1.23934 0.00838
 H510 H -0.07695 1.16144 -0.01403
 C511 C 0.42283 0.27003 0.90469
 C512 C 0.44475 0.26591 0.95352
 C513 C 0.46009 0.30654 0.97156
 C514 C 0.45231 0.34813 0.93916
 C515 C 0.47606 0.33475 0.89328
 C516 C 0.46078 0.29412 0.87505
 C517 C 0.38465 0.30703 0.90986
 C518 C 0.39993 0.34749 0.92810
 H519 H 0.44828 0.23353 0.97219
 H520 H 0.47649 0.30858 1.00561
 H521 H 0.50212 0.35589 0.87607
 H522 H 0.47404 0.28211 0.84197
 H523 H 0.34857 0.30196 0.89950
 H524 H 0.37687 0.37665 0.93356
 C525 C 0.57961 0.58748 0.76790
 C526 C 0.61457 0.59735 0.80735
 C527 C 0.60242 0.57927 0.84932
 C528 C 0.55605 0.55272 0.84854
 C529 C 0.52041 0.58709 0.82869
 C530 C 0.53234 0.60503 0.78653
 C531 C 0.57396 0.53459 0.76794
 C532 C 0.56195 0.51648 0.81011
 H533 H 0.64634 0.61714 0.80260
 H534 H 0.62401 0.58366 0.88010
 H535 H 0.48736 0.59494 0.84533
 H536 H 0.50823 0.62674 0.76744
 H537 H 0.57808 0.51327 0.73717
 H538 H 0.55633 0.47985 0.81537
 C539 C 0.41133 0.07678 0.72990
 C540 C 0.46490 0.07357 0.72662
 C541 C 0.48082 0.05884 0.68456
 C542 C 0.44202 0.04791 0.64935
 C543 C 0.41069 0.01284 0.67461
 C544 C 0.39478 0.02774 0.71680
 C545 C 0.39672 0.10699 0.68831
 C546 C 0.41260 0.09197 0.64645
 H547 H 0.48834 0.08098 0.75539
 H548 H 0.51770 0.05408 0.67747
 H549 H 0.40329 -0.02149 0.66162
 H550 H 0.37507 0.00505 0.73939
 H551 H 0.37512 0.13754 0.69155
 H552 H 0.40458 0.10970 0.61405
 C553 C 0.08622 0.91555 0.23719
 C554 C 0.08684 0.96860 0.23334
 C555 C 0.07408 0.98498 0.19057
 C556 C 0.06146 0.94706 0.15548
 C557 C 0.10431 0.91524 0.15431
 C558 C 0.11709 0.89888 0.19686
 C559 C 0.03601 0.90264 0.22263
 C560 C 0.02348 0.91864 0.17986
 H561 H 0.09534 0.99140 0.26207
 H562 H 0.07227 1.02155 0.18276
 H563 H 0.12309 0.90610 0.12285
 H564 H 0.14664 0.87591 0.20146
 H565 H 0.01070 0.88589 0.24496
 H566 H -0.01139 0.91378 0.16587
 C567 C 0.91349 0.41496 0.26542
 C568 C 0.91266 0.46810 0.26768
 C569 C 0.92522 0.48568 0.30998
 C570 C 0.93789 0.44877 0.34627
 C571 C 0.89516 0.41681 0.34823
 C572 C 0.88258 0.39927 0.30617
 C573 C 0.96370 0.40261 0.28055
 C574 C 0.97604 0.41984 0.32284
 H575 H 0.90410 0.49008 0.23825
 H576 H 0.92683 0.52244 0.31668
 H577 H 0.87626 0.40847 0.37988
 H578 H 0.85313 0.37609 0.30220
 H579 H 0.98911 0.38526 0.25888
 H580 H 1.01089 0.41547 0.33709
   
