data_POSCAR
  _audit_creation_date              2014-09-24
  _audit_creation_method            'ToBaCCo'
  _symmetry_space_group_name_H-M    'P1'
  _symmetry_Int_Tables_number       1
  _symmetry_cell_setting            triclinic
  loop_
  _symmetry_equiv_pos_as_xyz
 x,y,z
_cell_length_a 76.4625
_cell_length_b 76.4674
_cell_length_c 22.0034
_cell_angle_alpha 90.113700
_cell_angle_beta 89.891300
_cell_angle_gamma 120.004700
loop_
  _atom_site_label
  _atom_site_type_symbol
  _atom_site_fract_x
  _atom_site_fract_y
  _atom_site_fract_z
C1 C 0.24839 0.49703 0.53003
 C2 C 0.24822 0.49698 0.46801
 C3 C 0.23079 0.49529 0.43331
 C4 C 0.26532 0.49826 0.43216
 C5 C 0.26420 0.49546 0.56469
 C6 C 0.23260 0.49836 0.56588
 C7 C 0.21119 0.47944 0.44436
 C8 C 0.19474 0.47837 0.41357
 C9 C 0.19730 0.49311 0.36983
 C10 C 0.21743 0.50863 0.35789
 C11 C 0.23381 0.50961 0.38906
 C12 C 0.26174 0.48351 0.38830
 C13 C 0.27784 0.48392 0.35687
 C14 C 0.29782 0.49918 0.36847
 C15 C 0.30128 0.51431 0.41105
 C16 C 0.28518 0.51392 0.44233
 C17 C 0.27569 0.51006 0.60854
 C18 C 0.29121 0.50920 0.63930
 C19 C 0.29544 0.49363 0.62699
 C20 C 0.28349 0.47869 0.58431
 C21 C 0.26794 0.47953 0.55374
 C22 C 0.22836 0.51398 0.55554
 C23 C 0.21269 0.51443 0.58691
 C24 C 0.20110 0.49940 0.62974
 C25 C 0.20586 0.48418 0.64149
 C26 C 0.22150 0.48371 0.60998
 H27 H 0.20862 0.46779 0.47700
 H28 H 0.18023 0.46528 0.42295
 H29 H 0.22091 0.52097 0.32730
 H30 H 0.24887 0.52200 0.37990
 H31 H 0.24653 0.47134 0.37968
 H32 H 0.27470 0.47196 0.32474
 H33 H 0.28821 0.52570 0.47507
 H34 H 0.27295 0.52241 0.61780
 H35 H 0.30024 0.52100 0.67160
 H36 H 0.28611 0.46629 0.57476
 H37 H 0.25893 0.46786 0.52106
 H38 H 0.23705 0.52568 0.52261
 H39 H 0.20965 0.52656 0.57772
 H40 H 0.19710 0.47229 0.67380
 H41 H 0.22459 0.47158 0.61874
 H42 H 0.31646 0.52648 0.42012
 C43 C 0.50353 -0.24848 0.53054
 C44 C 0.50367 -0.24822 0.46852
 C45 C 0.50243 -0.26526 0.43254
 C46 C 0.50531 -0.23078 0.43397
 C47 C 0.50202 -0.23281 0.56644
 C48 C 0.50516 -0.26428 0.56513
 C49 C 0.51722 -0.26163 0.38873
 C50 C 0.51682 -0.27769 0.35709
 C51 C 0.50154 -0.29767 0.36843
 C52 C 0.48637 -0.30119 0.41096
 C53 C 0.48676 -0.28513 0.44245
 C54 C 0.52115 -0.21110 0.44542
 C55 C 0.52210 -0.19469 0.41467
 C56 C 0.50738 -0.19765 0.37131
 C57 C 0.49190 -0.21744 0.35860
 C58 C 0.49092 -0.23386 0.38953
 C59 C 0.48632 -0.22870 0.55590
 C60 C 0.48575 -0.21307 0.58709
 C61 C 0.50074 -0.20140 0.62994
 C62 C 0.51602 -0.20604 0.64197
 C63 C 0.51661 -0.22164 0.61063
 C64 C 0.49069 -0.27572 0.60912
 C65 C 0.49163 -0.29117 0.64009
 C66 C 0.50721 -0.29559 0.62806
 C67 C 0.52206 -0.28343 0.58480
 C68 C 0.52108 -0.26797 0.55418
 H69 H 0.52940 -0.24640 0.38030
 H70 H 0.52880 -0.27451 0.32500
 H71 H 0.47419 -0.31638 0.41981
 H72 H 0.47496 -0.28820 0.47515
 H73 H 0.53268 -0.20846 0.47855
 H74 H 0.53444 -0.17967 0.42457
 H75 H 0.47865 -0.24894 0.37987
 H76 H 0.47467 -0.23744 0.52290
 H77 H 0.47357 -0.21011 0.57770
 H78 H 0.52787 -0.19721 0.67433
 H79 H 0.52880 -0.22463 0.61953
 H80 H 0.47827 -0.27308 0.61825
 H81 H 0.47943 -0.30018 0.67112
 H82 H 0.53496 -0.28523 0.57554
 H83 H 0.53278 -0.25887 0.52166
 H84 H 0.48025 -0.22020 0.32579
 C85 C 1.24811 0.75189 0.53222
 C86 C 1.24845 0.75204 0.47020
 C87 C 1.26436 0.76944 0.43571
 C88 C 1.23276 0.73495 0.43416
 C89 C 1.23062 0.73607 0.56664
 C90 C 1.26508 0.76770 0.56837
 C91 C 1.26809 0.78907 0.44646
 C92 C 1.28366 0.80548 0.41592
 C93 C 1.29588 0.80273 0.37297
 C94 C 1.29142 0.78271 0.36116
 C95 C 1.27587 0.76635 0.39204
 C96 C 1.22172 0.73852 0.38998
 C97 C 1.20612 0.72243 0.35838
 C98 C 1.20136 0.70245 0.37012
 C99 C 1.21290 0.69898 0.41299
 C100 C 1.22852 0.71509 0.44445
 C101 C 1.23360 0.72471 0.61093
 C102 C 1.21717 0.70926 0.64183
 C103 C 1.19718 0.70474 0.62942
 C104 C 1.19452 0.71679 0.58582
 C105 C 1.21100 0.73227 0.55526
 C106 C 1.28494 0.77195 0.55874
 C107 C 1.30095 0.78758 0.59045
 C108 C 1.29755 0.79936 0.63342
 C109 C 1.27731 0.79433 0.64423
 C110 C 1.26136 0.77872 0.61221
 H111 H 1.25894 0.79171 0.47875
 H112 H 1.28549 0.82020 0.42499
 H113 H 1.30048 0.77948 0.33039
 H114 H 1.27319 0.75127 0.38308
 H115 H 1.22480 0.75374 0.38126
 H116 H 1.19740 0.72557 0.32603
 H117 H 1.23717 0.71206 0.47745
 H118 H 1.24866 0.72745 0.62038
 H119 H 1.22033 0.70032 0.67313
 H120 H 1.17981 0.71490 0.57623
 H121 H 1.20844 0.74130 0.52247
 H122 H 1.28807 0.76319 0.52629
 H123 H 1.31588 0.78986 0.58210
 H124 H 1.27357 0.80303 0.67495
 H125 H 1.24611 0.77566 0.62030
 H126 H 1.20985 0.68381 0.42218
 C127 C 0.75159 0.50290 0.53270
 C128 C 0.75133 0.50278 0.47068
 C129 C 0.76706 0.50138 0.43474
 C130 C 0.73549 0.50433 0.43611
 C131 C 0.73452 0.50161 0.56871
 C132 C 0.76907 0.50464 0.56723
 C133 C 0.77816 0.51601 0.39057
 C134 C 0.79379 0.51551 0.35910
 C135 C 0.79852 0.50028 0.37097
 C136 C 0.78692 0.48526 0.41382
 C137 C 0.77126 0.48575 0.44515
 C138 C 0.73173 0.52025 0.44706
 C139 C 0.71622 0.52113 0.41634
 C140 C 0.70431 0.50622 0.37351
 C141 C 0.70853 0.49064 0.36127
 C142 C 0.72402 0.48975 0.39217
 C143 C 0.71470 0.48597 0.55873
 C144 C 0.69859 0.48551 0.59021
 C145 C 0.70185 0.50060 0.63330
 C146 C 0.72205 0.51583 0.64451
 C147 C 0.73809 0.51626 0.61271
 C148 C 0.76609 0.49034 0.61171
 C149 C 0.78252 0.49142 0.64283
 C150 C 0.80250 0.50695 0.63048
 C151 C 0.80515 0.52160 0.58666
 C152 C 0.78868 0.52049 0.55587
 H153 H 0.77510 0.52815 0.38176
 H154 H 0.80256 0.52738 0.32676
 H155 H 0.78995 0.47313 0.42309
 H156 H 0.76257 0.47407 0.47814
 H157 H 0.74072 0.53192 0.47979
 H158 H 0.71361 0.53353 0.42585
 H159 H 0.72676 0.47741 0.38289
 H160 H 0.71168 0.47415 0.52616
 H161 H 0.68369 0.47285 0.58158
 H162 H 0.72568 0.52819 0.67536
 H163 H 0.75332 0.52847 0.62107
 H164 H 0.75104 0.47798 0.62116
 H165 H 0.77936 0.47935 0.67429
 H166 H 0.81985 0.53445 0.57708
 H167 H 0.79124 0.53205 0.52296
 H168 H 0.69953 0.47887 0.32888
 C169 C 0.49597 0.24791 0.53081
 C170 C 0.49649 0.24827 0.46881
 C171 C 0.49518 0.26417 0.43383
 C172 C 0.49800 0.23256 0.43315
 C173 C 0.49424 0.23046 0.56547
 C174 C 0.49678 0.26479 0.56672
 C175 C 0.47910 0.26780 0.44309
 C176 C 0.47835 0.28324 0.41150
 C177 C 0.49358 0.29522 0.36960
 C178 C 0.50938 0.29119 0.35929
 C179 C 0.51012 0.27574 0.39093
 C180 C 0.48355 0.22154 0.38846
 C181 C 0.48415 0.20595 0.35708
 C182 C 0.49930 0.20116 0.36957
 C183 C 0.51414 0.21266 0.41303
 C184 C 0.51356 0.22828 0.44426
 C185 C 0.50845 0.23350 0.61028
 C186 C 0.50746 0.21711 0.64133
 C187 C 0.49209 0.19709 0.62855
 C188 C 0.47749 0.19437 0.58446
 C189 C 0.47851 0.21082 0.55375
 C190 C 0.51235 0.28471 0.55792
 C191 C 0.51245 0.30059 0.58973
 C192 C 0.49698 0.29700 0.63181
 C193 C 0.48178 0.27670 0.64163
 C194 C 0.48175 0.26088 0.60969
 H195 H 0.46724 0.25880 0.47527
 H196 H 0.46607 0.28606 0.42076
 H197 H 0.52115 0.29994 0.32658
 H198 H 0.52253 0.27303 0.38274
 H199 H 0.47147 0.22465 0.37911
 H200 H 0.47241 0.19725 0.32429
 H201 H 0.52510 0.23690 0.47768
 H202 H 0.52071 0.24859 0.62000
 H203 H 0.51948 0.22032 0.67304
 H204 H 0.46474 0.17964 0.57457
 H205 H 0.46701 0.20821 0.52054
 H206 H 0.52428 0.28802 0.52547
 H207 H 0.52425 0.31571 0.57852
 H208 H 0.47005 0.27270 0.67523
 H209 H 0.46976 0.24554 0.61790
 H210 H 0.52621 0.20958 0.42282
 C211 C 0.75199 0.24846 0.53119
 C212 C 0.75187 0.24815 0.46917
 C213 C 0.73607 0.23067 0.43465
 C214 C 0.76768 0.26514 0.43315
 C215 C 0.76938 0.26435 0.56576
 C216 C 0.73487 0.23275 0.56713
 C217 C 0.73227 0.21102 0.44603
 C218 C 0.71678 0.19456 0.41539
 C219 C 0.70494 0.19748 0.37223
 C220 C 0.70921 0.21725 0.35955
 C221 C 0.72468 0.23370 0.39037
 C222 C 0.77884 0.26145 0.38949
 C223 C 0.79450 0.27745 0.35780
 C224 C 0.79921 0.29746 0.36894
 C225 C 0.78756 0.30104 0.41133
 C226 C 0.77188 0.28502 0.44288
 C227 C 0.76630 0.27586 0.60942
 C228 C 0.78266 0.29144 0.64023
 C229 C 0.80268 0.29592 0.62834
 C230 C 0.80543 0.28369 0.58546
 C231 C 0.78902 0.26810 0.55500
 C232 C 0.71502 0.22852 0.55665
 C233 C 0.69888 0.21286 0.58792
 C234 C 0.70231 0.20129 0.63079
 C235 C 0.72229 0.20607 0.64274
 C236 C 0.73841 0.22169 0.61132
 H237 H 0.74121 0.20842 0.47904
 H238 H 0.71411 0.17956 0.42525
 H239 H 0.70025 0.21996 0.32689
 H240 H 0.72746 0.24876 0.38077
 H241 H 0.77578 0.24620 0.38120
 H242 H 0.80329 0.27422 0.32583
 H243 H 0.76315 0.28814 0.47545
 H244 H 0.75121 0.27318 0.61839
 H245 H 0.77943 0.30050 0.67098
 H246 H 0.82016 0.28554 0.57635
 H247 H 0.79166 0.25894 0.52272
 H248 H 0.71201 0.23717 0.52365
 H249 H 0.68371 0.20980 0.57858
 H250 H 0.72541 0.19733 0.67511
 H251 H 0.75363 0.22478 0.62019
 H252 H 0.79057 0.31624 0.42004
 N253 N 0.97888 0.52031 0.06864
 N254 N 0.96324 0.52298 0.07619
 N255 N 1.02149 0.52938 0.10952
 N256 N 1.03710 0.53907 0.14619
 N257 N 1.02142 0.54163 0.06794
 N258 N 1.03700 0.55999 0.07520
 N259 N 0.97899 0.50809 0.11026
 N260 N 0.96342 0.50211 0.14726
 C261 C 0.95375 0.51155 0.12554
 C262 C 1.04663 0.55818 0.12431
 N263 N 1.02147 0.47971 0.06527
 N264 N 1.03679 0.47653 0.07234
 N265 N 0.97903 0.47050 0.10862
 N266 N 0.96352 0.46067 0.14560
 N267 N 0.97894 0.45843 0.06596
 N268 N 0.96335 0.44005 0.07279
 N269 N 1.02152 0.49176 0.10793
 N270 N 1.03688 0.49710 0.14521
 Mn271 Mn 1.00026 0.49993 0.10983
 C272 C 1.04629 0.48749 0.12244
 C273 C 0.95388 0.44167 0.12278
 N274 N 1.02118 0.54192 -0.06291
 N275 N 1.03647 0.56042 -0.07046
 N276 N 0.97863 0.50857 -0.10487
 N277 N 0.96331 0.50326 -0.14225
 N278 N 0.97868 0.52062 -0.06221
 N279 N 0.96338 0.52384 -0.06941
 N280 N 1.02113 0.52988 -0.10561
 N281 N 1.03638 0.53987 -0.14338
 Mn282 Mn 1.00004 0.53134 0.00289
 C283 C 1.04583 0.55892 -0.12088
 C284 C 0.95391 0.51289 -0.11956
 N285 N 0.97879 0.45872 -0.06488
 N286 N 0.96350 0.44025 -0.07284
 N287 N 1.02120 0.49227 -0.10720
 N288 N 1.03672 0.49819 -0.14434
 N289 N 1.02130 0.48005 -0.06557
 N290 N 1.03690 0.47732 -0.07328
 N291 N 0.97869 0.47094 -0.10652
 N292 N 0.96333 0.46110 -0.14396
 Mn293 Mn 1.00013 0.46901 0.00018
 Mn294 Mn 0.99991 0.50041 -0.10680
 Cl295 Cl 1.00009 0.50018 0.00151
 C296 C 0.95397 0.44195 -0.12237
 C297 C 1.04637 0.48871 -0.12271
 N298 N 0.47063 0.49176 0.10721
 N299 N 0.46096 0.49761 0.14435
 N300 N 0.47946 0.45825 0.06423
 N301 N 0.47623 0.43974 0.07156
 N302 N 0.49169 0.47032 0.10638
 N303 N 0.49711 0.46035 0.14355
 N304 N 0.45841 0.47971 0.06501
 N305 N 0.44009 0.47703 0.07231
 C306 C 0.44190 0.48828 0.12211
 C307 C 0.48734 0.44127 0.12127
 N308 N 0.49158 0.47051 -0.10873
 N309 N 0.49732 0.46072 -0.14575
 N310 N 0.45834 0.47978 -0.06585
 N311 N 0.43989 0.47669 -0.07341
 N312 N 0.47050 0.49193 -0.10800
 N313 N 0.46064 0.49743 -0.14538
 N314 N 0.47943 0.45836 -0.06659
 N315 N 0.47657 0.43997 -0.07382
 Mn316 Mn 0.46869 0.46881 -0.00080
 C317 C 0.48780 0.44166 -0.12349
 C318 C 0.44155 0.48780 -0.12323
 N319 N 0.52946 0.50787 0.10648
 N320 N 0.53932 0.50241 0.14392
 N321 N 0.52050 0.54144 0.06514
 N322 N 0.52330 0.55982 0.07237
 N323 N 0.50836 0.52927 0.10728
 N324 N 0.50258 0.53903 0.14430
 N325 N 0.54161 0.52005 0.06439
 N326 N 0.56008 0.52318 0.07203
 Mn327 Mn 0.50004 0.49980 0.10758
 C328 C 0.55843 0.51207 0.12185
 C329 C 0.51205 0.55809 0.12206
 N330 N 0.50826 0.52949 -0.10792
 N331 N 0.50290 0.53946 -0.14526
 N332 N 0.54153 0.52012 -0.06645
 N333 N 0.55984 0.52276 -0.07356
 N334 N 0.52933 0.50805 -0.10864
 N335 N 0.53899 0.50214 -0.14558
 N336 N 0.52046 0.54156 -0.06573
 N337 N 0.52373 0.56008 -0.07323
 Mn338 Mn 0.49992 0.50000 -0.10907
 Mn339 Mn 0.53125 0.53102 -0.00067
 Cl340 Cl 0.49997 0.49991 -0.00074
 C341 C 0.51267 0.55855 -0.12305
 C342 C 0.55804 0.51147 -0.12323
 N343 N 0.45849 -0.02131 0.06512
 N344 N 0.44001 -0.03659 0.07315
 N345 N 0.49204 0.02110 0.10734
 N346 N 0.49799 0.03664 0.14442
 N347 N 0.47982 0.02120 0.06572
 N348 N 0.47711 0.03682 0.07337
 N349 N 0.47072 -0.02140 0.10675
 N350 N 0.46089 -0.03675 0.14425
 C351 C 0.44173 -0.04610 0.12271
 C352 C 0.48853 0.04630 0.12276
 N353 N 0.54169 0.02109 0.06305
 N354 N 0.56020 0.03638 0.07061
 N355 N 0.50836 -0.02145 0.10509
 N356 N 0.50308 -0.03675 0.14256
 N357 N 0.52041 -0.02141 0.06244
 N358 N 0.52365 -0.03668 0.06973
 N359 N 0.52965 0.02104 0.10575
 N360 N 0.53964 0.03628 0.14353
 Mn361 Mn 0.50019 -0.00018 0.10698
 C362 C 0.55869 0.04573 0.12104
 C363 C 0.51273 -0.04614 0.11993
 N364 N 0.47944 0.02131 -0.06513
 N365 N 0.47620 0.03659 -0.07236
 N366 N 0.47022 -0.02114 -0.10837
 N367 N 0.46039 -0.03668 -0.14523
 N368 N 0.45817 -0.02120 -0.06571
 N369 N 0.43979 -0.03681 -0.07241
 N370 N 0.49148 0.02136 -0.10781
 N371 N 0.49676 0.03666 -0.14525
 Mn372 Mn 0.46876 0.00000 0.00001
 C373 C 0.48712 0.04605 -0.12255
 C374 C 0.44140 -0.04632 -0.12233
 N375 N 0.52007 -0.02124 -0.06841
 N376 N 0.52277 -0.03686 -0.07596
 N377 N 0.52911 0.02134 -0.10940
 N378 N 0.53879 0.03693 -0.14612
 N379 N 0.54137 0.02129 -0.06781
 N380 N 0.55974 0.03686 -0.07511
 N381 N 0.50784 -0.02117 -0.11003
 N382 N 0.50188 -0.03672 -0.14703
 Mn383 Mn 0.53111 -0.00007 -0.00271
 Mn384 Mn 0.49967 0.00010 -0.10965
 Cl385 Cl 0.49993 -0.00004 -0.00133
 C386 C 0.51135 -0.04637 -0.12531
 C387 C 0.55791 0.04648 -0.12426
 C388 C 1.14751 0.49154 0.28214
 C389 C 1.14476 0.48091 0.33604
 C390 C 1.16119 0.48130 0.36503
 C391 C 1.18106 0.49246 0.34086
 C392 C 1.18332 0.50305 0.28571
 C393 C 1.16678 0.50255 0.25700
 C394 C 1.13053 0.49123 0.25300
 C395 C 1.11618 0.49090 0.22919
 C396 C 1.09891 0.49041 0.20149
 C397 C 1.09034 0.47890 0.14900
 C398 C 1.07326 0.47805 0.12294
 C399 C 1.06455 0.48868 0.14920
 C400 C 1.07336 0.50034 0.20162
 C401 C 1.09043 0.50117 0.22760
 H402 H 1.12988 0.47249 0.35630
 H403 H 1.15804 0.47361 0.40820
 H404 H 1.19758 0.51109 0.26211
 H405 H 1.16904 0.51068 0.21477
 H406 H 1.09678 0.47051 0.12844
 H407 H 1.06682 0.46898 0.08249
 H408 H 1.06699 0.50872 0.22273
 H409 H 1.09694 0.51012 0.26824
 C410 C 0.50314 0.65307 0.27936
 C411 C 0.50760 0.67049 0.24663
 C412 C 0.50691 0.68647 0.27535
 C413 C 0.50172 0.68519 0.33724
 C414 C 0.49713 0.66754 0.36959
 C415 C 0.49785 0.65160 0.34080
 C416 C 0.50431 0.63680 0.25036
 C417 C 0.50539 0.62313 0.22682
 C418 C 0.50678 0.60674 0.19963
 C419 C 0.51884 0.61009 0.14816
 C420 C 0.52052 0.59423 0.12263
 C421 C 0.51014 0.57483 0.14843
 C422 C 0.49795 0.57156 0.19987
 C423 C 0.49630 0.58743 0.22531
 H424 H 0.51169 0.67176 0.19901
 H425 H 0.51030 0.69976 0.24910
 H426 H 0.49339 0.66622 0.41748
 H427 H 0.49445 0.63822 0.36663
 H428 H 0.52702 0.62498 0.12796
 H429 H 0.52997 0.59716 0.08292
 H430 H 0.48976 0.55676 0.22060
 H431 H 0.48693 0.58468 0.26517
 C432 C 0.34490 -0.14714 0.28501
 C433 C 0.33563 -0.16616 0.25752
 C434 C 0.31948 -0.18265 0.28615
 C435 C 0.31217 -0.18049 0.34323
 C436 C 0.32180 -0.16104 0.37004
 C437 C 0.33795 -0.14463 0.34121
 C438 C 0.36160 -0.13019 0.25574
 C439 C 0.37560 -0.11586 0.23169
 C440 C 0.39230 -0.09862 0.20349
 C441 C 0.41166 -0.09017 0.22863
 C442 C 0.42781 -0.07313 0.20210
 C443 C 0.42476 -0.06433 0.15012
 C444 C 0.40530 -0.07300 0.12486
 C445 C 0.38917 -0.09005 0.15146
 H446 H 0.34080 -0.16823 0.21364
 H447 H 0.31239 -0.19685 0.26186
 H448 H 0.31760 -0.15839 0.41461
 H449 H 0.34515 -0.12997 0.36318
 H450 H 0.41424 -0.09669 0.26892
 H451 H 0.44265 -0.06679 0.22244
 H452 H 0.40253 -0.06657 0.08476
 H453 H 0.37425 -0.09646 0.13165
 C454 C 0.84946 0.50179 0.28268
 C455 C 0.84564 0.49666 0.34420
 C456 C 0.82895 0.49595 0.37272
 C457 C 0.81585 0.50040 0.34003
 C458 C 0.81974 0.50540 0.27806
 C459 C 0.83644 0.50608 0.24961
 C460 C 0.86696 0.50302 0.25396
 C461 C 0.88177 0.50419 0.23054
 C462 C 0.89962 0.50573 0.20332
 C463 C 0.90852 0.49528 0.22860
 C464 C 0.92612 0.49711 0.20311
 C465 C 0.93503 0.50945 0.15202
 C466 C 0.92592 0.51980 0.12664
 C467 C 0.90832 0.51795 0.15222
 H468 H 0.85568 0.49340 0.37029
 H469 H 0.82655 0.49236 0.42068
 H470 H 0.80981 0.50868 0.25155
 H471 H 0.83925 0.51005 0.20193
 H472 H 0.90192 0.48580 0.26818
 H473 H 0.93278 0.48892 0.22350
 H474 H 0.93244 0.52937 0.08722
 H475 H 0.90156 0.52612 0.13234
 C476 C 0.49221 0.34431 0.27921
 C477 C 0.51052 0.34671 0.30052
 C478 C 0.51100 0.33069 0.32944
 C479 C 0.49314 0.31206 0.33751
 C480 C 0.47483 0.30977 0.31558
 C481 C 0.47439 0.32580 0.28662
 C482 C 0.49167 0.36095 0.25069
 C483 C 0.49117 0.37493 0.22730
 C484 C 0.49050 0.39166 0.19994
 C485 C 0.50135 0.41094 0.22575
 C486 C 0.50042 0.42714 0.19995
 C487 C 0.48858 0.42422 0.14800
 C488 C 0.47784 0.40484 0.12209
 C489 C 0.47879 0.38866 0.14798
 H490 H 0.52439 0.36100 0.29524
 H491 H 0.52527 0.33301 0.34656
 H492 H 0.46088 0.29554 0.32045
 H493 H 0.46014 0.32378 0.27021
 H494 H 0.51046 0.41342 0.26598
 H495 H 0.50888 0.44191 0.22078
 H496 H 0.46863 0.40217 0.08201
 H497 H 0.47033 0.37379 0.12765
 C498 C 0.65561 0.14672 0.28327
 C499 C 0.66824 0.16419 0.25019
 C500 C 0.68433 0.18071 0.27899
 C501 C 0.68800 0.17992 0.34129
 C502 C 0.67522 0.16227 0.37410
 C503 C 0.65914 0.14579 0.34524
 C504 C 0.63900 0.12973 0.25384
 C505 C 0.62503 0.11539 0.22974
 C506 C 0.60830 0.09815 0.20163
 C507 C 0.61130 0.08972 0.14889
 C508 C 0.59511 0.07270 0.12235
 C509 C 0.57573 0.06392 0.14837
 C510 C 0.57282 0.07258 0.20107
 C511 C 0.58902 0.08959 0.22754
 H512 H 0.66567 0.16505 0.20216
 H513 H 0.69404 0.19400 0.25241
 H514 H 0.67747 0.16132 0.42229
 H515 H 0.64941 0.13236 0.37131
 H516 H 0.62616 0.09623 0.12848
 H517 H 0.59778 0.06637 0.08169
 H518 H 0.55805 0.06616 0.22201
 H519 H 0.58654 0.09600 0.26836
 C520 C 0.49067 0.14691 -0.28318
 C521 C 0.48167 0.14450 -0.34004
 C522 C 0.48201 0.16092 -0.36894
 C523 C 0.49146 0.18028 -0.34156
 C524 C 0.50043 0.18233 -0.28379
 C525 C 0.50000 0.16583 -0.25508
 C526 C 0.49042 0.12997 -0.25398
 C527 C 0.49016 0.11567 -0.23008
 C528 C 0.48975 0.09846 -0.20221
 C529 C 0.50054 0.09000 -0.22828
 C530 C 0.49980 0.07300 -0.20210
 C531 C 0.48822 0.06425 -0.14953
 C532 C 0.47755 0.07293 -0.12333
 C533 C 0.47831 0.08994 -0.14959
 H534 H 0.47455 0.12992 -0.36247
 H535 H 0.47557 0.15837 -0.41399
 H536 H 0.50721 0.19645 -0.25908
 H537 H 0.50689 0.16782 -0.21072
 H538 H 0.50943 0.09647 -0.26902
 H539 H 0.50820 0.06665 -0.22317
 H540 H 0.46854 0.06653 -0.08278
 H541 H 0.46990 0.09637 -0.12906
 C542 C 0.65292 0.50192 -0.27861
 C543 C 0.64994 0.49208 -0.33436
 C544 C 0.66592 0.49141 -0.36303
 C545 C 0.68540 0.50069 -0.33655
 C546 C 0.68798 0.51037 -0.27966
 C547 C 0.67191 0.51096 -0.25120
 C548 C 0.63657 0.50310 -0.25024
 C549 C 0.62287 0.50424 -0.22709
 C550 C 0.60651 0.50574 -0.20017
 C551 C 0.58723 0.49541 -0.22609
 C552 C 0.57141 0.49720 -0.20087
 C553 C 0.57471 0.50940 -0.14942
 C554 C 0.59408 0.51963 -0.12339
 C555 C 0.60989 0.51781 -0.14870
 H556 H 0.63530 0.48517 -0.35628
 H557 H 0.66298 0.48441 -0.40739
 H558 H 0.70218 0.51703 -0.25554
 H559 H 0.67434 0.51849 -0.20768
 H560 H 0.58446 0.48604 -0.26597
 H561 H 0.55663 0.48911 -0.22177
 H562 H 0.59704 0.52909 -0.08367
 H563 H 0.62476 0.52589 -0.12831
 C564 C 0.85283 0.34506 -0.28412
 C565 C 0.83384 0.33578 -0.25650
 C566 C 0.81733 0.31960 -0.28501
 C567 C 0.81947 0.31225 -0.34206
 C568 C 0.83890 0.32189 -0.36901
 C569 C 0.85532 0.33808 -0.34032
 C570 C 0.86980 0.36178 -0.25497
 C571 C 0.88414 0.37579 -0.23100
 C572 C 0.90140 0.39251 -0.20290
 C573 C 0.91000 0.38940 -0.15089
 C574 C 0.92706 0.40553 -0.12438
 C575 C 0.93573 0.42498 -0.14970
 C576 C 0.92690 0.42801 -0.20165
 C577 C 0.90984 0.41185 -0.22810
 H578 H 0.83178 0.34097 -0.21264
 H579 H 0.80315 0.31250 -0.26063
 H580 H 0.84152 0.31768 -0.41358
 H581 H 0.86996 0.34529 -0.36238
 H582 H 0.90359 0.37448 -0.13103
 H583 H 0.93351 0.40277 -0.08430
 H584 H 0.93324 0.44284 -0.22204
 H585 H 0.90331 0.41442 -0.26837
 C586 C 0.50197 -0.15052 -0.28224
 C587 C 0.49689 -0.15439 -0.34378
 C588 C 0.49627 -0.17105 -0.37216
 C589 C 0.50076 -0.18409 -0.33929
 C590 C 0.50572 -0.18016 -0.27731
 C591 C 0.50632 -0.16348 -0.24901
 C592 C 0.50311 -0.13304 -0.25366
 C593 C 0.50422 -0.11825 -0.23030
 C594 C 0.50570 -0.10043 -0.20311
 C595 C 0.49521 -0.09157 -0.22841
 C596 C 0.49697 -0.07400 -0.20291
 C597 C 0.50930 -0.06507 -0.15180
 C598 C 0.51968 -0.07413 -0.12639
 C599 C 0.51789 -0.09171 -0.15197
 H600 H 0.49359 -0.14440 -0.37000
 H601 H 0.49270 -0.17350 -0.42013
 H602 H 0.50904 -0.19004 -0.25068
 H603 H 0.51025 -0.16063 -0.20131
 H604 H 0.48574 -0.09819 -0.26802
 H605 H 0.48877 -0.06737 -0.22333
 H606 H 0.52924 -0.06760 -0.08694
 H607 H 0.52609 -0.09844 -0.13206
 C608 C 0.34491 0.49245 -0.28453
 C609 C 0.34124 0.48776 -0.34637
 C610 C 0.32512 0.48809 -0.37508
 C611 C 0.31245 0.49314 -0.34225
 C612 C 0.31627 0.49785 -0.28008
 C613 C 0.33240 0.49749 -0.25144
 C614 C 0.36153 0.49208 -0.25523
 C615 C 0.37548 0.49167 -0.23124
 C616 C 0.39216 0.49107 -0.20324
 C617 C 0.38906 0.47947 -0.15094
 C618 C 0.40518 0.47851 -0.12458
 C619 C 0.42459 0.48912 -0.15034
 C620 C 0.42761 0.50087 -0.20257
 C621 C 0.41148 0.50181 -0.22886
 H622 H 0.35088 0.48391 -0.37246
 H623 H 0.32275 0.48469 -0.42317
 H624 H 0.30665 0.50158 -0.25349
 H625 H 0.33509 0.50110 -0.20350
 H626 H 0.37417 0.47109 -0.13076
 H627 H 0.40243 0.46938 -0.08428
 H628 H 0.44241 0.50923 -0.22331
 H629 H 0.41404 0.51083 -0.26936
 C630 C 1.14687 0.65596 -0.28245
 C631 C 1.14448 0.66271 -0.33906
 C632 C 1.16095 0.67879 -0.36794
 C633 C 1.18033 0.68854 -0.34077
 C634 C 1.18235 0.68146 -0.28327
 C635 C 1.16580 0.66538 -0.25459
 C636 C 1.12987 0.63930 -0.25323
 C637 C 1.11553 0.62529 -0.22926
 C638 C 1.09828 0.60855 -0.20125
 C639 C 1.08983 0.61153 -0.14852
 C640 C 1.07280 0.59533 -0.12205
 C641 C 1.06402 0.57597 -0.14816
 C642 C 1.07270 0.57307 -0.20086
 C643 C 1.08972 0.58928 -0.22724
 H644 H 1.12989 0.65539 -0.36132
 H645 H 1.15842 0.68281 -0.41281
 H646 H 1.19648 0.68866 -0.25872
 H647 H 1.16778 0.66037 -0.21042
 H648 H 1.09633 0.62638 -0.12804
 H649 H 1.06645 0.59798 -0.08139
 H650 H 1.06628 0.55831 -0.22186
 H651 H 1.09614 0.58682 -0.26807
 C652 C 0.85281 0.50880 -0.28056
 C653 C 0.83382 0.49921 -0.25287
 C654 C 0.81728 0.49863 -0.28182
 C655 C 0.81935 0.50771 -0.33942
 C656 C 0.83878 0.51741 -0.36639
 C657 C 0.85524 0.51790 -0.33726
 C658 C 0.86980 0.50919 -0.25115
 C659 C 0.88414 0.50956 -0.22714
 C660 C 0.90139 0.51007 -0.19924
 C661 C 0.90991 0.49932 -0.22526
 C662 C 0.92694 0.50013 -0.19907
 C663 C 0.93568 0.51174 -0.14653
 C664 C 0.92694 0.52237 -0.12038
 C665 C 0.90990 0.52153 -0.14665
 H666 H 0.83181 0.49224 -0.20864
 H667 H 0.80310 0.49165 -0.25740
 H668 H 0.84136 0.52395 -0.41132
 H669 H 0.86987 0.52522 -0.35940
 H670 H 0.90345 0.49040 -0.26598
 H671 H 0.93333 0.49176 -0.22012
 H672 H 0.93333 0.53140 -0.07984
 H673 H 0.90343 0.52991 -0.12615
 C674 C 0.49541 0.34571 -0.27929
 C675 C 0.47768 0.32723 -0.28700
 C676 C 0.47818 0.31116 -0.31565
 C677 C 0.49654 0.31321 -0.33757
 C678 C 0.51435 0.33206 -0.32875
 C679 C 0.51374 0.34806 -0.29997
 C680 C 0.49469 0.36233 -0.25109
 C681 C 0.49388 0.37622 -0.22795
 C682 C 0.49270 0.39275 -0.20088
 C683 C 0.48069 0.38951 -0.14937
 C684 C 0.47915 0.40547 -0.12392
 C685 C 0.48961 0.42484 -0.14983
 C686 C 0.50175 0.42800 -0.20131
 C687 C 0.50327 0.41203 -0.22668
 H688 H 0.46334 0.32529 -0.27162
 H689 H 0.46387 0.29752 -0.32281
 H690 H 0.52902 0.33449 -0.34201
 H691 H 0.52762 0.36230 -0.29378
 H692 H 0.47242 0.37464 -0.12907
 H693 H 0.46972 0.40262 -0.08418
 H694 H 0.51002 0.44278 -0.22212
 H695 H 0.51260 0.41469 -0.26658
 C696 C 0.65288 0.15041 -0.28097
 C697 C 0.65158 0.15418 -0.34252
 C698 C 0.66756 0.17084 -0.37103
 C699 C 0.68511 0.18397 -0.33830
 C700 C 0.68623 0.18013 -0.27632
 C701 C 0.67021 0.16346 -0.24787
 C702 C 0.63658 0.13296 -0.25222
 C703 C 0.62290 0.11820 -0.22881
 C704 C 0.60651 0.10042 -0.20167
 C705 C 0.58716 0.09165 -0.22701
 C706 C 0.57130 0.07412 -0.20162
 C707 C 0.57463 0.06514 -0.15056
 C708 C 0.59408 0.07412 -0.12510
 C709 C 0.60993 0.09166 -0.15058
 H710 H 0.63827 0.14413 -0.36863
 H711 H 0.66636 0.17321 -0.41900
 H712 H 0.69944 0.19009 -0.24978
 H713 H 0.67136 0.16070 -0.20018
 H714 H 0.58435 0.09829 -0.26658
 H715 H 0.55647 0.06756 -0.22209
 H716 H 0.59706 0.06756 -0.08570
 H717 H 0.62485 0.09832 -0.13064
 C718 C 1.15025 0.49793 -0.28139
 C719 C 1.16328 0.49358 -0.24853
 C720 C 1.17994 0.49424 -0.27718
 C721 C 1.18379 0.49927 -0.33914
 C722 C 1.17068 0.50376 -0.37163
 C723 C 1.15403 0.50308 -0.34291
 C724 C 1.13281 0.49675 -0.25243
 C725 C 1.11805 0.49565 -0.22880
 C726 C 1.10028 0.49420 -0.20132
 C727 C 1.09165 0.48208 -0.14999
 C728 C 1.07412 0.48034 -0.12414
 C729 C 1.06502 0.49070 -0.14946
 C730 C 1.07386 0.50295 -0.20077
 C731 C 1.09138 0.50467 -0.22654
 H732 H 1.16050 0.48960 -0.20085
 H733 H 1.18988 0.49093 -0.25081
 H734 H 1.17306 0.50738 -0.41957
 H735 H 1.14400 0.50638 -0.36884
 H736 H 1.09840 0.47390 -0.13014
 H737 H 1.06766 0.47084 -0.08455
 H738 H 1.06720 0.51114 -0.22114
 H739 H 1.09792 0.51408 -0.26629
 C740 C 0.50868 0.65564 -0.28379
 C741 C 0.49896 0.66493 -0.25619
 C742 C 0.49850 0.68100 -0.28487
 C743 C 0.50783 0.68822 -0.34212
 C744 C 0.51766 0.67859 -0.36902
 C745 C 0.51802 0.66252 -0.34015
 C746 C 0.50899 0.63897 -0.25458
 C747 C 0.50932 0.62497 -0.23068
 C748 C 0.50982 0.60821 -0.20281
 C749 C 0.49896 0.58891 -0.22848
 C750 C 0.49977 0.57269 -0.20228
 C751 C 0.51151 0.57561 -0.15009
 C752 C 0.52226 0.59501 -0.12430
 C753 C 0.52142 0.61121 -0.15057
 H754 H 0.49180 0.65982 -0.21221
 H755 H 0.49141 0.68810 -0.26051
 H756 H 0.52439 0.68270 -0.41371
 H757 H 0.52545 0.65530 -0.36222
 H758 H 0.48994 0.58643 -0.26892
 H759 H 0.49131 0.55791 -0.22305
 H760 H 0.53139 0.59768 -0.08403
 H761 H 0.52990 0.62609 -0.13034
 C762 C 0.34622 -0.15045 -0.27761
 C763 C 0.32713 -0.16043 -0.25061
 C764 C 0.31116 -0.17705 -0.27937
 C765 C 0.31391 -0.18411 -0.33616
 C766 C 0.33347 -0.17387 -0.36221
 C767 C 0.34936 -0.15725 -0.33325
 C768 C 0.36250 -0.13296 -0.24894
 C769 C 0.37620 -0.11817 -0.22568
 C770 C 0.39263 -0.10035 -0.19884
 C771 C 0.38938 -0.09166 -0.14712
 C772 C 0.40528 -0.07409 -0.12194
 C773 C 0.42462 -0.06501 -0.14833
 C774 C 0.42778 -0.07392 -0.20002
 C775 C 0.41187 -0.09148 -0.22510
 H776 H 0.32458 -0.15538 -0.20719
 H777 H 0.29688 -0.18462 -0.25555
 H778 H 0.33654 -0.17789 -0.40647
 H779 H 0.36407 -0.14950 -0.35486
 H780 H 0.37454 -0.09840 -0.12646
 H781 H 0.40243 -0.06757 -0.08203
 H782 H 0.44253 -0.06728 -0.22120
 H783 H 0.41455 -0.09807 -0.26515
 C784 C 0.50887 -0.14699 0.28180
 C785 C 0.51330 -0.14599 0.34381
 C786 C 0.51289 -0.16243 0.37285
 C787 C 0.50801 -0.18013 0.34018
 C788 C 0.50358 -0.18100 0.27783
 C789 C 0.50403 -0.16451 0.24885
 C790 C 0.50924 -0.13004 0.25223
 C791 C 0.50958 -0.11573 0.22808
 C792 C 0.51004 -0.09852 0.20003
 C793 C 0.49927 -0.09002 0.22596
 C794 C 0.50004 -0.07303 0.19964
 C795 C 0.51162 -0.06432 0.14703
 C796 C 0.52227 -0.07305 0.12096
 C797 C 0.52148 -0.09005 0.14738
 H798 H 0.51700 -0.13252 0.36980
 H799 H 0.51607 -0.16142 0.42107
 H800 H 0.50000 -0.19433 0.25134
 H801 H 0.50061 -0.16543 0.20079
 H802 H 0.49038 -0.09645 0.26673
 H803 H 0.49165 -0.06665 0.22062
 H804 H 0.53128 -0.06668 0.08038
 H805 H 0.52988 -0.09652 0.12694
 C806 C 0.34716 0.49757 0.27989
 C807 C 0.32978 0.49316 0.24699
 C808 C 0.31378 0.49386 0.27555
 C809 C 0.31499 0.49900 0.33745
 C810 C 0.33261 0.50356 0.36998
 C811 C 0.34856 0.50283 0.34135
 C812 C 0.36343 0.49637 0.25101
 C813 C 0.37709 0.49525 0.22748
 C814 C 0.39343 0.49379 0.20016
 C815 C 0.39001 0.48177 0.14854
 C816 C 0.40582 0.48002 0.12286
 C817 C 0.42523 0.49028 0.14864
 C818 C 0.42856 0.50243 0.20024
 C819 C 0.41275 0.50415 0.22583
 H820 H 0.32855 0.48909 0.19935
 H821 H 0.30052 0.49049 0.24916
 H822 H 0.33387 0.50727 0.41788
 H823 H 0.36192 0.50620 0.36731
 H824 H 0.37512 0.47368 0.12833
 H825 H 0.40283 0.47060 0.08304
 H826 H 0.44337 0.51053 0.22096
 H827 H 0.41556 0.51349 0.26581
 C828 C 1.15056 0.65310 0.28128
 C829 C 1.16361 0.67047 0.24839
 C830 C 1.18026 0.68646 0.27703
 C831 C 1.18407 0.68527 0.33900
 C832 C 1.17093 0.66767 0.37151
 C833 C 1.15429 0.65172 0.34281
 C834 C 1.13312 0.63683 0.25237
 C835 C 1.11837 0.62316 0.22887
 C836 C 1.10060 0.60677 0.20169
 C837 C 1.09182 0.61020 0.15065
 C838 C 1.07427 0.59435 0.12516
 C839 C 1.06531 0.57490 0.15058
 C840 C 1.07430 0.57156 0.20159
 C841 C 1.09183 0.58742 0.22698
 H842 H 1.16087 0.67169 0.20072
 H843 H 1.19022 0.69971 0.25065
 H844 H 1.17327 0.66642 0.41945
 H845 H 1.14424 0.63838 0.36876
 H846 H 1.09847 0.62512 0.13074
 H847 H 1.06769 0.59733 0.08580
 H848 H 1.06775 0.55673 0.22203
 H849 H 1.09849 0.58461 0.26651
 C850 C 0.49801 0.15035 0.28103
 C851 C 0.50292 0.15403 0.34274
 C852 C 0.50357 0.17068 0.37135
 C853 C 0.49929 0.18388 0.33857
 C854 C 0.49454 0.18015 0.27641
 C855 C 0.49391 0.16348 0.24787
 C856 C 0.49682 0.13288 0.25218
 C857 C 0.49568 0.11810 0.22860
 C858 C 0.49418 0.10030 0.20118
 C859 C 0.50463 0.09138 0.22638
 C860 C 0.50286 0.07383 0.20068
 C861 C 0.49057 0.06498 0.14944
 C862 C 0.48022 0.07410 0.12413
 C863 C 0.48202 0.09165 0.14993
 H864 H 0.50604 0.14391 0.36890
 H865 H 0.50698 0.17297 0.41943
 H866 H 0.49140 0.19016 0.24982
 H867 H 0.49012 0.16079 0.20005
 H868 H 0.51407 0.09793 0.26608
 H869 H 0.51104 0.06716 0.22104
 H870 H 0.47069 0.06763 0.08460
 H871 H 0.47385 0.09843 0.13009
 C872 C 0.65502 0.50755 0.28421
 C873 C 0.66754 0.50247 0.25136
 C874 C 0.68361 0.50206 0.28028
 C875 C 0.68737 0.50678 0.34246
 C876 C 0.67469 0.51188 0.37503
 C877 C 0.65863 0.51226 0.34605
 C878 C 0.63845 0.50795 0.25465
 C879 C 0.62451 0.50835 0.23048
 C880 C 0.60784 0.50893 0.20230
 C881 C 0.58850 0.49813 0.22776
 C882 C 0.57236 0.49904 0.20132
 C883 C 0.57540 0.51079 0.14909
 C884 C 0.59484 0.52146 0.12350
 C885 C 0.61096 0.52053 0.15002
 H886 H 0.66491 0.49885 0.20342
 H887 H 0.69324 0.49829 0.25386
 H888 H 0.67701 0.51528 0.42312
 H889 H 0.64899 0.51615 0.37196
 H890 H 0.58592 0.48911 0.26824
 H891 H 0.55755 0.49064 0.22193
 H892 H 0.59760 0.53060 0.08321
 H893 H 0.62587 0.52895 0.12996
 C894 C 0.85006 0.34658 0.27965
 C895 C 0.84623 0.34815 0.34104
 C896 C 0.82958 0.33226 0.36989
 C897 C 0.81653 0.31455 0.33767
 C898 C 0.82044 0.31316 0.27584
 C899 C 0.83710 0.32909 0.24705
 C900 C 0.86749 0.36282 0.25058
 C901 C 0.88223 0.37649 0.22704
 C902 C 0.89999 0.39291 0.19993
 C903 C 0.90887 0.41217 0.22605
 C904 C 0.92638 0.42807 0.20074
 C905 C 0.93524 0.42488 0.14897
 C906 C 0.92615 0.40553 0.12271
 C907 C 0.90863 0.38963 0.14813
 H908 H 0.85622 0.36159 0.36676
 H909 H 0.82716 0.33366 0.41773
 H910 H 0.81055 0.29981 0.24968
 H911 H 0.83992 0.32774 0.19948
 H912 H 0.90232 0.41487 0.26617
 H913 H 0.93302 0.44284 0.22183
 H914 H 0.93263 0.40266 0.08275
 H915 H 0.90188 0.37477 0.12758
   
