data_POSCAR
  _audit_creation_date              2014-09-24
  _audit_creation_method            'ToBaCCo'
  _symmetry_space_group_name_H-M    'P1'
  _symmetry_Int_Tables_number       1
  _symmetry_cell_setting            triclinic
  loop_
  _symmetry_equiv_pos_as_xyz
 x,y,z
_cell_length_a 19.3301
_cell_length_b 20.7293
_cell_length_c 20.7255
_cell_angle_alpha 90.228500
_cell_angle_beta 89.995600
_cell_angle_gamma 90.084900
loop_
  _atom_site_label
  _atom_site_type_symbol
  _atom_site_fract_x
  _atom_site_fract_y
  _atom_site_fract_z
C1 C 0.30289 0.21090 0.22185
 C2 C 0.27643 0.18611 0.27978
 C3 C 0.22267 0.21753 0.31107
 C4 C 0.19597 0.27504 0.28580
 C5 C 0.22229 0.29944 0.22882
 C6 C 0.27618 0.26747 0.19696
 C7 C 0.35481 0.19093 0.18074
 N8 N 0.36053 0.23476 0.13253
 C9 C 0.31289 0.28175 0.14210
 C10 C 0.18575 0.35438 0.21454
 N11 N 0.13869 0.36440 0.26199
 C12 C 0.14454 0.31644 0.30604
 C13 C 0.20637 0.18194 0.36492
 N14 N 0.24984 0.13074 0.36759
 C15 C 0.29311 0.13289 0.31612
 H16 H 0.38746 0.14895 0.18650
 H17 H 0.30608 0.32360 0.11166
 H18 H 0.19253 0.38472 0.17259
 H19 H 0.11251 0.31123 0.34857
 H20 H 0.16658 0.19284 0.40007
 H21 H 0.33300 0.09778 0.30554
 C22 C 0.69845 -0.21345 0.22079
 C23 C 0.72415 -0.18898 0.27929
 C24 C 0.77526 -0.22213 0.31232
 C25 C 0.80085 -0.28054 0.28756
 C26 C 0.77618 -0.30399 0.22934
 C27 C 0.72303 -0.27149 0.19700
 C28 C 0.64815 -0.19224 0.17879
 N29 N 0.63933 -0.23782 0.13220
 C30 C 0.68477 -0.28651 0.14303
 C31 C 0.81436 -0.35784 0.21397
 N32 N 0.85982 -0.36900 0.26261
 C33 C 0.85111 -0.32271 0.30851
 C34 C 0.79122 -0.18648 0.36652
 N35 N 0.74985 -0.13369 0.36775
 C36 C 0.70837 -0.13484 0.31500
 H37 H 0.61748 -0.14883 0.18388
 H38 H 0.68957 -0.32970 0.11379
 H39 H 0.80948 -0.38678 0.17057
 H40 H 0.88186 -0.31788 0.35195
 H41 H 0.82937 -0.19831 0.40283
 H42 H 0.67035 -0.09845 0.30316
 C43 C 0.69862 0.21553 0.77768
 C44 C 0.72473 0.19043 0.71975
 C45 C 0.77585 0.22340 0.68643
 C46 C 0.80095 0.28238 0.71040
 C47 C 0.77567 0.30649 0.76812
 C48 C 0.72270 0.27403 0.80079
 C49 C 0.64869 0.19420 0.81992
 N50 N 0.63973 0.24001 0.86619
 C51 C 0.68464 0.28911 0.85484
 C52 C 0.81354 0.36059 0.78313
 N53 N 0.85961 0.37123 0.73487
 C54 C 0.85150 0.32439 0.68942
 C55 C 0.79225 0.18691 0.63294
 N56 N 0.75110 0.13386 0.63253
 C57 C 0.70938 0.13561 0.68503
 H58 H 0.61860 0.15029 0.81540
 H59 H 0.68931 0.33249 0.88383
 H60 H 0.80830 0.38989 0.82626
 H61 H 0.88296 0.31901 0.64649
 H62 H 0.83040 0.19842 0.59648
 H63 H 0.67136 0.09925 0.69729
 C64 C 0.30150 -0.21174 0.78139
 C65 C 0.27579 -0.18741 0.72301
 C66 C 0.22400 -0.22033 0.69032
 C67 C 0.19773 -0.27818 0.71516
 C68 C 0.22245 -0.30165 0.77308
 C69 C 0.27626 -0.26948 0.80515
 C70 C 0.35239 -0.19089 0.82322
 N71 N 0.36085 -0.23643 0.86953
 C72 C 0.31469 -0.28472 0.85875
 C73 C 0.18387 -0.35534 0.78821
 N74 N 0.13808 -0.36616 0.73965
 C75 C 0.14698 -0.31991 0.69414
 C76 C 0.20826 -0.18532 0.63604
 N77 N 0.25039 -0.13305 0.63431
 C78 C 0.29216 -0.13387 0.68689
 H79 H 0.38368 -0.14782 0.81815
 H80 H 0.30946 -0.32776 0.88783
 H81 H 0.18885 -0.38447 0.83123
 H82 H 0.11630 -0.31504 0.65070
 H83 H 0.16974 -0.19730 0.59997
 H84 H 0.33083 -0.09774 0.69830
 C85 C 0.69840 -0.21129 0.78091
 C86 C 0.72405 -0.18687 0.72251
 C87 C 0.77529 -0.21999 0.68935
 C88 C 0.80106 -0.27819 0.71377
 C89 C 0.77650 -0.30157 0.77183
 C90 C 0.72325 -0.26922 0.80432
 C91 C 0.64790 -0.19037 0.82308
 N92 N 0.63931 -0.23606 0.86927
 C93 C 0.68504 -0.28447 0.85808
 C94 C 0.81478 -0.35530 0.78683
 N95 N 0.86020 -0.36640 0.73808
 C96 C 0.85138 -0.32023 0.69248
 C97 C 0.79114 -0.18469 0.63522
 N98 N 0.74960 -0.13208 0.63408
 C99 C 0.70809 -0.13299 0.68685
 H100 H 0.61692 -0.14715 0.81832
 H101 H 0.69004 -0.32768 0.88692
 H102 H 0.80997 -0.38423 0.83002
 H103 H 0.88204 -0.31545 0.64901
 H104 H 0.82926 -0.19671 0.59884
 H105 H 0.66985 -0.09670 0.69866
 C106 C 0.30380 0.21531 0.77739
 C107 C 0.27554 0.18860 0.72095
 C108 C 0.22246 0.22009 0.68914
 C109 C 0.19784 0.27925 0.71273
 C110 C 0.22662 0.30607 0.76784
 C111 C 0.28084 0.27455 0.79960
 C112 C 0.35425 0.19458 0.81935
 N113 N 0.36423 0.24109 0.86480
 C114 C 0.31998 0.29044 0.85283
 C115 C 0.19026 0.36140 0.78166
 N116 N 0.14100 0.36911 0.73577
 C117 C 0.14550 0.31961 0.69299
 C118 C 0.20503 0.18315 0.63624
 N119 N 0.24755 0.13121 0.63444
 C120 C 0.29087 0.13395 0.68584
 H121 H 0.38324 0.15003 0.81575
 H122 H 0.31571 0.33410 0.88143
 H123 H 0.19806 0.39311 0.82267
 H124 H 0.11130 0.31218 0.65225
 H125 H 0.16584 0.19409 0.60060
 H126 H 0.33060 0.09884 0.69664
 C127 C 0.30137 -0.21382 0.22036
 C128 C 0.27560 -0.18946 0.27885
 C129 C 0.22392 -0.22241 0.31140
 C130 C 0.19781 -0.28045 0.28619
 C131 C 0.22263 -0.30396 0.22808
 C132 C 0.27637 -0.27166 0.19619
 C133 C 0.35211 -0.19270 0.17871
 N134 N 0.36079 -0.23813 0.13198
 C135 C 0.31487 -0.28666 0.14237
 C136 C 0.18412 -0.35773 0.21256
 N137 N 0.13829 -0.36866 0.26100
 C138 C 0.14708 -0.32232 0.30686
 C139 C 0.20805 -0.18705 0.36577
 N140 N 0.25003 -0.13461 0.36761
 C141 C 0.29179 -0.13567 0.31504
 H142 H 0.38312 -0.14946 0.18413
 H143 H 0.30983 -0.32967 0.11289
 H144 H 0.18915 -0.38684 0.16930
 H145 H 0.11632 -0.31745 0.35029
 H146 H 0.16949 -0.19884 0.40176
 H147 H 0.33026 -0.09944 0.30362
 C148 C 0.69926 0.21114 0.22156
 C149 C 0.72359 0.18796 0.28080
 C150 C 0.77566 0.22071 0.31340
 C151 C 0.80301 0.27792 0.28771
 C152 C 0.78010 0.29962 0.22844
 C153 C 0.72729 0.26678 0.19580
 C154 C 0.64777 0.19070 0.18022
 N155 N 0.64328 0.23363 0.13115
 C156 C 0.69167 0.28019 0.14014
 C157 C 0.81811 0.35340 0.21310
 N158 N 0.86203 0.36632 0.26260
 C159 C 0.85271 0.32091 0.30897
 C160 C 0.79098 0.18555 0.36777
 N161 N 0.74863 0.13333 0.36923
 C162 C 0.70676 0.13460 0.31680
 H163 H 0.61393 0.14959 0.18685
 H164 H 0.69903 0.32167 0.10927
 H165 H 0.81375 0.38144 0.16929
 H166 H 0.88197 0.31776 0.35341
 H167 H 0.82993 0.19692 0.40361
 H168 H 0.66841 0.09832 0.30492
 O169 O 0.30705 0.06100 0.43765
 O170 O 0.30743 -0.06297 0.56435
 O171 O 0.30676 -0.06365 0.43758
 O172 O 0.30544 0.06133 0.56444
 O173 O 0.19114 0.06160 0.56304
 O174 O 0.19246 -0.06530 0.43833
 O175 O 0.19313 -0.06467 0.56303
 O176 O 0.19276 0.06131 0.43827
 Cu177 Cu 0.31817 -0.00098 0.50098
 Cu178 Cu 0.18089 -0.00184 0.50057
 C179 C 0.24989 0.08237 0.41655
 C180 C 0.25034 -0.08489 0.58520
 C181 C 0.24975 -0.08586 0.41656
 C182 C 0.24805 0.08268 0.58530
 O183 O 0.69368 0.06230 0.56397
 O184 O 0.69295 -0.06288 0.43752
 O185 O 0.69233 -0.06219 0.56432
 O186 O 0.69196 0.06191 0.43793
 O187 O 0.80627 0.06312 0.43848
 O188 O 0.80663 -0.06311 0.56300
 O189 O 0.80724 -0.06377 0.43817
 O190 O 0.80800 0.06342 0.56255
 Cu191 Cu 0.68123 -0.00036 0.50093
 Cu192 Cu 0.81855 -0.00023 0.50044
 C193 C 0.75095 0.08447 0.58435
 C194 C 0.75003 -0.08476 0.41650
 C195 C 0.74951 -0.08376 0.58514
 C196 C 0.74898 0.08412 0.41724
 O197 O 0.43446 0.28854 0.06225
 O198 O 0.57023 0.29107 -0.06159
 O199 O 0.43340 0.29172 -0.06213
 O200 O 0.56894 0.28803 0.06199
 O201 O 0.56832 0.18147 0.05921
 O202 O 0.43532 0.18541 -0.06820
 O203 O 0.56692 0.18478 -0.06793
 O204 O 0.43397 0.18201 0.05965
 Cu205 Cu 0.50167 0.30052 0.00024
 Cu206 Cu 0.50091 0.17260 -0.00432
 C207 C 0.41167 0.23495 0.08267
 C208 C 0.59138 0.23854 -0.08643
 C209 C 0.41192 0.23934 -0.08719
 C210 C 0.59150 0.23425 0.08196
 O211 O 0.56857 0.71007 0.06180
 O212 O 0.43172 0.71083 -0.06126
 O213 O 0.56856 0.71107 -0.06133
 O214 O 0.43169 0.70989 0.06174
 O215 O 0.43391 0.81630 0.06540
 O216 O 0.56642 0.81750 -0.06295
 O217 O 0.43399 0.81727 -0.06292
 O218 O 0.56650 0.81648 0.06540
 Cu219 Cu 0.50016 0.69985 0.00011
 Cu220 Cu 0.50022 0.82763 0.00138
 C221 C 0.59048 0.76301 0.08520
 C222 C 0.40989 0.76400 -0.08365
 C223 C 0.59041 0.76428 -0.08376
 C224 C 0.40980 0.76279 0.08512
 O225 O 0.06749 0.43791 0.31619
 O226 O -0.06772 0.56348 0.31643
 O227 O -0.06543 0.43473 0.31638
 O228 O 0.06471 0.56534 0.31542
 O229 O 0.06835 0.55975 0.20913
 O230 O -0.07028 0.43832 0.21006
 O231 O -0.06909 0.56141 0.20996
 O232 O 0.06441 0.43544 0.20964
 Cu233 Cu -0.00034 0.50046 0.32688
 Cu234 Cu -0.00155 0.49903 0.19904
 C235 C 0.08828 0.41481 0.26274
 C236 C -0.09136 0.58401 0.26310
 C237 C -0.09028 0.41442 0.26320
 C238 C 0.08950 0.58418 0.26191
 O239 O 0.06453 0.56812 0.68455
 O240 O -0.06554 0.43768 0.68208
 O241 O -0.06752 0.56613 0.68359
 O242 O 0.06800 0.44113 0.68251
 O243 O 0.06477 0.43812 0.78902
 O244 O -0.06870 0.56407 0.79008
 O245 O -0.07097 0.44143 0.78840
 O246 O 0.06827 0.56214 0.79079
 Cu247 Cu -0.00024 0.50319 0.67238
 Cu248 Cu -0.00155 0.50144 0.80025
 C249 C 0.08932 0.58675 0.73826
 C250 C -0.09127 0.41802 0.73497
 C251 C -0.09100 0.58667 0.73715
 C252 C 0.08925 0.41828 0.73569
   
