data_POSCAR
  _audit_creation_date              2014-09-24
  _audit_creation_method            'ToBaCCo'
  _symmetry_space_group_name_H-M    'P1'
  _symmetry_Int_Tables_number       1
  _symmetry_cell_setting            triclinic
  loop_
  _symmetry_equiv_pos_as_xyz
 x,y,z
_cell_length_a 41.1271
_cell_length_b 42.4784
_cell_length_c 41.3563
_cell_angle_alpha 90.820100
_cell_angle_beta 88.293800
_cell_angle_gamma 90.778300
loop_
  _atom_site_label
  _atom_site_type_symbol
  _atom_site_fract_x
  _atom_site_fract_y
  _atom_site_fract_z
N1 N 0.58019 0.67262 0.61554
 N2 N 0.56719 0.65992 0.64174
 C3 C 0.53993 0.67552 0.65037
 C4 C 0.53554 0.69936 0.62841
 C5 C 0.56167 0.69669 0.60662
 H6 H 0.52456 0.67002 0.67122
 H7 H 0.56719 0.71139 0.58602
 Cu8 Cu 0.58756 0.62463 0.66227
 Cu9 Cu 0.62049 0.65742 0.59534
 Cu10 Cu 0.65727 0.59450 0.63162
 N11 N 0.60835 0.58935 0.68241
 N12 N 0.63561 0.57770 0.67037
 C13 C 0.64454 0.55351 0.68865
 C14 C 0.62158 0.54960 0.71368
 C15 C 0.59898 0.57296 0.70877
 H16 H 0.66608 0.53977 0.68375
 H17 H 0.57718 0.57769 0.72310
 N18 N 0.67533 0.61479 0.59227
 N19 N 0.66131 0.63873 0.57854
 C20 C 0.67931 0.64732 0.55233
 C21 C 0.70602 0.62786 0.54928
 C22 C 0.70262 0.60751 0.57508
 H23 H 0.67322 0.66619 0.53647
 H24 H 0.71892 0.58887 0.58106
 H25 H 0.61590 0.61160 0.61132
 H26 H 0.63964 0.63963 0.63690
 N27 N 0.91316 0.32278 0.10868
 N28 N 0.92527 0.33571 0.13479
 C29 C 0.95046 0.31840 0.14415
 C30 C 0.95445 0.29315 0.12266
 C31 C 0.93014 0.29691 0.10047
 H32 H 0.96477 0.32392 0.16501
 H33 H 0.92494 0.28207 0.07980
 Cu34 Cu 0.90687 0.37404 0.15374
 Cu35 Cu 0.87619 0.34012 0.08708
 Cu36 Cu 0.84179 0.40724 0.12106
 N37 N 0.88672 0.41140 0.17297
 N38 N 0.86133 0.42414 0.16004
 C39 C 0.85223 0.44942 0.17788
 C40 C 0.87300 0.45286 0.20351
 C41 C 0.89462 0.42822 0.19954
 H42 H 0.83207 0.46427 0.17236
 H43 H 0.91449 0.42278 0.21495
 N44 N 0.82552 0.38661 0.08162
 N45 N 0.83867 0.36106 0.06870
 C46 C 0.82216 0.35250 0.04230
 C47 C 0.79729 0.37366 0.03828
 C48 C 0.80026 0.39498 0.06375
 H49 H 0.82777 0.33219 0.02726
 H50 H 0.78507 0.41505 0.06905
 H51 H 0.88325 0.38630 0.10204
 H52 H 0.85568 0.36134 0.12801
 N53 N 0.41520 0.17409 -0.11302
 N54 N 0.42821 0.16127 -0.13937
 C55 C 0.45394 0.17890 -0.14932
 C56 C 0.45736 0.20416 -0.12806
 C57 C 0.43227 0.20025 -0.10528
 H58 H 0.46915 0.17362 -0.17039
 H59 H 0.42655 0.21545 -0.08478
 Cu60 Cu 0.41029 0.12287 -0.15828
 Cu61 Cu 0.37693 0.15607 -0.09098
 Cu62 Cu 0.34340 0.08851 -0.12515
 N63 N 0.39078 0.08532 -0.17743
 N64 N 0.36456 0.07208 -0.16447
 C65 C 0.35627 0.04667 -0.18237
 C66 C 0.37854 0.04372 -0.20802
 C67 C 0.40009 0.06875 -0.20404
 H68 H 0.33578 0.03129 -0.17682
 H69 H 0.42090 0.07459 -0.21946
 N70 N 0.32550 0.10863 -0.08539
 N71 N 0.33824 0.13431 -0.07234
 C72 C 0.32061 0.14212 -0.04551
 C73 C 0.29552 0.12030 -0.04140
 C74 C 0.29948 0.09943 -0.06722
 H75 H 0.32580 0.16214 -0.03003
 H76 H 0.28442 0.07911 -0.07258
 H77 H 0.38417 0.11013 -0.10628
 H78 H 0.35811 0.13484 -0.13175
 N79 N 0.08933 0.82169 0.38417
 N80 N 0.07560 0.83522 0.35981
 C81 C 0.05043 0.81717 0.35018
 C82 C 0.04800 0.79080 0.36968
 C83 C 0.07330 0.79465 0.39101
 H84 H 0.03490 0.82311 0.33064
 H85 H 0.07979 0.77905 0.41011
 Cu86 Cu 0.09154 0.87547 0.34347
 Cu87 Cu 0.12706 0.84009 0.40517
 Cu88 Cu 0.15669 0.91122 0.37548
 N89 N 0.10853 0.91524 0.32686
 N90 N 0.13403 0.92908 0.33949
 C91 C 0.14075 0.95594 0.32362
 C92 C 0.11823 0.95924 0.29965
 C93 C 0.09816 0.93287 0.30250
 H94 H 0.16053 0.97190 0.32926
 H95 H 0.07772 0.92676 0.28773
 N96 N 0.17626 0.88945 0.41173
 N97 N 0.16500 0.86242 0.42309
 C98 C 0.18344 0.85377 0.44775
 C99 C 0.20754 0.87642 0.45220
 C100 C 0.20212 0.89867 0.42886
 H101 H 0.17963 0.83247 0.46137
 H102 H 0.21582 0.92018 0.42475
 H103 H 0.11735 0.88638 0.39484
 H104 H 0.14451 0.86475 0.36545
 N105 N 0.12226 0.12777 0.13337
 N106 N 0.37323 0.87204 0.62426
 N107 N 0.88071 0.62021 0.37594
 N108 N 0.62373 0.37800 -0.12597
 C109 C 0.02512 0.22204 0.12367
 C110 C 0.00219 0.22190 0.09925
 C111 C -0.02117 0.24535 0.09894
 C112 C -0.02212 0.26916 0.12300
 C113 C 0.00112 0.26806 0.14732
 N114 N 0.02365 0.24489 0.14704
 C115 C 0.05042 0.19764 0.12513
 N116 N 0.06342 0.19119 0.15418
 C117 C 0.08655 0.16896 0.15739
 C118 C 0.09807 0.15180 0.13027
 C119 C 0.08538 0.15835 0.10004
 C120 C 0.06170 0.18125 0.09732
 H121 H -0.03839 0.24446 0.07972
 H122 H 0.00163 0.28542 0.16664
 H123 H 0.09605 0.16472 0.18103
 H124 H 0.09367 0.14556 0.07858
 H125 H 0.00172 0.20362 0.08079
 H126 H 0.05282 0.18624 0.07362
 C127 C 0.46137 0.76941 0.62973
 C128 C 0.46235 0.74779 0.65506
 C129 C 0.48632 0.72485 0.65452
 C130 C 0.50932 0.72311 0.62878
 C131 C 0.50695 0.74470 0.60355
 N132 N 0.48345 0.76691 0.60469
 C133 C 0.43719 0.79493 0.62930
 N134 N 0.43076 0.80843 0.60053
 C135 C 0.40981 0.83273 0.59823
 C136 C 0.39421 0.84518 0.62609
 C137 C 0.40040 0.83168 0.65599
 C138 C 0.42185 0.80665 0.65774
 H139 H 0.48679 0.70868 0.67445
 H140 H 0.52372 0.74417 0.58295
 H141 H 0.40590 0.84279 0.57480
 H142 H 0.38882 0.84075 0.67799
 H143 H 0.44472 0.74820 0.67498
 H144 H 0.42690 0.79739 0.68125
 C145 C 0.97847 0.71688 0.36674
 C146 C 0.97806 0.74065 0.34358
 C147 C 1.00112 0.76501 0.34443
 C148 C 1.02482 0.76601 0.36833
 C149 C 1.02427 0.74157 0.39104
 N150 N 1.00138 0.71823 0.38979
 C151 C 0.95382 0.69114 0.36775
 N152 N 0.94654 0.67717 0.39655
 C153 C 0.92356 0.65401 0.39962
 C154 C 0.90637 0.64357 0.37262
 C155 C 0.91397 0.65708 0.34255
 C156 C 0.93768 0.68079 0.33998
 H157 H 0.99999 0.78298 0.32629
 H158 H 1.04161 0.74095 0.41012
 H159 H 0.91851 0.64387 0.42312
 H160 H 0.90116 0.64961 0.32121
 H161 H 0.95970 0.74105 0.32540
 H162 H 0.94333 0.69063 0.31647
 C163 C 0.52907 0.27829 -0.13180
 C164 C 0.52583 0.25774 -0.15845
 C165 C 0.50245 0.23366 -0.15725
 C166 C 0.48228 0.22975 -0.12956
 C167 C 0.48653 0.25062 -0.10333
 N168 N 0.50951 0.27389 -0.10506
 C169 C 0.55363 0.30412 -0.13148
 N170 N 0.56350 0.31575 -0.10246
 C171 C 0.58593 0.33940 -0.10011
 C172 C 0.59975 0.35295 -0.12812
 C173 C 0.58969 0.34168 -0.15828
 C174 C 0.56662 0.31739 -0.16010
 H175 H 0.50025 0.21823 -0.17811
 H176 H 0.47189 0.24841 -0.08132
 H177 H 0.59285 0.34777 -0.07642
 H178 H 0.59981 0.35162 -0.18040
 H179 H 0.54145 0.25967 -0.17984
 H180 H 0.55883 0.30962 -0.18368
 C181 C 0.11378 0.03337 0.23067
 C182 C 0.08807 0.01137 0.23338
 C183 C 0.08940 -0.01262 0.25599
 C184 C 0.11629 -0.01499 0.27592
 C185 C 0.14148 0.00749 0.27241
 N186 N 0.13967 0.03057 0.25014
 C187 C 0.11449 0.05867 0.20632
 N188 N 0.14371 0.07192 0.19750
 C189 C 0.14667 0.09457 0.17468
 C190 C 0.11913 0.10516 0.15909
 C191 C 0.08865 0.09245 0.16830
 C192 C 0.08618 0.06936 0.19195
 H193 H 0.06933 -0.02929 0.25767
 H194 H 0.16285 0.00660 0.28693
 H195 H 0.17054 0.10411 0.16847
 H196 H 0.06684 0.10003 0.15680
 H197 H 0.06744 0.01197 0.21783
 H198 H 0.06232 0.06027 0.19881
 C199 C 0.61947 0.48011 -0.21431
 C200 C 0.59476 0.50253 -0.21458
 C201 C 0.59553 0.52562 -0.23825
 C202 C 0.62096 0.52677 -0.26181
 C203 C 0.64562 0.50420 -0.26007
 N204 N 0.64421 0.48190 -0.23680
 C205 C 0.61961 0.45457 -0.19028
 N206 N 0.64832 0.44055 -0.18407
 C207 C 0.65032 0.41636 -0.16308
 C208 C 0.62220 0.40460 -0.14720
 C209 C 0.59235 0.41858 -0.15324
 C210 C 0.59091 0.44348 -0.17474
 H211 H 0.57602 0.54241 -0.23779
 H212 H 0.66601 0.50389 -0.27714
 H213 H 0.67372 0.40590 -0.15928
 H214 H 0.57016 0.41002 -0.14146
 H215 H 0.57516 0.50268 -0.19657
 H216 H 0.56743 0.45320 -0.17964
 C217 C 0.38067 0.97159 0.71847
 C218 C 0.40758 0.99198 0.72170
 C219 C 0.40687 1.01551 0.74558
 C220 C 0.37942 1.01900 0.76626
 C221 C 0.35285 0.99840 0.76190
 N222 N 0.35412 0.97566 0.73845
 C223 C 0.37995 0.94609 0.69368
 N224 N 0.35058 0.93464 0.68418
 C225 C 0.34784 0.91104 0.66184
 C226 C 0.37579 0.89731 0.64781
 C227 C 0.40630 0.90849 0.65739
 C228 C 0.40852 0.93276 0.68032
 H229 H 0.42796 1.03078 0.74784
 H230 H 0.33096 1.00035 0.77688
 H231 H 0.32390 0.90276 0.65527
 H232 H 0.42837 0.89840 0.64708
 H233 H 0.42883 0.99027 0.70577
 H234 H 0.43236 0.94041 0.68780
 C235 C 0.87140 0.52423 0.27794
 C236 C 0.84551 0.52162 0.25663
 C237 C 0.84598 0.49831 0.23254
 C238 C 0.87221 0.47757 0.22930
 C239 C 0.89773 0.48112 0.25096
 N240 N 0.89673 0.50405 0.27424
 C241 C 0.87256 0.54885 0.30368
 N242 N 0.90192 0.55730 0.31577
 C243 C 0.90507 0.57993 0.33910
 C244 C 0.87757 0.59553 0.35177
 C245 C 0.84702 0.58691 0.34005
 C246 C 0.84436 0.56356 0.31619
 H247 H 0.82571 0.49670 0.21651
 H248 H 0.91864 0.46599 0.24934
 H249 H 0.92901 0.58574 0.34778
 H250 H 0.82524 0.59847 0.34917
 H251 H 0.82533 0.53768 0.25791
 H252 H 0.82042 0.55702 0.30809
 C253 C 0.22179 0.11850 0.03414
 C254 C 0.22449 0.09299 0.01227
 C255 C 0.24857 0.09352 -0.01219
 C256 C 0.26997 0.11942 -0.01524
 C257 C 0.26628 0.14454 0.00698
 N258 N 0.24260 0.14348 0.03061
 C259 C 0.19633 0.11963 0.06026
 N260 N 0.18791 0.14815 0.07322
 C261 C 0.16451 0.15128 0.09691
 C262 C 0.14798 0.12465 0.10902
 C263 C 0.15657 0.09498 0.09643
 C264 C 0.18077 0.09233 0.07223
 H265 H 0.25024 0.07357 -0.02866
 H266 H 0.28188 0.16518 0.00556
 H267 H 0.15873 0.17452 0.10627
 H268 H 0.14430 0.07390 0.10513
 H269 H 0.20792 0.07304 0.01340
 H270 H 0.18725 0.06910 0.06344
 C271 C 0.78180 0.62946 0.47580
 C272 C 0.75972 0.65438 0.47836
 C273 C 0.73519 0.65392 0.50237
 C274 C 0.73229 0.62867 0.52386
 C275 C 0.75474 0.60413 0.52034
 N276 N 0.77843 0.60509 0.49671
 C277 C 0.80794 0.62830 0.45036
 N278 N 0.82074 0.59987 0.44171
 C279 C 0.84434 0.59676 0.41820
 C280 C 0.85650 0.62331 0.40180
 C281 C 0.84416 0.65290 0.41072
 C282 C 0.82006 0.65554 0.43501
 H283 H 0.71857 0.67342 0.50396
 H284 H 0.75339 0.58399 0.53603
 H285 H 0.85356 0.57360 0.41222
 H286 H 0.85294 0.67393 0.39862
 H287 H 0.76074 0.67378 0.46172
 H288 H 0.81141 0.67871 0.44171
 C289 C 0.72521 0.37212 -0.03465
 C290 C 0.74944 0.34913 -0.03526
 C291 C 0.77293 0.34969 -0.01161
 C292 C 0.77264 0.37315 0.01268
 C293 C 0.74831 0.39604 0.01204
 N294 N 0.72565 0.39496 -0.01123
 C295 C 0.69944 0.37264 -0.05891
 N296 N 0.68395 0.40020 -0.06403
 C297 C 0.65978 0.40252 -0.08555
 C298 C 0.64964 0.37596 -0.10330
 C299 C 0.66504 0.34726 -0.09828
 C300 C 0.68982 0.34545 -0.07611
 H301 H 0.79128 0.33169 -0.01259
 H302 H 0.74705 0.41476 0.02997
 H303 H 0.64821 0.42498 -0.08855
 H304 H 0.65786 0.32627 -0.11156
 H305 H 0.75076 0.33113 -0.05398
 H306 H 0.70069 0.32285 -0.07218
 C307 C 0.28102 0.87797 0.52368
 C308 C 0.28189 0.90062 0.49927
 C309 C 0.25803 0.90008 0.47598
 C310 C 0.23329 0.87696 0.47668
 C311 C 0.23365 0.85441 0.50120
 N312 N 0.25713 0.85547 0.52366
 C313 C 0.30552 0.87742 0.54922
 N314 N 0.31040 0.84996 0.56489
 C315 C 0.33213 0.84763 0.58885
 C316 C 0.35035 0.87408 0.59857
 C317 C 0.34557 0.90268 0.58299
 C318 C 0.32319 0.90450 0.55842
 H319 H 0.25928 0.91770 0.45736
 H320 H 0.21526 0.83605 0.50284
 H321 H 0.33491 0.82526 0.60057
 H322 H 0.35920 0.92358 0.58986
 H323 H 0.30100 0.91831 0.49764
 H324 H 0.31946 0.92703 0.54738
   
