data_POSCAR
  _audit_creation_date              2014-09-24
  _audit_creation_method            'ToBaCCo'
  _symmetry_space_group_name_H-M    'P1'
  _symmetry_Int_Tables_number       1
  _symmetry_cell_setting            triclinic
  loop_
  _symmetry_equiv_pos_as_xyz
 x,y,z
_cell_length_a 47.6889
_cell_length_b 42.1459
_cell_length_c 8.0865
_cell_angle_alpha 88.653700
_cell_angle_beta 89.972300
_cell_angle_gamma 90.039500
loop_
  _atom_site_label
  _atom_site_type_symbol
  _atom_site_fract_x
  _atom_site_fract_y
  _atom_site_fract_z
C1 C 0.16365 0.28097 0.27830
 C2 C 0.16194 0.24940 0.24367
 C3 C 0.18855 0.24002 0.19510
 N4 N 0.20645 0.26487 0.19867
 C5 C 0.19119 0.28995 0.24903
 C6 C 0.19561 0.20891 0.14689
 C7 C 0.22369 0.19747 0.14560
 C8 C 0.23202 0.16887 0.07960
 C9 C 0.26019 0.16575 0.11037
 C10 C 0.26881 0.19293 0.18984
 N11 N 0.24625 0.21192 0.21292
 C12 C 0.29639 0.19832 0.25053
 C13 C 0.30562 0.22813 0.30843
 C14 C 0.33193 0.23406 0.37483
 C15 C 0.33330 0.26593 0.40220
 C16 C 0.30802 0.27874 0.34967
 N17 N 0.29123 0.25568 0.29113
 C18 C 0.30162 0.31152 0.34704
 C19 C 0.27516 0.32400 0.30189
 C20 C 0.26993 0.35575 0.26419
 C21 C 0.24152 0.35859 0.23844
 C22 C 0.23023 0.32852 0.26169
 N23 N 0.25081 0.30757 0.29994
 C24 C 0.20131 0.32135 0.25865
 H25 H 0.14659 0.29562 0.32088
 H26 H 0.14331 0.23483 0.25559
 H27 H 0.24800 0.28429 0.34158
 H28 H 0.21914 0.15170 0.01717
 H29 H 0.27268 0.14535 0.07972
 H30 H 0.34882 0.21744 0.39780
 H31 H 0.35120 0.27830 0.45154
 H32 H 0.23043 0.38037 0.20886
 H33 H 0.24569 0.23184 0.28583
 H34 H 0.28502 0.37496 0.25852
 C35 C 0.66784 0.21911 0.40368
 C36 C 0.66615 0.25119 0.37584
 C37 C 0.69076 0.26023 0.29680
 N38 N 0.70718 0.23457 0.27210
 C39 C 0.69307 0.20928 0.33615
 C40 C 0.69682 0.29146 0.24019
 C41 C 0.72370 0.30145 0.18600
 C42 C 0.72953 0.33077 0.11244
 C43 C 0.75812 0.33237 0.09192
 C44 C 0.76907 0.30386 0.15219
 N45 N 0.74790 0.28535 0.21114
 C46 C 0.79805 0.29657 0.16205
 C47 C 0.80844 0.26588 0.20165
 C48 C 0.83650 0.25851 0.22581
 C49 C 0.83794 0.22627 0.24943
 C50 C 0.81080 0.21483 0.23680
 N51 N 0.79279 0.23907 0.20745
 C52 C 0.80338 0.18234 0.24064
 C53 C 0.77528 0.17149 0.24608
 C54 C 0.76702 0.14089 0.21007
 C55 C 0.73859 0.13930 0.23648
 C56 C 0.73014 0.16898 0.28838
 N57 N 0.75271 0.18848 0.29419
 C58 C 0.70210 0.17723 0.32866
 H59 H 0.65214 0.20468 0.46631
 H60 H 0.64875 0.26609 0.41010
 H61 H 0.75313 0.21102 0.34385
 H62 H 0.71481 0.34943 0.08017
 H63 H 0.76947 0.35266 0.04201
 H64 H 0.85426 0.27451 0.22457
 H65 H 0.85692 0.21278 0.27142
 H66 H 0.72554 0.11871 0.21700
 H67 H 0.75006 0.26456 0.28129
 H68 H 0.78009 0.12178 0.16718
 C69 C 0.83553 0.74446 0.70813
 C70 C 0.83566 0.77678 0.72371
 C71 C 0.80841 0.78558 0.76121
 N72 N 0.79173 0.75962 0.77058
 C73 C 0.80829 0.73441 0.73896
 C74 C 0.79989 0.81654 0.80252
 C75 C 0.77140 0.82537 0.82083
 C76 C 0.76218 0.85316 0.89208
 C77 C 0.73345 0.85345 0.87939
 C78 C 0.72584 0.82607 0.79900
 N79 N 0.74912 0.80919 0.76258
 C80 C 0.69810 0.81833 0.75424
 C81 C 0.68983 0.78828 0.69839
 C82 C 0.66316 0.78087 0.64283
 C83 C 0.66337 0.74920 0.60842
 C84 C 0.69005 0.73827 0.64634
 N85 N 0.70612 0.76210 0.70236
 C86 C 0.69847 0.70632 0.64165
 C87 C 0.72540 0.69578 0.68854
 C88 C 0.73139 0.66511 0.74186
 C89 C 0.75955 0.66423 0.77559
 C90 C 0.77028 0.69414 0.73612
 N91 N 0.74913 0.71339 0.68448
 C92 C 0.79917 0.70238 0.74140
 H93 H 0.85345 0.73009 0.67629
 H94 H 0.85384 0.79192 0.70819
 H95 H 0.75114 0.73609 0.63246
 H96 H 0.77469 0.87158 0.94657
 H97 H 0.71973 0.87188 0.92328
 H98 H 0.64525 0.79653 0.63121
 H99 H 0.64559 0.73556 0.56705
 H100 H 0.77086 0.64371 0.82259
 H101 H 0.75004 0.78958 0.68721
 H102 H 0.71681 0.64562 0.75904
 C103 C 0.33761 0.71905 0.72971
 C104 C 0.33829 0.75129 0.70296
 C105 C 0.31080 0.76074 0.67558
 N106 N 0.29352 0.73539 0.68129
 C107 C 0.30983 0.70990 0.71466
 C108 C 0.30215 0.79171 0.63146
 C109 C 0.27358 0.80045 0.62298
 C110 C 0.26327 0.82722 0.54085
 C111 C 0.23515 0.82874 0.57673
 C112 C 0.22920 0.80352 0.68481
 N113 N 0.25263 0.78595 0.70896
 C114 C 0.20350 0.79877 0.77085
 C115 C 0.19598 0.76786 0.83011
 C116 C 0.17572 0.76097 0.94908
 C117 C 0.17462 0.72858 0.96662
 C118 C 0.19472 0.71659 0.86121
 N119 N 0.20788 0.74061 0.77814
 C120 C 0.20067 0.68385 0.84345
 C121 C 0.22664 0.67324 0.77964
 C122 C 0.23192 0.64287 0.72414
 C123 C 0.26014 0.64124 0.69076
 C124 C 0.27125 0.67074 0.72464
 N125 N 0.25068 0.69023 0.77679
 C126 C 0.30009 0.67831 0.71924
 H127 H 0.35557 0.70406 0.75510
 H128 H 0.35696 0.76590 0.70250
 H129 H 0.25338 0.71249 0.82750
 H130 H 0.27476 0.84443 0.46632
 H131 H 0.22091 0.84704 0.53296
 H132 H 0.16341 0.77747 1.01906
 H133 H 0.16106 0.71532 1.05012
 H134 H 0.27123 0.62060 0.64815
 H135 H 0.25496 0.76772 0.79705
 H136 H 0.21705 0.62366 0.71205
 O137 O 1.02849 -0.04118 0.05940
 O138 O 0.98066 0.02720 0.09778
 O139 O 0.97552 -0.03132 0.01508
 O140 O 1.03505 0.01801 0.14525
 O141 O 1.04156 0.03342 -0.11488
 O142 O 0.98452 -0.01882 -0.24636
 O143 O 0.98789 0.04001 -0.16504
 O144 O 1.03790 -0.02593 -0.19838
 Cu145 Cu 1.00429 -0.00802 0.10737
 Cu146 Cu 1.01396 0.00869 -0.20673
 C147 C 1.04108 -0.04524 -0.07701
 C148 C 0.97534 0.04460 -0.02905
 C149 C 0.97001 -0.03372 -0.13780
 C150 C 1.04834 0.03431 0.03660
 O151 O 0.48817 0.47088 0.30350
 O152 O 0.53787 0.53352 0.41968
 O153 O 0.54135 0.47263 0.36955
 O154 O 0.48458 0.53160 0.35172
 O155 O 0.47502 0.52158 0.61499
 O156 O 0.53294 0.46394 0.63519
 O157 O 0.52793 0.52478 0.68320
 O158 O 0.47919 0.46165 0.56814
 Cu159 Cu 0.51407 0.50317 0.33547
 Cu160 Cu 0.50295 0.49184 0.65161
 C161 C 0.47496 0.45579 0.41723
 C162 C 0.54114 0.54015 0.57067
 C163 C 0.54689 0.45821 0.50515
 C164 C 0.46986 0.53642 0.47983
 O165 O 0.01282 0.53104 -0.12561
 O166 O -0.03902 0.47009 -0.00381
 O167 O -0.04026 0.53053 -0.06993
 O168 O 0.01472 0.46972 -0.06991
 O169 O 0.02287 0.47688 0.19510
 O170 O -0.03059 0.54038 0.19100
 O171 O -0.03107 0.47884 0.25970
 O172 O 0.02285 0.53740 0.13816
 Cu173 Cu -0.01384 0.49917 -0.09143
 Cu174 Cu -0.00322 0.50909 0.22102
 C175 C 0.02665 0.54465 -0.01287
 C176 C -0.04424 0.46426 0.14747
 C177 C -0.04429 0.54652 0.05889
 C178 C 0.02838 0.46299 0.06119
 O179 O 0.46466 1.03360 0.66219
 O180 O 0.52507 0.97924 0.66122
 O181 O 0.51895 1.03902 0.60507
 O182 O 0.47203 0.97353 0.73369
 O183 O 0.46509 0.96415 0.46966
 O184 O 0.50988 1.03146 0.34093
 O185 O 0.51839 0.97205 0.39448
 O186 O 0.45671 1.02393 0.39947
 Cu187 Cu 0.49588 1.00753 0.69062
 Cu188 Cu 0.48646 0.99666 0.37658
 C189 C 0.45021 1.03785 0.53123
 C190 C 0.53258 0.96727 0.52552
 C191 C 0.52298 1.04595 0.45359
 C192 C 0.46047 0.95750 0.62122
 C193 C 1.16970 0.15861 0.17248
 C194 C 1.14706 0.13933 0.12708
 C195 C 1.12864 0.14971 -0.00020
 C196 C 1.13274 0.17952 -0.07683
 C197 C 1.15468 0.19903 -0.02700
 C198 C 1.17360 0.18873 0.09677
 C199 C 1.10609 0.13045 -0.04624
 C200 C 1.10102 0.10151 0.03780
 C201 C 1.11896 0.09153 0.16810
 C202 C 1.14219 0.11019 0.20958
 C203 C 1.11313 0.06322 0.25654
 C204 C 1.08966 0.04503 0.21674
 C205 C 1.07214 0.05439 0.08505
 C206 C 1.07803 0.08259 -0.00459
 H207 H 1.18370 0.15074 0.27085
 H208 H 1.11872 0.18792 -0.17359
 H209 H 1.15729 0.22208 -0.08768
 H210 H 1.09214 0.13833 -0.14458
 H211 H 1.15609 0.10238 0.30858
 H212 H 1.12668 0.05523 0.35662
 H213 H 1.08563 0.02312 0.28535
 H214 H 1.06450 0.09002 -0.10590
 C215 C 0.65729 0.67102 0.70073
 C216 C 0.63795 0.64804 0.65114
 C217 C 0.63907 0.63641 0.48850
 C218 C 0.65960 0.64797 0.37853
 C219 C 0.67893 0.67066 0.42954
 C220 C 0.67783 0.68227 0.59026
 C221 C 0.61969 0.61343 0.43848
 C222 C 0.59935 0.60175 0.54971
 C223 C 0.59835 0.61342 0.71227
 C224 C 0.61757 0.63650 0.76160
 C225 C 0.57827 0.60161 0.82403
 C226 C 0.55955 0.57808 0.77654
 C227 C 0.56051 0.56589 0.61640
 C228 C 0.58026 0.57822 0.50246
 H229 H 0.65658 0.67998 0.82507
 H230 H 0.66067 0.63947 0.25313
 H231 H 0.69473 0.67936 0.34356
 H232 H 0.62058 0.60447 0.31406
 H233 H 0.61670 0.64543 0.88608
 H234 H 0.57728 0.61029 0.94902
 H235 H 0.54433 0.56938 0.86634
 H236 H 0.58121 0.56909 0.37830
 C237 C -0.16434 0.33513 0.24318
 C238 C -0.14412 0.35827 0.20149
 C239 C -0.14153 0.36909 0.03536
 C240 C -0.15868 0.35610 -0.08631
 C241 C -0.17815 0.33249 -0.04463
 C242 C -0.18131 0.32203 0.12011
 C243 C -0.12167 0.39246 -0.00736
 C244 C -0.10390 0.40479 0.11328
 C245 C -0.10611 0.39359 0.27891
 C246 C -0.12628 0.37053 0.32222
 C247 C -0.08804 0.40561 0.39864
 C248 C -0.06807 0.42866 0.35557
 C249 C -0.06574 0.44013 0.19192
 C250 C -0.08379 0.42799 0.07083
 H251 H -0.16662 0.32686 0.37013
 H252 H -0.15679 0.36404 -0.21402
 H253 H -0.19093 0.32236 -0.14061
 H254 H -0.11990 0.40086 -0.13481
 H255 H -0.12796 0.36197 0.44936
 H256 H -0.08929 0.39697 0.52543
 H257 H -0.05410 0.43728 0.44976
 H258 H -0.08228 0.43660 -0.05612
 C259 C 0.34094 0.82829 0.71158
 C260 C 0.36208 0.85026 0.67010
 C261 C 0.36553 0.86036 0.50348
 C262 C 0.34846 0.84757 0.38103
 C263 C 0.32809 0.82497 0.42237
 C264 C 0.32389 0.81561 0.58778
 C265 C 0.38601 0.88300 0.46155
 C266 C 0.40342 0.89539 0.58359
 C267 C 0.40057 0.88468 0.74959
 C268 C 0.37984 0.86225 0.79201
 C269 C 0.41835 0.89684 0.87072
 C270 C 0.43825 0.92009 0.82878
 C271 C 0.44073 0.93150 0.66484
 C272 C 0.42345 0.91862 0.54236
 H273 H 0.33789 0.82075 0.83953
 H274 H 0.35105 0.85499 0.25315
 H275 H 0.31539 0.81490 0.32568
 H276 H 0.38837 0.89107 0.33426
 H277 H 0.37751 0.85418 0.91958
 H278 H 0.41667 0.88849 0.99795
 H279 H 0.45163 0.92928 0.92461
 H280 H 0.42510 0.92718 0.41542
 C281 C -0.15948 0.67737 -0.12723
 C282 C -0.14077 0.65168 -0.11233
 C283 C -0.14276 0.62635 -0.22335
 C284 C -0.16348 0.62687 -0.34558
 C285 C -0.18225 0.65213 -0.35814
 C286 C -0.18069 0.67763 -0.24903
 C287 C -0.12416 0.60070 -0.21032
 C288 C -0.10374 0.59976 -0.08613
 C289 C -0.10199 0.62469 0.02732
 C290 C -0.12039 0.65063 0.01289
 C291 C -0.08177 0.62326 0.15300
 C292 C -0.06340 0.59747 0.16586
 C293 C -0.06474 0.57284 0.05218
 C294 C -0.08501 0.57419 -0.07389
 H295 H -0.15827 0.69649 -0.04005
 H296 H -0.16526 0.60759 -0.43118
 H297 H -0.19806 0.65189 -0.45425
 H298 H -0.12564 0.58139 -0.29639
 H299 H -0.11895 0.66986 0.09932
 H300 H -0.08015 0.64209 0.24154
 H301 H -0.04775 0.59708 0.26272
 H302 H -0.08628 0.55530 -0.16239
 C303 C 0.32662 1.15997 0.39479
 C304 C 0.34757 1.13669 0.39181
 C305 C 0.35804 1.12638 0.23803
 C306 C 0.34716 1.13940 0.08993
 C307 C 0.32637 1.16272 0.09430
 C308 C 0.31603 1.17332 0.24643
 C309 C 0.37960 1.10376 0.23512
 C310 C 0.39107 1.09174 0.38415
 C311 C 0.38042 1.10196 0.53784
 C312 C 0.35860 1.12416 0.54053
 C313 C 0.39214 1.09029 0.68649
 C314 C 0.41468 1.06928 0.68303
 C315 C 0.42570 1.05924 0.53183
 C316 C 0.41347 1.07015 0.38215
 H317 H 0.31880 1.16813 0.51277
 H318 H 0.35506 1.13211 -0.02945
 H319 H 0.31881 1.17307 -0.02141
 H320 H 0.38782 1.09608 0.11710
 H321 H 0.35064 1.13214 0.65845
 H322 H 0.38425 1.09770 0.80591
 H323 H 0.42358 1.06090 0.79942
 H324 H 0.42173 1.06250 0.26399
 C325 C 1.15620 -0.17689 -0.20813
 C326 C 1.13907 -0.15033 -0.18147
 C327 C 1.15148 -0.12049 -0.15311
 C328 C 1.18066 -0.11789 -0.14665
 C329 C 1.19749 -0.14458 -0.16634
 C330 C 1.18576 -0.17453 -0.20083
 C331 C 1.13455 -0.09374 -0.12995
 C332 C 1.10527 -0.09660 -0.12906
 C333 C 1.09277 -0.12662 -0.15306
 C334 C 1.10973 -0.15317 -0.18190
 C335 C 1.06347 -0.12958 -0.14683
 C336 C 1.04673 -0.10305 -0.11781
 C337 C 1.05900 -0.07317 -0.09750
 C338 C 1.08824 -0.06995 -0.10365
 H339 H 1.14640 -0.19916 -0.23927
 H340 H 1.19054 -0.09525 -0.12379
 H341 H 1.21991 -0.14172 -0.15194
 H342 H 1.14420 -0.07077 -0.11125
 H343 H 1.10011 -0.17611 -0.20113
 H344 H 1.05351 -0.15233 -0.16552
 H345 H 1.02413 -0.10568 -0.11507
 H346 H 1.09766 -0.04681 -0.08706
 C347 C 0.66561 0.33014 0.38199
 C348 C 0.64361 0.35229 0.37913
 C349 C 0.62987 0.35970 0.22829
 C350 C 0.63798 0.34440 0.08379
 C351 C 0.65963 0.32208 0.08834
 C352 C 0.67368 0.31501 0.23678
 C353 C 0.60821 0.38218 0.22414
 C354 C 0.60000 0.39725 0.36918
 C355 C 0.61327 0.38932 0.52108
 C356 C 0.63506 0.36696 0.52496
 C357 C 0.60445 0.40390 0.66654
 C358 C 0.58266 0.42607 0.66138
 C359 C 0.56970 0.43450 0.51074
 C360 C 0.57859 0.42004 0.36487
 H361 H 0.67634 0.32447 0.49745
 H362 H 0.62752 0.34965 -0.03263
 H363 H 0.66559 0.31035 -0.02409
 H364 H 0.59773 0.38792 0.10806
 H365 H 0.64520 0.36081 0.64154
 H366 H 0.61433 0.39817 0.78453
 H367 H 0.57615 0.43694 0.77527
 H368 H 0.56856 0.42626 0.24846
 C369 C 0.83974 -0.14652 -0.27288
 C370 C 0.86148 -0.12609 -0.22553
 C371 C 0.86459 -0.11852 -0.05692
 C372 C 0.84650 -0.13199 0.06170
 C373 C 0.82565 -0.15307 0.01436
 C374 C 0.82193 -0.16031 -0.15249
 C375 C 0.88603 -0.09807 -0.00856
 C376 C 0.90505 -0.08572 -0.12487
 C377 C 0.90229 -0.09349 -0.29321
 C378 C 0.88041 -0.11349 -0.34292
 C379 C 0.92168 -0.08131 -0.40838
 C380 C 0.94358 -0.06182 -0.35689
 C381 C 0.94654 -0.05409 -0.18991
 C382 C 0.92706 -0.06607 -0.07415
 H383 H 0.83699 -0.15225 -0.40212
 H384 H 0.84878 -0.12667 0.19164
 H385 H 0.81220 -0.16372 0.10841
 H386 H 0.88816 -0.09207 0.12028
 H387 H 0.87842 -0.11964 -0.47193
 H388 H 0.92004 -0.08705 -0.53786
 H389 H 0.95850 -0.05299 -0.44728
 H390 H 0.92903 -0.06024 0.05543
 C391 C 0.34778 0.33862 0.29536
 C392 C 0.36874 0.36012 0.34118
 C393 C 0.36563 0.37741 0.48801
 C394 C 0.34156 0.37310 0.58557
 C395 C 0.32074 0.35183 0.53853
 C396 C 0.32384 0.33427 0.39449
 C397 C 0.38645 0.39900 0.53408
 C398 C 0.41022 0.40377 0.43439
 C399 C 0.41324 0.38664 0.28717
 C400 C 0.39263 0.36470 0.24235
 C401 C 0.43666 0.39208 0.18571
 C402 C 0.45671 0.41466 0.22771
 C403 C 0.45407 0.43153 0.37461
 C404 C 0.43087 0.42575 0.47848
 H405 H 0.35002 0.32521 0.18331
 H406 H 0.33875 0.38643 0.69726
 H407 H 0.30215 0.34893 0.61460
 H408 H 0.38401 0.41226 0.64663
 H409 H 0.39503 0.35140 0.13010
 H410 H 0.43919 0.37923 0.07222
 H411 H 0.47454 0.41862 0.14723
 H412 H 0.42846 0.43900 0.59088
 C413 C 0.15242 0.66361 -0.15893
 C414 C 0.13261 0.64034 -0.11344
 C415 C 0.14041 0.61498 -0.00553
 C416 C 0.16816 0.61263 0.04984
 C417 C 0.18805 0.63510 -0.00163
 C418 C 0.18043 0.66103 -0.10541
 C419 C 0.12050 0.59204 0.04264
 C420 C 0.09330 0.59316 -0.02318
 C421 C 0.08590 0.61769 -0.13736
 C422 C 0.10537 0.64154 -0.17846
 C423 C 0.05927 0.61765 -0.21077
 C424 C 0.04016 0.59345 -0.17209
 C425 C 0.04713 0.56948 -0.05619
 C426 C 0.07355 0.56969 0.02032
 H427 H 0.14635 0.68295 -0.24213
 H428 H 0.17458 0.59318 0.13134
 H429 H 0.20935 0.63265 0.04350
 H430 H 0.12639 0.57285 0.12762
 H431 H 0.09956 0.66057 -0.26421
 H432 H 0.05340 0.63608 -0.29976
 H433 H 0.01972 0.59372 -0.23058
 H434 H 0.07894 0.55114 0.11010
 C435 C 0.65580 1.15336 0.28120
 C436 C 0.63482 1.13150 0.32708
 C437 C 0.64027 1.10842 0.45251
 C438 C 0.66703 1.10662 0.52395
 C439 C 0.68788 1.12837 0.47701
 C440 C 0.68222 1.15274 0.35959
 C441 C 0.61884 1.08776 0.50565
 C442 C 0.59214 1.08956 0.43309
 C443 C 0.58702 1.11181 0.30290
 C444 C 0.60834 1.13279 0.25147
 C445 C 0.56059 1.11273 0.22685
 C446 C 0.53953 1.09157 0.27777
 C447 C 0.54430 1.06982 0.40842
 C448 C 0.57054 1.06918 0.48748
 H449 H 0.65148 1.17123 0.18578
 H450 H 0.67165 1.08878 0.61844
 H451 H 0.70795 1.12723 0.53986
 H452 H 0.62291 1.07043 0.60411
 H453 H 0.60427 1.15025 0.15363
 H454 H 0.55639 1.12946 0.12612
 H455 H 0.51951 1.09205 0.21447
 H456 H 0.57448 1.05197 0.58665
 C457 C 0.16065 0.35081 0.13433
 C458 C 0.13887 0.37296 0.14432
 C459 C 0.13725 0.39302 0.28192
 C460 C 0.15777 0.39072 0.40630
 C461 C 0.17916 0.36809 0.39652
 C462 C 0.18049 0.34767 0.26181
 C463 C 0.11489 0.41455 0.29411
 C464 C 0.09413 0.41607 0.17066
 C465 C 0.09596 0.39601 0.03308
 C466 C 0.11831 0.37467 0.02079
 C467 C 0.07540 0.39758 -0.09047
 C468 C 0.05332 0.41910 -0.07951
 C469 C 0.05118 0.43924 0.05594
 C470 C 0.07160 0.43742 0.18159
 H471 H 0.16174 0.33519 0.02978
 H472 H 0.15692 0.40595 0.51251
 H473 H 0.19430 0.36598 0.49591
 H474 H 0.11347 0.42986 0.39978
 H475 H 0.11954 0.35913 -0.08392
 H476 H 0.07650 0.38231 -0.19619
 H477 H 0.03793 0.42008 -0.17793
 H478 H 0.07024 0.45305 0.28571
 C479 C 0.66785 0.86130 0.63452
 C480 C 0.64383 0.88040 0.64215
 C481 C 0.62843 0.88158 0.79164
 C482 C 0.63747 0.86390 0.93066
 C483 C 0.66092 0.84425 0.92000
 C484 C 0.67595 0.84260 0.77184
 C485 C 0.60379 0.89959 0.79861
 C486 C 0.59397 0.91578 0.65682
 C487 C 0.60929 0.91450 0.50746
 C488 C 0.63440 0.89728 0.50151
 C489 C 0.59909 0.93030 0.36591
 C490 C 0.57379 0.94690 0.37108
 C491 C 0.55854 0.94845 0.51903
 C492 C 0.56891 0.93310 0.66205
 H493 H 0.67946 0.85971 0.51972
 H494 H 0.62581 0.86439 1.04558
 H495 H 0.66694 0.82954 1.02553
 H496 H 0.59191 0.90040 0.91309
 H497 H 0.64625 0.89645 0.38714
 H498 H 0.61074 0.92976 0.25143
 H499 H 0.56642 0.95913 0.26017
 H500 H 0.55742 0.93447 0.77767
 C501 C 0.84510 0.15753 0.10293
 C502 C 0.86753 0.13591 0.10436
 C503 C 0.87087 0.11445 0.24000
 C504 C 0.85166 0.11486 0.37119
 C505 C 0.82958 0.13663 0.36944
 C506 C 0.82628 0.15831 0.23680
 C507 C 0.89339 0.09302 0.24310
 C508 C 0.91265 0.09269 0.11214
 C509 C 0.90931 0.11415 -0.02344
 C510 C 0.88683 0.13564 -0.02639
 C511 C 0.92839 0.11356 -0.15489
 C512 C 0.95025 0.09152 -0.15401
 C513 C 0.95364 0.06974 -0.02111
 C514 C 0.93492 0.07084 0.11317
 H515 H 0.84241 0.17410 -0.00044
 H516 H 0.85392 0.09855 0.47601
 H517 H 0.81516 0.13689 0.47277
 H518 H 0.89595 0.07662 0.34744
 H519 H 0.88430 0.15214 -0.13016
 H520 H 0.92611 0.12983 -0.25980
 H521 H 0.96429 0.09126 -0.25916
 H522 H 0.93713 0.05402 0.21561
 C523 C 0.33989 0.65029 0.58257
 C524 C 0.36116 0.62733 0.58477
 C525 C 0.36327 0.60560 0.71998
 C526 C 0.34388 0.60705 0.84988
 C527 C 0.32298 0.63028 0.84782
 C528 C 0.32097 0.65217 0.71481
 C529 C 0.38492 0.58309 0.72416
 C530 C 0.40459 0.58221 0.59541
 C531 C 0.40229 0.60373 0.45940
 C532 C 0.38058 0.62613 0.45494
 C533 C 0.42195 0.60273 0.33083
 C534 C 0.44382 0.58070 0.33691
 C535 C 0.44647 0.55938 0.47205
 C536 C 0.42667 0.56024 0.60084
 H537 H 0.33831 0.66722 0.48001
 H538 H 0.34522 0.59054 0.95418
 H539 H 0.30862 0.63157 0.95113
 H540 H 0.38667 0.56649 0.82807
 H541 H 0.37896 0.64288 0.35159
 H542 H 0.42048 0.61914 0.22601
 H543 H 0.45893 0.58066 0.23705
 H544 H 0.42846 0.54382 0.70548
   
