data_POSCAR
  _audit_creation_date              2014-09-24
  _audit_creation_method            'ToBaCCo'
  _symmetry_space_group_name_H-M    'P1'
  _symmetry_Int_Tables_number       1
  _symmetry_cell_setting            triclinic
  loop_
  _symmetry_equiv_pos_as_xyz
 x,y,z
_cell_length_a 19.9190
_cell_length_b 19.8775
_cell_length_c 19.9415
_cell_angle_alpha 90.226400
_cell_angle_beta 90.277100
_cell_angle_gamma 89.781900
loop_
  _atom_site_label
  _atom_site_type_symbol
  _atom_site_fract_x
  _atom_site_fract_y
  _atom_site_fract_z
N1 N 0.20307 0.20416 0.20282
 N2 N -0.19869 0.79947 0.20294
 N3 N -0.20603 0.19978 -0.20249
 N4 N 0.20214 0.79524 -0.20240
 N5 N 0.20223 1.20035 0.80185
 N6 N 0.79844 0.80026 0.79511
 N7 N 0.20111 0.79639 1.20229
 N8 N 0.79765 1.20263 1.20216
 O9 O 0.40533 1.11937 1.11991
 O10 O 0.33073 1.05606 1.05837
 C11 C 0.34508 1.10185 1.10256
 O12 O 0.59153 1.11472 0.87861
 O13 O 0.66677 1.05470 0.94277
 C14 C 0.65198 1.09792 0.89645
 O15 O 0.40326 1.11971 0.88443
 O16 O 0.32966 1.05562 0.94525
 C17 C 0.34321 1.10182 0.90163
 O18 O 0.59339 1.11436 1.12460
 O19 O 0.66770 1.05542 1.05872
 C20 C 0.65363 1.09828 1.10581
 Zr21 Zr 0.49939 1.08425 1.08513
 O22 O 0.50549 1.19035 1.07718
 O23 O 0.49732 1.09456 1.19062
 Zr24 Zr 0.49790 1.08258 0.91631
 O25 O 0.50426 1.18887 0.91612
 O26 O 0.48997 1.08144 0.81039
 O27 O 0.43825 1.09640 1.00096
 O28 O 0.55718 1.09576 1.00059
 O29 O 0.59497 0.88194 1.12324
 O30 O 0.66836 0.94269 1.05899
 C31 C 0.65493 0.89927 1.10527
 O32 O 0.40547 0.87436 0.88492
 O33 O 0.33109 0.93927 0.94487
 C34 C 0.34528 0.89245 0.90174
 O35 O 0.59339 0.88066 0.87926
 O36 O 0.66772 0.94202 0.94306
 C37 C 0.65365 0.89821 0.89680
 O38 O 0.40639 0.87667 1.11918
 O39 O 0.33130 0.94011 1.05829
 C40 C 0.34589 0.89425 1.10207
 Zr41 Zr 0.50024 0.91382 1.08627
 O42 O 0.50777 0.80754 1.08571
 O43 O 0.49478 0.91419 1.19229
 Zr44 Zr 0.49919 0.91265 0.91694
 O45 O 0.50715 0.80641 0.91761
 O46 O 0.49123 0.91220 0.81102
 Zr47 Zr 0.39891 0.99799 1.00166
 Zr48 Zr 0.59921 0.99846 1.00105
 O49 O 0.55812 0.90107 1.00150
 O50 O 0.43968 0.89989 1.00180
 O51 O 0.55956 0.99922 1.09901
 O52 O 0.44011 0.99736 0.90459
 O53 O 0.44182 0.99894 1.09840
 O54 O 0.55842 0.99769 0.90326
 H55 H 0.58746 1.13519 1.00057
 H56 H 0.40975 0.99706 0.86509
 H57 H 0.58859 0.86155 1.00142
 H58 H 0.41215 0.99881 1.13812
 H59 H 0.52786 1.05436 0.79296
 H60 H 0.52862 0.93943 0.79340
 H61 H 0.47000 0.78904 0.94525
 H62 H 0.46910 0.78991 1.05988
 H63 H 0.53294 0.94111 1.20941
 H64 H 0.49372 1.04876 1.20917
 H65 H 0.46169 1.20716 1.06050
 H66 H 0.46733 1.20637 0.94430
 O67 O 0.11914 0.40282 -0.11955
 O68 O 0.05623 0.32908 -0.05776
 C69 C 0.10192 0.34263 -0.10174
 O70 O 0.11533 0.59326 0.12050
 O71 O 0.05530 0.66782 0.05566
 C72 C 0.09859 0.65362 0.10233
 O73 O 0.11997 0.40487 0.11583
 O74 O 0.05568 0.33008 0.05538
 C75 C 0.10189 0.34452 0.09909
 O76 O 0.11381 0.59153 -0.12545
 O77 O 0.05532 0.66700 -0.06023
 C78 C 0.09792 0.65215 -0.10696
 Zr79 Zr 0.08388 0.49783 -0.08582
 O80 O 0.18982 0.50415 -0.07787
 O81 O 0.09337 0.49387 -0.19126
 Zr82 Zr 0.08293 0.49896 0.08313
 O83 O 0.18900 0.50527 0.08381
 O84 O 0.08219 0.49260 0.18909
 O85 O 0.09641 0.43793 -0.00113
 O86 O 0.09582 0.55699 -0.00150
 O87 O -0.11867 0.59321 -0.12509
 O88 O -0.05819 0.66752 -0.06053
 C89 C -0.10160 0.65357 -0.10709
 O90 O -0.12432 0.40656 0.11472
 O91 O -0.06059 0.33130 0.05454
 C92 C -0.10661 0.34599 0.09800
 O93 O -0.11800 0.59496 0.11882
 O94 O -0.05718 0.66871 0.05485
 C95 C -0.10060 0.65508 0.10102
 O96 O -0.12369 0.40446 -0.11946
 O97 O -0.05971 0.32986 -0.05848
 C98 C -0.10606 0.34408 -0.10208
 Zr99 Zr -0.08609 0.49889 -0.08757
 O100 O -0.19214 0.50646 -0.08818
 O101 O -0.08561 0.49166 -0.19354
 Zr102 Zr -0.08654 0.50008 0.08177
 O103 O -0.19258 0.50799 0.08004
 O104 O -0.08706 0.49378 0.18773
 Zr105 Zr -0.00177 0.39846 -0.00202
 Zr106 Zr -0.00121 0.59925 -0.00252
 O107 O -0.09840 0.55798 -0.00311
 O108 O -0.09965 0.43935 -0.00283
 O109 O -0.00095 0.55816 -0.10032
 O110 O -0.00200 0.44114 0.09481
 O111 O -0.00129 0.43997 -0.09904
 O112 O -0.00167 0.55974 0.09548
 H113 H 0.13520 0.58730 -0.00141
 H114 H -0.00219 0.41137 0.13455
 H115 H -0.13793 0.58839 -0.00329
 H116 H -0.00152 0.40953 -0.13849
 H117 H 0.05546 0.53096 0.20620
 H118 H -0.05908 0.53094 0.20530
 H119 H -0.21001 0.46941 0.05388
 H120 H -0.20967 0.46918 -0.06071
 H121 H -0.06014 0.53054 -0.21080
 H122 H 0.04743 0.49180 -0.20987
 H123 H 0.20668 0.46083 -0.06009
 H124 H 0.20633 0.46788 0.05589
 O125 O 0.88443 0.12463 0.40697
 O126 O 0.94617 0.06129 0.33283
 C127 C 0.90186 0.10706 0.34683
 O128 O 1.12545 0.11954 0.59696
 O129 O 1.06020 0.05954 0.67002
 C130 C 1.10696 0.10264 0.65687
 O131 O 1.12087 0.12513 0.40884
 O132 O 1.06095 0.06067 0.33388
 C133 C 1.10418 0.10705 0.34847
 O134 O 0.87872 0.11758 0.59478
 O135 O 0.94451 0.05863 0.66946
 C136 C 0.89705 0.10106 0.65503
 Zr137 Zr 0.91908 0.08895 0.50100
 O138 O 0.92705 0.19498 0.50889
 O139 O 0.81355 0.09935 0.49675
 Zr140 Zr 1.08814 0.08752 0.50236
 O141 O 1.08781 0.19378 0.51003
 O142 O 1.19422 0.08642 0.49620
 O143 O 1.00373 0.10152 0.44143
 O144 O 1.00331 0.10015 0.56035
 O145 O 0.88074 -0.11420 0.59330
 O146 O 0.94443 -0.05385 0.66852
 C147 C 0.89828 -0.09732 0.65372
 O148 O 1.11988 -0.12002 0.40698
 O149 O 1.05962 -0.05515 0.33269
 C150 C 1.10292 -0.10191 0.34679
 O151 O 1.12435 -0.11554 0.59514
 O152 O 1.06020 -0.05464 0.66946
 C153 C 1.10620 -0.09869 0.65527
 O154 O 0.88611 -0.11826 0.40547
 O155 O 0.94685 -0.05418 0.33185
 C156 C 0.90328 -0.10035 0.34554
 Zr157 Zr 0.91823 -0.08137 0.49986
 O158 O 0.91830 -0.18770 0.50599
 O159 O 0.81211 -0.08084 0.49264
 Zr160 Zr 1.08769 -0.08245 0.50110
 O161 O 1.08773 -0.18875 0.50729
 O162 O 1.19378 -0.08227 0.49487
 Zr163 Zr 1.00328 0.00328 0.40092
 Zr164 Zr 1.00281 0.00257 0.60108
 O165 O 1.00275 -0.09450 0.55857
 O166 O 1.00304 -0.09500 0.44042
 O167 O 0.90498 0.00361 0.55990
 O168 O 1.10026 0.00259 0.44355
 O169 O 0.90622 0.00393 0.44235
 O170 O 1.10096 0.00221 0.56186
 H171 H 1.00295 0.13938 0.59115
 H172 H 1.13996 0.00230 0.41382
 H173 H 1.00252 -0.13436 0.58824
 H174 H 0.86647 0.00387 0.41230
 H175 H 1.21136 0.05889 0.53382
 H176 H 1.21110 -0.05627 0.53360
 H177 H 1.05988 -0.20596 0.46983
 H178 H 0.94531 -0.20518 0.46821
 H179 H 0.79463 -0.05519 0.53149
 H180 H 0.79494 0.05340 0.49673
 H181 H 0.94356 0.21213 0.46549
 H182 H 1.06004 0.21133 0.47270
 C183 C 1.16723 0.16925 0.25077
 C184 C 1.13738 0.14017 0.29431
 C185 C 0.83884 -0.16404 0.24891
 C186 C 0.86988 -0.13379 0.29126
 C187 C 0.83122 0.16348 0.75129
 C188 C 0.86228 0.13348 0.70892
 C189 C 1.16743 -0.16578 0.75152
 C190 C 1.13859 -0.13346 0.70923
 C191 C 0.24899 1.16636 1.16666
 C192 C 0.29118 1.13547 1.13619
 C193 C 0.24857 0.82985 0.83635
 C194 C 0.29115 0.85909 0.86801
 C195 C 0.75349 0.83604 1.16771
 C196 C 0.70984 0.86629 1.13839
 C197 C 0.74792 1.16248 0.83337
 C198 C 0.70568 1.13151 0.86311
 C199 C 0.16586 0.24917 0.16491
 C200 C 0.13528 0.29075 0.13326
 C201 C -0.17012 0.24672 -0.16546
 C202 C -0.14001 0.28969 -0.13504
 C203 C 0.16371 0.74868 -0.16829
 C204 C 0.13202 0.70605 -0.13974
 C205 C -0.16287 0.75272 0.16568
 C206 C -0.13310 0.70977 0.13492
 C207 C 1.16904 0.16590 0.75616
 C208 C 1.13990 0.13573 0.71211
 C209 C 0.83463 -0.16214 0.74943
 C210 C 0.86468 -0.13102 0.70738
 C211 C 1.16554 -0.16650 0.24938
 C212 C 1.13580 -0.13593 0.29244
 C213 C 0.83597 0.16835 0.24930
 C214 C 0.86755 0.13966 0.29241
 C215 C 0.16676 0.24468 -0.16423
 C216 C 0.13584 0.28774 -0.13442
 C217 C -0.16801 0.24923 0.16383
 C218 C -0.13932 0.29192 0.13219
 C219 C -0.16506 0.75219 -0.16973
 C220 C -0.13484 0.70840 -0.14042
 C221 C 0.16349 0.75026 0.16596
 C222 C 0.13231 0.70784 0.13585
 C223 C 0.24597 1.16571 0.83731
 C224 C 0.28857 1.13536 0.86830
 C225 C 0.24846 0.83172 1.16584
 C226 C 0.29168 0.86105 1.13552
 C227 C 0.75083 1.16409 1.16769
 C228 C 0.70795 1.13237 1.13881
 C229 C 0.75125 0.83589 0.83207
 C230 C 0.70811 0.86553 0.86267
   
