data_POSCAR
  _audit_creation_date              2014-09-24
  _audit_creation_method            'ToBaCCo'
  _symmetry_space_group_name_H-M    'P1'
  _symmetry_Int_Tables_number       1
  _symmetry_cell_setting            triclinic
  loop_
  _symmetry_equiv_pos_as_xyz
 x,y,z
_cell_length_a 42.9189
_cell_length_b 10.5473
_cell_length_c 17.0256
_cell_angle_alpha 89.663000
_cell_angle_beta 88.911800
_cell_angle_gamma 98.465700
loop_
  _atom_site_label
  _atom_site_type_symbol
  _atom_site_fract_x
  _atom_site_fract_y
  _atom_site_fract_z
C1 C 0.72413 0.27685 0.49988
 C2 C 0.72624 0.26182 0.41689
 C3 C 0.75546 0.27719 0.37812
 C4 C 0.78364 0.29088 0.41922
 C5 C 0.78162 0.27318 0.50295
 C6 C 0.75218 0.27688 0.54156
 H7 H 0.75085 0.27598 0.60456
 H8 H 0.75585 0.28038 0.31455
 C9 C 0.22002 0.77040 0.52835
 C10 C 0.22828 0.81127 0.45047
 C11 C 0.25816 0.79513 0.41965
 C12 C 0.28013 0.73667 0.46382
 C13 C 0.27240 0.70121 0.54400
 C14 C 0.24270 0.72454 0.57383
 H15 H 0.23651 0.70630 0.63499
 H16 H 0.26371 0.82131 0.35875
 C17 C 0.25819 0.24889 -0.54015
 C18 C 0.24690 0.22655 -0.46277
 C19 C 0.21868 0.26863 -0.43998
 C20 C 0.19972 0.32386 -0.49476
 C21 C 0.21028 0.33229 -0.57598
 C22 C 0.23913 0.29191 -0.59581
 H23 H 0.24847 0.30443 -0.65525
 H24 H 0.21050 0.24759 -0.38014
 C25 C -0.24425 0.76205 -0.56623
 C26 C -0.24912 0.75464 -0.48481
 C27 C -0.27905 0.77018 -0.45541
 C28 C -0.30530 0.77698 -0.50551
 C29 C -0.30082 0.76834 -0.58970
 C30 C -0.26878 0.78189 -0.61499
 H31 H -0.26197 0.80519 -0.67549
 H32 H -0.28244 0.76909 -0.39207
 O33 O -0.02863 0.91810 0.13839
 O34 O 0.01269 0.82468 -0.12977
 O35 O -0.06235 0.85276 -0.09883
 O36 O 0.04851 0.94113 0.08369
 O37 O -0.03517 0.89947 -0.21313
 O38 O 0.02912 1.06130 0.17903
 O39 O 0.05788 0.93942 -0.08743
 O40 O -0.07194 0.93646 0.06087
 C41 C -0.06057 0.90065 0.12387
 C42 C 0.04464 0.85300 -0.13090
 C43 C -0.06098 0.84992 -0.18061
 C44 C 0.05062 0.99563 0.15778
 O45 O 0.03766 1.19090 0.05851
 O46 O -0.03723 1.09882 -0.13378
 O47 O -0.05063 1.16404 0.02764
 O48 O 0.03926 1.15858 -0.09388
 O49 O 0.01500 1.03820 -0.18458
 O50 O -0.01884 1.15109 0.12889
 O51 O 0.07756 1.11026 0.00248
 O52 O -0.08410 1.05096 -0.07030
 Co53 Co 0.00794 1.04190 0.09297
 Co54 Co -0.01621 0.95130 -0.12437
 Co55 Co -0.05140 1.00574 -0.02548
 Co56 Co 0.04027 1.03373 -0.01637
 O57 O -0.00510 0.99020 -0.01643
 C58 C 0.06791 1.19777 0.04363
 C59 C -0.06724 1.10729 -0.12754
 C60 C -0.04194 1.19370 0.09704
 C61 C 0.03289 1.13808 -0.16507
 O62 O 0.46325 0.31509 0.16111
 O63 O 0.51270 0.23776 -0.15780
 O64 O 0.42875 0.23965 -0.12660
 O65 O 0.54613 0.32241 0.05675
 O66 O 0.45987 0.30198 -0.22949
 O67 O 0.51801 0.35287 0.16655
 O68 O 0.55781 0.30430 -0.08871
 O69 O 0.42845 0.19319 0.09115
 C70 C 0.43941 0.22323 0.15851
 C71 C 0.54568 0.26112 -0.15275
 C72 C 0.43346 0.24699 -0.20189
 C73 C 0.54319 0.32797 0.13324
 O74 O 0.50717 0.52466 0.08980
 O75 O 0.45026 0.47485 -0.13711
 O76 O 0.42037 0.39424 0.03171
 O77 O 0.53456 0.49567 -0.08070
 O78 O 0.50562 0.45879 -0.18575
 O79 O 0.45908 0.43530 0.12501
 O80 O 0.53698 0.50506 -0.01521
 O81 O 0.41627 0.39962 -0.03958
 Co82 Co 0.49523 0.35150 0.08498
 Co83 Co 0.47644 0.34361 -0.13774
 Co84 Co 0.43457 0.25116 -0.01615
 Co85 Co 0.52324 0.32742 -0.03884
 O86 O 0.47986 0.34389 -0.02100
 C87 C 0.53182 0.56534 0.05060
 C88 C 0.42382 0.47609 -0.10071
 C89 C 0.43086 0.45091 0.09681
 C90 C 0.52862 0.52270 -0.15335
 C91 C 0.32800 0.15367 0.35060
 C92 C 0.35227 0.21412 0.39469
 C93 C 0.34744 0.28971 0.45910
 C94 C 0.31629 0.30162 0.47956
 C95 C 0.29090 0.23620 0.43660
 C96 C 0.29687 0.16143 0.37112
 O97 O 0.33770 0.10341 0.28505
 C98 C 0.36875 0.13294 0.28759
 C99 C 0.37887 0.19890 0.35416
 C100 C 0.41000 0.25245 0.36475
 C101 C 0.43124 0.24433 0.30230
 C102 C 0.42075 0.18672 0.23048
 C103 C 0.38951 0.12330 0.22492
 H104 H 0.36694 0.34140 0.49060
 H105 H 0.31185 0.36265 0.52821
 H106 H 0.27787 0.11386 0.33611
 H107 H 0.41724 0.30616 0.41695
 H108 H 0.45509 0.29362 0.30739
 H109 H 0.38055 0.08248 0.17013
 C110 C -0.16071 0.80396 0.35505
 C111 C -0.16263 0.70038 0.30557
 C112 C -0.18985 0.61269 0.29795
 C113 C -0.21608 0.63132 0.34385
 C114 C -0.21477 0.73753 0.39490
 C115 C -0.18658 0.82396 0.40176
 O116 O -0.13418 0.88513 0.34517
 C117 C -0.11912 0.83155 0.28834
 C118 C -0.13548 0.71764 0.26267
 C119 C -0.12609 0.65276 0.19759
 C120 C -0.09919 0.70933 0.15577
 C121 C -0.08263 0.82841 0.17955
 C122 C -0.09209 0.88891 0.24783
 H123 H -0.19115 0.53520 0.25624
 H124 H -0.23782 0.56566 0.33797
 H125 H -0.18554 0.90747 0.43863
 H126 H -0.13996 0.56563 0.17713
 H127 H -0.09235 0.66475 0.10222
 H128 H -0.08064 0.98324 0.26422
 C129 C 0.62467 0.75324 0.28473
 C130 C 0.63839 0.73365 0.21341
 C131 C 0.66858 0.70579 0.20580
 C132 C 0.68611 0.70496 0.27350
 C133 C 0.67592 0.74947 0.34818
 C134 C 0.64337 0.76875 0.35329
 O135 O 0.59334 0.74761 0.27934
 C136 C 0.58791 0.72624 0.20271
 C137 C 0.61519 0.72298 0.16021
 C138 C 0.61602 0.69978 0.08020
 C139 C 0.58739 0.66973 0.04222
 C140 C 0.55830 0.65533 0.08479
 C141 C 0.55853 0.69036 0.16614
 H142 H 0.67761 0.67563 0.15024
 H143 H 0.70783 0.66548 0.26606
 H144 H 0.63275 0.79879 0.40627
 H145 H 0.63809 0.69849 0.04857
 H146 H 0.58839 0.64260 -0.01881
 H147 H 0.53703 0.67698 0.20137
 C148 C 0.17366 1.35120 0.23039
 C149 C 0.15420 1.44153 0.24454
 C150 C 0.15596 1.51340 0.31315
 C151 C 0.17758 1.48619 0.36991
 C152 C 0.19434 1.38099 0.36097
 C153 C 0.19365 1.31872 0.28737
 O154 O 0.16672 1.28338 0.16669
 C155 C 0.14175 1.32839 0.14057
 C156 C 0.13255 1.42420 0.18628
 C157 C 0.10300 1.46311 0.17907
 C158 C 0.08194 1.39626 0.12565
 C159 C 0.09116 1.29523 0.08010
 C160 C 0.12220 1.26751 0.08460
 H161 H 0.14061 1.58451 0.32380
 H162 H 0.17981 1.53905 0.42362
 H163 H 0.20523 1.23551 0.27736
 H164 H 0.09543 1.53391 0.21800
 H165 H 0.05797 1.41676 0.12399
 H166 H 0.12960 1.18684 0.05407
 C167 C 0.65829 0.24723 -0.34792
 C168 C 0.63453 0.27957 -0.39323
 C169 C 0.63987 0.33035 -0.46826
 C170 C 0.67060 0.34137 -0.49937
 C171 C 0.69487 0.28818 -0.45992
 C172 C 0.68856 0.24713 -0.38022
 O173 O 0.64893 0.21683 -0.27435
 C174 C 0.61843 0.22776 -0.27415
 C175 C 0.60830 0.26162 -0.34633
 C176 C 0.57702 0.27244 -0.36064
 C177 C 0.55557 0.25415 -0.29689
 C178 C 0.56614 0.23580 -0.21993
 C179 C 0.59785 0.21723 -0.20884
 H180 H 0.62129 0.36486 -0.50065
 H181 H 0.67518 0.39108 -0.55496
 H182 H 0.70561 0.20890 -0.34468
 H183 H 0.56948 0.29601 -0.41856
 H184 H 0.53127 0.26572 -0.30647
 H185 H 0.60657 0.20176 -0.15083
 C186 C 0.15466 0.78900 -0.31989
 C187 C 0.12857 0.73590 -0.36029
 C188 C 0.13017 0.70393 -0.43908
 C189 C 0.15995 0.72261 -0.47655
 C190 C 0.18772 0.76948 -0.43503
 C191 C 0.18449 0.80720 -0.35580
 O192 O 0.14789 0.82257 -0.24738
 C193 C 0.11688 0.78964 -0.24179
 C194 C 0.10381 0.73504 -0.30889
 C195 C 0.07141 0.69973 -0.31650
 C196 C 0.05167 0.72767 -0.25383
 C197 C 0.06465 0.79051 -0.18585
 C198 C 0.09784 0.81699 -0.17901
 H199 H 0.10921 0.66733 -0.47093
 H200 H 0.16095 0.70190 -0.53811
 H201 H 0.20465 0.84962 -0.32277
 H202 H 0.06162 0.65731 -0.37003
 H203 H 0.02639 0.70828 -0.26059
 H204 H 0.10861 0.86704 -0.12875
 C205 C 0.34175 0.64594 -0.33378
 C206 C 0.32504 0.59410 -0.26889
 C207 C 0.29317 0.55025 -0.26970
 C208 C 0.27724 0.56926 -0.33828
 C209 C 0.29208 0.64538 -0.40225
 C210 C 0.32569 0.67624 -0.40165
 O211 O 0.37282 0.66349 -0.32223
 C212 C 0.37521 0.62393 -0.24802
 C213 C 0.34638 0.58572 -0.21252
 C214 C 0.34262 0.54440 -0.13498
 C215 C 0.36976 0.53189 -0.09335
 C216 C 0.39987 0.55146 -0.13129
 C217 C 0.40283 0.60592 -0.20858
 H218 H 0.28105 0.49962 -0.21986
 H219 H 0.25261 0.52804 -0.33965
 H220 H 0.33875 0.73109 -0.44815
 H221 H 0.31947 0.51814 -0.10822
 H222 H 0.36675 0.49237 -0.03440
 H223 H 0.42530 0.62074 -0.23977
 C224 C -0.16212 1.24391 -0.33500
 C225 C -0.13877 1.19776 -0.37713
 C226 C -0.14211 1.15706 -0.45387
 C227 C -0.17007 1.17250 -0.49049
 C228 C -0.19278 1.23978 -0.45335
 C229 C -0.18925 1.26861 -0.37193
 O230 O -0.15563 1.26027 -0.25941
 C231 C -0.12721 1.22570 -0.25464
 C232 C -0.11560 1.19133 -0.32601
 C233 C -0.08616 1.15518 -0.33637
 C234 C -0.06848 1.14683 -0.26942
 C235 C -0.08147 1.16527 -0.19365
 C236 C -0.11076 1.21060 -0.18607
 H237 H -0.12430 1.11134 -0.48371
 H238 H -0.17348 1.13367 -0.54878
 H239 H -0.20559 1.31646 -0.33839
 H240 H -0.07745 1.13101 -0.39362
 H241 H -0.04596 1.11339 -0.27650
 H242 H -0.12126 1.22446 -0.12902
 C243 C 0.61693 0.69987 -0.40547
 C244 C 0.62004 0.79435 -0.34935
 C245 C 0.64492 0.89424 -0.35031
 C246 C 0.66796 0.89479 -0.40974
 C247 C 0.66655 0.79420 -0.46585
 C248 C 0.64022 0.69596 -0.46380
 O249 O 0.59259 0.60945 -0.39107
 C250 C 0.58057 0.64645 -0.32403
 C251 C 0.59677 0.75751 -0.29486
 C252 C 0.59068 0.80229 -0.21978
 C253 C 0.56744 0.72746 -0.17259
 C254 C 0.55038 0.61334 -0.20238
 C255 C 0.55624 0.57660 -0.28043
 H256 H 0.64729 0.96585 -0.30480
 H257 H 0.68827 0.96920 -0.40897
 H258 H 0.63910 0.61406 -0.50227
 H259 H 0.60434 0.88819 -0.19701
 H260 H 0.56293 0.75751 -0.11334
 H261 H 0.54341 0.49113 -0.30521
 C262 C 0.13492 1.38367 -0.35707
 C263 C 0.10924 1.35513 -0.40410
 C264 C 0.11197 1.32564 -0.48284
 C265 C 0.14215 1.32045 -0.51368
 C266 C 0.16958 1.34924 -0.46724
 C267 C 0.16534 1.38715 -0.38799
 O268 O 0.12742 1.37885 -0.28107
 C269 C 0.09643 1.34417 -0.28007
 C270 C 0.08407 1.33073 -0.35413
 C271 C 0.05349 1.27207 -0.36772
 C272 C 0.03545 1.21913 -0.30306
 C273 C 0.04833 1.22452 -0.22690
 C274 C 0.07858 1.29418 -0.21466
 H275 H 0.09138 1.29563 -0.51765
 H276 H 0.14335 1.28402 -0.57239
 H277 H 0.18502 1.40976 -0.34913
 H278 H 0.04470 1.25836 -0.42669
 H279 H 0.01237 1.16569 -0.31322
 H280 H 0.08948 1.29451 -0.15779
 C281 C 0.30586 0.18846 -0.31287
 C282 C 0.32026 0.09475 -0.34884
 C283 C 0.30614 0.01875 -0.40812
 C284 C 0.27751 0.04822 -0.43575
 C285 C 0.26489 0.15693 -0.40764
 C286 C 0.27755 0.21980 -0.34031
 O287 O 0.32422 0.25730 -0.26268
 C288 C 0.35085 0.20849 -0.26865
 C289 C 0.35012 0.11032 -0.32140
 C290 C 0.37710 0.05802 -0.34315
 C291 C 0.40568 0.10748 -0.30717
 C292 C 0.40619 0.20560 -0.25064
 C293 C 0.37831 0.25481 -0.23120
 H294 H 0.31799 -0.05257 -0.43674
 H295 H 0.26807 0.00097 -0.48776
 H296 H 0.26848 0.30296 -0.31794
 H297 H 0.37624 -0.01675 -0.38669
 H298 H 0.42689 0.06730 -0.32126
 H299 H 0.37780 0.32707 -0.18727
 C300 C -0.18270 0.79479 -0.33711
 C301 C -0.16854 0.68967 -0.35533
 C302 C -0.18153 0.59666 -0.40694
 C303 C -0.20934 0.61488 -0.44478
 C304 C -0.22339 0.72697 -0.43191
 C305 C -0.21032 0.81658 -0.37511
 O306 O -0.16634 0.87124 -0.28584
 C307 C -0.14120 0.81382 -0.27300
 C308 C -0.14105 0.70368 -0.31529
 C309 C -0.11545 0.63561 -0.31624
 C310 C -0.08881 0.68415 -0.27229
 C311 C -0.08888 0.79528 -0.22610
 C312 C -0.11595 0.85806 -0.22498
 H313 H -0.17022 0.51377 -0.41747
 H314 H -0.21928 0.54457 -0.48686
 H315 H -0.22031 0.90340 -0.36416
 H316 H -0.11559 0.55056 -0.35159
 H317 H -0.06833 0.63525 -0.27384
 H318 H -0.11723 0.94085 -0.18919
 C319 C 0.35031 0.65527 0.34011
 C320 C 0.33450 0.55135 0.30242
 C321 C 0.30321 0.50310 0.31713
 C322 C 0.28713 0.56297 0.37436
 C323 C 0.30195 0.67047 0.41530
 C324 C 0.33409 0.72024 0.39673
 O325 O 0.38012 0.68533 0.31330
 C326 C 0.38263 0.59829 0.25728
 C327 C 0.35492 0.51645 0.24877
 C328 C 0.35039 0.42289 0.19235
 C329 C 0.37553 0.41068 0.14211
 C330 C 0.40539 0.48897 0.14894
 C331 C 0.40916 0.58463 0.20847
 H332 H 0.29141 0.42390 0.28386
 H333 H 0.26225 0.53150 0.38377
 H334 H 0.34551 0.80768 0.42300
 H335 H 0.32811 0.36077 0.18702
 H336 H 0.37169 0.33463 0.09939
 H337 H 0.43149 0.64544 0.21596
 C338 C -0.15373 1.29442 0.26333
 C339 C -0.12865 1.36599 0.29906
 C340 C -0.13163 1.42358 0.37130
 C341 C -0.16140 1.40397 0.40874
 C342 C -0.18741 1.32327 0.37596
 C343 C -0.18329 1.27151 0.30019
 O344 O -0.14579 1.24158 0.19697
 C345 C -0.11501 1.27955 0.19094
 C346 C -0.10312 1.35509 0.25210
 C347 C -0.07084 1.39130 0.26196
 C348 C -0.05013 1.34445 0.20783
 C349 C -0.06212 1.26629 0.14460
 C350 C -0.09505 1.23703 0.13517
 H351 H -0.11170 1.48041 0.39840
 H352 H -0.16397 1.44982 0.46403
 H353 H -0.20159 1.20586 0.27287
 H354 H -0.06192 1.44735 0.31191
 H355 H -0.02498 1.36478 0.21667
 H356 H -0.10495 1.17242 0.08984
 C357 C 0.66286 0.27472 0.27132
 C358 C 0.64042 0.17857 0.30062
 C359 C 0.64613 0.09568 0.36052
 C360 C 0.67599 0.11556 0.39364
 C361 C 0.69847 0.22105 0.36880
 C362 C 0.69243 0.29755 0.30415
 O363 O 0.65194 0.34848 0.21834
 C364 C 0.62184 0.29889 0.21493
 C365 C 0.61357 0.19564 0.26486
 C366 C 0.58270 0.13722 0.27699
 C367 C 0.55945 0.18625 0.23488
 C368 C 0.56768 0.28973 0.18147
 C369 C 0.59922 0.34662 0.17074
 H370 H 0.62778 0.02289 0.38346
 H371 H 0.68077 0.05612 0.44272
 H372 H 0.70903 0.38005 0.28529
 H373 H 0.57672 0.05835 0.31811
 H374 H 0.53513 0.14192 0.24227
 H375 H 0.60575 0.42641 0.13055
 C376 C 0.16717 0.88277 0.30473
 C377 C 0.15428 0.97257 0.34775
 C378 C 0.16700 1.02357 0.41680
 C379 C 0.19404 0.98053 0.44370
 C380 C 0.20665 0.88047 0.40505
 C381 C 0.19384 0.83412 0.33236
 O382 O 0.15015 0.84414 0.24208
 C383 C 0.12605 0.91098 0.24652
 C384 C 0.12756 0.98942 0.31089
 C385 C 0.10437 1.06273 0.33059
 C386 C 0.07883 1.05891 0.28077
 C387 C 0.07662 0.98243 0.21216
 C388 C 0.10062 0.90623 0.19492
 H389 H 0.15554 1.08849 0.45154
 H390 H 0.20326 1.01542 0.49945
 H391 H 0.20271 0.75640 0.30213
 H392 H 0.10570 1.12050 0.38289
 H393 H 0.06105 1.11839 0.29524
 H394 H 0.09967 0.84679 0.14316
   
