data_POSCAR
  _audit_creation_date              2014-09-24
  _audit_creation_method            'ToBaCCo'
  _symmetry_space_group_name_H-M    'P1'
  _symmetry_Int_Tables_number       1
  _symmetry_cell_setting            triclinic
  loop_
  _symmetry_equiv_pos_as_xyz
 x,y,z
_cell_length_a 27.4600
_cell_length_b 27.5760
_cell_length_c 22.6762
_cell_angle_alpha 89.583800
_cell_angle_beta 90.289800
_cell_angle_gamma 87.248200
loop_
  _atom_site_label
  _atom_site_type_symbol
  _atom_site_fract_x
  _atom_site_fract_y
  _atom_site_fract_z
C1 C 1.22159 0.20572 0.19751
 C2 C 1.24040 0.24935 0.16273
 C3 C 1.26162 0.28294 0.19751
 C4 C 1.26119 0.26981 0.26409
 C5 C 1.26573 0.18610 0.23270
 C6 C 1.28653 0.21910 0.26745
 C7 C 1.18693 0.22899 0.24299
 C8 C 1.20708 0.26205 0.27846
 H9 H 1.24092 0.25187 0.11520
 H10 H 1.27873 0.29614 0.29307
 H11 H 1.27937 0.14861 0.23031
 H12 H 1.14839 0.22233 0.24335
 C13 C 0.72398 -0.29499 0.19310
 C14 C 0.74194 -0.25109 0.15827
 C15 C 0.76219 -0.21694 0.19302
 C16 C 0.76182 -0.22991 0.25964
 C17 C 0.76835 -0.31363 0.22856
 C18 C 0.78806 -0.28009 0.26345
 C19 C 0.68863 -0.27235 0.23831
 C20 C 0.70792 -0.23875 0.27376
 H21 H 0.74288 -0.24882 0.11074
 H22 H 0.77888 -0.20328 0.28859
 H23 H 0.78253 -0.35098 0.22692
 H24 H 0.65032 -0.27996 0.23854
 C25 C 0.71252 0.22822 -0.30819
 C26 C 0.75530 0.24612 -0.33769
 C27 C 0.78890 0.26893 -0.29851
 C28 C 0.77233 0.26828 -0.23624
 C29 C 0.73209 0.19560 -0.26243
 C30 C 0.76505 0.21664 -0.22198
 C31 C 0.69165 0.27034 -0.27810
 C32 C 0.72316 0.29152 -0.23657
 H33 H 0.75699 0.25115 -0.38488
 H34 H 0.79616 0.28616 -0.20466
 H35 H 0.72693 0.15695 -0.26431
 H36 H 0.65409 0.28371 -0.28414
 C37 C 1.21157 -0.27138 -0.30522
 C38 C 1.25787 -0.25499 -0.33620
 C39 C 1.29000 -0.23347 -0.29932
 C40 C 1.27239 -0.23119 -0.23430
 C41 C 1.23068 -0.30456 -0.25524
 C42 C 1.26209 -0.28427 -0.21738
 C43 C 1.19087 -0.22567 -0.27548
 C44 C 1.22204 -0.20454 -0.23830
 H45 H 1.26238 -0.25494 -0.38346
 H46 H 1.29707 -0.21337 -0.20344
 H47 H 1.22280 -0.34263 -0.25382
 H48 H 1.15365 -0.21183 -0.28244
 C49 C 0.23214 0.20642 0.80498
 C50 C 0.24752 0.24881 0.83652
 C51 C 0.26805 0.28541 0.80008
 C52 C 0.26859 0.27181 0.73728
 C53 C 0.19696 0.22640 0.75700
 C54 C 0.21517 0.26107 0.72182
 C55 C 0.27750 0.18812 0.77135
 C56 C 0.29636 0.22197 0.73546
 H57 H 0.24901 0.24913 0.88419
 H58 H 0.28396 0.29800 0.70622
 H59 H 0.15910 0.21710 0.75530
 H60 H 0.29355 0.15168 0.77379
 C61 C 0.72758 0.70780 0.80606
 C62 C 0.74226 0.75173 0.83561
 C63 C 0.76492 0.78622 0.79762
 C64 C 0.76657 0.76963 0.73568
 C65 C 0.69569 0.72466 0.75768
 C66 C 0.71568 0.76010 0.71957
 C67 C 0.77128 0.68866 0.77695
 C68 C 0.79305 0.72215 0.73795
 H69 H 0.74217 0.75447 0.88320
 H70 H 0.78386 0.79425 0.70451
 H71 H 0.65807 0.71486 0.75497
 H72 H 0.78106 0.65046 0.77318
 C73 C 0.71286 0.23048 0.30556
 C74 C 0.75894 0.24734 0.33622
 C75 C 0.79209 0.26665 0.29920
 C76 C 0.77572 0.26656 0.23362
 C77 C 0.69315 0.27508 0.27096
 C78 C 0.72567 0.29387 0.23338
 C79 C 0.73160 0.19514 0.25796
 C80 C 0.76468 0.21316 0.22033
 H81 H 0.76238 0.24822 0.38378
 H82 H 0.80136 0.28285 0.20252
 H83 H 0.65615 0.28993 0.27269
 H84 H 0.72161 0.15766 0.25729
 C85 C 0.21015 0.73125 0.30578
 C86 C 0.25561 0.74901 0.33707
 C87 C 0.28915 0.76811 0.30039
 C88 C 0.27370 0.76717 0.23455
 C89 C 0.19051 0.77524 0.27002
 C90 C 0.22335 0.79395 0.23283
 C91 C 0.23002 0.69547 0.25916
 C92 C 0.26356 0.71346 0.22207
 H93 H 0.25859 0.75009 0.38466
 H94 H 0.29963 0.78319 0.20357
 H95 H 0.15341 0.78989 0.27090
 H96 H 0.22067 0.65778 0.25891
 O97 O 1.06369 0.07361 0.10710
 O98 O 1.11813 0.03164 0.04754
 C99 C 1.10740 0.06239 0.08894
 O100 O 0.93105 -0.09462 0.09391
 O101 O 0.87392 -0.04448 0.04634
 C102 C 0.88640 -0.08033 0.08228
 O103 O 1.06598 -0.09344 0.09869
 O104 O 1.11955 -0.05036 0.04386
 C105 C 1.10967 -0.08194 0.08414
 O106 O 0.93021 0.08593 0.10067
 O107 O 0.87324 0.04618 0.04733
 C108 C 0.88586 0.07956 0.08438
 Zr109 Zr 0.99613 0.05254 0.07429
 O110 O 0.99491 0.03829 0.16596
 O111 O 0.99966 0.12803 0.08830
 Zr112 Zr 0.99718 -0.06749 0.06600
 O113 O 0.99589 -0.06653 0.15921
 O114 O 1.00220 -0.14424 0.06291
 O115 O 1.04098 -0.00953 0.08103
 O116 O 0.95286 -0.00600 0.08103
 O117 O 0.92834 0.09827 -0.09177
 O118 O 0.87228 0.04986 -0.04937
 C119 C 0.88408 0.08793 -0.07991
 O120 O 1.06351 -0.08254 -0.11882
 O121 O 1.11836 -0.04618 -0.05870
 C122 C 1.10759 -0.07364 -0.10249
 O123 O 0.92861 -0.08471 -0.11271
 O124 O 0.87286 -0.04187 -0.05545
 C125 C 0.88436 -0.07356 -0.09642
 O126 O 1.06123 0.08725 -0.10090
 O127 O 1.11720 0.03619 -0.05339
 C128 C 1.10541 0.07318 -0.08681
 Zr129 Zr 0.99432 0.06022 -0.07475
 O130 O 0.98791 0.05582 -0.16767
 O131 O 0.99642 0.13632 -0.08491
 Zr132 Zr 0.99535 -0.06042 -0.08198
 O133 O 0.98952 -0.05817 -0.17510
 O134 O 0.99902 -0.13715 -0.08024
 Zr135 Zr 1.06911 -0.00589 -0.00507
 Zr136 Zr 0.92123 -0.00043 -0.00361
 O137 O 0.95100 0.00236 -0.08879
 O138 O 1.03884 -0.00091 -0.09072
 O139 O 0.95242 0.06793 0.00084
 O140 O 1.03921 -0.07461 -0.00901
 O141 O 1.03685 0.06462 0.00016
 O142 O 0.95242 -0.07174 -0.00817
 H143 H 0.93085 -0.00592 0.11555
 H144 H 1.06157 -0.10386 -0.01074
 H145 H 0.92785 0.00542 -0.12244
 H146 H 1.05687 0.09347 0.00284
 H147 H 0.98105 -0.15397 0.03002
 H148 H 1.00021 -0.14756 -0.12196
 H149 H 1.01232 -0.03409 -0.18951
 H150 H 1.02126 0.05239 -0.18395
 H151 H 0.99850 0.14982 -0.04477
 H152 H 0.98550 0.14441 0.05280
 H153 H 0.99375 0.07044 0.18525
 H154 H 0.99728 -0.10094 0.17232
 O155 O 1.08659 0.43491 0.61007
 O156 O 1.04717 0.37869 0.55567
 C157 C 1.07982 0.39080 0.59439
 O158 O 0.90632 0.56896 0.60379
 O159 O 0.94906 0.62376 0.55033
 C160 C 0.91723 0.61290 0.58989
 O161 O 0.91481 0.43468 0.61090
 O162 O 0.95968 0.37888 0.55604
 C163 C 0.92760 0.39049 0.59663
 O164 O 1.08459 0.56759 0.60184
 O165 O 1.03619 0.62250 0.54865
 C166 C 1.07161 0.61124 0.58483
 Zr167 Zr 1.05696 0.50064 0.57745
 O168 O 1.04716 0.50229 0.66981
 O169 O 1.13379 0.49743 0.58635
 Zr170 Zr 0.93609 0.50105 0.57569
 O171 O 0.94145 0.50277 0.66870
 O172 O 0.85923 0.49791 0.57672
 O173 O 0.99865 0.45641 0.58835
 O174 O 0.99484 0.54416 0.58683
 O175 O 1.08958 0.56617 0.40968
 O176 O 1.03784 0.62227 0.45421
 C177 C 1.07609 0.61026 0.42309
 O178 O 0.91726 0.43471 0.39189
 O179 O 0.96044 0.37871 0.44966
 C180 C 0.92945 0.39044 0.40738
 O181 O 0.90785 0.56890 0.39586
 O182 O 0.94952 0.62335 0.45059
 C183 C 0.91802 0.61268 0.41056
 O184 O 1.08768 0.43440 0.39900
 O185 O 1.04665 0.37827 0.45195
 C186 C 1.07982 0.39029 0.41418
 Zr187 Zr 1.05752 0.50054 0.42856
 O188 O 1.05028 0.50634 0.33568
 O189 O 1.13388 0.49703 0.41654
 Zr190 Zr 0.93622 0.50118 0.42790
 O191 O 0.92949 0.50081 0.33488
 O192 O 0.85973 0.50051 0.43729
 Zr193 Zr 1.00069 0.42656 0.50293
 Zr194 Zr 0.99393 0.57419 0.50135
 O195 O 0.99552 0.54404 0.41653
 O196 O 0.99905 0.45674 0.41697
 O197 O 1.06545 0.54293 0.50281
 O198 O 0.92924 0.45810 0.50196
 O199 O 1.06876 0.45859 0.50351
 O200 O 0.92440 0.54491 0.50120
 H201 H 0.99464 0.56628 0.62110
 H202 H 0.90133 0.43661 0.50175
 H203 H 0.99622 0.56678 0.38254
 H204 H 1.09956 0.43838 0.50416
 H205 H 0.84608 0.52153 0.54693
 H206 H 0.84618 0.49997 0.39675
 H207 H 0.95765 0.51726 0.31852
 H208 H 1.03830 0.47525 0.32123
 H209 H 1.14880 0.49486 0.45625
 H210 H 1.14684 0.51474 0.55196
 H211 H 1.08011 0.50493 0.68712
 H212 H 0.90756 0.50433 0.68366
 O213 O 0.59178 -0.06802 0.60510
 O214 O 0.54968 -0.12349 0.55253
 C215 C 0.58366 -0.11198 0.58983
 O216 O 0.41135 0.06829 0.60399
 O217 O 0.45396 0.12213 0.54891
 C218 C 0.42217 0.11193 0.58869
 O219 O 0.41848 -0.06612 0.60982
 O220 O 0.46225 -0.12248 0.55467
 C221 C 0.43053 -0.11048 0.59547
 O222 O 0.59050 0.06484 0.59700
 O223 O 0.54116 0.12028 0.54581
 C224 C 0.57736 0.10866 0.58075
 Zr225 Zr 0.56133 -0.00181 0.57407
 O226 O 0.55253 -0.00026 0.66657
 O227 O 0.63819 -0.00553 0.58226
 Zr228 Zr 0.44035 0.00010 0.57511
 O229 O 0.44749 0.00151 0.66795
 O230 O 0.36346 -0.00199 0.57840
 O231 O 0.50260 -0.04533 0.58638
 O232 O 0.49980 0.04248 0.58484
 O233 O 0.59212 0.06377 0.40624
 O234 O 0.54120 0.12019 0.45144
 C235 C 0.57911 0.10795 0.41998
 O236 O 0.41768 -0.06601 0.39183
 O237 O 0.46124 -0.12245 0.44859
 C238 C 0.42962 -0.11038 0.40711
 O239 O 0.40997 0.06808 0.39560
 O240 O 0.45292 0.12214 0.44939
 C241 C 0.42073 0.11176 0.40994
 O242 O 0.58815 -0.06802 0.39481
 O243 O 0.54761 -0.12379 0.44893
 C244 C 0.58031 -0.11201 0.41046
 Zr245 Zr 0.55942 -0.00164 0.42512
 O246 O 0.55079 0.00452 0.33244
 O247 O 0.63550 -0.00595 0.41091
 Zr248 Zr 0.43815 0.00017 0.42717
 O249 O 0.43034 -0.00039 0.33425
 O250 O 0.36176 0.00045 0.43807
 Zr251 Zr 0.50294 -0.07508 0.50085
 Zr252 Zr 0.49776 0.07245 0.49929
 O253 O 0.49771 0.04244 0.41444
 O254 O 0.50033 -0.04488 0.41490
 O255 O 0.56900 0.04044 0.49923
 O256 O 0.43183 -0.04270 0.50149
 O257 O 0.57141 -0.04380 0.49976
 O258 O 0.42794 0.04395 0.50073
 H259 H 0.50028 0.06472 0.61897
 H260 H 0.40361 -0.06378 0.50182
 H261 H 0.49817 0.06526 0.38051
 H262 H 0.60207 -0.06422 0.49955
 H263 H 0.35009 0.02097 0.54802
 H264 H 0.34764 0.00003 0.39779
 H265 H 0.45780 0.01683 0.31732
 H266 H 0.53805 -0.02630 0.31820
 H267 H 0.65118 -0.00839 0.45019
 H268 H 0.65114 0.00970 0.54636
 H269 H 0.58569 0.00227 0.68330
 H270 H 0.41389 0.00305 0.68381
 O271 O 0.56675 0.57392 0.10514
 O272 O 0.62000 0.53037 0.04550
 C273 C 0.61009 0.56184 0.08632
 O274 O 0.43237 0.40662 0.10121
 O275 O 0.37483 0.45484 0.05157
 C276 C 0.38756 0.41991 0.08872
 O277 O 0.56791 0.40826 0.10319
 O278 O 0.62105 0.44791 0.04363
 C279 C 0.61150 0.41827 0.08622
 O280 O 0.43300 0.58760 0.10195
 O281 O 0.37497 0.54647 0.05222
 C282 C 0.38825 0.58058 0.08784
 Zr283 Zr 0.49830 0.55309 0.07495
 O284 O 0.49843 0.54128 0.16714
 O285 O 0.50255 0.62888 0.08589
 Zr286 Zr 0.49835 0.43333 0.07170
 O287 O 0.49833 0.43725 0.16476
 O288 O 0.50288 0.35653 0.07296
 O289 O 0.54301 0.49106 0.08284
 O290 O 0.45453 0.49522 0.08528
 O291 O 0.42811 0.59406 -0.09207
 O292 O 0.37238 0.54867 -0.04421
 C293 C 0.38404 0.58534 -0.07723
 O294 O 0.56114 0.40875 -0.11045
 O295 O 0.61795 0.44867 -0.05726
 C296 C 0.60577 0.41666 -0.09571
 O297 O 0.42687 0.41281 -0.10571
 O298 O 0.37228 0.45742 -0.04871
 C299 C 0.38299 0.42521 -0.08932
 O300 O 0.56036 0.58403 -0.10278
 O301 O 0.61718 0.53557 -0.05310
 C302 C 0.60473 0.57202 -0.08744
 Zr303 Zr 0.49432 0.55665 -0.07470
 O304 O 0.48725 0.54889 -0.16719
 O305 O 0.49597 0.63244 -0.08818
 Zr306 Zr 0.49418 0.43646 -0.07675
 O307 O 0.48830 0.43838 -0.16991
 O308 O 0.49514 0.35977 -0.07334
 Zr309 Zr 0.56984 0.49210 -0.00421
 Zr310 Zr 0.42188 0.49887 0.00120
 O311 O 0.45015 0.49923 -0.08487
 O312 O 0.53859 0.49490 -0.08932
 O313 O 0.45371 0.56696 0.00183
 O314 O 0.53876 0.42378 -0.00403
 O315 O 0.53772 0.56283 -0.00070
 O316 O 0.45254 0.42734 -0.00135
 H317 H 0.43283 0.49600 0.12010
 H318 H 0.56015 0.39380 -0.00432
 H319 H 0.42660 0.50190 -0.11814
 H320 H 0.55743 0.59194 0.00099
 H321 H 0.48377 0.34581 0.03874
 H322 H 0.49499 0.34858 -0.11479
 H323 H 0.51531 0.45733 -0.18511
 H324 H 0.52051 0.54573 -0.18379
 H325 H 0.49757 0.64712 -0.04862
 H326 H 0.48795 0.64442 0.05012
 H327 H 0.49811 0.57391 0.18515
 H328 H 0.49979 0.40326 0.17938
 C329 C 1.19501 0.16103 0.10397
 C330 C 1.19798 0.16460 0.16574
 C331 C 1.17770 0.12821 0.20067
 C332 C 1.15123 0.09208 0.17518
 C333 C 1.14596 0.09041 0.11406
 C334 C 1.16928 0.12390 0.07835
 H335 H 1.21097 0.18720 0.07523
 H336 H 1.18038 0.12924 0.24833
 H337 H 1.13287 0.06683 0.20325
 H338 H 1.16464 0.12339 0.03088
 C339 C 1.13044 0.69119 0.69187
 C340 C 1.17213 0.70436 0.66049
 C341 C 1.17630 0.69171 0.60071
 C342 C 1.14072 0.66438 0.57427
 C343 C 1.10089 0.64956 0.60712
 C344 C 1.09537 0.66379 0.66555
 H345 H 1.12628 0.70025 0.73805
 H346 H 1.20756 0.70066 0.57487
 H347 H 1.14576 0.65230 0.52934
 H348 H 1.06527 0.65157 0.69162
 C349 C 0.68310 0.18786 0.59956
 C350 C 0.67584 0.20438 0.65781
 C351 C 0.63244 0.19204 0.68695
 C352 C 0.59843 0.16390 0.65980
 C353 C 0.60682 0.14688 0.60305
 C354 C 0.64870 0.15938 0.57257
 H355 H 0.71604 0.19419 0.57550
 H356 H 0.62588 0.20241 0.73233
 H357 H 0.56685 0.15319 0.68430
 H358 H 0.65608 0.14479 0.52916
 C359 C 0.69698 0.66072 0.09965
 C360 C 0.70135 0.66346 0.16135
 C361 C 0.68269 0.62622 0.19636
 C362 C 0.65623 0.59003 0.17115
 C363 C 0.64928 0.58937 0.11026
 C364 C 0.67118 0.62360 0.07429
 H365 H 0.71154 0.68767 0.07082
 H366 H 0.68636 0.62679 0.24395
 H367 H 0.63890 0.56414 0.19937
 H368 H 0.66516 0.62378 0.02702
 C369 C 0.83290 -0.16343 0.19501
 C370 C 0.78929 -0.17605 0.16812
 C371 C 0.77434 -0.15179 0.11559
 C372 C 0.80383 -0.11742 0.08916
 C373 C 0.84918 -0.10770 0.11414
 C374 C 0.86236 -0.12988 0.16843
 H375 H 0.84596 -0.18151 0.23497
 H376 H 0.74044 -0.16020 0.09427
 H377 H 0.79232 -0.10033 0.04808
 H378 H 0.89679 -0.12277 0.18943
 C379 C 0.84991 0.33170 0.71154
 C380 C 0.82951 0.29387 0.67962
 C381 C 0.84899 0.28351 0.62303
 C382 C 0.88434 0.31222 0.59768
 C383 C 0.90098 0.35238 0.62782
 C384 C 0.88458 0.36073 0.68571
 H385 H 0.83680 0.34209 0.75466
 H386 H 0.83668 0.25347 0.59742
 H387 H 0.89632 0.30479 0.55312
 H388 H 0.89683 0.39154 0.71015
 C389 C 0.35664 -0.22105 0.62539
 C390 C 0.33264 -0.20723 0.67808
 C391 C 0.34710 -0.16529 0.70671
 C392 C 0.38199 -0.13637 0.68174
 C393 C 0.40338 -0.14809 0.62705
 C394 C 0.39171 -0.19176 0.60013
 H395 H 0.34718 -0.25366 0.60258
 H396 H 0.32946 -0.15273 0.74666
 H397 H 0.39032 -0.10310 0.70398
 H398 H 0.40745 -0.20180 0.55803
 C399 C 0.33389 0.33455 0.19934
 C400 C 0.28965 0.32335 0.17281
 C401 C 0.27470 0.34888 0.12114
 C402 C 0.30455 0.38335 0.09543
 C403 C 0.35037 0.39185 0.12007
 C404 C 0.36375 0.36811 0.17336
 H405 H 0.34695 0.31548 0.23864
 H406 H 0.24037 0.34156 0.10010
 H407 H 0.29278 0.40167 0.05519
 H408 H 0.39852 0.37413 0.19418
 C409 C 0.77336 0.14169 -0.16078
 C410 C 0.78956 0.18811 -0.17725
 C411 C 0.83240 0.20331 -0.15027
 C412 C 0.86040 0.17159 -0.11413
 C413 C 0.84690 0.12361 -0.10380
 C414 C 0.80190 0.10972 -0.12497
 H415 H 0.73897 0.12899 -0.17621
 H416 H 0.84709 0.23806 -0.15992
 H417 H 0.89462 0.18384 -0.09712
 H418 H 0.79012 0.07335 -0.11688
 C419 C 0.82484 0.70961 0.36379
 C420 C 0.82956 0.70627 0.30231
 C421 C 0.86951 0.67974 0.27845
 C422 C 0.90118 0.65246 0.31509
 C423 C 0.89371 0.65183 0.37608
 C424 C 0.85693 0.68227 0.40075
 H425 H 0.79384 0.72949 0.38281
 H426 H 0.87368 0.67682 0.23109
 H427 H 0.92940 0.62901 0.29552
 H428 H 0.85049 0.68161 0.44781
 C429 C 0.32765 0.20990 0.36576
 C430 C 0.32930 0.20491 0.30423
 C431 C 0.36765 0.17701 0.27879
 C432 C 0.40048 0.14999 0.31426
 C433 C 0.39596 0.15099 0.37571
 C434 C 0.36102 0.18289 0.40152
 H435 H 0.29806 0.23098 0.38613
 H436 H 0.36969 0.17295 0.23136
 H437 H 0.42726 0.12550 0.29368
 H438 H 0.35685 0.18367 0.44886
 C439 C 0.33397 0.69961 -0.15060
 C440 C 0.28818 0.68634 -0.17041
 C441 C 0.27011 0.64222 -0.14916
 C442 C 0.29957 0.60984 -0.11480
 C443 C 0.34708 0.62162 -0.10015
 C444 C 0.36262 0.66804 -0.11539
 H445 H 0.34960 0.73282 -0.16515
 H446 H 0.23402 0.63150 -0.16107
 H447 H 0.28635 0.57474 -0.10288
 H448 H 0.39868 0.67896 -0.10328
 C449 C 1.21102 -0.16126 -0.14240
 C450 C 1.20549 -0.16165 -0.20396
 C451 C 1.17495 -0.12581 -0.23146
 C452 C 1.14553 -0.09437 -0.19785
 C453 C 1.14726 -0.09728 -0.13627
 C454 C 1.18204 -0.12888 -0.10856
 H455 H 1.23420 -0.18871 -0.12034
 H456 H 1.17076 -0.12493 -0.27900
 H457 H 1.11919 -0.06984 -0.21986
 H458 H 1.18365 -0.13151 -0.06093
 C459 C 1.18955 0.33908 0.33266
 C460 C 1.17722 0.29156 0.32080
 C461 C 1.13417 0.27431 0.34595
 C462 C 1.10267 0.30522 0.37885
 C463 C 1.11396 0.35368 0.38723
 C464 C 1.15869 0.36943 0.36568
 H465 H 1.22177 0.35408 0.31401
 H466 H 1.12414 0.23731 0.33901
 H467 H 1.06890 0.29188 0.39554
 H468 H 1.16940 0.40627 0.37250
 C469 C 0.63423 -0.22727 0.34033
 C470 C 0.67761 -0.20984 0.31620
 C471 C 0.69016 -0.16266 0.32958
 C472 C 0.65938 -0.13285 0.36320
 C473 C 0.61432 -0.14861 0.38352
 C474 C 0.60265 -0.19675 0.37365
 H475 H 0.62401 -0.26406 0.33235
 H476 H 0.72251 -0.14735 0.31177
 H477 H 0.67038 -0.09629 0.37131
 H478 H 0.56859 -0.21006 0.38944
 C479 C 0.71953 0.36443 -0.17374
 C480 C 0.70232 0.31916 -0.19044
 C481 C 0.65829 0.30441 -0.16645
 C482 C 0.62944 0.33565 -0.13262
 C483 C 0.64312 0.38307 -0.12192
 C484 C 0.68960 0.39669 -0.13991
 H485 H 0.75354 0.37659 -0.19116
 H486 H 0.64496 0.26891 -0.17601
 H487 H 0.59490 0.32322 -0.11705
 H488 H 0.70130 0.43289 -0.13112
 C489 C 1.21728 0.11931 -0.15888
 C490 C 1.20683 0.17003 -0.15660
 C491 C 1.16610 0.18724 -0.12429
 C492 C 1.13453 0.15512 -0.09965
 C493 C 1.14323 0.10500 -0.10585
 C494 C 1.18579 0.08704 -0.13306
 H495 H 1.24777 0.10360 -0.18291
 H496 H 1.15687 0.22580 -0.12161
 H497 H 1.10213 0.16950 -0.07747
 H498 H 1.19300 0.04828 -0.13758
 C499 C 1.12455 0.72135 0.35098
 C500 C 1.17471 0.70720 0.34692
 C501 C 1.19186 0.66536 0.37758
 C502 C 1.15951 0.63552 0.40516
 C503 C 1.10924 0.64729 0.40405
 C504 C 1.09210 0.69151 0.37955
 H505 H 1.10910 0.75388 0.33043
 H506 H 1.23015 0.65394 0.37659
 H507 H 1.17364 0.60195 0.42534
 H508 H 1.05345 0.70143 0.37912
 C509 C 0.69499 0.16343 0.37575
 C510 C 0.67784 0.20610 0.34678
 C511 C 0.62783 0.22042 0.35174
 C512 C 0.59538 0.18993 0.37911
 C513 C 0.61241 0.14489 0.40141
 C514 C 0.66261 0.13288 0.40199
 H515 H 0.73323 0.15188 0.37410
 H516 H 0.61247 0.25362 0.33271
 H517 H 0.55679 0.20010 0.37946
 H518 H 0.67666 0.09873 0.42077
 C519 C 0.65754 0.68948 -0.13192
 C520 C 0.70324 0.67437 -0.15506
 C521 C 0.72018 0.62560 -0.14346
 C522 C 0.68910 0.59192 -0.11934
 C523 C 0.64117 0.60646 -0.10538
 C524 C 0.62674 0.65594 -0.10852
 H525 H 0.64395 0.72689 -0.13643
 H526 H 0.75657 0.61214 -0.15398
 H527 H 0.70177 0.55432 -0.11415
 H528 H 0.59072 0.66866 -0.09455
 C529 C 0.82627 -0.15114 -0.21150
 C530 C 0.78884 -0.17283 -0.17976
 C531 C 0.77831 -0.15434 -0.12275
 C532 C 0.80647 -0.11869 -0.09709
 C533 C 0.84629 -0.10080 -0.12720
 C534 C 0.85461 -0.11619 -0.18543
 H535 H 0.83705 -0.16329 -0.25484
 H536 H 0.74860 -0.16759 -0.09706
 H537 H 0.79885 -0.10729 -0.05250
 H538 H 0.88500 -0.10291 -0.21010
 C539 C 0.85779 0.27904 0.37588
 C540 C 0.83474 0.29261 0.32200
 C541 C 0.84955 0.33445 0.29296
 C542 C 0.88348 0.36389 0.31902
 C543 C 0.90364 0.35251 0.37499
 C544 C 0.89202 0.30866 0.40206
 H545 H 0.84800 0.24646 0.39898
 H546 H 0.83263 0.34650 0.25188
 H547 H 0.89194 0.39724 0.29659
 H548 H 0.90697 0.29878 0.44497
 C549 C 0.35451 -0.21980 0.37772
 C550 C 0.33211 -0.20643 0.32337
 C551 C 0.34826 -0.16550 0.29359
 C552 C 0.38305 -0.13676 0.31919
 C553 C 0.40277 -0.14794 0.37542
 C554 C 0.38958 -0.19088 0.40344
 H555 H 0.34369 -0.25171 0.40144
 H556 H 0.33189 -0.15358 0.25215
 H557 H 0.39263 -0.10404 0.29614
 H558 H 0.40398 -0.20045 0.44672
 C559 C 0.32432 0.35261 -0.20761
 C560 C 0.28991 0.32680 -0.17563
 C561 C 0.28026 0.34179 -0.11690
 C562 C 0.30724 0.37754 -0.08981
 C563 C 0.34451 0.39934 -0.12048
 C564 C 0.35128 0.38794 -0.18029
 H565 H 0.33402 0.34352 -0.25236
 H566 H 0.25246 0.32550 -0.09081
 H567 H 0.30115 0.38566 -0.04385
 H568 H 0.37987 0.40435 -0.20518
 C569 C 1.20881 -0.17321 0.13107
 C570 C 1.20809 -0.16609 0.19231
 C571 C 1.18196 -0.12556 0.21528
 C572 C 1.15276 -0.09565 0.17851
 C573 C 1.14982 -0.10538 0.11815
 C574 C 1.17960 -0.14288 0.09398
 H575 H 1.22817 -0.20471 0.11272
 H576 H 1.18086 -0.11959 0.26244
 H577 H 1.12988 -0.06688 0.19774
 H578 H 1.17719 -0.15110 0.04747
 C579 C 1.14084 0.27344 0.65526
 C580 C 1.18308 0.29141 0.68173
 C581 C 1.19204 0.34052 0.67465
 C582 C 1.15892 0.37139 0.64466
 C583 C 1.11525 0.35450 0.62104
 C584 C 1.10715 0.30478 0.62500
 H585 H 1.13326 0.23539 0.65902
 H586 H 1.22343 0.35608 0.69479
 H587 H 1.16736 0.40926 0.64136
 H588 H 1.07437 0.29053 0.60654
 C589 C 0.69885 -0.16557 0.66068
 C590 C 0.68571 -0.21193 0.67914
 C591 C 0.63966 -0.22763 0.65999
 C592 C 0.60667 -0.19656 0.62840
 C593 C 0.61891 -0.14913 0.61501
 C594 C 0.66606 -0.13491 0.62941
 H595 H 0.73289 -0.15061 0.67357
 H596 H 0.62837 -0.26384 0.66954
 H597 H 0.57108 -0.20893 0.61669
 H598 H 0.67729 -0.09887 0.61828
 C599 C 0.68368 0.37417 0.21698
 C600 C 0.71030 0.33419 0.19349
 C601 C 0.71172 0.32800 0.13209
 C602 C 0.68251 0.35856 0.09525
 C603 C 0.65195 0.39518 0.11996
 C604 C 0.65439 0.40418 0.18052
 H605 H 0.68222 0.37954 0.26424
 H606 H 0.73162 0.29700 0.11331
 H607 H 0.68063 0.35106 0.04849
 H608 H 0.63101 0.43240 0.20011
 C609 C 0.77258 0.13821 0.15541
 C610 C 0.79145 0.18180 0.17661
 C611 C 0.83847 0.19319 0.15961
 C612 C 0.86694 0.16093 0.12610
 C613 C 0.84996 0.11556 0.10937
 C614 C 0.80173 0.10519 0.12225
 H615 H 0.73583 0.12873 0.16583
 H616 H 0.85491 0.22569 0.17480
 H617 H 0.90361 0.17081 0.11559
 H618 H 0.78746 0.07090 0.10931
 C619 C 0.83544 0.71884 0.64189
 C620 C 0.83235 0.70610 0.70212
 C621 C 0.86562 0.67024 0.72487
 C622 C 0.89610 0.64323 0.68783
 C623 C 0.89451 0.65121 0.62691
 C624 C 0.86612 0.69087 0.60411
 H625 H 0.81068 0.74644 0.62278
 H626 H 0.86626 0.66111 0.77145
 H627 H 0.91881 0.61369 0.70652
 H628 H 0.86480 0.69778 0.55707
 C629 C 0.32918 0.20891 0.63430
 C630 C 0.33677 0.20811 0.69557
 C631 C 0.37805 0.18272 0.71899
 C632 C 0.40845 0.15447 0.68256
 C633 C 0.39832 0.15157 0.62215
 C634 C 0.35985 0.18049 0.59764
 H635 H 0.29701 0.22755 0.61562
 H636 H 0.38426 0.18142 0.76621
 H637 H 0.43787 0.13211 0.70214
 H638 H 0.35108 0.17790 0.55130
 C639 C 0.33991 0.69276 0.16650
 C640 C 0.29199 0.68188 0.18009
 C641 C 0.27356 0.63877 0.15708
 C642 C 0.30356 0.60607 0.12445
 C643 C 0.35238 0.61608 0.11424
 C644 C 0.36937 0.66069 0.13382
 H645 H 0.35599 0.72486 0.18356
 H646 H 0.23633 0.62963 0.16539
 H647 H 0.28924 0.57237 0.10945
 H648 H 0.40653 0.67036 0.12575
   
