data_POSCAR
  _audit_creation_date              2014-09-24
  _audit_creation_method            'ToBaCCo'
  _symmetry_space_group_name_H-M    'P1'
  _symmetry_Int_Tables_number       1
  _symmetry_cell_setting            triclinic
  loop_
  _symmetry_equiv_pos_as_xyz
 x,y,z
_cell_length_a 21.0909
_cell_length_b 22.5352
_cell_length_c 21.3888
_cell_angle_alpha 89.254300
_cell_angle_beta 89.987900
_cell_angle_gamma 89.924500
loop_
  _atom_site_label
  _atom_site_type_symbol
  _atom_site_fract_x
  _atom_site_fract_y
  _atom_site_fract_z
C1 C 0.24791 0.24707 0.25072
 C2 C 0.75257 0.75806 0.25321
 C3 C 0.74610 0.24566 0.77601
 C4 C 0.25806 0.73378 0.72961
 C5 C 0.11579 0.06430 0.01114
 H6 H 0.12098 0.06016 -0.03894
 C7 C 0.15946 0.09739 0.04464
 H8 H 0.19791 0.11927 0.01999
 C9 C 0.05955 0.03994 0.10397
 H10 H 0.02069 0.01713 0.12674
 C11 C 0.10145 0.07421 0.13930
 H12 H 0.09493 0.07749 0.18936
 N13 N 0.06851 0.03458 0.04124
 C14 C 0.05488 -0.10410 -0.09807
 H15 H 0.00585 -0.10200 -0.11281
 C16 C 0.09824 -0.13894 -0.13106
 H17 H 0.08234 -0.16343 -0.17136
 C18 C 0.13562 -0.07398 -0.02853
 H19 H 0.15010 -0.04973 0.01222
 C20 C 0.18028 -0.10796 -0.05994
 H21 H 0.22854 -0.10889 -0.04284
 Zn22 Zn 0.01979 -0.01447 -0.01144
 N23 N 0.07491 -0.07024 -0.04968
 C24 C -0.00736 0.03276 -0.13388
 N25 N -0.01809 0.03702 -0.07140
 C26 C -0.05770 0.07905 -0.04832
 C27 C -0.09153 0.11641 -0.08869
 C28 C -0.04011 0.06942 -0.17603
 C29 C -0.03014 -0.09066 0.08308
 C30 C -0.07801 -0.12080 0.11580
 C31 C -0.15452 -0.08091 0.04251
 C32 C -0.10540 -0.05175 0.01131
 N33 N -0.04477 -0.05600 0.03258
 H34 H 0.02603 0.00069 -0.15136
 H35 H -0.06443 0.08221 0.00168
 H36 H -0.12419 0.14841 -0.06929
 H37 H -0.03173 0.06414 -0.22549
 H38 H 0.01865 -0.09447 0.09825
 H39 H -0.06571 -0.14753 0.15647
 H40 H -0.20212 -0.07659 0.02426
 H41 H -0.11599 -0.02617 -0.03041
 C42 C 0.16234 -0.13925 -0.11336
 C43 C 0.15313 0.10177 0.10960
 C44 C -0.14130 -0.11545 0.09601
 C45 C -0.08388 0.11117 -0.15352
 C46 C 0.08220 0.56552 0.53819
 H47 H 0.09393 0.56719 0.48908
 C48 C 0.11731 0.59939 0.58039
 H49 H 0.15680 0.62571 0.56340
 C50 C 0.01494 0.53207 0.61979
 H51 H -0.02624 0.50780 0.63531
 C52 C 0.04863 0.56494 0.66332
 H53 H 0.03273 0.56432 0.71138
 N54 N 0.03283 0.53152 0.55864
 C55 C 0.00739 0.37025 0.45792
 H56 H -0.03814 0.36072 0.47870
 C57 C 0.03836 0.32558 0.42531
 H58 H 0.01641 0.28233 0.42271
 C59 C 0.08827 0.43896 0.43191
 H60 H 0.10689 0.48345 0.43315
 C61 C 0.12059 0.39559 0.39810
 H62 H 0.16447 0.40708 0.37462
 Zn63 Zn -0.01639 0.48545 0.50190
 N64 N 0.03272 0.42568 0.46135
 C65 C -0.04460 0.52273 0.37899
 N66 N -0.05169 0.53656 0.44027
 C67 C -0.08371 0.58609 0.45771
 C68 C -0.11066 0.62374 0.41247
 C69 C -0.07039 0.55918 0.33236
 C70 C -0.06281 0.40577 0.59133
 C71 C -0.10727 0.37482 0.62704
 C72 C -0.19063 0.42756 0.57222
 C73 C -0.14432 0.45757 0.53725
 N74 N -0.08175 0.44649 0.54769
 H75 H -0.01955 0.48291 0.36602
 H76 H -0.08861 0.59607 0.50682
 H77 H -0.13639 0.66279 0.42714
 H78 H -0.06464 0.54639 0.28417
 H79 H -0.01276 0.39748 0.59835
 H80 H -0.09086 0.34278 0.66159
 H81 H -0.24005 0.43708 0.56313
 H82 H -0.15843 0.48955 0.50182
 C83 C 0.09570 0.33799 0.39469
 C84 C 0.10115 0.59866 0.64409
 C85 C -0.17213 0.38561 0.61798
 C86 C -0.10412 0.61048 0.34881
 C87 C 0.59109 0.08510 0.56571
 H88 H 0.60573 0.09265 0.51777
 C89 C 0.61931 0.11708 0.61349
 H90 H 0.65612 0.14882 0.60186
 C91 C 0.52426 0.03535 0.63833
 H92 H 0.48651 0.00409 0.64762
 C93 C 0.55127 0.06651 0.68775
 H94 H 0.53410 0.05818 0.73465
 N95 N 0.54455 0.04507 0.57870
 C96 C 0.55233 -0.07155 0.41704
 H97 H 0.50339 -0.07312 0.40245
 C98 C 0.59751 -0.10559 0.38578
 H99 H 0.58291 -0.13194 0.34633
 C100 C 0.63017 -0.03840 0.48811
 H101 H 0.64282 -0.01412 0.52932
 C102 C 0.67680 -0.07160 0.45822
 H103 H 0.72447 -0.07110 0.47674
 Zn104 Zn 0.50639 0.00640 0.50985
 N105 N 0.56941 -0.03785 0.46658
 C106 C 0.44143 0.05264 0.40148
 N107 N 0.46819 0.06607 0.45751
 C108 C 0.46512 0.12229 0.47993
 C109 C 0.43576 0.16750 0.44560
 C110 C 0.41071 0.09659 0.36583
 C111 C 0.46222 -0.09569 0.57261
 C112 C 0.41722 -0.13561 0.59614
 C113 C 0.33490 -0.07581 0.54831
 C114 C 0.38141 -0.03687 0.52608
 N115 N 0.44363 -0.04720 0.53881
 H116 H 0.44232 0.00765 0.38496
 H117 H 0.48367 0.13226 0.52554
 H118 H 0.43319 0.21131 0.46549
 H119 H 0.38898 0.08498 0.32178
 H120 H 0.51208 -0.10289 0.58192
 H121 H 0.43286 -0.17350 0.62375
 H122 H 0.28579 -0.06576 0.53838
 H123 H 0.36758 0.00211 0.49947
 C124 C 0.66083 -0.10554 0.40602
 C125 C 0.59943 0.10817 0.67546
 C126 C 0.35255 -0.12582 0.58431
 C127 C 0.40786 0.15494 0.38779
 C128 C 0.58337 0.59607 0.05085
 H129 H 0.60088 0.59539 0.00331
 C130 C 0.61269 0.63204 0.09506
 H131 H 0.65292 0.65895 0.08113
 C132 C 0.51027 0.56111 0.12682
 H133 H 0.46987 0.53403 0.13907
 C134 C 0.53792 0.59643 0.17234
 H135 H 0.51814 0.59546 0.21895
 N136 N 0.53443 0.56009 0.06788
 C137 C 0.54449 0.41070 -0.05974
 H138 H 0.49538 0.40822 -0.07408
 C139 C 0.58903 0.37194 -0.08500
 H140 H 0.57373 0.33969 -0.11893
 C141 C 0.62384 0.45636 0.00138
 H142 H 0.63724 0.48894 0.03545
 C143 C 0.66993 0.41827 -0.02245
 H144 H 0.71834 0.42298 -0.00674
 Zn145 Zn 0.50003 0.50700 0.00874
 N146 N 0.56281 0.45304 -0.01883
 C147 C 0.48932 0.54196 -0.11920
 N148 N 0.46792 0.55179 -0.06019
 C149 C 0.42262 0.59333 -0.04912
 C150 C 0.39428 0.62425 -0.09878
 C151 C 0.46234 0.57191 -0.17024
 C152 C 0.45171 0.42405 0.09436
 C153 C 0.40579 0.39137 0.12674
 C154 C 0.32577 0.43468 0.05943
 C155 C 0.37327 0.46646 0.02827
 N156 N 0.43471 0.46159 0.04696
 H157 H 0.52690 0.51041 -0.12713
 H158 H 0.40729 0.60122 -0.00167
 H159 H 0.35704 0.65595 -0.08902
 H160 H 0.47956 0.56233 -0.21663
 H161 H 0.50105 0.42043 0.10776
 H162 H 0.42026 0.36242 0.16497
 H163 H 0.27733 0.43977 0.04377
 H164 H 0.36074 0.49518 -0.01056
 C165 C 0.65291 0.37607 -0.06723
 C166 C 0.59088 0.63148 0.15711
 C167 C 0.34173 0.39699 0.10993
 C168 C 0.41318 0.61286 -0.16046
 C169 C 0.25144 -0.22493 -0.21928
 C170 C 0.30083 -0.19158 -0.19537
 C171 C 0.27441 -0.15653 -0.15127
 C172 C 0.21050 -0.16977 -0.15174
 O173 O 0.19631 -0.21051 -0.19354
 H174 H 0.35018 -0.19235 -0.20927
 H175 H 0.29886 -0.12373 -0.12383
 C176 C 0.19172 0.25308 0.29445
 C177 C 0.16057 0.20628 0.32328
 C178 C 0.11912 0.23155 0.36391
 C179 C 0.12879 0.29200 0.35807
 O180 O 0.17331 0.30496 0.31657
 H181 H 0.16853 0.15932 0.31679
 H182 H 0.08742 0.20828 0.39549
 C183 C 0.74790 -0.20167 0.30929
 C184 C 0.79889 -0.17895 0.34161
 C185 C 0.77355 -0.14047 0.38343
 C186 C 0.70886 -0.14158 0.37296
 O187 O 0.69356 -0.17811 0.32754
 H188 H 0.84868 -0.18831 0.33446
 H189 H 0.79976 -0.11387 0.41620
 C190 C 0.74070 0.28062 -0.16396
 C191 C 0.79071 0.29921 -0.12730
 C192 C 0.76469 0.33586 -0.08405
 C193 C 0.70075 0.33807 -0.09799
 O194 O 0.68650 0.30502 -0.14661
 H195 H 0.84061 0.28947 -0.13288
 H196 H 0.79013 0.35943 -0.04824
 C197 C -0.19462 0.20723 -0.22594
 C198 C -0.16767 0.18544 -0.27996
 C199 C -0.12087 0.14779 -0.26070
 C200 C -0.12329 0.14812 -0.19616
 O201 O -0.16850 0.18350 -0.17526
 H202 H -0.18171 0.19471 -0.32777
 H203 H -0.09019 0.12223 -0.29061
 C204 C -0.19324 0.71406 0.25993
 C205 C -0.16382 0.68634 0.21050
 C206 C -0.12477 0.64494 0.23680
 C207 C -0.13396 0.64925 0.30058
 O208 O -0.17582 0.69087 0.31450
 H209 H -0.17140 0.69424 0.16105
 H210 H -0.09444 0.61466 0.21184
 C211 C 0.30584 0.24082 0.29224
 C212 C 0.33413 0.28724 0.32319
 C213 C 0.37811 0.26173 0.36157
 C214 C 0.37289 0.20135 0.35225
 O215 O 0.32897 0.18869 0.31036
 H216 H 0.32260 0.33396 0.31947
 H217 H 0.40911 0.28466 0.39343
 C218 C 0.31339 0.69662 -0.26073
 C219 C 0.34572 0.66636 -0.30685
 C220 C 0.38932 0.63204 -0.27610
 C221 C 0.37993 0.64276 -0.21327
 O222 O 0.33363 0.68124 -0.20412
 H223 H 0.33733 0.66805 -0.35677
 H224 H 0.42233 0.60163 -0.29738
 C225 C -0.23805 -0.20119 0.19698
 C226 C -0.28616 -0.17090 0.16652
 C227 C -0.25684 -0.13548 0.12342
 C228 C -0.19267 -0.14581 0.13123
 O229 O -0.18133 -0.18508 0.17637
 H230 H -0.33655 -0.17344 0.17572
 H231 H -0.27993 -0.10462 0.09168
 C232 C -0.25351 0.29143 0.72333
 C233 C -0.30618 0.32114 0.70051
 C234 C -0.28359 0.36041 0.65682
 C235 C -0.21861 0.35241 0.65673
 O236 O -0.20057 0.31108 0.69740
 H237 H -0.35505 0.31520 0.71466
 H238 H -0.31141 0.39154 0.62939
 C239 C 0.26416 -0.22974 0.67362
 C240 C 0.21390 -0.20456 0.64089
 C241 C 0.24015 -0.16432 0.60058
 C242 C 0.30452 -0.16622 0.61231
 O243 O 0.31892 -0.20546 0.65667
 H244 H 0.16375 -0.21236 0.64781
 H245 H 0.21459 -0.13557 0.56852
 C246 C 0.25298 0.30091 0.20766
 C247 C 0.20233 0.32671 0.17663
 C248 C 0.22815 0.36743 0.13654
 C249 C 0.29296 0.36293 0.14504
 O250 O 0.30791 0.32238 0.18787
 H251 H 0.15261 0.31581 0.18151
 H252 H 0.20235 0.39587 0.10438
 C253 C 0.24190 0.19420 0.20793
 C254 C 0.29146 0.17303 0.17220
 C255 C 0.26495 0.13402 0.13202
 C256 C 0.20106 0.13433 0.14565
 O257 O 0.18678 0.17091 0.19143
 H258 H 0.34060 0.18675 0.17347
 H259 H 0.28901 0.10951 0.09585
 C260 C 0.20461 0.69348 0.72641
 C261 C 0.17854 0.66411 0.77762
 C262 C 0.13534 0.62575 0.75400
 C263 C 0.13855 0.63309 0.68984
 O264 O 0.18120 0.67335 0.67308
 H265 H 0.19102 0.66901 0.82637
 H266 H 0.10678 0.59478 0.78078
 C267 C 0.69080 0.20344 0.76861
 C268 C 0.65638 0.17757 0.81674
 C269 C 0.61619 0.13869 0.78879
 C270 C 0.62954 0.14296 0.72564
 O271 O 0.67499 0.18182 0.71365
 H272 H 0.66109 0.18502 0.86640
 H273 H 0.58237 0.11009 0.81223
 C274 C 0.69300 0.72098 0.24632
 C275 C 0.65847 0.69732 0.29554
 C276 C 0.61382 0.66217 0.26899
 C277 C 0.62485 0.66583 0.20533
 O278 O 0.67330 0.70096 0.19175
 H279 H 0.66620 0.70358 0.34503
 H280 H 0.57922 0.63552 0.29383
   
