data_POSCAR
  _audit_creation_date              2014-09-24
  _audit_creation_method            'ToBaCCo'
  _symmetry_space_group_name_H-M    'P1'
  _symmetry_Int_Tables_number       1
  _symmetry_cell_setting            triclinic
  loop_
  _symmetry_equiv_pos_as_xyz
 x,y,z
_cell_length_a 45.9406
_cell_length_b 47.0677
_cell_length_c 39.9199
_cell_angle_alpha 89.845800
_cell_angle_beta 90.716100
_cell_angle_gamma 121.007200
loop_
  _atom_site_label
  _atom_site_type_symbol
  _atom_site_fract_x
  _atom_site_fract_y
  _atom_site_fract_z
O1 O 0.03556 0.49125 0.02796
 O2 O 0.00231 0.52915 -0.03005
 O3 O 0.03557 0.54669 0.02720
 O4 O 0.00252 0.47438 -0.02931
 O5 O -0.04615 0.45032 -0.00247
 O6 O -0.01304 0.52223 0.05417
 O7 O -0.04615 0.50530 -0.00281
 O8 O -0.01319 0.46683 0.05467
 Cu9 Cu 0.02396 0.51287 -0.00364
 Cu10 Cu -0.03444 0.48377 0.02869
 C11 C 0.01679 0.47257 0.05123
 C12 C -0.02779 0.52321 -0.02664
 C13 C 0.01687 0.54667 0.05040
 C14 C -0.02773 0.45026 -0.02588
 O15 O 0.51006 0.54756 0.01007
 O16 O 0.46806 0.47900 -0.05115
 O17 O 0.45166 0.49315 0.00589
 O18 O 0.52611 0.53475 -0.04859
 O19 O 0.54831 0.50822 -0.02365
 O20 O 0.47461 0.46800 0.03237
 O21 O 0.49011 0.45293 -0.02491
 O22 O 0.53353 0.52211 0.03490
 Cu23 Cu 0.48687 0.51631 -0.02362
 Cu24 Cu 0.51396 0.48526 0.00720
 C25 C 0.52854 0.54619 0.03324
 C26 C 0.47187 0.45422 -0.04832
 C27 C 0.45069 0.47392 0.02875
 C28 C 0.54961 0.52821 -0.04591
 O29 O 0.49335 1.04819 -0.01616
 O30 O 0.53081 1.01555 0.04267
 O31 O 0.54836 1.04554 -0.01548
 O32 O 0.47359 1.01438 0.03889
 O33 O 0.44822 0.96724 0.01052
 O34 O 0.52369 0.99720 -0.04156
 O35 O 0.50447 0.96718 0.01656
 O36 O 0.46921 1.00112 -0.04463
 Cu37 Cu 0.51416 1.03565 0.01527
 Cu38 Cu 0.48403 0.97844 -0.01756
 C39 C 0.47521 1.03048 -0.04054
 C40 C 0.52347 0.98572 0.04028
 C41 C 0.54851 1.02663 -0.03813
 C42 C 0.44810 0.98546 0.03375
 O43 O 1.05124 0.55210 0.46991
 O44 O 1.02625 0.48520 0.53144
 O45 O 1.05049 0.49657 0.47073
 O46 O 1.02681 0.54066 0.53037
 O47 O 0.97471 0.51458 0.50921
 O48 O 0.99838 0.47050 0.44969
 O49 O 0.97411 0.45932 0.51038
 O50 O 0.99913 0.52610 0.44878
 Cu51 Cu 1.04395 0.52122 0.50270
 Cu52 Cu 0.98137 0.48999 0.47737
 C53 C 1.02951 0.55038 0.44873
 C54 C 0.99577 0.46112 0.53171
 C55 C 1.02860 0.47630 0.44977
 C56 C 0.99658 0.53483 0.53016
 O57 O 0.51758 0.53785 0.54940
 O58 O 0.44273 0.49156 0.49439
 O59 O 0.45989 0.48241 0.55398
 O60 O 0.50080 0.54618 0.48862
 O61 O 0.52376 0.51900 0.46755
 O62 O 0.48221 0.45496 0.53207
 O63 O 0.46531 0.46432 0.47255
 O64 O 0.53997 0.51013 0.52835
 Cu65 Cu 0.47812 0.51738 0.52374
 Cu66 Cu 0.50521 0.48448 0.49795
 C67 C 0.54120 0.53141 0.54876
 C68 C 0.44128 0.47019 0.47406
 C69 C 0.46410 0.45776 0.55406
 C70 C 0.51886 0.54316 0.46668
 O71 O 0.54072 0.02629 0.53188
 O72 O 0.46812 -0.00413 0.47327
 O73 O 0.48264 0.02354 0.53163
 O74 O 0.52631 -0.00054 0.47162
 O75 O 0.50164 -0.05047 0.49392
 O76 O 0.45974 -0.02563 0.55554
 O77 O 0.44399 -0.05346 0.49702
 O78 O 0.51757 -0.02352 0.55431
 Cu79 Cu 0.50710 0.01633 0.49985
 Cu80 Cu 0.47868 -0.04319 0.52764
 C81 C 0.54127 0.00664 0.55341
 C82 C 0.44361 -0.03392 0.47530
 C83 C 0.46354 0.00302 0.55357
 C84 C 0.52041 -0.03001 0.47168
 C85 C 0.16706 0.42638 0.21643
 C86 C 0.15309 0.42856 0.24666
 C87 C 0.16490 0.42440 0.27771
 C88 C 0.19116 0.41707 0.27867
 C89 C 0.20628 0.41557 0.24844
 C90 C 0.19423 0.42025 0.21722
 C91 C 0.20963 0.41854 0.18767
 C92 C 0.23703 0.41362 0.18875
 C93 C 0.24971 0.40931 0.21939
 C94 C 0.23392 0.40995 0.24952
 C95 C 0.20252 0.41089 0.30914
 C96 C 0.22944 0.40538 0.31020
 C97 C 0.24625 0.40584 0.28085
 C98 C 0.27482 0.40197 0.28209
 C99 C 0.28988 0.40117 0.25211
 C100 C 0.27826 0.40530 0.22087
 H101 H 0.20083 0.42109 0.16324
 H102 H 0.24817 0.41347 0.16513
 H103 H 0.19051 0.40983 0.33261
 H104 H 0.23664 0.40043 0.33444
 H105 H 0.13406 0.43561 0.24604
 H106 H 0.31185 0.39844 0.25310
 C107 C 0.54075 0.83081 0.22008
 C108 C 0.53931 0.84401 0.25108
 C109 C 0.54010 0.82931 0.28142
 C110 C 0.54278 0.80064 0.28085
 C111 C 0.54368 0.78660 0.24976
 C112 C 0.54312 0.80195 0.21933
 C113 C 0.54547 0.78828 0.18892
 C114 C 0.54660 0.75931 0.18829
 C115 C 0.54537 0.74267 0.21804
 C116 C 0.54476 0.75689 0.24911
 C117 C 0.54507 0.78584 0.31064
 C118 C 0.54598 0.75680 0.31000
 C119 C 0.54480 0.74129 0.27954
 C120 C 0.54416 0.71089 0.27884
 C121 C 0.54458 0.69708 0.24790
 C122 C 0.54523 0.71248 0.21753
 H123 H 0.54680 0.79994 0.16515
 H124 H 0.54874 0.75036 0.16408
 H125 H 0.54658 0.79664 0.33493
 H126 H 0.54802 0.74693 0.33382
 H127 H 0.53548 0.86487 0.25157
 H128 H 0.54226 0.67299 0.24739
 C129 C 0.26984 0.87817 0.28042
 C130 C 0.28107 0.89562 0.25036
 C131 C 0.27018 0.87993 0.21914
 C132 C 0.24390 0.84617 0.21777
 C133 C 0.23055 0.82837 0.24805
 C134 C 0.24366 0.84440 0.27947
 C135 C 0.23068 0.82599 0.30899
 C136 C 0.20531 0.79274 0.30786
 C137 C 0.19239 0.77611 0.27715
 C138 C 0.20494 0.79413 0.24692
 C139 C 0.23102 0.82948 0.18707
 C140 C 0.20546 0.79622 0.18600
 C141 C 0.19231 0.77790 0.21557
 C142 C 0.16676 0.74385 0.21464
 C143 C 0.15465 0.72657 0.24479
 C144 C 0.16717 0.74200 0.27593
 H145 H 0.23978 0.83693 0.33348
 H146 H 0.19593 0.78037 0.33156
 H147 H 0.24034 0.84183 0.16339
 H148 H 0.19619 0.78514 0.16157
 H149 H 0.29955 0.92195 0.25130
 H150 H 0.13649 0.70015 0.24394
 C151 C 0.73116 0.56657 0.72123
 C152 C 0.71751 0.56497 0.75283
 C153 C 0.73505 0.56650 0.78245
 C154 C 0.76755 0.56999 0.78040
 C155 C 0.78171 0.57156 0.74856
 C156 C 0.76359 0.57013 0.71896
 C157 C 0.77857 0.57271 0.68774
 C158 C 0.80967 0.57464 0.68549
 C159 C 0.82731 0.57427 0.71436
 C160 C 0.81384 0.57398 0.74627
 C161 C 0.78637 0.57207 0.80931
 C162 C 0.81775 0.57443 0.80709
 C163 C 0.83204 0.57537 0.77583
 C164 C 0.86355 0.57682 0.77331
 C165 C 0.87609 0.57656 0.74151
 C166 C 0.85821 0.57460 0.71207
 H167 H 0.76655 0.57348 0.66456
 H168 H 0.81988 0.57695 0.66071
 H169 H 0.77719 0.57200 0.83413
 H170 H 0.83036 0.57509 0.83036
 H171 H 0.69190 0.56035 0.75435
 H172 H 0.89984 0.57708 0.73969
 C173 C 0.41770 0.26667 0.72102
 C174 C 0.42078 0.28052 0.75280
 C175 C 0.41956 0.26357 0.78219
 C176 C 0.41534 0.23160 0.77977
 C177 C 0.41223 0.21717 0.74775
 C178 C 0.41309 0.23462 0.71835
 C179 C 0.40907 0.21943 0.68697
 C180 C 0.40608 0.18862 0.68433
 C181 C 0.40670 0.17151 0.71297
 C182 C 0.40885 0.18543 0.74506
 C183 C 0.41408 0.21359 0.80846
 C184 C 0.41115 0.18273 0.80583
 C185 C 0.40856 0.16813 0.77440
 C186 C 0.40659 0.13716 0.77139
 C187 C 0.40407 0.12378 0.73942
 C188 C 0.40481 0.14067 0.71025
 H189 H 0.40794 0.23104 0.66397
 H190 H 0.40290 0.17821 0.65948
 H191 H 0.41535 0.22307 0.83341
 H192 H 0.41117 0.17066 0.82888
 H193 H 0.42638 0.30581 0.75464
 H194 H 0.40272 0.10022 0.73720
 C195 C 0.85905 0.29042 0.77972
 C196 C 0.87151 0.30422 0.74816
 C197 C 0.85461 0.28792 0.71845
 C198 C 0.82427 0.25656 0.72026
 C199 C 0.81074 0.24261 0.75196
 C200 C 0.82841 0.25933 0.78172
 C201 C 0.81510 0.24427 0.81275
 C202 C 0.78413 0.21463 0.81464
 C203 C 0.76516 0.19859 0.78558
 C204 C 0.77916 0.21208 0.75389
 C205 C 0.80720 0.23856 0.69118
 C206 C 0.77651 0.20866 0.69307
 C207 C 0.76143 0.19543 0.72412
 C208 C 0.72936 0.16580 0.72613
 C209 C 0.71557 0.15328 0.75768
 C210 C 0.73280 0.16926 0.78741
 H211 H 0.82849 0.25505 0.83607
 H212 H 0.77553 0.20432 0.83928
 H213 H 0.81749 0.24711 0.66651
 H214 H 0.76490 0.19600 0.66975
 H215 H 0.89353 0.32900 0.74676
 H216 H 0.69008 0.13193 0.75904
 C217 C 0.02965 0.45756 0.07502
 C218 C 0.06313 0.46462 0.07454
 C219 C 0.07754 0.45231 0.10021
 C220 C 0.11278 0.46989 0.10590
 C221 C 0.12721 0.46008 0.13104
 C222 C 0.10661 0.43207 0.15076
 C223 C 0.07147 0.41399 0.14442
 C224 C 0.05705 0.42382 0.11932
 C225 C 0.12023 0.42207 0.17935
 C226 C 0.15465 0.43350 0.18479
 H227 H 0.08022 0.48187 0.05606
 H228 H 0.12913 0.49186 0.09145
 H229 H 0.15429 0.47516 0.13544
 H230 H 0.05502 0.39227 0.15914
 H231 H 0.02993 0.40894 0.11502
 H232 H 0.10217 0.40486 0.19727
 H233 H 0.01264 0.44205 0.09445
 H234 H 0.17295 0.44830 0.16598
 C235 C 0.54349 0.57188 0.05947
 C236 C 0.53431 0.59575 0.06296
 C237 C 0.54319 0.61783 0.09261
 C238 C 0.53776 0.64454 0.09084
 C239 C 0.54335 0.66457 0.11886
 C240 C 0.55418 0.65804 0.14951
 C241 C 0.56050 0.63192 0.15108
 C242 C 0.55486 0.61185 0.12309
 C243 C 0.55893 0.67762 0.18028
 C244 C 0.54227 0.69501 0.18559
 H245 H 0.51868 0.59757 0.04352
 H246 H 0.52888 0.64980 0.06770
 H247 H 0.53926 0.68513 0.11625
 H248 H 0.56896 0.62644 0.17436
 H249 H 0.55872 0.59120 0.12599
 H250 H 0.57483 0.67696 0.20017
 H251 H 0.56031 0.57031 0.07754
 H252 H 0.52551 0.69502 0.16636
 C253 C 0.41822 0.97205 0.05530
 C254 C 0.41739 0.98903 0.08346
 C255 C 0.39119 0.97294 0.10944
 C256 C 0.35826 0.94623 0.10225
 C257 C 0.33541 0.92959 0.12815
 C258 C 0.34516 0.93949 0.16161
 C259 C 0.37751 0.96698 0.16850
 C260 C 0.40014 0.98373 0.14267
 C261 C 0.32389 0.92048 0.19020
 C262 C 0.28863 0.89906 0.18893
 H263 H 0.43902 1.01347 0.08884
 H264 H 0.35021 0.93782 0.07676
 H265 H 0.31082 0.90830 0.12195
 H266 H 0.38558 0.97510 0.19410
 H267 H 0.42525 1.00435 0.14884
 H268 H 0.33720 0.92331 0.21370
 H269 H 0.39780 0.94691 0.05044
 H270 H 0.27485 0.89599 0.16580
 C271 C 0.98681 0.55115 0.55524
 C272 C 0.95304 0.54248 0.55898
 C273 C 0.94097 0.55396 0.58715
 C274 C 0.90684 0.53453 0.59635
 C275 C 0.89449 0.54345 0.62364
 C276 C 0.91595 0.57254 0.64203
 C277 C 0.95000 0.59229 0.63247
 C278 C 0.96243 0.58322 0.60523
 C279 C 0.90425 0.58209 0.67213
 C280 C 0.87001 0.56896 0.67959
 H281 H 0.93400 0.52397 0.54223
 H282 H 0.88982 0.51181 0.58290
 H283 H 0.86838 0.52686 0.63057
 H284 H 0.96711 0.61478 0.64620
 H285 H 0.98870 0.59928 0.59841
 H286 H 0.92340 0.60040 0.68892
 H287 H 1.00617 0.56815 0.57267
 H288 H 0.85086 0.55315 0.66145
 C289 C 0.44818 0.43256 0.58039
 C290 C 0.45156 0.40473 0.58118
 C291 C 0.43893 0.37990 0.60843
 C292 C 0.43767 0.34984 0.60298
 C293 C 0.42807 0.32647 0.62853
 C294 C 0.41988 0.33287 0.66035
 C295 C 0.42016 0.36247 0.66558
 C296 C 0.42980 0.38591 0.64001
 C297 C 0.41141 0.30958 0.68864
 C298 C 0.42307 0.28746 0.69100
 H299 H 0.46437 0.40088 0.56064
 H300 H 0.44437 0.34449 0.57887
 H301 H 0.42702 0.30346 0.62311
 H302 H 0.41382 0.36792 0.68984
 H303 H 0.43096 0.40892 0.64556
 H304 H 0.39722 0.31129 0.70920
 H305 H 0.43390 0.43636 0.59934
 H306 H 0.43816 0.28637 0.67107
 C307 C 0.56891 0.01886 0.57852
 C308 C 0.59404 0.05236 0.58091
 C309 C 0.61903 0.06697 0.60894
 C310 C 0.64733 0.09899 0.60517
 C311 C 0.67031 0.11475 0.63167
 C312 C 0.66519 0.09891 0.66284
 C313 C 0.63739 0.06658 0.66638
 C314 C 0.61439 0.05079 0.63985
 C315 C 0.68802 0.11526 0.69212
 C316 C 0.70835 0.14964 0.69568
 H317 H 0.59503 0.06905 0.56158
 H318 H 0.65159 0.11198 0.58162
 H319 H 0.69202 0.13920 0.62745
 H320 H 0.63293 0.05378 0.69007
 H321 H 0.59261 0.02643 0.64419
 H322 H 0.68764 0.09966 0.71232
 H323 H 0.56829 0.00119 0.59628
 H324 H 0.70818 0.16554 0.67621
 C325 C 0.46184 0.04497 0.93568
 C326 C 0.44699 0.03002 0.90509
 C327 C 0.43903 0.04733 0.87887
 C328 C 0.44184 0.04092 0.84519
 C329 C 0.43722 0.05873 0.81979
 C330 C 0.42893 0.08277 0.82750
 C331 C 0.42485 0.08841 0.86121
 C332 C 0.42985 0.07081 0.88668
 C333 C 0.42670 0.10249 0.79981
 C334 C 0.40831 0.11865 0.80089
 H335 H 0.44490 0.00667 0.89867
 H336 H 0.44873 0.02286 0.83854
 H337 H 0.44049 0.05393 0.79399
 H338 H 0.41891 0.10704 0.86811
 H339 H 0.42670 0.07577 0.91242
 H340 H 0.44005 0.10392 0.77710
 H341 H 0.46659 0.06950 0.94131
 H342 H 0.39470 0.11736 0.82327
 C343 C 0.57642 0.54276 0.93163
 C344 C 0.60214 0.53519 0.93109
 C345 C 0.62784 0.54664 0.90431
 C346 C 0.64291 0.52793 0.89729
 C347 C 0.66565 0.53660 0.87089
 C348 C 0.67423 0.56463 0.85116
 C349 C 0.65987 0.58388 0.85882
 C350 C 0.63709 0.57516 0.88520
 C351 C 0.69619 0.57343 0.82136
 C352 C 0.71735 0.56094 0.81489
 H353 H 0.60157 0.51764 0.94911
 H354 H 0.63626 0.50587 0.91166
 H355 H 0.67542 0.52059 0.86552
 H356 H 0.66610 0.60563 0.84412
 H357 H 0.62690 0.59086 0.89044
 H358 H 0.69564 0.59058 0.80357
 H359 H 0.57574 0.55895 0.91276
 H360 H 0.72066 0.54622 0.83363
 C361 C 0.95834 0.42368 0.95167
 C362 C 0.97589 0.42252 0.92380
 C363 C 0.95970 0.39733 0.89676
 C364 C 0.97501 0.40437 0.86519
 C365 C 0.95948 0.38232 0.83838
 C366 C 0.92822 0.35284 0.84253
 C367 C 0.91366 0.34494 0.87450
 C368 C 0.92926 0.36690 0.90136
 C369 C 0.91151 0.33099 0.81315
 C370 C 0.87628 0.31042 0.81022
 H371 H 1.00174 0.44264 0.91999
 H372 H 0.99867 0.42739 0.86102
 H373 H 0.97147 0.38873 0.81411
 H374 H 0.89038 0.32171 0.87900
 H375 H 0.91736 0.35971 0.92556
 H376 H 0.92731 0.33258 0.79247
 H377 H 0.93214 0.40448 0.95528
 H378 H 0.86052 0.30994 0.83035
 C379 C 0.53371 0.96003 0.44612
 C380 C 0.52476 0.92700 0.44195
 C381 C 0.53202 0.91433 0.41117
 C382 C 0.51015 0.88101 0.40229
 C383 C 0.51496 0.86817 0.37278
 C384 C 0.54236 0.88829 0.35171
 C385 C 0.56445 0.92160 0.36076
 C386 C 0.55946 0.93452 0.39023
 C387 C 0.54825 0.87564 0.32001
 C388 C 0.53435 0.84194 0.31321
 H389 H 0.50822 0.90883 0.46011
 H390 H 0.48868 0.86499 0.41786
 H391 H 0.49661 0.84270 0.36645
 H392 H 0.58575 0.93766 0.34504
 H393 H 0.57730 0.96016 0.39660
 H394 H 0.56547 0.89354 0.30205
 H395 H 0.54888 0.97817 0.42737
 H396 H 0.51927 0.82394 0.33199
 C397 C 0.41148 0.45281 0.45173
 C398 C 0.40829 0.42977 0.42779
 C399 C 0.38092 0.41577 0.40198
 C400 C 0.38637 0.40402 0.37183
 C401 C 0.36249 0.39353 0.34567
 C402 C 0.33280 0.39471 0.34913
 C403 C 0.32624 0.40436 0.38007
 C404 C 0.35002 0.41471 0.40627
 C405 C 0.30999 0.38713 0.31977
 C406 C 0.29187 0.40319 0.31440
 H407 H 0.42831 0.42415 0.42594
 H408 H 0.40970 0.40406 0.36808
 H409 H 0.36787 0.38574 0.32220
 H410 H 0.30284 0.40409 0.38409
 H411 H 0.34405 0.42194 0.42968
 H412 H 0.31020 0.37115 0.30044
 H413 H 0.39277 0.46016 0.45302
 H414 H 0.29269 0.41984 0.33351
 C415 C 0.03944 0.57631 0.42325
 C416 C 0.07299 0.60232 0.42017
 C417 C 0.08494 0.62692 0.39271
 C418 C 0.11971 0.64467 0.38547
 C419 C 0.13211 0.66738 0.35917
 C420 C 0.10995 0.67321 0.33975
 C421 C 0.07523 0.65575 0.34722
 C422 C 0.06281 0.63300 0.37354
 C423 C 0.12182 0.69609 0.31081
 C424 C 0.15558 0.72125 0.30656
 H425 H 0.09196 0.60341 0.43741
 H426 H 0.13731 0.64043 0.39979
 H427 H 0.15889 0.67956 0.35373
 H428 H 0.05762 0.65978 0.33266
 H429 H 0.03598 0.62054 0.37880
 H430 H 0.10303 0.69358 0.29247
 H431 H 0.02015 0.57346 0.40549
 H432 H 0.17410 0.72605 0.32605
 C433 C 0.95761 0.53595 0.94885
 C434 C 0.97300 0.54872 0.91811
 C435 C 0.95535 0.55423 0.88987
 C436 C 0.96346 0.55038 0.85710
 C437 C 0.94570 0.55292 0.82977
 C438 C 0.92000 0.56015 0.83456
 C439 C 0.91251 0.56508 0.86733
 C440 C 0.93005 0.56215 0.89477
 C441 C 0.90039 0.56037 0.80501
 C442 C 0.88355 0.57801 0.80344
 H443 H 0.99709 0.55066 0.91308
 H444 H 0.98290 0.54436 0.85268
 H445 H 0.95187 0.54895 0.80477
 H446 H 0.89246 0.57014 0.87200
 H447 H 0.92365 0.56594 0.91969
 H448 H 0.89939 0.54595 0.78346
 H449 H 0.93245 0.53149 0.95353
 H450 H 0.88510 0.59303 0.82459
 C451 C 0.45527 0.42706 0.92707
 C452 C 0.46040 0.40028 0.92753
 C453 C 0.44708 0.37419 0.90133
 C454 C 0.46350 0.35637 0.89640
 C455 C 0.45282 0.33261 0.87094
 C456 C 0.42499 0.32578 0.85009
 C457 C 0.40798 0.34296 0.85569
 C458 C 0.41876 0.36683 0.88107
 C459 C 0.41422 0.30271 0.82110
 C460 C 0.42619 0.28133 0.81472
 H461 H 0.47710 0.39969 0.94659
 H462 H 0.48531 0.36150 0.91176
 H463 H 0.46716 0.32054 0.86734
 H464 H 0.38642 0.33817 0.84009
 H465 H 0.40477 0.37929 0.88471
 H466 H 0.39640 0.30311 0.80333
 H467 H 0.44032 0.42935 0.90729
 H468 H 0.44164 0.27823 0.83322
 C469 C 0.57540 0.03805 0.93964
 C470 C 0.60227 0.07095 0.93916
 C471 C 0.62728 0.08444 0.91176
 C472 C 0.64253 0.11815 0.90381
 C473 C 0.66434 0.13138 0.87659
 C474 C 0.67187 0.11119 0.85700
 C475 C 0.65735 0.07767 0.86557
 C476 C 0.63544 0.06442 0.89275
 C477 C 0.69308 0.12362 0.82661
 C478 C 0.71490 0.15721 0.81979
 H479 H 0.60281 0.08834 0.95728
 H480 H 0.63665 0.13409 0.91804
 H481 H 0.67420 0.15712 0.87052
 H482 H 0.66277 0.06158 0.85102
 H483 H 0.62501 0.03854 0.89870
 H484 H 0.69172 0.10549 0.80898
 H485 H 0.57365 0.02097 0.92052
 H486 H 0.71887 0.17547 0.83846
 C487 C 0.03762 0.46066 0.42595
 C488 C 0.07084 0.46719 0.42321
 C489 C 0.08244 0.45466 0.39548
 C490 C 0.11726 0.47135 0.38855
 C491 C 0.12943 0.46142 0.36190
 C492 C 0.10698 0.43411 0.34178
 C493 C 0.07218 0.41714 0.34892
 C494 C 0.05998 0.42711 0.37562
 C495 C 0.11877 0.42371 0.31243
 C496 C 0.15233 0.43163 0.30877
 H497 H 0.09005 0.48451 0.44067
 H498 H 0.13510 0.49271 0.40337
 H499 H 0.15628 0.47586 0.35672
 H500 H 0.05436 0.39605 0.33381
 H501 H 0.03308 0.41300 0.38058
 H502 H 0.10020 0.40866 0.29336
 H503 H 0.01830 0.44438 0.40809
 H504 H 0.17026 0.44386 0.32912
 C505 C 0.53355 0.56710 0.43910
 C506 C 0.52615 0.59213 0.43438
 C507 C 0.53587 0.61364 0.40434
 C508 C 0.53294 0.64186 0.40539
 C509 C 0.53959 0.66171 0.37709
 C510 C 0.54894 0.65350 0.34682
 C511 C 0.55279 0.62583 0.34596
 C512 C 0.54610 0.60591 0.37429
 C513 C 0.55476 0.67317 0.31591
 C514 C 0.53929 0.69165 0.30996
 H515 H 0.51175 0.59577 0.45343
 H516 H 0.52528 0.64850 0.42820
 H517 H 0.53754 0.68352 0.37918
 H518 H 0.56012 0.61908 0.32300
 H519 H 0.54806 0.58410 0.37203
 H520 H 0.57066 0.67204 0.29679
 H521 H 0.54924 0.56376 0.42150
 H522 H 0.52220 0.69155 0.32838
 C523 C 0.41463 0.95352 0.45186
 C524 C 0.41381 0.97306 0.42598
 C525 C 0.38843 0.95949 0.39841
 C526 C 0.39790 0.97437 0.36684
 C527 C 0.37592 0.96063 0.33936
 C528 C 0.34372 0.93219 0.34303
 C529 C 0.33349 0.91805 0.37496
 C530 C 0.35570 0.93162 0.40246
 C531 C 0.32312 0.91653 0.31255
 C532 C 0.28784 0.89540 0.31195
 H533 H 0.43480 0.99836 0.42371
 H534 H 0.42289 0.99597 0.36314
 H535 H 0.38437 0.97192 0.31498
 H536 H 0.30902 0.89583 0.37857
 H537 H 0.34730 0.92004 0.42668
 H538 H 0.33689 0.92143 0.28936
 H539 H 0.39494 0.92767 0.45365
 H540 H 0.27375 0.89083 0.33478
 C541 C 0.53658 0.97284 0.06626
 C542 C 0.52515 0.93915 0.06943
 C543 C 0.53361 0.92495 0.09860
 C544 C 0.52829 0.89288 0.09596
 C545 C 0.53429 0.87794 0.12339
 C546 C 0.54538 0.89470 0.15433
 C547 C 0.55119 0.92693 0.15683
 C548 C 0.54515 0.94185 0.12944
 C549 C 0.55118 0.87962 0.18443
 C550 C 0.53631 0.84547 0.18883
 H551 H 0.50870 0.92227 0.05000
 H552 H 0.51941 0.87929 0.07254
 H553 H 0.53046 0.85346 0.12002
 H554 H 0.55972 0.94040 0.18034
 H555 H 0.54870 0.96619 0.13304
 H556 H 0.56671 0.89606 0.20456
 H557 H 0.55438 0.99046 0.08436
 H558 H 0.52004 0.82867 0.16938
 C559 C 0.42186 0.45947 0.05178
 C560 C 0.42218 0.44365 0.08124
 C561 C 0.39745 0.43570 0.10829
 C562 C 0.40800 0.43617 0.14148
 C563 C 0.38645 0.43146 0.16798
 C564 C 0.35360 0.42541 0.16185
 C565 C 0.34245 0.42372 0.12855
 C566 C 0.36422 0.42882 0.10198
 C567 C 0.33280 0.42308 0.19086
 C568 C 0.29732 0.40659 0.19047
 H569 H 0.44377 0.44085 0.08650
 H570 H 0.43342 0.44129 0.14700
 H571 H 0.39562 0.43289 0.19342
 H572 H 0.31746 0.41958 0.12291
 H573 H 0.35502 0.42756 0.07662
 H574 H 0.34638 0.43489 0.21387
 H575 H 0.40178 0.46462 0.04709
 H576 H 0.28340 0.39439 0.16780
 C577 C 0.02968 0.57479 0.07382
 C578 C 0.06299 0.60169 0.07298
 C579 C 0.07731 0.62848 0.09853
 C580 C 0.11261 0.64686 0.10381
 C581 C 0.12696 0.67100 0.12902
 C582 C 0.10620 0.67754 0.14927
 C583 C 0.07101 0.65985 0.14330
 C584 C 0.05668 0.63576 0.11809
 C585 C 0.11979 0.70074 0.17813
 C586 C 0.15402 0.72490 0.18276
 H587 H 0.08002 0.60182 0.05435
 H588 H 0.12908 0.64183 0.08901
 H589 H 0.15411 0.68354 0.13317
 H590 H 0.05445 0.66448 0.15843
 H591 H 0.02949 0.62300 0.11412
 H592 H 0.10191 0.69858 0.19690
 H593 H 0.01275 0.57304 0.09335
 H594 H 0.17193 0.72976 0.16310
 C595 C 0.44553 0.01230 0.57720
 C596 C 0.44509 0.04160 0.57347
 C597 C 0.42901 0.05345 0.59722
 C598 C 0.43516 0.08573 0.59333
 C599 C 0.42241 0.09892 0.61618
 C600 C 0.40326 0.08002 0.64363
 C601 C 0.39561 0.04717 0.64654
 C602 C 0.40831 0.03395 0.62367
 C603 C 0.39228 0.09390 0.67055
 C604 C 0.40828 0.12778 0.67756
 H605 H 0.45841 0.05749 0.55246
 H606 H 0.45045 0.10111 0.57284
 H607 H 0.42787 0.12391 0.61221
 H608 H 0.38054 0.03192 0.66721
 H609 H 0.40196 0.00866 0.62723
 H610 H 0.37353 0.07663 0.68792
 H611 H 0.43269 -0.00442 0.59768
 H612 H 0.42673 0.14558 0.66045
 C613 C 0.56947 0.54810 0.57300
 C614 C 0.59458 0.53992 0.57594
 C615 C 0.61978 0.55136 0.60381
 C616 C 0.64858 0.54863 0.60024
 C617 C 0.67172 0.55673 0.62677
 C618 C 0.66621 0.56729 0.65775
 C619 C 0.63791 0.57089 0.66104
 C620 C 0.61478 0.56282 0.63449
 C621 C 0.68910 0.57445 0.68708
 C622 C 0.70973 0.56089 0.69095
 H623 H 0.59534 0.52359 0.55734
 H624 H 0.65310 0.53997 0.57687
 H625 H 0.69383 0.55475 0.62273
 H626 H 0.63315 0.57908 0.68459
 H627 H 0.59256 0.56458 0.63864
 H628 H 0.68854 0.58971 0.70703
 H629 H 0.56928 0.56591 0.58992
 H630 H 0.70967 0.54471 0.67177
 C631 C 0.98547 0.43573 0.55786
 C632 C 0.95142 0.41151 0.56250
 C633 C 0.93897 0.38906 0.59175
 C634 C 0.90494 0.37523 0.60088
 C635 C 0.89223 0.35496 0.62902
 C636 C 0.91324 0.34753 0.64842
 C637 C 0.94722 0.36104 0.63905
 C638 C 0.95998 0.38148 0.61092
 C639 C 0.90105 0.32708 0.67916
 C640 C 0.86670 0.30574 0.68611
 H641 H 0.93255 0.41098 0.54553
 H642 H 0.88825 0.38078 0.58663
 H643 H 0.86622 0.34602 0.63577
 H644 H 0.96396 0.35576 0.65354
 H645 H 0.98615 0.39101 0.60427
 H646 H 0.91989 0.32834 0.69668
 H647 H 1.00477 0.43817 0.57540
 H648 H 0.84782 0.30206 0.66748
   
