data_POSCAR
  _audit_creation_date              2014-09-24
  _audit_creation_method            'ToBaCCo'
  _symmetry_space_group_name_H-M    'P1'
  _symmetry_Int_Tables_number       1
  _symmetry_cell_setting            triclinic
  loop_
  _symmetry_equiv_pos_as_xyz
 x,y,z
_cell_length_a 40.3041
_cell_length_b 40.2990
_cell_length_c 40.2470
_cell_angle_alpha 89.269100
_cell_angle_beta 82.927600
_cell_angle_gamma 89.060200
loop_
  _atom_site_label
  _atom_site_type_symbol
  _atom_site_fract_x
  _atom_site_fract_y
  _atom_site_fract_z
O1 O 0.53192 0.49645 0.03015
 O2 O 0.44115 0.49871 0.02771
 O3 O 0.48606 0.45168 0.02776
 O4 O 0.48645 0.54333 0.02811
 O5 O 0.49404 0.54372 -0.02712
 O6 O 0.49563 0.45275 -0.02739
 O7 O 0.44910 0.49813 -0.02745
 O8 O 0.54034 0.49844 -0.02504
 Cu9 Cu 0.48572 0.49742 0.03398
 Cu10 Cu 0.49566 0.49830 -0.03227
 C11 C 0.55170 0.49739 0.00306
 C12 C 0.42942 0.49870 -0.00018
 C13 C 0.49071 0.43658 -0.00001
 C14 C 0.48992 0.55916 0.00040
 O15 O -0.02495 0.54878 0.51395
 O16 O -0.02588 0.45714 0.51209
 O17 O -0.02367 0.50102 0.55793
 O18 O -0.02896 0.50473 0.46751
 O19 O 0.02607 0.50150 0.45740
 O20 O 0.03144 0.50184 0.54823
 O21 O 0.02925 0.45621 0.50336
 O22 O 0.02989 0.54734 0.50207
 Cu23 Cu -0.03140 0.50311 0.51371
 Cu24 Cu 0.03467 0.50166 0.50170
 C25 C 0.00274 0.56381 0.50834
 C26 C 0.00169 0.44102 0.50793
 C27 C 0.00469 0.50097 0.56856
 C28 C -0.00243 0.50326 0.44699
 O29 O 0.51391 0.02636 0.53067
 O30 O 0.51808 0.02766 0.43883
 O31 O 0.46998 0.02741 0.48802
 O32 O 0.56207 0.02620 0.48102
 O33 O 0.56200 -0.02856 0.48242
 O34 O 0.47027 -0.02729 0.48687
 O35 O 0.51970 -0.02710 0.43852
 O36 O 0.51298 -0.02829 0.53074
 Cu37 Cu 0.51599 0.03238 0.48471
 Cu38 Cu 0.51619 -0.03329 0.48465
 C39 C 0.51269 -0.00115 0.54657
 C40 C 0.51979 0.00054 0.42293
 C41 C 0.45438 0.00024 0.48822
 C42 C 0.57776 -0.00143 0.48075
 C43 C 0.46028 0.07959 -0.06616
 C44 C 0.46046 0.05575 -0.09017
 C45 C 0.47687 0.02817 -0.07874
 N46 N 0.48537 0.03389 -0.04789
 C47 C 0.47586 0.06553 -0.04047
 C48 C 0.48239 -0.00230 -0.09580
 C49 C 0.47692 -0.03186 -0.07663
 C50 C 0.45707 -0.05770 -0.08439
 C51 C 0.45820 -0.08143 -0.05980
 C52 C 0.47749 -0.06885 -0.03683
 N53 N 0.48832 -0.03825 -0.04685
 C54 C 0.48529 -0.08647 -0.00814
 C55 C 0.49459 -0.07094 0.02050
 C56 C 0.50109 -0.08729 0.04957
 C57 C 0.50556 -0.06325 0.07230
 C58 C 0.50258 -0.03296 0.05612
 N59 N 0.49587 -0.03781 0.02449
 C60 C 0.50625 -0.00160 0.07050
 C61 C 0.50496 0.02884 0.05269
 C62 C 0.51584 0.05874 0.06380
 C63 C 0.50971 0.08248 0.04050
 C64 C 0.49512 0.06652 0.01577
 N65 N 0.49231 0.03379 0.02333
 C66 C 0.48334 0.08264 -0.01200
 H67 H 0.44964 0.10435 -0.06733
 H68 H 0.44889 0.05816 -0.11298
 H69 H 0.47932 0.01680 0.01085
 H70 H 0.44231 -0.05893 -0.10506
 H71 H 0.44542 -0.10492 -0.05843
 H72 H 0.50186 -0.11375 0.05433
 H73 H 0.51041 -0.06781 0.09780
 H74 H 0.51539 0.10856 0.04171
 H75 H 0.50518 -0.02389 -0.03584
 H76 H 0.52721 0.06302 0.08634
 C77 C -0.06261 0.48674 0.92661
 C78 C -0.08875 0.48662 0.95185
 C79 C -0.07585 0.49554 0.98079
 N80 N -0.04269 0.50099 0.97406
 C81 C -0.03447 0.49537 0.94100
 C82 C -0.09505 0.50052 1.01223
 C83 C -0.08076 0.50531 1.04221
 C84 C -0.09830 0.51592 1.07209
 C85 C -0.07618 0.51532 1.09552
 C86 C -0.04554 0.50475 1.07926
 N87 N -0.04866 0.49841 1.04685
 C88 C -0.01637 0.49908 1.09495
 C89 C 0.01585 0.49457 1.07711
 C90 C 0.04441 0.48609 1.09151
 C91 C 0.07050 0.48643 1.06624
 C92 C 0.05718 0.49557 1.03727
 N93 N 0.02379 0.50063 1.04400
 C94 C 0.07610 0.50107 1.00575
 C95 C 0.06146 0.50668 0.97594
 C96 C 0.07848 0.51824 0.94610
 C97 C 0.05642 0.51779 0.92269
 C98 C 0.02631 0.50644 0.93893
 N99 N 0.02969 0.49951 0.97133
 C100 C -0.00245 0.50037 0.92320
 H101 H -0.06434 0.48147 0.90060
 H102 H -0.11440 0.48090 0.94907
 H103 H 0.01265 0.48681 0.98812
 H104 H -0.12446 0.52302 1.07670
 H105 H -0.08220 0.52168 1.12161
 H106 H 0.04647 0.48058 1.11755
 H107 H 0.09638 0.48090 1.06903
 H108 H 0.06220 0.52471 0.89659
 H109 H -0.03098 0.48648 1.02999
 H110 H 0.10430 0.52578 0.94147
 C111 C 0.08994 -0.05620 0.53904
 C112 C 0.06614 -0.08011 0.53895
 C113 C 0.04068 -0.06622 0.52293
 N114 N 0.04804 -0.03462 0.51338
 C115 C 0.07864 -0.02877 0.52232
 C116 C 0.01244 -0.08341 0.51515
 C117 C -0.01524 -0.06724 0.50323
 C118 C -0.03981 -0.08315 0.48841
 C119 C -0.06311 -0.05937 0.48228
 C120 C -0.05215 -0.02947 0.49335
 N121 N -0.02288 -0.03447 0.50611
 C122 C -0.07006 0.00097 0.49219
 C123 C -0.05583 0.03237 0.49587
 C124 C -0.07213 0.06263 0.49284
 C125 C -0.04952 0.08674 0.49719
 C126 C -0.02040 0.07047 0.50370
 N127 N -0.02425 0.03730 0.50254
 C128 C 0.00817 0.08613 0.51286
 C129 C 0.03679 0.06851 0.52090
 C130 C 0.05965 0.08125 0.54021
 C131 C 0.08412 0.05740 0.54172
 C132 C 0.07643 0.03132 0.52204
 N133 N 0.04678 0.03770 0.51041
 C134 C 0.09562 0.00166 0.51682
 H135 H 0.11253 -0.05848 0.55096
 H136 H 0.06727 -0.10478 0.54974
 H137 H 0.03588 0.02317 0.49359
 H138 H -0.04091 -0.10922 0.48260
 H139 H -0.08556 -0.06362 0.47080
 H140 H -0.09761 0.06714 0.48798
 H141 H -0.05439 0.11319 0.49632
 H142 H 0.10469 0.05875 0.55656
 H143 H -0.01058 -0.01745 0.51924
 H144 H 0.05826 0.10491 0.55277
 C145 C -0.34212 0.49865 1.00732
 C146 C -0.35529 0.50756 0.97764
 C147 C -0.38974 0.50674 0.97610
 C148 C -0.41178 0.49744 1.00435
 C149 C -0.39863 0.48858 1.03403
 C150 C -0.36416 0.48895 1.03544
 C151 C -0.30564 0.49959 1.00899
 N152 N -0.29186 0.48350 1.03394
 N153 N -0.25903 0.48426 1.03535
 C154 C -0.23863 0.50136 1.01200
 N155 N -0.25243 0.51755 0.98714
 N156 N -0.28523 0.51662 0.98561
 C157 C -0.20208 0.50196 1.01327
 C158 C -0.18228 0.52570 0.99458
 C159 C -0.14767 0.52571 0.99494
 C160 C -0.13211 0.50168 1.01356
 C161 C -0.15181 0.47822 1.03261
 C162 C -0.18652 0.47847 1.03264
 H163 H -0.33897 0.51500 0.95549
 H164 H -0.39915 0.51379 0.95290
 H165 H -0.41498 0.48121 1.05619
 H166 H -0.35482 0.48202 1.05870
 H167 H -0.19351 0.54429 0.97964
 H168 H -0.13287 0.54415 0.98027
 H169 H -0.14022 0.45946 1.04709
 H170 H -0.20106 0.45983 1.04725
 C171 C 0.32444 0.50114 0.99888
 C172 C 0.33826 0.50386 1.02905
 C173 C 0.37284 0.50271 1.02935
 C174 C 0.39461 0.49941 0.99934
 C175 C 0.38066 0.49696 0.96904
 C176 C 0.34596 0.49750 0.96889
 C177 C 0.28775 0.50204 0.99892
 N178 N 0.27343 0.48875 0.97340
 N179 N 0.24030 0.48903 0.97392
 C180 C 0.22020 0.50284 0.99984
 N181 N 0.23456 0.51633 1.02521
 N182 N 0.26764 0.51583 1.02482
 C183 C 0.18341 0.50282 1.00076
 C184 C 0.16341 0.52542 1.02100
 C185 C 0.12862 0.52512 1.02229
 C186 C 0.11317 0.50180 1.00390
 C187 C 0.13308 0.47922 0.98365
 C188 C 0.16791 0.47989 0.98186
 H189 H 0.32231 0.50648 1.05260
 H190 H 0.38243 0.50472 1.05322
 H191 H 0.39648 0.49435 0.94541
 H192 H 0.33598 0.49547 0.94523
 H193 H 0.17465 0.54352 1.03565
 H194 H 0.11368 0.54294 1.03781
 H195 H 0.12158 0.46105 0.96929
 H196 H 0.18267 0.46208 0.96618
 C197 C 0.00576 -0.33115 0.51235
 C198 C 0.03506 -0.34997 0.50341
 C199 C 0.03402 -0.38454 0.50205
 C200 C 0.00353 -0.40132 0.50929
 C201 C -0.02589 -0.38237 0.51792
 C202 C -0.02474 -0.34774 0.51960
 C203 C 0.00715 -0.29446 0.51402
 N204 N -0.01945 -0.27637 0.52837
 N205 N -0.01806 -0.24340 0.52979
 C206 C 0.00993 -0.22712 0.51682
 N207 N 0.03649 -0.24521 0.50247
 N208 N 0.03516 -0.27816 0.50118
 C209 C 0.01130 -0.19039 0.51766
 C210 C 0.03713 -0.17338 0.49813
 C211 C 0.03774 -0.13872 0.49778
 C212 C 0.01279 -0.12034 0.51722
 C213 C -0.01262 -0.13721 0.53733
 C214 C -0.01347 -0.17190 0.53743
 H215 H 0.05899 -0.33802 0.49774
 H216 H 0.05727 -0.39806 0.49527
 H217 H -0.04987 -0.39423 0.52370
 H218 H -0.04781 -0.33396 0.52643
 H219 H 0.05653 -0.18680 0.48254
 H220 H 0.05740 -0.12616 0.48188
 H221 H -0.03208 -0.12345 0.55253
 H222 H -0.03359 -0.18421 0.55289
 C223 C 0.00339 0.33410 0.51150
 C224 C 0.03224 0.35180 0.49947
 C225 C 0.03157 0.38645 0.49822
 C226 C 0.00194 0.40427 0.50866
 C227 C -0.02706 0.38663 0.52036
 C228 C -0.02629 0.35190 0.52194
 C229 C 0.00443 0.29731 0.51301
 N230 N -0.02098 0.28000 0.53011
 N231 N -0.01988 0.24693 0.53135
 C232 C 0.00663 0.22979 0.51545
 N233 N 0.03201 0.24712 0.49837
 N234 N 0.03097 0.28015 0.49726
 C235 C 0.00763 0.19299 0.51599
 C236 C 0.03111 0.17559 0.49368
 C237 C 0.03133 0.14096 0.49310
 C238 C 0.00826 0.12297 0.51489
 C239 C -0.01454 0.14013 0.53797
 C240 C -0.01506 0.17486 0.53832
 H241 H 0.05554 0.33891 0.49128
 H242 H 0.05432 0.39928 0.48902
 H243 H -0.05024 0.39967 0.52868
 H244 H -0.04900 0.33903 0.53121
 H245 H 0.04896 0.18873 0.47618
 H246 H 0.04924 0.12811 0.47527
 H247 H -0.03223 0.12660 0.55532
 H248 H -0.03323 0.18749 0.55603
 C249 C 0.50888 -0.00228 -0.34757
 C250 C 0.51026 0.02788 -0.36557
 C251 C 0.51137 0.02828 -0.40043
 C252 C 0.51122 -0.00154 -0.41831
 C253 C 0.50982 -0.03175 -0.40020
 C254 C 0.50865 -0.03208 -0.36532
 C255 C 0.50747 -0.00264 -0.31053
 N256 N 0.50459 -0.03164 -0.29291
 N257 N 0.50283 -0.03190 -0.25963
 C258 C 0.50396 -0.00318 -0.24252
 N259 N 0.50697 0.02581 -0.26015
 N260 N 0.50870 0.02608 -0.29342
 C261 C 0.50090 -0.00337 -0.20538
 C262 C 0.50298 0.02613 -0.18774
 C263 C 0.49834 0.02612 -0.15274
 C264 C 0.48952 -0.00305 -0.13393
 C265 C 0.49152 -0.03304 -0.15210
 C266 C 0.49622 -0.03310 -0.18710
 H267 H 0.51041 0.05132 -0.35274
 H268 H 0.51243 0.05208 -0.41330
 H269 H 0.50967 -0.05527 -0.41289
 H270 H 0.50759 -0.05579 -0.35229
 H271 H 0.50846 0.04936 -0.20094
 H272 H 0.50254 0.04924 -0.14084
 H273 H 0.49043 -0.05700 -0.13999
 H274 H 0.49633 -0.05664 -0.19980
 C275 C 0.52325 0.00257 0.31563
 C276 C 0.51297 0.03077 0.33459
 C277 C 0.51237 0.03021 0.36936
 C278 C 0.52154 0.00126 0.38601
 C279 C 0.53197 -0.02693 0.36709
 C280 C 0.53308 -0.02619 0.33220
 C281 C 0.52275 0.00302 0.27892
 N282 N 0.54073 -0.01956 0.25905
 N283 N 0.53954 -0.01945 0.22609
 C284 C 0.52012 0.00309 0.21174
 N285 N 0.50223 0.02568 0.23162
 N286 N 0.50362 0.02572 0.26449
 C287 C 0.51748 0.00248 0.17541
 C288 C 0.48938 0.01673 0.16298
 C289 C 0.48599 0.01525 0.12896
 C290 C 0.51083 -0.00006 0.10657
 C291 C 0.53942 -0.01353 0.11868
 C292 C 0.54253 -0.01265 0.15292
 H293 H 0.50538 0.05336 0.32255
 H294 H 0.50417 0.05230 0.38327
 H295 H 0.53931 -0.04954 0.37925
 H296 H 0.54100 -0.04835 0.31828
 H297 H 0.46961 0.02846 0.17965
 H298 H 0.46383 0.02590 0.12002
 H299 H 0.55905 -0.02507 0.10167
 H300 H 0.56459 -0.02358 0.16178
 C301 C 0.48578 -0.33406 -0.00209
 C302 C 0.49740 -0.35207 -0.03098
 C303 C 0.49881 -0.38668 -0.03003
 C304 C 0.48896 -0.40414 -0.00010
 C305 C 0.47765 -0.38620 0.02892
 C306 C 0.47590 -0.35150 0.02790
 C307 C 0.48418 -0.29734 -0.00342
 N308 N 0.46731 -0.27971 0.02201
 N309 N 0.46606 -0.24665 0.02066
 C310 C 0.48173 -0.22988 -0.00614
 N311 N 0.49855 -0.24753 -0.03154
 N312 N 0.49967 -0.28054 -0.03025
 C313 C 0.48131 -0.19314 -0.00737
 C314 C 0.50375 -0.17614 -0.03091
 C315 C 0.50457 -0.14154 -0.03125
 C316 C 0.48289 -0.12323 -0.00822
 C317 C 0.45965 -0.13998 0.01460
 C318 C 0.45906 -0.17468 0.01523
 H319 H 0.50515 -0.33946 -0.05450
 H320 H 0.50771 -0.39978 -0.05282
 H321 H 0.46978 -0.39898 0.05233
 H322 H 0.46696 -0.33834 0.05062
 H323 H 0.52119 -0.18957 -0.04869
 H324 H 0.52252 -0.12898 -0.04916
 H325 H 0.44240 -0.12616 0.03224
 H326 H 0.44127 -0.18702 0.03345
 C327 C 0.48712 0.32998 -0.00337
 C328 C 0.49876 0.34860 -0.03208
 C329 C 0.50009 0.38313 -0.03083
 C330 C 0.49009 0.39990 -0.00078
 C331 C 0.47883 0.38133 0.02808
 C332 C 0.47722 0.34672 0.02677
 C333 C 0.48531 0.29335 -0.00506
 N334 N 0.46934 0.27541 0.02073
 N335 N 0.46774 0.24249 0.01901
 C336 C 0.48210 0.22612 -0.00853
 N337 N 0.49806 0.24408 -0.03428
 N338 N 0.49956 0.27698 -0.03261
 C339 C 0.48107 0.18946 -0.01024
 C340 C 0.50115 0.17239 -0.03577
 C341 C 0.50137 0.13777 -0.03664
 C342 C 0.48127 0.11952 -0.01224
 C343 C 0.46061 0.13643 0.01285
 C344 C 0.46060 0.17109 0.01394
 H345 H 0.50655 0.33655 -0.05571
 H346 H 0.50895 0.39671 -0.05350
 H347 H 0.47087 0.39357 0.05159
 H348 H 0.46826 0.33311 0.04938
 H349 H 0.51726 0.18573 -0.05473
 H350 H 0.51768 0.12513 -0.05603
 H351 H 0.44495 0.12271 0.03189
 H352 H 0.44472 0.18346 0.03382
 C353 C -0.31504 -0.00346 0.47658
 C354 C -0.33178 0.02529 0.46694
 C355 C -0.36664 0.02603 0.46830
 C356 C -0.38536 -0.00215 0.47878
 C357 C -0.36855 -0.03108 0.48777
 C358 C -0.33380 -0.03165 0.48694
 C359 C -0.27835 -0.00390 0.47682
 N360 N -0.26370 -0.02656 0.49583
 N361 N -0.23085 -0.02650 0.49701
 C362 C -0.21119 -0.00394 0.47902
 N363 N -0.22576 0.01855 0.45972
 N364 N -0.25870 0.01864 0.45874
 C365 C -0.17489 -0.00329 0.48145
 C366 C -0.15262 0.01176 0.45627
 C367 C -0.11839 0.01271 0.45921
 C368 C -0.10609 -0.00062 0.48776
 C369 C -0.12826 -0.01586 0.51273
 C370 C -0.16226 -0.01740 0.50952
 H371 H -0.31800 0.04744 0.45898
 H372 H -0.37893 0.04863 0.46109
 H373 H -0.38230 -0.05317 0.49602
 H374 H -0.32163 -0.05422 0.49438
 H375 H -0.16163 0.02259 0.43424
 H376 H -0.10155 0.02417 0.43948
 H377 H -0.11918 -0.02640 0.53486
 H378 H -0.17877 -0.02906 0.52939
 C379 C 0.34699 0.00139 0.49181
 C380 C 0.36453 0.03118 0.49268
 C381 C 0.39935 0.03082 0.49165
 C382 C 0.41744 0.00065 0.48976
 C383 C 0.39992 -0.02914 0.48897
 C384 C 0.36512 -0.02878 0.48995
 C385 C 0.31002 0.00174 0.49301
 N386 N 0.29308 -0.02697 0.49157
 N387 N 0.25987 -0.02670 0.49310
 C388 C 0.24214 0.00230 0.49609
 N389 N 0.25909 0.03102 0.49743
 N390 N 0.29230 0.03075 0.49589
 C391 C 0.20507 0.00250 0.49892
 C392 C 0.18672 0.03229 0.50316
 C393 C 0.15176 0.03228 0.50763
 C394 C 0.13371 0.00230 0.50988
 C395 C 0.15263 -0.02699 0.50147
 C396 C 0.18758 -0.02705 0.49703
 H397 H 0.35141 0.05488 0.49412
 H398 H 0.41208 0.05421 0.49228
 H399 H 0.41309 -0.05282 0.48747
 H400 H 0.35247 -0.05221 0.48928
 H401 H 0.19932 0.05584 0.50285
 H402 H 0.13961 0.05626 0.50833
 H403 H 0.14087 -0.05019 0.49743
 H404 H 0.20085 -0.05035 0.49188
 C405 C -0.01007 0.50219 1.34145
 C406 C -0.03515 0.51747 1.36368
 C407 C -0.03274 0.51767 1.39803
 C408 C -0.00481 0.50332 1.41068
 C409 C 0.02056 0.48855 1.38839
 C410 C 0.01776 0.48765 1.35414
 C411 C -0.01293 0.50133 1.30522
 N412 N 0.00217 0.47669 1.28590
 N413 N -0.00032 0.47591 1.25323
 C414 C -0.01775 0.49989 1.23851
 N415 N -0.03278 0.52459 1.25781
 N416 N -0.03058 0.52518 1.29056
 C417 C -0.01954 0.49951 1.20207
 C418 C -0.02352 0.52928 1.18431
 C419 C -0.02298 0.52910 1.14951
 C420 C -0.01930 0.49910 1.13207
 C421 C -0.01647 0.46924 1.14985
 C422 C -0.01621 0.46946 1.18453
 H423 H -0.05692 0.52876 1.35458
 H424 H -0.05259 0.52931 1.41469
 H425 H 0.04227 0.47718 1.39753
 H426 H 0.03755 0.47587 1.33752
 H427 H -0.02596 0.55279 1.19718
 H428 H -0.02498 0.55237 1.13608
 H429 H -0.01353 0.44589 1.13668
 H430 H -0.01331 0.44616 1.19763
 C431 C 0.00829 0.49815 0.67471
 C432 C 0.03405 0.51320 0.65330
 C433 C 0.03330 0.51359 0.61863
 C434 C 0.00635 0.49971 0.60494
 C435 C -0.01945 0.48483 0.62637
 C436 C -0.01829 0.48371 0.66088
 C437 C 0.00869 0.49784 0.71133
 N438 N -0.00695 0.47349 0.73063
 N439 N -0.00740 0.47357 0.76376
 C440 C 0.00747 0.49820 0.77894
 N441 N 0.02311 0.52258 0.75966
 N442 N 0.02386 0.52231 0.72647
 C443 C 0.00595 0.49876 0.81576
 C444 C 0.00715 0.52899 0.83257
 C445 C 0.00425 0.52957 0.86752
 C446 C 0.00097 0.49987 0.88610
 C447 C 0.00037 0.46962 0.86939
 C448 C 0.00247 0.46908 0.83450
 H449 H 0.05488 0.52439 0.66336
 H450 H 0.05343 0.52529 0.60259
 H451 H -0.04042 0.47381 0.61639
 H452 H -0.03855 0.47210 0.67682
 H453 H 0.00955 0.55223 0.81874
 H454 H 0.00458 0.55312 0.88014
 H455 H -0.00218 0.44652 0.88345
 H456 H 0.00161 0.44545 0.82216
   
