data_POSCAR
  _audit_creation_date              2014-09-24
  _audit_creation_method            'ToBaCCo'
  _symmetry_space_group_name_H-M    'P1'
  _symmetry_Int_Tables_number       1
  _symmetry_cell_setting            triclinic
  loop_
  _symmetry_equiv_pos_as_xyz
 x,y,z
_cell_length_a 33.6973
_cell_length_b 33.8587
_cell_length_c 33.7036
_cell_angle_alpha 90.000000
_cell_angle_beta 90.000100
_cell_angle_gamma 90.000000
loop_
  _atom_site_label
  _atom_site_type_symbol
  _atom_site_fract_x
  _atom_site_fract_y
  _atom_site_fract_z
Zn1 Zn 0.78114 0.71840 0.78109
 Zn2 Zn 0.78114 0.78158 0.71886
 Zn3 Zn 0.71882 0.71850 0.71879
 Zn4 Zn 0.71882 0.78148 0.78116
 O5 O 0.74999 0.74999 0.74998
 O6 O 0.83304 0.72634 0.77272
 O7 O 0.77252 0.77397 0.66695
 O8 O 0.72693 0.66687 0.72659
 O9 O 0.83304 0.77364 0.72723
 O10 O 0.77323 0.66682 0.77287
 O11 O 0.72711 0.72660 0.66695
 O12 O 0.66694 0.77372 0.77263
 O13 O 0.77323 0.83316 0.72708
 O14 O 0.66694 0.72626 0.72733
 O15 O 0.72693 0.83311 0.77337
 O16 O 0.72711 0.77337 0.83300
 O17 O 0.77252 0.72601 0.83300
 C18 C 0.85141 0.74999 0.74998
 C19 C 0.74971 0.75038 0.64858
 C20 C 0.75012 0.64837 0.74966
 C21 C 0.64858 0.74999 0.74998
 C22 C 0.75012 0.85161 0.75029
 C23 C 0.74971 0.74959 0.85137
 Zn24 Zn 0.21888 0.71840 0.71887
 Zn25 Zn 0.21889 0.78158 0.78109
 Zn26 Zn 0.28120 0.71850 0.78116
 Zn27 Zn 0.28120 0.78147 0.71879
 O28 O 0.25004 0.74999 0.74998
 O29 O 0.16698 0.72634 0.72724
 O30 O 0.22750 0.77397 0.83300
 O31 O 0.27309 0.66687 0.77337
 O32 O 0.16698 0.77364 0.77272
 O33 O 0.22680 0.66682 0.72708
 O34 O 0.27292 0.72660 0.83301
 O35 O 0.33308 0.77371 0.72732
 O36 O 0.22680 0.83316 0.77287
 O37 O 0.33308 0.72626 0.77263
 O38 O 0.27309 0.83311 0.72658
 O39 O 0.27292 0.77337 0.66695
 O40 O 0.22750 0.72601 0.66695
 C41 C 0.14861 0.74999 0.74998
 C42 C 0.25031 0.75038 0.85137
 C43 C 0.24990 0.64837 0.75029
 C44 C 0.35145 0.74999 0.74998
 C45 C 0.24990 0.85161 0.74966
 C46 C 0.25031 0.74959 0.64858
 Zn47 Zn 0.71882 0.21850 0.78116
 Zn48 Zn 0.78114 0.21840 0.71886
 Zn49 Zn 0.71882 0.28148 0.71879
 Zn50 Zn 0.78114 0.28158 0.78109
 O51 O 0.74999 0.24999 0.74998
 O52 O 0.72693 0.16687 0.77337
 O53 O 0.77252 0.22601 0.66695
 O54 O 0.66694 0.27372 0.72733
 O55 O 0.77323 0.16682 0.72708
 O56 O 0.66694 0.22626 0.77263
 O57 O 0.72711 0.27337 0.66695
 O58 O 0.77323 0.33316 0.77287
 O59 O 0.83304 0.22634 0.72723
 O60 O 0.72693 0.33311 0.72659
 O61 O 0.83304 0.27364 0.77272
 O62 O 0.77252 0.27397 0.83300
 O63 O 0.72711 0.22660 0.83300
 C64 C 0.75012 0.14837 0.75029
 C65 C 0.74971 0.24959 0.64858
 C66 C 0.64858 0.24999 0.74998
 C67 C 0.75012 0.35161 0.74966
 C68 C 0.85141 0.24999 0.74998
 C69 C 0.74971 0.25038 0.85137
 Zn70 Zn 0.28120 0.21850 0.71879
 Zn71 Zn 0.21888 0.21840 0.78109
 Zn72 Zn 0.28120 0.28148 0.78116
 Zn73 Zn 0.21888 0.28158 0.71887
 O74 O 0.25004 0.24999 0.74998
 O75 O 0.27309 0.16687 0.72658
 O76 O 0.22750 0.22601 0.83300
 O77 O 0.33308 0.27371 0.77263
 O78 O 0.22680 0.16682 0.77287
 O79 O 0.33308 0.22626 0.72732
 O80 O 0.27292 0.27337 0.83301
 O81 O 0.22680 0.33316 0.72708
 O82 O 0.16698 0.22634 0.77272
 O83 O 0.27309 0.33311 0.77337
 O84 O 0.16698 0.27364 0.72724
 O85 O 0.22750 0.27397 0.66695
 O86 O 0.27292 0.22660 0.66695
 C87 C 0.24990 0.14837 0.74966
 C88 C 0.25031 0.24959 0.85137
 C89 C 0.35145 0.24999 0.74998
 C90 C 0.24990 0.35161 0.75029
 C91 C 0.14861 0.24999 0.74998
 C92 C 0.25031 0.25038 0.64858
 Zn93 Zn 0.71889 0.71780 0.21952
 Zn94 Zn 0.78116 0.78059 0.21786
 Zn95 Zn 0.71889 0.78217 0.28043
 Zn96 Zn 0.78116 0.71939 0.28209
 O97 O 0.75003 0.74999 0.24998
 O98 O 0.72654 0.72496 0.16733
 O99 O 0.77426 0.83260 0.22563
 O100 O 0.66700 0.77455 0.27171
 O101 O 0.77162 0.77255 0.16632
 O102 O 0.66700 0.72543 0.22824
 O103 O 0.72769 0.83347 0.27170
 O104 O 0.77162 0.72742 0.33364
 O105 O 0.83302 0.77146 0.22514
 O106 O 0.72654 0.77502 0.33262
 O107 O 0.83302 0.72852 0.27481
 O108 O 0.77426 0.66737 0.27432
 O109 O 0.72769 0.66650 0.22825
 C110 C 0.74873 0.74871 0.14845
 C111 C 0.75125 0.85151 0.24861
 C112 C 0.64862 0.74999 0.24998
 C113 C 0.74873 0.75126 0.35150
 C114 C 0.85139 0.74999 0.24998
 C115 C 0.75125 0.64846 0.25135
 Zn116 Zn 0.28109 0.78218 0.21953
 Zn117 Zn 0.21882 0.71939 0.21786
 Zn118 Zn 0.28109 0.71780 0.28043
 Zn119 Zn 0.21882 0.78059 0.28209
 O120 O 0.24995 0.74999 0.24998
 O121 O 0.27344 0.77502 0.16733
 O122 O 0.22571 0.66738 0.22563
 O123 O 0.33298 0.72543 0.27171
 O124 O 0.22836 0.72742 0.16632
 O125 O 0.33298 0.77455 0.22824
 O126 O 0.27229 0.66650 0.27170
 O127 O 0.22836 0.77255 0.33364
 O128 O 0.16696 0.72852 0.22514
 O129 O 0.27344 0.72496 0.33262
 O130 O 0.16696 0.77145 0.27481
 O131 O 0.22571 0.83260 0.27433
 O132 O 0.27228 0.83347 0.22826
 C133 C 0.25125 0.75126 0.14845
 C134 C 0.24873 0.64846 0.24860
 C135 C 0.35136 0.74999 0.24998
 C136 C 0.25125 0.74871 0.35150
 C137 C 0.14859 0.74999 0.24998
 C138 C 0.24873 0.85151 0.25135
 Zn139 Zn 0.71889 0.28217 0.21952
 Zn140 Zn 0.78116 0.21939 0.21786
 Zn141 Zn 0.78116 0.28059 0.28209
 Zn142 Zn 0.71889 0.21780 0.28043
 O143 O 0.75003 0.24999 0.24998
 O144 O 0.72654 0.27502 0.16733
 O145 O 0.83302 0.22852 0.22514
 O146 O 0.77426 0.33260 0.27432
 O147 O 0.77162 0.22742 0.16632
 O148 O 0.72769 0.33347 0.22825
 O149 O 0.83302 0.27145 0.27481
 O150 O 0.72654 0.22496 0.33262
 O151 O 0.77426 0.16737 0.22563
 O152 O 0.77162 0.27255 0.33363
 O153 O 0.72769 0.16650 0.27170
 O154 O 0.66700 0.22543 0.27171
 O155 O 0.66700 0.27455 0.22824
 C156 C 0.74873 0.25126 0.14845
 C157 C 0.85139 0.24999 0.24998
 C158 C 0.75125 0.35151 0.25135
 C159 C 0.74873 0.24871 0.35150
 C160 C 0.75125 0.14846 0.24861
 C161 C 0.64862 0.24999 0.24998
 Zn162 Zn 0.21882 0.28059 0.21786
 Zn163 Zn 0.28109 0.21780 0.21953
 Zn164 Zn 0.28109 0.28218 0.28043
 Zn165 Zn 0.21882 0.21939 0.28209
 O166 O 0.24995 0.24999 0.24998
 O167 O 0.22836 0.27255 0.16632
 O168 O 0.33298 0.22543 0.22824
 O169 O 0.27228 0.33347 0.27170
 O170 O 0.27344 0.22496 0.16733
 O171 O 0.22571 0.33260 0.22563
 O172 O 0.33298 0.27455 0.27171
 O173 O 0.22836 0.22742 0.33364
 O174 O 0.27228 0.16650 0.22825
 O175 O 0.27344 0.27502 0.33262
 O176 O 0.22571 0.16738 0.27433
 O177 O 0.16696 0.22852 0.27481
 O178 O 0.16696 0.27145 0.22514
 C179 C 0.25125 0.24871 0.14845
 C180 C 0.35136 0.24999 0.24998
 C181 C 0.24873 0.35151 0.24860
 C182 C 0.25125 0.25126 0.35150
 C183 C 0.24873 0.14846 0.25135
 C184 C 0.14859 0.24999 0.24998
 C185 C -0.02187 0.74999 0.74998
 C186 C -0.04237 0.71387 0.75073
 C187 C -0.08399 0.71406 0.75144
 C188 C -0.10491 0.74999 0.74998
 C189 C -0.08399 0.78591 0.74852
 C190 C -0.04237 0.78611 0.74923
 C191 C 0.02189 0.74999 0.74998
 C192 C 0.04239 0.78611 0.75072
 C193 C 0.08401 0.78591 0.75143
 C194 C 0.10493 0.74999 0.74998
 C195 C 0.08401 0.71406 0.74852
 C196 C 0.04239 0.71387 0.74923
 C197 C -0.02082 0.82164 0.74943
 C198 C 0.02084 0.82164 0.75052
 C199 C -0.02082 0.67833 0.75053
 C200 C 0.02084 0.67833 0.74944
 H201 H -0.03629 0.84969 0.74902
 H202 H 0.03631 0.84969 0.75092
 H203 H -0.03629 0.65029 0.75094
 H204 H 0.03631 0.65029 0.74903
 H205 H -0.10014 0.68638 0.75226
 H206 H -0.10014 0.81360 0.74770
 H207 H 0.10016 0.81360 0.75225
 H208 H 0.10017 0.68638 0.74771
 C209 C 0.75027 -0.02179 0.75048
 C210 C 0.77591 -0.04218 0.72482
 C211 C 0.77577 -0.08359 0.72490
 C212 C 0.75021 -0.10463 0.75040
 C213 C 0.72469 -0.08360 0.77596
 C214 C 0.72461 -0.04219 0.77611
 C215 C 0.75027 0.02177 0.75048
 C216 C 0.72461 0.04216 0.77611
 C217 C 0.72469 0.08358 0.77596
 C218 C 0.75021 0.10461 0.75040
 C219 C 0.77577 0.08357 0.72490
 C220 C 0.77591 0.04216 0.72482
 C221 C 0.69937 -0.02074 0.80135
 C222 C 0.69937 0.02072 0.80135
 C223 C 0.80117 -0.02074 0.69959
 C224 C 0.80117 0.02072 0.69959
 H225 H 0.67943 -0.03614 0.82127
 H226 H 0.67943 0.03611 0.82127
 H227 H 0.82110 -0.03613 0.67965
 H228 H 0.82110 0.03611 0.67965
 H229 H 0.79554 -0.09938 0.70510
 H230 H 0.70489 -0.09940 0.79572
 H231 H 0.70489 0.09937 0.79572
 H232 H 0.79554 0.09936 0.70510
 C233 C 0.74857 0.74907 -0.02196
 C234 C 0.74782 0.78527 -0.04233
 C235 C 0.74753 0.78521 -0.08394
 C236 C 0.74941 0.74938 -0.10497
 C237 C 0.75086 0.71338 -0.08417
 C238 C 0.74974 0.71303 -0.04256
 C239 C 0.74821 0.74893 0.02179
 C240 C 0.74759 0.71274 0.04218
 C241 C 0.74678 0.71281 0.08380
 C242 C 0.74806 0.74869 0.10480
 C243 C 0.74924 0.78468 0.08397
 C244 C 0.74863 0.78499 0.04238
 C245 C 0.74957 0.67742 -0.02113
 C246 C 0.74816 0.67728 0.02052
 C247 C 0.74761 0.82073 -0.02069
 C248 C 0.74837 0.82060 0.02096
 H249 H 0.75029 0.64943 -0.03669
 H250 H 0.74785 0.64918 0.03589
 H251 H 0.74718 0.84882 -0.03607
 H252 H 0.74853 0.84860 0.03652
 H253 H 0.74670 0.81296 -0.09999
 H254 H 0.75199 0.68576 -0.10042
 H255 H 0.74621 0.68508 0.09989
 H256 H 0.74995 0.81233 0.10019
 C257 C 0.52189 0.74999 0.74998
 C258 C 0.54238 0.78611 0.75072
 C259 C 0.58400 0.78592 0.75142
 C260 C 0.60491 0.74999 0.74998
 C261 C 0.58400 0.71406 0.74853
 C262 C 0.54238 0.71386 0.74923
 C263 C 0.47814 0.74999 0.74998
 C264 C 0.45764 0.71386 0.75072
 C265 C 0.41603 0.71406 0.75143
 C266 C 0.39511 0.74999 0.74998
 C267 C 0.41603 0.78591 0.74852
 C268 C 0.45764 0.78611 0.74923
 C269 C 0.52084 0.67833 0.74944
 C270 C 0.47918 0.67833 0.75052
 C271 C 0.52084 0.82165 0.75051
 C272 C 0.47918 0.82165 0.74943
 H273 H 0.53631 0.65028 0.74903
 H274 H 0.46371 0.65028 0.75093
 H275 H 0.53631 0.84969 0.75092
 H276 H 0.46371 0.84969 0.74902
 H277 H 0.60015 0.81360 0.75223
 H278 H 0.60015 0.68638 0.74772
 H279 H 0.39987 0.68638 0.75224
 H280 H 0.39987 0.81360 0.74771
 C281 C 0.24976 -0.02179 0.74948
 C282 C 0.27542 -0.04219 0.72384
 C283 C 0.27534 -0.08360 0.72399
 C284 C 0.24982 -0.10463 0.74955
 C285 C 0.22425 -0.08359 0.77505
 C286 C 0.22411 -0.04218 0.77513
 C287 C 0.24976 0.02177 0.74948
 C288 C 0.22411 0.04216 0.77513
 C289 C 0.22425 0.08357 0.77505
 C290 C 0.24982 0.10461 0.74955
 C291 C 0.27534 0.08358 0.72399
 C292 C 0.27542 0.04216 0.72384
 C293 C 0.19886 -0.02074 0.80036
 C294 C 0.19886 0.02072 0.80036
 C295 C 0.30066 -0.02074 0.69860
 C296 C 0.30066 0.02072 0.69860
 H297 H 0.17893 -0.03613 0.82030
 H298 H 0.17893 0.03611 0.82030
 H299 H 0.32060 -0.03614 0.67868
 H300 H 0.32060 0.03611 0.67868
 H301 H 0.29514 -0.09940 0.70423
 H302 H 0.20448 -0.09938 0.79485
 H303 H 0.20448 0.09936 0.79485
 H304 H 0.29514 0.09937 0.70423
 C305 C 0.25143 0.75090 -0.02196
 C306 C 0.25026 0.78695 -0.04256
 C307 C 0.24915 0.78660 -0.08417
 C308 C 0.25060 0.75059 -0.10497
 C309 C 0.25248 0.71476 -0.08394
 C310 C 0.25219 0.71471 -0.04233
 C311 C 0.25178 0.75105 0.02179
 C312 C 0.25136 0.71498 0.04238
 C313 C 0.25075 0.71530 0.08397
 C314 C 0.25193 0.75128 0.10480
 C315 C 0.25321 0.78716 0.08380
 C316 C 0.25240 0.78724 0.04218
 C317 C 0.25239 0.67925 -0.02069
 C318 C 0.25163 0.67938 0.02096
 C319 C 0.25044 0.82255 -0.02113
 C320 C 0.25184 0.82269 0.02052
 H321 H 0.25282 0.65115 -0.03607
 H322 H 0.25146 0.65138 0.03652
 H323 H 0.24972 0.85055 -0.03669
 H324 H 0.25215 0.85079 0.03589
 H325 H 0.24803 0.81422 -0.10042
 H326 H 0.25331 0.68702 -0.09999
 H327 H 0.25003 0.68764 0.10019
 H328 H 0.25378 0.81489 0.09989
 C329 C -0.02187 0.24999 0.74998
 C330 C -0.04237 0.21387 0.74923
 C331 C -0.08399 0.21406 0.74852
 C332 C -0.10491 0.24999 0.74998
 C333 C -0.08399 0.28591 0.75143
 C334 C -0.04237 0.28611 0.75073
 C335 C 0.02189 0.24999 0.74998
 C336 C 0.04239 0.28611 0.74923
 C337 C 0.08401 0.28591 0.74852
 C338 C 0.10493 0.24999 0.74998
 C339 C 0.08401 0.21406 0.75143
 C340 C 0.04239 0.21387 0.75072
 C341 C -0.02082 0.32164 0.75053
 C342 C 0.02084 0.32164 0.74944
 C343 C -0.02082 0.17833 0.74943
 C344 C 0.02084 0.17833 0.75052
 H345 H -0.03629 0.34969 0.75094
 H346 H 0.03631 0.34969 0.74903
 H347 H -0.03629 0.15029 0.74902
 H348 H 0.03631 0.15029 0.75092
 H349 H -0.10014 0.18638 0.74770
 H350 H -0.10014 0.31360 0.75225
 H351 H 0.10017 0.31360 0.74771
 H352 H 0.10016 0.18638 0.75225
 C353 C 0.75027 0.52177 0.74948
 C354 C 0.72461 0.54216 0.72385
 C355 C 0.72469 0.58358 0.72399
 C356 C 0.75021 0.60461 0.74955
 C357 C 0.77577 0.58357 0.77505
 C358 C 0.77591 0.54216 0.77513
 C359 C 0.75027 0.47821 0.74948
 C360 C 0.77591 0.45782 0.77513
 C361 C 0.77577 0.41641 0.77505
 C362 C 0.75021 0.39537 0.74955
 C363 C 0.72469 0.41640 0.72399
 C364 C 0.72461 0.45781 0.72385
 C365 C 0.80117 0.52072 0.80036
 C366 C 0.80117 0.47926 0.80036
 C367 C 0.69936 0.52072 0.69860
 C368 C 0.69936 0.47926 0.69860
 H369 H 0.82110 0.53611 0.82030
 H370 H 0.82110 0.46387 0.82030
 H371 H 0.67942 0.53611 0.67868
 H372 H 0.67942 0.46386 0.67868
 H373 H 0.70488 0.59937 0.70423
 H374 H 0.79554 0.59936 0.79485
 H375 H 0.79554 0.40062 0.79485
 H376 H 0.70488 0.40060 0.70423
 C377 C 0.74857 0.25090 -0.02196
 C378 C 0.74975 0.28695 -0.04256
 C379 C 0.75087 0.28660 -0.08417
 C380 C 0.74941 0.25060 -0.10497
 C381 C 0.74753 0.21476 -0.08394
 C382 C 0.74782 0.21471 -0.04233
 C383 C 0.74821 0.25105 0.02179
 C384 C 0.74863 0.21498 0.04238
 C385 C 0.74924 0.21530 0.08397
 C386 C 0.74806 0.25128 0.10480
 C387 C 0.74678 0.28716 0.08380
 C388 C 0.74759 0.28724 0.04218
 C389 C 0.74761 0.17925 -0.02069
 C390 C 0.74837 0.17938 0.02096
 C391 C 0.74957 0.32255 -0.02113
 C392 C 0.74817 0.32269 0.02052
 H393 H 0.74718 0.15115 -0.03607
 H394 H 0.74853 0.15138 0.03652
 H395 H 0.75029 0.35055 -0.03669
 H396 H 0.74785 0.35080 0.03589
 H397 H 0.75199 0.31422 -0.10042
 H398 H 0.74670 0.18702 -0.09999
 H399 H 0.74995 0.18764 0.10019
 H400 H 0.74621 0.31489 0.09989
 C401 C 0.52189 0.24999 0.74998
 C402 C 0.54238 0.28611 0.74923
 C403 C 0.58400 0.28592 0.74853
 C404 C 0.60491 0.24999 0.74998
 C405 C 0.58400 0.21406 0.75142
 C406 C 0.54238 0.21386 0.75072
 C407 C 0.47814 0.24999 0.74998
 C408 C 0.45764 0.21386 0.74923
 C409 C 0.41603 0.21406 0.74852
 C410 C 0.39511 0.24999 0.74998
 C411 C 0.41603 0.28592 0.75143
 C412 C 0.45764 0.28611 0.75072
 C413 C 0.52084 0.17833 0.75051
 C414 C 0.47918 0.17833 0.74943
 C415 C 0.52084 0.32165 0.74944
 C416 C 0.47918 0.32165 0.75052
 H417 H 0.53631 0.15028 0.75092
 H418 H 0.46371 0.15028 0.74902
 H419 H 0.53631 0.34970 0.74903
 H420 H 0.46371 0.34970 0.75093
 H421 H 0.60015 0.31360 0.74772
 H422 H 0.60015 0.18638 0.75223
 H423 H 0.39987 0.18638 0.74771
 H424 H 0.39987 0.31360 0.75224
 C425 C 0.24976 0.52177 0.75047
 C426 C 0.22411 0.54216 0.72482
 C427 C 0.22425 0.58357 0.72490
 C428 C 0.24982 0.60461 0.75040
 C429 C 0.27534 0.58358 0.77596
 C430 C 0.27542 0.54216 0.77611
 C431 C 0.24976 0.47821 0.75047
 C432 C 0.27542 0.45781 0.77611
 C433 C 0.27534 0.41640 0.77596
 C434 C 0.24982 0.39537 0.75040
 C435 C 0.22425 0.41641 0.72490
 C436 C 0.22411 0.45782 0.72482
 C437 C 0.30066 0.52072 0.80135
 C438 C 0.30066 0.47926 0.80135
 C439 C 0.19886 0.52072 0.69959
 C440 C 0.19886 0.47926 0.69959
 H441 H 0.32060 0.53611 0.82127
 H442 H 0.32060 0.46386 0.82127
 H443 H 0.17893 0.53611 0.67966
 H444 H 0.17893 0.46387 0.67966
 H445 H 0.20448 0.59936 0.70510
 H446 H 0.29514 0.59937 0.79572
 H447 H 0.29514 0.40060 0.79572
 H448 H 0.20448 0.40062 0.70510
 C449 C 0.25143 0.24908 -0.02196
 C450 C 0.25219 0.28527 -0.04233
 C451 C 0.25248 0.28522 -0.08394
 C452 C 0.25060 0.24938 -0.10497
 C453 C 0.24915 0.21338 -0.08417
 C454 C 0.25026 0.21303 -0.04256
 C455 C 0.25178 0.24893 0.02179
 C456 C 0.25240 0.21274 0.04218
 C457 C 0.25320 0.21281 0.08380
 C458 C 0.25193 0.24870 0.10480
 C459 C 0.25075 0.28468 0.08397
 C460 C 0.25136 0.28500 0.04238
 C461 C 0.25044 0.17743 -0.02113
 C462 C 0.25183 0.17728 0.02051
 C463 C 0.25239 0.32073 -0.02069
 C464 C 0.25163 0.32060 0.02096
 H465 H 0.24972 0.14943 -0.03669
 H466 H 0.25214 0.14918 0.03589
 H467 H 0.25282 0.34882 -0.03607
 H468 H 0.25147 0.34860 0.03652
 H469 H 0.25331 0.31296 -0.09999
 H470 H 0.24803 0.18576 -0.10042
 H471 H 0.25377 0.18508 0.09989
 H472 H 0.25003 0.31233 0.10019
 C473 C -0.02189 0.74999 0.24998
 C474 C -0.04238 0.74927 0.28627
 C475 C -0.08399 0.74860 0.28607
 C476 C -0.10493 0.74999 0.24998
 C477 C -0.08399 0.75137 0.21388
 C478 C -0.04238 0.75070 0.21369
 C479 C 0.02187 0.74999 0.24998
 C480 C 0.04236 0.74928 0.21369
 C481 C 0.08397 0.74861 0.21388
 C482 C 0.10490 0.74999 0.24998
 C483 C 0.08397 0.75136 0.28607
 C484 C 0.04236 0.75069 0.28627
 C485 C -0.02084 0.75052 0.17799
 C486 C 0.02082 0.74948 0.17799
 C487 C -0.02084 0.74946 0.32196
 C488 C 0.02082 0.75049 0.32196
 H489 H -0.03631 0.75091 0.14981
 H490 H 0.03629 0.74910 0.14981
 H491 H -0.03631 0.74907 0.35014
 H492 H 0.03629 0.75087 0.35014
 H493 H -0.10013 0.74784 0.31389
 H494 H -0.10013 0.75214 0.18606
 H495 H 0.10011 0.74786 0.18606
 H496 H 0.10011 0.75211 0.31389
 C497 C 0.75183 -0.02180 0.24855
 C498 C 0.77736 -0.04224 0.22281
 C499 C 0.77718 -0.08371 0.22291
 C500 C 0.75165 -0.10469 0.24852
 C501 C 0.72628 -0.08356 0.27415
 C502 C 0.72625 -0.04217 0.27427
 C503 C 0.75183 0.02177 0.24855
 C504 C 0.72625 0.04214 0.27427
 C505 C 0.72628 0.08353 0.27415
 C506 C 0.75165 0.10466 0.24852
 C507 C 0.77718 0.08368 0.22291
 C508 C 0.77736 0.04221 0.22281
 C509 C 0.70110 -0.02073 0.29961
 C510 C 0.70110 0.02071 0.29961
 C511 C 0.80252 -0.02076 0.19749
 C512 C 0.80252 0.02073 0.19749
 H513 H 0.68123 -0.03612 0.31960
 H514 H 0.68123 0.03610 0.31960
 H515 H 0.82237 -0.03615 0.17748
 H516 H 0.82237 0.03613 0.17748
 H517 H 0.79682 -0.09957 0.20305
 H518 H 0.70650 -0.09926 0.29400
 H519 H 0.70650 0.09924 0.29400
 H520 H 0.79682 0.09954 0.20305
 C521 C 0.74857 0.75090 0.52191
 C522 C 0.74975 0.78695 0.54252
 C523 C 0.75087 0.78660 0.58412
 C524 C 0.74941 0.75059 0.60492
 C525 C 0.74753 0.71476 0.58389
 C526 C 0.74782 0.71471 0.54229
 C527 C 0.74821 0.75105 0.47817
 C528 C 0.74863 0.71498 0.45757
 C529 C 0.74924 0.71529 0.41598
 C530 C 0.74806 0.75128 0.39515
 C531 C 0.74678 0.78716 0.41615
 C532 C 0.74759 0.78724 0.45778
 C533 C 0.74761 0.67925 0.52064
 C534 C 0.74837 0.67938 0.47899
 C535 C 0.74957 0.82255 0.52109
 C536 C 0.74817 0.82269 0.47944
 H537 H 0.74718 0.65115 0.53602
 H538 H 0.74853 0.65138 0.46343
 H539 H 0.75029 0.85054 0.53664
 H540 H 0.74785 0.85079 0.46406
 H541 H 0.75199 0.81422 0.60037
 H542 H 0.74670 0.68702 0.59995
 H543 H 0.74995 0.68764 0.39976
 H544 H 0.74621 0.81489 0.40006
 C545 C 0.52187 0.74999 0.24998
 C546 C 0.54236 0.78611 0.25070
 C547 C 0.58398 0.78591 0.25138
 C548 C 0.60492 0.74999 0.24998
 C549 C 0.58398 0.71406 0.24857
 C550 C 0.54236 0.71387 0.24925
 C551 C 0.47811 0.74999 0.24998
 C552 C 0.45761 0.71387 0.25069
 C553 C 0.41599 0.71406 0.25137
 C554 C 0.39506 0.74999 0.24998
 C555 C 0.41599 0.78591 0.24858
 C556 C 0.45761 0.78611 0.24926
 C557 C 0.52082 0.67833 0.24945
 C558 C 0.47916 0.67833 0.25049
 C559 C 0.52082 0.82164 0.25051
 C560 C 0.47916 0.82164 0.24946
 H561 H 0.53629 0.65028 0.24905
 H562 H 0.46369 0.65028 0.25088
 H563 H 0.53629 0.84969 0.25090
 H564 H 0.46369 0.84969 0.24907
 H565 H 0.60012 0.81361 0.25216
 H566 H 0.60012 0.68636 0.24780
 H567 H 0.39986 0.68636 0.25215
 H568 H 0.39986 0.81361 0.24781
 C569 C 0.24814 -0.02180 0.25140
 C570 C 0.27372 -0.04217 0.22568
 C571 C 0.27369 -0.08356 0.22580
 C572 C 0.24833 -0.10469 0.25143
 C573 C 0.22280 -0.08371 0.27704
 C574 C 0.22261 -0.04224 0.27714
 C575 C 0.24814 0.02177 0.25140
 C576 C 0.22261 0.04221 0.27714
 C577 C 0.22280 0.08368 0.27704
 C578 C 0.24833 0.10466 0.25143
 C579 C 0.27370 0.08353 0.22580
 C580 C 0.27372 0.04214 0.22568
 C581 C 0.19746 -0.02076 0.30247
 C582 C 0.19746 0.02073 0.30247
 C583 C 0.29887 -0.02073 0.20034
 C584 C 0.29887 0.02071 0.20034
 H585 H 0.17761 -0.03615 0.32248
 H586 H 0.17761 0.03613 0.32248
 H587 H 0.31874 -0.03612 0.18035
 H588 H 0.31874 0.03610 0.18035
 H589 H 0.29347 -0.09926 0.20594
 H590 H 0.20315 -0.09957 0.29690
 H591 H 0.20315 0.09955 0.29690
 H592 H 0.29347 0.09924 0.20595
 C593 C 0.25143 0.74907 0.52191
 C594 C 0.25219 0.78527 0.54229
 C595 C 0.25248 0.78521 0.58389
 C596 C 0.25060 0.74938 0.60492
 C597 C 0.24915 0.71338 0.58413
 C598 C 0.25026 0.71303 0.54252
 C599 C 0.25178 0.74893 0.47817
 C600 C 0.25240 0.71274 0.45778
 C601 C 0.25320 0.71281 0.41615
 C602 C 0.25193 0.74869 0.39515
 C603 C 0.25075 0.78468 0.41598
 C604 C 0.25136 0.78499 0.45757
 C605 C 0.25044 0.67742 0.52109
 C606 C 0.25183 0.67728 0.47944
 C607 C 0.25239 0.82073 0.52064
 C608 C 0.25163 0.82060 0.47899
 H609 H 0.24972 0.64943 0.53664
 H610 H 0.25214 0.64918 0.46406
 H611 H 0.25282 0.84882 0.53602
 H612 H 0.25146 0.84860 0.46343
 H613 H 0.25331 0.81296 0.59994
 H614 H 0.24803 0.68576 0.60037
 H615 H 0.25377 0.68508 0.40006
 H616 H 0.25003 0.81233 0.39976
 C617 C -0.02189 0.24999 0.24998
 C618 C -0.04238 0.24927 0.21369
 C619 C -0.08399 0.24860 0.21388
 C620 C -0.10493 0.24999 0.24998
 C621 C -0.08399 0.25137 0.28607
 C622 C -0.04238 0.25070 0.28626
 C623 C 0.02186 0.24999 0.24998
 C624 C 0.04236 0.24928 0.28626
 C625 C 0.08397 0.24861 0.28607
 C626 C 0.10490 0.24999 0.24998
 C627 C 0.08397 0.25136 0.21388
 C628 C 0.04236 0.25069 0.21369
 C629 C -0.02084 0.25051 0.32196
 C630 C 0.02082 0.24948 0.32196
 C631 C -0.02084 0.24946 0.17799
 C632 C 0.02082 0.25049 0.17799
 H633 H -0.03631 0.25091 0.35014
 H634 H 0.03629 0.24910 0.35014
 H635 H -0.03631 0.24907 0.14981
 H636 H 0.03629 0.25087 0.14981
 H637 H -0.10013 0.24784 0.18606
 H638 H -0.10013 0.25213 0.31389
 H639 H 0.10011 0.24786 0.31389
 H640 H 0.10011 0.25211 0.18606
 C641 C 0.75183 0.52177 0.25140
 C642 C 0.72625 0.54214 0.22568
 C643 C 0.72628 0.58353 0.22580
 C644 C 0.75165 0.60466 0.25143
 C645 C 0.77718 0.58368 0.27704
 C646 C 0.77736 0.54221 0.27714
 C647 C 0.75183 0.47820 0.25140
 C648 C 0.77736 0.45776 0.27714
 C649 C 0.77718 0.41629 0.27704
 C650 C 0.75165 0.39531 0.25143
 C651 C 0.72628 0.41644 0.22580
 C652 C 0.72625 0.45783 0.22568
 C653 C 0.80252 0.52073 0.30247
 C654 C 0.80252 0.47924 0.30247
 C655 C 0.70110 0.52071 0.20034
 C656 C 0.70110 0.47927 0.20034
 H657 H 0.82237 0.53613 0.32248
 H658 H 0.82237 0.46385 0.32248
 H659 H 0.68123 0.53610 0.18035
 H660 H 0.68123 0.46388 0.18035
 H661 H 0.70650 0.59924 0.20595
 H662 H 0.79682 0.59954 0.29690
 H663 H 0.79682 0.40043 0.29690
 H664 H 0.70650 0.40074 0.20595
 C665 C 0.74857 0.24908 0.52191
 C666 C 0.74782 0.28527 0.54229
 C667 C 0.74753 0.28522 0.58389
 C668 C 0.74941 0.24938 0.60492
 C669 C 0.75086 0.21338 0.58412
 C670 C 0.74974 0.21303 0.54252
 C671 C 0.74821 0.24893 0.47817
 C672 C 0.74759 0.21274 0.45778
 C673 C 0.74678 0.21281 0.41615
 C674 C 0.74806 0.24870 0.39515
 C675 C 0.74924 0.28468 0.41598
 C676 C 0.74863 0.28500 0.45757
 C677 C 0.74957 0.17743 0.52109
 C678 C 0.74816 0.17728 0.47944
 C679 C 0.74761 0.32073 0.52064
 C680 C 0.74837 0.32060 0.47899
 H681 H 0.75029 0.14943 0.53664
 H682 H 0.74785 0.14918 0.46406
 H683 H 0.74718 0.34882 0.53602
 H684 H 0.74853 0.34860 0.46343
 H685 H 0.74670 0.31296 0.59994
 H686 H 0.75199 0.18576 0.60037
 H687 H 0.74621 0.18508 0.40006
 H688 H 0.74995 0.31233 0.39976
 C689 C 0.52187 0.24999 0.24998
 C690 C 0.54236 0.28611 0.24925
 C691 C 0.58398 0.28591 0.24857
 C692 C 0.60492 0.24999 0.24998
 C693 C 0.58398 0.21406 0.25138
 C694 C 0.54236 0.21387 0.25070
 C695 C 0.47811 0.24999 0.24998
 C696 C 0.45761 0.21386 0.24926
 C697 C 0.41599 0.21406 0.24858
 C698 C 0.39506 0.24999 0.24998
 C699 C 0.41599 0.28591 0.25137
 C700 C 0.45761 0.28611 0.25069
 C701 C 0.52082 0.17833 0.25051
 C702 C 0.47916 0.17833 0.24946
 C703 C 0.52082 0.32164 0.24945
 C704 C 0.47916 0.32164 0.25049
 H705 H 0.53629 0.15028 0.25090
 H706 H 0.46369 0.15028 0.24907
 H707 H 0.53629 0.34969 0.24905
 H708 H 0.46369 0.34969 0.25088
 H709 H 0.60012 0.31361 0.24780
 H710 H 0.60012 0.18636 0.25216
 H711 H 0.39986 0.18636 0.24781
 H712 H 0.39986 0.31361 0.25214
 C713 C 0.24814 0.52177 0.24855
 C714 C 0.22261 0.54221 0.22281
 C715 C 0.22280 0.58368 0.22291
 C716 C 0.24833 0.60466 0.24852
 C717 C 0.27369 0.58353 0.27415
 C718 C 0.27372 0.54214 0.27428
 C719 C 0.24814 0.47820 0.24855
 C720 C 0.27372 0.45783 0.27428
 C721 C 0.27369 0.41644 0.27415
 C722 C 0.24833 0.39531 0.24852
 C723 C 0.22280 0.41629 0.22291
 C724 C 0.22261 0.45776 0.22281
 C725 C 0.29887 0.52071 0.29961
 C726 C 0.29887 0.47927 0.29961
 C727 C 0.19746 0.52073 0.19749
 C728 C 0.19746 0.47924 0.19749
 H729 H 0.31874 0.53610 0.31961
 H730 H 0.31874 0.46388 0.31961
 H731 H 0.17761 0.53613 0.17747
 H732 H 0.17761 0.46385 0.17747
 H733 H 0.20315 0.59955 0.20305
 H734 H 0.29347 0.59924 0.29401
 H735 H 0.29347 0.40074 0.29401
 H736 H 0.20315 0.40043 0.20305
 C737 C 0.25143 0.25090 0.52191
 C738 C 0.25026 0.28695 0.54252
 C739 C 0.24915 0.28660 0.58412
 C740 C 0.25060 0.25060 0.60492
 C741 C 0.25248 0.21476 0.58389
 C742 C 0.25219 0.21471 0.54229
 C743 C 0.25178 0.25105 0.47817
 C744 C 0.25136 0.21498 0.45757
 C745 C 0.25075 0.21530 0.41598
 C746 C 0.25193 0.25128 0.39515
 C747 C 0.25321 0.28716 0.41615
 C748 C 0.25240 0.28724 0.45778
 C749 C 0.25239 0.17925 0.52064
 C750 C 0.25162 0.17938 0.47899
 C751 C 0.25044 0.32255 0.52109
 C752 C 0.25183 0.32270 0.47944
 H753 H 0.25282 0.15115 0.53602
 H754 H 0.25146 0.15138 0.46343
 H755 H 0.24972 0.35055 0.53664
 H756 H 0.25215 0.35080 0.46406
 H757 H 0.24803 0.31422 0.60037
 H758 H 0.25331 0.18702 0.59995
 H759 H 0.25003 0.18764 0.39976
 H760 H 0.25378 0.31489 0.40006
   
