data_POSCAR
  _audit_creation_date              2014-09-24
  _audit_creation_method            'ToBaCCo'
  _symmetry_space_group_name_H-M    'P1'
  _symmetry_Int_Tables_number       1
  _symmetry_cell_setting            triclinic
  loop_
  _symmetry_equiv_pos_as_xyz
 x,y,z
_cell_length_a 29.0517
_cell_length_b 29.0134
_cell_length_c 28.9231
_cell_angle_alpha 89.749600
_cell_angle_beta 89.964600
_cell_angle_gamma 90.080400
loop_
  _atom_site_label
  _atom_site_type_symbol
  _atom_site_fract_x
  _atom_site_fract_y
  _atom_site_fract_z
C1 C 0.18072 0.18015 0.23911
 C2 C 0.21974 0.15961 0.21889
 C3 C 0.24010 0.17804 0.17866
 C4 C 0.21842 0.21535 0.15643
 C5 C 0.17968 0.23633 0.17603
 C6 C 0.16040 0.21799 0.21649
 H7 H 0.23537 0.12987 0.23532
 H8 H 0.23324 0.23019 0.12533
 H9 H 0.12934 0.23340 0.23027
 C10 C -0.18794 0.80977 0.24701
 C11 C -0.16690 0.77158 0.22564
 C12 C -0.18537 0.75236 0.18529
 C13 C -0.22428 0.77246 0.16489
 C14 C -0.24568 0.81057 0.18533
 C15 C -0.22687 0.82956 0.22565
 H16 H -0.13723 0.75527 0.24143
 H17 H -0.23815 0.75816 0.13325
 H18 H -0.24242 0.86027 0.24001
 C19 C -0.17719 0.17422 -0.23657
 C20 C -0.21730 0.15518 -0.21678
 C21 C -0.23613 0.17307 -0.17573
 C22 C -0.21151 0.20750 -0.15210
 C23 C -0.17075 0.22600 -0.17041
 C24 C -0.15403 0.20948 -0.21268
 H25 H -0.23622 0.12913 -0.23570
 H26 H -0.22409 0.22015 -0.11922
 H27 H -0.12259 0.22400 -0.22675
 C28 C 0.17279 0.82885 -0.23273
 C29 C 0.15277 0.78954 -0.21281
 C30 C 0.16731 0.77347 -0.16961
 C31 C 0.20331 0.79604 -0.14675
 C32 C 0.22320 0.83645 -0.16528
 C33 C 0.20724 0.85265 -0.20844
 H34 H 0.12562 0.77140 -0.23093
 H35 H 0.21463 0.78278 -0.11357
 H36 H 0.22281 0.88281 -0.22423
 C37 C 0.17197 1.17059 0.76627
 C38 C 0.14880 1.20654 0.78865
 C39 C 0.16645 1.22569 0.82947
 C40 C 0.20803 1.20884 0.84761
 C41 C 0.23122 1.17243 0.82598
 C42 C 0.21257 1.15289 0.78577
 H43 H 0.11728 1.22008 0.77390
 H44 H 0.22268 1.22449 0.87822
 H45 H 0.23006 1.12439 0.76923
 C46 C 0.83831 0.84150 0.78115
 C47 C 0.86021 0.80394 0.80317
 C48 C 0.84092 0.78268 0.84279
 C49 C 0.79921 0.80032 0.86025
 C50 C 0.77747 0.83798 0.83918
 C51 C 0.79614 0.85722 0.79886
 H52 H 0.89085 0.78950 0.78751
 H53 H 0.78421 0.78585 0.89142
 H54 H 0.77870 0.88604 0.78256
 C55 C 0.15598 0.83604 1.21950
 C56 C 0.14162 0.79289 1.20261
 C57 C 0.16582 0.77063 1.16721
 C58 C 0.20403 0.79247 1.14718
 C59 C 0.21901 0.83558 1.16304
 C60 C 0.19535 0.85677 1.19968
 H61 H 0.11099 0.77660 1.21659
 H62 H 0.22258 0.77555 1.11951
 H63 H 0.20878 0.88861 1.21380
 C64 C 0.84335 1.15383 1.21393
 C65 C 0.80278 1.13550 1.19446
 C66 C 0.78247 1.15574 1.15540
 C67 C 0.80182 1.19563 1.13617
 C68 C 0.84166 1.21494 1.15520
 C69 C 0.86204 1.19432 1.19415
 H70 H 0.78733 1.10457 1.20886
 H71 H 0.78589 1.21166 1.10628
 H72 H 0.89149 1.21098 1.20991
 N73 N 0.54733 1.07977 0.95067
 N74 N 0.58031 1.11015 0.94310
 N75 N 0.45068 1.04877 0.91879
 N76 N 0.41657 1.05576 0.88950
 N77 N 0.45033 1.07995 0.95156
 N78 N 0.41567 1.10880 0.94573
 N79 N 0.54732 1.04807 0.91846
 N80 N 0.58014 1.05624 0.88789
 C81 C 0.60029 1.09531 0.90360
 C82 C 0.39509 1.09325 0.90682
 N83 N 0.44864 0.91772 0.95074
 N84 N 0.41058 0.89303 0.94779
 N85 N 0.54648 0.94866 0.91851
 N86 N 0.58404 0.94566 0.89302
 N87 N 0.54562 0.91586 0.94998
 N88 N 0.58244 0.88946 0.94650
 N89 N 0.44939 0.94984 0.91863
 N90 N 0.41186 0.94787 0.89305
 Mn91 Mn 0.49857 0.99870 0.91802
 C92 C 0.38788 0.91239 0.91174
 C93 C 0.60591 0.90844 0.91075
 N94 N 0.45162 1.07928 1.05103
 N95 N 0.41835 1.10919 1.05876
 N96 N 0.54916 1.04590 1.08131
 N97 N 0.58723 1.04828 1.10609
 N98 N 0.54835 1.07874 1.04992
 N99 N 0.58562 1.10462 1.05273
 N100 N 0.45217 1.04730 1.08322
 N101 N 0.41924 1.05449 1.11377
 Mn102 Mn 0.49931 1.07997 1.00082
 C103 C 0.39864 1.09337 1.09817
 C104 C 0.60938 1.08525 1.08796
 N105 N 0.54609 0.91458 1.04956
 N106 N 0.57793 0.88310 1.05743
 N107 N 0.45033 0.94846 1.08253
 N108 N 0.41367 0.94538 1.10936
 N109 N 0.44943 0.91651 1.05050
 N110 N 0.41238 0.89046 1.05501
 N111 N 0.54736 0.94668 1.08139
 N112 N 0.58027 0.93808 1.11165
 Mn113 Mn 0.49739 0.91556 1.00010
 Mn114 Mn 0.49984 0.99709 1.08268
 Cl115 Cl 0.49882 0.99783 1.00042
 C116 C 0.59895 0.89830 1.09625
 C117 C 0.39053 0.90892 1.09187
 N118 N -0.05097 0.45103 -0.08535
 N119 N -0.05432 0.41389 -0.11135
 N120 N -0.08252 0.54838 -0.05247
 N121 N -0.10709 0.58661 -0.05454
 N122 N -0.05069 0.54843 -0.08477
 N123 N -0.05280 0.58669 -0.10956
 N124 N -0.08321 0.45114 -0.05352
 N125 N -0.10956 0.41425 -0.05721
 C126 C -0.09102 0.39134 -0.09332
 C127 C -0.08811 0.61020 -0.09032
 N128 N -0.05064 0.54587 0.07914
 N129 N -0.05812 0.57840 0.11003
 N130 N -0.08308 0.44948 0.04601
 N131 N -0.10923 0.41233 0.04919
 N132 N -0.05057 0.44860 0.07756
 N133 N -0.05338 0.41063 0.10269
 N134 N -0.08284 0.54630 0.04729
 N135 N -0.11337 0.57879 0.05586
 Mn136 Mn -0.08352 0.49889 -0.00325
 C137 C -0.09735 0.59858 0.09497
 C138 C -0.09032 0.38863 0.08479
 N139 N 0.04835 0.54778 -0.08533
 N140 N 0.05333 0.58387 -0.11280
 N141 N 0.07975 0.45062 -0.05337
 N142 N 0.10543 0.41328 -0.05663
 N143 N 0.04802 0.45102 -0.08569
 N144 N 0.05155 0.41422 -0.11213
 N145 N 0.07977 0.54789 -0.05274
 N146 N 0.10669 0.58434 -0.05673
 Mn147 Mn -0.00140 0.49954 -0.08591
 C148 C 0.08981 0.60622 -0.09442
 C149 C 0.08742 0.39102 -0.09345
 N150 N 0.04836 0.44888 0.07766
 N151 N 0.05598 0.41504 0.10733
 N152 N 0.08010 0.54669 0.04662
 N153 N 0.10926 0.58090 0.05350
 N154 N 0.04850 0.54578 0.07908
 N155 N 0.05540 0.57922 0.10909
 N156 N 0.08049 0.44995 0.04576
 N157 N 0.11102 0.41709 0.05290
 Mn158 Mn -0.00116 0.49728 0.07892
 Mn159 Mn 0.08057 0.49885 -0.00354
 Cl160 Cl -0.00137 0.49869 -0.00339
 C161 C 0.09523 0.39568 0.09139
 C162 C 0.09360 0.60061 0.09280
 N163 N 0.91606 0.04905 0.54718
 N164 N 0.88596 0.05722 0.58036
 N165 N 0.94765 0.08054 0.44976
 N166 N 0.94616 0.10495 0.41121
 N167 N 0.91568 0.04845 0.44968
 N168 N 0.89161 0.05030 0.41098
 N169 N 0.94854 0.08048 0.54704
 N170 N 0.94149 0.11089 0.58005
 C171 C 0.90215 0.09612 0.60038
 C172 C 0.91106 0.08576 0.38735
 N173 N 1.07795 0.04850 0.44788
 N174 N 1.10882 0.05755 0.41562
 N175 N 1.04761 0.07963 0.54612
 N176 N 1.05408 0.10771 0.58131
 N177 N 1.07992 0.04802 0.54487
 N178 N 1.10949 0.05391 0.57896
 N179 N 1.04634 0.08071 0.44887
 N180 N 1.05473 0.11246 0.41717
 Mn181 Mn 0.99747 0.08084 0.49806
 C182 C 1.09392 0.09764 0.39682
 C183 C 1.09290 0.09130 0.60126
 N184 N 0.91441 -0.05105 0.45133
 N185 N 0.88275 -0.05989 0.41986
 N186 N 0.94816 -0.08177 0.54908
 N187 N 0.94538 -0.10687 0.58720
 N188 N 0.91580 -0.05012 0.54850
 N189 N 0.89000 -0.05309 0.58599
 N190 N 0.94603 -0.08330 0.45159
 N191 N 0.93684 -0.11487 0.42018
 Mn192 Mn 0.91492 -0.00089 0.49910
 C193 C 0.89717 -0.09989 0.40076
 C194 C 0.90881 -0.08866 0.60972
 N195 N 1.07990 -0.05111 0.54462
 N196 N 1.11116 -0.05869 0.57682
 N197 N 1.04506 -0.08309 0.44888
 N198 N 1.04701 -0.10888 0.41142
 N199 N 1.07679 -0.05077 0.44745
 N200 N 1.10100 -0.05360 0.40894
 N201 N 1.04758 -0.08270 0.54619
 N202 N 1.05592 -0.11266 0.57960
 Mn203 Mn 1.07915 -0.00141 0.49614
 Mn204 Mn 0.99671 -0.08330 0.49904
 Cl205 Cl 0.99706 -0.00122 0.49810
 C206 C 1.09591 -0.09739 0.59815
 C207 C 1.08205 -0.09003 0.38686
 C208 C 1.13676 0.09443 0.32377
 C209 C 1.15804 0.11412 0.28551
 C210 C 1.16190 0.16223 0.28068
 C211 C 1.14639 0.19061 0.31783
 C212 C 1.12360 0.17027 0.35647
 C213 C 1.11781 0.12172 0.35855
 C214 C 1.10997 0.19916 0.39305
 N215 N 1.11912 0.24492 0.39132
 N216 N 1.14176 0.26375 0.35601
 C217 C 1.15630 0.23822 0.31974
 H218 H 1.13402 0.05729 0.32561
 H219 H 1.16955 0.09119 0.25840
 H220 H 1.09359 0.18601 0.42383
 H221 H 1.17688 0.25533 0.29375
 C222 C 0.89941 -0.14301 0.32771
 C223 C 0.87902 -0.16566 0.29072
 C224 C 0.83094 -0.17103 0.28788
 C225 C 0.80351 -0.15589 0.32592
 C226 C 0.82448 -0.13211 0.36341
 C227 C 0.87279 -0.12474 0.36347
 C228 C 0.79653 -0.11883 0.40088
 N229 N 0.75107 -0.12925 0.40109
 N230 N 0.73171 -0.15278 0.36687
 C231 C 0.75634 -0.16700 0.32982
 H232 H 0.93645 -0.13846 0.32764
 H233 H 0.90121 -0.17681 0.26281
 H234 H 0.81028 -0.10157 0.43079
 H235 H 0.73896 -0.18822 0.30471
 C236 C 0.86113 0.09077 0.67467
 C237 C 0.84137 0.10956 0.71407
 C238 C 0.83961 0.15754 0.72069
 C239 C 0.85516 0.18698 0.68417
 C240 C 0.87565 0.16759 0.64399
 C241 C 0.87972 0.11899 0.64007
 C242 C 0.88900 0.19761 0.60793
 N243 N 0.88197 0.24358 0.61174
 N244 N 0.86170 0.26163 0.64868
 C245 C 0.84750 0.23502 0.68454
 H246 H 0.86320 0.05358 0.67190
 H247 H 0.82957 0.08602 0.74077
 H248 H 0.90350 0.18526 0.57601
 H249 H 0.82892 0.25171 0.71210
 C250 C 1.08973 -0.13166 0.67561
 C251 C 1.10815 -0.14825 0.71670
 C252 C 1.15576 -0.15408 0.72190
 C253 C 1.18517 -0.14420 0.68383
 C254 C 1.16635 -0.12565 0.64238
 C255 C 1.11816 -0.11857 0.63888
 C256 C 1.19633 -0.11686 0.60512
 N257 N 1.24187 -0.12612 0.60923
 N258 N 1.25940 -0.14407 0.64780
 C259 C 1.23265 -0.15377 0.68501
 H260 H 1.05286 -0.12788 0.67285
 H261 H 1.08489 -0.15616 0.74496
 H262 H 1.18408 -0.10385 0.57236
 H263 H 1.24873 -0.16976 0.71465
 C264 C 0.32283 1.13062 1.09354
 C265 C 0.28453 1.15181 1.11283
 C266 C 0.28144 1.15949 1.16073
 C267 C 0.32013 1.14811 1.18905
 C268 C 0.35888 1.12568 1.16926
 C269 C 0.35956 1.11622 1.12121
 C270 C 0.39688 1.11590 1.19793
 N271 N 0.39639 1.12852 1.24295
 N272 N 0.36093 1.15099 1.26114
 C273 C 0.32328 1.16181 1.23573
 H274 H 0.32325 1.12432 1.05663
 H275 H 0.25610 1.16027 1.09010
 H276 H 0.42763 1.09965 1.18500
 H277 H 0.29706 1.18241 1.25209
 C278 C 0.33564 0.84828 0.89397
 C279 C 0.29550 0.82970 0.87585
 C280 C 0.26065 0.85800 0.85747
 C281 C 0.26564 0.90681 0.86142
 C282 C 0.30702 0.92574 0.87976
 C283 C 0.34281 0.89589 0.89469
 C284 C 0.31005 0.97396 0.88475
 N285 N 0.27414 1.00113 0.87255
 N286 N 0.23505 0.98346 0.85651
 C287 C 0.22933 0.93743 0.85118
 H288 H 0.36222 0.82496 0.90597
 H289 H 0.29324 0.79249 0.87370
 H290 H 0.33977 0.99047 0.89965
 H291 H 0.19585 0.92532 0.84048
 C292 C 0.67677 0.89910 1.13001
 C293 C 0.71429 0.87803 1.15127
 C294 C 0.71269 0.83139 1.16402
 C295 C 0.67161 0.80596 1.15633
 C296 C 0.63384 0.82715 1.13352
 C297 C 0.63691 0.87402 1.11984
 C298 C 0.59348 0.80106 1.12700
 N299 N 0.59129 0.75694 1.14248
 N300 N 0.62644 0.73732 1.16448
 C301 C 0.66628 0.76039 1.17223
 H302 H 0.67917 0.93514 1.12061
 H303 H 0.74508 0.89822 1.15740
 H304 H 0.56329 0.81538 1.11063
 H305 H 0.69287 0.74324 1.19172
 C306 C 0.67332 1.09005 0.86061
 C307 C 0.71307 1.10868 0.84132
 C308 C 0.72111 1.15651 0.84124
 C309 C 0.68557 1.18613 0.85792
 C310 C 0.64513 1.16685 0.87811
 C311 C 0.63992 1.11822 0.88076
 C312 C 0.61005 1.19714 0.89247
 N313 N 0.61502 1.24323 0.88676
 N314 N 0.65220 1.26123 0.86681
 C315 C 0.68713 1.23440 0.85161
 H316 H 0.66930 1.05295 0.86104
 H317 H 0.73885 1.08500 0.82845
 H318 H 0.57789 1.18499 0.90658
 H319 H 0.71482 1.25122 0.83323
 C320 C 0.09304 0.31650 0.12207
 C321 C 0.11347 0.27785 0.14191
 C322 C 0.15988 0.27854 0.15507
 C323 C 0.18587 0.31965 0.14914
 C324 C 0.16525 0.35866 0.12791
 C325 C 0.11856 0.35661 0.11393
 C326 C 0.19168 0.39912 0.12316
 N327 N 0.23566 0.40020 0.13874
 N328 N 0.25485 0.36380 0.15914
 C329 C 0.23145 0.32377 0.16518
 H330 H 0.05717 0.31488 0.11223
 H331 H 0.09295 0.24700 0.14680
 H332 H 0.17771 0.43021 0.10808
 H333 H 0.24857 0.29598 0.18319
 C334 C -0.15623 0.34458 -0.12018
 C335 C -0.17542 0.30477 -0.13861
 C336 C -0.14824 0.26591 -0.14758
 C337 C -0.10071 0.26697 -0.13609
 C338 C -0.08096 0.30795 -0.11800
 C339 C -0.10908 0.34722 -0.11084
 C340 C -0.03395 0.30757 -0.10618
 N341 N -0.00866 0.26883 -0.11231
 N342 N -0.02724 0.23036 -0.12896
 C343 C -0.07235 0.22800 -0.14076
 H344 H -0.17824 0.37413 -0.11440
 H345 H -0.21177 0.30471 -0.14696
 H346 H -0.01714 0.33726 -0.09135
 H347 H -0.08569 0.19543 -0.15287
 C348 C 0.12745 0.65070 -0.15629
 C349 C 0.14636 0.69103 -0.17429
 C350 C 0.14548 0.73210 -0.14894
 C351 C 0.12379 0.73271 -0.10497
 C352 C 0.10540 0.69134 -0.08629
 C353 C 0.10780 0.65015 -0.11219
 C354 C 0.08354 0.69302 -0.04291
 N355 N 0.08012 0.73364 -0.02017
 N356 N 0.09693 0.77260 -0.03789
 C357 C 0.11844 0.77359 -0.07951
 H358 H 0.12900 0.61941 -0.17655
 H359 H 0.16238 0.69008 -0.20812
 H360 H 0.06842 0.66267 -0.02722
 H361 H 0.13034 0.80647 -0.09253
 C362 C -0.09685 0.67697 0.12765
 C363 C -0.11809 0.71409 0.14940
 C364 C -0.16389 0.71102 0.16440
 C365 C -0.18815 0.66894 0.15882
 C366 C -0.16691 0.63155 0.13571
 C367 C -0.12105 0.63604 0.11960
 C368 C -0.19191 0.59022 0.13101
 N369 N -0.23504 0.58678 0.14862
 N370 N -0.25467 0.62161 0.17099
 C371 C -0.23262 0.66236 0.17696
 H372 H -0.06157 0.68061 0.11601
 H373 H -0.09885 0.74577 0.15394
 H374 H -0.17743 0.56033 0.11430
 H375 H -0.24960 0.68874 0.19678
 C376 C 1.08937 0.11448 0.68307
 C377 C 1.10851 0.13343 0.72286
 C378 C 1.15332 0.15147 0.72254
 C379 C 1.17884 0.15134 0.68064
 C380 C 1.15982 0.13079 0.64051
 C381 C 1.11479 0.11216 0.64205
 C382 C 1.18601 0.13124 0.59955
 N383 N 1.22809 0.15148 0.59893
 N384 N 1.24550 0.17168 0.63628
 C385 C 1.22221 0.17261 0.67689
 H386 H 1.05468 0.10077 0.68451
 H387 H 1.08828 0.13374 0.75434
 H388 H 1.17326 0.11639 0.56783
 H389 H 1.23732 0.19093 0.70543
 C390 C 0.84568 -0.11523 0.66033
 C391 C 0.82829 -0.13161 0.70220
 C392 C 0.85711 -0.13812 0.74078
 C393 C 0.90390 -0.12364 0.73747
 C394 C 0.92149 -0.10695 0.69466
 C395 C 0.89232 -0.10432 0.65552
 C396 C 0.96712 -0.09072 0.69321
 N397 N 0.99306 -0.09063 0.73214
 N398 N 0.97639 -0.10524 0.77246
 C399 C 0.93273 -0.12125 0.77653
 H400 H 0.82265 -0.11218 0.63102
 H401 H 0.79231 -0.14143 0.70363
 H402 H 0.98214 -0.07689 0.66190
 H403 H 0.92039 -0.12983 0.81064
 C404 C 1.10447 -0.15448 0.33657
 C405 C 1.12195 -0.17261 0.29574
 C406 C 1.13336 -0.14396 0.25796
 C407 C 1.12257 -0.09610 0.26087
 C408 C 1.10492 -0.07769 0.30281
 C409 C 1.09746 -0.10712 0.34136
 C410 C 1.09286 -0.03072 0.30388
 N411 N 1.09752 -0.00429 0.26542
 N412 N 1.11294 -0.02166 0.22586
 C413 C 1.12509 -0.06656 0.22214
 H414 H 1.09798 -0.17758 0.36540
 H415 H 1.12918 -0.20923 0.29496
 H416 H 1.07842 -0.01492 0.33435
 H417 H 1.13471 -0.07904 0.18847
 C418 C 0.84921 0.10330 0.33200
 C419 C 0.83265 0.11942 0.28987
 C420 C 0.86270 0.13367 0.25431
 C421 C 0.91106 0.12780 0.26118
 C422 C 0.92788 0.11169 0.30460
 C423 C 0.89642 0.10067 0.34062
 C424 C 0.97566 0.10475 0.30954
 N425 N 1.00438 0.11300 0.27353
 N426 N 0.98864 0.12680 0.23261
 C427 C 0.94316 0.13377 0.22501
 H428 H 0.82469 0.09429 0.35883
 H429 H 0.79573 0.12316 0.28632
 H430 H 0.99060 0.09139 0.34095
 H431 H 0.93260 0.14223 0.19028
 C432 C 0.11576 0.34437 -0.15824
 C433 C 0.13499 0.30464 -0.17673
 C434 C 0.14317 0.26576 -0.14897
 C435 C 0.12983 0.26659 -0.10173
 C436 C 0.11086 0.30745 -0.08271
 C437 C 0.10476 0.34681 -0.11125
 C438 C 0.09723 0.30690 -0.03599
 N439 N 0.10244 0.26807 -0.01029
 N440 N 0.11996 0.22970 -0.02818
 C441 C 0.13356 0.22753 -0.07298
 H442 H 0.11077 0.37404 -0.18056
 H443 H 0.14461 0.30462 -0.21294
 H444 H 0.08170 0.33655 -0.01979
 H445 H 0.14639 0.19505 -0.08577
 C446 C -0.15041 0.33976 0.11990
 C447 C -0.16660 0.29792 0.13726
 C448 C -0.13936 0.25813 0.13542
 C449 C -0.09539 0.26034 0.11423
 C450 C -0.07876 0.30305 0.09689
 C451 C -0.10640 0.34306 0.10056
 C452 C -0.03550 0.30390 0.07501
 N453 N -0.01083 0.26448 0.07088
 N454 N -0.02649 0.22438 0.08705
 C455 C -0.06790 0.22092 0.10845
 H456 H -0.17205 0.37004 0.12242
 H457 H -0.20053 0.29664 0.15281
 H458 H -0.02131 0.33531 0.06061
 H459 H -0.07927 0.18730 0.11991
 C460 C -0.15104 0.66410 -0.10850
 C461 C -0.16841 0.70604 -0.12404
 C462 C -0.13907 0.74259 -0.13709
 C463 C -0.09069 0.73671 -0.13054
 C464 C -0.07298 0.69336 -0.11556
 C465 C -0.10366 0.65650 -0.10550
 C466 C -0.02514 0.68932 -0.10866
 N467 N 0.00273 0.72618 -0.11551
 N468 N -0.01392 0.76712 -0.12767
 C469 C -0.05953 0.77378 -0.13457
 H470 H -0.17503 0.63664 -0.10018
 H471 H -0.20536 0.70875 -0.12823
 H472 H -0.00952 0.65788 -0.09646
 H473 H -0.07106 0.80841 -0.14123
 C474 C 0.12463 0.67921 0.08485
 C475 C 0.14169 0.72028 0.10266
 C476 C 0.15026 0.72499 0.15010
 C477 C 0.14308 0.68651 0.17983
 C478 C 0.12454 0.64500 0.16174
 C479 C 0.11450 0.64189 0.11389
 C480 C 0.11842 0.60737 0.19202
 N481 N 0.13014 0.61124 0.23719
 N482 N 0.14799 0.64995 0.25406
 C483 C 0.15517 0.68751 0.22696
 H484 H 0.11804 0.67696 0.04813
 H485 H 0.14739 0.74899 0.07926
 H486 H 0.10541 0.57460 0.18021
 H487 H 0.17111 0.71735 0.24243
 C488 C 0.31381 1.11753 0.91034
 C489 C 0.27427 1.13657 0.89079
 C490 C 0.27490 1.15460 0.84572
 C491 C 0.31683 1.15472 0.82052
 C492 C 0.35671 1.13420 0.83995
 C493 C 0.35484 1.11524 0.88510
 C494 C 0.39769 1.13480 0.81396
 N495 N 0.39853 1.15514 0.77168
 N496 N 0.36137 1.17528 0.75387
 C497 C 0.32075 1.17605 0.77695
 H498 H 0.31208 1.10347 0.94508
 H499 H 0.24269 1.13664 0.91074
 H500 H 0.42924 1.11998 0.82703
 H501 H 0.29230 1.19429 0.76156
 C502 C 0.34300 0.84714 1.12578
 C503 C 0.30175 0.82963 1.14303
 C504 C 0.26162 0.85651 1.14343
 C505 C 0.26334 0.90203 1.12517
 C506 C 0.30581 0.92036 1.10898
 C507 C 0.34579 0.89246 1.10943
 C508 C 0.30637 0.96561 1.09123
 N509 N 0.26689 0.99039 1.08933
 N510 N 0.22689 0.97285 1.10347
 C511 C 0.22371 0.92950 1.12090
 H512 H 0.37326 0.82534 1.12595
 H513 H 0.30124 0.79474 1.15655
 H514 H 0.33757 0.98136 1.07824
 H515 H 0.19011 0.91664 1.13022
 C516 C 0.65847 1.14693 1.11898
 C517 C 0.70024 1.16395 1.13519
 C518 C 0.73968 1.13620 1.13573
 C519 C 0.73722 1.09074 1.11804
 C520 C 0.69452 1.07327 1.10194
 C521 C 0.65482 1.10153 1.10334
 C522 C 0.69344 1.02852 1.08343
 N523 N 0.73258 1.00319 1.08138
 N524 N 0.77265 1.01959 1.09643
 C525 C 0.77636 1.06246 1.11454
 H526 H 0.62848 1.16908 1.11957
 H527 H 0.70165 1.19890 1.14817
 H528 H 0.66210 1.01362 1.06993
 H529 H 0.81001 1.07423 1.12522
 C530 C 0.65480 0.84602 0.88063
 C531 C 0.69610 0.82907 0.86314
 C532 C 0.73499 0.85748 0.85962
 C533 C 0.73261 0.90354 0.87576
 C534 C 0.69043 0.92089 0.89323
 C535 C 0.65110 0.89196 0.89469
 C536 C 0.68956 0.96627 0.91024
 N537 N 0.72833 0.99233 0.90942
 N538 N 0.76790 0.97608 0.89301
 C539 C 0.77144 0.93262 0.87635
 H540 H 0.62514 0.82338 0.88219
 H541 H 0.69755 0.79364 0.85153
 H542 H 0.65877 0.98111 0.92489
 H543 H 0.80476 0.92108 0.86454
   
