data_POSCAR
  _audit_creation_date              2014-09-24
  _audit_creation_method            'ToBaCCo'
  _symmetry_space_group_name_H-M    'P1'
  _symmetry_Int_Tables_number       1
  _symmetry_cell_setting            triclinic
  loop_
  _symmetry_equiv_pos_as_xyz
 x,y,z
_cell_length_a 41.2671
_cell_length_b 40.5736
_cell_length_c 43.2052
_cell_angle_alpha 89.684500
_cell_angle_beta 88.973700
_cell_angle_gamma 88.825200
loop_
  _atom_site_label
  _atom_site_type_symbol
  _atom_site_fract_x
  _atom_site_fract_y
  _atom_site_fract_z
N1 N 0.17653 1.24418 0.16779
 N2 N 0.15618 1.24898 0.19110
 C3 C 0.13578 1.27417 0.18424
 C4 C 0.14365 1.28594 0.15480
 C5 C 0.16978 1.26608 0.14521
 H6 H 0.11643 1.28276 0.19951
 H7 H 0.18304 1.26724 0.12346
 Cu8 Cu 0.15765 1.22146 0.22796
 Cu9 Cu 0.21008 1.20969 0.16835
 Cu10 Cu 0.20718 1.15450 0.22964
 N11 N 0.15225 1.18695 0.25881
 N12 N 0.17213 1.16131 0.25988
 C13 C 0.16304 1.14150 0.28339
 C14 C 0.13561 1.15522 0.29785
 C15 C 0.12956 1.18419 0.28139
 H16 H 0.17511 1.11837 0.28882
 H17 H 0.11019 1.20208 0.28536
 N18 N 0.24061 1.15200 0.19655
 N19 N 0.24181 1.17315 0.17327
 C20 C 0.26672 1.16458 0.15423
 C21 C 0.28184 1.13652 0.16593
 C22 C 0.26461 1.12929 0.19282
 H23 H 0.27283 1.17726 0.13292
 H24 H 0.26909 1.10887 0.20844
 H25 H 0.18175 1.17872 0.19523
 H26 H 0.21297 1.20282 0.21568
 N27 N 0.83533 0.75280 0.16014
 N28 N 0.86094 0.75773 0.17698
 C29 C 0.88430 0.73553 0.16924
 C30 C 0.87283 0.71553 0.14611
 C31 C 0.84156 0.72728 0.14100
 H32 H 0.90792 0.73426 0.17962
 H33 H 0.82486 0.71863 0.12401
 Cu34 Cu 0.86201 0.79312 0.20689
 Cu35 Cu 0.79686 0.78138 0.16275
 Cu36 Cu 0.79716 0.84299 0.21803
 N37 N 0.85696 0.81994 0.24381
 N38 N 0.83142 0.83924 0.24832
 C39 C 0.83493 0.85612 0.27474
 C40 C 0.86449 0.84702 0.28761
 C41 C 0.87761 0.82375 0.26718
 H42 H 0.81754 0.87433 0.28322
 H43 H 0.90072 0.81090 0.26861
 N44 N 0.76075 0.83678 0.18992
 N45 N 0.76057 0.81323 0.16898
 C46 C 0.73358 0.81672 0.15212
 C47 C 0.71583 0.84376 0.16295
 C48 C 0.73377 0.85571 0.18707
 H49 H 0.72776 0.80128 0.13278
 H50 H 0.72835 0.87752 0.20062
 H51 H 0.81908 0.82242 0.17857
 H52 H 0.80313 0.79370 0.20879
 N53 N 0.80507 1.25114 -0.16104
 N54 N 0.82356 1.25572 -0.18568
 C55 C 0.84502 1.27932 -0.17972
 C56 C 0.83973 1.29014 -0.14960
 C57 C 0.81408 1.27164 -0.13857
 H58 H 0.86359 1.28734 -0.19587
 H59 H 0.80287 1.27272 -0.11580
 Cu60 Cu 0.81867 1.22955 -0.22278
 Cu61 Cu 0.77149 1.21816 -0.15936
 Cu62 Cu 0.76938 1.16432 -0.22094
 N63 N 0.82138 1.19558 -0.25427
 N64 N 0.80217 1.17018 -0.25339
 C65 C 0.81004 1.14990 -0.27696
 C66 C 0.83579 1.16314 -0.29373
 C67 C 0.84216 1.19237 -0.27850
 H68 H 0.79810 1.12693 -0.28104
 H69 H 0.86101 1.20968 -0.28390
 N70 N 0.73841 1.16267 -0.18573
 N71 N 0.73939 1.18312 -0.16216
 C72 C 0.71631 1.17500 -0.14124
 C73 C 0.69992 1.14808 -0.15211
 C74 C 0.71457 1.14103 -0.18047
 H75 H 0.71196 1.18761 -0.11956
 H76 H 0.70898 1.12098 -0.19571
 H77 H 0.79766 1.18701 -0.18868
 H78 H 0.76456 1.21270 -0.20639
 N79 N 0.19234 0.75465 -0.17576
 N80 N 0.17349 0.75401 -0.19993
 C81 C 0.15240 0.72935 -0.19643
 C82 C 0.15842 0.71350 -0.16856
 C83 C 0.18404 0.73024 -0.15613
 H84 H 0.13382 0.72371 -0.21280
 H85 H 0.19497 0.72588 -0.13389
 Cu86 Cu 0.17716 0.78625 -0.23309
 Cu87 Cu 0.22435 0.78871 -0.17034
 Cu88 Cu 0.22198 0.85338 -0.22288
 N89 N 0.17225 0.82495 -0.25931
 N90 N 0.18957 0.85126 -0.25501
 C91 C 0.18070 0.87469 -0.27548
 C92 C 0.15634 0.86251 -0.29382
 C93 C 0.15177 0.83066 -0.28273
 H94 H 0.19122 0.89883 -0.27659
 H95 H 0.13446 0.81301 -0.29049
 N96 N 0.25308 0.85076 -0.18885
 N97 N 0.25433 0.82591 -0.16906
 C98 C 0.27754 0.83157 -0.14833
 C99 C 0.29151 0.86153 -0.15530
 C100 C 0.27539 0.87290 -0.18121
 H101 H 0.28319 0.81552 -0.12903
 H102 H 0.27947 0.89572 -0.19354
 H103 H 0.19595 0.82294 -0.19334
 H104 H 0.23023 0.80334 -0.21596
 Si105 Si 0.50056 0.99033 0.01129
 Si106 Si 0.01140 0.49670 0.98371
 Si107 Si 0.98705 0.00051 0.50429
 C108 C 0.10269 0.33067 1.15174
 C109 C 0.08747 0.35613 1.13518
 C110 C 0.09721 0.36329 1.10479
 C111 C 0.12278 0.34490 1.09113
 C112 C 0.13824 0.31960 1.10766
 C113 C 0.12836 0.31186 1.13825
 N114 N 0.08044 0.38887 1.08815
 N115 N 0.08633 0.39459 1.05962
 C116 C 0.06942 0.41982 1.04270
 C117 C 0.07472 0.42221 1.01069
 C118 C 0.05767 0.44567 0.99327
 C119 C 0.03551 0.46749 1.00777
 C120 C 0.03031 0.46534 1.03987
 C121 C 0.04714 0.44164 1.05728
 H122 H 0.09414 0.32602 1.17512
 H123 H 0.06778 0.37016 1.14599
 H124 H 0.13082 0.35001 1.06764
 H125 H 0.15767 0.30606 1.09605
 H126 H 0.09169 0.40544 0.99918
 H127 H 0.06159 0.44664 0.96843
 H128 H 0.01279 0.48138 1.05148
 H129 H 0.04252 0.44017 1.08198
 C130 C -0.07568 0.68414 1.13304
 C131 C -0.05870 0.65945 1.11677
 C132 C -0.07483 0.63877 1.09667
 C133 C -0.10846 0.64284 1.09317
 C134 C -0.12552 0.66757 1.10942
 C135 C -0.10931 0.68866 1.12946
 N136 N -0.05636 0.61442 1.07974
 N137 N -0.06919 0.59474 1.06091
 C138 C -0.05015 0.57099 1.04373
 C139 C -0.06557 0.55006 1.02323
 C140 C -0.04748 0.52731 1.00547
 C141 C -0.01369 0.52516 1.00820
 C142 C 0.00179 0.54608 1.02869
 C143 C -0.01627 0.56876 1.04645
 H144 H -0.06222 0.69991 1.14802
 H145 H -0.03277 0.65659 1.11960
 H146 H -0.12149 0.62709 1.07776
 H147 H -0.15139 0.67005 1.10623
 H148 H -0.09163 0.55168 1.02077
 H149 H -0.05991 0.51191 0.98936
 H150 H 0.02790 0.54499 1.03082
 H151 H -0.00372 0.58475 1.06201
 C152 C -0.14573 0.31793 0.89986
 C153 C -0.12821 0.34100 0.91617
 C154 C -0.10659 0.36167 0.90066
 C155 C -0.10267 0.35913 0.86839
 C156 C -0.12017 0.33598 0.85199
 C157 C -0.14189 0.31504 0.86756
 N158 N -0.08873 0.38459 0.91838
 N159 N -0.06877 0.40451 0.90612
 C160 C -0.05087 0.42687 0.92447
 C161 C -0.02916 0.44823 0.90980
 C162 C -0.01076 0.46970 0.92723
 C163 C -0.01406 0.47015 0.95958
 C164 C -0.03573 0.44876 0.97430
 C165 C -0.05413 0.42735 0.95693
 H166 H -0.16194 0.30215 0.91278
 H167 H -0.13135 0.34268 0.94105
 H168 H -0.08606 0.37490 0.85588
 H169 H -0.11673 0.33467 0.82715
 H170 H -0.02627 0.44795 0.88485
 H171 H 0.00632 0.48544 0.91537
 H172 H -0.03827 0.44848 0.99930
 H173 H -0.07061 0.41099 0.96888
 C174 C 0.10861 0.67928 0.83617
 C175 C 0.09085 0.65439 0.85062
 C176 C 0.10425 0.63575 0.87469
 C177 C 0.13592 0.64210 0.88412
 C178 C 0.15363 0.66717 0.86987
 C179 C 0.14011 0.68617 0.84583
 N180 N 0.08483 0.61139 0.88979
 N181 N 0.09603 0.59204 0.91045
 C182 C 0.07608 0.56860 0.92625
 C183 C 0.09036 0.54640 0.94711
 C184 C 0.07132 0.52415 0.96384
 C185 C 0.03768 0.52391 0.95987
 C186 C 0.02332 0.54620 0.93908
 C187 C 0.04236 0.56824 0.92217
 H188 H 0.09730 0.69357 0.81795
 H189 H 0.06641 0.64982 0.84323
 H190 H 0.14680 0.62803 0.90274
 H191 H 0.17792 0.67162 0.87770
 H192 H 0.11626 0.54663 0.95068
 H193 H 0.08289 0.50779 0.98032
 H194 H -0.00270 0.54674 0.93613
 H195 H 0.03067 0.58535 0.90640
 C196 C 1.08807 0.15719 0.33299
 C197 C 1.06983 0.14356 0.35729
 C198 C 1.08079 0.11509 0.37252
 C199 C 1.11039 0.10030 0.36321
 C200 C 1.12848 0.11357 0.33870
 C201 C 1.11760 0.14221 0.32302
 N202 N 1.06100 0.10095 0.39652
 N203 N 1.07141 0.07741 0.41347
 C204 C 1.05154 0.06179 0.43650
 C205 C 1.06571 0.03807 0.45591
 C206 C 1.04671 0.02060 0.47717
 C207 C 1.01317 0.02665 0.47924
 C208 C 0.99892 0.05059 0.46000
 C209 C 1.01799 0.06828 0.43889
 H210 H 1.07845 0.17908 0.32180
 H211 H 1.04697 0.15514 0.36418
 H212 H 1.11936 0.07817 0.37456
 H213 H 1.15103 0.10117 0.33233
 H214 H 1.09148 0.03263 0.45407
 H215 H 1.05819 0.00168 0.49115
 H216 H 0.97297 0.05514 0.46090
 H217 H 1.00643 0.08628 0.42390
 C218 C 1.14593 -0.08766 0.67510
 C219 C 1.12877 -0.07099 0.65205
 C220 C 1.10510 -0.08697 0.63540
 C221 C 1.09877 -0.12017 0.64191
 C222 C 1.11577 -0.13694 0.66512
 C223 C 1.13957 -0.12091 0.68228
 N224 N 1.08743 -0.06861 0.61263
 N225 N 1.06667 -0.08160 0.59528
 C226 C 1.04878 -0.06230 0.57327
 C227 C 1.02777 -0.07801 0.55323
 C228 C 1.00950 -0.05960 0.53202
 C229 C 1.01209 -0.02522 0.53072
 C230 C 1.03289 -0.00946 0.55092
 C231 C 1.05129 -0.02782 0.57189
 H232 H 1.16384 -0.07402 0.68737
 H233 H 1.13382 -0.04536 0.64723
 H234 H 1.08051 -0.13306 0.62931
 H235 H 1.11000 -0.16244 0.66942
 H236 H 1.02541 -0.10453 0.55421
 H237 H 0.99307 -0.07221 0.51712
 H238 H 1.03485 0.01713 0.55050
 H239 H 1.06715 -0.01501 0.58724
 C240 C 0.91024 -0.15047 0.32308
 C241 C 0.92511 -0.13643 0.34849
 C242 C 0.90904 -0.11208 0.36595
 C243 C 0.87743 -0.10222 0.35809
 C244 C 0.86249 -0.11607 0.33259
 C245 C 0.87881 -0.14016 0.31433
 N246 N 0.92584 -0.09690 0.39066
 N247 N 0.91242 -0.07539 0.40827
 C248 C 0.92991 -0.05934 0.43205
 C249 C 0.91337 -0.03709 0.45164
 C250 C 0.93010 -0.01975 0.47400
 C251 C 0.96365 -0.02455 0.47702
 C252 C 0.98024 -0.04684 0.45746
 C253 C 0.96351 -0.06432 0.43525
 H254 H 0.92391 -0.16894 0.31018
 H255 H 0.94950 -0.14426 0.35436
 H256 H 0.86446 -0.08341 0.37132
 H257 H 0.83828 -0.10744 0.32723
 H258 H 0.88755 -0.03278 0.44920
 H259 H 0.91688 -0.00205 0.48825
 H260 H 1.00624 -0.05042 0.45911
 H261 H 0.97692 -0.08115 0.42021
 C262 C 0.87826 0.16584 0.66566
 C263 C 0.89545 0.15136 0.64086
 C264 C 0.88751 0.12006 0.63040
 C265 C 0.86154 0.10361 0.64457
 C266 C 0.84419 0.11805 0.66917
 C267 C 0.85249 0.14926 0.68049
 N268 N 0.90661 0.10500 0.60610
 N269 N 0.90243 0.07521 0.59829
 C270 C 0.92147 0.05905 0.57465
 C271 C 0.91792 0.02515 0.57062
 C272 C 0.93721 0.00807 0.54899
 C273 C 0.95990 0.02481 0.53061
 C274 C 0.96326 0.05889 0.53422
 C275 C 0.94415 0.07598 0.55619
 H276 H 0.88553 0.18994 0.67311
 H277 H 0.91538 0.16435 0.63008
 H278 H 0.85477 0.07942 0.63681
 H279 H 0.82463 0.10418 0.67940
 H280 H 0.90064 0.01183 0.58481
 H281 H 0.93466 -0.01834 0.54683
 H282 H 0.98111 0.07217 0.52074
 H283 H 0.94736 0.10220 0.55899
 C284 C 0.31500 1.08428 0.16002
 C285 C 0.33996 1.06593 0.14556
 C286 C 0.35975 1.08039 0.12287
 C287 C 0.35447 1.11367 0.11491
 C288 C 0.32941 1.13198 0.12917
 C289 C 0.30924 1.11744 0.15175
 N290 N 0.38429 1.06060 0.10763
 N291 N 0.40401 1.07279 0.08791
 C292 C 0.42791 1.05311 0.07171
 C293 C 0.44938 1.06865 0.05118
 C294 C 0.47191 1.05010 0.03374
 C295 C 0.47328 1.01567 0.03670
 C296 C 0.45193 1.00004 0.05737
 C297 C 0.42946 1.01861 0.07492
 H298 H 0.29980 1.07221 0.17711
 H299 H 0.34369 1.04027 0.15183
 H300 H 0.36943 1.12542 0.09740
 H301 H 0.32590 1.15752 0.12248
 H302 H 0.44822 1.09518 0.04831
 H303 H 0.48754 1.06272 0.01741
 H304 H 0.45233 0.97343 0.05957
 H305 H 0.41294 1.00600 0.09047
 C306 C 0.65456 1.10770 -0.15238
 C307 C 0.63050 1.08977 -0.13698
 C308 C 0.62531 1.09335 -0.10508
 C309 C 0.64422 1.11554 -0.08871
 C310 C 0.66814 1.13357 -0.10407
 C311 C 0.67377 1.12971 -0.13606
 N312 N 0.60121 1.07389 -0.08976
 N313 N 0.59686 1.07484 -0.06054
 C314 C 0.57323 1.05535 -0.04463
 C315 C 0.57160 1.05648 -0.01229
 C316 C 0.54949 1.03719 0.00413
 C317 C 0.52838 1.01680 -0.01163
 C318 C 0.52989 1.01559 -0.04406
 C319 C 0.55219 1.03479 -0.06052
 H320 H 0.65797 1.10433 -0.17705
 H321 H 0.61605 1.07282 -0.14989
 H322 H 0.64070 1.11878 -0.06402
 H323 H 0.68257 1.15004 -0.09066
 H324 H 0.58777 1.07209 0.00021
 H325 H 0.54894 1.03810 0.02919
 H326 H 0.51433 0.99952 -0.05668
 H327 H 0.55314 1.03338 -0.08553
 C328 C 0.32207 0.91240 -0.14248
 C329 C 0.34547 0.92861 -0.12563
 C330 C 0.36431 0.91137 -0.10412
 C331 C 0.35958 0.87747 -0.09965
 C332 C 0.33607 0.86122 -0.11639
 C333 C 0.31696 0.87852 -0.13797
 N334 N 0.38756 0.92901 -0.08684
 N335 N 0.40639 0.91480 -0.06768
 C336 C 0.42911 0.93280 -0.05006
 C337 C 0.44989 0.91556 -0.03016
 C338 C 0.47178 0.93249 -0.01206
 C339 C 0.47319 0.96695 -0.01380
 C340 C 0.45229 0.98428 -0.03358
 C341 C 0.43050 0.96737 -0.05174
 H342 H 0.30767 0.92664 -0.15862
 H343 H 0.34882 0.95477 -0.12920
 H344 H 0.37386 0.86360 -0.08310
 H345 H 0.33301 0.83510 -0.11248
 H346 H 0.44889 0.88896 -0.02847
 H347 H 0.48708 0.91861 0.00357
 H348 H 0.45271 1.01094 -0.03484
 H349 H 0.41454 0.98131 -0.06678
 C350 C 0.66721 0.88197 0.16635
 C351 C 0.64039 0.89764 0.15287
 C352 C 0.63211 0.89062 0.12238
 C353 C 0.65049 0.86694 0.10571
 C354 C 0.67716 0.85114 0.11918
 C355 C 0.68614 0.85881 0.14951
 N356 N 0.60594 0.90871 0.10842
 N357 N 0.59948 0.90539 0.07992
 C358 C 0.57425 0.92394 0.06504
 C359 C 0.57147 0.92138 0.03294
 C360 C 0.54872 0.94075 0.01721
 C361 C 0.52796 0.96252 0.03349
 C362 C 0.53022 0.96475 0.06576
 C363 C 0.55329 0.94558 0.08151
 H364 H 0.67318 0.88820 0.18986
 H365 H 0.62640 0.91579 0.16600
 H366 H 0.64460 0.86102 0.08209
 H367 H 0.69121 0.83364 0.10542
 H368 H 0.58758 0.90494 0.01999
 H369 H 0.54764 0.93908 -0.00776
 H370 H 0.51490 0.98188 0.07872
 H371 H 0.55509 0.94805 0.10635
   
