data_POSCAR
  _audit_creation_date              2014-09-24
  _audit_creation_method            'ToBaCCo'
  _symmetry_space_group_name_H-M    'P1'
  _symmetry_Int_Tables_number       1
  _symmetry_cell_setting            triclinic
  loop_
  _symmetry_equiv_pos_as_xyz
 x,y,z
_cell_length_a 14.7889
_cell_length_b 14.7867
_cell_length_c 23.1484
_cell_angle_alpha 77.598500
_cell_angle_beta 102.356100
_cell_angle_gamma 81.221400
loop_
  _atom_site_label
  _atom_site_type_symbol
  _atom_site_fract_x
  _atom_site_fract_y
  _atom_site_fract_z
O1 O 0.04785 0.54579 1.07474
 O2 O 0.08413 0.40315 0.96692
 O3 O 0.08492 0.58143 0.96848
 O4 O 0.04399 0.37342 1.07163
 O5 O -0.10889 0.41505 1.02619
 O6 O -0.06775 0.62230 0.92308
 O7 O -0.06855 0.44321 0.92105
 O8 O -0.10490 0.58814 1.02877
 Cu9 Cu 0.08072 0.47208 1.02457
 Cu10 Cu -0.10276 0.52145 0.96964
 C11 C -0.03436 0.59174 1.06998
 C12 C 0.01383 0.39609 0.92692
 C13 C 0.01498 0.63936 0.92938
 C14 C -0.03935 0.35838 1.06609
 O15 O 0.63061 -0.04504 0.57390
 O16 O 0.42245 -0.08640 0.47133
 O17 O 0.60024 -0.08556 0.46943
 O18 O 0.45796 -0.04908 0.57750
 O19 O 0.41534 0.10360 0.53123
 O20 O 0.56008 0.06715 0.42344
 O21 O 0.38148 0.06635 0.42563
 O22 O 0.58869 0.10778 0.52846
 Cu23 Cu 0.53171 -0.08196 0.52730
 Cu24 Cu 0.48215 0.10147 0.47216
 C25 C 0.64605 0.03828 0.56810
 C26 C 0.36486 -0.01652 0.43205
 C27 C 0.60699 -0.01530 0.42922
 C28 C 0.41162 0.03308 0.57246
 C29 C -0.06206 -0.15264 0.21785
 C30 C -0.13130 -0.15643 0.25812
 C31 C -0.13624 -0.08487 0.28726
 C32 C -0.06693 -0.01824 0.27461
 C33 C -0.09211 -0.05218 0.17568
 C34 C -0.09338 0.01908 0.20448
 C35 C 0.03294 -0.15462 0.26109
 C36 C 0.03224 -0.08292 0.28980
 H37 H -0.17258 -0.21086 0.26194
 H38 H -0.06971 0.03743 0.29987
 H39 H -0.09736 -0.03893 0.12693
 H40 H 0.09553 -0.20817 0.26722
 C41 C 0.15266 0.06134 0.71818
 C42 C 0.15415 -0.03332 0.76168
 C43 C 0.08185 -0.03212 0.78990
 C44 C 0.01720 0.06726 0.77408
 C45 C 0.05255 0.09106 0.67554
 C46 C -0.01927 0.09295 0.70391
 C47 C 0.15578 0.13115 0.75801
 C48 C 0.08366 0.13673 0.78665
 H49 H 0.20753 -0.09620 0.76814
 H50 H -0.03888 0.07055 0.79900
 H51 H 0.04001 0.09547 0.62692
 H52 H 0.21035 0.17224 0.76203
 C53 C -0.04540 -0.34354 0.11087
 C54 C 0.01922 -0.27243 0.10424
 C55 C 0.01396 -0.21217 0.14031
 C56 C -0.05677 -0.22669 0.17996
 C57 C -0.15106 -0.22182 0.13425
 C58 C -0.14514 -0.28267 0.09806
 C59 C -0.01898 -0.39271 0.17974
 C60 C -0.02508 -0.33138 0.21602
 H61 H 0.06639 -0.27034 0.07417
 H62 H 0.05702 -0.15891 0.14092
 H63 H -0.21705 -0.17505 0.13114
 H64 H -0.20622 -0.28752 0.06415
 H65 H 0.00172 -0.46892 0.19822
 H66 H -0.00948 -0.35504 0.26550
 C67 C -0.05517 0.26978 0.10480
 C68 C -0.13649 0.23110 0.07180
 C69 C -0.15110 0.15054 0.10599
 C70 C -0.08189 0.11402 0.16996
 C71 C 0.01728 0.10662 0.15844
 C72 C 0.03108 0.18745 0.12428
 C73 C -0.07963 0.27970 0.16486
 C74 C -0.09410 0.19796 0.19904
 H75 H -0.18022 0.26496 0.02584
 H76 H -0.20807 0.11679 0.08937
 H77 H 0.07227 0.04264 0.17580
 H78 H 0.09761 0.19195 0.11228
 H79 H -0.08668 0.34556 0.17867
 H80 H -0.11442 0.19468 0.24164
 C81 C 0.34604 0.04411 0.61286
 C82 C 0.27520 -0.02075 0.60589
 C83 C 0.21408 -0.01537 0.64143
 C84 C 0.22755 0.05570 0.68089
 C85 C 0.33190 0.02429 0.71759
 C86 C 0.39409 0.01807 0.68186
 C87 C 0.28481 0.14383 0.59951
 C88 C 0.22311 0.14986 0.63513
 H89 H 0.27390 -0.06812 0.57597
 H90 H 0.16090 -0.05853 0.64176
 H91 H 0.35472 0.00890 0.76709
 H92 H 0.47018 -0.00250 0.70082
 H93 H 0.29004 0.20485 0.56565
 H94 H 0.17599 0.21587 0.63157
 C95 C -0.26950 0.05342 0.60439
 C96 C -0.18715 -0.03329 0.62513
 C97 C -0.10657 -0.01888 0.65913
 C98 C -0.11395 0.08107 0.66931
 C99 C -0.14952 0.14870 0.60477
 C100 C -0.22982 0.13359 0.57067
 C101 C -0.27998 0.08013 0.66376
 C102 C -0.19841 0.09502 0.69776
 H103 H -0.19116 -0.10045 0.61391
 H104 H -0.04265 -0.07389 0.67709
 H105 H -0.11523 0.20491 0.58761
 H106 H -0.26260 0.17614 0.52424
 H107 H -0.34605 0.08827 0.67731
 H108 H -0.19556 0.11679 0.73985
 C109 C 0.03008 -0.27572 0.89285
 C110 C 0.08971 -0.22101 0.93023
 C111 C 0.10620 -0.14111 0.89584
 C112 C 0.06186 -0.12206 0.82700
 C113 C 0.09881 -0.21415 0.81022
 C114 C 0.08280 -0.29396 0.84488
 C115 C -0.06048 -0.20171 0.85594
 C116 C -0.04374 -0.12195 0.82158
 H117 H 0.11717 -0.24335 0.97956
 H118 H 0.14733 -0.09554 0.91590
 H119 H 0.12956 -0.21665 0.77192
 H120 H 0.10184 -0.36317 0.83674
 H121 H -0.13185 -0.21109 0.85599
 H122 H -0.10110 -0.06533 0.79242
 C123 C 0.02979 0.32877 0.88777
 C124 C -0.05804 0.32323 0.84006
 C125 C -0.03962 0.26100 0.80614
 C126 C 0.06476 0.20919 0.82295
 C127 C 0.11956 0.29045 0.81675
 C128 C 0.10133 0.35221 0.85074
 C129 C 0.07005 0.22595 0.92576
 C130 C 0.08819 0.16375 0.89196
 H131 H -0.12827 0.36535 0.83279
 H132 H -0.09420 0.25087 0.76991
 H133 H 0.16420 0.30333 0.78569
 H134 H 0.13185 0.41472 0.84915
 H135 H 0.08240 0.20380 0.97515
 H136 H 0.11629 0.08870 0.91251
 C137 C -0.32638 -0.03134 0.38966
 C138 C -0.34999 -0.10345 0.35315
 C139 C -0.28882 -0.12171 0.31878
 C140 C -0.20802 -0.06630 0.32407
 C141 C -0.26027 0.03797 0.30710
 C142 C -0.32187 0.05638 0.34142
 C143 C -0.22327 -0.07097 0.42713
 C144 C -0.16169 -0.08911 0.39292
 H145 H -0.41210 -0.13448 0.35228
 H146 H -0.30174 -0.16700 0.28818
 H147 H -0.25085 0.09249 0.27050
 H148 H -0.36417 0.12655 0.33412
 H149 H -0.20048 -0.08294 0.47647
 H150 H -0.08653 -0.11686 0.41307
 C151 C 0.27564 -0.03251 0.39338
 C152 C 0.20282 0.05824 0.35584
 C153 C 0.12309 0.04195 0.32125
 C154 C 0.12227 -0.06364 0.32715
 C155 C 0.21464 -0.10200 0.31116
 C156 C 0.29431 -0.08628 0.34607
 C157 C 0.22001 -0.09090 0.43062
 C158 C 0.14015 -0.10709 0.39605
 H159 H 0.21316 0.12939 0.35570
 H160 H 0.06710 0.09950 0.29163
 H161 H 0.21755 -0.13339 0.27318
 H162 H 0.36380 -0.10620 0.33857
 H163 H 0.24182 -0.11775 0.48000
 H164 H 0.09397 -0.14752 0.41599
   
