data_POSCAR
  _audit_creation_date              2014-09-24
  _audit_creation_method            'ToBaCCo'
  _symmetry_space_group_name_H-M    'P1'
  _symmetry_Int_Tables_number       1
  _symmetry_cell_setting            triclinic
  loop_
  _symmetry_equiv_pos_as_xyz
 x,y,z
_cell_length_a 44.9622
_cell_length_b 45.2972
_cell_length_c 45.4429
_cell_angle_alpha 89.261800
_cell_angle_beta 88.382800
_cell_angle_gamma 86.153300
loop_
  _atom_site_label
  _atom_site_type_symbol
  _atom_site_fract_x
  _atom_site_fract_y
  _atom_site_fract_z
C1 C 0.26492 0.23225 0.22301
 N2 N 0.26378 0.21151 0.24480
 C3 C 0.24122 0.21295 0.26541
 N4 N 0.21970 0.23544 0.26404
 C5 C 0.22054 0.25631 0.24235
 N6 N 0.24322 0.25453 0.22195
 C7 C 0.71963 -0.23025 0.23411
 N8 N 0.71984 -0.20777 0.25367
 C9 C 0.74151 -0.20739 0.27390
 N10 N 0.76312 -0.22980 0.27447
 C11 C 0.76340 -0.25245 0.25512
 N12 N 0.74154 -0.25244 0.23505
 C13 C 0.74341 0.26073 0.77382
 N14 N 0.74558 0.24081 0.75168
 C15 C 0.76798 0.24131 0.73099
 N16 N 0.78835 0.26209 0.73262
 C17 C 0.78653 0.28219 0.75472
 N18 N 0.76396 0.28124 0.77516
 C19 C 0.27545 -0.25921 0.78011
 N20 N 0.25379 -0.27877 0.77915
 C21 C 0.23365 -0.27714 0.75733
 N22 N 0.23533 -0.25570 0.73631
 C23 C 0.25675 -0.23600 0.73685
 N24 N 0.27668 -0.23789 0.75881
 C25 C 0.72649 -0.23613 0.77166
 N26 N 0.74886 -0.25792 0.77045
 C27 C 0.77035 -0.25816 0.74872
 N28 N 0.76918 -0.23620 0.72801
 C29 C 0.74706 -0.21427 0.72883
 N30 N 0.72587 -0.21441 0.75070
 C31 C 0.27976 0.23597 0.76079
 N32 N 0.25838 0.25860 0.75990
 C33 C 0.23772 0.26001 0.73856
 N34 N 0.23863 0.23845 0.71794
 C35 C 0.25991 0.21568 0.71855
 N36 N 0.28035 0.21464 0.74003
 C37 C 0.25933 -0.26614 0.22931
 N38 N 0.23793 -0.28607 0.23004
 C39 C 0.21657 -0.28556 0.25191
 N40 N 0.21690 -0.26477 0.27317
 C41 C 0.23800 -0.24471 0.27285
 N42 N 0.25911 -0.24553 0.25087
 C43 C 0.72069 0.26244 0.22174
 N44 N 0.72043 0.24229 0.24410
 C45 C 0.74018 0.24288 0.26615
 N46 N 0.76036 0.26396 0.26565
 C47 C 0.76096 0.28433 0.24339
 N48 N 0.74100 0.28330 0.22157
 O49 O 0.27701 0.01040 0.46785
 O50 O 0.27381 -0.04534 0.52735
 O51 O 0.27708 -0.04689 0.46986
 O52 O 0.27354 0.01211 0.52510
 O53 O 0.22443 0.01525 0.52357
 O54 O 0.22797 -0.04386 0.46855
 O55 O 0.22471 -0.04234 0.52579
 O56 O 0.22789 0.01359 0.46654
 Cu57 Cu 0.28029 -0.01779 0.49772
 Cu58 Cu 0.22133 -0.01408 0.49600
 C59 C 0.25299 0.02158 0.45704
 C60 C 0.24870 -0.05338 0.53677
 C61 C 0.25310 -0.05537 0.45964
 C62 C 0.24839 0.02389 0.53368
 O63 O 0.73511 0.04639 0.53063
 O64 O 0.73659 -0.00913 0.47220
 O65 O 0.73674 -0.01108 0.52956
 O66 O 0.73576 0.04827 0.47322
 O67 O 0.78493 0.04617 0.47237
 O68 O 0.78592 -0.01329 0.52831
 O69 O 0.78577 -0.01145 0.47111
 O70 O 0.78428 0.04439 0.52960
 Cu71 Cu 0.73113 0.01884 0.50152
 Cu72 Cu 0.79015 0.01624 0.50024
 C73 C 0.75936 0.05493 0.54013
 C74 C 0.76140 -0.01984 0.46166
 C75 C 0.76155 -0.02239 0.53853
 C76 C 0.76021 0.05737 0.46316
 O77 O 0.46885 0.26847 0.02142
 O78 O 0.52850 0.26666 -0.03573
 O79 O 0.47042 0.26924 -0.03569
 O80 O 0.52681 0.26660 0.02143
 O81 O 0.52826 0.21782 0.02183
 O82 O 0.47185 0.22047 -0.03566
 O83 O 0.52986 0.21789 -0.03567
 O84 O 0.47039 0.21969 0.02175
 Cu85 Cu 0.49852 0.27263 -0.00718
 Cu86 Cu 0.50024 0.21406 -0.00695
 C87 C 0.45943 0.24439 0.03141
 C88 C 0.53940 0.24198 -0.04549
 C89 C 0.46142 0.24535 -0.04544
 C90 C 0.53713 0.24182 0.03150
 O91 O 0.52806 0.72367 0.03591
 O92 O 0.47224 0.72490 -0.02216
 O93 O 0.53039 0.72314 -0.02135
 O94 O 0.46990 0.72452 0.03510
 O95 O 0.46791 0.77332 0.03471
 O96 O 0.52815 0.77194 -0.02208
 O97 O 0.47035 0.77369 -0.02273
 O98 O 0.52574 0.77247 0.03532
 Cu99 Cu 0.50036 0.71917 0.00695
 Cu100 Cu 0.49782 0.77773 0.00627
 C101 C 0.53645 0.74791 0.04554
 C102 C 0.46181 0.74958 -0.03242
 C103 C 0.53958 0.74728 -0.03144
 C104 C 0.45856 0.74914 0.04459
 O105 O 0.01668 0.47048 0.27456
 O106 O -0.04059 0.53222 0.27044
 O107 O -0.04109 0.47473 0.27520
 O108 O 0.01746 0.52779 0.26950
 O109 O 0.01822 0.52422 0.22111
 O110 O -0.04054 0.47142 0.22679
 O111 O -0.04008 0.52864 0.22205
 O112 O 0.01746 0.46709 0.22615
 Cu113 Cu -0.01197 0.50173 0.27727
 Cu114 Cu -0.01119 0.49755 0.21917
 C115 C 0.02683 0.45817 0.25106
 C116 C -0.05021 0.54095 0.24557
 C117 C -0.05073 0.46387 0.25194
 C118 C 0.02798 0.53497 0.24436
 O119 O 0.03622 0.53443 0.73828
 O120 O -0.01850 0.47830 0.73124
 O121 O -0.02178 0.53586 0.73597
 O122 O 0.03902 0.47694 0.73429
 O123 O 0.03567 0.47313 0.78271
 O124 O -0.02524 0.53155 0.78432
 O125 O -0.02207 0.47426 0.77963
 O126 O 0.03289 0.53037 0.78667
 Cu127 Cu 0.00906 0.50689 0.73010
 Cu128 Cu 0.00493 0.50199 0.78818
 C129 C 0.04411 0.54187 0.76361
 C130 C -0.02952 0.46652 0.75422
 C131 C -0.03401 0.54368 0.76046
 C132 C 0.04768 0.46491 0.75827
 C133 C 0.30942 0.20549 0.19835
 C134 C 0.33252 0.20423 0.17704
 C135 C 0.33638 0.22821 0.15793
 C136 C 0.31670 0.25356 0.16020
 C137 C 0.29347 0.25477 0.18128
 C138 C 0.28958 0.23078 0.20065
 N139 N 0.36022 0.22631 0.13634
 N140 N 0.36639 0.24840 0.12025
 C141 C 0.38986 0.24679 0.09829
 C142 C 0.39712 0.27275 0.08358
 C143 C 0.41984 0.27203 0.06194
 C144 C 0.43551 0.24515 0.05445
 C145 C 0.42806 0.21905 0.06917
 C146 C 0.40550 0.21986 0.09101
 H147 H 0.30700 0.18660 0.21285
 H148 H 0.34752 0.18455 0.17546
 H149 H 0.31915 0.27237 0.14561
 H150 H 0.27867 0.27461 0.18248
 H151 H 0.38517 0.29361 0.08898
 H152 H 0.42498 0.29250 0.05094
 H153 H 0.43976 0.19801 0.06393
 H154 H 0.40019 0.19947 0.10204
 C155 C 0.67501 0.79290 0.21114
 C156 C 0.65283 0.79252 0.19022
 C157 C 0.65189 0.76861 0.17120
 C158 C 0.67363 0.74498 0.17314
 C159 C 0.69604 0.74540 0.19380
 C160 C 0.69708 0.76937 0.21321
 N161 N 0.62895 0.76905 0.14992
 N162 N 0.62490 0.74676 0.13408
 C163 C 0.60234 0.74745 0.11239
 C164 C 0.59688 0.72127 0.09805
 C165 C 0.57524 0.72127 0.07653
 C166 C 0.55892 0.74765 0.06875
 C167 C 0.56450 0.77392 0.08317
 C168 C 0.58592 0.77382 0.10488
 H169 H 0.67488 0.81181 0.22550
 H170 H 0.63621 0.81091 0.18888
 H171 H 0.67345 0.72629 0.15856
 H172 H 0.71245 0.72680 0.19453
 H173 H 0.60944 0.70081 0.10360
 H174 H 0.57154 0.70069 0.06576
 H175 H 0.55226 0.79459 0.07773
 H176 H 0.58980 0.79437 0.11558
 C177 C 0.71348 0.28416 -0.18431
 C178 C 0.69028 0.28403 -0.16324
 C179 C 0.67222 0.26013 -0.16100
 C180 C 0.67742 0.23624 -0.18031
 C181 C 0.70048 0.23644 -0.20163
 C182 C 0.71884 0.26038 -0.20379
 N183 N 0.64875 0.26083 -0.13903
 N184 N 0.63312 0.23888 -0.13373
 C185 C 0.60960 0.24014 -0.11177
 C186 C 0.59538 0.21438 -0.10452
 C187 C 0.57258 0.21487 -0.08291
 C188 C 0.56344 0.24134 -0.06841
 C189 C 0.57759 0.26723 -0.07597
 C190 C 0.60054 0.26664 -0.09736
 H191 H 0.72707 0.30301 -0.18543
 H192 H 0.68642 0.30258 -0.14851
 H193 H 0.66365 0.21754 -0.17903
 H194 H 0.70404 0.21777 -0.21625
 H195 H 0.60213 0.19384 -0.11550
 H196 H 0.56205 0.19458 -0.07765
 H197 H 0.57110 0.28795 -0.06518
 H198 H 0.61112 0.28688 -0.10265
 C199 C 0.29621 0.71617 -0.17586
 C200 C 0.31704 0.71450 -0.15351
 C201 C 0.33808 0.73574 -0.15172
 C202 C 0.33832 0.75864 -0.17283
 C203 C 0.31779 0.76020 -0.19540
 C204 C 0.29628 0.73905 -0.19724
 N205 N 0.35896 0.73359 -0.12841
 N206 N 0.37597 0.75424 -0.12351
 C207 C 0.39723 0.75239 -0.10057
 C208 C 0.41206 0.77757 -0.09406
 C209 C 0.43290 0.77670 -0.07180
 C210 C 0.43959 0.75039 -0.05588
 C211 C 0.42486 0.72500 -0.06263
 C212 C 0.40370 0.72602 -0.08470
 H213 H 0.28020 0.69937 -0.17638
 H214 H 0.31666 0.69671 -0.13739
 H215 H 0.35448 0.77527 -0.17200
 H216 H 0.31878 0.77818 -0.21126
 H217 H 0.40731 0.79800 -0.10620
 H218 H 0.44397 0.79659 -0.06723
 H219 H 0.42950 0.70442 -0.05071
 H220 H 0.39259 0.70622 -0.08945
 C221 C 0.19473 0.29900 0.21565
 C222 C 0.17287 0.32234 0.21435
 C223 C 0.15329 0.32823 0.23831
 C224 C 0.15552 0.31021 0.26366
 C225 C 0.17720 0.28663 0.26490
 C226 C 0.19716 0.28087 0.24095
 N227 N 0.13143 0.35258 0.23629
 N228 N 0.11500 0.36119 0.25820
 C229 C 0.09306 0.38545 0.25590
 C230 C 0.07803 0.39594 0.28144
 C231 C 0.05662 0.41971 0.27995
 C232 C 0.04968 0.43320 0.25272
 C233 C 0.06469 0.42248 0.22707
 C234 C 0.08629 0.39890 0.22864
 H235 H 0.20964 0.29511 0.19676
 H236 H 0.17129 0.33605 0.19468
 H237 H 0.14052 0.31428 0.28244
 H238 H 0.17850 0.27314 0.28472
 H239 H 0.08303 0.38573 0.30256
 H240 H 0.04536 0.42738 0.30008
 H241 H 0.05988 0.43242 0.20578
 H242 H 0.09756 0.39112 0.20856
 C243 C 0.19259 0.70022 0.73123
 C244 C 0.17032 0.68024 0.73011
 C245 C 0.16486 0.66146 0.75401
 C246 C 0.18216 0.66267 0.77920
 C247 C 0.20467 0.68250 0.78028
 C248 C 0.21007 0.70157 0.75632
 N249 N 0.14185 0.64128 0.75190
 N250 N 0.13376 0.62519 0.77345
 C251 C 0.11095 0.60485 0.77067
 C252 C 0.10122 0.58945 0.79564
 C253 C 0.07922 0.56922 0.79350
 C254 C 0.06676 0.56389 0.76618
 C255 C 0.07655 0.57945 0.74115
 C256 C 0.09837 0.59980 0.74337
 H257 H 0.19619 0.71447 0.71233
 H258 H 0.15718 0.67944 0.71056
 H259 H 0.17839 0.64825 0.79793
 H260 H 0.21768 0.68300 0.79994
 H261 H 0.11076 0.59312 0.81679
 H262 H 0.07222 0.55753 0.81317
 H263 H 0.06738 0.57588 0.71980
 H264 H 0.10554 0.61138 0.72371
 C265 C -0.19224 0.72357 0.27772
 C266 C -0.17000 0.70054 0.27862
 C267 C -0.16868 0.67815 0.25768
 C268 C -0.19014 0.67881 0.23578
 C269 C -0.21266 0.70162 0.23499
 C270 C -0.21403 0.72445 0.25592
 N271 N -0.14556 0.65491 0.25934
 N272 N -0.14079 0.63585 0.23912
 C273 C -0.11793 0.61239 0.24116
 C274 C -0.11108 0.59463 0.21661
 C275 C -0.08889 0.57154 0.21790
 C276 C -0.07343 0.56561 0.24402
 C277 C -0.08049 0.58337 0.26872
 C278 C -0.10244 0.60666 0.26727
 H279 H -0.19237 0.74053 0.29431
 H280 H -0.15360 0.70021 0.29565
 H281 H -0.18964 0.66162 0.21941
 H282 H -0.22887 0.70133 0.21782
 H283 H -0.12292 0.59879 0.19638
 H284 H -0.08404 0.55817 0.19855
 H285 H -0.06894 0.57939 0.28912
 H286 H -0.10742 0.62002 0.28660
 C287 C -0.19374 0.32352 0.78039
 C288 C -0.17310 0.34503 0.78231
 C289 C -0.15104 0.34773 0.76040
 C290 C -0.14950 0.32830 0.73647
 C291 C -0.16992 0.30644 0.73463
 C292 C -0.19251 0.30381 0.75652
 N293 N -0.13051 0.37028 0.76316
 N294 N -0.11219 0.37670 0.74259
 C295 C -0.09168 0.39922 0.74596
 C296 C -0.07492 0.40818 0.72144
 C297 C -0.05489 0.43026 0.72402
 C298 C -0.05104 0.44349 0.75137
 C299 C -0.06776 0.43429 0.77601
 C300 C -0.08801 0.41245 0.77332
 H301 H -0.21057 0.32237 0.79782
 H302 H -0.17444 0.35985 0.80089
 H303 H -0.13247 0.32992 0.71932
 H304 H -0.16807 0.29181 0.71591
 H305 H -0.07751 0.39812 0.70026
 H306 H -0.04222 0.43678 0.70466
 H307 H -0.06532 0.44407 0.79736
 H308 H -0.10065 0.40582 0.79264
 C309 C 0.21454 0.18875 0.30750
 C310 C 0.21352 0.16735 0.32987
 C311 C 0.23804 0.14736 0.33453
 C312 C 0.26371 0.14879 0.31634
 C313 C 0.26469 0.17001 0.29379
 C314 C 0.24014 0.19030 0.28916
 N315 N 0.23626 0.12582 0.35774
 N316 N 0.25858 0.10875 0.36490
 C317 C 0.25665 0.08706 0.38796
 C318 C 0.28268 0.07110 0.39672
 C319 C 0.28157 0.04987 0.41926
 C320 C 0.25424 0.04408 0.43323
 C321 C 0.22808 0.06002 0.42423
 C322 C 0.22927 0.08141 0.40187
 H323 H 0.19520 0.20394 0.30449
 H324 H 0.19360 0.16641 0.34372
 H325 H 0.28294 0.13349 0.31947
 H326 H 0.28477 0.17062 0.28012
 H327 H 0.30389 0.07523 0.38612
 H328 H 0.30209 0.03790 0.42562
 H329 H 0.20669 0.05610 0.43459
 H330 H 0.20881 0.09341 0.39542
 C331 C 0.79542 0.21647 0.68810
 C332 C 0.79724 0.19561 0.66556
 C333 C 0.77369 0.17759 0.66122
 C334 C 0.74822 0.18053 0.67986
 C335 C 0.74646 0.20116 0.70252
 C336 C 0.77001 0.21944 0.70690
 N337 N 0.77612 0.15647 0.63791
 N338 N 0.75435 0.14143 0.63141
 C339 C 0.75632 0.11998 0.60845
 C340 C 0.73050 0.10659 0.60092
 C341 C 0.73146 0.08555 0.57866
 C342 C 0.75847 0.07730 0.56366
 C343 C 0.78447 0.09065 0.57139
 C344 C 0.78340 0.11192 0.59353
 H345 H 0.81399 0.23011 0.69090
 H346 H 0.81700 0.19354 0.65137
 H347 H 0.72972 0.16681 0.67703
 H348 H 0.72654 0.20287 0.71652
 H349 H 0.70952 0.11258 0.61231
 H350 H 0.71107 0.07562 0.57332
 H351 H 0.80560 0.08480 0.56022
 H352 H 0.80369 0.12192 0.59906
 C353 C 0.28315 -0.19554 0.71095
 C354 C 0.28472 -0.17401 0.68872
 C355 C 0.26151 -0.16918 0.66900
 C356 C 0.23660 -0.18626 0.67166
 C357 C 0.23510 -0.20794 0.69369
 C358 C 0.25835 -0.21284 0.71362
 N359 N 0.26382 -0.14706 0.64637
 N360 N 0.24238 -0.13996 0.62943
 C361 C 0.24456 -0.11820 0.60647
 C362 C 0.21909 -0.10949 0.59075
 C363 C 0.22036 -0.08833 0.56817
 C364 C 0.24735 -0.07573 0.56073
 C365 C 0.27298 -0.08466 0.57646
 C366 C 0.27159 -0.10564 0.59922
 H367 H 0.30149 -0.19879 0.72585
 H368 H 0.30406 -0.16102 0.68686
 H369 H 0.21838 -0.18300 0.65663
 H370 H 0.21564 -0.22079 0.69514
 H371 H 0.19815 -0.11907 0.59610
 H372 H 0.20026 -0.08200 0.55643
 H373 H 0.29408 -0.07532 0.57129
 H374 H 0.29162 -0.11211 0.61101
 C375 C 0.76646 -0.18000 0.31287
 C376 C 0.76653 -0.15718 0.33326
 C377 C 0.74162 -0.13695 0.33659
 C378 C 0.71684 -0.13976 0.31913
 C379 C 0.71683 -0.16244 0.29852
 C380 C 0.74160 -0.18293 0.29526
 N381 N 0.74075 -0.11377 0.35783
 N382 N 0.76340 -0.10857 0.37265
 C383 C 0.76246 -0.08588 0.39438
 C384 C 0.78886 -0.07966 0.40792
 C385 C 0.78865 -0.05799 0.42958
 C386 C 0.76184 -0.04235 0.43828
 C387 C 0.73533 -0.04864 0.42461
 C388 C 0.73564 -0.07013 0.40278
 H389 H 0.78595 -0.19531 0.31089
 H390 H 0.78593 -0.15553 0.34656
 H391 H 0.69748 -0.12434 0.32154
 H392 H 0.69729 -0.16409 0.28540
 H393 H 0.80966 -0.09170 0.40168
 H394 H 0.80942 -0.05373 0.43973
 H395 H 0.71433 -0.03694 0.43076
 H396 H 0.71490 -0.07460 0.39270
 C397 C 0.68198 0.78742 -0.20377
 C398 C 0.66000 0.78768 -0.18142
 C399 C 0.65944 0.76457 -0.16081
 C400 C 0.68145 0.74109 -0.16256
 C401 C 0.70373 0.74089 -0.18472
 C402 C 0.70429 0.76403 -0.20579
 N403 N 0.63636 0.76559 -0.13837
 N404 N 0.63229 0.74394 -0.12092
 C405 C 0.60922 0.74535 -0.09846
 C406 C 0.60319 0.71961 -0.08267
 C407 C 0.58051 0.72016 -0.06093
 C408 C 0.56370 0.74668 -0.05435
 C409 C 0.57005 0.77259 -0.07001
 C410 C 0.59249 0.77192 -0.09197
 H411 H 0.68146 0.80574 -0.21935
 H412 H 0.64317 0.80592 -0.18025
 H413 H 0.68154 0.72300 -0.14676
 H414 H 0.72036 0.72246 -0.18534
 H415 H 0.61594 0.69901 -0.08742
 H416 H 0.57625 0.69986 -0.04918
 H417 H 0.55747 0.79335 -0.06549
 H418 H 0.59681 0.79216 -0.10379
 C419 C 0.32127 0.20887 -0.21210
 C420 C 0.34249 0.20746 -0.19017
 C421 C 0.34532 0.23161 -0.17185
 C422 C 0.32639 0.25729 -0.17549
 C423 C 0.30495 0.25867 -0.19725
 C424 C 0.30222 0.23450 -0.21590
 N425 N 0.36752 0.22948 -0.14980
 N426 N 0.37306 0.25145 -0.13416
 C427 C 0.39516 0.24929 -0.11202
 C428 C 0.40206 0.27499 -0.09767
 C429 C 0.42367 0.27375 -0.07611
 C430 C 0.43860 0.24661 -0.06833
 C431 C 0.43147 0.22076 -0.08264
 C432 C 0.41001 0.22209 -0.10438
 H433 H 0.31971 0.18981 -0.22597
 H434 H 0.35692 0.18754 -0.18754
 H435 H 0.32809 0.27624 -0.16151
 H436 H 0.29070 0.27874 -0.19960
 H437 H 0.39073 0.29606 -0.10334
 H438 H 0.42856 0.29403 -0.06544
 H439 H 0.44259 0.19954 -0.07716
 H440 H 0.40499 0.20189 -0.11512
 C441 C 0.30263 0.75488 0.20507
 C442 C 0.32450 0.75440 0.18259
 C443 C 0.32593 0.73214 0.16129
 C444 C 0.30516 0.71049 0.16276
 C445 C 0.28299 0.71109 0.18503
 C446 C 0.28143 0.73326 0.20665
 N447 N 0.34840 0.73091 0.13824
 N448 N 0.36542 0.75193 0.13354
 C449 C 0.38835 0.75073 0.11096
 C450 C 0.40335 0.77620 0.10448
 C451 C 0.42599 0.77581 0.08273
 C452 C 0.43432 0.74968 0.06735
 C453 C 0.41932 0.72404 0.07402
 C454 C 0.39641 0.72459 0.09553
 H455 H 0.30237 0.77238 0.22112
 H456 H 0.34041 0.77132 0.18201
 H457 H 0.30608 0.69316 0.14650
 H458 H 0.26728 0.69398 0.18532
 H459 H 0.39739 0.79646 0.11628
 H460 H 0.43718 0.79587 0.07819
 H461 H 0.42517 0.70360 0.06250
 H462 H 0.38523 0.70457 0.10026
 C463 C 0.68157 0.23745 0.19470
 C464 C 0.66132 0.23689 0.17193
 C465 C 0.65810 0.26079 0.15199
 C466 C 0.67537 0.28504 0.15507
 C467 C 0.69580 0.28553 0.17762
 C468 C 0.69910 0.26177 0.19776
 N469 N 0.63732 0.26121 0.12868
 N470 N 0.62276 0.23899 0.12275
 C471 C 0.60170 0.24002 0.09963
 C472 C 0.58850 0.21413 0.09216
 C473 C 0.56771 0.21455 0.06980
 C474 C 0.55957 0.24106 0.05475
 C475 C 0.57285 0.26703 0.06235
 C476 C 0.59380 0.26652 0.08449
 H477 H 0.68359 0.21876 0.20978
 H478 H 0.64810 0.21793 0.17004
 H479 H 0.67301 0.30361 0.13988
 H480 H 0.70883 0.30465 0.17937
 H481 H 0.59437 0.19358 0.10368
 H482 H 0.55779 0.19420 0.06452
 H483 H 0.56711 0.28779 0.05114
 H484 H 0.60363 0.28687 0.08991
 C485 C -0.18486 0.71839 0.72450
 C486 C -0.16179 0.69612 0.72350
 C487 C -0.15946 0.67448 0.74565
 C488 C -0.18079 0.67511 0.76887
 C489 C -0.20410 0.69718 0.76981
 C490 C -0.20644 0.71930 0.74769
 N491 N -0.13529 0.65221 0.74402
 N492 N -0.12996 0.63376 0.76488
 C493 C -0.10589 0.61139 0.76316
 C494 C -0.09928 0.59410 0.78815
 C495 C -0.07583 0.57222 0.78733
 C496 C -0.05872 0.56702 0.76129
 C497 C -0.06556 0.58428 0.73612
 C498 C -0.08885 0.60637 0.73706
 H499 H -0.18570 0.73480 0.70694
 H500 H -0.14551 0.69584 0.70546
 H501 H -0.17951 0.65851 0.78622
 H502 H -0.22012 0.69692 0.78805
 H503 H -0.11226 0.59771 0.80836
 H504 H -0.07123 0.55923 0.80706
 H505 H -0.05279 0.58084 0.71575
 H506 H -0.09359 0.61940 0.71741
 C507 C -0.21659 0.32621 0.21887
 C508 C -0.19567 0.34766 0.21803
 C509 C -0.17606 0.34989 0.24106
 C510 C -0.17739 0.33019 0.26510
 C511 C -0.19809 0.30843 0.26590
 C512 C -0.21809 0.30613 0.24278
 N513 N -0.15482 0.37207 0.23919
 N514 N -0.13849 0.37778 0.26054
 C515 C -0.11698 0.39969 0.25802
 C516 C -0.10227 0.40766 0.28316
 C517 C -0.08099 0.42881 0.28132
 C518 C -0.07381 0.44209 0.25412
 C519 C -0.08859 0.43400 0.22890
 C520 C -0.11008 0.41310 0.23083
 H521 H -0.23139 0.32535 0.20056
 H522 H -0.19479 0.36270 0.19935
 H523 H -0.16231 0.33143 0.28313
 H524 H -0.19839 0.29353 0.28473
 H525 H -0.10735 0.39745 0.30423
 H526 H -0.06990 0.43448 0.30113
 H527 H -0.08360 0.44386 0.20764
 H528 H -0.12107 0.40725 0.21104
 C529 C 0.19631 0.28945 0.71330
 C530 C 0.17436 0.31284 0.71279
 C531 C 0.16989 0.33171 0.73688
 C532 C 0.18789 0.32713 0.76152
 C533 C 0.21002 0.30395 0.76196
 C534 C 0.21442 0.28476 0.73790
 N535 N 0.14696 0.35523 0.73585
 N536 N 0.13980 0.37109 0.75819
 C537 C 0.11701 0.39473 0.75747
 C538 C 0.10792 0.40866 0.78382
 C539 C 0.08541 0.43148 0.78409
 C540 C 0.07182 0.44103 0.75783
 C541 C 0.08129 0.42728 0.73129
 C542 C 0.10360 0.40420 0.73111
 H543 H 0.19917 0.27518 0.69436
 H544 H 0.16066 0.31616 0.69366
 H545 H 0.18493 0.34147 0.78039
 H546 H 0.22351 0.30096 0.78127
 H547 H 0.11814 0.40159 0.80426
 H548 H 0.07872 0.44169 0.80487
 H549 H 0.07121 0.43410 0.71071
 H550 H 0.11036 0.39384 0.71044
 C551 C 0.17315 0.69388 0.27619
 C552 C 0.15105 0.67366 0.27712
 C553 C 0.14922 0.65327 0.25458
 C554 C 0.17009 0.65303 0.23097
 C555 C 0.19253 0.67306 0.23009
 C556 C 0.19433 0.69393 0.25267
 N557 N 0.12605 0.63308 0.25644
 N558 N 0.12072 0.61589 0.23557
 C559 C 0.09749 0.59576 0.23819
 C560 C 0.09018 0.57989 0.21349
 C561 C 0.06744 0.56027 0.21537
 C562 C 0.05184 0.55596 0.24219
 C563 C 0.05938 0.57179 0.26701
 C564 C 0.08190 0.59159 0.26502
 H565 H 0.17359 0.70937 0.29411
 H566 H 0.13511 0.67400 0.29545
 H567 H 0.16916 0.63732 0.21332
 H568 H 0.20827 0.67225 0.21159
 H569 H 0.10204 0.58286 0.19271
 H570 H 0.06224 0.54832 0.19589
 H571 H 0.04777 0.56900 0.28796
 H572 H 0.08718 0.60352 0.28448
 C573 C 0.72079 -0.17052 0.70395
 C574 C 0.71990 -0.14800 0.68260
 C575 C 0.74426 -0.14470 0.66330
 C576 C 0.76962 -0.16444 0.66539
 C577 C 0.77045 -0.18714 0.68656
 C578 C 0.74608 -0.19039 0.70617
 N579 N 0.74269 -0.12123 0.64184
 N580 N 0.76502 -0.11533 0.62549
 C581 C 0.76351 -0.09202 0.60386
 C582 C 0.78969 -0.08493 0.58884
 C583 C 0.78910 -0.06222 0.56770
 C584 C 0.76212 -0.04637 0.56101
 C585 C 0.73578 -0.05368 0.57600
 C586 C 0.73646 -0.07624 0.59734
 H587 H 0.70159 -0.17243 0.71861
 H588 H 0.70022 -0.13296 0.68118
 H589 H 0.78872 -0.16240 0.65065
 H590 H 0.79030 -0.20200 0.68767
 H591 H 0.81066 -0.09696 0.59363
 H592 H 0.80976 -0.05722 0.55648
 H593 H 0.71466 -0.04186 0.57138
 H594 H 0.71589 -0.08138 0.60862
 C595 C 0.21294 -0.21773 0.31553
 C596 C 0.21263 -0.19652 0.33759
 C597 C 0.23719 -0.17966 0.34106
 C598 C 0.26218 -0.18403 0.32196
 C599 C 0.26242 -0.20505 0.29965
 C600 C 0.23782 -0.22221 0.29625
 N601 N 0.23597 -0.15813 0.36394
 N602 N 0.25839 -0.14400 0.37038
 C603 C 0.25666 -0.12221 0.39305
 C604 C 0.28271 -0.10955 0.40119
 C605 C 0.28168 -0.08806 0.42308
 C606 C 0.25441 -0.07866 0.43700
 C607 C 0.22827 -0.09142 0.42876
 C608 C 0.22938 -0.11308 0.40707
 H609 H 0.19357 -0.23044 0.31347
 H610 H 0.19322 -0.19328 0.35214
 H611 H 0.28140 -0.17114 0.32416
 H612 H 0.28195 -0.20800 0.28522
 H613 H 0.30385 -0.11638 0.39053
 H614 H 0.30218 -0.07859 0.42886
 H615 H 0.20693 -0.08469 0.43908
 H616 H 0.20891 -0.12248 0.40111
 C617 C 0.71575 0.20242 0.29391
 C618 C 0.71549 0.18117 0.31647
 C619 C 0.73929 0.17743 0.33562
 C620 C 0.76334 0.19558 0.33225
 C621 C 0.76351 0.21707 0.30987
 C622 C 0.73979 0.22061 0.29032
 N623 N 0.73852 0.15501 0.35809
 N624 N 0.76070 0.14828 0.37423
 C625 C 0.75989 0.12582 0.39667
 C626 C 0.78612 0.11714 0.41119
 C627 C 0.78626 0.09489 0.43280
 C628 C 0.75996 0.08113 0.44048
 C629 C 0.73353 0.09016 0.42611
 C630 C 0.73350 0.11222 0.40429
 H631 H 0.69705 0.20463 0.27936
 H632 H 0.69681 0.16735 0.31888
 H633 H 0.78197 0.19317 0.34686
 H634 H 0.78238 0.23066 0.30770
 H635 H 0.80657 0.12749 0.40555
 H636 H 0.80695 0.08853 0.44353
 H637 H 0.71293 0.07996 0.43150
 H638 H 0.71290 0.11863 0.39343
 C639 C 0.28573 0.17163 0.69368
 C640 C 0.28663 0.14920 0.67282
 C641 C 0.26268 0.14655 0.65430
 C642 C 0.23775 0.16691 0.65659
 C643 C 0.23691 0.18958 0.67728
 C644 C 0.26085 0.19210 0.69618
 N645 N 0.26432 0.12303 0.63345
 N646 N 0.24239 0.11747 0.61780
 C647 C 0.24440 0.09396 0.59690
 C648 C 0.21874 0.08714 0.58241
 C649 C 0.21993 0.06423 0.56199
 C650 C 0.24701 0.04792 0.55553
 C651 C 0.27279 0.05493 0.57003
 C652 C 0.27150 0.07768 0.59061
 H653 H 0.30461 0.17298 0.70777
 H654 H 0.30598 0.13367 0.67120
 H655 H 0.21899 0.16535 0.64241
 H656 H 0.21741 0.20493 0.67866
 H657 H 0.19773 0.09955 0.58704
 H658 H 0.19970 0.05945 0.55112
 H659 H 0.29397 0.04277 0.56557
 H660 H 0.29168 0.08258 0.60148
   
