data_POSCAR
  _audit_creation_date              2014-09-24
  _audit_creation_method            'ToBaCCo'
  _symmetry_space_group_name_H-M    'P1'
  _symmetry_Int_Tables_number       1
  _symmetry_cell_setting            triclinic
  loop_
  _symmetry_equiv_pos_as_xyz
 x,y,z
_cell_length_a 45.7362
_cell_length_b 45.7362
_cell_length_c 45.7362
_cell_angle_alpha 90.000000
_cell_angle_beta 90.000000
_cell_angle_gamma 90.000000
loop_
  _atom_site_label
  _atom_site_type_symbol
  _atom_site_fract_x
  _atom_site_fract_y
  _atom_site_fract_z
N1 N 0.15015 1.21604 0.12905
 N2 N 0.12761 1.21410 0.14707
 C3 C 0.10880 1.23719 0.14057
 C4 C 0.12003 1.25577 0.11780
 C5 C 0.14662 1.24050 0.11191
 H6 H 0.08866 1.24116 0.15230
 H7 H 0.16226 1.24662 0.09530
 Cu8 Cu 0.12879 1.18039 0.17892
 Cu9 Cu 0.18285 1.18428 0.12838
 Cu10 Cu 0.18209 1.12816 0.18069
 N11 N 0.12774 1.14777 0.21180
 N12 N 0.14926 1.12840 0.21258
 C13 C 0.14528 1.11080 0.23675
 C14 C 0.11955 1.11796 0.25285
 C15 C 0.10949 1.14204 0.23544
 H16 H 0.16035 1.09360 0.24275
 H17 H 0.09052 1.15517 0.24062
 N18 N 0.21460 1.12947 0.14759
 N19 N 0.21534 1.15149 0.12869
 C20 C 0.23945 1.14764 0.11094
 C21 C 0.25536 1.12164 0.11749
 C22 C 0.23803 1.11118 0.14133
 H23 H 0.24545 1.16284 0.09385
 H24 H 0.24302 1.09176 0.15386
 H25 H 0.16089 1.14946 0.14711
 H26 H 0.18252 1.17235 0.17200
 N27 N 0.85385 0.78882 0.12831
 N28 N 0.87254 0.78854 0.15043
 C29 C 0.89031 0.76433 0.14720
 C30 C 0.88392 0.74793 0.12137
 C31 C 0.86019 0.76513 0.11043
 H32 H 0.90719 0.75856 0.16271
 H33 H 0.84778 0.75993 0.09098
 Cu34 Cu 0.87089 0.82185 0.18212
 Cu35 Cu 0.82157 0.82165 0.12656
 Cu36 Cu 0.81797 0.87314 0.18391
 N37 N 0.87188 0.85382 0.21528
 N38 N 0.85022 0.87294 0.21620
 C39 C 0.85424 0.89063 0.24026
 C40 C 0.88019 0.88372 0.25607
 C41 C 0.89034 0.85973 0.23866
 H42 H 0.83918 0.90786 0.24624
 H43 H 0.90959 0.84690 0.24357
 N44 N 0.78611 0.87219 0.15053
 N45 N 0.78769 0.85368 0.12819
 C46 C 0.76432 0.85972 0.10970
 C47 C 0.74623 0.88295 0.12039
 C48 C 0.76162 0.88939 0.14669
 H49 H 0.75993 0.84749 0.08995
 H50 H 0.75499 0.90605 0.16209
 H51 H 0.84135 0.85491 0.14993
 H52 H 0.81804 0.82976 0.17059
 N53 N 0.85284 1.21308 -0.12511
 N54 N 0.87148 1.21410 -0.14722
 C55 C 0.88909 1.23832 -0.14340
 C56 C 0.88258 1.25404 -0.11722
 C57 C 0.85896 1.23641 -0.10669
 H58 H 0.90597 1.24456 -0.15875
 H59 H 0.84642 1.24114 -0.08721
 Cu60 Cu 0.87028 1.18143 -0.17934
 Cu61 Cu 0.82034 1.18039 -0.12470
 Cu62 Cu 0.82049 1.12722 -0.18120
 N63 N 0.87221 1.15044 -0.21311
 N64 N 0.85339 1.12849 -0.21321
 C65 C 0.85989 1.11065 -0.23685
 C66 C 0.88398 1.12142 -0.25359
 C67 C 0.89036 1.14714 -0.23702
 H68 H 0.84735 1.09137 -0.24235
 H69 H 0.90754 1.16247 -0.24241
 N70 N 0.78800 1.12739 -0.14811
 N71 N 0.78833 1.14655 -0.12624
 C72 C 0.76464 1.14035 -0.10825
 C73 C 0.74754 1.11634 -0.11872
 C74 C 0.76387 1.10960 -0.14443
 H75 H 0.75922 1.15311 -0.08910
 H76 H 0.75802 1.09247 -0.15963
 H77 H 0.84191 1.14759 -0.14695
 H78 H 0.81768 1.17071 -0.16876
 N79 N 0.14704 0.78570 -0.12664
 N80 N 0.12819 0.78562 -0.14857
 C81 C 0.11007 0.76170 -0.14507
 C82 C 0.11652 0.74530 -0.11925
 C83 C 0.14061 0.76216 -0.10863
 H84 H 0.09288 0.75618 -0.16034
 H85 H 0.15319 0.75682 -0.08934
 Cu86 Cu 0.13001 0.81921 -0.17979
 Cu87 Cu 0.17989 0.81779 -0.12564
 Cu88 Cu 0.17985 0.87394 -0.17919
 N89 N 0.12867 0.85110 -0.21269
 N90 N 0.14727 0.87326 -0.21185
 C91 C 0.14106 0.89151 -0.23531
 C92 C 0.11741 0.88081 -0.25282
 C93 C 0.11100 0.85472 -0.23691
 H94 H 0.15354 0.91099 -0.24019
 H95 H 0.09415 0.83929 -0.24300
 N96 N 0.21194 0.87269 -0.14537
 N97 N 0.21233 0.85094 -0.12607
 C98 C 0.23648 0.85479 -0.10833
 C99 C 0.25278 0.88048 -0.11524
 C100 C 0.23561 0.89076 -0.13930
 H101 H 0.24237 0.83970 -0.09111
 H102 H 0.24098 0.90984 -0.15220
 H103 H 0.15838 0.85188 -0.14621
 H104 H 0.18261 0.82996 -0.16921
 C105 C 0.46318 0.98020 -0.01791
 C106 C 0.48170 1.00007 0.00012
 C107 C 0.46350 1.02004 0.01827
 C108 C 0.43088 1.02018 0.01924
 C109 C 0.41649 1.00033 0.00034
 C110 C 0.43052 0.98032 -0.01866
 C111 C 0.51890 0.99996 0.00008
 C112 C 0.53733 1.01823 -0.01963
 C113 C 0.56997 1.01904 -0.01958
 C114 C 0.58411 0.99992 0.00023
 C115 C 0.56983 0.98078 0.01993
 C116 C 0.53720 0.98165 0.01985
 H117 H 0.47432 0.96467 -0.03184
 H118 H 0.47485 1.03547 0.03214
 H119 H 0.52613 1.03229 -0.03500
 H120 H 0.52591 0.96761 0.03517
 H121 H 0.39285 1.00045 0.00043
 H122 H 0.60775 0.99994 0.00031
 C123 C -0.01969 0.46313 0.98404
 C124 C -0.00066 0.48162 1.00293
 C125 C 0.01855 0.46334 1.02182
 C126 C 0.01792 0.43075 1.02344
 C127 C -0.00258 0.41643 1.00523
 C128 C -0.02112 0.43051 0.98478
 C129 C -0.00048 0.51882 1.00258
 C130 C -0.01839 0.53742 1.02247
 C131 C -0.01917 0.57006 1.02222
 C132 C -0.00025 0.58404 1.00210
 C133 C 0.01854 0.56959 0.98219
 C134 C 0.01754 0.53696 0.98241
 H135 H -0.03376 0.47428 0.96864
 H136 H 0.03417 0.47460 1.03556
 H137 H -0.03224 0.52634 1.03812
 H138 H 0.03131 0.52555 0.96693
 H139 H -0.00253 0.39276 1.00557
 H140 H -0.00015 0.60768 1.00191
 C141 C 0.98165 -0.01682 0.46393
 C142 C 1.00144 0.00154 0.48209
 C143 C 1.02103 0.01986 0.46356
 C144 C 1.02086 0.02063 0.43089
 C145 C 1.00104 0.00140 0.41690
 C146 C 0.98143 -0.01772 0.43133
 C147 C 1.00151 0.00156 0.51928
 C148 C 1.01955 -0.01839 0.53767
 C149 C 1.02033 -0.01844 0.57031
 C150 C 1.00132 0.00147 0.58448
 C151 C 0.98243 0.02142 0.57020
 C152 C 0.98338 0.02145 0.53759
 H153 H 0.96640 -0.03087 0.47530
 H154 H 1.03640 0.03398 0.47468
 H155 H 1.03346 -0.03387 0.52644
 H156 H 0.96950 0.03694 0.52632
 H157 H 1.00086 0.00131 0.39326
 H158 H 1.00121 0.00145 0.60812
 C159 C 0.07235 0.32329 1.08802
 C160 C 0.09400 0.33947 1.07486
 C161 C 0.12290 0.32914 1.07477
 C162 C 0.13011 0.30184 1.08836
 C163 C 0.10944 0.28388 1.10373
 C164 C 0.07954 0.29581 1.10338
 O165 O 0.04588 0.33642 1.08400
 C166 C 0.05105 0.36138 1.06846
 C167 C 0.08031 0.36449 1.06275
 C168 C 0.09051 0.38929 1.04743
 C169 C 0.07045 0.41127 1.03718
 C170 C 0.03954 0.40925 1.04103
 C171 C 0.03020 0.38307 1.05731
 H172 H 0.13981 0.34172 1.06401
 H173 H 0.15279 0.29526 1.08743
 H174 H 0.06219 0.28370 1.11394
 H175 H 0.11365 0.39167 1.04312
 H176 H 0.07917 0.42946 1.02479
 H177 H 0.00709 0.37940 1.06079
 C178 C -0.08204 0.67957 1.07445
 C179 C -0.07580 0.66024 1.09665
 C180 C -0.08169 0.66813 1.12581
 C181 C -0.09420 0.69615 1.13258
 C182 C -0.10215 0.71730 1.11092
 C183 C -0.09567 0.70802 1.08089
 O184 O -0.07365 0.66828 1.04822
 C185 C -0.06217 0.64137 1.05390
 C186 C -0.06324 0.63520 1.08322
 C187 C -0.05271 0.60801 1.09355
 C188 C -0.04040 0.58681 1.07370
 C189 C -0.03755 0.59187 1.04300
 C190 C -0.04924 0.62034 1.03352
 H191 H -0.07647 0.65309 1.14331
 H192 H -0.09811 0.70123 1.15536
 H193 H -0.10053 0.72272 1.06302
 H194 H -0.05368 0.60315 1.11669
 H195 H -0.03195 0.56662 1.08270
 H196 H -0.04808 0.62624 1.01065
 C197 C -0.08366 0.32163 0.93092
 C198 C -0.07764 0.34142 0.90908
 C199 C -0.08364 0.33410 0.87980
 C200 C -0.09603 0.30616 0.87253
 C201 C -0.10373 0.28454 0.89381
 C202 C -0.09715 0.29324 0.92399
 O203 O -0.07520 0.33245 0.95732
 C204 C -0.06390 0.35952 0.95211
 C205 C -0.06515 0.36625 0.92292
 C206 C -0.05482 0.39366 0.91303
 C207 C -0.04251 0.41453 0.93321
 C208 C -0.03948 0.40891 0.96379
 C209 C -0.05099 0.38023 0.97282
 H210 H -0.07859 0.34952 0.86258
 H211 H -0.10002 0.30151 0.84967
 H212 H -0.10182 0.27814 0.94158
 H213 H -0.05593 0.39894 0.88999
 H214 H -0.03421 0.43492 0.92452
 H215 H -0.04971 0.37392 0.99557
 C216 C 0.08218 0.67777 0.92847
 C217 C 0.07550 0.65834 0.90650
 C218 C 0.08117 0.66593 0.87721
 C219 C 0.09391 0.69374 0.87009
 C220 C 0.10232 0.71495 0.89151
 C221 C 0.09606 0.70599 0.92168
 O222 O 0.07393 0.66681 0.95488
 C223 C 0.06210 0.64000 0.94954
 C224 C 0.06281 0.63356 0.92026
 C225 C 0.05188 0.60642 0.91025
 C226 C 0.03953 0.58554 0.93041
 C227 C 0.03704 0.59092 0.96108
 C228 C 0.04914 0.61931 0.97022
 H229 H 0.07559 0.65080 0.85990
 H230 H 0.09765 0.69861 0.84723
 H231 H 0.10128 0.72079 0.93938
 H232 H 0.05256 0.60136 0.88715
 H233 H 0.03074 0.56538 0.92167
 H234 H 0.04823 0.62542 0.99304
 C235 C 1.07261 0.08377 0.32121
 C236 C 1.09472 0.07845 0.34090
 C237 C 1.12379 0.08515 0.33331
 C238 C 1.13055 0.09749 0.30522
 C239 C 1.10896 0.10449 0.28366
 C240 C 1.07901 0.09721 0.29264
 O241 O 1.04650 0.07471 0.33228
 C242 C 1.05217 0.06373 0.35941
 C243 C 1.08136 0.06576 0.36593
 C244 C 1.09167 0.05583 0.39336
 C245 C 1.07193 0.04315 0.41446
 C246 C 1.04139 0.03933 0.40907
 C247 C 1.03193 0.05045 0.38036
 H248 H 1.14123 0.08064 0.34864
 H249 H 1.15327 0.10198 0.30036
 H250 H 1.06120 0.10125 0.27760
 H251 H 1.11470 0.05755 0.39848
 H252 H 1.08094 0.03520 0.43484
 H253 H 1.00917 0.04861 0.37420
 C254 C 1.08328 -0.07159 0.67933
 C255 C 1.07735 -0.09356 0.65966
 C256 C 1.08353 -0.12277 0.66714
 C257 C 1.09600 -0.12982 0.69510
 C258 C 1.10361 -0.10840 0.71661
 C259 C 1.09685 -0.07830 0.70775
 O260 O 1.07465 -0.04529 0.66839
 C261 C 1.06334 -0.05069 0.64135
 C262 C 1.06475 -0.07991 0.63476
 C263 C 1.05443 -0.08997 0.60739
 C264 C 1.04199 -0.06994 0.58643
 C265 C 1.03880 -0.03935 0.59192
 C266 C 1.05029 -0.03015 0.62056
 H267 H 1.07856 -0.14010 0.65181
 H268 H 1.10012 -0.15263 0.69987
 H269 H 1.10143 -0.06060 0.72275
 H270 H 1.05566 -0.11302 0.60221
 H271 H 1.03371 -0.07875 0.56608
 H272 H 1.04890 -0.00738 0.62678
 C273 C 0.92806 -0.08169 0.32327
 C274 C 0.90622 -0.07600 0.34316
 C275 C 0.87702 -0.08256 0.33605
 C276 C 0.86984 -0.09516 0.30820
 C277 C 0.89115 -0.10252 0.28650
 C278 C 0.92124 -0.09538 0.29498
 O279 O 0.95436 -0.07270 0.33388
 C280 C 0.94908 -0.06139 0.36093
 C281 C 0.91996 -0.06315 0.36784
 C282 C 0.91002 -0.05286 0.39525
 C283 C 0.93009 -0.04007 0.41593
 C284 C 0.96056 -0.03653 0.41007
 C285 C 0.96965 -0.04802 0.38142
 H286 H 0.85980 -0.07777 0.35155
 H287 H 0.84704 -0.09956 0.30367
 H288 H 0.93882 -0.09972 0.27977
 H289 H 0.88704 -0.05437 0.40067
 H290 H 0.92140 -0.03181 0.43633
 H291 H 0.99234 -0.04637 0.37497
 C292 C 0.91856 0.07423 0.67867
 C293 C 0.92512 0.09633 0.65935
 C294 C 0.91930 0.12555 0.66707
 C295 C 0.90652 0.13247 0.69492
 C296 C 0.89823 0.11089 0.71601
 C297 C 0.90465 0.08081 0.70692
 O298 O 0.92695 0.04792 0.66758
 C299 C 0.93875 0.05346 0.64080
 C300 C 0.93788 0.08276 0.63451
 C301 C 0.94875 0.09297 0.60741
 C302 C 0.96120 0.07299 0.58644
 C303 C 0.96386 0.04231 0.59167
 C304 C 0.95182 0.03296 0.62001
 H305 H 0.92478 0.14297 0.65202
 H306 H 0.90266 0.15528 0.69990
 H307 H 0.89953 0.06301 0.72163
 H308 H 0.94793 0.11609 0.60247
 H309 H 0.96992 0.08188 0.56631
 H310 H 0.95285 0.01010 0.62600
 C311 C 0.32269 1.07377 0.08299
 C312 C 0.34241 1.09565 0.07690
 C313 C 0.33512 1.12490 0.08311
 C314 C 0.30729 1.13207 0.09577
 C315 C 0.28576 1.11072 0.10354
 C316 C 0.29442 1.08059 0.09675
 O317 O 0.33344 1.04742 0.07429
 C318 C 0.36040 1.05271 0.06278
 C319 C 0.36713 1.08190 0.06412
 C320 C 0.39445 1.09185 0.05358
 C321 C 0.41521 1.07174 0.04098
 C322 C 0.40954 1.04118 0.03786
 C323 C 0.38098 1.03208 0.04959
 H324 H 0.35049 1.14215 0.07801
 H325 H 0.30264 1.15490 0.09991
 H326 H 0.27937 1.06297 0.10144
 H327 H 0.39974 1.11488 0.05476
 H328 H 0.43553 1.08044 0.03253
 H329 H 0.37466 1.00934 0.04825
 C330 C 0.67928 1.08224 -0.07174
 C331 C 0.65981 1.07627 -0.09389
 C332 C 0.66756 1.08243 -0.12304
 C333 C 0.69558 1.09490 -0.12983
 C334 C 0.71687 1.10256 -0.10821
 C335 C 0.70774 1.09583 -0.07819
 O336 O 0.66810 1.07362 -0.04554
 C337 C 0.64113 1.06228 -0.05118
 C338 C 0.63481 1.06365 -0.08046
 C339 C 0.60754 1.05328 -0.09076
 C340 C 0.58643 1.04081 -0.07092
 C341 C 0.59165 1.03765 -0.04028
 C342 C 0.62018 1.04921 -0.03083
 H343 H 0.65240 1.07742 -0.14050
 H344 H 0.70057 1.09900 -0.15260
 H345 H 0.72257 1.10044 -0.06036
 H346 H 0.60257 1.05449 -0.11386
 H347 H 0.56619 1.03247 -0.07990
 H348 H 0.62620 1.04781 -0.00800
 C349 C 0.32105 0.92773 -0.08138
 C350 C 0.34057 0.90564 -0.07541
 C351 C 0.33286 0.87646 -0.08148
 C352 C 0.30483 0.86957 -0.09388
 C353 C 0.28346 0.89112 -0.10156
 C354 C 0.29256 0.92118 -0.09490
 O355 O 0.33219 0.95398 -0.07285
 C356 C 0.35921 0.94842 -0.06155
 C357 C 0.36559 0.91916 -0.06287
 C358 C 0.39290 0.90894 -0.05254
 C359 C 0.41402 0.92886 -0.04018
 C360 C 0.40876 0.95950 -0.03708
 C361 C 0.38016 0.96886 -0.04858
 H362 H 0.34807 0.85904 -0.07646
 H363 H 0.29988 0.84678 -0.09791
 H364 H 0.27768 0.93897 -0.09952
 H365 H 0.39792 0.88585 -0.05371
 H366 H 0.43431 0.91994 -0.03190
 H367 H 0.37410 0.99168 -0.04724
 C368 C 0.67861 0.91734 0.07276
 C369 C 0.65870 0.92271 0.09466
 C370 C 0.66591 0.91596 0.12380
 C371 C 0.69387 0.90353 0.13085
 C372 C 0.71564 0.89653 0.10949
 C373 C 0.70706 0.90385 0.07945
 O374 O 0.66787 0.92644 0.04655
 C375 C 0.64072 0.93748 0.05194
 C376 C 0.63388 0.93546 0.08106
 C377 C 0.60639 0.94546 0.09109
 C378 C 0.58556 0.95823 0.07115
 C379 C 0.59132 0.96203 0.04068
 C380 C 0.62006 0.95081 0.03149
 H381 H 0.65039 0.92048 0.14108
 H382 H 0.69844 0.89898 0.15362
 H383 H 0.72228 0.89977 0.06182
 H384 H 0.60101 0.94375 0.11407
 H385 H 0.56511 0.96626 0.07993
 H386 H 0.62646 0.95263 0.00880
   
