data_POSCAR
  _audit_creation_date              2014-09-24
  _audit_creation_method            'ToBaCCo'
  _symmetry_space_group_name_H-M    'P1'
  _symmetry_Int_Tables_number       1
  _symmetry_cell_setting            triclinic
  loop_
  _symmetry_equiv_pos_as_xyz
 x,y,z
_cell_length_a 6.0929
_cell_length_b 6.0307
_cell_length_c 10.4286
_cell_angle_alpha 89.999300
_cell_angle_beta 89.736400
_cell_angle_gamma 90.001000
loop_
  _atom_site_label
  _atom_site_type_symbol
  _atom_site_fract_x
  _atom_site_fract_y
  _atom_site_fract_z
O1 O 0.17664 0.72311 1.12582
 O2 O 0.17920 0.28041 0.87853
 O3 O 0.17919 0.71972 0.87852
 O4 O 0.17665 0.27702 1.12581
 O5 O -0.18264 0.27669 1.12504
 O6 O -0.18100 0.71960 0.87800
 O7 O -0.18100 0.28053 0.87801
 O8 O -0.18264 0.72342 1.12506
 Cu9 Cu 0.20401 0.50007 1.00270
 Cu10 Cu -0.20799 0.50007 1.00213
 C11 C -0.00343 0.80572 1.16532
 C12 C -0.00044 0.20154 0.83736
 C13 C -0.00044 0.79858 0.83733
 C14 C -0.00343 0.19439 1.16529
 O15 O 0.28161 -0.18162 0.37541
 O16 O 0.72061 -0.18175 0.62120
 O17 O 0.28303 -0.18176 0.62172
 O18 O 0.72320 -0.18153 0.37438
 O19 O 0.72345 0.18193 0.37445
 O20 O 0.28300 0.18217 0.62178
 O21 O 0.72064 0.18217 0.62128
 O22 O 0.28135 0.18203 0.37551
 Cu23 Cu 0.50232 -0.20945 0.49789
 Cu24 Cu 0.50235 0.21362 0.49790
 C25 C 0.19985 0.00013 0.33635
 C26 C 0.80008 0.00014 0.66117
 C27 C 0.20287 0.00013 0.66162
 C28 C 0.80451 0.00013 0.33407
 C29 C -0.00410 0.00007 0.24884
 C30 C 0.00054 0.00008 0.74899
   
