data_POSCAR
  _audit_creation_date              2014-09-24
  _audit_creation_method            'ToBaCCo'
  _symmetry_space_group_name_H-M    'P1'
  _symmetry_Int_Tables_number       1
  _symmetry_cell_setting            triclinic
  loop_
  _symmetry_equiv_pos_as_xyz
 x,y,z
_cell_length_a 37.6083
_cell_length_b 37.3314
_cell_length_c 36.6064
_cell_angle_alpha 89.929900
_cell_angle_beta 89.875700
_cell_angle_gamma 89.827100
loop_
  _atom_site_label
  _atom_site_type_symbol
  _atom_site_fract_x
  _atom_site_fract_y
  _atom_site_fract_z
N1 N 0.38678 0.28652 0.31021
 N2 N 0.38818 0.31329 0.28684
 C3 C 0.41716 0.30928 0.26545
 C4 C 0.43435 0.27824 0.27589
 C5 C 0.41450 0.26441 0.30426
 H6 H 0.42522 0.32743 0.24397
 H7 H 0.42034 0.24053 0.31992
 Cu8 Cu 0.35156 0.35019 0.28675
 Cu9 Cu 0.35060 0.28354 0.34828
 Cu10 Cu 0.28520 0.34932 0.34816
 N11 N 0.31500 0.38715 0.28692
 N12 N 0.28834 0.38567 0.31021
 C13 C 0.26633 0.41351 0.30425
 C14 C 0.28010 0.43352 0.27597
 C15 C 0.31101 0.41633 0.26557
 H16 H 0.24251 0.41927 0.31980
 H17 H 0.32901 0.42447 0.24406
 N18 N 0.28688 0.31039 0.38436
 N19 N 0.31185 0.28541 0.38452
 C20 C 0.30677 0.26386 0.41359
 C21 C 0.27730 0.27596 0.43230
 C22 C 0.26525 0.30536 0.41325
 H23 H 0.32354 0.24148 0.42110
 H24 H 0.24288 0.32220 0.42048
 H25 H 0.31150 0.30994 0.31925
 H26 H 0.33895 0.33772 0.35073
 N27 N 0.38479 0.78862 -0.19321
 N28 N 0.39406 0.82043 -0.20540
 C29 C 0.42517 0.81754 -0.22356
 C30 C 0.43491 0.78171 -0.22435
 C31 C 0.40852 0.76413 -0.20496
 H32 H 0.43902 0.83958 -0.23640
 H33 H 0.40842 0.73616 -0.19718
 Cu34 Cu 0.36264 0.86189 -0.19988
 Cu35 Cu 0.34784 0.78311 -0.15618
 Cu36 Cu 0.28548 0.84984 -0.15426
 N37 N 0.32190 0.89408 -0.20568
 N38 N 0.29047 0.88545 -0.19262
 C39 C 0.26615 0.90919 -0.20454
 C40 C 0.28347 0.93495 -0.22508
 C41 C 0.31899 0.92490 -0.22471
 H42 H 0.23853 0.90957 -0.19620
 H43 H 0.34075 0.93830 -0.23837
 N44 N 0.28576 0.81076 -0.11844
 N45 N 0.30945 0.78464 -0.11946
 C46 C 0.30471 0.76333 -0.09012
 C47 C 0.27681 0.77698 -0.06985
 C48 C 0.26533 0.80696 -0.08845
 H49 H 0.32102 0.74039 -0.08330
 H50 H 0.24437 0.82513 -0.08018
 H51 H 0.31792 0.81789 -0.18699
 H52 H 0.33947 0.83675 -0.14430
 N53 N 0.88657 0.28864 -0.18816
 N54 N 0.88983 0.31696 -0.20931
 C55 C 0.91869 0.31278 -0.23079
 C56 C 0.93395 0.28008 -0.22272
 C57 C 0.91305 0.26542 -0.19559
 H58 H 0.92804 0.33205 -0.25066
 H59 H 0.91745 0.24025 -0.18162
 Cu60 Cu 0.85643 0.35683 -0.20667
 Cu61 Cu 0.84985 0.28529 -0.15089
 Cu62 Cu 0.78262 0.34839 -0.15454
 N63 N 0.81743 0.39112 -0.20879
 N64 N 0.78674 0.38436 -0.19297
 C65 C 0.76305 0.40966 -0.20287
 C66 C 0.78033 0.43433 -0.22482
 C67 C 0.81495 0.42214 -0.22748
 H68 H 0.73616 0.41168 -0.19248
 H69 H 0.83623 0.43423 -0.24308
 N70 N 0.78444 0.31031 -0.11718
 N71 N 0.81045 0.28652 -0.11561
 C72 C 0.80589 0.26578 -0.08588
 C73 C 0.77570 0.27716 -0.06797
 C74 C 0.76262 0.30536 -0.08834
 H75 H 0.82358 0.24449 -0.07732
 H76 H 0.73960 0.32163 -0.08197
 H77 H 0.81411 0.31341 -0.18327
 H78 H 0.83632 0.33962 -0.14604
 N79 N 0.88762 0.78857 0.31257
 N80 N 0.89243 0.81817 0.29369
 C81 C 0.92132 0.81425 0.27223
 C82 C 0.93486 0.78024 0.27771
 C83 C 0.91299 0.76466 0.30348
 H84 H 0.93186 0.83461 0.25421
 H85 H 0.91620 0.73847 0.31572
 Cu86 Cu 0.86069 0.85923 0.29877
 Cu87 Cu 0.85105 0.78475 0.34994
 Cu88 Cu 0.78305 0.84606 0.34393
 N89 N 0.82017 0.89135 0.29357
 N90 N 0.78863 0.88254 0.30622
 C91 C 0.76454 0.90665 0.29452
 C92 C 0.78220 0.93277 0.27471
 C93 C 0.81761 0.92254 0.27518
 H94 H 0.73684 0.90700 0.30255
 H95 H 0.83955 0.93608 0.26198
 N96 N 0.78469 0.80866 0.38195
 N97 N 0.81135 0.78577 0.38479
 C98 C 0.80701 0.76600 0.41524
 C99 C 0.77614 0.77703 0.43220
 C100 C 0.76253 0.80402 0.41052
 H101 H 0.82524 0.74560 0.42480
 H102 H 0.73895 0.81984 0.41589
 H103 H 0.81759 0.81454 0.31523
 H104 H 0.83589 0.83941 0.35603
 N105 N 0.61250 0.71353 0.31040
 N106 N 0.61193 0.68736 0.28638
 C107 C 0.58331 0.69143 0.26467
 C108 C 0.56542 0.72187 0.27562
 C109 C 0.58449 0.73531 0.30461
 H110 H 0.57583 0.67361 0.24276
 H111 H 0.57794 0.75865 0.32078
 Cu112 Cu 0.64864 0.65065 0.28617
 Cu113 Cu 0.64797 0.71613 0.34891
 Cu114 Cu 0.71355 0.65053 0.34904
 N115 N 0.68514 0.61375 0.28673
 N116 N 0.71114 0.61465 0.31070
 C117 C 0.73300 0.58662 0.30498
 C118 C 0.71977 0.56716 0.27614
 C119 C 0.68939 0.58484 0.26515
 H120 H 0.75631 0.58036 0.32105
 H121 H 0.67184 0.57711 0.24320
 N122 N 0.71110 0.68905 0.38557
 N123 N 0.68607 0.71397 0.38561
 C124 C 0.69074 0.73540 0.41476
 C125 C 0.71995 0.72324 0.43371
 C126 C 0.73236 0.69400 0.41466
 H127 H 0.67398 0.75788 0.42203
 H128 H 0.75485 0.67735 0.42188
 H129 H 0.68788 0.69032 0.32021
 H130 H 0.65976 0.66188 0.35064
 N131 N 0.61270 0.21184 -0.18847
 N132 N 0.61155 0.18560 -0.21240
 C133 C 0.58298 0.19027 -0.23408
 C134 C 0.56567 0.22104 -0.22306
 C135 C 0.58504 0.23410 -0.19411
 H136 H 0.57518 0.17264 -0.25604
 H137 H 0.57901 0.25759 -0.17797
 Cu138 Cu 0.64771 0.14823 -0.21258
 Cu139 Cu 0.64878 0.21427 -0.15056
 Cu140 Cu 0.71513 0.14948 -0.15266
 N141 N 0.68370 0.11072 -0.21200
 N142 N 0.71222 0.11410 -0.19157
 C143 C 0.73511 0.08741 -0.19930
 C144 C 0.71946 0.06551 -0.22497
 C145 C 0.68665 0.08062 -0.23213
 H146 H 0.76030 0.08301 -0.18577
 H147 H 0.66722 0.07122 -0.25160
 N148 N 0.71274 0.18735 -0.11533
 N149 N 0.68749 0.21202 -0.11459
 C150 C 0.69234 0.23313 -0.08524
 C151 C 0.72181 0.22094 -0.06677
 C152 C 0.73422 0.19201 -0.08634
 H153 H 0.67548 0.25537 -0.07746
 H154 H 0.75685 0.17537 -0.07955
 H155 H 0.68782 0.18865 -0.18047
 H156 H 0.66115 0.16005 -0.14883
 N157 N 0.11399 0.71289 -0.19087
 N158 N 0.11290 0.68649 -0.21462
 C159 C 0.08413 0.69080 -0.23613
 C160 C 0.06671 0.72160 -0.22531
 C161 C 0.08624 0.73500 -0.19662
 H162 H 0.07617 0.67283 -0.25774
 H163 H 0.08008 0.75849 -0.18052
 Cu164 Cu 0.14880 0.64878 -0.21422
 Cu165 Cu 0.14961 0.71527 -0.15246
 Cu166 Cu 0.21391 0.64851 -0.15155
 N167 N 0.18566 0.61201 -0.21404
 N168 N 0.21130 0.61255 -0.18966
 C169 C 0.23297 0.58432 -0.19504
 C170 C 0.22011 0.56510 -0.22419
 C171 C 0.19008 0.58316 -0.23570
 H172 H 0.25593 0.57777 -0.17856
 H173 H 0.17277 0.57561 -0.25791
 N174 N 0.21205 0.68718 -0.11535
 N175 N 0.18775 0.71281 -0.11581
 C176 C 0.19309 0.73463 -0.08710
 C177 C 0.22193 0.72191 -0.06793
 C178 C 0.23342 0.69195 -0.08633
 H179 H 0.17697 0.75768 -0.08020
 H180 H 0.25542 0.67478 -0.07879
 H181 H 0.18876 0.68832 -0.18102
 H182 H 0.16025 0.66093 -0.14995
 N183 N 0.11298 0.21351 0.30969
 N184 N 0.11178 0.18713 0.28592
 C185 C 0.08297 0.19145 0.26452
 C186 C 0.06565 0.22229 0.27536
 C187 C 0.08525 0.23567 0.30399
 H188 H 0.07497 0.17353 0.24288
 H189 H 0.07918 0.25920 0.32008
 Cu190 Cu 0.14797 0.14977 0.28558
 Cu191 Cu 0.14869 0.21584 0.34796
 Cu192 Cu 0.21373 0.14987 0.34762
 N193 N 0.18457 0.11283 0.28595
 N194 N 0.21092 0.11401 0.30948
 C195 C 0.23282 0.08606 0.30369
 C196 C 0.21928 0.06626 0.27529
 C197 C 0.18862 0.08370 0.26460
 H198 H 0.25638 0.08005 0.31946
 H199 H 0.17081 0.07574 0.24296
 N200 N 0.21187 0.18830 0.38409
 N201 N 0.18702 0.21338 0.38440
 C202 C 0.19198 0.23457 0.41368
 C203 C 0.22121 0.22204 0.43237
 C204 C 0.23330 0.19286 0.41309
 H205 H 0.17531 0.25701 0.42129
 H206 H 0.25558 0.17588 0.42019
 H207 H 0.18779 0.18956 0.31876
 H208 H 0.15989 0.16151 0.34984
 N209 N 0.61261 0.28809 0.68807
 N210 N 0.61169 0.31375 0.71265
 C211 C 0.58305 0.30905 0.73429
 C212 C 0.56544 0.27885 0.72258
 C213 C 0.58474 0.26613 0.69330
 H214 H 0.57533 0.32630 0.75666
 H215 H 0.57857 0.24303 0.67670
 Cu216 Cu 0.64772 0.35101 0.71339
 Cu217 Cu 0.64879 0.28596 0.65009
 Cu218 Cu 0.71417 0.35130 0.65182
 N219 N 0.68443 0.38757 0.71427
 N220 N 0.71101 0.38673 0.69085
 C221 C 0.73287 0.41439 0.69761
 C222 C 0.71904 0.43366 0.72652
 C223 C 0.68825 0.41615 0.73642
 H224 H 0.75662 0.42061 0.68217
 H225 H 0.67018 0.42369 0.75811
 N226 N 0.71248 0.31318 0.61454
 N227 N 0.68754 0.28833 0.61400
 C228 C 0.69285 0.26694 0.58490
 C229 C 0.72240 0.27894 0.56641
 C230 C 0.73431 0.30822 0.58571
 H231 H 0.67624 0.24459 0.57728
 H232 H 0.75685 0.32486 0.57886
 H233 H 0.68789 0.31147 0.67982
 H234 H 0.66047 0.34019 0.64898
 N235 N 0.61166 0.78936 1.18774
 N236 N 0.60770 0.81808 1.20814
 C237 C 0.57882 0.81397 1.22956
 C238 C 0.56443 0.78076 1.22238
 C239 C 0.58577 0.76583 1.19576
 H240 H 0.56893 0.83363 1.24875
 H241 H 0.58199 0.74028 1.18243
 Cu242 Cu 0.64037 0.85825 1.20494
 Cu243 Cu 0.64812 0.78599 1.15028
 Cu244 Cu 0.71523 0.84842 1.15460
 N245 N 0.68116 0.88953 1.21112
 N246 N 0.71105 0.88406 1.19323
 C247 C 0.73478 0.90911 1.20310
 C248 C 0.71878 0.93161 1.22820
 C249 C 0.68466 0.91868 1.23250
 H250 H 0.76111 0.91199 1.19154
 H251 H 0.66395 0.92982 1.24964
 N252 N 0.71370 0.81058 1.11712
 N253 N 0.68742 0.78732 1.11495
 C254 C 0.69195 0.76700 1.08495
 C255 C 0.72257 0.77797 1.06764
 C256 C 0.73587 0.80551 1.08861
 H257 H 0.67407 0.74618 1.07595
 H258 H 0.75929 0.82129 1.08283
 H259 H 0.68292 0.81418 1.18359
 H260 H 0.66187 0.84004 1.14512
 N261 N 0.11196 0.29007 1.18893
 N262 N 0.10803 0.31913 1.20882
 C263 C 0.07894 0.31551 1.23008
 C264 C 0.06442 0.28224 1.22332
 C265 C 0.08591 0.26679 1.19715
 H266 H 0.06905 0.33548 1.24893
 H267 H 0.08213 0.24104 1.18425
 Cu268 Cu 0.14117 0.35901 1.20521
 Cu269 Cu 0.14832 0.28596 1.15152
 Cu270 Cu 0.21543 0.34848 1.15398
 N271 N 0.18210 0.39048 1.21008
 N272 N 0.21172 0.38486 1.19174
 C273 C 0.23544 0.41035 1.20043
 C274 C 0.21970 0.43329 1.22520
 C275 C 0.18581 0.42015 1.23063
 H276 H 0.26152 0.41318 1.18827
 H277 H 0.16536 0.43158 1.24789
 N278 N 0.21364 0.30994 1.11746
 N279 N 0.18742 0.28656 1.11601
 C280 C 0.19175 0.26571 1.08637
 C281 C 0.22216 0.27652 1.06859
 C282 C 0.23555 0.30446 1.08885
 H283 H 0.17385 0.24471 1.07788
 H284 H 0.25881 0.32026 1.08249
 H285 H 0.18346 0.31462 1.18396
 H286 H 0.16187 0.33989 1.14539
 N287 N 0.11329 0.78960 0.68817
 N288 N 0.10918 0.81836 0.70847
 C289 C 0.08005 0.81437 0.72956
 C290 C 0.06561 0.78120 0.72224
 C291 C 0.08723 0.76615 0.69591
 H292 H 0.07005 0.83404 0.74868
 H293 H 0.08357 0.74057 0.68263
 Cu294 Cu 0.14206 0.85843 0.70564
 Cu295 Cu 0.15018 0.78605 0.65115
 Cu296 Cu 0.21688 0.84906 0.65528
 N297 N 0.18265 0.89002 0.71177
 N298 N 0.21251 0.88483 0.69373
 C299 C 0.23603 0.91016 0.70339
 C300 C 0.21994 0.93254 0.72853
 C301 C 0.18598 0.91925 0.73306
 H302 H 0.26225 0.91332 0.69164
 H303 H 0.16523 0.93026 0.75022
 N304 N 0.21576 0.81100 0.61809
 N305 N 0.18982 0.78732 0.61619
 C306 C 0.19470 0.76674 0.58643
 C307 C 0.22516 0.77802 0.56902
 C308 C 0.23799 0.80601 0.58962
 H309 H 0.17706 0.74568 0.57753
 H310 H 0.26108 0.82218 0.58359
 H311 H 0.18476 0.81443 0.68425
 H312 H 0.16346 0.84001 0.64579
 N313 N 0.38692 0.71073 0.69247
 N314 N 0.38803 0.68356 0.71538
 C315 C 0.41652 0.68720 0.73739
 C316 C 0.43364 0.71856 0.72799
 C317 C 0.41429 0.73280 0.69945
 H318 H 0.42418 0.66871 0.75875
 H319 H 0.42028 0.75695 0.68433
 Cu320 Cu 0.35116 0.64709 0.71444
 Cu321 Cu 0.35177 0.71429 0.65350
 Cu322 Cu 0.28685 0.64843 0.65107
 N323 N 0.31433 0.61059 0.71337
 N324 N 0.28876 0.61195 0.68893
 C325 C 0.26659 0.58419 0.69413
 C326 C 0.27903 0.56448 0.72326
 C327 C 0.30933 0.58174 0.73492
 H328 H 0.24353 0.57834 0.67760
 H329 H 0.32634 0.57372 0.75727
 N330 N 0.28951 0.68755 0.61519
 N331 N 0.31402 0.71283 0.61618
 C332 C 0.30923 0.73498 0.58750
 C333 C 0.28050 0.72286 0.56781
 C334 C 0.26857 0.69290 0.58591
 H335 H 0.32566 0.75783 0.58097
 H336 H 0.24655 0.67609 0.57795
 H337 H 0.31194 0.68763 0.68099
 H338 H 0.34060 0.66021 0.65011
 N339 N 0.38786 0.21013 1.18944
 N340 N 0.39181 0.18098 1.20926
 C341 C 0.42072 0.18465 1.23063
 C342 C 0.43508 0.21807 1.22412
 C343 C 0.41370 0.23352 1.19788
 H344 H 0.43066 0.16455 1.24933
 H345 H 0.41752 0.25931 1.18497
 Cu346 Cu 0.35899 0.14087 1.20539
 Cu347 Cu 0.35184 0.21412 1.15172
 Cu348 Cu 0.28495 0.15138 1.15423
 N349 N 0.31807 0.10934 1.21026
 N350 N 0.28849 0.11511 1.19204
 C351 C 0.26470 0.08963 1.20067
 C352 C 0.28035 0.06653 1.22528
 C353 C 0.31427 0.07955 1.23070
 H354 H 0.23865 0.08690 1.18854
 H355 H 0.33467 0.06797 1.24785
 N356 N 0.28686 0.18974 1.11761
 N357 N 0.31298 0.21325 1.11603
 C358 C 0.30868 0.23389 1.08617
 C359 C 0.27844 0.22269 1.06844
 C360 C 0.26511 0.19486 1.08894
 H361 H 0.32646 0.25499 1.07755
 H362 H 0.24195 0.17892 1.08272
 H363 H 0.31682 0.18533 1.18420
 H364 H 0.33862 0.16020 1.14560
 N365 N 0.88754 0.71249 1.18956
 N366 N 0.88964 0.68492 1.21187
 C367 C 0.91823 0.68900 1.23363
 C368 C 0.93446 0.72094 1.22459
 C369 C 0.91444 0.73516 1.19656
 H370 H 0.92681 0.67015 1.25427
 H371 H 0.91976 0.75962 1.18168
 Cu372 Cu 0.85520 0.64598 1.21033
 Cu373 Cu 0.85182 0.71559 1.15137
 Cu374 Cu 0.78544 0.65186 1.15255
 N375 N 0.81581 0.61216 1.21197
 N376 N 0.78795 0.61567 1.19059
 C377 C 0.76495 0.58893 1.19746
 C378 C 0.77932 0.56746 1.22432
 C379 C 0.81162 0.58272 1.23291
 H380 H 0.74027 0.58454 1.18306
 H381 H 0.83062 0.57292 1.25269
 N382 N 0.78770 0.69029 1.11589
 N383 N 0.81345 0.71425 1.11496
 C384 C 0.80900 0.73535 1.08542
 C385 C 0.77906 0.72404 1.06718
 C386 C 0.76611 0.69559 1.08708
 H387 H 0.82642 0.75698 1.07740
 H388 H 0.74314 0.67951 1.08046
 H389 H 0.81435 0.68862 1.18237
 H390 H 0.83937 0.66156 1.14767
 N391 N 0.88651 0.21292 0.68881
 N392 N 0.88904 0.18529 0.71098
 C393 C 0.91765 0.18951 0.73260
 C394 C 0.93353 0.22156 0.72361
 C395 C 0.91327 0.23579 0.69575
 H396 H 0.92652 0.17061 0.75307
 H397 H 0.91835 0.26033 0.68091
 Cu398 Cu 0.85550 0.14582 0.70929
 Cu399 Cu 0.85046 0.21573 0.65092
 Cu400 Cu 0.78484 0.15111 0.65278
 N401 N 0.81633 0.11210 0.71211
 N402 N 0.78810 0.11528 0.69121
 C403 C 0.76529 0.08864 0.69899
 C404 C 0.78024 0.06760 0.72594
 C405 C 0.81265 0.08298 0.73358
 H406 H 0.74036 0.08397 0.68513
 H407 H 0.83205 0.07353 0.75312
 N408 N 0.78650 0.18936 0.61584
 N409 N 0.81173 0.21387 0.61494
 C410 C 0.80680 0.23496 0.58550
 C411 C 0.77714 0.22302 0.56724
 C412 C 0.76483 0.19418 0.58699
 H413 H 0.82385 0.25686 0.57741
 H414 H 0.74229 0.17755 0.58028
 H415 H 0.81378 0.18813 0.68224
 H416 H 0.83859 0.16162 0.64698
 N417 N 0.28710 0.38486 0.68899
 N418 N 0.31294 0.38569 0.71314
 C419 C 0.30849 0.41454 0.73477
 C420 C 0.27818 0.43227 0.72357
 C421 C 0.26523 0.41290 0.69455
 H422 H 0.32595 0.42230 0.75678
 H423 H 0.24210 0.41925 0.67824
 Cu424 Cu 0.34979 0.34901 0.71350
 Cu425 Cu 0.28461 0.34882 0.65087
 Cu426 Cu 0.35061 0.28370 0.65052
 N427 N 0.38692 0.31260 0.71281
 N428 N 0.38660 0.28673 0.68843
 C429 C 0.41494 0.26527 0.69373
 C430 C 0.43397 0.27854 0.72281
 C431 C 0.41566 0.30854 0.73437
 H432 H 0.42159 0.24211 0.67733
 H433 H 0.42290 0.32603 0.75664
 N434 N 0.31197 0.28531 0.61444
 N435 N 0.28684 0.31013 0.61461
 C436 C 0.26520 0.30483 0.58590
 C437 C 0.27740 0.27539 0.56705
 C438 C 0.30698 0.26359 0.58559
 H439 H 0.24270 0.32147 0.57869
 H440 H 0.32389 0.24129 0.57811
 H441 H 0.31063 0.30916 0.67957
 H442 H 0.33843 0.33783 0.64904
 N443 N 0.28786 0.88695 0.18887
 N444 N 0.31427 0.88797 0.21236
 C445 C 0.31021 0.91680 0.23411
 C446 C 0.27949 0.93426 0.22378
 C447 C 0.26591 0.91478 0.19511
 H448 H 0.32810 0.92459 0.25575
 H449 H 0.24231 0.92095 0.17946
 Cu450 Cu 0.35069 0.85099 0.21216
 Cu451 Cu 0.28505 0.85119 0.15034
 Cu452 Cu 0.35015 0.78501 0.15016
 N453 N 0.38708 0.81398 0.21211
 N454 N 0.38590 0.78749 0.18847
 C455 C 0.41363 0.76538 0.19429
 C456 C 0.43316 0.77894 0.22290
 C457 C 0.41583 0.80979 0.23360
 H458 H 0.41972 0.74176 0.17836
 H459 H 0.42378 0.82778 0.25519
 N460 N 0.31182 0.78747 0.11366
 N461 N 0.28713 0.81273 0.11365
 C462 C 0.26589 0.80810 0.08447
 C463 C 0.27796 0.77869 0.06544
 C464 C 0.30692 0.76610 0.08452
 H465 H 0.24364 0.82506 0.07720
 H466 H 0.32342 0.74342 0.07726
 H467 H 0.31077 0.81132 0.17903
 H468 H 0.33872 0.83923 0.14798
 N469 N 0.78736 0.38747 0.18871
 N470 N 0.81326 0.38834 0.21279
 C471 C 0.80896 0.41729 0.23432
 C472 C 0.77867 0.43504 0.22316
 C473 C 0.76554 0.41556 0.19428
 H474 H 0.82644 0.42502 0.25632
 H475 H 0.74228 0.42181 0.17813
 Cu476 Cu 0.85000 0.35160 0.21334
 Cu477 Cu 0.78482 0.35130 0.15068
 Cu478 Cu 0.84963 0.28500 0.15163
 N479 N 0.88643 0.31454 0.21336
 N480 N 0.88545 0.28795 0.18984
 C481 C 0.91344 0.26616 0.19566
 C482 C 0.93300 0.28006 0.22410
 C483 C 0.91535 0.31076 0.23472
 H484 H 0.91971 0.24252 0.17982
 H485 H 0.92318 0.32894 0.25619
 N486 N 0.81128 0.28693 0.11513
 N487 N 0.78686 0.31244 0.11453
 C488 C 0.76563 0.30750 0.08541
 C489 C 0.77729 0.27750 0.06709
 C490 C 0.80613 0.26499 0.08645
 H491 H 0.74366 0.32462 0.07769
 H492 H 0.82247 0.24209 0.07960
 H493 H 0.81027 0.31170 0.18014
 H494 H 0.83859 0.33929 0.14908
 N495 N 0.78842 0.88785 0.68970
 N496 N 0.81502 0.88911 0.71295
 C497 C 0.81104 0.91812 0.73451
 C498 C 0.78016 0.93545 0.72433
 C499 C 0.76642 0.91565 0.69593
 H500 H 0.82902 0.92606 0.75601
 H501 H 0.74263 0.92157 0.68048
 Cu502 Cu 0.85152 0.85209 0.71279
 Cu503 Cu 0.78535 0.85170 0.65151
 Cu504 Cu 0.85074 0.78582 0.65099
 N505 N 0.88802 0.81505 0.71266
 N506 N 0.88683 0.78855 0.68902
 C507 C 0.91460 0.76646 0.69480
 C508 C 0.93420 0.77998 0.72339
 C509 C 0.91683 0.81084 0.73410
 H510 H 0.92063 0.74282 0.67888
 H511 H 0.92478 0.82881 0.75571
 N512 N 0.81204 0.78790 0.61483
 N513 N 0.78711 0.81293 0.61511
 C514 C 0.76538 0.80788 0.58640
 C515 C 0.77731 0.77840 0.56737
 C516 C 0.80681 0.76629 0.58590
 H517 H 0.74294 0.82467 0.57934
 H518 H 0.82345 0.74379 0.57843
 H519 H 0.81151 0.81206 0.68011
 H520 H 0.83905 0.83999 0.64871
 N521 N 0.71187 0.61338 0.69111
 N522 N 0.68504 0.61152 0.71416
 C523 C 0.68925 0.58245 0.73565
 C524 C 0.72057 0.56572 0.72575
 C525 C 0.73428 0.58591 0.69746
 H526 H 0.67109 0.57403 0.75689
 H527 H 0.75825 0.58038 0.68206
 Cu528 Cu 0.64790 0.64792 0.71388
 Cu529 Cu 0.71459 0.64983 0.65291
 Cu530 Cu 0.64861 0.71520 0.65324
 N531 N 0.61091 0.68450 0.71426
 N532 N 0.61241 0.71171 0.69143
 C533 C 0.58477 0.73380 0.69791
 C534 C 0.56474 0.71943 0.72595
 C535 C 0.58188 0.68811 0.73569
 H536 H 0.57911 0.75808 0.68284
 H537 H 0.57387 0.66964 0.75691
 N538 N 0.68735 0.71382 0.61677
 N539 N 0.71241 0.68891 0.61661
 C540 C 0.73381 0.69422 0.58754
 C541 C 0.72157 0.72376 0.56873
 C542 C 0.69216 0.73556 0.58776
 H543 H 0.75612 0.67744 0.57999
 H544 H 0.67516 0.75783 0.58044
 H545 H 0.68795 0.68871 0.68189
 H546 H 0.66084 0.66115 0.65002
 N547 N 0.71232 0.11111 0.19119
 N548 N 0.68508 0.10932 0.21374
 C549 C 0.68886 0.08027 0.23537
 C550 C 0.72037 0.06353 0.22612
 C551 C 0.73460 0.08368 0.19808
 H552 H 0.67036 0.07199 0.25637
 H553 H 0.75889 0.07817 0.18321
 Cu554 Cu 0.64850 0.14622 0.21293
 Cu555 Cu 0.71576 0.14732 0.15279
 Cu556 Cu 0.65060 0.21353 0.15246
 N557 N 0.61219 0.18340 0.21321
 N558 N 0.61417 0.21053 0.19032
 C559 C 0.58673 0.23296 0.19646
 C560 C 0.56648 0.21895 0.22445
 C561 C 0.58313 0.18747 0.23445
 H562 H 0.58131 0.25714 0.18112
 H563 H 0.57463 0.16909 0.25555
 N564 N 0.68953 0.21157 0.11636
 N565 N 0.71417 0.18625 0.11624
 C566 C 0.73555 0.19108 0.08705
 C567 C 0.72374 0.22081 0.06823
 C568 C 0.69465 0.23320 0.08736
 H569 H 0.75757 0.17392 0.07950
 H570 H 0.67801 0.25573 0.08003
 H571 H 0.68930 0.18657 0.18150
 H572 H 0.66220 0.15937 0.14927
 N573 N 0.21201 0.61325 0.18906
 N574 N 0.18546 0.61200 0.21248
 C575 C 0.18948 0.58303 0.23412
 C576 C 0.22031 0.56568 0.22379
 C577 C 0.23400 0.58542 0.19521
 H578 H 0.17150 0.57507 0.25571
 H579 H 0.25775 0.57945 0.17962
 Cu580 Cu 0.14883 0.64885 0.21233
 Cu581 Cu 0.21511 0.64955 0.15091
 Cu582 Cu 0.14981 0.71557 0.15096
 N583 N 0.11225 0.68577 0.21244
 N584 N 0.11350 0.71248 0.18899
 C585 C 0.08571 0.73452 0.19501
 C586 C 0.06603 0.72069 0.22354
 C587 C 0.08341 0.68977 0.23400
 H588 H 0.07980 0.75841 0.17940
 H589 H 0.07553 0.67169 0.25563
 N590 N 0.18868 0.71377 0.11472
 N591 N 0.21341 0.68854 0.11461
 C592 C 0.23495 0.69354 0.08560
 C593 C 0.22318 0.72326 0.06684
 C594 C 0.19389 0.73549 0.08579
 H595 H 0.25703 0.67644 0.07809
 H596 H 0.17720 0.75798 0.07843
 H597 H 0.18900 0.68902 0.17979
 H598 H 0.16146 0.66142 0.14830
 N599 N 0.21112 0.11200 0.69089
 N600 N 0.18426 0.11055 0.71399
 C601 C 0.18830 0.08165 0.73576
 C602 C 0.21950 0.06457 0.72597
 C603 C 0.23331 0.08445 0.69753
 H604 H 0.17018 0.07366 0.75724
 H605 H 0.25732 0.07872 0.68226
 Cu606 Cu 0.14769 0.14760 0.71359
 Cu607 Cu 0.21420 0.14791 0.65228
 Cu608 Cu 0.14851 0.21345 0.65114
 N609 N 0.11109 0.18463 0.71312
 N610 N 0.11232 0.21092 0.68912
 C611 C 0.08457 0.23309 0.69471
 C612 C 0.06497 0.21994 0.72357
 C613 C 0.08235 0.18920 0.73469
 H614 H 0.07867 0.25666 0.67860
 H615 H 0.07447 0.17159 0.75673
 N616 N 0.18727 0.21133 0.61500
 N617 N 0.21235 0.18646 0.61543
 C618 C 0.23403 0.19146 0.58653
 C619 C 0.22186 0.22073 0.56725
 C620 C 0.19231 0.23274 0.58582
 H621 H 0.25654 0.17474 0.57949
 H622 H 0.17547 0.25504 0.57817
 H623 H 0.18776 0.18752 0.68050
 H624 H 0.16050 0.15928 0.64931
 N625 N 0.28819 0.61322 0.31039
 N626 N 0.31458 0.61197 0.28676
 C627 C 0.31047 0.58306 0.26512
 C628 C 0.27974 0.56578 0.27568
 C629 C 0.26623 0.58548 0.30438
 H630 H 0.32835 0.57508 0.24344
 H631 H 0.24267 0.57950 0.32022
 Cu632 Cu 0.35124 0.64864 0.28677
 Cu633 Cu 0.28529 0.64935 0.34868
 Cu634 Cu 0.35069 0.71478 0.34862
 N635 N 0.38791 0.68531 0.28683
 N636 N 0.38675 0.71175 0.31055
 C637 C 0.41448 0.73369 0.30474
 C638 C 0.43408 0.72015 0.27605
 C639 C 0.41670 0.68945 0.26524
 H640 H 0.42041 0.75737 0.32057
 H641 H 0.42451 0.67164 0.24337
 N642 N 0.31212 0.71310 0.38493
 N643 N 0.28725 0.68816 0.38509
 C644 C 0.26588 0.69334 0.41421
 C645 C 0.27801 0.72283 0.43296
 C646 C 0.30723 0.73476 0.41389
 H647 H 0.24368 0.67654 0.42179
 H648 H 0.32405 0.75706 0.42117
 H649 H 0.31128 0.68876 0.31984
 H650 H 0.33897 0.66066 0.35097
 N651 N 0.28902 0.11314 0.80928
 N652 N 0.31593 0.11205 0.78628
 C653 C 0.31263 0.08307 0.76458
 C654 C 0.28176 0.06559 0.77427
 C655 C 0.26739 0.08528 0.80262
 H656 H 0.33110 0.07521 0.74338
 H657 H 0.24354 0.07909 0.81791
 Cu658 Cu 0.35209 0.14910 0.78696
 Cu659 Cu 0.28544 0.14885 0.84809
 Cu660 Cu 0.35089 0.21427 0.84990
 N661 N 0.38825 0.18616 0.78764
 N662 N 0.38716 0.21201 0.81200
 C663 C 0.41494 0.23405 0.80666
 C664 C 0.43435 0.22117 0.77752
 C665 C 0.41691 0.19080 0.76602
 H666 H 0.42097 0.25731 0.82308
 H667 H 0.42472 0.17344 0.74378
 N668 N 0.31204 0.21194 0.88587
 N669 N 0.28695 0.18724 0.88514
 C670 C 0.26511 0.19221 0.91395
 C671 C 0.27722 0.22126 0.93346
 C672 C 0.30688 0.23317 0.91512
 H673 H 0.24256 0.17557 0.92078
 H674 H 0.32369 0.25529 0.92296
 H675 H 0.31176 0.18867 0.82029
 H676 H 0.33906 0.16003 0.85126
 N677 N 0.78990 0.61283 0.80994
 N678 N 0.81668 0.61150 0.78678
 C679 C 0.81302 0.58247 0.76519
 C680 C 0.78211 0.56516 0.77518
 C681 C 0.76808 0.58504 0.80356
 H682 H 0.83121 0.57454 0.74375
 H683 H 0.74416 0.57919 0.81889
 Cu684 Cu 0.85300 0.64854 0.78701
 Cu685 Cu 0.78634 0.64920 0.84811
 Cu686 Cu 0.85140 0.71503 0.84855
 N687 N 0.88928 0.68561 0.78713
 N688 N 0.88778 0.71215 0.81071
 C689 C 0.91536 0.73433 0.80484
 C690 C 0.93518 0.72080 0.77628
 C691 C 0.91811 0.68988 0.76563
 H692 H 0.92100 0.75816 0.82055
 H693 H 0.92617 0.67201 0.74390
 N694 N 0.81251 0.71321 0.88461
 N695 N 0.78766 0.68825 0.88446
 C696 C 0.76584 0.69355 0.91323
 C697 C 0.77763 0.72315 0.93209
 C698 C 0.80718 0.73497 0.91345
 H699 H 0.74356 0.67675 0.92052
 H700 H 0.82388 0.75731 0.92090
 H701 H 0.81247 0.68867 0.81946
 H702 H 0.83993 0.66085 0.85104
 N703 N 0.79010 0.11108 0.30930
 N704 N 0.81729 0.10963 0.28664
 C705 C 0.81393 0.08059 0.26501
 C706 C 0.78274 0.06346 0.27439
 C707 C 0.76827 0.08342 0.30248
 H708 H 0.83247 0.07259 0.24392
 H709 H 0.74408 0.07766 0.31738
 Cu710 Cu 0.85328 0.14692 0.28738
 Cu711 Cu 0.78609 0.14722 0.34770
 Cu712 Cu 0.85032 0.21389 0.34815
 N713 N 0.88908 0.18442 0.28728
 N714 N 0.88680 0.21133 0.31037
 C715 C 0.91393 0.23399 0.30437
 C716 C 0.93431 0.22039 0.27627
 C717 C 0.91803 0.18892 0.26600
 H718 H 0.91898 0.25814 0.31978
 H719 H 0.92667 0.17086 0.24467
 N720 N 0.81144 0.21157 0.38419
 N721 N 0.78709 0.18610 0.38428
 C722 C 0.76551 0.19089 0.41334
 C723 C 0.77694 0.22069 0.43213
 C724 C 0.80594 0.23321 0.41307
 H725 H 0.74353 0.17373 0.42075
 H726 H 0.82219 0.25596 0.42028
 H727 H 0.81196 0.18678 0.31901
 H728 H 0.83947 0.15960 0.35111
 N729 N 0.71111 0.38717 0.30987
 N730 N 0.68477 0.38845 0.28631
 C731 C 0.68885 0.41755 0.26483
 C732 C 0.71947 0.43491 0.27547
 C733 C 0.73297 0.41506 0.30402
 H734 H 0.67101 0.42559 0.24320
 H735 H 0.75653 0.42095 0.31978
 Cu736 Cu 0.64807 0.35168 0.28606
 Cu737 Cu 0.71421 0.35081 0.34776
 Cu738 Cu 0.64972 0.28468 0.34751
 N739 N 0.61178 0.31450 0.28649
 N740 N 0.61348 0.28768 0.30977
 C741 C 0.58596 0.26547 0.30400
 C742 C 0.56585 0.27927 0.27584
 C743 C 0.58275 0.31041 0.26532
 H744 H 0.58045 0.24148 0.31959
 H745 H 0.57449 0.32855 0.24390
 N746 N 0.68839 0.28641 0.38359
 N747 N 0.71276 0.31182 0.38388
 C748 C 0.73415 0.30689 0.41292
 C749 C 0.72265 0.27699 0.43148
 C750 C 0.69371 0.26457 0.41240
 H751 H 0.75598 0.32409 0.42055
 H752 H 0.67729 0.24191 0.41962
 H753 H 0.68851 0.31153 0.31843
 H754 H 0.66053 0.33897 0.35006
 N755 N 0.71122 0.88735 0.80942
 N756 N 0.68528 0.88814 0.78537
 C757 C 0.68923 0.91711 0.76373
 C758 C 0.71939 0.93496 0.77468
 C759 C 0.73278 0.91549 0.80363
 H760 H 0.67159 0.92479 0.74178
 H761 H 0.75595 0.92189 0.81979
 Cu762 Cu 0.64899 0.85126 0.78540
 Cu763 Cu 0.71392 0.85127 0.84796
 Cu764 Cu 0.64827 0.78590 0.84816
 N765 N 0.61177 0.81530 0.78568
 N766 N 0.61240 0.78904 0.80968
 C767 C 0.58427 0.76760 0.80396
 C768 C 0.56491 0.78142 0.77517
 C769 C 0.58290 0.81173 0.76420
 H770 H 0.57783 0.74415 0.82001
 H771 H 0.57549 0.82963 0.74225
 N772 N 0.68682 0.78765 0.88473
 N773 N 0.71178 0.81251 0.88456
 C774 C 0.73339 0.80724 0.91339
 C775 C 0.72140 0.77780 0.93243
 C776 C 0.69191 0.76596 0.91374
 H777 H 0.75581 0.82387 0.92052
 H778 H 0.67520 0.74358 0.92117
 H779 H 0.68824 0.81140 0.81977
 H780 H 0.66014 0.83999 0.84997
 N781 N 0.21100 0.38548 0.81166
 N782 N 0.18509 0.38646 0.78759
 C783 C 0.18953 0.41523 0.76578
 C784 C 0.21987 0.43279 0.77683
 C785 C 0.23290 0.41336 0.80589
 H786 H 0.17205 0.42303 0.74374
 H787 H 0.25613 0.41952 0.82204
 Cu788 Cu 0.14790 0.35031 0.78771
 Cu789 Cu 0.21357 0.34939 0.84986
 Cu790 Cu 0.14827 0.28399 0.84983
 N791 N 0.11177 0.31309 0.78758
 N792 N 0.11254 0.28685 0.81159
 C793 C 0.08467 0.26506 0.80589
 C794 C 0.06544 0.27850 0.77693
 C795 C 0.08314 0.30898 0.76590
 H796 H 0.07833 0.24167 0.82207
 H797 H 0.07550 0.32682 0.74398
 N798 N 0.18660 0.28573 0.88625
 N799 N 0.21148 0.31064 0.88620
 C800 C 0.23307 0.30531 0.91499
 C801 C 0.22111 0.27576 0.93378
 C802 C 0.19169 0.26392 0.91511
 H803 H 0.25543 0.32198 0.92226
 H804 H 0.17500 0.24150 0.92245
 H805 H 0.18767 0.31013 0.82078
 H806 H 0.15983 0.33819 0.85196
 N807 N 0.21171 0.88667 0.31050
 N808 N 0.18523 0.88783 0.28710
 C809 C 0.18917 0.91673 0.26535
 C810 C 0.21988 0.93410 0.27559
 C811 C 0.23358 0.91446 0.30421
 H812 H 0.17117 0.92467 0.24380
 H813 H 0.25719 0.92051 0.31982
 Cu814 Cu 0.14878 0.85098 0.28754
 Cu815 Cu 0.21472 0.85081 0.34904
 Cu816 Cu 0.14962 0.78501 0.34983
 N817 N 0.11237 0.81409 0.28783
 N818 N 0.11356 0.78768 0.31165
 C819 C 0.08585 0.76567 0.30588
 C820 C 0.06631 0.77917 0.27711
 C821 C 0.08366 0.80991 0.26630
 H822 H 0.07984 0.74207 0.32189
 H823 H 0.07577 0.82783 0.24453
 N824 N 0.18827 0.78723 0.38613
 N825 N 0.21297 0.81234 0.38582
 C826 C 0.23455 0.80756 0.41474
 C827 C 0.22279 0.77817 0.43396
 C828 C 0.19355 0.76579 0.41527
 H829 H 0.25682 0.82444 0.42174
 H830 H 0.17712 0.74323 0.42280
 H831 H 0.18882 0.81103 0.32067
 H832 H 0.16105 0.83914 0.35176
 C833 C 0.26510 1.03286 0.23905
 C834 C 0.23415 1.03278 0.26081
 C835 C 0.21904 1.00022 0.27167
 C836 C 0.23435 0.96768 0.26088
 C837 C 0.26491 0.96774 0.23860
 C838 C 0.28029 1.00029 0.22813
 H839 H 0.30343 1.00028 0.21039
 H840 H 0.19600 1.00020 0.28954
 C841 C 0.26391 0.53106 0.73752
 C842 C 0.23462 0.53136 0.76155
 C843 C 0.22017 0.49894 0.77375
 C844 C 0.23453 0.46624 0.76209
 C845 C 0.26366 0.46598 0.73788
 C846 C 0.27818 0.49838 0.72577
 H847 H 0.30026 0.49816 0.70666
 H848 H 0.19817 0.49917 0.79295
 C849 C 0.76748 -0.03538 0.26101
 C850 C 0.73412 -0.03513 0.24312
 C851 C 0.71837 -0.00241 0.23334
 C852 C 0.73524 0.03008 0.24108
 C853 C 0.76810 0.03000 0.25944
 C854 C 0.78462 -0.00265 0.26803
 H855 H 0.80944 -0.00239 0.28306
 H856 H 0.69382 -0.00228 0.21785
 C857 C 0.76620 0.46638 0.76155
 C858 C 0.73384 0.46685 0.74199
 C859 C 0.71886 0.49965 0.73133
 C860 C 0.73537 0.53205 0.74027
 C861 C 0.76736 0.53174 0.76022
 C862 C 0.78319 0.49893 0.76961
 H863 H 0.80737 0.49889 0.78571
 H864 H 0.69506 0.49990 0.71466
 C865 C 0.26531 0.46702 0.26134
 C866 C 0.23476 0.46696 0.23912
 C867 C 0.21971 0.49957 0.22800
 C868 C 0.23491 0.53215 0.23859
 C869 C 0.26519 0.53219 0.26116
 C870 C 0.28028 0.49961 0.27223
 H871 H 0.30311 0.49962 0.29029
 H872 H 0.19680 0.49959 0.21006
 C873 C 0.76561 1.03400 0.74066
 C874 C 0.73361 1.03385 0.76090
 C875 C 0.71763 1.00110 0.76996
 C876 C 0.73376 0.96864 0.76007
 C877 C 0.76528 0.96885 0.73923
 C878 C 0.78103 1.00151 0.72977
 H879 H 0.80457 1.00167 0.71259
 H880 H 0.69385 1.00077 0.78681
 C881 C 0.76437 0.53374 0.23834
 C882 C 0.73439 0.53366 0.26146
 C883 C 0.71944 0.50110 0.27260
 C884 C 0.73411 0.46854 0.26098
 C885 C 0.76401 0.46859 0.23775
 C886 C 0.77902 0.50116 0.22670
 H887 H 0.80162 0.50115 0.20824
 H888 H 0.69691 0.50111 0.29114
 C889 C 0.26829 -0.03352 0.76098
 C890 C 0.23490 -0.03388 0.74312
 C891 C 0.21858 -0.00144 0.73328
 C892 C 0.23480 0.03136 0.74111
 C893 C 0.26760 0.03185 0.75955
 C894 C 0.28476 -0.00048 0.76810
 H895 H 0.30954 0.00023 0.78319
 H896 H 0.19407 -0.00177 0.71771
 C897 C 0.23641 0.26224 1.03423
 C898 C 0.26389 0.23662 1.03414
 C899 C 0.27694 0.22337 1.00095
 C900 C 0.26281 0.23550 0.96781
 C901 C 0.23550 0.26136 0.96793
 C902 C 0.22237 0.27448 1.00113
 H903 H 0.20140 0.29449 1.00120
 H904 H 0.29798 0.20344 1.00092
 C905 C 0.23949 0.76438 0.53439
 C906 C 0.26613 0.73783 0.53383
 C907 C 0.27832 0.72437 0.50039
 C908 C 0.26427 0.73720 0.46749
 C909 C 0.23772 0.76384 0.46801
 C910 C 0.22546 0.77724 0.50146
 H911 H 0.20490 0.79767 0.50189
 H912 H 0.29868 0.70374 0.49998
 C913 C 0.26295 0.76323 -0.03496
 C914 C 0.23666 0.73652 -0.03413
 C915 C 0.22401 0.72363 -0.00064
 C916 C 0.23719 0.73728 0.03219
 C917 C 0.26339 0.76411 0.03148
 C918 C 0.27610 0.77698 -0.00208
 H919 H 0.29632 0.79762 -0.00259
 H920 H 0.20379 0.70299 -0.00014
 C921 C 0.26288 0.26170 0.46658
 C922 C 0.23572 0.23588 0.46662
 C923 C 0.22260 0.22263 0.49977
 C924 C 0.23622 0.23505 0.53294
 C925 C 0.26316 0.26112 0.53288
 C926 C 0.27639 0.27425 0.49973
 H927 H 0.29711 0.29439 0.49973
 H928 H 0.20182 0.20255 0.49975
 C929 C 0.73708 0.76408 1.03314
 C930 C 0.76453 0.73838 1.03293
 C931 C 0.77750 0.72527 0.99962
 C932 C 0.76336 0.73754 0.96648
 C933 C 0.73601 0.76340 0.96666
 C934 C 0.72298 0.77642 1.00001
 H935 H 0.70196 0.79636 1.00019
 H936 H 0.79847 0.70527 0.99948
 C937 C 0.73704 0.26426 0.53232
 C938 C 0.76285 0.23688 0.53272
 C939 C 0.77537 0.22259 0.49972
 C940 C 0.76242 0.23538 0.46630
 C941 C 0.73672 0.26286 0.46594
 C942 C 0.72416 0.27710 0.49892
 H943 H 0.70420 0.29812 0.49859
 H944 H 0.79537 0.20161 0.50004
 C945 C 0.76169 0.26308 -0.03331
 C946 C 0.73639 0.23540 -0.03276
 C947 C 0.72451 0.22155 0.00066
 C948 C 0.73762 0.23508 0.03362
 C949 C 0.76291 0.26280 0.03309
 C950 C 0.77481 0.27661 -0.00035
 H951 H 0.79444 0.29783 -0.00072
 H952 H 0.70486 0.20035 0.00102
 C953 C 0.76164 0.76370 0.46697
 C954 C 0.73446 0.73789 0.46766
 C955 C 0.72155 0.72518 0.50115
 C956 C 0.73543 0.73802 0.53407
 C957 C 0.76253 0.76395 0.53341
 C958 C 0.77554 0.77656 0.49989
 H959 H 0.79644 0.79651 0.49942
 H960 H 0.70083 0.70503 0.50158
 C961 C 1.03200 0.23680 0.26126
 C962 C 1.03139 0.26711 0.23829
 C963 C 0.99870 0.28154 0.22719
 C964 C 0.96668 0.26592 0.23851
 C965 C 0.96733 0.23577 0.26166
 C966 C 0.99998 0.22136 0.27280
 H967 H 1.00047 0.19859 0.29122
 H968 H 0.99819 0.30427 0.20872
 C969 C 0.53226 0.23577 0.76253
 C970 C 0.53213 0.26413 0.73714
 C971 C 0.49972 0.27814 0.72474
 C972 C 0.46745 0.26419 0.73745
 C973 C 0.46761 0.23590 0.76292
 C974 C 0.49999 0.22186 0.77526
 H975 H 0.50009 0.20031 0.79517
 H976 H 0.49962 0.29964 0.70480
 C977 C -0.03280 0.26512 0.76246
 C978 C -0.03302 0.23593 0.73810
 C979 C -0.00077 0.22105 0.72619
 C980 C 0.03171 0.23502 0.73816
 C981 C 0.03194 0.26425 0.76243
 C982 C -0.00030 0.27914 0.77436
 H983 H -0.00010 0.30117 0.79364
 H984 H -0.00094 0.19898 0.70695
 C985 C 0.46788 0.26364 0.26141
 C986 C 0.46823 0.23306 0.23887
 C987 C 0.50080 0.21818 0.22792
 C988 C 0.53297 0.23366 0.23881
 C989 C 0.53263 0.26422 0.26136
 C990 C 0.50007 0.27904 0.27243
 H991 H 0.49978 0.30202 0.29052
 H992 H 0.50111 0.19519 0.20983
 C993 C 1.03304 0.73611 0.76052
 C994 C 1.03253 0.76601 0.73700
 C995 C 0.99992 0.78055 0.72584
 C996 C 0.96781 0.76551 0.73768
 C997 C 0.96831 0.73577 0.76140
 C998 C 1.00092 0.72124 0.77259
 H999 H 1.00130 0.69879 0.79143
 H1000 H 0.99953 0.80306 0.70708
 C1001 C 0.53186 0.73603 0.26108
 C1002 C 0.53137 0.76560 0.23716
 C1003 C 0.49878 0.77977 0.22552
 C1004 C 0.46672 0.76458 0.23724
 C1005 C 0.46720 0.73505 0.26119
 C1006 C 0.49978 0.72095 0.27294
 H1007 H 0.50016 0.69870 0.29201
 H1008 H 0.49838 0.80211 0.20657
 C1009 C -0.03192 0.76516 0.26289
 C1010 C -0.03209 0.73542 0.23917
 C1011 C 0.00025 0.72075 0.22716
 C1012 C 0.03271 0.73532 0.23853
 C1013 C 0.03286 0.76474 0.26258
 C1014 C 0.00056 0.77960 0.27435
 H1015 H 0.00071 0.80192 0.29329
 H1016 H 0.00016 0.69849 0.20816
 C1017 C 0.46656 0.76661 0.76212
 C1018 C 0.46668 0.73345 0.74331
 C1019 C 0.49910 0.71780 0.73280
 C1020 C 0.53147 0.73435 0.74105
 C1021 C 0.53152 0.76686 0.76048
 C1022 C 0.49918 0.78341 0.76967
 H1023 H 0.49959 0.80808 0.78529
 H1024 H 0.49907 0.69351 0.71657
   
