data_POSCAR
  _audit_creation_date              2014-09-24
  _audit_creation_method            'ToBaCCo'
  _symmetry_space_group_name_H-M    'P1'
  _symmetry_Int_Tables_number       1
  _symmetry_cell_setting            triclinic
  loop_
  _symmetry_equiv_pos_as_xyz
 x,y,z
_cell_length_a 21.9978
_cell_length_b 23.6476
_cell_length_c 22.9068
_cell_angle_alpha 89.174700
_cell_angle_beta 88.958100
_cell_angle_gamma 89.593700
loop_
  _atom_site_label
  _atom_site_type_symbol
  _atom_site_fract_x
  _atom_site_fract_y
  _atom_site_fract_z
C1 C 0.19068 0.20802 0.27118
 C2 C 0.24315 0.17670 0.25738
 C3 C 0.28115 0.19111 0.20943
 C4 C 0.26489 0.23770 0.17398
 C5 C 0.21388 0.27171 0.18899
 C6 C 0.17733 0.25655 0.23753
 H7 H 0.25321 0.13923 0.28328
 H8 H 0.29282 0.24830 0.13602
 H9 H 0.13742 0.28185 0.24750
 C10 C -0.16743 0.81180 0.26459
 C11 C -0.20428 0.84282 0.22533
 C12 C -0.22199 0.81816 0.17281
 C13 C -0.19598 0.76665 0.15611
 C14 C -0.16069 0.73544 0.19471
 C15 C -0.14775 0.75698 0.24939
 H16 H -0.22412 0.88293 0.23823
 H17 H -0.20818 0.74805 0.11493
 H18 H -0.11970 0.73185 0.27837
 C19 C -0.18415 0.20871 -0.26690
 C20 C -0.16895 0.25646 -0.23489
 C21 C -0.20191 0.27048 -0.18416
 C22 C -0.25210 0.23701 -0.16605
 C23 C -0.27029 0.19116 -0.20012
 C24 C -0.23473 0.17682 -0.24939
 H25 H -0.12996 0.28170 -0.24789
 H26 H -0.27779 0.24758 -0.12687
 H27 H -0.24606 0.13988 -0.27435
 C28 C 0.17579 0.84656 -0.23441
 C29 C 0.14741 0.79409 -0.22755
 C30 C 0.16318 0.75818 -0.18131
 C31 C 0.20727 0.77437 -0.14215
 C32 C 0.23825 0.82563 -0.14995
 C33 C 0.22051 0.86283 -0.19515
 H34 H 0.11510 0.78025 -0.25948
 H35 H 0.21899 0.74538 -0.10702
 H36 H 0.24485 0.90198 -0.20315
 C37 C 0.19122 1.19003 0.72524
 C38 C 0.24432 1.15728 0.73325
 C39 C 0.28039 1.16497 0.78291
 C40 C 0.26267 1.20532 0.82417
 C41 C 0.20999 1.23787 0.81666
 C42 C 0.17444 1.22978 0.76759
 H43 H 0.25683 1.12561 0.70146
 H44 H 0.28984 1.21104 0.86257
 H45 H 0.13318 1.25449 0.76281
 C46 C 0.84366 0.83625 0.76246
 C47 C 0.87648 0.78558 0.76973
 C48 C 0.86661 0.75065 0.81980
 C49 C 0.82915 0.77082 0.86548
 C50 C 0.79602 0.82152 0.85919
 C51 C 0.80334 0.85357 0.80762
 H52 H 0.90615 0.77177 0.73444
 H53 H 0.82243 0.74504 0.90448
 H54 H 0.77666 0.89195 0.80236
 C55 C 0.16524 0.82486 1.23888
 C56 C 0.21118 0.84306 1.19937
 C57 C 0.22628 0.81217 1.14949
 C58 C 0.19557 0.76155 1.13905
 C59 C 0.15080 0.74155 1.17840
 C60 C 0.13359 0.77488 1.22695
 H61 H 0.23653 0.88107 1.20815
 H62 H 0.20890 0.73601 1.10201
 H63 H 0.09958 0.75946 1.25795
 C64 C 0.79244 1.20986 1.27426
 C65 C 0.82315 1.23470 1.22639
 C66 C 0.79164 1.24765 1.17488
 C67 C 0.73228 1.22650 1.16873
 C68 C 0.70264 1.19815 1.21495
 C69 C 0.73154 1.19347 1.26879
 H70 H 0.86988 1.24794 1.23117
 H71 H 0.70894 1.23080 1.12775
 H72 H 0.70928 1.17129 1.30479
 O73 O 0.57626 0.91550 0.94059
 O74 O 0.45072 0.91615 1.08138
 O75 O 0.62976 0.97866 1.07510
 O76 O 0.38729 0.96662 0.95440
 O77 O 0.55757 0.91956 1.08281
 O78 O 0.46254 0.91524 0.91826
 O79 O 0.37961 0.97408 1.06185
 O80 O 0.64292 0.97588 0.96849
 C81 C 0.62973 0.92672 0.95229
 C82 C 0.39611 0.92466 1.07388
 C83 C 0.61219 0.92942 1.08626
 C84 C 0.40726 0.92284 0.92922
 O85 O 0.46958 1.02032 0.88280
 O86 O 0.55314 1.02325 1.13176
 O87 O 0.59473 1.08202 0.96000
 O88 O 0.42069 1.08104 1.05522
 O89 O 0.44446 1.02266 1.12494
 O90 O 0.58124 1.01952 0.89496
 O91 O 0.41658 1.07357 0.94294
 O92 O 0.57646 1.08291 1.06438
 Co93 Co 0.52189 0.97070 0.91886
 Co94 Co 0.50220 0.97312 1.09764
 Co95 Co 0.60232 1.02731 1.01661
 Co96 Co 0.41159 1.02217 1.00477
 O97 O 0.50910 0.99993 1.00914
 C98 C 0.43273 1.06050 0.89206
 C99 C 0.56873 1.07215 1.11697
 C100 C 0.59409 1.06914 0.90778
 C101 C 0.42442 1.07020 1.10856
 O102 O 0.04360 0.42890 0.10931
 O103 O 0.09051 0.53469 -0.10012
 O104 O 0.04185 0.36132 -0.05792
 O105 O 0.07477 0.57806 0.03959
 O106 O 0.09334 0.43129 -0.09138
 O107 O 0.03745 0.53191 0.11157
 O108 O 0.04622 0.60709 -0.05793
 O109 O 0.08411 0.39926 0.03117
 C110 C 0.08842 0.40673 0.08367
 C111 C 0.08268 0.58710 -0.09531
 C112 C 0.08803 0.37936 -0.08419
 C113 C 0.07334 0.56847 0.09272
 O114 O -0.07362 0.53518 0.06909
 O115 O -0.02828 0.42688 -0.11730
 O116 O -0.02026 0.34676 0.05019
 O117 O -0.06335 0.58059 -0.04735
 O118 O -0.02555 0.53529 -0.12374
 O119 O -0.07178 0.42576 0.06964
 O120 O -0.03207 0.61908 0.04709
 O121 O -0.06449 0.39590 -0.03346
 Co122 Co -0.01385 0.48047 0.08143
 Co123 Co 0.03093 0.48131 -0.10035
 Co124 Co 0.00913 0.40193 0.00225
 Co125 Co 0.00448 0.57006 -0.00036
 O126 O 0.01375 0.48483 -0.00987
 C127 C -0.06923 0.58849 0.07910
 C128 C -0.06978 0.40198 -0.08746
 C129 C -0.06648 0.37188 0.07632
 C130 C -0.06016 0.57318 -0.10212
 O131 O 1.10462 0.07082 0.45880
 O132 O 0.89679 0.08734 0.53335
 O133 O 0.96149 0.08601 0.38265
 O134 O 1.01921 0.08749 0.57493
 O135 O 0.87982 0.06341 0.43121
 O136 O 1.10425 0.05401 0.56171
 O137 O 0.93055 0.04829 0.61217
 O138 O 1.06715 0.04366 0.37873
 C139 C 1.09437 0.07995 0.40654
 C140 C 0.90244 0.08856 0.58754
 C141 C 0.90932 0.09856 0.40086
 C142 C 1.07371 0.09391 0.57941
 O143 O 1.07981 -0.05367 0.55208
 O144 O 0.88176 -0.04688 0.46164
 O145 O 1.02428 -0.05788 0.38361
 O146 O 0.96439 -0.05935 0.58134
 O147 O 0.87993 -0.02172 0.56149
 O148 O 1.10016 -0.04230 0.44143
 O149 O 1.04399 -0.01074 0.63221
 O150 O 0.91721 -0.01781 0.37897
 Co151 Co 1.08678 0.00723 0.50136
 Co152 Co 0.89324 0.02042 0.49614
 Co153 Co 0.99188 0.01376 0.39064
 Co154 Co 0.99505 0.01333 0.57349
 O155 O 0.98871 0.01500 0.48731
 C156 C 1.08149 -0.04757 0.60779
 C157 C 0.89046 -0.05489 0.40876
 C158 C 1.07748 -0.06878 0.39956
 C159 C 0.90808 -0.06053 0.58649
 C160 C 1.15208 0.18861 0.31670
 C161 C 1.10459 0.21859 0.34242
 C162 C 1.07911 0.18229 0.38255
 C163 C 1.11235 0.13300 0.37805
 O164 O 1.15631 0.13646 0.33837
 H165 H 1.08981 0.26149 0.33343
 H166 H 1.03946 0.18994 0.41007
 C167 C 0.84812 -0.16565 0.31859
 C168 C 0.86322 -0.19741 0.36762
 C169 C 0.87681 -0.15926 0.40912
 C170 C 0.87060 -0.10725 0.38222
 O171 O 0.85267 -0.11065 0.32756
 H172 H 0.86363 -0.24293 0.37310
 H173 H 0.89236 -0.16824 0.45288
 C174 C 0.85028 0.19151 0.68454
 C175 C 0.88617 0.22618 0.64929
 C176 C 0.90778 0.19214 0.60604
 C177 C 0.88562 0.13921 0.61956
 O178 O 0.85036 0.13857 0.66654
 H179 H 0.89358 0.27117 0.65288
 H180 H 0.93673 0.20411 0.56933
 C181 C 1.16755 -0.12211 0.71085
 C182 C 1.20681 -0.12790 0.66383
 C183 C 1.17883 -0.10119 0.61873
 C184 C 1.12486 -0.08079 0.64191
 O185 O 1.11744 -0.09371 0.69789
 H186 H 1.24943 -0.15103 0.66225
 H187 H 1.19562 -0.09719 0.57418
 C188 C 0.33343 1.15795 1.19783
 C189 C 0.36358 1.12754 1.24063
 C190 C 0.40487 1.09512 1.21208
 C191 C 0.39781 1.10742 1.15363
 O192 O 0.35494 1.14641 1.14453
 H193 H 0.35546 1.12757 1.28736
 H194 H 0.43341 1.06278 1.23143
 C195 C 0.29010 0.83657 0.88243
 C196 C 0.32554 0.79520 0.90901
 C197 C 0.37514 0.82250 0.92819
 C198 C 0.36529 0.87844 0.91431
 O199 O 0.31440 0.88740 0.88590
 H200 H 0.31878 0.74994 0.91076
 H201 H 0.41413 0.80393 0.94946
 C202 C 0.72238 0.83616 1.14261
 C203 C 0.67864 0.79743 1.12833
 C204 C 0.63294 0.82803 1.10520
 C205 C 0.65203 0.88335 1.10595
 O206 O 0.70629 0.88900 1.12956
 H207 H 0.67930 0.75211 1.13575
 H208 H 0.59015 0.81201 1.08997
 C209 C 0.67789 1.15872 0.81394
 C210 C 0.64490 1.13021 0.77280
 C211 C 0.60525 1.09737 0.80351
 C212 C 0.61663 1.10742 0.86130
 O213 O 0.65991 1.14560 0.86812
 H214 H 0.65005 1.13191 0.72573
 H215 H 0.57441 1.06672 0.78596
 C216 C 0.19667 0.32231 0.15381
 C217 C 0.23574 0.35237 0.11744
 C218 C 0.20031 0.39207 0.09066
 C219 C 0.14234 0.38412 0.11307
 O220 O 0.13990 0.34163 0.15124
 H221 H 0.28382 0.34517 0.10976
 H222 H 0.21424 0.42119 0.05617
 C223 C -0.18199 0.31982 -0.15072
 C224 C -0.21986 0.35427 -0.11816
 C225 C -0.18252 0.39312 -0.09434
 C226 C -0.12469 0.37962 -0.11403
 O227 O -0.12416 0.33517 -0.14834
 H228 H -0.26861 0.35110 -0.11200
 H229 H -0.19545 0.42612 -0.06423
 C230 C 0.13958 0.70087 -0.17627
 C231 C 0.14348 0.66154 -0.22000
 C232 C 0.12573 0.61197 -0.19416
 C233 C 0.11215 0.62540 -0.13697
 O234 O 0.12055 0.67919 -0.12594
 H235 H 0.15921 0.66800 -0.26463
 H236 H 0.12146 0.57136 -0.21481
 C237 C -0.14028 0.67918 0.17748
 C238 C -0.15584 0.62960 0.20611
 C239 C -0.13358 0.58768 0.17124
 C240 C -0.10581 0.61538 0.12465
 O241 O -0.11018 0.67077 0.12814
 H242 H -0.18169 0.62477 0.24650
 H243 H -0.13648 0.54261 0.17930
 C244 C 1.15114 0.18144 0.67473
 C245 C 1.11044 0.22137 0.65362
 C246 C 1.07709 0.19425 0.61328
 C247 C 1.10009 0.14011 0.61216
 O248 O 1.14527 0.13213 0.64892
 H249 H 1.10463 0.26483 0.66684
 H250 H 1.04020 0.21168 0.58814
 C251 C 0.84438 -0.13459 0.70831
 C252 C 0.79251 -0.11095 0.68517
 C253 C 0.81018 -0.08721 0.63378
 C254 C 0.87231 -0.09571 0.62899
 O255 O 0.89348 -0.12580 0.67403
 H256 H 0.74670 -0.11156 0.70325
 H257 H 0.78147 -0.06268 0.60487
 C258 C 1.15754 -0.14717 0.29244
 C259 C 1.20592 -0.12626 0.32283
 C260 C 1.18119 -0.10044 0.36999
 C261 C 1.11905 -0.10534 0.36482
 O262 O 1.10421 -0.13469 0.31796
 H263 H 1.25389 -0.12944 0.31185
 H264 H 1.20562 -0.07683 0.40210
 C265 C 0.82256 0.19746 0.32596
 C266 C 0.79563 0.20269 0.38051
 C267 C 0.83163 0.17276 0.41721
 C268 C 0.87722 0.15007 0.38244
 O269 O 0.87255 0.16582 0.32701
 H270 H 0.75249 0.22258 0.39140
 H271 H 0.82181 0.16299 0.46272
 C272 C 0.19186 0.28130 -0.14091
 C273 C 0.23165 0.31048 -0.10661
 C274 C 0.19704 0.35056 -0.07962
 C275 C 0.13889 0.34215 -0.09875
 O276 O 0.13538 0.30051 -0.13608
 H277 H 0.28040 0.30518 -0.10381
 H278 H 0.21240 0.38295 -0.05054
 C279 C -0.18200 0.28347 0.13213
 C280 C -0.21335 0.30867 0.08657
 C281 C -0.17364 0.34522 0.06086
 C282 C -0.12073 0.33910 0.09120
 O283 O -0.12519 0.30190 0.13459
 H284 H -0.26044 0.30409 0.07493
 H285 H -0.18244 0.37381 0.02485
 C286 C -0.11108 0.69461 -0.17710
 C287 C -0.09030 0.66394 -0.22447
 C288 C -0.07559 0.61201 -0.20263
 C289 C -0.08741 0.61424 -0.14332
 O290 O -0.10941 0.66425 -0.12772
 H291 H -0.08656 0.67705 -0.26980
 H292 H -0.05457 0.57773 -0.22665
 C293 C 0.12832 0.68293 0.17205
 C294 C 0.11499 0.64710 0.21847
 C295 C 0.09839 0.59744 0.19421
 C296 C 0.10271 0.60613 0.13455
 O297 O 0.12121 0.65807 0.12092
 H298 H 0.11689 0.65615 0.26457
 H299 H 0.08164 0.56026 0.21725
 C300 C 0.33542 1.13045 0.79460
 C301 C 0.37019 1.10221 0.75344
 C302 C 0.41447 1.07493 0.78431
 C303 C 0.40346 1.08853 0.84197
 O304 O 0.35572 1.12223 0.84820
 H305 H 0.36369 1.10092 0.70678
 H306 H 0.44898 1.04650 0.76718
 C307 C 0.27991 0.82911 1.11358
 C308 C 0.32100 0.79085 1.09034
 C309 C 0.36912 0.82229 1.07146
 C310 C 0.35344 0.87760 1.08276
 O311 O 0.29959 0.88203 1.10909
 H312 H 0.31838 0.74517 1.09124
 H313 H 0.41186 0.80663 1.05380
 C314 C 0.64582 1.16706 1.20420
 C315 C 0.60734 1.14519 1.24711
 C316 C 0.57021 1.10902 1.21914
 C317 C 0.58775 1.11222 1.16118
 O318 O 0.63339 1.14742 1.15194
 H319 H 0.60853 1.15169 1.29371
 H320 H 0.53738 1.08074 1.23924
 C321 C 0.74784 0.83730 0.90253
 C322 C 0.71580 0.79827 0.93613
 C323 C 0.66903 0.82768 0.96100
 C324 C 0.67651 0.88287 0.94260
 O325 O 0.72373 0.88889 0.90627
 H326 H 0.72241 0.75293 0.93845
 H327 H 0.63163 0.81033 0.98654
   
