data_POSCAR
  _audit_creation_date              2014-09-24
  _audit_creation_method            'ToBaCCo'
  _symmetry_space_group_name_H-M    'P1'
  _symmetry_Int_Tables_number       1
  _symmetry_cell_setting            triclinic
  loop_
  _symmetry_equiv_pos_as_xyz
 x,y,z
_cell_length_a 38.3270
_cell_length_b 38.3193
_cell_length_c 38.4032
_cell_angle_alpha 90.024100
_cell_angle_beta 90.020800
_cell_angle_gamma 90.028400
loop_
  _atom_site_label
  _atom_site_type_symbol
  _atom_site_fract_x
  _atom_site_fract_y
  _atom_site_fract_z
C1 C 0.37346 0.33029 0.33090
 N2 N 0.35892 0.31577 0.35966
 C3 C 0.33019 0.33039 0.37426
 N4 N 0.31572 0.35927 0.35980
 C5 C 0.33026 0.37381 0.33103
 N6 N 0.35899 0.35917 0.31646
 C7 C 0.37434 0.83059 -0.17007
 N8 N 0.35954 0.85923 -0.18471
 C9 C 0.33067 0.87367 -0.17019
 N10 N 0.31633 0.85919 -0.14130
 C11 C 0.33111 0.83057 -0.12665
 N12 N 0.35997 0.81613 -0.14118
 C13 C 0.87340 0.33129 -0.17001
 N14 N 0.85887 0.36010 -0.18456
 C15 C 0.83008 0.37470 -0.17006
 N16 N 0.81554 0.36019 -0.14128
 C17 C 0.83006 0.33138 -0.12672
 N18 N 0.85885 0.31681 -0.14124
 C19 C 0.87420 0.82962 0.33011
 N20 N 0.85986 0.81531 0.35909
 C21 C 0.83119 0.83000 0.37374
 N22 N 0.81657 0.85872 0.35912
 C23 C 0.83089 0.87304 0.33015
 N24 N 0.85956 0.85835 0.31552
 C25 C 0.62668 0.66984 0.33057
 N26 N 0.64113 0.68419 0.35949
 C27 C 0.66988 0.66954 0.37404
 N28 N 0.68446 0.64081 0.35938
 C29 C 0.67001 0.62645 0.33046
 N30 N 0.64127 0.64111 0.31592
 C31 C 0.62567 0.16953 -0.17055
 N32 N 0.64037 0.14079 -0.18510
 C33 C 0.66922 0.12632 -0.17055
 N34 N 0.68364 0.14089 -0.14171
 C35 C 0.66896 0.16962 -0.12715
 N36 N 0.64012 0.18407 -0.14171
 C37 C 0.12715 0.66891 -0.16988
 N38 N 0.14167 0.64008 -0.18441
 C39 C 0.17043 0.62545 -0.16986
 N40 N 0.18494 0.63994 -0.14103
 C41 C 0.17043 0.66877 -0.12649
 N42 N 0.14168 0.68338 -0.14106
 C43 C 0.12584 0.16951 0.32965
 N44 N 0.14020 0.18386 0.35863
 C45 C 0.16891 0.16922 0.37328
 N46 N 0.18354 0.14049 0.35866
 C47 C 0.16921 0.12612 0.32969
 N48 N 0.14050 0.14077 0.31506
 C49 C 0.62623 0.33026 0.66908
 N50 N 0.64084 0.35903 0.68367
 C51 C 0.66959 0.37367 0.66911
 N52 N 0.68401 0.35925 0.64022
 C53 C 0.66940 0.33048 0.62562
 N54 N 0.64066 0.31585 0.64020
 C55 C 0.62589 0.83062 1.17022
 N56 N 0.64041 0.81604 1.14145
 C57 C 0.66924 0.83054 1.12692
 N58 N 0.68384 0.85935 1.14144
 C59 C 0.66936 0.87395 1.17020
 N60 N 0.64052 0.85943 1.18472
 C61 C 0.12590 0.32963 1.16998
 N62 N 0.14048 0.31515 1.14120
 C63 C 0.16920 0.32985 1.12662
 N64 N 0.18361 0.35877 1.14111
 C65 C 0.16905 0.37326 1.16989
 N66 N 0.14033 0.35855 1.18445
 C67 C 0.12590 0.83041 0.67031
 N68 N 0.14020 0.81608 0.64132
 C69 C 0.16897 0.83065 0.62674
 N70 N 0.18373 0.85929 0.64143
 C71 C 0.16947 0.87364 0.67043
 N72 N 0.14068 0.85906 0.68499
 C73 C 0.37359 0.67006 0.66936
 N74 N 0.35906 0.68455 0.64057
 C75 C 0.33030 0.66993 0.62598
 N76 N 0.31579 0.64108 0.64048
 C77 C 0.33031 0.62657 0.66927
 N78 N 0.35907 0.64121 0.68384
 C79 C 0.37391 0.16922 1.17063
 N80 N 0.35950 0.18357 1.14170
 C81 C 0.33067 0.16901 1.12718
 N82 N 0.31596 0.14037 1.14188
 C83 C 0.33033 0.12600 1.17081
 N84 N 0.35917 0.14056 1.18532
 C85 C 0.87407 0.66935 1.17036
 N86 N 0.85953 0.68382 1.14156
 C87 C 0.83080 0.66917 1.12694
 N88 N 0.81632 0.64029 1.14142
 C89 C 0.83084 0.62578 1.17023
 N90 N 0.85957 0.64046 1.18482
 C91 C 0.87301 0.16901 0.66934
 N92 N 0.85824 0.14039 0.68402
 C93 C 0.82938 0.12587 0.66954
 N94 N 0.81501 0.14027 0.64062
 C95 C 0.82977 0.16889 0.62591
 N96 N 0.85863 0.18339 0.64042
 C97 C 0.33026 0.37336 0.66992
 N98 N 0.35906 0.35879 0.68444
 C99 C 0.37355 0.32992 0.66996
 N100 N 0.35896 0.31536 0.64121
 C101 C 0.33017 0.32992 0.62667
 N102 N 0.31569 0.35879 0.64117
 C103 C 0.33060 0.87508 0.16944
 N104 N 0.35950 0.86063 0.18388
 C105 C 0.37414 0.83189 0.16931
 N106 N 0.35958 0.81731 0.14055
 C107 C 0.33068 0.83174 0.12609
 N108 N 0.31606 0.86049 0.14068
 C109 C 0.83157 0.37381 0.16878
 N110 N 0.81691 0.35924 0.14008
 C111 C 0.83127 0.33031 0.12560
 N112 N 0.86004 0.31567 0.14012
 C113 C 0.87473 0.33024 0.16883
 N114 N 0.86034 0.35917 0.18329
 C115 C 0.83086 0.87492 0.66997
 N116 N 0.81636 0.86031 0.64120
 C117 C 0.83098 0.83153 0.62667
 N118 N 0.85985 0.81710 0.64120
 C119 C 0.87436 0.83170 0.66996
 N120 N 0.85972 0.86048 0.68448
 C121 C 0.66953 0.62656 0.67021
 N122 N 0.64076 0.64115 0.68478
 C123 C 0.62622 0.66999 0.67030
 N124 N 0.64073 0.68450 0.64151
 C125 C 0.66949 0.66992 0.62693
 N126 N 0.68401 0.64109 0.64142
 C127 C 0.66890 0.12537 0.16852
 N128 N 0.68350 0.13997 0.13983
 C129 C 0.66898 0.16879 0.12531
 N130 N 0.64013 0.18329 0.13978
 C131 C 0.62552 0.16870 0.16848
 N132 N 0.64005 0.13988 0.18299
 C133 C 0.16896 0.62637 0.16915
 N134 N 0.18358 0.64097 0.14046
 C135 C 0.16906 0.66977 0.12591
 N136 N 0.14017 0.68426 0.14033
 C137 C 0.12553 0.66968 0.16902
 N138 N 0.14008 0.64087 0.18356
 C139 C 0.16914 0.12469 0.66973
 N140 N 0.14037 0.13929 0.68428
 C141 C 0.12581 0.16809 0.66976
 N142 N 0.14030 0.18257 0.64095
 C143 C 0.16906 0.16799 0.62638
 N144 N 0.18362 0.13919 0.64091
 C145 C 0.33061 0.62697 0.33028
 N146 N 0.35942 0.64155 0.31577
 C147 C 0.37394 0.67042 0.33026
 N148 N 0.35937 0.68498 0.35900
 C149 C 0.33056 0.67041 0.37352
 N150 N 0.31606 0.64155 0.35902
 C151 C 0.33079 0.12475 0.83102
 N152 N 0.35960 0.13931 0.81651
 C153 C 0.37416 0.16814 0.83103
 N154 N 0.35962 0.18269 0.85979
 C155 C 0.33081 0.16814 0.87432
 N156 N 0.31626 0.13931 0.85978
 C157 C 0.83125 0.62634 0.83105
 N158 N 0.86000 0.64094 0.81645
 C159 C 0.87455 0.66981 0.83090
 N160 N 0.86005 0.68436 0.85969
 C161 C 0.83130 0.66976 0.87430
 N162 N 0.81677 0.64089 0.85983
 C163 C 0.83083 0.12557 0.32977
 N164 N 0.81626 0.14013 0.35851
 C165 C 0.83085 0.16890 0.37312
 N166 N 0.85975 0.18339 0.35871
 C167 C 0.87433 0.16884 0.32997
 N168 N 0.85973 0.14007 0.31537
 C169 C 0.66971 0.37380 0.32935
 N170 N 0.68418 0.35930 0.35816
 C171 C 0.66957 0.33053 0.37272
 N172 N 0.64074 0.31600 0.35818
 C173 C 0.62624 0.33049 0.32937
 N174 N 0.64087 0.35926 0.31482
 C175 C 0.66953 0.87492 0.83150
 N176 N 0.64064 0.86040 0.81706
 C177 C 0.62612 0.83156 0.83156
 N178 N 0.64077 0.81696 0.86023
 C179 C 0.66966 0.83146 0.87468
 N180 N 0.68418 0.86030 0.86017
 C181 C 0.16941 0.37367 0.83120
 N182 N 0.14062 0.35912 0.81660
 C183 C 0.12610 0.33022 0.83097
 N184 N 0.14065 0.31558 0.85968
 C185 C 0.16944 0.33011 0.87429
 N186 N 0.18396 0.35902 0.85991
 C187 C 0.16850 0.87473 0.33031
 N188 N 0.18304 0.86024 0.35910
 C189 C 0.16854 0.83140 0.37363
 N190 N 0.13977 0.81676 0.35907
 C191 C 0.12522 0.83123 0.33028
 N192 N 0.13973 0.86008 0.31576
 O193 O 0.25350 1.03549 0.20603
 O194 O 0.20517 0.96729 0.25342
 O195 O 0.20517 1.03545 0.25346
 O196 O 0.25327 0.96736 0.20577
 O197 O 0.29385 0.96724 0.24673
 O198 O 0.24574 1.03536 0.29442
 O199 O 0.24575 0.96721 0.29437
 O200 O 0.29407 1.03537 0.24699
 Cu201 Cu 0.22518 1.00141 0.22554
 Cu202 Cu 0.27394 1.00128 0.27477
 C203 C 0.28183 1.04709 0.21863
 C204 C 0.21745 0.95556 0.28177
 C205 C 0.21745 1.04707 0.28186
 C206 C 0.28156 0.95564 0.21831
 O207 O 0.25322 0.53413 0.70598
 O208 O 0.20551 0.46615 0.75421
 O209 O 0.20556 0.53430 0.75407
 O210 O 0.25325 0.46599 0.70622
 O211 O 0.29423 0.46613 0.74677
 O212 O 0.24655 0.53443 0.79462
 O213 O 0.24650 0.46627 0.79477
 O214 O 0.29421 0.53428 0.74653
 Cu215 Cu 0.22525 0.50013 0.72603
 Cu216 Cu 0.27451 0.50029 0.77477
 C217 C 0.28164 0.54586 0.71825
 C218 C 0.21808 0.45454 0.78249
 C219 C 0.21814 0.54607 0.78229
 C220 C 0.28166 0.45435 0.71856
 O221 O 0.75343 -0.03483 0.29367
 O222 O 0.70539 0.03316 0.24577
 O223 O 0.70524 -0.03498 0.24608
 O224 O 0.75341 0.03329 0.29353
 O225 O 0.79408 0.03314 0.25269
 O226 O 0.74590 -0.03516 0.20523
 O227 O 0.74606 0.03298 0.20492
 O228 O 0.79409 -0.03498 0.25283
 Cu229 Cu 0.72526 -0.00082 0.27388
 Cu230 Cu 0.77413 -0.00102 0.22479
 C231 C 0.78175 -0.04654 0.28121
 C232 C 0.71775 0.04472 0.21738
 C233 C 0.71757 -0.04677 0.21777
 C234 C 0.78175 0.04490 0.28101
 O235 O 0.75389 0.46565 0.79457
 O236 O 0.70597 0.53391 0.74696
 O237 O 0.70608 0.46577 0.74659
 O238 O 0.75401 0.53380 0.79469
 O239 O 0.79482 0.53392 0.75399
 O240 O 0.74689 0.46593 0.70589
 O241 O 0.74677 0.53407 0.70626
 O242 O 0.79469 0.46576 0.75387
 Cu243 Cu 0.72587 0.49976 0.77481
 Cu244 Cu 0.77491 0.49993 0.72590
 C245 C 0.78224 0.45400 0.78214
 C246 C 0.71841 0.54569 0.71871
 C247 C 0.71852 0.45421 0.71823
 C248 C 0.78238 0.54552 0.78232
 O249 O 0.20535 0.53423 0.24646
 O250 O 0.25322 0.46629 0.29456
 O251 O 0.25336 0.53443 0.29423
 O252 O 0.20533 0.46609 0.24669
 O253 O 0.24611 0.46591 0.20597
 O254 O 0.29414 0.53423 0.25350
 O255 O 0.29401 0.46609 0.25383
 O256 O 0.24613 0.53404 0.20573
 Cu257 Cu 0.22520 0.50029 0.27460
 Cu258 Cu 0.27421 0.50005 0.22565
 C259 C 0.21778 0.54578 0.21811
 C260 C 0.28156 0.45454 0.28218
 C261 C 0.28173 0.54604 0.28176
 C262 C 0.21775 0.45429 0.21843
 O263 O 0.74597 1.03576 0.79424
 O264 O 0.79415 0.96754 0.74677
 O265 O 0.79385 1.03566 0.74635
 O266 O 0.74636 0.96761 0.79472
 O267 O 0.70548 0.96712 0.75406
 O268 O 0.75297 1.03518 0.70569
 O269 O 0.75327 0.96706 0.70611
 O270 O 0.70510 1.03527 0.75358
 Cu271 Cu 0.77420 1.00170 0.77462
 Cu272 Cu 0.72508 1.00111 0.72576
 C273 C 0.71753 1.04720 0.78179
 C274 C 0.78172 0.95562 0.71854
 C275 C 0.78132 1.04707 0.71797
 C276 C 0.71803 0.95569 0.78242
 O277 O 0.74732 0.53429 0.29377
 O278 O 0.79533 0.46633 0.24581
 O279 O 0.79531 0.53451 0.24602
 O280 O 0.74717 0.46617 0.29340
 O281 O 0.70649 0.46635 0.25255
 O282 O 0.75463 0.53466 0.20517
 O283 O 0.75464 0.46649 0.20496
 O284 O 0.70663 0.53447 0.25292
 Cu285 Cu 0.77540 0.50031 0.27386
 Cu286 Cu 0.72650 0.50051 0.22477
 C287 C 0.71899 0.54602 0.28133
 C288 C 0.78295 0.45474 0.21744
 C289 C 0.78295 0.54630 0.21772
 C290 C 0.71882 0.45457 0.28085
 O291 O 0.20569 0.03227 0.74679
 O292 O 0.25381 -0.03588 0.79442
 O293 O 0.25361 0.03226 0.79464
 O294 O 0.20557 -0.03586 0.74684
 O295 O 0.24625 -0.03581 0.70601
 O296 O 0.29430 0.03236 0.75382
 O297 O 0.29449 -0.03578 0.75359
 O298 O 0.24637 0.03232 0.70597
 Cu299 Cu 0.22556 -0.00182 0.77479
 Cu300 Cu 0.27446 -0.00173 0.72573
 C301 C 0.21804 0.04397 0.71845
 C302 C 0.28216 -0.04749 0.78193
 C303 C 0.28192 0.04399 0.78218
 C304 C 0.21791 -0.04750 0.71848
 O305 O 0.29454 0.24575 1.03449
 O306 O 0.24664 0.29355 0.96643
 O307 O 0.24651 0.29354 1.03441
 O308 O 0.29446 0.24552 0.96648
 O309 O 0.25365 0.20469 0.96651
 O310 O 0.20571 0.25271 1.03440
 O311 O 0.20583 0.25273 0.96642
 O312 O 0.25373 0.20492 1.03452
 Cu313 Cu 0.27466 0.27370 1.00044
 Cu314 Cu 0.22562 0.22464 1.00046
 C315 C 0.28208 0.21741 1.04619
 C316 C 0.21827 0.28110 0.95477
 C317 C 0.21814 0.28110 1.04604
 C318 C 0.28202 0.21712 0.95486
 O319 O 0.24576 0.79517 0.46597
 O320 O 0.29380 0.74720 0.53385
 O321 O 0.29387 0.74744 0.46586
 O322 O 0.24576 0.79497 0.53399
 O323 O 0.20508 0.75402 0.53382
 O324 O 0.25320 0.70648 0.46569
 O325 O 0.25312 0.70624 0.53367
 O326 O 0.20508 0.75422 0.46580
 Cu327 Cu 0.27390 0.77533 0.49993
 Cu328 Cu 0.22501 0.72611 0.49972
 C329 C 0.21744 0.78266 0.45425
 C330 C 0.28144 0.71875 0.54539
 C331 C 0.28154 0.71905 0.45411
 C332 C 0.21745 0.78238 0.54560
 O333 O 0.29494 0.75374 -0.03391
 O334 O 0.24674 0.70609 0.03409
 O335 O 0.24722 0.70560 -0.03389
 O336 O 0.29464 0.75410 0.03409
 O337 O 0.25375 0.79480 0.03366
 O338 O 0.20632 0.74629 -0.03435
 O339 O 0.20585 0.74678 0.03363
 O340 O 0.25404 0.79443 -0.03434
 Cu341 Cu 0.27501 0.72578 0.00015
 Cu342 Cu 0.22586 0.77468 -0.00039
 C343 C 0.28247 0.78200 -0.04579
 C344 C 0.21828 0.71851 0.04550
 C345 C 0.21889 0.71789 -0.04578
 C346 C 0.28208 0.78251 0.04552
 O347 O 0.29381 0.25298 0.46625
 O348 O 0.24602 0.20467 0.53402
 O349 O 0.24584 0.20509 0.46600
 O350 O 0.29377 0.25280 0.53423
 O351 O 0.25292 0.29354 0.53442
 O352 O 0.20499 0.24583 0.46623
 O353 O 0.20516 0.24540 0.53425
 O354 O 0.25297 0.29373 0.46644
 Cu355 Cu 0.27397 0.22477 0.50011
 Cu356 Cu 0.22488 0.27373 0.50036
 C357 C 0.28134 0.28138 0.45473
 C358 C 0.21766 0.21701 0.54576
 C359 C 0.21746 0.21755 0.45441
 C360 C 0.28131 0.28111 0.54600
 O361 O 0.70582 0.75350 1.03450
 O362 O 0.75400 0.70591 0.96647
 O363 O 0.75380 0.70564 1.03447
 O364 O 0.70608 0.75385 0.96652
 O365 O 0.74688 0.79469 0.96685
 O366 O 0.79459 0.74648 1.03479
 O367 O 0.79480 0.74675 0.96679
 O368 O 0.74661 0.79434 1.03484
 Cu369 Cu 0.72582 0.72560 1.00045
 Cu370 Cu 0.77484 0.77468 1.00085
 C371 C 0.71821 0.78183 1.04633
 C372 C 0.78240 0.71842 0.95497
 C373 C 0.78212 0.71806 1.04628
 C374 C 0.71854 0.78228 0.95506
 O375 O 0.74651 0.29408 0.46523
 O376 O 0.79407 0.24597 0.53335
 O377 O 0.79438 0.24610 0.46536
 O378 O 0.74642 0.29413 0.53323
 O379 O 0.70549 0.25344 0.53308
 O380 O 0.75345 0.20540 0.46517
 O381 O 0.75313 0.20528 0.53317
 O382 O 0.70558 0.25338 0.46508
 Cu383 Cu 0.77448 0.27418 0.49930
 Cu384 Cu 0.72528 0.22527 0.49910
 C385 C 0.71814 0.28172 0.45348
 C386 C 0.78149 0.21764 0.54495
 C387 C 0.78189 0.21777 0.45363
 C388 C 0.71800 0.28176 0.54481
 O389 O 0.79390 0.25388 -0.03473
 O390 O 0.74621 0.20555 0.03316
 O391 O 0.74610 0.20581 -0.03483
 O392 O 0.79430 0.25337 0.03326
 O393 O 0.75353 0.29418 0.03364
 O394 O 0.70531 0.24661 -0.03450
 O395 O 0.70543 0.24636 0.03349
 O396 O 0.75312 0.29468 -0.03435
 Cu397 Cu 0.77424 0.22553 -0.00082
 Cu398 Cu 0.72523 0.27458 -0.00038
 C399 C 0.78142 0.28231 -0.04617
 C400 C 0.71788 0.21793 0.04495
 C401 C 0.71771 0.21830 -0.04634
 C402 C 0.78194 0.28168 0.04510
 O403 O 0.70610 0.74661 0.46645
 O404 O 0.75396 0.79480 0.53435
 O405 O 0.75418 0.79438 0.46635
 O406 O 0.70601 0.74685 0.53445
 O407 O 0.74674 0.70599 0.53470
 O408 O 0.79490 0.75351 0.46664
 O409 O 0.79469 0.75393 0.53464
 O410 O 0.74683 0.70574 0.46670
 Cu411 Cu 0.72596 0.77478 0.50038
 Cu412 Cu 0.77490 0.72567 0.50071
 C413 C 0.71852 0.71819 0.45492
 C414 C 0.78227 0.78238 0.54613
 C415 C 0.78253 0.78182 0.45481
 C416 C 0.71838 0.71852 0.54624
 O417 O 0.96709 0.25295 0.20529
 O418 O 1.03517 0.20509 0.25327
 O419 O 0.96702 0.20509 0.25318
 O420 O 1.03522 0.25303 0.20543
 O421 O 1.03516 0.29387 0.24614
 O422 O 0.96697 0.24593 0.29388
 O423 O 1.03512 0.24593 0.29398
 O424 O 0.96703 0.29379 0.24600
 Cu425 Cu 1.00114 0.22492 0.22519
 Cu426 Cu 1.00107 0.27400 0.27411
 C427 C 0.95539 0.28132 0.21767
 C428 C 1.04681 0.21756 0.28159
 C429 C 0.95530 0.21755 0.28145
 C430 C 1.04686 0.28142 0.21785
 O431 O 0.53428 0.29355 0.74648
 O432 O 0.46644 0.24548 0.79455
 O433 O 0.53458 0.24561 0.79428
 O434 O 0.46617 0.29348 0.74680
 O435 O 0.46603 0.25269 0.70603
 O436 O 0.53445 0.20482 0.75352
 O437 O 0.46631 0.20469 0.75379
 O438 O 0.53414 0.25277 0.70571
 Cu439 Cu 0.50038 0.27364 0.77465
 Cu440 Cu 0.50021 0.22462 0.72565
 C441 C 0.54583 0.28115 0.71810
 C442 C 0.45475 0.21710 0.78215
 C443 C 0.54624 0.21727 0.78179
 C444 C 0.45439 0.28104 0.71852
 O445 O -0.03418 0.29424 0.75320
 O446 O 0.03382 0.24574 0.70583
 O447 O -0.03430 0.24605 0.70561
 O448 O 0.03393 0.29384 0.75353
 O449 O 0.03356 0.25319 0.79440
 O450 O -0.03464 0.20540 0.74649
 O451 O 0.03347 0.20510 0.74669
 O452 O -0.03455 0.25360 0.79408
 Cu453 Cu -0.00014 0.27407 0.72542
 Cu454 Cu -0.00058 0.22522 0.77454
 C455 C -0.04601 0.28198 0.78151
 C456 C 0.04529 0.21737 0.71838
 C457 C -0.04616 0.21778 0.71809
 C458 C 0.04542 0.28146 0.78194
 O459 O 0.53373 0.25312 0.29354
 O460 O 0.46527 0.20494 0.24631
 O461 O 0.53341 0.20506 0.24581
 O462 O 0.46562 0.25297 0.29408
 O463 O 0.46525 0.29370 0.25329
 O464 O 0.53305 0.24578 0.20502
 O465 O 0.46491 0.24566 0.20552
 O466 O 0.53337 0.29385 0.25275
 Cu467 Cu 0.49954 0.22491 0.27405
 Cu468 Cu 0.49910 0.27385 0.22503
 C469 C 0.54528 0.28149 0.28099
 C470 C 0.45336 0.21730 0.21807
 C471 C 0.54486 0.21747 0.21741
 C472 C 0.45382 0.28130 0.28172
 O473 O 1.03478 0.70598 0.75323
 O474 O 0.96671 0.75440 0.70587
 O475 O 1.03485 0.75418 0.70568
 O476 O 0.96667 0.70632 0.75354
 O477 O 0.96701 0.74697 0.79443
 O478 O 1.03517 0.79483 0.74658
 O479 O 0.96703 0.79505 0.74677
 O480 O 1.03512 0.74662 0.79414
 Cu481 Cu 1.00072 0.72613 0.72545
 Cu482 Cu 1.00112 0.77497 0.77460
 C483 C 1.04661 0.71825 0.78156
 C484 C 0.95519 0.78276 0.71845
 C485 C 1.04670 0.78246 0.71819
 C486 C 0.95517 0.71869 0.78195
 O487 O 0.53454 0.70662 0.25338
 O488 O 0.46659 0.75473 0.20550
 O489 O 0.53474 0.75455 0.20555
 O490 O 0.46643 0.70677 0.25328
 O491 O 0.46652 0.74757 0.29403
 O492 O 0.53484 0.79535 0.24629
 O493 O 0.46669 0.79553 0.24625
 O494 O 0.53463 0.74742 0.29412
 Cu495 Cu 0.50057 0.72655 0.22531
 Cu496 Cu 0.50068 0.77559 0.27428
 C497 C 0.54622 0.71902 0.28171
 C498 C 0.45498 0.78311 0.21793
 C499 C 0.54650 0.78288 0.21800
 C500 C 0.45478 0.71922 0.28159
 O501 O -0.03537 0.79409 0.25356
 O502 O 0.03277 0.74650 0.20544
 O503 O -0.03536 0.74611 0.20573
 O504 O 0.03275 0.79440 0.25333
 O505 O 0.03308 0.75360 0.29403
 O506 O -0.03502 0.70530 0.24643
 O507 O 0.03312 0.70569 0.24615
 O508 O -0.03504 0.75328 0.29427
 Cu509 Cu -0.00134 0.77439 0.22540
 Cu510 Cu -0.00093 0.72535 0.27432
 C511 C -0.04687 0.78161 0.28191
 C512 C 0.04463 0.71820 0.21781
 C513 C -0.04686 0.71768 0.21817
 C514 C 0.04458 0.78202 0.28159
 O515 O 0.53392 0.74735 0.70653
 O516 O 0.46561 0.79530 0.75407
 O517 O 0.53376 0.79529 0.75438
 O518 O 0.46581 0.74741 0.70617
 O519 O 0.46560 0.70658 0.74685
 O520 O 0.53355 0.75446 0.79506
 O521 O 0.46540 0.75447 0.79475
 O522 O 0.53370 0.70652 0.74721
 Cu523 Cu 0.49980 0.77546 0.72619
 Cu524 Cu 0.49954 0.72640 0.77508
 C525 C 0.54550 0.71896 0.71896
 C526 C 0.45379 0.78284 0.78230
 C527 C 0.54531 0.78282 0.78272
 C528 C 0.45407 0.71904 0.71849
 C529 C 0.40258 0.31367 0.31429
 C530 C 0.42636 0.29918 0.29973
 C531 C 0.40206 0.81503 0.81433
 C532 C 0.42607 0.80066 0.79999
 C533 C -0.09741 0.31467 0.81352
 C534 C -0.07356 0.30006 0.79918
 C535 C -0.09827 0.81385 0.31438
 C536 C -0.07443 0.79939 0.29987
 C537 C 0.59754 0.68650 0.31404
 C538 C 0.57373 0.70106 0.29958
 C539 C 0.59797 0.18509 0.81383
 C540 C 0.57397 0.19946 0.79948
 C541 C 1.09799 0.68556 0.81361
 C542 C 1.07416 0.70017 0.79925
 C543 C 1.09828 0.18524 0.31394
 C544 C 1.07440 0.19971 0.29947
 C545 C 0.59711 0.31362 0.68566
 C546 C 0.57331 0.29909 0.70017
 C547 C 0.59819 0.81502 0.18584
 C548 C 0.57421 0.80065 0.20023
 C549 C 1.09833 0.31384 0.18563
 C550 C 1.07446 0.29932 0.20004
 C551 C 1.09827 0.81473 0.68596
 C552 C 1.07434 0.80029 0.70037
 C553 C 0.40274 0.68668 0.68595
 C554 C 0.42656 0.70117 0.70050
 C555 C 0.40161 0.18489 0.18619
 C556 C 0.42562 0.19937 0.20048
 C557 C -0.09835 0.68512 0.18604
 C558 C -0.07446 0.69968 0.20043
 C559 C -0.09772 0.18553 0.68582
 C560 C -0.07380 0.19997 0.70025
 C561 C 0.31377 0.40307 0.31455
 C562 C 0.29937 0.42697 0.30009
 C563 C 0.31479 -0.09884 0.81411
 C564 C 0.30017 -0.07503 0.79970
 C565 C 0.81446 0.40237 0.81429
 C566 C 0.80006 0.42632 0.79989
 C567 C 0.81424 -0.09784 0.31357
 C568 C 0.79970 -0.07404 0.29909
 C569 C 0.31381 0.59733 0.68579
 C570 C 0.29941 0.57344 0.70029
 C571 C 0.31450 1.09849 0.18653
 C572 C 0.29989 1.07465 0.20092
 C573 C 0.81524 0.59805 0.18578
 C574 C 0.80083 0.57403 0.20009
 C575 C 0.81356 1.09839 0.68533
 C576 C 0.79909 1.07459 0.69991
 C577 C 0.68659 0.59732 0.31381
 C578 C 0.70108 0.57352 0.29926
 C579 C 0.68500 1.09873 0.81383
 C580 C 0.69955 1.07483 0.79949
 C581 C 0.18603 0.59775 0.81451
 C582 C 0.20039 0.57377 0.80010
 C583 C 0.18497 1.09854 0.31402
 C584 C 0.19950 1.07466 0.29963
 C585 C 0.68618 0.40284 0.68572
 C586 C 0.70065 0.42667 0.70027
 C587 C 0.68509 -0.09840 0.18579
 C588 C 0.69961 -0.07444 0.20010
 C589 C 0.18547 0.40260 0.18635
 C590 C 0.19988 0.42659 0.20071
 C591 C 0.18533 -0.09886 0.68617
 C592 C 0.19993 -0.07504 0.70063
 C593 C 0.31363 0.31385 0.40341
 C594 C 0.29917 0.29935 0.42723
 C595 C 0.31474 0.81409 -0.09735
 C596 C 0.30035 0.79972 -0.07342
 C597 C 0.81354 0.31485 -0.09754
 C598 C 0.79916 0.30031 -0.07370
 C599 C 0.81481 0.81369 0.40313
 C600 C 0.80041 0.79944 0.42712
 C601 C 0.68583 0.31403 0.59633
 C602 C 0.70020 0.29961 0.57241
 C603 C 0.68576 0.81399 1.09774
 C604 C 0.70025 0.79958 1.07389
 C605 C 0.18577 0.31338 1.09744
 C606 C 0.20027 0.29896 1.07359
 C607 C 0.18528 0.81430 0.59733
 C608 C 0.19962 0.80002 0.57331
 C609 C 0.31377 0.68643 0.59678
 C610 C 0.29932 0.70088 0.57293
 C611 C 0.31427 0.18537 1.09783
 C612 C 0.29989 0.19968 1.07386
 C613 C 0.81429 0.68566 1.09773
 C614 C 0.79988 0.70013 1.07386
 C615 C 0.81342 0.18532 0.59658
 C616 C 0.79915 0.19975 0.57261
 C617 C 0.68634 0.68592 0.40336
 C618 C 0.70074 0.70032 0.42730
 C619 C 0.68538 0.18615 -0.09789
 C620 C 0.69980 0.20057 -0.07397
 C621 C 0.18691 0.68529 -0.09725
 C622 C 0.20124 0.69984 -0.07337
 C623 C 0.18528 0.18557 0.40267
 C624 C 0.19965 0.19986 0.42669
 C625 C 0.31381 0.40268 0.68637
 C626 C 0.29942 0.42665 0.70076
 C627 C 0.31400 0.90424 0.18601
 C628 C 0.29949 0.92808 0.20048
 C629 C 0.81517 0.40315 0.18524
 C630 C 0.80078 0.42710 0.19963
 C631 C 0.81424 0.90413 0.68645
 C632 C 0.79970 0.92801 0.70083
 C633 C 0.68606 0.59729 0.68665
 C634 C 0.70053 0.57335 0.70099
 C635 C 0.68543 0.09615 0.18505
 C636 C 0.69988 0.07228 0.19952
 C637 C 0.18548 0.59718 0.18570
 C638 C 0.19994 0.57332 0.20019
 C639 C 0.18568 0.09547 0.68624
 C640 C 0.20014 0.07158 0.70067
 C641 C 0.31410 0.59768 0.31382
 C642 C 0.29963 0.57372 0.29947
 C643 C 0.31425 0.09551 0.81449
 C644 C 0.29980 0.07160 0.80003
 C645 C 0.81470 0.59706 0.81460
 C646 C 0.80023 0.57314 0.80018
 C647 C 0.81425 0.09638 0.31320
 C648 C 0.79972 0.07251 0.29876
 C649 C 0.68631 0.40302 0.31286
 C650 C 0.70085 0.42692 0.29852
 C651 C 0.68601 0.90418 0.81496
 C652 C 0.70035 0.92808 0.80043
 C653 C 0.18593 0.40298 0.81481
 C654 C 0.20033 0.42692 0.80039
 C655 C 0.18500 0.90400 0.31382
 C656 C 0.19948 0.92792 0.29946
 C657 C 0.40279 0.31338 0.68644
 C658 C 0.42672 0.29891 0.70080
 C659 C 0.40344 0.81542 0.18575
 C660 C 0.42737 0.80099 0.20014
 C661 C 0.90393 0.31364 0.18533
 C662 C 0.92780 0.29917 0.19979
 C663 C 0.90364 0.81524 0.68645
 C664 C 0.92757 0.80075 0.70079
 C665 C 0.59695 0.31395 0.31292
 C666 C 0.57299 0.29945 0.29861
 C667 C 0.59683 0.81506 0.81509
 C668 C 0.57291 0.80063 0.80063
 C669 C 0.09689 0.31371 0.81436
 C670 C 0.07302 0.29928 0.79984
 C671 C 0.09603 0.81459 0.31376
 C672 C 0.07216 0.80003 0.29935
 C673 C 0.59702 0.68656 0.68682
 C674 C 0.57313 0.70105 0.70122
 C675 C 0.59628 0.18522 0.18498
 C676 C 0.57241 0.19965 0.19946
 C677 C 0.09623 0.68614 0.18546
 C678 C 0.07229 0.70049 0.19991
 C679 C 0.09665 0.18471 0.68629
 C680 C 0.07282 0.19929 0.70068
 C681 C 0.40319 0.68696 0.31378
 C682 C 0.42712 0.70140 0.29938
 C683 C 0.40336 0.18471 0.81451
 C684 C 0.42722 0.19920 0.80005
 C685 C 0.90372 0.68638 0.81432
 C686 C 0.92758 0.70083 0.79982
 C687 C 0.90366 0.18532 0.31357
 C688 C 0.92763 0.19973 0.29921
 C689 C 0.31362 0.31338 0.59748
 C690 C 0.29917 0.29893 0.57361
 C691 C 0.31417 0.81514 0.09692
 C692 C 0.29979 0.80057 0.07307
 C693 C 0.81458 0.31380 0.09647
 C694 C 0.79997 0.29942 0.07265
 C695 C 0.81450 0.81491 0.59750
 C696 C 0.80009 0.80035 0.57366
 C697 C 0.31400 0.68693 0.40269
 C698 C 0.29949 0.70132 0.42654
 C699 C 0.31429 0.18471 0.90349
 C700 C 0.29986 0.19921 0.92732
 C701 C 0.81481 0.68628 0.90351
 C702 C 0.80033 0.70068 0.92738
 C703 C 0.81427 0.18544 0.40228
 C704 C 0.79978 0.19990 0.42611
 C705 C 0.68603 0.31405 0.40196
 C706 C 0.70041 0.29961 0.42587
 C707 C 0.68627 0.81484 0.90377
 C708 C 0.70073 0.80028 0.92756
 C709 C 0.18596 0.31349 0.90342
 C710 C 0.20041 0.29898 0.92724
 C711 C 0.18509 0.81493 0.40283
 C712 C 0.19956 0.80050 0.42670
 C713 C 0.68598 0.68641 0.59771
 C714 C 0.70045 0.70079 0.57383
 C715 C 0.68558 0.18539 0.09621
 C716 C 0.70005 0.19993 0.07243
 C717 C 0.18569 0.68632 0.09680
 C718 C 0.20027 0.70074 0.07300
 C719 C 0.18553 0.18451 0.59716
 C720 C 0.19990 0.19903 0.57330
   
