data_POSCAR
  _audit_creation_date              2014-09-24
  _audit_creation_method            'ToBaCCo'
  _symmetry_space_group_name_H-M    'P1'
  _symmetry_Int_Tables_number       1
  _symmetry_cell_setting            triclinic
  loop_
  _symmetry_equiv_pos_as_xyz
 x,y,z
_cell_length_a 27.9469
_cell_length_b 28.0379
_cell_length_c 28.0835
_cell_angle_alpha 94.328700
_cell_angle_beta 92.184900
_cell_angle_gamma 67.711200
loop_
  _atom_site_label
  _atom_site_type_symbol
  _atom_site_fract_x
  _atom_site_fract_y
  _atom_site_fract_z
C1 C 0.53678 0.51788 0.01900
 C2 C 0.49677 0.55711 -0.00522
 C3 C 0.45063 0.54917 -0.01705
 C4 C 0.44194 0.50496 -0.00574
 C5 C 0.48190 0.46638 0.01852
 C6 C 0.52771 0.47402 0.03082
 H7 H 0.55889 0.44244 0.04626
 H8 H 0.41844 0.58070 -0.03124
 C9 C -0.00936 0.45116 0.50702
 C10 C 0.00442 0.48116 0.54353
 C11 C 0.01320 0.52489 0.53181
 C12 C 0.00820 0.54081 0.48479
 C13 C -0.00583 0.51037 0.44822
 C14 C -0.01472 0.46670 0.46019
 H15 H -0.02705 0.44470 0.43238
 H16 H 0.02667 0.54540 0.56008
 C17 C 0.49288 -0.00128 0.45356
 C18 C 0.45850 -0.00275 0.48856
 C19 C 0.47350 -0.00243 0.53685
 C20 C 0.52149 -0.00037 0.55233
 C21 C 0.55629 0.00134 0.51683
 C22 C 0.54060 0.00097 0.46834
 H23 H 0.56762 -0.00143 0.44073
 H24 H 0.44516 -0.00002 0.56316
 O25 O 0.46111 0.00159 -0.06369
 O26 O 0.45612 0.02534 0.06731
 O27 O 0.44441 0.08316 -0.00580
 O28 O 0.47235 -0.05459 0.00735
 O29 O 0.55603 -0.07020 0.01129
 O30 O 0.52811 0.06765 -0.00247
 O31 O 0.53940 0.01169 0.06904
 O32 O 0.54451 -0.01263 -0.06207
 Cu33 Cu 0.45003 0.01574 0.00128
 Cu34 Cu 0.55049 -0.00271 0.00402
 C35 C 0.50356 -0.00962 -0.08516
 C36 C 0.49698 0.02254 0.09042
 C37 C 0.48153 0.09871 -0.00658
 C38 C 0.51885 -0.08579 0.01160
 O39 O -0.08537 0.55231 0.99953
 O40 O 0.05315 0.52862 1.00672
 O41 O -0.01711 0.54894 0.93951
 O42 O -0.01554 0.53099 1.06790
 O43 O 0.00425 0.44743 1.05177
 O44 O 0.00333 0.46526 0.92362
 O45 O 0.07266 0.44471 0.99247
 O46 O -0.06608 0.46853 0.98452
 Cu47 Cu -0.01806 0.54865 1.00516
 Cu48 Cu 0.00532 0.44806 0.98629
 C49 C -0.09913 0.51440 0.99019
 C50 C 0.08630 0.48277 1.00155
 C51 C -0.00787 0.51030 0.90963
 C52 C -0.00444 0.48588 1.08175
 O53 O 0.02015 -0.08521 0.47018
 O54 O 0.00618 0.04732 0.44948
 O55 O 0.08328 -0.03618 0.46334
 O56 O -0.05804 0.00050 0.45605
 O57 O -0.06371 0.01837 0.53411
 O58 O 0.07760 -0.01753 0.54132
 O59 O -0.00099 0.06779 0.52709
 O60 O 0.01404 -0.06503 0.54781
 Cu61 Cu 0.01336 -0.02060 0.45196
 Cu62 Cu 0.00623 0.00305 0.54538
 C63 C 0.01834 -0.09743 0.51254
 C64 C 0.00147 0.07978 0.48477
 C65 C 0.10426 -0.03199 0.50349
 C66 C -0.08475 0.01471 0.49386
 C67 C -0.38709 0.53299 0.99283
 C68 C -0.33575 0.52887 1.00010
 C69 C -0.30861 0.50734 1.04174
 C70 C -0.33378 0.49222 1.07622
 C71 C -0.38504 0.49726 1.06920
 C72 C -0.41255 0.51724 1.02727
 C73 C -0.25654 0.50057 1.04802
 C74 C -0.23134 0.51570 1.01345
 C75 C -0.25895 0.53917 0.97262
 C76 C -0.31088 0.54521 0.96601
 C77 C -0.23394 0.55583 0.93891
 C78 C -0.18189 0.54862 0.94530
 C79 C -0.15412 0.52386 0.98490
 C80 C -0.17881 0.50755 1.01897
 H81 H -0.40634 0.54654 0.95943
 H82 H -0.31375 0.47625 1.10863
 H83 H -0.40341 0.48592 1.09716
 H84 H -0.23555 0.48322 1.07962
 H85 H -0.33181 0.56238 0.93433
 H86 H -0.25453 0.57421 0.90761
 H87 H -0.16293 0.56139 0.91887
 H88 H -0.15715 0.48884 1.04975
 C89 C 0.36799 0.48225 1.01414
 C90 C 0.31836 0.48264 1.00361
 C91 C 0.29171 0.50579 0.96240
 C92 C 0.31606 0.52571 0.93118
 C93 C 0.36594 0.52383 0.94111
 C94 C 0.39273 0.50273 0.98303
 C95 C 0.24086 0.50939 0.95336
 C96 C 0.21658 0.48925 0.98461
 C97 C 0.24411 0.46361 1.02456
 C98 C 0.29465 0.46097 1.03410
 C99 C 0.22028 0.44166 1.05463
 C100 C 0.16921 0.44629 1.04588
 C101 C 0.14117 0.47373 1.00762
 C102 C 0.16494 0.49485 0.97685
 H103 H 0.38597 0.46816 1.04780
 H104 H 0.29650 0.54284 0.89901
 H105 H 0.38379 0.53848 0.91525
 H106 H 0.22005 0.52826 0.92229
 H107 H 0.31536 0.44236 1.06532
 H108 H 0.24088 0.42149 1.08514
 H109 H 0.15096 0.42996 1.06989
 H110 H 0.14310 0.51574 0.94712
 C111 C 0.00243 -0.37199 0.51148
 C112 C 0.01187 -0.32732 0.50548
 C113 C 0.03542 -0.32287 0.46338
 C114 C 0.05109 -0.36445 0.42886
 C115 C 0.04304 -0.40976 0.43583
 C116 C 0.01747 -0.41395 0.47678
 C117 C 0.04290 -0.27701 0.45671
 C118 C 0.02782 -0.23610 0.49214
 C119 C 0.00615 -0.24177 0.53505
 C120 C -0.00213 -0.28704 0.54121
 C121 C -0.00755 -0.20179 0.57103
 C122 C -0.00136 -0.15580 0.56418
 C123 C 0.01809 -0.14866 0.52101
 C124 C 0.03330 -0.18931 0.48525
 H125 H -0.01833 -0.37312 0.54294
 H126 H 0.07031 -0.36227 0.39678
 H127 H 0.05847 -0.44195 0.40967
 H128 H 0.06018 -0.27311 0.42403
 H129 H -0.01958 -0.29089 0.57383
 H130 H -0.02383 -0.20576 0.60422
 H131 H -0.01359 -0.12505 0.59218
 H132 H 0.04863 -0.18427 0.45193
 C133 C 0.00634 0.35885 0.48458
 C134 C -0.00142 0.31318 0.49013
 C135 C -0.03177 0.31047 0.52817
 C136 C -0.05558 0.35453 0.55886
 C137 C -0.04917 0.40067 0.55193
 C138 C -0.01729 0.40292 0.51530
 C139 C -0.03791 0.26391 0.53459
 C140 C -0.01516 0.22065 0.50261
 C141 C 0.01324 0.22448 0.46340
 C142 C 0.02049 0.27041 0.45781
 C143 C 0.03433 0.18215 0.43043
 C144 C 0.02844 0.13588 0.43669
 C145 C 0.00214 0.13079 0.47643
 C146 C -0.01997 0.17348 0.50921
 H147 H 0.03083 0.36019 0.45608
 H148 H -0.07963 0.35349 0.58781
 H149 H -0.06909 0.43457 0.57517
 H150 H -0.06042 0.26139 0.56424
 H151 H 0.04304 0.27294 0.42817
 H152 H 0.05587 0.18463 0.40006
 H153 H 0.04614 0.10338 0.41121
 H154 H -0.04058 0.16986 0.53980
 C155 C 0.51295 -0.02374 -0.36663
 C156 C 0.51773 -0.01765 -0.31689
 C157 C 0.54126 0.01577 -0.29670
 C158 C 0.55879 0.04325 -0.32689
 C159 C 0.55253 0.03812 -0.37652
 C160 C 0.53000 0.00410 -0.39741
 C161 C 0.54588 0.02187 -0.24673
 C162 C 0.52571 -0.00388 -0.21683
 C163 C 0.50120 -0.03649 -0.23739
 C164 C 0.49825 -0.04387 -0.28715
 C165 C 0.47894 -0.06040 -0.20786
 C166 C 0.48006 -0.05150 -0.15836
 C167 C 0.50479 -0.01985 -0.13743
 C168 C 0.52830 0.00337 -0.16674
 H169 H 0.49637 -0.05098 -0.38138
 H170 H 0.57625 0.06970 -0.31207
 H171 H 0.56397 0.06212 -0.39834
 H172 H 0.56409 0.04743 -0.23116
 H173 H 0.47963 -0.06908 -0.30274
 H174 H 0.45979 -0.08524 -0.22308
 H175 H 0.46178 -0.06962 -0.13624
 H176 H 0.54675 0.02847 -0.15061
 C177 C 0.49291 0.02885 0.37164
 C178 C 0.48747 0.02386 0.32184
 C179 C 0.46901 -0.01345 0.30096
 C180 C 0.45720 -0.04571 0.33040
 C181 C 0.46460 -0.04174 0.37991
 C182 C 0.48214 -0.00420 0.40112
 C183 C 0.46399 -0.01874 0.25102
 C184 C 0.47917 0.01140 0.22169
 C185 C 0.49881 0.04783 0.24277
 C186 C 0.50178 0.05456 0.29263
 C187 C 0.51645 0.07607 0.21358
 C188 C 0.51560 0.06770 0.16397
 C189 C 0.49556 0.03226 0.14268
 C190 C 0.47661 0.00470 0.17160
 H191 H 0.50661 0.05787 0.38752
 H192 H 0.44355 -0.07492 0.31504
 H193 H 0.45730 -0.06856 0.40158
 H194 H 0.44967 -0.04725 0.23499
 H195 H 0.51667 0.08266 0.30867
 H196 H 0.53190 0.10386 0.22915
 H197 H 0.53040 0.08911 0.14205
 H198 H 0.46188 -0.02330 0.15512
 C199 C 0.52154 -0.36774 0.01767
 C200 C 0.52022 -0.31851 0.00866
 C201 C 0.49369 -0.29420 -0.03214
 C202 C 0.47144 -0.32033 -0.06448
 C203 C 0.47421 -0.36966 -0.05614
 C204 C 0.49844 -0.39419 -0.01461
 C205 C 0.48921 -0.24388 -0.03984
 C206 C 0.51189 -0.21770 -0.00778
 C207 C 0.54095 -0.24281 0.03171
 C208 C 0.54441 -0.29287 0.04004
 C209 C 0.56548 -0.21703 0.06242
 C210 C 0.56010 -0.16645 0.05474
 C211 C 0.52917 -0.14061 0.01698
 C212 C 0.50550 -0.16653 -0.01439
 H213 H 0.53886 -0.38430 0.05073
 H214 H 0.45180 -0.30261 -0.09640
 H215 H 0.45769 -0.38891 -0.08295
 H216 H 0.46774 -0.22494 -0.07063
 H217 H 0.56567 -0.31171 0.07093
 H218 H 0.58834 -0.23575 0.09261
 H219 H 0.57850 -0.14680 0.07929
 H220 H 0.48203 -0.14671 -0.04389
 C221 C 0.46722 0.38487 -0.00883
 C222 C 0.46916 0.33535 -0.00038
 C223 C 0.48690 0.31488 0.04439
 C224 C 0.49990 0.34510 0.08063
 C225 C 0.49646 0.39474 0.07240
 C226 C 0.48086 0.41495 0.02753
 C227 C 0.49199 0.26434 0.05211
 C228 C 0.47852 0.23425 0.01600
 C229 C 0.45816 0.25556 -0.02793
 C230 C 0.45414 0.30579 -0.03604
 C231 C 0.44275 0.22593 -0.06319
 C232 C 0.44860 0.17530 -0.05542
 C233 C 0.47088 0.15333 -0.01278
 C234 C 0.48551 0.18295 0.02296
 H235 H 0.45567 0.39979 -0.04372
 H236 H 0.51301 0.33023 0.11530
 H237 H 0.50672 0.41731 0.10105
 H238 H 0.50673 0.24832 0.08610
 H239 H 0.43961 0.32172 -0.07010
 H240 H 0.42666 0.24171 -0.09690
 H241 H 0.43731 0.15265 -0.08330
 H242 H 0.50241 0.16592 0.05605
 C243 C -0.37085 0.02604 0.49942
 C244 C -0.31928 0.02130 0.50595
 C245 C -0.28839 -0.00987 0.54136
 C246 C -0.30945 -0.03670 0.56887
 C247 C -0.36041 -0.03319 0.56102
 C248 C -0.39237 -0.00122 0.52661
 C249 C -0.23671 -0.01461 0.54789
 C250 C -0.21511 0.01001 0.51822
 C251 C -0.24583 0.04016 0.48196
 C252 C -0.29795 0.04647 0.47673
 C253 C -0.22358 0.06251 0.45073
 C254 C -0.17111 0.05436 0.45477
 C255 C -0.14054 0.02530 0.49110
 C256 C -0.16286 0.00376 0.52319
 H257 H -0.39444 0.05169 0.47324
 H258 H -0.28605 -0.06154 0.59563
 H259 H -0.37407 -0.05696 0.58100
 H260 H -0.21300 -0.03840 0.57523
 H261 H -0.32152 0.06983 0.44907
 H262 H -0.24649 0.08538 0.42255
 H263 H -0.15435 0.07096 0.42966
 H264 H -0.13899 -0.01957 0.55071
 C265 C 0.38713 -0.03443 0.50028
 C266 C 0.33594 -0.03098 0.49347
 C267 C 0.30311 0.00375 0.46132
 C268 C 0.32178 0.03526 0.43743
 C269 C 0.37216 0.03315 0.44601
 C270 C 0.40559 -0.00204 0.47711
 C271 C 0.25179 0.00747 0.45463
 C272 C 0.23226 -0.02145 0.48128
 C273 C 0.26475 -0.05507 0.51449
 C274 C 0.31667 -0.06051 0.51954
 C275 C 0.24433 -0.08164 0.54305
 C276 C 0.19199 -0.07427 0.53940
 C277 C 0.15982 -0.04178 0.50594
 C278 C 0.18025 -0.01599 0.47647
 H279 H 0.41239 -0.06157 0.52453
 H280 H 0.29695 0.06262 0.41315
 H281 H 0.38471 0.05964 0.42885
 H282 H 0.22665 0.03395 0.42979
 H283 H 0.34163 -0.08650 0.54483
 H284 H 0.26856 -0.10720 0.56894
 H285 H 0.17659 -0.09410 0.56251
 H286 H 0.15505 0.00996 0.45129
 C287 C 0.01129 0.48352 1.36228
 C288 C 0.00246 0.49223 1.31384
 C289 C -0.03085 0.54131 1.29980
 C290 C -0.05583 0.58049 1.33491
 C291 C -0.04804 0.57088 1.38337
 C292 C -0.01388 0.52251 1.39733
 C293 C -0.03891 0.55004 1.25102
 C294 C -0.01502 0.50985 1.21638
 C295 C 0.01698 0.46041 1.23084
 C296 C 0.02600 0.45214 1.27938
 C297 C 0.03956 0.41984 1.19651
 C298 C 0.03118 0.42814 1.14812
 C299 C 0.00069 0.47732 1.13314
 C300 C -0.02251 0.51812 1.16748
 H301 H 0.03742 0.44601 1.37292
 H302 H -0.08190 0.61821 1.32488
 H303 H -0.06858 0.60108 1.40996
 H304 H -0.06398 0.58780 1.24007
 H305 H 0.05099 0.41433 1.29035
 H306 H 0.06393 0.38172 1.20708
 H307 H 0.04973 0.39624 1.12231
 H308 H -0.04635 0.55610 1.15617
 C309 C -0.01600 0.50910 0.62884
 C310 C -0.00924 0.50091 0.67749
 C311 C 0.02237 0.45165 0.69243
 C312 C 0.04754 0.41169 0.65806
 C313 C 0.04186 0.42075 0.60944
 C314 C 0.00967 0.46942 0.59452
 C315 C 0.02874 0.44354 0.74138
 C316 C 0.00488 0.48448 0.77534
 C317 C -0.02559 0.53400 0.76005
 C318 C -0.03297 0.54170 0.71129
 C319 C -0.04818 0.57522 0.79380
 C320 C -0.04116 0.56751 0.84241
 C321 C -0.01205 0.51832 0.85813
 C322 C 0.01104 0.47687 0.82437
 H323 H -0.04074 0.54682 0.61749
 H324 H 0.07232 0.37379 0.66881
 H325 H 0.06287 0.38996 0.58354
 H326 H 0.05260 0.40569 0.75300
 H327 H -0.05670 0.57960 0.69965
 H328 H -0.07142 0.61340 0.78261
 H329 H -0.05958 0.59993 0.86775
 H330 H 0.03383 0.43885 0.83624
   
