data_POSCAR
  _audit_creation_date              2014-09-24
  _audit_creation_method            'ToBaCCo'
  _symmetry_space_group_name_H-M    'P1'
  _symmetry_Int_Tables_number       1
  _symmetry_cell_setting            triclinic
  loop_
  _symmetry_equiv_pos_as_xyz
 x,y,z
_cell_length_a 35.6099
_cell_length_b 35.6099
_cell_length_c 35.6099
_cell_angle_alpha 90.004100
_cell_angle_beta 89.992100
_cell_angle_gamma 90.005300
loop_
  _atom_site_label
  _atom_site_type_symbol
  _atom_site_fract_x
  _atom_site_fract_y
  _atom_site_fract_z
Zn1 Zn 0.77976 0.72035 0.77969
 Zn2 Zn 0.77976 0.77976 0.72030
 Zn3 Zn 0.72036 0.72035 0.72029
 Zn4 Zn 0.72036 0.77974 0.77971
 O5 O 0.75006 0.75005 0.75000
 O6 O 0.82889 0.72805 0.77200
 O7 O 0.77207 0.77208 0.67117
 O8 O 0.72805 0.67122 0.72797
 O9 O 0.82889 0.77207 0.72799
 O10 O 0.77207 0.67122 0.77198
 O11 O 0.72805 0.72805 0.67117
 O12 O 0.67123 0.77205 0.77202
 O13 O 0.77207 0.82889 0.72801
 O14 O 0.67123 0.72804 0.72799
 O15 O 0.72805 0.82888 0.77203
 O16 O 0.72804 0.77204 0.82884
 O17 O 0.77206 0.72802 0.82882
 C18 C 0.84615 0.75006 0.74999
 C19 C 0.75006 0.75007 0.65391
 C20 C 0.75006 0.65396 0.74997
 C21 C 0.65396 0.75004 0.75001
 C22 C 0.75006 0.84614 0.75002
 C23 C 0.75005 0.75002 0.84609
 Zn24 Zn 0.22036 0.72034 0.72032
 Zn25 Zn 0.22036 0.77976 0.77971
 Zn26 Zn 0.27976 0.72036 0.77970
 Zn27 Zn 0.27976 0.77975 0.72029
 O28 O 0.25006 0.75005 0.75000
 O29 O 0.17123 0.72802 0.72802
 O30 O 0.22804 0.77207 0.82884
 O31 O 0.27208 0.67123 0.77202
 O32 O 0.17123 0.77206 0.77202
 O33 O 0.22805 0.67121 0.72801
 O34 O 0.27207 0.72806 0.82883
 O35 O 0.32889 0.77206 0.72797
 O36 O 0.22806 0.82889 0.77201
 O37 O 0.32889 0.72806 0.77200
 O38 O 0.27207 0.82888 0.72798
 O39 O 0.27205 0.77205 0.67116
 O40 O 0.22804 0.72802 0.67119
 C41 C 0.15396 0.75004 0.75002
 C42 C 0.25005 0.75006 0.84610
 C43 C 0.25007 0.65396 0.75002
 C44 C 0.34615 0.75006 0.74998
 C45 C 0.25006 0.84615 0.74999
 C46 C 0.25004 0.75003 0.65391
 Zn47 Zn 0.72035 0.22036 0.77971
 Zn48 Zn 0.77976 0.22035 0.72030
 Zn49 Zn 0.72035 0.27974 0.72030
 Zn50 Zn 0.77976 0.27977 0.77969
 O51 O 0.75006 0.25005 0.75000
 O52 O 0.72804 0.17123 0.77203
 O53 O 0.77207 0.22803 0.67117
 O54 O 0.67123 0.27204 0.72799
 O55 O 0.77206 0.17122 0.72800
 O56 O 0.67123 0.22804 0.77202
 O57 O 0.72805 0.27204 0.67117
 O58 O 0.77206 0.32889 0.77199
 O59 O 0.82889 0.22804 0.72799
 O60 O 0.72804 0.32887 0.72798
 O61 O 0.82889 0.27208 0.77200
 O62 O 0.77206 0.27209 0.82882
 O63 O 0.72805 0.22807 0.82884
 C64 C 0.75005 0.15396 0.75002
 C65 C 0.75006 0.25003 0.65391
 C66 C 0.65396 0.25004 0.75001
 C67 C 0.75005 0.34615 0.74998
 C68 C 0.84615 0.25006 0.74999
 C69 C 0.75005 0.25008 0.84609
 Zn70 Zn 0.27976 0.22036 0.72030
 Zn71 Zn 0.22035 0.22035 0.77969
 Zn72 Zn 0.27975 0.27975 0.77972
 Zn73 Zn 0.22036 0.27976 0.72031
 O74 O 0.25006 0.25006 0.75000
 O75 O 0.27207 0.17123 0.72798
 O76 O 0.22803 0.22803 0.82882
 O77 O 0.32888 0.27207 0.77202
 O78 O 0.22804 0.17122 0.77199
 O79 O 0.32889 0.22806 0.72799
 O80 O 0.27205 0.27205 0.82884
 O81 O 0.22807 0.32889 0.72801
 O82 O 0.17122 0.22804 0.77200
 O83 O 0.27207 0.32888 0.77203
 O84 O 0.17123 0.27207 0.72800
 O85 O 0.22806 0.27207 0.67118
 O86 O 0.27208 0.22806 0.67117
 C87 C 0.25005 0.15396 0.74998
 C88 C 0.25003 0.25004 0.84610
 C89 C 0.34615 0.25007 0.75000
 C90 C 0.25007 0.34615 0.75002
 C91 C 0.15396 0.25006 0.75000
 C92 C 0.25007 0.25007 0.65391
 Zn93 Zn 0.72023 0.72023 0.22030
 Zn94 Zn 0.77963 0.77965 0.22030
 Zn95 Zn 0.72024 0.77962 0.27972
 Zn96 Zn 0.77964 0.72023 0.27968
 O97 O 0.74993 0.74993 0.25000
 O98 O 0.72792 0.72793 0.17117
 O99 O 0.77193 0.82877 0.22800
 O100 O 0.67111 0.77193 0.27204
 O101 O 0.77193 0.77196 0.17117
 O102 O 0.67110 0.72793 0.22800
 O103 O 0.72792 0.82875 0.27204
 O104 O 0.77196 0.72791 0.32882
 O105 O 0.82876 0.77197 0.22798
 O106 O 0.72794 0.77192 0.32885
 O107 O 0.82877 0.72794 0.27198
 O108 O 0.77196 0.67110 0.27198
 O109 O 0.72792 0.67110 0.22798
 C110 C 0.74993 0.74994 0.15391
 C111 C 0.74992 0.84603 0.25003
 C112 C 0.65384 0.74993 0.25002
 C113 C 0.74996 0.74991 0.34609
 C114 C 0.84603 0.74996 0.24997
 C115 C 0.74994 0.65384 0.24998
 Zn116 Zn 0.27963 0.77964 0.22029
 Zn117 Zn 0.22022 0.72024 0.22031
 Zn118 Zn 0.27964 0.72024 0.27969
 Zn119 Zn 0.22024 0.77964 0.27972
 O120 O 0.24993 0.74994 0.25000
 O121 O 0.27194 0.77194 0.17117
 O122 O 0.22790 0.67111 0.22801
 O123 O 0.32876 0.72793 0.27199
 O124 O 0.22791 0.72792 0.17118
 O125 O 0.32876 0.77195 0.22798
 O126 O 0.27193 0.67111 0.27200
 O127 O 0.22794 0.77195 0.32885
 O128 O 0.17110 0.72795 0.22801
 O129 O 0.27195 0.72793 0.32882
 O130 O 0.17111 0.77196 0.27203
 O131 O 0.22794 0.82877 0.27202
 O132 O 0.27194 0.82877 0.22798
 C133 C 0.24992 0.74992 0.15391
 C134 C 0.24991 0.65385 0.25000
 C135 C 0.34603 0.74994 0.24998
 C136 C 0.24995 0.74994 0.34610
 C137 C 0.15384 0.74996 0.25002
 C138 C 0.24994 0.84603 0.25000
 Zn139 Zn 0.72023 0.27963 0.22031
 Zn140 Zn 0.77961 0.22022 0.22029
 Zn141 Zn 0.77965 0.27964 0.27968
 Zn142 Zn 0.72023 0.22024 0.27972
 O143 O 0.74993 0.24993 0.25000
 O144 O 0.72792 0.27194 0.17118
 O145 O 0.82875 0.22790 0.22797
 O146 O 0.77197 0.32876 0.27199
 O147 O 0.77192 0.22791 0.17116
 O148 O 0.72793 0.32876 0.22800
 O149 O 0.82878 0.27192 0.27198
 O150 O 0.72793 0.22795 0.32885
 O151 O 0.77191 0.17109 0.22799
 O152 O 0.77197 0.27196 0.32882
 O153 O 0.72792 0.17111 0.27204
 O154 O 0.67110 0.22793 0.27204
 O155 O 0.67110 0.27194 0.22801
 C156 C 0.74992 0.24993 0.15391
 C157 C 0.84603 0.24990 0.24996
 C158 C 0.74996 0.34603 0.24999
 C159 C 0.74995 0.24996 0.34609
 C160 C 0.74991 0.15384 0.25002
 C161 C 0.65384 0.24993 0.25002
 Zn162 Zn 0.22022 0.27964 0.22031
 Zn163 Zn 0.27963 0.22024 0.22029
 Zn164 Zn 0.27964 0.27964 0.27970
 Zn165 Zn 0.22023 0.22023 0.27971
 O166 O 0.24993 0.24994 0.25000
 O167 O 0.22792 0.27196 0.17118
 O168 O 0.32875 0.22793 0.22797
 O169 O 0.27195 0.32877 0.27201
 O170 O 0.27193 0.22794 0.17116
 O171 O 0.22791 0.32876 0.22802
 O172 O 0.32877 0.27194 0.27200
 O173 O 0.22793 0.22793 0.32884
 O174 O 0.27193 0.17111 0.22797
 O175 O 0.27195 0.27195 0.32883
 O176 O 0.22793 0.17110 0.27201
 O177 O 0.17110 0.22791 0.27202
 O178 O 0.17110 0.27193 0.22801
 C179 C 0.24993 0.24995 0.15391
 C180 C 0.34602 0.24993 0.24998
 C181 C 0.24993 0.34603 0.25002
 C182 C 0.24993 0.24995 0.34610
 C183 C 0.24992 0.15384 0.24999
 C184 C 0.15384 0.24991 0.25002
 C185 C -0.11357 0.75006 0.74998
 C186 C -0.07972 0.75006 0.74997
 C187 C -0.03930 0.75006 0.74998
 C188 C -0.01957 0.75090 0.71595
 C189 C 0.01971 0.75089 0.71596
 C190 C 0.03942 0.75005 0.75000
 C191 C 0.01969 0.74921 0.78404
 C192 C -0.01959 0.74922 0.78403
 C193 C 0.07983 0.75004 0.75000
 C194 C 0.11369 0.75004 0.75002
 H195 H -0.03453 0.75155 0.68946
 H196 H 0.03469 0.75154 0.68948
 H197 H 0.03465 0.74856 0.81052
 H198 H -0.03457 0.74857 0.81051
 C199 C 0.75005 -0.11358 0.75003
 C200 C 0.75005 -0.07972 0.75003
 C201 C 0.75005 -0.03931 0.75005
 C202 C 0.71633 -0.01959 0.75484
 C203 C 0.71633 0.01969 0.75484
 C204 C 0.75004 0.03941 0.75005
 C205 C 0.78375 0.01970 0.74526
 C206 C 0.78376 -0.01958 0.74526
 C207 C 0.75003 0.07983 0.75004
 C208 C 0.75004 0.11368 0.75002
 H209 H 0.69011 -0.03457 0.75857
 H210 H 0.69010 0.03465 0.75857
 H211 H 0.80998 0.03467 0.74153
 H212 H 0.80998 -0.03454 0.74152
 C213 C 0.75003 0.75001 -0.11363
 C214 C 0.75001 0.74999 -0.07977
 C215 C 0.75000 0.74997 -0.03936
 C216 C 0.75124 0.71594 -0.01965
 C217 C 0.75122 0.71593 0.01963
 C218 C 0.74997 0.74995 0.03936
 C219 C 0.74873 0.78398 0.01965
 C220 C 0.74875 0.78399 -0.01963
 C221 C 0.74995 0.74993 0.07977
 C222 C 0.74993 0.74994 0.11363
 H223 H 0.75221 0.68947 -0.03463
 H224 H 0.75218 0.68945 0.03459
 H225 H 0.74776 0.81045 0.03463
 H226 H 0.74778 0.81047 -0.03458
 C227 C 0.61369 0.75004 0.75001
 C228 C 0.57983 0.75003 0.75001
 C229 C 0.53942 0.75005 0.75000
 C230 C 0.51971 0.75101 0.71596
 C231 C 0.48043 0.75102 0.71595
 C232 C 0.46070 0.75006 0.74998
 C233 C 0.48040 0.74911 0.78402
 C234 C 0.51968 0.74910 0.78403
 C235 C 0.42028 0.75005 0.74997
 C236 C 0.38643 0.75006 0.74996
 H237 H 0.53469 0.75175 0.68949
 H238 H 0.46547 0.75176 0.68947
 H239 H 0.46543 0.74836 0.81050
 H240 H 0.53464 0.74835 0.81052
 C241 C 0.25006 -0.11357 0.74999
 C242 C 0.25008 -0.07972 0.74997
 C243 C 0.25008 -0.03931 0.74997
 C244 C 0.21636 -0.01959 0.75476
 C245 C 0.21636 0.01969 0.75476
 C246 C 0.25007 0.03941 0.74996
 C247 C 0.28378 0.01970 0.74517
 C248 C 0.28379 -0.01958 0.74518
 C249 C 0.25006 0.07983 0.74995
 C250 C 0.25004 0.11368 0.74996
 H251 H 0.19014 -0.03456 0.75849
 H252 H 0.19013 0.03465 0.75848
 H253 H 0.31000 0.03467 0.74144
 H254 H 0.31001 -0.03454 0.74145
 C255 C 0.25003 0.75004 -0.11362
 C256 C 0.25000 0.75001 -0.07977
 C257 C 0.24997 0.74999 -0.03936
 C258 C 0.25120 0.71596 -0.01966
 C259 C 0.25118 0.71594 0.01962
 C260 C 0.24993 0.74995 0.03936
 C261 C 0.24869 0.78399 0.01966
 C262 C 0.24871 0.78401 -0.01962
 C263 C 0.24991 0.74993 0.07978
 C264 C 0.24992 0.74992 0.11363
 H265 H 0.25217 0.68949 -0.03464
 H266 H 0.25213 0.68946 0.03458
 H267 H 0.24772 0.81045 0.03465
 H268 H 0.24775 0.81049 -0.03457
 C269 C -0.11357 0.25006 0.74998
 C270 C -0.07972 0.25007 0.75000
 C271 C -0.03930 0.25009 0.74999
 C272 C -0.01958 0.25093 0.71595
 C273 C 0.01970 0.25093 0.71595
 C274 C 0.03942 0.25009 0.74999
 C275 C 0.01969 0.24925 0.78403
 C276 C -0.01959 0.24925 0.78403
 C277 C 0.07983 0.25008 0.74998
 C278 C 0.11368 0.25006 0.74999
 H279 H -0.03455 0.25158 0.68947
 H280 H 0.03467 0.25158 0.68947
 H281 H 0.03466 0.24860 0.81051
 H282 H -0.03456 0.24859 0.81051
 C283 C 0.75006 0.61368 0.74996
 C284 C 0.75005 0.57983 0.74995
 C285 C 0.75006 0.53941 0.74995
 C286 C 0.75013 0.51969 0.78400
 C287 C 0.75013 0.48041 0.78400
 C288 C 0.75006 0.46069 0.74995
 C289 C 0.74999 0.48041 0.71590
 C290 C 0.74999 0.51969 0.71590
 C291 C 0.75005 0.42028 0.74995
 C292 C 0.75004 0.38642 0.74997
 H293 H 0.75018 0.53466 0.81049
 H294 H 0.75018 0.46545 0.81049
 H295 H 0.74994 0.46544 0.68941
 H296 H 0.74994 0.53465 0.68941
 C297 C 0.75004 0.25010 -0.11363
 C298 C 0.75004 0.25009 -0.07977
 C299 C 0.75004 0.25006 -0.03936
 C300 C 0.75127 0.21601 -0.01967
 C301 C 0.75124 0.21598 0.01961
 C302 C 0.74998 0.24999 0.03936
 C303 C 0.74875 0.28403 0.01967
 C304 C 0.74878 0.28407 -0.01961
 C305 C 0.74994 0.24995 0.07977
 C306 C 0.74992 0.24994 0.11363
 H307 H 0.75224 0.18956 -0.03466
 H308 H 0.75219 0.18950 0.03455
 H309 H 0.74778 0.31049 0.03466
 H310 H 0.74783 0.31055 -0.03455
 C311 C 0.61368 0.25003 0.75001
 C312 C 0.57983 0.25004 0.75000
 C313 C 0.53942 0.25008 0.75000
 C314 C 0.51970 0.25104 0.71596
 C315 C 0.48042 0.25105 0.71596
 C316 C 0.46070 0.25010 0.74999
 C317 C 0.48041 0.24914 0.78403
 C318 C 0.51969 0.24913 0.78403
 C319 C 0.42028 0.25008 0.74998
 C320 C 0.38643 0.25008 0.74999
 H321 H 0.53468 0.25178 0.68948
 H322 H 0.46546 0.25180 0.68948
 H323 H 0.46543 0.24840 0.81051
 H324 H 0.53465 0.24838 0.81051
 C325 C 0.25008 0.61368 0.75002
 C326 C 0.25008 0.57983 0.75004
 C327 C 0.25009 0.53941 0.75004
 C328 C 0.25016 0.51969 0.78409
 C329 C 0.25017 0.48041 0.78409
 C330 C 0.25010 0.46069 0.75004
 C331 C 0.25003 0.48041 0.71599
 C332 C 0.25002 0.51969 0.71599
 C333 C 0.25010 0.42028 0.75003
 C334 C 0.25009 0.38643 0.75002
 H335 H 0.25021 0.53466 0.81058
 H336 H 0.25022 0.46545 0.81058
 H337 H 0.24998 0.46544 0.68950
 H338 H 0.24997 0.53466 0.68950
 C339 C 0.25002 0.25002 -0.11362
 C340 C 0.25000 0.25000 -0.07977
 C341 C 0.24999 0.25000 -0.03936
 C342 C 0.25123 0.21596 -0.01965
 C343 C 0.25121 0.21595 0.01963
 C344 C 0.24996 0.24997 0.03936
 C345 C 0.24873 0.28401 0.01966
 C346 C 0.24874 0.28402 -0.01962
 C347 C 0.24994 0.24996 0.07978
 C348 C 0.24993 0.24996 0.11363
 H349 H 0.25220 0.18950 -0.03463
 H350 H 0.25217 0.18948 0.03459
 H351 H 0.24775 0.31047 0.03463
 H352 H 0.24778 0.31049 -0.03458
 C353 C -0.11369 0.74997 0.24997
 C354 C -0.07984 0.74997 0.24998
 C355 C -0.03943 0.74999 0.24999
 C356 C -0.01969 0.75084 0.21595
 C357 C 0.01959 0.75084 0.21596
 C358 C 0.03929 0.75000 0.25001
 C359 C 0.01956 0.74916 0.28404
 C360 C -0.01972 0.74915 0.28403
 C361 C 0.07971 0.74999 0.25001
 C362 C 0.11356 0.74998 0.25001
 H363 H -0.03465 0.75149 0.18947
 H364 H 0.03456 0.75150 0.18949
 H365 H 0.03452 0.74850 0.31053
 H366 H -0.03470 0.74849 0.31051
 C367 C 0.74991 -0.11369 0.25003
 C368 C 0.74989 -0.07984 0.25005
 C369 C 0.74989 -0.03943 0.25007
 C370 C 0.71618 -0.01971 0.25486
 C371 C 0.71618 0.01957 0.25486
 C372 C 0.74989 0.03929 0.25006
 C373 C 0.78360 0.01958 0.24527
 C374 C 0.78360 -0.01970 0.24528
 C375 C 0.74988 0.07971 0.25004
 C376 C 0.74989 0.11356 0.25002
 H377 H 0.68995 -0.03468 0.25859
 H378 H 0.68995 0.03453 0.25858
 H379 H 0.80982 0.03455 0.24154
 H380 H 0.80983 -0.03467 0.24155
 C381 C 0.75006 0.75007 0.61363
 C382 C 0.75005 0.75006 0.57977
 C383 C 0.75007 0.75002 0.53936
 C384 C 0.75136 0.71598 0.51967
 C385 C 0.75134 0.71595 0.48039
 C386 C 0.75003 0.74995 0.46064
 C387 C 0.74875 0.78400 0.48033
 C388 C 0.74877 0.78403 0.51961
 C389 C 0.75000 0.74992 0.42023
 C390 C 0.74998 0.74991 0.38637
 H391 H 0.75236 0.68952 0.53466
 H392 H 0.75234 0.68946 0.46544
 H393 H 0.74774 0.81045 0.46534
 H394 H 0.74777 0.81052 0.53456
 C395 C 0.61356 0.74994 0.25001
 C396 C 0.57971 0.74996 0.25000
 C397 C 0.53929 0.74998 0.24999
 C398 C 0.51958 0.75094 0.21596
 C399 C 0.48030 0.75094 0.21595
 C400 C 0.46057 0.74998 0.24999
 C401 C 0.48029 0.74902 0.28403
 C402 C 0.51957 0.74902 0.28403
 C403 C 0.42016 0.74996 0.24998
 C404 C 0.38631 0.74994 0.24997
 H405 H 0.53456 0.75168 0.18948
 H406 H 0.46534 0.75168 0.18947
 H407 H 0.46531 0.74827 0.31050
 H408 H 0.53453 0.74828 0.31051
 C409 C 0.24993 -0.11369 0.24999
 C410 C 0.24992 -0.07984 0.24998
 C411 C 0.24992 -0.03942 0.24997
 C412 C 0.21621 -0.01971 0.25476
 C413 C 0.21621 0.01957 0.25476
 C414 C 0.24992 0.03930 0.24996
 C415 C 0.28363 0.01958 0.24517
 C416 C 0.28363 -0.01970 0.24518
 C417 C 0.24991 0.07971 0.24996
 C418 C 0.24991 0.11357 0.24997
 H419 H 0.18999 -0.03468 0.25849
 H420 H 0.18998 0.03454 0.25848
 H421 H 0.30986 0.03455 0.24144
 H422 H 0.30986 -0.03467 0.24145
 C423 C 0.25003 0.75002 0.61363
 C424 C 0.25003 0.75000 0.57978
 C425 C 0.25004 0.74998 0.53936
 C426 C 0.25133 0.71595 0.51966
 C427 C 0.25132 0.71593 0.48038
 C428 C 0.25002 0.74995 0.46064
 C429 C 0.24874 0.78398 0.48035
 C430 C 0.24875 0.78400 0.51963
 C431 C 0.24999 0.74993 0.42023
 C432 C 0.24996 0.74993 0.38638
 H433 H 0.25234 0.68949 0.53463
 H434 H 0.25232 0.68946 0.46542
 H435 H 0.24773 0.81045 0.46537
 H436 H 0.24775 0.81048 0.53459
 C437 C -0.11370 0.24989 0.24994
 C438 C -0.07984 0.24987 0.24995
 C439 C -0.03943 0.24986 0.24997
 C440 C -0.01969 0.25070 0.21594
 C441 C 0.01959 0.25070 0.21595
 C442 C 0.03929 0.24986 0.25000
 C443 C 0.01955 0.24902 0.28403
 C444 C -0.01973 0.24902 0.28402
 C445 C 0.07971 0.24987 0.25001
 C446 C 0.11356 0.24989 0.25000
 H447 H -0.03464 0.25135 0.18945
 H448 H 0.03457 0.25135 0.18948
 H449 H 0.03451 0.24837 0.31052
 H450 H -0.03471 0.24837 0.31049
 C451 C 0.74994 0.61356 0.24997
 C452 C 0.74997 0.57971 0.24995
 C453 C 0.74998 0.53929 0.24996
 C454 C 0.75006 0.51958 0.28401
 C455 C 0.75006 0.48030 0.28401
 C456 C 0.75000 0.46057 0.24997
 C457 C 0.74993 0.48029 0.21591
 C458 C 0.74992 0.51957 0.21591
 C459 C 0.74999 0.42016 0.24997
 C460 C 0.74996 0.38630 0.24999
 H461 H 0.75011 0.53455 0.31050
 H462 H 0.75012 0.46534 0.31050
 H463 H 0.74987 0.46531 0.18943
 H464 H 0.74986 0.53453 0.18942
 C465 C 0.75006 0.25002 0.61363
 C466 C 0.75004 0.25001 0.57977
 C467 C 0.75005 0.25000 0.53936
 C468 C 0.75133 0.21598 0.51964
 C469 C 0.75132 0.21597 0.48036
 C470 C 0.75002 0.25000 0.46064
 C471 C 0.74874 0.28402 0.48036
 C472 C 0.74875 0.28403 0.51964
 C473 C 0.74999 0.24999 0.42023
 C474 C 0.74996 0.24998 0.38637
 H475 H 0.75234 0.18951 0.53461
 H476 H 0.75231 0.18950 0.46539
 H477 H 0.74773 0.31049 0.46539
 H478 H 0.74775 0.31050 0.53461
 C479 C 0.61356 0.24991 0.25002
 C480 C 0.57971 0.24989 0.25000
 C481 C 0.53929 0.24988 0.24999
 C482 C 0.51959 0.25083 0.21595
 C483 C 0.48031 0.25084 0.21594
 C484 C 0.46057 0.24989 0.24997
 C485 C 0.48028 0.24893 0.28402
 C486 C 0.51956 0.24892 0.28403
 C487 C 0.42016 0.24991 0.24996
 C488 C 0.38630 0.24993 0.24997
 H489 H 0.53456 0.25158 0.18948
 H490 H 0.46535 0.25158 0.18946
 H491 H 0.46530 0.24819 0.31049
 H492 H 0.53452 0.24818 0.31051
 C493 C 0.24991 0.61357 0.25000
 C494 C 0.24989 0.57971 0.24999
 C495 C 0.24989 0.53930 0.25001
 C496 C 0.24995 0.51959 0.28406
 C497 C 0.24996 0.48031 0.28407
 C498 C 0.24990 0.46058 0.25003
 C499 C 0.24982 0.48029 0.21597
 C500 C 0.24982 0.51957 0.21596
 C501 C 0.24991 0.42016 0.25003
 C502 C 0.24992 0.38631 0.25002
 H503 H 0.25000 0.53456 0.31055
 H504 H 0.25001 0.46535 0.31056
 H505 H 0.24977 0.46531 0.18949
 H506 H 0.24976 0.53453 0.18947
 C507 C 0.25007 0.25006 0.61363
 C508 C 0.25006 0.25005 0.57978
 C509 C 0.25003 0.25003 0.53936
 C510 C 0.25131 0.21600 0.51966
 C511 C 0.25128 0.21597 0.48038
 C512 C 0.24997 0.24999 0.46064
 C513 C 0.24870 0.28402 0.48035
 C514 C 0.24872 0.28405 0.51963
 C515 C 0.24995 0.24996 0.42023
 C516 C 0.24993 0.24996 0.38638
 H517 H 0.25233 0.18954 0.53464
 H518 H 0.25228 0.18950 0.46542
 H519 H 0.24768 0.31049 0.46537
 H520 H 0.24773 0.31053 0.53458
   
