data_POSCAR
  _audit_creation_date              2014-09-24
  _audit_creation_method            'ToBaCCo'
  _symmetry_space_group_name_H-M    'P1'
  _symmetry_Int_Tables_number       1
  _symmetry_cell_setting            triclinic
  loop_
  _symmetry_equiv_pos_as_xyz
 x,y,z
_cell_length_a 45.4340
_cell_length_b 45.4376
_cell_length_c 45.3658
_cell_angle_alpha 90.170300
_cell_angle_beta 90.082200
_cell_angle_gamma 89.951300
loop_
  _atom_site_label
  _atom_site_type_symbol
  _atom_site_fract_x
  _atom_site_fract_y
  _atom_site_fract_z
N1 N 0.18442 0.18538 0.18306
 N2 N -0.18129 0.81839 0.18480
 N3 N -0.18445 0.18253 -0.18162
 N4 N 0.18307 0.81554 -0.18246
 N5 N 0.18339 1.18219 0.82018
 N6 N 0.81782 0.81829 0.81588
 N7 N 0.18229 0.81771 1.18197
 N8 N 0.81810 1.18217 1.18259
 O9 O 0.54153 0.94591 0.94867
 O10 O 0.57360 0.97271 0.97710
 C11 C 0.56793 0.95353 0.95666
 O12 O 0.45838 1.05079 0.94917
 O13 O 0.42629 1.02281 0.97618
 C14 C 0.43196 1.04305 0.95692
 O15 O 0.54123 1.04781 0.94615
 O16 O 0.57344 1.02257 0.97574
 C17 C 0.56767 1.04080 0.95458
 O18 O 0.45877 0.94247 0.95203
 O19 O 0.42653 0.97186 0.97751
 C20 C 0.43231 0.95061 0.95929
 Zr21 Zr 0.50012 0.95991 0.96514
 O22 O 0.49652 0.95860 0.91862
 O23 O 0.50381 0.91348 0.96637
 Zr24 Zr 0.49985 1.03428 0.96303
 O25 O 0.49629 1.03223 0.91652
 O26 O 0.50315 1.08071 0.96120
 O27 O 0.52627 0.99700 0.95834
 O28 O 0.47440 0.99687 0.95866
 O29 O 0.45868 0.94632 1.05430
 O30 O 0.42641 0.97307 1.02608
 C31 C 0.43224 0.95346 1.04595
 O32 O 0.54132 1.05129 1.05359
 O33 O 0.57355 1.02331 1.02650
 C34 C 0.56777 1.04311 1.04629
 O35 O 0.45845 1.05385 1.05062
 O36 O 0.42638 1.02422 1.02515
 C37 C 0.43206 1.04549 1.04338
 O38 O 0.54156 0.94936 1.05712
 O39 O 0.57360 0.97480 1.02766
 C40 C 0.56796 0.95664 1.04890
 Zr41 Zr 0.50009 0.96225 1.03977
 O42 O 0.49680 0.96338 1.08630
 O43 O 0.50357 0.91579 1.04064
 Zr44 Zr 0.49987 1.03656 1.03768
 O45 O 0.49648 1.03717 1.08423
 O46 O 0.50303 1.08303 1.03709
 Zr47 Zr 0.54366 0.99836 1.00143
 Zr48 Zr 0.45632 0.99813 1.00132
 O49 O 0.47438 0.99952 1.04403
 O50 O 0.52622 0.99966 1.04448
 O51 O 0.47395 0.95522 1.00259
 O52 O 0.52532 1.04089 1.00024
 O53 O 0.52563 0.95574 1.00265
 O54 O 0.47368 1.04113 1.00016
 H55 H 0.46093 0.99633 0.94147
 H56 H 0.53855 1.05821 0.99983
 H57 H 0.46096 1.00005 1.06123
 H58 H 0.53906 0.93855 1.00319
 H59 H 0.48736 1.08890 0.97377
 H60 H 0.48739 1.09041 1.02385
 H61 H 0.51394 1.02691 1.09224
 H62 H 0.51249 0.97656 1.09368
 H63 H 0.48656 0.90773 1.02965
 H64 H 0.48787 0.90608 0.97917
 H65 H 0.51276 0.97058 0.91052
 H66 H 0.51340 1.02097 0.90910
 O67 O -0.05418 0.45848 0.05157
 O68 O -0.02685 0.42633 0.02370
 C69 C -0.04676 0.43206 0.04335
 O70 O -0.05481 0.54126 -0.05307
 O71 O -0.02760 0.57347 -0.02516
 C72 C -0.04699 0.56770 -0.04535
 O73 O -0.05719 0.45841 -0.05037
 O74 O -0.02723 0.42636 -0.02539
 C75 C -0.04861 0.43202 -0.04345
 O76 O -0.05217 0.54138 0.05394
 O77 O -0.02575 0.57358 0.02551
 C78 C -0.04461 0.56782 0.04613
 Zr79 Zr -0.03818 0.49996 0.03735
 O80 O -0.08467 0.50296 0.03863
 O81 O -0.03660 0.49693 0.08388
 Zr82 Zr -0.04000 0.49985 -0.03729
 O83 O -0.08648 0.50300 -0.03698
 O84 O -0.04025 0.49642 -0.08385
 O85 O -0.04480 0.47370 0.00013
 O86 O -0.04454 0.52537 0.00020
 O87 O 0.05092 0.54158 0.05149
 O88 O 0.02351 0.57362 0.02375
 C89 C 0.04313 0.56798 0.04375
 O90 O 0.05052 0.45849 -0.05352
 O91 O 0.02337 0.42638 -0.02572
 C92 C 0.04318 0.43207 -0.04544
 O93 O 0.04726 0.54138 -0.05624
 O94 O 0.02161 0.57356 -0.02685
 C95 C 0.03990 0.56782 -0.04801
 O96 O 0.05293 0.45891 0.04948
 O97 O 0.02443 0.42654 0.02308
 C98 C 0.04510 0.43243 0.04195
 Zr99 Zr 0.03619 0.50016 0.03561
 O100 O 0.08267 0.50315 0.03459
 O101 O 0.03690 0.49732 0.08218
 Zr102 Zr 0.03438 0.49996 -0.03903
 O103 O 0.08085 0.50340 -0.03967
 O104 O 0.03361 0.49655 -0.08556
 Zr105 Zr -0.00176 0.45632 -0.00088
 Zr106 Zr -0.00200 0.54366 -0.00077
 O107 O 0.04062 0.52555 -0.00186
 O108 O 0.04115 0.47386 -0.00185
 O109 O -0.00093 0.52637 0.04228
 O110 O -0.00287 0.47435 -0.04355
 O111 O -0.00081 0.47450 0.04182
 O112 O -0.00304 0.52616 -0.04387
 H113 H -0.06190 0.53857 0.00065
 H114 H -0.00325 0.46097 -0.06083
 H115 H 0.05786 0.53889 -0.00240
 H116 H -0.00043 0.46116 0.05904
 H117 H -0.03009 0.51396 -0.09174
 H118 H 0.02031 0.51211 -0.09297
 H119 H 0.08884 0.48656 -0.02842
 H120 H 0.08998 0.48679 0.02216
 H121 H 0.02558 0.51422 0.09000
 H122 H -0.02501 0.51385 0.09123
 H123 H -0.09260 0.48651 0.02673
 H124 H -0.09389 0.48766 -0.02347
 O125 O 1.05741 -0.04804 0.54252
 O126 O 1.02802 -0.02250 0.57474
 C127 C 1.04898 -0.04100 0.56899
 O128 O 1.05471 0.05686 0.46054
 O129 O 1.02800 0.02900 0.42786
 C130 C 1.04712 0.04931 0.43393
 O131 O 1.05686 0.05347 0.54349
 O132 O 1.02807 0.02691 0.57527
 C133 C 1.04869 0.04582 0.56983
 O134 O 1.05480 -0.05068 0.45947
 O135 O 1.02845 -0.02199 0.42735
 C136 C 1.04736 -0.04259 0.43302
 Zr137 Zr 1.04098 -0.03408 0.50102
 O138 O 1.08747 -0.03316 0.49785
 O139 O 1.04185 -0.08056 0.50406
 Zr140 Zr 1.04021 0.04032 0.50175
 O141 O 1.08668 0.04149 0.49890
 O142 O 1.03889 0.08677 0.50551
 O143 O 1.04614 0.00297 0.52774
 O144 O 1.04614 0.00331 0.47584
 O145 O 0.95336 -0.05149 0.45882
 O146 O 0.97904 -0.02196 0.42703
 C147 C 0.96063 -0.04304 0.43248
 O148 O 0.94918 0.05371 0.54254
 O149 O 0.97747 0.02706 0.57477
 C150 C 0.95698 0.04609 0.56901
 O151 O 0.95163 0.05607 0.45971
 O152 O 0.97922 0.02863 0.42744
 C153 C 0.95964 0.04861 0.43322
 O154 O 0.95013 -0.04947 0.54170
 O155 O 0.97740 -0.02219 0.57442
 C156 C 0.95746 -0.04170 0.56832
 Zr157 Zr 0.96647 -0.03477 0.50049
 O158 O 0.92000 -0.03448 0.49685
 O159 O 0.96637 -0.08126 0.50329
 Zr160 Zr 0.96574 0.03964 0.50114
 O161 O 0.91926 0.03889 0.49782
 O162 O 0.96528 0.08612 0.50447
 Zr163 Zr 1.00300 0.00248 0.54487
 Zr164 Zr 1.00364 0.00308 0.45735
 O165 O 0.96091 0.00254 0.47520
 O166 O 0.96013 0.00223 0.52709
 O167 O 1.00393 -0.04003 0.47445
 O168 O 1.00279 0.04519 0.52706
 O169 O 1.00361 -0.03999 0.52623
 O170 O 1.00309 0.04594 0.47522
 H171 H 1.06346 0.00344 0.46259
 H172 H 1.00271 0.06238 0.54055
 H173 H 0.94372 0.00245 0.46174
 H174 H 1.00368 -0.05739 0.53934
 H175 H 1.02820 0.09440 0.48812
 H176 H 0.97757 0.09387 0.48828
 H177 H 0.91173 0.02710 0.51447
 H178 H 0.91217 -0.02356 0.51403
 H179 H 0.97933 -0.08882 0.48750
 H180 H 1.02940 -0.08840 0.48797
 H181 H 1.09502 -0.02217 0.51512
 H182 H 1.09448 0.02801 0.51410
 C183 C 1.14664 0.14569 0.25957
 C184 C 1.15906 0.12825 0.23711
 C185 C 1.17139 0.14122 0.21215
 C186 C 1.17216 0.17198 0.20922
 C187 C 1.16039 0.18948 0.23192
 C188 C 1.14756 0.17651 0.25666
 C189 C 1.13235 0.13177 0.28559
 C190 C 1.13363 0.14511 0.31359
 C191 C 1.11969 0.13224 0.33780
 C192 C 1.10444 0.10547 0.33476
 C193 C 1.10351 0.09196 0.30684
 C194 C 1.11703 0.10505 0.28257
 C195 C 1.08946 0.09168 0.36046
 C196 C 1.06310 0.07590 0.35657
 C197 C 1.04947 0.06218 0.38041
 C198 C 1.06145 0.06437 0.40888
 C199 C 1.08748 0.08054 0.41298
 C200 C 1.10145 0.09385 0.38901
 H201 H 1.15935 0.10450 0.23877
 H202 H 1.18013 0.12717 0.19495
 H203 H 1.16089 0.21324 0.23033
 H204 H 1.13787 0.19070 0.27322
 H205 H 1.14557 0.16545 0.31693
 H206 H 1.12060 0.14352 0.35883
 H207 H 1.09249 0.07108 0.30366
 H208 H 1.11509 0.09430 0.26133
 H209 H 1.05279 0.07425 0.33511
 H210 H 1.02944 0.04993 0.37649
 H211 H 1.09743 0.08241 0.43461
 H212 H 1.12197 0.10535 0.39283
 C213 C 0.86184 -0.14284 0.25913
 C214 C 0.83094 -0.14472 0.25800
 C215 C 0.81687 -0.15774 0.23387
 C216 C 0.83332 -0.16886 0.21013
 C217 C 0.86416 -0.16701 0.21120
 C218 C 0.87826 -0.15434 0.23548
 C219 C 0.87683 -0.12870 0.28469
 C220 C 0.90243 -0.11182 0.28059
 C221 C 0.91643 -0.09841 0.30454
 C222 C 0.90502 -0.10121 0.33319
 C223 C 0.87941 -0.11806 0.33729
 C224 C 0.86559 -0.13176 0.31338
 C225 C 0.91963 -0.08646 0.35863
 C226 C 0.92046 -0.09998 0.38648
 C227 C 0.93371 -0.08587 0.41047
 C228 C 0.94678 -0.05808 0.40709
 C229 C 0.94627 -0.04466 0.37923
 C230 C 0.93269 -0.05860 0.35534
 H231 H 0.81754 -0.13570 0.27555
 H232 H 0.79308 -0.15901 0.23360
 H233 H 0.87733 -0.17525 0.19309
 H234 H 0.90208 -0.15375 0.23578
 H235 H 0.91150 -0.10862 0.25879
 H236 H 0.93634 -0.08597 0.30057
 H237 H 0.86974 -0.12039 0.35895
 H238 H 0.84618 -0.14492 0.31746
 H239 H 0.91115 -0.12164 0.38972
 H240 H 0.93400 -0.09687 0.43161
 H241 H 0.95591 -0.02312 0.37600
 H242 H 0.93199 -0.04725 0.33440
 C243 C 0.85744 0.14418 0.74309
 C244 C 0.87423 0.15712 0.76577
 C245 C 0.86055 0.16959 0.79038
 C246 C 0.82973 0.16998 0.79269
 C247 C 0.81289 0.15753 0.76986
 C248 C 0.82656 0.14457 0.74549
 C249 C 0.87206 0.13006 0.71727
 C250 C 0.85908 0.13101 0.68912
 C251 C 0.87256 0.11728 0.66505
 C252 C 0.89964 0.10260 0.66837
 C253 C 0.91278 0.10197 0.69645
 C254 C 0.89907 0.11528 0.72060
 C255 C 0.91408 0.08796 0.64274
 C256 C 0.93039 0.06191 0.64657
 C257 C 0.94439 0.04846 0.62269
 C258 C 0.94195 0.06033 0.59424
 C259 C 0.92541 0.08614 0.59025
 C260 C 0.91183 0.09993 0.61424
 H261 H 0.89801 0.15777 0.76452
 H262 H 0.87409 0.17882 0.80775
 H263 H 0.78909 0.15766 0.77102
 H264 H 0.81286 0.13442 0.72879
 H265 H 0.83855 0.14255 0.68554
 H266 H 0.86152 0.11791 0.64391
 H267 H 0.93384 0.09136 0.69985
 H268 H 0.90956 0.11363 0.74196
 H269 H 0.93217 0.05166 0.66801
 H270 H 0.95698 0.02862 0.62652
 H271 H 0.92336 0.09603 0.56865
 H272 H 0.89998 0.12024 0.61046
 C273 C 1.14698 -0.14082 0.74236
 C274 C 1.14800 -0.17174 0.74361
 C275 C 1.16020 -0.18598 0.76800
 C276 C 1.17135 -0.16968 0.79187
 C277 C 1.17045 -0.13881 0.79063
 C278 C 1.15859 -0.12454 0.76610
 C279 C 1.13342 -0.12563 0.71666
 C280 C 1.11704 -0.09965 0.72062
 C281 C 1.10395 -0.08558 0.69660
 C282 C 1.10659 -0.09729 0.66800
 C283 C 1.12304 -0.12323 0.66401
 C284 C 1.13640 -0.13713 0.68800
 C285 C 1.09196 -0.08270 0.64255
 C286 C 1.10541 -0.08222 0.61463
 C287 C 1.09143 -0.06881 0.59070
 C288 C 1.06386 -0.05525 0.59421
 C289 C 1.05048 -0.05553 0.62211
 C290 C 1.06427 -0.06924 0.64593
 H291 H 1.13888 -0.18501 0.72598
 H292 H 1.16077 -0.20980 0.76837
 H293 H 1.17873 -0.12572 0.80882
 H294 H 1.15864 -0.10072 0.76572
 H295 H 1.11391 -0.09034 0.74239
 H296 H 1.09185 -0.06541 0.70049
 H297 H 1.12525 -0.13310 0.64238
 H298 H 1.14919 -0.15686 0.68403
 H299 H 1.12693 -0.09191 0.61131
 H300 H 1.10239 -0.06874 0.56951
 H301 H 1.02908 -0.04553 0.62547
 H302 H 1.05296 -0.06968 0.66691
 C303 C 0.25889 1.14614 1.14090
 C304 C 0.23525 1.15714 1.12416
 C305 C 0.21090 1.16986 1.13796
 C306 C 0.20975 1.17232 1.16881
 C307 C 0.23347 1.16170 1.18558
 C308 C 0.25768 1.14859 1.17181
 C309 C 0.28451 1.13194 1.12617
 C310 C 0.31314 1.13533 1.13751
 C311 C 0.33710 1.12162 1.12387
 C312 C 0.33309 1.10441 1.09836
 C313 C 0.30451 1.10130 1.08685
 C314 C 0.28053 1.11471 1.10068
 C315 C 0.35852 1.08950 1.08399
 C316 C 0.35517 1.06149 1.07112
 C317 C 0.37896 1.04742 1.05767
 C318 C 0.40681 1.06081 1.05709
 C319 C 0.41029 1.08872 1.07001
 C320 C 0.38637 1.10300 1.08314
 H321 H 0.23560 1.15613 1.10032
 H322 H 0.19282 1.17771 1.12454
 H323 H 0.23315 1.16346 1.20938
 H324 H 0.27523 1.13998 1.18545
 H325 H 0.31714 1.14876 1.15684
 H326 H 0.35871 1.12421 1.13360
 H327 H 0.30060 1.08861 1.06700
 H328 H 0.25879 1.11122 1.09153
 H329 H 0.33425 1.05014 1.07187
 H330 H 0.37565 1.02577 1.04817
 H331 H 0.43144 1.09969 1.06970
 H332 H 0.38966 1.12476 1.09233
 C333 C 0.25869 0.85098 0.86121
 C334 C 0.23521 0.83913 0.87750
 C335 C 0.21052 0.82756 0.86324
 C336 C 0.20886 0.82710 0.83231
 C337 C 0.23248 0.83846 0.81597
 C338 C 0.25701 0.85044 0.83023
 C339 C 0.28452 0.86433 0.87643
 C340 C 0.31295 0.86189 0.86444
 C341 C 0.33700 0.87525 0.87830
 C342 C 0.33332 0.89111 0.90470
 C343 C 0.30497 0.89308 0.91697
 C344 C 0.28088 0.88006 0.90293
 C345 C 0.35875 0.90604 0.91909
 C346 C 0.35500 0.93334 0.93330
 C347 C 0.37880 0.94755 0.94661
 C348 C 0.40709 0.93506 0.94570
 C349 C 0.41096 0.90781 0.93150
 C350 C 0.38703 0.89338 0.91850
 H351 H 0.23590 0.83867 0.90135
 H352 H 0.19255 0.81913 0.87638
 H353 H 0.23182 0.83824 0.79212
 H354 H 0.27440 0.85976 0.81692
 H355 H 0.31670 0.84959 0.84433
 H356 H 0.35840 0.87354 0.86798
 H357 H 0.30132 0.90467 0.93753
 H358 H 0.25931 0.88278 0.91266
 H359 H 0.33373 0.94409 0.93370
 H360 H 0.37509 0.96860 0.95722
 H361 H 0.43244 0.89749 0.93065
 H362 H 0.39068 0.87215 0.90824
 C363 C 0.74277 0.86038 1.14814
 C364 C 0.74471 0.82948 1.14927
 C365 C 0.76936 0.81576 1.16157
 C366 C 0.79287 0.83256 1.17264
 C367 C 0.79096 0.86340 1.17156
 C368 C 0.76614 0.87713 1.15971
 C369 C 0.71676 0.87508 1.13458
 C370 C 0.72010 0.90136 1.11864
 C371 C 0.69584 0.91508 1.10566
 C372 C 0.66758 0.90266 1.10782
 C373 C 0.66419 0.87641 1.12381
 C374 C 0.68843 0.86290 1.13717
 C375 C 0.64194 0.91678 1.09301
 C376 C 0.61373 0.91603 1.10578
 C377 C 0.58966 0.92890 1.09150
 C378 C 0.59331 0.94316 1.06432
 C379 C 0.62152 0.94422 1.05172
 C380 C 0.64546 0.93100 1.06574
 H381 H 0.72740 0.81581 1.14020
 H382 H 0.77018 0.79196 1.16233
 H383 H 0.80881 0.87690 1.17978
 H384 H 0.76525 0.90094 1.15977
 H385 H 0.74158 0.91122 1.11576
 H386 H 0.69928 0.93552 1.09399
 H387 H 0.64287 0.86597 1.12566
 H388 H 0.68488 0.84294 1.14963
 H389 H 0.61026 0.90576 1.12699
 H390 H 0.56824 0.92793 1.10190
 H391 H 0.62508 0.95490 1.03073
 H392 H 0.66665 0.93153 1.05489
 C393 C 0.74098 1.13975 0.85638
 C394 C 0.74210 1.17063 0.85441
 C395 C 0.76635 1.18460 0.84174
 C396 C 0.79022 1.16806 0.83106
 C397 C 0.78917 1.13724 0.83306
 C398 C 0.76478 1.12324 0.84536
 C399 C 0.71530 1.12481 0.87015
 C400 C 0.71925 1.09925 0.88710
 C401 C 0.69523 1.08527 0.90015
 C402 C 0.66662 1.09668 0.89694
 C403 C 0.66265 1.12223 0.87998
 C404 C 0.68665 1.13603 0.86663
 C405 C 0.64117 1.08216 0.91153
 C406 C 0.61338 1.08124 0.89781
 C407 C 0.58945 1.06789 0.91177
 C408 C 0.59287 1.05484 0.93959
 C409 C 0.62064 1.05554 0.95323
 C410 C 0.64443 1.06920 0.93947
 H411 H 0.72443 1.18410 0.86306
 H412 H 0.76658 1.20838 0.84032
 H413 H 0.80736 1.12399 0.82517
 H414 H 0.76451 1.09943 0.84602
 H415 H 0.74100 1.09018 0.89067
 H416 H 0.69912 1.06538 0.91264
 H417 H 0.64102 1.13188 0.87731
 H418 H 0.68268 1.15542 0.85339
 H419 H 0.61015 1.09053 0.87610
 H420 H 0.56835 1.06751 0.90063
 H421 H 0.62391 1.04596 0.97483
 H422 H 0.66529 1.07000 0.95100
 C423 C 0.14346 0.26008 0.14309
 C424 C 0.17432 0.25763 0.14425
 C425 C 0.18767 0.23350 0.15783
 C426 C 0.17054 0.21097 0.17015
 C427 C 0.13973 0.21336 0.16906
 C428 C 0.12635 0.23773 0.15594
 C429 C 0.12921 0.28558 0.12822
 C430 C 0.10264 0.28199 0.11266
 C431 C 0.08926 0.30587 0.09868
 C432 C 0.10229 0.33393 0.09945
 C433 C 0.12896 0.33749 0.11485
 C434 C 0.14211 0.31370 0.12922
 C435 C 0.08808 0.35934 0.08438
 C436 C 0.08978 0.38784 0.09647
 C437 C 0.07625 0.41163 0.08244
 C438 C 0.06029 0.40743 0.05623
 C439 C 0.05847 0.37899 0.04416
 C440 C 0.07242 0.35530 0.05789
 H441 H 0.18826 0.27408 0.13420
 H442 H 0.21146 0.23224 0.15847
 H443 H 0.12598 0.19620 0.17817
 H444 H 0.10257 0.23906 0.15599
 H445 H 0.09226 0.26063 0.11095
 H446 H 0.06851 0.30232 0.08749
 H447 H 0.13991 0.35862 0.11560
 H448 H 0.16231 0.31746 0.14132
 H449 H 0.10110 0.39177 0.11712
 H450 H 0.07780 0.43322 0.09249
 H451 H 0.04638 0.37504 0.02398
 H452 H 0.07110 0.33384 0.04756
 C453 C -0.14781 0.25915 -0.14112
 C454 C -0.14873 0.25655 -0.17194
 C455 C -0.16127 0.23174 -0.18520
 C456 C -0.17259 0.20878 -0.16789
 C457 C -0.17171 0.21151 -0.13701
 C458 C -0.15968 0.23657 -0.12377
 C459 C -0.13386 0.28503 -0.12705
 C460 C -0.14847 0.30063 -0.10465
 C461 C -0.13505 0.32488 -0.09117
 C462 C -0.10659 0.33353 -0.09948
 C463 C -0.09196 0.31786 -0.12181
 C464 C -0.10558 0.29398 -0.13566
 C465 C -0.09201 0.35869 -0.08475
 C466 C -0.06333 0.35572 -0.07363
 C467 C -0.04941 0.37945 -0.05983
 C468 C -0.06374 0.40678 -0.05738
 C469 C -0.09244 0.40976 -0.06859
 C470 C -0.10656 0.38582 -0.08191
 H471 H -0.13993 0.27383 -0.18575
 H472 H -0.16199 0.23036 -0.20902
 H473 H -0.17997 0.19404 -0.12314
 H474 H -0.15895 0.23800 -0.09994
 H475 H -0.17033 0.29416 -0.09776
 H476 H -0.14666 0.33658 -0.07390
 H477 H -0.07006 0.32427 -0.12867
 H478 H -0.09384 0.28214 -0.15275
 H479 H -0.05178 0.33492 -0.07541
 H480 H -0.02725 0.37654 -0.05150
 H481 H -0.10403 0.43053 -0.06689
 H482 H -0.12865 0.38861 -0.09045
 C483 C 0.13900 0.74063 -0.14669
 C484 C 0.12287 0.76438 -0.15828
 C485 C 0.13728 0.78884 -0.16998
 C486 C 0.16816 0.78999 -0.17078
 C487 C 0.18433 0.76609 -0.15967
 C488 C 0.16994 0.74179 -0.14760
 C489 C 0.12365 0.71502 -0.13328
 C490 C 0.13510 0.68639 -0.13619
 C491 C 0.12108 0.66250 -0.12291
 C492 C 0.09506 0.66656 -0.10663
 C493 C 0.08337 0.69512 -0.10413
 C494 C 0.09757 0.71904 -0.11711
 C495 C 0.08045 0.64124 -0.09192
 C496 C 0.06687 0.64486 -0.06429
 C497 C 0.05341 0.62111 -0.05028
 C498 C 0.05353 0.59303 -0.06334
 C499 C 0.06707 0.58931 -0.09092
 C500 C 0.08022 0.61318 -0.10513
 H501 H 0.09905 0.76408 -0.15845
 H502 H 0.12428 0.80702 -0.17824
 H503 H 0.20815 0.76637 -0.16019
 H504 H 0.18312 0.72416 -0.13850
 H505 H 0.15488 0.68236 -0.14884
 H506 H 0.13095 0.64091 -0.12502
 H507 H 0.06313 0.69905 -0.09217
 H508 H 0.08829 0.74078 -0.11402
 H509 H 0.06710 0.66596 -0.05315
 H510 H 0.04339 0.62465 -0.02890
 H511 H 0.06729 0.56799 -0.10165
 H512 H 0.08997 0.60966 -0.12661
 C513 C -0.14373 0.74221 0.14388
 C514 C -0.14422 0.74507 0.17478
 C515 C -0.15702 0.76968 0.18812
 C516 C -0.16922 0.79231 0.17094
 C517 C -0.16887 0.78946 0.14010
 C518 C -0.15652 0.76462 0.12675
 C519 C -0.12950 0.71627 0.12962
 C520 C -0.11439 0.71931 0.10276
 C521 C -0.10083 0.69509 0.08945
 C522 C -0.10155 0.66722 0.10285
 C523 C -0.11660 0.66418 0.12975
 C524 C -0.13056 0.68832 0.14284
 C525 C -0.08666 0.64153 0.08882
 C526 C -0.09867 0.61308 0.09095
 C527 C -0.08478 0.58907 0.07753
 C528 C -0.05878 0.59299 0.06129
 C529 C -0.04677 0.62137 0.05911
 C530 C -0.06036 0.64528 0.07293
 H531 H -0.13421 0.72857 0.18873
 H532 H -0.15714 0.77124 0.21194
 H533 H -0.17791 0.80664 0.12630
 H534 H -0.15709 0.76299 0.10295
 H535 H -0.11266 0.74051 0.09210
 H536 H -0.08994 0.69825 0.06850
 H537 H -0.11734 0.64320 0.14095
 H538 H -0.14234 0.68498 0.16327
 H539 H -0.11916 0.60936 0.10250
 H540 H -0.09476 0.56752 0.07938
 H541 H -0.02676 0.62514 0.04681
 H542 H -0.05006 0.66668 0.07130
 C543 C 1.14666 0.14276 0.74423
 C544 C 1.14626 0.17343 0.74771
 C545 C 1.15887 0.18655 0.77259
 C546 C 1.17178 0.16929 0.79504
 C547 C 1.17211 0.13840 0.79116
 C548 C 1.15993 0.12540 0.76601
 C549 C 1.13275 0.12884 0.71818
 C550 C 1.14792 0.10743 0.70175
 C551 C 1.13460 0.09413 0.67731
 C552 C 1.10570 0.10161 0.66925
 C553 C 1.09050 0.12293 0.68576
 C554 C 1.10400 0.13661 0.70986
 C555 C 1.09130 0.08708 0.64382
 C556 C 1.06297 0.07512 0.64671
 C557 C 1.04931 0.06138 0.62275
 C558 C 1.06350 0.05981 0.59528
 C559 C 1.09180 0.07192 0.59236
 C560 C 1.10568 0.08519 0.61650
 H561 H 1.13645 0.18728 0.73097
 H562 H 1.15881 0.21033 0.77411
 H563 H 1.18105 0.12414 0.80803
 H564 H 1.16017 0.10164 0.76394
 H565 H 1.17015 0.10120 0.70770
 H566 H 1.14667 0.07763 0.66498
 H567 H 1.06825 0.12917 0.67983
 H568 H 1.09182 0.15292 0.72233
 H569 H 1.05154 0.07616 0.66763
 H570 H 1.02743 0.05236 0.62561
 H571 H 1.10329 0.07093 0.57148
 H572 H 1.12748 0.09441 0.61375
 C573 C 0.85894 -0.14239 0.74090
 C574 C 0.82807 -0.14332 0.74330
 C575 C 0.81465 -0.15661 0.76755
 C576 C 0.83172 -0.16885 0.79027
 C577 C 0.86254 -0.16799 0.78791
 C578 C 0.87597 -0.15518 0.76343
 C579 C 0.87332 -0.12782 0.71528
 C580 C 0.90002 -0.11257 0.71885
 C581 C 0.91354 -0.09888 0.69491
 C582 C 0.90051 -0.09959 0.66677
 C583 C 0.87373 -0.11472 0.66320
 C584 C 0.86043 -0.12882 0.68708
 C585 C 0.91477 -0.08457 0.64135
 C586 C 0.91293 -0.09645 0.61272
 C587 C 0.92643 -0.08236 0.58895
 C588 C 0.94248 -0.05628 0.59329
 C589 C 0.94447 -0.04447 0.62187
 C590 C 0.93056 -0.05825 0.64553
 H591 H 0.81418 -0.13334 0.72670
 H592 H 0.79086 -0.15714 0.76872
 H593 H 0.87627 -0.17708 0.80515
 H594 H 0.89975 -0.15544 0.76215
 H595 H 0.91042 -0.11086 0.74026
 H596 H 0.93439 -0.08792 0.69849
 H597 H 0.86278 -0.11544 0.64201
 H598 H 0.84013 -0.14069 0.68331
 H599 H 0.90149 -0.11695 0.60867
 H600 H 0.92473 -0.09220 0.56725
 H601 H 0.95665 -0.02442 0.62599
 H602 H 0.93201 -0.04806 0.66708
 C603 C 1.14208 -0.14305 0.25770
 C604 C 1.12477 -0.15412 0.23443
 C605 C 1.13792 -0.16687 0.20968
 C606 C 1.16869 -0.16928 0.20773
 C607 C 1.18602 -0.15861 0.23109
 C608 C 1.17290 -0.14548 0.25569
 C609 C 1.12806 -0.12874 0.28373
 C610 C 1.14015 -0.13193 0.31211
 C611 C 1.12719 -0.11810 0.33642
 C612 C 1.10163 -0.10094 0.33306
 C613 C 1.08938 -0.09802 0.30473
 C614 C 1.10252 -0.11156 0.28039
 C615 C 1.08789 -0.08597 0.35887
 C616 C 1.07476 -0.05810 0.35575
 C617 C 1.06153 -0.04415 0.37979
 C618 C 1.06144 -0.05752 0.40768
 C619 C 1.07482 -0.08519 0.41099
 C620 C 1.08773 -0.09935 0.38682
 H621 H 1.10099 -0.15312 0.23538
 H622 H 1.12406 -0.17475 0.19191
 H623 H 1.20977 -0.16034 0.23019
 H624 H 1.18698 -0.13683 0.27292
 H625 H 1.15954 -0.14532 0.31564
 H626 H 1.13748 -0.12057 0.35781
 H627 H 1.06946 -0.08540 0.30130
 H628 H 1.09280 -0.10821 0.25886
 H629 H 1.07500 -0.04681 0.33478
 H630 H 1.05168 -0.02267 0.37660
 H631 H 1.07490 -0.09613 0.43216
 H632 H 1.09718 -0.12099 0.38997
 C633 C 0.85829 0.14324 0.25844
 C634 C 0.84543 0.12556 0.23640
 C635 C 0.83235 0.13827 0.21162
 C636 C 0.83128 0.16901 0.20848
 C637 C 0.84362 0.18673 0.23071
 C638 C 0.85717 0.17402 0.25525
 C639 C 0.87310 0.12961 0.28440
 C640 C 0.87227 0.14328 0.31226
 C641 C 0.88656 0.13066 0.33644
 C642 C 0.90170 0.10379 0.33355
 C643 C 0.90225 0.08998 0.30576
 C644 C 0.88838 0.10283 0.28150
 C645 C 0.91685 0.09018 0.35931
 C646 C 0.94308 0.07414 0.35549
 C647 C 0.95688 0.06067 0.37945
 C648 C 0.94519 0.06337 0.40798
 C649 C 0.91925 0.07975 0.41197
 C650 C 0.90513 0.09280 0.38791
 H651 H 0.84529 0.10182 0.23828
 H652 H 0.82322 0.12405 0.19476
 H653 H 0.84294 0.21048 0.22894
 H654 H 0.86721 0.18839 0.27146
 H655 H 0.86038 0.16367 0.31552
 H656 H 0.88595 0.14218 0.35734
 H657 H 0.91321 0.06904 0.30270
 H658 H 0.88998 0.09184 0.26037
 H659 H 0.95317 0.07209 0.33398
 H660 H 0.97678 0.04817 0.37557
 H661 H 0.90949 0.08201 0.43362
 H662 H 0.88470 0.10447 0.39170
 C663 C 0.14247 0.25699 -0.14214
 C664 C 0.12566 0.23504 -0.15610
 C665 C 0.13914 0.21027 -0.16841
 C666 C 0.17003 0.20678 -0.16768
 C667 C 0.18680 0.22914 -0.15396
 C668 C 0.17322 0.25369 -0.14124
 C669 C 0.12793 0.28302 -0.12831
 C670 C 0.14151 0.31084 -0.12853
 C671 C 0.12800 0.33509 -0.11515
 C672 C 0.10035 0.33229 -0.10153
 C673 C 0.08663 0.30455 -0.10165
 C674 C 0.10033 0.28023 -0.11462
 C675 C 0.08593 0.35805 -0.08710
 C676 C 0.06879 0.35428 -0.06159
 C677 C 0.05483 0.37825 -0.04828
 C678 C 0.05807 0.40675 -0.05974
 C679 C 0.07540 0.41067 -0.08506
 C680 C 0.08900 0.38659 -0.09869
 H681 H 0.10197 0.23697 -0.15767
 H682 H 0.12521 0.19347 -0.17804
 H683 H 0.21059 0.22783 -0.15336
 H684 H 0.18692 0.26991 -0.13037
 H685 H 0.16254 0.31400 -0.13923
 H686 H 0.13946 0.35597 -0.11520
 H687 H 0.06513 0.30157 -0.09187
 H688 H 0.08934 0.25914 -0.11355
 H689 H 0.06635 0.33281 -0.05162
 H690 H 0.04159 0.37440 -0.02887
 H691 H 0.07814 0.43231 -0.09462
 H692 H 0.10155 0.39033 -0.11859
 C693 C -0.14259 0.25733 0.14208
 C694 C -0.12499 0.23462 0.15367
 C695 C -0.13784 0.21006 0.16688
 C696 C -0.16858 0.20778 0.16923
 C697 C -0.18619 0.23056 0.15800
 C698 C -0.17338 0.25496 0.14443
 C699 C -0.12890 0.28320 0.12742
 C700 C -0.14131 0.31143 0.13027
 C701 C -0.12853 0.33565 0.11633
 C702 C -0.10281 0.33233 0.09941
 C703 C -0.09032 0.30413 0.09671
 C704 C -0.10328 0.27987 0.11037
 C705 C -0.08898 0.35814 0.08476
 C706 C -0.07536 0.35508 0.05708
 C707 C -0.06171 0.37909 0.04366
 C708 C -0.06168 0.40684 0.05739
 C709 C -0.07568 0.41010 0.08479
 C710 C -0.08899 0.38599 0.09842
 H711 H -0.10122 0.23588 0.15273
 H712 H -0.12376 0.19270 0.17515
 H713 H -0.20993 0.22936 0.15963
 H714 H -0.18766 0.27175 0.13539
 H715 H -0.16079 0.31494 0.14354
 H716 H -0.13901 0.35693 0.11860
 H717 H -0.07028 0.30076 0.08426
 H718 H -0.09333 0.25844 0.10728
 H719 H -0.07545 0.33417 0.04559
 H720 H -0.05140 0.37596 0.02236
 H721 H -0.07581 0.43118 0.09601
 H722 H -0.09880 0.38910 0.11993
 C723 C -0.14378 0.74258 -0.14351
 C724 C -0.15532 0.76564 -0.12627
 C725 C -0.16784 0.79036 -0.13956
 C726 C -0.16953 0.79249 -0.17040
 C727 C -0.15843 0.76931 -0.18767
 C728 C -0.14554 0.74473 -0.17441
 C729 C -0.12969 0.71661 -0.12931
 C730 C -0.13258 0.68830 -0.14160
 C731 C -0.11907 0.66403 -0.12835
 C732 C -0.10257 0.66738 -0.10230
 C733 C -0.09989 0.69566 -0.08991
 C734 C -0.11309 0.71995 -0.10333
 C735 C -0.08818 0.64159 -0.08809
 C736 C -0.06070 0.64462 -0.07406
 C737 C -0.04743 0.62064 -0.06016
 C738 C -0.06110 0.59292 -0.06029
 C739 C -0.08830 0.58966 -0.07466
 C740 C -0.10179 0.61377 -0.08823
 H741 H -0.15487 0.76456 -0.10245
 H742 H -0.17608 0.80798 -0.12573
 H743 H -0.15961 0.77035 -0.21148
 H744 H -0.13652 0.72765 -0.18842
 H745 H -0.14550 0.68479 -0.16136
 H746 H -0.12132 0.64268 -0.13875
 H747 H -0.08777 0.69907 -0.06963
 H748 H -0.10998 0.74144 -0.09344
 H749 H -0.04922 0.66548 -0.07406
 H750 H -0.02626 0.62375 -0.04959
 H751 H -0.09944 0.56860 -0.07495
 H752 H -0.12315 0.61068 -0.09838
 C753 C 0.14266 0.74254 0.14104
 C754 C 0.14359 0.74523 0.17195
 C755 C 0.15688 0.76960 0.18530
 C756 C 0.16913 0.79214 0.16812
 C757 C 0.16811 0.78958 0.13727
 C758 C 0.15532 0.76497 0.12391
 C759 C 0.12834 0.71665 0.12675
 C760 C 0.11324 0.71972 0.09984
 C761 C 0.09983 0.69550 0.08638
 C762 C 0.10065 0.66759 0.09968
 C763 C 0.11564 0.66452 0.12666
 C764 C 0.12948 0.68866 0.13988
 C765 C 0.08584 0.64190 0.08552
 C766 C 0.09775 0.61338 0.08788
 C767 C 0.08375 0.58934 0.07462
 C768 C 0.05776 0.59328 0.05829
 C769 C 0.04597 0.62174 0.05570
 C770 C 0.05964 0.64568 0.06939
 H771 H 0.13366 0.72874 0.18593
 H772 H 0.15748 0.77095 0.20913
 H773 H 0.17717 0.80672 0.12347
 H774 H 0.15557 0.76351 0.10009
 H775 H 0.11142 0.74094 0.08923
 H776 H 0.08899 0.69871 0.06537
 H777 H 0.11643 0.64352 0.13782
 H778 H 0.14126 0.68526 0.16034
 H779 H 0.11818 0.60962 0.09959
 H780 H 0.09358 0.56773 0.07678
 H781 H 0.02602 0.62556 0.04326
 H782 H 0.04941 0.66711 0.06754
 C783 C 0.25799 1.14413 0.86088
 C784 C 0.23567 1.15718 0.87790
 C785 C 0.21103 1.16980 0.86449
 C786 C 0.20802 1.17012 0.83349
 C787 C 0.23079 1.15739 0.81654
 C788 C 0.25524 1.14446 0.83002
 C789 C 0.28381 1.12986 0.87525
 C790 C 0.31191 1.13124 0.86236
 C791 C 0.33598 1.11732 0.87558
 C792 C 0.33267 1.10191 0.90222
 C793 C 0.30463 1.10084 0.91528
 C794 C 0.28051 1.11446 0.90189
 C795 C 0.35823 1.08684 0.91621
 C796 C 0.35447 1.05992 0.93098
 C797 C 0.37836 1.04585 0.94430
 C798 C 0.40670 1.05810 0.94284
 C799 C 0.41059 1.08486 0.92792
 C800 C 0.38661 1.09915 0.91491
 H801 H 0.23721 1.15774 0.90171
 H802 H 0.19392 1.17872 0.87850
 H803 H 0.22983 1.15765 0.79269
 H804 H 0.27180 1.13433 0.81617
 H805 H 0.31541 1.14323 0.84209
 H806 H 0.35712 1.11832 0.86466
 H807 H 0.30129 1.08960 0.93600
 H808 H 0.25917 1.11255 0.91228
 H809 H 0.33311 1.04945 0.93195
 H810 H 0.37465 1.02515 0.95546
 H811 H 0.43211 1.09500 0.92663
 H812 H 0.39028 1.12008 0.90420
 C813 C 0.25860 0.85671 1.14357
 C814 C 0.25563 0.82598 1.14457
 C815 C 0.23092 0.81321 1.15763
 C816 C 0.20840 0.83092 1.16942
 C817 C 0.21146 0.86170 1.16837
 C818 C 0.23643 0.87445 1.15581
 C819 C 0.28456 0.87026 1.12943
 C820 C 0.30067 0.89223 1.14412
 C821 C 0.32509 0.90515 1.13065
 C822 C 0.33345 0.89672 1.10205
 C823 C 0.31724 0.87487 1.08730
 C824 C 0.29316 0.86155 1.10099
 C825 C 0.35888 0.91088 1.08755
 C826 C 0.35609 0.92242 1.05901
 C827 C 0.37992 0.93638 1.04553
 C828 C 0.40714 0.93854 1.06015
 C829 C 0.41002 0.92659 1.08854
 C830 C 0.38601 0.91315 1.10223
 H831 H 0.27259 0.81188 1.13549
 H832 H 0.22929 0.78946 1.15847
 H833 H 0.19432 0.87588 1.17696
 H834 H 0.23816 0.89821 1.15505
 H835 H 0.29449 0.89918 1.16611
 H836 H 0.33719 0.92207 1.14236
 H837 H 0.32339 0.86795 1.06528
 H838 H 0.28093 0.84478 1.08919
 H839 H 0.33532 0.92105 1.04734
 H840 H 0.37712 0.94526 1.02357
 H841 H 0.43070 0.92806 1.10035
 H842 H 0.38867 0.90425 1.12420
 C843 C 0.74252 1.14220 1.14299
 C844 C 0.76531 1.15363 1.12545
 C845 C 0.78998 1.16667 1.13841
 C846 C 0.79233 1.16899 1.16920
 C847 C 0.76941 1.15803 1.18676
 C848 C 0.74489 1.14462 1.17383
 C849 C 0.71661 1.12758 1.12914
 C850 C 0.68836 1.13047 1.14146
 C851 C 0.66412 1.11654 1.12852
 C852 C 0.66744 1.09960 1.10273
 C853 C 0.69566 1.09687 1.09033
 C854 C 0.71993 1.11050 1.10346
 C855 C 0.64164 1.08489 1.08876
 C856 C 0.64473 1.05722 1.07509
 C857 C 0.62074 1.04371 1.06133
 C858 C 0.59297 1.05733 1.06125
 C859 C 0.58968 1.08472 1.07529
 C860 C 0.61377 1.09844 1.08871
 H861 H 0.76405 1.15268 1.10164
 H862 H 0.80740 1.17481 1.12436
 H863 H 0.77062 1.15971 1.21054
 H864 H 0.72802 1.13573 1.18807
 H865 H 0.68486 1.14375 1.16100
 H866 H 0.64282 1.11885 1.13893
 H867 H 0.69904 1.08440 1.07025
 H868 H 0.74137 1.10736 1.09357
 H869 H 0.66564 1.04580 1.07523
 H870 H 0.62390 1.02242 1.05099
 H871 H 0.56858 1.09585 1.07539
 H872 H 0.61065 1.11994 1.09857
 C873 C 0.74227 0.85874 0.85500
 C874 C 0.74452 0.82791 0.85301
 C875 C 0.76900 0.81472 0.83983
 C876 C 0.79204 0.83200 0.82867
 C877 C 0.78985 0.86279 0.83062
 C878 C 0.76518 0.87600 0.84340
 C879 C 0.71640 0.87282 0.86947
 C880 C 0.71975 0.89875 0.88614
 C881 C 0.69557 0.91189 0.89988
 C882 C 0.66740 0.89925 0.89771
 C883 C 0.66403 0.87330 0.88106
 C884 C 0.68816 0.86037 0.86699
 C885 C 0.64175 0.91300 0.91287
 C886 C 0.61354 0.91236 0.90002
 C887 C 0.58950 0.92524 0.91435
 C888 C 0.59319 0.93941 0.94166
 C889 C 0.62134 0.94019 0.95447
 C890 C 0.64526 0.92696 0.94038
 H891 H 0.72760 0.81386 0.86209
 H892 H 0.77010 0.79095 0.83849
 H893 H 0.80738 0.87663 0.82240
 H894 H 0.76404 0.89979 0.84403
 H895 H 0.74118 0.90877 0.88896
 H896 H 0.69899 0.93211 0.91208
 H897 H 0.64278 0.86270 0.87918
 H898 H 0.68460 0.84067 0.85400
 H899 H 0.61005 0.90231 0.87864
 H900 H 0.56812 0.92451 0.90378
 H901 H 0.62487 0.95078 0.97558
 H902 H 0.66647 0.92738 0.95128
   
