data_POSCAR
  _audit_creation_date              2014-09-24
  _audit_creation_method            'ToBaCCo'
  _symmetry_space_group_name_H-M    'P1'
  _symmetry_Int_Tables_number       1
  _symmetry_cell_setting            triclinic
  loop_
  _symmetry_equiv_pos_as_xyz
 x,y,z
_cell_length_a 37.0241
_cell_length_b 36.9580
_cell_length_c 24.8891
_cell_angle_alpha 89.994200
_cell_angle_beta 90.050800
_cell_angle_gamma 120.107700
loop_
  _atom_site_label
  _atom_site_type_symbol
  _atom_site_fract_x
  _atom_site_fract_y
  _atom_site_fract_z
C1 C 0.10966 0.53461 0.08679
 C2 C 0.10902 0.57125 0.08700
 C3 C 0.07415 0.56434 0.05790
 N4 N 0.05309 0.52404 0.04061
 C5 C 0.07518 0.50591 0.05754
 C6 C 0.06091 0.59425 0.05198
 C7 C 0.02469 0.58639 0.02334
 C8 C 0.00432 0.60915 0.02799
 C9 C -0.02863 0.59201 -0.00762
 C10 C -0.02678 0.56002 -0.03429
 N11 N 0.00585 0.55697 -0.01508
 C12 C -0.05375 0.53448 -0.07582
 C13 C -0.05128 0.49972 -0.09443
 C14 C -0.05968 0.48478 -0.14672
 C15 C -0.05917 0.44812 -0.14672
 C16 C -0.05039 0.44199 -0.09446
 N17 N -0.04497 0.47385 -0.06243
 C18 C -0.05187 0.40518 -0.07596
 C19 C -0.02416 0.40742 -0.03512
 C20 C -0.02462 0.37395 -0.00922
 C21 C 0.00845 0.39064 0.02627
 C22 C 0.02749 0.43384 0.02224
 N23 N 0.00780 0.44366 -0.01572
 C24 C 0.06324 0.46303 0.05115
 H25 H 0.13235 0.52965 0.10787
 H26 H 0.13111 0.59922 0.10827
 H27 H 0.01786 0.47346 -0.03087
 H28 H 0.01176 0.63503 0.05469
 H29 H -0.05123 0.60211 -0.01244
 H30 H -0.06597 0.49874 -0.18108
 H31 H -0.06507 0.42787 -0.18103
 H32 H 0.01688 0.37273 0.05250
 H33 H 0.01697 0.53832 -0.03078
 H34 H -0.04637 0.34097 -0.01457
 C35 C 0.48626 0.55317 0.14548
 C36 C 0.44873 0.51654 0.14527
 C37 C 0.44911 0.49392 0.10107
 N38 N 0.48585 0.51536 0.07449
 C39 C 0.50845 0.55181 0.10143
 C40 C 0.41414 0.45663 0.08227
 C41 C 0.41803 0.43050 0.04439
 C42 C 0.38612 0.40035 0.01314
 C43 C 0.40376 0.38267 -0.01868
 C44 C 0.44577 0.40219 -0.00509
 N45 N 0.45391 0.43093 0.03363
 C46 C 0.47617 0.39372 -0.02620
 C47 C 0.51877 0.42125 -0.01549
 C48 C 0.54922 0.41001 -0.01394
 C49 C 0.58685 0.44659 -0.01336
 C50 C 0.57803 0.47891 -0.01562
 N51 N 0.53630 0.46331 -0.01599
 C52 C 0.60726 0.52151 -0.02619
 C53 C 0.59986 0.55282 -0.00425
 C54 C 0.61959 0.59506 -0.01775
 C55 C 0.60235 0.61308 0.01402
 C56 C 0.57207 0.58141 0.04515
 N57 N 0.57112 0.54515 0.03442
 C58 C 0.54623 0.58606 0.08273
 H59 H 0.49577 0.57843 0.17408
 H60 H 0.42364 0.50794 0.17376
 H61 H 0.55336 0.51707 0.05500
 H62 H 0.35378 0.39259 0.01244
 H63 H 0.38732 0.35873 -0.04861
 H64 H 0.54464 0.37870 -0.01479
 H65 H 0.61728 0.44915 -0.01318
 H66 H 0.61032 0.64554 0.01305
 H67 H 0.48200 0.44804 0.05436
 H68 H 0.64294 0.61171 -0.04808
 C69 C 0.55390 1.06971 -0.14052
 C70 C 0.51747 1.07054 -0.13869
 C71 C 0.50079 1.05644 -0.08812
 N72 N 0.52575 1.04709 -0.05872
 C73 C 0.55862 1.05575 -0.09061
 C74 C 0.46525 1.05643 -0.06814
 C75 C 0.44078 1.02937 -0.02655
 C76 C 0.40768 1.02984 -0.00144
 C77 C 0.39064 0.99644 0.03354
 C78 C 0.41442 0.97705 0.02952
 N79 N 0.44449 0.99708 -0.00769
 C80 C 0.40673 0.94041 0.05713
 C81 C 0.43676 0.92728 0.06223
 C82 C 0.43029 0.89233 0.09086
 C83 C 0.46682 0.89161 0.08925
 C84 C 0.49500 0.92614 0.05963
 N85 N 0.47669 0.94832 0.04393
 C86 C 0.53760 0.93797 0.05163
 C87 C 0.56633 0.97380 0.02237
 C88 C 0.60945 0.99243 0.02522
 C89 C 0.62581 1.02584 -0.00967
 C90 C 0.59226 1.02610 -0.03417
 N91 N 0.55618 0.99412 -0.01444
 C92 C 0.59473 1.05495 -0.07371
 H93 H 0.57483 1.07874 -0.17457
 H94 H 0.50469 1.08050 -0.17080
 H95 H 0.52627 0.98446 -0.02862
 H96 H 0.39646 1.05145 -0.00814
 H97 H 0.36375 0.98768 0.05875
 H98 H 0.40270 0.87021 0.11264
 H99 H 0.47207 0.86881 0.10958
 H100 H 0.65873 1.04749 -0.01541
 H101 H 0.46354 0.98660 -0.02363
 H102 H 0.62754 0.98355 0.05039
 C103 C 1.05927 0.55147 0.35440
 C104 C 1.05993 0.51490 0.35420
 C105 C 1.05133 0.49970 0.40634
 N106 N 1.04475 0.52533 0.43844
 C107 C 1.05019 0.55730 0.40662
 C108 C 1.05370 0.46483 0.42472
 C109 C 1.02658 0.43914 0.46598
 C110 C 1.02830 0.40699 0.49244
 C111 C 0.99528 0.38979 0.52787
 C112 C 0.97500 0.41264 0.52332
 N113 N 0.99395 0.44219 0.48513
 C114 C 0.93871 0.40471 0.55179
 C115 C 0.92541 0.43458 0.55787
 C116 C 0.89047 0.42751 0.58684
 C117 C 0.88976 0.46412 0.58685
 C118 C 0.92428 0.49296 0.55787
 N119 N 0.94645 0.47494 0.54088
 C120 C 0.93616 0.53585 0.55173
 C121 C 0.97194 0.56511 0.52300
 C122 C 0.99095 0.60830 0.52718
 C123 C 1.02410 0.62506 0.49189
 C124 C 1.02371 0.59164 0.46597
 N125 N 0.99173 0.55536 0.48513
 C126 C 1.05154 0.59399 0.42532
 H127 H 1.06528 0.57188 0.32025
 H128 H 1.06644 0.50116 0.31980
 H129 H 0.98176 0.52561 0.46986
 H130 H 1.05085 0.39684 0.48759
 H131 H 0.98772 0.36378 0.55437
 H132 H 0.86836 0.39945 0.60787
 H133 H 0.86701 0.46897 0.60788
 H134 H 1.04585 0.65805 0.48668
 H135 H 0.98289 0.46094 0.46955
 H136 H 0.98246 0.62616 0.55337
 C137 C 0.51561 0.44779 0.64543
 C138 C 0.55259 0.48498 0.64573
 C139 C 0.55172 0.50756 0.60177
 N140 N 0.51521 0.48556 0.57483
 C141 C 0.49326 0.44879 0.60130
 C142 C 0.58626 0.54524 0.58326
 C143 C 0.58189 0.57145 0.54594
 C144 C 0.61357 0.60197 0.51489
 C145 C 0.59555 0.61945 0.48338
 C146 C 0.55352 0.59947 0.49692
 N147 N 0.54576 0.57065 0.53545
 C148 C 0.52287 0.60747 0.47525
 C149 C 0.48012 0.57960 0.48502
 C150 C 0.44886 0.58971 0.48143
 C151 C 0.41170 0.55260 0.48160
 C152 C 0.42160 0.52114 0.48521
 N153 N 0.46340 0.53771 0.48789
 C154 C 0.39360 0.47831 0.47551
 C155 C 0.40160 0.44751 0.49673
 C156 C 0.38162 0.40546 0.48279
 C157 C 0.39912 0.38725 0.51390
 C158 C 0.42963 0.41883 0.54515
 N159 N 0.43043 0.45509 0.53513
 C160 C 0.45578 0.41423 0.58231
 H161 H 0.50656 0.42250 0.67383
 H162 H 0.57770 0.49399 0.67438
 H163 H 0.44796 0.48304 0.55608
 H164 H 0.64600 0.61005 0.51402
 H165 H 0.61172 0.64351 0.45354
 H166 H 0.45262 0.62055 0.47683
 H167 H 0.38098 0.54899 0.47715
 H168 H 0.39103 0.35477 0.51264
 H169 H 0.51777 0.55310 0.55618
 H170 H 0.35755 0.38942 0.45291
 C171 C 0.44684 -0.06194 0.35548
 C172 C 0.48352 -0.06226 0.35497
 C173 C 0.49897 -0.05346 0.40702
 N174 N 0.47339 -0.04704 0.43933
 C175 C 0.44120 -0.05283 0.40776
 C176 C 0.53411 -0.05542 0.42506
 C177 C 0.55974 -0.02826 0.46639
 C178 C 0.59201 -0.02983 0.49263
 C179 C 0.60917 0.00322 0.52816
 C180 C 0.58620 0.02338 0.52387
 N181 N 0.55658 0.00431 0.48578
 C182 C 0.59408 0.05967 0.55252
 C183 C 0.56420 0.07286 0.55875
 C184 C 0.57119 0.10782 0.58784
 C185 C 0.53460 0.10842 0.58789
 C186 C 0.50584 0.07382 0.55883
 N187 N 0.52390 0.05170 0.54175
 C188 C 0.46301 0.06182 0.55272
 C189 C 0.43375 0.02585 0.52418
 C190 C 0.39065 0.00677 0.52851
 C191 C 0.37384 -0.02654 0.49335
 C192 C 0.40712 -0.02619 0.46732
 N193 N 0.44339 0.00593 0.48634
 C194 C 0.40464 -0.05413 0.42663
 H195 H 0.42632 -0.06809 0.32145
 H196 H 0.49720 -0.06861 0.32040
 H197 H 0.47304 0.01593 0.47095
 H198 H 0.60225 -0.05232 0.48759
 H199 H 0.63525 0.01088 0.55454
 H200 H 0.59920 0.13000 0.60891
 H201 H 0.52970 0.13115 0.60904
 H202 H 0.34089 -0.04837 0.48827
 H203 H 0.53770 0.01526 0.47035
 H204 H 0.37287 0.01533 0.55472
 O205 O 0.16726 0.40093 0.19773
 O206 O 0.23928 0.41014 0.30807
 O207 O 0.16728 0.40727 0.30138
 O208 O 0.24061 0.40248 0.20329
 O209 O 0.27220 0.47110 0.19388
 O210 O 0.20162 0.47597 0.29172
 O211 O 0.27302 0.47863 0.29628
 O212 O 0.20224 0.46968 0.18859
 Cu213 Cu 0.20032 0.39805 0.25299
 Cu214 Cu 0.24049 0.48060 0.24194
 C215 C 0.17227 0.43413 0.17542
 C216 C 0.26882 0.44646 0.32023
 C217 C 0.17213 0.44300 0.31254
 C218 C 0.26929 0.43631 0.18271
 O219 O 0.59990 0.76053 0.20208
 O220 O 0.59366 0.83319 0.30010
 O221 O 0.59118 0.76137 0.30675
 O222 O 0.60037 0.83361 0.19653
 O223 O 0.53181 0.79807 0.18657
 O224 O 0.52290 0.72703 0.29400
 O225 O 0.52515 0.79828 0.28969
 O226 O 0.53147 0.72846 0.19166
 Cu227 Cu 0.60343 0.80051 0.25174
 Cu228 Cu 0.52111 0.75967 0.23966
 C229 C 0.56641 0.73169 0.18104
 C230 C 0.55781 0.82788 0.31099
 C231 C 0.55494 0.73153 0.31849
 C232 C 0.56724 0.82840 0.17389
 O233 O 0.16346 0.76369 0.29747
 O234 O 0.23473 0.83750 0.19384
 O235 O 0.16187 0.76495 0.19296
 O236 O 0.23516 0.83500 0.29813
 O237 O 0.26850 0.79959 0.29206
 O238 O 0.19765 0.73189 0.18800
 O239 O 0.26710 0.80106 0.18877
 O240 O 0.19823 0.72971 0.29143
 Cu241 Cu 0.19525 0.80387 0.24571
 Cu242 Cu 0.23619 0.76212 0.23993
 C243 C 0.16884 0.73362 0.31129
 C244 C 0.26336 0.83188 0.17449
 C245 C 0.16731 0.73623 0.17329
 C246 C 0.26489 0.82917 0.31209
 O247 O 0.76008 0.58879 0.80832
 O248 O 0.83242 0.59829 0.69823
 O249 O 0.75971 0.59804 0.70372
 O250 O 0.83245 0.59231 0.80183
 O251 O 0.79856 0.52374 0.79078
 O252 O 0.72733 0.52938 0.69450
 O253 O 0.79676 0.52965 0.68786
 O254 O 0.72716 0.52027 0.79710
 Cu255 Cu 0.79942 0.60150 0.75345
 Cu256 Cu 0.75913 0.51904 0.74172
 C257 C 0.73116 0.55231 0.82117
 C258 C 0.82707 0.56514 0.67531
 C259 C 0.73071 0.56437 0.68327
 C260 C 0.82784 0.55658 0.81219
 O261 O 0.40521 0.16673 0.80039
 O262 O 0.40132 0.23989 0.70144
 O263 O 0.40028 0.16667 0.69675
 O264 O 0.40865 0.23913 0.80623
 O265 O 0.47709 0.27308 0.79518
 O266 O 0.46906 0.20115 0.68968
 O267 O 0.46984 0.27127 0.69271
 O268 O 0.47401 0.20170 0.79365
 Cu269 Cu 0.39673 0.19981 0.75140
 Cu270 Cu 0.47923 0.23995 0.74202
 C271 C 0.44072 0.17218 0.81377
 C272 C 0.43521 0.26849 0.68108
 C273 C 0.43369 0.17134 0.67573
 C274 C 0.44482 0.26884 0.81864
 O275 O 0.76499 0.16123 0.69227
 O276 O 0.83592 0.23513 0.79633
 O277 O 0.76408 0.16376 0.79666
 O278 O 0.83761 0.23384 0.69193
 O279 O 0.80161 0.26665 0.68637
 O280 O 0.73099 0.19943 0.79077
 O281 O 0.80130 0.26924 0.78967
 O282 O 0.73231 0.19737 0.68725
 Cu283 Cu 0.80417 0.19488 0.74450
 Cu284 Cu 0.76317 0.23656 0.73835
 C285 C 0.73633 0.16675 0.67276
 C286 C 0.83067 0.26536 0.80978
 C287 C 0.73455 0.16982 0.81082
 C288 C 0.83208 0.26243 0.67201
 N289 N 0.07514 0.42124 0.11933
 C290 C 0.08967 0.44839 0.07734
 N291 N 0.13069 0.46656 0.06427
 N292 N 0.15659 0.45941 0.09346
 C293 C 0.14234 0.43304 0.13609
 N294 N 0.10101 0.41360 0.14811
 N295 N 0.59201 0.65475 0.12598
 C296 C 0.55594 0.62843 0.09978
 N297 N 0.52592 0.63906 0.09572
 N298 N 0.53087 0.67368 0.11878
 C299 C 0.56614 0.69930 0.14659
 N300 N 0.59702 0.68963 0.14908
 N301 N 0.34199 0.87307 0.06855
 C302 C 0.36522 0.91401 0.08238
 N303 N 0.35179 0.92869 0.12325
 N304 N 0.31701 0.90306 0.15013
 C305 C 0.29458 0.86184 0.13723
 N306 N 0.30765 0.84741 0.09587
 N307 N 0.92421 0.57774 0.61973
 C308 C 0.90967 0.55042 0.57789
 N309 N 0.86864 0.53223 0.56471
 N310 N 0.84277 0.53955 0.59365
 C311 C 0.85703 0.56611 0.63613
 N312 N 0.89836 0.58554 0.64827
 N313 N 0.47694 0.36195 0.59701
 C314 C 0.44637 0.37193 0.59935
 N315 N 0.40978 0.34498 0.62394
 N316 N 0.40474 0.31015 0.64716
 C317 C 0.43610 0.30112 0.64645
 N318 N 0.47195 0.32736 0.62022
 N319 N 0.65935 0.12640 0.56463
 C320 C 0.63557 0.08547 0.57818
 N321 N 0.64812 0.07047 0.61968
 N322 N 0.68258 0.09579 0.64742
 C323 C 0.70553 0.13702 0.63481
 N324 N 0.69336 0.15176 0.59279
 N325 N 0.48768 0.12742 0.90108
 C326 C 0.45583 0.08777 0.90877
 N327 N 0.41758 0.07676 0.88841
 N328 N 0.41188 0.10427 0.86026
 C329 C 0.44430 0.14354 0.85126
 N330 N 0.48208 0.15468 0.87279
 N331 N 0.63841 0.49949 0.90611
 C332 C 0.64044 0.53062 0.93735
 N333 N 0.67377 0.56980 0.93043
 N334 N 0.70322 0.57730 0.89394
 C335 C 0.70054 0.54570 0.86308
 N336 N 0.66767 0.50673 0.87011
 N337 N 0.88164 0.36443 0.88210
 C338 C 0.91728 0.36701 0.90102
 N339 N 0.92272 0.33351 0.89374
 N340 N 0.89451 0.29990 0.86646
 C341 C 0.85961 0.29844 0.84632
 N342 N 0.85354 0.33105 0.85547
 N343 N 0.50858 0.87892 0.38033
 C344 C 0.54142 0.91406 0.40107
 N345 N 0.58033 0.91927 0.39529
 N346 N 0.58600 0.89131 0.36809
 C347 C 0.55287 0.85688 0.34631
 N348 N 0.51413 0.85105 0.35361
 N349 N 0.36697 0.49550 0.39507
 C350 C 0.35989 0.46790 0.43525
 N351 N 0.32220 0.43196 0.43707
 N352 N 0.29288 0.42433 0.40025
 C353 C 0.30017 0.45264 0.36077
 N354 N 0.33773 0.48821 0.35894
 N355 N 0.07674 0.66553 0.39484
 C356 C 0.08242 0.63223 0.40266
 N357 N 0.11827 0.63500 0.38438
 N358 N 0.14634 0.66836 0.35776
 C359 C 0.14001 0.70073 0.34800
 N360 N 0.10492 0.69910 0.36758
 N361 N 0.88055 0.50828 0.87968
 C362 C 0.91535 0.54137 0.90066
 N363 N 0.91978 0.58010 0.89565
 N364 N 0.89139 0.58538 0.86897
 C365 C 0.85730 0.55202 0.84697
 N366 N 0.85226 0.51344 0.85349
 N367 N 0.42892 0.32316 0.93329
 C368 C 0.46593 0.35989 0.93376
 N369 N 0.49480 0.36597 0.89591
 N370 N 0.48757 0.33675 0.85973
 C371 C 0.45087 0.30018 0.85920
 N372 N 0.42141 0.29384 0.89646
 N373 N 0.66456 0.07716 0.89229
 C374 C 0.63325 0.08519 0.90354
 N375 N 0.63826 0.12278 0.88859
 N376 N 0.67171 0.15026 0.86160
 C377 C 0.70199 0.14161 0.84831
 N378 N 0.69825 0.10478 0.86480
 N379 N 0.11956 0.49112 0.38072
 C380 C 0.08463 0.45797 0.40125
 N381 N 0.08007 0.41921 0.39578
 N382 N 0.10846 0.41399 0.36905
 C383 C 0.14269 0.44743 0.34750
 N384 N 0.14786 0.48603 0.35451
 N385 N 0.50579 0.63370 0.39431
 C386 C 0.53335 0.64098 0.43460
 N387 N 0.56930 0.67869 0.43615
 N388 N 0.57698 0.70782 0.39897
 C389 C 0.54874 0.70032 0.35935
 N390 N 0.51314 0.66274 0.35780
 N391 N 0.36336 0.87911 0.38540
 C392 C 0.36637 0.91509 0.40389
 N393 N 0.33328 0.92104 0.39617
 N394 N 0.29967 0.89300 0.36882
 C395 C 0.29778 0.85776 0.34905
 N396 N 0.32996 0.85116 0.35870
 N397 N 0.53433 0.87040 0.06364
 C398 C 0.55258 0.91148 0.07696
 N399 N 0.57992 0.92591 0.11875
 N400 N 0.58770 0.89990 0.14710
 C401 C 0.56820 0.85853 0.13486
 N402 N 0.54163 0.84438 0.09239
 N403 N 0.34543 0.41073 0.12501
 C404 C 0.37220 0.44738 0.10025
 N405 N 0.36228 0.47802 0.09819
 N406 N 0.32788 0.47303 0.12174
 C407 C 0.30180 0.43712 0.14809
 N408 N 0.31080 0.40569 0.14863
 N409 N 0.07143 0.64808 0.11946
 C410 C 0.08656 0.63571 0.07794
 N411 N 0.12743 0.65968 0.06457
 N412 N 0.15262 0.69367 0.09294
 C413 C 0.13776 0.70566 0.13498
 N414 N 0.09658 0.68252 0.14741
 N415 N 0.46671 0.12950 0.56554
 C416 C 0.44850 0.08842 0.57876
 N417 N 0.42127 0.07395 0.62060
 N418 N 0.41354 0.09992 0.64906
 C419 C 0.43295 0.14129 0.63685
 N420 N 0.45946 0.15550 0.59442
 N421 N 0.63842 0.52405 0.59750
 C422 C 0.62836 0.55457 0.60063
 N423 N 0.65489 0.59078 0.62648
 N424 N 0.68941 0.59547 0.65011
 C425 C 0.69848 0.56410 0.64859
 N426 N 0.67267 0.52868 0.62113
 N427 N 0.92805 0.35071 0.61900
 C428 C 0.91303 0.36317 0.57742
 N429 N 0.87221 0.33921 0.56370
 N430 N 0.84696 0.30512 0.59181
 C431 C 0.86171 0.29305 0.63392
 N432 N 0.90284 0.31618 0.64669
   
