data_POSCAR
  _audit_creation_date              2014-09-24
  _audit_creation_method            'ToBaCCo'
  _symmetry_space_group_name_H-M    'P1'
  _symmetry_Int_Tables_number       1
  _symmetry_cell_setting            triclinic
  loop_
  _symmetry_equiv_pos_as_xyz
 x,y,z
_cell_length_a 39.4803
_cell_length_b 39.4275
_cell_length_c 39.4715
_cell_angle_alpha 89.977100
_cell_angle_beta 90.004300
_cell_angle_gamma 89.931300
loop_
  _atom_site_label
  _atom_site_type_symbol
  _atom_site_fract_x
  _atom_site_fract_y
  _atom_site_fract_z
O1 O 0.22149 1.03621 0.46608
 O2 O 0.22155 0.96925 0.53116
 O3 O 0.22233 1.03526 0.53183
 O4 O 0.22065 0.96990 0.46513
 O5 O 0.27649 0.96869 0.46481
 O6 O 0.27812 1.03477 0.53074
 O7 O 0.27741 0.96878 0.53071
 O8 O 0.27736 1.03452 0.46446
 Cu9 Cu 0.21591 1.00271 0.49858
 Cu10 Cu 0.28294 1.00167 0.49762
 C11 C 0.24943 1.04668 0.45405
 C12 C 0.24950 0.95766 0.54220
 C13 C 0.25053 1.04629 0.54278
 C14 C 0.24829 0.95800 0.45363
 O15 O 0.72028 -0.03341 0.46885
 O16 O 0.72225 0.03066 0.53661
 O17 O 0.72121 0.03260 0.47063
 O18 O 0.72140 -0.03509 0.53498
 O19 O 0.77721 -0.03453 0.53542
 O20 O 0.77697 0.03000 0.46795
 O21 O 0.77809 0.03166 0.53386
 O22 O 0.77614 -0.03606 0.46975
 Cu23 Cu 0.71567 -0.00124 0.50282
 Cu24 Cu 0.78271 -0.00229 0.50166
 C25 C 0.74787 -0.04602 0.45807
 C26 C 0.75051 0.04238 0.54652
 C27 C 0.74906 0.04263 0.45801
 C28 C 0.74934 -0.04620 0.54658
 O29 O 0.27914 0.46740 0.96618
 O30 O 0.27808 0.53496 1.03057
 O31 O 0.27855 0.46870 1.03188
 O32 O 0.27860 0.53344 0.96465
 O33 O 0.22274 0.53479 0.96594
 O34 O 0.22279 0.46709 1.03018
 O35 O 0.22222 0.53285 1.03190
 O36 O 0.22328 0.46882 0.96402
 Cu37 Cu 0.28420 0.50119 0.99839
 Cu38 Cu 0.21715 0.50083 0.99794
 C39 C 0.25138 0.45687 0.95381
 C40 C 0.24998 0.54513 1.04253
 C41 C 0.25067 0.45647 1.04236
 C42 C 0.25067 0.54545 0.95403
 O43 O 0.46908 0.22262 1.03283
 O44 O 0.53629 0.22260 0.96821
 O45 O 0.53531 0.22219 1.03388
 O46 O 0.47038 0.22294 0.96683
 O47 O 0.47009 0.27887 0.96754
 O48 O 0.53544 0.27807 1.03431
 O49 O 0.53601 0.27857 0.96804
 O50 O 0.46972 0.27857 1.03359
 Cu51 Cu 0.50270 0.21699 1.00045
 Cu52 Cu 0.50286 0.28412 1.00088
 C53 C 0.45799 0.25059 1.04436
 C54 C 0.54755 0.25059 0.95696
 C55 C 0.54662 0.25000 1.04562
 C56 C 0.45912 0.25101 0.95567
 O57 O 0.46666 0.72162 -0.03379
 O58 O 0.53144 0.72087 0.03327
 O59 O 0.46562 0.72149 0.03213
 O60 O 0.53269 0.72103 -0.03285
 O61 O 0.53270 0.77691 -0.03325
 O62 O 0.46663 0.77741 0.03267
 O63 O 0.53264 0.77682 0.03260
 O64 O 0.46680 0.77756 -0.03339
 Cu65 Cu 0.49908 0.71565 -0.00035
 Cu66 Cu 0.49971 0.78277 -0.00033
 C67 C 0.45552 0.74972 -0.04499
 C68 C 0.54319 0.74873 0.04434
 C69 C 0.45474 0.74955 0.04365
 C70 C 0.54418 0.74889 -0.04433
 O71 O 1.03020 0.46693 0.22002
 O72 O 0.96514 0.53384 0.22157
 O73 O 1.03096 0.53311 0.22049
 O74 O 0.96407 0.46789 0.22127
 O75 O 0.96703 0.46563 0.27707
 O76 O 1.03046 0.53411 0.27630
 O77 O 0.96450 0.53177 0.27743
 O78 O 1.03281 0.46820 0.27584
 Cu79 Cu 0.99752 0.50044 0.21523
 Cu80 Cu 0.99877 0.49990 0.28226
 C81 C 1.04294 0.45640 0.24766
 C82 C 0.95344 0.54401 0.24977
 C83 C 1.04192 0.54517 0.24829
 C84 C 0.95441 0.45535 0.24930
 O85 O -0.03221 0.46747 0.72250
 O86 O 0.03355 0.53355 0.72189
 O87 O 0.03382 0.46743 0.72175
 O88 O -0.03236 0.53342 0.72259
 O89 O -0.03222 0.53281 0.77840
 O90 O 0.03502 0.46788 0.77761
 O91 O 0.03379 0.53381 0.77776
 O92 O -0.03082 0.46661 0.77838
 Cu93 Cu 0.00065 0.50047 0.71659
 Cu94 Cu 0.00147 0.50029 0.78363
 C95 C -0.04265 0.45561 0.75054
 C96 C 0.04487 0.54508 0.74972
 C97 C 0.04586 0.45644 0.74954
 C98 C -0.04378 0.54442 0.75063
 O99 O 0.46380 0.96733 0.27901
 O100 O 0.53021 1.03290 0.27963
 O101 O 0.46418 1.03350 0.27915
 O102 O 0.52960 0.96691 0.27967
 O103 O 0.52936 0.96642 0.22379
 O104 O 0.46538 1.03425 0.22334
 O105 O 0.53113 1.03246 0.22377
 O106 O 0.46342 0.96835 0.22312
 Cu107 Cu 0.49688 1.00018 0.28497
 Cu108 Cu 0.49738 1.00036 0.21791
 C109 C 0.45218 0.95670 0.25095
 C110 C 0.54215 1.04382 0.25179
 C111 C 0.45365 1.04549 0.25115
 C112 C 0.54055 0.95512 0.25179
 O113 O 1.03666 0.22164 0.53183
 O114 O 0.96858 0.22138 0.46802
 O115 O 1.03451 0.22192 0.46607
 O116 O 0.97058 0.22078 0.53390
 O117 O 0.96949 0.27671 0.53385
 O118 O 1.03422 0.27786 0.46684
 O119 O 0.96831 0.27733 0.46796
 O120 O 1.03508 0.27760 0.53307
 Cu121 Cu 1.00265 0.21581 0.49993
 Cu122 Cu 1.00176 0.28299 0.50043
 C123 C 1.04730 0.24969 0.54354
 C124 C 0.95687 0.24931 0.45697
 C125 C 1.04536 0.25008 0.45487
 C126 C 0.95902 0.24855 0.54543
 O127 O -0.03386 0.72236 0.53321
 O128 O 0.03203 0.72308 0.46724
 O129 O 0.03227 0.72300 0.53295
 O130 O -0.03386 0.72265 0.46729
 O131 O -0.03502 0.77858 0.46801
 O132 O 0.03189 0.77896 0.53291
 O133 O 0.03085 0.77903 0.46673
 O134 O -0.03384 0.77831 0.53397
 Cu135 Cu -0.00083 0.71716 0.50019
 Cu136 Cu -0.00156 0.78434 0.50041
 C137 C -0.04504 0.75019 0.54499
 C138 C 0.04259 0.75116 0.45557
 C139 C 0.04347 0.75105 0.54410
 C140 C -0.04582 0.75055 0.45644
 O141 O 0.77866 0.46578 1.03453
 O142 O 0.77864 0.53256 0.96938
 O143 O 0.77790 0.53173 1.03521
 O144 O 0.77929 0.46648 0.96859
 O145 O 0.72342 0.46563 0.96832
 O146 O 0.72204 0.53154 1.03422
 O147 O 0.72278 0.53145 0.96819
 O148 O 0.72279 0.46548 1.03409
 Cu149 Cu 0.78424 0.49919 1.00198
 Cu150 Cu 0.71715 0.49851 1.00118
 C151 C 0.75071 0.45421 1.04550
 C152 C 0.75071 0.54334 0.95754
 C153 C 0.74972 0.54287 1.04607
 C154 C 0.75159 0.45480 0.95712
 O155 O 0.46749 1.03316 0.77703
 O156 O 0.53379 0.96744 0.77797
 O157 O 0.53344 1.03347 0.77774
 O158 O 0.46768 0.96743 0.77709
 O159 O 0.46806 0.96768 0.72119
 O160 O 0.53488 1.03267 0.72189
 O161 O 0.53380 0.96663 0.72208
 O162 O 0.46906 1.03398 0.72123
 Cu163 Cu 0.50057 1.00036 0.78306
 Cu164 Cu 0.50149 1.00024 0.71599
 C165 C 0.45699 1.04505 0.74898
 C166 C 0.54501 0.95564 0.75019
 C167 C 0.54550 1.04433 0.74994
 C168 C 0.45651 0.95635 0.74902
 C169 C 0.24965 0.22644 0.27305
 C170 C 0.22424 0.25178 0.27244
 C171 C 0.22454 0.27690 0.24694
 C172 C 0.25011 0.27677 0.22200
 C173 C 0.27543 0.25155 0.22252
 C174 C 0.27527 0.22642 0.24800
 C175 C 0.74578 0.77369 0.27796
 C176 C 0.72051 0.77336 0.25254
 C177 C 0.72095 0.74808 0.22723
 C178 C 0.74644 0.72302 0.22730
 C179 C 0.77165 0.72327 0.25260
 C180 C 0.77143 0.74860 0.27786
 C181 C 0.75352 0.22273 0.72655
 C182 C 0.77899 0.24795 0.72667
 C183 C 0.77889 0.27340 0.75181
 C184 C 0.75355 0.27364 0.77696
 C185 C 0.72818 0.24852 0.77697
 C186 C 0.72803 0.22313 0.75176
 C187 C 0.25024 0.77677 0.72307
 C188 C 0.22497 0.75151 0.72320
 C189 C 0.22503 0.72619 0.74847
 C190 C 0.25039 0.72615 0.77364
 C191 C 0.27567 0.75140 0.77355
 C192 C 0.27559 0.77669 0.74825
 C193 C 0.22849 0.25111 0.72280
 C194 C 0.25392 0.22581 0.72288
 C195 C 0.27925 0.22596 0.74810
 C196 C 0.27937 0.25132 0.77334
 C197 C 0.25399 0.27671 0.77340
 C198 C 0.22851 0.27658 0.74810
 C199 C 0.77542 0.74888 0.72634
 C200 C 0.75009 0.77417 0.72637
 C201 C 0.72486 0.77417 0.75170
 C202 C 0.72492 0.74887 0.77700
 C203 C 0.75031 0.72362 0.77696
 C204 C 0.77557 0.72359 0.75165
 C205 C 0.22085 0.75127 0.27298
 C206 C 0.22087 0.72590 0.24770
 C207 C 0.24639 0.72575 0.22248
 C208 C 0.27179 0.75110 0.22270
 C209 C 0.27152 0.77648 0.24796
 C210 C 0.24610 0.77656 0.27308
 C211 C 0.77463 0.24872 0.27753
 C212 C 0.77475 0.27409 0.25213
 C213 C 0.74944 0.27389 0.22672
 C214 C 0.72420 0.24853 0.22672
 C215 C 0.72419 0.22328 0.25203
 C216 C 0.74935 0.22336 0.27740
 C217 C 0.24937 0.12357 0.37713
 C218 C 0.22297 0.12203 0.40082
 C219 C 0.22277 0.09675 0.42566
 C220 C 0.24944 0.07319 0.42765
 C221 C 0.27609 0.07511 0.40413
 C222 C 0.27583 0.09988 0.37878
 C223 C 0.24930 0.14983 0.35061
 C224 C 0.24601 0.14067 0.31646
 C225 C 0.24561 0.16560 0.29131
 C226 C 0.24944 0.19994 0.29991
 C227 C 0.25313 0.20900 0.33412
 C228 C 0.25260 0.18414 0.35935
 H229 H 0.20202 0.09587 0.44359
 H230 H 0.29684 0.05715 0.40504
 H231 H 0.24237 0.15816 0.26511
 H232 H 0.25642 0.23531 0.34123
 H233 H 0.29641 0.10082 0.36066
 H234 H 0.24330 0.11428 0.30937
 H235 H 0.20235 0.14016 0.39979
 H236 H 0.25529 0.19155 0.38563
 C237 C 0.74598 0.87700 0.38141
 C238 C 0.77255 0.87810 0.40494
 C239 C 0.77335 0.90342 0.42969
 C240 C 0.74714 0.92747 0.43175
 C241 C 0.72031 0.92600 0.40841
 C242 C 0.71996 0.90117 0.38313
 C243 C 0.74552 0.85069 0.35500
 C244 C 0.74868 0.85972 0.32079
 C245 C 0.74913 0.83467 0.29577
 C246 C 0.74548 0.80037 0.30459
 C247 C 0.74178 0.79146 0.33884
 C248 C 0.74227 0.81643 0.36392
 H249 H 0.79422 0.90394 0.44750
 H250 H 0.69990 0.94435 0.40940
 H251 H 0.75239 0.84200 0.26954
 H252 H 0.73865 0.76516 0.34610
 H253 H 0.69927 0.90057 0.36511
 H254 H 0.75140 0.88608 0.31356
 H255 H 0.79284 0.85961 0.40385
 H256 H 0.73971 0.80912 0.39025
 C257 C 0.75248 0.11906 0.62348
 C258 C 0.72597 0.09546 0.62243
 C259 C 0.72513 0.07071 0.59712
 C260 C 0.75126 0.06870 0.57303
 C261 C 0.77804 0.09210 0.57446
 C262 C 0.77841 0.11739 0.59927
 C263 C 0.75298 0.14550 0.64975
 C264 C 0.74989 0.17976 0.64071
 C265 C 0.74965 0.20482 0.66570
 C266 C 0.75344 0.19601 0.69997
 C267 C 0.75701 0.16172 0.70890
 C268 C 0.75632 0.13658 0.68398
 H269 H 0.70431 0.05285 0.59663
 H270 H 0.79838 0.09115 0.55607
 H271 H 0.74649 0.23110 0.65836
 H272 H 0.76024 0.15447 0.73516
 H273 H 0.79906 0.13545 0.59983
 H274 H 0.74712 0.18698 0.61438
 H275 H 0.70574 0.09652 0.64095
 H276 H 0.75882 0.11022 0.69130
 C277 C 0.24975 0.88033 0.61933
 C278 C 0.28035 0.89352 0.60683
 C279 C 0.28026 0.91858 0.58178
 C280 C 0.24956 0.93104 0.56868
 C281 C 0.21895 0.91784 0.58118
 C282 C 0.21905 0.89277 0.60623
 C283 C 0.24986 0.85373 0.64597
 C284 C 0.22632 0.85482 0.67271
 C285 C 0.22651 0.82983 0.69780
 C286 C 0.25014 0.80333 0.69652
 C287 C 0.27363 0.80204 0.66996
 C288 C 0.27354 0.82706 0.64489
 H289 H 0.30428 0.92828 0.57279
 H290 H 0.19487 0.92681 0.57155
 H291 H 0.20833 0.83116 0.71831
 H292 H 0.29189 0.78157 0.66862
 H293 H 0.19507 0.88280 0.61503
 H294 H 0.20808 0.87527 0.67449
 H295 H 0.30440 0.88478 0.61675
 H296 H 0.29168 0.82527 0.62440
 C297 C 0.38011 0.25092 0.12050
 C298 C 0.38667 0.22149 0.10158
 C299 C 0.41216 0.22127 0.07701
 C300 C 0.43123 0.25065 0.07057
 C301 C 0.42447 0.28015 0.08939
 C302 C 0.39932 0.28021 0.11428
 C303 C 0.35326 0.25111 0.14665
 C304 C 0.35978 0.26431 0.17907
 C305 C 0.33448 0.26430 0.20381
 C306 C 0.30225 0.25152 0.19631
 C307 C 0.29552 0.23860 0.16394
 C308 C 0.32094 0.23817 0.13933
 H309 H 0.41675 0.19818 0.06287
 H310 H 0.43880 0.30315 0.08505
 H311 H 0.33993 0.27431 0.22877
 H312 H 0.27067 0.22871 0.15789
 H313 H 0.39453 0.30328 0.12839
 H314 H 0.38458 0.27420 0.18535
 H315 H 0.37233 0.19853 0.10612
 H316 H 0.31526 0.22813 0.11443
 C317 C 0.37901 0.75062 0.87726
 C318 C 0.39240 0.78116 0.88977
 C319 C 0.41724 0.78087 0.91499
 C320 C 0.42924 0.75003 0.92827
 C321 C 0.41586 0.71949 0.91574
 C322 C 0.39102 0.71979 0.89052
 C323 C 0.35257 0.75093 0.85053
 C324 C 0.35355 0.72729 0.82387
 C325 C 0.32860 0.72753 0.79879
 C326 C 0.30227 0.75134 0.80000
 C327 C 0.30113 0.77498 0.82645
 C328 C 0.32610 0.77482 0.85152
 H329 H 0.42710 0.80484 0.92401
 H330 H 0.42448 0.69530 0.92550
 H331 H 0.32982 0.70924 0.77835
 H332 H 0.28077 0.79337 0.82774
 H333 H 0.38086 0.69586 0.88172
 H334 H 0.37386 0.70888 0.82218
 H335 H 0.38398 0.80531 0.87974
 H336 H 0.32440 0.79305 0.87196
 C337 C 0.61906 0.74810 0.12244
 C338 C 0.61338 0.77741 0.10305
 C339 C 0.58857 0.77768 0.07781
 C340 C 0.56932 0.74847 0.07116
 C341 C 0.57522 0.71906 0.09043
 C342 C 0.59969 0.71897 0.11601
 C343 C 0.64519 0.74792 0.14929
 C344 C 0.63760 0.73546 0.18177
 C345 C 0.66220 0.73571 0.20722
 C346 C 0.69478 0.74795 0.20035
 C347 C 0.70256 0.76009 0.16791
 C348 C 0.67786 0.76032 0.14260
 H349 H 0.58464 0.80069 0.06333
 H350 H 0.56072 0.69621 0.08593
 H351 H 0.65594 0.72627 0.23222
 H352 H 0.72770 0.76955 0.16235
 H353 H 0.60382 0.69600 0.13051
 H354 H 0.61251 0.72601 0.18755
 H355 H 0.62786 0.80025 0.10774
 H356 H 0.68434 0.76979 0.11768
 C357 C 0.62488 0.25016 0.88033
 C358 C 0.61855 0.22097 0.89966
 C359 C 0.59330 0.22106 0.92445
 C360 C 0.57425 0.25054 0.93072
 C361 C 0.58084 0.27985 0.91156
 C362 C 0.60575 0.27958 0.88640
 C363 C 0.65137 0.24988 0.85385
 C364 C 0.64433 0.26222 0.82119
 C365 C 0.66925 0.26151 0.79608
 C366 C 0.70163 0.24893 0.80345
 C367 C 0.70887 0.23689 0.83606
 C368 C 0.68383 0.23712 0.86104
 H369 H 0.58884 0.19812 0.93886
 H370 H 0.56650 0.30290 0.91578
 H371 H 0.66342 0.27089 0.77095
 H372 H 0.73385 0.22720 0.84202
 H373 H 0.61038 0.30246 0.87194
 H374 H 0.61941 0.27194 0.81502
 H375 H 0.63284 0.19792 0.89523
 H376 H 0.68988 0.22772 0.88611
 C377 C 0.12081 0.38010 0.24626
 C378 C 0.10093 0.38604 0.21736
 C379 C 0.07579 0.41104 0.21769
 C380 C 0.06976 0.43021 0.24710
 C381 C 0.08955 0.42407 0.27606
 C382 C 0.11499 0.39941 0.27556
 C383 C 0.14752 0.35376 0.24595
 C384 C 0.18006 0.36103 0.25840
 C385 C 0.20521 0.33610 0.25837
 C386 C 0.19802 0.30347 0.24633
 C387 C 0.16563 0.29606 0.23391
 C388 C 0.14058 0.32111 0.23350
 H389 H 0.06089 0.41516 0.19502
 H390 H 0.08554 0.43848 0.29907
 H391 H 0.23020 0.34208 0.26797
 H392 H 0.15983 0.27090 0.22455
 H393 H 0.12983 0.39508 0.29824
 H394 H 0.18607 0.38609 0.26786
 H395 H 0.10513 0.37160 0.19441
 H396 H 0.11561 0.31487 0.22401
 C397 C 0.88139 0.37759 0.75118
 C398 C 0.88705 0.39699 0.72190
 C399 C 0.91191 0.42218 0.72161
 C400 C 0.93123 0.42878 0.75078
 C401 C 0.92539 0.40947 0.78014
 C402 C 0.90086 0.38394 0.78025
 C403 C 0.85515 0.35086 0.75141
 C404 C 0.86259 0.31832 0.76395
 C405 C 0.83784 0.29302 0.76386
 C406 C 0.80524 0.30009 0.75169
 C407 C 0.79762 0.33257 0.73945
 C408 C 0.82247 0.35773 0.73907
 H409 H 0.91580 0.43669 0.69864
 H410 H 0.93995 0.41392 0.80296
 H411 H 0.84398 0.26799 0.77337
 H412 H 0.77247 0.33829 0.73006
 H413 H 0.89676 0.36944 0.80320
 H414 H 0.88767 0.31239 0.77336
 H415 H 0.87249 0.39236 0.69911
 H416 H 0.81609 0.38270 0.72956
 C417 C 0.12155 0.62265 0.74908
 C418 C 0.10809 0.61028 0.71853
 C419 C 0.08318 0.58513 0.71873
 C420 C 0.07117 0.57180 0.74949
 C421 C 0.08461 0.58421 0.78005
 C422 C 0.10952 0.60934 0.77983
 C423 C 0.14807 0.64928 0.74887
 C424 C 0.17454 0.64824 0.72502
 C425 C 0.19956 0.67325 0.72493
 C426 C 0.19848 0.69970 0.74858
 C427 C 0.17218 0.70095 0.77237
 C428 C 0.14718 0.67592 0.77255
 H429 H 0.07328 0.57621 0.69476
 H430 H 0.07599 0.57439 0.80417
 H431 H 0.21988 0.67194 0.70654
 H432 H 0.17101 0.72138 0.79066
 H433 H 0.11972 0.61804 0.80377
 H434 H 0.17616 0.62782 0.70677
 H435 H 0.11653 0.62035 0.69445
 H436 H 0.12689 0.67765 0.79093
 C437 C 0.87596 0.62068 0.25140
 C438 C 0.89529 0.61523 0.22205
 C439 C 0.92029 0.59014 0.22145
 C440 C 0.92678 0.57035 0.25037
 C441 C 0.90757 0.57600 0.27981
 C442 C 0.88222 0.60077 0.28023
 C443 C 0.84928 0.64703 0.25188
 C444 C 0.85612 0.67987 0.23988
 C445 C 0.83093 0.70476 0.24039
 C446 C 0.79848 0.69700 0.25245
 C447 C 0.79146 0.66423 0.26424
 C448 C 0.81677 0.63945 0.26420
 H449 H 0.93474 0.58642 0.19842
 H450 H 0.91196 0.56110 0.30245
 H451 H 0.83660 0.73003 0.23123
 H452 H 0.76643 0.65797 0.27356
 H453 H 0.86776 0.60469 0.30322
 H454 H 0.88107 0.68634 0.23050
 H455 H 0.89072 0.63012 0.19943
 H456 H 0.81086 0.61423 0.27332
 C457 C 0.12466 0.25006 0.61987
 C458 C 0.12263 0.22320 0.59670
 C459 C 0.09722 0.22288 0.57202
 C460 C 0.07402 0.24985 0.56969
 C461 C 0.07645 0.27693 0.59271
 C462 C 0.10135 0.27682 0.61788
 C463 C 0.15113 0.25019 0.64612
 C464 C 0.14239 0.24656 0.68035
 C465 C 0.16756 0.24640 0.70524
 C466 C 0.20169 0.25076 0.69627
 C467 C 0.21031 0.25484 0.66199
 C468 C 0.18523 0.25410 0.63703
 H469 H 0.09596 0.20179 0.55450
 H470 H 0.05876 0.29792 0.59155
 H471 H 0.16046 0.24296 0.73152
 H472 H 0.23645 0.25860 0.65462
 H473 H 0.10269 0.29775 0.63561
 H474 H 0.11614 0.24344 0.68770
 H475 H 0.14049 0.20236 0.59799
 H476 H 0.19231 0.25709 0.61069
 C477 C 0.87848 0.74938 0.62262
 C478 C 0.88540 0.71995 0.60381
 C479 C 0.91043 0.72013 0.57877
 C480 C 0.92870 0.74988 0.57172
 C481 C 0.92160 0.77937 0.59044
 C482 C 0.89690 0.77905 0.61579
 C483 C 0.85209 0.74915 0.64926
 C484 C 0.85874 0.76307 0.68136
 C485 C 0.83385 0.76273 0.70652
 C486 C 0.80188 0.74892 0.69978
 C487 C 0.79503 0.73521 0.66777
 C488 C 0.82004 0.73510 0.64273
 H489 H 0.91528 0.69703 0.56473
 H490 H 0.93530 0.80267 0.58564
 H491 H 0.83940 0.77336 0.73121
 H492 H 0.77037 0.72452 0.66230
 H493 H 0.89183 0.80213 0.62979
 H494 H 0.88332 0.77379 0.68706
 H495 H 0.87170 0.69669 0.60880
 H496 H 0.81424 0.72449 0.61811
 C497 C 0.11854 0.75146 0.37745
 C498 C 0.11278 0.72219 0.39687
 C499 C 0.08796 0.72205 0.42211
 C500 C 0.06875 0.75135 0.42875
 C501 C 0.07472 0.78071 0.40945
 C502 C 0.09921 0.78068 0.38386
 C503 C 0.14473 0.75148 0.35063
 C504 C 0.13730 0.76405 0.31814
 C505 C 0.16198 0.76369 0.29276
 C506 C 0.19450 0.75123 0.29969
 C507 C 0.20211 0.73894 0.33212
 C508 C 0.17733 0.73882 0.35736
 H509 H 0.08398 0.69907 0.43659
 H510 H 0.06026 0.80363 0.41394
 H511 H 0.15585 0.77327 0.26778
 H512 H 0.22721 0.72934 0.33776
 H513 H 0.10338 0.80362 0.36936
 H514 H 0.11228 0.77370 0.31231
 H515 H 0.12721 0.69929 0.39221
 H516 H 0.18371 0.72926 0.38229
 C517 C 0.87814 0.24900 0.38137
 C518 C 0.89299 0.27962 0.39187
 C519 C 0.91845 0.27974 0.41649
 C520 C 0.92971 0.24922 0.43108
 C521 C 0.91482 0.21860 0.42064
 C522 C 0.88929 0.21850 0.39611
 C523 C 0.85134 0.24882 0.35494
 C524 C 0.85080 0.22336 0.32998
 C525 C 0.82580 0.22330 0.30497
 C526 C 0.80089 0.24866 0.30442
 C527 C 0.80122 0.27408 0.32922
 C528 C 0.82622 0.27418 0.35428
 H529 H 0.92949 0.30375 0.42388
 H530 H 0.92279 0.19466 0.43151
 H531 H 0.82605 0.20370 0.28575
 H532 H 0.78206 0.29376 0.32914
 H533 H 0.87801 0.19453 0.38895
 H534 H 0.87007 0.20381 0.32944
 H535 H 0.88532 0.30350 0.38066
 H536 H 0.82567 0.29387 0.37338
 C537 C 0.25283 0.38021 0.87675
 C538 C 0.22620 0.40374 0.87810
 C539 C 0.22548 0.42846 0.90347
 C540 C 0.25183 0.43049 0.92732
 C541 C 0.27867 0.40711 0.92562
 C542 C 0.27894 0.38188 0.90076
 C543 C 0.25330 0.35383 0.85038
 C544 C 0.25012 0.31957 0.85933
 C545 C 0.25000 0.29455 0.83428
 C546 C 0.25402 0.30340 0.80005
 C547 C 0.25771 0.33770 0.79123
 C548 C 0.25690 0.36280 0.81620
 H549 H 0.20460 0.44628 0.90417
 H550 H 0.29919 0.40806 0.94381
 H551 H 0.24670 0.26827 0.84155
 H552 H 0.26107 0.34500 0.76499
 H553 H 0.29967 0.36387 0.89998
 H554 H 0.24717 0.31230 0.88563
 H555 H 0.20583 0.40268 0.85974
 H556 H 0.25950 0.38917 0.80895
 C557 C 0.75036 0.37643 0.12204
 C558 C 0.71986 0.38786 0.10764
 C559 C 0.71999 0.41308 0.08279
 C560 C 0.75064 0.42741 0.07174
 C561 C 0.78117 0.41588 0.08603
 C562 C 0.78102 0.39067 0.11093
 C563 C 0.75011 0.34997 0.14877
 C564 C 0.77466 0.32407 0.14902
 C565 C 0.77436 0.29925 0.17428
 C566 C 0.74957 0.29995 0.19966
 C567 C 0.72510 0.32572 0.19959
 C568 C 0.72533 0.35050 0.17435
 H569 H 0.69604 0.42128 0.07217
 H570 H 0.80520 0.42647 0.07814
 H571 H 0.79340 0.27944 0.17407
 H572 H 0.70609 0.32681 0.21933
 H573 H 0.80489 0.38271 0.12189
 H574 H 0.79383 0.32278 0.12945
 H575 H 0.69587 0.37702 0.11533
 H576 H 0.70644 0.37042 0.17517
 C577 C 0.75063 0.62041 0.88050
 C578 C 0.72126 0.60147 0.88704
 C579 C 0.72121 0.57660 0.91226
 C580 C 0.75068 0.56988 0.93109
 C581 C 0.78012 0.58873 0.92437
 C582 C 0.78002 0.61392 0.89946
 C583 C 0.75060 0.64686 0.85393
 C584 C 0.76397 0.67918 0.86065
 C585 C 0.76367 0.70424 0.83564
 C586 C 0.75043 0.69714 0.80350
 C587 C 0.73729 0.66490 0.79657
 C588 C 0.73716 0.63997 0.82170
 H589 H 0.69817 0.56244 0.91682
 H590 H 0.80319 0.58417 0.93852
 H591 H 0.77385 0.72911 0.84122
 H592 H 0.72704 0.65919 0.77177
 H593 H 0.80304 0.62805 0.89467
 H594 H 0.77422 0.68515 0.88540
 H595 H 0.69822 0.60622 0.87291
 H596 H 0.72697 0.61516 0.81587
 C597 C 0.24841 0.62201 0.11938
 C598 C 0.22239 0.59791 0.11765
 C599 C 0.22271 0.57309 0.09239
 C600 C 0.24952 0.57151 0.06902
 C601 C 0.27580 0.59543 0.07113
 C602 C 0.27501 0.62077 0.09589
 C603 C 0.24777 0.64846 0.14568
 C604 C 0.24425 0.68267 0.13661
 C605 C 0.24322 0.70773 0.16160
 C606 C 0.24663 0.69898 0.19592
 C607 C 0.25057 0.66474 0.20489
 C608 C 0.25067 0.63960 0.17996
 H609 H 0.20224 0.55485 0.09137
 H610 H 0.29666 0.59483 0.05332
 H611 H 0.23988 0.73397 0.15421
 H612 H 0.25364 0.65753 0.23119
 H613 H 0.29531 0.63920 0.09697
 H614 H 0.24184 0.68986 0.11023
 H615 H 0.20166 0.59861 0.13562
 H616 H 0.25354 0.61328 0.18732
 C617 C 0.38185 0.12171 0.74831
 C618 C 0.39760 0.11178 0.71805
 C619 C 0.42216 0.08620 0.71815
 C620 C 0.43202 0.07050 0.74871
 C621 C 0.41629 0.08092 0.77905
 C622 C 0.39125 0.10599 0.77875
 C623 C 0.35557 0.14840 0.74815
 C624 C 0.36215 0.18012 0.73335
 C625 C 0.33743 0.20552 0.73369
 C626 C 0.30565 0.19924 0.74819
 C627 C 0.29886 0.16749 0.76261
 C628 C 0.32380 0.14233 0.76293
 H629 H 0.43361 0.07903 0.69427
 H630 H 0.42304 0.06953 0.80311
 H631 H 0.34292 0.22998 0.72247
 H632 H 0.27434 0.16236 0.77379
 H633 H 0.37948 0.11345 0.80240
 H634 H 0.38656 0.18533 0.72199
 H635 H 0.39054 0.12353 0.69426
 H636 H 0.31819 0.11797 0.77430
 C637 C 0.37480 0.88001 0.24982
 C638 C 0.38111 0.89968 0.22085
 C639 C 0.40636 0.92449 0.22116
 C640 C 0.42544 0.93046 0.25063
 C641 C 0.41885 0.91098 0.27972
 C642 C 0.39395 0.88581 0.27923
 C643 C 0.34834 0.85346 0.24934
 C644 C 0.35540 0.82071 0.26152
 C645 C 0.33049 0.79558 0.26078
 C646 C 0.29808 0.80300 0.24831
 C647 C 0.29083 0.83569 0.23639
 C648 C 0.31587 0.86070 0.23664
 H649 H 0.41081 0.93915 0.19839
 H650 H 0.43320 0.91494 0.30276
 H651 H 0.33634 0.77039 0.27007
 H652 H 0.26584 0.84171 0.22677
 H653 H 0.38935 0.87110 0.30195
 H654 H 0.38031 0.81449 0.27119
 H655 H 0.36681 0.89549 0.19781
 H656 H 0.30978 0.88583 0.22737
 C657 C 0.62016 0.12014 0.25220
 C658 C 0.60731 0.10753 0.22148
 C659 C 0.58204 0.08275 0.22136
 C660 C 0.56903 0.06999 0.25196
 C661 C 0.58189 0.08258 0.28269
 C662 C 0.60717 0.10738 0.28280
 C663 C 0.64695 0.14654 0.25228
 C664 C 0.67392 0.14499 0.22903
 C665 C 0.69904 0.16990 0.22901
 C666 C 0.69756 0.19682 0.25212
 C667 C 0.67084 0.19851 0.27540
 C668 C 0.64573 0.17356 0.27552
 H669 H 0.57261 0.07369 0.19725
 H670 H 0.57249 0.07322 0.30671
 H671 H 0.71974 0.16818 0.21108
 H672 H 0.66940 0.21925 0.29333
 H673 H 0.61686 0.11627 0.30687
 H674 H 0.67583 0.12425 0.21115
 H675 H 0.61648 0.11719 0.19749
 H676 H 0.62509 0.17569 0.29345
 C677 C 0.62159 0.87793 0.75119
 C678 C 0.60320 0.88476 0.72151
 C679 C 0.57847 0.91015 0.72113
 C680 C 0.57132 0.92889 0.75056
 C681 C 0.58958 0.92185 0.78033
 C682 C 0.61464 0.89677 0.78056
 C683 C 0.64802 0.85126 0.75147
 C684 C 0.68005 0.85779 0.76556
 C685 C 0.70511 0.83274 0.76546
 C686 C 0.69832 0.80071 0.75172
 C687 C 0.66636 0.79395 0.73788
 C688 C 0.64143 0.81913 0.73754
 H689 H 0.56478 0.91494 0.69783
 H690 H 0.58469 0.93590 0.80338
 H691 H 0.72977 0.83823 0.77616
 H692 H 0.66087 0.76925 0.72723
 H693 H 0.62833 0.89178 0.80382
 H694 H 0.68581 0.88244 0.77618
 H695 H 0.60830 0.87074 0.69847
 H696 H 0.61686 0.81341 0.72678
 C697 C 0.74963 0.87779 0.62260
 C698 C 0.78022 0.89064 0.60974
 C699 C 0.78015 0.91570 0.58469
 C700 C 0.74943 0.92857 0.57179
 C701 C 0.71882 0.91559 0.58474
 C702 C 0.71895 0.89056 0.60982
 C703 C 0.74975 0.85118 0.64926
 C704 C 0.77322 0.85246 0.67606
 C705 C 0.77329 0.82743 0.70112
 C706 C 0.74997 0.80072 0.69979
 C707 C 0.72654 0.79924 0.67319
 C708 C 0.72639 0.82427 0.64812
 H709 H 0.80429 0.92484 0.57539
 H710 H 0.69461 0.92482 0.57565
 H711 H 0.79142 0.82892 0.72167
 H712 H 0.70851 0.77861 0.67181
 H713 H 0.69496 0.88150 0.61955
 H714 H 0.79121 0.87308 0.67790
 H715 H 0.80428 0.88098 0.61873
 H716 H 0.70832 0.82232 0.62759
 C717 C 0.25062 0.38022 0.11810
 C718 C 0.22000 0.39274 0.10493
 C719 C 0.21999 0.41782 0.07991
 C720 C 0.25066 0.43116 0.06747
 C721 C 0.28131 0.41857 0.08078
 C722 C 0.28126 0.39340 0.10572
 C723 C 0.25059 0.35356 0.14471
 C724 C 0.22722 0.32667 0.14341
 C725 C 0.22711 0.30170 0.16852
 C726 C 0.25036 0.30317 0.19528
 C727 C 0.27376 0.32980 0.19673
 C728 C 0.27388 0.35482 0.17166
 H729 H 0.19582 0.42684 0.07051
 H730 H 0.30549 0.42799 0.07187
 H731 H 0.20901 0.28113 0.16708
 H732 H 0.29173 0.33128 0.21741
 H733 H 0.30529 0.38393 0.11500
 H734 H 0.20929 0.32470 0.12275
 H735 H 0.19596 0.38347 0.11430
 H736 H 0.29187 0.37542 0.17366
 C737 C 0.25238 0.12144 0.61966
 C738 C 0.22146 0.10973 0.60650
 C739 C 0.22083 0.08492 0.58122
 C740 C 0.25116 0.07124 0.56825
 C741 C 0.28212 0.08309 0.58147
 C742 C 0.28268 0.10777 0.60688
 C743 C 0.25301 0.14796 0.64645
 C744 C 0.27770 0.17366 0.64592
 C745 C 0.27810 0.19877 0.67087
 C746 C 0.25381 0.19871 0.69677
 C747 C 0.22919 0.17316 0.69755
 C748 C 0.22880 0.14797 0.67264
 H749 H 0.19644 0.07668 0.57173
 H750 H 0.30606 0.07318 0.57238
 H751 H 0.29706 0.21856 0.66978
 H752 H 0.21034 0.17277 0.71747
 H753 H 0.30693 0.11587 0.61681
 H754 H 0.29635 0.17475 0.62585
 H755 H 0.19766 0.12011 0.61539
 H756 H 0.20975 0.12829 0.67408
 C757 C 0.24679 0.88054 0.37658
 C758 C 0.27764 0.89389 0.38829
 C759 C 0.27809 0.91903 0.41324
 C760 C 0.24770 0.93146 0.42705
 C761 C 0.21683 0.91820 0.41528
 C762 C 0.21638 0.89302 0.39033
 C763 C 0.24640 0.85370 0.35014
 C764 C 0.22214 0.85433 0.32403
 C765 C 0.22202 0.82923 0.29903
 C766 C 0.24608 0.80309 0.29974
 C767 C 0.27021 0.80220 0.32575
 C768 C 0.27041 0.82730 0.35073
 H769 H 0.30231 0.92878 0.42163
 H770 H 0.19297 0.92714 0.42546
 H771 H 0.20333 0.83028 0.27896
 H772 H 0.28880 0.78201 0.32671
 H773 H 0.19222 0.88295 0.38216
 H774 H 0.20360 0.87453 0.32262
 H775 H 0.30148 0.88519 0.37785
 H776 H 0.28909 0.82581 0.37075
 C777 C 0.74893 0.11987 0.38097
 C778 C 0.71995 0.11417 0.40078
 C779 C 0.71990 0.08892 0.42566
 C780 C 0.74901 0.06920 0.43153
 C781 C 0.77808 0.07512 0.41185
 C782 C 0.77795 0.10004 0.38666
 C783 C 0.74890 0.14639 0.35440
 C784 C 0.73654 0.17908 0.36146
 C785 C 0.73687 0.20418 0.33646
 C786 C 0.74914 0.19681 0.30397
 C787 C 0.76119 0.16417 0.29670
 C788 C 0.76130 0.13918 0.32181
 H789 H 0.69714 0.08500 0.44046
 H790 H 0.80086 0.06030 0.41573
 H791 H 0.72750 0.22933 0.34233
 H792 H 0.77066 0.15819 0.27165
 H793 H 0.80069 0.10415 0.37187
 H794 H 0.72709 0.18530 0.38646
 H795 H 0.69718 0.12897 0.39669
 H796 H 0.77068 0.11410 0.31568
 C797 C 0.62081 0.74860 0.88029
 C798 C 0.60817 0.71797 0.89336
 C799 C 0.58291 0.71801 0.91820
 C800 C 0.56961 0.74875 0.93067
 C801 C 0.58238 0.77941 0.91749
 C802 C 0.60761 0.77930 0.89265
 C803 C 0.64763 0.74856 0.85384
 C804 C 0.67415 0.77237 0.85490
 C805 C 0.69927 0.77242 0.82995
 C806 C 0.69830 0.74874 0.80352
 C807 C 0.67201 0.72493 0.80230
 C808 C 0.64689 0.72480 0.82726
 H809 H 0.57394 0.69384 0.92766
 H810 H 0.57284 0.80365 0.92623
 H811 H 0.71957 0.79083 0.83128
 H812 H 0.67090 0.70660 0.78191
 H813 H 0.61647 0.80333 0.88275
 H814 H 0.67571 0.79069 0.87526
 H815 H 0.61814 0.69389 0.88469
 H816 H 0.62660 0.70645 0.82546
 C817 C 0.12049 0.25129 0.37584
 C818 C 0.10561 0.28165 0.38714
 C819 C 0.08126 0.28128 0.41282
 C820 C 0.07115 0.25052 0.42768
 C821 C 0.08591 0.22014 0.41628
 C822 C 0.11035 0.22053 0.39069
 C823 C 0.14672 0.25172 0.34890
 C824 C 0.14732 0.22647 0.32372
 C825 C 0.17236 0.22663 0.29871
 C826 C 0.19717 0.25201 0.29847
 C827 C 0.19659 0.27734 0.32336
 C828 C 0.17160 0.27722 0.34836
 H829 H 0.07023 0.30510 0.42091
 H830 H 0.07878 0.19603 0.42730
 H831 H 0.17248 0.20697 0.27956
 H832 H 0.21582 0.29691 0.32364
 H833 H 0.12171 0.19677 0.38290
 H834 H 0.12826 0.20676 0.32317
 H835 H 0.11254 0.30571 0.37588
 H836 H 0.17214 0.29670 0.36767
 C837 C 0.62159 0.24896 0.12245
 C838 C 0.61127 0.21865 0.10703
 C839 C 0.58628 0.21891 0.08192
 C840 C 0.57152 0.24967 0.07114
 C841 C 0.58230 0.28007 0.08652
 C842 C 0.60680 0.27964 0.11212
 C843 C 0.64778 0.24861 0.14926
 C844 C 0.64179 0.26468 0.18045
 C845 C 0.66648 0.26421 0.20583
 C846 C 0.69774 0.24834 0.20007
 C847 C 0.70390 0.23243 0.16892
 C848 C 0.67895 0.23227 0.14379
 H849 H 0.57881 0.19495 0.07078
 H850 H 0.57164 0.30427 0.07907
 H851 H 0.66141 0.27647 0.22985
 H852 H 0.72797 0.22010 0.16420
 H853 H 0.61457 0.30335 0.12357
 H854 H 0.61785 0.27722 0.18527
 H855 H 0.62225 0.19468 0.11478
 H856 H 0.68414 0.21987 0.11986
 C857 C 0.38318 0.25139 0.87710
 C858 C 0.39427 0.28196 0.89168
 C859 C 0.41894 0.28187 0.91712
 C860 C 0.43306 0.25120 0.92862
 C861 C 0.42203 0.22065 0.91397
 C862 C 0.39743 0.22075 0.88851
 C863 C 0.35668 0.25139 0.85032
 C864 C 0.33128 0.22639 0.85012
 C865 C 0.30630 0.22636 0.82506
 C866 C 0.30624 0.25125 0.79970
 C867 C 0.33144 0.27627 0.79973
 C868 C 0.35645 0.27636 0.82483
 H869 H 0.42679 0.30584 0.92793
 H870 H 0.43250 0.19658 0.92210
 H871 H 0.28673 0.20715 0.82564
 H872 H 0.33171 0.29565 0.78028
 H873 H 0.38982 0.19681 0.87746
 H874 H 0.33038 0.20716 0.86968
 H875 H 0.38347 0.30596 0.88379
 H876 H 0.37585 0.29572 0.82404
 C877 C 0.37713 0.75022 0.12053
 C878 C 0.38784 0.71956 0.10581
 C879 C 0.41304 0.71934 0.08092
 C880 C 0.42806 0.74978 0.07008
 C881 C 0.41736 0.78044 0.08478
 C882 C 0.39223 0.78065 0.10974
 C883 C 0.35022 0.75050 0.14689
 C884 C 0.32538 0.77611 0.14713
 C885 C 0.30000 0.77632 0.17180
 C886 C 0.29899 0.75097 0.19669
 C887 C 0.32368 0.72539 0.19664
 C888 C 0.34907 0.72513 0.17196
 H889 H 0.42060 0.69529 0.07002
 H890 H 0.42852 0.80432 0.07713
 H891 H 0.28091 0.79605 0.17131
 H892 H 0.32327 0.70571 0.21579
 H893 H 0.38491 0.80465 0.12090
 H894 H 0.32521 0.79570 0.12790
 H895 H 0.37639 0.69574 0.11319
 H896 H 0.36806 0.70532 0.17276
 C897 C 0.87964 0.62002 0.75133
 C898 C 0.89273 0.60772 0.72060
 C899 C 0.91793 0.58280 0.72035
 C900 C 0.93079 0.56948 0.75090
 C901 C 0.91760 0.58188 0.78168
 C902 C 0.89237 0.60680 0.78186
 C903 C 0.85284 0.64655 0.75152
 C904 C 0.85369 0.67310 0.77533
 C905 C 0.82858 0.69812 0.77534
 C906 C 0.80219 0.69701 0.75164
 C907 C 0.80112 0.67061 0.72791
 C908 C 0.82623 0.64560 0.72781
 H909 H 0.92739 0.57412 0.69609
 H910 H 0.92665 0.57231 0.80577
 H911 H 0.82978 0.71849 0.79371
 H912 H 0.78073 0.66936 0.70959
 H913 H 0.88249 0.61542 0.80596
 H914 H 0.87406 0.67481 0.79361
 H915 H 0.88379 0.61773 0.69665
 H916 H 0.82458 0.62526 0.70947
 C917 C 0.37906 0.12283 0.25008
 C918 C 0.39329 0.11093 0.21971
 C919 C 0.41784 0.08541 0.22005
 C920 C 0.42899 0.07122 0.25087
 C921 C 0.41485 0.08339 0.28131
 C922 C 0.39014 0.10881 0.28088
 C923 C 0.35257 0.14959 0.24954
 C924 C 0.35216 0.17535 0.27420
 C925 C 0.32710 0.20040 0.27365
 C926 C 0.30213 0.20013 0.24843
 C927 C 0.30243 0.17459 0.22377
 C928 C 0.32738 0.14950 0.22432
 H929 H 0.42814 0.07697 0.19605
 H930 H 0.42261 0.07314 0.30557
 H931 H 0.32717 0.22007 0.29280
 H932 H 0.28306 0.17391 0.20434
 H933 H 0.37932 0.11710 0.30469
 H934 H 0.37144 0.17638 0.29368
 H935 H 0.38570 0.12160 0.19559
 H936 H 0.32663 0.12972 0.20533
 C937 C 0.11695 0.62220 0.24781
 C938 C 0.10534 0.60800 0.21728
 C939 C 0.08053 0.58271 0.21739
 C940 C 0.06675 0.57077 0.24809
 C941 C 0.07843 0.58509 0.27863
 C942 C 0.10309 0.61049 0.27845
 C943 C 0.14353 0.64894 0.24775
 C944 C 0.16887 0.64926 0.27283
 C945 C 0.19385 0.67433 0.27284
 C946 C 0.19406 0.69950 0.24776
 C947 C 0.16896 0.69935 0.22265
 C948 C 0.14388 0.67432 0.22265
 H949 H 0.07239 0.57237 0.19330
 H950 H 0.06844 0.57684 0.30282
 H951 H 0.21329 0.67393 0.29220
 H952 H 0.16878 0.71870 0.20316
 H953 H 0.11104 0.62126 0.30240
 H954 H 0.16974 0.62981 0.29217
 H955 H 0.11583 0.61607 0.19326
 H956 H 0.12452 0.67511 0.20325
 C957 C 0.87814 0.37777 0.25058
 C958 C 0.87879 0.40186 0.22443
 C959 C 0.90392 0.42683 0.22373
 C960 C 0.92825 0.42859 0.24966
 C961 C 0.92729 0.40463 0.27602
 C962 C 0.90267 0.37915 0.27623
 C963 C 0.85180 0.35129 0.25115
 C964 C 0.86075 0.31698 0.24823
 C965 C 0.83571 0.29194 0.24819
 C966 C 0.80145 0.30079 0.25201
 C967 C 0.79263 0.33513 0.25553
 C968 C 0.81758 0.36023 0.25461
 H969 H 0.90403 0.44508 0.20322
 H970 H 0.94584 0.40536 0.29622
 H971 H 0.84301 0.26564 0.24512
 H972 H 0.76641 0.34246 0.25890
 H973 H 0.90246 0.36075 0.29663
 H974 H 0.88706 0.30968 0.24542
 H975 H 0.86003 0.40109 0.20441
 H976 H 0.81029 0.38661 0.25707
 C977 C 0.12385 0.37978 0.74874
 C978 C 0.10793 0.38981 0.71848
 C979 C 0.08270 0.41473 0.71871
 C980 C 0.07270 0.43012 0.74923
 C981 C 0.08858 0.42008 0.77950
 C982 C 0.11390 0.39527 0.77925
 C983 C 0.15069 0.35327 0.74853
 C984 C 0.15248 0.32900 0.77463
 C985 C 0.17773 0.30414 0.77446
 C986 C 0.20165 0.30305 0.74823
 C987 C 0.19999 0.32712 0.72213
 C988 C 0.17476 0.35201 0.72226
 H989 H 0.07087 0.42177 0.69497
 H990 H 0.08160 0.43156 0.80343
 H991 H 0.17855 0.28558 0.79469
 H992 H 0.21840 0.32671 0.70179
 H993 H 0.12601 0.38853 0.80293
 H994 H 0.13406 0.32893 0.79494
 H995 H 0.11464 0.37804 0.69462
 H996 H 0.17440 0.37059 0.70206
 C997 C 0.87647 0.74995 0.37994
 C998 C 0.88693 0.78059 0.39479
 C999 C 0.91220 0.78080 0.41958
 C1000 C 0.92749 0.75037 0.43013
 C1001 C 0.91703 0.71973 0.41527
 C1002 C 0.89184 0.71954 0.39043
 C1003 C 0.84953 0.74966 0.35372
 C1004 C 0.82480 0.72401 0.35359
 C1005 C 0.79947 0.72370 0.32893
 C1006 C 0.79842 0.74897 0.30398
 C1007 C 0.82295 0.77463 0.30396
 C1008 C 0.84831 0.77499 0.32863
 H1009 H 0.91960 0.80482 0.43062
 H1010 H 0.92842 0.69587 0.42272
 H1011 H 0.78047 0.70391 0.32940
 H1012 H 0.82247 0.79424 0.28474
 H1013 H 0.88468 0.69558 0.37911
 H1014 H 0.82474 0.70447 0.37286
 H1015 H 0.87524 0.80438 0.38759
 H1016 H 0.86724 0.79482 0.32780
 C1017 C 0.88315 0.24778 0.62373
 C1018 C 0.89406 0.21729 0.60885
 C1019 C 0.91883 0.21748 0.58355
 C1020 C 0.93312 0.24819 0.57252
 C1021 C 0.92233 0.27866 0.58752
 C1022 C 0.89768 0.27844 0.61288
 C1023 C 0.85649 0.24773 0.65023
 C1024 C 0.83129 0.27297 0.65045
 C1025 C 0.80619 0.27302 0.67533
 C1026 C 0.80583 0.24786 0.70041
 C1027 C 0.83080 0.22258 0.70034
 C1028 C 0.85596 0.22249 0.67544
 H1029 H 0.92653 0.19359 0.57241
 H1030 H 0.93299 0.30272 0.57975
 H1031 H 0.78682 0.29249 0.67490
 H1032 H 0.83082 0.20304 0.71964
 H1033 H 0.89020 0.30231 0.62423
 H1034 H 0.83066 0.29240 0.63107
 H1035 H 0.88303 0.19330 0.61635
 H1036 H 0.87524 0.20296 0.67617
 C1037 C 0.12111 0.75143 0.62044
 C1038 C 0.10242 0.78096 0.61361
 C1039 C 0.07735 0.78092 0.58862
 C1040 C 0.07019 0.75120 0.57033
 C1041 C 0.08879 0.72160 0.57736
 C1042 C 0.11417 0.72179 0.60203
 C1043 C 0.14777 0.75153 0.64676
 C1044 C 0.17986 0.73766 0.63994
 C1045 C 0.20507 0.73790 0.66476
 C1046 C 0.19836 0.75156 0.69682
 C1047 C 0.16637 0.76524 0.70384
 C1048 C 0.14128 0.76544 0.67889
 H1049 H 0.06339 0.80409 0.58380
 H1050 H 0.08389 0.69834 0.56364
 H1051 H 0.22976 0.72731 0.65911
 H1052 H 0.16095 0.77581 0.72857
 H1053 H 0.12810 0.69865 0.60706
 H1054 H 0.18552 0.72704 0.61528
 H1055 H 0.10751 0.80419 0.62733
 H1056 H 0.11665 0.77602 0.68480
 C1057 C 0.74817 0.61972 0.12350
 C1058 C 0.71780 0.60771 0.10936
 C1059 C 0.71828 0.58275 0.08425
 C1060 C 0.74916 0.56926 0.07272
 C1061 C 0.77954 0.58126 0.08687
 C1062 C 0.77904 0.60620 0.11199
 C1063 C 0.74768 0.64626 0.15012
 C1064 C 0.77162 0.67265 0.14979
 C1065 C 0.77117 0.69761 0.17487
 C1066 C 0.74686 0.69655 0.20069
 C1067 C 0.72293 0.67035 0.20119
 C1068 C 0.72330 0.64540 0.17609
 H1069 H 0.69444 0.57413 0.07379
 H1070 H 0.80375 0.57130 0.07863
 H1071 H 0.78966 0.71787 0.17411
 H1072 H 0.70412 0.66919 0.22113
 H1073 H 0.80283 0.61460 0.12273
 H1074 H 0.79040 0.67426 0.12987
 H1075 H 0.69364 0.61797 0.11740
 H1076 H 0.70482 0.62516 0.17727
 C1077 C 0.25061 0.62268 0.87707
 C1078 C 0.22125 0.61617 0.89604
 C1079 C 0.22120 0.59093 0.92090
 C1080 C 0.25066 0.57203 0.92759
 C1081 C 0.28010 0.57875 0.90874
 C1082 C 0.28000 0.60368 0.88356
 C1083 C 0.25057 0.64923 0.85055
 C1084 C 0.26404 0.64244 0.81830
 C1085 C 0.26376 0.66742 0.79320
 C1086 C 0.25045 0.69962 0.80017
 C1087 C 0.23721 0.70662 0.83234
 C1088 C 0.23705 0.68151 0.85732
 H1089 H 0.19814 0.58637 0.93505
 H1090 H 0.30317 0.56456 0.91326
 H1091 H 0.27402 0.66177 0.76838
 H1092 H 0.22690 0.73145 0.83797
 H1093 H 0.30303 0.60844 0.86942
 H1094 H 0.27435 0.61766 0.81241
 H1095 H 0.19820 0.63033 0.89130
 H1096 H 0.22678 0.68741 0.88207
 C1097 C 0.75284 0.37775 0.87992
 C1098 C 0.72202 0.38937 0.89344
 C1099 C 0.72163 0.41440 0.91846
 C1100 C 0.75207 0.42835 0.93055
 C1101 C 0.78290 0.41672 0.91704
 C1102 C 0.78328 0.39169 0.89199
 C1103 C 0.75319 0.35114 0.85337
 C1104 C 0.77739 0.32494 0.85426
 C1105 C 0.77750 0.29975 0.82940
 C1106 C 0.75349 0.30040 0.80328
 C1107 C 0.72940 0.32648 0.80215
 C1108 C 0.72921 0.35165 0.82702
 H1109 H 0.69746 0.42270 0.92843
 H1110 H 0.80678 0.42703 0.92573
 H1111 H 0.79615 0.27961 0.83059
 H1112 H 0.71087 0.32735 0.78194
 H1113 H 0.80740 0.38355 0.88174
 H1114 H 0.79589 0.32363 0.87447
 H1115 H 0.69819 0.37876 0.88499
 H1116 H 0.71057 0.37175 0.82540
 C1117 C 0.61634 0.87655 0.25212
 C1118 C 0.60169 0.88749 0.22155
 C1119 C 0.57709 0.91298 0.22145
 C1120 C 0.56652 0.92803 0.25193
 C1121 C 0.58102 0.91697 0.28253
 C1122 C 0.60570 0.89154 0.28261
 C1123 C 0.64285 0.84984 0.25213
 C1124 C 0.64333 0.82465 0.27740
 C1125 C 0.66848 0.79970 0.27746
 C1126 C 0.69351 0.79953 0.25230
 C1127 C 0.69314 0.82452 0.22704
 C1128 C 0.66803 0.84946 0.22694
 H1129 H 0.56628 0.92080 0.19746
 H1130 H 0.57351 0.92815 0.30644
 H1131 H 0.66846 0.78047 0.29706
 H1132 H 0.71255 0.82488 0.20766
 H1133 H 0.61685 0.88400 0.30652
 H1134 H 0.62405 0.82403 0.29689
 H1135 H 0.60900 0.87608 0.19769
 H1136 H 0.66867 0.86880 0.20747
 C1137 C 0.62286 0.12118 0.75077
 C1138 C 0.61246 0.10632 0.72013
 C1139 C 0.58732 0.08142 0.71985
 C1140 C 0.57208 0.07076 0.75022
 C1141 C 0.58247 0.08562 0.78085
 C1142 C 0.60755 0.11058 0.78111
 C1143 C 0.64971 0.14750 0.75110
 C1144 C 0.67451 0.14761 0.77667
 C1145 C 0.69987 0.17225 0.77691
 C1146 C 0.70087 0.19719 0.75163
 C1147 C 0.67622 0.19728 0.72609
 C1148 C 0.65083 0.17263 0.72580
 H1149 H 0.57997 0.07038 0.69584
 H1150 H 0.57111 0.07809 0.80466
 H1151 H 0.71897 0.17170 0.79660
 H1152 H 0.67665 0.21648 0.70647
 H1153 H 0.61467 0.12189 0.80507
 H1154 H 0.67464 0.12831 0.79619
 H1155 H 0.62412 0.11360 0.69639
 H1156 H 0.63184 0.17347 0.70603
 C1157 C 0.37908 0.87980 0.74836
 C1158 C 0.39773 0.88677 0.71889
 C1159 C 0.42273 0.91183 0.71902
 C1160 C 0.42986 0.93005 0.74876
 C1161 C 0.41131 0.92289 0.77830
 C1162 C 0.38600 0.89816 0.77803
 C1163 C 0.35249 0.85341 0.74819
 C1164 C 0.35906 0.82129 0.73422
 C1165 C 0.33407 0.79625 0.73442
 C1166 C 0.30209 0.80317 0.74816
 C1167 C 0.29530 0.83522 0.76187
 C1168 C 0.32042 0.86013 0.76211
 H1169 H 0.43665 0.91675 0.69590
 H1170 H 0.41619 0.93656 0.80158
 H1171 H 0.33955 0.77151 0.72381
 H1172 H 0.27063 0.84081 0.77251
 H1173 H 0.37211 0.89303 0.80113
 H1174 H 0.38368 0.81545 0.72360
 H1175 H 0.39265 0.87309 0.69565
 H1176 H 0.31471 0.88478 0.77277
   
