data_POSCAR
  _audit_creation_date              2014-09-24
  _audit_creation_method            'ToBaCCo'
  _symmetry_space_group_name_H-M    'P1'
  _symmetry_Int_Tables_number       1
  _symmetry_cell_setting            triclinic
  loop_
  _symmetry_equiv_pos_as_xyz
 x,y,z
_cell_length_a 20.6685
_cell_length_b 20.5873
_cell_length_c 54.7074
_cell_angle_alpha 86.064200
_cell_angle_beta 95.193700
_cell_angle_gamma 122.719200
loop_
  _atom_site_label
  _atom_site_type_symbol
  _atom_site_fract_x
  _atom_site_fract_y
  _atom_site_fract_z
C1 C 0.07619 0.16945 0.54068
 H2 H 0.13084 0.17366 0.54157
 C3 C 0.06569 0.21358 0.55604
 H4 H 0.11261 0.25118 0.56889
 C5 C -0.05145 0.11338 0.52324
 H6 H -0.09696 0.07370 0.51047
 C7 C -0.06438 0.15734 0.53825
 H8 H -0.12049 0.14968 0.53681
 N9 N 0.01778 0.11964 0.52496
 C10 C 0.05945 -0.06417 0.51764
 H11 H 0.05716 -0.06771 0.49793
 C12 C 0.05981 -0.12181 0.53268
 H13 H 0.05835 -0.16830 0.52408
 C14 C 0.05329 -0.00499 0.55216
 H15 H 0.04685 0.03784 0.55983
 C16 C 0.05370 -0.06106 0.56780
 H17 H 0.04810 -0.05961 0.58721
 Zn18 Zn 0.04018 0.06079 0.50617
 N19 N 0.05613 -0.00719 0.52751
 C20 C 0.16484 0.10414 0.47671
 N21 N 0.12816 0.13030 0.48837
 C22 C 0.14707 0.20453 0.48506
 C23 C 0.20233 0.25447 0.46880
 C24 C 0.21986 0.15194 0.45999
 C25 C -0.10805 -0.06382 0.49192
 C26 C -0.16430 -0.11907 0.47568
 C27 C -0.08566 -0.04361 0.44219
 C28 C -0.03151 0.01022 0.45904
 N29 N -0.04238 -0.00192 0.48344
 H30 H 0.14909 0.04507 0.47945
 H31 H 0.11644 0.22427 0.49398
 H32 H 0.21467 0.31260 0.46594
 H33 H 0.24620 0.12801 0.45088
 H34 H -0.11545 -0.07178 0.51145
 H35 H -0.21551 -0.16679 0.48339
 H36 H -0.07439 -0.03337 0.42290
 H37 H 0.02058 0.06033 0.45257
 C38 C 0.05674 -0.12092 0.55824
 C39 C -0.00520 0.20831 0.55510
 C40 C -0.15215 -0.11176 0.45032
 C41 C 0.23712 0.22762 0.45503
 C42 C 1.15351 0.05854 0.12903
 H43 H 1.15545 0.11182 0.13021
 C44 C 1.19946 0.05449 0.11301
 H45 H 1.23352 0.10509 0.10176
 C46 C 1.10090 -0.07184 0.14175
 H47 H 1.06152 -0.12103 0.15283
 C48 C 1.14734 -0.07819 0.12611
 H49 H 1.14299 -0.13279 0.12518
 N50 N 1.10442 -0.00415 0.14266
 C51 C 0.90882 0.01522 0.15057
 H52 H 0.90317 0.00687 0.17018
 C53 C 0.84855 0.01036 0.13515
 H54 H 0.79849 0.00110 0.14336
 C55 C 0.98049 0.03610 0.11632
 H56 H 1.03034 0.04387 0.10862
 C57 C 0.92267 0.03335 0.10038
 H58 H 0.93093 0.04170 0.08089
 Zn59 Zn 1.04319 0.01227 0.16204
 N60 N 0.97241 0.02577 0.14094
 C61 C 1.08194 0.13485 0.19327
 N62 N 1.11012 0.10050 0.18128
 C63 C 1.18521 0.12260 0.18495
 C64 C 1.23484 0.18054 0.20131
 C65 C 1.12948 0.19240 0.21025
 C66 C 0.91978 -0.13680 0.17461
 C67 C 0.86591 -0.19177 0.19055
 C68 C 0.94873 -0.11491 0.22471
 C69 C 1.00080 -0.06170 0.20818
 N70 N 0.98441 -0.07215 0.18361
 H71 H 1.02177 0.11550 0.19040
 H72 H 1.20626 0.09294 0.17606
 H73 H 1.29396 0.19585 0.20427
 H74 H 1.10409 0.21642 0.21983
 H75 H 0.90782 -0.14343 0.15496
 H76 H 0.81435 -0.24090 0.18256
 H77 H 0.96147 -0.10368 0.24417
 H78 H 1.05255 -0.01013 0.21504
 C79 C 0.85348 0.01585 0.10950
 C80 C 1.19781 -0.01436 0.11137
 C81 C 0.87861 -0.17974 0.21606
 C82 C 1.20708 0.21495 0.21489
 C83 C 0.01780 0.95771 0.87600
 H84 H -0.02888 0.95375 0.88478
 C85 C 0.07889 0.96221 0.89051
 H86 H 0.07859 0.96276 0.91028
 C87 C 0.07336 0.95834 0.83994
 H88 H 0.06990 0.95556 0.82015
 C89 C 0.13522 0.96132 0.85387
 H90 H 0.17855 0.96109 0.84434
 N91 N 0.01579 0.95567 0.85117
 C92 C -0.21902 0.85263 0.85410
 H93 H -0.23192 0.80467 0.84320
 C94 C -0.27324 0.84417 0.86985
 H95 H -0.32681 0.78891 0.87048
 C96 C -0.13311 0.98262 0.86549
 H97 H -0.07847 1.03662 0.86356
 C98 C -0.18445 0.97668 0.88156
 H99 H -0.16792 1.02677 0.89206
 Zn100 Zn -0.07266 0.93966 0.83193
 N101 N -0.15018 0.92082 0.85254
 C102 C -0.11353 0.78953 0.82107
 N103 N -0.10483 0.85604 0.81116
 C104 C -0.10645 0.86821 0.78645
 C105 C -0.11387 0.81393 0.77070
 C106 C -0.12055 0.73362 0.80591
 C107 C 0.02309 1.09128 0.81090
 C108 C 0.03630 1.15510 0.79611
 C109 C -0.10069 1.08883 0.78586
 C110 C -0.11115 1.02681 0.80079
 N111 N -0.04969 1.02855 0.81267
 H112 H -0.10979 0.78226 0.84081
 H113 H -0.09705 0.92218 0.77884
 H114 H -0.11012 0.82739 0.75120
 H115 H -0.12169 0.68415 0.81444
 H116 H 0.07104 1.09159 0.82073
 H117 H 0.09498 1.20290 0.79463
 H118 H -0.15050 1.08522 0.77611
 H119 H -0.16847 0.97636 0.80268
 C120 C -0.25621 0.90674 0.88428
 C121 C 0.13808 0.96227 0.87966
 C122 C -0.02629 1.15449 0.78324
 C123 C -0.11947 0.74603 0.78027
 C124 C 0.28740 -0.02720 0.00688
 C125 C 0.28098 -0.03133 -0.01798
 C126 C 0.33494 -0.04626 -0.02453
 N127 N 0.37229 -0.05411 -0.00389
 C128 C 0.34233 -0.04357 0.01548
 C129 C 0.34533 -0.05714 -0.04908
 C130 C 0.39303 -0.08459 -0.05339
 C131 C 0.38038 -0.13312 -0.07200
 C132 C 0.44414 -0.13797 -0.07161
 C133 C 0.49325 -0.09509 -0.05193
 N134 N 0.46062 -0.06356 -0.04078
 C135 C 0.56946 -0.07796 -0.04581
 C136 C 0.60684 -0.04034 -0.02344
 C137 C 0.68445 0.01571 -0.01939
 C138 C 0.69704 0.02903 0.00527
 C139 C 0.62620 -0.01693 0.01526
 N140 N 0.57082 -0.05847 -0.00230
 C141 C 0.61407 -0.02134 0.04040
 C142 C 0.55121 -0.01954 0.04778
 C143 C 0.55348 0.01545 0.06881
 C144 C 0.48478 0.01045 0.06869
 C145 C 0.44105 -0.02872 0.04776
 N146 N 0.48289 -0.04540 0.03478
 C147 C 0.36594 -0.04465 0.04079
 H148 H 0.25603 -0.01090 0.01698
 H149 H 0.23901 -0.02539 -0.02937
 H150 H 0.46364 -0.07780 0.01896
 H151 H 0.33042 -0.16227 -0.08474
 H152 H 0.45186 -0.16885 -0.08497
 H153 H 0.72761 0.04476 -0.03277
 H154 H 0.75169 0.06952 0.01464
 H155 H 0.47119 0.03703 0.08202
 H156 H 0.48692 -0.02235 -0.02712
 H157 H 0.60132 0.04586 0.08221
 C158 C 0.06031 0.36333 0.68452
 C159 C 0.06096 0.36821 0.65943
 C160 C 0.00735 0.38655 0.65097
 N161 N -0.02309 0.39693 0.67003
 C162 C 0.00834 0.38152 0.69048
 C163 C -0.01642 0.39061 0.62620
 C164 C -0.02948 0.45053 0.61875
 C165 C -0.05483 0.46195 0.59541
 C166 C -0.05255 0.52974 0.59564
 C167 C -0.02285 0.56024 0.61870
 N168 N -0.01045 0.51106 0.63284
 C169 C -0.00513 0.63315 0.62599
 C170 C -0.01842 0.64286 0.65024
 C171 C -0.02385 0.70307 0.65729
 C172 C -0.03991 0.69029 0.68138
 C173 C -0.04610 0.62135 0.68865
 N174 N -0.03246 0.59263 0.66950
 C175 C -0.05940 0.58912 0.71302
 C176 C -0.03824 0.53562 0.72105
 C177 C -0.00904 0.53143 0.74456
 C178 C 0.00250 0.47174 0.74510
 C179 C -0.01825 0.44178 0.72178
 N180 N -0.04167 0.48198 0.70704
 C181 C -0.01114 0.38135 0.71449
 H182 H 0.09538 0.34979 0.69697
 H183 H 0.09740 0.36000 0.64871
 H184 H -0.06545 0.46905 0.68910
 H185 H -0.07098 0.42787 0.57928
 H186 H -0.07060 0.55376 0.58035
 H187 H -0.01898 0.75110 0.64640
 H188 H -0.04373 0.72994 0.69217
 H189 H 0.02708 0.45503 0.76064
 H190 H 0.01781 0.52305 0.65027
 H191 H 0.00584 0.56944 0.75963
 C192 C 0.32584 0.33321 0.34696
 C193 C 0.32389 0.33057 0.32203
 C194 C 0.39169 0.39554 0.31456
 N195 N 0.43460 0.43827 0.33422
 C196 C 0.39436 0.40021 0.35409
 C197 C 0.41646 0.41124 0.29037
 C198 C 0.49526 0.46324 0.28672
 C199 C 0.53782 0.44981 0.27208
 C200 C 0.61052 0.51524 0.27264
 C201 C 0.60980 0.56716 0.28730
 N202 N 0.54010 0.53374 0.29676
 C203 C 0.67074 0.64495 0.29044
 C204 C 0.68860 0.67820 0.31398
 C205 C 0.75506 0.74733 0.32091
 C206 C 0.75118 0.75639 0.34515
 C207 C 0.68366 0.69141 0.35280
 N208 N 0.64522 0.64403 0.33360
 C209 C 0.65637 0.67793 0.37678
 C210 C 0.57867 0.61954 0.38062
 C211 C 0.53289 0.62460 0.39648
 C212 C 0.46592 0.55324 0.39744
 C213 C 0.47227 0.50699 0.38190
 N214 N 0.53989 0.54830 0.37097
 C215 C 0.41657 0.42814 0.37829
 H216 H 0.28031 0.29092 0.35819
 H217 H 0.27831 0.28400 0.31107
 H218 H 0.56169 0.52622 0.35983
 H219 H 0.51860 0.39789 0.26224
 H220 H 0.65846 0.52378 0.26320
 H221 H 0.80315 0.78709 0.31013
 H222 H 0.79335 0.80666 0.35549
 H223 H 0.41765 0.53734 0.40814
 H224 H 0.52143 0.56048 0.30720
 H225 H 0.54652 0.67454 0.40647
 C226 C -0.01479 0.25470 0.57338
 C227 C 0.05030 0.34042 0.57288
 C228 C 0.04847 0.38265 0.59043
 C229 C -0.01896 0.33706 0.60711
 C230 C -0.09196 0.29726 0.58948
 C231 C -0.08940 0.25555 0.57158
 C232 C -0.01096 0.22590 0.59976
 C233 C -0.01477 0.26729 0.61722
 H234 H 0.09391 0.36621 0.55950
 H235 H 0.09092 0.44408 0.59205
 H236 H -0.14322 0.29796 0.59172
 H237 H -0.13783 0.22391 0.55846
 H238 H -0.01444 0.17190 0.60417
 H239 H -0.02598 0.24433 0.63586
 C240 C 0.81879 0.76956 0.23458
 C241 C 0.74051 0.70022 0.22500
 C242 C 0.69060 0.65988 0.24290
 C243 C 0.72329 0.69020 0.26915
 C244 C 0.79970 0.69377 0.27247
 C245 C 0.84903 0.73467 0.25459
 C246 C 0.79611 0.81615 0.24851
 C247 C 0.74566 0.77475 0.26612
 H248 H 0.72143 0.68747 0.20588
 H249 H 0.63071 0.61646 0.23817
 H250 H 0.81340 0.66531 0.28759
 H251 H 0.90457 0.74078 0.25450
 H252 H 0.81431 0.87551 0.24380
 H253 H 0.72056 0.79895 0.27602
 C254 C 0.19901 -0.04104 -0.10339
 C255 C 0.16148 -0.11236 -0.08619
 C256 C 0.21095 -0.11656 -0.06924
 C257 C 0.29512 -0.04934 -0.07043
 C258 C 0.31420 -0.04708 -0.09736
 C259 C 0.26343 -0.04399 -0.11456
 C260 C 0.24350 0.02860 -0.08648
 C261 C 0.29464 0.02525 -0.06983
 H262 H 0.10062 -0.15737 -0.08767
 H263 H 0.19205 -0.16497 -0.05630
 H264 H 0.36773 -0.03823 -0.10268
 H265 H 0.27435 -0.03575 -0.13386
 H266 H 0.23918 0.07897 -0.08862
 H267 H 0.33421 0.07331 -0.05807
 C268 C 0.04491 0.81246 0.57532
 C269 C -0.03905 0.76274 0.58231
 C270 C -0.05398 0.70398 0.59838
 C271 C 0.01609 0.69888 0.60663
 C272 C 0.04843 0.69618 0.58251
 C273 C 0.06240 0.75472 0.56604
 C274 C 0.09356 0.83873 0.59982
 C275 C 0.07947 0.77977 0.61591
 H276 H -0.08379 0.77231 0.57480
 H277 H -0.11134 0.66366 0.60456
 H278 H 0.06816 0.65811 0.57975
 H279 H 0.09243 0.76375 0.54967
 H280 H 0.13924 0.89812 0.60352
 H281 H 0.11365 0.78946 0.63312
 C282 C 0.26095 0.27028 0.23498
 C283 C 0.33375 0.34164 0.22502
 C284 C 0.38534 0.38958 0.24275
 C285 C 0.36071 0.36136 0.26921
 C286 C 0.28158 0.35260 0.26851
 C287 C 0.22927 0.30453 0.25100
 C288 C 0.29113 0.23146 0.25350
 C289 C 0.34343 0.27883 0.27099
 H290 H 0.34165 0.35585 0.20560
 H291 H 0.43561 0.44509 0.23806
 H292 H 0.26859 0.38386 0.28032
 H293 H 0.17269 0.29599 0.24852
 H294 H 0.27281 0.17121 0.25286
 H295 H 0.37002 0.25915 0.28505
 C296 C 0.69374 -0.09666 -0.09788
 C297 C 0.73130 -0.08292 -0.07315
 C298 C 0.68772 -0.07999 -0.05495
 C299 C 0.61496 -0.08856 -0.06466
 C300 C 0.63479 -0.03159 -0.08465
 C301 C 0.67690 -0.03638 -0.10285
 C302 C 0.61778 -0.16819 -0.09503
 C303 C 0.57521 -0.16372 -0.07641
 H304 H 0.78038 -0.08818 -0.06806
 H305 H 0.70005 -0.08903 -0.03576
 H306 H 0.61704 0.00957 -0.08626
 H307 H 0.69191 0.00011 -0.11936
 H308 H 0.59869 -0.22346 -0.10255
 H309 H 0.52566 -0.21532 -0.06906
 C310 C 0.24430 -0.02262 0.09302
 C311 C 0.19208 -0.07766 0.07232
 C312 C 0.23051 -0.08903 0.05589
 C313 C 0.31898 -0.04116 0.06060
 C314 C 0.34181 0.04241 0.06307
 C315 C 0.30432 0.05252 0.07990
 C316 C 0.29085 -0.05730 0.10396
 C317 C 0.32850 -0.06846 0.08703
 H318 H 0.12958 -0.10944 0.07164
 H319 H 0.20022 -0.13197 0.04177
 H320 H 0.38844 0.09101 0.05351
 H321 H 0.32345 0.11054 0.08479
 H322 H 0.29092 -0.07532 0.12308
 H323 H 0.35836 -0.09810 0.09182
 C324 C 0.79610 0.83000 0.43245
 C325 C 0.83661 0.80732 0.41785
 C326 C 0.78814 0.75327 0.39920
 C327 C 0.70810 0.73267 0.39798
 C328 C 0.68493 0.70257 0.42294
 C329 C 0.73260 0.75605 0.44189
 C330 C 0.75923 0.85846 0.41471
 C331 C 0.71141 0.80539 0.39589
 H332 H 0.89531 0.82218 0.42233
 H333 H 0.80771 0.72391 0.38918
 H334 H 0.64748 0.64154 0.42744
 H335 H 0.73069 0.73438 0.46059
 H336 H 0.76539 0.91407 0.41581
 H337 H 0.67917 0.81803 0.38171
 C338 C -0.01741 0.21893 0.76554
 C339 C -0.04112 0.19056 0.73906
 C340 C -0.04023 0.24311 0.72249
 C341 C -0.01344 0.32157 0.73347
 C342 C -0.06983 0.29864 0.75376
 C343 C -0.07072 0.24655 0.77064
 C344 C 0.06280 0.29421 0.76400
 C345 C 0.06456 0.34731 0.74727
 H346 H -0.05986 0.13264 0.73389
 H347 H -0.05998 0.22859 0.70342
 H348 H -0.10760 0.31981 0.75452
 H349 H -0.10768 0.22537 0.78593
 H350 H 0.11366 0.30727 0.77551
 H351 H 0.11648 0.40361 0.74452
 C352 C 0.78706 0.00362 0.09160
 C353 C 0.79669 0.08003 0.08200
 C354 C 0.73978 0.07163 0.06537
 C355 C 0.67750 -0.01264 0.05947
 C356 C 0.72156 -0.04830 0.05180
 C357 C 0.77840 -0.03977 0.06843
 C358 C 0.70581 -0.04389 0.10138
 C359 C 0.64885 -0.05295 0.08458
 H360 H 0.84430 0.13629 0.08798
 H361 H 0.73887 0.12067 0.05715
 H362 H 0.70591 -0.08236 0.03552
 H363 H 0.81015 -0.06683 0.06605
 H364 H 0.69246 -0.07443 0.11897
 H365 H 0.58845 -0.09038 0.08830
 C366 C 0.28754 0.27972 0.43455
 C367 C 0.36219 0.35258 0.44415
 C368 C 0.40638 0.40199 0.42614
 C369 C 0.37125 0.37542 0.39981
 C370 C 0.35959 0.29492 0.39949
 C371 C 0.31517 0.24472 0.41719
 C372 C 0.24630 0.31020 0.41720
 C373 C 0.29000 0.36054 0.39947
 H374 H 0.38112 0.36201 0.46346
 H375 H 0.46352 0.45181 0.43046
 H376 H 0.38511 0.27889 0.38652
 H377 H 0.30273 0.18645 0.41833
 H378 H 0.18711 0.29334 0.41871
 H379 H 0.26837 0.38704 0.38615
 C380 C -0.10919 0.69735 0.76319
 C381 C -0.12878 0.61650 0.77239
 C382 C -0.11522 0.57856 0.75601
 C383 C -0.08113 0.62534 0.73206
 C384 C -0.14306 0.64267 0.72249
 C385 C -0.15669 0.68115 0.73848
 C386 C -0.02497 0.73985 0.75656
 C387 C -0.01047 0.70265 0.74059
 H388 H -0.15939 0.58732 0.78870
 H389 H -0.13539 0.51794 0.75876
 H390 H -0.17680 0.62218 0.70517
 H391 H -0.20141 0.69359 0.73460
 H392 H 0.02026 0.79478 0.76422
 H393 H 0.04699 0.72594 0.73464
   
