data_POSCAR
  _audit_creation_date              2014-09-24
  _audit_creation_method            'ToBaCCo'
  _symmetry_space_group_name_H-M    'P1'
  _symmetry_Int_Tables_number       1
  _symmetry_cell_setting            triclinic
  loop_
  _symmetry_equiv_pos_as_xyz
 x,y,z
_cell_length_a 39.0315
_cell_length_b 39.0315
_cell_length_c 37.7089
_cell_angle_alpha 90.000000
_cell_angle_beta 90.000000
_cell_angle_gamma 90.000000
loop_
  _atom_site_label
  _atom_site_type_symbol
  _atom_site_fract_x
  _atom_site_fract_y
  _atom_site_fract_z
C1 C 0.22263 0.27435 0.28047
 C2 C 0.24681 0.29600 0.25614
 C3 C 0.26848 0.27778 0.23408
 C4 C 0.26280 0.23763 0.23902
 C5 C 0.20355 0.25044 0.25397
 C6 C 0.22325 0.23062 0.23195
 C7 C 0.24763 0.24970 0.30036
 C8 C 0.26919 0.22996 0.27993
 H9 H 0.24751 0.32364 0.25737
 H10 H 0.27903 0.22196 0.22142
 H11 H 0.17588 0.25038 0.25234
 H12 H 0.24853 0.24914 0.32902
 C13 C 0.72370 0.77899 0.27584
 C14 C 0.74905 0.79832 0.25080
 C15 C 0.77018 0.77888 0.22976
 C16 C 0.76336 0.73930 0.23682
 C17 C 0.70426 0.75409 0.25069
 C18 C 0.72369 0.73290 0.22976
 C19 C 0.74768 0.75475 0.29775
 C20 C 0.76914 0.73362 0.27827
 H21 H 0.75071 0.82597 0.25119
 H22 H 0.77938 0.72234 0.22031
 H23 H 0.67658 0.75414 0.24934
 H24 H 0.74848 0.75545 0.32639
 C25 C 0.72106 0.27519 0.78122
 C26 C 0.74342 0.29829 0.75701
 C27 C 0.76532 0.28207 0.73375
 C28 C 0.76214 0.24156 0.73756
 C29 C 0.70253 0.25106 0.75456
 C30 C 0.72262 0.23269 0.73144
 C31 C 0.74746 0.25129 0.79979
 C32 C 0.76945 0.23308 0.77831
 H33 H 0.74053 0.32582 0.75655
 H34 H 0.77928 0.22778 0.71906
 H35 H 0.67487 0.24961 0.75387
 H36 H 0.74872 0.24983 0.82839
 C37 C 0.22373 0.77540 0.77773
 C38 C 0.24642 0.79566 0.75441
 C39 C 0.26927 0.77630 0.73138
 C40 C 0.26362 0.73836 0.73662
 C41 C 0.20437 0.75121 0.75174
 C42 C 0.22395 0.73119 0.72980
 C43 C 0.24861 0.75083 0.79792
 C44 C 0.27006 0.73091 0.77758
 H45 H 0.24703 0.82328 0.75550
 H46 H 0.27932 0.72178 0.71952
 H47 H 0.17669 0.75115 0.75035
 H48 H 0.24962 0.75051 0.82658
 C49 C 0.05207 0.05899 0.01698
 H50 H 0.05226 0.05975 -0.01170
 C51 C 0.07552 0.08035 0.03602
 H52 H 0.09248 0.09662 0.02080
 C53 C 0.02997 0.03761 0.07026
 H54 H 0.01254 0.02093 0.08439
 C55 C 0.05292 0.05905 0.09040
 H56 H 0.05229 0.05764 0.11905
 N57 N 0.02967 0.03728 0.03372
 C58 C 0.01359 -0.05405 -0.04595
 H59 H -0.01366 -0.05830 -0.04301
 C60 C 0.03314 -0.07749 -0.06695
 H61 H 0.01984 -0.09871 -0.07926
 C62 C 0.06299 -0.02224 -0.03341
 H63 H 0.07550 -0.00108 -0.02024
 C64 C 0.08344 -0.04492 -0.05481
 H65 H 0.11072 -0.04035 -0.05684
 Zn66 Zn -0.00246 0.00535 0.00297
 N67 N 0.02825 -0.02672 -0.02887
 C68 C -0.03239 0.03122 -0.06623
 N69 N -0.03371 0.03592 -0.03023
 C70 C -0.05553 0.06108 -0.01808
 C71 C -0.07575 0.08206 -0.04162
 C72 C -0.05213 0.05141 -0.09042
 C73 C -0.01751 -0.05129 0.05577
 C74 C -0.03661 -0.07491 0.07707
 C75 C -0.08827 -0.04736 0.05926
 C76 C -0.06817 -0.02430 0.03780
 N77 N -0.03296 -0.02627 0.03584
 H78 H -0.01577 0.01154 -0.07679
 H79 H -0.05729 0.06550 0.01018
 H80 H -0.09187 0.10179 -0.03030
 H81 H -0.04984 0.04546 -0.11831
 H82 H 0.01010 -0.05358 0.05492
 H83 H -0.02247 -0.09399 0.09185
 H84 H -0.11588 -0.04480 0.05913
 H85 H -0.08127 -0.00497 0.02236
 C86 C 0.06905 -0.07383 -0.07201
 C87 C 0.07707 0.08096 0.07370
 C88 C -0.07300 -0.07406 0.07938
 C89 C -0.07438 0.07819 -0.07907
 C90 C 0.05050 0.55767 0.51835
 H91 H 0.05078 0.55784 0.48966
 C92 C 0.07424 0.57905 0.53697
 H93 H 0.09146 0.59473 0.52143
 C94 C 0.02788 0.53779 0.57201
 H95 H 0.01010 0.52179 0.58647
 C96 C 0.05114 0.55927 0.59173
 H97 H 0.05039 0.55850 0.62041
 N98 N 0.02773 0.53663 0.53547
 C99 C 0.01164 0.44517 0.45560
 H100 H -0.01570 0.44122 0.45803
 C101 C 0.03126 0.42167 0.43470
 H102 H 0.01791 0.40070 0.42198
 C103 C 0.06121 0.47627 0.46924
 H104 H 0.07378 0.49717 0.48279
 C105 C 0.08172 0.45355 0.44793
 H106 H 0.10907 0.45785 0.44637
 Zn107 Zn -0.00445 0.50468 0.50465
 N108 N 0.02635 0.47218 0.47319
 C109 C -0.03410 0.53116 0.43518
 N110 N -0.03511 0.53572 0.47121
 C111 C -0.05676 0.56091 0.48364
 C112 C -0.07708 0.58211 0.46038
 C113 C -0.05397 0.55156 0.41126
 C114 C -0.02706 0.45536 0.56580
 C115 C -0.05062 0.43449 0.58600
 C116 C -0.09465 0.45012 0.54548
 C117 C -0.07069 0.47094 0.52654
 N118 N -0.03706 0.47392 0.53645
 H119 H -0.01771 0.51139 0.42440
 H120 H -0.05835 0.56515 0.51194
 H121 H -0.09304 0.60184 0.47193
 H122 H -0.05196 0.54569 0.38333
 H123 H -0.00058 0.45661 0.57416
 H124 H -0.04113 0.42117 0.60916
 H125 H -0.12023 0.44866 0.53472
 H126 H -0.07936 0.48445 0.50316
 C127 C 0.06728 0.42497 0.43020
 C128 C 0.07573 0.58041 0.57463
 C129 C -0.08580 0.43136 0.57665
 C130 C -0.07605 0.57840 0.42291
 C131 C 0.55113 0.05659 0.52027
 H132 H 0.55132 0.05675 0.49160
 C133 C 0.57468 0.07830 0.53875
 H134 H 0.59161 0.09418 0.52308
 C135 C 0.52898 0.03654 0.57405
 H136 H 0.51150 0.02026 0.58861
 C137 C 0.55210 0.05831 0.59364
 H138 H 0.55150 0.05753 0.62232
 N139 N 0.52859 0.03541 0.53752
 C140 C 0.53125 -0.06314 0.47887
 H141 H 0.51677 -0.07588 0.49942
 C142 C 0.55300 -0.08354 0.45634
 H143 H 0.55396 -0.11098 0.46039
 C144 C 0.54686 -0.01330 0.44838
 H145 H 0.54501 0.01408 0.44443
 C146 C 0.56825 -0.03276 0.42507
 H147 H 0.58188 -0.01924 0.40436
 Zn148 Zn 0.49639 0.00302 0.50721
 N149 N 0.52802 -0.02817 0.47496
 C150 C 0.46352 0.02658 0.43838
 N151 N 0.46477 0.03338 0.47404
 C152 C 0.44508 0.06036 0.48592
 C153 C 0.42466 0.08120 0.46239
 C154 C 0.44354 0.04658 0.41424
 C155 C 0.48069 -0.05266 0.56172
 C156 C 0.46107 -0.07597 0.58294
 C157 C 0.40984 -0.04908 0.56291
 C158 C 0.43044 -0.02653 0.54138
 N159 N 0.46570 -0.02838 0.54044
 H160 H 0.47810 0.00525 0.42807
 H161 H 0.44529 0.06642 0.51391
 H162 H 0.41037 0.10243 0.47341
 H163 H 0.44375 0.03899 0.38667
 H164 H 0.50833 -0.05471 0.56200
 H165 H 0.47474 -0.09486 0.59847
 H166 H 0.38223 -0.04673 0.56188
 H167 H 0.41768 -0.00769 0.52501
 C168 C 0.57204 -0.06884 0.42815
 C169 C 0.57634 0.07976 0.57640
 C170 C 0.42466 -0.07519 0.58416
 C171 C 0.42359 0.07523 0.42523
 C172 C 0.55029 0.55815 0.01963
 H173 H 0.55040 0.55837 -0.00906
 C174 C 0.57397 0.57965 0.03818
 H175 H 0.59107 0.59546 0.02261
 C176 C 0.52814 0.53794 0.07339
 H177 H 0.51063 0.52167 0.08789
 C178 C 0.55131 0.55958 0.09303
 H179 H 0.55074 0.55873 0.12171
 N180 N 0.52777 0.53692 0.03686
 C181 C 0.51100 0.44452 -0.04130
 H182 H 0.48376 0.44037 -0.03815
 C183 C 0.53039 0.42078 -0.06209
 H184 H 0.51697 0.39946 -0.07407
 C185 C 0.56053 0.47640 -0.02949
 H186 H 0.57315 0.49770 -0.01669
 C187 C 0.58081 0.45342 -0.05069
 H188 H 0.60808 0.45795 -0.05298
 Zn189 Zn 0.49536 0.50468 0.00676
 N190 N 0.52581 0.47205 -0.02470
 C191 C 0.46521 0.52949 -0.06266
 N192 N 0.46424 0.53493 -0.02677
 C193 C 0.44286 0.56062 -0.01497
 C194 C 0.42278 0.58144 -0.03879
 C195 C 0.44558 0.54946 -0.08711
 C196 C 0.48022 0.44944 0.06108
 C197 C 0.46111 0.42614 0.08274
 C198 C 0.40935 0.45226 0.06308
 C199 C 0.42948 0.47508 0.04136
 N200 N 0.46475 0.47362 0.04012
 H201 H 0.48148 0.50937 -0.07293
 H202 H 0.44139 0.56563 0.01321
 H203 H 0.40704 0.60163 -0.02778
 H204 H 0.44755 0.54291 -0.11488
 H205 H 0.50788 0.44757 0.06083
 H206 H 0.47531 0.40775 0.09838
 H207 H 0.38171 0.45433 0.06231
 H208 H 0.41636 0.49375 0.02509
 C209 C 0.56627 0.42433 -0.06743
 C210 C 0.57560 0.58096 0.07583
 C211 C 0.42468 0.42639 0.08428
 C212 C 0.42383 0.57680 -0.07616
 C213 C 0.16905 -0.15485 -0.16603
 C214 C 0.14763 -0.17675 -0.14815
 C215 C 0.14996 -0.21222 -0.15244
 C216 C 0.17483 -0.22594 -0.17587
 C217 C 0.19771 -0.20508 -0.19603
 C218 C 0.19441 -0.16831 -0.19044
 O219 O 0.16242 -0.12180 -0.15746
 C220 C 0.13628 -0.12305 -0.13386
 C221 C 0.12633 -0.15624 -0.12759
 C222 C 0.09936 -0.16388 -0.10452
 C223 C 0.08171 -0.13680 -0.08730
 C224 C 0.09051 -0.10164 -0.09219
 C225 C 0.11897 -0.09503 -0.11608
 H226 H 0.13300 -0.22912 -0.13797
 H227 H 0.17609 -0.25354 -0.17856
 H228 H 0.21085 -0.15062 -0.20445
 H229 H 0.09187 -0.19020 -0.09991
 H230 H 0.06110 -0.14356 -0.06943
 H231 H 0.12698 -0.06895 -0.12115
 C232 C 0.16777 0.34383 0.33672
 C233 C 0.14605 0.32194 0.35423
 C234 C 0.14825 0.28648 0.34973
 C235 C 0.17331 0.27275 0.32647
 C236 C 0.19647 0.29362 0.30670
 C237 C 0.19330 0.33036 0.31248
 O238 O 0.16125 0.37687 0.34544
 C239 C 0.13485 0.37564 0.36874
 C240 C 0.12464 0.34247 0.37469
 C241 C 0.09734 0.33489 0.39738
 C242 C 0.07967 0.36199 0.41457
 C243 C 0.08876 0.39712 0.41004
 C244 C 0.11753 0.40367 0.38652
 H245 H 0.13105 0.26957 0.36390
 H246 H 0.17446 0.24517 0.32359
 H247 H 0.20998 0.34800 0.29871
 H248 H 0.08962 0.30859 0.40172
 H249 H 0.05879 0.35527 0.43212
 H250 H 0.12577 0.42973 0.38173
 C251 C 0.66687 -0.16743 0.34690
 C252 C 0.65057 -0.14555 0.32391
 C253 C 0.65625 -0.14711 0.28740
 C254 C 0.67943 -0.17172 0.27369
 C255 C 0.69802 -0.19505 0.29561
 C256 C 0.69108 -0.19255 0.33346
 O257 O 0.65699 -0.16149 0.38082
 C258 C 0.63420 -0.13533 0.37898
 C259 C 0.62971 -0.12470 0.34459
 C260 C 0.60777 -0.09761 0.33614
 C261 C 0.58982 -0.08050 0.36364
 C262 C 0.59283 -0.08997 0.40003
 C263 C 0.61562 -0.11857 0.40746
 H264 H 0.64298 -0.12983 0.26965
 H265 H 0.68308 -0.17248 0.24523
 H266 H 0.70384 -0.20954 0.35184
 H267 H 0.60459 -0.08959 0.30886
 H268 H 0.57292 -0.05972 0.35622
 H269 H 0.61926 -0.12706 0.43450
 C270 C 0.66620 0.34347 -0.16138
 C271 C 0.64475 0.32139 -0.14380
 C272 C 0.64718 0.28592 -0.14849
 C273 C 0.67217 0.27245 -0.17206
 C274 C 0.69497 0.29364 -0.19190
 C275 C 0.69159 0.33031 -0.18580
 O276 O 0.65961 0.37644 -0.15260
 C277 C 0.63341 0.37505 -0.12915
 C278 C 0.62338 0.34182 -0.12314
 C279 C 0.59627 0.33417 -0.10023
 C280 C 0.57864 0.36125 -0.08293
 C281 C 0.58758 0.39641 -0.08761
 C282 C 0.61614 0.40302 -0.11132
 H283 H 0.63021 0.26884 -0.13426
 H284 H 0.67353 0.24491 -0.17518
 H285 H 0.70802 0.34825 -0.19942
 H286 H 0.58868 0.30785 -0.09579
 H287 H 0.55794 0.35448 -0.06517
 H288 H 0.62426 0.42909 -0.11624
 C289 C -0.17511 0.17311 -0.15764
 C290 C -0.14891 0.16401 -0.17994
 C291 C -0.14789 0.17577 -0.21508
 C292 C -0.17442 0.19759 -0.22793
 C293 C -0.20243 0.20830 -0.20633
 C294 C -0.20220 0.19528 -0.17012
 O295 O -0.17122 0.15896 -0.12511
 C296 C -0.14189 0.14057 -0.12690
 C297 C -0.12735 0.14296 -0.15999
 C298 C -0.09666 0.12616 -0.16783
 C299 C -0.08035 0.10607 -0.14130
 C300 C -0.09403 0.10174 -0.10638
 C301 C -0.12572 0.12016 -0.09943
 H302 H -0.12701 0.16842 -0.23235
 H303 H -0.17253 0.20655 -0.25498
 H304 H -0.22261 0.20190 -0.15202
 H305 H -0.08525 0.12857 -0.19387
 H306 H -0.05626 0.09426 -0.14836
 H307 H -0.13771 0.11837 -0.07365
 C308 C -0.17648 0.67419 0.34442
 C309 C -0.15009 0.66490 0.32241
 C310 C -0.14855 0.67651 0.28735
 C311 C -0.17478 0.69829 0.27409
 C312 C -0.20316 0.70918 0.29511
 C313 C -0.20343 0.69654 0.33148
 O314 O -0.17280 0.65995 0.37700
 C315 C -0.14348 0.64139 0.37539
 C316 C -0.12876 0.64379 0.34242
 C317 C -0.09811 0.62696 0.33458
 C318 C -0.08193 0.60672 0.36102
 C319 C -0.09572 0.60223 0.39585
 C320 C -0.12741 0.62077 0.40283
 H321 H -0.12745 0.66906 0.27039
 H322 H -0.17221 0.70709 0.24711
 H323 H -0.22408 0.70359 0.34915
 H324 H -0.08662 0.62945 0.30859
 H325 H -0.05784 0.59491 0.35396
 H326 H -0.13946 0.61888 0.42858
 C327 C 0.32414 0.17101 0.34579
 C328 C 0.34914 0.15961 0.32312
 C329 C 0.34950 0.16951 0.28742
 C330 C 0.32357 0.19180 0.27428
 C331 C 0.29671 0.20488 0.29610
 C332 C 0.29759 0.19376 0.33299
 O333 O 0.32862 0.15829 0.37889
 C334 C 0.35705 0.13849 0.37703
 C335 C 0.37044 0.13860 0.34335
 C336 C 0.40002 0.12005 0.33520
 C337 C 0.41641 0.10049 0.36206
 C338 C 0.40391 0.09846 0.39766
 C339 C 0.37336 0.11866 0.40490
 H340 H 0.36944 0.16033 0.26989
 H341 H 0.32509 0.19908 0.24672
 H342 H 0.27812 0.20229 0.35135
 H343 H 0.41050 0.12069 0.30863
 H344 H 0.43965 0.08721 0.35471
 H345 H 0.36233 0.11863 0.43121
 C346 C 0.32433 0.67167 -0.15651
 C347 C 0.35039 0.66163 -0.17858
 C348 C 0.35165 0.67252 -0.21396
 C349 C 0.32551 0.69441 -0.22737
 C350 C 0.29763 0.70609 -0.20612
 C351 C 0.29760 0.69401 -0.16957
 O352 O 0.32806 0.65816 -0.12365
 C353 C 0.35710 0.63926 -0.12504
 C354 C 0.37163 0.64072 -0.15819
 C355 C 0.40204 0.62333 -0.16575
 C356 C 0.41812 0.60356 -0.13884
 C357 C 0.40443 0.60013 -0.10383
 C358 C 0.37303 0.61917 -0.09718
 H359 H 0.37244 0.66443 -0.23101
 H360 H 0.32769 0.70265 -0.25460
 H361 H 0.27727 0.70152 -0.15171
 H362 H 0.41342 0.62505 -0.19186
 H363 H 0.44203 0.59129 -0.14570
 H364 H 0.36109 0.61806 -0.07133
 C365 C -0.17488 -0.15584 0.17087
 C366 C -0.14911 -0.17699 0.15940
 C367 C -0.14841 -0.21170 0.16896
 C368 C -0.17473 -0.22531 0.19106
 C369 C -0.20215 -0.20490 0.20441
 C370 C -0.20169 -0.16909 0.19351
 O371 O -0.17080 -0.12354 0.15847
 C372 C -0.14179 -0.12431 0.13884
 C373 C -0.12756 -0.15652 0.13878
 C374 C -0.09714 -0.16321 0.12045
 C375 C -0.08055 -0.13627 0.10174
 C376 C -0.09362 -0.10210 0.10051
 C377 C -0.12550 -0.09655 0.11958
 H378 H -0.12793 -0.22810 0.15968
 H379 H -0.17310 -0.25207 0.19808
 H380 H -0.22169 -0.15185 0.20213
 H381 H -0.08624 -0.18871 0.12052
 H382 H -0.05729 -0.14254 0.08755
 H383 H -0.13699 -0.07133 0.11995
 C384 C -0.16608 0.33173 0.67358
 C385 C -0.18813 0.35235 0.65490
 C386 C -0.22363 0.34969 0.65893
 C387 C -0.23730 0.32558 0.68325
 C388 C -0.21634 0.30357 0.70419
 C389 C -0.17957 0.30684 0.69870
 O390 O -0.13300 0.33912 0.66547
 C391 C -0.13443 0.36486 0.64130
 C392 C -0.16775 0.37376 0.63430
 C393 C -0.17570 0.40036 0.61101
 C394 C -0.14893 0.41840 0.59375
 C395 C -0.11345 0.41031 0.59839
 C396 C -0.10654 0.38274 0.62357
 H397 H -0.24060 0.36618 0.64396
 H398 H -0.26487 0.32455 0.68632
 H399 H -0.16209 0.29143 0.71423
 H400 H -0.20213 0.40749 0.60642
 H401 H -0.15661 0.43946 0.57701
 H402 H -0.08040 0.37520 0.62900
 C403 C 0.32331 -0.15748 0.67612
 C404 C 0.34746 -0.17886 0.66174
 C405 C 0.34703 -0.21404 0.66866
 C406 C 0.32122 -0.22808 0.69099
 C407 C 0.29522 -0.20768 0.70756
 C408 C 0.29707 -0.17112 0.69942
 O409 O 0.32830 -0.12466 0.66555
 C410 C 0.35624 -0.12546 0.64424
 C411 C 0.36894 -0.15815 0.64138
 C412 C 0.39821 -0.16510 0.62120
 C413 C 0.41525 -0.13788 0.60342
 C414 C 0.40360 -0.10325 0.60474
 C415 C 0.37288 -0.09738 0.62573
 H416 H 0.36630 -0.23057 0.65711
 H417 H 0.32278 -0.25525 0.69563
 H418 H 0.27845 -0.15357 0.71035
 H419 H 0.40794 -0.19100 0.61926
 H420 H 0.43773 -0.14416 0.58792
 H421 H 0.36262 -0.07173 0.62811
 C422 C 0.32267 0.34424 0.17557
 C423 C 0.34939 0.32367 0.16532
 C424 C 0.35111 0.28931 0.17584
 C425 C 0.32476 0.27534 0.19755
 C426 C 0.29617 0.29499 0.20948
 C427 C 0.29568 0.33058 0.19787
 O428 O 0.32611 0.37635 0.16237
 C429 C 0.35564 0.37597 0.14350
 C430 C 0.37079 0.34422 0.14471
 C431 C 0.40179 0.33786 0.12734
 C432 C 0.41808 0.36469 0.10824
 C433 C 0.40417 0.39846 0.10572
 C434 C 0.37167 0.40365 0.12384
 H435 H 0.37242 0.27345 0.16763
 H436 H 0.32738 0.24892 0.20553
 H437 H 0.27484 0.34720 0.20569
 H438 H 0.41334 0.31267 0.12842
 H439 H 0.44178 0.35863 0.09478
 H440 H 0.35952 0.42855 0.12318
 C441 C 0.15897 0.17115 0.17716
 C442 C 0.17912 0.16266 0.14868
 C443 C 0.21294 0.17455 0.14603
 C444 C 0.22668 0.19589 0.17322
 C445 C 0.20721 0.20604 0.20343
 C446 C 0.17233 0.19293 0.20487
 O447 O 0.12743 0.15697 0.17458
 C448 C 0.12763 0.13922 0.14378
 C449 C 0.15873 0.14209 0.12694
 C450 C 0.16461 0.12609 0.09433
 C451 C 0.13797 0.10671 0.07822
 C452 C 0.10494 0.10252 0.09397
 C453 C 0.10025 0.11926 0.12803
 H454 H 0.22852 0.16769 0.12337
 H455 H 0.25263 0.20505 0.17005
 H456 H 0.15594 0.19924 0.22705
 H457 H 0.18924 0.12847 0.08137
 H458 H 0.14359 0.09439 0.05319
 H459 H 0.07590 0.11733 0.14158
 C460 C 0.15898 0.67140 0.67624
 C461 C 0.17895 0.66222 0.64787
 C462 C 0.21289 0.67373 0.64490
 C463 C 0.22692 0.69540 0.67167
 C464 C 0.20764 0.70625 0.70176
 C465 C 0.17264 0.69348 0.70353
 O466 O 0.12728 0.65751 0.67402
 C467 C 0.12718 0.63925 0.64354
 C468 C 0.15827 0.64150 0.62657
 C469 C 0.16387 0.62486 0.59424
 C470 C 0.13697 0.60550 0.57857
 C471 C 0.10392 0.60197 0.59447
 C472 C 0.09952 0.61934 0.62823
 H473 H 0.22833 0.66634 0.62233
 H474 H 0.25295 0.70427 0.66825
 H475 H 0.15637 0.70029 0.72563
 H476 H 0.18849 0.62673 0.58118
 H477 H 0.14240 0.59267 0.55377
 H478 H 0.07519 0.61794 0.64188
 C479 C 0.65867 0.17180 0.67787
 C480 C 0.67853 0.16342 0.64915
 C481 C 0.71214 0.17584 0.64593
 C482 C 0.72593 0.19760 0.67279
 C483 C 0.70672 0.20765 0.70321
 C484 C 0.67209 0.19391 0.70524
 O485 O 0.62729 0.15716 0.67590
 C486 C 0.62727 0.13921 0.64523
 C487 C 0.65809 0.14238 0.62789
 C488 C 0.66369 0.12616 0.59533
 C489 C 0.63707 0.10627 0.57983
 C490 C 0.60429 0.10181 0.59609
 C491 C 0.59991 0.11878 0.63007
 H492 H 0.72752 0.16906 0.62311
 H493 H 0.75171 0.20711 0.66924
 H494 H 0.65587 0.19996 0.72761
 H495 H 0.68810 0.12873 0.58198
 H496 H 0.64255 0.09378 0.55486
 H497 H 0.57578 0.11668 0.64402
 C498 C 0.65861 0.67278 0.17677
 C499 C 0.67875 0.66300 0.14873
 C500 C 0.71280 0.67416 0.14589
 C501 C 0.72679 0.69609 0.17242
 C502 C 0.70734 0.70759 0.20214
 C503 C 0.67221 0.69520 0.20380
 O504 O 0.62682 0.65910 0.17447
 C505 C 0.62686 0.64039 0.14429
 C506 C 0.65809 0.64215 0.12756
 C507 C 0.66384 0.62506 0.09550
 C508 C 0.63691 0.60571 0.07987
 C509 C 0.60375 0.60260 0.09557
 C510 C 0.59919 0.62045 0.12904
 H511 H 0.72837 0.66629 0.12358
 H512 H 0.75292 0.70468 0.16910
 H513 H 0.65582 0.70256 0.22561
 H514 H 0.68857 0.62660 0.08262
 H515 H 0.64239 0.59256 0.05526
 H516 H 0.57474 0.61938 0.14249
   
