data_POSCAR
  _audit_creation_date              2014-09-24
  _audit_creation_method            'ToBaCCo'
  _symmetry_space_group_name_H-M    'P1'
  _symmetry_Int_Tables_number       1
  _symmetry_cell_setting            triclinic
  loop_
  _symmetry_equiv_pos_as_xyz
 x,y,z
_cell_length_a 28.5896
_cell_length_b 28.3125
_cell_length_c 43.8946
_cell_angle_alpha 91.578000
_cell_angle_beta 92.501200
_cell_angle_gamma 102.451100
loop_
  _atom_site_label
  _atom_site_type_symbol
  _atom_site_fract_x
  _atom_site_fract_y
  _atom_site_fract_z
C1 C 0.00644 0.40425 0.97306
 C2 C 0.00340 0.37888 1.00004
 C3 C -0.00408 0.40023 1.02829
 C4 C -0.00844 0.44955 1.02912
 C5 C -0.00342 0.47636 1.00206
 C6 C 0.00386 0.45350 0.97401
 C7 C 0.00864 0.48055 0.94753
 C8 C 0.00469 0.52854 0.94820
 C9 C -0.00335 0.55196 0.97549
 C10 C -0.00709 0.52587 1.00279
 C11 C -0.02098 0.47208 1.05566
 C12 C -0.02520 0.52009 1.05621
 C13 C -0.01591 0.54868 1.03058
 C14 C -0.01941 0.59817 1.03101
 C15 C -0.01826 0.62201 1.00340
 C16 C -0.00948 0.60022 0.97588
 H17 H 0.01549 0.46501 0.92584
 H18 H 0.00725 0.54666 0.92678
 H19 H -0.02985 0.45268 1.07618
 H20 H -0.03793 0.53367 1.07679
 H21 H 0.00758 0.34187 0.99862
 H22 H -0.02085 0.65970 1.00365
 C23 C 0.40883 0.02502 0.52650
 C24 C 0.38338 0.02642 0.49865
 C25 C 0.40483 0.02473 0.47071
 C26 C 0.45383 0.02251 0.47048
 C27 C 0.48040 0.02122 0.49839
 C28 C 0.45772 0.02217 0.52651
 C29 C 0.48411 0.01858 0.55380
 C30 C 0.53178 0.01475 0.55360
 C31 C 0.55530 0.01481 0.52614
 C32 C 0.52954 0.01816 0.49816
 C33 C 0.47701 0.02181 0.44300
 C34 C 0.52476 0.01869 0.44269
 C35 C 0.55236 0.01737 0.46995
 C36 C 0.60136 0.01356 0.46989
 C37 C 0.62573 0.01081 0.49811
 C38 C 0.60351 0.01032 0.52588
 H39 H 0.46804 0.01770 0.57567
 H40 H 0.54979 0.01124 0.57533
 H41 H 0.45861 0.02372 0.42117
 H42 H 0.53874 0.01646 0.42043
 H43 H 0.34589 0.02817 0.49874
 H44 H 0.66376 0.01163 0.49912
 C45 C 0.08385 0.02002 0.26531
 H46 H 0.08855 0.01508 0.24120
 C47 C 0.12391 0.03176 0.28576
 H48 H 0.15938 0.03617 0.27710
 C49 C 0.03178 0.02184 0.30567
 H50 H -0.00408 0.01849 0.31340
 C51 C 0.07069 0.03412 0.32677
 H52 H 0.06432 0.03959 0.35063
 N53 N 0.03885 0.01427 0.27564
 C54 C -0.05767 -0.08154 0.20954
 H55 H -0.08574 -0.06142 0.20744
 C56 C -0.06197 -0.12506 0.19291
 H57 H -0.09354 -0.13821 0.17797
 C58 C 0.01771 -0.08834 0.23138
 H59 H 0.04864 -0.07401 0.24648
 C60 C 0.01485 -0.13220 0.21517
 H61 H 0.04443 -0.15016 0.21774
 Zn62 Zn -0.01526 -0.00277 0.24790
 N63 N -0.01783 -0.06351 0.22779
 C64 C -0.01136 0.03389 0.18865
 N65 N -0.01158 0.04612 0.21879
 C66 C -0.00835 0.09287 0.22836
 C67 C -0.00697 0.12916 0.20717
 C68 C -0.01000 0.06878 0.16675
 C69 C -0.08196 -0.04898 0.28716
 C70 C -0.12063 -0.05560 0.30600
 C71 C -0.13822 0.01929 0.28873
 C72 C -0.09950 0.02401 0.26979
 N73 N -0.07160 -0.00928 0.26996
 H74 H -0.01231 -0.00303 0.18138
 H75 H -0.00744 0.10191 0.25252
 H76 H -0.00558 0.16556 0.21575
 H77 H -0.01057 0.05773 0.14287
 H78 H -0.05932 -0.07505 0.28674
 H79 H -0.12738 -0.08715 0.31993
 H80 H -0.15877 0.04709 0.28829
 H81 H -0.09128 0.05486 0.25553
 C82 C -0.02534 -0.15086 0.19536
 C83 C 0.11735 0.03833 0.31703
 C84 C -0.14881 -0.02070 0.30770
 C85 C -0.00827 0.11718 0.17568
 C86 C 0.01289 0.09376 0.76619
 H87 H -0.00791 0.09378 0.74503
 C88 C 0.02248 0.13479 0.78583
 H89 H 0.00921 0.16616 0.77916
 C90 C 0.05672 0.05314 0.79975
 H91 H 0.06969 0.02099 0.80504
 C92 C 0.06707 0.09325 0.82002
 H93 H 0.08807 0.09170 0.84097
 N94 N 0.02929 0.05375 0.77374
 C95 C 0.06340 -0.05109 0.70856
 H96 H 0.03246 -0.08063 0.70961
 C97 C 0.10046 -0.05580 0.68985
 H98 H 0.09769 -0.08914 0.67650
 C99 C 0.10416 0.02829 0.72447
 H100 H 0.10535 0.06104 0.73801
 C101 C 0.14205 0.02518 0.70595
 H102 H 0.17222 0.05564 0.70604
 Zn103 Zn 0.01314 -0.00390 0.74926
 N104 N 0.06560 -0.00937 0.72521
 C105 C -0.04206 -0.01447 0.69306
 N106 N -0.04230 -0.00350 0.72340
 C107 C -0.08152 0.00817 0.73553
 C108 C -0.12295 0.00739 0.71723
 C109 C -0.08280 -0.01625 0.67399
 C110 C 0.03147 -0.08630 0.77912
 C111 C 0.02328 -0.12401 0.79943
 C112 C -0.04903 -0.09959 0.81329
 C113 C -0.03932 -0.06235 0.79278
 N114 N 0.00012 -0.05661 0.77590
 H115 H -0.01029 -0.02189 0.68337
 H116 H -0.08055 0.01885 0.75940
 H117 H -0.15373 0.01661 0.72754
 H118 H -0.08037 -0.02449 0.65003
 H119 H 0.06369 -0.08017 0.76653
 H120 H 0.04969 -0.14596 0.80143
 H121 H -0.08075 -0.10318 0.82644
 H122 H -0.06314 -0.03772 0.79071
 C123 C 0.14013 -0.01720 0.68796
 C124 C 0.04898 0.13435 0.81357
 C125 C -0.01771 -0.13129 0.81694
 C126 C -0.12460 -0.00605 0.68609
 C127 C -0.02367 -0.37381 0.05741
 C128 C -0.00065 -0.37699 0.08582
 C129 C -0.00295 -0.34243 0.11131
 C130 C -0.04444 -0.32441 0.11538
 C131 C -0.04478 -0.28874 0.13792
 C132 C -0.00342 -0.27001 0.15673
 C133 C 0.03700 -0.29024 0.15385
 C134 C 0.03719 -0.32625 0.13138
 C135 C -0.00090 -0.22904 0.17899
 C136 C -0.02973 -0.19517 0.17569
 H137 H 0.02452 -0.40046 0.08819
 H138 H -0.07664 -0.33772 0.10104
 H139 H -0.07755 -0.27613 0.14041
 H140 H 0.06904 -0.27708 0.16838
 H141 H 0.06932 -0.34019 0.12895
 H142 H 0.02654 -0.22409 0.19724
 H143 H -0.03898 -0.34226 0.05442
 H144 H -0.05642 -0.20016 0.15698
 C145 C -0.00551 0.37291 0.05501
 C146 C -0.01713 0.32215 0.05467
 C147 C -0.01555 0.29294 0.08206
 C148 C -0.04084 0.24454 0.08046
 C149 C -0.03856 0.21455 0.10492
 C150 C -0.01030 0.23214 0.13152
 C151 C 0.01412 0.28085 0.13352
 C152 C 0.01193 0.31096 0.10894
 C153 C -0.00617 0.20042 0.15735
 C154 C -0.00893 0.15072 0.15267
 H155 H -0.03151 0.30224 0.03374
 H156 H -0.06245 0.22975 0.06012
 H157 H -0.05928 0.17770 0.10295
 H158 H 0.03592 0.29528 0.15385
 H159 H 0.03278 0.34772 0.11088
 H160 H 0.00164 0.21747 0.17985
 H161 H 0.00140 0.39149 0.07702
 H162 H -0.01144 0.13689 0.12925
 C163 C 0.38337 0.02721 0.55513
 C164 C 0.33664 0.00052 0.55780
 C165 C 0.30715 0.00381 0.58440
 C166 C 0.31790 0.04271 0.60605
 C167 C 0.28716 0.04559 0.62966
 C168 C 0.24526 0.00975 0.63227
 C169 C 0.23457 -0.02905 0.61057
 C170 C 0.26522 -0.03190 0.58699
 C171 C 0.21216 0.01561 0.65652
 C172 C 0.17780 -0.02284 0.66679
 H173 H 0.32083 -0.02486 0.53931
 H174 H 0.34910 0.07172 0.60445
 H175 H 0.29586 0.07626 0.64578
 H176 H 0.20186 -0.05653 0.61095
 H177 H 0.25566 -0.06184 0.57037
 H178 H 0.21486 0.05177 0.66600
 H179 H 0.40192 0.04950 0.57419
 H180 H 0.17680 -0.05908 0.65792
 C181 C -0.36724 0.00634 0.55415
 C182 C -0.33744 -0.02684 0.55506
 C183 C -0.29940 -0.02788 0.57894
 C184 C -0.28705 0.00687 0.60318
 C185 C -0.24776 0.00641 0.62334
 C186 C -0.22014 -0.02872 0.61961
 C187 C -0.23307 -0.06369 0.59577
 C188 C -0.27230 -0.06342 0.57581
 C189 C -0.17595 -0.02832 0.63858
 C190 C -0.16728 -0.00801 0.66829
 H191 H -0.34062 -0.05249 0.53587
 H192 H -0.30645 0.03529 0.60628
 H193 H -0.23814 0.03466 0.64102
 H194 H -0.21230 -0.09102 0.59229
 H195 H -0.28077 -0.09051 0.55732
 H196 H -0.15095 -0.04759 0.62901
 H197 H -0.36838 0.03041 0.57349
 H198 H -0.19602 0.00493 0.67875
 C199 C -0.00371 -0.37019 0.94831
 C200 C -0.03303 -0.33789 0.94152
 C201 C -0.02542 -0.30445 0.91598
 C202 C -0.04359 -0.26227 0.91765
 C203 C -0.03624 -0.22899 0.89448
 C204 C -0.01118 -0.23770 0.86875
 C205 C 0.00656 -0.28017 0.86694
 C206 C -0.00067 -0.31339 0.89018
 C207 C -0.00106 -0.20258 0.84417
 C208 C -0.02809 -0.16763 0.83847
 H209 H -0.06148 -0.33520 0.95656
 H210 H -0.06268 -0.25449 0.93732
 H211 H -0.04921 -0.19608 0.89734
 H212 H 0.02599 -0.28777 0.84740
 H213 H 0.01276 -0.34609 0.88760
 H214 H 0.02782 -0.20603 0.82981
 H215 H 0.02553 -0.37260 0.93398
 H216 H -0.05974 -0.16881 0.85134
 C217 C 0.00887 0.37736 0.94384
 C218 C 0.03807 0.34400 0.94087
 C219 C 0.03675 0.31233 0.91329
 C220 C 0.07628 0.29181 0.90799
 C221 C 0.07522 0.25943 0.88319
 C222 C 0.03401 0.24621 0.86344
 C223 C -0.00512 0.26755 0.86842
 C224 C -0.00397 0.30003 0.89312
 C225 C 0.02983 0.20987 0.83791
 C226 C 0.05793 0.17516 0.83649
 H227 H 0.06346 0.34141 0.95948
 H228 H 0.10811 0.30078 0.92316
 H229 H 0.10676 0.24511 0.87971
 H230 H -0.03729 0.25807 0.85358
 H231 H -0.03566 0.31406 0.89682
 H232 H 0.00027 0.20760 0.82132
 H233 H -0.01307 0.38400 0.92441
 H234 H 0.08458 0.17463 0.85465
 C235 C -0.37343 0.01420 0.44267
 C236 C -0.33192 -0.00429 0.44015
 C237 C -0.30327 -0.00171 0.41261
 C238 C -0.26794 -0.02917 0.41156
 C239 C -0.23861 -0.02706 0.38684
 C240 C -0.24425 0.00232 0.36219
 C241 C -0.27928 0.03019 0.36331
 C242 C -0.30847 0.02837 0.38823
 C243 C -0.21245 0.00705 0.33607
 C244 C -0.18482 -0.02674 0.32903
 H245 H -0.32095 -0.02473 0.45858
 H246 H -0.26247 -0.05199 0.43022
 H247 H -0.21082 -0.04757 0.38780
 H248 H -0.28380 0.05385 0.34493
 H249 H -0.33411 0.05135 0.38836
 H250 H -0.21078 0.03871 0.32266
 H251 H -0.38692 0.02820 0.42240
 H252 H -0.19029 -0.05959 0.34165
 C253 C 0.37453 0.02221 0.44209
 C254 C 0.34029 0.05038 0.43829
 C255 C 0.30686 0.04712 0.41108
 C256 C 0.27823 0.08152 0.40862
 C257 C 0.24445 0.07876 0.38429
 C258 C 0.23835 0.04119 0.36189
 C259 C 0.26785 0.00763 0.36376
 C260 C 0.30148 0.01019 0.38818
 C261 C 0.20110 0.03548 0.33675
 C262 C 0.15782 0.04989 0.34008
 H263 H 0.33819 0.07679 0.45623
 H264 H 0.28173 0.11052 0.42576
 H265 H 0.22332 0.10615 0.38309
 H266 H 0.26391 -0.02156 0.34671
 H267 H 0.32208 -0.01755 0.38911
 H268 H 0.20565 0.01453 0.31651
 H269 H 0.37980 -0.00223 0.42391
 H270 H 0.15119 0.06563 0.36179
   
