data_POSCAR
  _audit_creation_date              2014-09-24
  _audit_creation_method            'ToBaCCo'
  _symmetry_space_group_name_H-M    'P1'
  _symmetry_Int_Tables_number       1
  _symmetry_cell_setting            triclinic
  loop_
  _symmetry_equiv_pos_as_xyz
 x,y,z
_cell_length_a 46.4327
_cell_length_b 46.0200
_cell_length_c 44.7944
_cell_angle_alpha 86.967900
_cell_angle_beta 88.130600
_cell_angle_gamma 90.781900
loop_
  _atom_site_label
  _atom_site_type_symbol
  _atom_site_fract_x
  _atom_site_fract_y
  _atom_site_fract_z
N1 N 0.58112 0.68380 0.58919
 N2 N 0.57496 0.68064 0.61800
 C3 C 0.55322 0.69837 0.62491
 C4 C 0.54505 0.71337 0.59890
 C5 C 0.56341 0.70350 0.57667
 H6 H 0.54413 0.69998 0.64727
 H7 H 0.56390 0.70998 0.55313
 Cu8 Cu 0.59589 0.65386 0.64426
 Cu9 Cu 0.61207 0.66221 0.57102
 Cu10 Cu 0.63406 0.60155 0.60728
 N11 N 0.60864 0.61721 0.66410
 N12 N 0.62125 0.59643 0.64954
 C13 C 0.62500 0.57330 0.66858
 C14 C 0.61447 0.57987 0.69681
 C15 C 0.60435 0.60805 0.69294
 H16 H 0.63544 0.55357 0.66232
 H17 H 0.59361 0.62071 0.70950
 N18 N 0.65515 0.61852 0.57198
 N19 N 0.64691 0.64282 0.55830
 C20 C 0.66598 0.65050 0.53595
 C21 C 0.68737 0.62980 0.53545
 C22 C 0.67963 0.60968 0.55856
 H23 H 0.66440 0.66979 0.52129
 H24 H 0.69142 0.59063 0.56586
 H25 H 0.59619 0.62629 0.61049
 H26 H 0.63173 0.64337 0.61792
 N27 N 0.91705 0.32681 0.10179
 N28 N 0.92652 0.33687 0.12660
 C29 C 0.95108 0.32319 0.13366
 C30 C 0.95758 0.30366 0.11182
 C31 C 0.93534 0.30677 0.09196
 H32 H 0.96349 0.32760 0.15293
 H33 H 0.93214 0.29493 0.07211
 Cu34 Cu 0.90606 0.36757 0.14642
 Cu35 Cu 0.88113 0.33945 0.08442
 Cu36 Cu 0.84392 0.39333 0.11984
 N37 N 0.88485 0.39768 0.16635
 N38 N 0.86063 0.40761 0.15569
 C39 C 0.85026 0.42798 0.17342
 C40 C 0.86897 0.43116 0.19651
 C41 C 0.89075 0.41157 0.19124
 H42 H 0.83064 0.43976 0.16958
 H43 H 0.90930 0.40749 0.20472
 N44 N 0.83051 0.37598 0.08336
 N45 N 0.84441 0.35503 0.07028
 C46 C 0.82919 0.34662 0.04709
 C47 C 0.80462 0.36318 0.04532
 C48 C 0.80622 0.38167 0.06859
 H49 H 0.83544 0.32965 0.03251
 H50 H 0.79037 0.39743 0.07483
 H51 H 0.88219 0.38087 0.10005
 H52 H 0.86170 0.35246 0.12365
 N53 N 0.41936 0.17016 -0.12343
 N54 N 0.43245 0.15668 -0.14503
 C55 C 0.45503 0.17299 -0.15596
 C56 C 0.45637 0.19803 -0.14021
 C57 C 0.43337 0.19545 -0.11967
 H58 H 0.46966 0.16685 -0.17373
 H59 H 0.42709 0.21095 -0.10345
 Cu60 Cu 0.41948 0.11878 -0.15651
 Cu61 Cu 0.38504 0.15385 -0.10217
 Cu62 Cu 0.35586 0.09123 -0.12953
 N63 N 0.40049 0.08676 -0.17477
 N64 N 0.37546 0.07619 -0.16450
 C65 C 0.36758 0.05406 -0.18114
 C66 C 0.38895 0.05051 -0.20293
 C67 C 0.40947 0.07174 -0.19818
 H68 H 0.34812 0.04107 -0.17720
 H69 H 0.42942 0.07605 -0.21084
 N70 N 0.33944 0.10986 -0.09430
 N71 N 0.35043 0.13380 -0.08398
 C72 C 0.33484 0.14075 -0.05956
 C73 C 0.31309 0.12009 -0.05411
 C74 C 0.31671 0.10086 -0.07662
 H75 H 0.33946 0.15905 -0.04624
 H76 H 0.30377 0.08165 -0.07984
 H77 H 0.39078 0.11040 -0.11021
 H78 H 0.37188 0.13298 -0.13927
 N79 N 0.07384 0.82130 0.38331
 N80 N 0.07043 0.82924 0.35508
 C81 C 0.05335 0.80964 0.34276
 C82 C 0.04535 0.78808 0.36453
 C83 C 0.05880 0.79651 0.39010
 H84 H 0.04713 0.81130 0.31972
 H85 H 0.05818 0.78550 0.41202
 Cu86 Cu 0.08803 0.86492 0.33746
 Cu87 Cu 0.09758 0.84396 0.40902
 Cu88 Cu 0.14501 0.89254 0.37044
 N89 N 0.10380 0.90316 0.32499
 N90 N 0.12676 0.91360 0.33735
 C91 C 0.13375 0.93976 0.32403
 C92 C 0.11382 0.94627 0.30237
 C93 C 0.09513 0.92245 0.30364
 H94 H 0.15159 0.95329 0.33023
 H95 H 0.07676 0.91922 0.28990
 N96 N 0.15092 0.87752 0.41166
 N97 N 0.13194 0.86054 0.42697
 C98 C 0.14122 0.85544 0.45490
 C99 C 0.16742 0.86972 0.45716
 C100 C 0.17292 0.88346 0.42929
 H101 H 0.13016 0.84164 0.47203
 H102 H 0.19127 0.89727 0.42252
 H103 H 0.10406 0.88341 0.38429
 H104 H 0.12483 0.85109 0.37310
 C105 C 0.13281 0.17610 0.15016
 C106 C 0.13449 0.15307 0.17183
 C107 C 0.15630 0.13236 0.16974
 C108 C 0.17671 0.13508 0.14590
 C109 C 0.17530 0.15800 0.12404
 C110 C 0.15326 0.17843 0.12633
 H111 H 0.11858 0.15104 0.19010
 H112 H 0.19353 0.11911 0.14418
 H113 H 0.15181 0.19602 0.10941
 C114 C 0.37438 0.85088 0.62928
 C115 C 0.37066 0.87140 0.65112
 C116 C 0.34914 0.89247 0.64874
 C117 C 0.33073 0.89245 0.62448
 C118 C 0.33448 0.87234 0.60223
 C119 C 0.35640 0.85174 0.60467
 H120 H 0.38479 0.87118 0.66991
 H121 H 0.31426 0.90882 0.62222
 H122 H 0.35900 0.83595 0.58771
 C123 C 0.91621 0.60636 0.39663
 C124 C 0.89187 0.60424 0.41605
 C125 C 0.87088 0.58241 0.41332
 C126 C 0.87466 0.56224 0.39114
 C127 C 0.89885 0.56411 0.37136
 C128 C 0.91953 0.58630 0.37426
 H129 H 0.88905 0.61990 0.43311
 H130 H 0.85851 0.54533 0.38900
 H131 H 0.93809 0.58817 0.35895
 C132 C 0.59662 0.36984 -0.11603
 C133 C 0.59775 0.38842 -0.14196
 C134 C 0.61812 0.41124 -0.14530
 C135 C 0.63765 0.41541 -0.12264
 C136 C 0.63749 0.39637 -0.09711
 C137 C 0.61678 0.37380 -0.09384
 H138 H 0.58239 0.38560 -0.15932
 H139 H 0.65376 0.43269 -0.12551
 H140 H 0.61657 0.35913 -0.07409
 C141 C -0.00010 0.28071 0.13418
 C142 C 0.02305 0.26143 0.13254
 C143 C 0.02827 0.24651 0.10617
 C144 C 0.01005 0.25074 0.08212
 C145 C -0.01327 0.26941 0.08411
 C146 C -0.01874 0.28481 0.11007
 C147 C 0.05144 0.22741 0.10431
 C148 C 0.06914 0.22247 0.12875
 C149 C 0.06364 0.23690 0.15541
 C150 C 0.04083 0.25653 0.15703
 C151 C 0.08092 0.23121 0.18010
 C152 C 0.10335 0.21133 0.17843
 C153 C 0.10917 0.19722 0.15191
 C154 C 0.09205 0.20300 0.12709
 H155 H -0.00382 0.29184 0.15461
 H156 H 0.01373 0.23944 0.06175
 H157 H -0.02661 0.27197 0.06485
 H158 H 0.05548 0.21612 0.08396
 H159 H 0.03672 0.26772 0.17742
 H160 H 0.07698 0.24197 0.20075
 H161 H 0.11639 0.20716 0.19776
 H162 H 0.09623 0.19184 0.10670
 C163 C 0.50336 0.74089 0.62008
 C164 C 0.48121 0.76117 0.61699
 C165 C 0.47713 0.77581 0.58895
 C166 C 0.49532 0.76993 0.56451
 C167 C 0.51735 0.74975 0.56778
 C168 C 0.52167 0.73496 0.59555
 C169 C 0.45502 0.79611 0.58580
 C170 C 0.43697 0.80203 0.61040
 C171 C 0.44109 0.78740 0.63847
 C172 C 0.46312 0.76703 0.64157
 C173 C 0.42317 0.79350 0.66306
 C174 C 0.40146 0.81402 0.65997
 C175 C 0.39717 0.82875 0.63221
 C176 C 0.41497 0.82251 0.60744
 H177 H 0.50612 0.72976 0.64166
 H178 H 0.49255 0.78098 0.54285
 H179 H 0.53099 0.74591 0.54841
 H180 H 0.45191 0.80734 0.56426
 H181 H 0.46624 0.75583 0.66312
 H182 H 0.42599 0.78245 0.68472
 H183 H 0.38781 0.81824 0.67928
 H184 H 0.41204 0.83400 0.58602
 C185 C 1.02012 0.74422 0.38622
 C186 C 1.00214 0.71984 0.38318
 C187 C 0.99157 0.71402 0.35486
 C188 C 0.99910 0.73272 0.33009
 C189 C 1.01676 0.75709 0.33330
 C190 C 1.02758 0.76332 0.36138
 C191 C 0.97344 0.68980 0.35178
 C192 C 0.96537 0.67153 0.37680
 C193 C 0.97585 0.67742 0.40520
 C194 C 0.99434 0.70138 0.40816
 C195 C 0.96731 0.65946 0.43027
 C196 C 0.94819 0.63617 0.42735
 C197 C 0.93758 0.63019 0.39928
 C198 C 0.94654 0.64777 0.37400
 H199 H 1.02783 0.74826 0.40816
 H200 H 0.99119 0.72859 0.30820
 H201 H 1.02190 0.77082 0.31347
 H202 H 0.96532 0.68539 0.33001
 H203 H 1.00233 0.70587 0.42996
 H204 H 0.97512 0.66364 0.45219
 H205 H 0.94165 0.62276 0.44707
 H206 H 0.93813 0.64348 0.35233
 C207 C 0.48351 0.24019 -0.12085
 C208 C 0.50454 0.26244 -0.12450
 C209 C 0.51998 0.26683 -0.15215
 C210 C 0.51424 0.24883 -0.17557
 C211 C 0.49354 0.22654 -0.17164
 C212 C 0.47798 0.22199 -0.14431
 C213 C 0.54099 0.28902 -0.15590
 C214 C 0.54699 0.30672 -0.13226
 C215 C 0.53175 0.30216 -0.10451
 C216 C 0.51053 0.28016 -0.10085
 C217 C 0.53807 0.31968 -0.08083
 C218 C 0.55927 0.34151 -0.08458
 C219 C 0.57441 0.34636 -0.11211
 C220 C 0.56812 0.32884 -0.13589
 H221 H 0.47191 0.23673 -0.09955
 H222 H 0.52585 0.25190 -0.19691
 H223 H 0.48955 0.21305 -0.19018
 H224 H 0.55276 0.29241 -0.17715
 H225 H 0.49881 0.27673 -0.07958
 H226 H 0.52661 0.31651 -0.05942
 H227 H 0.56355 0.35494 -0.06604
 H228 H 0.57995 0.33218 -0.15710
 C229 C 0.13713 -0.00925 0.27670
 C230 C 0.13596 0.01589 0.25762
 C231 C 0.10969 0.02360 0.24442
 C232 C 0.08513 0.00596 0.25039
 C233 C 0.08655 -0.01917 0.26914
 C234 C 0.11249 -0.02703 0.28250
 C235 C 0.10844 0.04865 0.22528
 C236 C 0.13322 0.06588 0.21880
 C237 C 0.15957 0.05807 0.23180
 C238 C 0.16072 0.03326 0.25130
 C239 C 0.18442 0.07504 0.22478
 C240 C 0.18329 0.09933 0.20479
 C241 C 0.15723 0.10727 0.19179
 C242 C 0.13219 0.09057 0.19911
 H243 H 0.15736 -0.01518 0.28657
 H244 H 0.06482 0.01154 0.24048
 H245 H 0.06717 -0.03225 0.27342
 H246 H 0.08826 0.05453 0.21519
 H247 H 0.18093 0.02729 0.26128
 H248 H 0.20479 0.06938 0.23451
 H249 H 0.20278 0.11202 0.19952
 H250 H 0.11209 0.09636 0.18883
 C251 C 0.62006 0.53202 -0.27733
 C252 C 0.61901 0.51405 -0.25098
 C253 C 0.61268 0.52614 -0.22322
 C254 C 0.60683 0.55584 -0.22238
 C255 C 0.60713 0.57346 -0.24875
 C256 C 0.61396 0.56194 -0.27663
 C257 C 0.61204 0.50831 -0.19680
 C258 C 0.61684 0.47836 -0.19788
 C259 C 0.62234 0.46610 -0.22578
 C260 C 0.62377 0.48407 -0.25208
 C261 C 0.62608 0.43599 -0.22693
 C262 C 0.62435 0.41816 -0.20069
 C263 C 0.61948 0.43023 -0.17290
 C264 C 0.61588 0.46036 -0.17155
 H265 H 0.62485 0.52229 -0.29836
 H266 H 0.60184 0.56547 -0.20129
 H267 H 0.60258 0.59629 -0.24694
 H268 H 0.60745 0.51768 -0.17547
 H269 H 0.62825 0.47468 -0.27342
 H270 H 0.63015 0.42621 -0.24811
 H271 H 0.62720 0.39493 -0.20200
 H272 H 0.61184 0.46961 -0.15008
 C273 C 0.36509 1.01405 0.76573
 C274 C 0.36651 0.99297 0.74417
 C275 C 0.39354 0.98584 0.73127
 C276 C 0.41857 1.00002 0.73988
 C277 C 0.41694 1.02109 0.76112
 C278 C 0.39028 1.02828 0.77433
 C279 C 0.39519 0.96465 0.70998
 C280 C 0.37014 0.95056 0.70122
 C281 C 0.34303 0.95784 0.71377
 C282 C 0.34138 0.97896 0.73526
 C283 C 0.31804 0.94385 0.70456
 C284 C 0.31993 0.92274 0.68325
 C285 C 0.34684 0.91512 0.67099
 C286 C 0.37185 0.92927 0.68003
 H287 H 0.34436 1.01958 0.77550
 H288 H 0.43944 0.99480 0.73022
 H289 H 0.43672 1.03141 0.76749
 H290 H 0.41597 0.95913 0.70023
 H291 H 0.32061 0.98448 0.74500
 H292 H 0.29706 0.94918 0.71388
 H293 H 0.30040 0.91203 0.67668
 H294 H 0.39266 0.92390 0.67028
 C295 C 0.88994 0.45812 0.23831
 C296 C 0.88716 0.47740 0.26151
 C297 C 0.86009 0.48973 0.26798
 C298 C 0.83631 0.48260 0.25121
 C299 C 0.83928 0.46356 0.22812
 C300 C 0.86606 0.45114 0.22135
 C301 C 0.85718 0.50905 0.29102
 C302 C 0.88104 0.51635 0.30765
 C303 C 0.90816 0.50413 0.30119
 C304 C 0.91105 0.48468 0.27820
 C305 C 0.93197 0.51167 0.31780
 C306 C 0.92895 0.53115 0.34057
 C307 C 0.90207 0.54337 0.34723
 C308 C 0.87818 0.53582 0.33058
 H309 H 0.91079 0.44896 0.23326
 H310 H 0.81539 0.49180 0.25592
 H311 H 0.82041 0.45840 0.21576
 H312 H 0.83638 0.51847 0.29594
 H313 H 0.93186 0.47530 0.27325
 H314 H 0.95292 0.50250 0.31320
 H315 H 0.94761 0.53642 0.35325
 H316 H 0.85744 0.54545 0.33519
 C317 C 0.28459 0.14313 -0.01331
 C318 C 0.26422 0.14140 0.01063
 C319 C 0.25058 0.11442 0.01912
 C320 C 0.25730 0.08977 0.00337
 C321 C 0.27742 0.09172 -0.02053
 C322 C 0.29137 0.11833 -0.02905
 C323 C 0.23047 0.11250 0.04322
 C324 C 0.22365 0.13725 0.05883
 C325 C 0.23700 0.16432 0.05012
 C326 C 0.25727 0.16621 0.02615
 C327 C 0.22980 0.18908 0.06558
 C328 C 0.20964 0.18704 0.08948
 C329 C 0.19648 0.16018 0.09850
 C330 C 0.20359 0.13536 0.08300
 H331 H 0.29489 0.16386 -0.01981
 H332 H 0.24704 0.06893 0.00958
 H333 H 0.28236 0.07221 -0.03201
 H334 H 0.22012 0.09176 0.04979
 H335 H 0.26761 0.18695 0.01957
 H336 H 0.23980 0.21000 0.05921
 H337 H 0.20461 0.20640 0.10123
 H338 H 0.19322 0.11464 0.08953
 C339 C 0.72898 0.60440 0.51151
 C340 C 0.75396 0.60482 0.49292
 C341 C 0.76378 0.63133 0.47840
 C342 C 0.74833 0.65683 0.48243
 C343 C 0.72342 0.65619 0.50075
 C344 C 0.71354 0.63007 0.51558
 C345 C 0.78886 0.63197 0.46009
 C346 C 0.80418 0.60640 0.45588
 C347 C 0.79424 0.57978 0.47004
 C348 C 0.76924 0.57917 0.48859
 C349 C 0.80946 0.55421 0.46534
 C350 C 0.83432 0.55500 0.44681
 C351 C 0.84452 0.58141 0.43292
 C352 C 0.82928 0.60704 0.43756
 H353 H 0.72147 0.58406 0.52254
 H354 H 0.75556 0.67732 0.47147
 H355 H 0.71220 0.67634 0.50366
 H356 H 0.79642 0.65235 0.44908
 H357 H 0.76168 0.55879 0.49957
 H358 H 0.80215 0.53360 0.47596
 H359 H 0.84583 0.53503 0.44362
 H360 H 0.83676 0.62743 0.42654
 C361 C 0.76398 0.38479 0.01656
 C362 C 0.74187 0.38244 -0.00390
 C363 C 0.73655 0.35550 -0.01665
 C364 C 0.75365 0.33153 -0.00910
 C365 C 0.77588 0.33419 0.01086
 C366 C 0.78119 0.36072 0.02396
 C367 C 0.71438 0.35294 -0.03689
 C368 C 0.69777 0.37712 -0.04502
 C369 C 0.70336 0.40424 -0.03272
 C370 C 0.72521 0.40666 -0.01202
 C371 C 0.68716 0.42853 -0.04160
 C372 C 0.66572 0.42601 -0.06257
 C373 C 0.65983 0.39908 -0.07459
 C374 C 0.67587 0.37469 -0.06560
 H375 H 0.76810 0.40545 0.02628
 H376 H 0.74990 0.31075 -0.01870
 H377 H 0.78864 0.31526 0.01639
 H378 H 0.71024 0.33222 -0.04653
 H379 H 0.72941 0.42741 -0.00247
 H380 H 0.69120 0.44949 -0.03251
 H381 H 0.65354 0.44504 -0.06925
 H382 H 0.67168 0.35395 -0.07518
 C383 C 0.21581 0.87312 0.47977
 C384 C 0.23335 0.87293 0.50470
 C385 C 0.22061 0.87025 0.53386
 C386 C 0.19060 0.86724 0.53752
 C387 C 0.17334 0.86683 0.51255
 C388 C 0.18575 0.86995 0.48352
 C389 C 0.23808 0.87037 0.55883
 C390 C 0.26817 0.87248 0.55503
 C391 C 0.28091 0.87449 0.52585
 C392 C 0.26342 0.87503 0.50090
 C393 C 0.31101 0.87567 0.52210
 C394 C 0.32835 0.87477 0.54700
 C395 C 0.31591 0.87320 0.57603
 C396 C 0.28577 0.87223 0.57994
 H397 H 0.22561 0.87512 0.45745
 H398 H 0.18047 0.86506 0.55967
 H399 H 0.15022 0.86451 0.51597
 H400 H 0.22829 0.86852 0.58119
 H401 H 0.27321 0.87678 0.47854
 H402 H 0.32113 0.87711 0.49992
 H403 H 0.35157 0.87564 0.54364
 H404 H 0.27613 0.87072 0.60236
   
