data_POSCAR
  _audit_creation_date              2014-09-24
  _audit_creation_method            'ToBaCCo'
  _symmetry_space_group_name_H-M    'P1'
  _symmetry_Int_Tables_number       1
  _symmetry_cell_setting            triclinic
  loop_
  _symmetry_equiv_pos_as_xyz
 x,y,z
_cell_length_a 27.3039
_cell_length_b 27.6297
_cell_length_c 28.1901
_cell_angle_alpha 89.542200
_cell_angle_beta 89.046700
_cell_angle_gamma 87.428600
loop_
  _atom_site_label
  _atom_site_type_symbol
  _atom_site_fract_x
  _atom_site_fract_y
  _atom_site_fract_z
C1 C 0.69175 0.70717 0.97423
 H2 H 0.72602 0.72385 0.98069
 C3 C 0.65421 0.73336 0.95090
 H4 H 0.65955 0.77027 0.93943
 C5 C 0.64292 0.63842 0.97976
 H6 H 0.63929 0.60102 0.99040
 C7 C 0.60440 0.66336 0.95697
 H8 H 0.57099 0.64506 0.95032
 N9 N 0.68573 0.66028 0.98728
 C10 C 0.80529 0.65417 1.07744
 H11 H 0.78381 0.63541 1.10357
 C12 C 0.84879 0.67395 1.09117
 H13 H 0.85929 0.67098 1.12797
 C14 C 0.81925 0.67842 0.99773
 H15 H 0.80812 0.67864 0.96107
 C16 C 0.86339 0.69875 1.01003
 H17 H 0.88580 0.71548 0.98302
 Zn18 Zn 0.73696 0.62065 1.01297
 N19 N 0.79127 0.65651 1.03138
 C20 C 0.80166 0.54836 0.97553
 N21 N 0.76164 0.57759 0.96568
 C22 C 0.74438 0.58210 0.92076
 C23 C 0.76875 0.55808 0.88332
 C24 C 0.82673 0.52313 0.93915
 C25 C 0.68944 0.61611 1.10109
 C26 C 0.67927 0.59675 1.14591
 C27 C 0.71095 0.51871 1.11829
 C28 C 0.72061 0.53956 1.07396
 N29 N 0.71187 0.58795 1.06699
 H30 H 0.81558 0.54661 1.01123
 H31 H 0.71335 0.60641 0.91333
 H32 H 0.75568 0.56351 0.84754
 H33 H 0.85957 0.50127 0.94693
 H34 H 0.68282 0.65446 1.09453
 H35 H 0.66484 0.62025 1.17391
 H36 H 0.72121 0.48090 1.12465
 H37 H 0.73775 0.51766 1.04624
 C38 C 0.87881 0.69603 1.05713
 C39 C 0.61029 0.71123 0.94164
 C40 C 0.69176 0.54799 1.15506
 C41 C 0.81112 0.52911 0.89240
 C42 C 0.71799 0.29191 0.56993
 H43 H 0.75507 0.28106 0.57963
 C44 C 0.67836 0.26802 0.58972
 H45 H 0.68473 0.23880 0.61501
 C46 C 0.66382 0.34491 0.52709
 H47 H 0.65805 0.37581 0.50385
 C48 C 0.62343 0.32176 0.54549
 H49 H 0.58700 0.33508 0.53595
 N50 N 0.70993 0.33014 0.53989
 C51 C 0.86119 0.33512 0.49610
 H52 H 0.87119 0.36648 0.51555
 C53 C 0.89760 0.30790 0.47163
 H54 H 0.93514 0.31886 0.47242
 C55 C 0.80034 0.28363 0.46953
 H56 H 0.76223 0.27472 0.46830
 C57 C 0.83560 0.25542 0.44457
 H58 H 0.82462 0.22504 0.42384
 Zn59 Zn 0.76249 0.36633 0.51698
 N60 N 0.81337 0.32356 0.49342
 C61 C 0.76820 0.39849 0.61150
 N62 N 0.78540 0.40533 0.56645
 C63 C 0.81938 0.43875 0.55669
 C64 C 0.83896 0.46525 0.59324
 C65 C 0.78704 0.42396 0.64910
 C66 C 0.72412 0.38108 0.42731
 C67 C 0.70454 0.40631 0.38864
 C68 C 0.71658 0.48132 0.42943
 C69 C 0.73539 0.45453 0.46783
 N70 N 0.73915 0.40526 0.46589
 H71 H 0.74067 0.37247 0.61865
 H72 H 0.83192 0.44427 0.52053
 H73 H 0.86704 0.49072 0.58537
 H74 H 0.77407 0.41694 0.68488
 H75 H 0.72653 0.34200 0.42686
 H76 H 0.69290 0.38633 0.35826
 H77 H 0.71398 0.52050 0.43088
 H78 H 0.74628 0.47313 0.49921
 C79 C 0.88448 0.26838 0.44439
 C80 C 0.63056 0.28341 0.57790
 C81 C 0.70074 0.45708 0.38953
 C82 C 0.82349 0.45718 0.64001
 C83 C 0.16397 -0.19617 0.01755
 H84 H 0.19361 -0.21999 0.00464
 C85 C 0.12223 -0.21584 0.03816
 H86 H 0.12020 -0.25477 0.04126
 C87 C 0.13179 -0.11652 0.03254
 H88 H 0.13628 -0.07783 0.03091
 C89 C 0.08987 -0.13464 0.05388
 H90 H 0.06218 -0.10992 0.06923
 N91 N 0.16814 -0.14727 0.01568
 C92 C 0.32225 -0.15862 -0.00764
 H93 H 0.32859 -0.13292 0.01992
 C94 C 0.36249 -0.18289 -0.02912
 H95 H 0.39900 -0.17656 -0.01687
 C96 C 0.26810 -0.19437 -0.06066
 H97 H 0.23151 -0.19659 -0.07439
 C98 C 0.30740 -0.21975 -0.08288
 H99 H 0.30097 -0.24237 -0.11314
 Zn100 Zn 0.22574 -0.11817 -0.00635
 N101 N 0.27623 -0.16390 -0.02424
 C102 C 0.26107 -0.10338 0.08398
 N103 N 0.24968 -0.07972 0.04283
 C104 C 0.26058 -0.03258 0.03586
 C105 C 0.28757 -0.00875 0.06953
 C106 C 0.28823 -0.08100 0.11840
 C107 C 0.17057 -0.08387 -0.08583
 C108 C 0.16742 -0.06694 -0.13270
 C109 C 0.25183 -0.04445 -0.12884
 C110 C 0.25353 -0.06205 -0.08250
 N111 N 0.21358 -0.08197 -0.06223
 H112 H 0.25181 -0.14081 0.08861
 H113 H 0.25041 -0.01410 0.00334
 H114 H 0.29808 0.02805 0.06289
 H115 H 0.29907 -0.10116 0.14988
 H116 H 0.13982 -0.10136 -0.06958
 H117 H 0.13400 -0.07074 -0.15226
 H118 H 0.28458 -0.03069 -0.14535
 H119 H 0.28773 -0.06267 -0.06362
 C120 C 0.35520 -0.21274 -0.06808
 C121 C 0.08513 -0.18468 0.05744
 C122 C 0.20892 -0.04812 -0.15461
 C123 C 0.30305 -0.03358 0.11045
 C124 C 0.22671 0.17866 0.41383
 H125 H 0.26308 0.18973 0.40422
 C126 C 0.18560 0.20082 0.39232
 H127 H 0.19016 0.22938 0.36630
 C128 C 0.17588 0.12739 0.45870
 H129 H 0.17206 0.09793 0.48366
 C130 C 0.13402 0.14844 0.43808
 H131 H 0.09843 0.13551 0.44808
 N132 N 0.22108 0.14313 0.44691
 C133 C 0.35503 0.13305 0.52838
 H134 H 0.35960 0.09395 0.52796
 C135 C 0.38837 0.16012 0.55218
 H136 H 0.41854 0.14166 0.57032
 C137 C 0.30920 0.20430 0.50587
 H138 H 0.27791 0.22109 0.48822
 C139 C 0.34143 0.23291 0.53019
 H140 H 0.33519 0.27187 0.53108
 Zn141 Zn 0.27643 0.11177 0.47535
 N142 N 0.31703 0.15532 0.50505
 C143 C 0.35978 0.09243 0.41707
 N144 N 0.31364 0.07813 0.42735
 C145 C 0.29209 0.04510 0.39994
 C146 C 0.31655 0.02645 0.35951
 C147 C 0.38563 0.07424 0.37758
 C148 C 0.23147 0.09863 0.56058
 C149 C 0.21323 0.07592 0.60088
 C150 C 0.24242 -0.00110 0.56860
 C151 C 0.26002 0.02325 0.52839
 N152 N 0.25401 0.07230 0.52528
 H153 H 0.37595 0.11995 0.43784
 H154 H 0.25506 0.03502 0.40820
 H155 H 0.29824 0.00167 0.33695
 H156 H 0.42153 0.08728 0.36887
 H157 H 0.22764 0.13764 0.55720
 H158 H 0.19550 0.09770 0.62850
 H159 H 0.24738 -0.04011 0.57135
 H160 H 0.27861 0.00323 0.50007
 C161 C 0.38175 0.21070 0.55307
 C162 C 0.13875 0.18575 0.40459
 C163 C 0.21873 0.02544 0.60523
 C164 C 0.36361 0.04203 0.34768
 C165 C 0.21064 0.42892 0.20501
 H166 H 0.22223 0.41700 0.23988
 C167 C 0.23332 0.40880 0.16444
 H168 H 0.26294 0.38167 0.16790
 C169 C 0.15637 0.47708 0.15742
 H170 H 0.12544 0.50262 0.15465
 C171 C 0.17764 0.45764 0.11617
 H172 H 0.16344 0.46916 0.08207
 N173 N 0.17271 0.46220 0.20074
 C174 C 0.14643 0.52717 0.33932
 H175 H 0.10766 0.52065 0.34109
 C176 C 0.16779 0.55195 0.37566
 H177 H 0.14513 0.56471 0.40528
 C178 C 0.22222 0.52032 0.29695
 H179 H 0.24276 0.50862 0.26566
 C180 C 0.24493 0.54641 0.33223
 H181 H 0.28312 0.55487 0.32823
 Zn182 Zn 0.13598 0.48270 0.25470
 N183 N 0.17369 0.51154 0.30122
 C184 C 0.12216 0.41279 0.32511
 N185 N 0.10679 0.42776 0.28150
 C186 C 0.07439 0.40206 0.25681
 C187 C 0.05481 0.36044 0.27693
 C188 C 0.10322 0.37211 0.34652
 C189 C 0.11234 0.57421 0.22528
 C190 C 0.08522 0.61381 0.20755
 C191 C 0.01279 0.56666 0.21191
 C192 C 0.04139 0.52781 0.23048
 N193 N 0.09046 0.53213 0.23575
 H194 H 0.14983 0.43177 0.34331
 H195 H 0.06402 0.41369 0.22151
 H196 H 0.02864 0.34042 0.25743
 H197 H 0.11526 0.36091 0.38151
 H198 H 0.15145 0.57649 0.22957
 H199 H 0.10380 0.64646 0.19829
 H200 H -0.02592 0.56277 0.20605
 H201 H 0.02473 0.49409 0.23924
 C202 C 0.21747 0.56235 0.37203
 C203 C 0.21609 0.42253 0.11959
 C204 C 0.03498 0.60997 0.19985
 C205 C 0.06929 0.34569 0.32256
 C206 C -0.22540 0.02812 0.17616
 H207 H -0.25064 0.02711 0.20605
 C208 C -0.24303 0.03861 0.13047
 H209 H -0.28189 0.04598 0.12530
 C210 C -0.14403 0.01997 0.14554
 H211 H -0.10548 0.01205 0.15161
 C212 C -0.15996 0.03015 0.09973
 H213 H -0.13356 0.03074 0.07060
 N214 N -0.17657 0.01844 0.18255
 C215 C -0.16560 -0.00341 0.33662
 H216 H -0.13047 0.01292 0.33841
 C217 C -0.18792 -0.01926 0.37858
 H218 H -0.17030 -0.01401 0.41215
 C219 C -0.22828 -0.03527 0.29061
 H220 H -0.24251 -0.04376 0.25626
 C221 C -0.25191 -0.05154 0.33179
 H222 H -0.28475 -0.07183 0.32896
 Zn223 Zn -0.14487 -0.00251 0.23911
 N224 N -0.18571 -0.01183 0.29364
 C225 C -0.12227 0.08602 0.27216
 N226 N -0.10004 0.04558 0.25300
 C227 C -0.05067 0.04243 0.24496
 C228 C -0.02131 0.07924 0.26056
 C229 C -0.09453 0.12330 0.28834
 C230 C -0.14684 -0.09183 0.20018
 C231 C -0.13098 -0.13712 0.18354
 C232 C -0.05279 -0.12675 0.22014
 C233 C -0.07052 -0.08156 0.23686
 N234 N -0.11618 -0.06427 0.22486
 H235 H -0.16174 0.08834 0.27659
 H236 H -0.03388 0.01167 0.22666
 H237 H 0.01812 0.07582 0.25585
 H238 H -0.11298 0.15417 0.30537
 H239 H -0.18344 -0.07792 0.19222
 H240 H -0.15510 -0.15791 0.16234
 H241 H -0.01578 -0.13955 0.22813
 H242 H -0.04776 -0.06057 0.25904
 C243 C -0.23105 -0.04460 0.37616
 C244 C -0.20987 0.03896 0.09186
 C245 C -0.08324 -0.15430 0.19229
 C246 C -0.04324 0.11940 0.28383
 C247 C 0.26894 0.53946 0.68674
 H248 H 0.24819 0.52515 0.71619
 C249 C 0.24433 0.55727 0.64667
 H250 H 0.20475 0.55657 0.64532
 C251 C 0.34545 0.55919 0.65248
 H252 H 0.38491 0.55968 0.65509
 C253 C 0.32235 0.57758 0.61199
 H254 H 0.34432 0.59245 0.58356
 N255 N 0.31871 0.54012 0.68860
 C256 C 0.31715 0.51032 0.83507
 H257 H 0.34129 0.53928 0.84204
 C258 C 0.29461 0.48667 0.87296
 H259 H 0.30106 0.49806 0.90889
 C260 C 0.28309 0.45691 0.78034
 H261 H 0.28093 0.44397 0.74435
 C262 C 0.25930 0.43281 0.81707
 H263 H 0.23825 0.40160 0.80935
 Zn264 Zn 0.35420 0.51471 0.74110
 N265 N 0.31203 0.49427 0.79001
 C266 C 0.37278 0.60789 0.77123
 N267 N 0.39452 0.56328 0.76383
 C268 C 0.44256 0.55375 0.77411
 C269 C 0.46991 0.58925 0.79498
 C270 C 0.39906 0.64465 0.79114
 C271 C 0.39043 0.44236 0.67781
 C272 C 0.41402 0.39845 0.66536
 C273 C 0.43952 0.38761 0.74656
 C274 C 0.41523 0.43184 0.75757
 N275 N 0.39168 0.45838 0.72321
 H276 H 0.33456 0.61448 0.76271
 H277 H 0.45938 0.51830 0.76752
 H278 H 0.50749 0.58084 0.80494
 H279 H 0.38072 0.67944 0.79825
 H280 H 0.37029 0.46300 0.65132
 H281 H 0.41255 0.38644 0.62897
 H282 H 0.45828 0.36675 0.77399
 H283 H 0.41439 0.44470 0.79373
 C284 C 0.26652 0.44650 0.86393
 C285 C 0.27110 0.57643 0.60879
 C286 C 0.43884 0.37046 0.70008
 C287 C 0.44802 0.63503 0.80406
 C288 C 0.69852 0.95352 0.71982
 H289 H 0.70809 0.94048 0.75490
 C290 C 0.72161 0.93236 0.67986
 H291 H 0.74922 0.90339 0.68431
 C292 C 0.64939 1.00522 0.67081
 H293 H 0.62074 1.03315 0.66710
 C294 C 0.67139 0.98488 0.62995
 H295 H 0.65948 0.99751 0.59539
 N296 N 0.66223 0.98857 0.71475
 C297 C 0.64151 1.05479 0.85708
 H298 H 0.60219 1.05411 0.86100
 C299 C 0.66821 1.07828 0.89128
 H300 H 0.64935 1.09501 0.92149
 C301 C 0.71370 1.03773 0.81132
 H302 H 0.73120 1.02352 0.77942
 C303 C 0.74179 1.06081 0.84474
 H304 H 0.78081 1.06382 0.83846
 Zn305 Zn 0.62413 1.01109 0.76897
 N306 N 0.66430 1.03544 0.81772
 C307 C 0.55032 0.96897 0.82633
 N308 N 0.58619 0.95943 0.79313
 C309 C 0.59499 0.91358 0.77661
 C310 C 0.56903 0.87507 0.79506
 C311 C 0.52335 0.93146 0.84564
 C312 C 0.59691 1.10892 0.75230
 C313 C 0.57050 1.14746 0.73099
 C314 C 0.51194 1.09094 0.70445
 C315 C 0.53930 1.05344 0.72648
 N316 N 0.58155 1.06290 0.74882
 H317 H 0.54234 1.00572 0.83777
 H318 H 0.62239 0.90640 0.74935
 H319 H 0.57738 0.83880 0.78213
 H320 H 0.49552 0.93932 0.87264
 H321 H 0.63107 1.11545 0.76947
 H322 H 0.58458 1.18343 0.73195
 H323 H 0.47986 1.08282 0.68441
 H324 H 0.52833 1.01646 0.72359
 C325 C 0.71877 1.08183 0.88479
 C326 C 0.70730 0.94725 0.63437
 C327 C 0.52821 1.13823 0.70558
 C328 C 0.53311 0.88388 0.83047
 C329 C 0.03560 0.18530 -0.21196
 H330 H 0.01881 0.21695 -0.22889
 C331 C 0.05997 0.14964 -0.23959
 H332 H 0.06148 0.15364 -0.27782
 C333 C 0.05644 0.14202 -0.14164
 H334 H 0.05570 0.13990 -0.10330
 C335 C 0.08069 0.10534 -0.16792
 H336 H 0.09838 0.07486 -0.14965
 N337 N 0.03416 0.18079 -0.16388
 C338 C -0.00498 0.32916 -0.14991
 H339 H 0.02365 0.33369 -0.12459
 C340 C -0.02756 0.37023 -0.17072
 H341 H -0.01566 0.40579 -0.16165
 C342 C -0.05746 0.27793 -0.19035
 H343 H -0.06978 0.24193 -0.19678
 C344 C -0.08073 0.31808 -0.21232
 H345 H -0.11086 0.31299 -0.23601
 Zn346 Zn 0.00571 0.23017 -0.12449
 N347 N -0.02041 0.28411 -0.15964
 C348 C 0.09805 0.26288 -0.11141
 N349 N 0.05659 0.25219 -0.08689
 C350 C 0.05154 0.26123 -0.03963
 C351 C 0.08819 0.28466 -0.01588
 C352 C 0.13567 0.28566 -0.08900
 C353 C -0.05782 0.15871 -0.08886
 C354 C -0.09549 0.14147 -0.06007
 C355 C -0.10927 0.22210 -0.02851
 C356 C -0.07140 0.23783 -0.05787
 N357 N -0.04584 0.20597 -0.08653
 H358 H 0.10091 0.25550 -0.14900
 H359 H 0.01848 0.25215 -0.02070
 H360 H 0.08324 0.29371 0.02124
 H361 H 0.16760 0.29548 -0.10958
 H362 H -0.03824 0.13423 -0.11288
 H363 H -0.10430 0.10365 -0.06151
 H364 H -0.12879 0.24752 -0.00512
 H365 H -0.06198 0.27544 -0.05756
 C366 C -0.06632 0.36477 -0.20190
 C367 C 0.08276 0.10922 -0.21755
 C368 C -0.12107 0.17339 -0.02931
 C369 C 0.13027 0.29787 -0.04091
 C370 C 0.44630 0.21989 0.18720
 H371 H 0.43823 0.25590 0.20082
 C372 C 0.42289 0.18018 0.20717
 H373 H 0.39777 0.18539 0.23701
 C374 C 0.48792 0.16874 0.13121
 H375 H 0.51225 0.16425 0.10084
 C376 C 0.46482 0.12858 0.14936
 H377 H 0.47307 0.09350 0.13358
 N378 N 0.47900 0.21330 0.15051
 C379 C 0.56064 0.34678 0.13760
 H380 H 0.56127 0.34888 0.09925
 C381 C 0.58172 0.38274 0.16387
 H382 H 0.59885 0.41236 0.14566
 C383 C 0.53774 0.30519 0.20787
 H384 H 0.52099 0.27472 0.22479
 C385 C 0.55925 0.34002 0.23555
 H386 H 0.55881 0.33647 0.27383
 Zn387 Zn 0.50871 0.26577 0.11876
 N388 N 0.53805 0.30971 0.15978
 C389 C 0.44720 0.34614 0.09361
 N390 N 0.45907 0.29878 0.08424
 C391 C 0.43214 0.27288 0.05414
 C392 C 0.39071 0.29444 0.03288
 C393 C 0.40673 0.36921 0.07251
 C394 C 0.59661 0.21738 0.10348
 C395 C 0.63618 0.19510 0.07939
 C396 C 0.60016 0.22141 0.00523
 C397 C 0.56075 0.24315 0.03094
 N398 N 0.55971 0.24026 0.07918
 H399 H 0.46770 0.36576 0.11889
 H400 H 0.44188 0.23503 0.04807
 H401 H 0.36873 0.27323 0.00996
 H402 H 0.39686 0.40661 0.08091
 H403 H 0.59478 0.21594 0.14183
 H404 H 0.66493 0.17682 0.09963
 H405 H 0.60097 0.22348 -0.03315
 H406 H 0.53109 0.26195 0.01247
 C407 C 0.58072 0.37962 0.21349
 C408 C 0.43198 0.13396 0.18798
 C409 C 0.63814 0.19674 0.02959
 C410 C 0.37760 0.34307 0.04275
 C411 C 0.93121 0.71440 0.72135
 H412 H 0.92065 0.75114 0.73147
 C413 C 0.91086 0.67522 0.74531
 H414 H 0.88458 0.68181 0.77397
 C415 C 0.97643 0.66051 0.67040
 H416 H 1.00075 0.65464 0.64021
 C417 C 0.95709 0.62054 0.69332
 H418 H 0.96727 0.58448 0.68080
 N419 N 0.96346 0.70641 0.68463
 C420 C 1.04100 0.83777 0.65553
 H421 H 1.03745 0.83478 0.61751
 C422 C 1.06803 0.87429 0.67384
 H423 H 1.08499 0.89921 0.64945
 C424 C 1.02342 0.80780 0.73271
 H425 H 1.00653 0.78118 0.75520
 C426 C 1.05068 0.84425 0.75283
 H427 H 1.05446 0.84597 0.79093
 Zn428 Zn 0.98849 0.75856 0.64831
 N429 N 1.01907 0.80561 0.68471
 C430 C 0.92447 0.83722 0.62615
 N431 N 0.93634 0.79056 0.61374
 C432 C 0.90995 0.76781 0.58057
 C433 C 0.87029 0.79253 0.55826
 C434 C 0.88618 0.86318 0.60430
 C435 C 1.07825 0.71496 0.63756
 C436 C 1.12192 0.69726 0.61701
 C437 C 1.08997 0.71905 0.53992
 C438 C 1.04619 0.73630 0.56214
 N439 N 1.04128 0.73353 0.61022
 H440 H 0.94399 0.85449 0.65380
 H441 H 0.91932 0.73045 0.57179
 H442 H 0.84943 0.77426 0.53204
 H443 H 0.87744 0.90032 0.61453
 H444 H 1.07359 0.71399 0.67574
 H445 H 1.15070 0.68179 0.63920
 H446 H 1.09367 0.72062 0.50166
 H447 H 1.01664 0.75215 0.54125
 C448 C 1.07339 0.87787 0.72308
 C449 C 0.92356 0.62774 0.73105
 C450 C 1.12823 0.69926 0.56794
 C451 C 0.85849 0.84100 0.57031
 C452 C 0.57360 0.71489 0.31168
 H453 H 0.58734 0.75100 0.31007
 C454 C 0.60032 0.67642 0.29026
 H455 H 0.63467 0.68286 0.27204
 C456 C 0.51343 0.66183 0.33952
 H457 H 0.48021 0.65608 0.35974
 C458 C 0.53910 0.62229 0.31871
 H459 H 0.52518 0.58642 0.32295
 N460 N 0.53120 0.70698 0.33600
 C461 C 0.45621 0.85004 0.34684
 H462 H 0.45041 0.85207 0.38484
 C463 C 0.44301 0.88979 0.31807
 H464 H 0.42770 0.92283 0.33397
 C465 C 0.48604 0.80556 0.27993
 H466 H 0.50308 0.77285 0.26525
 C467 C 0.47317 0.84433 0.24990
 H468 H 0.48141 0.84171 0.21225
 Zn469 Zn 0.50112 0.75992 0.36967
 N470 N 0.47894 0.80973 0.32762
 C471 C 0.56623 0.82827 0.40173
 N472 N 0.54950 0.78339 0.41039
 C473 C 0.56961 0.75429 0.44488
 C474 C 0.60717 0.77070 0.47313
 C475 C 0.60409 0.84562 0.42836
 C476 C 0.40632 0.72843 0.37786
 C477 C 0.36387 0.71268 0.40019
 C478 C 0.40230 0.72242 0.47592
 C479 C 0.44371 0.73887 0.45221
 N480 N 0.44543 0.74030 0.40396
 H481 H 0.55121 0.85034 0.37327
 H482 H 0.55682 0.71811 0.45014
 H483 H 0.62297 0.74742 0.50047
 H484 H 0.61696 0.88137 0.42057
 H485 H 0.40853 0.73051 0.33955
 H486 H 0.33360 0.70189 0.37895
 H487 H 0.40178 0.71952 0.51426
 H488 H 0.47453 0.74970 0.47241
 C489 C 0.45256 0.88722 0.26926
 C490 C 0.58353 0.62948 0.29431
 C491 C 0.36212 0.70888 0.44982
 C492 C 0.62518 0.81661 0.46446
 Si493 Si 0.39564 -0.00373 0.21496
 Si494 Si 0.15981 0.99237 0.73244
 Si495 Si 0.64334 0.49688 0.26430
 Si496 Si 0.87420 0.49651 0.76618
 Si497 Si 0.24672 0.37626 -0.01281
 Si498 Si 0.76401 0.12063 0.99832
 Si499 Si 0.23815 0.64503 0.48553
 Si500 Si 0.73930 0.89529 0.50304
 Si501 Si 0.00229 0.22738 0.36500
 Si502 Si 0.99437 0.73470 0.13429
 Si503 Si 0.49561 0.25597 0.62639
 Si504 Si 0.48721 0.75356 0.87345
 N505 N 0.45002 -0.07513 0.24415
 N506 N 0.45154 -0.03895 0.21936
 N507 N 0.90645 0.40568 0.77886
 N508 N 0.91322 0.44919 0.79079
 N509 N 0.10891 1.07370 0.75386
 N510 N 0.12628 1.03382 0.77074
 N511 N 0.61407 0.58964 0.27701
 N512 N 0.60202 0.54594 0.28183
 N513 N 0.60233 0.41528 0.24206
 N514 N 0.61437 0.45621 0.22571
 N515 N 0.10235 0.91490 0.74239
 N516 N 0.12224 0.94483 0.71437
 N517 N 0.89957 0.58792 0.75293
 N518 N 0.90868 0.54418 0.74053
 N519 N 0.41064 0.09239 0.20943
 N520 N 0.41301 0.05197 0.18805
 N521 N 0.25018 0.41558 -0.09871
 N522 N 0.26409 0.41983 -0.05624
 N523 N 0.74870 0.93150 0.41682
 N524 N 0.76648 0.93261 0.45829
 N525 N 0.77586 0.04806 1.05044
 N526 N 0.76366 0.05727 1.00980
 N527 N 0.24574 0.59589 0.56829
 N528 N 0.26851 0.61812 0.53570
 N529 N 0.23841 0.59329 0.40592
 N530 N 0.21825 0.59975 0.44648
 N531 N 0.74260 0.10757 0.91192
 N532 N 0.76659 0.13375 0.93623
 N533 N 0.72761 0.92177 0.59383
 N534 N 0.71419 0.93098 0.55153
 N535 N 0.23700 0.39945 0.07828
 N536 N 0.21875 0.40604 0.03741
 N537 N -0.08120 0.24402 0.41286
 N538 N -0.03681 0.25569 0.40904
 N539 N 0.39558 0.76711 0.90451
 N540 N 0.43949 0.77873 0.91105
 N541 N 1.04664 0.79751 0.08693
 N542 N 1.03573 0.75328 0.08842
 N543 N 0.58986 0.26336 0.60250
 N544 N 0.54606 0.27538 0.59138
 N545 N 0.41458 0.23940 0.57858
 N546 N 0.45637 0.22195 0.59084
 N547 N 0.92477 0.71511 0.07008
 N548 N 0.93895 0.71125 0.11271
 N549 N 0.57321 0.73719 0.91511
 N550 N 0.53123 0.72043 0.90869
 N551 N 0.09670 0.20876 0.38285
 N552 N 0.05332 0.19659 0.39276
 N553 N 0.50603 0.17400 0.67474
 N554 N 0.51848 0.21781 0.67338
 N555 N 1.00742 0.64809 0.17633
 N556 N 1.02563 0.68907 0.16885
 N557 N 0.93388 0.80230 0.16914
 N558 N 0.97813 0.78625 0.16990
 N559 N 0.46417 0.32547 0.68824
 N560 N 0.46271 0.30950 0.64622
 N561 N 0.47395 0.66921 0.83084
 N562 N 0.45963 0.71355 0.83314
 N563 N -0.01331 0.15396 0.30563
 N564 N -0.03265 0.18543 0.33362
 N565 N 0.04980 0.30498 0.34649
 N566 N 0.02391 0.27400 0.32698
 N567 N 0.50779 0.84518 0.85280
 N568 N 0.51715 0.80101 0.84227
 N569 N 0.69319 0.53273 0.19706
 N570 N 0.69776 0.51849 0.23781
 N571 N 0.20181 1.00101 0.64700
 N572 N 0.17841 1.02371 0.67998
 N573 N 0.20994 0.96074 0.80172
 N574 N 0.21412 0.96855 0.75932
 N575 N 0.68260 0.48429 0.34967
 N576 N 0.66158 0.46364 0.31596
 N577 N 0.84785 0.48021 0.67766
 N578 N 0.83910 0.47026 0.72096
 N579 N 0.33569 -0.01099 0.14188
 N580 N 0.35399 -0.03314 0.17759
 N581 N 0.38768 0.02984 0.30356
 N582 N 0.36661 0.00679 0.27154
 N583 N 0.84087 0.50872 0.85468
 N584 N 0.83433 0.52110 0.81165
 N585 N 0.17237 0.67745 0.54820
 N586 N 0.18479 0.68007 0.50470
 N587 N 0.67868 0.17412 1.00393
 N588 N 0.71083 0.14852 1.02605
 N589 N 0.84660 0.15825 0.99849
 N590 N 0.81579 0.14409 1.02642
 N591 N 0.32255 0.68654 0.47394
 N592 N 0.28144 0.68084 0.45476
 N593 N 0.66521 0.83339 0.49134
 N594 N 0.69074 0.86666 0.47383
 N595 N 0.16510 0.32681 -0.01826
 N596 N 0.20541 0.33621 -0.03872
 N597 N 0.33366 0.36618 0.02537
 N598 N 0.30060 0.34308 0.00553
 N599 N 0.81908 0.86931 0.54941
 N600 N 0.78520 0.85244 0.52487
   
