data_POSCAR
  _audit_creation_date              2014-09-24
  _audit_creation_method            'ToBaCCo'
  _symmetry_space_group_name_H-M    'P1'
  _symmetry_Int_Tables_number       1
  _symmetry_cell_setting            triclinic
  loop_
  _symmetry_equiv_pos_as_xyz
 x,y,z
_cell_length_a 37.1388
_cell_length_b 36.6849
_cell_length_c 37.1305
_cell_angle_alpha 90.011000
_cell_angle_beta 89.998100
_cell_angle_gamma 89.997800
loop_
  _atom_site_label
  _atom_site_type_symbol
  _atom_site_fract_x
  _atom_site_fract_y
  _atom_site_fract_z
N1 N 0.62450 0.62523 0.62530
 N2 N 0.87551 0.37517 0.12538
 N3 N 0.37560 0.12521 -0.12536
 N4 N 0.12462 0.87516 0.37448
 N5 N 0.08279 0.18283 0.10851
 N6 N 0.06823 0.16746 0.13702
 C7 C 0.03901 0.18677 0.14697
 C8 C 0.03529 0.21553 0.12340
 C9 C 0.06335 0.21239 0.09933
 H10 H 0.02173 0.18050 0.16958
 H11 H 0.06915 0.23024 0.07689
 Cu12 Cu 0.08892 0.12377 0.15835
 Cu13 Cu 0.12579 0.16343 0.08545
 Cu14 Cu 0.16406 0.08642 0.12372
 N15 N 0.11119 0.08106 0.17998
 N16 N 0.14058 0.06658 0.16630
 C17 C 0.15028 0.03755 0.18626
 C18 C 0.12566 0.03384 0.21376
 C19 C 0.10122 0.06171 0.20918
 H20 H 0.17347 0.02046 0.18120
 H21 H 0.07802 0.06739 0.22587
 N22 N 0.18387 0.11044 0.08060
 N23 N 0.16929 0.13979 0.06602
 C24 C 0.18883 0.14961 0.03701
 C25 C 0.21683 0.12528 0.03339
 C26 C 0.21307 0.10082 0.06125
 H27 H 0.18318 0.17265 0.01975
 H28 H 0.23032 0.07777 0.06689
 H29 H 0.11869 0.10993 0.10138
 H30 H 0.14670 0.13943 0.13129
 N31 N 0.41639 0.81674 0.60931
 N32 N 0.43009 0.83121 0.63870
 C33 C 0.45929 0.81186 0.64865
 C34 C 0.46386 0.78399 0.62419
 C35 C 0.43635 0.78771 0.59958
 H36 H 0.47599 0.81752 0.67185
 H37 H 0.43127 0.77061 0.57640
 Cu38 Cu 0.40846 0.87391 0.66102
 Cu39 Cu 0.37380 0.83656 0.58587
 Cu40 Cu 0.33551 0.91354 0.62424
 N41 N 0.38714 0.91758 0.68175
 N42 N 0.35861 0.93294 0.66723
 C43 C 0.34943 0.96250 0.68670
 C44 C 0.37353 0.96565 0.71473
 C45 C 0.39711 0.93690 0.71097
 H46 H 0.32697 0.98033 0.68093
 H47 H 0.41975 0.93064 0.72822
 N48 N 0.31606 0.88991 0.58074
 N49 N 0.33065 0.86058 0.56612
 C50 C 0.31129 0.85096 0.53693
 C51 C 0.28340 0.87541 0.53321
 C52 C 0.28703 0.89972 0.56123
 H53 H 0.31693 0.82793 0.51965
 H54 H 0.26976 0.92274 0.56692
 H55 H 0.38135 0.88957 0.60326
 H56 H 0.35149 0.86004 0.63130
 N57 N 0.91734 0.68284 0.39144
 N58 N 0.93188 0.66747 0.36291
 C59 C 0.96111 0.68678 0.35296
 C60 C 0.96485 0.71553 0.37656
 C61 C 0.93680 0.71239 0.40063
 H62 H 0.97837 0.68051 0.33034
 H63 H 0.93101 0.73024 0.42309
 Cu64 Cu 0.91116 0.62381 0.34156
 Cu65 Cu 0.87434 0.66346 0.41451
 Cu66 Cu 0.83600 0.58650 0.37618
 N67 N 0.88885 0.58112 0.31990
 N68 N 0.85946 0.56666 0.33358
 C69 C 0.84974 0.53764 0.31360
 C70 C 0.87437 0.53391 0.28610
 C71 C 0.89882 0.56177 0.29070
 H72 H 0.82655 0.52056 0.31866
 H73 H 0.92202 0.56743 0.27401
 N74 N 0.81622 0.61052 0.41933
 N75 N 0.83083 0.63984 0.43393
 C76 C 0.81131 0.64966 0.46295
 C77 C 0.78329 0.62536 0.46656
 C78 C 0.78702 0.60091 0.43867
 H79 H 0.81698 0.67268 0.48024
 H80 H 0.76975 0.57788 0.43302
 H81 H 0.88140 0.60996 0.39853
 H82 H 0.85340 0.63950 0.36865
 N83 N 0.58337 0.31706 -0.10915
 N84 N 0.56928 0.33193 -0.13816
 C85 C 0.54009 0.31257 -0.14813
 C86 C 0.53592 0.28430 -0.12407
 C87 C 0.56366 0.28777 -0.09968
 H88 H 0.52313 0.31850 -0.17106
 H89 H 0.56906 0.27035 -0.07682
 Cu90 Cu 0.59054 0.37511 -0.15990
 Cu91 Cu 0.62614 0.33672 -0.08583
 Cu92 Cu 0.66445 0.41372 -0.12422
 N93 N 0.61225 0.41828 -0.18120
 N94 N 0.64119 0.43325 -0.16708
 C95 C 0.65062 0.46254 -0.18680
 C96 C 0.62628 0.46591 -0.21460
 C97 C 0.60228 0.43758 -0.21044
 H98 H 0.67340 0.48004 -0.18136
 H99 H 0.57938 0.43158 -0.22742
 N100 N 0.68403 0.38995 -0.08083
 N101 N 0.66943 0.36062 -0.06621
 C102 C 0.68885 0.35096 -0.03707
 C103 C 0.71677 0.37535 -0.03340
 C104 C 0.71311 0.39969 -0.06138
 H105 H 0.68319 0.32794 -0.01979
 H106 H 0.73037 0.42272 -0.06705
 H107 H 0.61889 0.38997 -0.10251
 H108 H 0.64789 0.36042 -0.13140
 C109 C -0.04288 0.29369 0.12445
 C110 C -0.03398 0.32998 0.13195
 C111 C -0.06076 0.35675 0.13226
 C112 C -0.09680 0.34752 0.12507
 C113 C -0.10550 0.31099 0.11758
 C114 C -0.07869 0.28425 0.11727
 C115 C -0.01530 0.26614 0.12410
 C116 C 0.00780 0.24305 0.12379
 H117 H -0.00634 0.33759 0.13749
 H118 H -0.05340 0.38475 0.13784
 H119 H -0.13311 0.30321 0.11223
 H120 H -0.08589 0.25624 0.11148
 C121 C 0.54251 0.70632 0.62467
 C122 C 0.57826 0.71594 0.61748
 C123 C 0.60520 0.68933 0.61768
 C124 C 0.59668 0.65274 0.62507
 C125 C 0.56069 0.64332 0.63226
 C126 C 0.53378 0.66996 0.63206
 C127 C 0.51479 0.73373 0.62449
 C128 C 0.49156 0.75667 0.62435
 H129 H 0.58532 0.74401 0.61179
 H130 H 0.63277 0.69726 0.61234
 H131 H 0.55346 0.61527 0.63775
 H132 H 0.50618 0.66220 0.63761
 C133 C 1.04302 0.79368 0.37548
 C134 C 1.03411 0.82996 0.36797
 C135 C 1.06089 0.85674 0.36764
 C136 C 1.09693 0.84750 0.37481
 C137 C 1.10564 0.81099 0.38231
 C138 C 1.07883 0.78424 0.38264
 C139 C 1.01544 0.76613 0.37584
 C140 C 0.99234 0.74305 0.37616
 H141 H 1.00646 0.83757 0.36245
 H142 H 1.05352 0.88472 0.36206
 H143 H 1.13325 0.80321 0.38763
 H144 H 1.08603 0.75623 0.38842
 C145 C 0.45748 0.20642 -0.12474
 C146 C 0.44676 0.18992 -0.09248
 C147 C 0.41988 0.16325 -0.09267
 C148 C 0.40339 0.15277 -0.12515
 C149 C 0.41432 0.16949 -0.15743
 C150 C 0.44121 0.19615 -0.15720
 C151 C 0.48514 0.23388 -0.12452
 C152 C 0.50831 0.25689 -0.12432
 H153 H 0.45921 0.19762 -0.06722
 H154 H 0.41208 0.15055 -0.06753
 H155 H 0.40182 0.16204 -0.18272
 H156 H 0.44927 0.20879 -0.18231
 C157 C 0.12517 -0.04379 0.29245
 C158 C 0.13236 -0.03414 0.32821
 C159 C 0.13218 -0.06074 0.35516
 C160 C 0.12481 -0.09734 0.34664
 C161 C 0.11763 -0.10679 0.31065
 C162 C 0.11780 -0.08016 0.28373
 C163 C 0.12534 -0.01640 0.26471
 C164 C 0.12549 0.00654 0.24147
 H165 H 0.13803 -0.00606 0.33526
 H166 H 0.13752 -0.05279 0.38273
 H167 H 0.11215 -0.13484 0.30343
 H168 H 0.11226 -0.08794 0.25613
 C169 C 0.62540 0.54387 -0.29297
 C170 C 0.63259 0.53438 -0.32877
 C171 C 0.63230 0.56108 -0.35563
 C172 C 0.62481 0.59762 -0.34696
 C173 C 0.61762 0.60691 -0.31093
 C174 C 0.61792 0.58017 -0.28411
 C175 C 0.62570 0.51636 -0.26534
 C176 C 0.62595 0.49333 -0.24219
 H177 H 0.63836 0.50635 -0.33594
 H178 H 0.63765 0.55325 -0.38323
 H179 H 0.61206 0.63491 -0.30360
 H180 H 0.61237 0.58782 -0.25648
 C181 C 0.37461 1.04383 0.79290
 C182 C 0.34243 1.06044 0.80366
 C183 C 0.34273 1.08718 0.83049
 C184 C 0.37527 1.09762 0.84688
 C185 C 0.40748 1.08080 0.83590
 C186 C 0.40713 1.05407 0.80906
 C187 C 0.37426 1.01627 0.76532
 C188 C 0.37394 0.99318 0.74222
 H189 H 0.31712 1.05276 0.79129
 H190 H 0.31765 1.09996 0.83832
 H191 H 0.43281 1.08821 0.84833
 H192 H 0.43218 1.04134 0.80098
 C193 C 0.87489 0.45625 0.20741
 C194 C 0.86772 0.46589 0.17165
 C195 C 0.86792 0.43928 0.14470
 C196 C 0.87530 0.40269 0.15322
 C197 C 0.88246 0.39325 0.18921
 C198 C 0.88226 0.41989 0.21614
 C199 C 0.87469 0.48366 0.23515
 C200 C 0.87454 0.50660 0.25839
 H201 H 0.86203 0.49396 0.16459
 H202 H 0.86259 0.44722 0.11713
 H203 H 0.88794 0.36520 0.19644
 H204 H 0.88779 0.41213 0.24374
 C205 C 0.29461 0.12531 -0.04423
 C206 C 0.30551 0.15812 -0.06008
 C207 C 0.33211 0.15812 -0.08672
 C208 C 0.34813 0.12525 -0.09781
 C209 C 0.33704 0.09242 -0.08173
 C210 C 0.31043 0.09247 -0.05510
 C211 C 0.26719 0.12533 -0.01684
 C212 C 0.24422 0.12532 0.00609
 H213 H 0.29340 0.18369 -0.05190
 H214 H 0.34003 0.18369 -0.09891
 H215 H 0.34920 0.06682 -0.08966
 H216 H 0.30224 0.06692 -0.04297
 C217 C 0.70556 0.62540 0.54423
 C218 C 0.71478 0.61865 0.58017
 C219 C 0.68818 0.61860 0.60681
 C220 C 0.65201 0.62531 0.59779
 C221 C 0.64299 0.63208 0.56163
 C222 C 0.66962 0.63212 0.53502
 C223 C 0.73296 0.62541 0.51683
 C224 C 0.75592 0.62540 0.49388
 H225 H 0.74253 0.61347 0.58760
 H226 H 0.69579 0.61360 0.63451
 H227 H 0.61527 0.63704 0.55402
 H228 H 0.66218 0.63732 0.50728
 C229 C 0.79446 0.37540 0.04430
 C230 C 0.83039 0.36862 0.03508
 C231 C 0.85702 0.36856 0.06168
 C232 C 0.84801 0.37528 0.09786
 C233 C 0.81186 0.38208 0.10689
 C234 C 0.78526 0.38213 0.08025
 C235 C 0.76706 0.37540 0.01691
 C236 C 0.74410 0.37538 -0.00604
 H237 H 0.83782 0.36343 0.00733
 H238 H 0.88472 0.36354 0.05407
 H239 H 0.80426 0.38705 0.13461
 H240 H 0.75752 0.38735 0.08770
 C241 C 0.20571 0.87543 0.45551
 C242 C 0.21490 0.88215 0.41956
 C243 C 0.18829 0.88208 0.39293
 C244 C 0.15214 0.87528 0.40198
 C245 C 0.14315 0.86858 0.43817
 C246 C 0.16979 0.86865 0.46476
 C247 C 0.23313 0.87545 0.48290
 C248 C 0.25608 0.87544 0.50585
 H249 H 0.24263 0.88736 0.41210
 H250 H 0.19587 0.88703 0.36521
 H251 H 0.11545 0.86355 0.44579
 H252 H 0.16237 0.86347 0.49251
   
