data_POSCAR
  _audit_creation_date              2014-09-24
  _audit_creation_method            'ToBaCCo'
  _symmetry_space_group_name_H-M    'P1'
  _symmetry_Int_Tables_number       1
  _symmetry_cell_setting            triclinic
  loop_
  _symmetry_equiv_pos_as_xyz
 x,y,z
_cell_length_a 49.4806
_cell_length_b 49.4461
_cell_length_c 18.1471
_cell_angle_alpha 89.980000
_cell_angle_beta 89.963800
_cell_angle_gamma 119.956000
loop_
  _atom_site_label
  _atom_site_type_symbol
  _atom_site_fract_x
  _atom_site_fract_y
  _atom_site_fract_z
C1 C 0.18158 0.50961 0.50169
 C2 C 0.19727 0.51381 0.43503
 C3 C 0.22696 0.51681 0.43430
 C4 C 0.24060 0.51355 0.49999
 C5 C 0.22370 0.50840 0.56660
 C6 C 0.19485 0.50730 0.56749
 C7 C 0.27162 0.51460 0.49873
 C8 C 0.28888 0.51888 0.56438
 C9 C 0.31663 0.51781 0.56336
 C10 C 0.32868 0.51451 0.49680
 C11 C 0.31268 0.51105 0.43125
 C12 C 0.28402 0.51029 0.43210
 H13 H 0.15869 0.50762 0.50221
 H14 H 0.23889 0.52144 0.38200
 H15 H 0.23222 0.50461 0.61811
 H16 H 0.28109 0.52270 0.61688
 H17 H 0.35024 0.51377 0.49624
 H18 H 0.27155 0.50558 0.38064
 C19 C 0.48451 -0.33108 0.49944
 C20 C 0.48671 -0.31574 0.43340
 C21 C 0.48645 -0.28753 0.43380
 C22 C 0.48242 -0.27494 0.50051
 C23 C 0.47935 -0.29163 0.56659
 C24 C 0.48143 -0.31886 0.56601
 C25 C 0.48249 -0.24432 0.50150
 C26 C 0.48661 -0.22771 0.56825
 C27 C 0.48689 -0.19927 0.56885
 C28 C 0.48461 -0.18609 0.50306
 C29 C 0.48148 -0.20132 0.43645
 C30 C 0.47946 -0.23059 0.43552
 H31 H 0.48599 -0.35229 0.49920
 H32 H 0.49012 -0.27555 0.38186
 H33 H 0.47569 -0.28378 0.61918
 H34 H 0.49034 -0.23593 0.62018
 H35 H 0.48607 -0.16344 0.50353
 H36 H 0.47586 -0.24194 0.38279
 C37 C 1.32973 0.81527 0.49735
 C38 C 1.31427 0.80253 0.43130
 C39 C 1.28572 0.77450 0.43159
 C40 C 1.27284 0.75785 0.49815
 C41 C 1.28957 0.77112 0.56432
 C42 C 1.31722 0.80002 0.56376
 C43 C 1.24192 0.72767 0.49867
 C44 C 1.22511 0.71505 0.56515
 C45 C 1.19632 0.68723 0.56508
 C46 C 1.18303 0.67236 0.49866
 C47 C 1.19862 0.68461 0.43238
 C48 C 1.22818 0.71137 0.43236
 H49 H 1.35123 0.83764 0.49740
 H50 H 1.27372 0.76659 0.37962
 H51 H 1.28150 0.75975 0.61694
 H52 H 1.23359 0.72666 0.61736
 H53 H 1.16020 0.65144 0.49829
 H54 H 1.23979 0.71908 0.37987
 C55 C 0.81484 0.48560 0.49747
 C56 C 0.80218 0.48887 0.43189
 C57 C 0.77419 0.48948 0.43284
 C58 C 0.75755 0.48525 0.49965
 C59 C 0.77070 0.48121 0.56526
 C60 C 0.79955 0.48238 0.56408
 C61 C 0.72744 0.48606 0.50115
 C62 C 0.71546 0.49092 0.56786
 C63 C 0.68758 0.49182 0.56864
 C64 C 0.67208 0.48950 0.50272
 C65 C 0.68377 0.48552 0.43624
 C66 C 0.71059 0.48280 0.43549
 H67 H 0.83718 0.48644 0.49690
 H68 H 0.76631 0.49399 0.38130
 H69 H 0.75921 0.47749 0.61789
 H70 H 0.72766 0.49466 0.61946
 H71 H 0.65112 0.49136 0.50285
 H72 H 0.71796 0.47843 0.38304
 C73 C 0.50882 0.32705 0.49600
 C74 C 0.50661 0.31123 0.43077
 C75 C 0.50682 0.28304 0.43278
 C76 C 0.51095 0.27093 0.50015
 C77 C 0.51401 0.28804 0.56536
 C78 C 0.51197 0.31529 0.56331
 C79 C 0.51121 0.24049 0.50252
 C80 C 0.50723 0.22416 0.56973
 C81 C 0.50723 0.19579 0.57116
 C82 C 0.50959 0.18247 0.50549
 C83 C 0.51275 0.19760 0.43860
 C84 C 0.51459 0.22675 0.43714
 H85 H 0.50749 0.34832 0.49436
 H86 H 0.50314 0.27079 0.38131
 H87 H 0.51775 0.28054 0.61835
 H88 H 0.50349 0.23266 0.62129
 H89 H 0.50838 0.15993 0.50616
 H90 H 0.51835 0.23803 0.38424
 C91 C 0.67320 0.18361 0.49821
 C92 C 0.68868 0.19725 0.43261
 C93 C 0.71657 0.22595 0.43399
 C94 C 0.72865 0.24232 0.50120
 C95 C 0.71176 0.22824 0.56665
 C96 C 0.68490 0.19876 0.56515
 C97 C 0.75884 0.27318 0.50341
 C98 C 0.77514 0.28545 0.57061
 C99 C 0.80320 0.31401 0.57222
 C100 C 0.81625 0.33002 0.50681
 C101 C 0.80128 0.31809 0.43988
 C102 C 0.77240 0.29048 0.43809
 H103 H 0.65223 0.16084 0.49729
 H104 H 0.72862 0.23466 0.38230
 H105 H 0.71909 0.23954 0.61954
 H106 H 0.76693 0.27296 0.62199
 H107 H 0.83862 0.35150 0.50765
 H108 H 0.76123 0.28287 0.38514
 O109 O 0.95824 0.43406 0.13922
 O110 O 0.92341 0.44005 0.06776
 C111 C 0.93006 0.42704 0.12140
 O112 O 1.04545 0.57249 0.12404
 O113 O 1.07977 0.56366 0.05768
 C114 C 1.07352 0.57896 0.10646
 O115 O 0.95854 0.52670 0.13298
 O116 O 0.92345 0.48480 0.06460
 C117 C 0.93027 0.50554 0.11587
 O118 O 1.04534 0.47494 0.13080
 O119 O 1.07973 0.51708 0.06171
 C120 C 1.07343 0.49621 0.11240
 Zr121 Zr 1.00166 0.46755 0.09367
 O122 O 1.00470 0.46846 0.21009
 O123 O 1.00023 0.42417 0.08791
 Zr124 Zr 1.00169 0.53606 0.08757
 O125 O 1.00302 0.54244 0.20298
 O126 O 1.00062 0.57779 0.07071
 O127 O 0.97414 0.48822 0.10611
 O128 O 1.02865 0.51539 0.10400
 O129 O 1.04428 0.47127 -0.12675
 O130 O 1.07919 0.51526 -0.06405
 C131 C 1.07249 0.49292 -0.11088
 O132 O 0.95725 0.52345 -0.14032
 O133 O 0.92291 0.48303 -0.06703
 C134 C 0.92919 0.50247 -0.12105
 O135 O 1.04441 0.56997 -0.13437
 O136 O 1.07937 0.56234 -0.06738
 C137 C 1.07264 0.57705 -0.11687
 O138 O 0.95740 0.43026 -0.13171
 O139 O 0.92291 0.43818 -0.06360
 C140 C 0.92931 0.42361 -0.11411
 Zr141 Zr 1.00095 0.46517 -0.09083
 O142 O 1.00387 0.46457 -0.20715
 O143 O 0.99795 0.42099 -0.08403
 Zr144 Zr 1.00093 0.53353 -0.09660
 O145 O 1.00404 0.53488 -0.21300
 O146 O 0.99758 0.57458 -0.09685
 Zr147 Zr 0.95444 0.47715 -0.00035
 Zr148 Zr 1.04804 0.52387 -0.00247
 O149 O 1.02793 0.51268 -0.10819
 O150 O 0.97316 0.48529 -0.10784
 O151 O 1.02946 0.47518 0.00131
 O152 O 0.97366 0.52588 -0.00412
 O153 O 0.97375 0.44770 0.00256
 O154 O 1.02951 0.55410 -0.00546
 H155 H 1.04247 0.52264 0.14769
 H156 H 0.95924 0.53434 -0.00499
 H157 H 1.04161 0.51906 -0.15221
 H158 H 0.95945 0.42482 0.00428
 H159 H 1.00032 0.58586 0.12047
 H160 H 1.01508 0.59041 -0.06702
 H161 H 0.98824 0.51411 -0.23144
 H162 H 0.98734 0.46810 -0.22742
 H163 H 1.01470 0.42318 -0.05052
 H164 H 1.00024 0.41769 0.13959
 H165 H 0.98961 0.47437 0.22904
 H166 H 1.00632 0.52610 0.22524
 O167 O 0.43110 0.47354 0.13241
 O168 O 0.43838 0.51585 0.06487
 C169 C 0.42422 0.49490 0.11561
 O170 O 0.56992 0.52522 0.13049
 O171 O 0.56211 0.48307 0.06151
 C172 C 0.57671 0.50393 0.11202
 O173 O 0.52449 0.56693 0.13787
 O174 O 0.48339 0.56090 0.06737
 C175 C 0.50354 0.57425 0.12000
 O176 O 0.47187 0.42749 0.12310
 O177 O 0.51552 0.43661 0.05857
 C178 C 0.49342 0.42091 0.10600
 Zr179 Zr 0.46546 0.46465 0.08843
 O180 O 0.46372 0.45957 0.20441
 O181 O 0.42230 0.42301 0.07539
 Zr182 Zr 0.53388 0.53303 0.09313
 O183 O 0.53597 0.53154 0.20944
 O184 O 0.57492 0.57738 0.09144
 O185 O 0.48572 0.51257 0.10634
 O186 O 0.51299 0.48516 0.10410
 O187 O 0.47414 0.43046 -0.13438
 O188 O 0.51671 0.43819 -0.06734
 C189 C 0.49554 0.42364 -0.11723
 O190 O 0.52517 0.56881 -0.13518
 O191 O 0.48380 0.56184 -0.06433
 C192 C 0.50383 0.57558 -0.11696
 O193 O 0.57182 0.52825 -0.12883
 O194 O 0.56329 0.48477 -0.06442
 C195 C 0.57860 0.50677 -0.11227
 O196 O 0.43314 0.47682 -0.13934
 O197 O 0.43937 0.51743 -0.06658
 C198 C 0.42614 0.49791 -0.12036
 Zr199 Zr 0.46677 0.46668 -0.09580
 O200 O 0.46771 0.46476 -0.21225
 O201 O 0.42253 0.42553 -0.09383
 Zr202 Zr 0.53520 0.53513 -0.09133
 O203 O 0.54026 0.53727 -0.20726
 O204 O 0.57583 0.57957 -0.08204
 Zr205 Zr 0.47691 0.52336 -0.00020
 Zr206 Zr 0.52373 0.47649 -0.00242
 O207 O 0.51455 0.48758 -0.10812
 O208 O 0.48726 0.51488 -0.10769
 O209 O 0.47505 0.44636 -0.00458
 O210 O 0.52564 0.55276 0.00174
 O211 O 0.44745 0.47464 -0.00331
 O212 O 0.55393 0.52524 0.00060
 H213 H 0.51936 0.47773 0.14789
 H214 H 0.53405 0.57563 0.00262
 H215 H 0.52169 0.48121 -0.15244
 H216 H 0.42458 0.46615 -0.00408
 H217 H 0.59152 0.57491 0.06743
 H218 H 0.59254 0.57649 -0.06097
 H219 H 0.51923 0.52928 -0.22841
 H220 H 0.47259 0.48546 -0.23122
 H221 H 0.42458 0.40984 -0.06416
 H222 H 0.41465 0.41529 0.12583
 H223 H 0.47067 0.48041 0.22577
 H224 H 0.51534 0.52671 0.22874
 O225 O 0.43291 -0.04263 -0.13706
 O226 O 0.43898 -0.07738 -0.06528
 C227 C 0.42580 -0.07083 -0.11873
 O228 O 0.57060 0.04444 -0.12930
 O229 O 0.56255 0.07899 -0.06182
 C230 C 0.57734 0.07259 -0.11158
 O231 O 0.52526 -0.04281 -0.13417
 O232 O 0.48360 -0.07752 -0.06446
 C233 C 0.50409 -0.07097 -0.11622
 O234 O 0.47277 0.04428 -0.12776
 O235 O 0.51590 0.07896 -0.06216
 C236 C 0.49414 0.07245 -0.11052
 Zr237 Zr 0.46583 0.00077 -0.09069
 O238 O 0.46265 0.00297 -0.20643
 O239 O 0.42260 -0.00088 -0.07755
 Zr240 Zr 0.53432 0.00071 -0.09168
 O241 O 0.53687 0.00372 -0.20812
 O242 O 0.57538 -0.00255 -0.08792
 O243 O 0.48629 -0.02688 -0.10607
 O244 O 0.51350 0.02768 -0.10525
 O245 O 0.47333 0.04449 0.13055
 O246 O 0.51622 0.07900 0.06379
 C247 C 0.49488 0.07261 0.11320
 O248 O 0.52425 -0.04301 0.13804
 O249 O 0.48320 -0.07754 0.06687
 C250 C 0.50302 -0.07114 0.11993
 O251 O 0.57095 0.04421 0.12969
 O252 O 0.56263 0.07899 0.06385
 C253 C 0.57781 0.07242 0.11229
 O254 O 0.43162 -0.04269 0.13620
 O255 O 0.43851 -0.07747 0.06656
 C256 C 0.42461 -0.07087 0.11833
 Zr257 Zr 0.46604 0.00076 0.09347
 O258 O 0.46651 0.00384 0.20986
 O259 O 0.42194 -0.00203 0.08974
 Zr260 Zr 0.53441 0.00057 0.09295
 O261 O 0.53843 0.00396 0.20904
 O262 O 0.57507 -0.00337 0.08696
 Zr263 Zr 0.47672 -0.04616 0.00095
 Zr264 Zr 0.52361 0.04746 0.00088
 O265 O 0.51374 0.02760 0.10710
 O266 O 0.48634 -0.02701 0.10805
 O267 O 0.47491 0.02904 0.00132
 O268 O 0.52545 -0.02690 0.00070
 O269 O 0.44721 -0.02691 0.00121
 O270 O 0.55377 0.02883 0.00060
 H271 H 0.52021 0.04134 -0.14931
 H272 H 0.53392 -0.04132 0.00105
 H273 H 0.52064 0.04125 0.15114
 H274 H 0.42436 -0.04134 0.00078
 H275 H 0.59181 0.01654 -0.06371
 H276 H 0.59179 0.01603 0.06441
 H277 H 0.51731 -0.00947 0.22945
 H278 H 0.47034 -0.01260 0.22950
 H279 H 0.42425 0.01576 0.05985
 H280 H 0.41466 -0.00154 -0.12800
 H281 H 0.47913 -0.00044 -0.22734
 H282 H 0.51686 -0.01317 -0.22774
 C283 C 1.14562 0.50505 0.25772
 C284 C 1.15210 0.52851 0.20588
 C285 C 1.12925 0.52483 0.15486
 C286 C 1.18226 0.51265 0.37109
 C287 C 1.09393 0.47379 0.20587
 C288 C 1.11680 0.47741 0.25623
 C289 C 1.16679 0.51000 0.31734
 C290 C 1.09953 0.49784 0.15599
 H291 H 1.17430 0.55007 0.20665
 H292 H 1.13436 0.54372 0.11706
 H293 H 1.07142 0.45263 0.20805
 H294 H 1.11149 0.45911 0.29615
 C295 C 0.49780 0.64117 0.25978
 C296 C 0.52414 0.63769 0.26170
 C297 C 0.52650 0.61679 0.21419
 C298 C 0.49028 0.67174 0.36979
 C299 C 0.47671 0.60369 0.15977
 C300 C 0.47429 0.62452 0.20793
 C301 C 0.49354 0.65875 0.31719
 C302 C 0.50246 0.59896 0.16386
 H303 H 0.54236 0.65025 0.30199
 H304 H 0.54679 0.61397 0.21847
 H305 H 0.45791 0.59047 0.12142
 H306 H 0.45362 0.62679 0.20647
 C307 C 0.35745 -0.14357 0.25732
 C308 C 0.36042 -0.11395 0.25814
 C309 C 0.38133 -0.09071 0.21064
 C310 C 0.32695 -0.18139 0.36776
 C311 C 0.39540 -0.12710 0.15827
 C312 C 0.37456 -0.15032 0.20644
 C313 C 0.33994 -0.16526 0.31502
 C314 C 0.39967 -0.09676 0.16142
 H315 H 0.34748 -0.10839 0.29767
 H316 H 0.38381 -0.06772 0.21421
 H317 H 0.40904 -0.13254 0.12082
 H318 H 0.37266 -0.17312 0.20585
 C319 C 0.85769 0.50029 0.25535
 C320 C 0.85072 0.47689 0.20302
 C321 C 0.87395 0.47919 0.15494
 C322 C 0.81929 0.49280 0.36473
 C323 C 0.91086 0.52867 0.21036
 C324 C 0.88763 0.52642 0.25782
 C325 C 0.83573 0.49610 0.31248
 C326 C 0.90453 0.50473 0.15952
 H327 H 0.82769 0.45639 0.20108
 H328 H 0.86825 0.46046 0.11623
 H329 H 0.93405 0.54877 0.21514
 H330 H 0.89337 0.54455 0.29848
 C331 C 0.49721 0.35347 0.24730
 C332 C 0.46959 0.35450 0.24083
 C333 C 0.46773 0.37511 0.19128
 C334 C 0.50335 0.32411 0.36227
 C335 C 0.52058 0.39249 0.15071
 C336 C 0.52247 0.37195 0.20088
 C337 C 0.50067 0.33662 0.30790
 C338 C 0.49356 0.39511 0.14735
 H339 H 0.44995 0.34046 0.27667
 H340 H 0.44648 0.37633 0.18979
 H341 H 0.54081 0.40748 0.11761
 H342 H 0.54407 0.37152 0.20576
 C343 C 0.64561 0.14420 0.25181
 C344 C 0.62760 0.15102 0.20396
 C345 C 0.60678 0.12827 0.15489
 C346 C 0.67570 0.18078 0.36459
 C347 C 0.62287 0.09229 0.19962
 C348 C 0.64373 0.11506 0.24811
 C349 C 0.66290 0.16513 0.31104
 C350 C 0.60344 0.09828 0.15400
 H351 H 0.62865 0.17341 0.20673
 H352 H 0.59226 0.13366 0.12041
 H353 H 0.62112 0.06956 0.20000
 H354 H 0.65739 0.10942 0.28513
 C355 C 0.49796 0.14408 -0.25078
 C356 C 0.52305 0.15081 -0.20395
 C357 C 0.52120 0.12814 -0.15456
 C358 C 0.50412 0.18025 -0.36442
 C359 C 0.46874 0.09248 -0.19692
 C360 C 0.47056 0.11516 -0.24572
 C361 C 0.50142 0.16480 -0.31049
 C362 C 0.49438 0.09834 -0.15232
 H363 H 0.54450 0.17303 -0.20779
 H364 H 0.54131 0.13341 -0.12099
 H365 H 0.44765 0.06988 -0.19630
 H366 H 0.45107 0.10959 -0.28196
 C367 C 0.64583 0.50254 -0.25377
 C368 C 0.62803 0.47780 -0.20545
 C369 C 0.60745 0.47986 -0.15570
 C370 C 0.67536 0.49556 -0.36728
 C371 C 0.62339 0.53186 -0.20064
 C372 C 0.64401 0.52983 -0.24985
 C373 C 0.66283 0.49872 -0.31352
 C374 C 0.60416 0.50654 -0.15452
 H375 H 0.62903 0.45644 -0.20839
 H376 H 0.59305 0.45998 -0.12095
 H377 H 0.62163 0.55283 -0.20093
 H378 H 0.65750 0.54904 -0.28725
 C379 C 0.85650 0.35628 -0.25243
 C380 C 0.88594 0.35885 -0.25241
 C381 C 0.90916 0.37972 -0.20488
 C382 C 0.81900 0.32624 -0.36368
 C383 C 0.87309 0.39449 -0.15392
 C384 C 0.84989 0.37370 -0.20213
 C385 C 0.83496 0.33897 -0.31054
 C386 C 0.90330 0.39844 -0.15644
 H387 H 0.89141 0.34569 -0.29146
 H388 H 0.93204 0.38195 -0.20799
 H389 H 0.86778 0.40840 -0.11707
 H390 H 0.82726 0.37213 -0.20214
 C391 C 0.49837 -0.14401 -0.25436
 C392 C 0.47488 -0.15073 -0.20246
 C393 C 0.47733 -0.12737 -0.15466
 C394 C 0.49071 -0.18229 -0.36393
 C395 C 0.52716 -0.09088 -0.20945
 C396 C 0.52476 -0.11425 -0.25659
 C397 C 0.49403 -0.16594 -0.31156
 C398 C 0.50311 -0.09692 -0.15917
 H399 H 0.45418 -0.17363 -0.20074
 H400 H 0.45853 -0.13282 -0.11634
 H401 H 0.54745 -0.06781 -0.21410
 H402 H 0.54297 -0.10872 -0.29692
 C403 C 0.36261 0.50859 -0.26178
 C404 C 0.36634 0.48246 -0.26832
 C405 C 0.38603 0.47836 -0.22039
 C406 C 0.33173 0.51689 -0.36970
 C407 C 0.39735 0.52589 -0.15638
 C408 C 0.37775 0.53009 -0.20501
 C409 C 0.34535 0.51405 -0.31787
 C410 C 0.40234 0.50039 -0.16483
 H411 H 0.35480 0.46571 -0.31219
 H412 H 0.38912 0.45837 -0.22832
 H413 H 0.40935 0.54314 -0.11386
 H414 H 0.37513 0.55048 -0.19961
 C415 C 1.14402 0.64444 -0.25801
 C416 C 1.15088 0.62635 -0.21044
 C417 C 1.12826 0.60563 -0.16092
 C418 C 1.18044 0.67453 -0.37107
 C419 C 1.09235 0.62196 -0.20471
 C420 C 1.11500 0.64273 -0.25365
 C421 C 1.16481 0.66169 -0.31749
 C422 C 1.09838 0.60249 -0.15930
 H423 H 1.17320 0.62729 -0.21376
 H424 H 1.13364 0.59102 -0.12669
 H425 H 1.06970 0.62033 -0.20451
 H426 H 1.10935 0.65646 -0.29045
 C427 C 0.85490 0.49193 -0.26150
 C428 C 0.84860 0.47050 -0.20451
 C429 C 0.87245 0.47466 -0.15622
 C430 C 0.81565 0.48346 -0.36908
 C431 C 0.90859 0.52201 -0.22105
 C432 C 0.88475 0.51795 -0.26865
 C433 C 0.83214 0.48640 -0.31736
 C434 C 0.90293 0.50004 -0.16528
 H435 H 0.82560 0.45019 -0.19870
 H436 H 0.86726 0.45747 -0.11351
 H437 H 0.93167 0.54191 -0.22941
 H438 H 0.88989 0.53462 -0.31277
 C439 C 0.50350 0.35941 -0.26150
 C440 C 0.47610 0.36107 -0.26037
 C441 C 0.47280 0.38073 -0.21057
 C442 C 0.51075 0.32949 -0.37345
 C443 C 0.52372 0.39597 -0.15970
 C444 C 0.52706 0.37638 -0.21008
 C445 C 0.50817 0.34269 -0.32036
 C446 C 0.49693 0.39907 -0.16099
 H447 H 0.45774 0.34810 -0.30006
 H448 H 0.45181 0.38240 -0.21286
 H449 H 0.54270 0.40972 -0.12218
 H450 H 0.54844 0.37538 -0.21068
 C451 C 0.64108 0.14513 -0.25555
 C452 C 0.63949 0.11609 -0.25531
 C453 C 0.62009 0.09303 -0.20541
 C454 C 0.67027 0.18248 -0.36775
 C455 C 0.60506 0.12861 -0.15255
 C456 C 0.62438 0.15164 -0.20304
 C457 C 0.65740 0.16661 -0.31458
 C458 C 0.60193 0.09870 -0.15485
 H459 H 0.65226 0.11078 -0.29584
 H460 H 0.61840 0.07037 -0.20850
 H461 H 0.59148 0.13377 -0.11422
 H462 H 0.62535 0.17402 -0.20292
 C463 C 1.14334 0.49673 -0.25332
 C464 C 1.11461 0.46918 -0.24726
 C465 C 1.09221 0.46727 -0.19743
 C466 C 1.17906 0.50352 -0.36823
 C467 C 1.12789 0.51994 -0.15605
 C468 C 1.15025 0.52186 -0.20639
 C469 C 1.16368 0.50040 -0.31396
 C470 C 1.09821 0.49299 -0.15290
 H471 H 1.10893 0.44966 -0.28357
 H472 H 1.06969 0.44610 -0.19616
 H473 H 1.13325 0.54013 -0.12262
 H474 H 1.17234 0.54342 -0.21102
 C475 C 0.49264 0.63821 -0.26041
 C476 C 0.51898 0.63484 -0.26632
 C477 C 0.52337 0.61560 -0.21743
 C478 C 0.48328 0.66756 -0.37029
 C479 C 0.47574 0.60413 -0.15370
 C480 C 0.47126 0.62327 -0.20324
 C481 C 0.48669 0.65469 -0.31766
 C482 C 0.50141 0.59938 -0.16161
 H483 H 0.53562 0.64621 -0.31056
 H484 H 0.54346 0.61265 -0.22503
 H485 H 0.45853 0.59218 -0.11102
 H486 H 0.45070 0.62560 -0.19834
 C487 C 0.36241 -0.14468 -0.26095
 C488 C 0.36628 -0.11476 -0.26752
 C489 C 0.38594 -0.09106 -0.21940
 C490 C 0.33189 -0.18384 -0.36910
 C491 C 0.39699 -0.12747 -0.15532
 C492 C 0.37742 -0.15117 -0.20407
 C493 C 0.34528 -0.16735 -0.31720
 C494 C 0.40209 -0.09693 -0.16368
 H495 H 0.35487 -0.10945 -0.31156
 H496 H 0.38915 -0.06793 -0.22728
 H497 H 0.40891 -0.13283 -0.11275
 H498 H 0.37472 -0.17421 -0.19871
 C499 C 0.49225 -0.14536 0.26175
 C500 C 0.51817 -0.11544 0.26899
 C501 C 0.52235 -0.09161 0.22095
 C502 C 0.48323 -0.18488 0.36954
 C503 C 0.47531 -0.12791 0.15565
 C504 C 0.47105 -0.15173 0.20430
 C505 C 0.48653 -0.16820 0.31782
 C506 C 0.50060 -0.09736 0.16467
 H507 H 0.53467 -0.11022 0.31346
 H508 H 0.54214 -0.06848 0.22940
 H509 H 0.45826 -0.13319 0.11263
 H510 H 0.45082 -0.17478 0.19839
 C511 C 0.35661 0.49983 0.25430
 C512 C 0.35989 0.47335 0.25541
 C513 C 0.38097 0.47122 0.20808
 C514 C 0.32582 0.50713 0.36411
 C515 C 0.39461 0.52152 0.15542
 C516 C 0.37359 0.52370 0.20337
 C517 C 0.33890 0.50389 0.31170
 C518 C 0.39917 0.49563 0.15877
 H519 H 0.34707 0.45486 0.29502
 H520 H 0.38370 0.45085 0.21183
 H521 H 0.40814 0.54063 0.11792
 H522 H 0.37147 0.54447 0.20256
 C523 C 1.14590 0.64234 0.25095
 C524 C 1.11698 0.64100 0.25031
 C525 C 1.09405 0.62185 0.19997
 C526 C 1.18272 0.67060 0.36448
 C527 C 1.12953 0.60668 0.14727
 C528 C 1.15243 0.62573 0.19822
 C529 C 1.16711 0.65819 0.31069
 C530 C 1.09969 0.60368 0.14935
 H531 H 1.11164 0.65370 0.29096
 H532 H 1.07144 0.62026 0.20296
 H533 H 1.13469 0.59314 0.10884
 H534 H 1.17471 0.62651 0.19834
 C535 C 0.50359 0.14473 0.25833
 C536 C 0.52706 0.15124 0.20657
 C537 C 0.52339 0.12841 0.15556
 C538 C 0.51141 0.18155 0.37137
 C539 C 0.47233 0.09305 0.20638
 C540 C 0.47594 0.11592 0.25679
 C541 C 0.50859 0.16591 0.31789
 C542 C 0.49639 0.09868 0.15663
 H543 H 0.54861 0.17345 0.20746
 H544 H 0.54231 0.13353 0.11785
 H545 H 0.45118 0.07053 0.20849
 H546 H 0.45765 0.11060 0.29671
 C547 C 0.64019 0.49481 0.25604
 C548 C 0.63884 0.52239 0.25539
 C549 C 0.61952 0.52612 0.20547
 C550 C 0.66921 0.48682 0.36873
 C551 C 0.60413 0.47533 0.15326
 C552 C 0.62336 0.47155 0.20383
 C553 C 0.65641 0.48967 0.31526
 C554 C 0.60120 0.50224 0.15526
 H555 H 0.65174 0.54053 0.29564
 H556 H 0.61802 0.54721 0.20826
 H557 H 0.59046 0.45659 0.11512
 H558 H 0.62417 0.45005 0.20399
 C559 C 0.85664 0.36396 0.26503
 C560 C 0.85008 0.37911 0.20859
 C561 C 0.87364 0.39861 0.15940
 C562 C 0.81762 0.33322 0.37329
 C563 C 0.91002 0.38718 0.22219
 C564 C 0.88647 0.36760 0.27077
 C565 C 0.83411 0.34678 0.32148
 C566 C 0.90409 0.40346 0.16687
 H567 H 0.82710 0.37656 0.20388
 H568 H 0.86825 0.41066 0.11720
 H569 H 0.93310 0.39021 0.22936
 H570 H 0.89181 0.35606 0.31445
   
