data_POSCAR
  _audit_creation_date              2014-09-24
  _audit_creation_method            'ToBaCCo'
  _symmetry_space_group_name_H-M    'P1'
  _symmetry_Int_Tables_number       1
  _symmetry_cell_setting            triclinic
  loop_
  _symmetry_equiv_pos_as_xyz
 x,y,z
_cell_length_a 35.5055
_cell_length_b 35.5032
_cell_length_c 35.5053
_cell_angle_alpha 89.798200
_cell_angle_beta 89.998000
_cell_angle_gamma 90.000400
loop_
  _atom_site_label
  _atom_site_type_symbol
  _atom_site_fract_x
  _atom_site_fract_y
  _atom_site_fract_z
N1 N 0.18676 0.18560 0.18598
 N2 N -0.18647 0.81259 0.18715
 N3 N -0.18609 0.18747 -0.18732
 N4 N 0.18684 0.81434 -0.18573
 N5 N 0.18730 1.18768 0.81198
 N6 N 0.81226 0.81272 0.81301
 N7 N 0.18743 0.81232 1.18777
 N8 N 0.81253 1.18727 1.18716
 N9 N 0.54030 1.06724 0.95922
 N10 N 0.56882 1.09060 0.95438
 N11 N 0.46113 1.04095 0.93320
 N12 N 0.43235 1.04553 0.91007
 N13 N 0.46120 1.06723 0.95915
 N14 N 0.43267 1.09058 0.95421
 N15 N 0.54056 1.04087 0.93339
 N16 N 0.56942 1.04538 0.91039
 C17 C 0.58667 1.07655 0.92384
 C18 C 0.41495 1.07663 0.92351
 N19 N 0.46086 0.93390 0.95959
 N20 N 0.43192 0.91103 0.95513
 N21 N 0.54053 0.95978 0.93352
 N22 N 0.56932 0.95512 0.91046
 N23 N 0.54015 0.93337 0.95950
 N24 N 0.56859 0.90988 0.95473
 N25 N 0.46126 0.95984 0.93316
 N26 N 0.43273 0.95521 0.90980
 Mn27 Mn 0.50089 1.00038 0.93285
 C28 C 0.41475 0.92467 0.92393
 C29 C 0.58649 0.92386 0.92405
 N30 N 0.46132 1.06711 1.04046
 N31 N 0.43271 1.09035 1.04520
 N32 N 0.54065 1.04073 1.06638
 N33 N 0.56943 1.04529 1.08948
 N34 N 0.54046 1.06713 1.04037
 N35 N 0.56896 1.09051 1.04519
 N36 N 0.46124 1.04075 1.06651
 N37 N 0.43238 1.04514 1.08952
 Mn38 Mn 0.50080 1.06763 0.99980
 C39 C 0.41498 1.07623 1.07589
 C40 C 0.58675 1.07648 1.07591
 N41 N 0.53998 0.93326 1.04069
 N42 N 0.56842 0.90980 1.04550
 N43 N 0.46113 0.95965 1.06691
 N44 N 0.43267 0.95482 1.09039
 N45 N 0.46073 0.93378 1.04057
 N46 N 0.43187 0.91079 1.04525
 N47 N 0.54040 0.95964 1.06652
 N48 N 0.56927 0.95503 1.08948
 Mn49 Mn 0.50041 0.93313 1.00009
 Mn50 Mn 0.50087 1.00021 1.06704
 Cl51 Cl 0.50074 1.00033 0.99995
 C52 C 0.58638 0.92379 1.07602
 C53 C 0.41471 0.92425 1.07646
 N54 N 0.06628 0.46029 -0.04062
 N55 N 0.08922 0.43143 -0.04529
 N56 N 0.04044 0.54018 -0.06631
 N57 N 0.04500 0.56929 -0.08907
 N58 N 0.06682 0.53955 -0.04039
 N59 N 0.09023 0.56809 -0.04494
 N60 N 0.04041 0.46091 -0.06705
 N61 N 0.04519 0.43259 -0.09059
 C62 C 0.07574 0.41449 -0.07660
 C63 C 0.07621 0.58631 -0.07540
 N64 N -0.06675 0.54015 -0.04030
 N65 N -0.08997 0.56887 -0.04485
 N66 N -0.04076 0.46118 -0.06705
 N67 N -0.04549 0.43280 -0.09049
 N68 N -0.06667 0.46071 -0.04066
 N69 N -0.08960 0.43182 -0.04524
 N70 N -0.04070 0.54030 -0.06655
 N71 N -0.04562 0.56895 -0.08984
 Mn72 Mn -0.00014 0.50067 -0.06719
 C73 C -0.07643 0.58650 -0.07589
 C74 C -0.07604 0.41480 -0.07647
 N75 N 0.06681 0.53906 0.04084
 N76 N 0.09027 0.56749 0.04570
 N77 N 0.04040 0.46002 0.06683
 N78 N 0.04515 0.43137 0.09014
 N79 N 0.06626 0.45980 0.04040
 N80 N 0.08920 0.43088 0.04482
 N81 N 0.04042 0.53929 0.06676
 N82 N 0.04505 0.56802 0.08982
 Mn83 Mn 0.06700 0.49966 0.00006
 C84 C 0.07629 0.58526 0.07635
 C85 C 0.07568 0.41352 0.07599
 N86 N -0.06672 0.45998 0.04048
 N87 N -0.08987 0.43120 0.04504
 N88 N -0.04073 0.53913 0.06698
 N89 N -0.04550 0.56755 0.09036
 N90 N -0.06672 0.53943 0.04068
 N91 N -0.08973 0.56825 0.04523
 N92 N -0.04077 0.46001 0.06683
 N93 N -0.04565 0.43138 0.09017
 Mn94 Mn -0.06719 0.50004 0.00005
 Mn95 Mn -0.00016 0.49963 0.06730
 Cl96 Cl -0.00013 0.50000 0.00005
 C97 C -0.07637 0.41370 0.07618
 C98 C -0.07614 0.58540 0.07637
 N99 N 0.93222 0.04027 0.53920
 N100 N 0.90894 0.04515 0.56776
 N101 N 0.95850 0.06599 0.45976
 N102 N 0.95388 0.08906 0.43088
 N103 N 0.93224 0.03994 0.46002
 N104 N 0.90888 0.04471 0.43145
 N105 N 0.95852 0.06627 0.53913
 N106 N 0.95406 0.08941 0.56779
 C107 C 0.92299 0.07590 0.58527
 C108 C 0.92280 0.07545 0.41355
 N109 N 1.06594 0.04037 0.46025
 N110 N 1.08932 0.04511 0.43174
 N111 N 1.03953 0.06657 0.53931
 N112 N 1.04408 0.08980 0.56793
 N113 N 1.06593 0.04068 0.53931
 N114 N 1.08935 0.04572 0.56772
 N115 N 1.03953 0.06624 0.45984
 N116 N 1.04401 0.08917 0.43083
 Mn117 Mn 0.99901 0.06673 0.49950
 C118 C 1.07522 0.07562 0.41369
 C119 C 1.07531 0.07643 0.58530
 N120 N 0.93254 -0.04132 0.46081
 N121 N 0.90926 -0.04627 0.43228
 N122 N 0.95893 -0.06691 0.54025
 N123 N 0.95439 -0.08995 0.56919
 N124 N 0.93253 -0.04099 0.53993
 N125 N 0.90918 -0.04582 0.56849
 N126 N 0.95898 -0.06719 0.46082
 N127 N 0.95460 -0.09030 0.43211
 Mn128 Mn 0.93193 -0.00053 0.49999
 C129 C 0.92343 -0.07691 0.41470
 C130 C 0.92321 -0.07644 0.58645
 N131 N 1.06599 -0.04038 0.53996
 N132 N 1.08905 -0.04472 0.56880
 N133 N 1.04014 -0.06710 0.46088
 N134 N 1.04506 -0.09055 0.43252
 N135 N 1.06603 -0.04069 0.46054
 N136 N 1.08912 -0.04527 0.43176
 N137 N 1.04011 -0.06680 0.53999
 N138 N 1.04500 -0.09004 0.56866
 Mn139 Mn 1.06642 -0.00003 0.50002
 Mn140 Mn 0.99951 -0.06746 0.50049
 Cl141 Cl 0.99921 -0.00032 0.50000
 C142 C 1.07561 -0.07584 0.58632
 C143 C 1.07570 -0.07652 0.41464
 C144 C 1.13901 0.13802 0.28208
 N145 N 1.17557 0.13133 0.27327
 N146 N 1.19085 0.14655 0.24252
 C147 C 1.17012 0.16882 0.21921
 N148 N 1.13343 0.17523 0.22805
 N149 N 1.11820 0.16025 0.25894
 C150 C 1.12232 0.12168 0.31619
 N151 N 1.08802 0.13327 0.32848
 N152 N 1.07302 0.11868 0.35967
 C153 C 1.09170 0.09181 0.37951
 N154 N 1.12590 0.08009 0.36716
 N155 N 1.14101 0.09488 0.33612
 C156 C 0.86048 -0.14025 0.28354
 N157 N 0.82403 -0.13343 0.27431
 N158 N 0.80901 -0.14859 0.24352
 C159 C 0.82988 -0.17095 0.22058
 N160 N 0.86644 -0.17757 0.22987
 N161 N 0.88141 -0.16263 0.26080
 C162 C 0.87692 -0.12375 0.31759
 N163 N 0.91113 -0.13524 0.33027
 N164 N 0.92593 -0.12040 0.36134
 C165 C 0.90714 -0.09337 0.38066
 N166 N 0.87301 -0.08176 0.36793
 N167 N 0.85810 -0.09678 0.33701
 C168 C 0.86043 0.13992 0.71628
 N169 N 0.82401 0.13320 0.72566
 N170 N 0.80912 0.14853 0.75643
 C171 C 0.83010 0.17098 0.77920
 N172 N 0.86662 0.17753 0.76973
 N173 N 0.88146 0.16242 0.73882
 C174 C 0.87674 0.12319 0.68228
 N175 N 0.91091 0.13461 0.66943
 N176 N 0.92560 0.11958 0.63841
 C177 C 0.90676 0.09244 0.61930
 N178 N 0.87268 0.08088 0.63220
 N179 N 0.85787 0.09609 0.66308
 C180 C 1.13918 -0.13870 0.71782
 N181 N 1.16153 -0.11772 0.74055
 N182 N 1.17662 -0.13270 0.77151
 C183 C 1.17021 -0.16931 0.78083
 N184 N 1.14788 -0.19023 0.75790
 N185 N 1.13255 -0.17520 0.72708
 C186 C 1.12256 -0.12227 0.68372
 N187 N 1.09561 -0.14114 0.66430
 N188 N 1.08052 -0.12625 0.63330
 C189 C 1.09206 -0.09210 0.62049
 N190 N 1.11907 -0.07326 0.63981
 N191 N 1.13398 -0.08803 0.67096
 C192 C 0.28335 1.13888 1.13881
 N193 N 0.27398 1.17527 1.13178
 N194 N 0.24313 1.19022 1.14694
 C195 C 0.22024 1.16932 1.16950
 N196 N 0.22967 1.13282 1.17632
 N197 N 0.26067 1.11792 1.16139
 C198 C 0.31750 1.12252 1.12237
 N199 N 0.33026 1.08838 1.13407
 N200 N 0.36144 1.07367 1.11932
 C201 C 0.38080 1.09246 1.09219
 N202 N 0.36798 1.12651 1.08036
 N203 N 0.33695 1.14134 1.09529
 C204 C 0.28318 0.86188 0.86109
 N205 N 0.26040 0.83946 0.88210
 N206 N 0.22947 0.82442 0.86717
 C207 C 0.22023 0.83096 0.83058
 N208 N 0.24321 0.85337 0.80962
 N209 N 0.27400 0.86864 0.82460
 C210 C 0.31729 0.87835 0.87748
 N211 N 0.33690 0.90527 0.85859
 N212 N 0.36792 0.92018 0.87348
 C213 C 0.38056 0.90848 0.90763
 N214 N 0.36103 0.88152 0.92649
 N215 N 0.32986 0.86680 0.91173
 C216 C 0.71746 0.86008 1.13939
 N217 N 0.72642 0.82354 1.13283
 N218 N 0.75712 0.80835 1.14818
 C219 C 0.78023 0.82913 1.17046
 N220 N 0.77121 0.86577 1.17680
 N221 N 0.74038 0.88092 1.16169
 C222 C 0.68348 0.87671 1.12279
 N223 N 0.67107 0.91101 1.13415
 N224 N 0.64002 0.92598 1.11929
 C225 C 0.62044 0.90729 1.09238
 N226 N 0.63291 0.87308 1.08089
 N227 N 0.66381 0.85799 1.09593
 C228 C 0.71786 1.14005 0.86054
 N229 N 0.72676 1.17663 0.86695
 N230 N 0.75746 1.19180 0.85160
 C231 C 0.78064 1.17095 0.82945
 N232 N 0.77170 1.13426 0.82327
 N233 N 0.74085 1.11914 0.83839
 C234 C 0.68385 1.12345 0.87711
 N235 N 0.67143 1.08915 0.86577
 N236 N 0.64035 1.07423 0.88060
 C237 C 0.62075 1.09297 0.90746
 N238 N 0.63324 1.12718 0.91894
 N239 N 0.66417 1.14223 0.90392
 C240 C 0.13913 0.28203 0.13896
 N241 N 0.16139 0.25922 0.11796
 N242 N 0.17649 0.22828 0.13295
 C243 C 0.17018 0.21906 0.16960
 N244 N 0.14796 0.24208 0.19054
 N245 N 0.13263 0.27287 0.17550
 C246 C 0.12250 0.31611 0.12250
 N247 N 0.09564 0.33562 0.14141
 N248 N 0.08056 0.36662 0.12649
 C249 C 0.09203 0.37933 0.09228
 N250 N 0.11895 0.35991 0.07341
 N251 N 0.13383 0.32876 0.08820
 C252 C -0.13856 0.28351 -0.14000
 N253 N -0.13172 0.27453 -0.17647
 N254 N -0.14693 0.24382 -0.19161
 C255 C -0.16937 0.22070 -0.17083
 N256 N -0.17596 0.22972 -0.13424
 N257 N -0.16097 0.26057 -0.11916
 C258 C -0.12219 0.31757 -0.12342
 N259 N -0.13383 0.32991 -0.08920
 N260 N -0.11920 0.36102 -0.07427
 C261 C -0.09225 0.38072 -0.09294
 N262 N -0.08048 0.36831 -0.12708
 N263 N -0.09530 0.33736 -0.14213
 C264 C 0.13958 0.71811 -0.13788
 N265 N 0.11866 0.74108 -0.16020
 N266 N 0.13373 0.77199 -0.17529
 C267 C 0.17037 0.78103 -0.16892
 N268 N 0.19123 0.75788 -0.14658
 N269 N 0.17611 0.72711 -0.13125
 C270 C 0.12303 0.68396 -0.12145
 N271 N 0.14181 0.66411 -0.09464
 N272 N 0.12680 0.63303 -0.07981
 C273 C 0.09263 0.62058 -0.09149
 N274 N 0.07388 0.64035 -0.11835
 N275 N 0.08877 0.67157 -0.13298
 C276 C -0.13901 0.71653 0.13983
 N277 N -0.13225 0.72545 0.17633
 N278 N -0.14747 0.75615 0.19147
 C279 C -0.16983 0.77932 0.17067
 N280 N -0.17635 0.77036 0.13405
 N281 N -0.16136 0.73951 0.11896
 C282 C -0.12257 0.68252 0.12326
 N283 N -0.13417 0.67013 0.08903
 N284 N -0.11945 0.63906 0.07412
 C285 C -0.09244 0.61945 0.09280
 N286 N -0.08071 0.63190 0.12693
 N287 N -0.09563 0.66281 0.14197
 C288 C 1.13950 0.14019 0.71599
 N289 N 1.17598 0.13327 0.72505
 N290 N 1.19127 0.14851 0.75569
 C291 C 1.17066 0.17107 0.77869
 N292 N 1.13407 0.17778 0.76957
 N293 N 1.11882 0.16277 0.73879
 C294 C 1.12272 0.12359 0.68204
 N295 N 1.08844 0.13513 0.66954
 N296 N 1.07336 0.12021 0.63861
 C297 C 1.09191 0.09304 0.61924
 N298 N 1.12609 0.08138 0.63180
 N299 N 1.14129 0.09648 0.66257
 C300 C 0.85932 -0.14004 0.71790
 N301 N 0.87920 -0.16461 0.73939
 N302 N 0.86401 -0.17973 0.77024
 C303 C 0.82815 -0.17127 0.78103
 N304 N 0.80848 -0.14655 0.75912
 N305 N 0.82369 -0.13122 0.72837
 C306 C 0.87602 -0.12339 0.68379
 N307 N 0.85796 -0.09546 0.66481
 N308 N 0.87307 -0.08041 0.63386
 C309 C 0.90668 -0.09291 0.62064
 N310 N 0.92472 -0.12088 0.63954
 N311 N 0.90971 -0.13578 0.67061
 C312 C 1.13954 -0.14030 0.28379
 N313 N 1.13272 -0.17677 0.27473
 N314 N 1.14810 -0.19193 0.24409
 C315 C 1.17070 -0.17119 0.22108
 N316 N 1.17729 -0.13461 0.23019
 N317 N 1.16215 -0.11951 0.26097
 C318 C 1.12284 -0.12366 0.31776
 N319 N 1.13431 -0.08939 0.33018
 N320 N 1.11937 -0.07442 0.36113
 C321 C 1.09223 -0.09305 0.38063
 N322 N 1.08064 -0.12724 0.36816
 N323 N 1.09577 -0.14233 0.33735
 C324 C 0.85924 0.13969 0.28227
 N325 N 0.87921 0.16435 0.26094
 N326 N 0.86412 0.17962 0.23011
 C327 C 0.82830 0.17121 0.21917
 N328 N 0.80854 0.14644 0.24095
 N329 N 0.82363 0.13097 0.27167
 C330 C 0.87584 0.12284 0.31633
 N331 N 0.85773 0.09479 0.33511
 N332 N 0.87275 0.07956 0.36601
 C333 C 0.90632 0.09199 0.37939
 N334 N 0.92440 0.12007 0.36068
 N335 N 0.90949 0.13515 0.32966
 C336 C 0.13944 0.28366 -0.14055
 N337 N 0.13271 0.27470 -0.17706
 N338 N 0.14810 0.24408 -0.19224
 C339 C 0.17062 0.22099 -0.17150
 N340 N 0.17714 0.23002 -0.13489
 N341 N 0.16198 0.26078 -0.11976
 C342 C 0.12273 0.31761 -0.12388
 N343 N 0.13413 0.32991 -0.08955
 N344 N 0.11920 0.36085 -0.07454
 C345 C 0.09216 0.38046 -0.09320
 N346 N 0.08062 0.36810 -0.12744
 N347 N 0.09574 0.33730 -0.14257
 C348 C -0.14019 0.28237 0.14010
 N349 N -0.16476 0.26103 0.12021
 N350 N -0.17990 0.23019 0.13541
 C351 C -0.17146 0.21925 0.17128
 N352 N -0.14675 0.24101 0.19095
 N353 N -0.13140 0.27175 0.17574
 C354 C -0.12351 0.31646 0.12339
 N355 N -0.09552 0.33522 0.14143
 N356 N -0.08042 0.36614 0.12631
 C357 C -0.09291 0.37955 0.09272
 N358 N -0.12093 0.36087 0.07469
 N359 N -0.13589 0.32983 0.08971
 C360 C -0.14055 0.71764 -0.13983
 N361 N -0.13178 0.72820 -0.17549
 N362 N -0.14712 0.75891 -0.19073
 C363 C -0.17179 0.78073 -0.17107
 N364 N -0.18024 0.76984 -0.13519
 N365 N -0.16511 0.73901 -0.11996
 C366 C -0.12381 0.68360 -0.12309
 N367 N -0.13619 0.67019 -0.08943
 N368 N -0.12115 0.63919 -0.07441
 C369 C -0.09305 0.62060 -0.09241
 N370 N -0.08057 0.63406 -0.12599
 N371 N -0.09574 0.66493 -0.14111
 C372 C 0.14009 0.71619 0.14007
 N373 N 0.11932 0.73883 0.16273
 N374 N 0.13441 0.76964 0.17783
 C375 C 0.17096 0.77896 0.17114
 N376 N 0.19167 0.75611 0.14851
 N377 N 0.17653 0.72544 0.13318
 C378 C 0.12345 0.68219 0.12341
 N379 N 0.14210 0.66276 0.09631
 N380 N 0.12700 0.63195 0.08119
 C381 C 0.09284 0.61929 0.09283
 N382 N 0.07423 0.63863 0.11999
 N383 N 0.08921 0.66959 0.13492
 C384 C 0.28372 1.14032 0.85960
 N385 N 0.26107 1.11961 0.83689
 N386 N 0.23016 1.13470 0.82182
 C387 C 0.22077 1.17119 0.82858
 N388 N 0.24363 1.19184 0.85125
 N389 N 0.27439 1.17670 0.86656
 C390 C 0.31780 1.12369 0.87628
 N391 N 0.33721 1.14226 0.90344
 N392 N 0.36810 1.12720 0.91859
 C393 C 0.38085 1.09313 0.90694
 N394 N 0.36153 1.07458 0.87972
 N395 N 0.33050 1.08953 0.86475
 C396 C 0.28360 0.86035 1.14034
 N397 N 0.27443 0.86705 1.17681
 N398 N 0.24375 0.85161 1.19198
 C399 C 0.22081 0.82906 1.17127
 N400 N 0.23005 0.82257 1.13469
 N401 N 0.26087 0.83778 1.11957
 C402 C 0.31762 0.87711 1.12368
 N403 N 0.33014 0.86573 1.08942
 N404 N 0.36115 0.88070 1.07443
 C405 C 0.38060 0.90778 1.09303
 N406 N 0.36802 0.91930 1.12720
 N407 N 0.33716 0.90413 1.14232
 C408 C 0.71772 1.14031 1.13976
 N409 N 0.73913 1.12033 1.16432
 N410 N 0.76988 1.13550 1.17951
 C411 C 0.78064 1.17142 1.17112
 N412 N 0.75880 1.19118 1.14642
 N413 N 0.72816 1.17601 1.13103
 C414 C 0.68373 1.12363 1.12304
 N415 N 0.66491 1.14176 1.09506
 N416 N 0.63407 1.12667 1.07994
 C417 C 0.62081 1.09300 1.09242
 N418 N 0.63957 1.07489 1.12044
 N419 N 0.67053 1.08989 1.13541
 C420 C 0.71740 0.85978 0.86024
 N421 N 0.72787 0.82412 0.86909
 N422 N 0.75851 0.80891 0.85374
 C423 C 0.78034 0.82860 0.82897
 N424 N 0.76955 0.86448 0.82045
 N425 N 0.73880 0.87969 0.83560
 C426 C 0.68343 0.87651 0.87695
 N427 N 0.67026 0.91026 0.86457
 N428 N 0.63933 0.92531 0.87953
 C429 C 0.62054 0.90725 0.90757
 N430 N 0.63375 0.87357 0.92007
 N431 N 0.66457 0.85843 0.90496
   
