data_POSCAR
  _audit_creation_date              2014-09-24
  _audit_creation_method            'ToBaCCo'
  _symmetry_space_group_name_H-M    'P1'
  _symmetry_Int_Tables_number       1
  _symmetry_cell_setting            triclinic
  loop_
  _symmetry_equiv_pos_as_xyz
 x,y,z
_cell_length_a 22.5190
_cell_length_b 21.9467
_cell_length_c 22.0056
_cell_angle_alpha 90.308100
_cell_angle_beta 89.924100
_cell_angle_gamma 90.155300
loop_
  _atom_site_label
  _atom_site_type_symbol
  _atom_site_fract_x
  _atom_site_fract_y
  _atom_site_fract_z
C1 C 0.44431 0.99134 -0.53365
 C2 C 0.44353 1.01159 -0.47226
 C3 C 0.49792 1.01898 -0.44148
 C4 C 0.55407 1.00793 -0.46837
 C5 C 0.55522 0.98864 -0.53060
 C6 C 0.50025 0.98040 -0.56073
 H7 H 0.50112 0.97182 -0.60922
 H8 H 0.49560 1.02851 -0.39320
 C9 C -0.55707 1.47257 -0.01557
 C10 C -0.55368 1.53677 -0.00653
 C11 C -0.49673 1.56388 -0.00651
 C12 C -0.44406 1.53015 -0.01096
 C13 C -0.44774 1.46607 -0.01153
 C14 C -0.50398 1.43874 -0.01602
 H15 H -0.50646 1.38939 -0.01827
 H16 H -0.49293 1.61314 -0.00446
 C17 C 0.01423 0.52778 0.55915
 C18 C -0.01237 0.46875 0.55607
 C19 C -0.02437 0.44363 0.49827
 C20 C -0.01042 0.47418 0.44455
 C21 C 0.01366 0.53312 0.44769
 C22 C 0.02616 0.55859 0.50446
 H23 H 0.04120 0.60556 0.50586
 H24 H -0.03942 0.39680 0.49442
 O25 O -0.15340 0.99784 -0.08256
 O26 O 0.15281 1.00215 -0.08482
 O27 O -0.00591 1.07781 -0.15800
 O28 O 0.00458 0.91169 -0.15274
 O29 O 0.00254 0.84088 -0.07568
 O30 O -0.00420 1.15363 -0.08495
 O31 O 0.07921 0.99542 -0.15766
 O32 O -0.08036 0.99325 -0.15638
 Zr33 Zr -0.00046 0.99656 -0.10689
 O34 O 0.05507 0.94486 -0.05396
 O35 O -0.05558 1.05184 -0.05607
 C36 C -0.13533 0.99549 -0.13886
 C37 C 0.13436 0.99877 -0.14082
 C38 C -0.00626 1.13443 -0.14053
 C39 C 0.00488 0.85631 -0.13218
 H40 H 0.07667 1.08070 -0.08346
 O41 O 0.05234 1.05450 -0.05677
 H42 H -0.07788 0.91509 -0.07796
 O43 O -0.05317 0.94266 -0.05282
 O44 O 0.15396 1.00672 0.08161
 O45 O -0.15218 0.99573 0.08531
 O46 O 0.07582 1.15903 -0.00132
 O47 O 0.08228 0.84577 -0.00012
 O48 O -0.07638 0.84218 0.00794
 O49 O -0.08297 1.15448 -0.00708
 O50 O 0.00068 1.08820 0.15380
 O51 O 0.00304 0.92376 0.15880
 O52 O -0.00075 1.15921 0.07692
 O53 O 0.00123 0.84764 0.08612
 O54 O 0.15124 1.08798 -0.00211
 O55 O -0.15494 1.07961 -0.00155
 O56 O -0.15159 0.91319 0.00293
 O57 O 0.15442 0.92069 -0.00213
 O58 O 0.08140 1.01044 0.15586
 O59 O -0.07813 1.00288 0.15769
 Zr60 Zr 0.10556 1.00317 -0.00114
 Zr61 Zr -0.10555 0.99765 0.00097
 Zr62 Zr -0.00227 1.10635 -0.00274
 Zr63 Zr 0.00193 0.89443 0.00323
 Zr64 Zr 0.00110 1.00422 0.10684
 O65 O -0.05282 0.94608 0.05753
 O66 O 0.05382 1.05872 0.05320
 C67 C 0.13631 1.00942 0.13797
 C68 C -0.13328 0.99878 0.14126
 C69 C 0.13128 1.14360 -0.00139
 C70 C 0.13700 0.86409 -0.00215
 C71 C -0.13181 0.85764 0.00620
 C72 C -0.13769 1.13605 -0.00562
 C73 C 0.00043 1.14344 0.13340
 C74 C 0.00215 0.86717 0.14168
 H75 H -0.08035 1.08189 0.07917
 O76 O -0.05477 1.05543 0.05385
 H77 H 0.08151 0.92407 0.08170
 O78 O 0.05556 0.94906 0.05565
 C79 C 0.30652 0.98714 0.33452
 C80 C 0.30233 1.02827 0.38405
 C81 C 0.34581 1.02782 0.43036
 C82 C 0.39311 0.98566 0.42852
 C83 C 0.39190 0.94052 0.38256
 C84 C 0.34982 0.94139 0.33632
 C85 C 0.26437 0.99367 0.28227
 C86 C 0.27178 0.96209 0.22681
 C87 C 0.23138 0.96946 0.17934
 C88 C 0.18208 1.00766 0.18614
 C89 C 0.17510 1.04072 0.24065
 C90 C 0.21689 1.03533 0.28796
 C91 C 0.25527 1.07000 0.38622
 C92 C 0.21252 1.07219 0.34010
 H93 H 0.25107 1.10104 0.42443
 H94 H 0.17655 1.10464 0.34442
 H95 H 0.34484 1.06318 0.46483
 H96 H 0.42478 0.90457 0.38148
 H97 H 0.23771 0.94368 0.13775
 H98 H 0.13764 1.07128 0.24577
 H99 H 0.35220 0.90605 0.30211
 H100 H 0.30887 0.93202 0.21898
 C101 C -0.30105 0.98997 0.34275
 C102 C -0.34605 0.94515 0.33929
 C103 C -0.38965 0.94162 0.38470
 C104 C -0.39249 0.98456 0.43270
 C105 C -0.34621 1.02766 0.43717
 C106 C -0.30103 1.03012 0.39317
 C107 C -0.25698 0.99376 0.29128
 C108 C -0.20876 1.03482 0.29106
 C109 C -0.16930 1.03657 0.24194
 C110 C -0.17740 0.99845 0.19116
 C111 C -0.22530 0.95764 0.19059
 C112 C -0.26426 0.95417 0.24060
 C113 C -0.34917 0.90565 0.28912
 C114 C -0.30976 0.91063 0.24052
 H115 H -0.38379 0.87132 0.28655
 H116 H -0.31496 0.87976 0.20227
 H117 H -0.42310 0.90610 0.38136
 H118 H -0.34685 1.06246 0.47219
 H119 H -0.13223 1.06813 0.24350
 H120 H -0.23100 0.92712 0.15209
 H121 H -0.26802 1.06551 0.39802
 H122 H -0.20034 1.06536 0.32867
 C123 C -0.30507 1.00273 -0.33816
 C124 C -0.34993 1.04743 -0.33441
 C125 C -0.39298 1.05173 -0.38024
 C126 C -0.39525 1.00983 -0.42922
 C127 C -0.34960 0.96616 -0.43324
 C128 C -0.30507 0.96293 -0.38879
 C129 C -0.26086 0.99888 -0.28696
 C130 C -0.21230 0.95850 -0.28753
 C131 C -0.17234 0.95709 -0.23892
 C132 C -0.18029 0.99482 -0.18787
 C133 C -0.22862 1.03486 -0.18645
 C134 C -0.26805 1.03806 -0.23598
 C135 C -0.35315 1.08636 -0.28380
 C136 C -0.31374 1.08116 -0.23531
 H137 H -0.38770 1.12055 -0.28089
 H138 H -0.31891 1.11171 -0.19681
 H139 H -0.42579 1.08767 -0.37690
 H140 H -0.35004 0.93168 -0.46855
 H141 H -0.13492 0.92622 -0.24118
 H142 H -0.23416 1.06518 -0.14778
 H143 H -0.27243 0.92735 -0.39366
 H144 H -0.20386 0.92842 -0.32547
 C145 C 0.30247 1.01906 -0.34034
 C146 C 0.30201 0.97247 -0.38509
 C147 C 0.34591 0.97151 -0.43091
 C148 C 0.38872 1.01817 -0.43425
 C149 C 0.38422 1.06778 -0.39383
 C150 C 0.34216 1.06810 -0.34723
 C151 C 0.26051 1.01421 -0.28756
 C152 C 0.26533 1.05116 -0.23513
 C153 C 0.22563 1.04432 -0.18669
 C154 C 0.17931 1.00170 -0.18988
 C155 C 0.17470 0.96406 -0.24150
 C156 C 0.21624 0.96843 -0.28918
 C157 C 0.25821 0.92700 -0.38310
 C158 C 0.21504 0.92625 -0.33731
 H159 H 0.25686 0.89184 -0.41784
 H160 H 0.18158 0.89066 -0.33834
 H161 H 0.34831 0.93325 -0.46214
 H162 H 0.41565 1.10515 -0.39641
 H163 H 0.23017 1.07358 -0.14724
 H164 H 0.13956 0.93046 -0.24388
 H165 H 0.34183 1.10665 -0.31655
 H166 H 0.30009 1.08480 -0.23035
 C167 C 0.29653 1.34654 -0.01250
 C168 C 0.33936 1.34471 -0.05950
 C169 C 0.38242 1.39063 -0.06367
 C170 C 0.38716 1.43614 -0.01880
 C171 C 0.34476 1.43818 0.02786
 C172 C 0.29930 1.39453 0.03048
 C173 C 0.25268 1.29507 -0.00855
 C174 C 0.20432 1.29530 0.03209
 C175 C 0.16524 1.24582 0.03436
 C176 C 0.17446 1.19417 -0.00219
 C177 C 0.22196 1.19363 -0.04322
 C178 C 0.25988 1.24433 -0.04801
 C179 C 0.34164 1.29501 -0.09967
 C180 C 0.30378 1.24518 -0.09305
 H181 H 0.37484 1.29350 -0.13536
 H182 H 0.30857 1.20698 -0.12409
 H183 H 0.41557 1.38835 -0.09943
 H184 H 0.34841 1.47179 0.06388
 H185 H 0.12755 1.24790 0.06479
 H186 H 0.22785 1.15477 -0.07316
 H187 H 0.26877 1.39715 0.06823
 H188 H 0.19524 1.33377 0.06136
 C189 C 0.31069 0.67005 0.00664
 C190 C 0.30128 0.61801 -0.03044
 C191 C 0.34461 0.57164 -0.03326
 C192 C 0.39694 0.57614 0.00167
 C193 C 0.40213 0.62535 0.04285
 C194 C 0.36007 0.67140 0.04528
 C195 C 0.26744 0.72156 0.00368
 C196 C 0.27831 0.77868 0.03126
 C197 C 0.23662 0.82539 0.02764
 C198 C 0.18282 0.81614 -0.00280
 C199 C 0.17224 0.76000 -0.03207
 C200 C 0.21485 0.71330 -0.03034
 C201 C 0.24903 0.61327 -0.06478
 C202 C 0.20601 0.65917 -0.06342
 H203 H 0.24098 0.57322 -0.09262
 H204 H 0.16600 0.65295 -0.09008
 H205 H 0.33905 0.53468 -0.06555
 H206 H 0.43975 0.62875 0.07337
 H207 H 0.24590 0.86845 0.04998
 H208 H 0.13126 0.75313 -0.05705
 H209 H 0.36721 0.70779 0.07763
 H210 H 0.31904 0.78848 0.05518
 C211 C -0.29694 0.65461 -0.00813
 C212 C -0.34140 0.65828 -0.05326
 C213 C -0.38477 0.61275 -0.05780
 C214 C -0.38793 0.56555 -0.01513
 C215 C -0.34346 0.56099 0.02904
 C216 C -0.29788 0.60456 0.03207
 C217 C -0.25325 0.70620 -0.00309
 C218 C -0.20420 0.70510 0.03648
 C219 C -0.16526 0.75466 0.03977
 C220 C -0.17518 0.80719 0.00527
 C221 C -0.22354 0.80870 -0.03454
 C222 C -0.26153 0.75813 -0.04018
 C223 C -0.34494 0.70929 -0.09105
 C224 C -0.30671 0.75873 -0.08374
 H225 H -0.37931 0.71208 -0.12535
 H226 H -0.31239 0.79791 -0.11293
 H227 H -0.41943 0.61666 -0.09177
 H228 H -0.34571 0.52570 0.06318
 H229 H -0.12705 0.75182 0.06925
 H230 H -0.23008 0.84830 -0.06304
 H231 H -0.26578 0.60013 0.06811
 H232 H -0.19446 0.66597 0.06418
 C233 C -0.31098 1.33067 0.00083
 C234 C -0.30457 1.37862 -0.04155
 C235 C -0.34773 1.42498 -0.04451
 C236 C -0.39608 1.42487 -0.00417
 C237 C -0.39900 1.38017 0.04107
 C238 C -0.35728 1.33365 0.04360
 C239 C -0.26795 1.27882 -0.00129
 C240 C -0.27615 1.22490 0.03235
 C241 C -0.23466 1.17787 0.02926
 C242 C -0.18367 1.18375 -0.00667
 C243 C -0.17579 1.23652 -0.04170
 C244 C -0.21833 1.28331 -0.04046
 C245 C -0.25539 1.37951 -0.08066
 C246 C -0.21237 1.33371 -0.07897
 H247 H -0.24972 1.41652 -0.11257
 H248 H -0.17470 1.33695 -0.10950
 H249 H -0.34479 1.45972 -0.07922
 H250 H -0.43522 1.38013 0.07355
 H251 H -0.24168 1.13739 0.05635
 H252 H -0.13700 1.24063 -0.07068
 H253 H -0.36232 1.30029 0.07907
 H254 H -0.31460 1.21787 0.06077
 C255 C -0.00731 1.34920 0.29584
 C256 C -0.06046 1.35806 0.32910
 C257 C -0.06322 1.40341 0.37395
 C258 C -0.01320 1.43915 0.38717
 C259 C 0.03786 1.43341 0.35131
 C260 C 0.04070 1.38937 0.30568
 C261 C -0.00363 1.29583 0.25366
 C262 C 0.04879 1.28045 0.22206
 C263 C 0.05034 1.22948 0.18424
 C264 C 0.00005 1.19290 0.17746
 C265 C -0.05208 1.20672 0.20896
 C266 C -0.05431 1.25790 0.24715
 C267 C -0.10947 1.31984 0.31954
 C268 C -0.10657 1.27095 0.27908
 H269 H -0.15031 1.32707 0.34465
 H270 H -0.14539 1.24211 0.27375
 H271 H -0.10300 1.40842 0.40136
 H272 H 0.07703 1.46050 0.36104
 H273 H 0.09091 1.21843 0.16023
 H274 H -0.09103 1.17812 0.20289
 H275 H 0.08167 1.38609 0.28053
 H276 H 0.08908 1.30679 0.22593
 C277 C -0.02223 1.33395 -0.30819
 C278 C 0.02239 1.37931 -0.30475
 C279 C 0.02401 1.42626 -0.34769
 C280 C -0.01949 1.42974 -0.39343
 C281 C -0.06721 1.38810 -0.39188
 C282 C -0.06855 1.34087 -0.35011
 C283 C -0.01813 1.28033 -0.26711
 C284 C -0.05423 1.22808 -0.27404
 C285 C -0.04875 1.17913 -0.23429
 C286 C -0.00785 1.18191 -0.18669
 C287 C 0.02955 1.23266 -0.18052
 C288 C 0.02575 1.28113 -0.22125
 C289 C 0.06573 1.37673 -0.25927
 C290 C 0.06633 1.32947 -0.21724
 H291 H 0.09940 1.41197 -0.25586
 H292 H 0.10026 1.32973 -0.18234
 H293 H 0.06168 1.45703 -0.34782
 H294 H -0.10333 1.39127 -0.42419
 H295 H -0.07772 1.13994 -0.23950
 H296 H 0.06210 1.23397 -0.14420
 H297 H -0.10586 1.30994 -0.35178
 H298 H -0.08644 1.22395 -0.31009
 C299 C 0.02641 0.65254 -0.29613
 C300 C -0.01912 0.60809 -0.29527
 C301 C -0.02115 0.56303 -0.34079
 C302 C 0.02252 0.56150 -0.38665
 C303 C 0.07183 0.60077 -0.38141
 C304 C 0.07383 0.64564 -0.33689
 C305 C 0.02163 0.70599 -0.25458
 C306 C 0.05724 0.75841 -0.26148
 C307 C 0.05012 0.80815 -0.22276
 C308 C 0.00830 0.80623 -0.17598
 C309 C -0.02826 0.75488 -0.16925
 C310 C -0.02320 0.70555 -0.20958
 C311 C -0.06311 0.61041 -0.25021
 C312 C -0.06393 0.65720 -0.20693
 H313 H -0.09737 0.57569 -0.24844
 H314 H -0.09860 0.65702 -0.17271
 H315 H -0.05933 0.53297 -0.34318
 H316 H 0.10822 0.59821 -0.41361
 H317 H 0.07835 0.84761 -0.22837
 H318 H -0.06158 0.75416 -0.13360
 H319 H 0.11211 0.67533 -0.33598
 H320 H 0.08989 0.76235 -0.29718
 C321 C 0.02058 0.66772 0.30867
 C322 C -0.02748 0.62610 0.31060
 C323 C -0.02785 0.57936 0.35362
 C324 C 0.01989 0.57256 0.39376
 C325 C 0.07009 0.60993 0.38742
 C326 C 0.07053 0.65711 0.34542
 C327 C 0.01590 0.72160 0.26797
 C328 C 0.05657 0.77058 0.26992
 C329 C 0.05042 0.81973 0.23056
 C330 C 0.00410 0.82045 0.18841
 C331 C -0.03775 0.77336 0.18751
 C332 C -0.03298 0.72460 0.22778
 C333 C -0.07533 0.63226 0.27057
 C334 C -0.07724 0.67969 0.22883
 H335 H -0.11168 0.59980 0.27135
 H336 H -0.11483 0.68230 0.19823
 H337 H -0.06671 0.55045 0.35808
 H338 H 0.10803 0.60427 0.41706
 H339 H 0.08296 0.85619 0.23155
 H340 H -0.07430 0.77519 0.15572
 H341 H 0.10977 0.68532 0.34317
 H342 H 0.09308 0.77191 0.30159
   
