data_POSCAR
  _audit_creation_date              2014-09-24
  _audit_creation_method            'ToBaCCo'
  _symmetry_space_group_name_H-M    'P1'
  _symmetry_Int_Tables_number       1
  _symmetry_cell_setting            triclinic
  loop_
  _symmetry_equiv_pos_as_xyz
 x,y,z
_cell_length_a 39.8914
_cell_length_b 46.8902
_cell_length_c 47.4303
_cell_angle_alpha 89.637400
_cell_angle_beta 90.225800
_cell_angle_gamma 90.279000
loop_
  _atom_site_label
  _atom_site_type_symbol
  _atom_site_fract_x
  _atom_site_fract_y
  _atom_site_fract_z
C1 C 0.26163 0.27690 0.22447
 C2 C 0.24639 0.26117 0.24615
 C3 C 0.23057 0.27539 0.26825
 C4 C 0.22938 0.30531 0.26871
 C5 C 0.24538 0.32088 0.24713
 C6 C 0.26179 0.30688 0.22497
 C7 C 0.24696 0.22976 0.24578
 C8 C 0.26359 0.21469 0.26722
 C9 C 0.26393 0.18475 0.26726
 C10 C 0.24714 0.16999 0.24569
 C11 C 0.23025 0.18489 0.22417
 C12 C 0.23044 0.21483 0.22427
 H13 H 0.27351 0.26567 0.20732
 H14 H 0.21901 0.26302 0.28500
 H15 H 0.27616 0.22630 0.28392
 H16 H 0.21758 0.22656 0.20773
 H17 H 0.24500 0.34395 0.24757
 H18 H 0.24712 0.14688 0.24572
 C19 C 0.75560 0.78529 0.23205
 C20 C 0.74169 0.77096 0.25516
 C21 C 0.72851 0.78640 0.27762
 C22 C 0.72843 0.81649 0.27726
 C23 C 0.74286 0.83053 0.25372
 C24 C 0.75684 0.81533 0.23097
 C25 C 0.74080 0.73953 0.25576
 C26 C 0.75896 0.72447 0.27631
 C27 C 0.75854 0.69452 0.27679
 C28 C 0.73944 0.67977 0.25659
 C29 C 0.72097 0.69468 0.23603
 C30 C 0.72190 0.72460 0.23568
 H31 H 0.76461 0.77264 0.21467
 H32 H 0.71907 0.77455 0.29558
 H33 H 0.77345 0.73610 0.29187
 H34 H 0.70796 0.73631 0.21977
 H35 H 0.74326 0.85350 0.25308
 H36 H 0.73897 0.65666 0.25684
 C37 C 0.76929 0.28669 0.72132
 C38 C 0.75502 0.27204 0.74408
 C39 C 0.74020 0.28726 0.76604
 C40 C 0.73905 0.31738 0.76560
 C41 C 0.75429 0.33169 0.74258
 C42 C 0.76948 0.31659 0.72053
 C43 C 0.75598 0.24063 0.74521
 C44 C 0.77429 0.22680 0.76649
 C45 C 0.77494 0.19675 0.76842
 C46 C 0.75615 0.18103 0.74848
 C47 C 0.73804 0.19471 0.72684
 C48 C 0.73825 0.22459 0.72531
 H49 H 0.78050 0.27471 0.70435
 H50 H 0.73049 0.27520 0.78376
 H51 H 0.78711 0.23981 0.78197
 H52 H 0.72456 0.23546 0.70867
 H53 H 0.75380 0.35468 0.74112
 H54 H 0.75635 0.15797 0.74898
 C55 C 0.26578 0.78078 0.73297
 C56 C 0.25229 0.76499 0.75542
 C57 C 0.23774 0.77903 0.77820
 C58 C 0.23616 0.80888 0.77857
 C59 C 0.24999 0.82457 0.75605
 C60 C 0.26531 0.81092 0.73294
 C61 C 0.25305 0.73360 0.75481
 C62 C 0.27368 0.71853 0.77361
 C63 C 0.27539 0.68865 0.77247
 C64 C 0.25541 0.67402 0.75278
 C65 C 0.23409 0.68883 0.73418
 C66 C 0.23343 0.71876 0.73512
 H67 H 0.27574 0.76914 0.71528
 H68 H 0.22749 0.76663 0.79552
 H69 H 0.28914 0.73017 0.78849
 H70 H 0.21709 0.73060 0.72104
 H71 H 0.24940 0.84756 0.75722
 H72 H 0.25649 0.65097 0.75196
 C73 C 0.04081 0.03640 0.01267
 H74 H 0.04577 0.03629 -0.00974
 C75 C 0.05942 0.05421 0.03038
 H76 H 0.07876 0.06781 0.02153
 C77 C 0.00911 0.01921 0.05142
 H78 H -0.01082 0.00585 0.05952
 C79 C 0.02672 0.03700 0.06980
 H80 H 0.02062 0.03675 0.09203
 N81 N 0.01669 0.01893 0.02348
 C82 C 0.00661 -0.04620 -0.04143
 H83 H -0.02032 -0.04590 -0.04419
 C84 C 0.02610 -0.06443 -0.05764
 H85 H 0.01394 -0.07778 -0.07320
 C86 C 0.05497 -0.02870 -0.01798
 H87 H 0.06608 -0.01521 -0.00207
 C88 C 0.07544 -0.04667 -0.03370
 H89 H 0.10219 -0.04668 -0.02977
 Zn90 Zn -0.00773 -0.00485 -0.00147
 N91 N 0.02126 -0.02847 -0.02240
 C92 C -0.02602 0.02023 -0.05401
 N93 N -0.03268 0.01918 -0.02590
 C94 C -0.05685 0.03580 -0.01440
 C95 C -0.07679 0.05313 -0.03158
 C96 C -0.04492 0.03771 -0.07188
 C97 C -0.02151 -0.04762 0.03782
 C98 C -0.04084 -0.06586 0.05458
 C99 C -0.09060 -0.04731 0.03195
 C100 C -0.07029 -0.02946 0.01556
 N101 N -0.03644 -0.02946 0.01923
 H102 H -0.00603 0.00757 -0.06265
 H103 H -0.06105 0.03512 0.00811
 H104 H -0.09642 0.06580 -0.02223
 H105 H -0.03972 0.03801 -0.09428
 H106 H 0.00549 -0.04748 0.04001
 H107 H -0.02851 -0.07947 0.06990
 H108 H -0.11751 -0.04690 0.02891
 H109 H -0.08168 -0.01569 -0.00003
 C110 C 0.06105 -0.06475 -0.05398
 C111 C 0.05242 0.05459 0.05935
 C112 C -0.07591 -0.06558 0.05200
 C113 C -0.07099 0.05405 -0.06071
 C114 C 0.05413 0.54783 0.50926
 H115 H 0.05830 0.54874 0.48675
 C116 C 0.07257 0.56553 0.52720
 H117 H 0.09130 0.57968 0.51829
 C118 C 0.02499 0.52779 0.54809
 H119 H 0.00597 0.51349 0.55615
 C120 C 0.04265 0.54523 0.56675
 H121 H 0.03694 0.54404 0.58903
 N122 N 0.03143 0.52897 0.51998
 C123 C 0.02409 0.46489 0.45390
 H124 H -0.00286 0.46406 0.45132
 C125 C 0.04453 0.44827 0.43683
 H126 H 0.03303 0.43498 0.42087
 C127 C 0.07159 0.48391 0.47745
 H128 H 0.08203 0.49748 0.49359
 C129 C 0.09298 0.46756 0.46088
 H130 H 0.11976 0.46879 0.46450
 Zn131 Zn 0.00783 0.50513 0.49455
 N132 N 0.03784 0.48270 0.47332
 C133 C -0.01017 0.53063 0.44228
 N134 N -0.01737 0.52913 0.47027
 C135 C -0.04179 0.54553 0.48169
 C136 C -0.06115 0.56339 0.46455
 C137 C -0.02858 0.54849 0.42445
 C138 C -0.00534 0.46139 0.53307
 C139 C -0.02446 0.44270 0.54950
 C140 C -0.07436 0.46066 0.52665
 C141 C -0.05425 0.47910 0.51070
 N142 N -0.02045 0.47959 0.51462
 H143 H 0.01001 0.51816 0.43370
 H144 H -0.04643 0.54449 0.50413
 H145 H -0.08073 0.57610 0.47389
 H146 H -0.02283 0.54914 0.40216
 H147 H 0.02164 0.46193 0.53547
 H148 H -0.01194 0.42918 0.56480
 H149 H -0.10122 0.46064 0.52329
 H150 H -0.06576 0.49298 0.49525
 C151 C 0.07953 0.44964 0.44003
 C152 C 0.06715 0.56419 0.55644
 C153 C -0.05953 0.44238 0.54665
 C154 C -0.05464 0.56493 0.43553
 C155 C 0.52090 0.05529 0.52470
 H156 H 0.50600 0.06443 0.50793
 C157 C 0.53944 0.07331 0.54226
 H158 H 0.53850 0.09613 0.53874
 C159 C 0.54142 0.01465 0.54895
 H160 H 0.54262 -0.00819 0.55132
 C161 C 0.56040 0.03186 0.56692
 H162 H 0.57536 0.02195 0.58333
 N163 N 0.52191 0.02649 0.52844
 C164 C 0.51106 -0.04329 0.46914
 H165 H 0.48417 -0.04631 0.46974
 C166 C 0.53082 -0.06136 0.45301
 H167 H 0.51883 -0.07811 0.44096
 C168 C 0.55903 -0.01699 0.48346
 H169 H 0.56980 0.00050 0.49520
 C170 C 0.57977 -0.03461 0.46760
 H171 H 0.60655 -0.03073 0.46761
 Zn172 Zn 0.49635 0.00229 0.50428
 N173 N 0.52534 -0.02155 0.48381
 C174 C 0.47865 0.02355 0.45044
 N175 N 0.47122 0.02497 0.47838
 C176 C 0.44712 0.04295 0.48789
 C177 C 0.42879 0.05976 0.46896
 C178 C 0.46135 0.04030 0.43087
 C179 C 0.48263 -0.04270 0.54165
 C180 C 0.46348 -0.06114 0.55832
 C181 C 0.41359 -0.03737 0.54169
 C182 C 0.43374 -0.01938 0.52529
 N183 N 0.46773 -0.02187 0.52601
 H184 H 0.49829 0.00964 0.44324
 H185 H 0.44226 0.04437 0.51026
 H186 H 0.40967 0.07393 0.47682
 H187 H 0.46750 0.03879 0.40871
 H188 H 0.50947 -0.04535 0.54092
 H189 H 0.47604 -0.07710 0.57106
 H190 H 0.38662 -0.03502 0.54083
 H191 H 0.42201 -0.00363 0.51193
 C192 C 0.56568 -0.05708 0.45198
 C193 C 0.55950 0.06163 0.56375
 C194 C 0.42846 -0.05846 0.55869
 C195 C 0.43596 0.05856 0.44006
 C196 C 0.55650 0.53549 0.01557
 H197 H 0.55960 0.53715 -0.00703
 C198 C 0.57633 0.55218 0.03340
 H199 H 0.59480 0.56656 0.02443
 C200 C 0.52800 0.51540 0.05473
 H201 H 0.50896 0.50125 0.06302
 C202 C 0.54692 0.53201 0.07328
 H203 H 0.54261 0.53016 0.09575
 N204 N 0.53327 0.51715 0.02644
 C205 C 0.51940 0.45019 -0.03660
 H206 H 0.49264 0.44703 -0.03521
 C207 C 0.53815 0.43286 -0.05438
 H208 H 0.52532 0.41722 -0.06725
 C209 C 0.56859 0.47378 -0.02101
 H210 H 0.58067 0.48920 -0.00758
 C211 C 0.58831 0.45693 -0.03851
 H212 H 0.61525 0.45982 -0.03835
 Zn213 Zn 0.50683 0.49450 0.00156
 N214 N 0.53462 0.47076 -0.02092
 C215 C 0.46161 0.50760 -0.04297
 N216 N 0.48069 0.51899 -0.02199
 C217 C 0.48097 0.54762 -0.01733
 C218 C 0.46218 0.56595 -0.03444
 C219 C 0.44248 0.52514 -0.06057
 C220 C 0.49261 0.44940 0.03852
 C221 C 0.47289 0.43153 0.05535
 C222 C 0.42379 0.45695 0.03926
 C223 C 0.44450 0.47447 0.02288
 N224 N 0.47825 0.47051 0.02293
 H225 H 0.46082 0.48485 -0.04597
 H226 H 0.49558 0.55639 -0.00023
 H227 H 0.46319 0.58868 -0.03063
 H228 H 0.42726 0.51555 -0.07694
 H229 H 0.51954 0.44679 0.03819
 H230 H 0.48500 0.41541 0.06820
 H231 H 0.39697 0.46032 0.03874
 H232 H 0.43361 0.49141 0.01035
 C233 C 0.57306 0.43640 -0.05581
 C234 C 0.57162 0.55050 0.06265
 C235 C 0.43795 0.43522 0.05597
 C236 C 0.44273 0.55477 -0.05652
 C237 C 0.23339 -0.15108 -0.18657
 C238 C 0.21645 -0.13595 -0.16576
 C239 C 0.18543 -0.14558 -0.15580
 C240 C 0.17175 -0.17104 -0.16644
 C241 C 0.18865 -0.18618 -0.18729
 C242 C 0.21944 -0.17616 -0.19786
 N243 N 0.16776 -0.12855 -0.13583
 N244 N 0.13950 -0.13608 -0.12581
 C245 C 0.12123 -0.11847 -0.10673
 C246 C 0.09066 -0.12841 -0.09610
 C247 C 0.07135 -0.11120 -0.07859
 C248 C 0.08230 -0.08359 -0.07148
 C249 C 0.11333 -0.07384 -0.08185
 C250 C 0.13264 -0.09111 -0.09931
 H251 H 0.25732 -0.14307 -0.19395
 H252 H 0.22729 -0.11641 -0.15766
 H253 H 0.14774 -0.17889 -0.15912
 H254 H 0.17712 -0.20526 -0.19577
 H255 H 0.08162 -0.14947 -0.10163
 H256 H 0.04785 -0.11953 -0.07060
 H257 H 0.12228 -0.05257 -0.07709
 H258 H 0.15614 -0.08288 -0.10738
 C259 C 0.17984 0.30940 0.30087
 C260 C 0.16179 0.32370 0.32156
 C261 C 0.17410 0.34909 0.33303
 C262 C 0.20511 0.35993 0.32382
 C263 C 0.22331 0.34557 0.30317
 C264 C 0.21077 0.32021 0.29133
 N265 N 0.15428 0.36362 0.35349
 N266 N 0.16286 0.38762 0.36370
 C267 C 0.14245 0.40219 0.38374
 C268 C 0.15200 0.42947 0.39254
 C269 C 0.13186 0.44475 0.41112
 C270 C 0.10175 0.43290 0.42133
 C271 C 0.09260 0.40522 0.41287
 C272 C 0.11270 0.39002 0.39422
 H273 H 0.16922 0.29018 0.29190
 H274 H 0.13786 0.31520 0.32842
 H275 H 0.21522 0.37949 0.33247
 H276 H 0.24725 0.35424 0.29660
 H277 H 0.17483 0.43910 0.38457
 H278 H 0.13943 0.46614 0.41691
 H279 H 0.06990 0.39527 0.42071
 H280 H 0.10487 0.36887 0.38787
 C281 C 0.72448 -0.13968 0.30592
 C282 C 0.70895 -0.12389 0.32702
 C283 C 0.68263 -0.13559 0.34261
 C284 C 0.67227 -0.16368 0.33728
 C285 C 0.68767 -0.17958 0.31619
 C286 C 0.71387 -0.16781 0.29969
 N287 N 0.66609 -0.11820 0.36295
 N288 N 0.64221 -0.12766 0.37813
 C289 C 0.62480 -0.10994 0.39766
 C290 C 0.59902 -0.12190 0.41384
 C291 C 0.58025 -0.10489 0.43193
 C292 C 0.58692 -0.07549 0.43408
 C293 C 0.61330 -0.06365 0.41819
 C294 C 0.63209 -0.08071 0.40014
 H295 H 0.74546 -0.12981 0.29525
 H296 H 0.71741 -0.10233 0.33116
 H297 H 0.65174 -0.17315 0.34896
 H298 H 0.67750 -0.20055 0.31204
 H299 H 0.59321 -0.14441 0.41215
 H300 H 0.56044 -0.11474 0.44419
 H301 H 0.61880 -0.04104 0.41908
 H302 H 0.65183 -0.07094 0.38775
 C303 C 0.73187 0.36123 -0.20623
 C304 C 0.71523 0.37642 -0.18528
 C305 C 0.68921 0.36379 -0.17000
 C306 C 0.68012 0.33547 -0.17567
 C307 C 0.69667 0.32016 -0.19658
 C308 C 0.72284 0.33274 -0.21254
 N309 N 0.67204 0.38032 -0.14931
 N310 N 0.64812 0.37009 -0.13465
 C311 C 0.63049 0.38680 -0.11439
 C312 C 0.60437 0.37414 -0.09912
 C313 C 0.58593 0.39009 -0.07984
 C314 C 0.59336 0.41909 -0.07551
 C315 C 0.61991 0.43166 -0.09066
 C316 C 0.63831 0.41568 -0.10993
 H317 H 0.75256 0.37183 -0.21664
 H318 H 0.72269 0.39819 -0.18092
 H319 H 0.65984 0.32527 -0.16428
 H320 H 0.68753 0.29888 -0.20091
 H321 H 0.59815 0.35189 -0.10232
 H322 H 0.56596 0.37968 -0.06824
 H323 H 0.62597 0.45403 -0.08810
 H324 H 0.65833 0.42600 -0.12155
 C325 C -0.17597 0.19522 -0.19980
 C326 C -0.15625 0.18091 -0.17988
 C327 C -0.16602 0.15423 -0.16950
 C328 C -0.19584 0.14178 -0.17938
 C329 C -0.21529 0.15572 -0.19975
 C330 C -0.20575 0.18276 -0.21045
 N331 N -0.14484 0.13984 -0.14961
 N332 N -0.15513 0.11857 -0.13520
 C333 C -0.13361 0.10341 -0.11615
 C334 C -0.14789 0.08471 -0.09642
 C335 C -0.12753 0.06909 -0.07797
 C336 C -0.09247 0.07151 -0.07945
 C337 C -0.07813 0.09018 -0.09934
 C338 C -0.09855 0.10623 -0.11741
 H339 H -0.16671 0.21542 -0.20780
 H340 H -0.13312 0.19061 -0.17260
 H341 H -0.20393 0.12112 -0.17161
 H342 H -0.23842 0.14552 -0.20625
 H343 H -0.17486 0.08225 -0.09536
 H344 H -0.13911 0.05463 -0.06297
 H345 H -0.05116 0.09243 -0.10078
 H346 H -0.08695 0.12041 -0.13265
 C347 C -0.23606 0.65570 0.31304
 C348 C -0.21715 0.64042 0.33283
 C349 C -0.18353 0.64753 0.33774
 C350 C -0.16907 0.67054 0.32296
 C351 C -0.18807 0.68605 0.30342
 C352 C -0.22167 0.67863 0.29812
 N353 N -0.16457 0.63088 0.35751
 N354 N -0.13296 0.63365 0.36008
 C355 C -0.11392 0.61695 0.37974
 C356 C -0.07890 0.61770 0.37827
 C357 C -0.05957 0.60091 0.39648
 C358 C -0.07505 0.58337 0.41678
 C359 C -0.11020 0.58309 0.41864
 C360 C -0.12952 0.59961 0.40016
 H361 H -0.26199 0.64973 0.30952
 H362 H -0.22858 0.62279 0.34415
 H363 H -0.14313 0.67649 0.32645
 H364 H -0.17634 0.70351 0.29204
 H365 H -0.06660 0.63105 0.36268
 H366 H -0.03252 0.60170 0.39480
 H367 H -0.12272 0.56960 0.43398
 H368 H -0.15657 0.59876 0.40176
 C369 C 0.26620 0.14600 0.30383
 C370 C 0.28321 0.13102 0.32502
 C371 C 0.31618 0.13837 0.33220
 C372 C 0.33189 0.16131 0.31823
 C373 C 0.31473 0.17657 0.29733
 C374 C 0.28182 0.16893 0.28980
 N375 N 0.33322 0.12215 0.35351
 N376 N 0.36460 0.12471 0.35778
 C377 C 0.38183 0.10861 0.37906
 C378 C 0.41689 0.10831 0.37896
 C379 C 0.43451 0.09211 0.39885
 C380 C 0.41726 0.07631 0.41950
 C381 C 0.38206 0.07712 0.42000
 C382 C 0.36443 0.09298 0.39979
 H383 H 0.24073 0.13988 0.29856
 H384 H 0.27082 0.11343 0.33568
 H385 H 0.35733 0.16747 0.32349
 H386 H 0.32736 0.19406 0.28669
 H387 H 0.43056 0.12035 0.36316
 H388 H 0.46165 0.09201 0.39820
 H389 H 0.36823 0.06499 0.43564
 H390 H 0.33730 0.09301 0.40036
 C391 C 0.31712 0.64974 -0.21896
 C392 C 0.33784 0.63393 -0.20102
 C393 C 0.34009 0.64055 -0.17238
 C394 C 0.32165 0.66359 -0.16181
 C395 C 0.30093 0.67951 -0.17978
 C396 C 0.29822 0.67257 -0.20851
 N397 N 0.36077 0.62319 -0.15456
 N398 N 0.36368 0.62733 -0.12817
 C399 C 0.38411 0.60934 -0.11071
 C400 C 0.38612 0.61472 -0.08177
 C401 C 0.40529 0.59714 -0.06412
 C402 C 0.42278 0.57379 -0.07521
 C403 C 0.42089 0.56860 -0.10434
 C404 C 0.40176 0.58618 -0.12193
 H405 H 0.31598 0.64418 -0.24107
 H406 H 0.35203 0.61630 -0.20941
 H407 H 0.32299 0.66910 -0.13970
 H408 H 0.28647 0.69685 -0.17111
 H409 H 0.37256 0.63244 -0.07284
 H410 H 0.40593 0.60151 -0.04174
 H411 H 0.43446 0.55106 -0.11358
 H412 H 0.40071 0.58161 -0.14426
 C413 C -0.23786 -0.14231 0.19988
 C414 C -0.22173 -0.12767 0.17803
 C415 C -0.19529 -0.14022 0.16354
 C416 C -0.18555 -0.16805 0.17067
 C417 C -0.20170 -0.18286 0.19242
 C418 C -0.22793 -0.17016 0.20785
 N419 N -0.17813 -0.12391 0.14239
 N420 N -0.15284 -0.13352 0.12929
 C421 C -0.13510 -0.11677 0.10882
 C422 C -0.10642 -0.12809 0.09634
 C423 C -0.08744 -0.11170 0.07749
 C424 C -0.09700 -0.08364 0.07073
 C425 C -0.12626 -0.07254 0.08282
 C426 C -0.14513 -0.08892 0.10174
 H427 H -0.25881 -0.13185 0.20976
 H428 H -0.22972 -0.10631 0.17249
 H429 H -0.16500 -0.17818 0.15983
 H430 H -0.19211 -0.20370 0.19793
 H431 H -0.09847 -0.14953 0.10159
 H432 H -0.06526 -0.12094 0.06824
 H433 H -0.13404 -0.05090 0.07829
 H434 H -0.16720 -0.07966 0.11115
 C435 C -0.22835 0.35676 0.68514
 C436 C -0.21184 0.37199 0.66385
 C437 C -0.18076 0.36285 0.65388
 C438 C -0.16644 0.33796 0.66524
 C439 C -0.18285 0.32277 0.68659
 C440 C -0.21388 0.33211 0.69696
 N441 N -0.16379 0.37969 0.63300
 N442 N -0.13599 0.37208 0.62240
 C443 C -0.11833 0.38937 0.60231
 C444 C -0.08839 0.37920 0.59098
 C445 C -0.06961 0.39612 0.57245
 C446 C -0.08044 0.42368 0.56499
 C447 C -0.11088 0.43363 0.57604
 C448 C -0.12968 0.41664 0.59451
 H449 H -0.25246 0.36427 0.69233
 H450 H -0.22317 0.39111 0.65524
 H451 H -0.14234 0.33053 0.65798
 H452 H -0.17083 0.30409 0.69549
 H453 H -0.07942 0.35820 0.59679
 H454 H -0.04657 0.38764 0.56400
 H455 H -0.11971 0.45487 0.57106
 H456 H -0.15269 0.42504 0.60309
 C457 C 0.26946 -0.14492 0.70425
 C458 C 0.28516 -0.12870 0.68328
 C459 C 0.31183 -0.13987 0.66801
 C460 C 0.32234 -0.16785 0.67355
 C461 C 0.30672 -0.18420 0.69450
 C462 C 0.28015 -0.17297 0.71065
 N463 N 0.32846 -0.12206 0.64773
 N464 N 0.35303 -0.13084 0.63319
 C465 C 0.37037 -0.11272 0.61362
 C466 C 0.39724 -0.12384 0.59844
 C467 C 0.41578 -0.10639 0.58023
 C468 C 0.40773 -0.07738 0.57691
 C469 C 0.38030 -0.06639 0.59182
 C470 C 0.36178 -0.08388 0.61002
 H471 H 0.24827 -0.13544 0.71472
 H472 H 0.27659 -0.10722 0.67898
 H473 H 0.34313 -0.17692 0.66212
 H474 H 0.31697 -0.20508 0.69880
 H475 H 0.40405 -0.14604 0.60098
 H476 H 0.43643 -0.11560 0.56873
 H477 H 0.37371 -0.04408 0.58998
 H478 H 0.34116 -0.07475 0.62160
 C479 C 0.26629 0.34928 0.19233
 C480 C 0.28374 0.36536 0.17219
 C481 C 0.31453 0.35592 0.16188
 C482 C 0.32772 0.33001 0.17185
 C483 C 0.31045 0.31402 0.19214
 C484 C 0.27957 0.32351 0.20272
 N485 N 0.33230 0.37334 0.14195
 N486 N 0.35900 0.36491 0.13005
 C487 C 0.37748 0.38259 0.11083
 C488 C 0.40486 0.37099 0.09667
 C489 C 0.42417 0.38789 0.07851
 C490 C 0.41658 0.41690 0.07438
 C491 C 0.38883 0.42842 0.08851
 C492 C 0.36940 0.41142 0.10650
 H493 H 0.24234 0.35700 0.19966
 H494 H 0.27329 0.38527 0.16464
 H495 H 0.35162 0.32235 0.16435
 H496 H 0.32169 0.29455 0.20000
 H497 H 0.41130 0.34878 0.09980
 H498 H 0.44498 0.37818 0.06764
 H499 H 0.38257 0.45075 0.08620
 H500 H 0.34848 0.42093 0.11737
 C501 C 0.22701 0.14622 0.18801
 C502 C 0.20931 0.13096 0.16751
 C503 C 0.17612 0.13801 0.16095
 C504 C 0.16095 0.16103 0.17472
 C505 C 0.17879 0.17656 0.19493
 C506 C 0.21187 0.16913 0.20195
 N507 N 0.15828 0.12129 0.14060
 N508 N 0.12677 0.12362 0.13700
 C509 C 0.10876 0.10686 0.11679
 C510 C 0.07370 0.10671 0.11750
 C511 C 0.05534 0.08981 0.09876
 C512 C 0.07184 0.07311 0.07866
 C513 C 0.10703 0.07377 0.07755
 C514 C 0.12539 0.09036 0.09659
 H515 H 0.25258 0.14024 0.19290
 H516 H 0.22129 0.11331 0.15699
 H517 H 0.13535 0.16696 0.16993
 H518 H 0.16651 0.19401 0.20553
 H519 H 0.06061 0.11940 0.13291
 H520 H 0.02822 0.08985 0.09986
 H521 H 0.12032 0.06096 0.06235
 H522 H 0.15250 0.09024 0.09557
 C523 C 0.19669 0.64734 0.72250
 C524 C 0.17690 0.63194 0.70356
 C525 C 0.17217 0.64182 0.67598
 C526 C 0.18743 0.66752 0.66744
 C527 C 0.20743 0.68291 0.68635
 C528 C 0.21241 0.67291 0.71408
 N529 N 0.15222 0.62507 0.65710
 N530 N 0.14491 0.63328 0.63221
 C531 C 0.12535 0.61582 0.61361
 C532 C 0.11544 0.62682 0.58741
 C533 C 0.09641 0.61020 0.56883
 C534 C 0.08714 0.58212 0.57614
 C535 C 0.09734 0.57113 0.60246
 C536 C 0.11614 0.58781 0.62104
 H537 H 0.19947 0.63931 0.74383
 H538 H 0.16516 0.61222 0.71040
 H539 H 0.18423 0.67551 0.64614
 H540 H 0.21948 0.70234 0.67911
 H541 H 0.12234 0.64839 0.58144
 H542 H 0.08863 0.61947 0.54891
 H543 H 0.09123 0.54944 0.60856
 H544 H 0.12372 0.57871 0.64109
 C545 C 0.73300 0.15298 0.69415
 C546 C 0.71484 0.13669 0.67475
 C547 C 0.68251 0.14477 0.66660
 C548 C 0.66847 0.16960 0.67795
 C549 C 0.68661 0.18593 0.69736
 C550 C 0.71901 0.17771 0.70579
 N551 N 0.66441 0.12721 0.64712
 N552 N 0.63488 0.13318 0.63879
 C553 C 0.61678 0.11529 0.61959
 C554 C 0.58439 0.12310 0.61130
 C555 C 0.56583 0.10582 0.59301
 C556 C 0.57941 0.08031 0.58273
 C557 C 0.61208 0.07263 0.59095
 C558 C 0.63061 0.08994 0.60920
 H559 H 0.75808 0.14634 0.69989
 H560 H 0.72596 0.11765 0.66608
 H561 H 0.64346 0.17626 0.67201
 H562 H 0.67506 0.20471 0.70618
 H563 H 0.57342 0.14254 0.61922
 H564 H 0.54061 0.11216 0.58734
 H565 H 0.62342 0.05333 0.58308
 H566 H 0.65566 0.08347 0.61523
 C567 C 0.66713 0.68669 0.20993
 C568 C 0.64770 0.67157 0.19047
 C569 C 0.66152 0.64891 0.17546
 C570 C 0.69511 0.64130 0.18030
 C571 C 0.71442 0.65613 0.20008
 C572 C 0.70062 0.67900 0.21502
 N573 N 0.64083 0.63370 0.15587
 N574 N 0.65289 0.61599 0.13845
 C575 C 0.63203 0.60023 0.11941
 C576 C 0.64701 0.58493 0.09762
 C577 C 0.62735 0.56907 0.07888
 C578 C 0.59236 0.56791 0.08201
 C579 C 0.57736 0.58318 0.10397
 C580 C 0.59700 0.59937 0.12242
 H581 H 0.65587 0.70410 0.22137
 H582 H 0.62181 0.67755 0.18700
 H583 H 0.70629 0.62376 0.16904
 H584 H 0.74024 0.64993 0.20355
 H585 H 0.67398 0.58534 0.09516
 H586 H 0.63951 0.55728 0.06227
 H587 H 0.55042 0.58275 0.10669
 H588 H 0.58486 0.61093 0.13919
   
