data_POSCAR
  _audit_creation_date              2014-09-24
  _audit_creation_method            'ToBaCCo'
  _symmetry_space_group_name_H-M    'P1'
  _symmetry_Int_Tables_number       1
  _symmetry_cell_setting            triclinic
  loop_
  _symmetry_equiv_pos_as_xyz
 x,y,z
_cell_length_a 18.5414
_cell_length_b 18.6628
_cell_length_c 15.9397
_cell_angle_alpha 89.895200
_cell_angle_beta 91.175900
_cell_angle_gamma 91.129800
loop_
  _atom_site_label
  _atom_site_type_symbol
  _atom_site_fract_x
  _atom_site_fract_y
  _atom_site_fract_z
C1 C -0.08920 0.51322 0.27459
 C2 C -0.02367 0.52884 0.23806
 C3 C 0.00014 0.59879 0.22533
 C4 C -0.03658 0.65631 0.25592
 C5 C -0.10655 0.64115 0.29049
 C6 C -0.13324 0.56755 0.29880
 C7 C 0.02755 0.47294 0.23000
 C8 C 0.00603 0.40470 0.20558
 C9 C 0.05378 0.34898 0.21280
 C10 C 0.12445 0.36261 0.24750
 C11 C 0.14465 0.43333 0.27281
 C12 C 0.09647 0.48696 0.26099
 H13 H -0.10551 0.45796 0.28621
 H14 H 0.04970 0.60818 0.19145
 H15 H -0.04820 0.39505 0.18073
 H16 H 0.11093 0.54023 0.28211
 H17 H -0.13923 0.68574 0.30811
 H18 H 0.16224 0.31970 0.25620
 C19 C -0.07978 0.49468 0.71200
 C20 C -0.01334 0.46746 0.73652
 C21 C -0.00521 0.39611 0.75689
 C22 C -0.06460 0.35238 0.76597
 C23 C -0.13481 0.38170 0.75003
 C24 C -0.14201 0.45495 0.72275
 C25 C 0.04329 0.51659 0.76128
 C26 C 0.02483 0.57967 0.79944
 C27 C 0.07576 0.63231 0.81517
 C28 C 0.15028 0.61588 0.80416
 C29 C 0.16912 0.54554 0.77713
 C30 C 0.11437 0.49859 0.75268
 H31 H -0.08343 0.54990 0.69106
 H32 H 0.04723 0.37605 0.77541
 H33 H -0.03106 0.58863 0.81305
 H34 H 0.12712 0.44928 0.72087
 H35 H -0.18194 0.34806 0.75869
 H36 H 0.19185 0.65673 0.81394
 C37 C 0.32854 -0.10951 0.51688
 C38 C 0.31291 -0.03918 0.52973
 C39 C 0.24790 -0.02015 0.56442
 C40 C 0.19560 -0.07058 0.58432
 C41 C 0.20782 -0.14425 0.55874
 C42 C 0.27465 -0.16304 0.51859
 C43 C 0.34328 0.01154 0.47148
 C44 C 0.30764 0.00472 0.39398
 C45 C 0.25716 0.05567 0.37244
 C46 C 0.26617 0.12544 0.41000
 C47 C 0.32047 0.13760 0.47416
 C48 C 0.35844 0.07894 0.50417
 H49 H 0.38231 -0.11850 0.49539
 H50 H 0.23614 0.03611 0.57042
 H51 H 0.30189 -0.04814 0.36583
 H52 H 0.38959 0.08306 0.56228
 H53 H 0.16817 -0.18571 0.57251
 H54 H 0.23332 0.16955 0.38928
 C55 C 0.63630 -0.08685 0.44123
 C56 C 0.65883 -0.01735 0.43817
 C57 C 0.72164 0.00151 0.39615
 C58 C 0.77160 -0.05011 0.37821
 C59 C 0.75661 -0.12240 0.40475
 C60 C 0.68823 -0.13950 0.43965
 C61 C 0.65047 0.02037 0.51535
 C62 C 0.69191 -0.00501 0.58338
 C63 C 0.73963 0.04078 0.62564
 C64 C 0.73598 0.11643 0.60478
 C65 C 0.68371 0.14152 0.54358
 C66 C 0.63916 0.09161 0.50401
 H67 H 0.58344 -0.09756 0.46705
 H68 H 0.73599 0.05761 0.38723
 H69 H 0.69755 -0.06228 0.59213
 H70 H 0.60659 0.10607 0.44988
 H71 H 0.79521 -0.16430 0.39595
 H72 H 0.77192 0.15498 0.63542
 C73 C 0.48529 0.23696 1.07145
 C74 C 0.46663 0.18287 1.01409
 C75 C 0.39612 0.16978 0.98991
 C76 C 0.34153 0.21382 1.01594
 C77 C 0.36024 0.27115 1.07371
 C78 C 0.43465 0.28306 1.10146
 C79 C 0.52015 0.16747 0.95354
 C80 C 0.58596 0.14719 0.98591
 C81 C 0.64734 0.18930 0.97081
 C82 C 0.64064 0.25218 0.92007
 C83 C 0.57236 0.26746 0.88214
 C84 C 0.51715 0.21687 0.88876
 H85 H 0.54172 0.24756 1.08699
 H86 H 0.38501 0.12782 0.94399
 H87 H 0.58713 0.10343 1.03071
 H88 H 0.46502 0.22836 0.85990
 H89 H 0.31794 0.30418 1.09733
 H90 H 0.68723 0.28624 0.90802
 C91 C 0.52447 0.79592 1.12404
 C92 C 0.54596 0.84867 1.06827
 C93 C 0.61735 0.85200 1.04956
 C94 C 0.65473 0.78780 1.03879
 C95 C 0.62381 0.72407 1.07756
 C96 C 0.55610 0.72867 1.12161
 C97 C 0.49766 0.84955 0.99509
 C98 C 0.42670 0.86479 1.01143
 C99 C 0.37133 0.82583 0.97268
 C100 C 0.38876 0.77267 0.91217
 C101 C 0.46199 0.76198 0.88841
 C102 C 0.51449 0.80508 0.92669
 H103 H 0.47335 0.80297 1.15351
 H104 H 0.63593 0.90267 1.02495
 H105 H 0.41491 0.90149 1.06196
 H106 H 0.56982 0.79645 0.90983
 H107 H 0.65247 0.67414 1.07676
 H108 H 0.34552 0.74151 0.88351
 B109 B 0.99302 1.07169 0.03806
 B110 B 0.98332 1.06609 -0.07364
 B111 B 1.06915 1.05002 -0.02569
 B112 B 1.05341 1.00429 0.07501
 B113 B 0.95733 0.99077 0.08127
 B114 B 0.91547 1.02805 -0.00777
 B115 B 1.00362 0.91367 -0.06140
 B116 B 1.01238 0.91916 0.05122
 B117 B 0.92893 0.93211 -0.00514
 B118 B 0.94364 0.98051 -0.09779
 B119 B 1.03621 0.99392 -0.10716
 B120 B 1.08115 0.95575 -0.01483
 B121 B 0.57460 0.51041 0.44803
 B122 B 0.57948 0.52008 0.55988
 B123 B 0.53842 0.58780 0.49915
 B124 B 0.48927 0.54556 0.41407
 B125 B 0.49824 0.45212 0.42265
 B126 B 0.55497 0.43460 0.51201
 B127 B 0.42703 0.50209 0.57201
 B128 B 0.41917 0.49328 0.46064
 B129 B 0.45878 0.42511 0.52230
 B130 B 0.50988 0.46744 0.60422
 B131 B 0.50004 0.56157 0.59382
 B132 B 0.44239 0.57537 0.50204
 C133 C 1.02153 1.16339 0.18463
 C134 C 1.07705 1.22013 0.15481
 C135 C 1.02728 1.27894 0.17635
 C136 C 0.97107 1.22500 0.20745
 C137 C 0.99147 1.27537 0.08926
 C138 C 1.04130 1.21551 0.06591
 C139 C 0.98810 1.15531 0.09432
 C140 C 0.93620 1.21883 0.11929
 H141 H 1.02006 1.12619 0.23585
 H142 H 1.13540 1.22267 0.17078
 H143 H 0.94178 1.22956 0.26722
 H144 H 0.97912 1.32194 0.04829
 H145 H 1.06313 1.21854 0.00368
 H146 H 0.88038 1.23646 0.11088
 C147 C 1.04390 0.76220 0.11287
 C148 C 1.06826 0.75214 0.20440
 C149 C 0.99150 0.72551 0.22745
 C150 C 0.96888 0.73545 0.13703
 C151 C 0.97162 0.80163 0.24654
 C152 C 1.04732 0.83083 0.22065
 C153 C 1.02135 0.84305 0.12572
 C154 C 0.94718 0.81303 0.15484
 H155 H 1.07175 0.72732 0.06972
 H156 H 1.12024 0.72873 0.22524
 H157 H 0.94592 0.68851 0.10197
 H158 H 0.94574 0.81374 0.30684
 H159 H 1.08037 0.86118 0.26530
 H160 H 0.89781 0.84133 0.14494
 C161 C 1.02843 1.19510 -0.17982
 C162 C 0.97706 1.21899 -0.25195
 C163 C 0.95037 1.28225 -0.20153
 C164 C 1.00409 1.26245 -0.13040
 C165 C 0.89269 1.23674 -0.16352
 C166 C 0.91725 1.17322 -0.21480
 C167 C 0.96915 1.14682 -0.13870
 C168 C 0.94464 1.21505 -0.09161
 H169 H 1.07899 1.17392 -0.20410
 H170 H 0.99037 1.22018 -0.31958
 H171 H 1.03959 1.30147 -0.09602
 H172 H 0.83542 1.25110 -0.15578
 H173 H 0.88186 1.15961 -0.26879
 H174 H 0.92250 1.21831 -0.03040
 C175 C 0.97330 0.78804 -0.18777
 C176 C 1.04969 0.76709 -0.21585
 C177 C 1.04803 0.70033 -0.16144
 C178 C 0.97036 0.71886 -0.13595
 C179 C 1.07814 0.74020 -0.08627
 C180 C 1.08097 0.80811 -0.13978
 C181 C 1.00630 0.83112 -0.11113
 C182 C 1.00119 0.76089 -0.06083
 H183 H 0.92712 0.79460 -0.22996
 H184 H 1.07025 0.76976 -0.28071
 H185 H 0.92134 0.68407 -0.13131
 H186 H 1.12316 0.71722 -0.04912
 H187 H 1.12284 0.84414 -0.14980
 H188 H 0.96545 0.75441 -0.00983
 C189 C 1.08962 1.02483 0.26656
 C190 C 1.14619 0.97253 0.30179
 C191 C 1.20211 1.03467 0.31084
 C192 C 1.14642 1.08582 0.27902
 C193 C 1.22647 1.01871 0.22255
 C194 C 1.16807 0.95894 0.20924
 C195 C 1.11224 1.01426 0.17210
 C196 C 1.17366 1.07412 0.19097
 H197 H 1.03912 1.03044 0.29941
 H198 H 1.13695 0.93297 0.35274
 H199 H 1.13479 1.13902 0.30609
 H200 H 1.28395 1.01630 0.20457
 H201 H 1.17677 0.90392 0.18757
 H202 H 1.20401 1.12408 0.17708
 C203 C 1.07083 1.04012 -0.29352
 C204 C 1.15198 1.02705 -0.30057
 C205 C 1.13871 0.95808 -0.35425
 C206 C 1.05710 0.97281 -0.35047
 C207 C 1.13432 0.91445 -0.27518
 C208 C 1.14859 0.98227 -0.22117
 C209 C 1.06770 0.99333 -0.21093
 C210 C 1.05257 0.92745 -0.26974
 H211 H 1.04926 1.09352 -0.30872
 H212 H 1.19235 1.07124 -0.30786
 H213 H 1.01881 0.96901 -0.40466
 H214 H 1.16226 0.86246 -0.27179
 H215 H 1.18989 0.99996 -0.17808
 H216 H 1.00584 0.89131 -0.27035
 C217 C 0.88610 1.05351 0.23871
 C218 C 0.80957 1.02028 0.24254
 C219 C 0.83002 0.97269 0.31765
 C220 C 0.90545 1.00822 0.31722
 C221 C 0.85436 0.91528 0.25968
 C222 C 0.83064 0.96014 0.18424
 C223 C 0.90948 0.99307 0.17693
 C224 C 0.93080 0.94971 0.25692
 H225 H 0.89514 1.11166 0.23984
 H226 H 0.75936 1.05132 0.23598
 H227 H 0.93509 1.02785 0.37415
 H228 H 0.83868 0.85788 0.26514
 H229 H 0.77727 0.94297 0.15977
 H230 H 0.98292 0.92998 0.27718
 C231 C 0.86178 0.92159 -0.26830
 C232 C 0.78141 0.94170 -0.25720
 C233 C 0.79065 1.00807 -0.31465
 C234 C 0.86891 0.98616 -0.32873
 C235 C 0.81366 1.05191 -0.24002
 C236 C 0.80565 0.98745 -0.18122
 C237 C 0.88671 0.96938 -0.18947
 C238 C 0.89342 1.03110 -0.25330
 H239 H 0.87486 0.86990 -0.29603
 H240 H 0.73499 0.90321 -0.25719
 H241 H 0.89550 0.98598 -0.39039
 H242 H 0.78606 1.10342 -0.23162
 H243 H 0.77530 0.98259 -0.12491
 H244 H 0.94368 1.05915 -0.26492
 C245 C 1.17297 1.14124 0.03541
 C246 C 1.24945 1.11573 0.02409
 C247 C 1.27016 1.18915 -0.01143
 C248 C 1.19441 1.21521 0.00134
 C249 C 1.24723 1.16183 -0.09962
 C250 C 1.22634 1.08771 -0.06226
 C251 C 1.14633 1.11009 -0.04782
 C252 C 1.16919 1.18710 -0.08555
 H253 H 1.13259 1.13135 0.07841
 H254 H 1.28505 1.09176 0.07274
 H255 H 1.18112 1.26770 0.02919
 H256 H 1.27719 1.17045 -0.15852
 H257 H 1.25498 1.04476 -0.09080
 H258 H 1.15045 1.23008 -0.12755
 C259 C 0.81108 1.12408 -0.06394
 C260 C 0.73253 1.09983 -0.06941
 C261 C 0.71370 1.15697 -0.00663
 C262 C 0.79172 1.18279 -0.00136
 C263 C 0.72727 1.10331 0.06485
 C264 C 0.74607 1.04634 0.00057
 C265 C 0.82928 1.06924 0.00446
 C266 C 0.80770 1.12747 0.06968
 H267 H 0.84028 1.12355 -0.11818
 H268 H 0.70097 1.08796 -0.12796
 H269 H 0.80683 1.24052 -0.00410
 H270 H 0.69257 1.09466 0.11999
 H271 H 0.71017 0.99861 -0.00214
 H272 H 0.82716 1.13732 0.13359
 C273 C 1.18658 0.83869 0.01943
 C274 C 1.23304 0.82287 -0.05769
 C275 C 1.29989 0.85002 -0.01230
 C276 C 1.25588 0.86514 0.06629
 C277 C 1.28634 0.92618 -0.04173
 C278 C 1.22052 0.89914 -0.09061
 C279 C 1.16907 0.91534 -0.01462
 C280 C 1.23876 0.94122 0.03426
 H281 H 1.15593 0.79876 0.05222
 H282 H 1.22874 0.77393 -0.09697
 H283 H 1.27273 0.84966 0.13093
 H284 H 1.33013 0.96137 -0.06635
 H285 H 1.22878 0.89752 -0.15846
 H286 H 1.24476 0.98759 0.07353
 C287 C 0.83988 0.78792 0.02863
 C288 C 0.77694 0.82339 0.06963
 C289 C 0.72539 0.79718 0.00066
 C290 C 0.78948 0.76150 -0.04258
 C291 C 0.74315 0.86527 -0.05212
 C292 C 0.79243 0.89144 0.01970
 C293 C 0.85979 0.86148 -0.01683
 C294 C 0.80950 0.83200 -0.09120
 H295 H 0.85889 0.74073 0.05988
 H296 H 0.76713 0.82021 0.13811
 H297 H 0.78982 0.70680 -0.06984
 H298 H 0.70237 0.89493 -0.08957
 H299 H 0.79907 0.94347 0.04072
 H300 H 0.82061 0.82863 -0.15859
 C301 C 0.68364 0.55186 0.30111
 C302 C 0.74141 0.59807 0.34629
 C303 C 0.79696 0.54391 0.32929
 C304 C 0.73997 0.49503 0.28511
 C305 C 0.78051 0.50436 0.41133
 C306 C 0.72316 0.56045 0.42949
 C307 C 0.66005 0.51519 0.38793
 C308 C 0.71949 0.45793 0.36897
 H309 H 0.66794 0.57202 0.23850
 H310 H 0.74725 0.65665 0.33608
 H311 H 0.74620 0.46715 0.22427
 H312 H 0.82304 0.47959 0.45077
 H313 H 0.72176 0.59109 0.48589
 H314 H 0.71659 0.39916 0.37344
 C315 C 0.31505 0.41748 0.36178
 C316 C 0.23798 0.41316 0.39535
 C317 C 0.21248 0.45505 0.32034
 C318 C 0.28740 0.45984 0.28507
 C319 C 0.22738 0.52537 0.36889
 C320 C 0.25457 0.48268 0.44501
 C321 C 0.33366 0.48628 0.41171
 C322 C 0.30427 0.52927 0.33494
 H323 H 0.35369 0.37700 0.36516
 H324 H 0.20807 0.36410 0.41549
 H325 H 0.29688 0.45067 0.21744
 H326 H 0.19248 0.57248 0.37515
 H327 H 0.22359 0.49865 0.49883
 H328 H 0.31806 0.58123 0.30997
 C329 C 0.73329 0.58381 0.63511
 C330 C 0.74239 0.55570 0.72582
 C331 C 0.78824 0.49263 0.69633
 C332 C 0.78228 0.52317 0.60758
 C333 C 0.72164 0.44786 0.68216
 C334 C 0.67319 0.50965 0.71049
 C335 C 0.66286 0.53460 0.61766
 C336 C 0.71528 0.47648 0.59169
 H337 H 0.75141 0.63867 0.61866
 H338 H 0.75307 0.58935 0.78226
 H339 H 0.83024 0.53348 0.56892
 H340 H 0.72150 0.39165 0.70363
 H341 H 0.63571 0.52048 0.76017
 H342 H 0.71054 0.45320 0.53002
 C343 C 0.34824 0.47787 0.74224
 C344 C 0.31631 0.55196 0.76136
 C345 C 0.24122 0.52374 0.74461
 C346 C 0.27082 0.44873 0.72787
 C347 C 0.24686 0.54115 0.65225
 C348 C 0.32377 0.57040 0.66799
 C349 C 0.35587 0.49703 0.64574
 C350 C 0.27678 0.46664 0.63407
 H351 H 0.38111 0.45466 0.79252
 H352 H 0.32786 0.58252 0.81983
 H353 H 0.25034 0.39720 0.75400
 H354 H 0.19929 0.56528 0.62045
 H355 H 0.35162 0.61910 0.65188
 H356 H 0.24422 0.42798 0.59794
 C357 C 0.54059 0.57455 0.25136
 C358 C 0.49580 0.59149 0.17213
 C359 C 0.51985 0.67068 0.17760
 C360 C 0.56414 0.65483 0.25506
 C361 C 0.45374 0.68386 0.23280
 C362 C 0.43139 0.60405 0.23035
 C363 C 0.47913 0.58819 0.31306
 C364 C 0.49944 0.66894 0.31171
 H365 H 0.56568 0.52211 0.25002
 H366 H 0.49282 0.56071 0.11277
 H367 H 0.61922 0.67929 0.25804
 H368 H 0.41347 0.72677 0.22675
 H369 H 0.37865 0.58598 0.20352
 H370 H 0.48834 0.70512 0.36277
 C371 C 0.56679 0.65474 0.74126
 C372 C 0.52945 0.72861 0.74321
 C373 C 0.48639 0.70816 0.82131
 C374 C 0.52622 0.63609 0.82283
 C375 C 0.42759 0.67467 0.76726
 C376 C 0.46747 0.69787 0.68891
 C377 C 0.50412 0.62163 0.68370
 C378 C 0.46611 0.60209 0.76705
 H379 H 0.62568 0.64772 0.74089
 H380 H 0.55678 0.78112 0.73207
 H381 H 0.55106 0.61192 0.87987
 H382 H 0.36933 0.68550 0.77035
 H383 H 0.44053 0.74496 0.66188
 H384 H 0.44835 0.55092 0.79138
 C385 C 0.46049 0.32242 0.30526
 C386 C 0.41012 0.35142 0.23683
 C387 C 0.46365 0.33447 0.17145
 C388 C 0.51720 0.30841 0.24007
 C389 C 0.49837 0.41029 0.18195
 C390 C 0.44336 0.42723 0.24992
 C391 C 0.49296 0.40067 0.32407
 C392 C 0.54977 0.38490 0.25435
 H393 H 0.44285 0.26918 0.32775
 H394 H 0.35208 0.33621 0.23169
 H395 H 0.54925 0.25877 0.23889
 H396 H 0.51524 0.44450 0.12885
 H397 H 0.41337 0.47588 0.24599
 H398 H 0.60854 0.39707 0.25656
 C399 C 0.53715 0.44514 0.80060
 C400 C 0.48901 0.38246 0.83229
 C401 C 0.55351 0.33188 0.82888
 C402 C 0.60122 0.39313 0.80067
 C403 C 0.53225 0.31327 0.73885
 C404 C 0.46871 0.36490 0.73957
 C405 C 0.51770 0.42684 0.70538
 C406 C 0.58059 0.37478 0.70958
 H407 H 0.54192 0.49481 0.83745
 H408 H 0.45121 0.38535 0.88527
 H409 H 0.65572 0.40394 0.82842
 H410 H 0.53295 0.25662 0.71777
 H411 H 0.41080 0.35636 0.72567
 H412 H 0.61667 0.37652 0.66024
 C413 C 0.64035 0.70680 0.55887
 C414 C 0.69304 0.71835 0.48511
 C415 C 0.66329 0.79240 0.46832
 C416 C 0.61247 0.78320 0.54305
 C417 C 0.60502 0.76119 0.41040
 C418 C 0.63271 0.68666 0.42722
 C419 C 0.58034 0.67405 0.49885
 C420 C 0.55388 0.75283 0.48328
 H421 H 0.65357 0.69517 0.62429
 H422 H 0.75164 0.70733 0.48484
 H423 H 0.60381 0.82323 0.59311
 H424 H 0.59106 0.78329 0.34742
 H425 H 0.62981 0.64616 0.38217
 H426 H 0.50616 0.78629 0.47700
 C427 C 0.58045 0.28880 0.55419
 C428 C 0.59352 0.23941 0.48034
 C429 C 0.66680 0.21909 0.52075
 C430 C 0.65372 0.26825 0.59309
 C431 C 0.70182 0.28085 0.47135
 C432 C 0.62717 0.30353 0.43351
 C433 C 0.61227 0.35523 0.50868
 C434 C 0.68935 0.33069 0.54613
 H435 H 0.53242 0.28850 0.58945
 H436 H 0.55255 0.20420 0.44904
 H437 H 0.66432 0.25527 0.66023
 H438 H 0.75299 0.27846 0.43660
 H439 H 0.61961 0.31213 0.36578
 H440 H 0.74178 0.35046 0.57185
 C441 C 0.34760 0.68903 0.40393
 C442 C 0.27184 0.69866 0.44232
 C443 C 0.29783 0.76557 0.49212
 C444 C 0.37204 0.75703 0.44928
 C445 C 0.32226 0.71779 0.56372
 C446 C 0.29741 0.64997 0.51517
 C447 C 0.37515 0.64159 0.47987
 C448 C 0.39660 0.71105 0.52310
 H449 H 0.35208 0.68617 0.33589
 H450 H 0.21953 0.69308 0.40767
 H451 H 0.40280 0.79679 0.41171
 H452 H 0.31211 0.72944 0.63075
 H453 H 0.25738 0.60862 0.52434
 H454 H 0.45010 0.71155 0.54592
 C455 C 0.40220 0.27523 0.60384
 C456 C 0.32249 0.26190 0.57717
 C457 C 0.34494 0.21083 0.50749
 C458 C 0.42382 0.22281 0.53549
 C459 C 0.35121 0.27255 0.44701
 C460 C 0.32984 0.32558 0.51572
 C461 C 0.41049 0.34129 0.54030
 C462 C 0.43047 0.28561 0.47493
 H463 H 0.41775 0.25668 0.66705
 H464 H 0.27701 0.25375 0.62062
 H465 H 0.46471 0.18092 0.54553
 H466 H 0.32778 0.26718 0.38260
 H467 H 0.28547 0.36027 0.51739
 H468 H 0.48085 0.29589 0.44507
   
