data_POSCAR
  _audit_creation_date              2014-09-24
  _audit_creation_method            'ToBaCCo'
  _symmetry_space_group_name_H-M    'P1'
  _symmetry_Int_Tables_number       1
  _symmetry_cell_setting            triclinic
  loop_
  _symmetry_equiv_pos_as_xyz
 x,y,z
_cell_length_a 31.4647
_cell_length_b 31.2069
_cell_length_c 30.0433
_cell_angle_alpha 90.148500
_cell_angle_beta 89.871100
_cell_angle_gamma 90.005000
loop_
  _atom_site_label
  _atom_site_type_symbol
  _atom_site_fract_x
  _atom_site_fract_y
  _atom_site_fract_z
Si1 Si 0.25026 0.24958 0.24996
 Si2 Si 0.74992 0.74973 0.25002
 Si3 Si 0.75073 0.24979 0.74999
 Si4 Si 0.25043 0.74960 0.74997
 C5 C 0.05936 0.06418 0.01617
 H6 H 0.06014 0.06632 -0.01976
 C7 C 0.08471 0.09140 0.04182
 H8 H 0.10524 0.11452 0.02566
 C9 C 0.03150 0.03164 0.08127
 H10 H 0.01035 0.00875 0.09658
 C11 C 0.05632 0.05827 0.10815
 H12 H 0.05453 0.05546 0.14404
 N13 N 0.03392 0.03460 0.03613
 C14 C 0.01713 -0.06613 -0.06347
 H15 H -0.01718 -0.06802 -0.06464
 C16 C 0.04171 -0.09342 -0.09000
 H17 H 0.02636 -0.11632 -0.11184
 C18 C 0.07922 -0.03430 -0.03333
 H19 H 0.09379 -0.01171 -0.01077
 C20 C 0.10495 -0.06099 -0.05926
 H21 H 0.13922 -0.05851 -0.05693
 Zn22 Zn 0.00072 -0.00111 -0.00119
 N23 N 0.03613 -0.03690 -0.03632
 C24 C -0.03031 0.03268 -0.08295
 N25 N -0.03242 0.03518 -0.03774
 C26 C -0.05763 0.06461 -0.01710
 C27 C -0.08309 0.09216 -0.04208
 C28 C -0.05526 0.05965 -0.10918
 C29 C -0.01597 -0.06673 0.05993
 C30 C -0.04067 -0.09409 0.08611
 C31 C -0.10377 -0.06105 0.05593
 C32 C -0.07792 -0.03430 0.03034
 N33 N -0.03484 -0.03715 0.03326
 H34 H -0.00935 0.00986 -0.09879
 H35 H -0.05817 0.06636 0.01887
 H36 H -0.10346 0.11514 -0.02538
 H37 H -0.05374 0.05720 -0.14513
 H38 H 0.01833 -0.06880 0.06104
 H39 H -0.02542 -0.11725 0.10761
 H40 H -0.13803 -0.05837 0.05369
 H41 H -0.09239 -0.01143 0.00815
 C42 C 0.08602 -0.09065 -0.08799
 C43 C 0.08331 0.08824 0.08821
 C44 C -0.08497 -0.09104 0.08421
 C45 C -0.08204 0.08946 -0.08853
 C46 C 0.05926 0.56716 0.51834
 H47 H 0.06005 0.56929 0.48241
 C48 C 0.08462 0.59437 0.54399
 H49 H 0.10518 0.61746 0.52782
 C50 C 0.03142 0.53461 0.58344
 H51 H 0.01029 0.51169 0.59875
 C52 C 0.05626 0.56123 0.61032
 H53 H 0.05451 0.55838 0.64621
 N54 N 0.03384 0.53757 0.53830
 C55 C 0.01736 0.43650 0.43909
 H56 H -0.01695 0.43450 0.43804
 C57 C 0.04194 0.40917 0.41262
 H58 H 0.02658 0.38612 0.39095
 C59 C 0.07944 0.46869 0.46886
 H60 H 0.09399 0.49144 0.49124
 C61 C 0.10518 0.44196 0.44297
 H62 H 0.13945 0.44455 0.44516
 Zn63 Zn 0.00080 0.50169 0.50098
 N64 N 0.03635 0.46592 0.46602
 C65 C -0.02997 0.53503 0.41897
 N66 N -0.03237 0.53770 0.46415
 C67 C -0.05795 0.56700 0.48450
 C68 C -0.08352 0.59419 0.45921
 C69 C -0.05501 0.56163 0.39245
 C70 C -0.01575 0.43600 0.56203
 C71 C -0.04037 0.40830 0.58788
 C72 C -0.10357 0.44092 0.55743
 C73 C -0.07779 0.46803 0.53217
 N74 N -0.03470 0.46552 0.53534
 H75 H -0.00872 0.51234 0.40337
 H76 H -0.05873 0.56889 0.52045
 H77 H -0.10421 0.61704 0.47567
 H78 H -0.05328 0.55903 0.35652
 H79 H 0.01856 0.43419 0.56333
 H80 H -0.02506 0.38515 0.60934
 H81 H -0.13783 0.44330 0.55494
 H82 H -0.09231 0.49084 0.50995
 C83 C 0.08624 0.41209 0.41446
 C84 C 0.08327 0.59118 0.59038
 C85 C -0.08468 0.41093 0.58566
 C86 C -0.08221 0.59126 0.41278
 C87 C 0.55669 0.06524 0.51826
 H88 H 0.55706 0.06735 0.48232
 C89 C 0.58226 0.09255 0.54355
 H90 H 0.60253 0.11571 0.52711
 C91 C 0.52979 0.03255 0.58372
 H92 H 0.50897 0.00951 0.59930
 C93 C 0.55485 0.05927 0.61026
 H94 H 0.55359 0.05641 0.64616
 N95 N 0.53166 0.03553 0.53855
 C96 C 0.51551 -0.06565 0.43948
 H97 H 0.48122 -0.06786 0.43835
 C98 C 0.54031 -0.09271 0.41293
 H99 H 0.52515 -0.11578 0.39113
 C100 C 0.57734 -0.03317 0.46948
 H101 H 0.59173 -0.01042 0.49198
 C102 C 0.60329 -0.05962 0.44353
 H103 H 0.63754 -0.05680 0.44580
 Zn104 Zn 0.49859 -0.00058 0.50154
 N105 N 0.53427 -0.03619 0.46655
 C106 C 0.46777 0.03277 0.41957
 N107 N 0.46523 0.03529 0.46475
 C108 C 0.43964 0.06458 0.48510
 C109 C 0.41432 0.09201 0.45982
 C110 C 0.44298 0.05962 0.39305
 C111 C 0.48260 -0.06622 0.56283
 C112 C 0.45822 -0.09394 0.58893
 C113 C 0.39474 -0.06157 0.55884
 C114 C 0.42028 -0.03444 0.53332
 N115 N 0.46339 -0.03683 0.53619
 H116 H 0.48904 0.01011 0.40396
 H117 H 0.43877 0.06637 0.52106
 H118 H 0.39371 0.11493 0.47629
 H119 H 0.44491 0.05721 0.35712
 H120 H 0.51692 -0.06793 0.56389
 H121 H 0.47374 -0.11699 0.61034
 H122 H 0.36045 -0.05929 0.55659
 H123 H 0.40556 -0.01171 0.51116
 C124 C 0.58460 -0.08948 0.41485
 C125 C 0.58151 0.08932 0.58995
 C126 C 0.41389 -0.09143 0.58702
 C127 C 0.41589 0.08934 0.41338
 C128 C 0.55690 0.56673 0.01621
 H129 H 0.55758 0.56901 -0.01971
 C130 C 0.58244 0.59374 0.04189
 H131 H 0.60299 0.61686 0.02576
 C132 C 0.52926 0.53390 0.08126
 H133 H 0.50816 0.51093 0.09653
 C134 C 0.55427 0.56031 0.10816
 H135 H 0.55268 0.55728 0.14404
 N136 N 0.53152 0.53708 0.03612
 C137 C 0.51562 0.43626 -0.06341
 H138 H 0.48132 0.43426 -0.06487
 C139 C 0.54050 0.40894 -0.08960
 H140 H 0.52540 0.38592 -0.11149
 C141 C 0.57737 0.46834 -0.03277
 H142 H 0.59168 0.49100 -0.01012
 C143 C 0.60339 0.44163 -0.05835
 H144 H 0.63763 0.44418 -0.05567
 Zn145 Zn 0.49855 0.50124 -0.00127
 N146 N 0.53431 0.46561 -0.03616
 C147 C 0.46792 0.53490 -0.08323
 N148 N 0.46537 0.53731 -0.03804
 C149 C 0.43981 0.56659 -0.01763
 C150 C 0.41451 0.59409 -0.04285
 C151 C 0.44315 0.56182 -0.10969
 C152 C 0.48235 0.43538 0.05957
 C153 C 0.45794 0.40769 0.08564
 C154 C 0.39450 0.44039 0.05583
 C155 C 0.42008 0.46749 0.03033
 N156 N 0.46319 0.46494 0.03310
 H157 H 0.48916 0.51222 -0.09889
 H158 H 0.43892 0.56829 0.01833
 H159 H 0.39389 0.61697 -0.02633
 H160 H 0.44505 0.55947 -0.14563
 H161 H 0.51667 0.43357 0.06056
 H162 H 0.47343 0.38453 0.10695
 H163 H 0.36022 0.44282 0.05370
 H164 H 0.40540 0.49038 0.00830
 C165 C 0.58479 0.41181 -0.08713
 C166 C 0.58129 0.59028 0.08826
 C167 C 0.41361 0.41038 0.08387
 C168 C 0.41605 0.59151 -0.08929
 C169 C 0.16165 -0.16662 -0.16566
 C170 C 0.16009 -0.21131 -0.16239
 C171 C 0.18718 -0.23662 -0.18839
 C172 C 0.21656 -0.21749 -0.21755
 C173 C 0.21717 -0.17260 -0.22142
 C174 C 0.19004 -0.14737 -0.19542
 C175 C 0.13444 -0.14038 -0.13833
 C176 C 0.11212 -0.11795 -0.11539
 H177 H 0.13804 -0.22658 -0.13967
 H178 H 0.18543 -0.27118 -0.18537
 H179 H 0.23820 -0.15665 -0.24453
 H180 H 0.19121 -0.11280 -0.19852
 C181 C 0.16132 0.33569 0.33671
 C182 C 0.15891 0.29098 0.33956
 C183 C 0.18555 0.26540 0.31332
 C184 C 0.21506 0.28432 0.28434
 C185 C 0.21684 0.32912 0.28102
 C186 C 0.19019 0.35467 0.30723
 C187 C 0.13444 0.36217 0.36413
 C188 C 0.11228 0.38473 0.38709
 H189 H 0.13655 0.27592 0.36211
 H190 H 0.18336 0.23085 0.31586
 H191 H 0.23859 0.34454 0.25824
 H192 H 0.19213 0.38924 0.30455
 C193 C 0.66049 -0.16497 0.33703
 C194 C 0.65831 -0.20970 0.33967
 C195 C 0.68518 -0.23501 0.31341
 C196 C 0.71468 -0.21581 0.28462
 C197 C 0.71629 -0.17099 0.28156
 C198 C 0.68941 -0.14569 0.30780
 C199 C 0.63331 -0.13879 0.36442
 C200 C 0.61090 -0.11651 0.38741
 H201 H 0.63594 -0.22498 0.36203
 H202 H 0.68313 -0.26958 0.31575
 H203 H 0.73805 -0.15537 0.25894
 H204 H 0.69119 -0.11110 0.30531
 C205 C 0.66109 0.33551 -0.16366
 C206 C 0.65901 0.29080 -0.16063
 C207 C 0.68600 0.26533 -0.18660
 C208 C 0.71551 0.28437 -0.21550
 C209 C 0.71704 0.32917 -0.21890
 C210 C 0.69006 0.35462 -0.19295
 C211 C 0.63372 0.36190 -0.13668
 C212 C 0.61118 0.38443 -0.11409
 H213 H 0.63660 0.27565 -0.13821
 H214 H 0.68399 0.23078 -0.18402
 H215 H 0.73879 0.34468 -0.24162
 H216 H 0.69175 0.38918 -0.19576
 C217 C -0.15874 0.16619 -0.16339
 C218 C -0.18758 0.19402 -0.14265
 C219 C -0.21475 0.21933 -0.16831
 C220 C -0.21350 0.21673 -0.21492
 C221 C -0.18404 0.18936 -0.23555
 C222 C -0.15690 0.16405 -0.20990
 C223 C -0.13139 0.13950 -0.13699
 C224 C -0.10874 0.11684 -0.11490
 H225 H -0.18911 0.19609 -0.10668
 H226 H -0.23652 0.24082 -0.15159
 H227 H -0.18229 0.18735 -0.27150
 H228 H -0.13461 0.14274 -0.22631
 C229 C -0.15935 0.66679 0.33713
 C230 C -0.18821 0.69473 0.35768
 C231 C -0.21548 0.71976 0.33185
 C232 C -0.21432 0.71678 0.28526
 C233 C -0.18487 0.68928 0.26481
 C234 C -0.15762 0.66424 0.29064
 C235 C -0.13183 0.64050 0.36376
 C236 C -0.10905 0.61821 0.38610
 H237 H -0.18965 0.69713 0.39363
 H238 H -0.23721 0.74138 0.34845
 H239 H -0.18317 0.68700 0.22887
 H240 H -0.13532 0.64285 0.27437
 C241 C 0.34021 0.16620 0.33753
 C242 C 0.31142 0.19430 0.35794
 C243 C 0.28451 0.21960 0.33198
 C244 C 0.28596 0.21672 0.28539
 C245 C 0.31543 0.18915 0.26508
 C246 C 0.34232 0.16384 0.29104
 C247 C 0.36719 0.13945 0.36428
 C248 C 0.38953 0.11675 0.38668
 H249 H 0.30969 0.19655 0.39389
 H250 H 0.26276 0.24127 0.34848
 H251 H 0.31735 0.18694 0.22915
 H252 H 0.36458 0.14233 0.27488
 C253 C 0.33984 0.66828 -0.16469
 C254 C 0.31155 0.69670 -0.14406
 C255 C 0.28427 0.72187 -0.16973
 C256 C 0.28466 0.71849 -0.21641
 C257 C 0.31398 0.69071 -0.23689
 C258 C 0.34121 0.66555 -0.21117
 C259 C 0.36709 0.64158 -0.13817
 C260 C 0.38959 0.61891 -0.11591
 H261 H 0.31052 0.69934 -0.10811
 H262 H 0.26323 0.74388 -0.15272
 H263 H 0.31554 0.68805 -0.27283
 H264 H 0.36316 0.64385 -0.22751
 C265 C -0.16043 -0.16741 0.16118
 C266 C -0.18966 -0.19523 0.14119
 C267 C -0.21657 -0.22030 0.16752
 C268 C -0.21466 -0.21746 0.21409
 C269 C -0.18480 -0.19012 0.23398
 C270 C -0.15792 -0.16505 0.20764
 C271 C -0.13344 -0.14091 0.13405
 C272 C -0.11115 -0.11837 0.11132
 H273 H -0.19172 -0.19747 0.10526
 H274 H -0.23863 -0.24179 0.15135
 H275 H -0.18252 -0.18795 0.26988
 H276 H -0.13533 -0.14373 0.22348
 C277 C -0.15980 0.33334 0.66166
 C278 C -0.18903 0.30564 0.64146
 C279 C -0.21583 0.28027 0.66762
 C280 C -0.21382 0.28271 0.71420
 C281 C -0.18394 0.30989 0.73427
 C282 C -0.15716 0.33525 0.70813
 C283 C -0.13297 0.36024 0.63478
 C284 C -0.11078 0.38315 0.61235
 H285 H -0.19118 0.30375 0.60552
 H286 H -0.23795 0.25892 0.65131
 H287 H -0.18160 0.31177 0.77019
 H288 H -0.13458 0.35646 0.72412
 C289 C 0.33915 -0.16914 0.66337
 C290 C 0.31058 -0.19746 0.64313
 C291 C 0.28357 -0.22269 0.66918
 C292 C 0.28448 -0.21943 0.71586
 C293 C 0.31412 -0.19179 0.73592
 C294 C 0.34108 -0.16659 0.70982
 C295 C 0.36596 -0.14221 0.63647
 C296 C 0.38802 -0.11926 0.61393
 H297 H 0.30910 -0.19996 0.60719
 H298 H 0.26228 -0.24459 0.65247
 H299 H 0.31608 -0.18923 0.77184
 H300 H 0.36324 -0.14496 0.72585
 C301 C 0.33927 0.33285 0.16080
 C302 C 0.31012 0.30488 0.14090
 C303 C 0.28353 0.27956 0.16732
 C304 C 0.28566 0.28229 0.21388
 C305 C 0.31552 0.30970 0.23367
 C306 C 0.34209 0.33502 0.20725
 C307 C 0.36582 0.35976 0.13361
 C308 C 0.38776 0.38265 0.11089
 H309 H 0.30784 0.30278 0.10498
 H310 H 0.26146 0.25802 0.15120
 H311 H 0.31796 0.31180 0.26956
 H312 H 0.36463 0.35644 0.22302
 C313 C 0.15978 0.16397 0.16484
 C314 C 0.18892 0.14481 0.19376
 C315 C 0.21604 0.17021 0.21949
 C316 C 0.21446 0.21502 0.21623
 C317 C 0.18467 0.23411 0.18782
 C318 C 0.15757 0.20869 0.16206
 C319 C 0.13242 0.13766 0.13788
 C320 C 0.10985 0.11530 0.11525
 H321 H 0.19072 0.11024 0.19638
 H322 H 0.23800 0.15467 0.24185
 H323 H 0.18263 0.26867 0.18534
 H324 H 0.13501 0.22388 0.13994
 C325 C 0.16042 0.66633 0.66691
 C326 C 0.15905 0.71103 0.66371
 C327 C 0.18653 0.73618 0.68932
 C328 C 0.21610 0.71687 0.71799
 C329 C 0.21653 0.67197 0.72180
 C330 C 0.18901 0.64690 0.69620
 C331 C 0.13275 0.64029 0.64001
 C332 C 0.10998 0.61810 0.61741
 H333 H 0.13685 0.72644 0.64136
 H334 H 0.18492 0.77074 0.68636
 H335 H 0.23771 0.65590 0.74456
 H336 H 0.19003 0.61233 0.69925
 C337 C 0.65941 0.16471 0.66533
 C338 C 0.68867 0.14539 0.69400
 C339 C 0.71616 0.17064 0.71945
 C340 C 0.71483 0.21545 0.71616
 C341 C 0.68503 0.23471 0.68789
 C342 C 0.65755 0.20944 0.66242
 C343 C 0.63152 0.13855 0.63882
 C344 C 0.60851 0.11629 0.61658
 H345 H 0.69020 0.11081 0.69671
 H346 H 0.73814 0.15498 0.74170
 H347 H 0.68318 0.26927 0.68540
 H348 H 0.63492 0.22475 0.64047
 C349 C 0.65882 0.66498 0.16478
 C350 C 0.68805 0.64551 0.19340
 C351 C 0.71544 0.67064 0.21911
 C352 C 0.71402 0.71547 0.21613
 C353 C 0.68422 0.73486 0.18796
 C354 C 0.65685 0.70972 0.16223
 C355 C 0.63111 0.63899 0.13790
 C356 C 0.60821 0.61695 0.11531
 H357 H 0.68967 0.61092 0.19582
 H358 H 0.73744 0.65489 0.24126
 H359 H 0.68232 0.76944 0.18570
 H360 H 0.63425 0.72514 0.14034
   
