data_POSCAR
  _audit_creation_date              2014-09-24
  _audit_creation_method            'ToBaCCo'
  _symmetry_space_group_name_H-M    'P1'
  _symmetry_Int_Tables_number       1
  _symmetry_cell_setting            triclinic
  loop_
  _symmetry_equiv_pos_as_xyz
 x,y,z
_cell_length_a 15.2789
_cell_length_b 15.2786
_cell_length_c 15.3215
_cell_angle_alpha 90.200600
_cell_angle_beta 90.200900
_cell_angle_gamma 90.000300
loop_
  _atom_site_label
  _atom_site_type_symbol
  _atom_site_fract_x
  _atom_site_fract_y
  _atom_site_fract_z
O1 O 0.41675 1.07429 -0.58343
 O2 O 0.58712 1.07398 -0.41336
 O3 O 0.58689 1.07036 -0.58360
 O4 O 0.41658 1.07007 -0.41364
 O5 O 0.41687 0.92531 -0.41459
 O6 O 0.58669 0.92560 -0.58401
 O7 O 0.58737 0.92925 -0.41382
 O8 O 0.41651 0.92952 -0.58443
 Cu9 Cu 0.50192 1.08676 -0.49835
 Cu10 Cu 0.50192 0.91283 -0.49922
 C11 C 0.38791 1.00214 -0.61273
 C12 C 0.61601 1.00176 -0.38476
 C13 C 0.61524 0.99783 -0.61269
 C14 C 0.38789 0.99745 -0.38561
 O15 O -0.58776 1.41485 0.07391
 O16 O -0.41754 1.58507 0.07343
 O17 O -0.58799 1.58568 0.06978
 O18 O -0.41726 1.41494 0.06977
 O19 O -0.41827 1.41444 -0.07458
 O20 O -0.58849 1.58467 -0.07454
 O21 O -0.41796 1.58457 -0.07093
 O22 O -0.58869 1.41383 -0.07040
 Cu23 Cu -0.50272 1.50019 0.08625
 Cu24 Cu -0.50358 1.49932 -0.08715
 C25 C -0.61683 1.38534 0.00203
 C26 C -0.38879 1.61340 0.00136
 C27 C -0.61685 1.61417 -0.00257
 C28 C -0.38881 1.38612 -0.00260
 O29 O -0.07003 0.41606 0.41555
 O30 O -0.07030 0.58687 0.58621
 O31 O -0.07396 0.58624 0.41602
 O32 O -0.07423 0.41637 0.58538
 O33 O 0.07052 0.41608 0.58633
 O34 O 0.07080 0.58644 0.41642
 O35 O 0.07443 0.58662 0.58666
 O36 O 0.07474 0.41631 0.41654
 Cu37 Cu -0.08672 0.50145 0.50078
 Cu38 Cu 0.08721 0.50145 0.50165
 C39 C 0.00259 0.38747 0.38724
 C40 C 0.00222 0.61550 0.61528
 C41 C -0.00173 0.61480 0.38734
 C42 C -0.00209 0.38738 0.61435
 O43 O -0.22532 1.00202 -0.11904
 O44 O 0.22548 0.99711 -0.11810
 O45 O -0.00257 1.11787 -0.22496
 O46 O 0.00233 0.88092 -0.22537
 O47 O 0.00241 0.77415 -0.11898
 O48 O -0.00250 1.22496 -0.11816
 O49 O 0.11839 0.99692 -0.22491
 O50 O -0.11855 1.00183 -0.22542
 Zr51 Zr -0.00002 0.99949 -0.15410
 O52 O 0.07960 0.92007 -0.07969
 O53 O -0.07948 1.07915 -0.07977
 C54 C -0.19922 1.00279 -0.19948
 C55 C 0.19915 0.99608 -0.19862
 C56 C -0.00346 1.19863 -0.19868
 C57 C 0.00325 0.80025 -0.19942
 H58 H 0.11626 1.11581 -0.11596
 O59 O 0.07899 1.07854 -0.07883
 H60 H -0.11627 0.88329 -0.11675
 O61 O -0.07885 0.92069 -0.07939
 O62 O 0.22586 1.00243 0.11810
 O63 O -0.22481 0.99748 0.11752
 O64 O 0.11854 1.22527 0.00249
 O65 O 0.11852 0.77424 -0.00298
 O66 O -0.11845 0.77443 0.00152
 O67 O -0.11847 1.22507 -0.00276
 O68 O 0.00314 1.11864 0.22443
 O69 O -0.00180 0.88201 0.22416
 O70 O 0.00281 1.22539 0.11806
 O71 O -0.00213 0.77472 0.11756
 O72 O 0.22556 1.11845 0.00253
 O73 O -0.22529 1.11807 -0.00305
 O74 O -0.22526 0.88144 0.00148
 O75 O 0.22553 0.88107 -0.00269
 O76 O 0.11907 1.00270 0.22443
 O77 O -0.11755 0.99776 0.22415
 Zr78 Zr 0.15440 0.99977 -0.00016
 Zr79 Zr -0.15392 0.99976 -0.00068
 Zr80 Zr 0.00015 1.15392 -0.00020
 Zr81 Zr 0.00014 0.84559 -0.00065
 Zr82 Zr 0.00056 1.00013 0.15313
 O83 O -0.07918 0.92040 0.07862
 O84 O 0.07995 1.07953 0.07909
 C85 C 0.19973 1.00349 0.19851
 C86 C -0.19832 0.99673 0.19803
 C87 C 0.19928 1.19918 0.00344
 C88 C 0.19925 0.80034 -0.00373
 C89 C -0.19915 0.80073 0.00235
 C90 C -0.19918 1.19878 -0.00381
 C91 C 0.00391 1.19929 0.19848
 C92 C -0.00285 0.80124 0.19806
 H93 H -0.11587 1.11627 0.11550
 O94 O -0.07859 1.07887 0.07824
 H95 H 0.11668 0.88372 0.11550
 O96 O 0.07929 0.92098 0.07823
 C97 C 0.32170 1.00282 0.32077
 C98 C 0.26605 1.00349 0.26487
 C99 C -0.31928 0.99734 0.32050
 C100 C -0.26422 0.99675 0.26438
 C101 C -0.32130 1.00219 -0.32179
 C102 C -0.26560 1.00277 -0.26587
 C103 C 0.32135 0.99677 -0.31986
 C104 C 0.26546 0.99609 -0.26457
 C105 C 0.32085 1.32201 0.00272
 C106 C 0.26547 1.26578 0.00342
 C107 C 0.32083 0.67751 -0.00309
 C108 C 0.26544 0.73374 -0.00371
 C109 C -0.32189 0.67923 0.00176
 C110 C -0.26570 0.73458 0.00232
 C111 C -0.32191 1.32029 -0.00318
 C112 C -0.26573 1.26493 -0.00381
 C113 C 0.00326 1.32128 0.32072
 C114 C 0.00392 1.26562 0.26483
 C115 C -0.00277 1.32083 -0.31991
 C116 C -0.00345 1.26494 -0.26463
 C117 C 0.00265 0.67818 -0.32174
 C118 C 0.00323 0.73387 -0.26581
 C119 C -0.00222 0.68028 0.32054
 C120 C -0.00282 0.73535 0.26442
   
