data_POSCAR
  _audit_creation_date              2014-09-24
  _audit_creation_method            'ToBaCCo'
  _symmetry_space_group_name_H-M    'P1'
  _symmetry_Int_Tables_number       1
  _symmetry_cell_setting            triclinic
  loop_
  _symmetry_equiv_pos_as_xyz
 x,y,z
_cell_length_a 31.6385
_cell_length_b 27.3075
_cell_length_c 29.8293
_cell_angle_alpha 82.072800
_cell_angle_beta 85.266100
_cell_angle_gamma 88.278800
loop_
  _atom_site_label
  _atom_site_type_symbol
  _atom_site_fract_x
  _atom_site_fract_y
  _atom_site_fract_z
N1 N 0.31726 0.24271 0.19245
 N2 N 0.30652 0.28562 0.17000
 C3 C 0.33342 0.29576 0.13261
 C4 C 0.36204 0.25670 0.13178
 C5 C 0.35105 0.22356 0.16982
 H6 H 0.33177 0.32835 0.10766
 H7 H 0.36661 0.18857 0.18040
 Cu8 Cu 0.25747 0.32331 0.19074
 Cu9 Cu 0.28731 0.21582 0.25006
 Cu10 Cu 0.19373 0.27572 0.28130
 N11 N 0.20106 0.35066 0.20350
 N12 N 0.17694 0.33313 0.23992
 C13 C 0.14027 0.35940 0.24128
 C14 C 0.14171 0.39463 0.20335
 C15 C 0.18033 0.38822 0.17984
 H16 H 0.11425 0.35261 0.26708
 H17 H 0.19241 0.40918 0.14819
 N18 N 0.21620 0.21700 0.31850
 N19 N 0.25240 0.19472 0.30710
 C20 C 0.25949 0.15640 0.33942
 C21 C 0.22583 0.15468 0.37209
 C22 C 0.19885 0.19309 0.35800
 H23 H 0.28646 0.13116 0.33882
 H24 H 0.16896 0.20277 0.37518
 H25 H 0.22986 0.24573 0.23041
 H26 H 0.25890 0.28021 0.26798
 N27 N 0.64081 -0.24636 0.23789
 N28 N 0.65802 -0.27853 0.21244
 C29 C 0.63447 -0.28037 0.17708
 C30 C 0.60030 -0.24838 0.18128
 C31 C 0.60539 -0.22685 0.21976
 H32 H 0.64372 -0.29982 0.14846
 H33 H 0.58725 -0.19601 0.23111
 Cu34 Cu 0.71301 -0.30895 0.22373
 Cu35 Cu 0.66988 -0.22708 0.28824
 Cu36 Cu 0.77914 -0.24298 0.27285
 N37 N 0.77321 -0.32410 0.22168
 N38 N 0.79953 -0.29728 0.23964
 C39 C 0.83973 -0.31048 0.22697
 C40 C 0.83781 -0.34796 0.20056
 C41 C 0.79546 -0.35543 0.19726
 H42 H 0.86780 -0.29191 0.23368
 H43 H 0.78198 -0.37842 0.17553
 N44 N 0.75144 -0.20022 0.31581
 N45 N 0.70974 -0.19513 0.32226
 C46 C 0.70039 -0.16437 0.35350
 C47 C 0.73798 -0.14966 0.36723
 C48 C 0.76986 -0.17283 0.34293
 H49 H 0.66871 -0.15299 0.36483
 H50 H 0.80366 -0.16989 0.34477
 H51 H 0.72171 -0.22695 0.24440
 H52 H 0.72274 -0.27599 0.29440
 N53 N 0.69976 0.24556 0.79025
 N54 N 0.72160 0.27760 0.80768
 C55 C 0.69727 0.29591 0.84095
 C56 C 0.65856 0.27340 0.84487
 C57 C 0.66086 0.24151 0.81252
 H58 H 0.70725 0.32264 0.86132
 H59 H 0.63628 0.21755 0.80561
 Cu60 Cu 0.78022 0.29067 0.78630
 Cu61 Cu 0.72370 0.21245 0.73939
 Cu62 Cu 0.82778 0.24052 0.69863
 N63 N 0.83234 0.31757 0.75505
 N64 N 0.85111 0.29813 0.72035
 C65 C 0.88566 0.32477 0.70405
 C66 C 0.88830 0.36214 0.73051
 C67 C 0.85392 0.35730 0.76203
 H68 H 0.90615 0.31851 0.67443
 H69 H 0.84441 0.38168 0.78688
 N70 N 0.79353 0.19250 0.67332
 N71 N 0.75368 0.18281 0.68835
 C72 C 0.73863 0.14970 0.66432
 C73 C 0.77046 0.13791 0.63312
 C74 C 0.80498 0.16542 0.63942
 H75 H 0.70709 0.13471 0.66944
 H76 H 0.83579 0.16581 0.62079
 H77 H 0.78606 0.21292 0.75293
 H78 H 0.76760 0.26633 0.71331
 N79 N 0.33673 -0.29696 0.83749
 N80 N 0.31871 -0.33091 0.86812
 C81 C 0.34355 -0.34023 0.90333
 C82 C 0.37869 -0.31038 0.89331
 C83 C 0.37324 -0.28347 0.85180
 H84 H 0.33515 -0.36360 0.93493
 H85 H 0.39260 -0.25325 0.83520
 Cu86 Cu 0.26227 -0.35428 0.85988
 Cu87 Cu 0.30839 -0.26455 0.78592
 Cu88 Cu 0.20596 -0.29944 0.77423
 N89 N 0.20528 -0.37564 0.85173
 N90 N 0.18338 -0.35406 0.81842
 C91 C 0.14589 -0.37687 0.81982
 C92 C 0.14469 -0.41412 0.85604
 C93 C 0.18249 -0.41289 0.87558
 H94 H 0.12203 -0.36774 0.79589
 H95 H 0.19287 -0.43771 0.90420
 N96 N 0.23509 -0.24547 0.73283
 N97 N 0.27512 -0.23487 0.73619
 C98 C 0.28698 -0.19779 0.70353
 C99 C 0.25290 -0.18406 0.67890
 C100 C 0.22016 -0.21463 0.69787
 H101 H 0.31765 -0.18061 0.69887
 H102 H 0.18826 -0.21428 0.68732
 H103 H 0.24675 -0.27461 0.81590
 H104 H 0.26771 -0.32154 0.77933
 N105 N 0.66986 -0.27005 0.82151
 N106 N 0.68739 -0.30333 0.85088
 C107 C 0.66304 -0.30822 0.89047
 C108 C 0.62885 -0.27586 0.88492
 C109 C 0.63385 -0.25234 0.84109
 H110 H 0.66981 -0.33292 0.92071
 H111 H 0.61305 -0.22456 0.82464
 Cu112 Cu 0.74025 -0.33684 0.83382
 Cu113 Cu 0.69511 -0.25273 0.76010
 Cu114 Cu 0.80406 -0.27264 0.75181
 N115 N 0.79789 -0.35896 0.81868
 N116 N 0.82346 -0.33336 0.78753
 C117 C 0.86272 -0.35417 0.78811
 C118 C 0.86061 -0.39535 0.82063
 C119 C 0.81959 -0.39720 0.83979
 H120 H 0.89063 -0.33922 0.76810
 H121 H 0.80725 -0.42241 0.86878
 N122 N 0.77438 -0.22526 0.70801
 N123 N 0.73262 -0.21984 0.71054
 C124 C 0.72126 -0.18570 0.67660
 C125 C 0.75756 -0.16888 0.65172
 C126 C 0.79095 -0.19435 0.67201
 H127 H 0.68914 -0.17280 0.67146
 H128 H 0.82441 -0.19032 0.66185
 H129 H 0.74660 -0.30332 0.75320
 H130 H 0.74981 -0.25470 0.79099
 N131 N 0.35579 0.25465 0.76498
 N132 N 0.34188 0.29773 0.77580
 C133 C 0.36228 0.30824 0.81119
 C134 C 0.38986 0.26909 0.82261
 C135 C 0.38518 0.23590 0.79292
 H136 H 0.35647 0.34072 0.82801
 H137 H 0.40133 0.20052 0.79204
 Cu138 Cu 0.29615 0.33357 0.74454
 Cu139 Cu 0.33415 0.22528 0.71641
 Cu140 Cu 0.23182 0.26345 0.69554
 N141 N 0.23963 0.35634 0.72928
 N142 N 0.21391 0.32725 0.71315
 C143 C 0.17500 0.34836 0.71238
 C144 C 0.17680 0.39327 0.72825
 C145 C 0.21807 0.39749 0.73877
 H146 H 0.14715 0.33140 0.70302
 H147 H 0.23038 0.42588 0.75579
 N148 N 0.25726 0.20098 0.67916
 N149 N 0.29714 0.18794 0.68521
 C150 C 0.30662 0.14582 0.66767
 C151 C 0.27082 0.13185 0.65013
 C152 C 0.23999 0.16728 0.65751
 H153 H 0.33733 0.12732 0.66709
 H154 H 0.20828 0.16947 0.64625
 H155 H 0.29403 0.28049 0.68455
 H156 H 0.27628 0.24896 0.74235
 N157 N 0.28653 -0.18552 0.19823
 N158 N 0.26921 -0.21448 0.17332
 C159 C 0.29820 -0.22588 0.14057
 C160 C 0.33481 -0.20149 0.14491
 C161 C 0.32673 -0.17612 0.18146
 H162 H 0.29335 -0.25043 0.11602
 H163 H 0.34907 -0.15526 0.19641
 Cu164 Cu 0.21078 -0.23507 0.18633
 Cu165 Cu 0.25814 -0.16877 0.25435
 Cu166 Cu 0.15477 -0.20747 0.28077
 N167 N 0.15314 -0.25733 0.20244
 N168 N 0.13128 -0.24553 0.23902
 C169 C 0.09419 -0.26918 0.24478
 C170 C 0.09295 -0.29690 0.20994
 C171 C 0.13062 -0.28901 0.18349
 H172 H 0.07135 -0.26916 0.27383
 H173 H 0.14191 -0.30753 0.15488
 N174 N 0.18417 -0.16903 0.31897
 N175 N 0.22412 -0.15583 0.30963
 C176 C 0.23636 -0.13341 0.34368
 C177 C 0.20226 -0.13252 0.37533
 C178 C 0.16954 -0.15466 0.35890
 H179 H 0.26735 -0.11836 0.34514
 H180 H 0.13789 -0.16041 0.37505
 H181 H 0.21745 -0.22810 0.26582
 H182 H 0.19764 -0.16938 0.23366
 N183 N 0.67979 0.24909 0.15944
 N184 N 0.69757 0.28858 0.13594
 C185 C 0.67456 0.30518 0.10089
 C186 C 0.64103 0.27422 0.10247
 C187 C 0.64481 0.23876 0.13976
 H188 H 0.68184 0.33701 0.07589
 H189 H 0.62371 0.20850 0.15188
 Cu190 Cu 0.74920 0.31525 0.15199
 Cu191 Cu 0.70299 0.21572 0.21445
 Cu192 Cu 0.80100 0.25546 0.23737
 N193 N 0.80716 0.33052 0.15987
 N194 N 0.82654 0.30868 0.19480
 C195 C 0.86324 0.33156 0.19677
 C196 C 0.86704 0.36894 0.16060
 C197 C 0.83122 0.36748 0.13771
 H198 H 0.88423 0.32361 0.22380
 H199 H 0.82164 0.39402 0.10987
 N200 N 0.77016 0.20212 0.27629
 N201 N 0.73237 0.18743 0.26829
 C202 C 0.71942 0.15114 0.30155
 C203 C 0.75086 0.14286 0.33113
 C204 C 0.78259 0.17536 0.31443
 H205 H 0.68990 0.13170 0.30365
 H206 H 0.81233 0.17911 0.32894
 H207 H 0.73743 0.27319 0.22945
 H208 H 0.76424 0.23267 0.18959
 O209 O 0.20560 0.04074 0.47990
 O210 O 0.19156 -0.06413 0.57269
 O211 O 0.19807 0.03264 0.56789
 O212 O 0.19828 -0.05348 0.48371
 O213 O 0.26792 -0.06260 0.48402
 O214 O 0.26776 0.02408 0.56732
 O215 O 0.26123 -0.07191 0.57271
 O216 O 0.27522 0.03066 0.47969
 Cu217 Cu 0.19123 -0.01047 0.52650
 Cu218 Cu 0.27499 -0.02120 0.52660
 C219 C 0.24288 0.05277 0.46355
 C220 C 0.22434 -0.08587 0.58837
 C221 C 0.23315 0.04402 0.58091
 C222 C 0.23325 -0.07123 0.46847
 O223 O 0.82843 0.03707 0.52685
 O224 O 0.81838 -0.05490 0.44810
 O225 O 0.82214 0.04113 0.43965
 O226 O 0.82659 -0.05964 0.53506
 O227 O 0.75678 -0.05531 0.54635
 O228 O 0.75224 0.04433 0.45053
 O229 O 0.74859 -0.05084 0.45995
 O230 O 0.75866 0.04113 0.53847
 Cu231 Cu 0.83086 -0.00941 0.48633
 Cu232 Cu 0.74710 -0.00454 0.50026
 C233 C 0.79521 0.05461 0.54620
 C234 C 0.78181 -0.06826 0.44042
 C235 C 0.78653 0.05910 0.42832
 C236 C 0.79226 -0.07476 0.55678
 O237 O 0.45150 0.23782 0.02511
 O238 O 0.53792 0.22086 -0.06233
 O239 O 0.53247 0.21867 0.02555
 O240 O 0.45812 0.24371 -0.06406
 O241 O 0.47102 0.32360 -0.07128
 O242 O 0.54531 0.29863 0.01747
 O243 O 0.55185 0.30050 -0.06948
 O244 O 0.46390 0.31786 0.01681
 Cu245 Cu 0.49336 0.22230 -0.01812
 Cu246 Cu 0.50920 0.31818 -0.02729
 C247 C 0.44310 0.28061 0.03597
 C248 C 0.55990 0.25756 -0.08038
 C249 C 0.55204 0.25476 0.03617
 C250 C 0.45239 0.28770 -0.08325
 O251 O 0.51989 0.79582 0.05441
 O252 O 0.45271 0.74103 -0.01877
 O253 O 0.43980 0.77800 0.05634
 O254 O 0.53309 0.75535 -0.02033
 O255 O 0.54354 0.68244 0.01984
 O256 O 0.44820 0.70350 0.09456
 O257 O 0.46179 0.66686 0.01972
 O258 O 0.52908 0.72302 0.09527
 Cu259 Cu 0.48576 0.77494 0.01404
 Cu260 Cu 0.49707 0.68658 0.06141
 C261 C 0.53540 0.76940 0.08757
 C262 C 0.44523 0.69507 -0.01199
 C263 C 0.42754 0.74397 0.08774
 C264 C 0.55390 0.71484 -0.01364
 O265 O 0.03964 0.48466 0.16295
 O266 O -0.04614 0.57282 0.12957
 O267 O 0.03345 0.57959 0.14248
 O268 O -0.04048 0.47682 0.14888
 O269 O -0.05664 0.48148 0.22170
 O270 O 0.01371 0.58659 0.21417
 O271 O -0.06584 0.57701 0.20178
 O272 O 0.02182 0.49123 0.23512
 Cu273 Cu -0.00171 0.52767 0.13863
 Cu274 Cu -0.02358 0.53484 0.22545
 C275 C 0.04551 0.47330 0.20477
 C276 C -0.07056 0.58985 0.15987
 C277 C 0.03585 0.60068 0.17743
 C278 C -0.06073 0.46146 0.18652
 O279 O 0.03890 0.46723 0.86096
 O280 O -0.03557 0.42748 0.78416
 O281 O 0.04379 0.41000 0.79805
 O282 O -0.04082 0.48229 0.85072
 O283 O -0.02676 0.54682 0.79884
 O284 O 0.06427 0.47648 0.75130
 O285 O -0.01570 0.49076 0.73321
 O286 O 0.05410 0.53413 0.81225
 Cu287 Cu -0.00043 0.44029 0.82834
 Cu288 Cu 0.02015 0.51863 0.76854
 C289 C 0.05921 0.50711 0.84970
 C290 C -0.03738 0.45207 0.74491
 C291 C 0.06947 0.43123 0.76717
 C292 C -0.04821 0.52662 0.83416
 N293 N 0.39593 0.25070 0.09811
 N294 N 0.40991 0.28720 0.07021
 N295 N 0.57875 0.77170 0.14768
 N296 N 0.55982 0.79346 0.11608
 N297 N 0.62403 0.28088 -0.12258
 N298 N 0.59433 0.24989 -0.11295
 N299 N 0.40817 0.70240 -0.07664
 N300 N 0.41729 0.67557 -0.04025
 N301 N 0.10922 0.42968 0.18992
 N302 N 0.07893 0.43964 0.21818
 N303 N 0.11514 0.55294 0.86771
 N304 N 0.08827 0.52099 0.87980
 N305 N -0.13147 0.63748 0.17316
 N306 N -0.10357 0.62397 0.14599
 N307 N -0.08663 0.40012 0.72194
 N308 N -0.06375 0.43651 0.71293
 N309 N 0.21891 0.11884 0.41152
 N310 N 0.24907 0.09060 0.42565
 N311 N 0.76735 0.10324 0.60160
 N312 N 0.79933 0.08953 0.57728
 N313 N 0.25304 -0.14415 0.64254
 N314 N 0.21995 -0.12623 0.62443
 N315 N 0.74220 -0.11571 0.39910
 N316 N 0.77828 -0.10285 0.40898
 N317 N 0.59457 0.73244 -0.08272
 N318 N 0.58886 0.70511 -0.04472
 N319 N 0.41662 0.26184 -0.14086
 N320 N 0.42544 0.29691 -0.11957
 N321 N 0.37479 0.79327 0.12037
 N322 N 0.38922 0.75042 0.11491
 N323 N 0.60908 0.27966 0.07117
 N324 N 0.58293 0.24593 0.06867
 N325 N -0.10766 0.57919 0.83800
 N326 N -0.07990 0.55406 0.85738
 N327 N -0.10453 0.40914 0.15526
 N328 N -0.08887 0.42129 0.18989
 N329 N 0.14147 0.42285 0.74213
 N330 N 0.10518 0.40360 0.75148
 N331 N 0.06322 0.66544 0.20856
 N332 N 0.06444 0.64021 0.17576
 N333 N 0.75896 -0.13011 0.61443
 N334 N 0.79347 -0.11413 0.59349
 N335 N 0.20026 -0.10970 0.41550
 N336 N 0.23424 -0.09867 0.43129
 N337 N 0.75127 0.10615 0.37008
 N338 N 0.78534 0.09574 0.38950
 N339 N 0.26862 0.09245 0.62388
 N340 N 0.23384 0.08121 0.60986
   
