data_POSCAR
  _audit_creation_date              2014-09-24
  _audit_creation_method            'ToBaCCo'
  _symmetry_space_group_name_H-M    'P1'
  _symmetry_Int_Tables_number       1
  _symmetry_cell_setting            triclinic
  loop_
  _symmetry_equiv_pos_as_xyz
 x,y,z
_cell_length_a 51.9627
_cell_length_b 50.3537
_cell_length_c 29.5001
_cell_angle_alpha 89.992800
_cell_angle_beta 89.990600
_cell_angle_gamma 120.811700
loop_
  _atom_site_label
  _atom_site_type_symbol
  _atom_site_fract_x
  _atom_site_fract_y
  _atom_site_fract_z
C1 C 0.44294 0.90466 0.47896
 C2 C 0.44371 0.90458 0.52544
 C3 C 0.46567 0.93412 0.53872
 N4 N 0.47843 0.95200 0.50180
 C5 C 0.46445 0.93417 0.46530
 C6 C 0.47624 0.94316 0.58359
 C7 C 0.49827 0.97401 0.59515
 C8 C 0.51422 0.98300 0.63556
 C9 C 0.53078 1.01470 0.63553
 C10 C 0.52400 1.02452 0.59574
 N11 N 0.50445 0.99955 0.57105
 C12 C 0.53457 1.05590 0.58436
 C13 C 0.53444 1.06511 0.53891
 C14 C 0.53857 1.09349 0.52552
 C15 C 0.53810 1.09345 0.47908
 C16 C 0.53298 1.06483 0.46556
 N17 N 0.53080 1.04752 0.50206
 C18 C 0.53162 1.05562 0.42005
 C19 C 0.51987 1.02453 0.40700
 C20 C 0.52277 1.01499 0.36420
 C21 C 0.50588 0.98322 0.36405
 C22 C 0.49327 0.97423 0.40686
 N23 N 0.50184 0.99959 0.43276
 C24 C 0.47271 0.94342 0.41987
 H25 H 0.42874 0.88498 0.45768
 H26 H 0.43035 0.88466 0.54677
 H27 H 0.49306 1.00011 0.46415
 H28 H 0.51378 0.96847 0.66289
 H29 H 0.54575 1.02892 0.66230
 H30 H 0.54130 1.11223 0.54686
 H31 H 0.54069 1.11215 0.45770
 H32 H 0.50289 0.96851 0.33537
 H33 H 0.49306 1.00007 0.54237
 H34 H 0.53529 1.02942 0.33574
 C35 C -0.08648 0.48354 0.52547
 C36 C -0.08672 0.48405 0.47907
 C37 C -0.06240 0.48197 0.46471
 N38 N -0.04709 0.48055 0.50085
 C39 C -0.06208 0.48107 0.53808
 C40 C -0.05507 0.48054 0.41885
 C41 C -0.02563 0.48831 0.40642
 C42 C -0.01780 0.47990 0.36618
 C43 C 0.01290 0.49417 0.36573
 C44 C 0.02297 0.51034 0.40608
 N45 N -0.00061 0.50651 0.43089
 C46 C 0.05343 0.52944 0.41786
 C47 C 0.06303 0.53807 0.46293
 C48 C 0.09220 0.55886 0.47617
 C49 C 0.09240 0.55837 0.52270
 C50 C 0.06331 0.53741 0.53613
 N51 N 0.04545 0.52494 0.49958
 C52 C 0.05412 0.52777 0.58105
 C53 C 0.02384 0.50797 0.59319
 C54 C 0.01421 0.49116 0.63310
 C55 C -0.01651 0.47670 0.63342
 C56 C -0.02480 0.48582 0.59431
 N57 N -0.00004 0.50448 0.56959
 C58 C -0.05434 0.47848 0.58331
 H59 H -0.10225 0.48526 0.54743
 H60 H -0.10270 0.48621 0.45827
 H61 H 0.00075 0.51701 0.54100
 H62 H -0.03262 0.46513 0.33968
 H63 H 0.02630 0.49272 0.33882
 H64 H 0.11142 0.57248 0.45458
 H65 H 0.11184 0.57143 0.54410
 H66 H -0.03102 0.46148 0.65983
 H67 H 0.00049 0.51840 0.46041
 H68 H 0.02784 0.48947 0.65935
 C69 C 0.45398 0.54800 0.47891
 C70 C 0.45424 0.54812 0.52535
 C71 C 0.46515 0.52928 0.53892
 N72 N 0.47097 0.51728 0.50201
 C73 C 0.46446 0.52892 0.46537
 C74 C 0.46614 0.52043 0.58432
 C75 C 0.47771 0.50107 0.59605
 C76 C 0.47379 0.48646 0.63763
 C77 C 0.49042 0.47239 0.63672
 C78 C 0.50515 0.47955 0.59536
 N79 N 0.49705 0.49678 0.57057
 C80 C 0.52658 0.47132 0.58253
 C81 C 0.53493 0.47174 0.53661
 C82 C 0.55947 0.47004 0.52206
 C83 C 0.55876 0.46969 0.47565
 C84 C 0.53421 0.47186 0.46326
 N85 N 0.51961 0.47305 0.50047
 C86 C 0.52499 0.47136 0.41816
 C87 C 0.50402 0.47997 0.40583
 C88 C 0.49072 0.47506 0.36352
 C89 C 0.47407 0.48922 0.36393
 C90 C 0.47749 0.50221 0.40660
 N91 N 0.49589 0.49657 0.43184
 C92 C 0.46549 0.52063 0.41996
 H93 H 0.44607 0.55986 0.45764
 H94 H 0.44611 0.55987 0.54637
 H95 H 0.50531 0.50663 0.46283
 H96 H 0.46087 0.48616 0.66650
 H97 H 0.49182 0.45882 0.66400
 H98 H 0.57637 0.46939 0.54266
 H99 H 0.57472 0.46844 0.45352
 H100 H 0.46129 0.49019 0.33570
 H101 H 0.50711 0.50815 0.54051
 H102 H 0.49321 0.46304 0.33500
 O103 O 0.37325 0.65133 -0.03515
 O104 O 0.37414 0.70292 -0.05086
 C105 C 0.36100 0.71761 -0.06025
 O106 O 0.33831 0.71397 -0.03833
 O107 O 0.28825 0.66247 -0.05350
 C108 C 0.27363 0.63376 -0.06191
 O109 O 0.27654 0.61416 -0.03870
 O110 O 0.32636 0.61468 -0.05160
 C111 C 0.35432 0.62846 -0.05876
 O112 O 0.37093 0.66044 0.05444
 O113 O 0.37456 0.71317 0.03904
 C114 C 0.35612 0.71776 0.06101
 O115 O 0.32843 0.70401 0.05167
 O116 O 0.27714 0.65372 0.03631
 C117 C 0.27217 0.63022 0.05947
 O118 O 0.28531 0.61530 0.05178
 O119 O 0.33365 0.61272 0.03903
 C120 C 0.35619 0.63169 0.06259
 Cr121 Cr 0.37160 0.68116 0.00178
 Cr122 Cr 0.30880 0.68269 -0.00090
 Cr123 Cr 0.30632 0.61587 0.00014
 O124 O 0.32890 0.65992 0.00035
 O125 O 0.62532 0.34626 -0.03716
 O126 O 0.62739 0.29624 -0.05158
 C127 C 0.64136 0.28215 -0.05910
 O128 O 0.66366 0.28648 -0.03533
 O129 O 0.71300 0.33910 -0.05001
 C130 C 0.72664 0.36774 -0.05908
 O131 O 0.72239 0.38693 -0.03711
 O132 O 0.67177 0.38417 -0.05250
 C133 C 0.64390 0.36942 -0.06062
 O134 O 0.62665 0.33751 0.05287
 O135 O 0.62546 0.28574 0.03838
 C136 C 0.64404 0.28253 0.06232
 O137 O 0.67197 0.29766 0.05481
 O138 O 0.72246 0.34881 0.03984
 C139 C 0.72621 0.37216 0.06214
 O140 O 0.71224 0.38604 0.05300
 O141 O 0.66269 0.38589 0.03749
 C142 C 0.64028 0.36631 0.06075
 Cr143 Cr 0.62780 0.31729 0.00064
 Cr144 Cr 0.69195 0.31880 0.00227
 Cr145 Cr 0.69150 0.38412 0.00027
 O146 O 0.67046 0.34010 0.00101
 C147 C 0.44199 0.87508 -0.31350
 C148 C 0.42396 0.88539 -0.33295
 C149 C 0.43526 0.90770 -0.36720
 C150 C 0.46494 0.92044 -0.38224
 C151 C 0.48289 0.90990 -0.36319
 C152 C 0.47150 0.88739 -0.32919
 C153 C 0.43009 0.85175 -0.27666
 C154 C 0.43521 0.82693 -0.27685
 C155 C 0.42388 0.80492 -0.24213
 C156 C 0.40737 0.80738 -0.20626
 C157 C 0.40244 0.83237 -0.20607
 C158 C 0.41356 0.85421 -0.24095
 C159 C 0.39537 0.78407 -0.16917
 C160 C 0.36718 0.77454 -0.14992
 C161 C 0.35608 0.75302 -0.11459
 C162 C 0.37279 0.74032 -0.09785
 C163 C 0.40084 0.74959 -0.11736
 C164 C 0.41204 0.77129 -0.15248
 H165 H 0.40102 0.87598 -0.32191
 H166 H 0.42095 0.91533 -0.38165
 H167 H 0.50570 0.91906 -0.37477
 H168 H 0.48590 0.87994 -0.31463
 H169 H 0.44758 0.82428 -0.30427
 H170 H 0.42768 0.78572 -0.24376
 H171 H 0.39035 0.83534 -0.17855
 H172 H 0.40967 0.87337 -0.23962
 H173 H 0.35349 0.78345 -0.16249
 H174 H 0.33426 0.74617 -0.10063
 H175 H 0.41434 0.74035 -0.10512
 H176 H 0.43402 0.77845 -0.16603
 C177 C 0.12146 0.55830 -0.31533
 C178 C 0.11037 0.57724 -0.32942
 C179 C 0.08836 0.56716 -0.36297
 C180 C 0.07729 0.53813 -0.38319
 C181 C 0.08843 0.51924 -0.36961
 C182 C 0.11023 0.52916 -0.33569
 C183 C 0.14453 0.56893 -0.27930
 C184 C 0.14180 0.54899 -0.24391
 C185 C 0.16309 0.55935 -0.20918
 C186 C 0.18772 0.58981 -0.20930
 C187 C 0.19063 0.60956 -0.24521
 C188 C 0.16921 0.59927 -0.27969
 C189 C 0.21002 0.60111 -0.17182
 C190 C 0.22263 0.63153 -0.15555
 C191 C 0.24340 0.64216 -0.12015
 C192 C 0.25188 0.62255 -0.09983
 C193 C 0.23930 0.59213 -0.11600
 C194 C 0.21870 0.58157 -0.15169
 H195 H 0.11842 0.59965 -0.31398
 H196 H 0.07995 0.58197 -0.37325
 H197 H 0.08013 0.49682 -0.38519
 H198 H 0.11859 0.51426 -0.32573
 H199 H 0.12280 0.52560 -0.24253
 H200 H 0.15986 0.54368 -0.18171
 H201 H 0.20961 0.63294 -0.24690
 H202 H 0.17207 0.61497 -0.30695
 H203 H 0.21607 0.64704 -0.16966
 H204 H 0.25253 0.66567 -0.10832
 H205 H 0.24555 0.57651 -0.10132
 H206 H 0.20981 0.55818 -0.16384
 C207 C 0.43184 0.55224 -0.31194
 C208 C 0.41816 0.52045 -0.32155
 C209 C 0.42914 0.50994 -0.35610
 C210 C 0.45460 0.53085 -0.38109
 C211 C 0.46817 0.56261 -0.37180
 C212 C 0.45681 0.57318 -0.33795
 C213 C 0.42025 0.56350 -0.27493
 C214 C 0.43989 0.58985 -0.24946
 C215 C 0.42909 0.60051 -0.21490
 C216 C 0.39839 0.58477 -0.20405
 C217 C 0.37877 0.55828 -0.22927
 C218 C 0.38949 0.54798 -0.26448
 C219 C 0.38697 0.59589 -0.16660
 C220 C 0.35821 0.59214 -0.16890
 C221 C 0.34747 0.60236 -0.13361
 C222 C 0.36546 0.61719 -0.09567
 C223 C 0.39424 0.62126 -0.09337
 C224 C 0.40474 0.61042 -0.12813
 H225 H 0.39913 0.50352 -0.30208
 H226 H 0.41766 0.48540 -0.36340
 H227 H 0.48770 0.57928 -0.39076
 H228 H 0.46754 0.59786 -0.33250
 H229 H 0.46377 0.60219 -0.25580
 H230 H 0.44491 0.62130 -0.19695
 H231 H 0.35507 0.54517 -0.22161
 H232 H 0.37353 0.52794 -0.28369
 H233 H 0.34407 0.58171 -0.19825
 H234 H 0.32529 0.59920 -0.13642
 H235 H 0.40845 0.63235 -0.06424
 H236 H 0.42667 0.61312 -0.12445
 C237 C 0.56749 0.12346 -0.31069
 C238 C 0.54067 0.09506 -0.30508
 C239 C 0.52994 0.07290 -0.33949
 C240 C 0.54574 0.07847 -0.38061
 C241 C 0.57279 0.10690 -0.38589
 C242 C 0.58347 0.12908 -0.35145
 C243 C 0.57865 0.14714 -0.27419
 C244 C 0.60939 0.16478 -0.26408
 C245 C 0.61980 0.18695 -0.22960
 C246 C 0.59971 0.19196 -0.20438
 C247 C 0.56898 0.17433 -0.21455
 C248 C 0.55858 0.15224 -0.24907
 C249 C 0.61069 0.21536 -0.16749
 C250 C 0.59802 0.23392 -0.16089
 C251 C 0.60798 0.25559 -0.12580
 C252 C 0.63095 0.25930 -0.09652
 C253 C 0.64380 0.24090 -0.10333
 C254 C 0.63374 0.21916 -0.13836
 H255 H 0.52801 0.08983 -0.27387
 H256 H 0.50883 0.05156 -0.33429
 H257 H 0.58605 0.11179 -0.41644
 H258 H 0.60411 0.15081 -0.35698
 H259 H 0.62540 0.16121 -0.28246
 H260 H 0.64364 0.20037 -0.22297
 H261 H 0.55286 0.17735 -0.19544
 H262 H 0.53481 0.13932 -0.25636
 H263 H 0.58056 0.23194 -0.18318
 H264 H 0.59773 0.26952 -0.12174
 H265 H 0.66147 0.24309 -0.08135
 H266 H 0.64370 0.20494 -0.14213
 C267 C 0.87948 0.44707 -0.31259
 C268 C 0.87234 0.43337 -0.35578
 C269 C 0.89402 0.44365 -0.38988
 C270 C 0.92350 0.46822 -0.38205
 C271 C 0.93038 0.48221 -0.33888
 C272 C 0.90878 0.47166 -0.30463
 C273 C 0.85657 0.43554 -0.27588
 C274 C 0.85595 0.45606 -0.24417
 C275 C 0.83482 0.44513 -0.20919
 C276 C 0.81351 0.41341 -0.20528
 C277 C 0.81391 0.39294 -0.23732
 C278 C 0.83526 0.40383 -0.27196
 C279 C 0.79114 0.40169 -0.16781
 C280 C 0.78197 0.37292 -0.14741
 C281 C 0.76090 0.36183 -0.11238
 C282 C 0.74879 0.37943 -0.09641
 C283 C 0.75802 0.40824 -0.11650
 C284 C 0.77880 0.41915 -0.15198
 H285 H 0.84991 0.41467 -0.36342
 H286 H 0.88782 0.43173 -0.42217
 H287 H 0.95245 0.50175 -0.33166
 H288 H 0.91522 0.48260 -0.27169
 H289 H 0.87170 0.48068 -0.24646
 H290 H 0.83549 0.46155 -0.18484
 H291 H 0.79759 0.36844 -0.23587
 H292 H 0.83527 0.38726 -0.29531
 H293 H 0.79139 0.35910 -0.15802
 H294 H 0.75441 0.33964 -0.09733
 H295 H 0.74886 0.42219 -0.10522
 H296 H 0.78487 0.44112 -0.16739
 C297 C 0.56383 0.44180 -0.31458
 C298 C 0.55291 0.42490 -0.35500
 C299 C 0.54082 0.43464 -0.38890
 C300 C 0.53937 0.46166 -0.38339
 C301 C 0.55057 0.47864 -0.34292
 C302 C 0.56259 0.46883 -0.30901
 C303 C 0.57611 0.43107 -0.27811
 C304 C 0.60137 0.45237 -0.25307
 C305 C 0.61257 0.44229 -0.21827
 C306 C 0.59883 0.41067 -0.20772
 C307 C 0.57371 0.38936 -0.23299
 C308 C 0.56247 0.39944 -0.26772
 C309 C 0.61044 0.39998 -0.17023
 C310 C 0.59059 0.37607 -0.14117
 C311 C 0.60144 0.36610 -0.10575
 C312 C 0.63243 0.37989 -0.09840
 C313 C 0.65230 0.40379 -0.12750
 C314 C 0.64143 0.41369 -0.16302
 H315 H 0.55380 0.40413 -0.36055
 H316 H 0.53188 0.42055 -0.41906
 H317 H 0.55035 0.49982 -0.33769
 H318 H 0.57054 0.48222 -0.27808
 H319 H 0.61261 0.47685 -0.26056
 H320 H 0.63176 0.45934 -0.19915
 H321 H 0.56282 0.36482 -0.22611
 H322 H 0.54278 0.38247 -0.28599
 H323 H 0.56659 0.36535 -0.14535
 H324 H 0.58549 0.34771 -0.08391
 H325 H 0.67631 0.41478 -0.12299
 H326 H 0.65733 0.43184 -0.18520
 C327 C 0.87782 0.45038 0.31665
 C328 C 0.90665 0.47588 0.30905
 C329 C 0.92861 0.48598 0.34270
 C330 C 0.92240 0.47082 0.38497
 C331 C 0.89326 0.44552 0.39259
 C332 C 0.87133 0.43545 0.35891
 C333 C 0.85479 0.43901 0.28032
 C334 C 0.83583 0.40713 0.27297
 C335 C 0.81464 0.39636 0.23814
 C336 C 0.81191 0.41722 0.20978
 C337 C 0.83067 0.44912 0.21739
 C338 C 0.85189 0.45989 0.25224
 C339 C 0.78986 0.40572 0.17205
 C340 C 0.77330 0.41996 0.16193
 C341 C 0.75265 0.40912 0.12628
 C342 C 0.74811 0.38379 0.09993
 C343 C 0.76469 0.36957 0.11012
 C344 C 0.78532 0.38042 0.14570
 H345 H 0.91243 0.48777 0.27675
 H346 H 0.95043 0.50603 0.33581
 H347 H 0.88762 0.43280 0.42421
 H348 H 0.84923 0.41593 0.36599
 H349 H 0.83772 0.39044 0.29367
 H350 H 0.80028 0.37165 0.23352
 H351 H 0.82931 0.46578 0.19588
 H352 H 0.86594 0.48459 0.25734
 H353 H 0.77602 0.43925 0.18195
 H354 H 0.74017 0.42053 0.11950
 H355 H 0.76185 0.35008 0.09048
 H356 H 0.79806 0.36925 0.15219
 C357 C 0.56489 0.12484 0.31520
 C358 C 0.53418 0.10243 0.31786
 C359 C 0.52338 0.08003 0.35199
 C360 C 0.54304 0.07970 0.38421
 C361 C 0.57361 0.10212 0.38206
 C362 C 0.58447 0.12445 0.34781
 C363 C 0.57648 0.14831 0.27834
 C364 C 0.59946 0.17891 0.28685
 C365 C 0.61049 0.20086 0.25204
 C366 C 0.59867 0.19274 0.20803
 C367 C 0.57565 0.16222 0.19951
 C368 C 0.56475 0.14023 0.23421
 C369 C 0.61032 0.21599 0.17105
 C370 C 0.59054 0.21778 0.14047
 C371 C 0.60147 0.23949 0.10539
 C372 C 0.63246 0.25976 0.09988
 C373 C 0.65224 0.25797 0.13055
 C374 C 0.64127 0.23640 0.16584
 H375 H 0.51843 0.10238 0.29379
 H376 H 0.49968 0.06296 0.35340
 H377 H 0.58907 0.10207 0.40662
 H378 H 0.60828 0.14106 0.34638
 H379 H 0.60865 0.18604 0.32058
 H380 H 0.62796 0.22432 0.25970
 H381 H 0.56644 0.15521 0.16575
 H382 H 0.54746 0.11675 0.22627
 H383 H 0.56655 0.20257 0.14399
 H384 H 0.58560 0.24027 0.08244
 H385 H 0.67624 0.27327 0.12734
 H386 H 0.65704 0.23533 0.18867
 C387 C 0.56175 0.44146 0.31281
 C388 C 0.54246 0.42049 0.34580
 C389 C 0.53069 0.43028 0.38014
 C390 C 0.53781 0.46113 0.38198
 C391 C 0.55702 0.48216 0.34929
 C392 C 0.56896 0.47245 0.31508
 C393 C 0.57409 0.43097 0.27606
 C394 C 0.57728 0.44260 0.23176
 C395 C 0.58858 0.43250 0.19713
 C396 C 0.59672 0.41035 0.20592
 C397 C 0.59362 0.39875 0.25013
 C398 C 0.58254 0.40902 0.28485
 C399 C 0.60811 0.39916 0.16897
 C400 C 0.59765 0.36746 0.16433
 C401 C 0.60803 0.35681 0.12916
 C402 C 0.62932 0.37766 0.09806
 C403 C 0.63996 0.40941 0.10295
 C404 C 0.62935 0.42002 0.13790
 H405 H 0.53605 0.39638 0.34467
 H406 H 0.51577 0.41375 0.40508
 H407 H 0.56283 0.50611 0.35046
 H408 H 0.58410 0.48930 0.29070
 H409 H 0.57051 0.45911 0.22361
 H410 H 0.59037 0.44152 0.16321
 H411 H 0.60012 0.38198 0.25797
 H412 H 0.58091 0.40000 0.31872
 H413 H 0.58106 0.35084 0.18755
 H414 H 0.59942 0.33221 0.12644
 H415 H 0.65637 0.42609 0.07960
 H416 H 0.63800 0.44461 0.14096
 C417 C 0.11930 0.55917 0.31182
 C418 C 0.11760 0.53845 0.34531
 C419 C 0.09628 0.52886 0.37991
 C420 C 0.07624 0.53970 0.38141
 C421 C 0.07769 0.56015 0.34789
 C422 C 0.09913 0.56992 0.31348
 C423 C 0.14203 0.56955 0.27524
 C424 C 0.15825 0.60078 0.26223
 C425 C 0.17953 0.61058 0.22758
 C426 C 0.18493 0.58933 0.20490
 C427 C 0.16868 0.55807 0.21804
 C428 C 0.14754 0.54832 0.25293
 C429 C 0.20728 0.59973 0.16756
 C430 C 0.22572 0.58704 0.16242
 C431 C 0.24668 0.59681 0.12726
 C432 C 0.24980 0.61964 0.09655
 C433 C 0.23141 0.63237 0.10174
 C434 C 0.21034 0.62246 0.13671
 H435 H 0.13303 0.53000 0.34505
 H436 H 0.09534 0.51296 0.40551
 H437 H 0.06225 0.56859 0.34852
 H438 H 0.09970 0.58559 0.28781
 H439 H 0.15476 0.61771 0.27932
 H440 H 0.19204 0.63490 0.21894
 H441 H 0.17191 0.54101 0.20081
 H442 H 0.13508 0.52404 0.26189
 H443 H 0.22428 0.56984 0.18599
 H444 H 0.26063 0.58666 0.12442
 H445 H 0.23311 0.64987 0.07854
 H446 H 0.19616 0.63235 0.13919
 C447 C 0.43625 0.87427 0.31525
 C448 C 0.41985 0.88740 0.33189
 C449 C 0.43171 0.90985 0.36594
 C450 C 0.46004 0.91939 0.38412
 C451 C 0.47639 0.90622 0.36812
 C452 C 0.46467 0.88394 0.33384
 C453 C 0.42392 0.85080 0.27841
 C454 C 0.42873 0.82574 0.27844
 C455 C 0.41758 0.80400 0.24341
 C456 C 0.40117 0.80668 0.20772
 C457 C 0.39611 0.83154 0.20779
 C458 C 0.40745 0.85341 0.24264
 C459 C 0.38954 0.78376 0.17034
 C460 C 0.36028 0.77190 0.15393
 C461 C 0.34936 0.75036 0.11861
 C462 C 0.36758 0.74044 0.09865
 C463 C 0.39689 0.75238 0.11507
 C464 C 0.40769 0.77371 0.15065
 H465 H 0.39772 0.88013 0.31890
 H466 H 0.41880 0.91977 0.37823
 H467 H 0.49835 0.91348 0.38186
 H468 H 0.47809 0.87468 0.32138
 H469 H 0.44084 0.82270 0.30586
 H470 H 0.42145 0.78482 0.24451
 H471 H 0.38388 0.83440 0.18037
 H472 H 0.40377 0.87270 0.24109
 H473 H 0.34571 0.77903 0.16879
 H474 H 0.32668 0.74162 0.10679
 H475 H 0.41149 0.74517 0.10055
 H476 H 0.43044 0.78270 0.16236
 C477 C 0.42930 0.55233 0.31658
 C478 C 0.45848 0.57179 0.33316
 C479 C 0.47021 0.56139 0.36669
 C480 C 0.45289 0.53147 0.38437
 C481 C 0.42369 0.51201 0.36826
 C482 C 0.41202 0.52230 0.33441
 C483 C 0.41710 0.56332 0.28053
 C484 C 0.40152 0.54424 0.24354
 C485 C 0.39094 0.55504 0.20878
 C486 C 0.39554 0.58509 0.21042
 C487 C 0.41068 0.60393 0.24791
 C488 C 0.42143 0.59321 0.28247
 C489 C 0.38516 0.59699 0.17281
 C490 C 0.40278 0.62785 0.15838
 C491 C 0.39328 0.63909 0.12285
 C492 C 0.36600 0.61970 0.10058
 C493 C 0.34835 0.58882 0.11494
 C494 C 0.35779 0.57762 0.15071
 H495 H 0.47239 0.59490 0.31968
 H496 H 0.49280 0.57661 0.37887
 H497 H 0.41006 0.48887 0.38180
 H498 H 0.38938 0.50695 0.32253
 H499 H 0.39817 0.52123 0.24093
 H500 H 0.37978 0.54009 0.18010
 H501 H 0.41408 0.62695 0.25072
 H502 H 0.43295 0.60823 0.31095
 H503 H 0.42422 0.64325 0.17407
 H504 H 0.40751 0.66295 0.11251
 H505 H 0.32712 0.57333 0.09872
 H506 H 0.34348 0.55386 0.16139
   
