data_POSCAR
  _audit_creation_date              2014-09-24
  _audit_creation_method            'ToBaCCo'
  _symmetry_space_group_name_H-M    'P1'
  _symmetry_Int_Tables_number       1
  _symmetry_cell_setting            triclinic
  loop_
  _symmetry_equiv_pos_as_xyz
 x,y,z
_cell_length_a 41.3776
_cell_length_b 39.1154
_cell_length_c 43.1178
_cell_angle_alpha 92.421300
_cell_angle_beta 89.843700
_cell_angle_gamma 89.557200
loop_
  _atom_site_label
  _atom_site_type_symbol
  _atom_site_fract_x
  _atom_site_fract_y
  _atom_site_fract_z
N1 N 0.16955 1.24762 0.17373
 N2 N 0.14307 1.23962 0.18855
 C3 C 0.11852 1.25928 0.17916
 C4 C 0.13016 1.28142 0.15747
 C5 C 0.16292 1.27338 0.15489
 H6 H 0.09418 1.25794 0.18811
 H7 H 0.18045 1.28438 0.13966
 Cu8 Cu 0.14320 1.20546 0.21983
 Cu9 Cu 0.21000 1.22259 0.17941
 Cu10 Cu 0.20284 1.14775 0.21978
 N11 N 0.14771 1.17414 0.25333
 N12 N 0.17087 1.15104 0.25310
 C13 C 0.16693 1.13100 0.27743
 C14 C 0.13970 1.14224 0.29409
 C15 C 0.12837 1.16993 0.27794
 H16 H 0.18254 1.10954 0.28207
 H17 H 0.10710 1.18538 0.28293
 N18 N 0.24003 1.15728 0.19310
 N19 N 0.24311 1.18580 0.17809
 C20 C 0.27030 1.18367 0.16079
 C21 C 0.28514 1.15238 0.16534
 C22 C 0.26524 1.13647 0.18609
 H23 H 0.27820 1.20313 0.14545
 H24 H 0.26819 1.11104 0.19460
 H25 H 0.18416 1.17930 0.18555
 H26 H 0.20188 1.19926 0.22166
 N27 N 0.80394 0.76684 0.15884
 N28 N 0.82608 0.76493 0.18048
 C29 C 0.84575 0.73807 0.17347
 C30 C 0.83538 0.72225 0.14586
 C31 C 0.80869 0.74133 0.13740
 H32 H 0.86647 0.73111 0.18708
 H33 H 0.79430 0.73778 0.11667
 Cu34 Cu 0.82780 0.79933 0.21438
 Cu35 Cu 0.77193 0.80362 0.15860
 Cu36 Cu 0.77566 0.86544 0.21864
 N37 N 0.82992 0.83385 0.24815
 N38 N 0.80945 0.85970 0.24953
 C39 C 0.81670 0.88054 0.27410
 C40 C 0.84339 0.86721 0.28913
 C41 C 0.85095 0.83736 0.27184
 H42 H 0.80365 0.90392 0.28006
 H43 H 0.87065 0.81979 0.27565
 N44 N 0.74331 0.86651 0.18511
 N45 N 0.74178 0.84283 0.16245
 C46 C 0.71801 0.85114 0.14283
 C47 C 0.70385 0.88161 0.15351
 C48 C 0.72054 0.89054 0.18043
 H49 H 0.71216 0.83665 0.12173
 H50 H 0.71663 0.91309 0.19535
 H51 H 0.79955 0.83983 0.18243
 H52 H 0.77135 0.81434 0.20592
 N53 N 0.82579 1.24130 -0.17416
 N54 N 0.84797 1.23932 -0.19621
 C55 C 0.86941 1.26463 -0.19119
 C56 C 0.86050 1.28354 -0.16459
 C57 C 0.83260 1.26794 -0.15451
 H58 H 0.89041 1.26846 -0.20550
 H59 H 0.81882 1.27473 -0.13382
 Cu60 Cu 0.84920 1.20257 -0.22887
 Cu61 Cu 0.79050 1.20795 -0.17121
 Cu62 Cu 0.79039 1.14418 -0.22602
 N63 N 0.84643 1.16433 -0.25911
 N64 N 0.82355 1.14134 -0.25813
 C65 C 0.82874 1.11721 -0.28085
 C66 C 0.85657 1.12538 -0.29705
 C67 C 0.86694 1.15570 -0.28245
 H68 H 0.81370 1.09502 -0.28470
 H69 H 0.88820 1.17023 -0.28772
 N70 N 0.75748 1.14755 -0.19371
 N71 N 0.75762 1.17249 -0.17232
 C72 C 0.73325 1.16786 -0.15219
 C73 C 0.71695 1.13830 -0.16135
 C74 C 0.73306 1.12621 -0.18789
 H75 H 0.72847 1.18424 -0.13185
 H76 H 0.72770 1.10330 -0.20172
 H77 H 0.82636 1.17866 -0.19298
 H78 H 0.80048 1.20521 -0.21813
 N79 N 0.17990 0.74665 -0.16157
 N80 N 0.15697 0.75144 -0.18201
 C81 C 0.13309 0.72897 -0.17763
 C82 C 0.14159 0.70886 -0.15328
 C83 C 0.17155 0.72065 -0.14373
 H84 H 0.11078 0.72789 -0.19062
 H85 H 0.18515 0.71246 -0.12396
 Cu86 Cu 0.15896 0.78789 -0.21117
 Cu87 Cu 0.21606 0.77797 -0.15653
 Cu88 Cu 0.22425 0.83877 -0.21196
 N89 N 0.16745 0.81759 -0.24524
 N90 N 0.19269 0.83770 -0.24536
 C91 C 0.19161 0.85658 -0.27072
 C92 C 0.16409 0.84788 -0.28767
 C93 C 0.14953 0.82278 -0.27062
 H94 H 0.20945 0.87549 -0.27603
 H95 H 0.12712 0.80973 -0.27566
 N96 N 0.25366 0.83560 -0.17634
 N97 N 0.25075 0.81224 -0.15535
 C98 C 0.27300 0.81806 -0.13304
 C99 C 0.29083 0.84653 -0.14027
 C100 C 0.27786 0.85684 -0.16799
 H101 H 0.27540 0.80322 -0.11259
 H102 H 0.28457 0.87907 -0.18051
 H103 H 0.19577 0.81990 -0.17697
 H104 H 0.21705 0.78769 -0.20332
 C105 C 0.49707 1.02249 -0.00375
 C106 C -0.00147 0.50014 1.00327
 C107 C 1.01898 -0.02336 0.49916
 C108 C 0.06029 0.32873 1.12531
 C109 C 0.07547 0.35377 1.10778
 C110 C 0.10963 0.35557 1.10874
 C111 C 0.12773 0.33123 1.12463
 C112 C 0.11229 0.30587 1.14139
 C113 C 0.07834 0.30555 1.14191
 C114 C 0.12552 0.38177 1.09399
 C115 C 0.10816 0.40655 1.07867
 C116 C 0.07417 0.40516 1.07633
 C117 C 0.05779 0.37733 1.08978
 C118 C 0.02447 0.37326 1.08393
 C119 C 0.00762 0.39592 1.06598
 C120 C 0.02294 0.42416 1.05405
 C121 C 0.05606 0.42991 1.05996
 C122 C 0.06932 0.46078 1.05008
 C123 C 0.05091 0.48353 1.03310
 C124 C 0.01906 0.47576 1.02352
 C125 C 0.00505 0.44664 1.03618
 H126 H 0.03440 0.32691 1.12734
 H127 H 0.15384 0.33286 1.12457
 H128 H 0.06519 0.28680 1.15452
 H129 H 0.15165 0.38341 1.09460
 H130 H 0.12214 0.42581 1.06764
 H131 H 0.01094 0.35183 1.09179
 H132 H -0.01779 0.39132 1.06153
 H133 H 0.09350 0.46863 1.05620
 H134 H 0.06180 0.50768 1.02790
 H135 H -0.02011 0.44106 1.03269
 C136 C -0.14872 0.65341 1.08289
 C137 C -0.11853 0.63953 1.09157
 C138 C -0.10457 0.65246 1.11963
 C139 C -0.11987 0.67885 1.13745
 C140 C -0.14929 0.69304 1.12796
 C141 C -0.16365 0.67960 1.10074
 C142 C -0.07523 0.63925 1.12971
 C143 C -0.05897 0.61382 1.11235
 C144 C -0.07127 0.60068 1.08378
 C145 C -0.10167 0.61359 1.07331
 C146 C -0.11394 0.60056 1.04470
 C147 C -0.09710 0.57612 1.02677
 C148 C -0.06742 0.56348 1.03651
 C149 C -0.05405 0.57534 1.06510
 C150 C -0.02361 0.56185 1.07332
 C151 C -0.00738 0.53779 1.05400
 C152 C -0.02077 0.52530 1.02574
 C153 C -0.05086 0.53938 1.01727
 H154 H -0.16158 0.64481 1.06239
 H155 H -0.10839 0.68859 1.15851
 H156 H -0.18658 0.68935 1.09285
 H157 H -0.06458 0.64880 1.15130
 H158 H -0.03654 0.60519 1.12202
 H159 H -0.13648 0.60894 1.03512
 H160 H -0.10745 0.56713 1.00486
 H161 H -0.01124 0.56963 1.09435
 H162 H 0.01613 0.52957 1.06154
 H163 H -0.06120 0.53249 0.99485
 C164 C -0.07330 0.34714 0.85603
 C165 C -0.08591 0.36509 0.88263
 C166 C -0.11725 0.35618 0.89276
 C167 C -0.13482 0.33033 0.87691
 C168 C -0.12167 0.31231 0.85098
 C169 C -0.09087 0.32132 0.84062
 C170 C -0.13087 0.37282 0.91892
 C171 C -0.11369 0.39734 0.93606
 C172 C -0.08197 0.40638 0.92763
 C173 C -0.06831 0.39092 0.89985
 C174 C -0.03748 0.40170 0.89033
 C175 C -0.02005 0.42567 0.90787
 C176 C -0.03235 0.43971 0.93577
 C177 C -0.06341 0.43033 0.94609
 C178 C -0.07402 0.44435 0.97510
 C179 C -0.05476 0.46680 0.99273
 C180 C -0.02413 0.47724 0.98230
 C181 C -0.01325 0.46259 0.95363
 H182 H -0.04962 0.35180 0.84679
 H183 H -0.15870 0.32409 0.88517
 H184 H -0.07976 0.30804 0.82079
 H185 H -0.15502 0.36649 0.92652
 H186 H -0.12619 0.40898 0.95577
 H187 H -0.02601 0.39223 0.86921
 H188 H 0.00362 0.43293 0.89967
 H189 H -0.09661 0.43756 0.98554
 H190 H -0.06363 0.47485 1.01553
 H191 H 0.01058 0.46808 0.94510
 C192 C 0.06807 0.66659 0.87962
 C193 C 0.08158 0.63875 0.89518
 C194 C 0.11533 0.63284 0.89220
 C195 C 0.13484 0.65575 0.87641
 C196 C 0.12109 0.68388 0.86215
 C197 C 0.08755 0.68859 0.86330
 C198 C 0.12942 0.60424 0.90515
 C199 C 0.11074 0.58120 0.92094
 C200 C 0.07726 0.58662 0.92545
 C201 C 0.06275 0.61662 0.91346
 C202 C 0.03024 0.62424 0.92118
 C203 C 0.01250 0.60327 0.93988
 C204 C 0.02598 0.57328 0.95077
 C205 C 0.05803 0.56382 0.94272
 C206 C 0.06914 0.53148 0.95167
 C207 C 0.04999 0.51089 0.96989
 C208 C 0.01961 0.52219 0.98156
 C209 C 0.00737 0.55283 0.96979
 H210 H 0.04247 0.67178 0.87917
 H211 H 0.16075 0.65154 0.87497
 H212 H 0.07632 0.70996 0.85221
 H213 H 0.15520 0.59953 0.90294
 H214 H 0.12349 0.56004 0.93065
 H215 H 0.01814 0.64717 0.91426
 H216 H -0.01213 0.61066 0.94587
 H217 H 0.09208 0.52089 0.94399
 H218 H 0.05912 0.48562 0.97443
 H219 H -0.01691 0.56127 0.97495
 C220 C 1.08253 0.12765 0.35916
 C221 C 1.09469 0.09727 0.37162
 C222 C 1.12326 0.08287 0.35820
 C223 C 1.13846 0.09818 0.33312
 C224 C 1.12557 0.12787 0.32039
 C225 C 1.09763 0.14249 0.33418
 C226 C 1.13640 0.05298 0.36960
 C227 C 1.12136 0.03637 0.39349
 C228 C 1.09232 0.04903 0.40707
 C229 C 1.07921 0.08047 0.39648
 C230 C 1.05088 0.09387 0.41089
 C231 C 1.03532 0.07682 0.43409
 C232 C 1.04716 0.04569 0.44394
 C233 C 1.07581 0.03126 0.43075
 C234 C 1.08597 -0.00095 0.44114
 C235 C 1.06848 -0.01773 0.46363
 C236 C 1.04067 -0.00283 0.47753
 C237 C 1.02988 0.02863 0.46655
 H238 H 1.06107 0.14058 0.36779
 H239 H 1.16008 0.08627 0.32332
 H240 H 1.08681 0.16553 0.32574
 H241 H 1.15847 0.04203 0.35972
 H242 H 1.13329 0.01355 0.40084
 H243 H 1.03985 0.11766 0.40482
 H244 H 1.01348 0.08804 0.44424
 H245 H 1.10678 -0.01448 0.43174
 H246 H 1.07647 -0.04301 0.46964
 H247 H 1.00728 0.03966 0.47506
 C248 C 1.15651 -0.09447 0.64580
 C249 C 1.12750 -0.10570 0.63149
 C250 C 1.11194 -0.13420 0.64397
 C251 C 1.12443 -0.14976 0.67022
 C252 C 1.15265 -0.13761 0.68491
 C253 C 1.16875 -0.11014 0.67186
 C254 C 1.08373 -0.14699 0.63046
 C255 C 1.06987 -0.13154 0.60531
 C256 C 1.08354 -0.10218 0.59272
 C257 C 1.11317 -0.08940 0.60565
 C258 C 1.12710 -0.06037 0.59270
 C259 C 1.11225 -0.04379 0.56868
 C260 C 1.08298 -0.05532 0.55644
 C261 C 1.06828 -0.08483 0.56798
 C262 C 1.03827 -0.09487 0.55501
 C263 C 1.02346 -0.07612 0.53213
 C264 C 1.03818 -0.04710 0.52028
 C265 C 1.06788 -0.03672 0.53329
 H266 H 1.17035 -0.07342 0.63771
 H267 H 1.11165 -0.17130 0.67913
 H268 H 1.19075 -0.09996 0.68192
 H269 H 1.07197 -0.16911 0.63961
 H270 H 1.04815 -0.14327 0.59644
 H271 H 1.14943 -0.04937 0.60086
 H272 H 1.12368 -0.02130 0.55985
 H273 H 1.02490 -0.11648 0.56264
 H274 H 0.99968 -0.08392 0.52437
 H275 H 1.07886 -0.01322 0.52622
 C276 C 0.86660 -0.07224 0.35441
 C277 C 0.89421 -0.08825 0.36678
 C278 C 0.90385 -0.12028 0.35307
 C279 C 0.88680 -0.13505 0.32779
 C280 C 0.85979 -0.11852 0.31528
 C281 C 0.84985 -0.08709 0.32930
 C282 C 0.93063 -0.13750 0.36449
 C283 C 0.94862 -0.12339 0.38887
 C284 C 0.94066 -0.09112 0.40287
 C285 C 0.91269 -0.07349 0.39197
 C286 C 0.90431 -0.04156 0.40644
 C287 C 0.92276 -0.02706 0.43027
 C288 C 0.95035 -0.04357 0.44074
 C289 C 0.95981 -0.07578 0.42731
 C290 C 0.98861 -0.09072 0.43835
 C291 C 1.00680 -0.07447 0.46178
 C292 C 0.99676 -0.04313 0.47600
 C293 C 0.96885 -0.02750 0.46428
 H294 H 0.85725 -0.04802 0.36336
 H295 H 0.89505 -0.15947 0.31792
 H296 H 0.82915 -0.07329 0.32088
 H297 H 0.93793 -0.16220 0.35433
 H298 H 0.96872 -0.13864 0.39622
 H299 H 0.88356 -0.02682 0.39987
 H300 H 0.91541 -0.00240 0.44051
 H301 H 0.99835 -0.11455 0.42890
 H302 H 1.02933 -0.08633 0.46837
 H303 H 0.96171 -0.00221 0.47309
 C304 C 0.87370 0.05624 0.64260
 C305 C 0.90306 0.06701 0.62936
 C306 C 0.91622 0.09829 0.64104
 C307 C 0.90057 0.11761 0.66492
 C308 C 0.87163 0.10643 0.67820
 C309 C 0.85842 0.07555 0.66643
 C310 C 0.94509 0.11024 0.62898
 C311 C 0.96171 0.09156 0.60591
 C312 C 0.95008 0.05990 0.59383
 C313 C 0.91989 0.04777 0.60522
 C314 C 0.90756 0.01688 0.59208
 C315 C 0.92417 -0.00172 0.56893
 C316 C 0.95388 0.00937 0.55807
 C317 C 0.96751 0.04008 0.57052
 C318 C 0.99846 0.04910 0.55965
 C319 C 1.01442 0.02916 0.53673
 C320 C 1.00000 -0.00011 0.52285
 C321 C 0.97018 -0.01046 0.53498
 H322 H 0.86193 0.03280 0.63541
 H323 H 0.91149 0.14131 0.67318
 H324 H 0.83617 0.06572 0.67559
 H325 H 0.95511 0.13434 0.63758
 H326 H 0.98356 0.10300 0.59777
 H327 H 0.88483 0.00631 0.59896
 H328 H 0.91365 -0.02523 0.55951
 H329 H 1.01150 0.07094 0.56887
 H330 H 1.03849 0.03664 0.53002
 H331 H 0.95963 -0.03436 0.52662
 C332 C 0.35639 1.09376 0.14662
 C333 C 0.36744 1.10523 0.11776
 C334 C 0.35153 1.13396 0.10558
 C335 C 0.32545 1.14993 0.12159
 C336 C 0.31427 1.13748 0.14965
 C337 C 0.33031 1.10958 0.16210
 C338 C 0.36132 1.14631 0.07722
 C339 C 0.38590 1.13018 0.06002
 C340 C 0.40187 1.10084 0.07056
 C341 C 0.39314 1.08878 0.10034
 C342 C 0.41017 1.06044 0.11156
 C343 C 0.43405 1.04372 0.09401
 C344 C 0.44198 1.05431 0.06453
 C345 C 0.42617 1.08298 0.05228
 C346 C 0.43459 1.09171 0.02179
 C347 C 0.45777 1.07290 0.00457
 C348 C 0.47435 1.04518 0.01711
 C349 C 0.46528 1.03567 0.04703
 H350 H 0.36688 1.07224 0.15777
 H351 H 0.31322 1.17140 0.11156
 H352 H 0.32264 1.09966 0.18397
 H353 H 0.34954 1.16853 0.06796
 H354 H 0.39189 1.14154 0.03845
 H355 H 0.40571 1.05035 0.13399
 H356 H 0.44623 1.02191 0.10358
 H357 H 0.42310 1.11231 0.01010
 H358 H 0.46249 1.07981 -0.01906
 H359 H 0.47545 1.01285 0.05662
 C360 C 0.65609 1.07213 -0.13793
 C361 C 0.63828 1.08953 -0.11393
 C362 C 0.64679 1.12387 -0.10615
 C363 C 0.67212 1.13972 -0.12180
 C364 C 0.68962 1.12195 -0.14535
 C365 C 0.68117 1.08810 -0.15324
 C366 C 0.63007 1.14228 -0.08273
 C367 C 0.60532 1.12730 -0.06639
 C368 C 0.59620 1.09301 -0.07279
 C369 C 0.61264 1.07397 -0.09729
 C370 C 0.60297 1.03998 -0.10429
 C371 C 0.57853 1.02488 -0.08778
 C372 C 0.56269 1.04282 -0.06358
 C373 C 0.57117 1.07705 -0.05558
 C374 C 0.55467 1.09345 -0.03016
 C375 C 0.53062 1.07666 -0.01393
 C376 C 0.52134 1.04311 -0.02274
 C377 C 0.53858 1.02627 -0.04714
 H378 H 0.65163 1.04601 -0.14539
 H379 H 0.67809 1.16602 -0.11554
 H380 H 0.69426 1.07340 -0.17105
 H381 H 0.63627 1.16864 -0.07684
 H382 H 0.59366 1.14351 -0.04886
 H383 H 0.61373 1.02409 -0.12254
 H384 H 0.57205 0.99867 -0.09400
 H385 H 0.56024 1.11899 -0.02165
 H386 H 0.52003 1.08994 0.00616
 H387 H 0.53322 0.99975 -0.05325
 C388 C 0.34402 0.87340 -0.07201
 C389 C 0.36315 0.89958 -0.08420
 C390 C 0.35836 0.90720 -0.11573
 C391 C 0.33532 0.88945 -0.13389
 C392 C 0.31625 0.86398 -0.12131
 C393 C 0.32108 0.85603 -0.09027
 C394 C 0.37648 0.93262 -0.12910
 C395 C 0.39892 0.95132 -0.11179
 C396 C 0.40422 0.94539 -0.08012
 C397 C 0.38657 0.91858 -0.06625
 C398 C 0.39297 0.91168 -0.03495
 C399 C 0.41558 0.93034 -0.01774
 C400 C 0.43252 0.95687 -0.03075
 C401 C 0.42686 0.96513 -0.06194
 C402 C 0.44359 0.99340 -0.07336
 C403 C 0.46593 1.01149 -0.05506
 C404 C 0.47335 1.00179 -0.02481
 C405 C 0.45504 0.97532 -0.01253
 H406 H 0.34576 0.86591 -0.04834
 H407 H 0.33229 0.89570 -0.15794
 H408 H 0.30671 0.83669 -0.07966
 H409 H 0.37318 0.93828 -0.15330
 H410 H 0.41207 0.97009 -0.12419
 H411 H 0.38110 0.89170 -0.02296
 H412 H 0.41977 0.92394 0.00615
 H413 H 0.43948 1.00286 -0.09611
 H414 H 0.47697 1.03364 -0.06475
 H415 H 0.45859 0.96888 0.01144
 C416 C 0.64872 0.95465 0.13164
 C417 C 0.62981 0.93962 0.10741
 C418 C 0.63539 0.90455 0.09934
 C419 C 0.65906 0.88578 0.11475
 C420 C 0.67789 0.90123 0.13832
 C421 C 0.67223 0.93573 0.14673
 C422 C 0.61748 0.88829 0.07580
 C423 C 0.59450 0.90614 0.05945
 C424 C 0.58846 0.94129 0.06594
 C425 C 0.60592 0.95816 0.09076
 C426 C 0.59895 0.99299 0.09802
 C427 C 0.57622 1.01090 0.08141
 C428 C 0.55959 0.99507 0.05678
 C429 C 0.56547 0.96016 0.04850
 C430 C 0.54869 0.94593 0.02253
 C431 C 0.52657 0.96532 0.00616
 C432 C 0.51948 0.99952 0.01533
 C433 C 0.53731 1.01429 0.04015
 H434 H 0.64636 0.98108 0.13935
 H435 H 0.66274 0.85900 0.10821
 H436 H 0.68643 0.94857 0.16467
 H437 H 0.62141 0.86138 0.06977
 H438 H 0.58166 0.89138 0.04189
 H439 H 0.61060 1.00737 0.11659
 H440 H 0.57176 1.03762 0.08786
 H441 H 0.55265 0.92011 0.01360
 H442 H 0.51574 0.95342 -0.01433
 H443 H 0.53380 1.04118 0.04649
   
