data_POSCAR
  _audit_creation_date              2014-09-24
  _audit_creation_method            'ToBaCCo'
  _symmetry_space_group_name_H-M    'P1'
  _symmetry_Int_Tables_number       1
  _symmetry_cell_setting            triclinic
  loop_
  _symmetry_equiv_pos_as_xyz
 x,y,z
_cell_length_a 32.6668
_cell_length_b 35.3393
_cell_length_c 21.4561
_cell_angle_alpha 90.243500
_cell_angle_beta 90.520100
_cell_angle_gamma 90.403800
loop_
  _atom_site_label
  _atom_site_type_symbol
  _atom_site_fract_x
  _atom_site_fract_y
  _atom_site_fract_z
C1 C 0.17826 0.24536 0.11513
 C2 C 0.18916 0.21066 0.14271
 C3 C 0.22098 0.21085 0.18788
 C4 C 0.24375 0.24409 0.20144
 C5 C 0.23325 0.27755 0.16972
 C6 C 0.19921 0.27895 0.12977
 C7 C 0.27738 0.24465 0.24987
 C8 C 0.28789 0.27872 0.28068
 C9 C 0.32011 0.28048 0.32389
 C10 C 0.33990 0.24713 0.34122
 C11 C 0.32951 0.21206 0.31350
 C12 C 0.29915 0.21160 0.26600
 H13 H 0.15116 0.24695 0.08588
 H14 H 0.22857 0.18490 0.21139
 H15 H 0.25088 0.30324 0.17652
 H16 H 0.27124 0.30447 0.27172
 H17 H 0.36560 0.24923 0.37331
 H18 H 0.29161 0.18526 0.24297
 C19 C 0.83294 0.25378 0.15027
 C20 C 0.82227 0.28784 0.17941
 C21 C 0.79291 0.28742 0.22696
 C22 C 0.77224 0.25358 0.24283
 C23 C 0.78206 0.22025 0.20979
 C24 C 0.81362 0.21974 0.16603
 C25 C 0.74173 0.25236 0.29484
 C26 C 0.73359 0.21811 0.32593
 C27 C 0.70348 0.21529 0.37215
 C28 C 0.68579 0.24909 0.39376
 C29 C 0.69312 0.28396 0.36412
 C30 C 0.72019 0.28488 0.31338
 H31 H 0.85781 0.25361 0.11720
 H32 H 0.78666 0.31351 0.25145
 H33 H 0.76568 0.19411 0.21809
 H34 H 0.75138 0.19331 0.31536
 H35 H 0.66436 0.24813 0.43154
 H36 H 0.72367 0.31079 0.28743
 C37 C 0.66329 0.74788 0.67214
 C38 C 0.67451 0.71351 0.69949
 C39 C 0.70419 0.71350 0.74719
 C40 C 0.72451 0.74714 0.76579
 C41 C 0.71327 0.78120 0.73621
 C42 C 0.68178 0.78197 0.69123
 C43 C 0.75605 0.74666 0.81725
 C44 C 0.76524 0.77953 0.85242
 C45 C 0.79426 0.77918 0.90141
 C46 C 0.81078 0.74414 0.91917
 C47 C 0.80411 0.71133 0.88316
 C48 C 0.77746 0.71324 0.83153
 H49 H 0.63859 0.74824 0.63810
 H50 H 0.71095 0.68698 0.76983
 H51 H 0.72865 0.80752 0.74769
 H52 H 0.74915 0.80553 0.84327
 H53 H 0.83162 0.74278 0.95837
 H54 H 0.77436 0.68877 0.80150
 C55 C 0.32811 0.75631 0.62388
 C56 C 0.30734 0.79021 0.63493
 C57 C 0.27133 0.78948 0.67031
 C58 C 0.25762 0.75587 0.69923
 C59 C 0.28052 0.72259 0.68949
 C60 C 0.31468 0.72238 0.65038
 C61 C 0.22069 0.75563 0.74094
 C62 C 0.20000 0.72147 0.75491
 C63 C 0.16866 0.72004 0.79962
 C64 C 0.15503 0.75433 0.82545
 C65 C 0.17261 0.78903 0.80857
 C66 C 0.20635 0.78931 0.76859
 H67 H 0.35608 0.75654 0.59711
 H68 H 0.25455 0.81553 0.67500
 H69 H 0.27246 0.69644 0.71218
 H70 H 0.20944 0.69545 0.73325
 H71 H 0.12867 0.75438 0.85571
 H72 H 0.22132 0.81612 0.76032
 O73 O 1.02591 -0.04258 0.01151
 O74 O 0.95110 0.03116 0.04939
 O75 O 0.94627 -0.03899 0.01291
 O76 O 1.03039 0.02822 0.04846
 O77 O 1.02982 0.04662 -0.04964
 O78 O 0.94569 -0.01980 -0.08477
 O79 O 0.95103 0.05023 -0.04839
 O80 O 1.02559 -0.02405 -0.08649
 Cu81 Cu 0.98858 -0.00753 0.04033
 Cu82 Cu 0.98816 0.01491 -0.07724
 C83 C 1.03833 -0.04618 -0.04410
 C84 C 0.93856 0.05356 0.00727
 C85 C 0.93142 -0.04068 -0.04199
 C86 C 1.04385 0.04954 0.00559
 O87 O 0.45780 0.47145 0.44172
 O88 O 0.53853 0.54053 0.48452
 O89 O 0.53716 0.47010 0.44594
 O90 O 0.45968 0.54290 0.47456
 O91 O 0.45628 0.52598 0.57322
 O92 O 0.53086 0.45042 0.54304
 O93 O 0.53523 0.52149 0.58210
 O94 O 0.45265 0.45473 0.54031
 Cu95 Cu 0.49874 0.50806 0.45189
 Cu96 Cu 0.49357 0.48650 0.56961
 C97 C 0.44190 0.45081 0.48365
 C98 C 0.55011 0.54329 0.54108
 C99 C 0.54590 0.44693 0.48892
 C100 C 0.44542 0.54757 0.52888
 O101 O -0.03384 0.45310 -0.03339
 O102 O 0.04308 0.52372 -0.08143
 O103 O 0.04517 0.45167 -0.04983
 O104 O -0.03515 0.52368 -0.06794
 O105 O -0.02470 0.54178 0.02974
 O106 O 0.05377 0.46876 0.04840
 O107 O 0.05233 0.54021 0.01705
 O108 O -0.02541 0.47069 0.06463
 Cu109 Cu 0.00408 0.48600 -0.06791
 Cu110 Cu 0.01490 0.50665 0.05004
 C111 C -0.04290 0.44989 0.02383
 C112 C 0.05956 0.54514 -0.04040
 C113 C 0.06286 0.44759 0.00265
 C114 C -0.04225 0.54595 -0.02279
 O115 O 0.47021 1.04436 0.52558
 O116 O 0.54402 0.97093 0.57128
 O117 O 0.54840 1.04268 0.54318
 O118 O 0.46478 0.97337 0.55808
 O119 O 0.47180 0.95655 0.45967
 O120 O 0.55554 1.02653 0.44447
 O121 O 0.55075 0.95462 0.47258
 O122 O 0.47661 1.02773 0.42696
 Cu123 Cu 0.50613 1.00935 0.55941
 Cu124 Cu 0.51440 0.98975 0.44103
 C125 C 0.46118 1.04894 0.46836
 C126 C 0.55972 0.94993 0.52972
 C127 C 0.56583 1.04699 0.49105
 C128 C 0.45421 0.95281 0.51192
 C129 C 1.16113 0.14757 0.16969
 C130 C 1.16736 0.17705 0.12641
 C131 C 1.15040 0.17264 0.06597
 C132 C 1.12658 0.14089 0.05005
 C133 C 1.11904 0.11261 0.09481
 C134 C 1.13699 0.11595 0.15417
 C135 C 1.09304 0.08197 0.07972
 C136 C 1.07472 0.07926 0.02017
 C137 C 1.08398 0.10686 -0.02466
 C138 C 1.10958 0.13738 -0.00986
 H139 H 1.15627 0.19359 0.03035
 H140 H 1.13168 0.09447 0.18912
 H141 H 1.08641 0.06077 0.11465
 H142 H 1.11536 0.15869 -0.04493
 H143 H 1.17268 0.14965 0.21699
 H144 H 1.07042 0.10555 -0.07088
 C145 C 0.63963 0.65195 0.72421
 C146 C 0.65390 0.67782 0.67969
 C147 C 0.64753 0.66996 0.61602
 C148 C 0.62626 0.63720 0.59705
 C149 C 0.61125 0.61181 0.64228
 C150 C 0.61852 0.61922 0.70568
 C151 C 0.58816 0.58006 0.62347
 C152 C 0.57930 0.57357 0.55999
 C153 C 0.59553 0.59838 0.51533
 C154 C 0.61891 0.62983 0.53368
 H155 H 0.65886 0.68954 0.58131
 H156 H 0.60720 0.60007 0.74099
 H157 H 0.57582 0.56125 0.65850
 H158 H 0.63036 0.64891 0.49837
 H159 H 0.64386 0.65754 0.77352
 H160 H 0.58925 0.59408 0.46616
 C161 C -0.14015 0.34822 0.20605
 C162 C -0.15646 0.32325 0.16099
 C163 C -0.14996 0.33073 0.09753
 C164 C -0.12584 0.36159 0.07923
 C165 C -0.10831 0.38583 0.12486
 C166 C -0.11629 0.37930 0.18812
 C167 C -0.08222 0.41545 0.10650
 C168 C -0.07317 0.42090 0.04309
 C169 C -0.09183 0.39721 -0.00183
 C170 C -0.11798 0.36789 0.01605
 H171 H -0.16292 0.31191 0.06240
 H172 H -0.10320 0.39765 0.22377
 H173 H -0.06818 0.43355 0.14168
 H174 H -0.13134 0.34964 -0.01950
 H175 H -0.14455 0.34290 0.25520
 H176 H -0.08561 0.40083 -0.05095
 C177 C 0.32824 0.85722 0.65695
 C178 C 0.32584 0.82666 0.61486
 C179 C 0.34529 0.82974 0.55680
 C180 C 0.36898 0.86184 0.54270
 C181 C 0.37281 0.89151 0.58678
 C182 C 0.35142 0.88938 0.64299
 C183 C 0.39929 0.92204 0.57514
 C184 C 0.42234 0.92327 0.52012
 C185 C 0.41681 0.89453 0.47525
 C186 C 0.39036 0.86408 0.48643
 H187 H 0.34323 0.80656 0.52363
 H188 H 0.35387 0.91195 0.67719
 H189 H 0.40296 0.94417 0.60993
 H190 H 0.38761 0.84171 0.45192
 H191 H 0.31392 0.85546 0.70218
 H192 H 0.43408 0.89483 0.43240
 C193 C -0.19010 0.63990 -0.11542
 C194 C -0.17302 0.67586 -0.10247
 C195 C -0.13352 0.67783 -0.07571
 C196 C -0.11213 0.64497 -0.06048
 C197 C -0.12903 0.60911 -0.07540
 C198 C -0.16808 0.60690 -0.10290
 C199 C -0.10640 0.57627 -0.06273
 C200 C -0.06807 0.57917 -0.03286
 C201 C -0.05239 0.61484 -0.01605
 C202 C -0.07393 0.64754 -0.03056
 H203 H -0.11880 0.70492 -0.06722
 H204 H -0.18179 0.57967 -0.11404
 H205 H -0.11850 0.54866 -0.07563
 H206 H -0.06069 0.67482 -0.01844
 H207 H -0.22066 0.63712 -0.13487
 H208 H -0.02262 0.61745 0.00634
 C209 C 0.35664 1.14826 0.29081
 C210 C 0.34995 1.17858 0.33257
 C211 C 0.36478 1.17499 0.39438
 C212 C 0.38664 1.14299 0.41329
 C213 C 0.39442 1.11372 0.37019
 C214 C 0.37887 1.11644 0.30931
 C215 C 0.41805 1.08253 0.38856
 C216 C 0.43363 1.08013 0.44983
 C217 C 0.42439 1.10888 0.49281
 C218 C 0.40123 1.14005 0.47469
 H219 H 0.35849 1.19664 0.42883
 H220 H 0.38446 1.09420 0.27558
 H221 H 0.42468 1.06041 0.35505
 H222 H 0.39527 1.16216 0.50851
 H223 H 0.34683 1.14969 0.24261
 H224 H 0.43597 1.10782 0.54022
 C225 C 1.14713 -0.14556 -0.21305
 C226 C 1.15380 -0.17498 -0.17029
 C227 C 1.13921 -0.17110 -0.10912
 C228 C 1.11663 -0.13913 -0.09176
 C229 C 1.10880 -0.11042 -0.13587
 C230 C 1.12487 -0.11358 -0.19601
 C231 C 1.08411 -0.07958 -0.11964
 C232 C 1.06703 -0.07704 -0.05980
 C233 C 1.07619 -0.10517 -0.01573
 C234 C 1.10072 -0.13592 -0.03155
 H235 H 1.14461 -0.19336 -0.07549
 H236 H 1.11930 -0.09179 -0.23039
 H237 H 1.07756 -0.05800 -0.15401
 H238 H 1.10656 -0.15758 0.00295
 H239 H 1.15769 -0.14800 -0.26059
 H240 H 1.06357 -0.10393 0.03073
 C241 C 0.68888 0.35513 0.37749
 C242 C 0.67114 0.31893 0.38470
 C243 C 0.63224 0.31635 0.41249
 C244 C 0.61225 0.34869 0.43421
 C245 C 0.62978 0.38484 0.42473
 C246 C 0.66812 0.38773 0.39628
 C247 C 0.60844 0.41733 0.44354
 C248 C 0.57081 0.41371 0.47418
 C249 C 0.55461 0.37762 0.48588
 C250 C 0.57483 0.34537 0.46522
 H251 H 0.61684 0.28931 0.41686
 H252 H 0.68234 0.41516 0.38932
 H253 H 0.62094 0.44525 0.43450
 H254 H 0.56112 0.31783 0.47332
 H255 H 0.71906 0.35847 0.35785
 H256 H 0.52534 0.37449 0.50875
 C257 C 0.82690 -0.18549 -0.01166
 C258 C 0.81028 -0.18669 -0.07268
 C259 C 0.81526 -0.15441 -0.11064
 C260 C 0.84038 -0.12413 -0.09120
 C261 C 0.85897 -0.12472 -0.03155
 C262 C 0.85065 -0.15477 0.00874
 C263 C 0.88714 -0.09626 -0.01436
 C264 C 0.89797 -0.06781 -0.05690
 C265 C 0.87815 -0.06674 -0.11531
 C266 C 0.84938 -0.09445 -0.13211
 H267 H 0.80353 -0.15430 -0.15803
 H268 H 0.86396 -0.15533 0.05518
 H269 H 0.90210 -0.09741 0.03089
 H270 H 0.83535 -0.09345 -0.17803
 H271 H 0.82202 -0.20850 0.02060
 H272 H 0.88554 -0.04490 -0.14871
 C273 C 0.34289 0.34704 0.30439
 C274 C 0.33567 0.31759 0.34685
 C275 C 0.34669 0.32272 0.40979
 C276 C 0.36651 0.35611 0.42949
 C277 C 0.37534 0.38482 0.38580
 C278 C 0.36256 0.38035 0.32367
 C279 C 0.39821 0.41677 0.40437
 C280 C 0.41257 0.42037 0.46611
 C281 C 0.40182 0.39252 0.50982
 C282 C 0.37903 0.36069 0.49169
 H283 H 0.34086 0.30030 0.44295
 H284 H 0.36890 0.40210 0.28958
 H285 H 0.40607 0.43809 0.37025
 H286 H 0.37229 0.33912 0.52591
 H287 H 0.33493 0.34361 0.25557
 H288 H 0.41240 0.39455 0.55771
 C289 C 0.14751 0.65396 -0.22223
 C290 C 0.15153 0.68506 -0.18097
 C291 C 0.13863 0.68032 -0.11884
 C292 C 0.12201 0.64589 -0.09864
 C293 C 0.11682 0.61558 -0.14112
 C294 C 0.12992 0.61985 -0.20269
 C295 C 0.09795 0.58185 -0.12150
 C296 C 0.08478 0.57795 -0.05958
 C297 C 0.09198 0.60774 -0.01712
 C298 C 0.11022 0.64142 -0.03651
 H299 H 0.14288 0.70296 -0.08510
 H300 H 0.12622 0.59691 -0.23599
 H301 H 0.09271 0.55906 -0.15467
 H302 H 0.11435 0.66427 -0.00314
 H303 H 0.15600 0.65630 -0.27069
 H304 H 0.08196 0.60566 0.03073
 C305 C 0.68895 1.14799 0.35033
 C306 C 0.68855 1.17930 0.39174
 C307 C 0.66894 1.17449 0.44972
 C308 C 0.64722 1.14113 0.46314
 C309 C 0.64549 1.11147 0.41892
 C310 C 0.66761 1.11468 0.36372
 C311 C 0.62038 1.07978 0.42947
 C312 C 0.59683 1.07738 0.48384
 C313 C 0.60070 1.10604 0.52927
 C314 C 0.62566 1.13761 0.51902
 H315 H 0.66999 1.19668 0.48463
 H316 H 0.66694 1.09205 0.32947
 H317 H 0.61806 1.05768 0.39438
 H318 H 0.62691 1.15991 0.55383
 H319 H 0.70279 1.14984 0.30483
 H320 H 0.58308 1.10486 0.57174
 C321 C 0.18044 0.34606 0.15276
 C322 C 0.18237 0.31601 0.10966
 C323 C 0.16428 0.32043 0.05034
 C324 C 0.14250 0.35343 0.03577
 C325 C 0.13934 0.38263 0.08063
 C326 C 0.15931 0.37909 0.13830
 C327 C 0.11487 0.41420 0.06823
 C328 C 0.09297 0.41692 0.01173
 C329 C 0.09776 0.38855 -0.03375
 C330 C 0.12236 0.35710 -0.02187
 H331 H 0.16595 0.29770 0.01639
 H332 H 0.15728 0.40125 0.17317
 H333 H 0.11174 0.43597 0.10359
 H334 H 0.12458 0.33511 -0.05700
 H335 H 0.19358 0.34335 0.19903
 H336 H 0.08135 0.38998 -0.07775
 C337 C 0.65762 0.84801 0.71055
 C338 C 0.66548 0.81852 0.66821
 C339 C 0.65425 0.82295 0.60523
 C340 C 0.63375 0.85561 0.58541
 C341 C 0.62453 0.88437 0.62897
 C342 C 0.63736 0.88064 0.69113
 C343 C 0.60153 0.91579 0.61011
 C344 C 0.58751 0.91889 0.54818
 C345 C 0.59827 0.89082 0.50473
 C346 C 0.62113 0.85947 0.52318
 H347 H 0.66057 0.80056 0.57205
 H348 H 0.63068 0.90245 0.72512
 H349 H 0.59372 0.93733 0.64403
 H350 H 0.62811 0.83781 0.48907
 H351 H 0.66558 0.84514 0.75941
 H352 H 0.58796 0.89250 0.45672
 C353 C 0.83502 0.15267 0.18250
 C354 C 0.82944 0.18329 0.14169
 C355 C 0.84278 0.18001 0.07974
 C356 C 0.86341 0.14746 0.05987
 C357 C 0.87028 0.11757 0.10217
 C358 C 0.85513 0.12008 0.16288
 C359 C 0.89349 0.08628 0.08387
 C360 C 0.91031 0.08449 0.02386
 C361 C 0.90191 0.11364 -0.01870
 C362 C 0.87864 0.14485 -0.00086
 H363 H 0.83821 0.20323 0.04761
 H364 H 0.86003 0.09739 0.19586
 H365 H 0.89944 0.06388 0.11705
 H366 H 0.87350 0.16739 -0.03404
 H367 H 0.82552 0.15458 0.23063
 H368 H 0.91438 0.11291 -0.06528
 C369 C 0.34748 0.66223 0.68679
 C370 C 0.33702 0.68680 0.63794
 C371 C 0.34829 0.67752 0.57674
 C372 C 0.37029 0.64444 0.56447
 C373 C 0.38130 0.62020 0.61400
 C374 C 0.36948 0.62922 0.67494
 C375 C 0.40461 0.58780 0.60191
 C376 C 0.41736 0.57945 0.54092
 C377 C 0.40531 0.60334 0.49190
 C378 C 0.38195 0.63548 0.50354
 H379 H 0.33989 0.69610 0.53869
 H380 H 0.37766 0.61099 0.71351
 H381 H 0.41370 0.56969 0.64020
 H382 H 0.37361 0.65368 0.46501
 H383 H 0.33936 0.66897 0.73436
 H384 H 0.41462 0.59762 0.44450
   
