data_POSCAR
  _audit_creation_date              2014-09-24
  _audit_creation_method            'ToBaCCo'
  _symmetry_space_group_name_H-M    'P1'
  _symmetry_Int_Tables_number       1
  _symmetry_cell_setting            triclinic
  loop_
  _symmetry_equiv_pos_as_xyz
 x,y,z
_cell_length_a 55.1284
_cell_length_b 55.6762
_cell_length_c 55.3924
_cell_angle_alpha 90.939000
_cell_angle_beta 89.151900
_cell_angle_gamma 90.826700
loop_
  _atom_site_label
  _atom_site_type_symbol
  _atom_site_fract_x
  _atom_site_fract_y
  _atom_site_fract_z
C1 C 0.24683 0.26827 0.23894
 C2 C 0.26494 0.26828 0.22088
 C3 C 0.28312 0.25081 0.22045
 C4 C 0.28303 0.23324 0.23841
 C5 C 0.26505 0.23303 0.25660
 C6 C 0.24686 0.25059 0.25689
 C7 C 0.22866 0.28563 0.23928
 C8 C 0.21042 0.28560 0.25731
 C9 C 0.21062 0.26796 0.27519
 C10 C 0.22868 0.25045 0.27508
 C11 C 0.22883 0.23278 0.29285
 C12 C 0.24692 0.21520 0.29270
 C13 C 0.26496 0.21549 0.27448
 H14 H 0.26466 0.28168 0.20692
 H15 H 0.29715 0.21989 0.23841
 H16 H 0.22886 0.29936 0.22563
 H17 H 0.19647 0.26761 0.28899
 H18 H 0.21502 0.23288 0.30698
 H19 H 0.27876 0.20181 0.27401
 C20 C 0.75103 -0.27073 0.22796
 C21 C 0.73412 -0.26983 0.20931
 C22 C 0.71729 -0.25094 0.20812
 C23 C 0.71829 -0.23265 0.22612
 C24 C 0.73499 -0.23344 0.24493
 C25 C 0.75125 -0.25268 0.24600
 C26 C 0.76769 -0.28953 0.22878
 C27 C 0.78466 -0.29089 0.24762
 C28 C 0.78416 -0.27282 0.26588
 C29 C 0.76772 -0.25387 0.26516
 C30 C 0.76766 -0.23593 0.28324
 C31 C 0.75165 -0.21662 0.28214
 C32 C 0.73546 -0.21539 0.26291
 H33 H 0.73486 -0.28356 0.19527
 H34 H 0.70530 -0.21826 0.22648
 H35 H 0.76660 -0.30357 0.21508
 H36 H 0.79729 -0.27258 0.28020
 H37 H 0.78027 -0.23674 0.29804
 H38 H 0.72298 -0.20054 0.26221
 C39 C 0.74933 0.26768 0.76710
 C40 C 0.73118 0.26762 0.78513
 C41 C 0.71296 0.24947 0.78583
 C42 C 0.71358 0.23125 0.76772
 C43 C 0.73156 0.23121 0.74952
 C44 C 0.74948 0.24950 0.74919
 C45 C 0.76735 0.28575 0.76682
 C46 C 0.78571 0.28621 0.74871
 C47 C 0.78538 0.26784 0.73075
 C48 C 0.76754 0.24961 0.73093
 C49 C 0.76760 0.23138 0.71313
 C50 C 0.74979 0.21305 0.71328
 C51 C 0.73181 0.21313 0.73156
 H52 H 0.73210 0.28132 0.79919
 H53 H 0.69952 0.21751 0.76693
 H54 H 0.76623 0.29999 0.78031
 H55 H 0.79956 0.26688 0.71707
 H56 H 0.78133 0.23166 0.69893
 H57 H 0.71819 0.19890 0.73201
 C58 C 0.25226 -0.26443 0.76759
 C59 C 0.27033 -0.26410 0.78517
 C60 C 0.28850 -0.24610 0.78536
 C61 C 0.28835 -0.22824 0.76770
 C62 C 0.27043 -0.22835 0.74998
 C63 C 0.25235 -0.24656 0.74989
 C64 C 0.23422 -0.28245 0.76745
 C65 C 0.21602 -0.28319 0.74969
 C66 C 0.21649 -0.26509 0.73204
 C67 C 0.23437 -0.24691 0.73209
 C68 C 0.23445 -0.22896 0.71459
 C69 C 0.25233 -0.21068 0.71458
 C70 C 0.27030 -0.21056 0.73235
 H71 H 0.27008 -0.27772 0.79894
 H72 H 0.30243 -0.21444 0.76753
 H73 H 0.23521 -0.29645 0.78071
 H74 H 0.20239 -0.26433 0.71870
 H75 H 0.22076 -0.22941 0.70074
 H76 H 0.28400 -0.19640 0.73266
 C77 C 0.75538 -0.26581 0.76518
 C78 C 0.73725 -0.26539 0.78322
 C79 C 0.71915 -0.24784 0.78331
 C80 C 0.71943 -0.23054 0.76510
 C81 C 0.73741 -0.23078 0.74692
 C82 C 0.75543 -0.24852 0.74692
 C83 C 0.77334 -0.28339 0.76511
 C84 C 0.79161 -0.28424 0.74692
 C85 C 0.79127 -0.26673 0.72869
 C86 C 0.77346 -0.24898 0.72863
 C87 C 0.77344 -0.23162 0.71053
 C88 C 0.75555 -0.21385 0.71041
 C89 C 0.73760 -0.21359 0.72871
 H90 H 0.73737 -0.27859 0.79739
 H91 H 0.70540 -0.21711 0.76485
 H92 H 0.77221 -0.29700 0.77882
 H93 H 0.80541 -0.26607 0.71494
 H94 H 0.78714 -0.23214 0.69631
 H95 H 0.72393 -0.19978 0.72896
 C96 C 0.24970 0.27121 0.77077
 C97 C 0.26726 0.27113 0.78885
 C98 C 0.28485 0.25309 0.78918
 C99 C 0.28472 0.23504 0.77111
 C100 C 0.26729 0.23489 0.75293
 C101 C 0.24970 0.25302 0.75274
 C102 C 0.23214 0.28919 0.77045
 C103 C 0.21453 0.28927 0.75233
 C104 C 0.21466 0.27105 0.73443
 C105 C 0.23209 0.25296 0.73452
 C106 C 0.23218 0.23480 0.71667
 C107 C 0.24967 0.21666 0.71673
 C108 C 0.26717 0.21686 0.73494
 H109 H 0.26703 0.28494 0.80287
 H110 H 0.29841 0.22126 0.77102
 H111 H 0.23237 0.30332 0.78415
 H112 H 0.20095 0.27076 0.72060
 H113 H 0.21882 0.23497 0.70251
 H114 H 0.28052 0.20277 0.73532
 C115 C 0.24855 -0.26910 0.23211
 C116 C 0.26650 -0.26876 0.21386
 C117 C 0.28460 -0.25048 0.21316
 C118 C 0.28409 -0.23248 0.23148
 C119 C 0.26634 -0.23272 0.24987
 C120 C 0.24852 -0.25111 0.25021
 C121 C 0.23063 -0.28728 0.23244
 C122 C 0.21251 -0.28801 0.25079
 C123 C 0.21295 -0.26980 0.26889
 C124 C 0.23068 -0.25148 0.26868
 C125 C 0.23075 -0.23344 0.28667
 C126 C 0.24850 -0.21504 0.28651
 C127 C 0.26624 -0.21485 0.26802
 H128 H 0.26554 -0.28233 0.19969
 H129 H 0.29810 -0.21869 0.23229
 H130 H 0.23164 -0.30137 0.21879
 H131 H 0.19893 -0.26902 0.28275
 H132 H 0.21720 -0.23391 0.30104
 H133 H 0.27978 -0.20055 0.26755
 C134 C 0.74456 0.26593 0.23628
 C135 C 0.72587 0.26649 0.21939
 C136 C 0.70807 0.24815 0.21851
 C137 C 0.70891 0.22935 0.23513
 C138 C 0.72749 0.22855 0.25210
 C139 C 0.74557 0.24674 0.25248
 C140 C 0.76242 0.28413 0.23696
 C141 C 0.78190 0.28321 0.25320
 C142 C 0.78278 0.26366 0.26909
 C143 C 0.76466 0.24571 0.26905
 C144 C 0.76522 0.22687 0.28553
 C145 C 0.74700 0.20892 0.28562
 C146 C 0.72829 0.20981 0.26868
 H147 H 0.72550 0.28094 0.20653
 H148 H 0.69499 0.21540 0.23493
 H149 H 0.76162 0.29839 0.22394
 H150 H 0.79696 0.26281 0.28236
 H151 H 0.77960 0.22644 0.29865
 H152 H 0.71444 0.19580 0.26828
 O153 O 0.26885 0.02422 0.47822
 O154 O 0.26962 -0.02226 0.52470
 O155 O 0.26911 -0.02260 0.47771
 O156 O 0.26928 0.02449 0.52516
 O157 O 0.22927 0.02369 0.52611
 O158 O 0.22910 -0.02339 0.47867
 O159 O 0.22961 -0.02305 0.52569
 O160 O 0.22884 0.02340 0.47914
 Cu161 Cu 0.27322 0.00103 0.50134
 Cu162 Cu 0.22519 0.00007 0.50249
 C163 C 0.24872 0.03182 0.47075
 C164 C 0.24974 -0.03059 0.53320
 C165 C 0.24908 -0.03108 0.47006
 C166 C 0.24930 0.03217 0.53376
 O167 O 0.73179 0.02053 0.52186
 O168 O 0.73212 -0.02717 0.47505
 O169 O 0.73273 -0.02620 0.52186
 O170 O 0.73133 0.01968 0.47481
 O171 O 0.77133 0.02131 0.47410
 O172 O 0.77274 -0.02526 0.52048
 O173 O 0.77213 -0.02526 0.47335
 O174 O 0.77180 0.02156 0.52112
 Cu175 Cu 0.72798 -0.00339 0.49849
 Cu176 Cu 0.77601 -0.00179 0.49719
 C177 C 0.75173 0.02914 0.52960
 C178 C 0.75217 -0.03428 0.46612
 C179 C 0.75297 -0.03369 0.52914
 C180 C 0.75109 0.02837 0.46640
 O181 O 0.47449 0.27080 0.02651
 O182 O 0.52224 0.27056 -0.02073
 O183 O 0.47498 0.27109 -0.02050
 O184 O 0.52165 0.27048 0.02634
 O185 O 0.52083 0.23086 0.02543
 O186 O 0.47396 0.23147 -0.02123
 O187 O 0.52119 0.23095 -0.02162
 O188 O 0.47364 0.23117 0.02573
 Cu189 Cu 0.49845 0.27470 0.00296
 Cu190 Cu 0.49733 0.22714 0.00198
 C191 C 0.46592 0.25101 0.03425
 C192 C 0.52986 0.25071 -0.02930
 C193 C 0.46643 0.25139 -0.02885
 C194 C 0.52919 0.25057 0.03396
 O195 O 0.52553 0.77175 0.02233
 O196 O 0.47850 0.77239 -0.02417
 O197 O 0.47825 0.77176 0.02285
 O198 O 0.52574 0.77222 -0.02463
 O199 O 0.52506 0.73259 -0.02571
 O200 O 0.47758 0.73214 0.02169
 O201 O 0.47790 0.73277 -0.02530
 O202 O 0.52489 0.73213 0.02123
 Cu203 Cu 0.50206 0.77600 -0.00077
 Cu204 Cu 0.50128 0.72844 -0.00211
 C205 C 0.53333 0.75184 0.02969
 C206 C 0.47018 0.75269 -0.03274
 C207 C 0.46975 0.75186 0.03038
 C208 C 0.53354 0.75247 -0.03330
 O209 O 0.01946 0.47462 0.27414
 O210 O -0.02706 0.52134 0.27242
 O211 O -0.02793 0.47480 0.27350
 O212 O 0.02013 0.52144 0.27298
 O213 O 0.02088 0.52018 0.23316
 O214 O -0.02595 0.47237 0.23368
 O215 O -0.02646 0.51925 0.23262
 O216 O 0.02101 0.47349 0.23433
 Cu217 Cu -0.00392 0.49820 0.27725
 Cu218 Cu -0.00254 0.49621 0.22945
 C219 C 0.02825 0.46609 0.25452
 C220 C -0.03485 0.52818 0.25223
 C221 C -0.03502 0.46553 0.25367
 C222 C 0.02865 0.52889 0.25297
 O223 O 0.02460 0.52508 0.76861
 O224 O -0.02317 0.47819 0.76839
 O225 O 0.02405 0.47835 0.76892
 O226 O -0.02259 0.52496 0.76814
 O227 O -0.02166 0.52407 0.72832
 O228 O 0.02516 0.47757 0.72910
 O229 O -0.02210 0.47724 0.72857
 O230 O 0.02550 0.52432 0.72879
 Cu231 Cu 0.00061 0.50172 0.77250
 Cu232 Cu 0.00181 0.50069 0.72470
 C233 C 0.03321 0.53277 0.74874
 C234 C -0.03080 0.46965 0.74845
 C235 C 0.03264 0.47000 0.74915
 C236 C -0.03008 0.53254 0.74811
 C237 C 0.33822 0.25095 0.16432
 C238 C 0.32751 0.22926 0.17203
 C239 C 0.30969 0.22922 0.19023
 C240 C 0.30214 0.25085 0.20117
 C241 C 0.31285 0.27254 0.19351
 C242 C 0.33067 0.27259 0.17530
 C243 C 0.35710 0.25099 0.14496
 N244 N 0.36708 0.27194 0.13707
 N245 N 0.38402 0.27197 0.11968
 C246 C 0.39174 0.25105 0.10943
 N247 N 0.38176 0.23010 0.11732
 N248 N 0.36481 0.23007 0.13470
 C249 C 0.41065 0.25107 0.09010
 C250 C 0.41900 0.22934 0.07996
 C251 C 0.43690 0.22933 0.06182
 C252 C 0.44685 0.25105 0.05336
 C253 C 0.43848 0.27279 0.06344
 C254 C 0.42060 0.27280 0.08160
 H255 H 0.33281 0.21226 0.16393
 H256 H 0.30155 0.21225 0.19551
 H257 H 0.30765 0.28947 0.20182
 H258 H 0.33857 0.28962 0.16990
 H259 H 0.41176 0.21226 0.08605
 H260 H 0.44294 0.21227 0.05444
 H261 H 0.44578 0.28984 0.05733
 H262 H 0.41460 0.28987 0.08897
 C263 C 0.66357 0.75013 0.15338
 C264 C 0.67189 0.77157 0.16428
 C265 C 0.68960 0.77129 0.18207
 C266 C 0.69968 0.74948 0.18957
 C267 C 0.69137 0.72803 0.17822
 C268 C 0.67361 0.72838 0.16050
 C269 C 0.64439 0.75041 0.13488
 N270 N 0.63580 0.72961 0.12485
 N271 N 0.61841 0.72984 0.10841
 C272 C 0.60885 0.75088 0.10129
 N273 N 0.61747 0.77169 0.11130
 N274 N 0.63485 0.77146 0.12774
 C275 C 0.58943 0.75113 0.08304
 C276 C 0.58000 0.77297 0.07525
 C277 C 0.56176 0.77320 0.05800
 C278 C 0.55249 0.75159 0.04815
 C279 C 0.56185 0.72974 0.05598
 C280 C 0.58011 0.72952 0.07321
 H281 H 0.66476 0.78872 0.15906
 H282 H 0.69583 0.78845 0.18918
 H283 H 0.69757 0.71062 0.18366
 H284 H 0.66753 0.71147 0.15258
 H285 H 0.58674 0.78996 0.08243
 H286 H 0.55495 0.79033 0.05236
 H287 H 0.55511 0.71278 0.04874
 H288 H 0.58691 0.71236 0.07879
 C289 C 0.65803 0.24977 -0.15897
 C290 C 0.66499 0.22819 -0.17036
 C291 C 0.68290 0.22806 -0.18848
 C292 C 0.69460 0.24956 -0.19581
 C293 C 0.68740 0.27117 -0.18420
 C294 C 0.66943 0.27124 -0.16615
 C295 C 0.63903 0.24990 -0.13971
 N296 N 0.63180 0.27085 -0.12917
 N297 N 0.61476 0.27098 -0.11187
 C298 C 0.60422 0.25016 -0.10434
 N299 N 0.61145 0.22920 -0.11488
 N300 N 0.62848 0.22907 -0.13219
 C301 C 0.58523 0.25030 -0.08507
 C302 C 0.57493 0.22866 -0.07676
 C303 C 0.55702 0.22879 -0.05863
 C304 C 0.54895 0.25058 -0.04841
 C305 C 0.55924 0.27222 -0.05669
 C306 C 0.57718 0.27209 -0.07479
 H307 H 0.65672 0.21126 -0.16516
 H308 H 0.68812 0.21077 -0.19588
 H309 H 0.69481 0.28840 -0.18956
 H310 H 0.66438 0.28826 -0.15793
 H311 H 0.58070 0.21154 -0.08424
 H312 H 0.54947 0.21180 -0.05267
 H313 H 0.55343 0.28931 -0.04919
 H314 H 0.58469 0.28910 -0.08074
 C315 C 0.34373 0.75390 -0.16027
 C316 C 0.33606 0.73232 -0.17150
 C317 C 0.31824 0.73236 -0.18917
 C318 C 0.30762 0.75395 -0.19602
 C319 C 0.31533 0.77554 -0.18489
 C320 C 0.33317 0.77552 -0.16721
 C321 C 0.36253 0.75380 -0.14139
 N322 N 0.37053 0.77464 -0.13095
 N323 N 0.38736 0.77450 -0.11395
 C324 C 0.39691 0.75352 -0.10662
 N325 N 0.38891 0.73269 -0.11706
 N326 N 0.37209 0.73283 -0.13407
 C327 C 0.41563 0.75334 -0.08767
 C328 C 0.42488 0.73151 -0.07961
 C329 C 0.44252 0.73131 -0.06176
 C330 C 0.45139 0.75293 -0.05157
 C331 C 0.44216 0.77475 -0.05960
 C332 C 0.42448 0.77496 -0.07742
 H333 H 0.34385 0.71534 -0.16669
 H334 H 0.31295 0.71547 -0.19766
 H335 H 0.30728 0.79244 -0.18957
 H336 H 0.33858 0.79247 -0.15891
 H337 H 0.41848 0.71452 -0.08707
 H338 H 0.44925 0.71418 -0.05599
 H339 H 0.44860 0.79172 -0.05211
 H340 H 0.41779 0.79210 -0.08319
 C341 C 0.15480 0.33932 0.25718
 C342 C 0.16265 0.32823 0.23551
 C343 C 0.18058 0.31076 0.23560
 C344 C 0.19113 0.30397 0.25734
 C345 C 0.18322 0.31493 0.27903
 C346 C 0.16525 0.33241 0.27896
 C347 C 0.13593 0.35805 0.25697
 N348 N 0.12770 0.36838 0.27787
 N349 N 0.11083 0.38527 0.27760
 C350 C 0.10149 0.39258 0.25643
 N351 N 0.10971 0.38223 0.23555
 N352 N 0.12656 0.36534 0.23582
 C353 C 0.08276 0.41143 0.25604
 C354 C 0.07387 0.41947 0.23398
 C355 C 0.05624 0.43723 0.23352
 C356 C 0.04703 0.44736 0.25511
 C357 C 0.05589 0.43934 0.27720
 C358 C 0.07357 0.42160 0.27766
 H359 H 0.15493 0.33300 0.21841
 H360 H 0.18602 0.30238 0.21863
 H361 H 0.19120 0.31028 0.29604
 H362 H 0.15970 0.34061 0.29598
 H363 H 0.08052 0.41208 0.21698
 H364 H 0.04980 0.44298 0.21620
 H365 H 0.04917 0.44678 0.29415
 H366 H 0.07999 0.41583 0.29498
 C367 C 0.16142 0.66162 0.74938
 C368 C 0.16845 0.67301 0.72793
 C369 C 0.18626 0.69112 0.72800
 C370 C 0.19780 0.69842 0.74959
 C371 C 0.19059 0.68677 0.77108
 C372 C 0.17269 0.66874 0.77095
 C373 C 0.14247 0.64244 0.74928
 N374 N 0.13481 0.63220 0.77019
 N375 N 0.11776 0.61499 0.77010
 C376 C 0.10766 0.60726 0.74910
 N377 N 0.11533 0.61749 0.72818
 N378 N 0.13236 0.63471 0.72827
 C379 C 0.08866 0.58812 0.74900
 C380 C 0.07913 0.57930 0.72713
 C381 C 0.06120 0.56129 0.72704
 C382 C 0.05232 0.55174 0.74883
 C383 C 0.06183 0.56054 0.77070
 C384 C 0.07981 0.57850 0.77078
 H385 H 0.16028 0.66786 0.71092
 H386 H 0.19153 0.69856 0.71076
 H387 H 0.19792 0.69208 0.78839
 H388 H 0.16760 0.66048 0.78788
 H389 H 0.08553 0.58626 0.71001
 H390 H 0.05425 0.55492 0.70988
 H391 H 0.05539 0.55355 0.78780
 H392 H 0.08671 0.58487 0.78797
 C393 C -0.16290 0.65344 0.24891
 C394 C -0.17085 0.66469 0.27040
 C395 C -0.18812 0.68279 0.27003
 C396 C -0.19814 0.69028 0.24809
 C397 C -0.19021 0.67859 0.22659
 C398 C -0.17287 0.66054 0.22703
 C399 C -0.14417 0.63458 0.24932
 N400 N -0.13587 0.62416 0.22851
 N401 N -0.11885 0.60742 0.22890
 C402 C -0.10940 0.60039 0.25012
 N403 N -0.11774 0.61079 0.27093
 N404 N -0.13474 0.62752 0.27054
 C405 C -0.09034 0.58186 0.25059
 C406 C -0.08100 0.57435 0.27267
 C407 C -0.06301 0.55695 0.27317
 C408 C -0.05389 0.54666 0.25161
 C409 C -0.06319 0.55416 0.22953
 C410 C -0.08122 0.57155 0.22902
 H411 H -0.16376 0.65949 0.28764
 H412 H -0.19410 0.69016 0.28725
 H413 H -0.19640 0.68398 0.20908
 H414 H -0.16707 0.65236 0.21008
 H415 H -0.08758 0.58188 0.28964
 H416 H -0.05624 0.55158 0.29049
 H417 H -0.05657 0.54658 0.21260
 H418 H -0.08797 0.57692 0.21170
 C419 C -0.15950 0.34123 0.74842
 C420 C -0.17108 0.33448 0.77005
 C421 C -0.18904 0.31652 0.77016
 C422 C -0.19602 0.30456 0.74859
 C423 C -0.18417 0.31149 0.72693
 C424 C -0.16628 0.32953 0.72688
 C425 C -0.14045 0.36034 0.74837
 N426 N -0.12977 0.36749 0.72738
 N427 N -0.11266 0.38464 0.72736
 C428 C -0.10549 0.39537 0.74832
 N429 N -0.11618 0.38821 0.76931
 N430 N -0.13329 0.37108 0.76933
 C431 C -0.08641 0.41443 0.74833
 C432 C -0.07836 0.42479 0.77016
 C433 C -0.06033 0.44269 0.77019
 C434 C -0.04995 0.45071 0.74839
 C435 C -0.05801 0.44041 0.72655
 C436 C -0.07601 0.42247 0.72652
 H437 H -0.16618 0.34297 0.78705
 H438 H -0.19658 0.31150 0.78752
 H439 H -0.18924 0.30381 0.70965
 H440 H -0.15787 0.33440 0.70982
 H441 H -0.08594 0.41904 0.78730
 H442 H -0.05454 0.45026 0.78733
 H443 H -0.05038 0.44618 0.70944
 H444 H -0.08177 0.41492 0.70937
 C445 C 0.24717 0.16040 0.34687
 C446 C 0.22528 0.16754 0.33662
 C447 C 0.22518 0.18537 0.31915
 C448 C 0.24696 0.19648 0.31151
 C449 C 0.26882 0.18944 0.32183
 C450 C 0.26893 0.17161 0.33929
 C451 C 0.24734 0.14132 0.36525
 N452 N 0.26856 0.13377 0.37448
 N453 N 0.26874 0.11658 0.39091
 C454 C 0.24772 0.10618 0.39883
 N455 N 0.22649 0.11373 0.38961
 N456 N 0.22631 0.13092 0.37317
 C457 C 0.24795 0.08704 0.41715
 C458 C 0.22613 0.07688 0.42596
 C459 C 0.22638 0.05893 0.44331
 C460 C 0.24845 0.05069 0.45222
 C461 C 0.27026 0.06078 0.44336
 C462 C 0.27002 0.07875 0.42605
 H463 H 0.20818 0.15926 0.34197
 H464 H 0.20807 0.19019 0.31131
 H465 H 0.28586 0.19790 0.31658
 H466 H 0.28611 0.16665 0.34685
 H467 H 0.20880 0.08282 0.41953
 H468 H 0.20925 0.05153 0.44976
 H469 H 0.28758 0.05484 0.44985
 H470 H 0.28718 0.08613 0.41966
 C471 C 0.75036 0.15739 0.65814
 C472 C 0.72840 0.16762 0.66606
 C473 C 0.72822 0.18563 0.68393
 C474 C 0.74997 0.19383 0.69434
 C475 C 0.77192 0.18358 0.68648
 C476 C 0.77211 0.16559 0.66859
 C477 C 0.75058 0.13833 0.63911
 N478 N 0.77182 0.12898 0.63084
 N479 N 0.77201 0.11190 0.61372
 C480 C 0.75097 0.10341 0.60412
 N481 N 0.72973 0.11275 0.61239
 N482 N 0.72954 0.12984 0.62950
 C483 C 0.75118 0.08440 0.58503
 C484 C 0.72933 0.07512 0.57569
 C485 C 0.72952 0.05720 0.55773
 C486 C 0.75156 0.04814 0.54864
 C487 C 0.77341 0.05741 0.55795
 C488 C 0.77323 0.07531 0.57594
 H489 H 0.71131 0.16182 0.65837
 H490 H 0.71105 0.19339 0.68938
 H491 H 0.78895 0.18928 0.69438
 H492 H 0.78935 0.15806 0.66302
 H493 H 0.71201 0.08167 0.58227
 H494 H 0.71235 0.05045 0.55095
 H495 H 0.79071 0.05082 0.55134
 H496 H 0.79041 0.08203 0.58269
 C497 C 0.25177 -0.15595 0.66036
 C498 C 0.23003 -0.16387 0.67141
 C499 C 0.23024 -0.18154 0.68903
 C500 C 0.25218 -0.19174 0.69601
 C501 C 0.27392 -0.18377 0.68504
 C502 C 0.27373 -0.16609 0.66742
 C503 C 0.25151 -0.13730 0.64154
 N504 N 0.27250 -0.12912 0.63125
 N505 N 0.27224 -0.11242 0.61431
 C506 C 0.25097 -0.10320 0.60690
 N507 N 0.22998 -0.11138 0.61719
 N508 N 0.23025 -0.12806 0.63414
 C509 C 0.25067 -0.08463 0.58801
 C510 C 0.22857 -0.07564 0.57988
 C511 C 0.22827 -0.05815 0.56208
 C512 C 0.25006 -0.04920 0.55200
 C513 C 0.27215 -0.05817 0.56010
 C514 C 0.27245 -0.07569 0.57788
 H515 H 0.21280 -0.15641 0.66651
 H516 H 0.21322 -0.18705 0.69739
 H517 H 0.29108 -0.19149 0.68982
 H518 H 0.29081 -0.16047 0.65926
 H519 H 0.21144 -0.08212 0.58726
 H520 H 0.21094 -0.05162 0.55625
 H521 H 0.28926 -0.05166 0.55270
 H522 H 0.28980 -0.08218 0.58369
 C523 C 0.75206 -0.16175 0.33757
 C524 C 0.74870 -0.18602 0.34356
 C525 C 0.74885 -0.20388 0.32553
 C526 C 0.75179 -0.19774 0.30119
 C527 C 0.75488 -0.17351 0.29513
 C528 C 0.75529 -0.15568 0.31319
 C529 C 0.75216 -0.14289 0.35665
 N530 N 0.76435 -0.12180 0.35331
 N531 N 0.76451 -0.10484 0.37056
 C532 C 0.75229 -0.10820 0.39173
 N533 N 0.74000 -0.12924 0.39502
 N534 N 0.74004 -0.14629 0.37787
 C535 C 0.75231 -0.08931 0.41080
 C536 C 0.73295 -0.08773 0.42750
 C537 C 0.73280 -0.06967 0.44534
 C538 C 0.75226 -0.05322 0.44715
 C539 C 0.77176 -0.05498 0.43064
 C540 C 0.77165 -0.07269 0.41246
 H541 H 0.74628 -0.19121 0.36220
 H542 H 0.74636 -0.22249 0.33054
 H543 H 0.75726 -0.16844 0.27644
 H544 H 0.75780 -0.13711 0.30807
 H545 H 0.71776 -0.10024 0.42657
 H546 H 0.71758 -0.06876 0.45790
 H547 H 0.78694 -0.04245 0.43160
 H548 H 0.78685 -0.07357 0.39988
 C549 C 0.66316 0.75253 -0.16147
 C550 C 0.67088 0.73080 -0.17213
 C551 C 0.68903 0.73070 -0.19001
 C552 C 0.69990 0.75231 -0.19765
 C553 C 0.69219 0.77404 -0.18702
 C554 C 0.67403 0.77415 -0.16914
 C555 C 0.64389 0.75261 -0.14249
 N556 N 0.63599 0.77357 -0.13247
 N557 N 0.61868 0.77360 -0.11543
 C558 C 0.60855 0.75267 -0.10765
 N559 N 0.61646 0.73172 -0.11767
 N560 N 0.63374 0.73169 -0.13472
 C561 C 0.58930 0.75267 -0.08865
 C562 C 0.57926 0.73092 -0.08032
 C563 C 0.56118 0.73087 -0.06238
 C564 C 0.55267 0.75257 -0.05235
 C565 C 0.56266 0.77433 -0.06068
 C566 C 0.58078 0.77438 -0.07861
 H567 H 0.66287 0.71382 -0.16674
 H568 H 0.69433 0.71370 -0.19809
 H569 H 0.70043 0.79096 -0.19232
 H570 H 0.66860 0.79121 -0.16128
 H571 H 0.58538 0.71386 -0.08762
 H572 H 0.55386 0.71379 -0.05638
 H573 H 0.55651 0.79136 -0.05332
 H574 H 0.58808 0.79147 -0.08459
 C575 C 0.33898 0.25285 -0.15537
 C576 C 0.32764 0.23133 -0.16305
 C577 C 0.31005 0.23143 -0.18095
 C578 C 0.30338 0.25305 -0.19161
 C579 C 0.31463 0.27458 -0.18388
 C580 C 0.33222 0.27449 -0.16597
 C581 C 0.35780 0.25269 -0.13651
 N582 N 0.36828 0.27350 -0.12847
 N583 N 0.38524 0.27332 -0.11160
 C584 C 0.39248 0.25232 -0.10204
 N585 N 0.38199 0.23152 -0.11007
 N586 N 0.36502 0.23170 -0.12693
 C587 C 0.41141 0.25210 -0.08330
 C588 C 0.41947 0.23026 -0.07410
 C589 C 0.43733 0.23004 -0.05647
 C590 C 0.44755 0.25164 -0.04758
 C591 C 0.43950 0.27348 -0.05675
 C592 C 0.42166 0.27371 -0.07442
 H593 H 0.33231 0.21434 -0.15523
 H594 H 0.30146 0.21459 -0.18626
 H595 H 0.31010 0.29149 -0.19196
 H596 H 0.34061 0.29139 -0.16055
 H597 H 0.41200 0.21328 -0.08052
 H598 H 0.44311 0.21291 -0.04978
 H599 H 0.44700 0.29044 -0.05030
 H600 H 0.41590 0.29086 -0.08107
 C601 C 0.33952 0.75025 0.15796
 C602 C 0.32820 0.72862 0.16479
 C603 C 0.31013 0.72835 0.18276
 C604 C 0.30280 0.74977 0.19465
 C605 C 0.31430 0.77145 0.18754
 C606 C 0.33229 0.77165 0.16951
 C607 C 0.35879 0.75049 0.13899
 N608 N 0.36929 0.77150 0.13189
 N609 N 0.38666 0.77172 0.11492
 C610 C 0.39429 0.75094 0.10430
 N611 N 0.38379 0.72994 0.11139
 N612 N 0.36642 0.72972 0.12836
 C613 C 0.41366 0.75119 0.08542
 C614 C 0.42212 0.72959 0.07508
 C615 C 0.44035 0.72981 0.05728
 C616 C 0.45053 0.75164 0.04935
 C617 C 0.44210 0.77324 0.05967
 C618 C 0.42389 0.77302 0.07751
 H619 H 0.33342 0.71173 0.15639
 H620 H 0.30281 0.71102 0.18788
 H621 H 0.30892 0.78862 0.19510
 H622 H 0.34046 0.78871 0.16456
 H623 H 0.41468 0.71244 0.08074
 H624 H 0.44643 0.71285 0.04970
 H625 H 0.44956 0.79037 0.05397
 H626 H 0.41782 0.79000 0.08505
 C627 C 0.65316 0.24886 0.16384
 C628 C 0.66009 0.27020 0.17598
 C629 C 0.67774 0.26995 0.19384
 C630 C 0.68889 0.24838 0.19996
 C631 C 0.68186 0.22704 0.18793
 C632 C 0.66419 0.22727 0.17010
 C633 C 0.63469 0.24913 0.14465
 N634 N 0.62725 0.22840 0.13360
 N635 N 0.61079 0.22864 0.11625
 C636 C 0.60107 0.24962 0.10916
 N637 N 0.60851 0.27035 0.12021
 N638 N 0.62495 0.27011 0.13758
 C639 C 0.58278 0.24987 0.08980
 C640 C 0.57361 0.27170 0.08169
 C641 C 0.55632 0.27193 0.06350
 C642 C 0.54774 0.25033 0.05302
 C643 C 0.55693 0.22851 0.06108
 C644 C 0.57426 0.22828 0.07923
 H645 H 0.65190 0.28713 0.17172
 H646 H 0.68253 0.28664 0.20301
 H647 H 0.69035 0.21019 0.19197
 H648 H 0.65937 0.21051 0.16109
 H649 H 0.57977 0.28868 0.08939
 H650 H 0.54960 0.28906 0.05772
 H651 H 0.55071 0.21155 0.05337
 H652 H 0.58091 0.21113 0.08502
 C653 C -0.15451 0.66141 0.74702
 C654 C -0.16574 0.66910 0.76863
 C655 C -0.18333 0.68691 0.76862
 C656 C -0.19029 0.69777 0.74694
 C657 C -0.17869 0.69001 0.72531
 C658 C -0.16117 0.67211 0.72538
 C659 C -0.13604 0.64230 0.74709
 N660 N -0.12574 0.63414 0.72614
 N661 N -0.10923 0.61690 0.72624
 C662 C -0.10230 0.60708 0.74730
 N663 N -0.11258 0.61526 0.76825
 N664 N -0.12910 0.63247 0.76814
 C665 C -0.08390 0.58790 0.74746
 C666 C -0.07611 0.57848 0.76939
 C667 C -0.05870 0.56050 0.76958
 C668 C -0.04869 0.55146 0.74786
 C669 C -0.05652 0.56079 0.72592
 C670 C -0.07391 0.57882 0.72572
 H671 H -0.16090 0.66142 0.78571
 H672 H -0.19064 0.69266 0.78596
 H673 H -0.18373 0.69686 0.70796
 H674 H -0.15299 0.66652 0.70834
 H675 H -0.08340 0.58504 0.78648
 H676 H -0.05307 0.55369 0.78679
 H677 H -0.04916 0.55423 0.70886
 H678 H -0.07949 0.58562 0.70850
 C679 C -0.16332 0.33782 0.25395
 C680 C -0.18729 0.34337 0.24841
 C681 C -0.20525 0.32540 0.24781
 C682 C -0.19984 0.30144 0.25350
 C683 C -0.17568 0.29617 0.25946
 C684 C -0.15763 0.31405 0.25929
 C685 C -0.14429 0.35671 0.25406
 N686 N -0.12119 0.35159 0.24709
 N687 N -0.10404 0.36869 0.24697
 C688 C -0.10926 0.39151 0.25412
 N689 N -0.13232 0.39660 0.26126
 N690 N -0.14954 0.37956 0.26108
 C691 C -0.09025 0.41042 0.25406
 C692 C -0.09054 0.42894 0.27158
 C693 C -0.07233 0.44669 0.27168
 C694 C -0.05397 0.44659 0.25385
 C695 C -0.05388 0.42826 0.23613
 C696 C -0.07167 0.41012 0.23645
 H697 H -0.19212 0.36162 0.24425
 H698 H -0.22357 0.33066 0.24386
 H699 H -0.17030 0.27802 0.26323
 H700 H -0.13922 0.30933 0.26359
 H701 H -0.10463 0.42948 0.28540
 H702 H -0.07280 0.46071 0.28547
 H703 H -0.03983 0.42778 0.22226
 H704 H -0.07114 0.39608 0.22270
 C705 C 0.16026 0.34429 0.75152
 C706 C 0.16708 0.33402 0.77338
 C707 C 0.18472 0.31625 0.77366
 C708 C 0.19596 0.30833 0.75208
 C709 C 0.18922 0.31866 0.73024
 C710 C 0.17158 0.33641 0.72995
 C711 C 0.14140 0.36301 0.75118
 N712 N 0.13415 0.37234 0.73000
 N713 N 0.11714 0.38908 0.72968
 C714 C 0.10665 0.39723 0.75053
 N715 N 0.11390 0.38792 0.77171
 N716 N 0.13090 0.37117 0.77203
 C717 C 0.08768 0.41585 0.75016
 C718 C 0.07740 0.42479 0.77183
 C719 C 0.05955 0.44235 0.77149
 C720 C 0.05152 0.45136 0.74948
 C721 C 0.06176 0.44242 0.72782
 C722 C 0.07964 0.42488 0.72816
 H723 H 0.15870 0.33959 0.79033
 H724 H 0.18930 0.30842 0.79074
 H725 H 0.19780 0.31318 0.71336
 H726 H 0.16686 0.34398 0.71279
 H727 H 0.08314 0.41827 0.78911
 H728 H 0.05203 0.44885 0.78850
 H729 H 0.05599 0.44898 0.71056
 H730 H 0.08714 0.41841 0.71113
 C731 C 0.15787 0.65681 0.25145
 C732 C 0.16497 0.66835 0.27297
 C733 C 0.18285 0.68640 0.27279
 C734 C 0.19436 0.69352 0.25101
 C735 C 0.18711 0.68166 0.22947
 C736 C 0.16916 0.66368 0.22972
 C737 C 0.13875 0.63777 0.25167
 N738 N 0.13127 0.62711 0.23079
 N739 N 0.11406 0.61007 0.23099
 C740 C 0.10358 0.60294 0.25209
 N741 N 0.11108 0.61359 0.27297
 N742 N 0.12828 0.63064 0.27277
 C743 C 0.08439 0.58398 0.25231
 C744 C 0.07418 0.57607 0.27425
 C745 C 0.05611 0.55820 0.27446
 C746 C 0.04779 0.54784 0.25275
 C747 C 0.05797 0.55576 0.23082
 C748 C 0.07607 0.57360 0.23060
 H749 H 0.15681 0.66338 0.29010
 H750 H 0.18816 0.69396 0.29005
 H751 H 0.19442 0.68680 0.21206
 H752 H 0.16402 0.65529 0.21274
 H753 H 0.08014 0.58364 0.29132
 H754 H 0.04864 0.55251 0.29167
 H755 H 0.05198 0.54814 0.21377
 H756 H 0.08350 0.57925 0.21337
 C757 C 0.75534 -0.16033 0.65497
 C758 C 0.73355 -0.17124 0.66293
 C759 C 0.73366 -0.18865 0.68080
 C760 C 0.75554 -0.19558 0.69116
 C761 C 0.77734 -0.18480 0.68313
 C762 C 0.77725 -0.16738 0.66524
 C763 C 0.75513 -0.14165 0.63619
 N764 N 0.77614 -0.13146 0.62794
 N765 N 0.77589 -0.11459 0.61116
 C766 C 0.75462 -0.10716 0.60194
 N767 N 0.73363 -0.11736 0.61019
 N768 N 0.73388 -0.13423 0.62694
 C769 C 0.75428 -0.08832 0.58332
 C770 C 0.73213 -0.08017 0.57447
 C771 C 0.73174 -0.06243 0.55695
 C772 C 0.75347 -0.05242 0.54780
 C773 C 0.77563 -0.06054 0.55662
 C774 C 0.77602 -0.07828 0.57419
 H775 H 0.71635 -0.16635 0.65536
 H776 H 0.71660 -0.19689 0.68634
 H777 H 0.79446 -0.18955 0.69097
 H778 H 0.79436 -0.15932 0.65959
 H779 H 0.71503 -0.08748 0.58108
 H780 H 0.71436 -0.05659 0.55053
 H781 H 0.79269 -0.05319 0.54995
 H782 H 0.79341 -0.08412 0.58058
 C783 C 0.24859 -0.15971 0.34196
 C784 C 0.22669 -0.16789 0.33180
 C785 C 0.22666 -0.18584 0.31385
 C786 C 0.24851 -0.19603 0.30565
 C787 C 0.27040 -0.18789 0.31582
 C788 C 0.27045 -0.16994 0.33375
 C789 C 0.24865 -0.14061 0.36095
 N790 N 0.26983 -0.13216 0.37027
 N791 N 0.26990 -0.11499 0.38731
 C792 C 0.24878 -0.10555 0.39578
 N793 N 0.22760 -0.11401 0.38647
 N794 N 0.22754 -0.13116 0.36942
 C795 C 0.24886 -0.08644 0.41477
 C796 C 0.22694 -0.07721 0.42402
 C797 C 0.22701 -0.05925 0.44194
 C798 C 0.24900 -0.05007 0.45102
 C799 C 0.27092 -0.05926 0.44176
 C800 C 0.27084 -0.07724 0.42386
 H801 H 0.20953 -0.16038 0.33761
 H802 H 0.20953 -0.19150 0.30614
 H803 H 0.28751 -0.19562 0.31012
 H804 H 0.28764 -0.16415 0.34122
 H805 H 0.20967 -0.08387 0.41745
 H806 H 0.20981 -0.05256 0.44868
 H807 H 0.28817 -0.05258 0.44837
 H808 H 0.28807 -0.08391 0.41716
 C809 C 0.74800 0.15314 0.33874
 C810 C 0.72607 0.16383 0.33246
 C811 C 0.72574 0.18178 0.31513
 C812 C 0.74732 0.18945 0.30363
 C813 C 0.76923 0.17864 0.30976
 C814 C 0.76957 0.16071 0.32712
 C815 C 0.74840 0.13441 0.35746
 N816 N 0.76970 0.12498 0.36452
 N817 N 0.77009 0.10833 0.38150
 C818 C 0.74919 0.10037 0.39215
 N819 N 0.72788 0.10976 0.38505
 N820 N 0.72750 0.12642 0.36809
 C821 C 0.74964 0.08192 0.41115
 C822 C 0.72793 0.07294 0.42142
 C823 C 0.72839 0.05557 0.43935
 C824 C 0.75057 0.04682 0.44746
 C825 C 0.77227 0.05581 0.43723
 C826 C 0.77182 0.07313 0.41928
 H827 H 0.70912 0.15851 0.34108
 H828 H 0.70862 0.18998 0.31105
 H829 H 0.78611 0.18392 0.30099
 H830 H 0.78677 0.15281 0.33141
 H831 H 0.71053 0.07929 0.41560
 H832 H 0.71134 0.04902 0.44686
 H833 H 0.78967 0.04943 0.44306
 H834 H 0.78889 0.07964 0.41181
 C835 C 0.24958 0.16094 0.66169
 C836 C 0.22769 0.16883 0.67226
 C837 C 0.22773 0.18689 0.69009
 C838 C 0.24964 0.19748 0.69777
 C839 C 0.27152 0.18961 0.68722
 C840 C 0.27150 0.17155 0.66940
 C841 C 0.24955 0.14178 0.64277
 N842 N 0.27068 0.13380 0.63284
 N843 N 0.27065 0.11661 0.61583
 C844 C 0.24949 0.10664 0.60802
 N845 N 0.22835 0.11462 0.61795
 N846 N 0.22838 0.13181 0.63496
 C847 C 0.24944 0.08752 0.58905
 C848 C 0.22748 0.07758 0.58068
 C849 C 0.22743 0.05962 0.56276
 C850 C 0.24936 0.05115 0.55280
 C851 C 0.27132 0.06104 0.56119
 C852 C 0.27137 0.07903 0.57909
 H853 H 0.21048 0.16102 0.66684
 H854 H 0.21060 0.19234 0.69810
 H855 H 0.28867 0.19764 0.69254
 H856 H 0.28869 0.16599 0.66161
 H857 H 0.21025 0.08368 0.58792
 H858 H 0.21019 0.05237 0.55670
 H859 H 0.28853 0.05492 0.55389
 H860 H 0.28863 0.08625 0.58511
   
