data_POSCAR
  _audit_creation_date              2014-09-24
  _audit_creation_method            'ToBaCCo'
  _symmetry_space_group_name_H-M    'P1'
  _symmetry_Int_Tables_number       1
  _symmetry_cell_setting            triclinic
  loop_
  _symmetry_equiv_pos_as_xyz
 x,y,z
_cell_length_a 24.6097
_cell_length_b 26.6143
_cell_length_c 7.7072
_cell_angle_alpha 89.999800
_cell_angle_beta 90.000000
_cell_angle_gamma 90.000000
loop_
  _atom_site_label
  _atom_site_type_symbol
  _atom_site_fract_x
  _atom_site_fract_y
  _atom_site_fract_z
O1 O 0.29168 0.28149 0.47001
 O2 O 0.18886 0.19414 0.29831
 O3 O 0.29243 0.18822 0.37422
 O4 O 0.18837 0.28752 0.39297
 O5 O 0.20896 0.30998 0.12463
 O6 O 0.31295 0.21066 0.10586
 O7 O 0.20922 0.21659 0.02990
 O8 O 0.31211 0.30393 0.20161
 Cu9 Cu 0.23819 0.23544 0.41059
 Cu10 Cu 0.26295 0.26258 0.08867
 C11 C 0.31978 0.30705 0.36396
 C12 C 0.18101 0.19116 0.13604
 C13 C 0.32090 0.18324 0.23809
 C14 C 0.18065 0.31509 0.26098
 O15 O 0.81163 0.28752 0.39297
 O16 O 0.70757 0.18822 0.37422
 O17 O 0.81114 0.19414 0.29831
 O18 O 0.70832 0.28149 0.47001
 O19 O 0.68789 0.30393 0.20161
 O20 O 0.79078 0.21659 0.02990
 O21 O 0.68705 0.21066 0.10587
 O22 O 0.79104 0.30998 0.12463
 Cu23 Cu 0.76181 0.23544 0.41059
 Cu24 Cu 0.73705 0.26258 0.08867
 C25 C 0.81935 0.31509 0.26098
 C26 C 0.67910 0.18324 0.23809
 C27 C 0.81899 0.19116 0.13604
 C28 C 0.68022 0.30705 0.36396
 O29 O 0.70922 0.78341 0.52989
 O30 O 0.81211 0.69607 0.70161
 O31 O 0.70896 0.69002 0.62462
 O32 O 0.81295 0.78934 0.60586
 O33 O 0.79243 0.81178 0.87422
 O34 O 0.68837 0.71248 0.89296
 O35 O 0.79168 0.71851 0.97001
 O36 O 0.68886 0.80587 0.79830
 Cu37 Cu 0.76295 0.73743 0.58867
 Cu38 Cu 0.73819 0.76456 0.91058
 C39 C 0.68101 0.80884 0.63603
 C40 C 0.81978 0.69295 0.86396
 C41 C 0.68065 0.68491 0.76097
 C42 C 0.82090 0.81676 0.73809
 O43 O 0.31114 0.80587 0.79830
 O44 O 0.20832 0.71851 0.97000
 O45 O 0.31163 0.71248 0.89296
 O46 O 0.20757 0.81178 0.87421
 O47 O 0.18705 0.78934 0.60586
 O48 O 0.29104 0.69002 0.62462
 O49 O 0.18789 0.69607 0.70161
 O50 O 0.29078 0.78341 0.52989
 Cu51 Cu 0.26181 0.76456 0.91058
 Cu52 Cu 0.23705 0.73743 0.58866
 C53 C 0.31899 0.80884 0.63603
 C54 C 0.18022 0.69295 0.86396
 C55 C 0.31935 0.68491 0.76097
 C56 C 0.17910 0.81676 0.73809
 C57 C 1.04945 0.10948 -0.01856
 C58 C 1.00000 0.13378 0.01070
 C59 C 0.95055 0.10948 -0.01856
 C60 C 0.95001 0.05954 -0.08057
 C61 C 1.00000 0.03447 -0.11147
 C62 C 1.04999 0.05954 -0.08057
 C63 C 1.09903 0.03379 -0.10983
 C64 C 1.09902 -0.01597 -0.16579
 C65 C 1.04998 -0.04176 -0.19466
 C66 C 1.00000 -0.01621 -0.16874
 C67 C 0.90097 0.03379 -0.10983
 C68 C 0.90098 -0.01597 -0.16578
 C69 C 0.95002 -0.04176 -0.19466
 C70 C 0.95057 -0.09274 -0.24557
 C71 C 1.00000 -0.11738 -0.27140
 C72 C 1.04943 -0.09274 -0.24557
 H73 H 1.13787 0.05187 -0.08852
 H74 H 1.13787 -0.03421 -0.18533
 H75 H 0.86213 0.05187 -0.08852
 H76 H 0.86213 -0.03421 -0.18533
 H77 H 1.00000 0.17187 0.06120
 H78 H 1.00000 -0.15690 -0.30638
 C79 C 0.54941 0.59171 0.74572
 C80 C 0.50000 0.61633 0.77159
 C81 C 0.45059 0.59171 0.74572
 C82 C 0.45002 0.54073 0.69490
 C83 C 0.50000 0.51517 0.66909
 C84 C 0.54998 0.54073 0.69490
 C85 C 0.59903 0.51495 0.66600
 C86 C 0.59903 0.46516 0.61021
 C87 C 0.54999 0.43941 0.58115
 C88 C 0.50000 0.46449 0.61198
 C89 C 0.40097 0.51495 0.66600
 C90 C 0.40097 0.46516 0.61021
 C91 C 0.45001 0.43941 0.58115
 C92 C 0.45058 0.38945 0.51938
 C93 C 0.50000 0.36514 0.49033
 C94 C 0.54942 0.38945 0.51938
 H95 H 0.63787 0.53322 0.68545
 H96 H 0.63787 0.44707 0.58887
 H97 H 0.36213 0.53321 0.68545
 H98 H 0.36213 0.44707 0.58887
 H99 H 0.50000 0.65587 0.80649
 H100 H 0.50000 0.32703 0.44001
 C101 C -0.04941 0.40829 0.24573
 C102 C 0.00000 0.38367 0.27160
 C103 C 0.04941 0.40829 0.24573
 C104 C 0.04998 0.45927 0.19491
 C105 C 0.00000 0.48483 0.16909
 C106 C -0.04998 0.45927 0.19491
 C107 C -0.09903 0.48505 0.16601
 C108 C -0.09903 0.53484 0.11021
 C109 C -0.04999 0.56060 0.08115
 C110 C 0.00000 0.53551 0.11199
 C111 C 0.09903 0.48505 0.16601
 C112 C 0.09903 0.53484 0.11021
 C113 C 0.04999 0.56060 0.08115
 C114 C 0.04942 0.61055 0.01938
 C115 C -0.00000 0.63486 -0.00967
 C116 C -0.04942 0.61055 0.01938
 H117 H -0.13787 0.46679 0.18546
 H118 H -0.13787 0.55293 0.08888
 H119 H 0.13787 0.46679 0.18545
 H120 H 0.13787 0.55293 0.08887
 H121 H 0.00000 0.34413 0.30650
 H122 H -0.00000 0.67297 -0.05999
 C123 C 0.45055 0.89052 0.48143
 C124 C 0.50000 0.86622 0.51069
 C125 C 0.54945 0.89052 0.48143
 C126 C 0.54999 0.94046 0.41942
 C127 C 0.50000 0.96554 0.38852
 C128 C 0.45001 0.94046 0.41942
 C129 C 0.40097 0.96621 0.39016
 C130 C 0.40098 1.01597 0.33421
 C131 C 0.45002 1.04176 0.30533
 C132 C 0.50000 1.01621 0.33126
 C133 C 0.59903 0.96621 0.39016
 C134 C 0.59902 1.01597 0.33421
 C135 C 0.54998 1.04176 0.30533
 C136 C 0.54943 1.09274 0.25442
 C137 C 0.50000 1.11738 0.22860
 C138 C 0.45057 1.09274 0.25442
 H139 H 0.36213 0.94813 0.41147
 H140 H 0.36213 1.03421 0.31466
 H141 H 0.63787 0.94813 0.41147
 H142 H 0.63787 1.03421 0.31466
 H143 H 0.50000 0.82813 0.56119
 H144 H 0.50000 1.15691 0.19362
 C145 C 1.13735 0.16041 0.07343
 C146 C 1.09841 0.13633 0.02767
 C147 C 0.63697 0.64931 0.76187
 C148 C 0.59818 0.62171 0.75735
 C149 C -0.13696 0.35069 0.26188
 C150 C -0.09818 0.37830 0.25736
 C151 C 0.36265 0.83959 0.57342
 C152 C 0.40159 0.86368 0.52766
 C153 C -0.13695 0.66185 -0.07313
 C154 C -0.09827 0.63749 -0.02702
 C155 C 0.36269 1.15000 0.23782
 C156 C 0.40169 1.12263 0.24249
 C157 C 1.13731 -0.15000 -0.26218
 C158 C 1.09831 -0.12263 -0.25751
 C159 C 0.63695 0.33816 0.42687
 C160 C 0.59827 0.36251 0.47298
 C161 C 0.86269 -0.15000 -0.26217
 C162 C 0.90169 -0.12263 -0.25751
 C163 C 0.36305 0.33816 0.42687
 C164 C 0.40173 0.36251 0.47298
 C165 C 0.13695 0.66185 -0.07314
 C166 C 0.09827 0.63749 -0.02702
 C167 C 0.63731 1.15000 0.23783
 C168 C 0.59831 1.12263 0.24249
 C169 C 0.13697 0.35069 0.26188
 C170 C 0.09818 0.37830 0.25736
 C171 C 0.63735 0.83959 0.57343
 C172 C 0.59841 0.86368 0.52766
 C173 C 0.86265 0.16041 0.07343
 C174 C 0.90159 0.13633 0.02767
 C175 C 0.36303 0.64931 0.76187
 C176 C 0.40182 0.62171 0.75735
   
