data_POSCAR
  _audit_creation_date              2014-09-24
  _audit_creation_method            'ToBaCCo'
  _symmetry_space_group_name_H-M    'P1'
  _symmetry_Int_Tables_number       1
  _symmetry_cell_setting            triclinic
  loop_
  _symmetry_equiv_pos_as_xyz
 x,y,z
_cell_length_a 30.1015
_cell_length_b 30.2296
_cell_length_c 30.1788
_cell_angle_alpha 90.317300
_cell_angle_beta 90.989500
_cell_angle_gamma 91.645000
loop_
  _atom_site_label
  _atom_site_type_symbol
  _atom_site_fract_x
  _atom_site_fract_y
  _atom_site_fract_z
C1 C -0.06924 0.51108 0.25940
 C2 C -0.02709 0.52206 0.24320
 C3 C -0.01829 0.56475 0.22688
 C4 C -0.05143 0.59696 0.22655
 C5 C -0.09358 0.58487 0.24352
 C6 C -0.10307 0.54221 0.26040
 C7 C 0.00797 0.48868 0.24539
 C8 C -0.00091 0.44578 0.22888
 C9 C 0.03046 0.41259 0.23364
 C10 C 0.07105 0.42282 0.25571
 C11 C 0.08058 0.46563 0.27259
 C12 C 0.04889 0.49854 0.26674
 H13 H -0.07424 0.47870 0.27393
 H14 H 0.01496 0.57276 0.21581
 H15 H -0.03227 0.43847 0.21185
 H16 H 0.05554 0.53161 0.27967
 H17 H -0.12039 0.60768 0.24034
 H18 H 0.09466 0.39693 0.26104
 C19 C -0.05030 0.48625 0.72859
 C20 C -0.00789 0.47947 0.74655
 C21 C 0.00335 0.43721 0.76103
 C22 C -0.02754 0.40123 0.75790
 C23 C -0.06982 0.40883 0.73879
 C24 C -0.08148 0.45115 0.72456
 C25 C 0.02443 0.51701 0.75075
 C26 C 0.01200 0.55631 0.77133
 C27 C 0.04144 0.59337 0.77443
 C28 C 0.08396 0.58978 0.75568
 C29 C 0.09686 0.55048 0.73496
 C30 C 0.06692 0.51408 0.73306
 H31 H -0.05874 0.51889 0.71701
 H32 H 0.03663 0.43269 0.77405
 H33 H -0.02155 0.55796 0.78342
 H34 H 0.07599 0.48394 0.71631
 H35 H -0.09516 0.38271 0.73765
 H36 H 0.10831 0.61668 0.75888
 C37 C 0.26719 -0.07032 0.51151
 C38 C 0.24842 -0.02892 0.51767
 C39 C 0.22228 -0.02131 0.55456
 C40 C 0.21448 -0.05498 0.58530
 C41 C 0.23361 -0.09632 0.57919
 C42 C 0.26045 -0.10476 0.54232
 C43 C 0.25370 0.00561 0.48388
 C44 C 0.23643 -0.00209 0.44116
 C45 C 0.23769 0.03134 0.40881
 C46 C 0.25859 0.07239 0.42029
 C47 C 0.27700 0.08012 0.46291
 C48 C 0.27375 0.04662 0.49476
 H49 H 0.28562 -0.07565 0.48156
 H50 H 0.20764 0.01072 0.55905
 H51 H 0.21914 -0.03342 0.43471
 H52 H 0.28659 0.05239 0.52812
 H53 H 0.22828 -0.12124 0.60426
 H54 H 0.26257 0.09794 0.39559
 C55 C 0.73552 -0.05492 0.48728
 C56 C 0.75209 -0.01228 0.47753
 C57 C 0.76975 -0.00355 0.43564
 C58 C 0.77122 -0.03736 0.40362
 C59 C 0.75446 -0.07989 0.41395
 C60 C 0.73608 -0.08950 0.45569
 C61 C 0.75087 0.02279 0.51186
 C62 C 0.77156 0.01636 0.55335
 C63 C 0.76906 0.04812 0.58769
 C64 C 0.74372 0.08593 0.57926
 C65 C 0.72241 0.09254 0.53812
 C66 C 0.72696 0.06121 0.50418
 H67 H 0.72339 -0.06090 0.52031
 H68 H 0.78241 0.02942 0.42811
 H69 H 0.79105 -0.01287 0.55757
 H70 H 0.71012 0.06557 0.47254
 H71 H 0.75482 -0.10507 0.38840
 H72 H 0.73882 0.11008 0.60512
 C73 C 0.49823 0.26887 1.06212
 C74 C 0.48936 0.25478 1.01840
 C75 C 0.44655 0.23918 1.00628
 C76 C 0.41202 0.23794 1.03725
 C77 C 0.42157 0.25303 1.08077
 C78 C 0.46447 0.26791 1.09355
 C79 C 0.52516 0.25498 0.98551
 C80 C 0.56504 0.23408 0.99534
 C81 C 0.59960 0.23299 0.96443
 C82 C 0.59311 0.25438 0.92340
 C83 C 0.55334 0.27571 0.91315
 C84 C 0.51932 0.27545 0.94434
 H85 H 0.53148 0.28037 1.07165
 H86 H 0.44030 0.22889 0.97226
 H87 H 0.56899 0.21958 1.02781
 H88 H 0.48867 0.29215 0.93715
 H89 H 0.39611 0.25175 1.10564
 H90 H 0.61788 0.25252 0.89797
 C91 C 0.50503 0.73313 1.06500
 C92 C 0.51279 0.75385 1.02437
 C93 C 0.55450 0.77420 1.01630
 C94 C 0.58902 0.77396 1.04876
 C95 C 0.58001 0.75266 1.08931
 C96 C 0.53883 0.73168 1.09728
 C97 C 0.47808 0.75083 0.98925
 C98 C 0.43758 0.77196 0.99455
 C99 C 0.40323 0.76786 0.96208
 C100 C 0.41062 0.74043 0.92488
 C101 C 0.45072 0.71838 0.91966
 C102 C 0.48456 0.72440 0.95182
 H103 H 0.47335 0.71629 1.07054
 H104 H 0.56009 0.78839 0.98396
 H105 H 0.43427 0.79299 1.02334
 H106 H 0.51541 0.70710 0.94882
 H107 H 0.60439 0.75337 1.11608
 H108 H 0.38473 0.73474 0.90011
 B109 B 1.00547 1.05102 0.02433
 B110 B 1.00530 1.05007 -0.03273
 B111 B 1.05150 1.03210 -0.00379
 B112 B 1.03277 1.00518 0.04282
 B113 B 0.97553 1.00534 0.04248
 B114 B 0.95853 1.03310 -0.00469
 B115 B 1.00210 0.95740 -0.03155
 B116 B 1.00228 0.95841 0.02556
 B117 B 0.95624 0.97603 -0.00372
 B118 B 0.97466 1.00311 -0.05022
 B119 B 1.03177 1.00308 -0.04998
 B120 B 1.04913 0.97527 -0.00243
 B121 B 0.54564 0.50095 0.47429
 B122 B 0.49992 0.53130 0.45828
 B123 B 0.49712 0.47396 0.45524
 B124 B 0.52577 0.45378 0.50045
 B125 B 0.54715 0.49819 0.53107
 B126 B 0.53027 0.54686 0.50519
 B127 B 0.45397 0.50012 0.53209
 B128 B 0.49931 0.47015 0.54794
 B129 B 0.50229 0.52696 0.55139
 B130 B 0.47274 0.54726 0.50519
 B131 B 0.45252 0.50266 0.47463
 B132 B 0.46882 0.45490 0.50076
 C133 C 0.97839 1.34718 0.21837
 C134 C 0.96929 1.30537 0.19945
 C135 C 1.00229 1.28327 0.17655
 C136 C 1.04522 1.30294 0.17476
 C137 C 1.05432 1.34453 0.19369
 C138 C 1.02093 1.36744 0.21527
 C139 C 0.99172 1.23974 0.15515
 C140 C 1.01171 1.22764 0.11782
 C141 C 1.00734 1.18352 0.09620
 C142 C 1.04017 1.17244 0.06662
 C143 C 1.03891 1.13166 0.04527
 C144 C 1.00561 1.09895 0.05209
 C145 C 0.97106 1.11191 0.08032
 C146 C 0.97216 1.15293 0.10271
 H147 H 0.95216 1.36360 0.23554
 H148 H 0.93620 1.29064 0.20196
 H149 H 1.07204 1.28618 0.15891
 H150 H 1.08739 1.35915 0.19067
 H151 H 0.96733 1.21793 0.17033
 H152 H 1.03468 1.25106 0.10271
 H153 H 1.06742 1.19552 0.05986
 H154 H 1.06460 1.12694 0.02318
 H155 H 0.94268 1.09104 0.08582
 H156 H 0.94502 1.16073 0.12415
 C157 C 0.93292 0.67676 0.22461
 C158 C 0.93969 0.71892 0.20681
 C159 C 0.97003 0.72621 0.17280
 C160 C 0.99495 0.69052 0.15803
 C161 C 0.98860 0.64825 0.17614
 C162 C 0.95680 0.64022 0.20934
 C163 C 0.97527 0.77161 0.15462
 C164 C 0.98853 0.78017 0.11317
 C165 C 0.99228 0.82531 0.09367
 C166 C 1.01408 0.83049 0.05344
 C167 C 1.01819 0.87191 0.03339
 C168 C 1.00043 0.91049 0.05218
 C169 C 0.97890 0.90443 0.09316
 C170 C 0.97471 0.86301 0.11336
 H171 H 0.90981 0.67357 0.25153
 H172 H 0.92073 0.74601 0.21952
 H173 H 1.01964 0.69505 0.13272
 H174 H 1.00746 0.62172 0.16237
 H175 H 0.96611 0.79837 0.17615
 H176 H 0.99677 0.75278 0.09188
 H177 H 1.02864 0.80231 0.03747
 H178 H 1.03757 0.87313 0.00398
 H179 H 0.96644 0.93130 0.11157
 H180 H 0.95728 0.86121 0.14430
 C181 C 0.96260 1.31995 -0.24277
 C182 C 0.97078 1.27875 -0.22410
 C183 C 0.99837 1.27549 -0.18656
 C184 C 1.01977 1.31383 -0.16933
 C185 C 1.01237 1.35500 -0.18841
 C186 C 0.98275 1.35907 -0.22492
 C187 C 1.00382 1.23189 -0.16572
 C188 C 1.00654 1.22719 -0.12166
 C189 C 1.00744 1.18342 -0.10033
 C190 C 0.98604 1.17718 -0.06019
 C191 C 0.98490 1.13574 -0.04008
 C192 C 1.00612 1.09872 -0.05838
 C193 C 1.02844 1.10666 -0.09863
 C194 C 1.02894 1.14783 -0.11932
 H195 H 0.94122 1.32069 -0.27194
 H196 H 0.95458 1.24941 -0.23839
 H197 H 1.04203 1.31209 -0.14086
 H198 H 1.02808 1.38370 -0.17255
 H199 H 1.00125 1.20280 -0.18686
 H200 H 1.00406 1.25599 -0.10040
 H201 H 0.96893 1.20418 -0.04484
 H202 H 0.96559 1.13334 -0.01058
 H203 H 1.04479 1.08126 -0.11577
 H204 H 1.04653 1.15175 -0.15011
 C205 C 0.99638 0.63249 -0.17073
 C206 C 0.98453 0.67148 -0.14940
 C207 C 1.00448 0.71214 -0.16072
 C208 C 1.03527 0.71334 -0.19522
 C209 C 1.04740 0.67447 -0.21642
 C210 C 1.02857 0.63304 -0.20439
 C211 C 0.99282 0.75261 -0.13598
 C212 C 1.02204 0.78651 -0.13020
 C213 C 1.01400 0.82801 -0.10550
 C214 C 1.04893 0.85913 -0.10259
 C215 C 1.04412 0.89892 -0.08031
 C216 C 1.00419 0.91052 -0.05997
 C217 C 0.96934 0.87828 -0.06268
 C218 C 0.97381 0.83795 -0.08524
 H219 H 0.98160 0.60184 -0.15891
 H220 H 0.96057 0.66968 -0.12304
 H221 H 1.04972 0.74437 -0.20651
 H222 H 1.07032 0.67759 -0.24350
 H223 H 0.96065 0.75301 -0.12066
 H224 H 1.05495 0.78354 -0.14362
 H225 H 1.08048 0.85288 -0.11789
 H226 H 1.07222 0.92088 -0.08091
 H227 H 0.93821 0.88301 -0.04777
 H228 H 0.94566 0.81497 -0.08635
 C229 C 1.21227 0.98131 0.34805
 C230 C 1.18959 0.97410 0.30782
 C231 C 1.17093 1.00930 0.28477
 C232 C 1.17568 1.05222 0.30287
 C233 C 1.19882 1.05962 0.34282
 C234 C 1.21705 1.02422 0.36664
 C235 C 1.14563 0.99951 0.24304
 C236 C 1.13568 1.03047 0.21313
 C237 C 1.11028 1.02172 0.17133
 C238 C 1.10954 1.05518 0.13977
 C239 C 1.08583 1.04931 0.10014
 C240 C 1.06227 1.00952 0.08930
 C241 C 1.06237 0.97664 0.12227
 C242 C 1.08589 0.98233 0.16239
 H243 H 1.22703 0.95305 0.36373
 H244 H 1.18665 0.94071 0.29461
 H245 H 1.16043 1.08025 0.28737
 H246 H 1.19978 1.09296 0.35609
 H247 H 1.13639 0.96525 0.23653
 H248 H 1.14800 1.06406 0.21828
 H249 H 1.12753 1.08629 0.14564
 H250 H 1.08766 1.07637 0.07780
 H251 H 1.04424 0.94629 0.11837
 H252 H 1.08388 0.95595 0.18634
 C253 C 1.14510 0.97284 -0.38102
 C254 C 1.11874 0.98028 -0.34419
 C255 C 1.13382 0.96887 -0.30168
 C256 C 1.17503 0.94850 -0.29670
 C257 C 1.20112 0.94073 -0.33347
 C258 C 1.18654 0.95307 -0.37589
 C259 C 1.10596 0.97766 -0.26303
 C260 C 1.12410 0.98887 -0.22363
 C261 C 1.09838 0.99543 -0.18306
 C262 C 1.11833 1.01943 -0.14823
 C263 C 1.09760 1.02249 -0.10753
 C264 C 1.05613 1.00137 -0.09906
 C265 C 1.03621 0.97803 -0.13556
 C266 C 1.05675 0.97500 -0.17656
 H267 H 1.13296 0.98209 -0.41357
 H268 H 1.08687 0.99551 -0.34878
 H269 H 1.18695 0.93809 -0.26446
 H270 H 1.23296 0.92546 -0.32871
 H271 H 1.07021 0.97656 -0.26773
 H272 H 1.15981 0.99420 -0.22088
 H273 H 1.15091 1.03502 -0.15204
 H274 H 1.11660 1.03922 -0.08257
 H275 H 1.00577 0.95902 -0.13256
 H276 H 1.04079 0.95473 -0.20221
 C277 C 0.76942 0.95339 0.32097
 C278 C 0.78955 0.95703 0.27975
 C279 C 0.83127 0.97844 0.27558
 C280 C 0.85207 0.99705 0.31385
 C281 C 0.83180 0.99342 0.35521
 C282 C 0.79062 0.97086 0.35931
 C283 C 0.85219 0.97839 0.23122
 C284 C 0.88686 1.00463 0.21975
 C285 C 0.90758 1.00378 0.17528
 C286 C 0.94958 1.02382 0.17027
 C287 C 0.96994 1.02495 0.12902
 C288 C 0.94950 1.00608 0.09046
 C289 C 0.90664 0.98658 0.09631
 C290 C 0.88605 0.98561 0.13750
 H291 H 0.73739 0.93633 0.32295
 H292 H 0.77261 0.94250 0.25099
 H293 H 0.88457 1.01306 0.31262
 H294 H 0.84915 1.00672 0.38429
 H295 H 0.83797 0.95516 0.20721
 H296 H 0.90139 1.02768 0.24376
 H297 H 0.96674 1.03931 0.19842
 H298 H 1.00080 1.04340 0.12777
 H299 H 0.88678 0.97426 0.06923
 H300 H 0.85264 0.97171 0.13886
 C301 C 0.80337 1.07946 -0.34370
 C302 C 0.82466 1.07437 -0.30275
 C303 C 0.83480 1.03237 -0.28675
 C304 C 0.82310 0.99515 -0.31304
 C305 C 0.80159 1.00013 -0.35425
 C306 C 0.79105 1.04249 -0.37052
 C307 C 0.85906 1.03010 -0.24352
 C308 C 0.86969 0.99297 -0.22193
 C309 C 0.89653 0.99456 -0.18008
 C310 C 0.89227 0.96088 -0.14873
 C311 C 0.91675 0.96313 -0.10871
 C312 C 0.94548 0.99959 -0.09758
 C313 C 0.95143 1.03077 -0.13158
 C314 C 0.92772 1.02878 -0.17153
 H315 H 0.79864 1.11298 -0.35473
 H316 H 0.83389 1.10380 -0.28368
 H317 H 0.83047 0.96208 -0.30231
 H318 H 0.79200 0.97028 -0.37229
 H319 H 0.86848 1.06164 -0.22842
 H320 H 0.85793 0.96094 -0.23400
 H321 H 0.86970 0.93290 -0.15497
 H322 H 0.91212 0.93594 -0.08688
 H323 H 0.97436 1.05731 -0.12838
 H324 H 0.93471 1.05400 -0.19596
 C325 C 1.33097 1.23663 0.04623
 C326 C 1.28905 1.21777 0.03681
 C327 C 1.28429 1.18184 0.00760
 C328 C 1.32167 1.16652 -0.01419
 C329 C 1.36357 1.18605 -0.00572
 C330 C 1.36918 1.22072 0.02562
 C331 C 1.24005 1.16074 0.00081
 C332 C 1.23418 1.11676 -0.00195
 C333 C 1.18945 1.09573 -0.00398
 C334 C 1.18112 1.05655 0.01889
 C335 C 1.13829 1.03765 0.01957
 C336 C 1.10196 1.05627 -0.00359
 C337 C 1.11219 1.09545 -0.02730
 C338 C 1.15468 1.11484 -0.02746
 H339 H 1.33302 1.26447 0.06895
 H340 H 1.26037 1.23053 0.05332
 H341 H 1.31856 1.13925 -0.03758
 H342 H 1.39170 1.17193 -0.02191
 H343 H 1.21144 1.18160 0.00264
 H344 H 1.26251 1.09563 0.00141
 H345 H 1.20751 1.04125 0.03767
 H346 H 1.13426 1.00910 0.04022
 H347 H 1.08767 1.11298 -0.04484
 H348 H 1.16020 1.14495 -0.04611
 C349 C 0.63989 1.17437 0.00351
 C350 C 0.67887 1.15170 0.01201
 C351 C 0.71859 1.16424 -0.00853
 C352 C 0.71891 1.20104 -0.03681
 C353 C 0.67994 1.22358 -0.04565
 C354 C 0.63944 1.21057 -0.02594
 C355 C 0.75887 1.13852 0.00080
 C356 C 0.79323 1.13733 -0.02685
 C357 C 0.83350 1.11103 -0.01933
 C358 C 0.86270 1.10645 -0.05433
 C359 C 0.90136 1.08272 -0.04907
 C360 C 0.91334 1.06266 -0.00858
 C361 C 0.88307 1.06735 0.02613
 C362 C 0.84427 1.09133 0.02127
 H363 H 0.60984 1.16174 0.01864
 H364 H 0.67772 1.12356 0.03409
 H365 H 0.74928 1.21324 -0.05165
 H366 H 0.68239 1.25240 -0.06665
 H367 H 0.75859 1.11822 0.03015
 H368 H 0.79135 1.15508 -0.05782
 H369 H 0.85578 1.12151 -0.08612
 H370 H 0.92233 1.08199 -0.07705
 H371 H 0.88827 1.05326 0.05770
 H372 H 0.82339 1.09447 0.04979
 C373 C 1.33658 0.80091 -0.07144
 C374 C 1.29661 0.82267 -0.06763
 C375 C 1.28076 0.83515 -0.02615
 C376 C 1.30625 0.82537 0.01186
 C377 C 1.34645 0.80339 0.00817
 C378 C 1.36250 0.79043 -0.03365
 C379 C 1.23852 0.85945 -0.02524
 C380 C 1.21736 0.87244 0.01128
 C381 C 1.17637 0.89870 0.00848
 C382 C 1.14529 0.89677 0.04236
 C383 C 1.10608 0.92066 0.03923
 C384 C 1.09545 0.94651 0.00171
 C385 C 1.12922 0.95022 -0.02988
 C386 C 1.16841 0.92702 -0.02703
 H387 H 1.34765 0.79430 -0.10464
 H388 H 1.27821 0.83036 -0.09765
 H389 H 1.29562 0.83450 0.04458
 H390 H 1.36379 0.79534 0.03860
 H391 H 1.22377 0.86667 -0.05727
 H392 H 1.22910 0.86300 0.04382
 H393 H 1.15111 0.87645 0.07122
 H394 H 1.08438 0.91781 0.06660
 H395 H 1.12637 0.97096 -0.05744
 H396 H 1.19273 0.93220 -0.05262
 C397 C 0.66977 0.77917 0.06430
 C398 C 0.71118 0.80028 0.05962
 C399 C 0.71658 0.83677 0.03167
 C400 C 0.67929 0.85121 0.00753
 C401 C 0.63756 0.82996 0.01210
 C402 C 0.63168 0.79403 0.04142
 C403 C 0.76145 0.85866 0.03020
 C404 C 0.77421 0.88920 0.00054
 C405 C 0.81974 0.90966 0.00022
 C406 C 0.82649 0.95026 -0.02080
 C407 C 0.86891 0.97008 -0.02271
 C408 C 0.90689 0.95033 -0.00383
 C409 C 0.89922 0.90874 0.01639
 C410 C 0.85686 0.88875 0.01822
 H411 H 0.66845 0.75023 0.08518
 H412 H 0.73931 0.78782 0.07809
 H413 H 0.68153 0.87958 -0.01400
 H414 H 0.60968 0.84357 -0.00571
 H415 H 0.78508 0.84879 0.05542
 H416 H 0.75078 0.90048 -0.02416
 H417 H 0.79879 0.96673 -0.03628
 H418 H 0.87139 0.99982 -0.04168
 H419 H 0.92561 0.88926 0.02849
 H420 H 0.85390 0.85612 0.03256
 C421 C 0.83814 0.48694 0.27936
 C422 C 0.79790 0.47597 0.29961
 C423 C 0.77355 0.50852 0.32059
 C424 C 0.78898 0.55276 0.31900
 C425 C 0.82893 0.56394 0.29847
 C426 C 0.85490 0.53116 0.27888
 C427 C 0.73204 0.49576 0.34350
 C428 C 0.71926 0.51705 0.38000
 C429 C 0.67749 0.50733 0.40383
 C430 C 0.67297 0.52555 0.44596
 C431 C 0.63271 0.52203 0.46782
 C432 C 0.59440 0.50048 0.44884
 C433 C 0.60076 0.48020 0.40720
 C434 C 0.64109 0.48379 0.38488
 H435 H 0.85525 0.46058 0.26308
 H436 H 0.78613 0.44176 0.29952
 H437 H 0.77026 0.57895 0.33371
 H438 H 0.84017 0.59822 0.30023
 H439 H 0.71327 0.46706 0.33124
 H440 H 0.74096 0.54299 0.39387
 H441 H 0.70033 0.54413 0.46163
 H442 H 0.63152 0.53958 0.49888
 H443 H 0.57479 0.46303 0.38978
 H444 H 0.64272 0.46953 0.35204
 C445 C 0.12288 0.50165 0.33643
 C446 C 0.16206 0.50920 0.36127
 C447 C 0.20215 0.49084 0.34821
 C448 C 0.20205 0.46445 0.30956
 C449 C 0.16286 0.45699 0.28467
 C450 C 0.12273 0.47529 0.29789
 C451 C 0.24241 0.49827 0.37694
 C452 C 0.28412 0.49230 0.36339
 C453 C 0.32446 0.49811 0.39230
 C454 C 0.36597 0.50096 0.37254
 C455 C 0.40492 0.50415 0.39829
 C456 C 0.40512 0.50479 0.44511
 C457 C 0.36244 0.50231 0.46412
 C458 C 0.32315 0.49899 0.43866
 H459 H 0.09244 0.51558 0.34808
 H460 H 0.16093 0.52923 0.39109
 H461 H 0.23171 0.44853 0.29879
 H462 H 0.16397 0.43670 0.25504
 H463 H 0.23704 0.51034 0.41015
 H464 H 0.28961 0.48375 0.32911
 H465 H 0.36848 0.50073 0.33676
 H466 H 0.43456 0.50803 0.38035
 H467 H 0.35770 0.50164 0.49863
 H468 H 0.29206 0.49569 0.45589
 C469 C 0.85023 0.49653 0.71932
 C470 C 0.80777 0.50404 0.70207
 C471 C 0.78780 0.47451 0.67120
 C472 C 0.81061 0.43644 0.65892
 C473 C 0.85298 0.42885 0.67631
 C474 C 0.87336 0.45897 0.70644
 C475 C 0.74294 0.48387 0.65337
 C476 C 0.72872 0.47012 0.61312
 C477 C 0.68397 0.47843 0.59424
 C478 C 0.66910 0.45324 0.55794
 C479 C 0.62745 0.45987 0.53871
 C480 C 0.59738 0.49128 0.55506
 C481 C 0.61472 0.51767 0.59033
 C482 C 0.65652 0.51143 0.60989
 H483 H 0.86481 0.51989 0.74313
 H484 H 0.79064 0.53326 0.71250
 H485 H 0.79568 0.41208 0.63642
 H486 H 0.87003 0.39960 0.66586
 H487 H 0.72186 0.50342 0.67394
 H488 H 0.75068 0.45126 0.59274
 H489 H 0.69024 0.42876 0.54350
 H490 H 0.62188 0.44252 0.50813
 H491 H 0.59576 0.54116 0.60603
 H492 H 0.66690 0.53291 0.63711
 C493 C 0.15860 0.58338 0.68981
 C494 C 0.19978 0.58053 0.66949
 C495 C 0.22455 0.54202 0.67304
 C496 C 0.20762 0.50662 0.69846
 C497 C 0.16633 0.50946 0.71874
 C498 C 0.14126 0.54778 0.71445
 C499 C 0.26790 0.54071 0.65036
 C500 C 0.28851 0.50326 0.64015
 C501 C 0.33050 0.50267 0.61507
 C502 C 0.34053 0.46475 0.59091
 C503 C 0.37875 0.46360 0.56530
 C504 C 0.40914 0.50006 0.56313
 C505 C 0.39853 0.53767 0.58861
 C506 C 0.36048 0.53895 0.61428
 H507 H 0.13992 0.61318 0.68551
 H508 H 0.21207 0.60839 0.65038
 H509 H 0.22621 0.47693 0.70338
 H510 H 0.15422 0.48183 0.73825
 H511 H 0.28177 0.57207 0.63927
 H512 H 0.27282 0.47158 0.64754
 H513 H 0.31788 0.43624 0.59061
 H514 H 0.38211 0.43470 0.54525
 H515 H 0.41959 0.56719 0.58851
 H516 H 0.35499 0.56854 0.63347
 C517 C 0.56580 0.67751 0.15277
 C518 C 0.56114 0.65375 0.19189
 C519 C 0.52347 0.65830 0.21802
 C520 C 0.48969 0.68637 0.20350
 C521 C 0.49423 0.70998 0.16393
 C522 C 0.53262 0.70612 0.13854
 C523 C 0.52116 0.63253 0.25950
 C524 C 0.49615 0.64269 0.29428
 C525 C 0.49804 0.61711 0.33595
 C526 C 0.46024 0.61229 0.36178
 C527 C 0.46095 0.58621 0.39990
 C528 C 0.49955 0.56413 0.41430
 C529 C 0.53752 0.57119 0.38821
 C530 C 0.53708 0.59723 0.35032
 H531 H 0.59537 0.67331 0.13340
 H532 H 0.58743 0.63205 0.20205
 H533 H 0.45962 0.68987 0.22214
 H534 H 0.46810 0.73172 0.15348
 H535 H 0.54263 0.60447 0.26181
 H536 H 0.47353 0.66980 0.29246
 H537 H 0.42968 0.62788 0.35193
 H538 H 0.43036 0.58366 0.41773
 H539 H 0.56735 0.55420 0.39401
 H540 H 0.56755 0.60112 0.33203
 C541 C 0.42141 0.66096 0.86506
 C542 C 0.42641 0.63424 0.82763
 C543 C 0.46676 0.63425 0.80500
 C544 C 0.50270 0.66057 0.82185
 C545 C 0.49757 0.68756 0.85913
 C546 C 0.45671 0.68853 0.88088
 C547 C 0.46952 0.60673 0.76410
 C548 C 0.50083 0.61302 0.73341
 C549 C 0.50202 0.58889 0.69038
 C550 C 0.53101 0.60472 0.65832
 C551 C 0.53256 0.58460 0.61674
 C552 C 0.50401 0.54894 0.60325
 C553 C 0.47847 0.53071 0.63841
 C554 C 0.47672 0.55041 0.68048
 H555 H 0.38982 0.65989 0.88170
 H556 H 0.39835 0.61388 0.81595
 H557 H 0.53496 0.66059 0.80671
 H558 H 0.52548 0.70829 0.87045
 H559 H 0.44290 0.58258 0.75805
 H560 H 0.52559 0.63926 0.73828
 H561 H 0.55342 0.63263 0.66558
 H562 H 0.55952 0.59612 0.59727
 H563 H 0.45809 0.50127 0.63417
 H564 H 0.45563 0.53491 0.70489
 C565 C 0.45616 0.25859 0.17559
 C566 C 0.46123 0.27469 0.21895
 C567 C 0.48303 0.31554 0.22723
 C568 C 0.50223 0.33870 0.19165
 C569 C 0.49737 0.32252 0.14837
 C570 C 0.47339 0.28283 0.13980
 C571 C 0.48471 0.33374 0.27289
 C572 C 0.48269 0.37733 0.28043
 C573 C 0.48549 0.39888 0.32461
 C574 C 0.49467 0.44423 0.32600
 C575 C 0.49864 0.46672 0.36617
 C576 C 0.49257 0.44592 0.40747
 C577 C 0.48363 0.39958 0.40517
 C578 C 0.47992 0.37651 0.36478
 H579 H 0.43830 0.22740 0.16996
 H580 H 0.44683 0.25593 0.24590
 H581 H 0.52075 0.36953 0.19712
 H582 H 0.51113 0.34177 0.12146
 H583 H 0.48614 0.31068 0.30009
 H584 H 0.47963 0.39918 0.25227
 H585 H 0.49968 0.46260 0.29565
 H586 H 0.50711 0.50068 0.36354
 H587 H 0.48250 0.37952 0.43427
 H588 H 0.47304 0.34124 0.36553
 C589 C 0.58333 0.32272 0.85175
 C590 C 0.57878 0.34321 0.81067
 C591 C 0.53848 0.34013 0.78658
 C592 C 0.50262 0.31570 0.80460
 C593 C 0.50725 0.29506 0.84582
 C594 C 0.54773 0.29823 0.86978
 C595 C 0.53629 0.36239 0.74287
 C596 C 0.49870 0.37104 0.72028
 C597 C 0.49884 0.39581 0.67788
 C598 C 0.46325 0.39047 0.64779
 C599 C 0.46285 0.41367 0.60772
 C600 C 0.49833 0.44234 0.59525
 C601 C 0.53203 0.44933 0.62789
 C602 C 0.53269 0.42662 0.66791
 H603 H 0.61475 0.32638 0.86961
 H604 H 0.60695 0.36182 0.79775
 H605 H 0.47127 0.31157 0.78689
 H606 H 0.47941 0.27584 0.85854
 H607 H 0.56784 0.37280 0.72911
 H608 H 0.46683 0.35987 0.73260
 H609 H 0.43562 0.36812 0.65517
 H610 H 0.43438 0.40805 0.58696
 H611 H 0.55692 0.47430 0.62465
 H612 H 0.55912 0.43476 0.69156
 C613 C 0.73371 0.82956 0.44345
 C614 C 0.71508 0.78763 0.45154
 C615 C 0.68026 0.78195 0.48134
 C616 C 0.66550 0.81913 0.50438
 C617 C 0.68423 0.86119 0.49652
 C618 C 0.71832 0.86750 0.46529
 C619 C 0.66059 0.73679 0.48697
 C620 C 0.61975 0.72824 0.50258
 C621 C 0.59930 0.68302 0.50353
 C622 C 0.56440 0.67381 0.53211
 C623 C 0.54339 0.63194 0.53205
 C624 C 0.55723 0.59625 0.50540
 C625 C 0.58929 0.60859 0.47382
 C626 C 0.61072 0.65013 0.47343
 H627 H 0.76124 0.83151 0.42094
 H628 H 0.72773 0.75944 0.43393
 H629 H 0.63951 0.81617 0.52854
 H630 H 0.67010 0.88879 0.51370
 H631 H 0.68023 0.70958 0.47580
 H632 H 0.59991 0.75495 0.51446
 H633 H 0.55239 0.69938 0.55376
 H634 H 0.51386 0.62873 0.55159
 H635 H 0.59756 0.58789 0.44722
 H636 H 0.63464 0.65683 0.44780
 C637 C 0.66468 0.14374 0.56510
 C638 C 0.63983 0.18179 0.56092
 C639 C 0.64369 0.20891 0.52349
 C640 C 0.67217 0.19602 0.48937
 C641 C 0.69702 0.15767 0.49355
 C642 C 0.69409 0.13159 0.53183
 C643 C 0.61786 0.25017 0.52255
 C644 C 0.62266 0.28273 0.49276
 C645 C 0.59805 0.32453 0.49542
 C646 C 0.59017 0.34865 0.45691
 C647 C 0.56780 0.38852 0.45858
 C648 C 0.55131 0.40585 0.49840
 C649 C 0.56267 0.38228 0.53723
 C650 C 0.58482 0.34234 0.53587
 H651 H 0.66098 0.12379 0.59458
 H652 H 0.61794 0.19044 0.58755
 H653 H 0.67577 0.21521 0.45951
 H654 H 0.71938 0.14901 0.46736
 H655 H 0.59411 0.25413 0.54871
 H656 H 0.64478 0.27917 0.46524
 H657 H 0.60148 0.33670 0.42525
 H658 H 0.56424 0.40526 0.42798
 H659 H 0.55620 0.39459 0.56947
 H660 H 0.59291 0.32646 0.56690
 C661 C 0.26097 0.81452 0.55440
 C662 C 0.28114 0.77382 0.54954
 C663 C 0.32102 0.77057 0.52670
 C664 C 0.34055 0.80917 0.50884
 C665 C 0.32034 0.84988 0.51341
 C666 C 0.28023 0.85355 0.53656
 C667 C 0.34196 0.72687 0.52424
 C668 C 0.37396 0.71710 0.49574
 C669 C 0.39658 0.67439 0.49633
 C670 C 0.43999 0.67276 0.48140
 C671 C 0.46277 0.63330 0.48304
 C672 C 0.44449 0.59400 0.50183
 C673 C 0.39860 0.59562 0.51034
 C674 C 0.37537 0.63493 0.50924
 H675 H 0.22940 0.81462 0.57096
 H676 H 0.26531 0.74460 0.56360
 H677 H 0.37220 0.80877 0.49252
 H678 H 0.33788 0.87869 0.50067
 H679 H 0.33080 0.70202 0.54758
 H680 H 0.38582 0.74152 0.47241
 H681 H 0.45637 0.70201 0.46800
 H682 H 0.49420 0.63396 0.46677
 H683 H 0.37913 0.56685 0.51709
 H684 H 0.34043 0.63389 0.51719
 C685 C 0.33955 0.12441 0.49925
 C686 C 0.36164 0.16476 0.50868
 C687 C 0.34484 0.20456 0.49270
 C688 C 0.30450 0.20333 0.46835
 C689 C 0.28240 0.16301 0.45896
 C690 C 0.29987 0.12306 0.47395
 C691 C 0.36988 0.24653 0.50255
 C692 C 0.36780 0.28213 0.47632
 C693 C 0.39293 0.32443 0.48450
 C694 C 0.38025 0.36169 0.46090
 C695 C 0.40351 0.40199 0.46603
 C696 C 0.43993 0.40766 0.49601
 C697 C 0.45340 0.36885 0.51776
 C698 C 0.43031 0.32829 0.51273
 H699 H 0.35400 0.09417 0.51103
 H700 H 0.39242 0.16482 0.52781
 H701 H 0.28946 0.23339 0.45700
 H702 H 0.25132 0.16311 0.44035
 H703 H 0.39145 0.24716 0.53157
 H704 H 0.34663 0.28059 0.44697
 H705 H 0.35274 0.35945 0.43728
 H706 H 0.39397 0.42672 0.44333
 H707 H 0.48170 0.36907 0.53948
 H708 H 0.44284 0.30007 0.53029
   
