data_POSCAR
  _audit_creation_date              2014-09-24
  _audit_creation_method            'ToBaCCo'
  _symmetry_space_group_name_H-M    'P1'
  _symmetry_Int_Tables_number       1
  _symmetry_cell_setting            triclinic
  loop_
  _symmetry_equiv_pos_as_xyz
 x,y,z
_cell_length_a 21.9052
_cell_length_b 22.1675
_cell_length_c 21.9080
_cell_angle_alpha 92.805800
_cell_angle_beta 92.679000
_cell_angle_gamma 91.788400
loop_
  _atom_site_label
  _atom_site_type_symbol
  _atom_site_fract_x
  _atom_site_fract_y
  _atom_site_fract_z
Si1 Si -0.00941 0.51334 0.24790
 Si2 Si 0.01130 0.49219 0.75439
 Si3 Si 0.25910 -0.00826 0.51726
 Si4 Si 0.74614 0.00716 0.49787
 Si5 Si 0.50291 0.24681 0.98201
 Si6 Si 0.49280 0.75163 1.00475
 B7 B 1.00007 1.06685 0.04702
 B8 B 1.04228 1.00694 0.07131
 B9 B 0.96399 1.00338 0.07206
 B10 B 0.93474 1.03731 0.00732
 B11 B 0.99597 1.06283 -0.03252
 B12 B 1.06207 1.04395 0.00664
 B13 B 0.99857 0.93637 -0.03162
 B14 B 0.95543 0.99590 -0.05589
 B15 B 1.03462 1.00043 -0.05716
 B16 B 1.06468 0.96684 0.00668
 B17 B 1.00391 0.94088 0.04697
 B18 B 0.93702 0.95901 0.00894
 B19 B 0.56302 0.50067 0.45312
 B20 B 0.56819 0.50245 0.53165
 B21 B 0.54017 0.56367 0.49363
 B22 B 0.49729 0.53627 0.42992
 B23 B 0.49775 0.45879 0.42737
 B24 B 0.54098 0.43680 0.49086
 B25 B 0.43964 0.49690 0.53359
 B26 B 0.43520 0.49499 0.45444
 B27 B 0.46244 0.43383 0.49112
 B28 B 0.50504 0.46056 0.55590
 B29 B 0.50472 0.53879 0.55835
 B30 B 0.46146 0.56031 0.49580
 C31 C 0.99049 1.31695 0.16150
 C32 C 0.95295 1.33195 0.20954
 C33 C 0.95092 1.39133 0.23244
 C34 C 0.98567 1.43748 0.20736
 C35 C 1.02303 1.42305 0.15898
 C36 C 1.02529 1.36307 0.13595
 C37 C 0.99393 1.25307 0.13940
 C38 C 0.94134 1.21561 0.13246
 C39 C 0.94447 1.15629 0.10876
 C40 C 0.99897 1.13252 0.08759
 C41 C 1.05229 1.16880 0.10354
 C42 C 1.04996 1.22824 0.12710
 H43 H 0.92419 1.40014 0.27195
 H44 H 1.05146 1.45769 0.14019
 H45 H 0.90233 1.13152 0.10440
 H46 H 1.09636 1.15356 0.09523
 H47 H 1.05449 1.35259 0.09858
 H48 H 0.89715 1.23258 0.14356
 H49 H 0.92688 1.29731 0.23114
 H50 H 1.09214 1.25482 0.13540
 C51 C 1.00267 0.69411 0.14756
 C52 C 1.05401 0.65737 0.15192
 C53 C 1.04898 0.59975 0.17530
 C54 C 0.99343 0.57904 0.19733
 C55 C 0.94162 0.61385 0.18886
 C56 C 0.94589 0.66985 0.16322
 C57 C 1.00749 0.75752 0.12786
 C58 C 0.96678 0.80103 0.14812
 C59 C 0.96679 0.85844 0.12469
 C60 C 1.00904 0.87673 0.08232
 C61 C 1.05209 0.83319 0.06560
 C62 C 1.05110 0.77500 0.08712
 H63 H 1.08950 0.57333 0.18013
 H64 H 0.89755 0.59968 0.20367
 H65 H 0.93195 0.88681 0.13973
 H66 H 1.08354 0.84065 0.03129
 H67 H 0.90447 0.69469 0.15733
 H68 H 0.93359 0.79072 0.18147
 H69 H 1.09867 0.67383 0.13999
 H70 H 1.08269 0.74300 0.06888
 C71 C 1.00133 1.30497 -0.15190
 C72 C 1.04404 1.35134 -0.13033
 C73 C 1.04482 1.40812 -0.15586
 C74 C 1.00451 1.41977 -0.20494
 C75 C 0.96284 1.37366 -0.22753
 C76 C 0.96022 1.31775 -0.20057
 C77 C 0.99984 1.24400 -0.12419
 C78 C 0.97598 1.19145 -0.15672
 C79 C 0.97497 1.13505 -0.12981
 C80 C 0.99731 1.12761 -0.06919
 C81 C 1.02591 1.18009 -0.04062
 C82 C 1.02487 1.23679 -0.06525
 H83 H 1.07794 1.44243 -0.13791
 H84 H 0.93254 1.38011 -0.26688
 H85 H 0.95817 1.09834 -0.15897
 H86 H 1.05499 1.17763 -0.00146
 H87 H 0.92580 1.28471 -0.21846
 H88 H 0.95923 1.19292 -0.20381
 H89 H 1.07823 1.34408 -0.09458
 H90 H 1.04548 1.27439 -0.03763
 C91 C 1.00691 0.68282 -0.14366
 C92 C 0.96507 0.63601 -0.13038
 C93 C 0.97008 0.57727 -0.15593
 C94 C 1.01564 0.56419 -0.19688
 C95 C 1.05813 0.61023 -0.20911
 C96 C 1.05478 0.66813 -0.18178
 C97 C 1.00069 0.74651 -0.11883
 C98 C 1.02397 0.79607 -0.14926
 C99 C 1.02199 0.85503 -0.12359
 C100 C 0.99619 0.86781 -0.06658
 C101 C 0.96713 0.81791 -0.04056
 C102 C 0.97112 0.75881 -0.06454
 H103 H 0.93650 0.54289 -0.14576
 H104 H 1.09278 0.60288 -0.24188
 H105 H 1.04137 0.89046 -0.14907
 H106 H 0.94228 0.82288 0.00036
 H107 H 1.08936 0.70157 -0.19190
 H108 H 1.04397 0.78987 -0.19323
 H109 H 0.92685 0.64468 -0.10213
 H110 H 0.95188 0.72289 -0.03903
 C111 C 1.15738 0.99404 0.32493
 C112 C 1.13392 1.02620 0.37545
 C113 C 1.16203 1.02392 0.43413
 C114 C 1.21235 0.98755 0.44377
 C115 C 1.23479 0.95449 0.39391
 C116 C 1.20817 0.95809 0.33536
 C117 C 1.13073 0.99872 0.26137
 C118 C 1.13287 0.95028 0.21803
 C119 C 1.10857 0.95469 0.15851
 C120 C 1.08029 1.00735 0.13864
 C121 C 1.07665 1.05462 0.18403
 C122 C 1.10273 1.05127 0.24317
 H123 H 1.14531 1.05152 0.47149
 H124 H 1.27525 0.92812 0.39921
 H125 H 1.11242 0.91567 0.12844
 H126 H 1.04833 1.09197 0.17810
 H127 H 1.22924 0.93427 0.29800
 H128 H 1.15210 0.90785 0.23009
 H129 H 1.09433 1.05371 0.36980
 H130 H 1.09904 1.08966 0.27507
 C131 C 1.16089 0.99061 -0.29676
 C132 C 1.22507 0.99543 -0.29907
 C133 C 1.25312 0.99355 -0.35487
 C134 C 1.21825 0.99143 -0.41014
 C135 C 1.15475 0.98462 -0.40911
 C136 C 1.12641 0.98312 -0.35318
 C137 C 1.13037 0.99385 -0.23651
 C138 C 1.06808 1.00582 -0.23402
 C139 C 1.03918 1.00768 -0.17874
 C140 C 1.07030 1.00007 -0.12215
 C141 C 1.13392 0.99275 -0.12479
 C142 C 1.16289 0.98742 -0.18029
 H143 H 1.30261 0.99530 -0.35471
 H144 H 1.12703 0.97905 -0.45129
 H145 H 0.99211 1.01556 -0.18268
 H146 H 1.16322 0.99372 -0.08411
 H147 H 1.07745 0.97546 -0.35512
 H148 H 1.04047 1.01468 -0.27451
 H149 H 1.25467 1.00150 -0.25838
 H150 H 1.21108 0.97873 -0.17778
 C151 C 0.84741 1.01958 0.31559
 C152 C 0.88134 1.02909 0.37180
 C153 C 0.85246 1.02603 0.42751
 C154 C 0.78951 1.01299 0.42749
 C155 C 0.75567 1.00461 0.37169
 C156 C 0.78419 1.00754 0.31643
 C157 C 0.87759 1.01907 0.25615
 C158 C 0.93311 0.99085 0.24973
 C159 C 0.95879 0.98518 0.19276
 C160 C 0.93189 1.00900 0.13945
 C161 C 0.87460 1.03541 0.14696
 C162 C 0.84853 1.04134 0.20393
 H163 H 0.87909 1.03423 0.47007
 H164 H 0.70684 0.99486 0.37074
 H165 H 0.99803 0.95786 0.19121
 H166 H 0.84730 1.04924 0.10879
 H167 H 0.75681 0.99878 0.27432
 H168 H 0.95547 0.97024 0.28823
 H169 H 0.93007 1.03914 0.37261
 H170 H 0.80475 1.06243 0.20669
 C171 C 0.82659 0.99751 -0.30217
 C172 C 0.76796 1.01850 -0.31475
 C173 C 0.74579 1.02198 -0.37499
 C174 C 0.78213 1.00586 -0.42393
 C175 C 0.84056 0.98428 -0.41191
 C176 C 0.86283 0.98038 -0.35127
 C177 C 0.84965 0.99312 -0.23800
 C178 C 0.84161 1.03956 -0.19391
 C179 C 0.87009 1.03813 -0.13550
 C180 C 0.90854 0.99083 -0.11859
 C181 C 0.90926 0.94177 -0.16234
 C182 C 0.88147 0.94295 -0.22068
 H183 H 0.69959 1.03676 -0.38322
 H184 H 0.86832 0.96936 -0.44893
 H185 H 0.86755 1.07898 -0.10813
 H186 H 0.93224 0.90206 -0.15414
 H187 H 0.90839 0.96410 -0.34269
 H188 H 0.81692 1.07925 -0.20580
 H189 H 0.73871 1.03090 -0.27798
 H190 H 0.88606 0.90479 -0.25278
 C191 C 1.30929 1.15473 -0.01963
 C192 C 1.31802 1.21375 -0.03803
 C193 C 1.37673 1.23914 -0.03905
 C194 C 1.42787 1.20546 -0.02359
 C195 C 1.41978 1.14566 -0.00707
 C196 C 1.36045 1.12050 -0.00448
 C197 C 1.24662 1.13102 -0.01243
 C198 C 1.22980 1.11148 0.04409
 C199 C 1.17040 1.08981 0.05151
 C200 C 1.12656 1.08331 0.00219
 C201 C 1.14297 1.10898 -0.05285
 C202 C 1.20212 1.13205 -0.06023
 H203 H 1.38216 1.28584 -0.05085
 H204 H 1.45880 1.11956 0.00602
 H205 H 1.15952 1.07840 0.09689
 H206 H 1.11133 1.10926 -0.09196
 H207 H 1.35431 1.07479 0.01009
 H208 H 1.26246 1.11382 0.08290
 H209 H 1.27924 1.24106 -0.04906
 H210 H 1.21353 1.14925 -0.10385
 C211 C 0.69283 1.15736 -0.01059
 C212 C 0.64498 1.13301 -0.05052
 C213 C 0.58673 1.15721 -0.05017
 C214 C 0.57511 1.20558 -0.00943
 C215 C 0.62262 1.22987 0.03058
 C216 C 0.68096 1.20600 0.03001
 C217 C 0.75363 1.12944 -0.00874
 C218 C 0.80874 1.16384 -0.00631
 C219 C 0.86531 1.13539 -0.00333
 C220 C 0.86883 1.07198 0.00164
 C221 C 0.81236 1.03916 -0.00637
 C222 C 0.75647 1.06683 -0.00996
 H223 H 0.55126 1.13921 -0.08273
 H224 H 0.61536 1.26854 0.06114
 H225 H 0.90608 1.16374 -0.00392
 H226 H 0.80873 0.99190 -0.01334
 H227 H 0.71668 1.22523 0.06161
 H228 H 0.80812 1.21257 -0.00773
 H229 H 0.65294 1.09584 -0.08279
 H230 H 0.71502 1.03862 -0.01381
 C231 C 1.31186 0.85581 0.00145
 C232 C 1.36784 0.88913 0.00824
 C233 C 1.42335 0.85921 0.00966
 C234 C 1.42285 0.79601 0.00507
 C235 C 1.36712 0.76304 -0.00059
 C236 C 1.31218 0.79258 -0.00274
 C237 C 1.25265 0.88583 0.00045
 C238 C 1.20581 0.86692 -0.04217
 C239 C 1.14832 0.89202 -0.03983
 C240 C 1.13367 0.93617 0.00538
 C241 C 1.18300 0.95469 0.04682
 C242 C 1.24095 0.93064 0.04455
 H243 H 1.46619 0.88509 0.01416
 H244 H 1.36605 0.71408 -0.00392
 H245 H 1.11698 0.87741 -0.07533
 H246 H 1.17864 0.98678 0.08327
 H247 H 1.26975 0.76593 -0.00682
 H248 H 1.21377 0.83292 -0.07789
 H249 H 1.36849 0.93805 0.01165
 H250 H 1.27609 0.94580 0.07881
 C251 C 0.69022 0.83706 0.00792
 C252 C 0.64682 0.85115 -0.03812
 C253 C 0.58631 0.82877 -0.03713
 C254 C 0.56871 0.79187 0.00962
 C255 C 0.61210 0.77816 0.05557
 C256 C 0.67203 0.80077 0.05493
 C257 C 0.75396 0.86138 0.00870
 C258 C 0.78164 0.88637 0.06309
 C259 C 0.84040 0.91217 0.06424
 C260 C 0.87467 0.91499 0.01132
 C261 C 0.84745 0.88461 -0.04191
 C262 C 0.78796 0.85927 -0.04373
 H263 H 0.55378 0.83886 -0.07366
 H264 H 0.60083 0.74827 0.09118
 H265 H 0.85580 0.93129 0.10734
 H266 H 0.87144 0.87950 -0.08263
 H267 H 0.70470 0.78864 0.09054
 H268 H 0.75688 0.88808 0.10478
 H269 H 0.65970 0.87957 -0.07455
 H270 H 0.76868 0.83781 -0.08608
 C271 C 0.80638 0.52197 0.34461
 C272 C 0.80791 0.50722 0.28206
 C273 C 0.86352 0.50486 0.25443
 C274 C 0.91846 0.51811 0.28867
 C275 C 0.91725 0.53290 0.35149
 C276 C 0.86107 0.53462 0.37958
 C277 C 0.74747 0.51846 0.37311
 C278 C 0.70792 0.56645 0.37140
 C279 C 0.64928 0.55999 0.39319
 C280 C 0.62845 0.50588 0.41849
 C281 C 0.66823 0.45712 0.41441
 C282 C 0.72687 0.46337 0.39340
 H283 H 0.86372 0.49252 0.20596
 H284 H 0.95932 0.54260 0.37859
 H285 H 0.62026 0.59789 0.38857
 H286 H 0.65456 0.41274 0.42561
 H287 H 0.86016 0.54504 0.42835
 H288 H 0.72200 0.60853 0.35225
 H289 H 0.76602 0.49633 0.25494
 H290 H 0.75565 0.42450 0.39134
 C291 C 0.18113 0.49881 0.34761
 C292 C 0.16124 0.55559 0.33074
 C293 C 0.10143 0.56206 0.30726
 C294 C 0.06111 0.51163 0.29899
 C295 C 0.07951 0.45604 0.32028
 C296 C 0.13898 0.44959 0.34422
 C297 C 0.24555 0.49102 0.36871
 C298 C 0.25939 0.45655 0.41889
 C299 C 0.31958 0.45364 0.44184
 C300 C 0.36771 0.48789 0.41813
 C301 C 0.35427 0.51301 0.36135
 C302 C 0.29395 0.51677 0.33817
 H303 H 0.08775 0.60599 0.29340
 H304 H 0.04912 0.41653 0.31557
 H305 H 0.32628 0.42871 0.48197
 H306 H 0.38949 0.52765 0.33303
 H307 H 0.15277 0.40540 0.35743
 H308 H 0.22343 0.43403 0.44238
 H309 H 0.19228 0.59473 0.33487
 H310 H 0.28520 0.53913 0.29592
 C311 C 0.82258 0.51768 0.65021
 C312 C 0.87665 0.53039 0.62053
 C313 C 0.93386 0.52342 0.65060
 C314 C 0.93739 0.50120 0.70955
 C315 C 0.88292 0.49030 0.73928
 C316 C 0.82618 0.49835 0.70996
 C317 C 0.76226 0.51805 0.61767
 C318 C 0.74351 0.46928 0.57850
 C319 C 0.68419 0.46524 0.55249
 C320 C 0.63945 0.50828 0.56478
 C321 C 0.66240 0.55998 0.60062
 C322 C 0.72156 0.56407 0.62828
 H323 H 0.97470 0.53621 0.62802
 H324 H 0.88398 0.47442 0.78521
 H325 H 0.67618 0.42793 0.52136
 H326 H 0.63549 0.59951 0.60600
 H327 H 0.78492 0.48787 0.73331
 H328 H 0.77478 0.43358 0.56838
 H329 H 0.87447 0.54559 0.57426
 H330 H 0.73570 0.60356 0.65716
 C331 C 0.20094 0.49162 0.66222
 C332 C 0.14661 0.48180 0.62547
 C333 C 0.08951 0.47921 0.65194
 C334 C 0.08570 0.48760 0.71544
 C335 C 0.14009 0.49427 0.75213
 C336 C 0.19694 0.49661 0.72595
 C337 C 0.26148 0.49689 0.63433
 C338 C 0.31289 0.46958 0.65941
 C339 C 0.36838 0.47085 0.63003
 C340 C 0.37572 0.49870 0.57379
 C341 C 0.32381 0.52942 0.55280
 C342 C 0.26815 0.52817 0.58131
 H343 H 0.04889 0.47033 0.62270
 H344 H 0.13868 0.50055 0.80131
 H345 H 0.40132 0.44249 0.64885
 H346 H 0.32268 0.55006 0.51067
 H347 H 0.23770 0.50426 0.75558
 H348 H 0.30944 0.44403 0.70007
 H349 H 0.14833 0.47571 0.57624
 H350 H 0.22979 0.55082 0.56078
 C351 C 0.48312 0.65208 0.18674
 C352 C 0.48382 0.61753 0.13110
 C353 C 0.48464 0.64598 0.07539
 C354 C 0.48588 0.70915 0.07508
 C355 C 0.48340 0.74338 0.13036
 C356 C 0.48209 0.71522 0.18563
 C357 C 0.48571 0.62315 0.24619
 C358 C 0.45005 0.64333 0.29370
 C359 C 0.45485 0.61778 0.35060
 C360 C 0.49502 0.57097 0.36364
 C361 C 0.53137 0.55308 0.31465
 C362 C 0.52663 0.57771 0.25730
 H363 H 0.48496 0.61870 0.03319
 H364 H 0.48406 0.79230 0.13093
 H365 H 0.42501 0.63476 0.38275
 H366 H 0.56607 0.52143 0.31946
 H367 H 0.48222 0.74299 0.22771
 H368 H 0.41759 0.67852 0.28672
 H369 H 0.48376 0.56865 0.13081
 H370 H 0.55658 0.56235 0.22218
 C371 C 0.49275 0.65628 0.81034
 C372 C 0.52477 0.63138 0.85999
 C373 C 0.52387 0.65856 0.91887
 C374 C 0.48901 0.70943 0.92947
 C375 C 0.45659 0.73389 0.88028
 C376 C 0.45847 0.70771 0.82142
 C377 C 0.49638 0.63017 0.74698
 C378 C 0.44574 0.62893 0.70541
 C379 C 0.44905 0.60236 0.64655
 C380 C 0.50338 0.57685 0.62557
 C381 C 0.55172 0.57553 0.67036
 C382 C 0.54978 0.60372 0.72827
 H383 H 0.55124 0.64048 0.95565
 H384 H 0.43149 0.77481 0.88644
 H385 H 0.40774 0.60214 0.61821
 H386 H 0.58519 0.54175 0.66714
 H387 H 0.43464 0.72907 0.78428
 H388 H 0.40265 0.64683 0.71877
 H389 H 0.55096 0.59119 0.85346
 H390 H 0.58909 0.60086 0.75967
 C391 C 0.47937 0.35024 0.17038
 C392 C 0.47230 0.28741 0.16298
 C393 C 0.48022 0.25834 0.10626
 C394 C 0.49380 0.29144 0.05526
 C395 C 0.49931 0.35461 0.06180
 C396 C 0.49312 0.38388 0.11954
 C397 C 0.48148 0.37850 0.23289
 C398 C 0.53805 0.39568 0.26062
 C399 C 0.54281 0.41620 0.32173
 C400 C 0.49153 0.42426 0.35770
 C401 C 0.43485 0.40271 0.32945
 C402 C 0.42986 0.38025 0.26821
 H403 H 0.47618 0.20947 0.10246
 H404 H 0.50958 0.38095 0.02306
 H405 H 0.58788 0.42606 0.33954
 H406 H 0.39441 0.39905 0.35500
 H407 H 0.49991 0.43250 0.12487
 H408 H 0.57922 0.39149 0.23538
 H409 H 0.46322 0.26064 0.20183
 H410 H 0.38590 0.36331 0.24876
 C411 C 0.51980 0.32710 0.78955
 C412 C 0.55423 0.35321 0.84085
 C413 C 0.54874 0.33046 0.89893
 C414 C 0.50860 0.28150 0.90670
 C415 C 0.47710 0.25327 0.85504
 C416 C 0.48209 0.27613 0.79726
 C417 C 0.51777 0.35732 0.73043
 C418 C 0.50996 0.32566 0.67326
 C419 C 0.50317 0.35707 0.61909
 C420 C 0.50706 0.42118 0.61943
 C421 C 0.50720 0.44976 0.67833
 C422 C 0.51505 0.41981 0.73191
 H423 H 0.57570 0.35104 0.93756
 H424 H 0.44830 0.21326 0.85890
 H425 H 0.49735 0.33000 0.57699
 H426 H 0.48719 0.49198 0.68575
 H427 H 0.45479 0.25504 0.75912
 H428 H 0.50907 0.27675 0.67019
 H429 H 0.58473 0.39191 0.83613
 H430 H 0.51271 0.44554 0.77506
 C431 C 0.65817 0.81223 0.48570
 C432 C 0.62238 0.86159 0.50283
 C433 C 0.64692 0.92087 0.50473
 C434 C 0.70729 0.93150 0.48899
 C435 C 0.74296 0.88250 0.47206
 C436 C 0.71866 0.82354 0.47007
 C437 C 0.63216 0.74938 0.48361
 C438 C 0.66667 0.70049 0.50170
 C439 C 0.63976 0.64217 0.50118
 C440 C 0.57654 0.63076 0.48772
 C441 C 0.54700 0.67902 0.46000
 C442 C 0.57272 0.73720 0.46011
 H443 H 0.61939 0.95789 0.51994
 H444 H 0.79022 0.88972 0.46094
 H445 H 0.67055 0.60595 0.50588
 H446 H 0.50201 0.67431 0.44026
 H447 H 0.74717 0.78688 0.45590
 H448 H 0.71461 0.70690 0.51551
 H449 H 0.57582 0.85420 0.51606
 H450 H 0.54587 0.77267 0.44119
 C451 C 0.65038 0.19218 0.49996
 C452 C 0.70973 0.18654 0.52510
 C453 C 0.73657 0.13051 0.52425
 C454 C 0.70423 0.07862 0.49969
 C455 C 0.64476 0.08358 0.47457
 C456 C 0.61797 0.14029 0.47450
 C457 C 0.62423 0.25280 0.49785
 C458 C 0.59864 0.27236 0.44320
 C459 C 0.57649 0.33049 0.44030
 C460 C 0.57592 0.37106 0.49200
 C461 C 0.60550 0.35103 0.54589
 C462 C 0.62884 0.29324 0.54901
 H463 H 0.78317 0.12789 0.54254
 H464 H 0.61976 0.04429 0.45398
 H465 H 0.56023 0.34215 0.39647
 H466 H 0.61119 0.38023 0.58675
 H467 H 0.57214 0.14377 0.45448
 H468 H 0.59703 0.24309 0.40203
 H469 H 0.73613 0.22587 0.54378
 H470 H 0.65003 0.28004 0.59176
 C471 C 0.34680 0.80286 0.51450
 C472 C 0.38508 0.85525 0.51392
 C473 C 0.36018 0.91278 0.51574
 C474 C 0.29693 0.91828 0.51823
 C475 C 0.25896 0.86630 0.51941
 C476 C 0.28356 0.80917 0.51753
 C477 C 0.37241 0.74173 0.51209
 C478 C 0.34398 0.69424 0.47562
 C479 C 0.36993 0.63738 0.47163
 C480 C 0.42523 0.62514 0.50379
 C481 C 0.45159 0.67399 0.54165
 C482 C 0.42601 0.73061 0.54576
 H483 H 0.38994 0.95257 0.51442
 H484 H 0.20985 0.86986 0.52123
 H485 H 0.34804 0.60464 0.43933
 H486 H 0.49509 0.67056 0.56604
 H487 H 0.25309 0.76989 0.51893
 H488 H 0.30281 0.70163 0.44806
 H489 H 0.43405 0.85163 0.51095
 H490 H 0.44899 0.76607 0.57484
 C491 C 0.35871 0.18017 0.50238
 C492 C 0.35187 0.13863 0.45147
 C493 C 0.32788 0.08008 0.45765
 C494 C 0.30816 0.06219 0.51421
 C495 C 0.31683 0.10270 0.56528
 C496 C 0.34319 0.16014 0.55980
 C497 C 0.38013 0.24427 0.49595
 C498 C 0.36309 0.29060 0.53698
 C499 C 0.38664 0.34954 0.53371
 C500 C 0.42675 0.36640 0.48869
 C501 C 0.43833 0.32021 0.44451
 C502 C 0.41737 0.26044 0.44877
 H503 H 0.32156 0.05011 0.41723
 H504 H 0.30167 0.09169 0.60950
 H505 H 0.37334 0.38076 0.56780
 H506 H 0.46505 0.32799 0.40653
 H507 H 0.34990 0.18918 0.60084
 H508 H 0.33174 0.28181 0.57245
 H509 H 0.36245 0.15166 0.40615
 H510 H 0.43194 0.22700 0.41541
   
