data_POSCAR
  _audit_creation_date              2014-09-24
  _audit_creation_method            'ToBaCCo'
  _symmetry_space_group_name_H-M    'P1'
  _symmetry_Int_Tables_number       1
  _symmetry_cell_setting            triclinic
  loop_
  _symmetry_equiv_pos_as_xyz
 x,y,z
_cell_length_a 34.9919
_cell_length_b 38.1259
_cell_length_c 26.8603
_cell_angle_alpha 89.850500
_cell_angle_beta 90.324700
_cell_angle_gamma 89.456200
loop_
  _atom_site_label
  _atom_site_type_symbol
  _atom_site_fract_x
  _atom_site_fract_y
  _atom_site_fract_z
C1 C 0.28581 -0.04784 0.23704
 C2 C 0.30120 -0.01445 0.22645
 C3 C 0.33285 -0.01223 0.19481
 C4 C 0.35380 -0.04223 0.18181
 C5 C 0.33944 -0.07516 0.19414
 C6 C 0.30499 -0.07861 0.22093
 C7 C 0.29995 0.01400 0.26392
 C8 C 0.32728 0.00978 0.30179
 C9 C 0.34684 0.03867 0.32132
 C10 C 0.33253 0.07243 0.31085
 C11 C 0.30192 0.07740 0.27719
 C12 C 0.28654 0.04811 0.25224
 H13 H 0.26226 -0.04988 0.26286
 H14 H 0.34495 0.01337 0.18764
 H15 H 0.33786 -0.01657 0.30927
 H16 H 0.26672 0.05202 0.22156
 H17 H 0.35569 -0.09824 0.18338
 H18 H 0.34636 0.09515 0.32674
 C19 C 0.21302 -0.04524 0.75829
 C20 C 0.19693 -0.01260 0.77171
 C21 C 0.16693 -0.01183 0.80603
 C22 C 0.14727 -0.04249 0.81809
 C23 C 0.16320 -0.07493 0.80468
 C24 C 0.19684 -0.07657 0.77609
 C25 C 0.19512 0.01668 0.73559
 C26 C 0.16429 0.01453 0.70240
 C27 C 0.14475 0.04468 0.68576
 C28 C 0.16140 0.07744 0.69455
 C29 C 0.19491 0.08008 0.72369
 C30 C 0.21101 0.04969 0.74570
 H31 H 0.23529 -0.04637 0.73047
 H32 H 0.15422 0.01340 0.81517
 H33 H 0.15212 -0.01116 0.69595
 H34 H 0.23371 0.05199 0.77305
 H35 H 0.14851 -0.09885 0.81436
 H36 H 0.14717 0.10108 0.68151
 C37 C 0.71536 0.45295 0.25408
 C38 C 0.70010 0.48621 0.26613
 C39 C 0.67091 0.48849 0.30146
 C40 C 0.65219 0.45842 0.31825
 C41 C 0.66757 0.42542 0.30648
 C42 C 0.69975 0.42245 0.27543
 C43 C 0.69965 0.51533 0.22963
 C44 C 0.66993 0.51325 0.19469
 C45 C 0.65079 0.54346 0.17783
 C46 C 0.66620 0.57632 0.18893
 C47 C 0.69894 0.57902 0.21941
 C48 C 0.71493 0.54845 0.24113
 H49 H 0.73677 0.45062 0.22527
 H50 H 0.65858 0.51411 0.30918
 H51 H 0.65766 0.48775 0.18729
 H52 H 0.73678 0.55066 0.26965
 H53 H 0.65346 0.40198 0.31944
 H54 H 0.65166 0.59985 0.17604
 C55 C 0.78707 0.45313 0.74325
 C56 C 0.80316 0.48638 0.73472
 C57 C 0.83293 0.48942 0.70044
 C58 C 0.85087 0.45965 0.68056
 C59 C 0.83450 0.42672 0.68856
 C60 C 0.80206 0.42330 0.71892
 C61 C 0.80302 0.51393 0.77340
 C62 C 0.83115 0.50919 0.81015
 C63 C 0.84988 0.53792 0.83160
 C64 C 0.83496 0.57165 0.82281
 C65 C 0.80464 0.57699 0.78887
 C66 C 0.78920 0.54809 0.76330
 H67 H 0.76532 0.45007 0.77143
 H68 H 0.84595 0.51489 0.69555
 H69 H 0.84240 0.48286 0.81588
 H70 H 0.76925 0.55243 0.73286
 H71 H 0.84806 0.40350 0.67330
 H72 H 0.84841 0.59419 0.83980
 C73 C 0.24041 0.38554 1.06326
 C74 C 0.25846 0.40729 1.02857
 C75 C 0.28413 0.43254 1.04470
 C76 C 0.29263 0.43627 1.09528
 C77 C 0.27342 0.41582 1.13032
 C78 C 0.24721 0.38996 1.11465
 C79 C 0.24817 0.40657 0.97562
 C80 C 0.21860 0.42850 0.95934
 C81 C 0.20786 0.42956 0.90918
 C82 C 0.22796 0.40916 0.87460
 C83 C 0.25873 0.38754 0.89042
 C84 C 0.26844 0.38605 0.94128
 H85 H 0.22047 0.36596 1.05023
 H86 H 0.29874 0.44845 1.01732
 H87 H 0.20283 0.44387 0.98644
 H88 H 0.29140 0.36895 0.95408
 H89 H 0.28119 0.41835 1.16927
 H90 H 0.21860 0.40895 0.83606
 C91 C 0.76058 0.11436 1.05316
 C92 C 0.74281 0.09039 1.02113
 C93 C 0.71972 0.06423 1.04063
 C94 C 0.71325 0.06183 1.09180
 C95 C 0.73277 0.08431 1.12424
 C96 C 0.75673 0.11091 1.10523
 C97 C 0.75065 0.08975 0.96745
 C98 C 0.77527 0.06378 0.94964
 C99 C 0.78413 0.06164 0.89900
 C100 C 0.76622 0.08484 0.86539
 C101 C 0.74002 0.11044 0.88266
 C102 C 0.73294 0.11317 0.93406
 H103 H 0.77858 0.13457 1.03761
 H104 H 0.70507 0.04675 1.01523
 H105 H 0.78937 0.04638 0.97616
 H106 H 0.71373 0.13328 0.94800
 H107 H 0.72690 0.08273 1.16377
 H108 H 0.77405 0.08407 0.82642
 C109 C 0.26498 0.60479 0.55391
 C110 C 0.24673 0.58028 0.52347
 C111 C 0.22180 0.55609 0.54421
 C112 C 0.21280 0.55737 0.59495
 C113 C 0.23139 0.58171 0.62571
 C114 C 0.25808 0.60521 0.60531
 C115 C 0.25277 0.58021 0.46949
 C116 C 0.27827 0.55594 0.44929
 C117 C 0.28779 0.55729 0.39874
 C118 C 0.26924 0.58176 0.36757
 C119 C 0.24206 0.60543 0.38734
 C120 C 0.23458 0.60497 0.43863
 H121 H 0.28402 0.62381 0.53749
 H122 H 0.20694 0.53813 0.51975
 H123 H 0.29320 0.53790 0.47412
 H124 H 0.21516 0.62412 0.45463
 H125 H 0.22335 0.58385 0.66450
 H126 H 0.27763 0.58381 0.32889
 C127 C 0.73909 0.89260 0.55865
 C128 C 0.75181 0.91927 0.52703
 C129 C 0.77256 0.94724 0.54643
 C130 C 0.78556 0.94651 0.59605
 C131 C 0.77235 0.91990 0.62781
 C132 C 0.74781 0.89372 0.60966
 C133 C 0.74443 0.91825 0.47316
 C134 C 0.71866 0.94238 0.45272
 C135 C 0.70923 0.94141 0.40204
 C136 C 0.72821 0.91755 0.37084
 C137 C 0.75582 0.89409 0.39070
 C138 C 0.76304 0.89396 0.44226
 H139 H 0.72239 0.87124 0.54366
 H140 H 0.78260 0.96707 0.52073
 H141 H 0.70363 0.96019 0.47743
 H142 H 0.78297 0.87508 0.45826
 H143 H 0.78227 0.91876 0.66611
 H144 H 0.71992 0.91583 0.33198
 C145 C -0.04247 0.23761 0.39840
 C146 C -0.00874 0.23496 0.42636
 C147 C -0.00131 0.20545 0.45609
 C148 C -0.02956 0.18017 0.46239
 C149 C -0.06417 0.18363 0.43553
 C150 C -0.07027 0.21139 0.40158
 C151 C 0.01701 0.26475 0.42896
 C152 C 0.00828 0.29270 0.46078
 C153 C 0.03471 0.31943 0.46819
 C154 C 0.06963 0.31839 0.44263
 C155 C 0.07753 0.29134 0.40866
 C156 C 0.05114 0.26435 0.40231
 H157 H -0.04707 0.26055 0.37512
 H158 H 0.02511 0.20378 0.47731
 H159 H -0.01857 0.29309 0.48075
 H160 H 0.05751 0.24253 0.37781
 H161 H -0.08574 0.16361 0.43948
 H162 H 0.08999 0.33935 0.44774
 C163 C -0.05346 0.76213 0.09468
 C164 C -0.02085 0.76147 0.06516
 C165 C -0.01407 0.78831 0.03109
 C166 C -0.04077 0.81535 0.02478
 C167 C -0.07442 0.81560 0.05338
 C168 C -0.08067 0.78932 0.08962
 C169 C 0.00653 0.73264 0.06998
 C170 C 0.00098 0.70185 0.04283
 C171 C 0.02939 0.67575 0.04252
 C172 C 0.06240 0.68026 0.07245
 C173 C 0.06688 0.71024 0.10214
 C174 C 0.03903 0.73676 0.09973
 H175 H -0.05745 0.74102 0.12121
 H176 H 0.01199 0.78805 0.00941
 H177 H -0.02449 0.69927 0.01999
 H178 H 0.04248 0.76072 0.12087
 H179 H -0.09460 0.83713 0.04890
 H180 H 0.08452 0.66017 0.07341
 C181 C 0.44929 0.26273 0.59307
 C182 C 0.48320 0.26297 0.56586
 C183 C 0.49072 0.29032 0.53276
 C184 C 0.46354 0.31677 0.52474
 C185 C 0.42886 0.31605 0.55101
 C186 C 0.42199 0.28947 0.58619
 C187 C 0.50914 0.23284 0.56714
 C188 C 0.50107 0.20411 0.53686
 C189 C 0.52841 0.17773 0.53021
 C190 C 0.56376 0.17979 0.55523
 C191 C 0.57122 0.20777 0.58788
 C192 C 0.54375 0.23447 0.59327
 H193 H 0.44375 0.24114 0.61827
 H194 H 0.51725 0.29037 0.51207
 H195 H 0.47410 0.20306 0.51683
 H196 H 0.54973 0.25714 0.61621
 H197 H 0.40798 0.33690 0.54556
 H198 H 0.58485 0.15907 0.55058
 C199 C 0.45891 0.73731 0.89436
 C200 C 0.49094 0.73521 0.92557
 C201 C 0.49634 0.70661 0.95763
 C202 C 0.46809 0.68104 0.96149
 C203 C 0.43520 0.68392 0.93091
 C204 C 0.43102 0.71126 0.89606
 C205 C 0.51759 0.76427 0.92728
 C206 C 0.51096 0.79186 0.96031
 C207 C 0.53727 0.81897 0.96433
 C208 C 0.57002 0.81865 0.93414
 C209 C 0.57622 0.79140 0.89958
 C210 C 0.54973 0.76410 0.89679
 H211 H 0.45565 0.75955 0.86945
 H212 H 0.52160 0.70536 0.98117
 H213 H 0.48560 0.79192 0.98333
 H214 H 0.55408 0.74241 0.87138
 H215 H 0.41334 0.66405 0.93284
 H216 H 0.59017 0.83996 0.93701
 C217 C -0.30242 0.55576 1.01048
 C218 C -0.26937 0.57273 1.02880
 C219 C -0.27399 0.60128 1.06101
 C220 C -0.30969 0.61721 1.06724
 C221 C -0.34202 0.60189 1.04680
 C222 C -0.33917 0.57035 1.01968
 C223 C -0.23349 0.57402 0.99960
 C224 C -0.23135 0.60273 0.96724
 C225 C -0.19631 0.61637 0.95162
 C226 C -0.16274 0.59777 0.96352
 C227 C -0.16395 0.56802 0.99495
 C228 C -0.19946 0.55643 1.01359
 H229 H -0.29938 0.53397 0.98496
 H230 H -0.24879 0.61480 1.07442
 H231 H -0.25774 0.61652 0.95792
 H232 H -0.20033 0.53535 1.04066
 H233 H -0.36947 0.61465 1.05255
 H234 H -0.13543 0.60746 0.95084
 C235 C -0.30200 0.44427 0.49402
 C236 C -0.26835 0.42678 0.47838
 C237 C -0.27153 0.39807 0.44629
 C238 C -0.30688 0.38300 0.43624
 C239 C -0.34006 0.39893 0.45393
 C240 C -0.33825 0.43026 0.48172
 C241 C -0.23249 0.42689 0.50805
 C242 C -0.22808 0.39825 0.54052
 C243 C -0.19193 0.38566 0.55437
 C244 C -0.15963 0.40442 0.54065
 C245 C -0.16325 0.43464 0.51067
 C246 C -0.19976 0.44561 0.49352
 H247 H -0.30001 0.46613 0.51956
 H248 H -0.24572 0.38438 0.43474
 H249 H -0.25303 0.38299 0.55013
 H250 H -0.20238 0.46696 0.46701
 H251 H -0.36731 0.38692 0.44554
 H252 H -0.13158 0.39485 0.55181
 C253 C 0.19777 -0.05257 -0.00887
 C254 C 0.23298 -0.06831 -0.02154
 C255 C 0.23328 -0.09571 -0.05599
 C256 C 0.19932 -0.11064 -0.07374
 C257 C 0.16455 -0.09393 -0.06284
 C258 C 0.16351 -0.06497 -0.03027
 C259 C 0.26619 -0.06871 0.01286
 C260 C 0.26649 -0.09685 0.04623
 C261 C 0.30075 -0.11191 0.06396
 C262 C 0.33510 -0.09457 0.05432
 C263 C 0.33541 -0.06479 0.02296
 C264 C 0.30095 -0.05234 0.00135
 H265 H 0.19674 -0.03276 0.01994
 H266 H 0.26053 -0.10827 -0.06402
 H267 H 0.23949 -0.10963 0.05350
 H268 H 0.30155 -0.03176 -0.02651
 H269 H 0.13805 -0.10483 -0.07666
 H270 H 0.36184 -0.10528 0.06849
 C271 C 0.19825 1.05739 0.51086
 C272 C 0.22983 1.07773 0.52567
 C273 C 0.22360 1.10679 0.55649
 C274 C 0.18670 1.11820 0.56809
 C275 C 0.15555 1.09804 0.55398
 C276 C 0.16101 1.06743 0.52570
 C277 C 0.26596 1.07839 0.49715
 C278 C 0.27040 1.10757 0.46615
 C279 C 0.30604 1.11716 0.44723
 C280 C 0.33753 1.09516 0.45636
 C281 C 0.33403 1.06589 0.48825
 C282 C 0.29811 1.05735 0.50859
 H283 H 0.20223 1.03565 0.48549
 H284 H 0.24764 1.12323 0.56638
 H285 H 0.24556 1.12414 0.45888
 H286 H 0.29572 1.03599 0.53501
 H287 H 0.12693 1.10689 0.56329
 H288 H 0.36535 1.10219 0.44204
 C289 C 0.17660 0.49213 0.19333
 C290 C 0.19853 0.50827 0.23037
 C291 C 0.21698 0.53976 0.22036
 C292 C 0.21321 0.55606 0.17364
 C293 C 0.19128 0.53967 0.13640
 C294 C 0.17281 0.50759 0.14614
 C295 C 0.19995 0.49354 0.28086
 C296 C 0.22204 0.46354 0.29045
 C297 C 0.22082 0.44707 0.33715
 C298 C 0.19801 0.46188 0.37483
 C299 C 0.17583 0.49234 0.36556
 C300 C 0.17706 0.50802 0.31835
 H301 H 0.16171 0.46803 0.20172
 H302 H 0.23271 0.55240 0.25012
 H303 H 0.23832 0.45190 0.26038
 H304 H 0.15938 0.53086 0.31023
 H305 H 0.18717 0.55262 0.10079
 H306 H 0.19584 0.44854 0.41036
 C307 C -0.16902 1.00290 0.18467
 C308 C -0.19194 0.99150 0.22413
 C309 C -0.21718 0.96385 0.21747
 C310 C -0.21844 0.94549 0.17229
 C311 C -0.19647 0.95784 0.13219
 C312 C -0.17145 0.98660 0.13780
 C313 C -0.19018 1.00848 0.27296
 C314 C -0.21312 1.03791 0.28149
 C315 C -0.21101 1.05610 0.32686
 C316 C -0.18754 1.04222 0.36514
 C317 C -0.16597 1.01120 0.35776
 C318 C -0.16680 0.99489 0.31104
 H319 H -0.14971 1.02457 0.19065
 H320 H -0.23382 0.95532 0.24915
 H321 H -0.23066 1.04778 0.25101
 H322 H -0.14964 0.97156 0.30440
 H323 H -0.19751 0.94378 0.09720
 H324 H -0.18536 1.05587 0.40037
 C325 C 0.32942 0.50548 -0.31955
 C326 C 0.30732 0.49260 -0.28019
 C327 C 0.28378 0.46375 -0.28732
 C328 C 0.28226 0.44696 -0.33352
 C329 C 0.30329 0.46061 -0.37346
 C330 C 0.32772 0.48967 -0.36683
 C331 C 0.30846 0.50935 -0.23117
 C332 C 0.28654 0.53953 -0.22338
 C333 C 0.28908 0.55815 -0.17836
 C334 C 0.31222 0.54414 -0.13977
 C335 C 0.33297 0.51253 -0.14655
 C336 C 0.33139 0.49562 -0.19280
 H337 H 0.34787 0.52770 -0.31301
 H338 H 0.26809 0.45344 -0.25588
 H339 H 0.26947 0.54953 -0.25421
 H340 H 0.34803 0.47194 -0.19911
 H341 H 0.30246 0.44692 -0.40875
 H342 H 0.31491 0.55818 -0.10491
 C343 C 0.67073 -0.00469 -0.31516
 C344 C 0.69326 0.00938 -0.27683
 C345 C 0.71578 0.03874 -0.28574
 C346 C 0.71593 0.05469 -0.33276
 C347 C 0.69458 0.03971 -0.37163
 C348 C 0.67113 0.01022 -0.36318
 C349 C 0.69339 -0.00645 -0.22695
 C350 C 0.71613 -0.03611 -0.21790
 C351 C 0.71604 -0.05265 -0.17117
 C352 C 0.69374 -0.03809 -0.13285
 C353 C 0.67083 -0.00800 -0.14152
 C354 C 0.67073 0.00762 -0.18889
 H355 H 0.65301 -0.02719 -0.30729
 H356 H 0.73176 0.05006 -0.25513
 H357 H 0.73255 -0.04711 -0.24830
 H358 H 0.65282 0.03041 -0.19634
 H359 H 0.69438 0.05268 -0.40757
 H360 H 0.69270 -0.05121 -0.09706
 C361 C -0.02215 0.20122 0.91997
 C362 C -0.02018 0.23510 0.90008
 C363 C -0.04897 0.24754 0.86819
 C364 C -0.07871 0.22565 0.85399
 C365 C -0.08093 0.19161 0.87403
 C366 C -0.05279 0.17919 0.90766
 C367 C 0.01509 0.25523 0.90396
 C368 C 0.04601 0.24520 0.87435
 C369 C 0.07617 0.26819 0.86683
 C370 C 0.07659 0.30067 0.89144
 C371 C 0.04606 0.31061 0.92246
 C372 C 0.01517 0.28769 0.92810
 H373 H 0.00103 0.19175 0.94348
 H374 H -0.04654 0.27329 0.85129
 H375 H 0.04493 0.22085 0.85359
 H376 H -0.00969 0.29567 0.94931
 H377 H -0.10383 0.17458 0.86210
 H378 H 0.09953 0.31885 0.88419
 C379 C 0.51933 0.20519 0.07765
 C380 C 0.51884 0.23909 0.09743
 C381 C 0.54927 0.25057 0.12684
 C382 C 0.57909 0.22766 0.13905
 C383 C 0.57994 0.19366 0.11895
 C384 C 0.55014 0.18227 0.08764
 C385 C 0.48363 0.26003 0.09736
 C386 C 0.45384 0.24929 0.12809
 C387 C 0.42487 0.27284 0.14099
 C388 C 0.42422 0.30678 0.12014
 C389 C 0.45335 0.31733 0.08745
 C390 C 0.48323 0.29375 0.07682
 H391 H 0.49492 0.19636 0.05624
 H392 H 0.54795 0.27627 0.14403
 H393 H 0.45526 0.22374 0.14593
 H394 H 0.50721 0.30204 0.05444
 H395 H 0.60286 0.17576 0.12943
 H396 H 0.40214 0.32529 0.13110
 C397 C 0.01661 0.70694 0.57994
 C398 C 0.01627 0.74075 0.60013
 C399 C 0.04752 0.75235 0.62801
 C400 C 0.07783 0.72967 0.63878
 C401 C 0.07855 0.69582 0.61821
 C402 C 0.04809 0.68430 0.58804
 C403 C -0.01936 0.76097 0.60445
 C404 C -0.04623 0.74910 0.63899
 C405 C -0.07013 0.77316 0.66310
 C406 C -0.06998 0.80854 0.64792
 C407 C -0.04677 0.81975 0.60843
 C408 C -0.02074 0.79582 0.58765
 H409 H -0.00841 0.69789 0.55999
 H410 H 0.04636 0.77785 0.64582
 H411 H -0.04450 0.72226 0.65237
 H412 H 0.00044 0.80476 0.56134
 H413 H 0.10193 0.67810 0.62752
 H414 H -0.08906 0.82714 0.66577
 C415 C 0.47933 0.70431 0.42184
 C416 C 0.48018 0.73793 0.40091
 C417 C 0.45095 0.74904 0.36873
 C418 C 0.42211 0.72597 0.35493
 C419 C 0.42104 0.69220 0.37612
 C420 C 0.44953 0.68124 0.41018
 C421 C 0.51549 0.75815 0.40203
 C422 C 0.54549 0.74684 0.37180
 C423 C 0.57554 0.76924 0.36129
 C424 C 0.57700 0.80249 0.38356
 C425 C 0.54762 0.81379 0.41555
 C426 C 0.51657 0.79137 0.42407
 H427 H 0.50291 0.69572 0.44533
 H428 H 0.45261 0.77454 0.35089
 H429 H 0.54373 0.72178 0.35292
 H430 H 0.49241 0.80014 0.44598
 H431 H 0.39886 0.67422 0.36472
 H432 H 0.60015 0.81995 0.37419
 B433 B -0.06379 0.00208 0.98343
 B434 B -0.07135 0.00135 0.92110
 B435 B -0.04205 0.03118 0.94658
 B436 B -0.01757 0.01246 0.99440
 B437 B -0.03235 -0.02994 0.99849
 B438 B -0.06618 -0.03623 0.95309
 B439 B 0.00068 -0.02130 0.90766
 B440 B 0.00867 -0.02013 0.96914
 B441 B -0.02140 -0.05016 0.94453
 B442 B -0.04528 -0.03136 0.89627
 B443 B -0.03031 0.01117 0.89216
 B444 B 0.00308 0.01767 0.93745
 B445 B 0.44029 0.50470 0.48543
 B446 B 0.43517 0.50455 0.42279
 B447 B 0.46385 0.53379 0.45064
 B448 B 0.48617 0.51440 0.49975
 B449 B 0.47060 0.47211 0.50199
 B450 B 0.43858 0.46674 0.45433
 B451 B 0.50737 0.48115 0.41375
 B452 B 0.51288 0.48166 0.47574
 B453 B 0.48335 0.45221 0.44835
 B454 B 0.46175 0.47182 0.39909
 B455 B 0.47744 0.51412 0.39680
 B456 B 0.50924 0.51978 0.44444
 B457 B 0.55695 0.99056 0.49106
 B458 B 0.56171 0.99129 0.42843
 B459 B 0.53414 0.96104 0.45594
 B460 B 0.51144 0.97949 0.50496
 B461 B 0.52560 1.02216 0.50764
 B462 B 0.55722 1.02888 0.46028
 B463 B 0.48891 1.01271 0.41896
 B464 B 0.48357 1.01162 0.48085
 B465 B 0.51188 1.04199 0.45410
 B466 B 0.53403 1.02350 0.40483
 B467 B 0.51974 0.98074 0.40205
 B468 B 0.48841 0.97385 0.44937
 B469 B 0.05715 0.48461 1.00266
 B470 B 0.06208 0.48517 0.94001
 B471 B 0.03212 0.45700 0.96735
 B472 B 0.01077 0.47684 1.01640
 B473 B 0.02851 0.51827 1.01927
 B474 B 0.06081 0.52259 0.97202
 B475 B -0.00878 0.51172 0.93055
 B476 B -0.01423 0.51106 0.99237
 B477 B 0.01670 0.53936 0.96599
 B478 B 0.03721 0.51936 0.91658
 B479 B 0.01941 0.47776 0.91361
 B480 B -0.01248 0.47296 0.96085
 B481 B 0.05901 0.50858 0.51017
 B482 B 0.06574 0.50615 0.57252
 B483 B 0.03610 0.53662 0.54780
 B484 B 0.01273 0.51920 0.49853
 B485 B 0.02849 0.47690 0.49280
 B486 B 0.06186 0.46938 0.53854
 B487 B -0.00596 0.48316 0.58317
 B488 B -0.01313 0.48597 0.52155
 B489 B 0.01710 0.45535 0.54556
 B490 B 0.04003 0.47279 0.59510
 B491 B 0.02412 0.51515 0.60089
 B492 B -0.00889 0.52282 0.55515
 B493 B 0.55980 0.00686 0.01062
 B494 B 0.56865 0.00464 0.07265
 B495 B 0.53777 0.03459 0.04937
 B496 B 0.51303 0.01672 0.00158
 B497 B 0.52934 -0.02533 -0.00481
 B498 B 0.56438 -0.03215 0.03904
 B499 B 0.49777 -0.01930 0.08740
 B500 B 0.48856 -0.01686 0.02625
 B501 B 0.52019 -0.04700 0.04862
 B502 B 0.54431 -0.02905 0.09681
 B503 B 0.52786 0.01314 0.10324
 B504 B 0.49334 0.02024 0.05929
 B505 B 0.44305 0.49178 0.00646
 B506 B 0.43670 0.49332 0.06887
 B507 B 0.46740 0.46434 0.04383
 B508 B 0.48969 0.48316 -0.00515
 B509 B 0.47180 0.52483 -0.01018
 B510 B 0.43849 0.53022 0.03562
 B511 B 0.50728 0.51915 0.08001
 B512 B 0.51395 0.51733 0.01835
 B513 B 0.48233 0.54649 0.04281
 B514 B 0.46091 0.52744 0.09206
 B515 B 0.47891 0.48572 0.09721
 B516 B 0.51191 0.47983 0.05139
 B517 B -0.05982 0.99268 0.51573
 B518 B -0.06924 0.99836 0.57717
 B519 B -0.03917 0.96646 0.55841
 B520 B -0.01337 0.98118 0.50941
 B521 B -0.02823 1.02329 0.49813
 B522 B -0.06339 1.03302 0.53990
 B523 B 0.00236 1.02100 0.59157
 B524 B 0.01181 1.01530 0.53112
 B525 B -0.01884 1.04725 0.54942
 B526 B -0.04395 1.03239 0.59848
 B527 B -0.02895 0.99040 0.60997
 B528 B 0.00565 0.97992 0.56790
 B529 B 0.76814 0.21268 0.24744
 B530 B 0.75051 0.19834 0.30253
 B531 B 0.78741 0.22641 0.30103
 B532 B 0.78075 0.25527 0.25358
 B533 B 0.73889 0.24442 0.22525
 B534 B 0.72079 0.20872 0.25537
 B535 B 0.72278 0.26254 0.32116
 B536 B 0.74004 0.27731 0.26698
 B537 B 0.70365 0.24875 0.26737
 B538 B 0.71023 0.22038 0.31519
 B539 B 0.75228 0.23120 0.34372
 B540 B 0.77046 0.26672 0.31352
 B541 B 0.74515 0.78830 0.75552
 B542 B 0.75838 0.80318 0.81235
 B543 B 0.72164 0.77530 0.80609
 B544 B 0.73185 0.74600 0.76051
 B545 B 0.77597 0.75633 0.73854
 B546 B 0.79147 0.79225 0.77040
 B547 B 0.78392 0.73869 0.83662
 B548 B 0.77107 0.72387 0.78035
 B549 B 0.80761 0.75220 0.78593
 B550 B 0.79720 0.78094 0.83182
 B551 B 0.75307 0.77056 0.85389
 B552 B 0.73707 0.73499 0.82165
 B553 B 0.26399 0.28843 0.74381
 B554 B 0.24228 0.30385 0.69178
 B555 B 0.27879 0.27515 0.68774
 B556 B 0.27602 0.24583 0.73506
 B557 B 0.23659 0.25694 0.76865
 B558 B 0.21621 0.29342 0.74191
 B559 B 0.21285 0.24042 0.67482
 B560 B 0.23449 0.22468 0.72620
 B561 B 0.19818 0.25378 0.73100
 B562 B 0.20093 0.28280 0.68336
 B563 B 0.24038 0.27158 0.64956
 B564 B 0.26100 0.23537 0.67637
 B565 B 0.23315 0.71494 0.25062
 B566 B 0.24762 0.70130 0.19382
 B567 B 0.21138 0.73044 0.19953
 B568 B 0.22098 0.75802 0.24746
 B569 B 0.26404 0.74525 0.27148
 B570 B 0.27984 0.70976 0.23852
 B571 B 0.27542 0.76522 0.17497
 B572 B 0.26140 0.77917 0.23132
 B573 B 0.29716 0.74943 0.22657
 B574 B 0.28758 0.72247 0.17831
 B575 B 0.24429 0.73517 0.15408
 B576 B 0.22838 0.77057 0.18743
 B577 B 0.26689 0.71466 0.74112
 B578 B 0.25104 0.70095 0.79733
 B579 B 0.28835 0.72842 0.79303
 B580 B 0.28045 0.75705 0.74554
 B581 B 0.23737 0.74665 0.72020
 B582 B 0.21985 0.71144 0.75202
 B583 B 0.22528 0.76588 0.81666
 B584 B 0.24061 0.77980 0.76117
 B585 B 0.20376 0.75179 0.76436
 B586 B 0.21166 0.72377 0.81230
 B587 B 0.25496 0.73414 0.83784
 B588 B 0.27271 0.76903 0.80567
 B589 B 0.24088 0.28964 0.25978
 B590 B 0.25997 0.30285 0.31446
 B591 B 0.22286 0.27527 0.31344
 B592 B 0.22773 0.24721 0.26494
 B593 B 0.26911 0.25801 0.23583
 B594 B 0.28848 0.29295 0.26643
 B595 B 0.28722 0.23777 0.33083
 B596 B 0.26840 0.22434 0.27661
 B597 B 0.30539 0.25239 0.27683
 B598 B 0.30037 0.28006 0.32563
 B599 B 0.25891 0.26932 0.35476
 B600 B 0.23920 0.23460 0.32410
 B601 B 0.76232 0.78877 0.24982
 B602 B 0.74245 0.80424 0.19635
 B603 B 0.78027 0.77675 0.19481
 B604 B 0.77622 0.74663 0.24109
 B605 B 0.73490 0.75615 0.27151
 B606 B 0.71459 0.79237 0.24398
 B607 B 0.71645 0.74015 0.17555
 B608 B 0.73593 0.72437 0.22825
 B609 B 0.69854 0.75240 0.23062
 B610 B 0.70255 0.78201 0.18401
 B611 B 0.74400 0.77239 0.15335
 B612 B 0.76448 0.73650 0.18112
 B613 B 0.73504 0.21391 0.73747
 B614 B 0.75465 0.19893 0.68420
 B615 B 0.71756 0.22720 0.68234
 B616 B 0.72200 0.25641 0.72952
 B617 B 0.76303 0.24563 0.76064
 B618 B 0.78267 0.20956 0.73260
 B619 B 0.78231 0.26302 0.66553
 B620 B 0.76285 0.27815 0.71827
 B621 B 0.79972 0.24941 0.72068
 B622 B 0.79518 0.22064 0.67319
 B623 B 0.75416 0.23151 0.64188
 B624 B 0.73422 0.26737 0.67006
 N625 N 0.40293 1.06039 0.36427
 C626 C 0.38242 1.03334 0.34518
 N627 N 0.39838 1.00073 0.34631
 N628 N 0.43266 0.99511 0.36632
 C629 C 0.45286 1.02190 0.38592
 N630 N 0.43725 1.05469 0.38492
 N631 N -0.09759 0.50065 0.85451
 C632 C -0.11460 0.53276 0.85562
 N633 N -0.09521 0.55961 0.87725
 N634 N -0.06098 0.55408 0.89830
 C635 C -0.04435 0.52173 0.89711
 N636 N -0.06342 0.49525 0.87483
 N637 N 0.08804 -0.00880 0.83050
 C638 C 0.10768 -0.03934 0.83718
 N639 N 0.08990 -0.06633 0.86039
 N640 N 0.05479 -0.06202 0.87881
 C641 C 0.03579 -0.03091 0.87350
 N642 N 0.05302 -0.00459 0.84849
 N643 N 0.59415 0.49296 0.33462
 C644 C 0.61382 0.46239 0.34092
 N645 N 0.59690 0.43593 0.36642
 N646 N 0.56242 0.44064 0.38661
 C647 C 0.54325 0.47163 0.38100
 N648 N 0.55979 0.49756 0.35442
 N649 N 0.59241 0.50985 0.16396
 C650 C 0.61216 0.53974 0.15564
 N651 N 0.59538 0.56548 0.12776
 N652 N 0.56110 0.56051 0.10691
 C653 C 0.54202 0.52999 0.11415
 N654 N 0.55826 0.50499 0.14350
 N655 N 0.08920 1.01032 0.67100
 C656 C 0.10767 1.04124 0.66572
 N657 N 0.08898 1.06810 0.64217
 N658 N 0.05438 1.06323 0.62209
 C659 C 0.03658 1.03179 0.62659
 N660 N 0.05460 1.00571 0.65197
 N661 N -0.09473 0.43789 0.62951
 C662 C -0.11078 0.46341 0.65806
 N663 N -0.09045 0.49291 0.66697
 N664 N -0.05637 0.49756 0.64663
 C665 C -0.04079 0.47270 0.61688
 N666 N -0.06054 0.44264 0.60884
 N667 N 0.41229 -0.00837 0.16902
 C668 C 0.39286 -0.03854 0.16151
 N669 N 0.41026 -0.06489 0.13592
 N670 N 0.44483 -0.06035 0.11626
 C671 C 0.46367 -0.02963 0.12255
 N672 N 0.44681 -0.00394 0.14975
 N673 N 0.33070 0.48884 0.08723
 C674 C 0.32650 0.45675 0.10823
 N675 N 0.35809 0.43958 0.12551
 N676 N 0.39280 0.45269 0.11813
 C677 C 0.39706 0.48313 0.09261
 N678 N 0.36532 0.50194 0.08012
 N679 N -0.17605 0.99699 0.58283
 C680 C -0.18273 0.96694 0.60846
 N681 N -0.15332 0.95220 0.63464
 N682 N -0.11787 0.96421 0.62947
 C683 C -0.11072 0.99154 0.59855
 N684 N -0.14084 1.00937 0.57874
 N685 N -0.15195 0.05461 0.86406
 C686 C -0.18286 0.03949 0.88531
 N687 N -0.17807 0.00809 0.90854
 N688 N -0.14338 -0.00587 0.91454
 C689 C -0.11203 0.01127 0.89836
 N690 N -0.11718 0.04054 0.87012
 N691 N 0.35325 0.55740 0.36830
 C692 C 0.32278 0.53851 0.38375
 N693 N 0.32909 0.50571 0.40184
 N694 N 0.36451 0.49361 0.40852
 C695 C 0.39503 0.51401 0.39824
 N696 N 0.38876 0.54522 0.37508
 N697 N 0.17197 0.50596 0.59333
 C698 C 0.17805 0.53891 0.61053
 N699 N 0.14745 0.55822 0.62557
 N700 N 0.11205 0.54634 0.61917
 C701 C 0.10595 0.51498 0.59689
 N702 N 0.13662 0.49410 0.58715
 N703 N 0.64931 0.05786 0.12626
 C704 C 0.68033 0.04087 0.10759
 N705 N 0.67542 0.00865 0.08726
 N706 N 0.64058 -0.00453 0.08169
 C707 C 0.60925 0.01433 0.09513
 N708 N 0.61442 0.04468 0.12045
 N709 N 0.66733 0.99245 0.40542
 C710 C 0.67398 0.95988 0.38692
 N711 N 0.64363 0.94057 0.37191
 N712 N 0.60804 0.95202 0.37963
 C713 C 0.60160 0.98284 0.40338
 N714 N 0.63181 1.00381 0.41309
 N715 N 0.14076 0.42938 0.88479
 C716 C 0.17219 0.44823 0.89687
 N717 N 0.16733 0.48137 0.91407
 N718 N 0.13249 0.49418 0.92242
 C719 C 0.10120 0.47410 0.91494
 N720 N 0.10584 0.44224 0.89330
 N721 N 0.05190 0.36337 0.53049
 C722 C 0.02521 0.34972 0.49961
 N723 N -0.00809 0.36757 0.49243
 N724 N -0.01320 0.39922 0.51238
 C725 C 0.01432 0.41396 0.54094
 N726 N 0.04642 0.39473 0.55095
 N727 N 0.55770 -0.13715 0.02523
 C728 C 0.52937 -0.15122 -0.00258
 N729 N 0.49481 -0.13481 -0.00399
 N730 N 0.48982 -0.10390 0.01818
 C731 C 0.51874 -0.08851 0.04344
 N732 N 0.55235 -0.10657 0.04799
 N733 N 0.00229 -0.13794 0.99928
 C734 C -0.03135 -0.15472 0.99276
 N735 N -0.05756 -0.14087 0.96088
 N736 N -0.05122 -0.11014 0.93892
 C737 C -0.01880 -0.09174 0.94844
 N738 N 0.00816 -0.10691 0.97800
 N739 N 0.50735 0.36191 0.49537
 C740 C 0.47259 0.34659 0.49232
 N741 N 0.44498 0.36217 0.46433
 N742 N 0.45105 0.39328 0.44352
 C743 C 0.48465 0.41042 0.45040
 N744 N 0.51306 0.39332 0.47509
 N745 N 0.54560 1.13354 0.46800
 C746 C 0.51929 1.14718 0.49940
 N747 N 0.48606 1.12982 0.50624
 N748 N 0.48085 1.09840 0.48588
 C749 C 0.50815 1.08344 0.45713
 N750 N 0.53997 1.10243 0.44707
 N751 N 0.05653 0.62588 1.00297
 C752 C 0.02528 0.64541 1.01369
 N753 N -0.00961 0.63349 0.99877
 N754 N -0.01314 0.60162 0.97859
 C755 C 0.01819 0.58103 0.97135
 N756 N 0.05300 0.59474 0.98195
 N757 N 0.50775 0.63991 0.00753
 C758 C 0.47259 0.65214 -0.00663
 N759 N 0.44157 0.63346 0.00632
 N760 N 0.44554 0.60252 0.02822
 C761 C 0.48059 0.58821 0.03743
 N762 N 0.51169 0.60827 0.02868
 N763 N -0.05465 1.13618 0.51524
 C764 C -0.02398 1.15148 0.49427
 N765 N 0.01106 1.13624 0.50101
 N766 N 0.01440 1.10494 0.52330
 C767 C -0.01693 1.08854 0.54132
 N768 N -0.05104 1.10575 0.53873
 N769 N 0.77386 0.67155 0.93566
 C770 C 0.80382 0.64943 0.92822
 N771 N 0.83219 0.65990 0.89711
 N772 N 0.82861 0.68984 0.87123
 C773 C 0.79739 0.71100 0.87723
 N774 N 0.77084 0.70159 0.91106
 N775 N 0.28493 0.17593 0.43705
 C776 C 0.30908 0.14978 0.42342
 N777 N 0.33305 0.15546 0.38448
 N778 N 0.32982 0.18487 0.35730
 C779 C 0.30371 0.21008 0.36956
 N780 N 0.28258 0.20541 0.41110
 N781 N 0.67162 0.34217 0.37090
 C782 C 0.69254 0.34833 0.41265
 N783 N 0.71761 0.32346 0.42877
 N784 N 0.72343 0.29448 0.40255
 C785 C 0.70450 0.28916 0.35909
 N786 N 0.67768 0.31310 0.34438
 N787 N 0.23204 0.83552 0.91223
 C788 C 0.20121 0.85636 0.90317
 N789 N 0.17354 0.84435 0.87179
 N790 N 0.17855 0.81415 0.84720
 C791 C 0.21051 0.79420 0.85507
 N792 N 0.23644 0.80519 0.88906
 N793 N 0.32760 0.84192 0.11691
 C794 C 0.29939 0.85479 0.08656
 N795 N 0.26829 0.83467 0.07846
 N796 N 0.26391 0.80451 0.10208
 C797 C 0.29021 0.79289 0.13553
 N798 N 0.32276 0.81175 0.14171
 N799 N 0.78893 0.32456 0.55863
 C800 C 0.81080 0.35061 0.57731
 N801 N 0.83017 0.34492 0.62057
 N802 N 0.82534 0.31516 0.64600
 C803 C 0.80137 0.29000 0.62877
 N804 N 0.78433 0.29490 0.58380
 N805 N 0.16424 0.15875 0.63309
 C806 C 0.18198 0.15347 0.58893
 N807 N 0.20183 0.18014 0.56841
 N808 N 0.20652 0.20996 0.59293
 C809 C 0.19168 0.21430 0.63903
 N810 N 0.16913 0.18869 0.65782
 N811 N 0.66700 0.65995 0.12893
 C812 C 0.68863 0.65253 0.08845
 N813 N 0.71290 0.67710 0.07115
 N814 N 0.71747 0.70705 0.09539
 C815 C 0.69808 0.71360 0.13798
 N816 N 0.67187 0.68994 0.15355
 N817 N 0.20816 0.61657 0.14088
 C818 C 0.22798 0.59209 0.16765
 N819 N 0.25765 0.60281 0.19639
 N820 N 0.26556 0.63670 0.20086
 C821 C 0.24387 0.66142 0.17728
 N822 N 0.21612 0.65059 0.14546
 N823 N 0.71562 0.11432 0.63234
 C824 C 0.73296 0.08987 0.66179
 N825 N 0.76146 0.10028 0.69281
 N826 N 0.77069 0.13401 0.69625
 C827 C 0.75143 0.15877 0.66934
 N828 N 0.72469 0.14806 0.63612
 N829 N 0.74537 0.09998 0.29607
 C830 C 0.77177 0.08947 0.33043
 N831 N 0.78541 0.11376 0.36278
 N832 N 0.77632 0.14761 0.35711
 C833 C 0.75319 0.15837 0.31922
 N834 N 0.73589 0.13365 0.29103
 N835 N 0.28530 0.61599 0.85764
 C836 C 0.27239 0.59185 0.82450
 N837 N 0.24693 0.60262 0.78912
 N838 N 0.23758 0.63630 0.78406
 C839 C 0.25392 0.66086 0.81346
 N840 N 0.27624 0.64989 0.85211
 N841 N 0.23703 0.40261 0.69627
 C842 C 0.26443 0.41205 0.66331
 N843 N 0.28046 0.38684 0.63440
 N844 N 0.27122 0.35331 0.64043
 C845 C 0.24568 0.34363 0.67552
 N846 N 0.22764 0.36907 0.70201
 N847 N 0.74036 0.90244 0.20824
 C848 C 0.76325 0.91283 0.17034
 N849 N 0.77307 0.88876 0.13528
 N850 N 0.76384 0.85516 0.14093
 C851 C 0.74433 0.84438 0.18159
 N852 N 0.73075 0.86897 0.21345
 N853 N 0.76120 0.90175 0.80083
 C854 C 0.73454 0.91240 0.83422
 N855 N 0.72050 0.88835 0.86655
 N856 N 0.73042 0.85460 0.86284
 C857 C 0.75427 0.84355 0.82633
 N858 N 0.77108 0.86806 0.79723
 N859 N 0.26806 0.40154 0.31451
 C860 C 0.23764 0.41151 0.34257
 N861 N 0.21842 0.38648 0.36788
 N862 N 0.22763 0.35273 0.36268
 C863 C 0.25639 0.34253 0.33218
 N864 N 0.27744 0.36776 0.30973
 N865 N 0.10361 0.27801 0.78455
 C866 C 0.10427 0.26014 0.82826
 N867 N 0.13151 0.23520 0.83582
 N868 N 0.15870 0.22998 0.80208
 C869 C 0.15903 0.24862 0.75885
 N870 N 0.13056 0.27246 0.75061
 N871 N 0.60291 0.77640 0.27853
 C872 C 0.60293 0.75933 0.32284
 N873 N 0.62948 0.73396 0.33159
 N874 N 0.65698 0.72788 0.29861
 C875 C 0.65837 0.74612 0.25510
 N876 N 0.63016 0.76995 0.24534
 N877 N 0.63133 0.26484 0.16802
 C878 C 0.60691 0.23821 0.17686
 N879 N 0.60894 0.22103 0.22103
 N880 N 0.63626 0.22859 0.25384
 C881 C 0.66256 0.25364 0.24384
 N882 N 0.65900 0.27199 0.20056
 N883 N 0.13009 0.76723 0.66668
 C884 C 0.10618 0.74031 0.67597
 N885 N 0.10868 0.72344 0.72036
 N886 N 0.13613 0.73145 0.75280
 C887 C 0.16209 0.75671 0.74223
 N888 N 0.15788 0.77483 0.69883
 N889 N 0.88839 0.73129 0.70126
 C890 C 0.90668 0.76256 0.70245
 N891 N 0.89924 0.78483 0.74046
 N892 N 0.87247 0.77743 0.77363
 C893 C 0.85084 0.74815 0.76923
 N894 N 0.86029 0.72469 0.73321
 N895 N 0.37386 0.23584 0.17396
 C896 C 0.39815 0.26295 0.18039
 N897 N 0.39770 0.28064 0.22408
 N898 N 0.37192 0.27314 0.25869
 C899 C 0.34564 0.24760 0.25113
 N900 N 0.34769 0.22875 0.20829
 N901 N 0.39082 0.71718 0.27403
 C902 C 0.39479 0.73656 0.31596
 N903 N 0.37236 0.76536 0.32202
 N904 N 0.34469 0.77275 0.28933
 C905 C 0.33913 0.75246 0.24841
 N906 N 0.36355 0.72501 0.24092
 N907 N 0.86903 0.26352 0.82394
 C908 C 0.89457 0.23738 0.81505
 N909 N 0.89416 0.22130 0.77013
 N910 N 0.86743 0.22945 0.73647
 C911 C 0.84009 0.25402 0.74632
 N912 N 0.84198 0.27129 0.79050
 N913 N 0.61504 0.97862 0.60936
 C914 C 0.64634 0.99835 0.59894
 N915 N 0.65102 1.00962 0.55152
 N916 N 0.62480 1.00324 0.51688
 C917 C 0.59252 0.98536 0.52757
 N918 N 0.58833 0.97274 0.57459
 N919 N 0.11158 0.48028 1.12319
 C920 C 0.14622 0.49266 1.10905
 N921 N 0.15382 0.49524 1.05982
 N922 N 0.12711 0.48767 1.02618
 C923 C 0.09166 0.47732 1.04000
 N924 N 0.08469 0.47312 1.08937
 N925 N -0.11619 0.01688 1.10497
 C926 C -0.14775 -0.00333 1.09798
 N927 N -0.15431 -0.01630 1.05187
 N928 N -0.12976 -0.01095 1.01525
 C929 C -0.09740 0.00770 1.02238
 N930 N -0.09117 0.02182 1.06814
 N931 N 0.38374 0.52002 0.60332
 C932 C 0.35220 0.50018 0.59441
 N933 N 0.34693 0.48750 0.54783
 N934 N 0.37279 0.49268 0.51267
 C935 C 0.40526 0.51077 0.52197
 N936 N 0.41006 0.52476 0.56806
 N937 N 0.34901 0.50371 -0.05821
 C938 C 0.35842 0.49896 -0.10657
 N939 N 0.39329 0.48491 -0.11728
 N940 N 0.41867 0.47817 -0.08110
 C941 C 0.40987 0.48445 -0.03267
 N942 N 0.37421 0.49662 -0.02223
 N943 N -0.10484 0.98611 0.38878
 C944 C -0.14102 0.99755 0.39815
 N945 N -0.15240 1.00013 0.44609
 N946 N -0.12796 0.99364 0.48313
 C947 C -0.09113 0.98433 0.47430
 N948 N -0.08028 0.97997 0.42612
 N949 N 0.11267 0.51630 0.38941
 C950 C 0.14816 0.50486 0.40317
 N951 N 0.15594 0.50073 0.45227
 N952 N 0.12888 0.50620 0.48601
 C953 C 0.09288 0.51595 0.47251
 N954 N 0.08545 0.52141 0.42336
 N955 N 0.60815 0.01489 -0.11384
 C956 C 0.64445 0.00450 -0.10238
 N957 N 0.65438 0.00111 -0.05380
 N958 N 0.62863 0.00619 -0.01827
 C959 C 0.59186 0.01483 -0.02939
 N960 N 0.58226 0.01965 -0.07807
 N961 N 0.59615 0.57590 -0.00799
 C962 C 0.62680 0.55503 0.00273
 N963 N 0.62120 0.51990 0.00650
 N964 N 0.58580 0.50702 0.00508
 C965 C 0.55484 0.52856 -0.00173
 N966 N 0.56114 0.56285 -0.01083
 N967 N 0.09755 1.06541 0.48777
 C968 C 0.12663 1.04800 0.51111
 N969 N 0.11925 1.01674 0.53298
 N970 N 0.08371 1.00450 0.53401
 C971 C 0.05415 1.02305 0.51344
 N972 N 0.06209 1.05303 0.48856
 N973 N 0.09797 -0.07226 0.99947
 C974 C 0.12586 -0.05041 0.98373
 N975 N 0.11635 -0.01675 0.97247
 N976 N 0.07993 -0.00614 0.97382
 C977 C 0.05156 -0.02861 0.98675
 N978 N 0.06169 -0.06145 1.00125
 N979 N 0.62043 0.48070 0.48947
 C980 C 0.62721 0.44588 0.49664
 N981 N 0.59728 0.42516 0.50852
 N982 N 0.56185 0.43796 0.50958
 C983 C 0.55433 0.47162 0.49705
 N984 N 0.58458 0.49318 0.48892
 N985 N -0.09851 0.43496 0.47667
 C986 C -0.12793 0.45315 0.49744
 N987 N -0.12076 0.48498 0.51756
 N988 N -0.08515 0.49702 0.51965
 C989 C -0.05525 0.47775 0.50188
 N990 N -0.06298 0.44722 0.47840
 N991 N 0.40116 -0.06925 -0.00779
 C992 C 0.37251 -0.04897 0.01074
 N993 N 0.38069 -0.01596 0.02579
 N994 N 0.41662 -0.00459 0.02522
 C995 C 0.44579 -0.02559 0.00932
 N996 N 0.43695 -0.05763 -0.00886
 N997 N 0.37622 1.01447 0.48269
 C998 C 0.36920 1.04665 0.50202
 N999 N 0.39844 1.06414 0.52389
 N1000 N 0.43386 1.05097 0.52362
 C1001 C 0.44160 1.02019 0.50060
 N1002 N 0.41172 1.00151 0.48214
 N1003 N -0.12147 0.51620 1.00024
 C1004 C -0.12737 0.55084 1.00909
 N1005 N -0.09699 0.57070 1.02252
 N1006 N -0.06181 0.55701 1.02415
 C1007 C -0.05536 0.52304 1.01185
 N1008 N -0.08617 0.50267 1.00139
 N1009 N 0.07844 0.62700 0.56806
 C1010 C 0.04648 0.64747 0.57074
 N1011 N 0.01217 0.63271 0.56084
 N1012 N 0.00968 0.59867 0.55096
 C1013 C 0.04136 0.57786 0.55007
 N1014 N 0.07592 0.59288 0.55761
 N1015 N 0.58028 0.12483 0.06851
 C1016 C 0.54839 0.14541 0.07080
 N1017 N 0.51403 0.13073 0.06094
 N1018 N 0.51139 0.09664 0.05145
 C1019 C 0.54301 0.07575 0.05092
 N1020 N 0.57760 0.09069 0.05844
 N1021 N -0.08361 0.12144 0.91889
 C1022 C -0.05268 0.14227 0.92533
 N1023 N -0.02026 0.12773 0.94462
 N1024 N -0.01820 0.09357 0.95463
 C1025 C -0.04856 0.07243 0.94627
 N1026 N -0.08154 0.08724 0.92928
 N1027 N 0.41991 0.62388 0.42865
 C1028 C 0.45134 0.64456 0.42837
 N1029 N 0.48554 0.63007 0.44133
 N1030 N 0.48859 0.59602 0.45162
 C1031 C 0.45754 0.57499 0.44996
 N1032 N 0.42298 0.58979 0.43953
 N1033 N 0.57771 0.87132 0.43142
 C1034 C 0.54662 0.85030 0.43443
 N1035 N 0.51326 0.86447 0.45062
 N1036 N 0.51053 0.89851 0.46079
 C1037 C 0.54107 0.91989 0.45563
 N1038 N 0.57497 0.90542 0.44200
 N1039 N 0.07503 0.36618 0.95077
 C1040 C 0.04335 0.34663 0.94245
 N1041 N 0.00852 0.36195 0.94823
 N1042 N 0.00541 0.39580 0.95933
 C1043 C 0.03696 0.41575 0.96569
 N1044 N 0.07185 0.40006 0.96255
 N1045 N 0.42419 0.37444 0.06327
 C1046 C 0.45588 0.35403 0.06980
 N1047 N 0.49067 0.36856 0.06263
 N1048 N 0.49383 0.40243 0.05162
 C1049 C 0.46232 0.42317 0.04663
 N1050 N 0.42740 0.40833 0.05157
 N1051 N -0.06469 0.88150 0.62122
 C1052 C -0.04758 0.85696 0.59232
 N1053 N -0.03020 0.86759 0.54973
 N1054 N -0.02950 0.90148 0.53717
 C1055 C -0.04649 0.92601 0.56650
 N1056 N -0.06375 0.91523 0.60880
 N1057 N 0.22442 0.33287 0.13730
 C1058 C 0.23204 0.36667 0.14973
 N1059 N 0.23062 0.37576 0.19843
 N1060 N 0.22571 0.35156 0.23340
 C1061 C 0.22301 0.31715 0.22162
 N1062 N 0.22064 0.30847 0.17262
 N1063 N 0.72344 0.87266 0.68974
 C1064 C 0.73585 0.86531 0.64312
 N1065 N 0.74273 0.83140 0.63069
 N1066 N 0.74040 0.80618 0.66489
 C1067 C 0.73057 0.81375 0.71259
 N1068 N 0.72057 0.84728 0.72366
 N1069 N 0.26857 0.66758 0.62047
 C1070 C 0.27324 0.63393 0.63597
 N1071 N 0.28602 0.62787 0.68300
 N1072 N 0.29088 0.65443 0.71452
 C1073 C 0.28237 0.68788 0.70066
 N1074 N 0.27279 0.69399 0.65228
 N1075 N 0.77690 0.16959 0.12402
 C1076 C 0.77292 0.13548 0.13789
 N1077 N 0.77972 0.12686 0.18616
 N1078 N 0.78636 0.15159 0.21987
 C1079 C 0.78511 0.18604 0.20746
 N1080 N 0.78217 0.19442 0.15828
 N1081 N 0.71746 0.12866 0.79956
 C1082 C 0.72471 0.13710 0.84771
 N1083 N 0.72432 0.17145 0.86079
 N1084 N 0.72078 0.19638 0.82618
 C1085 C 0.71704 0.18802 0.77721
 N1086 N 0.71344 0.15366 0.76516
 N1087 N 0.22912 0.66772 0.37150
 C1088 C 0.22668 0.63399 0.35586
 N1089 N 0.21631 0.62777 0.30802
 N1090 N 0.21152 0.65427 0.27612
 C1091 C 0.21751 0.68791 0.29040
 N1092 N 0.22489 0.69413 0.33931
 N1093 N 0.76882 0.83227 0.37268
 C1094 C 0.77188 0.86631 0.35871
 N1095 N 0.78279 0.87362 0.31143
 N1096 N 0.78707 0.84796 0.27825
 C1097 C 0.77982 0.81416 0.29068
 N1098 N 0.77253 0.80675 0.33925
 N1099 N 0.28086 0.37266 0.80657
 C1100 C 0.27620 0.36296 0.85474
 N1101 N 0.27975 0.32851 0.86679
 N1102 N 0.28348 0.30442 0.83127
 C1103 C 0.28407 0.31383 0.78240
 N1104 N 0.28506 0.34853 0.77125
 N1105 N 0.75361 0.37711 0.71023
 C1106 C 0.78767 0.38772 0.72911
 N1107 N 0.81129 0.36339 0.75014
 N1108 N 0.80173 0.32966 0.75113
 C1109 C 0.76831 0.31867 0.73090
 N1110 N 0.74421 0.34323 0.71093
 N1111 N 0.25524 0.87897 0.23856
 C1112 C 0.29284 0.88742 0.23388
 N1113 N 0.31917 0.86125 0.23744
 N1114 N 0.30871 0.82813 0.24258
 C1115 C 0.27143 0.81908 0.24374
 N1116 N 0.24470 0.84533 0.24239
 N1117 N 0.18674 0.86459 0.74267
 C1118 C 0.21146 0.88867 0.76065
 N1119 N 0.24792 0.87836 0.77110
 N1120 N 0.25854 0.84480 0.76602
 C1121 C 0.23333 0.82037 0.74958
 N1122 N 0.19750 0.83127 0.73726
 N1123 N 0.74935 0.37597 0.27427
 C1124 C 0.71351 0.38699 0.26185
 N1125 N 0.68838 0.36313 0.24416
 N1126 N 0.69819 0.32940 0.24064
 C1127 C 0.73341 0.31792 0.25488
 N1128 N 0.75901 0.34207 0.27112
 N1129 N 0.68846 0.63773 0.25379
 C1130 C 0.71271 0.61435 0.23238
 N1131 N 0.74697 0.62588 0.21574
 N1132 N 0.75590 0.65980 0.21879
 C1133 C 0.73114 0.68347 0.23904
 N1134 N 0.69756 0.67148 0.25715
 N1135 N 0.24337 0.12609 0.71552
 C1136 C 0.20972 0.11526 0.73491
 N1137 N 0.18684 0.13917 0.75762
 N1138 N 0.19661 0.17281 0.75952
 C1139 C 0.22948 0.18410 0.73857
 N1140 N 0.25296 0.15988 0.71713
 N1141 N 0.31732 0.13744 0.25247
 C1142 C 0.29023 0.11384 0.26502
 N1143 N 0.25438 0.12580 0.27500
 N1144 N 0.24647 0.16017 0.27417
 C1145 C 0.27396 0.18391 0.26291
 N1146 N 0.30932 0.17164 0.25134
 N1147 N 0.82201 0.63697 0.76736
 C1148 C 0.79398 0.61347 0.77606
 N1149 N 0.75738 0.62534 0.77978
 N1150 N 0.74954 0.65967 0.77684
 C1151 C 0.77790 0.68331 0.76948
 N1152 N 0.81409 0.67106 0.76413
 N1153 N 0.85745 0.81259 0.11177
 C1154 C 0.88659 0.78946 0.11984
 N1155 N 0.88266 0.76522 0.15667
 N1156 N 0.85060 0.76327 0.18287
 C1157 C 0.82105 0.78565 0.17367
 N1158 N 0.82524 0.81039 0.13776
 N1159 N 0.35313 0.30122 0.59370
 C1160 C 0.38597 0.28876 0.61442
 N1161 N 0.38460 0.27389 0.66044
 N1162 N 0.35158 0.27138 0.68463
 C1163 C 0.31868 0.28367 0.66372
 N1164 N 0.32013 0.29831 0.61765
 N1165 N 0.39020 0.74170 0.83379
 C1166 C 0.39685 0.71327 0.86329
 N1167 N 0.37033 0.68756 0.86430
 N1168 N 0.33780 0.69089 0.83881
 C1169 C 0.33047 0.71976 0.81080
 N1170 N 0.35758 0.74497 0.80829
 N1171 N 0.86850 0.18875 0.37776
 C1172 C 0.89610 0.21326 0.37264
 N1173 N 0.88992 0.23993 0.33975
 N1174 N 0.85706 0.24259 0.31463
 C1175 C 0.82915 0.21848 0.32088
 N1176 N 0.83570 0.19154 0.35278
 N1177 N 0.14624 0.30179 0.40399
 C1178 C 0.11395 0.29028 0.38167
 N1179 N 0.11637 0.27585 0.33553
 N1180 N 0.14996 0.27295 0.31267
 C1181 C 0.18232 0.28442 0.33517
 N1182 N 0.17975 0.29846 0.38142
 N1183 N 0.63761 0.81575 0.87210
 C1184 C 0.61098 0.79030 0.86839
 N1185 N 0.61834 0.76241 0.83836
 N1186 N 0.65168 0.75931 0.81501
 C1187 C 0.67889 0.78417 0.82029
 N1188 N 0.67086 0.81256 0.84873
 N1189 N 0.61076 0.22664 0.65917
 C1190 C 0.60814 0.21014 0.61446
 N1191 N 0.64052 0.19756 0.59327
 N1192 N 0.67421 0.20179 0.61553
 C1193 C 0.67694 0.21792 0.66039
 N1194 N 0.64452 0.23046 0.68173
 N1195 N 0.12300 0.68671 0.14803
 C1196 C 0.10141 0.71475 0.13345
 N1197 N 0.11324 0.74735 0.14604
 N1198 N 0.14625 0.75181 0.16992
 C1199 C 0.16861 0.72389 0.18285
 N1200 N 0.15590 0.69124 0.17235
   
