data_POSCAR
  _audit_creation_date              2014-09-24
  _audit_creation_method            'ToBaCCo'
  _symmetry_space_group_name_H-M    'P1'
  _symmetry_Int_Tables_number       1
  _symmetry_cell_setting            triclinic
  loop_
  _symmetry_equiv_pos_as_xyz
 x,y,z
_cell_length_a 25.4216
_cell_length_b 24.4065
_cell_length_c 23.5984
_cell_angle_alpha 89.938100
_cell_angle_beta 89.138300
_cell_angle_gamma 91.730600
loop_
  _atom_site_label
  _atom_site_type_symbol
  _atom_site_fract_x
  _atom_site_fract_y
  _atom_site_fract_z
C1 C 0.18840 0.18872 0.24695
 N2 N 0.21790 0.15077 0.21912
 C3 C 0.21484 0.14614 0.16166
 N4 N 0.18008 0.17679 0.13370
 C5 C 0.15184 0.21510 0.16052
 N6 N 0.15666 0.22181 0.21708
 C7 C -0.13204 0.86369 0.19873
 N8 N -0.17732 0.88954 0.18918
 C9 C -0.22067 0.86152 0.17141
 N10 N -0.21818 0.80710 0.16096
 C11 C -0.17289 0.78060 0.17091
 N12 N -0.13005 0.80869 0.19104
 C13 C -0.18374 0.15293 -0.23348
 N14 N -0.15525 0.20119 -0.23540
 C15 C -0.16388 0.24052 -0.19566
 N16 N -0.20156 0.23188 -0.15503
 C17 C -0.23110 0.18463 -0.15359
 N18 N -0.22159 0.14510 -0.19248
 C19 C 0.16076 0.81054 -0.21808
 N20 N 0.20975 0.83415 -0.22168
 C21 C 0.24294 0.83068 -0.17714
 N22 N 0.22668 0.80418 -0.12896
 C23 C 0.17852 0.77902 -0.12639
 N24 N 0.14593 0.78216 -0.17089
 C25 C 0.13256 1.15128 0.81756
 N26 N 0.18061 1.12863 0.81663
 C27 C 0.21982 1.14961 0.84909
 N28 N 0.21201 1.19561 0.87980
 C29 C 0.16471 1.22019 0.87894
 N30 N 0.12455 1.19695 0.84911
 C31 C 0.82779 0.81536 0.74997
 N32 N 0.85518 0.78692 0.78896
 C33 C 0.84426 0.79328 0.84538
 N34 N 0.80797 0.83027 0.86221
 C35 C 0.78136 0.85895 0.82334
 N36 N 0.79097 0.85066 0.76758
 C37 C 0.19188 0.83750 1.23136
 N38 N 0.22689 0.84134 1.18763
 C39 C 0.23124 0.79999 1.14986
 N40 N 0.19913 0.75458 1.15498
 C41 C 0.16354 0.75053 1.19864
 N42 N 0.16053 0.79172 1.23714
 C43 C 0.84860 1.16823 1.21979
 N44 N 0.80066 1.14208 1.22821
 C45 C 0.76163 1.14911 1.18978
 N46 N 0.77040 1.18224 1.14446
 C47 C 0.81682 1.20962 1.13685
 N48 N 0.85586 1.20224 1.17430
 O49 O 0.45310 0.90697 0.87581
 O50 O 0.38356 0.93596 0.92993
 C51 C 0.40318 0.91039 0.88703
 O52 O 0.57236 0.89707 1.10381
 O53 O 0.62884 0.96271 1.06508
 C54 C 0.61782 0.92262 1.09951
 O55 O 0.43027 0.86539 1.06811
 O56 O 0.37176 0.91930 1.02223
 C57 C 0.38346 0.87591 1.05058
 O58 O 0.59642 0.93444 0.89359
 O59 O 0.64142 0.97822 0.96490
 C60 C 0.63930 0.95213 0.91703
 Zr61 Zr 0.51810 0.93874 0.92209
 O62 O 0.53429 0.85429 0.91592
 O63 O 0.52606 0.94592 0.83314
 Zr64 Zr 0.50126 0.91310 1.06106
 O65 O 0.52172 0.83090 1.04575
 O66 O 0.48276 0.89304 1.14643
 O67 O 0.46473 0.90858 0.98260
 O68 O 0.55674 0.92339 0.99672
 O69 O 0.57321 1.11610 0.92976
 O70 O 0.63035 1.06572 0.98152
 C71 C 0.61983 1.10586 0.94802
 O72 O 0.40051 1.06306 1.10493
 O73 O 0.35924 1.01047 1.03738
 C74 C 0.35849 1.04426 1.07958
 O75 O 0.54714 1.07465 1.13503
 O76 O 0.61667 1.04942 1.07860
 C77 C 0.59726 1.07169 1.12375
 O78 O 0.42797 1.09610 0.90932
 O79 O 0.37119 1.02854 0.94397
 C80 C 0.38201 1.07186 0.91354
 Zr81 Zr 0.49992 1.07457 0.94596
 O82 O 0.49241 1.15842 0.96673
 O83 O 0.50608 1.09451 0.85876
 Zr84 Zr 0.48161 1.04826 1.08531
 O85 O 0.47795 1.13385 1.09862
 O86 O 0.46274 1.03356 1.17172
 Zr87 Zr 0.42360 0.98196 0.99147
 Zr88 Zr 0.57719 1.00561 1.01467
 O89 O 0.53473 1.07784 1.02433
 O90 O 0.44302 1.06460 1.00999
 O91 O 0.55579 1.01572 0.92953
 O92 O 0.44545 0.97173 1.07649
 O93 O 0.46621 1.00187 0.91677
 O94 O 0.53560 0.98595 1.09063
 H95 H 0.58549 0.89685 0.99535
 H96 H 0.41788 0.96197 1.10521
 H97 H 0.55446 1.11223 1.03361
 H98 H 0.44811 1.00440 0.88003
 H99 H 0.50193 0.91988 1.17041
 H100 H 0.48972 1.00927 1.18661
 H101 H 0.44815 1.14718 1.07651
 H102 H 0.45544 1.16374 0.97864
 H103 H 0.53726 1.07608 0.84323
 H104 H 0.53176 0.98535 0.82492
 H105 H 0.50028 0.83350 0.91799
 H106 H 0.49796 0.81610 1.01629
 O107 O 0.10798 0.44064 -0.06210
 O108 O 0.04205 0.37504 -0.05189
 C109 C 0.08996 0.39039 -0.06482
 O110 O 0.05377 0.54726 0.15024
 O111 O 0.02366 0.62079 0.10069
 C112 C 0.04833 0.59951 0.14254
 O113 O 0.05406 0.39787 0.10968
 O114 O 0.01494 0.35521 0.03398
 C115 C 0.04264 0.35479 0.07944
 O116 O 0.10248 0.59317 -0.04298
 O117 O 0.04601 0.64203 0.01295
 C118 C 0.08760 0.63799 -0.01889
 Zr119 Zr 0.06904 0.51280 -0.03868
 O120 O 0.15113 0.51642 -0.02542
 O121 O 0.08328 0.52684 -0.12602
 Zr122 Zr 0.03185 0.48034 0.09691
 O123 O 0.11026 0.47799 0.12534
 O124 O 0.00309 0.45554 0.17796
 O125 O 0.05906 0.44948 0.02022
 O126 O 0.06137 0.54135 0.04315
 O127 O -0.07378 0.60602 -0.09076
 O128 O -0.04034 0.64739 -0.01105
 C129 C -0.06500 0.64869 -0.05868
 O130 O -0.13267 0.41037 0.05721
 O131 O -0.07187 0.35991 0.00890
 C132 C -0.11597 0.36494 0.03611
 O133 O -0.12691 0.55717 0.10093
 O134 O -0.06473 0.62472 0.08049
 C135 C -0.10888 0.60730 0.10333
 O136 O -0.08039 0.45433 -0.12756
 O137 O -0.04914 0.38084 -0.07864
 C138 C -0.07376 0.40202 -0.12063
 Zr139 Zr -0.05727 0.52179 -0.07502
 O140 O -0.13603 0.53251 -0.09948
 O141 O -0.03000 0.53765 -0.15883
 Zr142 Zr -0.09499 0.48877 0.06000
 O143 O -0.17503 0.49906 0.04023
 O144 O -0.11677 0.46243 0.14285
 Zr145 Zr -0.01490 0.42179 -0.00952
 Zr146 Zr -0.01066 0.57986 0.03166
 O147 O -0.08431 0.55157 0.00189
 O148 O -0.08752 0.45894 -0.02250
 O149 O 0.00996 0.56776 -0.05423
 O150 O -0.03533 0.43578 0.07596
 O151 O 0.00772 0.47225 -0.07847
 O152 O -0.03331 0.52995 0.10129
 H153 H 0.09267 0.56244 0.05652
 H154 H -0.04446 0.40404 0.10082
 H155 H -0.11396 0.57686 -0.00022
 H156 H 0.01644 0.45383 -0.11469
 H157 H -0.01158 0.48809 0.19671
 H158 H -0.10051 0.48863 0.16984
 H159 H -0.18195 0.47885 0.00469
 H160 H -0.15684 0.50012 -0.08584
 H161 H -0.00629 0.57054 -0.15758
 H162 H 0.12197 0.52643 -0.13133
 H163 H 0.15650 0.50312 0.01356
 H164 H 0.13110 0.46048 0.09501
 O165 O 1.09706 -0.10229 0.58375
 O166 O 1.02851 -0.07095 0.63795
 C167 C 1.06910 -0.10099 0.63006
 O168 O 1.11129 0.12127 0.46857
 O169 O 1.08627 0.07716 0.38697
 C170 C 1.11260 0.11489 0.41391
 O171 O 1.07718 0.08536 0.61998
 O172 O 1.01765 0.02091 0.65631
 C173 C 1.05120 0.06160 0.66160
 O174 O 1.12680 -0.07732 0.42916
 O175 O 1.09318 -0.01388 0.36857
 C176 C 1.12470 -0.05275 0.38045
 Zr177 Zr 1.08495 -0.06193 0.50568
 O178 O 1.16621 -0.04941 0.52172
 O179 O 1.09640 -0.14695 0.49682
 Zr180 Zr 1.07123 0.07283 0.53136
 O181 O 1.15273 0.07900 0.54840
 O182 O 1.06274 0.15626 0.55288
 O183 O 1.07595 -0.00398 0.56981
 O184 O 1.09889 0.01607 0.47420
 O185 O 0.95444 -0.08848 0.38056
 O186 O 1.00909 -0.01969 0.34503
 C187 C 0.97684 -0.06117 0.33900
 O188 O 0.89564 0.07244 0.56952
 O189 O 0.93218 0.01199 0.63140
 C190 C 0.89831 0.04857 0.61860
 O191 O 0.92983 0.10167 0.41685
 O192 O 0.99860 0.07061 0.36277
 C193 C 0.95685 0.09935 0.36981
 O194 O 0.91183 -0.11774 0.53157
 O195 O 0.94203 -0.07856 0.61372
 C196 C 0.91289 -0.11371 0.58640
 Zr197 Zr 0.95690 -0.07357 0.46938
 O198 O 0.87840 -0.08090 0.44097
 O199 O 0.96557 -0.15910 0.45929
 Zr200 Zr 0.94277 0.06174 0.49535
 O201 O 0.86330 0.05429 0.47024
 O202 O 0.93495 0.14594 0.51431
 Zr203 Zr 0.99401 -0.01745 0.58061
 Zr204 Zr 1.03358 0.01699 0.42053
 O205 O 0.95209 0.00302 0.43348
 O206 O 0.92798 -0.01704 0.52772
 O207 O 1.03362 -0.06793 0.43758
 O208 O 0.99468 0.06711 0.56161
 O209 O 1.01037 -0.08747 0.53221
 O210 O 1.01771 0.08824 0.46717
 H211 H 1.13453 0.02324 0.45779
 H212 H 0.98586 0.09424 0.59123
 H213 H 0.92766 0.00476 0.40131
 H214 H 1.00759 -0.12432 0.54980
 H215 H 1.04456 0.17381 0.52121
 H216 H 0.95900 0.16700 0.48845
 H217 H 0.84528 0.02704 0.49544
 H218 H 0.85596 -0.06275 0.46944
 H219 H 0.99189 -0.16457 0.42865
 H220 H 1.07451 -0.15969 0.46490
 H221 H 1.16971 -0.03930 0.56210
 H222 H 1.15970 0.05331 0.57966
 C223 C 1.18028 0.18587 0.30535
 C224 C 1.16739 0.23039 0.33840
 C225 C 1.14601 0.20904 0.38726
 C226 C 1.14526 0.15315 0.37950
 O227 O 1.16650 0.13892 0.33027
 H228 H 1.16983 0.27326 0.32652
 H229 H 1.12788 0.23147 0.42155
 C230 C 0.91018 -0.10604 0.21967
 C231 C 0.92242 -0.05316 0.20222
 C232 C 0.95600 -0.03248 0.24144
 C233 C 0.95983 -0.07339 0.28140
 O234 O 0.93251 -0.11842 0.26805
 H235 H 0.90611 -0.03123 0.16698
 H236 H 0.97054 0.00958 0.24429
 C237 C 0.82666 0.11063 0.72826
 C238 C 0.80323 0.05889 0.73168
 C239 C 0.82657 0.02893 0.69022
 C240 C 0.86159 0.06489 0.66358
 O241 O 0.86219 0.11448 0.68662
 H242 H 0.77384 0.04453 0.76218
 H243 H 0.81964 -0.01405 0.68091
 C244 C 1.12125 -0.17881 0.73907
 C245 C 1.06961 -0.19761 0.74385
 C246 C 1.04366 -0.17120 0.70258
 C247 C 1.08143 -0.13882 0.67542
 O248 O 1.12874 -0.14322 0.69716
 H249 H 1.05246 -0.22519 0.77548
 H250 H 1.00198 -0.17417 0.69392
 C251 C 0.24381 1.10880 1.12982
 C252 C 0.22608 1.08971 1.07825
 C253 C 0.26546 1.06030 1.05625
 C254 C 0.30570 1.06431 1.09477
 O255 O 0.29265 1.09350 1.14035
 H256 H 0.18884 1.09730 1.05842
 H257 H 0.26600 1.04102 1.01495
 C258 C 0.29307 0.85472 0.82042
 C259 C 0.31855 0.87463 0.77220
 C260 C 0.36622 0.89461 0.79025
 C261 C 0.36545 0.88602 0.84799
 O262 O 0.32136 0.86189 0.86632
 H263 H 0.30406 0.87472 0.72932
 H264 H 0.39642 0.91581 0.76506
 C265 C 0.73250 0.88868 1.16686
 C266 C 0.72337 0.93760 1.19395
 C267 C 0.67499 0.95174 1.17729
 C268 C 0.65856 0.91142 1.14028
 O269 O 0.69323 0.87247 1.13399
 H270 H 0.74920 0.96056 1.22196
 H271 H 0.65532 0.98893 1.18790
 C272 C 0.72820 1.17748 0.88647
 C273 C 0.71309 1.21723 0.92456
 C274 C 0.67061 1.19504 0.95316
 C275 C 0.66320 1.14339 0.93079
 O276 O 0.69789 1.13240 0.89026
 H277 H 0.73002 1.25809 0.92970
 H278 H 0.64742 1.21425 0.98601
 C279 C 0.11086 0.24216 0.12907
 C280 C 0.08303 0.21584 0.08695
 C281 C 0.05180 0.25429 0.06521
 C282 C 0.06316 0.30152 0.09535
 O283 O 0.09894 0.29433 0.13469
 H284 H 0.08599 0.17373 0.07316
 H285 H 0.02535 0.24913 0.02996
 C286 C -0.13240 0.29208 -0.19460
 C287 C -0.11545 0.32187 -0.24148
 C288 C -0.09236 0.36882 -0.22022
 C289 C -0.09603 0.36328 -0.16213
 O290 O -0.12041 0.31698 -0.14656
 H291 H -0.12057 0.31136 -0.28564
 H292 H -0.07426 0.40249 -0.24402
 C293 C 0.16100 0.74736 -0.07689
 C294 C 0.16430 0.76437 -0.02129
 C295 C 0.13626 0.72535 0.00913
 C296 C 0.11943 0.68744 -0.03047
 O297 O 0.13402 0.70085 -0.08246
 H298 H 0.18267 0.80172 -0.00533
 H299 H 0.12873 0.72472 0.05435
 C300 C -0.17034 0.72198 0.15933
 C301 C -0.21308 0.68602 0.16278
 C302 C -0.19472 0.63710 0.14493
 C303 C -0.14236 0.64725 0.13123
 O304 O -0.12733 0.69877 0.14010
 H305 H -0.25298 0.69480 0.17570
 H306 H -0.21732 0.59915 0.14003
 C307 C 1.09306 0.12921 0.78371
 C308 C 1.04041 0.14120 0.78803
 C309 C 1.01684 0.11246 0.74531
 C310 C 1.05706 0.08623 0.71761
 O311 O 1.10327 0.09624 0.74074
 H312 H 1.02166 0.16817 0.81802
 H313 H 0.97594 0.11337 0.73336
 C314 C 0.84118 -0.18453 0.69273
 C315 C 0.80384 -0.18703 0.65079
 C316 C 0.82815 -0.16642 0.60322
 C317 C 0.87781 -0.15028 0.62013
 O318 O 0.88591 -0.16120 0.67427
 H319 H 0.76259 -0.19868 0.65550
 H320 H 0.81013 -0.15865 0.56284
 C321 C 1.18725 -0.11908 0.26895
 C322 C 1.21322 -0.06872 0.26288
 C323 C 1.19398 -0.03713 0.30550
 C324 C 1.15897 -0.07105 0.33489
 O325 O 1.15443 -0.12060 0.31285
 H326 H 1.24107 -0.05586 0.22997
 H327 H 1.20330 0.00570 0.31357
 C328 C 0.89135 0.15979 0.25565
 C329 C 0.94171 0.18052 0.24424
 C330 C 0.97243 0.16075 0.28583
 C331 C 0.93877 0.13039 0.32056
 O332 O 0.88941 0.12936 0.30244
 H333 H 0.95497 0.20586 0.20880
 H334 H 1.01446 0.16749 0.29031
 C335 C 0.15925 0.27184 -0.09699
 C336 C 0.20045 0.30275 -0.07490
 C337 C 0.18005 0.35228 -0.06259
 C338 C 0.12780 0.34773 -0.07716
 O339 O 0.11481 0.29884 -0.09773
 H340 H 0.24086 0.29112 -0.06980
 H341 H 0.20046 0.38718 -0.04382
 C342 C -0.17716 0.24785 0.09327
 C343 C -0.21596 0.26027 0.05522
 C344 C -0.19675 0.30489 0.02592
 C345 C -0.14757 0.31545 0.04761
 O346 O -0.13548 0.28115 0.08838
 H347 H -0.25468 0.24104 0.05149
 H348 H -0.21694 0.32837 -0.00553
 C349 C -0.12993 0.76310 -0.11349
 C350 C -0.13051 0.77691 -0.05678
 C351 C -0.10324 0.73761 -0.03051
 C352 C -0.08887 0.70147 -0.07252
 O353 O -0.10477 0.71690 -0.12340
 H354 H -0.14884 0.81156 -0.03681
 H355 H -0.09682 0.73417 0.01461
 C356 C 0.12739 0.70261 0.20323
 C357 C 0.11151 0.67751 0.25333
 C358 C 0.07930 0.63436 0.23770
 C359 C 0.07693 0.63774 0.17952
 O360 O 0.10633 0.67871 0.15853
 H361 H 0.12305 0.68861 0.29587
 H362 H 0.05970 0.60441 0.26519
 C363 C 0.27095 1.12376 0.84904
 C364 C 0.29427 1.10206 0.80137
 C365 C 0.34033 1.08161 0.81948
 C366 C 0.34097 1.09166 0.87689
 O367 O 0.29903 1.11738 0.89521
 H368 H 0.27947 1.10159 0.75861
 H369 H 0.36934 1.06048 0.79428
 C370 C 0.27363 0.80414 1.10707
 C371 C 0.29522 0.76051 1.07889
 C372 C 0.33943 0.78190 1.05236
 C373 C 0.34057 0.83695 1.06548
 O374 O 0.30098 0.85048 1.09878
 H375 H 0.28218 0.71789 1.08039
 H376 H 0.36822 0.75989 1.02790
 C377 C 0.70954 1.12161 1.19366
 C378 C 0.67789 1.11624 1.24146
 C379 C 0.62961 1.09855 1.22193
 C380 C 0.63601 1.09411 1.16392
 O381 O 0.68418 1.10820 1.14702
 H382 H 0.68798 1.12633 1.28468
 H383 H 0.59440 1.08932 1.24686
 C384 C 0.74493 0.90175 0.84021
 C385 C 0.73201 0.94368 0.80442
 C386 C 0.69471 0.97188 0.83266
 C387 C 0.68727 0.94498 0.88358
 O388 O 0.71736 0.90183 0.88829
 H389 H 0.74614 0.95081 0.76150
 H390 H 0.67223 1.00520 0.81624
   
