data_POSCAR
  _audit_creation_date              2014-09-24
  _audit_creation_method            'ToBaCCo'
  _symmetry_space_group_name_H-M    'P1'
  _symmetry_Int_Tables_number       1
  _symmetry_cell_setting            triclinic
  loop_
  _symmetry_equiv_pos_as_xyz
 x,y,z
_cell_length_a 26.1957
_cell_length_b 26.1985
_cell_length_c 26.4356
_cell_angle_alpha 69.595500
_cell_angle_beta 93.446700
_cell_angle_gamma 78.287900
loop_
  _atom_site_label
  _atom_site_type_symbol
  _atom_site_fract_x
  _atom_site_fract_y
  _atom_site_fract_z
O1 O 0.54418 0.47028 0.08413
 O2 O 0.39989 0.49545 0.07950
 O3 O 0.47619 0.40804 0.09486
 O4 O 0.46860 0.55671 0.06940
 O5 O 0.45519 0.57695 -0.01944
 O6 O 0.47085 0.42684 0.00626
 O7 O 0.39093 0.51000 -0.00831
 O8 O 0.53453 0.49354 -0.00523
 Cu9 Cu 0.47295 0.48066 0.09089
 Cu10 Cu 0.46180 0.50374 -0.01561
 C11 C 0.56383 0.47907 0.03998
 C12 C 0.37085 0.50582 0.03515
 C13 C 0.47549 0.39201 0.05481
 C14 C 0.46099 0.59208 0.02079
 O15 O -0.08627 0.61251 0.42767
 O16 O -0.08455 0.46463 0.45224
 O17 O -0.09634 0.52691 0.51056
 O18 O -0.07421 0.54936 0.36898
 O19 O 0.01173 0.52690 0.39486
 O20 O -0.01032 0.50299 0.53646
 O21 O 0.00170 0.44108 0.47645
 O22 O -0.00057 0.58844 0.45487
 Cu23 Cu -0.09396 0.54087 0.43711
 Cu24 Cu 0.00927 0.51252 0.46820
 C25 C -0.04384 0.62555 0.43823
 C26 C -0.04117 0.42785 0.46784
 C27 C -0.05709 0.51157 0.54750
 C28 C -0.02738 0.54116 0.35801
 O29 O 0.54599 0.00788 0.61296
 O30 O 0.53837 0.03931 0.46492
 O31 O 0.46942 0.04067 0.53230
 O32 O 0.61371 0.00758 0.54481
 O33 O 0.61607 -0.08172 0.56229
 O34 O 0.47108 -0.04724 0.54339
 O35 O 0.54203 -0.04980 0.47984
 O36 O 0.54344 -0.07959 0.62679
 Cu37 Cu 0.54169 0.03273 0.53751
 Cu38 Cu 0.54350 -0.07361 0.55479
 C39 C 0.54493 -0.04097 0.64502
 C40 C 0.53952 -0.00015 0.44725
 C41 C 0.44560 0.00242 0.53491
 C42 C 0.63949 -0.04234 0.55506
 C43 C 0.52557 -0.04375 0.06620
 C44 C 0.53050 -0.00066 0.02116
 C45 C 0.53982 -0.00917 -0.03040
 C46 C 0.52635 0.05721 0.01992
 C47 C 0.52119 -0.03894 0.12042
 C48 C 0.52407 -0.09908 0.06362
 C49 C 0.59111 -0.02971 -0.03874
 C50 C 0.60090 -0.03003 -0.09009
 C51 C 0.55926 -0.01189 -0.13299
 C52 C 0.50765 0.00650 -0.12393
 C53 C 0.49815 0.00880 -0.07322
 C54 C 0.56318 0.08698 -0.00402
 C55 C 0.55781 0.14269 -0.00928
 C56 C 0.51611 0.16957 0.01013
 C57 C 0.47922 0.13998 0.03439
 C58 C 0.48400 0.08443 0.03867
 C59 C 0.48292 -0.06045 0.15064
 C60 C 0.48118 -0.06177 0.20369
 C61 C 0.51713 -0.04091 0.22763
 C62 C 0.55496 -0.01828 0.19721
 C63 C 0.55723 -0.01776 0.14419
 C64 C 0.48237 -0.10453 0.03155
 C65 C 0.47792 -0.15750 0.03382
 C66 C 0.51503 -0.20601 0.06864
 C67 C 0.55674 -0.20024 0.10049
 C68 C 0.56126 -0.14727 0.09798
 H69 H 0.62372 -0.04301 -0.00620
 H70 H 0.64099 -0.04379 -0.09657
 H71 H 0.47513 0.02162 -0.15684
 H72 H 0.45851 0.02559 -0.06759
 H73 H 0.59605 0.06731 -0.01912
 H74 H 0.58642 0.16489 -0.02847
 H75 H 0.45407 0.06313 0.05558
 H76 H 0.45485 -0.07729 0.13346
 H77 H 0.45195 -0.07977 0.22641
 H78 H 0.58418 -0.00327 0.21503
 H79 H 0.58807 -0.00242 0.12241
 H80 H 0.45215 -0.06795 0.00640
 H81 H 0.44425 -0.16024 0.01003
 H82 H 0.58552 -0.23693 0.12800
 H83 H 0.59317 -0.14385 0.12370
 H84 H 0.44575 0.16027 0.04829
 C85 C -0.06183 0.52236 0.93491
 C86 C -0.02691 0.52567 0.97343
 C87 C 0.02994 0.52257 0.96774
 C88 C -0.04346 0.53295 1.02380
 C89 C -0.11746 0.52088 0.94290
 C90 C -0.04679 0.52043 0.88213
 C91 C 0.06099 0.47920 0.95531
 C92 C 0.11462 0.47616 0.95213
 C93 C 0.13864 0.51506 0.96334
 C94 C 0.10770 0.55826 0.97600
 C95 C 0.05395 0.56201 0.97802
 C96 C -0.08523 0.57731 1.02144
 C97 C -0.09780 0.58543 1.06921
 C98 C -0.06786 0.55045 1.11974
 C99 C -0.02663 0.50560 1.12206
 C100 C -0.01456 0.49706 1.07456
 C101 C -0.15849 0.55830 0.90229
 C102 C -0.21071 0.55545 0.90703
 C103 C -0.22332 0.51530 0.95254
 C104 C -0.18219 0.47764 0.99343
 C105 C -0.12973 0.48034 0.98848
 C106 C -0.02329 0.56095 0.84833
 C107 C -0.01084 0.55920 0.79817
 C108 C -0.02320 0.51811 0.78021
 C109 C -0.04667 0.47756 0.81407
 C110 C -0.05837 0.47881 0.86449
 H111 H 0.04389 0.44738 0.94860
 H112 H 0.13772 0.44255 0.94224
 H113 H 0.12486 0.58960 0.98367
 H114 H 0.03097 0.59580 0.98775
 H115 H -0.10744 0.60617 0.98260
 H116 H -0.12997 0.61998 1.06659
 H117 H 0.01769 0.46254 1.07730
 H118 H -0.14998 0.58959 0.86656
 H119 H -0.24144 0.58472 0.87478
 H120 H -0.19001 0.44507 1.02840
 H121 H -0.09862 0.45006 1.01961
 H122 H -0.01499 0.59415 0.86056
 H123 H 0.00731 0.59080 0.77274
 H124 H -0.05549 0.44451 0.80195
 H125 H -0.07645 0.44714 0.88991
 H126 H -0.00388 0.47680 1.16063
 C127 C 0.05357 -0.02192 0.47980
 C128 C 0.01467 0.02075 0.48091
 C129 C -0.04036 0.01527 0.48463
 C130 C 0.02440 0.07527 0.47981
 C131 C 0.10956 -0.01870 0.48062
 C132 C 0.04309 -0.07561 0.47940
 C133 C -0.08122 0.05646 0.44669
 C134 C -0.13358 0.05618 0.45299
 C135 C -0.14621 0.01460 0.49719
 C136 C -0.10524 -0.02751 0.53476
 C137 C -0.05267 -0.02699 0.52858
 C138 C 0.04928 0.10740 0.43890
 C139 C 0.05429 0.16038 0.43662
 C140 C 0.03322 0.18278 0.47414
 C141 C 0.00925 0.15013 0.51562
 C142 C 0.00491 0.09705 0.51835
 C143 C 0.13534 -0.00673 0.52177
 C144 C 0.18935 -0.00949 0.52496
 C145 C 0.21853 -0.02526 0.48756
 C146 C 0.19267 -0.03707 0.44652
 C147 C 0.13866 -0.03344 0.44282
 C148 C 0.07333 -0.12643 0.51797
 C149 C 0.06860 -0.17747 0.51522
 C150 C 0.03329 -0.17911 0.47409
 C151 C 0.00211 -0.12821 0.43583
 C152 C 0.00717 -0.07686 0.43840
 H153 H -0.07247 0.08970 0.41284
 H154 H -0.16439 0.08921 0.42370
 H155 H -0.11346 -0.05936 0.57011
 H156 H -0.02165 -0.05828 0.55909
 H157 H 0.06380 0.09204 0.40812
 H158 H 0.07317 0.18468 0.40446
 H159 H -0.01423 0.07302 0.55041
 H160 H 0.11403 0.00294 0.55243
 H161 H 0.20852 -0.00176 0.55807
 H162 H 0.21447 -0.04978 0.41761
 H163 H 0.11966 -0.04344 0.41114
 H164 H 0.10150 -0.12650 0.54974
 H165 H 0.09320 -0.21594 0.54505
 H166 H -0.02464 -0.12770 0.40277
 H167 H -0.01564 -0.03814 0.40743
 H168 H -0.00603 0.16546 0.54614
 C169 C -0.37881 0.47341 1.04182
 C170 C -0.35648 0.49098 0.99666
 C171 C -0.29960 0.48897 0.99938
 C172 C -0.27943 0.51305 0.95411
 H173 H -0.38074 0.50887 0.95707
 H174 H -0.27500 0.46961 1.03867
 H175 H -0.35473 0.45685 1.08143
 H176 H -0.30602 0.53429 0.91599
 C177 C 0.31658 0.51218 1.03520
 C178 C 0.28352 0.51613 0.99253
 C179 C 0.22669 0.52192 0.99540
 C180 C 0.19565 0.51039 0.96078
 H181 H 0.29837 0.51353 0.95586
 H182 H 0.21045 0.53396 1.02747
 H183 H 0.30103 0.51194 1.07239
 H184 H 0.21302 0.49414 0.93161
 C185 C -0.04561 -0.31899 0.43263
 C186 C -0.00351 -0.30327 0.44791
 C187 C -0.00708 -0.24580 0.44640
 C188 C 0.03294 -0.23455 0.47116
 H189 H 0.03392 -0.33380 0.46417
 H190 H -0.04299 -0.21380 0.42712
 H191 H -0.08311 -0.28839 0.41772
 H192 H 0.06702 -0.26865 0.49248
 C193 C -0.04150 0.36945 0.47574
 C194 C 0.00137 0.33196 0.47519
 C195 C -0.00164 0.27449 0.48160
 C196 C 0.03651 0.24007 0.46932
 H197 H 0.03834 0.34407 0.46855
 H198 H -0.03670 0.26096 0.49474
 H199 H -0.07886 0.35770 0.47957
 H200 H 0.06956 0.25542 0.45231
 C201 C 0.54387 -0.05264 -0.29938
 C202 C 0.55162 -0.01685 -0.27555
 C203 C 0.54436 -0.02797 -0.21826
 C204 C 0.57037 -0.00711 -0.18823
 H205 H 0.56301 0.02137 -0.29833
 H206 H 0.51688 -0.05278 -0.20068
 H207 H 0.53641 -0.09248 -0.27469
 H208 H 0.60075 0.01395 -0.20440
 C209 C 0.53862 0.01206 0.38832
 C210 C 0.53158 -0.02530 0.36633
 C211 C 0.53224 -0.01381 0.30769
 C212 C 0.51647 -0.04781 0.28558
 H213 H 0.52499 -0.06522 0.39198
 H214 H 0.54502 0.02258 0.28275
 H215 H 0.54354 0.05269 0.36249
 H216 H 0.50089 -0.08190 0.31096
 C217 C 0.46032 -0.34890 0.01062
 C218 C 0.47975 -0.33363 0.04955
 C219 C 0.48288 -0.27543 0.03862
 C220 C 0.50984 -0.26321 0.07570
 H221 H 0.49532 -0.36497 0.08983
 H222 H 0.46438 -0.24326 -0.00025
 H223 H 0.44664 -0.31812 -0.03026
 H224 H 0.53031 -0.29716 0.11285
 C225 C 0.47967 0.33232 0.06523
 C226 C 0.48801 0.31134 0.02631
 C227 C 0.49184 0.25166 0.03703
 C228 C 0.51070 0.22921 0.00172
 H229 H 0.49294 0.33833 -0.01392
 H230 H 0.48051 0.22583 0.07445
 H231 H 0.47663 0.30490 0.10595
 H232 H 0.52519 0.25492 -0.03359
 C233 C -0.30293 -0.05435 0.55678
 C234 C -0.27880 -0.01271 0.53710
 C235 C -0.22213 -0.02308 0.53336
 C236 C -0.20227 0.01944 0.50436
 H237 H -0.30179 0.03040 0.52110
 H238 H -0.19758 -0.06521 0.55262
 H239 H -0.28067 -0.09762 0.57101
 H240 H -0.22896 0.06029 0.48328
 C241 C 0.38776 0.01606 0.52827
 C242 C 0.36057 -0.01821 0.51842
 C243 C 0.30278 -0.00515 0.51261
 C244 C 0.27635 -0.03419 0.49274
 H245 H 0.38122 -0.05642 0.51404
 H246 H 0.28199 0.02849 0.52400
 H247 H 0.36716 0.05539 0.53042
 H248 H 0.29793 -0.06512 0.47831
 C249 C -0.01732 0.54567 1.30272
 C250 C -0.05585 0.55604 1.26240
 C251 C -0.04298 0.55100 1.21071
 C252 C -0.08049 0.56059 1.16968
 H253 H -0.09676 0.56506 1.26855
 H254 H -0.00192 0.53776 1.20676
 H255 H 0.02341 0.53648 1.29601
 H256 H -0.12127 0.57706 1.17234
 C257 C -0.06654 0.50465 0.60346
 C258 C -0.03002 0.50639 0.63995
 C259 C -0.04176 0.50312 0.69453
 C260 C -0.01110 0.51830 0.72627
 H261 H 0.00806 0.51260 0.62879
 H262 H -0.07720 0.49060 0.70775
 H263 H -0.10547 0.50145 0.61389
 H264 H 0.02199 0.53477 0.71080
   
