data_POSCAR
  _audit_creation_date              2014-09-24
  _audit_creation_method            'ToBaCCo'
  _symmetry_space_group_name_H-M    'P1'
  _symmetry_Int_Tables_number       1
  _symmetry_cell_setting            triclinic
  loop_
  _symmetry_equiv_pos_as_xyz
 x,y,z
_cell_length_a 47.7824
_cell_length_b 36.0688
_cell_length_c 33.3113
_cell_angle_alpha 89.962500
_cell_angle_beta 90.018500
_cell_angle_gamma 89.881300
loop_
  _atom_site_label
  _atom_site_type_symbol
  _atom_site_fract_x
  _atom_site_fract_y
  _atom_site_fract_z
C1 C 0.24848 0.26943 0.25519
 C2 C 0.24832 0.23186 0.25111
 C3 C 0.22731 0.21288 0.22554
 C4 C 0.26920 0.20795 0.27177
 C5 C 0.27111 0.28885 0.27715
 C6 C 0.22601 0.29288 0.23780
 C7 C 0.21026 0.18537 0.24196
 C8 C 0.19021 0.16752 0.21841
 C9 C 0.18663 0.17632 0.17712
 C10 C 0.20459 0.20398 0.16107
 C11 C 0.22454 0.22176 0.18487
 C12 C 0.27306 0.21010 0.31348
 C13 C 0.29329 0.18819 0.33240
 C14 C 0.30977 0.16333 0.31003
 C15 C 0.30533 0.16056 0.26841
 C16 C 0.28519 0.18262 0.24950
 C17 C 0.29916 0.28515 0.26526
 C18 C 0.32039 0.30276 0.28689
 C19 C 0.31389 0.32426 0.32082
 C20 C 0.28574 0.32838 0.33223
 C21 C 0.26453 0.31106 0.31038
 C22 C 0.23274 0.32028 0.20956
 C23 C 0.21164 0.34158 0.19184
 C24 C 0.18349 0.33623 0.20257
 C25 C 0.17688 0.30943 0.23170
 C26 C 0.19798 0.28787 0.24912
 H27 H 0.21203 0.17827 0.27347
 H28 H 0.17681 0.14826 0.23400
 H29 H 0.20466 0.21123 0.12964
 H30 H 0.23813 0.24227 0.17136
 H31 H 0.26045 0.22880 0.33137
 H32 H 0.29587 0.19042 0.36460
 H33 H 0.28242 0.18043 0.21731
 H34 H 0.30458 0.26842 0.23940
 H35 H 0.34192 0.29902 0.27756
 H36 H 0.28014 0.34521 0.35792
 H37 H 0.24298 0.31438 0.31981
 H38 H 0.25429 0.32464 0.20068
 H39 H 0.21731 0.36235 0.16983
 H40 H 0.15535 0.30463 0.24033
 H41 H 0.19247 0.26709 0.27121
 H42 H 0.31784 0.14190 0.25034
 C43 C 0.74969 0.22796 0.24397
 C44 C 0.74964 0.26574 0.24506
 C45 C 0.77113 0.28795 0.22355
 C46 C 0.72831 0.28695 0.26806
 C47 C 0.72691 0.20557 0.26233
 C48 C 0.77290 0.20704 0.22484
 C49 C 0.78634 0.31499 0.24446
 C50 C 0.80636 0.33639 0.22469
 C51 C 0.81154 0.33130 0.18352
 C52 C 0.79620 0.30433 0.16253
 C53 C 0.77601 0.28306 0.18230
 C54 C 0.72395 0.28032 0.30913
 C55 C 0.70385 0.30062 0.33033
 C56 C 0.68797 0.32820 0.31093
 C57 C 0.69267 0.33501 0.26991
 C58 C 0.71270 0.31469 0.24877
 C59 C 0.69864 0.21265 0.25346
 C60 C 0.67751 0.19192 0.27182
 C61 C 0.68430 0.16318 0.29862
 C62 C 0.71259 0.15548 0.30658
 C63 C 0.73367 0.17649 0.28864
 C64 C 0.76715 0.18220 0.19357
 C65 C 0.78886 0.16281 0.17489
 C66 C 0.81669 0.16754 0.18756
 C67 C 0.82233 0.19188 0.21948
 C68 C 0.80061 0.21147 0.23797
 H69 H 0.78285 0.31928 0.27625
 H70 H 0.81806 0.35667 0.24175
 H71 H 0.79944 0.30019 0.13067
 H72 H 0.76405 0.26295 0.16537
 H73 H 0.73621 0.25956 0.32478
 H74 H 0.70104 0.29515 0.36203
 H75 H 0.71582 0.32028 0.21713
 H76 H 0.69293 0.23428 0.23242
 H77 H 0.65587 0.19804 0.26471
 H78 H 0.71840 0.13366 0.32735
 H79 H 0.75532 0.17042 0.29578
 H80 H 0.74585 0.17823 0.18329
 H81 H 0.78388 0.14384 0.15075
 H82 H 0.84359 0.19621 0.22970
 H83 H 0.80539 0.23017 0.26245
 H84 H 0.68056 0.35574 0.25400
 C85 C 0.75103 0.76942 0.74933
 C86 C 0.75155 0.73166 0.74839
 C87 C 0.72954 0.70998 0.72768
 C88 C 0.77435 0.71037 0.76802
 C89 C 0.77161 0.79057 0.77353
 C90 C 0.73002 0.79130 0.72643
 C91 C 0.70128 0.71371 0.73848
 C92 C 0.68062 0.69416 0.71768
 C93 C 0.68791 0.67069 0.68567
 C94 C 0.71628 0.66647 0.67549
 C95 C 0.73693 0.68572 0.69655
 C96 C 0.76807 0.68531 0.79891
 C97 C 0.78955 0.66653 0.81893
 C98 C 0.81763 0.67208 0.80795
 C99 C 0.82379 0.69652 0.77629
 C100 C 0.80232 0.71552 0.75651
 C101 C 0.78934 0.81610 0.75487
 C102 C 0.80969 0.83486 0.77704
 C103 C 0.81274 0.82884 0.81884
 C104 C 0.79397 0.80376 0.83735
 C105 C 0.77375 0.78501 0.81500
 C106 C 0.72631 0.78595 0.68501
 C107 C 0.70618 0.80637 0.66400
 C108 C 0.68969 0.83294 0.68391
 C109 C 0.69387 0.83874 0.72521
 C110 C 0.71387 0.81817 0.74622
 H111 H 0.69524 0.73203 0.76275
 H112 H 0.65891 0.69802 0.72601
 H113 H 0.72248 0.64819 0.65129
 H114 H 0.75865 0.68236 0.68798
 H115 H 0.74658 0.68091 0.80803
 H116 H 0.78420 0.64748 0.84286
 H117 H 0.80750 0.73453 0.73247
 H118 H 0.78799 0.82067 0.72278
 H119 H 0.82376 0.85262 0.76051
 H120 H 0.79403 0.79912 0.86939
 H121 H 0.75970 0.76603 0.83009
 H122 H 0.73905 0.76602 0.66894
 H123 H 0.70377 0.80177 0.63207
 H124 H 0.68131 0.85876 0.74143
 H125 H 0.71649 0.82282 0.77812
 H126 H 0.84525 0.70148 0.76737
 C127 C 0.25243 0.72967 0.75330
 C128 C 0.25173 0.76728 0.74881
 C129 C 0.27456 0.78718 0.72764
 C130 C 0.22884 0.79058 0.76582
 C131 C 0.23217 0.70976 0.77940
 C132 C 0.27366 0.70662 0.73222
 C133 C 0.30232 0.78448 0.74117
 C134 C 0.32362 0.80385 0.72161
 C135 C 0.31753 0.82624 0.68816
 C136 C 0.28970 0.82895 0.67477
 C137 C 0.26837 0.80981 0.69456
 C138 C 0.23546 0.82259 0.78764
 C139 C 0.21438 0.84440 0.80457
 C140 C 0.18590 0.83458 0.80061
 C141 C 0.17945 0.80268 0.77783
 C142 C 0.20059 0.78142 0.76014
 C143 C 0.21689 0.67990 0.76400
 C144 C 0.19694 0.66188 0.78760
 C145 C 0.19166 0.67325 0.82753
 C146 C 0.20795 0.70267 0.84304
 C147 C 0.22804 0.72038 0.81941
 C148 C 0.27691 0.70886 0.69040
 C149 C 0.29728 0.68762 0.67096
 C150 C 0.31457 0.66339 0.69291
 C151 C 0.31085 0.66063 0.73468
 C152 C 0.29053 0.68198 0.75411
 H153 H 0.30742 0.76751 0.76701
 H154 H 0.34491 0.80109 0.73239
 H155 H 0.28438 0.84637 0.64939
 H156 H 0.24703 0.81245 0.68396
 H157 H 0.25710 0.83033 0.79240
 H158 H 0.22081 0.86783 0.82257
 H159 H 0.19486 0.75766 0.74210
 H160 H 0.21982 0.67120 0.73316
 H161 H 0.18478 0.64035 0.77336
 H162 H 0.20602 0.71158 0.87390
 H163 H 0.24028 0.74263 0.83232
 H164 H 0.26365 0.72706 0.67283
 H165 H 0.29928 0.68983 0.63867
 H166 H 0.32400 0.64247 0.75246
 H167 H 0.28827 0.67975 0.78638
 H168 H 0.15801 0.79463 0.77219
 O169 O 0.97262 -0.00350 -0.05428
 O170 O 1.02763 0.05174 -0.00516
 O171 O 1.02703 0.00103 -0.06071
 O172 O 0.97346 0.04736 0.00091
 O173 O 0.97863 0.00463 0.04776
 O174 O 1.03101 -0.04296 -0.01496
 O175 O 1.03281 0.00795 0.04052
 O176 O 0.97701 -0.04641 -0.00746
 Cu177 Cu 0.99973 0.02846 -0.03450
 Cu178 Cu 1.00536 -0.02352 0.02112
 C179 C 0.96529 -0.03433 -0.03911
 C180 C 1.03967 0.03925 0.02607
 C181 C 1.03809 -0.02898 -0.04846
 C182 C 0.96696 0.03403 0.03495
 O183 O 0.53100 0.44969 0.49790
 O184 O 0.47628 0.49641 0.55722
 O185 O 0.47651 0.44574 0.50175
 O186 O 0.53056 0.50072 0.55335
 O187 O 0.52709 0.54381 0.50657
 O188 O 0.47317 0.48887 0.45499
 O189 O 0.47267 0.53961 0.51059
 O190 O 0.52743 0.49301 0.45140
 Cu191 Cu 0.50396 0.46878 0.53220
 Cu192 Cu 0.49972 0.52067 0.47625
 C193 C 0.53862 0.46341 0.46451
 C194 C 0.46507 0.52598 0.54404
 C195 C 0.46556 0.45794 0.46957
 C196 C 0.53810 0.53167 0.53872
 O197 O 0.03061 0.51274 -0.03771
 O198 O -0.02616 0.46186 0.01342
 O199 O -0.02361 0.51090 -0.04405
 O200 O 0.02837 0.46273 0.01844
 O201 O 0.02524 0.50683 0.06409
 O202 O -0.02679 0.55540 0.00112
 O203 O -0.02897 0.50653 0.05844
 O204 O 0.02765 0.55690 0.00789
 Cu205 Cu 0.00258 0.48258 -0.01699
 Cu206 Cu -0.00101 0.53590 0.03737
 C207 C 0.03889 0.54353 -0.02348
 C208 C -0.03727 0.47561 0.04476
 C209 C -0.03411 0.54136 -0.03227
 C210 C 0.03576 0.47646 0.05189
 O211 O 0.47383 0.94793 0.50200
 O212 O 0.52679 0.99517 0.44043
 O213 O 0.52839 0.94931 0.50066
 O214 O 0.47225 0.99446 0.44230
 O215 O 0.47198 1.04101 0.48522
 O216 O 0.52860 0.99661 0.54259
 O217 O 0.52641 1.04254 0.48230
 O218 O 0.47425 0.99449 0.54491
 Cu219 Cu 0.50030 0.96701 0.46709
 Cu220 Cu 0.50031 1.02338 0.51798
 C221 C 0.46503 0.96303 0.53405
 C222 C 0.53565 1.02694 0.45076
 C223 C 0.53816 0.96535 0.53159
 C224 C 0.46243 1.02543 0.45392
 C225 C 1.12526 0.12308 0.10736
 C226 C 1.13718 0.15624 0.09373
 C227 C 1.15756 0.17393 0.11677
 C228 C 1.16675 0.15898 0.15392
 C229 C 1.15420 0.12508 0.16575
 N230 N 1.13441 0.10858 0.14264
 C231 C 1.10333 0.10268 0.08479
 N232 N 1.09677 0.06769 0.09693
 C233 C 1.07675 0.04699 0.07866
 C234 C 1.06177 0.06136 0.04591
 C235 C 1.06805 0.09737 0.03282
 C236 C 1.08865 0.11815 0.05218
 H237 H 1.16479 0.20031 0.10557
 H238 H 1.16068 0.11019 0.19226
 H239 H 1.07260 0.01937 0.08984
 H240 H 1.05685 0.10967 0.00787
 H241 H 1.13112 0.16880 0.06560
 H242 H 1.09242 0.14606 0.04181
 C243 C 0.62434 0.61431 0.61920
 C244 C 0.64622 0.63205 0.59865
 C245 C 0.66698 0.65034 0.62036
 C246 C 0.66600 0.65116 0.66243
 C247 C 0.64385 0.63301 0.68185
 N248 N 0.62398 0.61506 0.66007
 C249 C 0.60210 0.59396 0.59764
 N250 N 0.58967 0.56451 0.61591
 C251 C 0.56926 0.54431 0.59780
 C252 C 0.56002 0.55365 0.55907
 C253 C 0.57220 0.58434 0.53999
 C254 C 0.59323 0.60448 0.55909
 H255 H 0.68369 0.66412 0.60427
 H256 H 0.64256 0.63264 0.71428
 H257 H 0.56027 0.52106 0.61375
 H258 H 0.56559 0.59266 0.51021
 H259 H 0.64764 0.63129 0.56625
 H260 H 0.60206 0.62832 0.54400
 C261 C -0.12598 0.39700 0.12512
 C262 C -0.14476 0.41380 0.15206
 C263 C -0.16518 0.39239 0.17086
 C264 C -0.16727 0.35437 0.16269
 C265 C -0.14868 0.33881 0.13472
 N266 N -0.12876 0.36018 0.11701
 C267 C -0.10334 0.41816 0.10511
 N268 N -0.09178 0.40448 0.07078
 C269 C -0.07076 0.42215 0.05098
 C270 C -0.06006 0.45571 0.06574
 C271 C -0.07145 0.47007 0.10131
 C272 C -0.09290 0.45141 0.12111
 H273 H -0.17956 0.40569 0.19147
 H274 H -0.14956 0.30957 0.12761
 H275 H -0.06250 0.40997 0.02376
 H276 H -0.06366 0.49565 0.11409
 H277 H -0.14413 0.44318 0.15834
 H278 H -0.10065 0.46275 0.14901
 C279 C 0.38192 0.88654 0.62751
 C280 C 0.38141 0.88591 0.66968
 C281 C 0.36051 0.86607 0.68949
 C282 C 0.34007 0.84698 0.66749
 C283 C 0.34145 0.84805 0.62543
 N284 N 0.36212 0.86733 0.60679
 C285 C 0.40367 0.90680 0.60483
 N286 N 0.41055 0.89484 0.56735
 C287 C 0.43011 0.91214 0.54445
 C288 C 0.44386 0.94382 0.55885
 C289 C 0.43685 0.95693 0.59722
 C290 C 0.41684 0.93851 0.62030
 H291 H 0.36013 0.86598 0.72200
 H292 H 0.32633 0.83323 0.60738
 H293 H 0.43471 0.90124 0.51491
 H294 H 0.44682 0.98140 0.60941
 H295 H 0.39717 0.90000 0.68726
 H296 H 0.41142 0.94952 0.64949
 C297 C -0.11706 0.61569 -0.12858
 C298 C -0.11594 0.61802 -0.17066
 C299 C -0.13718 0.63650 -0.19139
 C300 C -0.15956 0.65258 -0.17040
 C301 C -0.15975 0.64997 -0.12835
 N302 N -0.13873 0.63203 -0.10879
 C303 C -0.09517 0.59638 -0.10506
 N304 N -0.09016 0.60732 -0.06661
 C305 C -0.07065 0.59053 -0.04300
 C306 C -0.05505 0.56044 -0.05771
 C307 C -0.06009 0.54848 -0.09714
 C308 C -0.08003 0.56635 -0.12088
 H309 H -0.13628 0.63790 -0.22384
 H310 H -0.17640 0.66255 -0.11102
 H311 H -0.06759 0.60048 -0.01267
 H312 H -0.04865 0.52525 -0.10965
 H313 H -0.09871 0.60624 -0.18745
 H314 H -0.08392 0.55612 -0.15088
 C315 C 0.37389 1.09910 0.36732
 C316 C 0.35685 1.08252 0.33798
 C317 C 0.33594 1.10343 0.31931
 C318 C 0.33172 1.14066 0.32992
 C319 C 0.34891 1.15602 0.35971
 N320 N 0.36921 1.13519 0.37732
 C321 C 0.39650 1.07871 0.38849
 N322 N 0.40692 1.09341 0.42303
 C323 C 0.42781 1.07697 0.44427
 C324 C 0.43967 1.04355 0.43094
 C325 C 0.42947 1.02794 0.39526
 C326 C 0.40802 1.04542 0.37389
 H327 H 0.32278 1.09030 0.29702
 H328 H 0.34655 1.18471 0.36858
 H329 H 0.43506 1.09009 0.47156
 H330 H 0.43818 1.00235 0.38368
 H331 H 0.35908 1.05368 0.32982
 H332 H 0.40111 1.03313 0.34604
 C333 C 1.12269 -0.10341 -0.14100
 C334 C 1.14728 -0.08568 -0.15331
 C335 C 1.16811 -0.10602 -0.17270
 C336 C 1.16456 -0.14416 -0.18059
 C337 C 1.13917 -0.16052 -0.16815
 N338 N 1.11949 -0.14019 -0.14851
 C339 C 1.10073 -0.08349 -0.11843
 N340 N 1.08622 -0.10194 -0.08952
 C341 C 1.06618 -0.08516 -0.06694
 C342 C 1.05949 -0.04769 -0.07327
 C343 C 1.07377 -0.02837 -0.10353
 C344 C 1.09449 -0.04608 -0.12601
 H345 H 1.18658 -0.09126 -0.18248
 H346 H 1.13536 -0.18983 -0.17196
 H347 H 1.05544 -0.10115 -0.04419
 H348 H 1.06916 0.00053 -0.10948
 H349 H 1.15071 -0.05655 -0.14727
 H350 H 1.10524 -0.03080 -0.14932
 C351 C 0.62538 0.39009 0.37425
 C352 C 0.64286 0.40822 0.34662
 C353 C 0.66332 0.38809 0.32618
 C354 C 0.66665 0.34997 0.33325
 C355 C 0.64916 0.33305 0.36172
 N356 N 0.62928 0.35322 0.38117
 C357 C 0.60310 0.40993 0.39657
 N358 N 0.59372 0.39538 0.43181
 C359 C 0.57325 0.41182 0.45392
 C360 C 0.56078 0.44494 0.44070
 C361 C 0.56987 0.46017 0.40420
 C362 C 0.59089 0.44278 0.38205
 H363 H 0.67681 0.40247 0.30523
 H364 H 0.65089 0.30369 0.36798
 H365 H 0.56679 0.39897 0.48177
 H366 H 0.56067 0.48549 0.39264
 H367 H 0.64124 0.43770 0.34119
 H368 H 0.59699 0.45473 0.35360
 C369 C 0.87720 -0.11741 -0.11564
 C370 C 0.86534 -0.15017 -0.10066
 C371 C 0.84411 -0.16778 -0.12210
 C372 C 0.83408 -0.15302 -0.15868
 C373 C 0.84641 -0.11964 -0.17205
 N374 N 0.86712 -0.10316 -0.15058
 C375 C 0.90005 -0.09725 -0.09475
 N376 N 0.90668 -0.06250 -0.10761
 C377 C 0.92736 -0.04202 -0.09055
 C378 C 0.94289 -0.05635 -0.05832
 C379 C 0.93662 -0.09218 -0.04467
 C380 C 0.91542 -0.11276 -0.06283
 H381 H 0.83657 -0.19381 -0.11027
 H382 H 0.83918 -0.10557 -0.19874
 H383 H 0.93150 -0.01453 -0.10212
 H384 H 0.94826 -0.10448 -0.02011
 H385 H 0.87205 -0.16246 -0.07270
 H386 H 0.91168 -0.14053 -0.05201
 C387 C 0.37883 0.37685 0.38828
 C388 C 0.35725 0.35822 0.40854
 C389 C 0.33609 0.34104 0.38654
 C390 C 0.33638 0.34220 0.34444
 C391 C 0.35832 0.36106 0.32534
 N392 N 0.37856 0.37791 0.34742
 C393 C 0.40130 0.39655 0.41007
 N394 N 0.41364 0.42633 0.39233
 C395 C 0.43417 0.44616 0.41061
 C396 C 0.44362 0.43613 0.44904
 C397 C 0.43157 0.40508 0.46758
 C398 C 0.41042 0.38528 0.44828
 H399 H 0.31956 0.32666 0.40239
 H400 H 0.35910 0.36297 0.29293
 H401 H 0.44305 0.46971 0.39505
 H402 H 0.43835 0.39623 0.49710
 H403 H 0.35628 0.35755 0.44098
 H404 H 0.40167 0.36117 0.46295
 C405 C 0.12771 0.62206 -0.10384
 C406 C 0.13583 0.65854 -0.09509
 C407 C 0.15712 0.67520 -0.11730
 C408 C 0.17046 0.65609 -0.14895
 C409 C 0.16138 0.61953 -0.15669
 N410 N 0.14075 0.60390 -0.13434
 C411 C 0.10495 0.60277 -0.08185
 N412 N 0.09379 0.57150 -0.09821
 C413 C 0.07287 0.55212 -0.08023
 C414 C 0.06180 0.56406 -0.04341
 C415 C 0.07313 0.59599 -0.02576
 C416 C 0.09472 0.61526 -0.04464
 H417 H 0.16190 0.70383 -0.11063
 H418 H 0.17116 0.60258 -0.17944
 H419 H 0.06485 0.52756 -0.09486
 H420 H 0.06547 0.60597 0.00287
 H421 H 0.12552 0.67478 -0.07221
 H422 H 0.10336 0.63919 -0.02967
 C423 C 0.62041 1.10122 0.35827
 C424 C 0.64337 1.08253 0.34135
 C425 C 0.66410 1.10270 0.32162
 C426 C 0.66201 1.14139 0.31852
 C427 C 0.63869 1.15901 0.33565
 N428 N 0.61890 1.13881 0.35512
 C429 C 0.59841 1.08133 0.38084
 N430 N 0.58461 1.09940 0.41078
 C431 C 0.56450 1.08275 0.43330
 C432 C 0.55707 1.04573 0.42599
 C433 C 0.57063 1.02681 0.39472
 C434 C 0.59128 1.04445 0.37215
 H435 H 0.68176 1.08808 0.30874
 H436 H 0.63652 1.18887 0.33436
 H437 H 0.55439 1.09848 0.45686
 H438 H 0.56543 0.99830 0.38785
 H439 H 0.64574 1.05280 0.34411
 H440 H 0.60122 1.02944 0.34790
 C441 C 0.11908 0.39872 0.14420
 C442 C 0.11820 0.39417 0.18607
 C443 C 0.13918 0.37374 0.20522
 C444 C 0.16109 0.35810 0.18284
 C445 C 0.16114 0.36323 0.14110
 N446 N 0.14035 0.38288 0.12309
 C447 C 0.09715 0.41921 0.12199
 N448 N 0.09210 0.40991 0.08308
 C449 C 0.07254 0.42755 0.06041
 C450 C 0.05687 0.45691 0.07659
 C451 C 0.06194 0.46732 0.11653
 C452 C 0.08198 0.44850 0.13936
 H453 H 0.13842 0.37037 0.23751
 H454 H 0.17744 0.35112 0.12271
 H455 H 0.06949 0.41879 0.02965
 H456 H 0.05042 0.48994 0.13012
 H457 H 0.10127 0.40553 0.20381
 H458 H 0.08588 0.45736 0.16987
 C459 C 0.62651 0.89428 0.62108
 C460 C 0.64384 0.91249 0.64889
 C461 C 0.66446 0.89252 0.66924
 C462 C 0.66817 0.85455 0.66181
 C463 C 0.65087 0.83756 0.63319
 N464 N 0.63078 0.85753 0.61392
 C465 C 0.60394 0.91376 0.59885
 N466 N 0.59365 0.89803 0.56475
 C467 C 0.57278 0.91386 0.54285
 C468 C 0.56085 0.94762 0.55506
 C469 C 0.57092 0.96416 0.59031
 C470 C 0.59229 0.94734 0.61233
 H471 H 0.67778 0.90689 0.69041
 H472 H 0.65293 0.80829 0.62667
 H473 H 0.56559 0.90003 0.51594
 H474 H 0.56215 0.99001 0.60111
 H475 H 0.64199 0.94188 0.65461
 H476 H 0.59904 0.96034 0.63989
 C477 C 0.88259 0.10880 0.12808
 C478 C 0.88274 0.11141 0.17017
 C479 C 0.86131 0.13067 0.18964
 C480 C 0.83972 0.14724 0.16736
 C481 C 0.84048 0.14425 0.12538
 N482 N 0.86164 0.12557 0.10709
 C483 C 0.90481 0.08913 0.10562
 N484 N 0.90998 0.09931 0.06697
 C485 C 0.92975 0.08237 0.04409
 C486 C 0.94557 0.05290 0.05977
 C487 C 0.94042 0.04164 0.09942
 C488 C 0.92011 0.05966 0.12243
 H489 H 0.86146 0.13230 0.22209
 H490 H 0.82447 0.15716 0.10707
 H491 H 0.93288 0.09181 0.01357
 H492 H 0.95202 0.01888 0.11264
 H493 H 0.89937 0.09933 0.18794
 H494 H 0.91614 0.04999 0.15264
 C495 C 0.37835 0.60026 0.63352
 C496 C 0.36228 0.58361 0.66392
 C497 C 0.34152 0.60417 0.68329
 C498 C 0.33648 0.64117 0.67237
 C499 C 0.35272 0.65661 0.64151
 N500 N 0.37290 0.63610 0.62319
 C501 C 0.40067 0.58005 0.61163
 N502 N 0.40931 0.59345 0.57548
 C503 C 0.42973 0.57680 0.55351
 C504 C 0.44294 0.54458 0.56777
 C505 C 0.43461 0.53046 0.60516
 C506 C 0.41363 0.54810 0.62721
 H507 H 0.32907 0.59092 0.70634
 H508 H 0.34971 0.68513 0.63233
 H509 H 0.43556 0.58878 0.52492
 H510 H 0.44441 0.50586 0.61751
 H511 H 0.36513 0.55490 0.67230
 H512 H 0.40817 0.53701 0.65631
   
