data_POSCAR
  _audit_creation_date              2014-09-24
  _audit_creation_method            'ToBaCCo'
  _symmetry_space_group_name_H-M    'P1'
  _symmetry_Int_Tables_number       1
  _symmetry_cell_setting            triclinic
  loop_
  _symmetry_equiv_pos_as_xyz
 x,y,z
_cell_length_a 35.7913
_cell_length_b 26.9712
_cell_length_c 25.1708
_cell_angle_alpha 90.342000
_cell_angle_beta 90.052000
_cell_angle_gamma 90.456500
loop_
  _atom_site_label
  _atom_site_type_symbol
  _atom_site_fract_x
  _atom_site_fract_y
  _atom_site_fract_z
C1 C 0.24215 0.27656 0.25619
 C2 C 0.24298 0.22609 0.25766
 C3 C 0.21344 0.19470 0.23265
 C4 C 0.27369 0.19951 0.28452
 C5 C 0.26948 0.30716 0.28670
 C6 C 0.21352 0.30331 0.22495
 C7 C 0.17556 0.20215 0.24396
 C8 C 0.14809 0.17289 0.21944
 C9 C 0.15776 0.13383 0.18432
 C10 C 0.19614 0.12682 0.17355
 C11 C 0.22346 0.15655 0.19764
 C12 C 0.26557 0.16829 0.32736
 C13 C 0.29408 0.14229 0.35238
 C14 C 0.33100 0.14582 0.33383
 C15 C 0.33924 0.17769 0.29144
 C16 C 0.31074 0.20436 0.26688
 C17 C 0.29126 0.34301 0.26062
 C18 C 0.31793 0.37074 0.28876
 C19 C 0.32288 0.36331 0.34344
 C20 C 0.30072 0.32810 0.36972
 C21 C 0.27394 0.30058 0.34167
 C22 C 0.20817 0.29308 0.17065
 C23 C 0.17934 0.31588 0.14268
 C24 C 0.15560 0.34939 0.16855
 C25 C 0.16193 0.36121 0.22217
 C26 C 0.19070 0.33836 0.25017
 H27 H 0.16720 0.23063 0.27192
 H28 H 0.11928 0.17956 0.23027
 H29 H 0.20526 0.10013 0.14409
 H30 H 0.25255 0.15054 0.18785
 H31 H 0.23715 0.16441 0.34160
 H32 H 0.28731 0.11876 0.38580
 H33 H 0.31741 0.22823 0.23371
 H34 H 0.28809 0.34877 0.21831
 H35 H 0.33500 0.39765 0.26791
 H36 H 0.30418 0.32203 0.41193
 H37 H 0.25685 0.27387 0.36274
 H38 H 0.22597 0.26687 0.15022
 H39 H 0.17527 0.30712 0.10101
 H40 H 0.14413 0.38748 0.24253
 H41 H 0.19455 0.34699 0.29191
 H42 H 0.36760 0.18127 0.27689
 C43 C 0.74466 0.22714 0.24157
 C44 C 0.74203 0.27752 0.23880
 C45 C 0.76857 0.30796 0.20693
 C46 C 0.71251 0.30450 0.26840
 C47 C 0.71563 0.19685 0.26865
 C48 C 0.77646 0.19965 0.21796
 C49 C 0.78618 0.34944 0.23019
 C50 C 0.81233 0.37718 0.20155
 C51 C 0.82123 0.36409 0.14902
 C52 C 0.80330 0.32297 0.12549
 C53 C 0.77667 0.29574 0.15382
 C54 C 0.70831 0.29829 0.32347
 C55 C 0.67924 0.32163 0.35050
 C56 C 0.65423 0.35192 0.32297
 C57 C 0.65927 0.35980 0.26841
 C58 C 0.68824 0.33620 0.24127
 C59 C 0.67804 0.19882 0.25272
 C60 C 0.65093 0.17061 0.27900
 C61 C 0.66108 0.13960 0.32112
 C62 C 0.69863 0.13783 0.33713
 C63 C 0.72575 0.16580 0.31069
 C64 C 0.76939 0.15943 0.18365
 C65 C 0.79891 0.13373 0.16036
 C66 C 0.83599 0.14752 0.17138
 C67 C 0.84316 0.18754 0.20594
 C68 C 0.81363 0.21297 0.22967
 H69 H 0.78026 0.35973 0.27096
 H70 H 0.82594 0.40863 0.22053
 H71 H 0.81015 0.31176 0.08530
 H72 H 0.76288 0.26458 0.13461
 H73 H 0.72731 0.27492 0.34534
 H74 H 0.67603 0.31589 0.39281
 H75 H 0.69127 0.34179 0.19891
 H76 H 0.66977 0.22226 0.22003
 H77 H 0.62205 0.17275 0.26638
 H78 H 0.70688 0.11484 0.37020
 H79 H 0.75458 0.16394 0.32360
 H80 H 0.74096 0.14843 0.17427
 H81 H 0.79287 0.10310 0.13359
 H82 H 0.87162 0.19903 0.21444
 H83 H 0.81972 0.24331 0.25676
 H84 H 0.64039 0.38353 0.24678
 C85 C 0.75167 0.77925 0.74040
 C86 C 0.75345 0.72878 0.74037
 C87 C 0.72630 0.69794 0.70977
 C88 C 0.78275 0.70224 0.77052
 C89 C 0.78072 0.81064 0.76637
 C90 C 0.72031 0.80538 0.71456
 C91 C 0.70542 0.66101 0.73558
 C92 C 0.67874 0.63317 0.70756
 C93 C 0.67289 0.64157 0.65324
 C94 C 0.69414 0.67792 0.62720
 C95 C 0.72095 0.70553 0.65511
 C96 C 0.78767 0.71057 0.82525
 C97 C 0.81685 0.68775 0.85247
 C98 C 0.84146 0.65622 0.82537
 C99 C 0.83567 0.64642 0.77116
 C100 C 0.80649 0.66922 0.74394
 C101 C 0.81866 0.80497 0.75398
 C102 C 0.84585 0.83290 0.78073
 C103 C 0.83567 0.86844 0.81930
 C104 C 0.79742 0.87417 0.83104
 C105 C 0.77031 0.84591 0.80454
 C106 C 0.72735 0.83697 0.67162
 C107 C 0.69776 0.85923 0.64481
 C108 C 0.66075 0.85064 0.66098
 C109 C 0.65389 0.82096 0.70566
 C110 C 0.68345 0.79809 0.73196
 H111 H 0.70923 0.65450 0.77765
 H112 H 0.66234 0.60546 0.72827
 H113 H 0.68994 0.68483 0.58528
 H114 H 0.73732 0.73314 0.63422
 H115 H 0.76918 0.73520 0.84666
 H116 H 0.82045 0.69487 0.89456
 H117 H 0.80297 0.66208 0.70184
 H118 H 0.82724 0.77851 0.72393
 H119 H 0.87489 0.82745 0.77027
 H120 H 0.78845 0.89909 0.86233
 H121 H 0.74118 0.85049 0.81502
 H122 H 0.75569 0.84321 0.65798
 H123 H 0.70366 0.88254 0.61089
 H124 H 0.62561 0.81495 0.71960
 H125 H 0.67764 0.77441 0.76561
 H126 H 0.85410 0.62167 0.74981
 C127 C 0.25132 0.72587 0.75719
 C128 C 0.24867 0.77621 0.75408
 C129 C 0.27726 0.80626 0.72603
 C130 C 0.21760 0.80371 0.77932
 C131 C 0.22515 0.69572 0.79003
 C132 C 0.28085 0.69872 0.72773
 C133 C 0.31491 0.80502 0.74168
 C134 C 0.34184 0.83203 0.71371
 C135 C 0.33144 0.86100 0.67006
 C136 C 0.29377 0.86215 0.65447
 C137 C 0.26681 0.83549 0.68269
 C138 C 0.22553 0.84072 0.81705
 C139 C 0.19665 0.86367 0.84487
 C140 C 0.15906 0.84988 0.83578
 C141 C 0.15132 0.81520 0.79496
 C142 C 0.18027 0.79216 0.76730
 C143 C 0.20758 0.65377 0.76787
 C144 C 0.18226 0.62578 0.79769
 C145 C 0.17396 0.63901 0.85060
 C146 C 0.19156 0.68131 0.87256
 C147 C 0.21758 0.70849 0.84312
 C148 C 0.28507 0.70451 0.67260
 C149 C 0.31444 0.68149 0.64589
 C150 C 0.33967 0.65182 0.67378
 C151 C 0.33459 0.64425 0.72837
 C152 C 0.30537 0.66761 0.75521
 H153 H 0.32340 0.78285 0.77526
 H154 H 0.37080 0.83039 0.72605
 H155 H 0.28533 0.88355 0.62028
 H156 H 0.23791 0.83663 0.66999
 H157 H 0.25422 0.85046 0.82647
 H158 H 0.20398 0.89040 0.87549
 H159 H 0.17362 0.76475 0.73705
 H160 H 0.21289 0.64325 0.72698
 H161 H 0.16816 0.59471 0.77869
 H162 H 0.18611 0.69250 0.91321
 H163 H 0.23161 0.73977 0.86173
 H164 H 0.26591 0.72742 0.65046
 H165 H 0.31769 0.68698 0.60354
 H166 H 0.35365 0.62099 0.75027
 H167 H 0.30238 0.66236 0.79763
 H168 H 0.12279 0.80604 0.78412
 O169 O 1.03812 0.05626 0.01696
 O170 O 0.96256 0.00272 -0.06446
 O171 O 0.96608 0.06376 0.01578
 O172 O 1.03490 -0.00623 -0.06286
 O173 O 1.03000 -0.06871 -0.00703
 O174 O 0.96125 0.00081 0.07107
 O175 O 0.95780 -0.06040 -0.00930
 O176 O 1.03345 -0.00667 0.07242
 Cu177 Cu 1.00098 0.03537 -0.02935
 Cu178 Cu 0.99514 -0.04008 0.03735
 C179 C 1.04856 0.03403 0.05865
 C180 C 0.94712 -0.03771 -0.05062
 C181 C 0.95231 0.04434 0.05732
 C182 C 1.04383 -0.04971 -0.04867
 O183 O 0.52938 0.43631 0.48663
 O184 O 0.46556 0.50862 0.57070
 O185 O 0.45713 0.44338 0.49520
 O186 O 0.53792 0.50162 0.56195
 O187 O 0.53802 0.56163 0.50268
 O188 O 0.45727 0.50338 0.43592
 O189 O 0.46571 0.56856 0.51138
 O190 O 0.52954 0.49620 0.42727
 Cu191 Cu 0.49749 0.46648 0.53462
 Cu192 Cu 0.49766 0.53848 0.46335
 C193 C 0.54021 0.45378 0.44247
 C194 C 0.45480 0.55099 0.55546
 C195 C 0.44315 0.46379 0.45450
 C196 C 0.55203 0.54121 0.54334
 O197 O 0.03797 0.50192 -0.06497
 O198 O -0.04355 0.44340 -0.00115
 O199 O -0.03415 0.51015 -0.07420
 O200 O 0.02892 0.43464 0.00722
 O201 O 0.03004 0.49334 0.06871
 O202 O -0.03392 0.56815 -0.01205
 O203 O -0.04213 0.50099 0.06168
 O204 O 0.03870 0.56024 -0.00318
 Cu205 Cu -0.00285 0.46667 -0.03948
 Cu206 Cu -0.00194 0.53666 0.03490
 C207 C 0.05279 0.54042 -0.04438
 C208 C -0.05663 0.46227 0.04118
 C209 C -0.04470 0.55216 -0.05715
 C210 C 0.04044 0.45124 0.05169
 O211 O 0.46227 1.06086 0.48483
 O212 O 0.53308 0.99320 0.56172
 O213 O 0.53569 1.05734 0.48405
 O214 O 0.46087 0.99865 0.56201
 O215 O 0.45793 0.93687 0.50417
 O216 O 0.53286 0.99578 0.42608
 O217 O 0.53039 0.93188 0.50344
 O218 O 0.46004 0.99921 0.42688
 Cu219 Cu 0.49854 1.03393 0.52876
 Cu220 Cu 0.49527 0.95986 0.45918
 C221 C 0.44808 1.04056 0.44375
 C222 C 0.54316 0.95041 0.54626
 C223 C 0.54738 1.03630 0.44205
 C224 C 0.44614 0.95831 0.54592
 C225 C 1.07236 0.10599 0.10874
 C226 C 1.09803 0.12993 0.14164
 C227 C 1.13087 0.10616 0.15895
 C228 C 1.13516 0.05469 0.14570
 C229 C 1.10920 0.03087 0.11091
 C230 C 1.07767 0.05698 0.09248
 C231 C 1.11569 -0.01867 0.09584
 N232 N 1.14414 -0.04407 0.11809
 N233 N 1.16639 -0.02334 0.15443
 C234 C 1.16256 0.02467 0.16954
 H235 H 1.04804 0.12622 0.09549
 H236 H 1.09314 0.16880 0.14985
 H237 H 1.09838 -0.03762 0.06683
 H238 H 1.18043 0.03842 0.20104
 C239 C 0.58393 0.61597 0.57815
 C240 C 0.61293 0.64012 0.60482
 C241 C 0.64357 0.61371 0.62398
 C242 C 0.64559 0.56195 0.61460
 C243 C 0.61614 0.53725 0.58705
 C244 C 0.58464 0.56457 0.56979
 C245 C 0.62001 0.48626 0.57617
 N246 N 0.65079 0.46187 0.59295
 N247 N 0.67813 0.48497 0.61936
 C248 C 0.67668 0.53414 0.63055
 H249 H 0.56031 0.63754 0.56488
 H250 H 0.61119 0.67972 0.61141
 H251 H 0.59942 0.46561 0.55360
 H252 H 0.70008 0.55107 0.65114
 C253 C -0.08425 0.41914 0.11784
 C254 C -0.11373 0.39558 0.14377
 C255 C -0.14914 0.39168 0.12005
 C256 C -0.15501 0.41325 0.06943
 C257 C -0.12470 0.43631 0.04260
 C258 C -0.08909 0.43884 0.06707
 C259 C -0.13136 0.45746 -0.00741
 N260 N -0.16616 0.45596 -0.02870
 N261 N -0.19474 0.43506 -0.00321
 C262 C -0.19044 0.41393 0.04515
 H263 H -0.05718 0.42112 0.13711
 H264 H -0.10870 0.37952 0.18245
 H265 H -0.10936 0.47565 -0.02942
 H266 H -0.21489 0.39866 0.06438
 C267 C 0.41620 0.88441 0.58520
 C268 C 0.38907 0.86119 0.61607
 C269 C 0.36018 0.88841 0.63942
 C270 C 0.35866 0.94037 0.63140
 C271 C 0.38567 0.96388 0.59862
 C272 C 0.41526 0.93565 0.57654
 C273 C 0.38150 1.01482 0.58824
 N274 N 0.35368 1.04065 0.61187
 N275 N 0.32959 1.01906 0.64487
 C276 C 0.33118 0.96993 0.65556
 H277 H 0.43844 0.86220 0.56852
 H278 H 0.39047 0.82146 0.62154
 H279 H 0.39956 1.03438 0.56102
 H280 H 0.31104 0.95463 0.68303
 C281 C -0.09972 0.55543 -0.11609
 C282 C -0.12741 0.58033 -0.14374
 C283 C -0.12744 0.63213 -0.14605
 C284 C -0.09791 0.65937 -0.12175
 C285 C -0.06950 0.63396 -0.09353
 C286 C -0.07119 0.58143 -0.08940
 C287 C -0.03968 0.66213 -0.07225
 N288 N -0.03903 0.71210 -0.07785
 N289 N -0.06586 0.73587 -0.10375
 C290 C -0.09513 0.71126 -0.12609
 H291 H -0.10119 0.51535 -0.11454
 H292 H -0.14948 0.55895 -0.16274
 H293 H -0.01636 0.64512 -0.05242
 H294 H -0.11554 0.73248 -0.14776
 C295 C 0.41923 1.11680 0.40888
 C296 C 0.39149 1.14205 0.38147
 C297 C 0.36094 1.11656 0.35929
 C298 C 0.35862 1.06426 0.36433
 C299 C 0.38602 1.03872 0.39415
 C300 C 0.41719 1.06527 0.41537
 C301 C 0.38054 0.98756 0.40271
 N302 N 0.35139 0.96343 0.37949
 N303 N 0.32711 0.98690 0.34869
 C304 C 0.32977 1.03636 0.34019
 H305 H 0.44262 1.13775 0.42501
 H306 H 0.39365 1.18201 0.37812
 H307 H 0.39853 0.96641 0.42826
 H308 H 0.30940 1.05322 0.31441
 C309 C 1.10312 -0.05218 -0.09817
 C310 C 1.13170 -0.07669 -0.12457
 C311 C 1.12996 -0.12811 -0.13429
 C312 C 1.09849 -0.15528 -0.11461
 C313 C 1.06863 -0.12971 -0.08951
 C314 C 1.07157 -0.07785 -0.08009
 C315 C 1.03669 -0.15719 -0.07471
 N316 N 1.03626 -0.20721 -0.07994
 N317 N 1.06554 -0.23164 -0.09893
 C318 C 1.09668 -0.20758 -0.11579
 H319 H 1.10595 -0.01263 -0.09126
 H320 H 1.15486 -0.05452 -0.13913
 H321 H 1.01194 -0.13961 -0.05934
 H322 H 1.11994 -0.22981 -0.12877
 C323 C 0.59625 0.45191 0.38565
 C324 C 0.62392 0.42748 0.35715
 C325 C 0.62307 0.37588 0.35146
 C326 C 0.59285 0.34842 0.37309
 C327 C 0.56435 0.37332 0.40172
 C328 C 0.56677 0.42552 0.40924
 C329 C 0.53385 0.34507 0.42032
 N330 N 0.53272 0.29536 0.41194
 N331 N 0.55975 0.27198 0.38582
 C332 C 0.58967 0.29676 0.36594
 H333 H 0.59850 0.49176 0.39058
 H334 H 0.64672 0.44893 0.34039
 H335 H 0.51045 0.36186 0.44034
 H336 H 0.61036 0.27592 0.34413
 C337 C 0.92038 -0.10920 -0.09888
 C338 C 0.89427 -0.13147 -0.13244
 C339 C 0.86336 -0.10507 -0.15172
 C340 C 0.86040 -0.05370 -0.13845
 C341 C 0.88676 -0.03138 -0.10323
 C342 C 0.91714 -0.05945 -0.08389
 C343 C 0.88162 0.01850 -0.08832
 N344 N 0.85378 0.04516 -0.11046
 N345 N 0.83080 0.02538 -0.14650
 C346 C 0.83336 -0.02279 -0.16162
 H347 H 0.94354 -0.13111 -0.08469
 H348 H 0.89749 -0.17057 -0.14120
 H349 H 0.89930 0.03663 -0.05922
 H350 H 0.81471 -0.03600 -0.19244
 C351 C 0.41118 0.38888 0.42010
 C352 C 0.38235 0.36467 0.39310
 C353 C 0.35206 0.39116 0.37296
 C354 C 0.35016 0.44301 0.38174
 C355 C 0.37939 0.46775 0.40972
 C356 C 0.41061 0.44037 0.42789
 C357 C 0.37555 0.51883 0.42007
 N358 N 0.34508 0.54329 0.40231
 N359 N 0.31798 0.52016 0.37542
 C360 C 0.31938 0.47089 0.36473
 H361 H 0.43458 0.36729 0.43407
 H362 H 0.38397 0.32492 0.38706
 H363 H 0.39592 0.53953 0.44300
 H364 H 0.29619 0.45395 0.34369
 C365 C 0.08938 0.61490 -0.06855
 C366 C 0.11917 0.63896 -0.09302
 C367 C 0.14696 0.61220 -0.11997
 C368 C 0.14607 0.55938 -0.11743
 C369 C 0.11586 0.53483 -0.09151
 C370 C 0.08648 0.56310 -0.06882
 C371 C 0.11722 0.48279 -0.08689
 N372 N 0.14645 0.45735 -0.10718
 N373 N 0.17485 0.48028 -0.13091
 C374 C 0.17591 0.53023 -0.13613
 H375 H 0.06770 0.63723 -0.05054
 H376 H 0.11911 0.67912 -0.09359
 H377 H 0.09620 0.46188 -0.06583
 H378 H 0.20074 0.54655 -0.15321
 C379 C 0.57650 1.11170 0.40479
 C380 C 0.60333 1.13649 0.37479
 C381 C 0.63223 1.11056 0.34987
 C382 C 0.63384 1.05827 0.35495
 C383 C 0.60708 1.03303 0.38676
 C384 C 0.57766 1.06010 0.41099
 C385 C 0.61144 0.98166 0.39412
 N386 N 0.63916 0.95717 0.36866
 N387 N 0.66301 0.98048 0.33666
 C388 C 0.66126 1.03007 0.32885
 H389 H 0.55438 1.13308 0.42299
 H390 H 0.60178 1.17645 0.37149
 H391 H 0.59365 0.96063 0.42041
 H392 H 0.68123 1.04685 0.30210
 C393 C 0.09794 0.44890 0.10537
 C394 C 0.12589 0.42450 0.13306
 C395 C 0.12460 0.37303 0.13942
 C396 C 0.09377 0.34569 0.11879
 C397 C 0.06509 0.37061 0.09070
 C398 C 0.06773 0.42267 0.08311
 C399 C 0.03413 0.34258 0.07288
 N400 N 0.03259 0.29305 0.08172
 N401 N 0.05964 0.26968 0.10760
 C402 C 0.09004 0.29427 0.12665
 H403 H 0.10041 0.48866 0.10026
 H404 H 0.14910 0.44592 0.14900
 H405 H 0.01073 0.35945 0.05305
 H406 H 0.11067 0.27344 0.14835
 C407 C 0.60071 0.94944 0.60037
 C408 C 0.62935 0.92543 0.62705
 C409 C 0.62942 0.87371 0.63172
 C410 C 0.59963 0.84561 0.60915
 C411 C 0.56968 0.87022 0.58358
 C412 C 0.57098 0.92261 0.57767
 C413 C 0.53914 0.84130 0.56571
 N414 N 0.53997 0.79123 0.56988
 N415 N 0.56908 0.76806 0.59095
 C416 C 0.59894 0.79344 0.61051
 H417 H 0.60222 0.98940 0.59653
 H418 H 0.65181 0.94749 0.64417
 H419 H 0.51430 0.85773 0.54934
 H420 H 0.62188 0.77249 0.62661
 C421 C 0.89697 0.09807 0.06194
 C422 C 0.86856 0.12206 0.08935
 C423 C 0.86707 0.12117 0.14494
 C424 C 0.89516 0.09586 0.17354
 C425 C 0.92465 0.07231 0.14565
 C426 C 0.92481 0.07230 0.08920
 C427 C 0.95335 0.05040 0.17554
 N428 N 0.95131 0.04975 0.22931
 N429 N 0.92271 0.06972 0.25529
 C430 C 0.89455 0.09260 0.22931
 H431 H 0.89671 0.09879 0.01891
 H432 H 0.84742 0.14148 0.06693
 H433 H 0.97770 0.03448 0.15702
 H434 H 0.87197 0.10780 0.25257
 C435 C 0.39834 0.55237 0.61142
 C436 C 0.37038 0.57655 0.63959
 C437 C 0.37110 0.62812 0.64562
 C438 C 0.40146 0.65579 0.62468
 C439 C 0.43024 0.63114 0.59635
 C440 C 0.42797 0.57898 0.58849
 C441 C 0.46084 0.65957 0.57841
 N442 N 0.46184 0.70923 0.58716
 N443 N 0.43457 0.73237 0.61302
 C444 C 0.40451 0.70739 0.63222
 H445 H 0.39620 0.51254 0.60619
 H446 H 0.34748 0.55495 0.65583
 H447 H 0.48440 0.64294 0.55859
 H448 H 0.38358 0.72803 0.65379
   
