data_POSCAR
  _audit_creation_date              2014-09-24
  _audit_creation_method            'ToBaCCo'
  _symmetry_space_group_name_H-M    'P1'
  _symmetry_Int_Tables_number       1
  _symmetry_cell_setting            triclinic
  loop_
  _symmetry_equiv_pos_as_xyz
 x,y,z
_cell_length_a 42.9794
_cell_length_b 44.8069
_cell_length_c 43.9406
_cell_angle_alpha 89.771300
_cell_angle_beta 89.924300
_cell_angle_gamma 89.991600
loop_
  _atom_site_label
  _atom_site_type_symbol
  _atom_site_fract_x
  _atom_site_fract_y
  _atom_site_fract_z
C1 C 0.17179 0.17922 0.21416
 C2 C 0.15723 0.20344 0.19929
 C3 C 0.16910 0.21520 0.17204
 C4 C 0.19626 0.20298 0.15954
 C5 C 0.21168 0.17881 0.17356
 C6 C 0.19898 0.16717 0.20083
 H7 H 0.13587 0.21275 0.20814
 H8 H 0.20409 0.21137 0.13772
 H9 H 0.21178 0.15023 0.21308
 C10 C -0.16457 0.82838 0.21150
 C11 C -0.15062 0.80311 0.19795
 C12 C -0.16122 0.79187 0.17001
 C13 C -0.18633 0.80581 0.15542
 C14 C -0.20079 0.83081 0.16828
 C15 C -0.18986 0.84187 0.19616
 H16 H -0.13067 0.79253 0.20836
 H17 H -0.19453 0.79729 0.13383
 H18 H -0.20180 0.86075 0.20598
 C19 C -0.17263 0.17706 -0.21465
 C20 C -0.19835 0.16347 -0.20005
 C21 C -0.21229 0.17624 -0.17426
 C22 C -0.20037 0.20301 -0.16271
 C23 C -0.17486 0.21707 -0.17655
 C24 C -0.16124 0.20409 -0.20241
 H25 H -0.20897 0.14371 -0.20953
 H26 H -0.21046 0.21253 -0.14233
 H27 H -0.14109 0.21490 -0.21225
 C28 C 0.17726 0.82011 -0.21931
 C29 C 0.16453 0.79362 -0.20684
 C30 C 0.17683 0.78055 -0.18033
 C31 C 0.20238 0.79395 -0.16606
 C32 C 0.21563 0.82016 -0.17781
 C33 C 0.20301 0.83302 -0.20428
 H34 H 0.14432 0.78336 -0.21701
 H35 H 0.21145 0.78441 -0.14518
 H36 H 0.21461 0.85231 -0.21383
 C37 C 0.15756 1.16460 0.79981
 C38 C 0.18396 1.15171 0.81373
 C39 C 0.19722 1.16407 0.84001
 C40 C 0.18435 1.19008 0.85239
 C41 C 0.15818 1.20347 0.83909
 C42 C 0.14503 1.19071 0.81294
 H43 H 0.19377 1.13120 0.80509
 H44 H 0.19399 1.19923 0.87313
 H45 H 0.12575 1.20216 0.80224
 C46 C 0.83516 0.83562 0.79496
 C47 C 0.80625 0.84440 0.80711
 C48 C 0.79201 0.82825 0.83064
 C49 C 0.80685 0.80293 0.84256
 C50 C 0.83599 0.79343 0.83136
 C51 C 0.84960 0.80996 0.80730
 H52 H 0.79409 0.86354 0.79789
 H53 H 0.79589 0.79147 0.86144
 H54 H 0.87174 0.80294 0.79825
 C55 C 0.16440 0.82631 1.21116
 C56 C 0.14811 0.80364 1.19558
 C57 C 0.15917 0.79206 1.16794
 C58 C 0.18683 0.80335 1.15548
 C59 C 0.20344 0.82589 1.17029
 C60 C 0.19227 0.83708 1.19802
 H61 H 0.12758 0.79361 1.20554
 H62 H 0.19500 0.79515 1.13373
 H63 H 0.20505 0.85503 1.20862
 C64 C 0.84003 1.16865 1.20417
 C65 C 0.81084 1.15764 1.19465
 C66 C 0.79569 1.16936 1.16892
 C67 C 0.80958 1.19287 1.15271
 C68 C 0.83839 1.20448 1.16175
 C69 C 0.85335 1.19233 1.18735
 H70 H 0.80012 1.13905 1.20638
 H71 H 0.79844 1.20149 1.13239
 H72 H 0.87478 1.20259 1.19483
 O73 O 0.54284 0.94643 0.94789
 O74 O 0.57682 0.97264 0.97778
 C75 C 0.57080 0.95346 0.95660
 O76 O 0.45842 1.05567 0.94983
 O77 O 0.42304 1.02702 0.97586
 C78 C 0.43010 1.04829 0.95700
 O79 O 0.54583 1.05003 0.94833
 O80 O 0.57844 1.02193 0.97814
 C81 C 0.57339 1.04143 0.95681
 O82 O 0.45506 0.94628 0.94891
 O83 O 0.42135 0.97565 0.97603
 C84 C 0.42717 0.95486 0.95637
 Zr85 Zr 0.49905 0.96177 0.96403
 O86 O 0.49666 0.96284 0.91591
 O87 O 0.50103 0.91457 0.96346
 Zr88 Zr 0.50129 1.03720 0.96460
 O89 O 0.49866 1.03756 0.91649
 O90 O 0.50635 1.08419 0.96482
 O91 O 0.52801 0.99878 0.95892
 O92 O 0.47329 1.00031 0.95827
 O93 O 0.45273 0.94526 1.05432
 O94 O 0.42032 0.97523 1.02627
 C95 C 0.42523 0.95411 1.04591
 O96 O 0.54357 1.04899 1.05980
 O97 O 0.57717 1.02111 1.03099
 C98 C 0.57140 1.04032 1.05222
 O99 O 0.45600 1.05397 1.05568
 O100 O 0.42186 1.02633 1.02735
 C101 C 0.42800 1.04657 1.04745
 O102 O 0.54028 0.94548 1.05888
 O103 O 0.57570 0.97138 1.03005
 C104 C 0.56863 0.95232 1.05124
 Zr105 Zr 0.49737 0.96084 1.04090
 O106 O 0.49286 0.95997 1.08887
 O107 O 0.49949 0.91363 1.04006
 Zr108 Zr 0.49967 1.03650 1.04162
 O109 O 0.49535 1.03652 1.08961
 O110 O 0.50453 1.08352 1.04136
 Zr111 Zr 0.54545 0.99784 1.00374
 Zr112 Zr 0.45323 1.00044 1.00198
 O113 O 0.47154 0.99934 1.04637
 O114 O 0.52603 0.99781 1.04782
 O115 O 0.47031 0.95631 1.00190
 O116 O 0.52764 1.04157 1.00366
 O117 O 0.52503 0.95515 1.00296
 O118 O 0.47291 1.04351 1.00266
 H119 H 0.45952 1.00089 0.94020
 H120 H 0.54238 1.05856 1.00405
 H121 H 0.45716 0.99942 1.06401
 H122 H 0.53856 0.93725 1.00309
 H123 H 0.48957 1.09236 0.97776
 H124 H 0.48673 1.09189 1.02990
 H125 H 0.51160 1.02308 1.09779
 H126 H 0.50996 0.97216 1.09732
 H127 H 0.48156 0.90649 1.02802
 H128 H 0.48355 0.90710 0.97601
 H129 H 0.51512 0.97385 0.90844
 H130 H 0.51586 1.02502 0.90877
 O131 O -0.05829 0.45724 0.04942
 O132 O -0.02696 0.42533 0.02254
 C133 C -0.04931 0.43062 0.04164
 O134 O -0.05620 0.54108 -0.05898
 O135 O -0.02933 0.57449 -0.02963
 C136 C -0.04900 0.56812 -0.05099
 O137 O -0.05638 0.45695 -0.05597
 O138 O -0.02594 0.42538 -0.02764
 C139 C -0.04735 0.43041 -0.04776
 O140 O -0.05749 0.54132 0.05233
 O141 O -0.02987 0.57469 0.02325
 C142 C -0.04996 0.56835 0.04436
 Zr143 Zr -0.04159 0.49970 0.03550
 O144 O -0.09079 0.50191 0.03498
 O145 O -0.04209 0.49621 0.08356
 Zr146 Zr -0.04055 0.49952 -0.04142
 O147 O -0.08978 0.50145 -0.04157
 O148 O -0.03998 0.49619 -0.08946
 O149 O -0.04632 0.47286 -0.00288
 O150 O -0.04750 0.52539 -0.00318
 O151 O 0.05015 0.54408 0.05349
 O152 O 0.02160 0.57607 0.02376
 C153 C 0.04153 0.57070 0.04525
 O154 O 0.05727 0.46006 -0.05422
 O155 O 0.02796 0.42681 -0.02665
 C156 C 0.04976 0.43307 -0.04604
 O157 O 0.05150 0.54411 -0.05799
 O158 O 0.02203 0.57597 -0.02914
 C159 C 0.04238 0.57071 -0.05027
 O160 O 0.05564 0.46051 0.05130
 O161 O 0.02672 0.42690 0.02418
 C162 C 0.04818 0.43343 0.04379
 Zr163 Zr 0.03705 0.50183 0.03643
 O164 O 0.08606 0.50657 0.03690
 O165 O 0.03644 0.49854 0.08450
 Zr166 Zr 0.03823 0.50168 -0.04054
 O167 O 0.08722 0.50657 -0.03976
 O168 O 0.03916 0.49811 -0.08855
 Zr169 Zr -0.00034 0.45643 -0.00221
 Zr170 Zr -0.00300 0.54495 -0.00277
 O171 O 0.04257 0.52783 -0.00216
 O172 O 0.04456 0.47534 -0.00179
 O173 O -0.00312 0.52733 0.04178
 O174 O -0.00028 0.47473 -0.04639
 O175 O -0.00160 0.47488 0.04172
 O176 O -0.00189 0.52713 -0.04711
 H177 H -0.06607 0.53850 -0.00342
 H178 H 0.00045 0.46113 -0.06410
 H179 H 0.06031 0.54195 -0.00207
 H180 H -0.00157 0.46134 0.05960
 H181 H -0.02744 0.51303 -0.09737
 H182 H 0.02570 0.51409 -0.09683
 H183 H 0.09573 0.49001 -0.02736
 H184 H 0.09488 0.49009 0.02472
 H185 H 0.02309 0.51483 0.09223
 H186 H -0.03006 0.51323 0.09165
 H187 H -0.09832 0.48538 0.02209
 H188 H -0.09751 0.48400 -0.02996
 O189 O 1.05345 -0.05292 0.45590
 O190 O 1.02526 -0.02303 0.42365
 C191 C 1.04472 -0.04454 0.42884
 O192 O 0.94492 -0.05058 0.54311
 O193 O 0.97532 -0.02436 0.57649
 C194 C 0.95361 -0.04354 0.57046
 O195 O 0.94628 -0.05126 0.45734
 O196 O 0.97391 -0.02153 0.42448
 C197 C 0.95390 -0.04246 0.43009
 O198 O 1.05840 -0.05138 0.54180
 O199 O 1.02937 -0.02440 0.57578
 C200 C 1.05079 -0.04375 0.56936
 Zr201 Zr 1.04045 -0.03635 0.49933
 O202 O 1.04058 -0.08352 0.50218
 O203 O 1.08951 -0.03628 0.49488
 Zr204 Zr 0.96171 -0.03555 0.50038
 O205 O 0.96124 -0.08274 0.50288
 O206 O 0.91253 -0.03478 0.49780
 O207 O 1.00062 -0.04122 0.47271
 O208 O 1.00139 -0.04193 0.52616
 O209 O 1.05972 0.05195 0.54323
 O210 O 1.02970 0.02485 0.57652
 C211 C 1.05163 0.04388 0.57057
 O212 O 0.94754 0.05781 0.45954
 O213 O 0.97512 0.02969 0.42537
 C214 C 0.95524 0.05046 0.43195
 O215 O 0.94572 0.05327 0.54516
 O216 O 0.97567 0.02505 0.57741
 C217 C 0.95413 0.04467 0.57223
 O218 O 1.05586 0.05639 0.45759
 O219 O 1.02696 0.02834 0.42454
 C220 C 1.04749 0.04872 0.43028
 Zr221 Zr 1.04124 0.03924 0.50049
 O222 O 1.04106 0.08630 0.50467
 O223 O 1.09031 0.03932 0.49645
 Zr224 Zr 0.96258 0.04003 0.50181
 O225 O 0.96345 0.08707 0.50608
 O226 O 0.91342 0.04075 0.49916
 Zr227 Zr 1.00085 0.00276 0.45548
 Zr228 Zr 1.00210 0.00090 0.54562
 O229 O 1.00236 0.04451 0.52769
 O230 O 1.00159 0.04602 0.47410
 O231 O 1.04730 0.00085 0.52688
 O232 O 0.95606 0.00288 0.47486
 O233 O 1.04618 0.00184 0.47346
 O234 O 0.95641 0.00171 0.52827
 H235 H 1.00151 -0.05968 0.53969
 H236 H 0.93764 0.00341 0.46133
 H237 H 1.00271 0.06164 0.54189
 H238 H 1.06414 0.00170 0.45930
 H239 H 0.90482 -0.02326 0.51542
 H240 H 0.90537 0.02786 0.51571
 H241 H 0.97598 0.09505 0.48900
 H242 H 1.02942 0.09451 0.48713
 H243 H 1.09855 0.02569 0.51226
 H244 H 1.09808 -0.02537 0.51250
 H245 H 1.02635 -0.09099 0.48627
 H246 H 0.97329 -0.09033 0.48535
 C247 C 1.14163 0.18501 0.26178
 C248 C 1.12888 0.17298 0.28843
 C249 C 1.13287 0.14277 0.29564
 C250 C 1.15094 0.12495 0.27621
 C251 C 1.16399 0.13695 0.24970
 C252 C 1.15933 0.16721 0.24165
 C253 C 1.11825 0.13064 0.32366
 C254 C 1.10866 0.10224 0.32598
 C255 C 1.09269 0.08986 0.35316
 C256 C 1.07304 0.06519 0.34939
 C257 C 1.05806 0.05224 0.37434
 C258 C 1.06272 0.06339 0.40387
 C259 C 1.08256 0.08804 0.40774
 C260 C 1.09739 0.10119 0.38264
 H261 H 1.13836 0.20863 0.25778
 H262 H 1.11553 0.18733 0.30334
 H263 H 1.15518 0.10168 0.28146
 H264 H 1.17657 0.12186 0.23499
 H265 H 1.11334 0.14611 0.34192
 H266 H 1.11083 0.08772 0.30645
 H267 H 1.06920 0.05591 0.32697
 H268 H 1.04312 0.03316 0.37047
 H269 H 1.08679 0.09708 0.43018
 H270 H 1.11301 0.11971 0.38653
 C271 C 0.86243 -0.17808 0.26084
 C272 C 0.87421 -0.16622 0.28788
 C273 C 0.87125 -0.13576 0.29424
 C274 C 0.85516 -0.11750 0.27354
 C275 C 0.84323 -0.12926 0.24658
 C276 C 0.84684 -0.15981 0.23940
 C277 C 0.88493 -0.12378 0.32266
 C278 C 0.89511 -0.09558 0.32489
 C279 C 0.91014 -0.08316 0.35241
 C280 C 0.92974 -0.05838 0.34892
 C281 C 0.94403 -0.04542 0.37408
 C282 C 0.93877 -0.05672 0.40356
 C283 C 0.91891 -0.08142 0.40718
 C284 C 0.90470 -0.09454 0.38186
 H285 H 0.86478 -0.20187 0.25753
 H286 H 0.88600 -0.18091 0.30376
 H287 H 0.85163 -0.09402 0.27804
 H288 H 0.83244 -0.11374 0.23094
 H289 H 0.88856 -0.13920 0.34134
 H290 H 0.89419 -0.08120 0.30505
 H291 H 0.93415 -0.04904 0.32654
 H292 H 0.95906 -0.02635 0.37037
 H293 H 0.91424 -0.09057 0.42957
 H294 H 0.88907 -0.11312 0.38556
 C295 C 0.85712 0.18155 0.73727
 C296 C 0.87060 0.16862 0.71152
 C297 C 0.86918 0.13775 0.70689
 C298 C 0.85329 0.12002 0.72826
 C299 C 0.83960 0.13287 0.75394
 C300 C 0.84127 0.16397 0.75914
 C301 C 0.88367 0.12502 0.67914
 C302 C 0.89396 0.09679 0.67751
 C303 C 0.90911 0.08415 0.65007
 C304 C 0.92963 0.06004 0.65365
 C305 C 0.94428 0.04732 0.62843
 C306 C 0.93842 0.05818 0.59891
 C307 C 0.91744 0.08202 0.59526
 C308 C 0.90293 0.09487 0.62054
 H309 H 0.85817 0.20559 0.73906
 H310 H 0.88225 0.18288 0.69512
 H311 H 0.85101 0.09618 0.72514
 H312 H 0.82873 0.11793 0.77014
 H313 H 0.88748 0.14001 0.66012
 H314 H 0.89295 0.08269 0.69755
 H315 H 0.93456 0.05116 0.67610
 H316 H 0.96015 0.02889 0.63213
 H317 H 0.91222 0.09080 0.57284
 H318 H 0.88651 0.11280 0.61676
 C319 C 1.14835 -0.18376 0.73215
 C320 C 1.13555 -0.17054 0.70615
 C321 C 1.13799 -0.13974 0.70117
 C322 C 1.15445 -0.12245 0.72234
 C323 C 1.16743 -0.13560 0.74828
 C324 C 1.16450 -0.16657 0.75396
 C325 C 1.12360 -0.12655 0.67352
 C326 C 1.11387 -0.09812 0.67206
 C327 C 1.09809 -0.08496 0.64515
 C328 C 1.07859 -0.06024 0.64951
 C329 C 1.06325 -0.04699 0.62494
 C330 C 1.06734 -0.05794 0.59525
 C331 C 1.08732 -0.08239 0.59074
 C332 C 1.10254 -0.09579 0.61542
 H333 H 1.14643 -0.20774 0.73425
 H334 H 1.12348 -0.18448 0.68989
 H335 H 1.15758 -0.09871 0.71893
 H336 H 1.17864 -0.12091 0.76435
 H337 H 1.11911 -0.14136 0.65463
 H338 H 1.11564 -0.08421 0.69206
 H339 H 1.07499 -0.05126 0.67210
 H340 H 1.04828 -0.02803 0.62927
 H341 H 1.09115 -0.09123 0.56814
 H342 H 1.11812 -0.11424 0.61101
 C343 C 0.25912 1.18394 1.14209
 C344 C 0.28569 1.17163 1.12874
 C345 C 0.29287 1.14140 1.13275
 C346 C 0.27352 1.12384 1.15136
 C347 C 0.24711 1.13614 1.16504
 C348 C 0.23907 1.16643 1.16043
 C349 C 0.32091 1.12905 1.11769
 C350 C 0.32278 1.10059 1.10855
 C351 C 0.35013 1.08808 1.09245
 C352 C 0.34574 1.06346 1.07333
 C353 C 0.37092 1.05041 1.05832
 C354 C 0.40127 1.06142 1.06245
 C355 C 0.40573 1.08603 1.08171
 C356 C 0.38043 1.09926 1.09656
 H357 H 0.25514 1.20757 1.13875
 H358 H 0.30058 1.18578 1.11496
 H359 H 0.27879 1.10057 1.15557
 H360 H 0.23241 1.12128 1.17814
 H361 H 0.33956 1.14441 1.11220
 H362 H 0.30277 1.08613 1.11134
 H363 H 0.32268 1.05428 1.06996
 H364 H 0.36660 1.03135 1.04384
 H365 H 0.42881 1.09495 1.08553
 H366 H 0.38483 1.11771 1.11176
 C367 C 0.26713 0.81643 0.84891
 C368 C 0.29256 0.82956 0.86346
 C369 C 0.29407 0.86060 0.86733
 C370 C 0.26981 0.87839 0.85566
 C371 C 0.24441 0.86526 0.84103
 C372 C 0.24272 0.83413 0.83758
 C373 C 0.32169 0.87355 0.88263
 C374 C 0.32152 0.90020 0.89648
 C375 C 0.34908 0.91317 0.91190
 C376 C 0.34441 0.93522 0.93404
 C377 C 0.36968 0.94854 0.94865
 C378 C 0.40034 0.94029 0.94126
 C379 C 0.40506 0.91832 0.91896
 C380 C 0.37976 0.90498 0.90436
 H381 H 0.26676 0.79243 0.84617
 H382 H 0.31109 0.81536 0.87187
 H383 H 0.27050 0.90246 0.85730
 H384 H 0.22592 0.87948 0.83262
 H385 H 0.34237 0.85980 0.88369
 H386 H 0.30000 0.91266 0.89791
 H387 H 0.32107 0.94213 0.94012
 H388 H 0.36513 0.96543 0.96566
 H389 H 0.42834 0.91160 0.91250
 H390 H 0.38447 0.88880 0.88675
 C391 C 0.77410 0.85060 1.12076
 C392 C 0.74964 0.86503 1.10581
 C393 C 0.72334 0.87469 1.12199
 C394 C 0.72225 0.86999 1.15368
 C395 C 0.74672 0.85554 1.16863
 C396 C 0.77293 0.84569 1.15235
 C397 C 0.69826 0.89043 1.10515
 C398 C 0.66892 0.89284 1.11537
 C399 C 0.64384 0.90837 1.09834
 C400 C 0.61278 0.90122 1.10502
 C401 C 0.58838 0.91541 1.08976
 C402 C 0.59449 0.93730 1.06753
 C403 C 0.62560 0.94479 1.06112
 C404 C 0.65000 0.93060 1.07642
 H405 H 0.79420 0.84373 1.10766
 H406 H 0.75128 0.86865 1.08147
 H407 H 0.70291 0.87785 1.16721
 H408 H 0.74507 0.85196 1.19296
 H409 H 0.70410 0.89907 1.08283
 H410 H 0.66234 0.88181 1.13635
 H411 H 0.60736 0.88441 1.12201
 H412 H 0.56471 0.90916 1.09538
 H413 H 0.63117 0.96179 1.04439
 H414 H 0.67353 0.93757 1.07133
 C415 C 0.73521 1.17887 0.85073
 C416 C 0.70961 1.16524 0.86465
 C417 C 0.70876 1.13419 0.86895
 C418 C 0.73391 1.11691 0.85844
 C419 C 0.75951 1.13056 0.84447
 C420 C 0.76049 1.16170 0.84054
 C421 C 0.68085 1.12078 0.88349
 C422 C 0.68076 1.09396 0.89723
 C423 C 0.65281 1.08096 0.91210
 C424 C 0.65683 1.05921 0.93484
 C425 C 0.63112 1.04638 0.94938
 C426 C 0.60071 1.05486 0.94130
 C427 C 0.59668 1.07626 0.91814
 C428 C 0.62238 1.08908 0.90362
 H429 H 0.73503 1.20285 0.84757
 H430 H 0.69042 1.17905 0.87217
 H431 H 0.73381 1.09286 0.86046
 H432 H 0.77869 1.11674 0.83694
 H433 H 0.66005 1.13438 0.88411
 H434 H 0.70226 1.08154 0.89920
 H435 H 0.67998 1.05230 0.94157
 H436 H 0.63513 1.02983 0.96698
 H437 H 0.57361 1.08307 0.91108
 H438 H 0.61820 1.10493 0.88546
 C439 C 0.12001 0.23924 0.15297
 C440 C 0.10453 0.26206 0.13736
 C441 C 0.12114 0.28599 0.12457
 C442 C 0.15379 0.28632 0.12724
 C443 C 0.16927 0.26349 0.14285
 C444 C 0.15256 0.23973 0.15594
 C445 C 0.10373 0.30957 0.10799
 C446 C 0.11461 0.33737 0.10390
 C447 C 0.09698 0.36131 0.08811
 C448 C 0.10449 0.39111 0.09440
 C449 C 0.08866 0.41446 0.08006
 C450 C 0.06504 0.40855 0.05882
 C451 C 0.05781 0.37867 0.05210
 C452 C 0.07364 0.35529 0.06652
 H453 H 0.10653 0.22093 0.16228
 H454 H 0.07943 0.26104 0.13533
 H455 H 0.16760 0.30382 0.11691
 H456 H 0.19437 0.26447 0.14476
 H457 H 0.08046 0.30412 0.10046
 H458 H 0.13662 0.34360 0.11397
 H459 H 0.12255 0.39638 0.11070
 H460 H 0.09498 0.43717 0.08569
 H461 H 0.03998 0.37330 0.03562
 H462 H 0.06785 0.33265 0.06027
 C463 C -0.18215 0.26784 -0.15363
 C464 C -0.17021 0.29384 -0.14058
 C465 C -0.13803 0.29750 -0.13675
 C466 C -0.11789 0.27495 -0.14721
 C467 C -0.12983 0.24900 -0.16035
 C468 C -0.16210 0.24505 -0.16348
 C469 C -0.12634 0.32520 -0.12229
 C470 C -0.09926 0.32647 -0.10719
 C471 C -0.08745 0.35365 -0.09184
 C472 C -0.06498 0.35025 -0.06896
 C473 C -0.05239 0.37510 -0.05441
 C474 C -0.06177 0.40412 -0.06257
 C475 C -0.08430 0.40761 -0.08548
 C476 C -0.09696 0.38267 -0.10004
 H477 H -0.20710 0.26562 -0.15616
 H478 H -0.18621 0.31101 -0.13309
 H479 H -0.09291 0.27733 -0.14559
 H480 H -0.11380 0.23179 -0.16763
 H481 H -0.14153 0.34445 -0.12262
 H482 H -0.08563 0.30632 -0.10451
 H483 H -0.05708 0.32821 -0.06230
 H484 H -0.03504 0.37149 -0.03692
 H485 H -0.09187 0.42963 -0.09250
 H486 H -0.11356 0.38634 -0.11814
 C487 C 0.18151 0.72995 -0.15601
 C488 C 0.16822 0.70447 -0.14293
 C489 C 0.13579 0.70172 -0.14029
 C490 C 0.11683 0.72473 -0.15189
 C491 C 0.13013 0.75019 -0.16504
 C492 C 0.16263 0.75317 -0.16707
 C493 C 0.12275 0.67442 -0.12588
 C494 C 0.09464 0.67349 -0.11256
 C495 C 0.08195 0.64663 -0.09702
 C496 C 0.05854 0.65042 -0.07509
 C497 C 0.04581 0.62584 -0.05988
 C498 C 0.05601 0.59674 -0.06646
 C499 C 0.07914 0.59286 -0.08877
 C500 C 0.09193 0.61749 -0.10395
 H501 H 0.20661 0.73140 -0.15767
 H502 H 0.18336 0.68695 -0.13453
 H503 H 0.09173 0.72310 -0.15120
 H504 H 0.11497 0.76775 -0.17324
 H505 H 0.13779 0.65509 -0.12465
 H506 H 0.08087 0.69367 -0.11129
 H507 H 0.05020 0.67255 -0.06950
 H508 H 0.02790 0.62972 -0.04299
 H509 H 0.08733 0.57076 -0.09463
 H510 H 0.10918 0.61349 -0.12139
 C511 C -0.11289 0.76432 0.15455
 C512 C -0.09812 0.74040 0.14018
 C513 C -0.11559 0.71749 0.12678
 C514 C -0.14829 0.71922 0.12769
 C515 C -0.16304 0.74318 0.14200
 C516 C -0.14552 0.76600 0.15557
 C517 C -0.09893 0.69298 0.11105
 C518 C -0.11135 0.66590 0.10641
 C519 C -0.09475 0.64143 0.09056
 C520 C -0.10380 0.61187 0.09635
 C521 C -0.08919 0.58815 0.08152
 C522 C -0.06536 0.59349 0.06024
 C523 C -0.05649 0.62315 0.05418
 C524 C -0.07105 0.64687 0.06910
 H525 H -0.09876 0.78183 0.16432
 H526 H -0.07293 0.73982 0.13949
 H527 H -0.16262 0.70253 0.11685
 H528 H -0.18823 0.74387 0.14247
 H529 H -0.07509 0.69718 0.10432
 H530 H -0.13404 0.66077 0.11576
 H531 H -0.12219 0.60708 0.11254
 H532 H -0.09672 0.56562 0.08665
 H533 H -0.03835 0.62811 0.03779
 H534 H -0.06407 0.66936 0.06326
 C535 C 1.11157 0.15474 0.76776
 C536 C 1.09773 0.14077 0.74285
 C537 C 1.11546 0.12338 0.72289
 C538 C 1.14741 0.11992 0.72850
 C539 C 1.16130 0.13369 0.75349
 C540 C 1.14367 0.15133 0.77381
 C541 C 1.09962 0.10822 0.69736
 C542 C 1.11414 0.10033 0.67159
 C543 C 1.09797 0.08534 0.64617
 C544 C 1.10899 0.08957 0.61641
 C545 C 1.09406 0.07605 0.59184
 C546 C 1.06802 0.05761 0.59660
 C547 C 1.05751 0.05273 0.62653
 C548 C 1.07232 0.06642 0.65106
 H549 H 1.09645 0.16693 0.78299
 H550 H 1.07294 0.14342 0.73928
 H551 H 1.16177 0.10617 0.71397
 H552 H 1.18616 0.13101 0.75610
 H553 H 1.07477 0.10475 0.69943
 H554 H 1.13824 0.10649 0.66810
 H555 H 1.12894 0.10376 0.61213
 H556 H 1.10292 0.08009 0.56911
 H557 H 1.03768 0.03847 0.63106
 H558 H 1.06384 0.06183 0.67380
 C559 C 0.84415 -0.11674 0.76794
 C560 C 0.85801 -0.10041 0.74442
 C561 C 0.87697 -0.11454 0.72295
 C562 C 0.88266 -0.14527 0.72594
 C563 C 0.86910 -0.16163 0.74961
 C564 C 0.84933 -0.14777 0.77104
 C565 C 0.89105 -0.09654 0.69822
 C566 C 0.89739 -0.10785 0.67071
 C567 C 0.91105 -0.09009 0.64558
 C568 C 0.90542 -0.09901 0.61554
 C569 C 0.91870 -0.08352 0.59115
 C570 C 0.93833 -0.05897 0.59631
 C571 C 0.94403 -0.05003 0.62644
 C572 C 0.93053 -0.06542 0.65084
 H573 H 0.83040 -0.10451 0.78433
 H574 H 0.85375 -0.07662 0.74291
 H575 H 0.89779 -0.15677 0.71016
 H576 H 0.87331 -0.18542 0.75006
 H577 H 0.89449 -0.07296 0.70233
 H578 H 0.89090 -0.13067 0.66576
 H579 H 0.89069 -0.11808 0.61092
 H580 H 0.91398 -0.09114 0.56826
 H581 H 0.95919 -0.03132 0.63122
 H582 H 0.93609 -0.05840 0.67373
 C583 C 1.17339 -0.14915 0.26065
 C584 C 1.16204 -0.13655 0.28748
 C585 C 1.13007 -0.13579 0.29345
 C586 C 1.10960 -0.14906 0.27262
 C587 C 1.12086 -0.16187 0.24584
 C588 C 1.15301 -0.16180 0.23900
 C589 C 1.11895 -0.12123 0.32165
 C590 C 1.09095 -0.10820 0.32376
 C591 C 1.08012 -0.09206 0.35115
 C592 C 1.05713 -0.07011 0.34768
 C593 C 1.04596 -0.05447 0.37283
 C594 C 1.05733 -0.06068 0.40218
 C595 C 1.08014 -0.08289 0.40575
 C596 C 1.09142 -0.09847 0.38051
 H597 H 1.19835 -0.14969 0.25763
 H598 H 1.17836 -0.12702 0.30351
 H599 H 1.08480 -0.14966 0.27689
 H600 H 1.10388 -0.17051 0.23002
 H601 H 1.13528 -0.11934 0.34027
 H602 H 1.07595 -0.10758 0.30399
 H603 H 1.04785 -0.06492 0.32536
 H604 H 1.02819 -0.03769 0.36922
 H605 H 1.08918 -0.08842 0.42806
 H606 H 1.10846 -0.11586 0.38423
 C607 C 0.88858 0.15673 0.23168
 C608 C 0.90407 0.14360 0.25624
 C609 C 0.88742 0.12973 0.27975
 C610 C 0.85480 0.12884 0.27804
 C611 C 0.83922 0.14180 0.25344
 C612 C 0.85576 0.15601 0.22962
 C613 C 0.90484 0.11528 0.30486
 C614 C 0.89283 0.11086 0.33269
 C615 C 0.91000 0.09584 0.35762
 C616 C 0.90144 0.10179 0.38781
 C617 C 0.91639 0.08740 0.41196
 C618 C 0.94004 0.06643 0.40641
 C619 C 0.94853 0.06036 0.37614
 C620 C 0.93364 0.07483 0.35200
 H621 H 0.90277 0.16612 0.21370
 H622 H 0.92927 0.14414 0.25676
 H623 H 0.84113 0.11772 0.29538
 H624 H 0.81408 0.14131 0.25389
 H625 H 0.92882 0.10926 0.30044
 H626 H 0.86998 0.11958 0.33801
 H627 H 0.88311 0.11767 0.39273
 H628 H 0.90915 0.09251 0.43497
 H629 H 0.96649 0.04417 0.37102
 H630 H 0.94022 0.06891 0.32904
 C631 C 0.11147 0.23266 -0.14431
 C632 C 0.09796 0.25764 -0.13077
 C633 C 0.11651 0.28103 -0.11989
 C634 C 0.14908 0.27875 -0.12248
 C635 C 0.16262 0.25366 -0.13596
 C636 C 0.14395 0.23037 -0.14703
 C637 C 0.10100 0.30660 -0.10489
 C638 C 0.11391 0.33369 -0.10191
 C639 C 0.09761 0.35885 -0.08697
 C640 C 0.10511 0.38823 -0.09541
 C641 C 0.08976 0.41243 -0.08209
 C642 C 0.06675 0.40770 -0.05980
 C643 C 0.05988 0.37827 -0.05080
 C644 C 0.07519 0.35415 -0.06411
 H645 H 0.09650 0.21484 -0.15215
 H646 H 0.07285 0.25867 -0.12876
 H647 H 0.16424 0.29588 -0.11361
 H648 H 0.18772 0.25252 -0.13780
 H649 H 0.07730 0.30313 -0.09727
 H650 H 0.13634 0.33825 -0.11212
 H651 H 0.12258 0.39244 -0.11269
 H652 H 0.09577 0.43480 -0.08941
 H653 H 0.04262 0.37376 -0.03339
 H654 H 0.06962 0.33191 -0.05612
 C655 C -0.11476 0.22909 0.13860
 C656 C -0.10072 0.25275 0.12304
 C657 C -0.11839 0.27728 0.11320
 C658 C -0.15073 0.27719 0.11839
 C659 C -0.16479 0.25347 0.13395
 C660 C -0.14691 0.22930 0.14447
 C661 C -0.10229 0.30212 0.09730
 C662 C -0.11339 0.33009 0.09626
 C663 C -0.09656 0.35529 0.08172
 C664 C -0.10377 0.38447 0.09081
 C665 C -0.08843 0.40891 0.07788
 C666 C -0.06558 0.40472 0.05538
 C667 C -0.05869 0.37551 0.04590
 C668 C -0.07408 0.35107 0.05880
 H669 H -0.10047 0.21049 0.14591
 H670 H -0.07586 0.25206 0.11898
 H671 H -0.16536 0.29517 0.11029
 H672 H -0.18961 0.25426 0.13813
 H673 H -0.07954 0.29738 0.08793
 H674 H -0.13475 0.33538 0.10814
 H675 H -0.12117 0.38838 0.10820
 H676 H -0.09445 0.43109 0.08562
 H677 H -0.04154 0.37149 0.02831
 H678 H -0.06860 0.32906 0.05035
 C679 C -0.11569 0.76623 -0.15587
 C680 C -0.10050 0.74184 -0.14272
 C681 C -0.11742 0.71853 -0.12934
 C682 C -0.15005 0.72032 -0.12889
 C683 C -0.16535 0.74478 -0.14186
 C684 C -0.14852 0.76831 -0.15572
 C685 C -0.10018 0.69358 -0.11490
 C686 C -0.11222 0.66624 -0.11075
 C687 C -0.09497 0.64155 -0.09586
 C688 C -0.10340 0.61200 -0.10234
 C689 C -0.08823 0.58811 -0.08814
 C690 C -0.06449 0.59331 -0.06682
 C691 C -0.05616 0.62294 -0.06022
 C692 C -0.07125 0.64678 -0.07449
 H693 H -0.10126 0.78402 -0.16474
 H694 H -0.07529 0.74129 -0.14286
 H695 H -0.16394 0.70313 -0.11813
 H696 H -0.19051 0.74448 -0.14174
 H697 H -0.07621 0.69773 -0.10870
 H698 H -0.13508 0.66120 -0.11966
 H699 H -0.12178 0.60737 -0.11850
 H700 H -0.09537 0.56560 -0.09365
 H701 H -0.03813 0.62779 -0.04377
 H702 H -0.06475 0.66921 -0.06811
 C703 C 0.10935 0.76863 0.15011
 C704 C 0.09326 0.74579 0.13530
 C705 C 0.10939 0.72162 0.12259
 C706 C 0.14209 0.72117 0.12421
 C707 C 0.15816 0.74400 0.13895
 C708 C 0.14198 0.76791 0.15218
 C709 C 0.09159 0.69767 0.10729
 C710 C 0.10209 0.66956 0.10535
 C711 C 0.08497 0.64498 0.09035
 C712 C 0.09300 0.61555 0.09789
 C713 C 0.07857 0.59152 0.08359
 C714 C 0.05586 0.59636 0.06110
 C715 C 0.04767 0.62586 0.05355
 C716 C 0.06212 0.64996 0.06796
 H717 H 0.09629 0.78704 0.15965
 H718 H 0.06812 0.74686 0.13401
 H719 H 0.15545 0.70347 0.11380
 H720 H 0.18329 0.74279 0.14025
 H721 H 0.06861 0.70316 0.09894
 H722 H 0.12376 0.66371 0.11641
 H723 H 0.11064 0.61108 0.11491
 H724 H 0.08553 0.56914 0.08997
 H725 H 0.03039 0.63039 0.03621
 H726 H 0.05585 0.67230 0.06089
 C727 C 0.22362 1.11785 0.85914
 C728 C 0.24850 1.10350 0.87338
 C729 C 0.27416 1.11984 0.88383
 C730 C 0.27413 1.15110 0.88031
 C731 C 0.24915 1.16549 0.86609
 C732 C 0.22374 1.14898 0.85520
 C733 C 0.29978 1.10350 0.89905
 C734 C 0.32893 1.11396 0.90131
 C735 C 0.35441 1.09688 0.91597
 C736 C 0.38527 1.10290 0.90749
 C737 C 0.40990 1.08712 0.92068
 C738 C 0.40415 1.06508 0.94285
 C739 C 0.37326 1.05944 0.95174
 C740 C 0.34869 1.07524 0.93859
 H741 H 0.20406 1.10461 0.85155
 H742 H 0.24773 1.07947 0.87616
 H743 H 0.29300 1.16461 0.88889
 H744 H 0.24980 1.18952 0.86341
 H745 H 0.29460 1.08121 0.90718
 H746 H 0.33497 1.13497 0.89062
 H747 H 0.39032 1.11968 0.89036
 H748 H 0.43341 1.09216 0.91344
 H749 H 0.36799 1.04295 0.96908
 H750 H 0.32536 1.07071 0.94663
 C751 C 0.25461 0.81938 1.14356
 C752 C 0.28149 0.83120 1.13023
 C753 C 0.28624 0.86217 1.12908
 C754 C 0.26393 0.88112 1.14231
 C755 C 0.23713 0.86931 1.15570
 C756 C 0.23212 0.83834 1.15636
 C757 C 0.31493 0.87390 1.11465
 C758 C 0.31647 0.90111 1.10192
 C759 C 0.34482 0.91333 1.08727
 C760 C 0.34149 0.93652 1.06601
 C761 C 0.36754 0.94945 1.05233
 C762 C 0.39767 0.93965 1.05984
 C763 C 0.40106 0.91644 1.08120
 C764 C 0.37493 0.90344 1.09485
 H765 H 0.25153 0.79540 1.14413
 H766 H 0.29850 0.81612 1.12053
 H767 H 0.26722 0.90505 1.14277
 H768 H 0.22012 0.88446 1.16525
 H769 H 0.33467 0.85898 1.11313
 H770 H 0.29569 0.91474 1.10085
 H771 H 0.31858 0.94471 1.05996
 H772 H 0.36400 0.96734 1.03605
 H773 H 0.42393 0.90850 1.08766
 H774 H 0.37854 0.88623 1.11180
 C775 C 0.74167 1.17452 1.14763
 C776 C 0.71400 1.16197 1.13691
 C777 C 0.71005 1.13088 1.13636
 C778 C 0.73400 1.11258 1.14778
 C779 C 0.76165 1.12510 1.15840
 C780 C 0.76590 1.15620 1.15829
 C781 C 0.68080 1.11837 1.12384
 C782 C 0.67909 1.09093 1.11185
 C783 C 0.65078 1.07849 1.09745
 C784 C 0.65436 1.05491 1.07686
 C785 C 0.62860 1.04251 1.06239
 C786 C 0.59846 1.05323 1.06836
 C787 C 0.59471 1.07643 1.08950
 C788 C 0.62060 1.08894 1.10395
 H789 H 0.74407 1.19858 1.14771
 H790 H 0.69579 1.17659 1.12861
 H791 H 0.73153 1.08858 1.14877
 H792 H 0.77993 1.11035 1.16625
 H793 H 0.66086 1.13307 1.12262
 H794 H 0.69993 1.07743 1.11055
 H795 H 0.67728 1.04623 1.07166
 H796 H 0.63241 1.02451 1.04643
 H797 H 0.57179 1.08504 1.09479
 H798 H 0.61675 1.10646 1.12039
 C799 C 0.73774 0.84780 0.82398
 C800 C 0.71018 0.85944 0.83596
 C801 C 0.70640 0.86251 0.86751
 C802 C 0.73014 0.85228 0.88697
 C803 C 0.75765 0.84054 0.87499
 C804 C 0.76193 0.83863 0.84337
 C805 C 0.67762 0.87657 0.87928
 C806 C 0.67698 0.89200 0.90536
 C807 C 0.64915 0.90783 0.91701
 C808 C 0.65353 0.93066 0.93830
 C809 C 0.62815 0.94577 0.95066
 C810 C 0.59761 0.93825 0.94219
 C811 C 0.59313 0.91542 0.92078
 C812 C 0.61862 0.90027 0.90836
 H813 H 0.74023 0.84611 0.79952
 H814 H 0.69207 0.86676 0.82052
 H815 H 0.72761 0.85332 0.91145
 H816 H 0.77591 0.83366 0.89047
 H817 H 0.65726 0.87605 0.86484
 H818 H 0.69833 0.89476 0.91810
 H819 H 0.67676 0.93685 0.94547
 H820 H 0.63254 0.96320 0.96712
 H821 H 0.56991 0.90888 0.91396
 H822 H 0.61417 0.88227 0.89265
   
