data_POSCAR
  _audit_creation_date              2014-09-24
  _audit_creation_method            'ToBaCCo'
  _symmetry_space_group_name_H-M    'P1'
  _symmetry_Int_Tables_number       1
  _symmetry_cell_setting            triclinic
  loop_
  _symmetry_equiv_pos_as_xyz
 x,y,z
_cell_length_a 40.3948
_cell_length_b 40.3787
_cell_length_c 40.3649
_cell_angle_alpha 89.995900
_cell_angle_beta 89.960200
_cell_angle_gamma 90.009600
loop_
  _atom_site_label
  _atom_site_type_symbol
  _atom_site_fract_x
  _atom_site_fract_y
  _atom_site_fract_z
C1 C 0.19887 0.52528 1.04082
 H2 H 0.19813 0.54426 1.02191
 C3 C 0.17629 0.52608 1.06701
 H4 H 0.15816 0.54583 1.06832
 C5 C 0.22273 0.47579 1.06160
 H6 H 0.24038 0.45587 1.05902
 C7 C 0.20058 0.47563 1.08821
 H8 H 0.20149 0.45569 1.10617
 N9 N 0.22156 0.50048 1.03865
 C10 C 0.30006 0.53998 0.97582
 H11 H 0.30083 0.52104 0.95688
 C12 C 0.32260 0.56618 0.97495
 H13 H 0.34076 0.56752 0.95523
 C14 C 0.27615 0.56087 1.02529
 H15 H 0.25850 0.55834 1.04523
 C16 C 0.29828 0.58749 1.02535
 H17 H 0.29742 0.60553 1.04520
 Zn18 Zn 0.24947 0.50020 1.00097
 N19 N 0.27735 0.53787 1.00064
 C20 C 0.22284 0.52450 0.94027
 N21 N 0.22161 0.49987 0.96329
 C22 C 0.19893 0.47505 0.96117
 C23 C 0.17647 0.47414 0.93491
 C24 C 0.20079 0.52452 0.91360
 C25 C 0.30004 0.46040 1.02607
 C26 C 0.32258 0.43421 1.02688
 C27 C 0.29831 0.41299 0.97645
 C28 C 0.27618 0.43960 0.97657
 N29 N 0.27735 0.46255 1.00126
 H30 H 0.24047 0.54444 0.94281
 H31 H 0.19813 0.45613 0.98013
 H32 H 0.15834 0.45441 0.93355
 H33 H 0.20168 0.54434 0.89553
 H34 H 0.30080 0.47931 1.04504
 H35 H 0.34072 0.43284 1.04658
 H36 H 0.29747 0.39499 0.95656
 H37 H 0.25855 0.44216 0.95664
 C38 C 0.32176 0.59008 0.99999
 C39 C 0.17708 0.50096 1.09088
 C40 C 0.32176 0.41035 1.00179
 C41 C 0.17736 0.49915 0.91097
 C42 C 0.80051 0.52544 -0.03937
 H43 H 0.80134 0.54433 -0.02039
 C44 C 0.82302 0.52630 -0.06561
 H45 H 0.84121 0.54597 -0.06696
 C46 C 0.77651 0.47606 -0.06030
 H47 H 0.75884 0.45615 -0.05776
 C48 C 0.79861 0.47599 -0.08696
 H49 H 0.79770 0.45618 -0.10503
 N50 N 0.77777 0.50066 -0.03726
 C51 C 0.69949 0.54006 0.02587
 H52 H 0.69874 0.52108 0.04478
 C53 C 0.67696 0.56626 0.02682
 H54 H 0.65884 0.56757 0.04657
 C55 C 0.72331 0.56102 -0.02362
 H56 H 0.74091 0.55851 -0.04361
 C57 C 0.70119 0.58763 -0.02361
 H58 H 0.70201 0.60569 -0.04344
 Zn59 Zn 0.74995 0.50027 0.00048
 N60 N 0.72214 0.53798 0.00099
 C61 C 0.77680 0.52429 0.06119
 N62 N 0.77789 0.49974 0.03809
 C63 C 0.80054 0.47488 0.04004
 C64 C 0.82312 0.47386 0.06619
 C65 C 0.79898 0.52421 0.08776
 C66 C 0.69926 0.46068 -0.02470
 C67 C 0.67670 0.43451 -0.02564
 C68 C 0.70103 0.41297 0.02463
 C69 C 0.72319 0.43956 0.02463
 N70 N 0.72200 0.46266 0.00008
 H71 H 0.75920 0.54427 0.05878
 H72 H 0.80123 0.45602 0.02102
 H73 H 0.84123 0.45411 0.06740
 H74 H 0.79821 0.54398 0.10588
 H75 H 0.69850 0.47971 -0.04356
 H76 H 0.65853 0.43327 -0.04533
 H77 H 0.70189 0.39484 0.04439
 H78 H 0.74086 0.44199 0.04454
 C79 C 0.67776 0.59019 0.00179
 C80 C 0.82212 0.50130 -0.08956
 C81 C 0.67755 0.41050 -0.00070
 C82 C 0.82239 0.49881 0.09020
 C83 C -0.02506 0.30110 0.45938
 H84 H -0.04398 0.30185 0.47835
 C85 C -0.02595 0.32365 0.43318
 H86 H -0.04570 0.34177 0.43193
 C87 C 0.02437 0.27723 0.43845
 H88 H 0.04430 0.25959 0.44097
 C89 C 0.02445 0.29936 0.41182
 H90 H 0.04432 0.29845 0.39380
 N91 N -0.00026 0.27841 0.46147
 C92 C -0.03952 0.19986 0.52439
 H93 H -0.02052 0.19909 0.54325
 C94 C -0.06570 0.17731 0.52535
 H95 H -0.06697 0.15914 0.54506
 C96 C -0.06057 0.22378 0.47503
 H97 H -0.05812 0.24145 0.45509
 C98 C -0.08718 0.20164 0.47506
 H99 H -0.10528 0.20251 0.45529
 Zn100 Zn 0.00013 0.25050 0.49915
 N101 N -0.03750 0.22258 0.49958
 C102 C -0.02407 0.27711 0.55991
 N103 N 0.00051 0.27837 0.53684
 C104 C 0.02531 0.30108 0.53895
 C105 C 0.02622 0.32355 0.56522
 C106 C -0.02409 0.29916 0.58660
 C107 C 0.03988 0.19992 0.47391
 C108 C 0.06607 0.17739 0.47300
 C109 C 0.08741 0.20171 0.52336
 C110 C 0.06081 0.22383 0.52333
 N111 N 0.03779 0.22263 0.49873
 H112 H -0.04400 0.25946 0.55739
 H113 H 0.04420 0.30191 0.51996
 H114 H 0.04592 0.34170 0.56657
 H115 H -0.04389 0.29824 0.60470
 H116 H 0.02092 0.19915 0.45501
 H117 H 0.06739 0.15923 0.45329
 H118 H 0.10547 0.20257 0.54318
 H119 H 0.05830 0.24147 0.54328
 C120 C -0.08969 0.17816 0.50041
 C121 C -0.00090 0.32285 0.40923
 C122 C 0.08999 0.17824 0.49801
 C123 C 0.00125 0.32262 0.58921
 C124 C 0.97483 0.69933 0.53958
 H125 H 0.95597 0.69851 0.52058
 C126 C 0.97391 0.67684 0.56583
 H127 H 0.95423 0.65866 0.56716
 C128 C 1.02417 0.72333 0.56056
 H129 H 1.04408 0.74099 0.55804
 C130 C 1.02418 0.70125 0.58722
 H131 H 1.04395 0.70216 0.60531
 N132 N 0.99961 0.72207 0.53749
 C133 C 0.96040 0.80040 0.47437
 H134 H 0.97941 0.80115 0.45550
 C135 C 0.93421 0.82294 0.47339
 H136 H 0.93295 0.84107 0.45365
 C137 C 0.93932 0.77657 0.52380
 H138 H 0.94177 0.75896 0.54378
 C139 C 0.91272 0.79870 0.52376
 H140 H 0.89461 0.79787 0.54355
 Zn141 Zn 1.00008 0.74989 0.49977
 N142 N 0.96241 0.77773 0.49924
 C143 C 0.97609 0.72305 0.43905
 N144 N 1.00062 0.72194 0.46214
 C145 C 1.02545 0.69926 0.46016
 C146 C 1.02644 0.67667 0.43400
 C147 C 0.97614 0.70087 0.41247
 C148 C 1.03963 0.80058 0.52501
 C149 C 1.06580 0.82314 0.52597
 C150 C 1.08742 0.79877 0.47573
 C151 C 1.06082 0.77661 0.47570
 N152 N 1.03769 0.77783 0.50022
 H153 H 0.95613 0.74068 0.44148
 H154 H 1.04430 0.69855 0.47917
 H155 H 1.04616 0.65853 0.43275
 H156 H 0.95638 0.70167 0.39436
 H157 H 1.02058 0.80136 0.54384
 H158 H 1.06701 0.84133 0.54566
 H159 H 1.10557 0.79789 0.45598
 H160 H 1.05843 0.75893 0.45578
 C161 C 0.91022 0.82213 0.49836
 C162 C 0.99886 0.67775 0.58980
 C163 C 1.08985 0.82227 0.50106
 C164 C 1.00151 0.67743 0.41000
 C165 C 0.46041 -0.02592 0.30012
 H166 H 0.47938 -0.04482 0.30091
 C167 C 0.43421 -0.02682 0.32267
 H168 H 0.43289 -0.04651 0.34086
 C169 C 0.43946 0.02346 0.27617
 H170 H 0.44197 0.04339 0.25851
 C171 C 0.41284 0.02350 0.29831
 H172 H 0.39478 0.04331 0.29744
 N173 N 0.46249 -0.00113 0.27738
 C174 C 0.52541 -0.04047 0.19889
 H175 H 0.54431 -0.02150 0.19812
 C176 C 0.52631 -0.06666 0.17633
 H177 H 0.54607 -0.06790 0.15818
 C178 C 0.47599 -0.06141 0.22281
 H179 H 0.45606 -0.05890 0.24047
 C180 C 0.47594 -0.08803 0.20067
 H181 H 0.45607 -0.10606 0.20160
 Zn182 Zn 0.50015 -0.00071 0.24948
 N183 N 0.50059 -0.03839 0.22161
 C184 C 0.56089 -0.02475 0.27619
 N185 N 0.53778 -0.00023 0.27739
 C186 C 0.53975 0.02459 0.30009
 C187 C 0.56594 0.02560 0.32262
 C188 C 0.58750 -0.02467 0.29831
 C189 C 0.47494 0.03900 0.19887
 C190 C 0.47399 0.06525 0.17638
 C191 C 0.52426 0.08670 0.20074
 C192 C 0.52428 0.06003 0.22281
 N193 N 0.49973 0.03694 0.22158
 H194 H 0.55847 -0.04469 0.25853
 H195 H 0.52072 0.04342 0.30086
 H196 H 0.56718 0.04533 0.34077
 H197 H 0.60564 -0.04441 0.29744
 H198 H 0.45608 0.01999 0.19807
 H199 H 0.45429 0.06657 0.15823
 H200 H 0.54402 0.10482 0.20164
 H201 H 0.54420 0.05754 0.24046
 C202 C 0.50129 -0.09061 0.17716
 C203 C 0.41027 -0.00182 0.32181
 C204 C 0.49892 0.08926 0.17728
 C205 C 0.58997 0.00070 0.32177
 C206 C 0.53983 -0.02539 0.69940
 H207 H 0.52085 -0.04429 0.69864
 C208 C 0.56604 -0.02633 0.67686
 H209 H 0.56736 -0.04605 0.65871
 C210 C 0.56079 0.02403 0.72326
 H211 H 0.55828 0.04399 0.74089
 C212 C 0.58742 0.02403 0.70114
 H213 H 0.60549 0.04384 0.70198
 N214 N 0.53774 -0.00056 0.72209
 C215 C 0.47472 -0.03973 0.80061
 H216 H 0.45585 -0.02074 0.80133
 C217 C 0.47376 -0.06590 0.82319
 H218 H 0.45404 -0.06717 0.84135
 C219 C 0.52413 -0.06078 0.77676
 H220 H 0.54408 -0.05832 0.75912
 C221 C 0.52410 -0.08736 0.79894
 H222 H 0.54389 -0.10545 0.79813
 Zn223 Zn 0.50005 -0.00009 0.74995
 N224 N 0.49956 -0.03771 0.77790
 C225 C 0.43933 -0.02417 0.72326
 N226 N 0.46245 0.00035 0.72202
 C227 C 0.46048 0.02514 0.69927
 C228 C 0.43429 0.02612 0.67675
 C229 C 0.41272 -0.02413 0.70114
 C230 C 0.52522 0.03972 0.80053
 C231 C 0.52610 0.06597 0.82302
 C232 C 0.47582 0.08732 0.79862
 C233 C 0.47587 0.06066 0.77654
 N234 N 0.50045 0.03761 0.77780
 H235 H 0.44175 -0.04409 0.74094
 H236 H 0.47951 0.04397 0.69848
 H237 H 0.43305 0.04581 0.65857
 H238 H 0.39458 -0.04387 0.70204
 H239 H 0.54410 0.02074 0.80136
 H240 H 0.54577 0.06731 0.84120
 H241 H 0.45603 0.10540 0.79771
 H242 H 0.45597 0.05813 0.75888
 C243 C 0.49873 -0.08986 0.82241
 C244 C 0.58998 -0.00134 0.67768
 C245 C 0.50112 0.08992 0.82211
 C246 C 0.41026 0.00121 0.67764
 Si247 Si 0.25003 0.00022 0.49983
 Si248 Si 0.75018 0.00016 0.49960
 Si249 Si 0.49969 0.25024 0.99997
 Si250 Si 0.49974 0.75024 0.00073
 Si251 Si 1.00059 0.49923 0.25001
 Si252 Si 0.00008 0.49992 0.75017
 C253 C 0.11626 0.15416 0.49830
 C254 C 0.13770 0.13340 0.49855
 C255 C 0.16209 0.10838 0.49883
 C256 C 0.18225 0.08639 0.49906
 C257 C 0.20501 0.05987 0.49932
 C258 C 0.22363 0.03657 0.49953
 C259 C 0.65368 0.61645 0.00153
 C260 C 0.63290 0.63788 0.00132
 C261 C 0.60786 0.66225 0.00111
 C262 C 0.58585 0.68240 0.00095
 C263 C 0.55933 0.70515 0.00082
 C264 C 0.53605 0.72379 0.00074
 C265 C 0.88397 -0.15378 0.49858
 C266 C 0.86255 -0.13300 0.49876
 C267 C 0.83817 -0.10796 0.49895
 C268 C 0.81803 -0.08596 0.49911
 C269 C 0.79527 -0.05944 0.49928
 C270 C 0.77663 -0.03615 0.49942
 C271 C 0.34582 0.38408 1.00140
 C272 C 0.36658 0.36264 1.00109
 C273 C 0.39159 0.33823 1.00076
 C274 C 0.41357 0.31806 1.00051
 C275 C 0.44007 0.29529 1.00026
 C276 C 0.46336 0.27665 1.00010
 C277 C 0.88403 0.15410 0.50021
 C278 C 0.86258 0.13334 0.50008
 C279 C 0.83818 0.10832 0.49996
 C280 C 0.81801 0.08632 0.49987
 C281 C 0.79524 0.05980 0.49979
 C282 C 0.77660 0.03651 0.49972
 C283 C 0.34582 0.61637 0.00029
 C284 C 0.36658 0.63781 0.00050
 C285 C 0.39161 0.66221 0.00067
 C286 C 0.41361 0.68238 0.00077
 C287 C 0.44012 0.70515 0.00083
 C288 C 0.46341 0.72380 0.00083
 C289 C 0.11612 -0.15365 0.50085
 C290 C 0.13755 -0.13288 0.50069
 C291 C 0.16195 -0.10786 0.50053
 C292 C 0.18212 -0.08586 0.50039
 C293 C 0.20489 -0.05936 0.50023
 C294 C 0.22355 -0.03608 0.50008
 C295 C 0.65348 0.38422 0.99953
 C296 C 0.63273 0.36276 0.99970
 C297 C 0.60772 0.33835 0.99984
 C298 C 0.58574 0.31817 0.99993
 C299 C 0.55925 0.29538 1.00000
 C300 C 0.53598 0.27671 1.00001
 C301 C 0.49912 0.11564 1.15331
 C302 C 0.49928 0.13719 1.13265
 C303 C 0.49943 0.16173 1.10774
 C304 C 0.49954 0.18201 1.08584
 C305 C 0.49963 0.20492 1.05944
 C306 C 0.49968 0.22367 1.03622
 C307 C -0.00086 0.65372 0.61613
 C308 C -0.00063 0.63300 0.63762
 C309 C -0.00039 0.60801 0.66207
 C310 C -0.00021 0.58604 0.68228
 C311 C -0.00004 0.55954 0.70508
 C312 C 0.00005 0.53626 0.72375
 C313 C 0.49896 0.88389 -0.15346
 C314 C 0.49914 0.86247 -0.13266
 C315 C 0.49933 0.83811 -0.10759
 C316 C 0.49947 0.81797 -0.08555
 C317 C 0.49960 0.79523 -0.05899
 C318 C 0.49968 0.77661 -0.03566
 C319 C 0.99941 0.34563 0.38433
 C320 C 0.99968 0.36633 0.36281
 C321 C 0.99998 0.39128 0.33832
 C322 C 1.00019 0.41322 0.31807
 C323 C 1.00040 0.43967 0.29521
 C324 C 1.00052 0.46293 0.27650
 C325 C 0.50099 0.88451 0.15436
 C326 C 0.50072 0.86301 0.13364
 C327 C 0.50043 0.83855 0.10867
 C328 C 0.50020 0.81832 0.08672
 C329 C 0.49998 0.79547 0.06026
 C330 C 0.49984 0.77676 0.03700
 C331 C 0.00100 0.34657 0.61561
 C332 C 0.00080 0.36723 0.63717
 C333 C 0.00059 0.39212 0.66171
 C334 C 0.00043 0.41401 0.68201
 C335 C 0.00027 0.44042 0.70491
 C336 C 0.00017 0.46364 0.72365
 C337 C 0.50081 0.11626 0.84613
 C338 C 0.50056 0.13776 0.86684
 C339 C 0.50029 0.16221 0.89182
 C340 C 0.50008 0.18242 0.91379
 C341 C 0.49988 0.20522 0.94028
 C342 C 0.49976 0.22387 0.96358
 C343 C 1.00131 0.65330 0.38376
 C344 C 1.00115 0.63250 0.36234
 C345 C 1.00098 0.60744 0.33797
 C346 C 1.00085 0.58541 0.31783
 C347 C 1.00073 0.55888 0.29508
 C348 C 1.00065 0.53557 0.27644
 C349 C 1.15427 0.50056 0.11575
 C350 C 1.13354 0.50023 0.13725
 C351 C 1.10856 0.49987 0.16172
 C352 C 1.08660 0.49962 0.18194
 C353 C 1.06013 0.49939 0.20479
 C354 C 1.03687 0.49926 0.22349
 C355 C 0.61628 -0.00107 0.65360
 C356 C 0.63773 -0.00085 0.63283
 C357 C 0.66214 -0.00061 0.60780
 C358 C 0.68232 -0.00041 0.58580
 C359 C 0.70510 -0.00020 0.55927
 C360 C 0.72375 -0.00004 0.53597
 C361 C -0.15384 0.50095 0.88412
 C362 C -0.13309 0.50068 0.86265
 C363 C -0.10808 0.50039 0.83822
 C364 C -0.08609 0.50019 0.81803
 C365 C -0.05957 0.50001 0.79524
 C366 C -0.03628 0.49992 0.77659
 C367 C 0.38399 -0.00151 0.34590
 C368 C 0.36254 -0.00124 0.36667
 C369 C 0.33813 -0.00092 0.39170
 C370 C 0.31795 -0.00065 0.41369
 C371 C 0.29515 -0.00035 0.44021
 C372 C 0.27649 -0.00011 0.46350
 C373 C 0.15341 0.49939 0.88460
 C374 C 0.13275 0.49956 0.86306
 C375 C 0.10785 0.49971 0.83855
 C376 C 0.08595 0.49981 0.81828
 C377 C 0.05955 0.49988 0.79541
 C378 C 0.03633 0.49992 0.77669
 C379 C 0.61626 0.00056 0.34581
 C380 C 0.63771 0.00047 0.36655
 C381 C 0.66212 0.00040 0.39155
 C382 C 0.68230 0.00036 0.41353
 C383 C 0.70508 0.00031 0.44002
 C384 C 0.72374 0.00026 0.46330
 C385 C 0.84650 0.49897 0.11642
 C386 C 0.86730 0.49908 0.13782
 C387 C 0.89237 0.49917 0.16217
 C388 C 0.91440 0.49922 0.18229
 C389 C 0.94094 0.49925 0.20501
 C390 C 0.96425 0.49925 0.22362
 C391 C 0.38396 0.00103 0.65361
 C392 C 0.36249 0.00090 0.63288
 C393 C 0.33807 0.00077 0.60790
 C394 C 0.31788 0.00067 0.58593
 C395 C 0.29509 0.00055 0.55944
 C396 C 0.27644 0.00043 0.53616
   
