data_POSCAR
  _audit_creation_date              2014-09-24
  _audit_creation_method            'ToBaCCo'
  _symmetry_space_group_name_H-M    'P1'
  _symmetry_Int_Tables_number       1
  _symmetry_cell_setting            triclinic
  loop_
  _symmetry_equiv_pos_as_xyz
 x,y,z
_cell_length_a 56.3802
_cell_length_b 57.1697
_cell_length_c 57.4988
_cell_angle_alpha 89.429800
_cell_angle_beta 90.003100
_cell_angle_gamma 89.608300
loop_
  _atom_site_label
  _atom_site_type_symbol
  _atom_site_fract_x
  _atom_site_fract_y
  _atom_site_fract_z
N1 N 0.23542 0.23401 0.23688
 N2 N 0.68644 0.68828 0.68703
 N3 N 0.30762 0.81087 0.68321
 N4 N 0.81068 0.31325 0.17934
 N5 N 0.81601 0.68199 0.31389
 N6 N 0.31857 0.18223 -0.18459
 N7 N 0.68918 0.30797 -0.18711
 N8 N 0.18919 0.80600 0.31066
 N9 N 0.43357 0.43516 0.43722
 N10 N -0.01601 -0.02441 0.98138
 N11 N 1.06565 0.55832 0.93494
 N12 N 0.56464 0.06259 0.43518
 N13 N -0.06790 0.06725 0.56245
 N14 N 0.43176 0.56609 0.06378
 N15 N 0.56042 -0.06889 0.06313
 N16 N 1.00630 0.48287 0.51266
 C17 C 0.39354 0.00505 0.20487
 H18 H 0.38357 0.02124 0.20490
 C19 C 0.40778 -0.00039 0.18574
 H20 H 0.40856 0.01170 0.17116
 C21 C 0.40446 -0.03053 0.22359
 H22 H 0.40323 -0.04205 0.23858
 C23 C 0.41884 -0.03668 0.20486
 H24 H 0.42883 -0.05291 0.20569
 N25 N 0.39259 -0.00975 0.22351
 C26 C 0.33325 0.02523 0.24804
 H27 H 0.32407 0.00898 0.25107
 C28 C 0.32021 0.04600 0.24614
 H29 H 0.30106 0.04537 0.24721
 C30 C 0.36926 0.04588 0.24336
 H31 H 0.38843 0.04567 0.24270
 C32 C 0.35691 0.06707 0.24134
 H33 H 0.36675 0.08315 0.23921
 Zn34 Zn 0.37524 -0.00237 0.25068
 N35 N 0.35733 0.02550 0.24649
 C36 C 0.38748 0.00977 0.29643
 N37 N 0.39645 0.00262 0.27570
 C38 C 0.42024 0.00035 0.27240
 C39 C 0.43600 0.00494 0.29046
 C40 C 0.40263 0.01462 0.31498
 C41 C 0.33993 -0.03454 0.23998
 C42 C 0.32402 -0.05278 0.24377
 C43 C 0.33971 -0.05742 0.28266
 C44 C 0.35532 -0.03906 0.27812
 N45 N 0.35486 -0.02778 0.25719
 H46 H 0.36850 0.01182 0.29848
 H47 H 0.42715 -0.00463 0.25565
 H48 H 0.45488 0.00339 0.28732
 H49 H 0.39517 0.02011 0.33141
 H50 H 0.34024 -0.02551 0.22336
 H51 H 0.31223 -0.05783 0.22987
 H52 H 0.33990 -0.06576 0.29965
 H53 H 0.36762 -0.03375 0.29143
 C54 C 0.33204 0.06731 0.24282
 C55 C 0.42092 -0.02136 0.18573
 C56 C 0.32361 -0.06434 0.26543
 C57 C 0.42727 0.01220 0.31210
 C58 C 0.08566 -0.00448 0.71861
 H59 H 0.08498 -0.02111 0.72772
 C60 C 0.06926 0.00062 0.70105
 H61 H 0.05588 -0.01216 0.69685
 C62 C 0.10339 0.03271 0.71378
 H63 H 0.11648 0.04531 0.71902
 C64 C 0.08732 0.03855 0.69614
 H65 H 0.08856 0.05549 0.68766
 N66 N 0.10238 0.01142 0.72451
 C67 C 0.15956 -0.02887 0.75698
 H68 H 0.16088 -0.01980 0.77335
 C69 C 0.17540 -0.04697 0.75193
 H70 H 0.18865 -0.05198 0.76470
 C71 C 0.14070 -0.03313 0.72045
 H72 H 0.12751 -0.02733 0.70802
 C73 C 0.15620 -0.05135 0.71467
 H74 H 0.15473 -0.05939 0.69777
 Zn75 Zn 0.12320 0.00350 0.74922
 N76 N 0.14259 -0.02238 0.74137
 C77 C 0.10618 -0.02447 0.78689
 N78 N 0.10438 -0.00350 0.77562
 C79 C 0.08880 0.01320 0.78278
 C80 C 0.07491 0.00950 0.80255
 C81 C 0.09263 -0.02891 0.80676
 C82 C 0.15970 0.03493 0.73901
 C83 C 0.17644 0.05225 0.74333
 C84 C 0.16048 0.05612 0.78210
 C85 C 0.14406 0.03872 0.77704
 N86 N 0.14390 0.02858 0.75574
 H87 H 0.11819 -0.03776 0.78059
 H88 H 0.08752 0.02961 0.77332
 H89 H 0.06318 0.02332 0.80837
 H90 H 0.09437 -0.04566 0.81556
 H91 H 0.15944 0.02631 0.72234
 H92 H 0.18878 0.05714 0.72974
 H93 H 0.16066 0.06358 0.79933
 H94 H 0.13187 0.03299 0.79037
 C95 C 0.17394 -0.05840 0.73047
 C96 C 0.06993 0.02242 0.68958
 C97 C 0.17706 0.06300 0.76519
 C98 C 0.07691 -0.01170 0.81498
 C99 C 0.58577 0.49175 0.21896
 H100 H 0.58557 0.47498 0.22784
 C101 C 0.56932 0.49659 0.20140
 H102 H 0.55671 0.48327 0.19661
 C103 C 0.60247 0.52946 0.21460
 H104 H 0.61507 0.54241 0.22015
 C105 C 0.58632 0.53505 0.19693
 H106 H 0.58670 0.55232 0.18906
 N107 N 0.60198 0.50806 0.22513
 C108 C 0.65908 0.46830 0.25842
 H109 H 0.65976 0.47700 0.27503
 C110 C 0.67534 0.45055 0.25339
 H111 H 0.68829 0.44542 0.26641
 C112 C 0.64140 0.46468 0.22125
 H113 H 0.62853 0.47061 0.20855
 C114 C 0.65734 0.44683 0.21549
 H115 H 0.65651 0.43921 0.19835
 Zn116 Zn 0.62245 0.50040 0.25019
 N117 N 0.64249 0.47494 0.24246
 C118 C 0.60410 0.47120 0.28621
 N119 N 0.60297 0.49270 0.27591
 C120 C 0.58672 0.50892 0.28271
 C121 C 0.57081 0.50386 0.30064
 C122 C 0.58851 0.46539 0.30422
 C123 C 0.65838 0.53236 0.24067
 C124 C 0.67484 0.54985 0.24520
 C125 C 0.65835 0.55355 0.28378
 C126 C 0.64217 0.53597 0.27851
 N127 N 0.64247 0.52580 0.25722
 H128 H 0.61678 0.45836 0.28026
 H129 H 0.58591 0.52572 0.27390
 H130 H 0.55770 0.51686 0.30545
 H131 H 0.58975 0.44822 0.31227
 H132 H 0.65843 0.52374 0.22401
 H133 H 0.68728 0.55487 0.23174
 H134 H 0.65822 0.56105 0.30100
 H135 H 0.62981 0.53010 0.29163
 C136 C 0.67470 0.43964 0.23162
 C137 C 0.56937 0.51853 0.19019
 C138 C 0.67511 0.56057 0.26707
 C139 C 0.57148 0.48178 0.31157
 C140 C 0.88415 0.51011 0.70301
 H141 H 0.87136 0.52406 0.70504
 C142 C 0.89602 0.50782 0.68187
 H143 H 0.89221 0.52012 0.66791
 C144 C 0.90391 0.47663 0.71824
 H145 H 0.90688 0.46458 0.73259
 C146 C 0.91621 0.47367 0.69736
 H147 H 0.92883 0.45942 0.69584
 N148 N 0.88866 0.49496 0.72087
 C149 C 0.82852 0.52176 0.75072
 H150 H 0.82147 0.50460 0.75431
 C151 C 0.81296 0.54064 0.74786
 H152 H 0.79405 0.53761 0.74881
 C153 C 0.86157 0.54645 0.74465
 H154 H 0.88059 0.54848 0.74332
 C155 C 0.84663 0.56583 0.74157
 H156 H 0.85429 0.58282 0.73808
 Zn157 Zn 0.87333 0.49884 0.74996
 N158 N 0.85231 0.52483 0.74844
 C159 C 0.88801 0.50938 0.79543
 N160 N 0.89591 0.50478 0.77358
 C161 C 0.91941 0.50564 0.76831
 C162 C 0.93603 0.51085 0.78543
 C163 C 0.90406 0.51463 0.81313
 C164 C 0.84095 0.46402 0.73946
 C165 C 0.82602 0.44505 0.74343
 C166 C 0.84319 0.44044 0.78171
 C167 C 0.85785 0.45953 0.77697
 N168 N 0.85600 0.47126 0.75635
 H169 H 0.86918 0.50913 0.79904
 H170 H 0.92538 0.50257 0.75077
 H171 H 0.95466 0.51116 0.78090
 H172 H 0.89742 0.51847 0.83035
 H173 H 0.84009 0.47348 0.72308
 H174 H 0.81390 0.43982 0.72986
 H175 H 0.84421 0.43193 0.79859
 H176 H 0.87023 0.46526 0.79003
 C177 C 0.82194 0.56296 0.74277
 C178 C 0.91256 0.48962 0.67894
 C179 C 0.82664 0.43329 0.76498
 C180 C 0.92844 0.51548 0.80819
 C181 C 0.22061 0.40454 0.00914
 H182 H 0.23033 0.40615 0.02527
 C183 C 0.20210 0.42009 0.00401
 H184 H 0.19776 0.43370 0.01629
 C185 C 0.21552 0.38563 -0.02698
 H186 H 0.22110 0.37249 -0.03922
 C187 C 0.19690 0.40083 -0.03283
 H188 H 0.18802 0.39887 -0.04938
 N189 N 0.22694 0.38774 -0.00628
 C190 C 0.26545 0.33462 0.03380
 H191 H 0.28125 0.33321 0.02321
 C192 C 0.26327 0.32102 0.05394
 H193 H 0.27739 0.30893 0.05861
 C194 C 0.22783 0.35207 0.04035
 H195 H 0.21407 0.36420 0.03499
 C196 C 0.22490 0.33878 0.06067
 H197 H 0.20900 0.34113 0.07096
 Zn198 Zn 0.25383 0.36912 0.00114
 N199 N 0.24812 0.35015 0.02769
 C200 C 0.28984 0.38977 0.02844
 N201 N 0.27896 0.39000 0.00732
 C202 C 0.28449 0.40629 -0.00917
 C203 C 0.30159 0.42325 -0.00469
 C204 C 0.30702 0.40637 0.03363
 C205 C 0.24589 0.33196 -0.02906
 C206 C 0.25098 0.31601 -0.04663
 C207 C 0.28852 0.33524 -0.05276
 C208 C 0.28270 0.35084 -0.03508
 N209 N 0.26162 0.34902 -0.02373
 H210 H 0.28489 0.37707 0.04153
 H211 H 0.27523 0.40638 -0.02565
 H212 H 0.30534 0.43640 -0.01783
 H213 H 0.31548 0.40584 0.05054
 H214 H 0.22944 0.33065 -0.01946
 H215 H 0.23838 0.30234 -0.05034
 H216 H 0.30530 0.33710 -0.06173
 H217 H 0.29516 0.36424 -0.03032
 C218 C 0.24296 0.32328 0.06790
 C219 C 0.19009 0.41848 -0.01731
 C220 C 0.27258 0.31748 -0.05871
 C221 C 0.31294 0.42356 0.01706
 C222 C 0.71908 0.08245 -0.00792
 H223 H 0.72923 0.08172 -0.02387
 C224 C 0.70134 0.06605 -0.00364
 H225 H 0.69769 0.05293 -0.01658
 C226 C 0.71171 0.10046 0.02833
 H227 H 0.71616 0.11356 0.04098
 C228 C 0.69381 0.08441 0.03332
 H229 H 0.68466 0.08536 0.04985
 N230 N 0.72384 0.09928 0.00792
 C231 C 0.75841 0.15540 -0.03084
 H232 H 0.77450 0.15702 -0.02075
 C233 C 0.75388 0.17091 -0.04922
 H234 H 0.76658 0.18453 -0.05309
 C235 C 0.72176 0.13640 -0.03709
 H236 H 0.70908 0.12323 -0.03203
 C237 C 0.71651 0.15157 -0.05561
 H238 H 0.69997 0.14957 -0.06492
 Zn239 Zn 0.74918 0.11983 0.00136
 N240 N 0.74246 0.13855 -0.02517
 C241 C 0.78958 0.10282 -0.02328
 N242 N 0.77660 0.10123 -0.00340
 C243 C 0.78263 0.08588 0.01386
 C244 C 0.80291 0.07194 0.01188
 C245 C 0.81003 0.08917 -0.02600
 C246 C 0.73662 0.15623 0.03127
 C247 C 0.73990 0.17293 0.04852
 C248 C 0.77919 0.15718 0.05527
 C249 C 0.77518 0.14080 0.03790
 N250 N 0.75412 0.14056 0.02635
 H251 H 0.78425 0.11477 -0.03700
 H252 H 0.77174 0.08470 0.02931
 H253 H 0.80742 0.05987 0.02585
 H254 H 0.82048 0.09111 -0.04169
 H255 H 0.72019 0.15589 0.02157
 H256 H 0.72572 0.18520 0.05224
 H257 H 0.79627 0.15741 0.06388
 H258 H 0.78914 0.12868 0.03332
 C259 C 0.73261 0.16923 -0.06179
 C260 C 0.68849 0.06684 0.01727
 C261 C 0.76148 0.17363 0.06070
 C262 C 0.81706 0.07364 -0.00816
 C263 C 0.20744 0.59276 0.48672
 H264 H 0.21715 0.59369 0.47061
 C265 C 0.18657 0.57983 0.48773
 H266 H 0.18052 0.57098 0.47228
 C267 C 0.20402 0.60215 0.52659
 H268 H 0.21107 0.61048 0.54185
 C269 C 0.18305 0.58936 0.52838
 H270 H 0.17389 0.58853 0.54491
 N271 N 0.21559 0.60395 0.50587
 C272 C 0.24034 0.66608 0.48090
 H273 H 0.24067 0.67296 0.49826
 C274 C 0.23805 0.68160 0.46217
 H275 H 0.23608 0.70011 0.46555
 C276 C 0.24249 0.63392 0.45535
 H277 H 0.24503 0.61540 0.45273
 C278 C 0.24015 0.64886 0.43607
 H279 H 0.24050 0.64160 0.41875
 Zn280 Zn 0.24402 0.62165 0.50326
 N281 N 0.24192 0.64262 0.47731
 C282 C 0.29062 0.60959 0.49006
 N283 N 0.26978 0.60100 0.49831
 C284 C 0.26687 0.57772 0.50235
 C285 C 0.28531 0.56201 0.49788
 C286 C 0.30954 0.59446 0.48529
 C287 C 0.23111 0.65343 0.53822
 C288 C 0.23478 0.66864 0.55667
 C289 C 0.27476 0.65360 0.56027
 C290 C 0.27029 0.63859 0.54175
 N291 N 0.24892 0.63919 0.53076
 H292 H 0.29242 0.62819 0.48698
 H293 H 0.25015 0.57129 0.50892
 H294 H 0.28245 0.54350 0.50075
 H295 H 0.32601 0.60159 0.47875
 H296 H 0.21425 0.65357 0.52923
 H297 H 0.22047 0.68011 0.56202
 H298 H 0.29223 0.65363 0.56807
 H299 H 0.28420 0.62711 0.53564
 C300 C 0.23765 0.67304 0.43940
 C301 C 0.17396 0.57815 0.50871
 C302 C 0.25703 0.66928 0.56760
 C303 C 0.30697 0.57030 0.48910
 C304 C 0.72107 0.90777 0.50528
 H305 H 0.73038 0.90849 0.52171
 C306 C 0.70288 0.92375 0.50042
 H307 H 0.69838 0.93683 0.51321
 C308 C 0.71660 0.89051 0.46825
 H309 H 0.72230 0.87782 0.45560
 C310 C 0.69831 0.90619 0.46265
 H311 H 0.68977 0.90506 0.44584
 N312 N 0.72752 0.89154 0.48931
 C313 C 0.76347 0.83689 0.52961
 H314 H 0.78043 0.83647 0.52082
 C315 C 0.75890 0.82119 0.54778
 H316 H 0.77261 0.80892 0.55312
 C317 C 0.72497 0.85338 0.53311
 H318 H 0.71160 0.86558 0.52699
 C319 C 0.71965 0.83799 0.55136
 H320 H 0.70215 0.83854 0.55909
 Zn321 Zn 0.75372 0.87207 0.49685
 N322 N 0.74663 0.85262 0.52271
 C323 C 0.78981 0.89200 0.52494
 N324 N 0.77925 0.89218 0.50366
 C325 C 0.78534 0.90813 0.48705
 C326 C 0.80269 0.92478 0.49151
 C327 C 0.80727 0.90837 0.53014
 C328 C 0.74502 0.83594 0.46576
 C329 C 0.74993 0.81992 0.44820
 C330 C 0.78853 0.83743 0.44346
 C331 C 0.78287 0.85313 0.46111
 N332 N 0.76136 0.85217 0.47178
 H333 H 0.78429 0.87962 0.53813
 H334 H 0.77639 0.90809 0.47041
 H335 H 0.80730 0.93729 0.47801
 H336 H 0.81503 0.90834 0.54737
 H337 H 0.72823 0.83528 0.47485
 H338 H 0.73683 0.80687 0.44398
 H339 H 0.80568 0.83855 0.43507
 H340 H 0.79581 0.86583 0.46645
 C341 C 0.73669 0.82153 0.55885
 C342 C 0.69132 0.92318 0.47880
 C343 C 0.77198 0.82047 0.43685
 C344 C 0.81376 0.92520 0.51339
 C345 C 0.00478 0.22097 0.40917
 H346 H 0.02067 0.23130 0.41098
 C347 C -0.00008 0.20316 0.42521
 H348 H 0.01216 0.19997 0.43942
 C349 C -0.03104 0.21356 0.38907
 H350 H -0.04328 0.21795 0.37522
 C351 C -0.03661 0.19559 0.40474
 H352 H -0.05293 0.18601 0.40248
 N353 N -0.01060 0.22580 0.39152
 C354 C 0.03076 0.26276 0.33880
 H355 H 0.01977 0.27819 0.33652
 C356 C 0.05139 0.26014 0.32566
 H357 H 0.05633 0.27384 0.31349
 C358 C 0.03777 0.22642 0.35784
 H359 H 0.03224 0.21319 0.37019
 C360 C 0.05858 0.22309 0.34506
 H361 H 0.06888 0.20723 0.34773
 Zn362 Zn -0.00353 0.25164 0.37197
 N363 N 0.02456 0.24620 0.35477
 C364 C 0.02019 0.29102 0.39094
 N365 N 0.00015 0.27791 0.39141
 C366 C -0.01806 0.28310 0.40603
 C367 C -0.01699 0.30273 0.42019
 C368 C 0.02202 0.31083 0.40483
 C369 C -0.03292 0.24099 0.33399
 C370 C -0.05012 0.24520 0.31691
 C371 C -0.05729 0.28322 0.33355
 C372 C -0.04000 0.27830 0.35028
 N373 N -0.02828 0.25742 0.35029
 H374 H 0.03470 0.28635 0.37961
 H375 H -0.03362 0.27212 0.40635
 H376 H -0.03176 0.30666 0.43158
 H377 H 0.03780 0.32145 0.40367
 H378 H -0.02301 0.22472 0.33410
 H379 H -0.05329 0.23208 0.30384
 H380 H -0.06650 0.29989 0.33397
 H381 H -0.03574 0.29139 0.36298
 C382 C 0.06572 0.24016 0.32882
 C383 C -0.02110 0.19029 0.42321
 C384 C -0.06245 0.26664 0.31646
 C385 C 0.00312 0.31708 0.41949
 C386 C -0.00729 0.71207 0.08653
 H387 H -0.02391 0.72162 0.08566
 C388 C -0.00249 0.69444 0.07053
 H389 H -0.01549 0.69062 0.05727
 C390 C 0.03026 0.70633 0.10427
 H391 H 0.04317 0.71127 0.11716
 C392 C 0.03580 0.68860 0.08861
 H393 H 0.05279 0.67976 0.08998
 N394 N 0.00897 0.71760 0.10302
 C395 C -0.03040 0.75180 0.15859
 H396 H -0.02061 0.76796 0.15968
 C397 C -0.04853 0.74715 0.17447
 H398 H -0.05250 0.75982 0.18781
 C399 C -0.03609 0.71515 0.14062
 H400 H -0.03087 0.70253 0.12770
 C401 C -0.05434 0.70976 0.15617
 H402 H -0.06333 0.69316 0.15472
 Zn403 Zn 0.00185 0.74282 0.12298
 N404 N -0.02456 0.73590 0.14209
 C405 C -0.02482 0.78183 0.10561
 N406 N -0.00423 0.76941 0.10399
 C407 C 0.01286 0.77550 0.08843
 C408 C 0.01001 0.79530 0.07430
 C409 C -0.02841 0.80180 0.09180
 C410 C 0.03351 0.73184 0.15904
 C411 C 0.05152 0.73567 0.17521
 C412 C 0.05699 0.77423 0.15858
 C413 C 0.03888 0.76967 0.14275
 N414 N 0.02763 0.74869 0.14316
 H415 H -0.03844 0.77640 0.11767
 H416 H 0.02895 0.76514 0.08734
 H417 H 0.02417 0.80024 0.06256
 H418 H -0.04485 0.81154 0.09338
 H419 H 0.02402 0.71545 0.15922
 H420 H 0.05604 0.72197 0.18760
 H421 H 0.06538 0.79121 0.15827
 H422 H 0.03353 0.78312 0.13048
 C423 C -0.06066 0.72580 0.17351
 C424 C 0.01937 0.68253 0.07136
 C425 C 0.06346 0.75716 0.17517
 C426 C -0.01075 0.80890 0.07605
 C427 C 0.49362 0.21504 0.58833
 H428 H 0.47675 0.22415 0.58767
 C429 C 0.49849 0.19723 0.57257
 H430 H 0.48527 0.19282 0.55971
 C431 C 0.53174 0.21066 0.60523
 H432 H 0.54481 0.21621 0.61771
 C433 C 0.53737 0.19275 0.58978
 H434 H 0.55462 0.18439 0.59086
 N435 N 0.51013 0.22134 0.60428
 C436 C 0.47040 0.25580 0.65940
 H437 H 0.47939 0.27246 0.65974
 C438 C 0.45268 0.25090 0.67565
 H439 H 0.44820 0.26389 0.68854
 C440 C 0.46634 0.21823 0.64289
 H441 H 0.47203 0.20537 0.63040
 C442 C 0.44853 0.21259 0.65883
 H443 H 0.44034 0.19554 0.65810
 Zn444 Zn 0.50260 0.24691 0.62365
 N445 N 0.47685 0.23956 0.64345
 C446 C 0.47333 0.28314 0.60462
 N447 N 0.49494 0.27245 0.60380
 C448 C 0.51139 0.27873 0.58767
 C449 C 0.50647 0.29653 0.57157
 C450 C 0.46766 0.30105 0.58882
 C451 C 0.53506 0.23798 0.65931
 C452 C 0.55307 0.24275 0.67519
 C453 C 0.55724 0.28103 0.65754
 C454 C 0.53915 0.27551 0.64197
 N455 N 0.52852 0.25424 0.64309
 H456 H 0.46027 0.27751 0.61718
 H457 H 0.52832 0.26971 0.58722
 H458 H 0.51989 0.30137 0.55897
 H459 H 0.45020 0.30903 0.58943
 H460 H 0.52598 0.22138 0.66011
 H461 H 0.55766 0.22974 0.68827
 H462 H 0.56555 0.29802 0.65633
 H463 H 0.53338 0.28839 0.62929
 C464 C 0.44161 0.22897 0.67562
 C465 C 0.52067 0.18591 0.57307
 C466 C 0.56433 0.26459 0.67453
 C467 C 0.48430 0.30787 0.57191
 C468 C 0.50498 0.71830 0.90890
 H469 H 0.52182 0.72726 0.90941
 C470 C 0.50015 0.70056 0.92504
 H471 H 0.51336 0.69604 0.93802
 C472 C 0.46689 0.71428 0.89204
 H473 H 0.45381 0.71997 0.87946
 C474 C 0.46131 0.69646 0.90786
 H475 H 0.44408 0.68828 0.90693
 N476 N 0.48846 0.72476 0.89282
 C477 C 0.52765 0.75943 0.83713
 H478 H 0.51825 0.77599 0.83645
 C479 C 0.54567 0.75481 0.82115
 H480 H 0.54995 0.76789 0.80810
 C481 C 0.53257 0.72188 0.85436
 H482 H 0.52714 0.70895 0.86707
 C483 C 0.55069 0.71651 0.83869
 H484 H 0.55937 0.69958 0.83983
 Zn485 Zn 0.49574 0.75037 0.87306
 N486 N 0.52153 0.74309 0.85335
 C487 C 0.52484 0.78620 0.89141
 N488 N 0.50326 0.77576 0.89250
 C489 C 0.48693 0.78207 0.90870
 C490 C 0.49198 0.79960 0.92464
 C491 C 0.53064 0.80382 0.90703
 C492 C 0.46344 0.74172 0.83756
 C493 C 0.44531 0.74654 0.82167
 C494 C 0.44051 0.78468 0.83885
 C495 C 0.45873 0.77911 0.85445
 N496 N 0.46972 0.75789 0.85357
 H497 H 0.53778 0.78063 0.87874
 H498 H 0.47008 0.77314 0.90946
 H499 H 0.47892 0.80399 0.93773
 H500 H 0.54789 0.81196 0.90587
 H501 H 0.47280 0.72516 0.83697
 H502 H 0.44092 0.73360 0.80877
 H503 H 0.43189 0.80162 0.83986
 H504 H 0.46430 0.79190 0.86698
 C505 C 0.55738 0.73306 0.82173
 C506 C 0.47799 0.68949 0.92476
 C507 C 0.43366 0.76832 0.82209
 C508 C 0.51416 0.81061 0.92405
 C509 C 0.11082 0.24260 0.27982
 C510 C 0.13122 0.23405 0.29097
 C511 C 0.13007 0.22690 0.31429
 C512 C 0.10869 0.22855 0.32651
 C513 C 0.21340 0.23340 0.24762
 C514 C 0.08943 0.24428 0.29200
 C515 C 0.15348 0.23330 0.27873
 C516 C 0.17224 0.23302 0.26868
 C517 C 0.19436 0.23307 0.25719
 C518 C 0.08816 0.23743 0.31555
 H519 H 0.11150 0.24816 0.26176
 H520 H 0.14578 0.22036 0.32312
 H521 H 0.10838 0.22343 0.34468
 H522 H 0.07387 0.25089 0.28300
 C523 C 0.60943 0.73929 0.78024
 C524 C 0.61013 0.71712 0.77016
 C525 C 0.59391 0.70005 0.77722
 C526 C 0.57693 0.70514 0.79416
 C527 C 0.67103 0.69533 0.70445
 C528 C 0.59244 0.74444 0.79719
 C529 C 0.62722 0.71188 0.75234
 C530 C 0.64128 0.70712 0.73730
 C531 C 0.65744 0.70104 0.71960
 C532 C 0.57593 0.72744 0.80428
 H533 H 0.62194 0.75262 0.77494
 H534 H 0.59425 0.68285 0.76947
 H535 H 0.56427 0.69179 0.79898
 H536 H 0.59229 0.76167 0.80485
 C537 C 0.38172 0.76255 0.78055
 C538 C 0.38118 0.78475 0.77010
 C539 C 0.39735 0.80177 0.77706
 C540 C 0.41418 0.79655 0.79422
 C541 C 0.32231 0.80491 0.70172
 C542 C 0.39855 0.75727 0.79771
 C543 C 0.36451 0.78994 0.75178
 C544 C 0.35089 0.79445 0.73619
 C545 C 0.33531 0.79995 0.71770
 C546 C 0.41509 0.77418 0.80463
 H547 H 0.36926 0.74925 0.77530
 H548 H 0.39716 0.81899 0.76901
 H549 H 0.42687 0.80983 0.79892
 H550 H 0.39862 0.74000 0.80559
 C551 C -0.11275 0.26014 0.27303
 C552 C -0.11371 0.28260 0.26311
 C553 C -0.09789 0.29972 0.27053
 C554 C -0.08123 0.29450 0.28782
 C555 C -0.17421 0.30607 0.19712
 C556 C -0.09605 0.25486 0.29035
 C557 C -0.13076 0.28821 0.24525
 C558 C -0.14477 0.29343 0.23019
 C559 C -0.16082 0.30006 0.21244
 C560 C -0.08014 0.27202 0.29799
 H561 H -0.12493 0.24675 0.26742
 H562 H -0.09839 0.31712 0.26290
 H563 H -0.06898 0.30798 0.29303
 H564 H -0.09581 0.23747 0.29799
 C565 C -0.11164 0.73186 0.21629
 C566 C -0.11242 0.70934 0.22601
 C567 C -0.09678 0.69205 0.21812
 C568 C -0.08023 0.69729 0.20077
 C569 C -0.16979 0.68837 0.29520
 C570 C -0.09508 0.73715 0.19894
 C571 C -0.12874 0.70408 0.24457
 C572 C -0.14204 0.69942 0.26034
 C573 C -0.15719 0.69364 0.27905
 C574 C -0.07906 0.71996 0.19109
 H575 H -0.12368 0.74538 0.22226
 H576 H -0.09716 0.67459 0.22560
 H577 H -0.06793 0.68376 0.19538
 H578 H -0.09481 0.75469 0.19164
 C579 C 0.39041 0.23409 0.71829
 C580 C 0.39069 0.21186 0.72871
 C581 C 0.40723 0.19510 0.72146
 C582 C 0.42358 0.20057 0.70400
 C583 C 0.33299 0.18924 0.79711
 C584 C 0.40677 0.23961 0.70082
 C585 C 0.37436 0.20628 0.74717
 C586 C 0.36102 0.20128 0.76279
 C587 C 0.34575 0.19500 0.78125
 C588 C 0.42362 0.22293 0.69355
 H589 H 0.37766 0.24718 0.72375
 H590 H 0.40766 0.17787 0.72947
 H591 H 0.43654 0.18747 0.69907
 H592 H 0.40618 0.25688 0.69294
 C593 C 0.59993 0.29802 0.71912
 C594 C 0.61641 0.28107 0.72639
 C595 C 0.61628 0.25888 0.71634
 C596 C 0.59956 0.25358 0.69924
 C597 C 0.67475 0.30179 0.79443
 C598 C 0.58321 0.29277 0.70203
 C599 C 0.63299 0.28633 0.74461
 C600 C 0.64652 0.29095 0.76011
 C601 C 0.66193 0.29664 0.77852
 C602 C 0.58273 0.27043 0.69199
 H603 H 0.59980 0.31522 0.72687
 H604 H 0.62897 0.24563 0.72182
 H605 H 0.59982 0.23632 0.69165
 H606 H 0.57030 0.30602 0.69710
 C607 C 0.09589 0.76038 0.23288
 C608 C 0.11606 0.77312 0.22667
 C609 C 0.11940 0.78011 0.20351
 C610 C 0.10249 0.77462 0.18667
 C611 C 0.17484 0.79870 0.29257
 C612 C 0.07896 0.75487 0.21607
 C613 C 0.13285 0.77970 0.24424
 C614 C 0.14651 0.78547 0.25921
 C615 C 0.16202 0.79249 0.27705
 C616 C 0.08198 0.76208 0.19279
 H617 H 0.09306 0.75499 0.25078
 H618 H 0.13496 0.78998 0.19852
 H619 H 0.10546 0.78017 0.16885
 H620 H 0.06322 0.74549 0.22142
 C621 C 0.31249 0.12846 0.22444
 C622 C 0.29311 0.13220 0.23919
 C623 C 0.28638 0.11473 0.25501
 C624 C 0.29897 0.09361 0.25613
 C625 C 0.24705 0.21255 0.23710
 C626 C 0.32513 0.10735 0.22554
 C627 C 0.28032 0.15407 0.23834
 C628 C 0.26968 0.17242 0.23781
 C629 C 0.25737 0.19400 0.23736
 C630 C 0.31852 0.08968 0.24143
 H631 H 0.31784 0.14187 0.21211
 H632 H 0.27147 0.11748 0.26659
 H633 H 0.29365 0.08051 0.26879
 H634 H 0.33992 0.10475 0.21381
 C635 C 0.76794 0.60291 0.74396
 C636 C 0.77247 0.61775 0.72499
 C637 C 0.79376 0.61554 0.71268
 C638 C 0.81022 0.59819 0.71894
 C639 C 0.70509 0.67460 0.69528
 C640 C 0.78436 0.58554 0.75024
 C641 C 0.75466 0.63424 0.71732
 C642 C 0.73937 0.64748 0.71057
 C643 C 0.72107 0.66237 0.70240
 C644 C 0.80553 0.58275 0.73757
 H645 H 0.75151 0.60447 0.75360
 H646 H 0.79738 0.62684 0.69788
 H647 H 0.82619 0.59629 0.70865
 H648 H 0.78038 0.57411 0.76483
 C649 C 0.76896 0.39975 0.76882
 C650 C 0.77574 0.38009 0.78194
 C651 C 0.79935 0.37745 0.78911
 C652 C 0.81607 0.39455 0.78336
 C653 C 0.70816 0.32186 0.80631
 C654 C 0.78559 0.41683 0.76307
 C655 C 0.75816 0.36315 0.78857
 C656 C 0.74287 0.34956 0.79413
 C657 C 0.72438 0.33433 0.80067
 C658 C 0.80933 0.41451 0.77035
 H659 H 0.75070 0.40205 0.76331
 H660 H 0.80479 0.36229 0.79929
 H661 H 0.83424 0.39215 0.78903
 H662 H 0.77972 0.43216 0.75341
 C663 C 0.29590 -0.12045 0.28822
 C664 C 0.27253 -0.11795 0.28032
 C665 C 0.26598 -0.09821 0.26720
 C666 C 0.28265 -0.08091 0.26215
 C667 C 0.20704 -0.17890 0.30368
 C668 C 0.31262 -0.10315 0.28320
 C669 C 0.25505 -0.13524 0.28625
 C670 C 0.24014 -0.14937 0.29146
 C671 C 0.22241 -0.16549 0.29787
 C672 C 0.30614 -0.08312 0.27019
 H673 H 0.30116 -0.13567 0.29839
 H674 H 0.24790 -0.09603 0.26112
 H675 H 0.27701 -0.06555 0.25240
 H676 H 0.33062 -0.10550 0.28939
 C677 C 0.20039 -0.11449 0.70641
 C678 C 0.22431 -0.11206 0.71241
 C679 C 0.23170 -0.09223 0.72441
 C680 C 0.21532 -0.07486 0.73036
 C681 C 0.28944 -0.17391 0.68930
 C682 C 0.18394 -0.09710 0.71233
 C683 C 0.24142 -0.12965 0.70602
 C684 C 0.25617 -0.14401 0.70073
 C685 C 0.27390 -0.16035 0.69456
 C686 C 0.19124 -0.07707 0.72437
 H687 H 0.19447 -0.12978 0.69712
 H688 H 0.25019 -0.09012 0.72904
 H689 H 0.22157 -0.05950 0.73928
 H690 H 0.16550 -0.09943 0.70770
 C691 C 0.73321 0.40696 0.22597
 C692 C 0.72649 0.38748 0.21305
 C693 C 0.70277 0.38482 0.20648
 C694 C 0.68585 0.40165 0.21266
 C695 C 0.79259 0.32797 0.18675
 C696 C 0.71634 0.42380 0.23218
 C697 C 0.74410 0.37059 0.20611
 C698 C 0.75914 0.35680 0.20016
 C699 C 0.77704 0.34106 0.19302
 C700 C 0.69247 0.42139 0.22552
 H701 H 0.75155 0.40926 0.23104
 H702 H 0.69737 0.36980 0.19648
 H703 H 0.66757 0.39917 0.20751
 H704 H 0.72209 0.43895 0.24177
 C705 C 0.70486 0.61439 0.29175
 C706 C 0.72826 0.61120 0.28422
 C707 C 0.73419 0.59172 0.27084
 C708 C 0.71687 0.57539 0.26510
 C709 C 0.79696 0.66816 0.30762
 C710 C 0.68748 0.59806 0.28603
 C711 C 0.74639 0.62754 0.29060
 C712 C 0.76198 0.64079 0.29594
 C713 C 0.78065 0.65579 0.30222
 C714 C 0.69331 0.57832 0.27269
 H715 H 0.70007 0.62942 0.30212
 H716 H 0.75227 0.58900 0.26503
 H717 H 0.72203 0.56021 0.25514
 H718 H 0.66946 0.60093 0.29192
 C719 C 0.20737 0.11638 0.79005
 C720 C 0.23075 0.11297 0.78256
 C721 C 0.23645 0.09360 0.76892
 C722 C 0.21893 0.07755 0.76297
 C723 C 0.29962 0.16865 0.80839
 C724 C 0.18981 0.10033 0.78413
 C725 C 0.24908 0.12889 0.78943
 C726 C 0.26472 0.14183 0.79532
 C727 C 0.28337 0.15651 0.80233
 C728 C 0.19543 0.08064 0.77064
 H729 H 0.20276 0.13132 0.80061
 H730 H 0.25452 0.09073 0.76313
 H731 H 0.22391 0.06241 0.75287
 H732 H 0.17183 0.10334 0.79007
 C733 C 0.21761 0.28865 0.11881
 C734 C 0.23757 0.28626 0.13315
 C735 C 0.25925 0.29569 0.12605
 C736 C 0.26100 0.30755 0.10478
 C737 C 0.23489 0.24449 0.21501
 C738 C 0.21932 0.30054 0.09749
 C739 C 0.23592 0.27444 0.15530
 C740 C 0.23510 0.26478 0.17402
 C741 C 0.23474 0.25374 0.19607
 C742 C 0.24105 0.31016 0.09025
 H743 H 0.20074 0.28139 0.12413
 H744 H 0.27478 0.29403 0.13706
 H745 H 0.27788 0.31507 0.09991
 H746 H 0.20371 0.30206 0.08659
 C747 C 0.71175 0.79460 0.61428
 C748 C 0.71917 0.77130 0.61221
 C749 C 0.73268 0.76452 0.59297
 C750 C 0.73860 0.78090 0.57577
 C751 C 0.69357 0.70633 0.67238
 C752 C 0.71765 0.81102 0.59707
 C753 C 0.71241 0.75413 0.62940
 C754 C 0.70660 0.73940 0.64339
 C755 C 0.69965 0.72176 0.65927
 C756 C 0.73105 0.80433 0.57755
 H757 H 0.70129 0.80003 0.62910
 H758 H 0.73840 0.74651 0.59113
 H759 H 0.74862 0.77511 0.56081
 H760 H 0.71181 0.82897 0.59908
 C761 C 0.80601 0.77572 0.40143
 C762 C 0.78874 0.76866 0.38554
 C763 C 0.76613 0.77889 0.38606
 C764 C 0.76073 0.79594 0.40255
 C765 C 0.80976 0.70058 0.32801
 C766 C 0.80066 0.79277 0.41792
 C767 C 0.79411 0.75048 0.36916
 C768 C 0.79880 0.73500 0.35581
 C769 C 0.80457 0.71657 0.34061
 C770 C 0.77791 0.80299 0.41876
 H771 H 0.82354 0.76784 0.40126
 H772 H 0.75262 0.77357 0.37383
 H773 H 0.74314 0.80368 0.40257
 H774 H 0.81417 0.79754 0.43035
 C775 C 0.26691 0.27577 -0.10942
 C776 C 0.28997 0.26667 -0.11081
 C777 C 0.30742 0.27445 -0.09547
 C778 C 0.30184 0.29113 -0.07868
 C779 C 0.31209 0.20035 -0.16997
 C780 C 0.26128 0.29246 -0.09263
 C781 C 0.29565 0.24894 -0.12757
 C782 C 0.30060 0.23386 -0.14129
 C783 C 0.30666 0.21592 -0.15696
 C784 C 0.27866 0.30026 -0.07699
 H785 H 0.25326 0.26989 -0.12122
 H786 H 0.32530 0.26743 -0.09631
 H787 H 0.31554 0.29650 -0.06671
 H788 H 0.24336 0.29935 -0.09196
 C789 C 0.73935 0.21130 -0.11287
 C790 C 0.71638 0.22058 -0.11467
 C791 C 0.69858 0.21259 -0.09967
 C792 C 0.70376 0.19560 -0.08274
 C793 C 0.69553 0.28923 -0.17287
 C794 C 0.74458 0.19431 -0.09593
 C795 C 0.71117 0.23887 -0.13131
 C796 C 0.70655 0.25449 -0.14483
 C797 C 0.70079 0.27309 -0.16017
 C798 C 0.72687 0.18639 -0.08055
 H799 H 0.75326 0.21737 -0.12440
 H800 H 0.68077 0.21974 -0.10083
 H801 H 0.68983 0.19015 -0.07097
 H802 H 0.76247 0.18736 -0.09486
 C803 C 0.21356 0.69966 0.38343
 C804 C 0.22401 0.72179 0.38360
 C805 C 0.23994 0.72749 0.40128
 C806 C 0.24495 0.71137 0.41906
 C807 C 0.19717 0.78781 0.32482
 C808 C 0.21857 0.68347 0.40119
 C809 C 0.21733 0.73920 0.36654
 C810 C 0.21133 0.75420 0.35285
 C811 C 0.20387 0.77217 0.33747
 C812 C 0.23402 0.68932 0.41942
 H813 H 0.20109 0.69512 0.36989
 H814 H 0.24813 0.74458 0.40159
 H815 H 0.25717 0.71625 0.43268
 H816 H 0.20969 0.66674 0.40113
 C817 C 0.28222 0.69926 0.62083
 C818 C 0.27371 0.72213 0.61761
 C819 C 0.25920 0.72749 0.59854
 C820 C 0.25346 0.71019 0.58257
 C821 C 0.30002 0.79173 0.67065
 C822 C 0.27647 0.68188 0.60485
 C823 C 0.28061 0.74045 0.63317
 C824 C 0.28652 0.75627 0.64556
 C825 C 0.29366 0.77524 0.65937
 C826 C 0.26215 0.68720 0.58542
 H827 H 0.29350 0.69493 0.63553
 H828 H 0.25267 0.74517 0.59578
 H829 H 0.24277 0.71500 0.56760
 H830 H 0.28326 0.66431 0.60764
 C831 C 0.78371 0.20409 0.11479
 C832 C 0.77645 0.22717 0.11046
 C833 C 0.76361 0.23262 0.09027
 C834 C 0.75834 0.21513 0.07430
 C835 C 0.80280 0.29498 0.16573
 C836 C 0.77848 0.18656 0.09883
 C837 C 0.78299 0.24545 0.12620
 C838 C 0.78888 0.26091 0.13902
 C839 C 0.79620 0.27920 0.15361
 C840 C 0.76591 0.19193 0.07829
 H841 H 0.79367 0.19968 0.13037
 H842 H 0.75802 0.25047 0.08668
 H843 H 0.74894 0.21990 0.05851
 H844 H 0.78430 0.16882 0.10253
 C845 C 0.45921 0.36314 0.54377
 C846 C 0.46618 0.36027 0.52060
 C847 C 0.47931 0.34047 0.51428
 C848 C 0.48535 0.32355 0.53099
 C849 C 0.44075 0.42029 0.45512
 C850 C 0.46522 0.34621 0.56053
 C851 C 0.45946 0.37729 0.50316
 C852 C 0.45372 0.39120 0.48826
 C853 C 0.44683 0.40707 0.47052
 C854 C 0.47831 0.32617 0.55431
 H855 H 0.44904 0.37840 0.54886
 H856 H 0.48469 0.33801 0.49637
 H857 H 0.49511 0.30817 0.52556
 H858 H 0.45978 0.34886 0.57837
 C859 C -0.02499 0.87177 0.05914
 C860 C -0.01676 0.87270 0.03619
 C861 C -0.00728 0.85258 0.02598
 C862 C -0.00571 0.83170 0.03878
 C863 C -0.01668 0.95370 -0.00801
 C864 C -0.02344 0.85092 0.07197
 C865 C -0.01726 0.89451 0.02348
 C866 C -0.01734 0.91298 0.01317
 C867 C -0.01711 0.93483 0.00154
 C868 C -0.01358 0.83068 0.06200
 H869 H -0.03225 0.88728 0.06726
 H870 H -0.00087 0.85310 0.00822
 H871 H 0.00169 0.81635 0.03052
 H872 H -0.02936 0.85080 0.08988
 C873 C 0.01357 0.63181 0.02957
 C874 C 0.03638 0.63087 0.02000
 C875 C 0.05368 0.64653 0.02745
 C876 C 0.04821 0.66318 0.04429
 C877 C 0.05889 0.57258 -0.04681
 C878 C 0.00804 0.64847 0.04642
 C879 C 0.04198 0.61425 0.00214
 C880 C 0.04700 0.60071 -0.01305
 C881 C 0.05325 0.58532 -0.03112
 C882 C 0.02530 0.66440 0.05392
 H883 H 0.00003 0.61976 0.02393
 H884 H 0.07136 0.64604 0.02007
 H885 H 0.06179 0.67540 0.04941
 H886 H -0.00967 0.64880 0.05369
 C887 C 0.51490 0.13466 0.53194
 C888 C 0.53737 0.13427 0.52160
 C889 C 0.55454 0.15035 0.52848
 C890 C 0.54922 0.16692 0.54544
 C891 C 0.55834 0.07671 0.45370
 C892 C 0.50953 0.15124 0.54891
 C893 C 0.54268 0.11785 0.50347
 C894 C 0.54735 0.10449 0.48802
 C895 C 0.55312 0.08930 0.46964
 C896 C 0.52660 0.16766 0.55576
 H897 H 0.50148 0.12228 0.52676
 H898 H 0.57195 0.15028 0.52051
 H899 H 0.56263 0.17952 0.55006
 H900 H 0.49206 0.15118 0.55672
 C901 C -0.01514 0.14064 0.46729
 C902 C -0.03842 0.13892 0.47557
 C903 C -0.05612 0.15355 0.46632
 C904 C -0.05057 0.17000 0.44906
 C905 C -0.06103 0.08152 0.54402
 C906 C -0.00954 0.15710 0.45003
 C907 C -0.04409 0.12264 0.49397
 C908 C -0.04911 0.10935 0.50959
 C909 C -0.05535 0.09417 0.52808
 C910 C -0.02717 0.17208 0.44081
 H911 H -0.00130 0.12939 0.47431
 H912 H -0.07418 0.15244 0.47267
 H913 H -0.06447 0.18149 0.44259
 H914 H 0.00857 0.15808 0.44385
 C915 C 0.44395 0.65460 0.97006
 C916 C 0.46106 0.63827 0.97734
 C917 C 0.48359 0.63833 0.96711
 C918 C 0.48906 0.65479 0.94981
 C919 C 0.43868 0.58044 1.04545
 C920 C 0.44937 0.67106 0.95277
 C921 C 0.45555 0.62186 0.99566
 C922 C 0.45061 0.60846 1.01120
 C923 C 0.44439 0.59318 1.02960
 C924 C 0.47202 0.67143 0.94251
 H925 H 0.42649 0.65479 0.97793
 H926 H 0.49696 0.62574 0.97261
 H927 H 0.50656 0.65446 0.94207
 H928 H 0.43599 0.68384 0.94781
 C929 C 0.50914 0.86114 0.96620
 C930 C 0.53175 0.86094 0.97625
 C931 C 0.54875 0.84469 0.96887
 C932 C 0.54313 0.82854 0.95168
 C933 C 0.55391 0.91719 1.04461
 C934 C 0.50347 0.84499 0.94899
 C935 C 0.53740 0.87694 0.99457
 C936 C 0.54236 0.88997 1.01015
 C937 C 0.54845 0.90482 1.02863
 C938 C 0.52038 0.82841 0.94163
 H939 H 0.49585 0.87366 0.97177
 H940 H 0.56627 0.84431 0.97662
 H941 H 0.55642 0.81580 0.94666
 H942 H 0.48590 0.84550 0.94140
 C943 C -0.01516 0.37394 0.44806
 C944 C 0.00601 0.38064 0.45869
 C945 C 0.02620 0.36640 0.45689
 C946 C 0.02527 0.34559 0.44433
 C947 C 0.00706 0.46123 0.50197
 C948 C -0.01614 0.35316 0.43552
 C949 C 0.00699 0.40239 0.47104
 C950 C 0.00741 0.42079 0.48107
 C951 C 0.00743 0.44252 0.49248
 C952 C 0.00408 0.33878 0.43343
 H953 H -0.03087 0.38489 0.44926
 H954 H 0.04268 0.37143 0.46508
 H955 H 0.04106 0.33477 0.44326
 H956 H -0.03260 0.34861 0.42705
 C957 C 0.34854 0.51784 0.49180
 C958 C 0.36141 0.52064 0.47116
 C959 C 0.35714 0.54015 0.45682
 C960 C 0.33979 0.55659 0.46290
 C961 C 0.41953 0.45366 0.44466
 C962 C 0.33118 0.53424 0.49789
 C963 C 0.37815 0.50293 0.46419
 C964 C 0.39168 0.48772 0.45820
 C965 C 0.40696 0.46952 0.45098
 C966 C 0.32642 0.55367 0.48338
 H967 H 0.35170 0.50280 0.50302
 H968 H 0.36690 0.54242 0.44074
 H969 H 0.33635 0.57120 0.45122
 H970 H 0.32141 0.53167 0.51392
 C971 C 0.86673 0.03646 -0.03335
 C972 C 0.88152 0.03349 -0.01397
 C973 C 0.87519 0.04349 0.00727
 C974 C 0.85420 0.05645 0.00916
 C975 C 0.96230 -0.01283 -0.01836
 C976 C 0.84571 0.04945 -0.03150
 C977 C 0.90334 0.02044 -0.01582
 C978 C 0.92178 0.00972 -0.01697
 C979 C 0.94355 -0.00256 -0.01790
 C980 C 0.83921 0.05961 -0.01021
 H981 H 0.87146 0.02877 -0.04987
 H982 H 0.88656 0.04138 0.02235
 H983 H 0.84989 0.06433 0.02569
 H984 H 0.83442 0.05135 -0.04665
 C985 C 0.65682 0.00865 0.02234
 C986 C 0.63582 0.01516 0.03357
 C987 C 0.63182 0.03862 0.03919
 C988 C 0.64884 0.05550 0.03374
 C989 C 0.57536 -0.05075 0.05674
 C990 C 0.67385 0.02548 0.01686
 C991 C 0.61866 -0.00237 0.03973
 C992 C 0.60465 -0.01734 0.04499
 C993 C 0.58865 -0.03520 0.05127
 C994 C 0.67010 0.04909 0.02257
 H995 H 0.66015 -0.00948 0.01801
 H996 H 0.61560 0.04385 0.04788
 H997 H 0.64531 0.07356 0.03812
 H998 H 0.69016 0.01992 0.00859
 C999 C 0.12504 0.53805 0.53033
 C1000 C 0.10887 0.53947 0.51188
 C1001 C 0.11391 0.55358 0.49252
 C1002 C 0.13503 0.56618 0.49153
 C1003 C 0.02806 0.49403 0.51301
 C1004 C 0.14620 0.55067 0.52939
 C1005 C 0.08705 0.52659 0.51274
 C1006 C 0.06861 0.51604 0.51310
 C1007 C 0.04684 0.50400 0.51317
 C1008 C 0.15145 0.56485 0.50994
 H1009 H 0.12132 0.52715 0.54540
 H1010 H 0.10148 0.55489 0.47818
 H1011 H 0.13839 0.57720 0.47648
 H1012 H 0.15859 0.54907 0.54371
 C1013 C 0.13818 0.46093 -0.01279
 C1014 C 0.13732 0.47021 -0.03539
 C1015 C 0.15320 0.46209 -0.05223
 C1016 C 0.17008 0.44498 -0.04646
 C1017 C 0.07965 0.53941 -0.05826
 C1018 C 0.15506 0.44380 -0.00697
 C1019 C 0.12076 0.48864 -0.04119
 C1020 C 0.10735 0.50439 -0.04629
 C1021 C 0.09217 0.52314 -0.05259
 C1022 C 0.17133 0.43576 -0.02370
 H1023 H 0.12597 0.46708 0.00038
 H1024 H 0.15278 0.46925 -0.06975
 H1025 H 0.18256 0.43944 -0.05964
 H1026 H 0.15540 0.43686 0.01062
 C1027 C 0.63923 0.96524 0.48436
 C1028 C 0.63874 0.97557 0.46220
 C1029 C 0.65499 0.96835 0.44529
 C1030 C 0.67185 0.95107 0.45057
 C1031 C 0.57949 1.04413 0.44144
 C1032 C 0.65609 0.94795 0.48969
 C1033 C 0.62200 0.99398 0.45692
 C1034 C 0.60830 1.00963 0.45230
 C1035 C 0.59261 1.02816 0.44661
 C1036 C 0.67270 0.94077 0.47289
 H1037 H 0.62670 0.97067 0.49757
 H1038 H 0.65483 0.97630 0.42811
 H1039 H 0.68460 0.94618 0.43737
 H1040 H 0.65611 0.94016 0.50694
 C1041 C 0.86740 0.95610 0.53831
 C1042 C 0.86331 0.97914 0.53081
 C1043 C 0.84333 0.98445 0.51728
 C1044 C 0.82739 0.96687 0.51140
 C1045 C 0.91861 1.04831 0.55562
 C1046 C 0.85145 0.93846 0.53246
 C1047 C 0.87918 0.99753 0.53745
 C1048 C 0.89203 1.01326 0.54308
 C1049 C 0.90658 1.03202 0.54978
 C1050 C 0.83120 0.94367 0.51901
 H1051 H 0.88282 0.95179 0.54880
 H1052 H 0.83992 1.00226 0.51149
 H1053 H 0.81179 0.97154 0.50136
 H1054 H 0.85501 0.92074 0.53836
 C1055 C 0.36251 0.46802 0.01163
 C1056 C 0.36211 0.47808 0.03373
 C1057 C 0.34584 0.47022 0.05036
 C1058 C 0.32997 0.45242 0.04496
 C1059 C 0.41801 0.54737 0.05686
 C1060 C 0.34662 0.45019 0.00618
 C1061 C 0.37805 0.49674 0.03937
 C1062 C 0.39103 0.51254 0.04454
 C1063 C 0.40578 0.53123 0.05102
 C1064 C 0.33015 0.44220 0.02280
 H1065 H 0.37505 0.47398 -0.00138
 H1066 H 0.34528 0.47797 0.06748
 H1067 H 0.31726 0.44697 0.05801
 H1068 H 0.34734 0.44252 -0.01095
 C1069 C 0.52656 0.44775 0.34729
 C1070 C 0.51966 0.46436 0.36372
 C1071 C 0.53003 0.48654 0.36344
 C1072 C 0.54709 0.49216 0.34666
 C1073 C 0.45195 0.44193 0.42265
 C1074 C 0.54361 0.45332 0.33052
 C1075 C 0.50153 0.45873 0.38045
 C1076 C 0.48611 0.45374 0.39412
 C1077 C 0.46780 0.44755 0.40970
 C1078 C 0.55399 0.47564 0.32993
 H1079 H 0.51857 0.43057 0.34728
 H1080 H 0.52483 0.49952 0.37609
 H1081 H 0.55494 0.50938 0.34683
 H1082 H 0.54825 0.44034 0.31769
 C1083 C 0.02710 -0.01025 0.85942
 C1084 C 0.03799 -0.02092 0.87869
 C1085 C 0.06133 -0.02920 0.87693
 C1086 C 0.07385 -0.02656 0.85610
 C1087 C -0.00538 -0.02451 0.95962
 C1088 C 0.03959 -0.00757 0.83857
 C1089 C 0.02560 -0.02259 0.90052
 C1090 C 0.01553 -0.02359 0.91899
 C1091 C 0.00409 -0.02430 0.94082
 C1092 C 0.06319 -0.01553 0.83672
 H1093 H 0.00903 -0.00377 0.86059
 H1094 H 0.06998 -0.03737 0.89178
 H1095 H 0.09208 -0.03258 0.85536
 H1096 H 0.03079 0.00072 0.82388
 C1097 C 0.02809 0.01724 0.63812
 C1098 C 0.01804 0.03968 0.63720
 C1099 C 0.02517 0.05656 0.65316
 C1100 C 0.04217 0.05102 0.67006
 C1101 C -0.04942 0.06116 0.57730
 C1102 C 0.04510 0.01165 0.65503
 C1103 C 0.00002 0.04529 0.62027
 C1104 C -0.01532 0.05014 0.60638
 C1105 C -0.03356 0.05600 0.59051
 C1106 C 0.05228 0.02846 0.67126
 H1107 H 0.02271 0.00404 0.62584
 H1108 H 0.01742 0.07396 0.65269
 H1109 H 0.04706 0.06425 0.68250
 H1110 H 0.05275 -0.00578 0.65531
 C1111 C 0.51080 0.52297 0.15786
 C1112 C 0.51720 0.53603 0.13816
 C1113 C 0.54071 0.54319 0.13529
 C1114 C 0.55775 0.53741 0.15212
 C1115 C 0.45025 0.55963 0.07847
 C1116 C 0.52778 0.51717 0.17469
 C1117 C 0.49946 0.54240 0.12119
 C1118 C 0.48426 0.54777 0.10734
 C1119 C 0.46610 0.55412 0.09156
 C1120 C 0.55146 0.52436 0.17205
 H1121 H 0.49262 0.51744 0.16032
 H1122 H 0.54586 0.55330 0.12010
 H1123 H 0.57588 0.54298 0.14946
 H1124 H 0.52228 0.50742 0.18998
 C1125 C 0.45677 -0.05539 0.14143
 C1126 C 0.47147 -0.03792 0.13234
 C1127 C 0.46886 -0.01484 0.13986
 C1128 C 0.45195 -0.00932 0.15676
 C1129 C 0.54135 -0.06177 0.07664
 C1130 C 0.43987 -0.04992 0.15835
 C1131 C 0.49004 -0.04394 0.11625
 C1132 C 0.50595 -0.04926 0.10330
 C1133 C 0.52492 -0.05583 0.08869
 C1134 C 0.43748 -0.02687 0.16643
 H1135 H 0.45865 -0.07331 0.13574
 H1136 H 0.48024 -0.00121 0.13303
 H1137 H 0.45076 0.00852 0.16284
 H1138 H 0.42880 -0.06374 0.16525
 C1139 C 0.94717 0.50613 0.62476
 C1140 C 0.95123 0.48426 0.61477
 C1141 C 0.94291 0.46401 0.62588
 C1142 C 0.93045 0.46566 0.64685
 C1143 C 0.99525 0.48229 0.53420
 C1144 C 0.93471 0.50782 0.64567
 C1145 C 0.96358 0.48282 0.59294
 C1146 C 0.97377 0.48219 0.57453
 C1147 C 0.98546 0.48203 0.55285
 C1148 C 0.92610 0.48762 0.65690
 H1149 H 0.95357 0.52191 0.61634
 H1150 H 0.94590 0.44700 0.61825
 H1151 H 0.92385 0.44983 0.65498
 H1152 H 0.93199 0.52494 0.65315
 C1153 C 0.96055 0.51766 0.86623
 C1154 C 0.97975 0.53208 0.86072
 C1155 C 0.98195 0.54136 0.83823
 C1156 C 0.96516 0.53611 0.82123
 C1157 C 1.04703 0.55231 0.92045
 C1158 C 0.94368 0.51240 0.84924
 C1159 C 0.99749 0.53720 0.87791
 C1160 C 1.01276 0.54172 0.89180
 C1161 C 1.03106 0.54729 0.90750
 C1162 C 0.94590 0.52146 0.82649
 H1163 H 0.95871 0.51035 0.88359
 H1164 H 0.99670 0.55261 0.83379
 H1165 H 0.96716 0.54366 0.80401
 H1166 H 0.92918 0.50090 0.85375
 C1167 C 0.48076 0.00998 0.35209
 C1168 C 0.47718 0.03001 0.36546
 C1169 C 0.45676 0.04370 0.36210
 C1170 C 0.44019 0.03762 0.34512
 C1171 C 0.54552 0.05577 0.42172
 C1172 C 0.46426 0.00390 0.33510
 C1173 C 0.49506 0.03703 0.38179
 C1174 C 0.51053 0.04293 0.39490
 C1175 C 0.52918 0.04985 0.40964
 C1176 C 0.44393 0.01781 0.33122
 H1177 H 0.49650 -0.00074 0.35455
 H1178 H 0.45388 0.05931 0.37228
 H1179 H 0.42486 0.04882 0.34237
 H1180 H 0.46746 -0.01162 0.32489
   
