data_POSCAR
  _audit_creation_date              2014-09-24
  _audit_creation_method            'ToBaCCo'
  _symmetry_space_group_name_H-M    'P1'
  _symmetry_Int_Tables_number       1
  _symmetry_cell_setting            triclinic
  loop_
  _symmetry_equiv_pos_as_xyz
 x,y,z
_cell_length_a 20.2310
_cell_length_b 20.9222
_cell_length_c 8.4430
_cell_angle_alpha 90.027000
_cell_angle_beta 90.063600
_cell_angle_gamma 120.497100
loop_
  _atom_site_label
  _atom_site_type_symbol
  _atom_site_fract_x
  _atom_site_fract_y
  _atom_site_fract_z
C1 C 0.46445 0.81004 0.49529
 C2 C 0.46670 0.84347 0.64071
 C3 C 0.48242 0.91723 0.64254
 C4 C 0.49593 0.95872 0.50156
 C5 C 0.48471 0.92020 0.35714
 C6 C 0.46836 0.84664 0.35381
 C7 C 0.51507 1.03893 0.50462
 C8 C 0.53173 1.08118 0.36375
 C9 C 0.54334 1.15354 0.36418
 C10 C 0.54180 1.18584 0.50857
 C11 C 0.53682 1.14948 0.65074
 C12 C 0.52159 1.07634 0.64870
 H13 H 0.44759 0.75185 0.49133
 H14 H 0.48301 0.94048 0.75660
 H15 H 0.48326 0.94418 0.24516
 H16 H 0.53611 1.05915 0.25143
 H17 H 0.55635 1.24341 0.51205
 H18 H 0.51986 1.05206 0.76211
 C19 C 0.19651 0.65556 0.49202
 C20 C 0.16179 0.62444 0.63753
 C21 C 0.08501 0.56559 0.63946
 C22 C 0.04191 0.53672 0.49837
 C23 C 0.08185 0.56422 0.35406
 C24 C 0.15823 0.62227 0.35069
 C25 C -0.04142 0.47468 0.50092
 C26 C -0.08492 0.44832 0.35951
 C27 C -0.15997 0.38661 0.35896
 C28 C -0.19403 0.35261 0.50295
 C29 C -0.15664 0.38449 0.64559
 C30 C -0.08060 0.44338 0.64459
 H31 H 0.25692 0.69767 0.48799
 H32 H 0.06067 0.54298 0.75351
 H33 H 0.05689 0.53846 0.24211
 H34 H -0.06182 0.47481 0.24738
 H35 H -0.25377 0.30867 0.50556
 H36 H -0.05542 0.46621 0.75821
 C37 C 0.35409 0.55305 0.49167
 C38 C 0.38693 0.55100 0.63629
 C39 C 0.44600 0.53399 0.63699
 C40 C 0.46897 0.51355 0.49661
 C41 C 0.43836 0.52158 0.35224
 C42 C 0.38416 0.54427 0.34987
 C43 C 0.52622 0.48718 0.50115
 C44 C 0.55808 0.47677 0.36068
 C45 C 0.60890 0.44978 0.36578
 C46 C 0.63156 0.43573 0.51100
 C47 C 0.59918 0.44273 0.65050
 C48 C 0.54614 0.46695 0.64605
 H49 H 0.31327 0.57219 0.48785
 H50 H 0.47308 0.53672 0.74892
 H51 H 0.45786 0.51406 0.23895
 H52 H 0.54333 0.48732 0.24495
 H53 H 0.66874 0.41237 0.51458
 H54 H 0.51895 0.46636 0.75629
 O55 O 0.42159 0.61337 -0.12679
 O56 O 0.45645 0.74946 -0.19712
 C57 C 0.44091 0.80032 -0.22149
 O58 O 0.40067 0.81288 -0.12483
 O59 O 0.26008 0.70920 -0.20032
 C60 C 0.20653 0.64295 -0.22460
 O61 O 0.19267 0.59131 -0.12740
 O62 O 0.29981 0.56032 -0.20252
 C63 C 0.36835 0.57552 -0.22564
 O64 O 0.42711 0.64558 0.18090
 O65 O 0.47218 0.78377 0.12190
 C66 C 0.43357 0.80232 0.21077
 O67 O 0.36503 0.78500 0.18117
 O68 O 0.22268 0.68877 0.11795
 C69 C 0.20351 0.63283 0.20759
 O70 O 0.22071 0.58359 0.17817
 O71 O 0.31887 0.54182 0.11376
 C72 C 0.37567 0.57879 0.20655
 Cr73 Cr 0.44177 0.69781 -0.00576
 Cr74 Cr 0.31235 0.74669 -0.00708
 Cr75 Cr 0.26036 0.57178 -0.01001
 O76 O 0.33821 0.67217 -0.00334
 O77 O 0.56296 0.34486 -0.17302
 O78 O 0.52970 0.20969 -0.11584
 C79 C 0.57035 0.19427 -0.20638
 O80 O 0.64018 0.21544 -0.17922
 O81 O 0.78148 0.31759 -0.12007
 C82 C 0.79678 0.37164 -0.21225
 O83 O 0.77421 0.41708 -0.18648
 O84 O 0.67092 0.45206 -0.12167
 C85 C 0.61135 0.41185 -0.20504
 O86 O 0.57132 0.37651 0.13653
 O87 O 0.54707 0.24470 0.20352
 C88 C 0.56663 0.19669 0.22626
 O89 O 0.60808 0.18708 0.12752
 O90 O 0.74592 0.29788 0.19732
 C91 C 0.79584 0.36565 0.22030
 O92 O 0.80656 0.41589 0.12120
 O93 O 0.69645 0.44311 0.19162
 C94 C 0.62712 0.42266 0.22184
 Cr95 Cr 0.55559 0.29446 0.01290
 Cr96 Cr 0.69344 0.25678 0.00689
 Cr97 Cr 0.73477 0.42916 0.00164
 O98 O 0.66104 0.32696 0.00389
   
