data_POSCAR
  _audit_creation_date              2014-09-24
  _audit_creation_method            'ToBaCCo'
  _symmetry_space_group_name_H-M    'P1'
  _symmetry_Int_Tables_number       1
  _symmetry_cell_setting            triclinic
  loop_
  _symmetry_equiv_pos_as_xyz
 x,y,z
_cell_length_a 50.5424
_cell_length_b 51.0018
_cell_length_c 50.7602
_cell_angle_alpha 94.294000
_cell_angle_beta 90.020700
_cell_angle_gamma 92.332800
loop_
  _atom_site_label
  _atom_site_type_symbol
  _atom_site_fract_x
  _atom_site_fract_y
  _atom_site_fract_z
C1 C 0.25852 0.22157 0.24599
 C2 C 0.24641 0.21174 0.26828
 C3 C 0.22423 0.22335 0.27900
 C4 C 0.21391 0.24501 0.26768
 C5 C 0.22582 0.25472 0.24570
 C6 C 0.24835 0.24295 0.23482
 C7 C 0.28041 0.21435 0.23152
 N8 N 0.28384 0.23086 0.21186
 C9 C 0.26427 0.24843 0.21378
 C10 C 0.21178 0.27592 0.23923
 N11 N 0.19169 0.27934 0.25681
 C12 C 0.19288 0.26045 0.27425
 C13 C 0.21683 0.20996 0.30053
 N14 N 0.23401 0.19049 0.30320
 C15 C 0.25219 0.19148 0.28351
 H16 H 0.29316 0.19851 0.23534
 H17 H 0.26161 0.26392 0.20068
 H18 H 0.21624 0.28827 0.22324
 H19 H 0.17937 0.25799 0.29050
 H20 H 0.20041 0.21440 0.31356
 H21 H 0.26831 0.17829 0.28030
 C22 C 0.74042 -0.24987 0.22784
 C23 C 0.75307 -0.23849 0.25077
 C24 C 0.77523 -0.24968 0.26041
 C25 C 0.78499 -0.27247 0.24726
 C26 C 0.77255 -0.28356 0.22469
 C27 C 0.74999 -0.27229 0.21503
 C28 C 0.71854 -0.24332 0.21400
 N29 N 0.71432 -0.26135 0.19298
 C30 C 0.73372 -0.27915 0.19371
 C31 C 0.78632 -0.30520 0.21601
 N32 N 0.80699 -0.30786 0.23280
 C33 C 0.80607 -0.28770 0.25205
 C34 C 0.78327 -0.23452 0.28280
 N35 N 0.76649 -0.21444 0.28701
 C36 C 0.74797 -0.21678 0.26744
 H37 H 0.70635 -0.22691 0.21964
 H38 H 0.73657 -0.29568 0.17954
 H39 H 0.78088 -0.31829 0.19896
 H40 H 0.82000 -0.28362 0.26815
 H41 H 0.79989 -0.23811 0.29529
 H42 H 0.73211 -0.20348 0.26523
 C43 C 0.71345 0.24991 0.76616
 C44 C 0.72420 0.23743 0.74325
 C45 C 0.74606 0.24873 0.73137
 C46 C 0.75739 0.27275 0.74219
 C47 C 0.74678 0.28489 0.76470
 C48 C 0.72459 0.27351 0.77664
 C49 C 0.69245 0.24354 0.78207
 N50 N 0.69035 0.26286 0.80203
 C51 C 0.71018 0.28125 0.79858
 C52 C 0.76181 0.30746 0.77109
 N53 N 0.78158 0.30968 0.75298
 C54 C 0.77874 0.28833 0.73511
 C55 C 0.75222 0.23230 0.70968
 N56 N 0.73458 0.21137 0.70804
 C57 C 0.71739 0.21440 0.72854
 H58 H 0.67940 0.22631 0.77862
 H59 H 0.71466 0.29879 0.81134
 H60 H 0.75790 0.32138 0.78761
 H61 H 0.79160 0.28367 0.71856
 H62 H 0.76811 0.23558 0.69588
 H63 H 0.70126 0.20071 0.73266
 C64 C 0.28712 -0.23918 0.74975
 C65 C 0.27729 -0.22689 0.72813
 C66 C 0.25488 -0.23736 0.71496
 C67 C 0.24205 -0.26024 0.72311
 C68 C 0.25164 -0.27220 0.74441
 C69 C 0.27447 -0.26172 0.75769
 C70 C 0.30825 -0.23331 0.76655
 N71 N 0.30899 -0.25186 0.78460
 C72 C 0.28816 -0.26929 0.77904
 C73 C 0.23485 -0.29341 0.74837
 N74 N 0.21511 -0.29485 0.72987
 C75 C 0.21968 -0.27447 0.71428
 C76 C 0.24951 -0.22124 0.69529
 N77 N 0.26812 -0.20119 0.69611
 C78 C 0.28525 -0.20455 0.71614
 H79 H 0.32227 -0.21693 0.76500
 H80 H 0.28252 -0.28600 0.79001
 H81 H 0.23746 -0.30695 0.76347
 H82 H 0.20727 -0.26943 0.69822
 H83 H 0.23332 -0.22406 0.68127
 H84 H 0.30196 -0.19144 0.72193
 C85 C 0.74112 -0.22051 0.76305
 C86 C 0.75333 -0.21196 0.74021
 C87 C 0.77464 -0.22506 0.72935
 C88 C 0.78397 -0.24695 0.74114
 C89 C 0.77197 -0.25526 0.76361
 C90 C 0.75028 -0.24207 0.77452
 C91 C 0.71992 -0.21180 0.77777
 N92 N 0.71566 -0.22772 0.79796
 C93 C 0.73443 -0.24628 0.79590
 C94 C 0.78507 -0.27672 0.77076
 N95 N 0.80490 -0.28198 0.75312
 C96 C 0.80412 -0.26364 0.73487
 C97 C 0.78234 -0.21259 0.70731
 N98 N 0.76618 -0.19230 0.70448
 C99 C 0.74838 -0.19182 0.72457
 H100 H 0.70809 -0.19553 0.77323
 H101 H 0.73709 -0.26159 0.80916
 H102 H 0.77973 -0.28793 0.78735
 H103 H 0.81752 -0.26179 0.71846
 H104 H 0.79827 -0.21819 0.69407
 H105 H 0.73308 -0.17769 0.72778
 C106 C 0.25600 0.25003 0.77900
 C107 C 0.24444 0.23768 0.75594
 C108 C 0.22304 0.24854 0.74453
 C109 C 0.21300 0.27195 0.75591
 C110 C 0.22444 0.28418 0.77858
 C111 C 0.24621 0.27315 0.79014
 C112 C 0.27696 0.24392 0.79432
 N113 N 0.28046 0.26284 0.81466
 C114 C 0.26152 0.28083 0.81199
 C115 C 0.21064 0.30648 0.78507
 N116 N 0.19115 0.30806 0.76683
 C117 C 0.19251 0.28696 0.74894
 C118 C 0.21599 0.23258 0.72241
 N119 N 0.23265 0.21229 0.72003
 C120 C 0.25014 0.21528 0.74050
 H121 H 0.28912 0.22717 0.79012
 H122 H 0.25836 0.29807 0.82514
 H123 H 0.21475 0.32068 0.80164
 H124 H 0.17934 0.28258 0.73223
 H125 H 0.20019 0.23582 0.70878
 H126 H 0.26573 0.20204 0.74407
 C127 C 0.28031 -0.24689 0.23561
 C128 C 0.27154 -0.23534 0.25979
 C129 C 0.25088 -0.24718 0.27291
 C130 C 0.23883 -0.27080 0.26210
 C131 C 0.24741 -0.28215 0.23827
 C132 C 0.26849 -0.27015 0.22497
 C133 C 0.29993 -0.23966 0.21858
 N134 N 0.30068 -0.25803 0.19763
 C135 C 0.28130 -0.27679 0.20163
 C136 C 0.23177 -0.30459 0.23251
 N137 N 0.21382 -0.30734 0.25235
 C138 C 0.21831 -0.28652 0.27053
 C139 C 0.24635 -0.23156 0.29560
 N140 N 0.26383 -0.21053 0.29661
 C141 C 0.27935 -0.21274 0.27476
 H142 H 0.31313 -0.22254 0.22206
 H143 H 0.27621 -0.29390 0.18847
 H144 H 0.23400 -0.31803 0.21523
 H145 H 0.20708 -0.28224 0.28835
 H146 H 0.23157 -0.23538 0.31041
 H147 H 0.29487 -0.19871 0.26983
 C148 C 0.72039 0.22623 0.24794
 C149 C 0.73083 0.21649 0.27067
 C150 C 0.75336 0.22836 0.28249
 C151 C 0.76567 0.25031 0.27176
 C152 C 0.75542 0.25984 0.24934
 C153 C 0.73254 0.24779 0.23736
 C154 C 0.69881 0.21853 0.23232
 N155 N 0.69748 0.23492 0.21249
 C156 C 0.71809 0.25291 0.21546
 C157 C 0.77144 0.28094 0.24327
 N158 N 0.79138 0.28477 0.26150
 C159 C 0.78771 0.26590 0.27905
 C160 C 0.75903 0.21458 0.30398
 N161 N 0.74043 0.19471 0.30549
 C162 C 0.72312 0.19580 0.28515
 H163 H 0.68487 0.20238 0.23544
 H164 H 0.72248 0.26840 0.20248
 H165 H 0.76803 0.29285 0.22696
 H166 H 0.80034 0.26293 0.29565
 H167 H 0.77533 0.21890 0.31766
 H168 H 0.70634 0.18227 0.28089
 O169 O 0.23104 0.02679 0.48239
 O170 O 0.22873 -0.02204 0.53228
 O171 O 0.23106 0.02910 0.53386
 O172 O 0.22827 -0.02432 0.48108
 O173 O 0.27189 -0.02468 0.48080
 O174 O 0.27468 0.02875 0.53393
 O175 O 0.27234 -0.02244 0.53218
 O176 O 0.27466 0.02647 0.48235
 Cu177 Cu 0.22541 0.00248 0.50742
 Cu178 Cu 0.27778 0.00204 0.50731
 C179 C 0.25325 0.03491 0.47372
 C180 C 0.25013 -0.03070 0.54070
 C181 C 0.25329 0.03802 0.54305
 C182 C 0.24956 -0.03372 0.47192
 O183 O 0.73319 0.02347 0.52647
 O184 O 0.73059 -0.02981 0.47345
 O185 O 0.73030 -0.02759 0.52492
 O186 O 0.73382 0.02138 0.47519
 O187 O 0.77741 0.02060 0.47558
 O188 O 0.77389 -0.02840 0.52535
 O189 O 0.77416 -0.03072 0.47380
 O190 O 0.77679 0.02285 0.52691
 Cu191 Cu 0.72762 -0.00311 0.49993
 Cu192 Cu 0.77993 -0.00405 0.50044
 C193 C 0.75540 0.03237 0.53574
 C194 C 0.75188 -0.03941 0.46450
 C195 C 0.75150 -0.03631 0.53376
 C196 C 0.75621 0.02950 0.46697
 O197 O 0.46530 0.22711 0.03612
 O198 O 0.51521 0.22435 -0.01671
 O199 O 0.51692 0.22750 0.03482
 O200 O 0.46391 0.22448 -0.01529
 O201 O 0.46538 0.26783 -0.01422
 O202 O 0.51847 0.27082 0.03564
 O203 O 0.51686 0.26769 -0.01578
 O204 O 0.46689 0.27045 0.03703
 Cu205 Cu 0.49021 0.22152 0.00971
 Cu206 Cu 0.49210 0.27354 0.01078
 C207 C 0.45742 0.24922 0.04552
 C208 C 0.52448 0.24555 -0.02540
 C209 C 0.52681 0.24969 0.04379
 C210 C 0.45557 0.24566 -0.02333
 O211 O 0.52929 0.74224 0.02236
 O212 O 0.48036 0.74371 -0.03139
 O213 O 0.53167 0.74111 -0.02870
 O214 O 0.47782 0.74362 0.01986
 O215 O 0.48128 0.78698 0.02294
 O216 O 0.53520 0.78449 -0.02611
 O217 O 0.48402 0.78707 -0.02847
 O218 O 0.53259 0.78562 0.02524
 Cu219 Cu 0.50437 0.73833 -0.00476
 Cu220 Cu 0.50858 0.79039 -0.00131
 C221 C 0.53937 0.76373 0.03293
 C222 C 0.47392 0.76569 -0.03921
 C223 C 0.54272 0.76228 -0.03570
 C224 C 0.47038 0.76567 0.02983
 O225 O 0.02424 0.45976 0.21479
 O226 O -0.02279 0.51346 0.21838
 O227 O 0.02855 0.51075 0.21512
 O228 O -0.02715 0.46235 0.21674
 O229 O -0.02491 0.46433 0.26024
 O230 O 0.03075 0.51339 0.25864
 O231 O -0.02043 0.51563 0.26188
 O232 O 0.02640 0.46234 0.25830
 Cu233 Cu 0.00047 0.48635 0.21190
 Cu234 Cu 0.00315 0.48915 0.26412
 C235 C 0.03342 0.45192 0.23603
 C236 C -0.02960 0.52376 0.24082
 C237 C 0.03921 0.52040 0.23654
 C238 C -0.03555 0.45495 0.23867
 O239 O 0.02459 0.53285 0.71515
 O240 O -0.03033 0.48277 0.71113
 O241 O -0.02673 0.53419 0.71205
 O242 O 0.02102 0.48178 0.71388
 O243 O 0.01857 0.48402 0.75737
 O244 O -0.02901 0.53668 0.75555
 O245 O -0.03274 0.48555 0.75462
 O246 O 0.02237 0.53485 0.75866
 Cu247 Cu -0.00270 0.50767 0.70868
 Cu248 Cu -0.00552 0.51054 0.76090
 C249 C 0.03304 0.54221 0.73765
 C250 C -0.04086 0.47554 0.73228
 C251 C -0.03595 0.54451 0.73349
 C252 C 0.02807 0.47398 0.73591
 C253 C 0.33564 0.20496 0.16503
 C254 C 0.34574 0.22806 0.15403
 C255 C 0.33477 0.25227 0.16304
 C256 C 0.31445 0.25302 0.18192
 C257 C 0.30466 0.22995 0.19246
 C258 C 0.31553 0.20600 0.18388
 C259 C 0.34409 0.27568 0.15322
 C260 C 0.36416 0.27579 0.13458
 C261 C 0.37576 0.25229 0.12480
 C262 C 0.36627 0.22799 0.13454
 C263 C 0.37749 0.20443 0.12435
 C264 C 0.39722 0.20449 0.10537
 C265 C 0.40678 0.22794 0.09579
 C266 C 0.39640 0.25224 0.10542
 C267 C 0.40719 0.27544 0.09516
 C268 C 0.42701 0.27437 0.07599
 C269 C 0.43687 0.25026 0.06634
 C270 C 0.42669 0.22712 0.07648
 H271 H 0.34279 0.18572 0.15963
 H272 H 0.30650 0.27173 0.18875
 H273 H 0.30818 0.18784 0.19150
 H274 H 0.33577 0.29423 0.16004
 H275 H 0.36996 0.29479 0.12811
 H276 H 0.37133 0.18538 0.13044
 H277 H 0.40509 0.18587 0.09807
 H278 H 0.40088 0.29481 0.10145
 H279 H 0.43454 0.29260 0.06861
 H280 H 0.43422 0.20831 0.06927
 C281 C 0.66824 0.71566 0.13856
 C282 C 0.65270 0.73780 0.13617
 C283 C 0.65878 0.76053 0.15318
 C284 C 0.67901 0.76061 0.17219
 C285 C 0.69432 0.73841 0.17456
 C286 C 0.68855 0.71603 0.15724
 C287 C 0.64479 0.78329 0.15106
 C288 C 0.62518 0.78425 0.13206
 C289 C 0.61838 0.76219 0.11453
 C290 C 0.63171 0.73829 0.11724
 C291 C 0.62341 0.71564 0.10118
 C292 C 0.60338 0.71642 0.08258
 C293 C 0.59107 0.73981 0.07883
 C294 C 0.59849 0.76313 0.09454
 C295 C 0.58597 0.78652 0.08921
 C296 C 0.56684 0.78655 0.06938
 C297 C 0.55933 0.76336 0.05424
 C298 C 0.57147 0.74001 0.05921
 H299 H 0.66554 0.69775 0.12605
 H300 H 0.68320 0.77853 0.18448
 H301 H 0.69925 0.69823 0.15822
 H302 H 0.64922 0.80072 0.16412
 H303 H 0.61535 0.80257 0.13198
 H304 H 0.63169 0.69670 0.10278
 H305 H 0.59767 0.69849 0.07076
 H306 H 0.59084 0.80529 0.09957
 H307 H 0.55789 0.80493 0.06589
 H308 H 0.56605 0.72198 0.04741
 C309 C 0.64943 0.28825 -0.14199
 C310 C 0.63348 0.26590 -0.13656
 C311 C 0.63747 0.24219 -0.15216
 C312 C 0.65610 0.24135 -0.17275
 C313 C 0.67184 0.26377 -0.17809
 C314 C 0.66813 0.28715 -0.16218
 C315 C 0.62297 0.21928 -0.14707
 C316 C 0.60481 0.21920 -0.12656
 C317 C 0.60001 0.24229 -0.11044
 C318 C 0.61401 0.26620 -0.11604
 C319 C 0.60784 0.28968 -0.10117
 C320 C 0.58910 0.28979 -0.08121
 C321 C 0.57599 0.26655 -0.07489
 C322 C 0.58139 0.24238 -0.08915
 C323 C 0.56806 0.21929 -0.08124
 C324 C 0.54986 0.22040 -0.06053
 C325 C 0.54419 0.24444 -0.04699
 C326 C 0.55743 0.26744 -0.05429
 H327 H 0.64829 0.30695 -0.13080
 H328 H 0.65876 0.22276 -0.18392
 H329 H 0.67918 0.30517 -0.16547
 H330 H 0.62584 0.20108 -0.15898
 H331 H 0.59445 0.20067 -0.12420
 H332 H 0.61678 0.30858 -0.10477
 H333 H 0.58495 0.30834 -0.07047
 H334 H 0.57144 0.19998 -0.09036
 H335 H 0.54005 0.20227 -0.05522
 H336 H 0.55344 0.28616 -0.04378
 C337 C 0.34774 0.72327 -0.16128
 C338 C 0.36499 0.74503 -0.15360
 C339 C 0.36258 0.76816 -0.16705
 C340 C 0.34419 0.76901 -0.18772
 C341 C 0.32717 0.74718 -0.19536
 C342 C 0.32930 0.72439 -0.18158
 C343 C 0.37842 0.79054 -0.15974
 C344 C 0.39641 0.79069 -0.13909
 C345 C 0.39965 0.76818 -0.12501
 C346 C 0.38425 0.74472 -0.13291
 C347 C 0.38885 0.72167 -0.12009
 C348 C 0.40741 0.72159 -0.09995
 C349 C 0.42188 0.74449 -0.09138
 C350 C 0.41805 0.76822 -0.10352
 C351 C 0.43266 0.79106 -0.09338
 C352 C 0.45054 0.79012 -0.07256
 C353 C 0.45464 0.76648 -0.06108
 C354 C 0.44017 0.74373 -0.07062
 H355 H 0.34768 0.70507 -0.15181
 H356 H 0.34278 0.78721 -0.19715
 H357 H 0.31717 0.70682 -0.18667
 H358 H 0.37677 0.80830 -0.17002
 H359 H 0.40790 0.80878 -0.13498
 H360 H 0.37876 0.70305 -0.12549
 H361 H 0.41034 0.70337 -0.09083
 H362 H 0.43051 0.81010 -0.10078
 H363 H 0.46132 0.80807 -0.06550
 H364 H 0.44295 0.72536 -0.06171
 C365 C 0.14381 0.32949 0.28198
 C366 C 0.13540 0.34015 0.25852
 C367 C 0.14613 0.32981 0.23429
 C368 C 0.16465 0.30996 0.23385
 C369 C 0.17276 0.29975 0.25729
 C370 C 0.16210 0.30970 0.28126
 C371 C 0.13832 0.33925 0.21055
 C372 C 0.11997 0.35875 0.21016
 C373 C 0.10869 0.36984 0.23367
 C374 C 0.11674 0.36055 0.25829
 C375 C 0.10601 0.37210 0.28187
 C376 C 0.08800 0.39185 0.28154
 C377 C 0.07975 0.40090 0.25780
 C378 C 0.08977 0.39003 0.23346
 C379 C 0.08029 0.39989 0.20998
 C380 C 0.06201 0.41978 0.21083
 C381 C 0.05250 0.43057 0.23501
 C382 C 0.06146 0.42091 0.25840
 H383 H 0.13666 0.33585 0.30128
 H384 H 0.17248 0.30212 0.21515
 H385 H 0.16821 0.30239 0.29969
 H386 H 0.14646 0.33144 0.19197
 H387 H 0.11522 0.36485 0.19093
 H388 H 0.11125 0.36650 0.30116
 H389 H 0.08041 0.40013 0.30020
 H390 H 0.08647 0.39267 0.19057
 H391 H 0.05538 0.42679 0.19242
 H392 H 0.05418 0.42898 0.27727
 C393 C 0.15742 0.66514 0.70231
 C394 C 0.15078 0.64911 0.72308
 C395 C 0.16616 0.65279 0.74649
 C396 C 0.18772 0.67109 0.74846
 C397 C 0.19429 0.68690 0.72764
 C398 C 0.17859 0.68363 0.70462
 C399 C 0.15987 0.63834 0.76804
 C400 C 0.13831 0.62060 0.76716
 C401 C 0.12230 0.61616 0.74433
 C402 C 0.12923 0.62992 0.72159
 C403 C 0.11466 0.62372 0.69804
 C404 C 0.09372 0.60518 0.69685
 C405 C 0.08600 0.59247 0.71914
 C406 C 0.09986 0.59805 0.74334
 C407 C 0.09041 0.58547 0.76564
 C408 C 0.06870 0.56766 0.76369
 C409 C 0.05564 0.56162 0.73954
 C410 C 0.06439 0.57419 0.71732
 H411 H 0.14640 0.66426 0.68408
 H412 H 0.19864 0.67351 0.76685
 H413 H 0.18281 0.69488 0.68780
 H414 H 0.17166 0.64094 0.78598
 H415 H 0.13510 0.61016 0.78462
 H416 H 0.11933 0.63243 0.67984
 H417 H 0.08328 0.60092 0.67825
 H418 H 0.09901 0.58925 0.78503
 H419 H 0.06223 0.55841 0.78124
 H420 H 0.05420 0.56994 0.69859
 C421 C -0.15401 0.63676 0.20494
 C422 C -0.13692 0.63238 0.22609
 C423 C -0.13949 0.64848 0.24985
 C424 C -0.15789 0.66847 0.25187
 C425 C -0.17478 0.67278 0.23066
 C426 C -0.17247 0.65641 0.20724
 C427 C -0.12381 0.64449 0.27167
 C428 C -0.10587 0.62456 0.27069
 C429 C -0.10254 0.60789 0.24754
 C430 C -0.11771 0.61241 0.22460
 C431 C -0.11295 0.59703 0.20089
 C432 C -0.09453 0.57752 0.19972
 C433 C -0.08038 0.57216 0.22212
 C434 C -0.08432 0.58704 0.24645
 C435 C -0.07007 0.58013 0.26876
 C436 C -0.05249 0.55969 0.26678
 C437 C -0.04833 0.54541 0.24259
 C438 C -0.06235 0.55183 0.22030
 H439 H -0.15395 0.62512 0.18634
 H440 H -0.15942 0.68000 0.27052
 H441 H -0.18449 0.65888 0.19008
 H442 H -0.12555 0.65683 0.28988
 H443 H -0.09452 0.62308 0.28842
 H444 H -0.12282 0.59985 0.18259
 H445 H -0.09150 0.56631 0.18103
 H446 H -0.07232 0.58977 0.28819
 H447 H -0.04204 0.55509 0.28439
 H448 H -0.05952 0.54074 0.20151
 C449 C -0.17513 0.36709 0.77598
 C450 C -0.15872 0.37057 0.75388
 C451 C -0.16343 0.35340 0.73097
 C452 C -0.18312 0.33308 0.73080
 C453 C -0.19915 0.32953 0.75308
 C454 C -0.19481 0.34712 0.77554
 C455 C -0.14853 0.35662 0.70823
 C456 C -0.12911 0.37663 0.70759
 C457 C -0.12340 0.39410 0.72996
 C458 C -0.13802 0.39059 0.75370
 C459 C -0.13116 0.40689 0.77660
 C460 C -0.11105 0.42616 0.77634
 C461 C -0.09712 0.43031 0.75326
 C462 C -0.10323 0.41467 0.72960
 C463 C -0.08888 0.42043 0.70659
 C464 C -0.06897 0.44033 0.70740
 C465 C -0.06261 0.45513 0.73107
 C466 C -0.07694 0.45007 0.75387
 H467 H -0.17356 0.37961 0.79400
 H468 H -0.18626 0.32058 0.71282
 H469 H -0.20608 0.34535 0.79342
 H470 H -0.15199 0.34356 0.69061
 H471 H -0.11850 0.37752 0.68926
 H472 H -0.14057 0.40495 0.79541
 H473 H -0.10637 0.43802 0.79450
 H474 H -0.09265 0.41013 0.68758
 H475 H -0.05834 0.44395 0.68943
 H476 H -0.07243 0.46159 0.77227
 C477 C 0.20802 0.14668 0.35426
 C478 C 0.23139 0.13614 0.36380
 C479 C 0.25580 0.14427 0.35257
 C480 C 0.25650 0.16197 0.33265
 C481 C 0.23317 0.17216 0.32349
 C482 C 0.20900 0.16435 0.33453
 C483 C 0.27947 0.13477 0.36128
 C484 C 0.27965 0.11735 0.38099
 C485 C 0.25597 0.10853 0.39287
 C486 C 0.23141 0.11796 0.38402
 C487 C 0.20770 0.10883 0.39561
 C488 C 0.20785 0.09118 0.41510
 C489 C 0.23154 0.08191 0.42402
 C490 C 0.25599 0.09047 0.41320
 C491 C 0.27942 0.08052 0.42328
 C492 C 0.27843 0.06273 0.44291
 C493 C 0.25418 0.05419 0.45327
 C494 C 0.23080 0.06400 0.44375
 H495 H 0.18859 0.14181 0.36156
 H496 H 0.27537 0.16819 0.32455
 H497 H 0.19063 0.17167 0.32764
 H498 H 0.29818 0.14092 0.35276
 H499 H 0.29886 0.11106 0.38634
 H500 H 0.18846 0.11481 0.38998
 H501 H 0.18910 0.08470 0.42331
 H502 H 0.29891 0.08601 0.41654
 H503 H 0.29685 0.05556 0.44992
 H504 H 0.21188 0.05762 0.45164
 C505 C 0.70921 0.15625 0.66048
 C506 C 0.73268 0.14738 0.64808
 C507 C 0.75698 0.16024 0.65646
 C508 C 0.75746 0.18126 0.67603
 C509 C 0.73401 0.18983 0.68793
 C510 C 0.70998 0.17704 0.68000
 C511 C 0.78075 0.15208 0.64535
 C512 C 0.78113 0.13130 0.62608
 C513 C 0.75755 0.11782 0.61689
 C514 C 0.73288 0.12622 0.62783
 C515 C 0.70924 0.11334 0.61802
 C516 C 0.70956 0.09293 0.59839
 C517 C 0.73336 0.08428 0.58779
 C518 C 0.75776 0.09638 0.59693
 C519 C 0.78131 0.08637 0.58567
 C520 C 0.78048 0.06562 0.56604
 C521 C 0.75627 0.05407 0.55688
 C522 C 0.73279 0.06351 0.56798
 H523 H 0.68988 0.14756 0.65573
 H524 H 0.77622 0.19073 0.68234
 H525 H 0.69154 0.18339 0.68870
 H526 H 0.79938 0.16186 0.65166
 H527 H 0.80038 0.12648 0.61859
 H528 H 0.68991 0.11871 0.62487
 H529 H 0.69085 0.08376 0.59144
 H530 H 0.80076 0.09396 0.59160
 H531 H 0.79897 0.05868 0.55792
 H532 H 0.71389 0.05466 0.56120
 C533 C 0.29469 -0.14814 0.65481
 C534 C 0.27135 -0.13899 0.64367
 C535 C 0.24681 -0.15072 0.65107
 C536 C 0.24594 -0.17095 0.66837
 C537 C 0.26923 -0.18000 0.67884
 C538 C 0.29353 -0.16824 0.67207
 C539 C 0.22316 -0.14232 0.64116
 C540 C 0.22314 -0.12255 0.62384
 C541 C 0.24696 -0.11034 0.61551
 C542 C 0.27150 -0.11878 0.62549
 C543 C 0.29533 -0.10693 0.61675
 C544 C 0.29532 -0.08765 0.59886
 C545 C 0.27166 -0.07917 0.58902
 C546 C 0.24709 -0.09016 0.59731
 C547 C 0.22369 -0.08046 0.58689
 C548 C 0.22480 -0.06115 0.56880
 C549 C 0.24915 -0.05072 0.56040
 C550 C 0.27251 -0.05977 0.57076
 H551 H 0.31419 -0.14028 0.65065
 H552 H 0.22698 -0.17954 0.67391
 H553 H 0.31184 -0.17495 0.67977
 H554 H 0.20435 -0.15120 0.64681
 H555 H 0.20393 -0.11751 0.61714
 H556 H 0.31455 -0.11228 0.62313
 H557 H 0.31416 -0.07928 0.59262
 H558 H 0.20414 -0.08728 0.59224
 H559 H 0.20640 -0.05447 0.56124
 H560 H 0.29151 -0.05176 0.56454
 C561 C 0.79394 -0.16602 0.34045
 C562 C 0.77093 -0.15382 0.35046
 C563 C 0.74628 -0.16263 0.33892
 C564 C 0.74500 -0.18252 0.31822
 C565 C 0.76798 -0.19422 0.30847
 C566 C 0.79239 -0.18583 0.31988
 C567 C 0.72293 -0.15160 0.34804
 C568 C 0.72331 -0.13187 0.36839
 C569 C 0.74725 -0.12219 0.38057
 C570 C 0.77149 -0.13328 0.37140
 C571 C 0.79545 -0.12339 0.38340
 C572 C 0.79583 -0.10343 0.40357
 C573 C 0.77245 -0.09249 0.41277
 C574 C 0.74778 -0.10170 0.40153
 C575 C 0.72468 -0.08992 0.41184
 C576 C 0.72616 -0.06991 0.43216
 C577 C 0.75060 -0.06081 0.44303
 C578 C 0.77369 -0.07228 0.43321
 H579 H 0.81351 -0.16079 0.34797
 H580 H 0.72594 -0.18916 0.30988
 H581 H 0.81051 -0.19432 0.31259
 H582 H 0.70403 -0.15829 0.33929
 H583 H 0.70430 -0.12455 0.37400
 H584 H 0.81447 -0.13056 0.37759
 H585 H 0.81475 -0.09648 0.41208
 H586 H 0.70506 -0.09565 0.40477
 H587 H 0.70795 -0.06149 0.43935
 H588 H 0.79276 -0.06548 0.44149
 C589 C 0.66141 0.79929 -0.16056
 C590 C 0.65500 0.77846 -0.14450
 C591 C 0.66929 0.75521 -0.14869
 C592 C 0.68958 0.75342 -0.16754
 C593 C 0.69599 0.77431 -0.18337
 C594 C 0.68134 0.79719 -0.17957
 C595 C 0.66320 0.73363 -0.13418
 C596 C 0.64286 0.73433 -0.11585
 C597 C 0.62792 0.75696 -0.11091
 C598 C 0.63471 0.77972 -0.12478
 C599 C 0.62125 0.80304 -0.11818
 C600 C 0.60147 0.80398 -0.09919
 C601 C 0.59384 0.78167 -0.08636
 C602 C 0.60666 0.75771 -0.09227
 C603 C 0.59735 0.73538 -0.07950
 C604 C 0.57667 0.73702 -0.06135
 C605 C 0.56456 0.76089 -0.05511
 C606 C 0.57329 0.78318 -0.06771
 H607 H 0.65114 0.81744 -0.15928
 H608 H 0.69963 0.73512 -0.17032
 H609 H 0.68547 0.81403 -0.19082
 H610 H 0.67418 0.71583 -0.13717
 H611 H 0.63975 0.71685 -0.10543
 H612 H 0.62592 0.82122 -0.12698
 H613 H 0.59183 0.82238 -0.09468
 H614 H 0.60520 0.71618 -0.08342
 H615 H 0.57021 0.71943 -0.05206
 H616 H 0.56382 0.80169 -0.06330
 C617 C 0.32486 0.28781 -0.13021
 C618 C 0.34003 0.26573 -0.12625
 C619 C 0.33399 0.24227 -0.14218
 C620 C 0.31430 0.24146 -0.16180
 C621 C 0.29958 0.26368 -0.16596
 C622 C 0.30510 0.28674 -0.14954
 C623 C 0.34755 0.21957 -0.13848
 C624 C 0.36694 0.21947 -0.11914
 C625 C 0.37393 0.24235 -0.10284
 C626 C 0.36075 0.26606 -0.10693
 C627 C 0.36904 0.28938 -0.09191
 C628 C 0.38917 0.28954 -0.07329
 C629 C 0.40161 0.26648 -0.06850
 C630 C 0.39400 0.24244 -0.08288
 C631 C 0.40672 0.21948 -0.07648
 C632 C 0.42646 0.22060 -0.05713
 C633 C 0.43432 0.24453 -0.04352
 C634 C 0.42171 0.26740 -0.04929
 H635 H 0.32750 0.30625 -0.11855
 H636 H 0.31013 0.22302 -0.17324
 H637 H 0.29473 0.30454 -0.15181
 H638 H 0.34306 0.20154 -0.15065
 H639 H 0.37649 0.20112 -0.11789
 H640 H 0.36075 0.30814 -0.09442
 H641 H 0.39497 0.30798 -0.06241
 H642 H 0.40170 0.20024 -0.08574
 H643 H 0.43572 0.20257 -0.05294
 H644 H 0.42739 0.28601 -0.03866
 C645 C 0.33943 0.71953 0.13885
 C646 C 0.35563 0.74208 0.13452
 C647 C 0.35189 0.76507 0.15129
 C648 C 0.33355 0.76495 0.17206
 C649 C 0.31803 0.74218 0.17675
 C650 C 0.32108 0.71965 0.15942
 C651 C 0.36654 0.78821 0.14739
 C652 C 0.38502 0.78912 0.12724
 C653 C 0.38995 0.76667 0.11024
 C654 C 0.37529 0.74263 0.11419
 C655 C 0.38118 0.71985 0.09808
 C656 C 0.40061 0.72041 0.07881
 C657 C 0.41478 0.74369 0.07448
 C658 C 0.40944 0.76729 0.08977
 C659 C 0.42394 0.79050 0.08386
 C660 C 0.44335 0.78996 0.06426
 C661 C 0.44904 0.76640 0.04984
 C662 C 0.43446 0.74338 0.05495
 H663 H 0.34030 0.70138 0.12667
 H664 H 0.33117 0.78307 0.18413
 H665 H 0.30991 0.70151 0.16194
 H666 H 0.36374 0.80590 0.16012
 H667 H 0.39555 0.80774 0.12593
 H668 H 0.37149 0.70094 0.10018
 H669 H 0.40462 0.70232 0.06716
 H670 H 0.42076 0.80946 0.09387
 H671 H 0.45414 0.80811 0.06060
 H672 H 0.43845 0.72505 0.04370
 C673 C 0.64590 0.20777 0.16357
 C674 C 0.63764 0.23062 0.15216
 C675 C 0.65003 0.25507 0.16132
 C676 C 0.66979 0.25631 0.18091
 C677 C 0.67757 0.23350 0.19202
 C678 C 0.66544 0.20929 0.18312
 C679 C 0.64258 0.27825 0.15105
 C680 C 0.62289 0.27792 0.13197
 C681 C 0.60977 0.25419 0.12218
 C682 C 0.61750 0.23009 0.13220
 C683 C 0.60487 0.20630 0.12191
 C684 C 0.58523 0.20595 0.10278
 C685 C 0.57718 0.22922 0.09312
 C686 C 0.58922 0.25372 0.10264
 C687 C 0.57998 0.27671 0.09225
 C688 C 0.55987 0.27528 0.07327
 C689 C 0.54819 0.25100 0.06390
 C690 C 0.55701 0.22803 0.07395
 H691 H 0.63763 0.18836 0.15803
 H692 H 0.67876 0.27521 0.18792
 H693 H 0.67129 0.19130 0.19112
 H694 H 0.65203 0.29698 0.15794
 H695 H 0.61854 0.29677 0.12521
 H696 H 0.60976 0.18736 0.12811
 H697 H 0.57614 0.18717 0.09552
 H698 H 0.58767 0.29620 0.09839
 H699 H 0.55345 0.29339 0.06593
 H700 H 0.54810 0.20909 0.06693
 C701 C -0.15733 0.66378 0.77713
 C702 C -0.14121 0.65660 0.75522
 C703 C -0.14412 0.67033 0.73222
 C704 C -0.16183 0.69085 0.73169
 C705 C -0.17766 0.69804 0.75371
 C706 C -0.17511 0.68393 0.77632
 C707 C -0.12944 0.66348 0.70967
 C708 C -0.11209 0.64305 0.70925
 C709 C -0.10833 0.62878 0.73165
 C710 C -0.12258 0.63615 0.75525
 C711 C -0.11747 0.62310 0.77819
 C712 C -0.09947 0.60326 0.77804
 C713 C -0.08609 0.59526 0.75502
 C714 C -0.09049 0.60762 0.73138
 C715 C -0.07696 0.59805 0.70840
 C716 C -0.05952 0.57758 0.70916
 C717 C -0.05483 0.56592 0.73275
 C718 C -0.06828 0.57487 0.75560
 H719 H -0.15700 0.65405 0.79522
 H720 H -0.16366 0.70053 0.71359
 H721 H -0.18634 0.68864 0.79402
 H722 H -0.13150 0.67395 0.69201
 H723 H -0.10149 0.63930 0.69106
 H724 H -0.12669 0.62808 0.79691
 H725 H -0.09610 0.59396 0.79620
 H726 H -0.07962 0.60565 0.68940
 H727 H -0.04955 0.57095 0.69114
 H728 H -0.06504 0.56582 0.77393
 C729 C -0.15200 0.32887 0.28501
 C730 C -0.14707 0.34401 0.26317
 C731 C -0.16320 0.33834 0.24048
 C732 C -0.18368 0.31884 0.24012
 C733 C -0.18861 0.30395 0.26203
 C734 C -0.17222 0.30931 0.28439
 C735 C -0.15880 0.35203 0.21803
 C736 C -0.13847 0.37105 0.21734
 C737 C -0.12172 0.37748 0.23935
 C738 C -0.12657 0.36428 0.26292
 C739 C -0.11097 0.37200 0.28548
 C740 C -0.09098 0.39147 0.28496
 C741 C -0.08537 0.40380 0.26190
 C742 C -0.10045 0.39686 0.23866
 C743 C -0.09330 0.40942 0.21558
 C744 C -0.07240 0.42815 0.21579
 C745 C -0.05787 0.43522 0.23890
 C746 C -0.06456 0.42298 0.26195
 H747 H -0.14042 0.33137 0.30290
 H748 H -0.19514 0.31495 0.22218
 H749 H -0.17510 0.29889 0.30198
 H750 H -0.17117 0.34789 0.20063
 H751 H -0.13673 0.38070 0.19924
 H752 H -0.11395 0.36365 0.30417
 H753 H -0.07962 0.39676 0.30282
 H754 H -0.10309 0.40495 0.19685
 H755 H -0.06762 0.43717 0.19763
 H756 H -0.05328 0.42807 0.27991
 C757 C 0.14509 0.36095 0.78962
 C758 C 0.13411 0.36799 0.76555
 C759 C 0.14311 0.35485 0.74182
 C760 C 0.16188 0.33536 0.74243
 C761 C 0.17226 0.32846 0.76642
 C762 C 0.16380 0.34156 0.78994
 C763 C 0.13336 0.36113 0.71752
 C764 C 0.11479 0.38024 0.71604
 C765 C 0.10499 0.39391 0.73898
 C766 C 0.11464 0.38753 0.76418
 C767 C 0.10439 0.40078 0.78715
 C768 C 0.08557 0.41968 0.78566
 C769 C 0.07621 0.42633 0.76132
 C770 C 0.08578 0.41367 0.73758
 C771 C 0.07571 0.42148 0.71343
 C772 C 0.05704 0.44086 0.71304
 C773 C 0.04763 0.45318 0.73656
 C774 C 0.05731 0.44573 0.76066
 H775 H 0.13973 0.36998 0.80861
 H776 H 0.16866 0.32573 0.72406
 H777 H 0.17135 0.33649 0.80878
 H778 H 0.14019 0.35112 0.69933
 H779 H 0.10839 0.38364 0.69641
 H780 H 0.11035 0.39692 0.80679
 H781 H 0.07829 0.42927 0.80386
 H782 H 0.08189 0.41321 0.69441
 H783 H 0.04997 0.44623 0.69410
 H784 H 0.05028 0.45519 0.77903
 C785 C 0.16109 0.64956 0.27886
 C786 C 0.15386 0.63249 0.25657
 C787 C 0.16740 0.63624 0.23262
 C788 C 0.18761 0.65590 0.23143
 C789 C 0.19459 0.67293 0.25372
 C790 C 0.18089 0.66928 0.27741
 C791 C 0.16057 0.62053 0.20979
 C792 C 0.14017 0.60148 0.20995
 C793 C 0.12589 0.59704 0.23321
 C794 C 0.13344 0.61220 0.25711
 C795 C 0.12046 0.60643 0.28076
 C796 C 0.10035 0.58709 0.28102
 C797 C 0.09200 0.57294 0.25775
 C798 C 0.10445 0.57778 0.23344
 C799 C 0.09457 0.56338 0.21033
 C800 C 0.07354 0.54489 0.21149
 C801 C 0.06163 0.53995 0.23562
 C802 C 0.07106 0.55404 0.25871
 H803 H 0.15160 0.64856 0.29776
 H804 H 0.19708 0.65833 0.21263
 H805 H 0.18560 0.68125 0.29537
 H806 H 0.17095 0.62315 0.19142
 H807 H 0.13638 0.59023 0.19143
 H808 H 0.12564 0.61625 0.29968
 H809 H 0.09104 0.58336 0.29969
 H810 H 0.10225 0.56619 0.19092
 H811 H 0.06661 0.53440 0.19328
 H812 H 0.06185 0.55057 0.27749
 C813 C 0.79334 -0.15050 0.65222
 C814 C 0.77039 -0.13884 0.64310
 C815 C 0.74584 -0.14581 0.65476
 C816 C 0.74464 -0.16332 0.67485
 C817 C 0.76757 -0.17447 0.68374
 C818 C 0.79185 -0.16797 0.67213
 C819 C 0.72254 -0.13532 0.64638
 C820 C 0.72287 -0.11795 0.62662
 C821 C 0.74671 -0.11016 0.61438
 C822 C 0.77092 -0.12062 0.62290
 C823 C 0.79483 -0.11235 0.61109
 C824 C 0.79521 -0.09457 0.59168
 C825 C 0.77185 -0.08436 0.58304
 C826 C 0.74721 -0.09208 0.59405
 C827 C 0.72412 -0.08130 0.58417
 C828 C 0.72562 -0.06346 0.56462
 C829 C 0.75006 -0.05567 0.55413
 C830 C 0.77311 -0.06634 0.56341
 H831 H 0.81280 -0.14665 0.64445
 H832 H 0.72567 -0.16858 0.68334
 H833 H 0.80991 -0.17613 0.67876
 H834 H 0.70373 -0.14059 0.65524
 H835 H 0.70392 -0.11081 0.62158
 H836 H 0.81384 -0.11906 0.61654
 H837 H 0.81410 -0.08874 0.58333
 H838 H 0.70451 -0.08621 0.59100
 H839 H 0.70744 -0.05564 0.55778
 H840 H 0.79217 -0.06058 0.55537
 C841 C 0.29127 -0.15595 0.34365
 C842 C 0.26843 -0.14764 0.35762
 C843 C 0.24388 -0.16069 0.35043
 C844 C 0.24257 -0.18137 0.33054
 C845 C 0.26538 -0.18939 0.31710
 C846 C 0.28966 -0.17642 0.32377
 C847 C 0.22065 -0.15304 0.36303
 C848 C 0.22104 -0.13252 0.38256
 C849 C 0.24489 -0.11880 0.39055
 C850 C 0.26906 -0.12682 0.37823
 C851 C 0.29304 -0.11393 0.38711
 C852 C 0.29348 -0.09376 0.40705
 C853 C 0.27010 -0.08532 0.41881
 C854 C 0.24542 -0.09750 0.41064
 C855 C 0.22228 -0.08766 0.42289
 C856 C 0.22377 -0.06703 0.44256
 C857 C 0.24824 -0.05541 0.45081
 C858 C 0.27135 -0.06467 0.43876
 H859 H 0.31069 -0.14699 0.34737
 H860 H 0.22360 -0.19095 0.32517
 H861 H 0.30761 -0.18234 0.31377
 H862 H 0.20185 -0.16302 0.35766
 H863 H 0.20217 -0.12814 0.39126
 H864 H 0.31206 -0.11918 0.37930
 H865 H 0.31241 -0.08457 0.41326
 H866 H 0.20264 -0.09521 0.41764
 H867 H 0.20554 -0.06022 0.45140
 H868 H 0.29043 -0.05571 0.44483
 C869 C 0.71343 0.14598 0.35136
 C870 C 0.73665 0.13704 0.36284
 C871 C 0.76133 0.14804 0.35482
 C872 C 0.76243 0.16718 0.33628
 C873 C 0.73923 0.17562 0.32505
 C874 C 0.71480 0.16486 0.33282
 C875 C 0.78485 0.13978 0.36518
 C876 C 0.78462 0.12063 0.38322
 C877 C 0.76066 0.10891 0.39185
 C878 C 0.73625 0.11752 0.38176
 C879 C 0.71227 0.10639 0.39098
 C880 C 0.71201 0.08740 0.40917
 C881 C 0.73555 0.07853 0.41888
 C882 C 0.76026 0.08898 0.41035
 C883 C 0.78349 0.07888 0.42069
 C884 C 0.78209 0.05960 0.43883
 C885 C 0.75760 0.04962 0.44736
 C886 C 0.73440 0.05919 0.43718
 H887 H 0.69382 0.13874 0.35602
 H888 H 0.78146 0.17512 0.33012
 H889 H 0.69656 0.17124 0.32469
 H890 H 0.80376 0.14817 0.35918
 H891 H 0.80374 0.11558 0.39016
 H892 H 0.69312 0.11203 0.38469
 H893 H 0.69308 0.07952 0.41568
 H894 H 0.80313 0.08529 0.41515
 H895 H 0.80037 0.05254 0.44628
 H896 H 0.71529 0.05158 0.44353
 C897 C 0.20721 0.16283 0.66673
 C898 C 0.23061 0.15078 0.65757
 C899 C 0.25485 0.15978 0.66988
 C900 C 0.25535 0.17977 0.69050
 C901 C 0.23200 0.19145 0.69921
 C902 C 0.20801 0.18277 0.68712
 C903 C 0.27854 0.14893 0.66150
 C904 C 0.27892 0.12936 0.64099
 C905 C 0.25542 0.11966 0.62798
 C906 C 0.23081 0.13033 0.63661
 C907 C 0.20723 0.12014 0.62409
 C908 C 0.20756 0.10041 0.60378
 C909 C 0.23131 0.09005 0.59492
 C910 C 0.25564 0.09951 0.60671
 C911 C 0.27915 0.08838 0.59657
 C912 C 0.27833 0.06863 0.57594
 C913 C 0.25417 0.05925 0.56464
 C914 C 0.23075 0.07016 0.57424
 H915 H 0.18792 0.15751 0.65857
 H916 H 0.27408 0.18662 0.69945
 H917 H 0.18964 0.19127 0.69365
 H918 H 0.29712 0.15570 0.67088
 H919 H 0.29812 0.12214 0.63596
 H920 H 0.18795 0.12682 0.62961
 H921 H 0.18891 0.09320 0.59485
 H922 H 0.29856 0.09448 0.60398
 H923 H 0.29678 0.06064 0.56888
 H924 H 0.21190 0.06315 0.56561
   
