data_POSCAR
  _audit_creation_date              2014-09-24
  _audit_creation_method            'ToBaCCo'
  _symmetry_space_group_name_H-M    'P1'
  _symmetry_Int_Tables_number       1
  _symmetry_cell_setting            triclinic
  loop_
  _symmetry_equiv_pos_as_xyz
 x,y,z
_cell_length_a 25.0409
_cell_length_b 25.0732
_cell_length_c 65.1327
_cell_angle_alpha 83.736100
_cell_angle_beta 93.174600
_cell_angle_gamma 120.089200
loop_
  _atom_site_label
  _atom_site_type_symbol
  _atom_site_fract_x
  _atom_site_fract_y
  _atom_site_fract_z
C1 C -0.00107 0.12536 0.52467
 H2 H 0.04429 0.13023 0.52416
 C3 C -0.01187 0.16000 0.53747
 H4 H 0.02527 0.19166 0.54689
 C5 C -0.10529 0.07695 0.51339
 H6 H -0.14150 0.04434 0.50402
 C7 C -0.11816 0.11073 0.52608
 H8 H -0.16438 0.10386 0.52657
 N9 N -0.04772 0.08403 0.51325
 C10 C -0.00635 -0.06343 0.50824
 H11 H -0.00306 -0.06238 0.49169
 C12 C -0.00251 -0.10947 0.52136
 H13 H 0.00409 -0.14384 0.51494
 C14 C -0.02177 -0.02182 0.53688
 H15 H -0.03084 0.01127 0.54292
 C16 C -0.01810 -0.06682 0.55048
 H17 H -0.02378 -0.06773 0.56691
 Zn18 Zn -0.02755 0.03672 0.49789
 N19 N -0.01584 -0.02079 0.51617
 C20 C 0.09557 0.08511 0.48333
 N21 N 0.04533 0.09269 0.48291
 C22 C 0.04480 0.14104 0.47137
 C23 C 0.09516 0.18277 0.45896
 C24 C 0.14703 0.12588 0.47107
 C25 C -0.14614 -0.05678 0.48700
 C26 C -0.19147 -0.09581 0.47369
 C27 C -0.12391 -0.03536 0.44485
 C28 C -0.07997 0.00221 0.45866
 N29 N -0.09152 -0.00915 0.47932
 H30 H 0.09544 0.04695 0.49283
 H31 H 0.00444 0.14621 0.47148
 H32 H 0.09361 0.22017 0.44942
 H33 H 0.18627 0.11875 0.47103
 H34 H -0.15364 -0.06560 0.50352
 H35 H -0.23411 -0.13455 0.48002
 H36 H -0.11332 -0.02650 0.42848
 H37 H -0.03591 0.03911 0.45283
 C38 C -0.00881 -0.11127 0.54267
 C39 C -0.07105 0.15213 0.53839
 C40 C -0.17990 -0.08531 0.45241
 C41 C 0.14642 0.17471 0.45861
 C42 C 1.17004 0.06697 0.14029
 H43 H 1.17533 0.11262 0.13991
 C44 C 1.20769 0.05719 0.12803
 H45 H 1.24205 0.09539 0.11813
 C46 C 1.11760 -0.03899 0.15324
 H47 H 1.08228 -0.07630 0.16302
 C48 C 1.15431 -0.05084 0.14114
 H49 H 1.14692 -0.09736 0.14153
 N50 N 1.12526 0.01897 0.15223
 C51 C 0.97626 0.05998 0.15520
 H52 H 0.97252 0.06020 0.17166
 C53 C 0.93308 0.06489 0.14173
 H54 H 0.89615 0.06923 0.14779
 C55 C 1.02668 0.05049 0.12720
 H56 H 1.06194 0.04306 0.12158
 C57 C 0.98471 0.05540 0.11326
 H58 H 0.98828 0.05225 0.09698
 Zn59 Zn 1.07372 0.03713 0.16671
 N60 N 1.02172 0.05263 0.14777
 C61 C 1.11771 0.15724 0.18019
 N62 N 1.12538 0.10695 0.18118
 C63 C 1.17026 0.10383 0.19310
 C64 C 1.20797 0.15132 0.20536
 C65 C 1.15449 0.20585 0.19229
 C66 C 0.97632 -0.08326 0.17826
 C67 C 0.93323 -0.13134 0.19174
 C68 C 0.98510 -0.07004 0.22020
 C69 C 1.02697 -0.02317 0.20623
 N70 N 1.02185 -0.03036 0.18567
 H71 H 1.08231 0.15915 0.17042
 H72 H 1.17554 0.06348 0.19347
 H73 H 1.24241 0.14756 0.21525
 H74 H 1.14708 0.24496 0.19192
 H75 H 0.97245 -0.08729 0.16180
 H76 H 0.89625 -0.17269 0.18570
 H77 H 0.98880 -0.06324 0.23647
 H78 H 1.06228 0.01959 0.21184
 C79 C 0.93714 0.06200 0.12058
 C80 C 1.19923 -0.00236 0.12825
 C81 C 0.93745 -0.12430 0.21289
 C82 C 1.19950 0.20239 0.20517
 C83 C 0.04407 0.90312 0.86186
 H84 H 0.00372 0.85754 0.86173
 C85 C 0.09439 0.91183 0.87432
 H86 H 0.09283 0.87288 0.88387
 C87 C 0.09484 1.00990 0.84994
 H88 H 0.09471 1.04792 0.84043
 C89 C 0.14626 1.02067 0.86225
 H90 H 0.18548 1.06708 0.86232
 N91 N 0.04461 0.95200 0.85032
 C92 C -0.14689 0.90965 0.84605
 H93 H -0.15435 0.91098 0.82952
 C94 C -0.19227 0.90325 0.85932
 H95 H -0.23492 0.89928 0.85299
 C96 C -0.08079 0.91695 0.87445
 H97 H -0.03674 0.92420 0.88032
 C98 C -0.12481 0.91047 0.88821
 H99 H -0.11439 0.91221 0.90459
 Zn100 Zn -0.02823 0.93499 0.83526
 N101 N -0.09228 0.91674 0.85378
 C102 C -0.10585 0.81694 0.81970
 N103 N -0.04829 0.86753 0.81989
 C104 C -0.00159 0.87295 0.80852
 C105 C -0.01232 0.82753 0.79570
 C106 C -0.11864 0.77032 0.80699
 C107 C -0.00705 1.05636 0.82494
 C108 C -0.00318 1.10626 0.81182
 C109 C -0.01863 1.04806 0.78268
 C110 C -0.02234 0.99936 0.79628
 N111 N -0.01648 1.00425 0.81700
 H112 H -0.14210 0.81327 0.82903
 H113 H 0.04376 0.91351 0.80906
 H114 H 0.02487 0.83310 0.78632
 H115 H -0.16486 0.73091 0.80645
 H116 H -0.00382 1.05858 0.84148
 H117 H 0.00338 1.14722 0.81824
 H118 H -0.02425 1.04330 0.76625
 H119 H -0.03137 0.95722 0.79024
 C120 C -0.18075 0.90431 0.88060
 C121 C 0.14563 0.97123 0.87471
 C122 C -0.00939 1.10179 0.79050
 C123 C -0.07148 0.77614 0.79473
 C124 C 0.38010 -0.01850 0.00131
 C125 C 0.40822 -0.01164 -0.01747
 C126 C 0.46447 -0.01090 -0.01769
 C127 C 0.49232 -0.01903 0.00095
 C128 C 0.46261 -0.02690 0.01977
 C129 C 0.40737 -0.02562 0.01991
 C130 C 0.55196 -0.01918 0.00076
 C131 C 0.59404 0.00158 0.01735
 C132 C 0.64942 0.00057 0.01726
 C133 C 0.66440 -0.01924 0.00037
 C134 C 0.62390 -0.03901 -0.01633
 C135 C 0.56755 -0.03997 -0.01604
 H136 H 0.33692 -0.01825 0.00145
 H137 H 0.48633 -0.00350 -0.03241
 H138 H 0.48181 -0.03443 0.03437
 H139 H 0.58441 0.01904 0.03031
 H140 H 0.70772 -0.01923 0.00022
 H141 H 0.53609 -0.05734 -0.02887
 C142 C -0.06615 0.60876 0.66707
 C143 C -0.08009 0.56863 0.68511
 C144 C -0.08206 0.51190 0.68485
 C145 C -0.06798 0.49559 0.66663
 C146 C -0.05305 0.53729 0.64863
 C147 C -0.05307 0.59306 0.64882
 C148 C -0.06800 0.43597 0.66647
 C149 C -0.08203 0.40560 0.64824
 C150 C -0.08009 0.35082 0.64799
 C151 C -0.06624 0.32460 0.66604
 C152 C -0.05321 0.35337 0.68430
 C153 C -0.05315 0.40918 0.68449
 H154 H -0.06501 0.65253 0.66727
 H155 H -0.09461 0.48086 0.69889
 H156 H -0.04054 0.52723 0.63449
 H157 H -0.09451 0.42412 0.63420
 H158 H -0.06513 0.28195 0.66584
 H159 H -0.04069 0.43173 0.69864
 C160 C 0.66562 0.68443 0.33320
 C161 C 0.65045 0.64961 0.31630
 C162 C 0.59498 0.59322 0.31620
 C163 C 0.55299 0.57195 0.33280
 C164 C 0.56877 0.60837 0.34961
 C165 C 0.62521 0.66374 0.34991
 C166 C 0.49325 0.51219 0.33259
 C167 C 0.46541 0.47620 0.35122
 C168 C 0.40908 0.42069 0.35098
 C169 C 0.38086 0.39946 0.33219
 C170 C 0.40810 0.43386 0.31360
 C171 C 0.46343 0.49037 0.31376
 H172 H 0.70900 0.72773 0.33335
 H173 H 0.58521 0.56611 0.30323
 H174 H 0.53739 0.59431 0.36244
 H175 H 0.48735 0.49064 0.36595
 H176 H 0.33761 0.35603 0.33204
 H177 H 0.48261 0.51710 0.29917
 C178 C -0.08314 0.18420 0.55288
 C179 C -0.09018 0.21098 0.56584
 C180 C -0.09488 0.24203 0.58186
 C181 C -0.09592 0.26810 0.59620
 C182 C -0.09373 0.29789 0.61366
 C183 C -0.08904 0.32253 0.62907
 C184 C 0.89092 0.83000 0.22706
 C185 C 0.85228 0.79462 0.23954
 C186 C 0.80765 0.75666 0.25480
 C187 C 0.77022 0.72727 0.26830
 C188 C 0.72735 0.69648 0.28461
 C189 C 0.69171 0.67335 0.29889
 C190 C 0.19538 -0.01874 -0.11117
 C191 C 0.23473 -0.01248 -0.09856
 C192 C 0.27792 -0.00761 -0.08295
 C193 C 0.31219 -0.00549 -0.06892
 C194 C 0.34909 -0.00535 -0.05173
 C195 C 0.37771 -0.00718 -0.03643
 C196 C -0.00914 0.83996 0.55664
 C197 C -0.01142 0.79967 0.56913
 C198 C -0.01627 0.75338 0.58458
 C199 C -0.02219 0.71479 0.59843
 C200 C -0.03109 0.67089 0.61535
 C201 C -0.04028 0.63465 0.63034
 C202 C 0.23445 0.24861 0.21921
 C203 C 0.26323 0.28461 0.23182
 C204 C 0.29620 0.32347 0.24751
 C205 C 0.32353 0.35369 0.26164
 C206 C 0.35439 0.38545 0.27899
 C207 C 0.37958 0.40935 0.29445
 C208 C 0.77894 -0.09585 -0.10614
 C209 C 0.74634 -0.09349 -0.09374
 C210 C 0.71219 -0.08768 -0.07847
 C211 C 0.68650 -0.08021 -0.06488
 C212 C 0.66052 -0.06861 -0.04841
 C213 C 0.64188 -0.05636 -0.03396
 C214 C 0.23412 -0.01365 0.11422
 C215 C 0.26285 -0.02090 0.10162
 C216 C 0.29575 -0.02684 0.08596
 C217 C 0.32303 -0.02977 0.07184
 C218 C 0.35382 -0.03075 0.05450
 C219 C 0.37894 -0.02952 0.03905
 C220 C 0.78142 0.87609 0.43966
 C221 C 0.74863 0.84105 0.42728
 C222 C 0.71425 0.80098 0.41203
 C223 C 0.68838 0.76773 0.39845
 C224 C 0.66219 0.73007 0.38199
 C225 C 0.64338 0.69913 0.36755
 C226 C -0.00968 0.15025 0.77653
 C227 C -0.01191 0.18828 0.76404
 C228 C -0.01670 0.22974 0.74858
 C229 C -0.02256 0.26243 0.73472
 C230 C -0.03139 0.29746 0.71779
 C231 C -0.04051 0.32453 0.70280
 C232 C 0.89051 0.06107 0.10643
 C233 C 0.85178 0.05774 0.09396
 C234 C 0.80704 0.05099 0.07872
 C235 C 0.76951 0.04289 0.06523
 C236 C 0.72653 0.03073 0.04894
 C237 C 0.69079 0.01815 0.03467
 C238 C 0.19621 0.21455 0.44454
 C239 C 0.23558 0.24772 0.43197
 C240 C 0.27880 0.28614 0.41639
 C241 C 0.31308 0.31836 0.40239
 C242 C 0.34999 0.35520 0.38521
 C243 C 0.37859 0.38569 0.36993
 C244 C -0.08350 0.73201 0.78022
 C245 C -0.09048 0.69821 0.76725
 C246 C -0.09511 0.66250 0.75122
 C247 C -0.09609 0.63542 0.73689
 C248 C -0.09384 0.60785 0.71943
 C249 C -0.08910 0.58794 0.70402
   
