data_POSCAR
  _audit_creation_date              2014-09-24
  _audit_creation_method            'ToBaCCo'
  _symmetry_space_group_name_H-M    'P1'
  _symmetry_Int_Tables_number       1
  _symmetry_cell_setting            triclinic
  loop_
  _symmetry_equiv_pos_as_xyz
 x,y,z
_cell_length_a 36.4636
_cell_length_b 36.9733
_cell_length_c 36.6886
_cell_angle_alpha 88.680300
_cell_angle_beta 88.648000
_cell_angle_gamma 91.256500
loop_
  _atom_site_label
  _atom_site_type_symbol
  _atom_site_fract_x
  _atom_site_fract_y
  _atom_site_fract_z
C1 C 0.19522 0.53053 1.03669
 H2 H 0.19736 0.55108 1.01522
 C3 C 0.16722 0.53190 1.06313
 H4 H 0.14798 0.55380 1.06198
 C5 C 0.21649 0.47592 1.06285
 H6 H 0.23508 0.45357 1.06190
 C7 C 0.18873 0.47613 1.08981
 H8 H 0.18678 0.45395 1.10951
 N9 N 0.21890 0.50267 1.03676
 C10 C 0.30857 0.54110 0.96436
 H11 H 0.30718 0.52062 0.94381
 C12 C 0.33762 0.56631 0.96353
 H13 H 0.35841 0.56555 0.94199
 C14 C 0.28465 0.56540 1.01902
 H15 H 0.26480 0.56400 1.04137
 C16 C 0.31330 0.59112 1.01921
 H17 H 0.31480 0.60974 1.04145
 Zn18 Zn 0.25105 0.50004 0.99579
 N19 N 0.28315 0.54075 0.99210
 C20 C 0.22041 0.52298 0.92835
 N21 N 0.22083 0.49660 0.95483
 C22 C 0.19622 0.46843 0.95548
 C23 C 0.16912 0.46647 0.92937
 C24 C 0.19365 0.52206 0.90165
 C25 C 0.30554 0.46016 1.02779
 C26 C 0.33371 0.43532 1.02927
 C27 C 0.31226 0.40986 0.97334
 C28 C 0.28437 0.43520 0.97293
 N29 N 0.28190 0.45997 0.99968
 H30 H 0.23971 0.54555 0.92885
 H31 H 0.19680 0.44821 0.97724
 H32 H 0.14889 0.44457 0.93093
 H33 H 0.19277 0.54387 0.88154
 H34 H 0.30343 0.48071 1.04820
 H35 H 0.35309 0.43645 1.05116
 H36 H 0.31465 0.39110 0.95127
 H37 H 0.26592 0.43619 0.95032
 C38 C 0.34060 0.59109 0.99164
 C39 C 0.16314 0.50406 1.08971
 C40 C 0.33772 0.41040 1.00139
 C41 C 0.16721 0.49389 0.90257
 C42 C 0.80868 0.53748 -0.04031
 H43 H 0.80647 0.55795 -0.01981
 C44 C 0.83770 0.53924 -0.06576
 H45 H 0.85745 0.56142 -0.06480
 C46 C 0.78688 0.48230 -0.06442
 H47 H 0.76783 0.45948 -0.06282
 C48 C 0.81570 0.48293 -0.09031
 H49 H 0.81851 0.46075 -0.10886
 N50 N 0.78435 0.50909 -0.03972
 C51 C 0.69723 0.54559 0.03294
 H52 H 0.69845 0.52488 0.05417
 C53 C 0.66895 0.57038 0.03350
 H54 H 0.64859 0.56907 0.05549
 C55 C 0.72064 0.57080 -0.02315
 H56 H 0.73988 0.56983 -0.04594
 C57 C 0.69281 0.59618 -0.02359
 H58 H 0.69133 0.61499 -0.04649
 Zn59 Zn 0.75233 0.50536 0.00147
 N60 N 0.72195 0.54584 0.00460
 C61 C 0.78687 0.52750 0.06683
 N62 N 0.78316 0.50109 0.04187
 C63 C 0.80559 0.47223 0.04154
 C64 C 0.83384 0.46953 0.06628
 C65 C 0.81507 0.52595 0.09204
 C66 C 0.69637 0.46509 -0.02911
 C67 C 0.66742 0.43984 -0.02960
 C68 C 0.68794 0.41443 0.02747
 C69 C 0.71658 0.44018 0.02689
 N70 N 0.71995 0.46508 -0.00095
 H71 H 0.76930 0.55066 0.06598
 H72 H 0.80246 0.45206 0.02087
 H73 H 0.85205 0.44693 0.06456
 H74 H 0.81893 0.54781 0.11082
 H75 H 0.69921 0.48575 -0.05042
 H76 H 0.64814 0.44076 -0.05159
 H77 H 0.68494 0.39552 0.05033
 H78 H 0.73492 0.44134 0.04955
 C79 C 0.66610 0.59544 0.00457
 C80 C 0.84195 0.51123 -0.09049
 C81 C 0.66260 0.41468 -0.00068
 C82 C 0.83942 0.49710 0.09126
 C83 C -0.02616 0.30390 0.45971
 H84 H -0.04691 0.30077 0.48118
 C85 C -0.02773 0.33267 0.43459
 H86 H -0.05006 0.35144 0.43669
 C87 C 0.02930 0.28440 0.43242
 H88 H 0.05212 0.26624 0.43251
 C89 C 0.02890 0.31297 0.40674
 H90 H 0.05134 0.31586 0.38705
 N91 N 0.00222 0.28071 0.45846
 C92 C -0.03669 0.19147 0.53003
 H93 H -0.01604 0.19290 0.55067
 C94 C -0.06208 0.16265 0.53065
 H95 H -0.06134 0.14214 0.55217
 C96 C -0.06110 0.21496 0.47525
 H97 H -0.05957 0.23452 0.45289
 C98 C -0.08701 0.18654 0.47486
 H99 H -0.10574 0.18497 0.45250
 Zn100 Zn 0.00537 0.24782 0.49846
 N101 N -0.03627 0.21655 0.50231
 C102 C -0.01731 0.27975 0.56523
 N103 N 0.01019 0.27686 0.53981
 C104 C 0.04021 0.29930 0.53950
 C105 C 0.04286 0.32697 0.56454
 C106 C -0.01583 0.30731 0.59074
 C107 C 0.04468 0.19521 0.46345
 C108 C 0.06837 0.16625 0.46082
 C109 C 0.09404 0.18288 0.51836
 C110 C 0.06989 0.21170 0.51987
 N111 N 0.04541 0.21682 0.49291
 H112 H -0.04136 0.26220 0.56434
 H113 H 0.06124 0.29686 0.51846
 H114 H 0.06629 0.34540 0.56269
 H115 H -0.03866 0.31066 0.60968
 H116 H 0.02428 0.19936 0.44293
 H117 H 0.06629 0.14858 0.43786
 H118 H 0.11231 0.17793 0.54069
 H119 H 0.06921 0.22848 0.54359
 C120 C -0.08699 0.15955 0.50237
 C121 C 0.00044 0.33805 0.40813
 C122 C 0.09265 0.15927 0.48904
 C123 C 0.01405 0.33189 0.58977
 C124 C 0.95786 0.69363 0.53940
 H125 H 0.93744 0.69675 0.51869
 C126 C 0.95505 0.66453 0.56422
 H127 H 0.93212 0.64565 0.56261
 C128 C 1.01419 0.71298 0.56434
 H129 H 1.03795 0.73101 0.56318
 C130 C 1.01253 0.68404 0.58961
 H131 H 1.03486 0.68014 0.60814
 N132 N 0.98739 0.71671 0.53942
 C133 C 0.95449 0.80343 0.46533
 H134 H 0.97557 0.80132 0.44428
 C135 C 0.93040 0.83226 0.46434
 H136 H 0.93258 0.85209 0.44215
 C137 C 0.92776 0.78178 0.52143
 H138 H 0.92790 0.76300 0.54442
 C139 C 0.90310 0.81019 0.52145
 H140 H 0.88396 0.81247 0.54420
 Zn141 Zn 0.99319 0.74804 0.49822
 N142 N 0.95317 0.77929 0.49389
 C143 C 0.97175 0.71313 0.43277
 N144 N 0.99795 0.71702 0.45828
 C145 C 1.02680 0.69442 0.45988
 C146 C 1.02971 0.66591 0.43591
 C147 C 0.97350 0.68464 0.40829
 C148 C 1.03474 0.80191 0.52999
 C149 C 1.06097 0.82985 0.53120
 C150 C 1.08773 0.80910 0.47475
 C151 C 1.06095 0.78148 0.47459
 N152 N 1.03488 0.77876 0.50173
 H153 H 0.94854 0.73083 0.43265
 H154 H 1.04673 0.69765 0.48101
 H155 H 1.05229 0.64767 0.43864
 H156 H 0.95179 0.68073 0.38903
 H157 H 1.01318 0.79961 0.55073
 H158 H 1.05981 0.84892 0.55314
 H159 H 1.10746 0.81176 0.45232
 H160 H 1.05990 0.76349 0.45183
 C161 C 0.90498 0.83630 0.49308
 C162 C 0.98320 0.65890 0.58893
 C163 C 1.08727 0.83410 0.50291
 C164 C 1.00235 0.66021 0.41035
 C165 C 0.46204 -0.03963 0.30555
 H166 H 0.48337 -0.05944 0.30371
 C167 C 0.43624 -0.04199 0.33414
 H168 H 0.43779 -0.06396 0.35395
 C169 C 0.43631 0.01470 0.28331
 H170 H 0.43746 0.03749 0.26431
 C171 C 0.41003 0.01348 0.31174
 H172 H 0.39077 0.03520 0.31433
 N173 N 0.46203 -0.01134 0.28126
 C174 C 0.53774 -0.04680 0.19672
 H175 H 0.55864 -0.02567 0.19795
 C176 C 0.53922 -0.07189 0.16894
 H177 H 0.56160 -0.07009 0.14897
 C178 C 0.48150 -0.07276 0.21944
 H179 H 0.45821 -0.07195 0.23812
 C180 C 0.48193 -0.09846 0.19215
 H181 H 0.45898 -0.11734 0.19081
 Zn182 Zn 0.50392 -0.00656 0.25035
 N183 N 0.50882 -0.04723 0.22076
 C184 C 0.56897 -0.02691 0.28688
 N185 N 0.54350 -0.00100 0.28200
 C186 C 0.54162 0.02795 0.30406
 C187 C 0.56523 0.03125 0.33314
 C188 C 0.59306 -0.02476 0.31593
 C189 C 0.47274 0.03298 0.19434
 C190 C 0.47142 0.05882 0.16615
 C191 C 0.52771 0.08580 0.18744
 C192 C 0.52795 0.05945 0.21534
 N193 N 0.50085 0.03356 0.21802
 H194 H 0.56926 -0.05019 0.26959
 H195 H 0.52049 0.04764 0.30004
 H196 H 0.56227 0.05387 0.35104
 H197 H 0.61223 -0.04623 0.32070
 H198 H 0.45202 0.01160 0.19666
 H199 H 0.44941 0.05758 0.14687
 H200 H 0.54995 0.10561 0.18505
 H201 H 0.55059 0.05879 0.23379
 C202 C 0.51058 -0.09758 0.16579
 C203 C 0.41058 -0.01462 0.33804
 C204 C 0.49949 0.08515 0.16215
 C205 C 0.59065 0.00418 0.33988
 C206 C 0.53183 -0.02504 0.69894
 H207 H 0.51000 -0.04532 0.70122
 C208 C 0.55815 -0.02664 0.67090
 H209 H 0.55677 -0.04840 0.65168
 C210 C 0.55883 0.02940 0.71981
 H211 H 0.55815 0.05182 0.73817
 C212 C 0.58568 0.02889 0.69197
 H213 H 0.60582 0.05077 0.68942
 N214 N 0.53237 0.00287 0.72242
 C215 C 0.45639 -0.03545 0.80870
 H216 H 0.43572 -0.01504 0.80622
 C217 C 0.45439 -0.06041 0.83779
 H218 H 0.43179 -0.05931 0.85731
 C219 C 0.51263 -0.05953 0.78776
 H220 H 0.53608 -0.05798 0.76918
 C221 C 0.51171 -0.08497 0.81654
 H222 H 0.53424 -0.10331 0.81969
 Zn223 Zn 0.49093 0.00613 0.75383
 N224 N 0.48555 -0.03497 0.78490
 C225 C 0.42469 -0.01543 0.71975
 N226 N 0.45067 0.01120 0.72305
 C227 C 0.45209 0.04071 0.70025
 C228 C 0.42750 0.04382 0.67194
 C229 C 0.39964 -0.01350 0.69152
 C230 C 0.52360 0.04507 0.80845
 C231 C 0.52534 0.06970 0.83660
 C232 C 0.46908 0.09562 0.81572
 C233 C 0.46842 0.07051 0.78786
 N234 N 0.49524 0.04565 0.78507
 H235 H 0.42472 -0.03910 0.73759
 H236 H 0.47359 0.06102 0.70305
 H237 H 0.43020 0.06679 0.65324
 H238 H 0.38023 -0.03564 0.68785
 H239 H 0.54404 0.02443 0.80610
 H240 H 0.54743 0.06830 0.85577
 H241 H 0.44695 0.11447 0.81833
 H242 H 0.44553 0.06978 0.76970
 C243 C 0.48289 -0.08477 0.84248
 C244 C 0.58491 0.00096 0.66676
 C245 C 0.49742 0.09475 0.84086
 C246 C 0.40163 0.01596 0.66674
 C247 C 0.21069 -0.03475 0.50180
 C248 C 0.22904 -0.00105 0.50124
 C249 C 0.20905 0.03085 0.49957
 C250 C 0.17069 0.02922 0.49815
 C251 C 0.15249 -0.00464 0.49889
 C252 C 0.17233 -0.03666 0.50077
 C253 C 0.26925 0.00072 0.50153
 C254 C 0.28948 -0.00237 0.46882
 C255 C 0.32788 -0.00157 0.46893
 C256 C 0.34583 0.00266 0.50198
 C257 C 0.32584 0.00583 0.53483
 C258 C 0.28743 0.00474 0.53449
 H259 H 0.22639 -0.05925 0.50296
 H260 H 0.22336 0.05688 0.49892
 H261 H 0.27536 -0.00567 0.44340
 H262 H 0.27173 0.00684 0.55978
 H263 H 0.12288 -0.00639 0.49790
 H264 H 0.37538 0.00318 0.50217
 C265 C 0.78623 -0.03446 0.49722
 C266 C 0.76790 -0.00171 0.49939
 C267 C 0.78792 0.03097 0.50036
 C268 C 0.82637 0.03113 0.49910
 C269 C 0.84463 -0.00186 0.49707
 C270 C 0.82469 -0.03478 0.49620
 C271 C 0.72766 -0.00158 0.50123
 C272 C 0.70929 -0.00108 0.53519
 C273 C 0.67090 -0.00031 0.53709
 C274 C 0.65108 0.00013 0.50481
 C275 C 0.66929 -0.00030 0.47069
 C276 C 0.70767 -0.00131 0.46908
 H277 H 0.77037 -0.05952 0.49674
 H278 H 0.77333 0.05606 0.50208
 H279 H 0.72496 -0.00118 0.55989
 H280 H 0.72199 -0.00150 0.44285
 H281 H 0.87436 -0.00194 0.49632
 H282 H 0.62146 0.00093 0.50656
 C283 C 0.53232 0.29088 1.00221
 C284 C 0.49891 0.27150 1.00260
 C285 C 0.46578 0.28990 1.00259
 C286 C 0.46590 0.32780 1.00218
 C287 C 0.49948 0.34711 1.00176
 C288 C 0.53277 0.32878 1.00177
 C289 C 0.49866 0.23186 1.00247
 C290 C 0.49869 0.21202 1.03543
 C291 C 0.49860 0.17413 1.03532
 C292 C 0.49849 0.15630 1.00199
 C293 C 0.49847 0.17606 0.96891
 C294 C 0.49855 0.21393 0.96929
 H295 H 0.55772 0.27628 1.00216
 H296 H 0.44015 0.27456 1.00274
 H297 H 0.49888 0.22622 1.06090
 H298 H 0.49849 0.22960 0.94400
 H299 H 0.49970 0.37644 1.00138
 H300 H 0.49843 0.12699 1.00180
 C301 C 0.53730 0.71510 0.00144
 C302 C 0.50425 0.73350 -0.00060
 C303 C 0.47111 0.71414 -0.00372
 C304 C 0.47076 0.67626 -0.00436
 C305 C 0.50400 0.65794 -0.00258
 C306 C 0.53738 0.67725 0.00013
 C307 C 0.50412 0.77307 0.00144
 C308 C 0.49911 0.79429 -0.03010
 C309 C 0.49789 0.83202 -0.02807
 C310 C 0.50136 0.84833 0.00587
 C311 C 0.50619 0.82722 0.03754
 C312 C 0.50788 0.78955 0.03519
 H313 H 0.56272 0.73041 0.00387
 H314 H 0.44574 0.72872 -0.00490
 H315 H 0.49616 0.78144 -0.05616
 H316 H 0.51132 0.77293 0.05950
 H317 H 0.50389 0.62865 -0.00317
 H318 H 0.50016 0.87741 0.00796
 C319 C 0.99758 0.53391 0.29125
 C320 C 0.99770 0.50223 0.27095
 C321 C 0.99749 0.46832 0.28887
 C322 C 0.99734 0.46595 0.32703
 C323 C 0.99727 0.49773 0.34715
 C324 C 0.99744 0.53184 0.32947
 C325 C 0.99956 0.50438 0.23090
 C326 C 1.03383 0.50518 0.21266
 C327 C 1.03583 0.50535 0.17448
 C328 C 1.00344 0.50482 0.15472
 C329 C 0.96902 0.50400 0.17267
 C330 C 0.96723 0.50391 0.21090
 H331 H 0.99811 0.56010 0.27733
 H332 H 0.99797 0.44399 0.27301
 H333 H 1.05869 0.50510 0.22822
 H334 H 0.94078 0.50288 0.22505
 H335 H 0.99743 0.49558 0.37659
 H336 H 1.00541 0.50473 0.12528
 C337 C -0.00368 0.52623 0.70576
 C338 C 0.00104 0.49362 0.72519
 C339 C 0.00450 0.46119 0.70638
 C340 C 0.00326 0.46128 0.66821
 C341 C -0.00156 0.49409 0.64910
 C342 C -0.00492 0.52665 0.66764
 C343 C 0.00276 0.49371 0.76518
 C344 C -0.02947 0.49718 0.78634
 C345 C -0.02789 0.49867 0.82441
 C346 C 0.00627 0.49698 0.84107
 C347 C 0.03865 0.49381 0.82015
 C348 C 0.03679 0.49187 0.78213
 H349 H -0.00610 0.55129 0.72030
 H350 H 0.00817 0.43600 0.72142
 H351 H -0.05571 0.49884 0.77319
 H352 H 0.06163 0.48966 0.76565
 H353 H -0.00267 0.49430 0.61976
 H354 H 0.00806 0.49838 0.87038
 C355 C 0.15604 0.09240 0.46472
 C356 C 0.11399 0.09545 0.46114
 C357 C 0.11410 0.12501 0.49004
 C358 C 0.15591 0.12237 0.49359
 C359 C 0.10778 0.09623 0.52065
 C360 C 0.10778 0.06641 0.49180
 C361 C 0.14962 0.06364 0.49533
 C362 C 0.14982 0.09316 0.52421
 H363 H 0.17610 0.09050 0.44165
 H364 H 0.09967 0.09572 0.43480
 H365 H 0.17557 0.14568 0.49422
 H366 H 0.08774 0.09806 0.54375
 H367 H 0.08714 0.04396 0.49103
 H368 H 0.16464 0.09188 0.55027
 C369 C 0.58526 0.63177 -0.02885
 C370 C 0.62473 0.64772 -0.02664
 C371 C 0.63307 0.61893 0.00282
 C372 C 0.59392 0.60279 0.00057
 C373 C 0.62058 0.64431 0.03310
 C374 C 0.61187 0.67338 0.00366
 C375 C 0.57272 0.65715 0.00141
 C376 C 0.58108 0.62839 0.03083
 H377 H 0.57041 0.62670 -0.05437
 H378 H 0.64242 0.65611 -0.05050
 H379 H 0.58677 0.57351 -0.00074
 H380 H 0.63543 0.64933 0.05863
 H381 H 0.61989 0.70243 0.00499
 H382 H 0.56282 0.62057 0.05448
 C383 C 0.87312 -0.07941 0.46539
 C384 C 0.89937 -0.09196 0.49544
 C385 C 0.88216 -0.13033 0.49434
 C386 C 0.85616 -0.11814 0.46426
 C387 C 0.85367 -0.12084 0.52406
 C388 C 0.87069 -0.08216 0.52513
 C389 C 0.84465 -0.06994 0.49509
 C390 C 0.82740 -0.10833 0.49397
 H391 H 0.88100 -0.06208 0.44123
 H392 H 0.92921 -0.08546 0.49610
 H393 H 0.85031 -0.13325 0.43918
 H394 H 0.84517 -0.13751 0.54847
 H395 H 0.87659 -0.06706 0.55021
 H396 H 0.79780 -0.11581 0.49325
 C397 C 0.42083 0.37456 0.97088
 C398 C 0.38109 0.35886 0.97196
 C399 C 0.37061 0.38668 1.00077
 C400 C 0.41001 0.40258 0.99963
 C401 C 0.38037 0.36013 1.03173
 C402 C 0.39123 0.33200 1.00296
 C403 C 0.43063 0.34800 1.00183
 C404 C 0.42011 0.37581 1.03059
 H405 H 0.43781 0.38038 0.94583
 H406 H 0.36529 0.35153 0.94763
 H407 H 0.41751 0.43185 0.99821
 H408 H 0.36340 0.35435 1.05679
 H409 H 0.38293 0.30295 1.00442
 H410 H 0.43645 0.38264 1.05474
 C411 C 0.87642 0.07495 0.52904
 C412 C 0.90392 0.08794 0.49850
 C413 C 0.88859 0.12633 0.50079
 C414 C 0.86134 0.11370 0.53134
 C415 C 0.86026 0.11755 0.47162
 C416 C 0.87537 0.07882 0.46937
 C417 C 0.84809 0.06617 0.49991
 C418 C 0.83272 0.10459 0.50220
 H419 H 0.88293 0.05715 0.55267
 H420 H 0.93346 0.08132 0.49694
 H421 H 0.85570 0.12833 0.55688
 H422 H 0.85317 0.13477 0.44776
 H423 H 0.88104 0.06418 0.44385
 H424 H 0.80348 0.11221 0.50380
 C425 C 0.42222 0.62820 0.02464
 C426 C 0.38301 0.64317 0.02233
 C427 C 0.37418 0.61526 -0.00689
 C428 C 0.41307 0.60009 -0.00454
 C429 C 0.38709 0.64213 -0.03740
 C430 C 0.39627 0.67034 -0.00818
 C431 C 0.43517 0.65510 -0.00582
 C432 C 0.42636 0.62721 -0.03502
 H433 H 0.43699 0.62256 0.05020
 H434 H 0.36551 0.65018 0.04617
 H435 H 0.41973 0.57095 -0.00299
 H436 H 0.37231 0.64772 -0.06295
 H437 H 0.38868 0.69921 -0.00983
 H438 H 0.44448 0.62081 -0.05862
 C439 C 0.12643 -0.08376 0.47057
 C440 C 0.14188 -0.12240 0.47263
 C441 C 0.11214 -0.13297 0.50166
 C442 C 0.09653 -0.09465 0.49956
 C443 C 0.13770 -0.12172 0.53237
 C444 C 0.16776 -0.11071 0.50336
 C445 C 0.15198 -0.07243 0.50126
 C446 C 0.12228 -0.08307 0.53025
 H447 H 0.12191 -0.06782 0.44512
 H448 H 0.15030 -0.13837 0.44873
 H449 H 0.06700 -0.08824 0.49795
 H450 H 0.14217 -0.13767 0.55782
 H451 H 0.19712 -0.11770 0.50499
 H452 H 0.11435 -0.06661 0.55398
 C453 C 0.57938 0.37837 0.97149
 C454 C 0.59003 0.40513 1.00143
 C455 C 0.62914 0.39024 1.00081
 C456 C 0.61884 0.36372 0.97086
 C457 C 0.61816 0.36186 1.03068
 C458 C 0.57871 0.37654 1.03126
 C459 C 0.56838 0.35000 1.00132
 C460 C 0.60749 0.33503 1.00070
 H461 H 0.56313 0.38500 0.94712
 H462 H 0.58309 0.43421 1.00177
 H463 H 0.63567 0.35861 0.94598
 H464 H 0.63383 0.35467 1.05527
 H465 H 0.56188 0.38168 1.05613
 H466 H 0.61529 0.30620 1.00033
 C467 C 0.49813 0.16622 1.10955
 C468 C 0.46903 0.13644 1.12030
 C469 C 0.50006 0.11054 1.12962
 C470 C 0.52919 0.14001 1.11926
 C471 C 0.50088 0.09672 1.09036
 C472 C 0.46985 0.12284 1.08070
 C473 C 0.49894 0.15228 1.07030
 C474 C 0.52995 0.12638 1.07967
 H475 H 0.49691 0.19482 1.11794
 H476 H 0.44395 0.14039 1.13734
 H477 H 0.55383 0.14745 1.13485
 H478 H 0.50206 0.06789 1.08269
 H479 H 0.44541 0.11595 1.06455
 H480 H 0.55503 0.12238 1.06262
 C481 C -0.04002 0.58879 0.65356
 C482 C -0.01122 0.62034 0.65264
 C483 C -0.01548 0.62424 0.61111
 C484 C -0.04434 0.59315 0.61179
 C485 C 0.01542 0.59728 0.60463
 C486 C 0.01972 0.59295 0.64634
 C487 C -0.00909 0.56187 0.64690
 C488 C -0.01337 0.56598 0.60535
 H489 H -0.06288 0.58497 0.67389
 H490 H -0.01042 0.64301 0.67194
 H491 H -0.07110 0.59255 0.59802
 H492 H 0.03834 0.60098 0.58433
 H493 H 0.04620 0.59255 0.66064
 H494 H -0.01444 0.54439 0.58488
 C495 C 0.52070 0.85579 -0.09446
 C496 C 0.48873 0.85110 -0.12110
 C497 C 0.48499 0.89245 -0.12324
 C498 C 0.51693 0.89736 -0.09700
 C499 C 0.45720 0.89107 -0.09094
 C500 C 0.46100 0.84945 -0.08838
 C501 C 0.49296 0.85447 -0.06218
 C502 C 0.48922 0.89585 -0.06444
 H503 H 0.54696 0.84118 -0.09557
 H504 H 0.48842 0.83286 -0.14471
 H505 H 0.54002 0.91726 -0.10080
 H506 H 0.43073 0.90520 -0.08891
 H507 H 0.43796 0.82951 -0.08448
 H508 H 0.48933 0.91507 -0.04166
 C509 C 0.99753 0.39162 0.33093
 C510 C 1.02845 0.38055 0.35686
 C511 C 1.00067 0.36999 0.38517
 C512 C 0.96993 0.37898 0.36158
 C513 C 1.00148 0.40604 0.40140
 C514 C 1.02988 0.41925 0.37192
 C515 C 0.99826 0.42998 0.34687
 C516 C 0.96987 0.41764 0.37676
 H517 H 0.99581 0.38406 0.30191
 H518 H 1.05276 0.36484 0.34873
 H519 H 0.94551 0.36098 0.35826
 H520 H 1.00326 0.41060 0.43113
 H521 H 1.05524 0.43533 0.37699
 H522 H 0.94516 0.43231 0.38583
 C523 C 0.53608 0.87570 0.08225
 C524 C 0.50456 0.89821 0.09800
 C525 C 0.50918 0.88073 0.13400
 C526 C 0.54005 0.85911 0.12102
 C527 C 0.48190 0.85187 0.12701
 C528 C 0.47645 0.86831 0.08848
 C529 C 0.50807 0.84535 0.07360
 C530 C 0.51285 0.82804 0.11191
 H531 H 0.55897 0.88634 0.06431
 H532 H 0.50108 0.92777 0.09372
 H533 H 0.56602 0.85618 0.13592
 H534 H 0.45958 0.84189 0.14596
 H535 H 0.44961 0.87285 0.07567
 H536 H 0.51650 0.79908 0.11923
 C537 C 0.03726 0.39879 0.65368
 C538 C 0.00792 0.36772 0.65381
 C539 C 0.01280 0.36550 0.61213
 C540 C 0.04218 0.39610 0.61180
 C541 C -0.01751 0.39326 0.60655
 C542 C -0.02242 0.39594 0.64841
 C543 C 0.00693 0.42652 0.64791
 C544 C 0.01182 0.42404 0.60621
 H545 H 0.05986 0.40135 0.67327
 H546 H 0.00641 0.34426 0.67325
 H547 H 0.06919 0.39696 0.59721
 H548 H -0.04016 0.39082 0.58699
 H549 H -0.04912 0.39618 0.66356
 H550 H 0.01376 0.44644 0.58557
 C551 C 0.49910 0.17268 0.89463
 C552 C 0.52809 0.14469 0.88349
 C553 C 0.49696 0.11820 0.87370
 C554 C 0.46794 0.14589 0.88444
 C555 C 0.49599 0.10194 0.91273
 C556 C 0.52711 0.12865 0.92286
 C557 C 0.49813 0.15631 0.93364
 C558 C 0.46702 0.12981 0.92380
 H559 H 0.50047 0.20182 0.88666
 H560 H 0.55323 0.15064 0.86657
 H561 H 0.44337 0.15335 0.86890
 H562 H 0.49466 0.07261 0.91994
 H563 H 0.55148 0.12171 0.93897
 H564 H 0.44189 0.12382 0.94072
 C565 C 1.02951 0.59492 0.34674
 C566 C 1.00042 0.62488 0.34616
 C567 C 1.00197 0.62657 0.38797
 C568 C 1.03108 0.59698 0.38876
 C569 C 0.97104 0.59766 0.39216
 C570 C 0.96950 0.59550 0.35011
 C571 C 0.99863 0.56599 0.35105
 C572 C 1.00013 0.56786 0.39289
 H573 H 1.05365 0.59353 0.32786
 H574 H 1.00062 0.64862 0.32707
 H575 H 1.05691 0.59671 0.40413
 H576 H 0.94688 0.59901 0.41102
 H577 H 0.94406 0.59457 0.33411
 H578 H 0.99998 0.54507 0.41309
 C579 C 1.11136 0.50636 0.16878
 C580 C 1.12226 0.47598 0.14254
 C581 C 1.13165 0.50345 0.11388
 C582 C 1.12283 0.53368 0.13772
 C583 C 1.09459 0.50204 0.09886
 C584 C 1.08257 0.47392 0.12873
 C585 C 1.07199 0.50499 0.15406
 C586 C 1.08315 0.53309 0.12379
 H587 H 1.11977 0.50826 0.19756
 H588 H 1.13886 0.45231 0.15015
 H589 H 1.14084 0.55805 0.14041
 H590 H 1.08903 0.50012 0.06932
 H591 H 1.06649 0.44864 0.12421
 H592 H 1.06763 0.55720 0.11519
 C593 C 0.62060 -0.02811 0.58434
 C594 C 0.63572 -0.02929 0.62340
 C595 C 0.61012 0.00155 0.63377
 C596 C 0.59484 0.00272 0.59502
 C597 C 0.64000 0.03002 0.62262
 C598 C 0.66592 -0.00086 0.61178
 C599 C 0.65044 0.00029 0.57307
 C600 C 0.62487 0.03113 0.58352
 H601 H 0.61276 -0.05206 0.56832
 H602 H 0.64001 -0.05416 0.64013
 H603 H 0.56538 0.00425 0.58831
 H604 H 0.64826 0.05411 0.63820
 H605 H 0.69523 -0.00240 0.61900
 H606 H 0.62053 0.05600 0.56680
 C607 C -0.06460 0.50629 0.88870
 C608 C -0.09194 0.53731 0.88399
 C609 C -0.12389 0.50932 0.88587
 C610 C -0.09678 0.47835 0.89064
 C611 C -0.12203 0.50552 0.84418
 C612 C -0.08965 0.53346 0.84206
 C613 C -0.06254 0.50250 0.84698
 C614 C -0.09446 0.47453 0.84873
 H615 H -0.04169 0.50670 0.90805
 H616 H -0.09014 0.56354 0.89800
 H617 H -0.09993 0.45559 0.91081
 H618 H -0.14595 0.50531 0.82603
 H619 H -0.08641 0.55618 0.82185
 H620 H -0.09518 0.44858 0.83411
 C621 C 0.34442 -0.03705 0.40766
 C622 C 0.34525 -0.00959 0.37501
 C623 C 0.38723 -0.01272 0.37220
 C624 C 0.38664 -0.04023 0.40439
 C625 C 0.39215 0.01874 0.39849
 C626 C 0.34996 0.02190 0.40178
 C627 C 0.34954 -0.00559 0.43393
 C628 C 0.39155 -0.00872 0.43087
 H629 H 0.32457 -0.06005 0.41176
 H630 H 0.32639 -0.01007 0.35171
 H631 H 0.40119 -0.06621 0.40627
 H632 H 0.41198 0.04179 0.39450
 H633 H 0.33477 0.04759 0.40106
 H634 H 0.41172 -0.00854 0.45303
 C635 C 0.08699 0.52486 0.86334
 C636 C 0.09569 0.49710 0.89384
 C637 C 0.13491 0.49435 0.87787
 C638 C 0.12652 0.52217 0.84748
 C639 C 0.12274 0.46303 0.85370
 C640 C 0.08320 0.46580 0.86954
 C641 C 0.07467 0.49356 0.83921
 C642 C 0.11384 0.49083 0.82300
 H643 H 0.07198 0.55035 0.86722
 H644 H 0.08836 0.49975 0.92318
 H645 H 0.14420 0.54553 0.83811
 H646 H 0.13778 0.43757 0.84990
 H647 H 0.06512 0.44256 0.87849
 H648 H 0.12149 0.48817 0.79374
 C649 C 0.64909 -0.02823 0.40682
 C650 C 0.60693 -0.02582 0.40382
 C651 C 0.61236 0.00412 0.37423
 C652 C 0.65429 0.00171 0.37677
 C653 C 0.61156 0.03336 0.40347
 C654 C 0.60621 0.00339 0.43329
 C655 C 0.64816 0.00101 0.43599
 C656 C 0.65372 0.03093 0.40640
 H657 H 0.66463 -0.05367 0.40856
 H658 H 0.58750 -0.04927 0.40250
 H659 H 0.67392 0.00110 0.35322
 H660 H 0.59662 0.05917 0.40286
 H661 H 0.58553 0.00406 0.45592
 H662 H 0.67317 0.05435 0.40777
 C663 C 0.90447 0.53090 0.15122
 C664 C 0.90254 0.52821 0.10925
 C665 C 0.87317 0.49785 0.11409
 C666 C 0.87461 0.50054 0.15584
 C667 C 0.90309 0.46907 0.11429
 C668 C 0.93267 0.49946 0.10948
 C669 C 0.93434 0.50212 0.15125
 C670 C 0.90495 0.47179 0.15625
 H671 H 0.90538 0.55645 0.16652
 H672 H 0.90135 0.55152 0.08973
 H673 H 0.85041 0.50089 0.17475
 H674 H 0.90340 0.44317 0.09964
 H675 H 0.95577 0.49896 0.08930
 H676 H 0.90622 0.44850 0.17579
 C677 C 0.38720 0.01511 0.57362
 C678 C 0.38029 0.04449 0.60208
 C679 C 0.37987 0.01506 0.63249
 C680 C 0.38678 -0.01427 0.60423
 C681 C 0.33813 0.00951 0.62934
 C682 C 0.33832 0.03889 0.59842
 C683 C 0.34544 0.00954 0.57021
 C684 C 0.34487 -0.01985 0.60062
 H685 H 0.40846 0.01771 0.55154
 H686 H 0.39437 0.07139 0.60198
 H687 H 0.40689 -0.03624 0.60683
 H688 H 0.31811 0.00731 0.65259
 H689 H 0.31818 0.06081 0.59569
 H690 H 0.33021 -0.04643 0.59967
   
