data_POSCAR
  _audit_creation_date              2014-09-24
  _audit_creation_method            'ToBaCCo'
  _symmetry_space_group_name_H-M    'P1'
  _symmetry_Int_Tables_number       1
  _symmetry_cell_setting            triclinic
  loop_
  _symmetry_equiv_pos_as_xyz
 x,y,z
_cell_length_a 38.4928
_cell_length_b 37.4736
_cell_length_c 38.0965
_cell_angle_alpha 89.886500
_cell_angle_beta 90.069000
_cell_angle_gamma 89.881200
loop_
  _atom_site_label
  _atom_site_type_symbol
  _atom_site_fract_x
  _atom_site_fract_y
  _atom_site_fract_z
C1 C 0.40360 0.29826 0.03068
 C2 C 0.42072 0.29558 -0.00159
 C3 C 0.40229 0.29306 -0.03343
 C4 C 0.36826 0.30843 -0.03379
 C5 C 0.35356 0.32153 -0.00189
 C6 C 0.37088 0.31538 0.03053
 C7 C 0.35623 0.32857 0.06153
 C8 C 0.32517 0.34753 0.06101
 C9 C 0.30596 0.35192 0.02989
 C10 C 0.32114 0.33995 -0.00228
 C11 C 0.34872 0.31187 -0.06482
 C12 C 0.31734 0.33034 -0.06520
 C13 C 0.30467 0.34729 -0.03498
 C14 C 0.27528 0.37015 -0.03577
 C15 C 0.25826 0.37636 -0.00370
 C16 C 0.27242 0.36817 0.02943
 H17 H 0.36947 0.32589 0.08642
 H18 H 0.31752 0.35958 0.08534
 H19 H 0.35761 0.30112 -0.08949
 H20 H 0.30271 0.33039 -0.08941
 H21 H 0.44856 0.29351 -0.00114
 H22 H 0.23430 0.39134 -0.00496
 C23 C 0.73205 0.63262 0.03376
 C24 C 0.74916 0.62780 0.00166
 C25 C 0.73343 0.63458 -0.03100
 C26 C 0.69959 0.64997 -0.03061
 C27 C 0.68602 0.66362 0.00150
 C28 C 0.70238 0.65500 0.03390
 C29 C 0.68867 0.66911 0.06496
 C30 C 0.65788 0.68854 0.06487
 C31 C 0.64136 0.69819 0.03337
 C32 C 0.65508 0.68451 0.00126
 C33 C 0.67783 0.65062 -0.06019
 C34 C 0.64751 0.67080 -0.06046
 C35 C 0.63763 0.69089 -0.03113
 C36 C 0.60827 0.71359 -0.03185
 C37 C 0.59264 0.72153 0.00050
 C38 C 0.61042 0.71902 0.03265
 H39 H 0.70184 0.66599 0.08979
 H40 H 0.64669 0.69419 0.09010
 H41 H 0.68264 0.63425 -0.08281
 H42 H 0.63090 0.66893 -0.08327
 H43 H 0.77389 0.61404 0.00225
 H44 H 0.56736 0.73436 -0.00002
 C45 C 0.61182 0.28510 1.03321
 C46 C 0.59811 0.27488 1.00069
 C47 C 0.61277 0.28459 0.96838
 C48 C 0.63721 0.31288 0.96846
 C49 C 0.64953 0.32663 1.00112
 C50 C 0.63575 0.31370 1.03346
 C51 C 0.64315 0.33259 1.06429
 C52 C 0.66731 0.36003 1.06454
 C53 C 0.68549 0.36955 1.03408
 C54 C 0.67443 0.35469 1.00143
 C55 C 0.64679 0.33056 0.93747
 C56 C 0.67128 0.35774 0.93775
 C57 C 0.68708 0.36874 0.96906
 C58 C 0.71210 0.39634 0.96947
 C59 C 0.71911 0.41260 1.00185
 C60 C 0.71112 0.39670 1.03427
 H61 H 0.62862 0.32826 1.08810
 H62 H 0.66953 0.37538 1.08837
 H63 H 0.63382 0.32552 0.91291
 H64 H 0.67568 0.37173 0.91337
 H65 H 0.57564 0.25755 1.00061
 H66 H 0.73464 0.43673 1.00200
 C67 C 0.29340 0.60148 0.96249
 C68 C 0.29096 0.58185 0.99363
 C69 C 0.29074 0.59888 1.02648
 C70 C 0.30908 0.63199 1.02837
 C71 C 0.32218 0.64784 0.99691
 C72 C 0.31302 0.63323 0.96366
 C73 C 0.32570 0.64936 0.93313
 C74 C 0.34541 0.68025 0.93470
 C75 C 0.35663 0.69423 0.96692
 C76 C 0.34388 0.67857 0.99861
 C77 C 0.31539 0.64944 1.06036
 C78 C 0.33574 0.68011 1.06185
 C79 C 0.35255 0.69359 1.03189
 C80 C 0.37534 0.72348 1.03329
 C81 C 0.38251 0.74092 1.00135
 C82 C 0.37869 0.72447 0.96860
 H83 H 0.32208 0.63750 0.90763
 H84 H 0.35105 0.69319 0.91009
 H85 H 0.30501 0.63953 1.08482
 H86 H 0.33686 0.69380 1.08668
 H87 H 0.28419 0.55409 0.99104
 H88 H 0.39495 0.76683 1.00235
 C89 C 0.02970 0.28047 0.38481
 C90 C -0.00243 0.27371 0.40076
 C91 C -0.03446 0.27980 0.38396
 C92 C -0.03442 0.30492 0.35579
 C93 C -0.00207 0.31764 0.34216
 C94 C 0.03004 0.30512 0.35653
 C95 C 0.06111 0.31933 0.34352
 C96 C 0.06142 0.34215 0.31486
 C97 C 0.03057 0.35590 0.30070
 C98 C -0.00178 0.34342 0.31442
 C99 C -0.06522 0.31942 0.34214
 C100 C -0.06495 0.34253 0.31366
 C101 C -0.03381 0.35638 0.30026
 C102 C -0.03328 0.38140 0.27205
 C103 C -0.00110 0.38694 0.25555
 C104 C 0.03073 0.38033 0.27214
 H105 H 0.08577 0.31419 0.35582
 H106 H 0.08646 0.34798 0.30375
 H107 H -0.09018 0.31429 0.35375
 H108 H -0.08981 0.34851 0.30206
 H109 H -0.00236 0.25979 0.42575
 H110 H -0.00074 0.39968 0.23000
 C111 C 0.03582 0.61252 0.71879
 C112 C 0.00385 0.59661 0.72660
 C113 C -0.02824 0.61347 0.72052
 C114 C -0.02880 0.64072 0.69443
 C115 C 0.00323 0.65413 0.68085
 C116 C 0.03564 0.64033 0.69342
 C117 C 0.06639 0.65328 0.67857
 C118 C 0.06608 0.68134 0.65482
 C119 C 0.03490 0.69475 0.64102
 C120 C 0.00286 0.68107 0.65421
 C121 C -0.05996 0.65354 0.67996
 C122 C -0.06032 0.68120 0.65573
 C123 C -0.02951 0.69454 0.64117
 C124 C -0.02961 0.72214 0.61535
 C125 C 0.00237 0.73884 0.60880
 C126 C 0.03446 0.72260 0.61575
 H127 H 0.09125 0.64135 0.68389
 H128 H 0.09093 0.69258 0.64823
 H129 H -0.08475 0.64189 0.68618
 H130 H -0.08540 0.69229 0.64948
 H131 H 0.00415 0.57166 0.74106
 H132 H 0.00237 0.76445 0.59558
 C133 C 1.03879 0.60922 0.28325
 C134 C 1.00689 0.59441 0.27303
 C135 C 0.97460 0.60917 0.28193
 C136 C 0.97393 0.63448 0.30949
 C137 C 1.00576 0.64839 0.32286
 C138 C 1.03825 0.63478 0.31066
 C139 C 1.06838 0.64393 0.32921
 C140 C 1.06772 0.66978 0.35533
 C141 C 1.03690 0.68779 0.36406
 C142 C 1.00507 0.67486 0.34969
 C143 C 0.94297 0.64331 0.32680
 C144 C 0.94231 0.66892 0.35308
 C145 C 0.97252 0.68704 0.36313
 C146 C 0.97186 0.71392 0.38923
 C147 C 1.00361 0.72336 0.40463
 C148 C 1.03610 0.71521 0.38980
 H149 H 1.09231 0.62938 0.32579
 H150 H 1.09129 0.67350 0.37021
 H151 H 0.91923 0.62885 0.32203
 H152 H 0.91818 0.67234 0.36704
 H153 H 1.00735 0.57154 0.25568
 H154 H 1.00292 0.73991 0.42794
 C155 C 1.02616 0.27335 0.62082
 C156 C 0.99394 0.25880 0.61185
 C157 C 0.96217 0.27483 0.62040
 C158 C 0.96242 0.30105 0.64723
 C159 C 0.99484 0.31392 0.66033
 C160 C 1.02672 0.29921 0.64785
 C161 C 1.05752 0.30772 0.66556
 C162 C 1.05805 0.33332 0.69180
 C163 C 1.02783 0.35187 0.70147
 C164 C 0.99539 0.34030 0.68725
 C165 C 0.93186 0.31165 0.66430
 C166 C 0.93239 0.33730 0.69061
 C167 C 0.96347 0.35365 0.70106
 C168 C 0.96417 0.37986 0.72783
 C169 C 0.99637 0.38737 0.74332
 C170 C 1.02834 0.37866 0.72782
 H171 H 1.08125 0.29303 0.66113
 H172 H 1.08217 0.33658 0.70588
 H173 H 0.90748 0.29840 0.65958
 H174 H 0.90835 0.34202 0.70436
 H175 H 0.99358 0.23484 0.59601
 H176 H 0.99649 0.40230 0.76764
 C177 C 0.37683 -0.02751 0.27154
 C178 C 0.38564 0.00628 0.25845
 C179 C 0.37690 0.03832 0.27527
 C180 C 0.34998 0.03707 0.30061
 C181 C 0.33665 0.00332 0.31159
 C182 C 0.34913 -0.02887 0.29602
 C183 C 0.33073 -0.06054 0.30223
 C184 C 0.30411 -0.06190 0.32665
 C185 C 0.29512 -0.03191 0.34660
 C186 C 0.30953 0.00179 0.33696
 C187 C 0.33308 0.06810 0.31214
 C188 C 0.30664 0.06660 0.33691
 C189 C 0.29586 0.03402 0.35139
 C190 C 0.26906 0.03228 0.37686
 C191 C 0.25364 -0.00101 0.38273
 C192 C 0.26902 -0.03344 0.37273
 H193 H 0.33507 -0.08419 0.28667
 H194 H 0.28904 -0.08611 0.32769
 H195 H 0.33813 0.09372 0.30034
 H196 H 0.29314 0.09118 0.34253
 H197 H 0.40125 0.00774 0.23485
 H198 H 0.23020 -0.00213 0.39845
 C199 C 0.62194 -0.03486 0.72726
 C200 C 0.61438 -0.00163 0.74249
 C201 C 0.62242 0.03101 0.72662
 C202 C 0.64809 0.03079 0.70000
 C203 C 0.66034 -0.00245 0.68647
 C204 C 0.64803 -0.03539 0.70079
 C205 C 0.66526 -0.06697 0.69123
 C206 C 0.69048 -0.06723 0.66512
 C207 C 0.70001 -0.03587 0.64753
 C208 C 0.68631 -0.00271 0.65977
 C209 C 0.66486 0.06223 0.68951
 C210 C 0.68996 0.06199 0.66338
 C211 C 0.69973 0.03025 0.64666
 C212 C 0.72554 0.02989 0.62016
 C213 C 0.74088 -0.00303 0.61230
 C214 C 0.72594 -0.03592 0.62109
 H215 H 0.66152 -0.09151 0.70555
 H216 H 0.70421 -0.09197 0.66096
 H217 H 0.66076 0.08710 0.70309
 H218 H 0.70339 0.08673 0.65846
 H219 H 0.59936 -0.00114 0.76654
 H220 H 0.76450 -0.00312 0.59688
 C221 C 0.27295 0.96929 0.62423
 C222 C 0.25465 1.00148 0.62103
 C223 C 0.26935 1.03521 0.62803
 C224 C 0.30320 1.03522 0.64338
 C225 C 0.31759 1.00247 0.65602
 C226 C 0.30261 0.96929 0.64610
 C227 C 0.31746 0.93758 0.65868
 C228 C 0.34718 0.93806 0.67944
 C229 C 0.36179 0.97030 0.69091
 C230 C 0.34787 1.00291 0.67746
 C231 C 0.32405 1.06589 0.64548
 C232 C 0.35394 1.06627 0.66600
 C233 C 0.36428 1.03603 0.68498
 C234 C 0.39291 1.03684 0.70815
 C235 C 0.40827 1.00412 0.71728
 C236 C 0.39115 0.97125 0.71352
 H237 H 0.30586 0.91193 0.65349
 H238 H 0.35913 0.91266 0.68502
 H239 H 0.31871 1.08950 0.63029
 H240 H 0.36987 1.08995 0.66528
 H241 H 0.22943 1.00001 0.60876
 H242 H 0.43269 1.00485 0.73145
 C243 C 0.60775 0.96686 0.28385
 C244 C 0.59274 1.00004 0.27614
 C245 C 0.60846 1.03278 0.28425
 C246 C 0.63483 1.03222 0.31040
 C247 C 0.64871 0.99882 0.32208
 C248 C 0.63451 0.96605 0.30946
 C249 C 0.64442 0.93421 0.32608
 C250 C 0.67069 0.93356 0.35114
 C251 C 0.68825 0.96474 0.36088
 C252 C 0.67565 0.99816 0.34786
 C253 C 0.64457 1.06319 0.32850
 C254 C 0.67074 1.06256 0.35361
 C255 C 0.68856 1.03093 0.36188
 C256 C 0.71583 1.03022 0.38705
 C257 C 0.72406 0.99689 0.40183
 C258 C 0.71494 0.96424 0.38656
 H259 H 0.63012 0.90983 0.32224
 H260 H 0.67484 0.90871 0.36482
 H261 H 0.63039 1.08787 0.32550
 H262 H 0.67491 1.08680 0.36822
 H263 H 0.56904 1.00032 0.26072
 H264 H 0.74041 0.99626 0.42503
 O265 O 0.87306 0.82200 0.46656
 O266 O 0.82361 0.86855 0.53323
 O267 O 0.87197 0.82109 0.53333
 O268 O 0.82335 0.86871 0.46620
 O269 O 0.78311 0.82701 0.46470
 O270 O 0.83423 0.77679 0.53228
 O271 O 0.78348 0.82653 0.53327
 O272 O 0.83481 0.77835 0.46454
 Cu273 Cu 0.85166 0.84925 0.49981
 Cu274 Cu 0.80475 0.79782 0.49863
 C275 C 0.86380 0.79171 0.45522
 C276 C 0.79476 0.85658 0.54394
 C277 C 0.86273 0.79015 0.54297
 C278 C 0.79449 0.85727 0.45478
 O279 O 0.12393 0.17279 0.46911
 O280 O 0.17130 0.12633 0.53720
 O281 O 0.12335 0.17395 0.53559
 O282 O 0.17243 0.12531 0.46988
 O283 O 0.21335 0.16652 0.46980
 O284 O 0.16202 0.21747 0.53586
 O285 O 0.21163 0.16802 0.53879
 O286 O 0.16265 0.21602 0.46796
 Cu287 Cu 0.14408 0.14535 0.50290
 Cu288 Cu 0.19171 0.19626 0.50294
 C289 C 0.13381 0.20289 0.45783
 C290 C 0.19935 0.13849 0.54976
 C291 C 0.13321 0.20443 0.54595
 C292 C 0.20157 0.13669 0.45926
 O293 O 0.17928 0.87262 0.46592
 O294 O 0.13117 0.82420 0.53240
 O295 O 0.17756 0.87281 0.53348
 O296 O 0.13046 0.82527 0.46586
 O297 O 0.16909 0.78173 0.46527
 O298 O 0.21989 0.83303 0.53205
 O299 O 0.17075 0.78142 0.53273
 O300 O 0.21930 0.83044 0.46305
 Cu301 Cu 0.15093 0.85295 0.49933
 Cu302 Cu 0.19918 0.80248 0.49848
 C303 C 0.20737 0.86051 0.45324
 C304 C 0.14158 0.79383 0.54268
 C305 C 0.20722 0.86226 0.54347
 C306 C 0.14010 0.79476 0.45531
 O307 O 0.82201 0.12594 0.46548
 O308 O 0.86834 0.17617 0.53194
 O309 O 0.82191 0.12698 0.53231
 O310 O 0.87065 0.17353 0.46523
 O311 O 0.83171 0.21660 0.46237
 O312 O 0.78018 0.16750 0.53051
 O313 O 0.82865 0.21881 0.53071
 O314 O 0.78101 0.16697 0.46224
 Cu315 Cu 0.84960 0.14667 0.49882
 Cu316 Cu 0.80123 0.19682 0.49616
 C317 C 0.79310 0.13665 0.45339
 C318 C 0.85736 0.20637 0.54201
 C319 C 0.79237 0.13805 0.54204
 C320 C 0.86097 0.20352 0.45332
 O321 O 0.46903 0.87512 0.82499
 O322 O 0.53205 0.82354 0.87405
 O323 O 0.53495 0.87155 0.82535
 O324 O 0.46589 0.82627 0.87292
 O325 O 0.46547 0.78285 0.83382
 O326 O 0.53403 0.83082 0.78352
 O327 O 0.53240 0.78105 0.83409
 O328 O 0.46653 0.83403 0.78377
 Cu329 Cu 0.50058 0.85313 0.85323
 Cu330 Cu 0.49935 0.80291 0.80452
 C331 C 0.45795 0.86466 0.79547
 C332 C 0.54230 0.79321 0.86364
 C333 C 0.54526 0.86017 0.79580
 C334 C 0.45535 0.79592 0.86289
 O335 O 0.53117 0.18010 0.13163
 O336 O 0.46378 0.13615 0.18105
 O337 O 0.46522 0.18535 0.13439
 O338 O 0.52977 0.13229 0.18041
 O339 O 0.53410 0.17231 0.22247
 O340 O 0.47134 0.22926 0.17238
 O341 O 0.46613 0.17707 0.22262
 O342 O 0.53727 0.22185 0.17190
 Cu343 Cu 0.49712 0.15450 0.15308
 Cu344 Cu 0.50227 0.20429 0.20189
 C345 C 0.54492 0.20891 0.14196
 C346 C 0.45416 0.14780 0.21061
 C347 C 0.45956 0.21737 0.14344
 C348 C 0.54217 0.14204 0.20970
 O349 O 0.53427 0.13043 0.82174
 O350 O 0.46706 0.18079 0.86696
 O351 O 0.46825 0.13250 0.81852
 O352 O 0.53319 0.17861 0.86973
 O353 O 0.53813 0.22091 0.82975
 O354 O 0.46967 0.17387 0.77738
 O355 O 0.47138 0.22476 0.82856
 O356 O 0.53711 0.17102 0.77972
 Cu357 Cu 0.50025 0.15156 0.84804
 Cu358 Cu 0.50407 0.20193 0.79950
 C359 C 0.54615 0.14098 0.79249
 C360 C 0.45986 0.21239 0.85744
 C361 C 0.45871 0.14393 0.78873
 C362 C 0.54614 0.20794 0.85964
 O363 O 0.45882 0.82383 0.12757
 O364 O 0.52459 0.87363 0.17541
 O365 O 0.52483 0.82693 0.12571
 O366 O 0.45836 0.87411 0.17375
 O367 O 0.45960 0.83404 0.21635
 O368 O 0.52673 0.78393 0.16522
 O369 O 0.52700 0.83234 0.21666
 O370 O 0.45907 0.78156 0.16805
 Cu371 Cu 0.49152 0.85362 0.14671
 Cu372 Cu 0.49310 0.80361 0.19575
 C373 C 0.44857 0.79371 0.13868
 C374 C 0.53644 0.86244 0.20454
 C375 C 0.53628 0.79696 0.13583
 C376 C 0.44876 0.86360 0.20377
 O377 O 0.87609 0.53548 0.82758
 O378 O 0.82341 0.47188 0.87487
 O379 O 0.87156 0.46797 0.82803
 O380 O 0.83031 0.53965 0.87655
 O381 O 0.78923 0.54448 0.83631
 O382 O 0.83226 0.47148 0.78584
 O383 O 0.78199 0.47471 0.83508
 O384 O 0.83669 0.54030 0.78578
 Cu385 Cu 0.85413 0.50326 0.85577
 Cu386 Cu 0.80566 0.50798 0.80666
 C387 C 0.86652 0.54790 0.79815
 C388 C 0.79340 0.46309 0.86435
 C389 C 0.86048 0.45872 0.79808
 C390 C 0.80266 0.55411 0.86538
 O391 O 0.17563 0.46279 0.12317
 O392 O 0.13217 0.53230 0.17237
 O393 O 0.18008 0.53107 0.12471
 O394 O 0.12922 0.46447 0.17176
 O395 O 0.16821 0.46236 0.21429
 O396 O 0.22284 0.52579 0.16297
 O397 O 0.17249 0.53102 0.21347
 O398 O 0.21595 0.45690 0.16397
 Cu399 Cu 0.15049 0.49814 0.14406
 Cu400 Cu 0.19921 0.49408 0.19284
 C401 C 0.20309 0.44796 0.13442
 C402 C 0.14341 0.54251 0.20193
 C403 C 0.21104 0.53774 0.13401
 C404 C 0.13886 0.45342 0.20174
 O405 O 0.87122 0.46547 0.17271
 O406 O 0.82748 0.53770 0.12676
 O407 O 0.87591 0.53316 0.17349
 O408 O 0.82294 0.46989 0.12589
 O409 O 0.78293 0.47038 0.16724
 O410 O 0.83695 0.53708 0.21570
 O411 O 0.78634 0.53944 0.16711
 O412 O 0.83351 0.46838 0.21629
 Cu413 Cu 0.85314 0.50131 0.14565
 Cu414 Cu 0.80577 0.50400 0.19589
 C415 C 0.86149 0.45620 0.20316
 C416 C 0.79869 0.54967 0.13781
 C417 C 0.86661 0.54507 0.20313
 C418 C 0.79359 0.46002 0.13728
 O419 O 0.17905 0.52480 0.87171
 O420 O 0.12851 0.45901 0.82446
 O421 O 0.17762 0.45713 0.87060
 O422 O 0.13020 0.52696 0.82492
 O423 O 0.16850 0.52777 0.78197
 O424 O 0.21798 0.45655 0.82943
 O425 O 0.16657 0.45858 0.78112
 O426 O 0.21910 0.52557 0.83040
 Cu427 Cu 0.15005 0.49205 0.85194
 Cu428 Cu 0.19707 0.49201 0.80132
 C429 C 0.20831 0.53524 0.86051
 C430 C 0.13769 0.44873 0.79421
 C431 C 0.20659 0.44612 0.85910
 C432 C 0.13995 0.53843 0.79520
 C433 C 0.25381 0.38556 0.06123
 C434 C 0.26707 0.42397 0.06529
 C435 C 0.25068 0.44339 0.09018
 C436 C 0.22195 0.42331 0.10953
 C437 C 0.19779 0.40898 0.08068
 C438 C 0.21407 0.38898 0.05617
 C439 C 0.25579 0.36926 0.09867
 C440 C 0.23966 0.38946 0.12408
 H441 H 0.28845 0.43484 0.05011
 H442 H 0.25828 0.47056 0.09629
 H443 H 0.16964 0.41074 0.08161
 H444 H 0.19916 0.37332 0.03755
 H445 H 0.26533 0.34258 0.10426
 H446 H 0.23700 0.38049 0.15104
 C447 C 0.74672 0.61105 0.06499
 C448 C 0.72429 0.60313 0.09787
 C449 C 0.74121 0.58381 0.12332
 C450 C 0.77848 0.57311 0.11311
 C451 C 0.77403 0.55375 0.07799
 C452 C 0.75719 0.57304 0.05332
 C453 C 0.78027 0.62790 0.07924
 C454 C 0.79679 0.60819 0.10418
 H455 H 0.69652 0.60763 0.09945
 H456 H 0.72811 0.57408 0.14665
 H457 H 0.78170 0.52623 0.07346
 H458 H 0.75001 0.56129 0.02830
 H459 H 0.78996 0.65367 0.07067
 H460 H 0.82050 0.61709 0.11687
 C461 C 0.73307 0.41049 0.93783
 C462 C 0.77056 0.41914 0.94906
 C463 C 0.78965 0.43602 0.92470
 C464 C 0.77075 0.44213 0.88956
 C465 C 0.75865 0.40452 0.87894
 C466 C 0.73928 0.38763 0.90442
 C467 C 0.71783 0.44575 0.92413
 C468 C 0.73716 0.46195 0.89895
 H469 H 0.78251 0.40960 0.97308
 H470 H 0.81705 0.44100 0.92931
 H471 H 0.76672 0.39136 0.85494
 H472 H 0.73240 0.35969 0.90211
 H473 H 0.69269 0.45605 0.93215
 H474 H 0.72797 0.48547 0.88509
 C475 C 0.27125 0.58737 0.93175
 C476 C 0.28664 0.55297 0.91627
 C477 C 0.26596 0.53651 0.89239
 C478 C 0.23140 0.55571 0.88545
 C479 C 0.21467 0.56000 0.92186
 C480 C 0.23498 0.57679 0.94544
 C481 C 0.26185 0.61087 0.89950
 C482 C 0.24154 0.59394 0.87500
 H483 H 0.31205 0.54258 0.92337
 H484 H 0.27373 0.51206 0.87928
 H485 H 0.18806 0.55298 0.92823
 H486 H 0.22497 0.58431 0.97101
 H487 H 0.26603 0.63940 0.89792
 H488 H 0.23071 0.60771 0.85240
 C489 C 0.06105 0.26008 0.40074
 C490 C 0.05065 0.22160 0.41053
 C491 C 0.07470 0.20327 0.42896
 C492 C 0.10855 0.22402 0.43550
 C493 C 0.12022 0.23522 0.39849
 C494 C 0.09513 0.25341 0.37992
 C495 C 0.07266 0.27736 0.43535
 C496 C 0.09718 0.25873 0.45333
 H497 H 0.02773 0.20835 0.40053
 H498 H 0.07097 0.17520 0.43491
 H499 H 0.14425 0.22616 0.38656
 H500 H 0.09781 0.25741 0.35186
 H501 H 0.06262 0.30271 0.44471
 H502 H 0.10795 0.26820 0.47796
 C503 C 0.06619 0.73843 0.59637
 C504 C 0.05628 0.75274 0.55962
 C505 C 0.08177 0.77060 0.54301
 C506 C 0.11607 0.77206 0.56340
 C507 C 0.10685 0.78820 0.59908
 C508 C 0.08101 0.77071 0.61619
 C509 C 0.09807 0.71474 0.58754
 C510 C 0.12450 0.73258 0.57092
 H511 H 0.03246 0.74620 0.54594
 H512 H 0.07854 0.78030 0.51631
 H513 H 0.11999 0.81115 0.61024
 H514 H 0.07210 0.77883 0.64200
 H515 H 0.09853 0.68592 0.59031
 H516 H 0.14754 0.71910 0.56125
 C517 C 0.93960 0.73399 0.40328
 C518 C 0.94798 0.77374 0.40952
 C519 C 0.92283 0.79232 0.42607
 C520 C 0.89013 0.77037 0.43447
 C521 C 0.87921 0.75513 0.39865
 C522 C 0.90527 0.73657 0.38195
 C523 C 0.92884 0.71930 0.43930
 C524 C 0.90326 0.73805 0.45539
 H525 H 0.97073 0.78709 0.39907
 H526 H 0.92507 0.82094 0.42977
 H527 H 0.85453 0.76113 0.38616
 H528 H 0.90261 0.72859 0.35474
 H529 H 0.94006 0.69543 0.45091
 H530 H 0.89268 0.73004 0.48060
 C531 C 0.93032 0.26029 0.60034
 C532 C 0.91877 0.22437 0.61591
 C533 C 0.89357 0.20751 0.59738
 C534 C 0.88173 0.22773 0.56448
 C535 C 0.87069 0.26491 0.57773
 C536 C 0.89636 0.28226 0.59616
 C537 C 0.93963 0.25237 0.56166
 C538 C 0.91487 0.23491 0.54352
 H539 H 0.92917 0.21344 0.64016
 H540 H 0.88252 0.18228 0.60581
 H541 H 0.84621 0.27757 0.57094
 H542 H 0.89372 0.31011 0.60337
 H543 H 0.96289 0.26199 0.54869
 H544 H 0.91787 0.22879 0.51584
 C545 C 0.39654 0.07169 0.26217
 C546 C 0.40081 0.10579 0.28488
 C547 C 0.41896 0.13278 0.26853
 C548 C 0.43178 0.12276 0.23152
 C549 C 0.45250 0.08833 0.23737
 C550 C 0.43475 0.06237 0.25387
 C551 C 0.38088 0.08495 0.22738
 C552 C 0.39906 0.11142 0.21155
 H553 H 0.39371 0.10751 0.31236
 H554 H 0.42573 0.15748 0.28167
 H555 H 0.47973 0.08514 0.23067
 H556 H 0.44769 0.03811 0.26241
 H557 H 0.35678 0.07478 0.21650
 H558 H 0.39046 0.12380 0.18725
 C559 C 0.60280 0.06386 0.74103
 C560 C 0.61904 0.07687 0.77560
 C561 C 0.60101 0.10330 0.79185
 C562 C 0.56802 0.11482 0.77236
 C563 C 0.58022 0.12487 0.73512
 C564 C 0.59797 0.09798 0.71844
 C565 C 0.56479 0.05448 0.75021
 C566 C 0.54719 0.08049 0.76698
 H567 H 0.64324 0.06643 0.78612
 H568 H 0.60979 0.11537 0.81617
 H569 H 0.57317 0.14958 0.72200
 H570 H 0.60442 0.09980 0.69080
 H571 H 0.55175 0.03031 0.74190
 H572 H 0.52000 0.07752 0.77396
 C573 C 0.40584 0.93991 0.73557
 C574 C 0.38271 0.90767 0.74590
 C575 C 0.39964 0.88182 0.76501
 C576 C 0.43762 0.89106 0.77339
 C577 C 0.45455 0.89825 0.73766
 C578 C 0.43807 0.92349 0.71809
 C579 C 0.41846 0.95276 0.77187
 C580 C 0.43533 0.92790 0.79106
 H581 H 0.35471 0.90704 0.74288
 H582 H 0.38626 0.85900 0.77617
 H583 H 0.47757 0.88440 0.72838
 H584 H 0.44705 0.93102 0.69212
 H585 H 0.41207 0.97847 0.78313
 H586 H 0.44359 0.93362 0.81771
 C587 C 0.59232 0.93507 0.26330
 C588 C 0.61154 0.89883 0.25947
 C589 C 0.59344 0.87381 0.24043
 C590 C 0.55845 0.88758 0.22610
 C591 C 0.53879 0.90088 0.25848
 C592 C 0.55627 0.92542 0.27768
 C593 C 0.58626 0.94548 0.22452
 C594 C 0.56828 0.92139 0.20554
 H595 H 0.63842 0.89434 0.26676
 H596 H 0.60446 0.84811 0.23344
 H597 H 0.51341 0.89107 0.26624
 H598 H 0.54568 0.93651 0.30171
 H599 H 0.59776 0.96868 0.21209
 H600 H 0.56443 0.92493 0.17752
 C601 C 0.41727 0.27291 0.93713
 C602 C 0.39335 0.24269 0.92373
 C603 C 0.40640 0.22371 0.89615
 C604 C 0.44260 0.23586 0.88444
 C605 C 0.43887 0.27598 0.87663
 C606 C 0.42581 0.29531 0.90415
 C607 C 0.45174 0.25281 0.94504
 C608 C 0.46464 0.23427 0.91783
 H609 H 0.36834 0.23640 0.93532
 H610 H 0.39243 0.20174 0.88416
 H611 H 0.44601 0.28821 0.85183
 H612 H 0.42207 0.32399 0.90267
 H613 H 0.46463 0.24998 0.96997
 H614 H 0.48794 0.21807 0.92066
 C615 C 0.59435 0.73258 0.93762
 C616 C 0.59110 0.77274 0.94600
 C617 C 0.57438 0.79222 0.92144
 C618 C 0.56283 0.77066 0.88920
 C619 C 0.59656 0.75303 0.87625
 C620 C 0.61351 0.73355 0.90168
 C621 C 0.55730 0.72015 0.92878
 C622 C 0.54099 0.73993 0.90385
 H623 H 0.60404 0.78555 0.96791
 H624 H 0.57290 0.82108 0.92344
 H625 H 0.60791 0.75839 0.85072
 H626 H 0.63993 0.72460 0.89737
 H627 H 0.54507 0.69708 0.94082
 H628 H 0.51495 0.73372 0.89475
 C629 C 0.39308 0.73796 0.06423
 C630 C 0.39715 0.71645 0.09892
 C631 C 0.41443 0.73455 0.12503
 C632 C 0.42707 0.77184 0.11374
 C633 C 0.44865 0.76455 0.08081
 C634 C 0.43151 0.74643 0.05565
 C635 C 0.37682 0.77376 0.07534
 C636 C 0.39444 0.79130 0.10089
 H637 H 0.39203 0.68815 0.10158
 H638 H 0.42158 0.72203 0.14972
 H639 H 0.47621 0.77035 0.07864
 H640 H 0.44519 0.73598 0.03302
 H641 H 0.35278 0.78415 0.06437
 H642 H 0.38544 0.81649 0.11162
 C643 C 0.59744 0.26518 0.06551
 C644 C 0.61823 0.26307 0.10043
 C645 C 0.60144 0.24488 0.12682
 C646 C 0.56610 0.22959 0.11555
 C647 C 0.54560 0.26177 0.10169
 C648 C 0.56175 0.28011 0.07576
 C649 C 0.59131 0.22533 0.05741
 C650 C 0.57470 0.20713 0.08294
 H651 H 0.64494 0.27172 0.10336
 H652 H 0.61341 0.23947 0.15208
 H653 H 0.52074 0.27017 0.11222
 H654 H 0.55047 0.30393 0.06411
 H655 H 0.60188 0.21166 0.03470
 H656 H 0.57112 0.17846 0.08116
 C657 C 0.25187 0.06582 0.61171
 C658 C 0.21181 0.06261 0.61192
 C659 C 0.19510 0.08709 0.59204
 C660 C 0.21923 0.11430 0.57428
 C661 C 0.23999 0.13011 0.60515
 C662 C 0.25659 0.10463 0.62530
 C663 C 0.26240 0.06736 0.57283
 C664 C 0.24566 0.09237 0.55365
 H665 H 0.19743 0.04527 0.62954
 H666 H 0.16698 0.08940 0.59252
 H667 H 0.23896 0.15805 0.61251
 H668 H 0.26812 0.11131 0.65044
 H669 H 0.28281 0.05093 0.56153
 H670 H 0.25230 0.09758 0.52645
 C671 C 0.73521 0.06083 0.40072
 C672 C 0.73841 0.09623 0.37961
 C673 C 0.75705 0.12239 0.39655
 C674 C 0.77176 0.11046 0.43229
 C675 C 0.74009 0.09764 0.45308
 C676 C 0.72126 0.07198 0.43684
 C677 C 0.77390 0.05134 0.40674
 C678 C 0.79248 0.07651 0.42359
 H679 H 0.73046 0.09944 0.35247
 H680 H 0.76330 0.14774 0.38429
 H681 H 0.73240 0.10874 0.47821
 H682 H 0.69770 0.06119 0.44833
 H683 H 0.78659 0.02799 0.39580
 H684 H 0.82035 0.07365 0.42702
 C685 C 0.74087 0.93138 0.60151
 C686 C 0.71993 0.89630 0.59734
 C687 C 0.73729 0.87000 0.57923
 C688 C 0.77352 0.88150 0.56626
 C689 C 0.76645 0.91552 0.54511
 C690 C 0.74893 0.94084 0.56286
 C691 C 0.77582 0.91980 0.61749
 C692 C 0.79271 0.89394 0.59928
 H693 H 0.69285 0.89334 0.60455
 H694 H 0.72536 0.84468 0.57260
 H695 H 0.77325 0.91888 0.51766
 H696 H 0.73962 0.96467 0.54964
 H697 H 0.78610 0.93068 0.64176
 H698 H 0.81732 0.88280 0.60801
 C699 C 0.25663 0.93494 0.39140
 C700 C 0.21906 0.92630 0.38072
 C701 C 0.20374 0.90060 0.40029
 C702 C 0.22702 0.88502 0.42916
 C703 C 0.25982 0.87197 0.40994
 C704 C 0.27587 0.89831 0.39060
 C705 C 0.25554 0.94238 0.43124
 C706 C 0.23998 0.91681 0.45046
 H707 H 0.20582 0.93886 0.35872
 H708 H 0.17757 0.89130 0.39493
 H709 H 0.27146 0.84592 0.41418
 H710 H 0.30198 0.89427 0.38076
 H711 H 0.26973 0.96389 0.44380
 H712 H 0.24203 0.91656 0.47870
 C713 C 0.05925 0.39625 0.74200
 C714 C 0.07243 0.37727 0.77531
 C715 C 0.09929 0.39388 0.79163
 C716 C 0.11108 0.42832 0.77353
 C717 C 0.11929 0.41749 0.73545
 C718 C 0.09195 0.40127 0.71867
 C719 C 0.05181 0.43519 0.75333
 C720 C 0.07829 0.45131 0.77017
 H721 H 0.06178 0.35230 0.78496
 H722 H 0.11149 0.38310 0.81508
 H723 H 0.14324 0.42433 0.72207
 H724 H 0.09273 0.39576 0.69074
 H725 H 0.02873 0.45016 0.74608
 H726 H 0.07680 0.47909 0.77812
 C727 C 0.07077 0.59531 0.26282
 C728 C 0.06229 0.59298 0.22331
 C729 C 0.08659 0.57635 0.20377
 C730 C 0.11866 0.56385 0.22464
 C731 C 0.13151 0.59807 0.24273
 C732 C 0.10630 0.61498 0.26231
 C733 C 0.07953 0.55699 0.27416
 C734 C 0.10425 0.54078 0.25449
 H735 H 0.04008 0.60594 0.21113
 H736 H 0.08433 0.57532 0.17538
 H737 H 0.15681 0.60978 0.23785
 H738 H 0.11038 0.64176 0.27213
 H739 H 0.06775 0.54393 0.29665
 H740 H 0.11355 0.51406 0.26040
 C741 C 0.93678 0.40049 0.25727
 C742 C 0.90535 0.41039 0.28084
 C743 C 0.87891 0.42755 0.26338
 C744 C 0.88688 0.43464 0.22437
 C745 C 0.92144 0.45478 0.22525
 C746 C 0.94689 0.43770 0.24282
 C747 C 0.92119 0.38033 0.22583
 C748 C 0.89535 0.39806 0.20875
 H749 H 0.90526 0.40808 0.30924
 H750 H 0.85623 0.43800 0.27682
 H751 H 0.92483 0.48184 0.21560
 H752 H 0.97074 0.45150 0.24919
 H753 H 0.92954 0.35384 0.21795
 H754 H 0.88173 0.38676 0.18643
 C755 C 0.94203 0.59987 0.74048
 C756 C 0.92719 0.56599 0.72349
 C757 C 0.90182 0.54976 0.74232
 C758 C 0.89292 0.56843 0.77691
 C759 C 0.92768 0.57184 0.79653
 C760 C 0.95261 0.58867 0.77813
 C761 C 0.90999 0.62389 0.74820
 C762 C 0.88399 0.60707 0.76655
 H763 H 0.93570 0.55584 0.69823
 H764 H 0.88881 0.52586 0.73309
 H765 H 0.93162 0.56527 0.82402
 H766 H 0.97645 0.59679 0.79090
 H767 H 0.90926 0.65249 0.74375
 H768 H 0.86106 0.62104 0.77584
 C769 C 0.75153 0.61700 0.93733
 C770 C 0.74372 0.57689 0.93857
 C771 C 0.76075 0.55732 0.91443
 C772 C 0.78396 0.57895 0.88993
 C773 C 0.76024 0.60797 0.87416
 C774 C 0.74386 0.62852 0.89899
 C775 C 0.79164 0.61972 0.93873
 C776 C 0.80844 0.59966 0.91437
 H777 H 0.72688 0.56459 0.95798
 H778 H 0.75919 0.52854 0.91405
 H779 H 0.75951 0.61443 0.84639
 H780 H 0.73093 0.65321 0.89180
 H781 H 0.80561 0.63801 0.95569
 H782 H 0.83645 0.60058 0.91121
 C783 C 0.26103 0.38884 0.93356
 C784 C 0.25213 0.42808 0.94260
 C785 C 0.23454 0.44581 0.91735
 C786 C 0.22801 0.42398 0.88403
 C787 C 0.26454 0.41151 0.87301
 C788 C 0.28217 0.39362 0.89912
 C789 C 0.22649 0.37193 0.92189
 C790 C 0.20940 0.39014 0.89632
 H791 H 0.26078 0.44159 0.96625
 H792 H 0.22782 0.47383 0.92008
 H793 H 0.27675 0.41909 0.84845
 H794 H 0.30973 0.38826 0.89658
 H795 H 0.21659 0.34704 0.93253
 H796 H 0.18507 0.38081 0.88523
 C797 C 0.27046 0.58330 0.05540
 C798 C 0.24654 0.55162 0.04503
 C799 C 0.22872 0.53715 0.07182
 C800 C 0.23410 0.55567 0.10717
 C801 C 0.27361 0.55430 0.11307
 C802 C 0.29253 0.56854 0.08605
 C803 C 0.24454 0.60945 0.07278
 C804 C 0.22583 0.59511 0.09985
 H805 H 0.23951 0.54343 0.01878
 H806 H 0.20993 0.51602 0.06735
 H807 H 0.28574 0.54299 0.13630
 H808 H 0.32072 0.56920 0.08642
 H809 H 0.24072 0.63679 0.06410
 H810 H 0.20657 0.61030 0.11431
 C811 C 0.73112 0.40950 0.06444
 C812 C 0.73275 0.38897 0.09997
 C813 C 0.75281 0.40534 0.12516
 C814 C 0.77036 0.43981 0.11227
 C815 C 0.79010 0.42801 0.07919
 C816 C 0.77006 0.41185 0.05497
 C817 C 0.72022 0.44768 0.07434
 C818 C 0.74052 0.46332 0.09897
 H819 H 0.72366 0.36191 0.10388
 H820 H 0.75859 0.39293 0.15026
 H821 H 0.81816 0.42867 0.07638
 H822 H 0.78162 0.39860 0.03255
 H823 H 0.69767 0.46112 0.06329
 H824 H 0.73521 0.48994 0.10884
 C825 C 0.93994 0.73660 0.59685
 C826 C 0.92427 0.76862 0.61655
 C827 C 0.89789 0.78540 0.59939
 C828 C 0.88892 0.76896 0.56376
 C829 C 0.92314 0.76826 0.54331
 C830 C 0.94917 0.75098 0.55985
 C831 C 0.90864 0.71212 0.58806
 C832 C 0.88164 0.72929 0.57143
 H833 H 0.93299 0.77711 0.64232
 H834 H 0.88418 0.80806 0.61050
 H835 H 0.92593 0.77789 0.51655
 H836 H 0.97297 0.74483 0.54596
 H837 H 0.90890 0.68332 0.59101
 H838 H 0.85891 0.71523 0.56190
 C839 C 0.93556 0.26038 0.39834
 C840 C 0.90241 0.25301 0.37614
 C841 C 0.87670 0.23504 0.39394
 C842 C 0.88688 0.22456 0.43165
 C843 C 0.92114 0.20391 0.42695
 C844 C 0.94575 0.22197 0.40920
 C845 C 0.92229 0.27817 0.43212
 C846 C 0.89721 0.25968 0.44930
 H847 H 0.90082 0.25659 0.34793
 H848 H 0.85324 0.22567 0.38113
 H849 H 0.92483 0.17593 0.43342
 H850 H 0.96900 0.20845 0.40029
 H851 H 0.93155 0.30381 0.44148
 H852 H 0.88519 0.26963 0.47313
 C853 C 0.05793 0.25800 0.60138
 C854 C 0.04916 0.24850 0.56289
 C855 C 0.07464 0.23115 0.54562
 C856 C 0.10771 0.22546 0.56731
 C857 C 0.11762 0.26328 0.57950
 C858 C 0.09133 0.28059 0.59690
 C859 C 0.07011 0.22287 0.61827
 C860 C 0.09597 0.20600 0.60063
 H861 H 0.02591 0.25727 0.54923
 H862 H 0.07227 0.22428 0.51804
 H863 H 0.14197 0.27619 0.57294
 H864 H 0.09330 0.30858 0.60381
 H865 H 0.05956 0.21245 0.64263
 H866 H 0.10748 0.18123 0.60991
 C867 C 0.06584 0.73521 0.40341
 C868 C 0.07703 0.72084 0.43950
 C869 C 0.10208 0.74026 0.45559
 C870 C 0.11431 0.77283 0.43464
 C871 C 0.12565 0.75784 0.39887
 C872 C 0.10010 0.73870 0.38210
 C873 C 0.05646 0.77488 0.40949
 C874 C 0.08108 0.79402 0.42615
 H875 H 0.06653 0.69671 0.45118
 H876 H 0.11287 0.73256 0.48085
 H877 H 0.15014 0.76447 0.38642
 H878 H 0.10298 0.73086 0.35488
 H879 H 0.03349 0.78780 0.39882
 H880 H 0.07812 0.82260 0.42973
 C881 C 0.60305 0.93452 0.74166
 C882 C 0.59876 0.89936 0.72060
 C883 C 0.58067 0.87323 0.73818
 C884 C 0.56759 0.88502 0.77460
 C885 C 0.60012 0.89738 0.79425
 C886 C 0.61847 0.92298 0.77721
 C887 C 0.56464 0.94415 0.74932
 C888 C 0.54675 0.91897 0.76696
 H889 H 0.60539 0.89634 0.69310
 H890 H 0.57377 0.84805 0.72605
 H891 H 0.60845 0.88633 0.81925
 H892 H 0.64247 0.93369 0.78783
 H893 H 0.55158 0.96767 0.73912
 H894 H 0.51923 0.92193 0.77251
 C895 C 0.39494 0.94166 0.25674
 C896 C 0.39966 0.90740 0.27930
 C897 C 0.41643 0.88006 0.26228
 C898 C 0.42786 0.88982 0.22477
 C899 C 0.39462 0.90206 0.20608
 C900 C 0.37760 0.92898 0.22261
 C901 C 0.43301 0.95014 0.24668
 C902 C 0.44958 0.92367 0.22959
 H903 H 0.39287 0.90551 0.30688
 H904 H 0.42280 0.85498 0.27506
 H905 H 0.38495 0.89010 0.18206
 H906 H 0.35341 0.93995 0.21257
 H907 H 0.44703 0.97377 0.25493
 H908 H 0.47676 0.92583 0.22230
 C909 C 0.59482 0.06410 0.26564
 C910 C 0.58727 0.05538 0.22671
 C911 C 0.57036 0.08119 0.20886
 C912 C 0.56314 0.11502 0.23042
 C913 C 0.54355 0.10224 0.26307
 C914 C 0.55983 0.07589 0.28120
 C915 C 0.61622 0.09906 0.26201
 C916 C 0.59927 0.12589 0.24407
 H917 H 0.59727 0.03206 0.21322
 H918 H 0.56593 0.07880 0.18081
 H919 H 0.51933 0.11397 0.27204
 H920 H 0.54922 0.06510 0.30540
 H921 H 0.64342 0.10153 0.26901
 H922 H 0.61163 0.15104 0.23755
 C923 C 0.40707 0.06969 0.72791
 C924 C 0.40975 0.06086 0.76731
 C925 C 0.42613 0.08563 0.78679
 C926 C 0.43811 0.11858 0.76591
 C927 C 0.46027 0.10381 0.73585
 C928 C 0.44426 0.07852 0.71623
 C929 C 0.38798 0.10633 0.72857
 C930 C 0.40465 0.13203 0.74811
 H931 H 0.39674 0.03843 0.77958
 H932 H 0.42710 0.08331 0.81519
 H933 H 0.48615 0.11341 0.72968
 H934 H 0.45663 0.06650 0.69354
 H935 H 0.36184 0.11087 0.71902
 H936 H 0.39335 0.15808 0.75311
 C937 C 0.59405 0.74020 0.06337
 C938 C 0.56261 0.72018 0.07854
 C939 C 0.54417 0.73873 0.10283
 C940 C 0.55855 0.77600 0.11048
 C941 C 0.59676 0.76999 0.12072
 C942 C 0.61561 0.75201 0.09576
 C943 C 0.57945 0.77632 0.05047
 C944 C 0.56064 0.79440 0.07438
 H945 H 0.55557 0.69327 0.07085
 H946 H 0.52144 0.72767 0.11569
 H947 H 0.60883 0.78242 0.14335
 H948 H 0.64375 0.75173 0.09690
 H949 H 0.58573 0.78838 0.02542
 H950 H 0.55067 0.82086 0.06848
 C951 C 0.41852 0.27797 0.06276
 C952 C 0.43396 0.30113 0.09236
 C953 C 0.44672 0.28200 0.12029
 C954 C 0.44336 0.24130 0.11599
 C955 C 0.40463 0.23478 0.10904
 C956 C 0.39169 0.25379 0.08131
 C957 C 0.44804 0.25167 0.05342
 C958 C 0.46116 0.23355 0.08084
 H959 H 0.43498 0.33005 0.09130
 H960 H 0.45842 0.29467 0.14299
 H961 H 0.38878 0.21673 0.12450
 H962 H 0.36478 0.25153 0.07308
 H963 H 0.45662 0.24473 0.02740
 H964 H 0.48158 0.21383 0.07720
 C965 C 0.59864 0.26451 0.93601
 C966 C 0.59134 0.22499 0.94477
 C967 C 0.57463 0.20681 0.91937
 C968 C 0.56721 0.22883 0.88606
 C969 C 0.54737 0.26186 0.89871
 C970 C 0.56355 0.28021 0.92460
 C971 C 0.62000 0.26111 0.90161
 C972 C 0.60319 0.24289 0.87526
 H973 H 0.60134 0.21136 0.96785
 H974 H 0.57037 0.17828 0.92175
 H975 H 0.52295 0.27080 0.88739
 H976 H 0.55273 0.30460 0.93543
 H977 H 0.64707 0.26865 0.89915
 H978 H 0.61552 0.23653 0.85044
 C979 C 0.39932 0.74098 0.93769
 C980 C 0.41109 0.71696 0.90681
 C981 C 0.42849 0.73475 0.88076
 C982 C 0.43394 0.77465 0.88851
 C983 C 0.39753 0.78973 0.89508
 C984 C 0.37954 0.77219 0.92054
 C985 C 0.43434 0.75704 0.94971
 C986 C 0.45189 0.77473 0.92446
 H987 H 0.40957 0.68806 0.90697
 H988 H 0.44008 0.72101 0.85861
 H989 H 0.38660 0.81204 0.88056
 H990 H 0.35323 0.77964 0.92772
 H991 H 0.44633 0.75199 0.97495
 H992 H 0.47778 0.78527 0.92907
 C993 C 0.73516 0.93153 0.40082
 C994 C 0.77393 0.94090 0.40538
 C995 C 0.79295 0.91617 0.42255
 C996 C 0.77246 0.88268 0.43316
 C997 C 0.74138 0.89639 0.45431
 C998 C 0.72221 0.92168 0.43769
 C999 C 0.73747 0.89541 0.38099
 C1000 C 0.75663 0.86967 0.39830
 H1001 H 0.78622 0.96388 0.39330
 H1002 H 0.82091 0.91897 0.42504
 H1003 H 0.73405 0.88583 0.47980
 H1004 H 0.69883 0.93282 0.44927
 H1005 H 0.72889 0.89140 0.35418
 H1006 H 0.76252 0.84392 0.38676
 C1007 C 0.25863 0.93742 0.60297
 C1008 C 0.28294 0.90678 0.59103
 C1009 C 0.26648 0.88053 0.57221
 C1010 C 0.22745 0.88770 0.56627
 C1011 C 0.21227 0.89297 0.60305
 C1012 C 0.22845 0.91880 0.62210
 C1013 C 0.24324 0.95015 0.56759
 C1014 C 0.22627 0.92486 0.54946
 H1015 H 0.31096 0.90707 0.59396
 H1016 H 0.28040 0.85827 0.56063
 H1017 H 0.19090 0.87734 0.61344
 H1018 H 0.22081 0.92514 0.64879
 H1019 H 0.24618 0.97683 0.55682
 H1020 H 0.21250 0.93124 0.52543
 C1021 C 0.25426 0.06358 0.39859
 C1022 C 0.22048 0.07791 0.38220
 C1023 C 0.20389 0.10301 0.40169
 C1024 C 0.22226 0.11198 0.43624
 C1025 C 0.22702 0.07617 0.45505
 C1026 C 0.24416 0.05146 0.43605
 C1027 C 0.27642 0.09716 0.40632
 C1028 C 0.25941 0.12275 0.42559
 H1029 H 0.21071 0.06933 0.35684
 H1030 H 0.18004 0.11580 0.39300
 H1031 H 0.21891 0.07104 0.48186
 H1032 H 0.25178 0.02621 0.44775
 H1033 H 0.30391 0.09936 0.40057
 H1034 H 0.27216 0.14683 0.43465
 C1035 C 0.74002 0.06244 0.59997
 C1036 C 0.77410 0.07554 0.61652
 C1037 C 0.79044 0.10164 0.59811
 C1038 C 0.77157 0.11275 0.56436
 C1039 C 0.76628 0.07811 0.54381
 C1040 C 0.74938 0.05247 0.56179
 C1041 C 0.71788 0.09664 0.59444
 C1042 C 0.73466 0.12320 0.57616
 H1043 H 0.78421 0.06546 0.64125
 H1044 H 0.81441 0.11380 0.60714
 H1045 H 0.77346 0.07465 0.51648
 H1046 H 0.74113 0.02817 0.54885
 H1047 H 0.69058 0.09882 0.60113
 H1048 H 0.72197 0.14798 0.56875
 C1049 C 0.94292 0.59526 0.26118
 C1050 C 0.93048 0.55932 0.27583
 C1051 C 0.90476 0.54374 0.25693
 C1052 C 0.89331 0.56508 0.22453
 C1053 C 0.88337 0.60212 0.23871
 C1054 C 0.90952 0.61826 0.25741
 C1055 C 0.95219 0.58796 0.22243
 C1056 C 0.92689 0.57191 0.20371
 H1057 H 0.94074 0.54737 0.29968
 H1058 H 0.89312 0.51859 0.26476
 H1059 H 0.85921 0.61559 0.23226
 H1060 H 0.90757 0.64594 0.26545
 H1061 H 0.97563 0.59748 0.20972
 H1062 H 0.92974 0.56760 0.17569
 C1063 C 0.93278 0.40022 0.74319
 C1064 C 0.92062 0.38296 0.77768
 C1065 C 0.89560 0.40152 0.79493
 C1066 C 0.88457 0.43609 0.77650
 C1067 C 0.91822 0.45699 0.77068
 C1068 C 0.94280 0.43888 0.75291
 C1069 C 0.89911 0.40629 0.72154
 C1070 C 0.87364 0.42466 0.73926
 H1071 H 0.93052 0.35764 0.78737
 H1072 H 0.88419 0.39206 0.81927
 H1073 H 0.92168 0.48477 0.77794
 H1074 H 0.96632 0.45206 0.74416
 H1075 H 0.89656 0.40025 0.69383
 H1076 H 0.84939 0.43261 0.72696
 C1077 C 0.06742 0.59661 0.73873
 C1078 C 0.07779 0.56049 0.72281
 C1079 C 0.10222 0.54225 0.74124
 C1080 C 0.11480 0.56129 0.77443
 C1081 C 0.12716 0.59814 0.76171
 C1082 C 0.10215 0.61704 0.74365
 C1083 C 0.05769 0.58843 0.77722
 C1084 C 0.08167 0.56967 0.79537
 H1085 H 0.06705 0.55034 0.69844
 H1086 H 0.11222 0.51663 0.73254
 H1087 H 0.15162 0.60996 0.76972
 H1088 H 0.10541 0.64534 0.73878
 H1089 H 0.03535 0.59980 0.79037
 H1090 H 0.07854 0.56480 0.82329
 C1091 C 0.06266 0.39969 0.25636
 C1092 C 0.05293 0.43699 0.24186
 C1093 C 0.07852 0.45364 0.22413
 C1094 C 0.11274 0.43276 0.22295
 C1095 C 0.12100 0.42538 0.26190
 C1096 C 0.09451 0.40878 0.27958
 C1097 C 0.07749 0.37922 0.22478
 C1098 C 0.10342 0.39638 0.20740
 H1099 H 0.02918 0.45104 0.24816
 H1100 H 0.07545 0.48072 0.21436
 H1101 H 0.14393 0.43541 0.27519
 H1102 H 0.09482 0.40658 0.30797
 H1103 H 0.06850 0.35295 0.21699
 H1104 H 0.11650 0.38481 0.18489
   
