data_POSCAR
  _audit_creation_date              2014-09-24
  _audit_creation_method            'ToBaCCo'
  _symmetry_space_group_name_H-M    'P1'
  _symmetry_Int_Tables_number       1
  _symmetry_cell_setting            triclinic
  loop_
  _symmetry_equiv_pos_as_xyz
 x,y,z
_cell_length_a 26.9962
_cell_length_b 26.9787
_cell_length_c 26.9225
_cell_angle_alpha 89.978800
_cell_angle_beta 90.030900
_cell_angle_gamma 89.760900
loop_
  _atom_site_label
  _atom_site_type_symbol
  _atom_site_fract_x
  _atom_site_fract_y
  _atom_site_fract_z
C1 C 0.20515 0.14144 0.20474
 C2 C 0.18353 0.12138 0.24764
 C3 C 0.14087 0.14309 0.26810
 C4 C 0.11970 0.18516 0.24591
 C5 C 0.14086 0.20566 0.20302
 C6 C 0.18374 0.18375 0.18226
 C7 C 0.24745 0.11963 0.18356
 C8 C 0.26835 0.13961 0.14031
 C9 C 0.24720 0.18164 0.11805
 C10 C 0.20493 0.20388 0.13874
 C11 C 0.18315 0.24559 0.11638
 C12 C 0.14061 0.26716 0.13700
 C13 C 0.11958 0.24736 0.18018
 H14 H 0.19961 0.08867 0.26482
 H15 H 0.08655 0.20165 0.26175
 H16 H 0.26387 0.08695 0.20049
 H17 H 0.26340 0.19681 0.08447
 H18 H 0.19902 0.26112 0.08283
 H19 H 0.08651 0.26425 0.19572
 C20 C -0.20263 0.86094 0.20844
 C21 C -0.18001 0.88217 0.25022
 C22 C -0.13673 0.86118 0.27013
 C23 C -0.11585 0.81872 0.24852
 C24 C -0.13798 0.79704 0.20675
 C25 C -0.18156 0.81817 0.18655
 C26 C -0.24558 0.88201 0.18780
 C27 C -0.26748 0.86084 0.14564
 C28 C -0.24670 0.81831 0.12400
 C29 C -0.20377 0.79681 0.14417
 C30 C -0.18230 0.75467 0.12236
 C31 C -0.13905 0.73390 0.14240
 C32 C -0.11702 0.75491 0.18448
 H33 H -0.19586 0.91518 0.26702
 H34 H -0.08223 0.80278 0.26398
 H35 H -0.26168 0.91508 0.20423
 H36 H -0.26366 0.80224 0.09122
 H37 H -0.19894 0.73822 0.08963
 H38 H -0.08341 0.73866 0.19956
 C39 C -0.20825 0.13840 -0.20383
 C40 C -0.18590 0.11743 -0.24597
 C41 C -0.14403 0.13952 -0.26711
 C42 C -0.12430 0.18280 -0.24648
 C43 C -0.14615 0.20424 -0.20438
 C44 C -0.18830 0.18201 -0.18286
 C45 C -0.24979 0.11626 -0.18193
 C46 C -0.27139 0.13718 -0.13944
 C47 C -0.25170 0.18049 -0.11865
 C48 C -0.21017 0.20309 -0.14008
 C49 C -0.18971 0.24602 -0.11914
 C50 C -0.14779 0.26784 -0.14048
 C51 C -0.12620 0.24713 -0.18300
 H52 H -0.20074 0.08377 -0.26210
 H53 H -0.09173 0.19947 -0.26300
 H54 H -0.26507 0.08261 -0.19771
 H55 H -0.26846 0.19637 -0.08561
 H56 H -0.20597 0.26220 -0.08604
 H57 H -0.09357 0.26415 -0.19906
 C58 C 0.20720 0.85886 -0.20507
 C59 C 0.18663 0.88178 -0.24713
 C60 C 0.14402 0.86226 -0.26942
 C61 C 0.12183 0.81957 -0.24996
 C62 C 0.14192 0.79623 -0.20795
 C63 C 0.18479 0.81590 -0.18532
 C64 C 0.24940 0.87845 -0.18200
 C65 C 0.26920 0.85569 -0.13958
 C66 C 0.24715 0.81304 -0.12001
 C67 C 0.20493 0.79293 -0.14262
 C68 C 0.18208 0.75068 -0.12292
 C69 C 0.13949 0.73136 -0.14535
 C70 C 0.11954 0.75394 -0.18776
 H71 H 0.20350 0.91497 -0.26224
 H72 H 0.08871 0.80478 -0.26726
 H73 H 0.26661 0.91162 -0.19669
 H74 H 0.26261 0.79587 -0.08700
 H75 H 0.19707 0.73305 -0.08992
 H76 H 0.08639 0.73884 -0.20466
 C77 C 0.14173 1.20521 0.79528
 C78 C 0.12178 1.18360 0.75232
 C79 C 0.14356 1.14098 0.73182
 C80 C 0.18561 1.11982 0.75402
 C81 C 0.20601 1.14096 0.79698
 C82 C 0.18402 1.18381 0.81778
 C83 C 0.11984 1.24746 0.81651
 C84 C 0.13972 1.26833 0.85983
 C85 C 0.18173 1.24719 0.88211
 C86 C 0.20405 1.20497 0.86138
 C87 C 0.24573 1.18321 0.88376
 C88 C 0.26738 1.14070 0.86310
 C89 C 0.24768 1.11970 0.81985
 H90 H 0.08907 1.19966 0.73512
 H91 H 0.20215 1.08669 0.73815
 H92 H 0.08718 1.26386 0.79956
 H93 H 0.19681 1.26338 0.91575
 H94 H 0.26118 1.19905 0.91737
 H95 H 0.26463 1.08666 0.80428
 C96 C 0.86105 0.79771 0.79195
 C97 C 0.88229 0.82041 0.75022
 C98 C 0.86128 0.86371 0.73032
 C99 C 0.81879 0.88452 0.75190
 C100 C 0.79710 0.86231 0.79362
 C101 C 0.81826 0.81872 0.81380
 C102 C 0.88214 0.75474 0.81258
 C103 C 0.86095 0.73274 0.85467
 C104 C 0.81840 0.75346 0.87627
 C105 C 0.79688 0.79641 0.85612
 C106 C 0.75470 0.81780 0.87788
 C107 C 0.73391 0.86108 0.85786
 C108 C 0.75494 0.88320 0.81585
 H109 H 0.91532 0.80460 0.73345
 H110 H 0.80283 0.91815 0.73644
 H111 H 0.91523 0.73869 0.79617
 H112 H 0.80231 0.73643 0.90900
 H113 H 0.73824 0.80109 0.91056
 H114 H 0.73866 0.91682 0.80078
 C115 C 0.13862 0.79183 1.20417
 C116 C 0.11775 0.81421 1.24634
 C117 C 0.13990 0.85608 1.26747
 C118 C 0.18314 0.87578 1.24680
 C119 C 0.20449 0.85391 1.20466
 C120 C 0.18219 0.81175 1.18315
 C121 C 0.11642 0.75029 1.18228
 C122 C 0.13724 0.72867 1.13974
 C123 C 0.18051 0.74833 1.11891
 C124 C 0.20317 0.78986 1.14032
 C125 C 0.24607 0.81030 1.11934
 C126 C 0.26795 0.85221 1.14067
 C127 C 0.24734 0.87383 1.18323
 H128 H 0.08413 0.79939 1.26252
 H129 H 0.19986 0.90835 1.26331
 H130 H 0.08280 0.73503 1.19809
 H131 H 0.19631 0.73156 1.08584
 H132 H 0.26216 0.79401 1.08621
 H133 H 0.26441 0.90645 1.19928
 C134 C 0.85879 1.20714 1.20526
 C135 C 0.88169 1.18658 1.24734
 C136 C 0.86214 1.14401 1.26970
 C137 C 0.81943 1.12183 1.25028
 C138 C 0.79611 1.14191 1.20825
 C139 C 0.81582 1.18475 1.18556
 C140 C 0.87841 1.24930 1.18213
 C141 C 0.85568 1.26909 1.13970
 C142 C 0.81301 1.24706 1.12017
 C143 C 0.79287 1.20487 1.14284
 C144 C 0.75060 1.18204 1.12319
 C145 C 0.73125 1.13948 1.14567
 C146 C 0.75381 1.11954 1.18810
 H147 H 0.91489 1.20344 1.26241
 H148 H 0.80462 1.08874 1.26763
 H149 H 0.91160 1.26650 1.19679
 H150 H 0.79585 1.26251 1.08714
 H151 H 0.73299 1.19701 1.09017
 H152 H 0.73868 1.08642 1.20505
 O153 O 0.57083 0.91196 0.91237
 O154 O 0.62462 0.95703 0.96050
 C155 C 0.61499 0.92520 0.92587
 O156 O 0.42979 1.08781 0.91730
 O157 O 0.37588 1.03963 0.96210
 C158 C 0.38560 1.07415 0.93018
 O159 O 0.56904 1.08435 0.91321
 O160 O 0.62377 1.03944 0.96086
 C161 C 0.61347 1.07152 0.92655
 O162 O 0.43167 0.90686 0.91616
 O163 O 0.37682 0.95379 0.96158
 C164 C 0.38721 0.91988 0.92916
 Zr165 Zr 0.50095 0.93482 0.94041
 O166 O 0.49571 0.93504 0.86194
 O167 O 0.50721 0.85656 0.94079
 Zr168 Zr 0.49963 1.06029 0.94099
 O169 O 0.49428 1.06056 0.86253
 O170 O 0.50431 1.13860 0.94179
 O171 O 0.54444 0.99789 0.93106
 O172 O 0.45737 0.99734 0.93154
 O173 O 0.43134 0.90557 1.08916
 O174 O 0.37663 0.95324 1.04420
 C175 C 0.38691 0.91870 1.07601
 O176 O 0.56874 1.08379 1.09465
 O177 O 0.62357 1.03919 1.04692
 C178 C 0.61319 1.07115 1.08126
 O179 O 0.42947 1.08701 1.09024
 O180 O 0.37574 1.03922 1.04478
 C181 C 0.38531 1.07349 1.07700
 O182 O 0.57068 0.91104 1.09413
 O183 O 0.62453 0.95669 1.04665
 C184 C 0.61487 0.92448 1.08093
 Zr185 Zr 0.50077 0.93418 1.06607
 O186 O 0.49508 0.93408 1.14450
 O187 O 0.50716 0.85595 1.06557
 Zr188 Zr 0.49942 1.05958 1.06670
 O189 O 0.49390 1.05839 1.14514
 O190 O 0.50393 1.13790 1.06722
 Zr191 Zr 0.57379 0.99772 1.00366
 Zr192 Zr 0.42660 0.99678 1.00335
 O193 O 0.45706 0.99655 1.07532
 O194 O 0.54427 0.99714 1.07616
 O195 O 0.45679 0.92455 1.00308
 O196 O 0.54239 1.06925 1.00396
 O197 O 0.54396 0.92576 1.00328
 O198 O 0.45528 1.06936 1.00379
 H199 H 0.43505 0.99739 0.90231
 H200 H 0.56448 1.09849 1.00407
 H201 H 0.43453 0.99623 1.10435
 H202 H 0.56675 0.89688 1.00320
 H203 H 0.47615 1.15124 0.96164
 H204 H 0.47648 1.15075 1.04649
 H205 H 0.52246 1.03919 1.15797
 H206 H 0.52258 0.95435 1.15760
 H207 H 0.47984 0.84295 1.04491
 H208 H 0.47889 0.84342 0.95995
 H209 H 0.52286 0.95595 0.84914
 H210 H 0.52216 1.04054 0.84952
 O211 O 0.08379 0.56881 -0.09435
 O212 O 0.03920 0.62366 -0.04661
 C213 C 0.07116 0.61329 -0.08094
 O214 O -0.09435 0.43133 -0.08902
 O215 O -0.04672 0.37656 -0.04408
 C216 C -0.08124 0.38687 -0.07589
 O217 O -0.08886 0.57077 -0.09392
 O218 O -0.04325 0.62464 -0.04639
 C219 C -0.07543 0.61499 -0.08069
 O220 O 0.08699 0.42945 -0.09001
 O221 O 0.03921 0.37567 -0.04462
 C222 C 0.07348 0.38526 -0.07681
 Zr223 Zr 0.05957 0.49944 -0.06646
 O224 O 0.05840 0.49395 -0.14490
 O225 O 0.13784 0.50395 -0.06695
 Zr226 Zr -0.06574 0.50080 -0.06590
 O227 O -0.06579 0.49513 -0.14433
 O228 O -0.14392 0.50720 -0.06546
 O229 O -0.00282 0.54433 -0.07593
 O230 O -0.00341 0.45706 -0.07514
 O231 O 0.08773 0.42970 0.08291
 O232 O 0.03960 0.37577 0.03806
 C233 C 0.07408 0.38549 0.07000
 O234 O -0.08802 0.57084 0.08782
 O235 O -0.04296 0.62468 0.03976
 C236 C -0.07478 0.61502 0.07436
 O237 O -0.09311 0.43160 0.08396
 O238 O -0.04620 0.37672 0.03853
 C239 C -0.08009 0.38711 0.07094
 O240 O 0.08429 0.56904 0.08708
 O241 O 0.03943 0.62383 0.03944
 C242 C 0.07148 0.61350 0.07376
 Zr243 Zr 0.06023 0.49960 0.05926
 O244 O 0.06045 0.49421 0.13771
 O245 O 0.13850 0.50427 0.05852
 Zr246 Zr -0.06515 0.50093 0.05977
 O247 O -0.06494 0.49565 0.13823
 O248 O -0.14336 0.50719 0.05936
 Zr249 Zr -0.00227 0.57384 -0.00340
 Zr250 Zr -0.00322 0.42655 -0.00318
 O251 O -0.00267 0.45730 0.06865
 O252 O -0.00212 0.54444 0.06918
 O253 O 0.06932 0.45524 -0.00357
 O254 O -0.07417 0.54399 -0.00309
 O255 O 0.06922 0.54241 -0.00369
 O256 O -0.07539 0.45677 -0.00293
 H257 H -0.00373 0.43452 -0.10418
 H258 H -0.10305 0.56679 -0.00301
 H259 H -0.00263 0.43496 0.09786
 H260 H 0.09844 0.56450 -0.00377
 H261 H -0.15693 0.47989 -0.04478
 H262 H -0.15648 0.47888 0.04017
 H263 H -0.04407 0.52283 0.15106
 H264 H 0.04048 0.52213 0.15073
 H265 H 0.15113 0.47612 0.03864
 H266 H 0.15067 0.47649 -0.04620
 H267 H 0.03923 0.52254 -0.15773
 H268 H -0.04557 0.52268 -0.15740
 O269 O 0.91199 0.08895 0.56996
 O270 O 0.95995 0.04405 0.62447
 C271 C 0.92528 0.07581 0.61441
 O272 O 0.91635 -0.08715 0.43045
 O273 O 0.96148 -0.03995 0.37589
 C274 C 0.92930 -0.07393 0.38600
 O275 O 0.91268 -0.08325 0.56996
 O276 O 0.96021 -0.03827 0.62439
 C277 C 0.92606 -0.07031 0.61438
 O278 O 0.91642 0.09367 0.43030
 O279 O 0.96137 0.04586 0.37580
 C280 C 0.92930 0.08022 0.38586
 Zr281 Zr 0.94042 0.06604 0.50014
 O282 O 0.86221 0.06746 0.49472
 O283 O 0.94186 0.14431 0.50577
 Zr284 Zr 0.94029 -0.05953 0.50017
 O285 O 0.86203 -0.05898 0.49493
 O286 O 0.94071 -0.13784 0.50555
 O287 O 0.93067 0.00327 0.54436
 O288 O 0.93118 0.00327 0.45715
 O289 O 1.08923 0.09298 0.43006
 O290 O 1.04391 0.04563 0.37572
 C291 C 1.07612 0.07966 0.38563
 O292 O 1.09346 -0.08376 0.56996
 O293 O 1.04597 -0.03843 0.62443
 C294 C 1.08017 -0.07068 0.61439
 O295 O 1.08889 -0.08836 0.43045
 O296 O 1.04479 -0.03969 0.37596
 C297 C 1.07618 -0.07470 0.38602
 O298 O 1.09342 0.08911 0.56986
 O299 O 1.04593 0.04413 0.62432
 C300 C 1.08009 0.07616 0.61432
 Zr301 Zr 1.06558 0.06545 0.50003
 O302 O 1.14382 0.06497 0.49468
 O303 O 1.06506 0.14375 0.50526
 Zr304 Zr 1.06565 -0.05998 0.50014
 O305 O 1.14387 -0.05951 0.49452
 O306 O 1.06593 -0.13825 0.50574
 Zr307 Zr 1.00301 0.00295 0.57392
 Zr308 Zr 1.00277 0.00287 0.42626
 O309 O 1.07452 0.00266 0.45698
 O310 O 1.07534 0.00271 0.54438
 O311 O 1.00292 0.07533 0.45569
 O312 O 1.00302 -0.06879 0.54323
 O313 O 1.00301 0.07473 0.54328
 O314 O 1.00290 -0.06951 0.45585
 H315 H 0.90202 0.00339 0.43480
 H316 H 1.00309 -0.09790 0.56567
 H317 H 1.10361 0.00252 0.43455
 H318 H 1.00288 0.10372 0.56585
 H319 H 0.96027 -0.15080 0.47730
 H320 H 1.04483 -0.15115 0.47868
 H321 H 1.15677 -0.04014 0.52287
 H322 H 1.15670 0.04470 0.52248
 H323 H 1.04520 0.15662 0.47717
 H324 H 0.96025 0.15708 0.47672
 H325 H 0.84918 0.04521 0.52078
 H326 H 0.84918 -0.03924 0.52311
 C327 C 1.11913 0.12242 0.30879
 C328 C 1.09960 0.10345 0.34427
 C329 C 0.88566 -0.11734 0.30998
 C330 C 0.90561 -0.09790 0.34492
 C331 C 0.87964 0.11712 0.69057
 C332 C 0.90014 0.09833 0.65553
 C333 C 1.12334 -0.11467 0.69058
 C334 C 1.10419 -0.09443 0.65554
 C335 C 0.30865 1.11753 1.11918
 C336 C 0.34393 1.09771 1.10009
 C337 C 0.31148 0.87714 0.88472
 C338 C 0.34639 0.89604 0.90507
 C339 C 0.69180 0.88237 1.12469
 C340 C 0.65628 0.90151 1.10529
 C341 C 0.68901 1.11486 0.88236
 C342 C 0.65428 1.09506 0.90217
 C343 C 0.11785 0.30927 0.11327
 C344 C 0.09823 0.34426 0.09344
 C345 C -0.12566 0.31067 -0.11781
 C346 C -0.10600 0.34589 -0.09875
 C347 C 0.11538 0.68906 -0.12380
 C348 C 0.09514 0.65412 -0.10484
 C349 C -0.11656 0.69149 0.11902
 C350 C -0.09753 0.65633 0.09896
 C351 C 1.12293 0.11922 0.69111
 C352 C 1.10396 0.09967 0.65563
 C353 C 0.88273 -0.11387 0.69048
 C354 C 0.90213 -0.09393 0.65552
 C355 C 1.11758 -0.12023 0.30983
 C356 C 1.09879 -0.09975 0.34488
 C357 C 0.88521 0.12334 0.30969
 C358 C 0.90548 0.10420 0.34473
 C359 C 0.11758 0.30860 -0.11902
 C360 C 0.09771 0.34387 -0.09991
 C361 C -0.12286 0.31135 0.11536
 C362 C -0.10394 0.34627 0.09500
 C363 C -0.11752 0.69199 -0.12441
 C364 C -0.09838 0.65644 -0.10503
 C365 C 0.11486 0.68906 0.11796
 C366 C 0.09504 0.65433 0.09815
 C367 C 0.30946 1.11794 0.88686
 C368 C 0.34441 1.09831 0.90672
 C369 C 0.31074 0.87431 1.11796
 C370 C 0.34595 0.89395 1.09888
 C371 C 0.68893 1.11537 1.12415
 C372 C 0.65401 1.09513 1.10519
 C373 C 0.69146 0.88350 0.88121
 C374 C 0.65629 0.90248 0.90126
   
