data_POSCAR
  _audit_creation_date              2014-09-24
  _audit_creation_method            'ToBaCCo'
  _symmetry_space_group_name_H-M    'P1'
  _symmetry_Int_Tables_number       1
  _symmetry_cell_setting            triclinic
  loop_
  _symmetry_equiv_pos_as_xyz
 x,y,z
_cell_length_a 14.7819
_cell_length_b 14.7663
_cell_length_c 37.0780
_cell_angle_alpha 89.365000
_cell_angle_beta 88.999800
_cell_angle_gamma 120.442800
loop_
  _atom_site_label
  _atom_site_type_symbol
  _atom_site_fract_x
  _atom_site_fract_y
  _atom_site_fract_z
C1 C -0.03702 0.05614 0.52409
 C2 C -0.13286 -0.02657 0.50327
 C3 C -0.11416 -0.09397 0.48367
 C4 C -0.00050 -0.06976 0.48542
 C5 C 0.00142 -0.00691 0.54553
 C6 C 0.01476 -0.07663 0.52598
 C7 C 0.04916 0.11201 0.49483
 C8 C 0.06712 0.04734 0.47439
 H9 H -0.20749 -0.02938 0.50348
 H10 H 0.01678 -0.12218 0.46919
 H11 H 0.00369 -0.00730 0.57472
 H12 H 0.09387 0.19563 0.48957
 C13 C 0.94269 -0.05465 0.19308
 C14 C 1.00474 -0.08548 0.16656
 C15 C 1.07289 -0.00476 0.14371
 C16 C 1.06995 0.09744 0.14855
 C17 C 1.02450 0.03709 0.21035
 C18 C 1.09378 0.12160 0.18653
 C19 C 0.88811 -0.01549 0.16832
 C20 C 0.95293 0.06334 0.14522
 H21 H 1.00486 -0.15851 0.16782
 H22 H 1.12077 0.16267 0.12936
 H23 H 1.03717 0.03874 0.23913
 H24 H 0.80337 -0.05244 0.16753
 C25 C 0.10365 1.00780 0.85509
 C26 C 0.12899 1.10306 0.83009
 C27 C 0.04541 1.08947 0.81043
 C28 C -0.05590 0.98426 0.81826
 C29 C 0.01074 0.99523 0.87819
 C30 C -0.07098 0.98626 0.85936
 C31 C 0.05751 0.91373 0.83078
 C32 C -0.02460 0.90050 0.81114
 H33 H 0.20216 1.17737 0.83035
 H34 H -0.12468 0.97280 0.80292
 H35 H 0.01762 1.01365 0.90659
 H36 H 0.09276 0.86529 0.82739
 O37 O 0.40573 -0.05196 -0.03019
 O38 O 0.59913 -0.01825 0.03768
 O39 O 0.40210 -0.05977 0.04075
 O40 O 0.58098 -0.05110 -0.03039
 O41 O 0.65216 0.12062 -0.03603
 O42 O 0.46656 0.11098 0.03394
 O43 O 0.66954 0.15378 0.03223
 O44 O 0.48402 0.12075 -0.03730
 Cu45 Cu 0.48907 -0.06217 0.00543
 Cu46 Cu 0.57340 0.14296 -0.00083
 C47 C 0.41475 0.02928 -0.04613
 C48 C 0.66932 0.07451 0.04576
 C49 C 0.40115 0.02280 0.04873
 C50 C 0.64789 0.03572 -0.04522
 O51 O 0.04192 0.42737 0.63489
 O52 O 0.03780 0.61668 0.69879
 O53 O 0.08389 0.46158 0.70301
 O54 O 0.06519 0.61079 0.62905
 O55 O -0.10797 0.51936 0.63285
 O56 O -0.08823 0.35827 0.70675
 O57 O -0.13408 0.51445 0.70427
 O58 O -0.13131 0.33488 0.63924
 Cu59 Cu 0.07179 0.53799 0.66700
 Cu60 Cu -0.13152 0.42398 0.67204
 C61 C -0.04573 0.34839 0.62625
 C62 C -0.05082 0.59774 0.71175
 C63 C 0.00381 0.38005 0.71563
 C64 C -0.02264 0.59064 0.61739
 O65 O 0.62031 0.52464 0.37077
 O66 O 0.46137 0.38531 0.29199
 O67 O 0.64642 0.54669 0.30197
 O68 O 0.45313 0.33364 0.36107
 O69 O 0.36084 0.41279 0.36559
 O70 O 0.55906 0.63049 0.30790
 O71 O 0.37487 0.46990 0.29872
 O72 O 0.52436 0.59941 0.37783
 Cu73 Cu 0.55277 0.43829 0.33129
 Cu74 Cu 0.44679 0.53637 0.33842
 C75 C 0.60029 0.58849 0.38700
 C76 C 0.39194 0.40628 0.28156
 C77 C 0.63716 0.62573 0.29514
 C78 C 0.37222 0.33437 0.37237
 C79 C -0.00553 0.30601 0.56643
 C80 C -0.01154 0.23566 0.54067
 C81 C -0.05852 0.12713 0.54876
 C82 C -0.11483 0.08938 0.58246
 C83 C -0.10613 0.16163 0.60906
 C84 C -0.04953 0.27082 0.60088
 C85 C -0.15303 0.12193 0.64340
 N86 N -0.21062 0.01684 0.64976
 N87 N -0.22411 -0.05111 0.62421
 C88 C -0.17886 -0.01854 0.59089
 H89 H 0.03282 0.38889 0.55921
 H90 H 0.02163 0.26879 0.51440
 H91 H -0.14409 0.17309 0.66535
 H92 H -0.19377 -0.07748 0.57140
 C93 C 0.76309 0.68375 0.24350
 C94 C 0.83498 0.75855 0.21895
 C95 C 0.86286 0.86455 0.22068
 C96 C 0.81328 0.89358 0.24827
 C97 C 0.74599 0.81807 0.27485
 C98 C 0.71720 0.71136 0.27139
 C99 C 0.71143 0.85280 0.30449
 N100 N 0.73370 0.95361 0.30550
 N101 N 0.78889 1.02240 0.27911
 C102 C 0.82871 0.99605 0.25060
 H103 H 0.74186 0.60253 0.24023
 H104 H 0.86568 0.73083 0.19798
 H105 H 0.66892 0.80213 0.32733
 H106 H 0.87159 1.05636 0.23029
 C107 C 0.23456 -0.04220 -0.06553
 C108 C 0.16100 -0.04674 -0.08915
 C109 C 0.19092 0.01034 -0.12229
 C110 C 0.29821 0.05764 -0.13384
 C111 C 0.37404 0.06523 -0.10904
 C112 C 0.34114 0.01757 -0.07426
 C113 C 0.48006 0.11578 -0.12054
 N114 N 0.50755 0.15226 -0.15503
 N115 N 0.43615 0.14041 -0.17882
 C116 C 0.33268 0.09335 -0.16957
 H117 H 0.20793 -0.08306 -0.03961
 H118 H 0.07939 -0.09538 -0.08086
 H119 H 0.54095 0.12392 -0.10283
 H120 H 0.27873 0.08054 -0.19070
 C121 C -0.09880 0.68727 0.58876
 C122 C -0.08719 0.77039 0.56731
 C123 C 0.00081 0.82692 0.54406
 C124 C 0.07271 0.79140 0.53964
 C125 C 0.05916 0.70427 0.56070
 C126 C -0.02351 0.65680 0.58727
 C127 C 0.12943 0.66788 0.55442
 N128 N 0.21009 0.71872 0.53008
 N129 N 0.22518 0.80322 0.51152
 C130 C 0.15950 0.84153 0.51555
 H131 H -0.16330 0.65148 0.60838
 H132 H -0.14540 0.79373 0.57015
 H133 H 0.11991 0.59835 0.56802
 H134 H 0.17564 0.91045 0.49983
 C135 C 0.21833 0.32176 0.25462
 C136 C 0.14543 0.25404 0.23066
 C137 C 0.17498 0.21488 0.20119
 C138 C 0.28450 0.25672 0.19376
 C139 C 0.35901 0.32426 0.21916
 C140 C 0.32410 0.35139 0.25088
 C141 C 0.46633 0.36318 0.21180
 N142 N 0.49710 0.33463 0.18151
 N143 N 0.42793 0.27049 0.15802
 C144 C 0.32336 0.23086 0.16311
 H145 H 0.19001 0.34541 0.27772
 H146 H 0.06329 0.22692 0.23646
 H147 H 0.52636 0.41761 0.22938
 H148 H 0.27320 0.18219 0.14259
 C149 C 0.68354 -0.05197 -0.09530
 C150 C 0.75012 -0.06329 -0.11951
 C151 C 0.85582 0.01410 -0.12292
 C152 C 0.89334 0.10883 -0.10353
 C153 C 0.82732 0.11828 -0.07747
 C154 C 0.72096 0.03624 -0.07324
 C155 C 0.87253 0.20762 -0.05555
 N156 N 0.97336 0.28506 -0.06158
 N157 N 1.03303 0.27903 -0.08756
 C158 C 0.99663 0.19383 -0.10860
 H159 H 0.60254 -0.11506 -0.09276
 H160 H 0.72028 -0.13567 -0.13413
 H161 H 0.83098 0.21723 -0.03322
 H162 H 1.04889 0.19393 -0.12913
 C163 C 0.24323 0.03447 0.06156
 C164 C 0.16173 0.02337 0.08416
 C165 C 0.15458 -0.00725 0.12050
 C166 C 0.23392 -0.02444 0.13451
 C167 C 0.31595 -0.01479 0.11121
 C168 C 0.32020 0.01496 0.07453
 C169 C 0.39404 -0.03087 0.12580
 N170 N 0.39111 -0.05315 0.16150
 N171 N 0.31591 -0.05968 0.18356
 C172 C 0.23792 -0.04538 0.17142
 H173 H 0.24568 0.05751 0.03354
 H174 H 0.10434 0.04032 0.07323
 H175 H 0.45840 -0.02410 0.10932
 H176 H 0.18152 -0.04860 0.19100
 C177 C 0.77475 0.72896 0.40404
 C178 C 0.84164 0.80816 0.42676
 C179 C 0.80777 0.81896 0.46125
 C180 C 0.70412 0.74363 0.47344
 C181 C 0.63495 0.66454 0.44972
 C182 C 0.67087 0.65814 0.41472
 C183 C 0.53249 0.59210 0.46224
 N184 N 0.50222 0.59706 0.49652
 N185 N 0.56767 0.66901 0.51910
 C186 C 0.66748 0.74170 0.50886
 H187 H 0.80316 0.72587 0.37720
 H188 H 0.92053 0.86282 0.41682
 H189 H 0.47690 0.53032 0.44535
 H190 H 0.71728 0.79533 0.52879
 C191 C -0.04335 0.26668 0.77070
 C192 C -0.03078 0.19925 0.79393
 C193 C 0.04563 0.17156 0.78690
 C194 C 0.10944 0.21134 0.75514
 C195 C 0.09497 0.27795 0.73090
 C196 C 0.01920 0.30770 0.73933
 C197 C 0.15345 0.30788 0.69804
 N198 N 0.22338 0.27639 0.69084
 N199 N 0.23810 0.21568 0.71389
 C200 C 0.18326 0.18165 0.74562
 H201 H -0.10249 0.28699 0.77730
 H202 H -0.08234 0.16742 0.81750
 H203 H 0.14291 0.35353 0.67744
 H204 H 0.19638 0.12976 0.76255
 C205 C 0.81208 0.04165 0.06083
 C206 C 0.88733 0.04521 0.08383
 C207 C 0.90623 0.09623 0.11678
 C208 C 0.85267 0.15021 0.12564
 C209 C 0.77592 0.14672 0.10228
 C210 C 0.75384 0.08944 0.07002
 C211 C 0.72007 0.19606 0.11317
 N212 N 0.74176 0.24706 0.14488
 N213 N 0.81470 0.25134 0.16655
 C214 C 0.87056 0.20433 0.15810
 H215 H 0.79651 -0.00200 0.03617
 H216 H 0.92466 0.00037 0.07721
 H217 H 0.65872 0.19376 0.09709
 H218 H 0.92880 0.20992 0.17667
 C219 C 0.31965 0.20225 0.42231
 C220 C 0.24440 0.12770 0.44644
 C221 C 0.13756 0.09180 0.44227
 C222 C 0.10546 0.12542 0.41159
 C223 C 0.18167 0.19955 0.38676
 C224 C 0.28985 0.24305 0.39350
 C225 C 0.14668 0.22827 0.35601
 N226 N 0.04258 0.18850 0.35138
 N227 N -0.02884 0.12211 0.37546
 C228 C -0.00098 0.08982 0.40547
 H229 H 0.40198 0.23338 0.42756
 H230 H 0.27030 0.10454 0.47015
 H231 H 0.20089 0.28073 0.33540
 H232 H -0.06229 0.03617 0.42405
 C233 C -0.09105 0.64507 0.77105
 C234 C -0.09339 0.71653 0.79471
 C235 C -0.06452 0.81879 0.78303
 C236 C -0.04413 0.84455 0.74559
 C237 C -0.03870 0.77273 0.72171
 C238 C -0.05825 0.67406 0.73506
 C239 C -0.01432 0.80201 0.68502
 N240 N 0.00181 0.89625 0.67305
 N241 N -0.00500 0.96283 0.69528
 C242 C -0.02734 0.94014 0.73101
 H243 H -0.10961 0.56844 0.78137
 H244 H -0.10972 0.69470 0.82310
 H245 H -0.00883 0.75062 0.66572
 H246 H -0.03546 0.99532 0.74723
   
