data_POSCAR
  _audit_creation_date              2014-09-24
  _audit_creation_method            'ToBaCCo'
  _symmetry_space_group_name_H-M    'P1'
  _symmetry_Int_Tables_number       1
  _symmetry_cell_setting            triclinic
  loop_
  _symmetry_equiv_pos_as_xyz
 x,y,z
_cell_length_a 34.7496
_cell_length_b 32.9715
_cell_length_c 31.3665
_cell_angle_alpha 91.790800
_cell_angle_beta 93.191900
_cell_angle_gamma 89.435600
loop_
  _atom_site_label
  _atom_site_type_symbol
  _atom_site_fract_x
  _atom_site_fract_y
  _atom_site_fract_z
N1 N 0.16216 1.24382 0.17714
 N2 N 0.13337 1.23200 0.19907
 C3 C 0.10178 1.25416 0.18827
 C4 C 0.11143 1.28165 0.15829
 C5 C 0.15021 1.27454 0.15227
 H6 H 0.07366 1.24993 0.20056
 H7 H 0.16795 1.28880 0.12988
 Cu8 Cu 0.13951 1.18765 0.23829
 Cu9 Cu 0.21162 1.21546 0.17941
 Cu10 Cu 0.20846 1.11849 0.21947
 N11 N 0.13863 1.13429 0.26238
 N12 N 0.16466 1.10665 0.25321
 C13 C 0.15537 1.07140 0.27037
 C14 C 0.12191 1.07736 0.29170
 C15 C 0.11210 1.11782 0.28615
 H16 H 0.17155 1.04336 0.26732
 H17 H 0.08684 1.13369 0.29680
 N18 N 0.25045 1.13698 0.18509
 N19 N 0.25162 1.17389 0.17004
 C20 C 0.28143 1.17608 0.14458
 C21 C 0.30002 1.13878 0.14381
 C22 C 0.27991 1.11493 0.17014
 H23 H 0.28789 1.20225 0.12639
 H24 H 0.28503 1.08308 0.17569
 H25 H 0.18122 1.16314 0.18352
 H26 H 0.20969 1.17936 0.23308
 N27 N 0.82898 0.76082 0.08544
 N28 N 0.84634 0.75232 0.12245
 C29 C 0.87436 0.72458 0.11610
 C30 C 0.87452 0.71557 0.07267
 C31 C 0.84546 0.73910 0.05429
 H32 H 0.89446 0.71372 0.14083
 H33 H 0.83762 0.74101 0.02055
 Cu34 Cu 0.83436 0.78264 0.17421
 Cu35 Cu 0.78706 0.80018 0.07986
 Cu36 Cu 0.76397 0.85295 0.17210
 N37 N 0.83312 0.82622 0.21752
 N38 N 0.80598 0.85428 0.21581
 C39 C 0.81400 0.88307 0.24621
 C40 C 0.84810 0.87269 0.26808
 C41 C 0.85935 0.83607 0.24936
 H42 H 0.79712 0.91046 0.25082
 H43 H 0.88571 0.81923 0.25625
 N44 N 0.73511 0.85947 0.11703
 N45 N 0.74507 0.84074 0.08146
 C46 C 0.72297 0.85490 0.04849
 C47 C 0.69787 0.88370 0.06408
 C48 C 0.70625 0.88585 0.10774
 H49 H 0.72565 0.84597 0.01532
 H50 H 0.69405 0.90677 0.13065
 H51 H 0.80564 0.83637 0.13160
 H52 H 0.76988 0.79618 0.14069
 N53 N 0.83877 1.24099 -0.12351
 N54 N 0.86583 1.24452 -0.15079
 C55 C 0.89225 1.27127 -0.13471
 C56 C 0.88122 1.28493 -0.09501
 C57 C 0.84731 1.26499 -0.08883
 H58 H 0.91859 1.27835 -0.14962
 H59 H 0.83075 1.26693 -0.06063
 Cu60 Cu 0.86660 1.21011 -0.20201
 Cu61 Cu 0.79584 1.20366 -0.13395
 Cu62 Cu 0.80296 1.13436 -0.21856
 N63 N 0.87511 1.16590 -0.24275
 N64 N 0.84938 1.13727 -0.25048
 C65 C 0.86290 1.10991 -0.27883
 C66 C 0.89945 1.12178 -0.28875
 C67 C 0.90621 1.15743 -0.26529
 H68 H 0.84816 1.08232 -0.28924
 H69 H 0.93224 1.17529 -0.26383
 N70 N 0.75866 1.13656 -0.18184
 N71 N 0.75559 1.16340 -0.15004
 C72 C 0.72395 1.15509 -0.12905
 C73 C 0.70663 1.12111 -0.14828
 C74 C 0.72938 1.11014 -0.18149
 H75 H 0.71579 1.17062 -0.10001
 H76 H 0.72593 1.08350 -0.20230
 H77 H 0.82981 1.16152 -0.16483
 H78 H 0.79826 1.19479 -0.19938
 N79 N 0.18302 0.75298 -0.12272
 N80 N 0.16319 0.74429 -0.15870
 C81 C 0.14025 0.71241 -0.15297
 C82 C 0.14588 0.70076 -0.11107
 C83 C 0.17347 0.72703 -0.09291
 H84 H 0.11936 0.70020 -0.17670
 H85 H 0.18477 0.72830 -0.06011
 Cu86 Cu 0.16533 0.77905 -0.20740
 Cu87 Cu 0.21755 0.79913 -0.11587
 Cu88 Cu 0.22219 0.86086 -0.20273
 N89 N 0.15564 0.82399 -0.24545
 N90 N 0.17743 0.85643 -0.24272
 C91 C 0.16264 0.88423 -0.26968
 C92 C 0.12948 0.86837 -0.29026
 C93 C 0.12623 0.82990 -0.27446
 H94 H 0.17473 0.91399 -0.27294
 H95 H 0.10311 0.80864 -0.28189
 N96 N 0.25413 0.86948 -0.14952
 N97 N 0.25109 0.84698 -0.11581
 C98 C 0.27318 0.86301 -0.08305
 C99 C 0.29110 0.89694 -0.09685
 C100 C 0.27851 0.90023 -0.13923
 H101 H 0.27540 0.85157 -0.05106
 H102 H 0.28479 0.92439 -0.16025
 H103 H 0.18840 0.83455 -0.16051
 H104 H 0.22909 0.80242 -0.17879
 C105 C 0.45016 1.03119 -0.03848
 C106 C 0.47198 1.05344 -0.00706
 C107 C 0.45342 1.07627 0.02436
 C108 C 0.41304 1.07786 0.02366
 C109 C 0.39148 1.05487 -0.00749
 C110 C 0.40990 1.03081 -0.03808
 C111 C 0.51425 1.05078 -0.00614
 C112 C 0.53501 1.07599 -0.03162
 C113 C 0.57491 1.07072 -0.03402
 C114 C 0.59394 1.04041 -0.01020
 C115 C 0.57345 1.01531 0.01578
 C116 C 0.53359 1.02099 0.01802
 H117 H 0.46464 1.01278 -0.06205
 H118 H 0.47035 1.09298 0.04898
 H119 H 0.52001 1.09903 -0.05021
 H120 H 0.51743 1.00156 0.03764
 H121 H 0.36030 1.05498 -0.00731
 H122 H 0.62498 1.03736 -0.01075
 C123 C 0.00205 0.45646 0.97753
 C124 C 0.02851 0.47747 1.00518
 C125 C 0.05357 0.45598 1.03300
 C126 C 0.05129 0.41363 1.03453
 C127 C 0.02412 0.39284 1.00730
 C128 C -0.00038 0.41410 0.97848
 C129 C 0.02851 0.52207 1.00649
 C130 C 0.00194 0.54325 1.03102
 C131 C 0.00054 0.58571 1.03162
 C132 C 0.02703 0.60692 1.00865
 C133 C 0.05440 0.58601 0.98471
 C134 C 0.05450 0.54343 0.98312
 H135 H -0.01696 0.47316 0.95568
 H136 H 0.07426 0.47231 1.05405
 H137 H -0.01819 0.52660 1.04890
 H138 H 0.07505 0.52694 0.96425
 H139 H 0.02329 0.36000 1.00711
 H140 H 0.02628 0.63977 1.00939
 C141 C 0.97212 -0.06542 0.44863
 C142 C 0.99085 -0.03437 0.47306
 C143 C 1.00876 -0.00296 0.45272
 C144 C 1.00894 -0.00284 0.40812
 C145 C 0.98937 -0.03344 0.38378
 C146 C 0.97042 -0.06445 0.40388
 C147 C 0.99120 -0.03364 0.51995
 C148 C 1.02064 -0.05363 0.54362
 C149 C 1.02394 -0.04875 0.58824
 C150 C 0.99699 -0.02421 0.60907
 C151 C 0.96683 -0.00495 0.58560
 C152 C 0.96397 -0.01000 0.54104
 H153 H 0.95779 -0.08935 0.46439
 H154 H 1.02318 0.02100 0.47173
 H155 H 1.04166 -0.07189 0.52719
 H156 H 0.94118 0.00535 0.52264
 H157 H 0.98846 -0.03290 0.34921
 H158 H 0.99867 -0.02123 0.64361
 C159 C 0.08585 0.30793 1.13675
 C160 C 0.09704 0.33509 1.10922
 C161 C 0.06842 0.35885 1.08397
 C162 C 0.07877 0.39135 1.06303
 H163 H 0.12733 0.33953 1.10445
 H164 H 0.03858 0.34934 1.08209
 H165 H 0.05546 0.30571 1.14253
 H166 H 0.10804 0.40243 1.06743
 C167 C -0.09790 0.69068 1.04915
 C168 C -0.07482 0.66293 1.06761
 C169 C -0.04646 0.64080 1.04241
 C170 C -0.02842 0.60749 1.05671
 H171 H -0.07677 0.65657 1.10110
 H172 H -0.04071 0.65168 1.01114
 H173 H -0.09681 0.69531 1.01516
 H174 H -0.03631 0.59487 1.08648
 C175 C -0.09693 0.31080 0.93664
 C176 C -0.07055 0.33699 0.92535
 C177 C -0.04669 0.35987 0.95782
 C178 C -0.02697 0.39239 0.94749
 H179 H -0.06617 0.34136 0.89186
 H180 H -0.04505 0.34982 0.99046
 H181 H -0.10278 0.30822 0.97003
 H182 H -0.03095 0.40399 0.91556
 C183 C 0.12327 0.67045 0.91028
 C184 C 0.12416 0.66839 0.95294
 C185 C 0.09793 0.64319 0.97606
 C186 C 0.08227 0.60841 0.96052
 H187 H 0.14208 0.68906 0.97252
 H188 H 0.09220 0.65366 1.00818
 H189 H 0.10342 0.65184 0.89057
 H190 H 0.09090 0.59536 0.93037
 C191 C 1.10223 0.04754 0.31224
 C192 C 1.07157 0.05551 0.33522
 C193 C 1.05132 0.02249 0.35489
 C194 C 1.02887 0.02998 0.38750
 H195 H 1.06157 0.08640 0.34039
 H196 H 1.05571 -0.00847 0.34337
 H197 H 1.11285 0.01656 0.30971
 H198 H 1.02703 0.06049 0.40118
 C199 C 1.10281 -0.11286 0.68155
 C200 C 1.10439 -0.07336 0.67272
 C201 C 1.07393 -0.05264 0.64678
 C202 C 1.05507 -0.07012 0.61273
 H203 H 1.12644 -0.05423 0.68821
 H204 H 1.06809 -0.02115 0.65521
 H205 H 1.07873 -0.13077 0.66843
 H206 H 1.06369 -0.10005 0.60139
 C207 C 0.86799 -0.10268 0.29872
 C208 C 0.90053 -0.11395 0.32014
 C209 C 0.92214 -0.08412 0.34766
 C210 C 0.94813 -0.09524 0.37815
 H211 H 0.91176 -0.14460 0.31694
 H212 H 0.91657 -0.05210 0.34287
 H213 H 0.85645 -0.07248 0.30477
 H214 H 0.95184 -0.12697 0.38558
 C215 C 0.92590 0.10130 0.68621
 C216 C 0.91704 0.06805 0.66223
 C217 C 0.94690 0.04565 0.63950
 C218 C 0.93750 0.01948 0.60730
 H219 H 0.88776 0.05692 0.65926
 H220 H 0.97697 0.05064 0.64920
 H221 H 0.95493 0.11311 0.68647
 H222 H 0.90766 0.01685 0.59555
 C223 C 0.33058 1.12436 0.11621
 C224 C 0.33749 1.14239 0.07977
 C225 C 0.36153 1.12324 0.04741
 C226 C 0.39334 1.10135 0.05699
 H227 H 0.32081 1.16885 0.07035
 H228 H 0.35227 1.12722 0.01423
 H229 H 0.34449 1.09569 0.12361
 H230 H 0.40505 1.10043 0.08969
 C231 C 0.67587 1.09646 -0.13209
 C232 C 0.65117 1.11121 -0.10426
 C233 C 0.62552 1.08377 -0.08332
 C234 C 0.59691 1.09787 -0.06008
 H235 H 0.65113 1.14322 -0.09530
 H236 H 0.63108 1.05137 -0.08565
 H237 H 0.67448 1.06476 -0.14228
 H238 H 0.58955 1.12990 -0.05995
 C239 C 0.31468 0.92532 -0.06964
 C240 C 0.33687 0.95353 -0.08524
 C241 C 0.35847 0.98180 -0.05588
 C242 C 0.38756 1.00387 -0.06854
 H243 H 0.33942 0.95555 -0.11939
 H244 H 0.35120 0.98356 -0.02268
 H245 H 0.31395 0.92250 -0.03535
 H246 H 0.39695 0.99978 -0.10079
 C247 C 0.67215 0.90993 0.03797
 C248 C 0.64534 0.93405 0.05455
 C249 C 0.62344 0.96276 0.02740
 C250 C 0.59352 0.98397 0.04164
 H251 H 0.64022 0.93345 0.08829
 H252 H 0.63235 0.96697 -0.00474
 H253 H 0.67598 0.90983 0.00390
 H254 H 0.58302 0.97775 0.07266
   
