data_POSCAR
  _audit_creation_date              2014-09-24
  _audit_creation_method            'ToBaCCo'
  _symmetry_space_group_name_H-M    'P1'
  _symmetry_Int_Tables_number       1
  _symmetry_cell_setting            triclinic
  loop_
  _symmetry_equiv_pos_as_xyz
 x,y,z
_cell_length_a 40.3346
_cell_length_b 43.6674
_cell_length_c 38.6934
_cell_angle_alpha 90.581100
_cell_angle_beta 89.397600
_cell_angle_gamma 89.738600
loop_
  _atom_site_label
  _atom_site_type_symbol
  _atom_site_fract_x
  _atom_site_fract_y
  _atom_site_fract_z
C1 C 0.22638 0.20084 0.22167
 C2 C 0.20932 0.18677 0.24876
 C3 C 0.18023 0.19985 0.26236
 C4 C 0.16848 0.22780 0.24959
 C5 C 0.18562 0.24241 0.22254
 C6 C 0.21459 0.22872 0.20829
 C7 C 0.25419 0.18664 0.20674
 C8 C 0.27011 0.19957 0.17817
 C9 C 0.25892 0.22752 0.16491
 C10 C 0.23114 0.24229 0.17993
 C11 C 0.21877 0.26968 0.16629
 C12 C 0.19009 0.28330 0.18047
 C13 C 0.17366 0.26978 0.20852
 H14 H 0.21811 0.16500 0.25851
 H15 H 0.14573 0.23771 0.26002
 H16 H 0.26275 0.16482 0.21661
 H17 H 0.27118 0.23728 0.14252
 H18 H 0.23091 0.28001 0.14418
 H19 H 0.15114 0.28020 0.21884
 C20 C -0.21921 0.81675 0.21524
 C21 C -0.20097 0.83228 0.24038
 C22 C -0.17032 0.82085 0.25097
 C23 C -0.15788 0.79332 0.23689
 C24 C -0.17604 0.77736 0.21168
 C25 C -0.20681 0.78920 0.20067
 C26 C -0.24914 0.82896 0.20365
 C27 C -0.26670 0.81421 0.17739
 C28 C -0.25479 0.78662 0.16297
 C29 C -0.22482 0.77395 0.17452
 C30 C -0.21199 0.74685 0.15974
 C31 C -0.18148 0.73512 0.17067
 C32 C -0.16364 0.75024 0.19660
 H33 H -0.21034 0.85371 0.25121
 H34 H -0.13400 0.78465 0.24508
 H35 H -0.25832 0.85047 0.21443
 H36 H -0.26838 0.77547 0.14236
 H37 H -0.22540 0.73514 0.13940
 H38 H -0.13990 0.74112 0.20460
 C39 C -0.20942 0.17796 -0.19506
 C40 C -0.19102 0.16473 -0.22214
 C41 C -0.16321 0.17959 -0.23559
 C42 C -0.15370 0.20820 -0.22227
 C43 C -0.17207 0.22191 -0.19505
 C44 C -0.20004 0.20664 -0.18131
 C45 C -0.23669 0.16261 -0.18109
 C46 C -0.25462 0.17544 -0.15339
 C47 C -0.24568 0.20402 -0.13964
 C48 C -0.21838 0.21977 -0.15351
 C49 C -0.20869 0.24811 -0.13971
 C50 C -0.18098 0.26325 -0.15324
 C51 C -0.16276 0.25027 -0.18085
 H52 H -0.19808 0.14255 -0.23255
 H53 H -0.13201 0.21951 -0.23279
 H54 H -0.24369 0.14040 -0.19149
 H55 H -0.25963 0.21376 -0.11802
 H56 H -0.22240 0.25823 -0.11817
 H57 H -0.14119 0.26208 -0.19093
 C58 C 0.21998 0.81181 -0.22631
 C59 C 0.20672 0.82680 -0.25481
 C60 C 0.18043 0.81384 -0.27307
 C61 C 0.16757 0.78535 -0.26334
 C62 C 0.18080 0.76990 -0.23486
 C63 C 0.20706 0.78327 -0.21616
 C64 C 0.24524 0.82543 -0.20713
 C65 C 0.25753 0.81105 -0.17777
 C66 C 0.24513 0.78257 -0.16766
 C67 C 0.21985 0.76854 -0.18675
 C68 C 0.20640 0.74053 -0.17636
 C69 C 0.18028 0.72736 -0.19476
 C70 C 0.16759 0.74187 -0.22399
 H71 H 0.21632 0.84900 -0.26226
 H72 H 0.14695 0.77558 -0.27739
 H73 H 0.25493 0.84757 -0.21458
 H74 H 0.25473 0.77171 -0.14473
 H75 H 0.21569 0.72931 -0.15350
 H76 H 0.14703 0.73168 -0.23773
 C77 C 0.18070 1.22366 0.77618
 C78 C 0.16675 1.20938 0.74726
 C79 C 0.18053 1.18226 0.73378
 C80 C 0.20880 1.16940 0.74892
 C81 C 0.22319 1.18352 0.77792
 C82 C 0.20900 1.21076 0.79168
 C83 C 0.16626 1.25022 0.79040
 C84 C 0.17961 1.26389 0.81999
 C85 C 0.20785 1.25136 0.83534
 C86 C 0.22266 1.22477 0.82135
 C87 C 0.25038 1.21154 0.83700
 C88 C 0.26442 1.18452 0.82348
 C89 C 0.25097 1.17060 0.79397
 H90 H 0.14476 1.21908 0.73560
 H91 H 0.21924 1.14826 0.73850
 H92 H 0.14424 1.25993 0.77881
 H93 H 0.21790 1.26195 0.85843
 H94 H 0.26076 1.22197 0.86001
 H95 H 0.26184 1.14953 0.78388
 C96 C 0.82984 0.78202 0.78237
 C97 C 0.84449 0.79598 0.75359
 C98 C 0.82994 0.82197 0.73907
 C99 C 0.80035 0.83404 0.75310
 C100 C 0.78529 0.82027 0.78192
 C101 C 0.80012 0.79415 0.79666
 C102 C 0.84476 0.75648 0.79753
 C103 C 0.83042 0.74308 0.82680
 C104 C 0.80084 0.75491 0.84093
 C105 C 0.78556 0.78045 0.82605
 C106 C 0.75637 0.79291 0.84045
 C107 C 0.74176 0.81889 0.82597
 C108 C 0.75609 0.83247 0.79674
 H109 H 0.86748 0.78686 0.74277
 H110 H 0.78930 0.85429 0.74189
 H111 H 0.86775 0.74727 0.78683
 H112 H 0.78996 0.74449 0.86370
 H113 H 0.74528 0.78274 0.86324
 H114 H 0.74476 0.85275 0.78591
 C115 C 0.17679 0.76976 1.21867
 C116 C 0.16187 0.78636 1.24587
 C117 C 0.17448 0.81483 1.25595
 C118 C 0.20245 0.82681 1.23910
 C119 C 0.21778 0.81043 1.21179
 C120 C 0.20484 0.78177 1.20145
 C121 C 0.16363 0.74167 1.20790
 C122 C 0.17798 0.72553 1.18005
 C123 C 0.20600 0.73723 1.16300
 C124 C 0.21959 0.76536 1.17353
 C125 C 0.24720 0.77769 1.15626
 C126 C 0.26003 0.80612 1.16653
 C127 C 0.24540 0.82237 1.19424
 H128 H 0.14011 0.77738 1.25893
 H129 H 0.21196 0.84897 1.24698
 H130 H 0.14176 0.73264 1.22076
 H131 H 0.21684 0.72475 1.14124
 H132 H 0.25855 0.76536 1.13470
 H133 H 0.25539 0.84441 1.20189
 C134 C 0.81444 1.21900 1.21547
 C135 C 0.82876 1.20566 1.24453
 C136 C 0.81497 1.17933 1.25903
 C137 C 0.78641 1.16627 1.24469
 C138 C 0.77169 1.17943 1.21555
 C139 C 0.78581 1.20591 1.20081
 C140 C 0.82870 1.24487 1.20040
 C141 C 0.81485 1.25771 1.17087
 C142 C 0.78632 1.24499 1.15629
 C143 C 0.77164 1.21904 1.17110
 C144 C 0.74346 1.20565 1.15642
 C145 C 0.72950 1.17935 1.17096
 C146 C 0.74351 1.16634 1.20047
 H147 H 0.85096 1.21554 1.25559
 H148 H 0.77595 1.14574 1.25591
 H149 H 0.85091 1.25481 1.21134
 H150 H 0.77590 1.25503 1.13327
 H151 H 0.73259 1.21541 1.13347
 H152 H 0.73267 1.14586 1.21138
 O153 O 0.52484 0.96299 0.93784
 O154 O 0.46706 0.96138 1.05844
 O155 O 0.57519 0.98006 1.03141
 O156 O 0.42235 0.98965 0.96409
 O157 O 0.52726 0.96741 1.05752
 O158 O 0.46224 0.96521 0.93767
 O159 O 0.43543 0.96128 1.01471
 O160 O 0.54238 0.95005 0.98962
 C161 C 0.54045 0.94473 0.95755
 C162 C 0.44463 0.94913 1.04157
 C163 C 0.55913 0.96712 1.05699
 C164 C 0.43199 0.96878 0.94383
 O165 O 0.46307 1.02694 0.93751
 O166 O 0.51735 1.02954 1.05932
 O167 O 0.56463 1.00064 0.96504
 O168 O 0.40976 1.01183 1.03036
 O169 O 0.45702 1.02361 1.05787
 O170 O 0.52563 1.02466 0.93815
 O171 O 0.44398 1.04064 0.98914
 O172 O 0.54966 1.02990 1.01545
 Co173 Co 0.49383 0.99495 0.94242
 Co174 Co 0.49221 0.99549 1.05280
 Co175 Co 0.54203 0.99011 1.00431
 Co176 Co 0.44365 1.00083 1.00376
 O177 O 0.49295 0.99531 0.99704
 C178 C 0.44736 1.04574 0.95723
 C179 C 0.54020 1.04178 1.04284
 C180 C 0.55571 1.02094 0.94441
 C181 C 0.42528 1.02553 1.05578
 O182 O 0.02640 0.47415 0.06422
 O183 O 0.02848 0.53000 -0.07200
 O184 O 0.01159 0.43685 -0.03618
 O185 O 0.04787 0.53656 0.03301
 O186 O 0.03247 0.47337 -0.06648
 O187 O 0.01249 0.52934 0.07166
 O188 O 0.05345 0.54564 -0.02638
 O189 O 0.04146 0.45290 0.01647
 C190 C 0.04699 0.45837 0.04730
 C191 C 0.05160 0.54423 -0.05820
 C192 C 0.03138 0.44574 -0.05892
 C193 C 0.04022 0.53892 0.06352
 O194 O -0.04669 0.52007 0.04652
 O195 O -0.03379 0.47099 -0.06329
 O196 O -0.01195 0.42362 0.02723
 O197 O -0.01017 0.56464 -0.03114
 O198 O -0.03452 0.52981 -0.06427
 O199 O -0.03804 0.46389 0.04904
 O200 O -0.01715 0.55956 0.03123
 O201 O -0.04451 0.45651 -0.01124
 Co202 Co -0.00981 0.49715 0.05187
 Co203 Co -0.00163 0.50069 -0.06054
 Co204 Co -0.00122 0.45718 0.00308
 Co205 Co 0.01723 0.54775 0.00189
 O206 O 0.00234 0.50240 -0.00384
 C207 C -0.04382 0.54836 0.04285
 C208 C -0.05198 0.45715 -0.04225
 C209 C -0.03219 0.43519 0.05072
 C210 C -0.03153 0.55700 -0.05353
 O211 O 1.05302 0.03440 0.45715
 O212 O 0.94096 0.03470 0.53260
 O213 O 0.98676 0.05087 0.44583
 O214 O 1.01569 0.03991 0.55523
 O215 O 0.93828 0.03695 0.46746
 O216 O 1.05661 0.03977 0.52003
 O217 O 0.96832 0.01049 0.57185
 O218 O 1.02601 0.02181 0.40854
 C219 C 1.05092 0.03518 0.42402
 C220 C 0.94787 0.03080 0.56369
 C221 C 0.95607 0.05564 0.45033
 C222 C 1.04152 0.05176 0.54478
 O223 O 1.05663 -0.02225 0.52893
 O224 O 0.93936 -0.02461 0.46518
 O225 O 1.01250 -0.02858 0.43489
 O226 O 0.99200 -0.04002 0.54674
 O227 O 0.94165 -0.02694 0.53027
 O228 O 1.05569 -0.02768 0.46602
 O229 O 1.03277 -0.01012 0.58005
 O230 O 0.96309 -0.00014 0.42324
 Co231 Co 1.05022 0.00602 0.49328
 Co232 Co 0.94450 0.00508 0.49866
 Co233 Co 1.00153 0.01103 0.44446
 Co234 Co 1.00542 0.00012 0.54675
 O235 O 0.99680 0.00553 0.49596
 C236 C 1.05694 -0.02302 0.56214
 C237 C 0.94401 -0.02080 0.43351
 C238 C 1.03922 -0.04010 0.44299
 C239 C 0.96128 -0.04541 0.54526
 C240 C 1.10185 0.09946 0.36931
 C241 C 1.13301 0.09318 0.35365
 C242 C 1.14882 0.11590 0.33337
 C243 C 1.13326 0.14474 0.32874
 C244 C 1.10233 0.15118 0.34483
 C245 C 1.08656 0.12847 0.36521
 C246 C 1.05549 0.13534 0.38087
 C247 C 1.04046 0.16382 0.37653
 C248 C 1.05590 0.18601 0.35659
 C249 C 1.08649 0.17989 0.34085
 C250 C 1.17997 0.10901 0.31785
 C251 C 1.19495 0.08050 0.32215
 C252 C 1.17941 0.05827 0.34190
 C253 C 1.14880 0.06441 0.35756
 C254 C 1.14865 0.16699 0.30610
 C255 C 1.16269 0.18364 0.28614
 C256 C 1.08508 0.07592 0.38895
 C257 C 1.07024 0.05681 0.40504
 H258 H 1.04249 0.11884 0.39662
 H259 H 1.01673 0.16868 0.38873
 H260 H 1.04411 0.20810 0.35330
 H261 H 1.09760 0.19786 0.32561
 H262 H 1.19311 0.12553 0.30228
 H263 H 1.21875 0.07565 0.31006
 H264 H 1.19112 0.03614 0.34513
 H265 H 1.13769 0.04638 0.37272
 C266 C 0.90388 -0.08058 0.36400
 C267 C 0.91547 -0.11125 0.36347
 C268 C 0.90182 -0.13277 0.33985
 C269 C 0.87666 -0.12346 0.31697
 C270 C 0.86549 -0.09262 0.31710
 C271 C 0.87916 -0.07112 0.34070
 C272 C 0.86765 -0.04044 0.34038
 C273 C 0.84333 -0.03124 0.31732
 C274 C 0.82992 -0.05226 0.29424
 C275 C 0.84074 -0.08262 0.29403
 C276 C 0.91375 -0.16330 0.33976
 C277 C 0.93848 -0.17233 0.36245
 C278 C 0.95177 -0.15130 0.38563
 C279 C 0.94054 -0.12109 0.38622
 C280 C 0.86160 -0.14545 0.29366
 C281 C 0.84750 -0.16226 0.27386
 C282 C 0.91740 -0.05880 0.38854
 C283 C 0.92907 -0.04108 0.40904
 H284 H 0.87734 -0.02324 0.35784
 H285 H 0.83488 -0.00768 0.31733
 H286 H 0.81105 -0.04501 0.27636
 H287 H 0.82956 -0.09805 0.27552
 H288 H 0.90414 -0.18043 0.32217
 H289 H 0.94736 -0.19576 0.36207
 H290 H 0.97083 -0.15842 0.40333
 H291 H 0.95172 -0.10558 0.40466
 C292 C 0.90941 0.08785 0.63833
 C293 C 0.92151 0.11818 0.64100
 C294 C 0.90844 0.13843 0.66678
 C295 C 0.88335 0.12821 0.68967
 C296 C 0.87156 0.09772 0.68726
 C297 C 0.88464 0.07749 0.66152
 C298 C 0.87250 0.04714 0.65960
 C299 C 0.84811 0.03705 0.68251
 C300 C 0.83527 0.05681 0.70768
 C301 C 0.84675 0.08680 0.71015
 C302 C 0.92090 0.16861 0.66900
 C303 C 0.94561 0.17854 0.64633
 C304 C 0.95833 0.15877 0.62106
 C305 C 0.94654 0.12892 0.61832
 C306 C 0.86907 0.14884 0.71550
 C307 C 0.85546 0.16421 0.73751
 C308 C 0.92250 0.06729 0.61182
 C309 C 0.93369 0.05038 0.58982
 H310 H 0.88173 0.03088 0.64048
 H311 H 0.83914 0.01377 0.68075
 H312 H 0.81633 0.04887 0.72543
 H313 H 0.83600 0.10122 0.73025
 H314 H 0.91173 0.18478 0.68825
 H315 H 0.95491 0.20169 0.64837
 H316 H 0.97738 0.16660 0.60340
 H317 H 0.95726 0.11440 0.59826
 C318 C 1.11108 -0.08704 0.61307
 C319 C 1.09691 -0.11656 0.61572
 C320 C 1.11192 -0.13893 0.63697
 C321 C 1.14105 -0.13166 0.65530
 C322 C 1.15596 -0.10253 0.65152
 C323 C 1.14086 -0.08012 0.63038
 C324 C 1.15585 -0.05100 0.62742
 C325 C 1.18503 -0.04423 0.64481
 C326 C 1.19988 -0.06616 0.66542
 C327 C 1.18563 -0.09500 0.66884
 C328 C 1.09706 -0.16812 0.63967
 C329 C 1.06819 -0.17504 0.62176
 C330 C 1.05355 -0.15319 0.60089
 C331 C 1.06759 -0.12424 0.59785
 C332 C 1.15466 -0.15321 0.67971
 C333 C 1.16639 -0.16964 0.70126
 C334 C 1.09386 -0.06342 0.59417
 C335 C 1.07802 -0.04438 0.57919
 H336 H 1.14524 -0.03324 0.61161
 H337 H 1.19619 -0.02185 0.64226
 H338 H 1.22258 -0.06080 0.67884
 H339 H 1.19816 -0.11129 0.68511
 H340 H 1.10765 -0.18588 0.65551
 H341 H 1.05715 -0.19749 0.62405
 H342 H 1.03123 -0.15867 0.58691
 H343 H 1.05529 -0.10805 0.58127
 C344 C 0.37606 1.09481 1.10620
 C345 C 0.36241 1.09165 1.13977
 C346 C 0.34322 1.11584 1.15464
 C347 C 0.33765 1.14298 1.13571
 C348 C 0.35235 1.14660 1.10268
 C349 C 0.37176 1.12248 1.08791
 C350 C 0.38625 1.12662 1.05481
 C351 C 0.38170 1.15381 1.03687
 C352 C 0.36247 1.17727 1.05122
 C353 C 0.34789 1.17384 1.08376
 C354 C 0.32963 1.11207 1.18822
 C355 C 0.33484 1.08518 1.20652
 C356 C 0.35358 1.06151 1.19192
 C357 C 0.36726 1.06457 1.15892
 C358 C 0.31495 1.16597 1.14951
 C359 C 0.29460 1.18306 1.16221
 C360 C 0.39363 1.06936 1.08996
 C361 C 0.40801 1.04871 1.07531
 H362 H 0.40131 1.10898 1.04250
 H363 H 0.39301 1.15661 1.01161
 H364 H 0.35887 1.19828 1.03709
 H365 H 0.33328 1.19277 1.09399
 H366 H 0.31500 1.12986 1.20078
 H367 H 0.32428 1.08271 1.23217
 H368 H 0.35757 1.04066 1.20623
 H369 H 0.38173 1.04556 1.14867
 C370 C 0.36868 0.90561 0.90358
 C371 C 0.37713 0.89121 0.87173
 C372 C 0.35565 0.86893 0.85730
 C373 C 0.32589 0.86125 0.87481
 C374 C 0.31811 0.87476 0.90731
 C375 C 0.33955 0.89711 0.92172
 C376 C 0.33111 0.91062 0.95406
 C377 C 0.30229 0.90222 0.97168
 C378 C 0.28139 0.88025 0.95765
 C379 C 0.28906 0.86662 0.92581
 C380 C 0.36444 0.85498 0.82528
 C381 C 0.39366 0.86280 0.80806
 C382 C 0.41470 0.88459 0.82220
 C383 C 0.40664 0.89872 0.85365
 C384 C 0.30210 0.84156 0.85789
 C385 C 0.28199 0.82668 0.84237
 C386 C 0.39020 0.92893 0.91771
 C387 C 0.40879 0.94774 0.92941
 H388 H 0.34671 0.92767 0.96610
 H389 H 0.29629 0.91266 0.99647
 H390 H 0.25915 0.87366 0.97154
 H391 H 0.27214 0.84955 0.91597
 H392 H 0.34896 0.83779 0.81332
 H393 H 0.40003 0.85186 0.78364
 H394 H 0.43738 0.89058 0.80874
 H395 H 0.42381 0.91553 0.86359
 C396 C 0.61222 0.90510 1.11199
 C397 C 0.62971 0.91336 1.14214
 C398 C 0.65219 0.89221 1.15693
 C399 C 0.65708 0.86299 1.14137
 C400 C 0.63839 0.85422 1.11221
 C401 C 0.61584 0.87535 1.09747
 C402 C 0.59774 0.86624 1.06797
 C403 C 0.60181 0.83709 1.05351
 C404 C 0.62389 0.81644 1.06796
 C405 C 0.64207 0.82479 1.09698
 C406 C 0.66977 0.90111 1.18687
 C407 C 0.66526 0.93008 1.20168
 C408 C 0.64330 0.95078 1.18713
 C409 C 0.62566 0.94265 1.15769
 C410 C 0.68313 0.84315 1.15388
 C411 C 0.70609 0.82843 1.16457
 C412 C 0.59237 0.92776 1.09445
 C413 C 0.57677 0.94621 1.07835
 H414 H 0.58020 0.88148 1.05587
 H415 H 0.58774 0.83049 1.03097
 H416 H 0.62695 0.79381 1.05664
 H417 H 0.65890 0.80795 1.10740
 H418 H 0.68705 0.88579 1.19920
 H419 H 0.67889 0.93649 1.22458
 H420 H 0.63990 0.97325 1.19873
 H421 H 0.60878 0.95948 1.14734
 C422 C 0.62445 1.07998 0.90597
 C423 C 0.62266 1.11106 0.91666
 C424 C 0.64722 1.13202 0.90535
 C425 C 0.67326 1.12174 0.88332
 C426 C 0.67490 1.09067 0.87244
 C427 C 0.65037 1.06973 0.88379
 C428 C 0.65243 1.03880 0.87260
 C429 C 0.67809 1.02882 0.85083
 C430 C 0.70217 1.04927 0.83976
 C431 C 0.70072 1.07985 0.85033
 C432 C 0.64507 1.16294 0.91648
 C433 C 0.61921 1.17292 0.93803
 C434 C 0.59504 1.15246 0.94889
 C435 C 0.59670 1.12184 0.93855
 C436 C 0.69837 1.14290 0.87149
 C437 C 0.72003 1.15911 0.86049
 C438 C 0.60003 1.05847 0.91848
 C439 C 0.57979 1.04095 0.92970
 H440 H 0.63424 1.02205 0.88047
 H441 H 0.67929 1.00509 0.84250
 H442 H 0.72207 1.04141 0.82286
 H443 H 0.72004 1.09485 0.84099
 H444 H 0.66328 1.17969 0.90861
 H445 H 0.61787 1.19667 0.94626
 H446 H 0.57483 1.16032 0.96535
 H447 H 0.57734 1.10681 0.94776
 C448 C 0.10951 0.40248 0.09909
 C449 C 0.09240 0.37658 0.11189
 C450 C 0.11000 0.35334 0.12953
 C451 C 0.14466 0.35597 0.13416
 C452 C 0.16168 0.38204 0.12180
 C453 C 0.14402 0.40539 0.10424
 C454 C 0.16152 0.43118 0.09206
 C455 C 0.19555 0.43387 0.09709
 C456 C 0.21283 0.41105 0.11421
 C457 C 0.19621 0.38535 0.12646
 C458 C 0.09232 0.32769 0.14204
 C459 C 0.05829 0.32499 0.13710
 C460 C 0.04111 0.34761 0.11967
 C461 C 0.05777 0.37317 0.10726
 C462 C 0.16253 0.33134 0.15091
 C463 C 0.17586 0.30990 0.16456
 C464 C 0.09111 0.42541 0.08014
 C465 C 0.07277 0.44218 0.06470
 H466 H 0.14907 0.44949 0.07863
 H467 H 0.20859 0.45378 0.08765
 H468 H 0.23926 0.41326 0.11803
 H469 H 0.21066 0.36820 0.13964
 H470 H 0.10454 0.30943 0.15576
 H471 H 0.04521 0.30521 0.14679
 H472 H 0.01472 0.34532 0.11568
 H473 H 0.04314 0.39013 0.09399
 C474 C -0.11839 0.39470 -0.07773
 C475 C -0.12088 0.36728 -0.05865
 C476 C -0.13645 0.34123 -0.07347
 C477 C -0.14917 0.34267 -0.10740
 C478 C -0.14838 0.37060 -0.12565
 C479 C -0.13297 0.39672 -0.11073
 C480 C -0.13202 0.42427 -0.12963
 C481 C -0.14599 0.42600 -0.16234
 C482 C -0.16106 0.40046 -0.17695
 C483 C -0.16227 0.37299 -0.15894
 C484 C -0.13841 0.31400 -0.05402
 C485 C -0.12516 0.31250 -0.02096
 C486 C -0.10959 0.33787 -0.00662
 C487 C -0.10745 0.36503 -0.02510
 C488 C -0.16125 0.31501 -0.12411
 C489 C -0.17047 0.29163 -0.13770
 C490 C -0.09763 0.41933 -0.06500
 C491 C -0.07810 0.43795 -0.05454
 H492 H -0.12067 0.44475 -0.11922
 H493 H -0.14514 0.44728 -0.17643
 H494 H -0.17188 0.40192 -0.20236
 H495 H -0.17432 0.35375 -0.17130
 H496 H -0.15025 0.29364 -0.06410
 H497 H -0.12690 0.29151 -0.00642
 H498 H -0.09923 0.33655 0.01902
 H499 H -0.09535 0.38423 -0.01272
 C500 C 0.10385 0.60433 -0.11687
 C501 C 0.13660 0.60040 -0.12963
 C502 C 0.15222 0.62446 -0.14809
 C503 C 0.13494 0.65225 -0.15365
 C504 C 0.10181 0.65581 -0.14180
 C505 C 0.08625 0.63184 -0.12324
 C506 C 0.05326 0.63619 -0.11110
 C507 C 0.03623 0.66341 -0.11710
 C508 C 0.05136 0.68673 -0.13552
 C509 C 0.08376 0.68312 -0.14778
 C510 C 0.18508 0.62014 -0.16037
 C511 C 0.20202 0.59278 -0.15464
 C512 C 0.18672 0.56927 -0.13660
 C513 C 0.15438 0.57292 -0.12415
 C514 C 0.15163 0.67788 -0.16976
 C515 C 0.16494 0.70003 -0.18189
 C516 C 0.08812 0.58068 -0.09646
 C517 C 0.07287 0.56278 -0.07904
 H518 H 0.04025 0.61868 -0.09684
 H519 H 0.01112 0.66639 -0.10746
 H520 H 0.03795 0.70777 -0.14029
 H521 H 0.09444 0.70194 -0.16199
 H522 H 0.19795 0.63776 -0.17461
 H523 H 0.22714 0.58982 -0.16426
 H524 H 0.19999 0.54807 -0.13222
 H525 H 0.14346 0.55401 -0.11027
 C526 C -0.10437 0.61105 0.09041
 C527 C -0.08802 0.62871 0.11597
 C528 C -0.10499 0.65326 0.13293
 C529 C -0.13828 0.65997 0.12439
 C530 C -0.15499 0.64164 0.09976
 C531 C -0.13799 0.61706 0.08276
 C532 C -0.15521 0.59895 0.05841
 C533 C -0.18841 0.60483 0.05119
 C534 C -0.20496 0.62900 0.06757
 C535 C -0.18854 0.64732 0.09156
 C536 C -0.08804 0.67070 0.15820
 C537 C -0.05538 0.66388 0.16672
 C538 C -0.03886 0.63972 0.15036
 C539 C -0.05477 0.62238 0.12513
 C540 C -0.15489 0.68605 0.14063
 C541 C -0.16757 0.70819 0.15429
 C542 C -0.08595 0.58739 0.07171
 C543 C -0.06820 0.56879 0.05747
 H544 H -0.14329 0.57999 0.04492
 H545 H -0.20132 0.59062 0.03266
 H546 H -0.23069 0.63356 0.06171
 H547 H -0.20246 0.66580 0.10375
 H548 H -0.09986 0.68965 0.17179
 H549 H -0.04285 0.67736 0.18621
 H550 H -0.01356 0.63438 0.15724
 H551 H -0.04076 0.60387 0.11314
 C552 C 1.09302 0.11005 0.60617
 C553 C 1.12084 0.09511 0.62069
 C554 C 1.14030 0.11047 0.64583
 C555 C 1.13191 0.14067 0.65633
 C556 C 1.10460 0.15587 0.64122
 C557 C 1.08509 0.14050 0.61606
 C558 C 1.05783 0.15603 0.60153
 C559 C 1.05008 0.18601 0.61146
 C560 C 1.06908 0.20104 0.63608
 C561 C 1.09604 0.18625 0.65090
 C562 C 1.16773 0.09496 0.66020
 C563 C 1.17574 0.06511 0.65003
 C564 C 1.15675 0.05006 0.62546
 C565 C 1.12962 0.06475 0.61088
 C566 C 1.15053 0.15560 0.68364
 C567 C 1.16523 0.16793 0.70691
 C568 C 1.07213 0.09314 0.58237
 C569 C 1.05661 0.07609 0.56400
 H570 H 1.04235 0.14521 0.58230
 H571 H 1.02927 0.19769 0.59997
 H572 H 1.06292 0.22431 0.64373
 H573 H 1.11011 0.19891 0.66990
 H574 H 1.18330 0.10573 0.67937
 H575 H 1.19680 0.05360 0.66128
 H576 H 1.16307 0.02688 0.61762
 H577 H 1.11572 0.05201 0.59184
 C578 C 0.91336 -0.10407 0.60937
 C579 C 0.88563 -0.08991 0.62590
 C580 C 0.86755 -0.10582 0.65176
 C581 C 0.87720 -0.13584 0.66096
 C582 C 0.90453 -0.15020 0.64400
 C583 C 0.92268 -0.13425 0.61814
 C584 C 0.95003 -0.14895 0.60178
 C585 C 0.95916 -0.17866 0.61062
 C586 C 0.94146 -0.19426 0.63588
 C587 C 0.91444 -0.18030 0.65248
 C588 C 0.84017 -0.09106 0.66813
 C589 C 0.83091 -0.06142 0.65921
 C590 C 0.84852 -0.04586 0.63389
 C591 C 0.87557 -0.05980 0.61736
 C592 C 0.85965 -0.15143 0.68862
 C593 C 0.84538 -0.16396 0.71208
 C594 C 0.93271 -0.08667 0.58456
 C595 C 0.94709 -0.06949 0.56540
 H596 H 0.96452 -0.13768 0.58198
 H597 H 0.98005 -0.18968 0.59777
 H598 H 0.94868 -0.21732 0.64265
 H599 H 0.90141 -0.19337 0.67194
 H600 H 0.82563 -0.10224 0.68795
 H601 H 0.80993 -0.05048 0.67199
 H602 H 0.84121 -0.02286 0.62697
 H603 H 0.88839 -0.04667 0.59783
 C604 C 1.08710 -0.10161 0.38041
 C605 C 1.07886 -0.13255 0.37380
 C606 C 1.09759 -0.14997 0.34912
 C607 C 1.12444 -0.13630 0.33118
 C608 C 1.13289 -0.10543 0.33805
 C609 C 1.11419 -0.08803 0.36270
 C610 C 1.12305 -0.05709 0.36887
 C611 C 1.14950 -0.04377 0.35121
 C612 C 1.16775 -0.06082 0.32715
 C613 C 1.15968 -0.09129 0.32055
 C614 C 1.08879 -0.18084 0.34285
 C615 C 1.06231 -0.19415 0.36047
 C616 C 1.04405 -0.17714 0.38460
 C617 C 1.05206 -0.14664 0.39125
 C618 C 1.14282 -0.15366 0.30500
 C619 C 1.15769 -0.16791 0.28285
 C620 C 1.06758 -0.08305 0.40456
 C621 C 1.05319 -0.06504 0.42327
 H622 H 1.10970 -0.04281 0.38736
 H623 H 1.15585 -0.02008 0.35624
 H624 H 1.18828 -0.05037 0.31349
 H625 H 1.17465 -0.10361 0.30161
 H626 H 1.10228 -0.19501 0.32434
 H627 H 1.05594 -0.21782 0.35540
 H628 H 1.02361 -0.18768 0.39828
 H629 H 1.03714 -0.13426 0.41020
 C630 C 0.90229 0.11133 0.38860
 C631 C 0.90930 0.14183 0.37908
 C632 C 0.88976 0.15643 0.35359
 C633 C 0.86340 0.14040 0.33772
 C634 C 0.85587 0.11017 0.34791
 C635 C 0.87532 0.09559 0.37342
 C636 C 0.86741 0.06520 0.38292
 C637 C 0.84112 0.04972 0.36768
 C638 C 0.82216 0.06399 0.34271
 C639 C 0.82931 0.09386 0.33285
 C640 C 0.89737 0.18689 0.34434
 C641 C 0.92347 0.20248 0.35986
 C642 C 0.94253 0.18818 0.38476
 C643 C 0.93569 0.15815 0.39431
 C644 C 0.84495 0.15447 0.30993
 C645 C 0.83033 0.16600 0.28629
 C646 C 0.92345 0.09518 0.41259
 C647 C 0.93959 0.07892 0.43104
 H648 H 0.88134 0.05306 0.40225
 H649 H 0.83543 0.02654 0.37532
 H650 H 0.80177 0.05186 0.33092
 H651 H 0.81377 0.10401 0.31338
 H652 H 0.88320 0.19899 0.32516
 H653 H 0.92890 0.22580 0.35252
 H654 H 0.96271 0.20044 0.39676
 H655 H 0.95118 0.14793 0.41379
 C656 C 0.09020 0.38196 -0.10757
 C657 C 0.12413 0.37920 -0.09906
 C658 C 0.14375 0.35549 -0.11439
 C659 C 0.12929 0.33475 -0.13812
 C660 C 0.09547 0.33781 -0.14703
 C661 C 0.07586 0.36150 -0.13170
 C662 C 0.04206 0.36401 -0.14082
 C663 C 0.02803 0.34369 -0.16444
 C664 C 0.04721 0.32052 -0.17945
 C665 C 0.08054 0.31750 -0.17096
 C666 C 0.17756 0.35303 -0.10538
 C667 C 0.19161 0.37345 -0.08186
 C668 C 0.17243 0.39664 -0.06686
 C669 C 0.13906 0.39959 -0.07525
 C670 C 0.14880 0.30980 -0.15287
 C671 C 0.16392 0.28851 -0.16541
 C672 C 0.06974 0.40521 -0.09078
 C673 C 0.05236 0.42402 -0.07648
 H674 H 0.02612 0.38167 -0.12987
 H675 H 0.00215 0.34594 -0.17112
 H676 H 0.03620 0.30478 -0.19779
 H677 H 0.09442 0.29912 -0.18337
 H678 H 0.19347 0.33537 -0.11640
 H679 H 0.21752 0.37126 -0.07526
 H680 H 0.18347 0.41244 -0.04862
 H681 H 0.12515 0.41801 -0.06294
 C682 C -0.09368 0.37573 0.10050
 C683 C -0.08247 0.35911 0.12935
 C684 C -0.10264 0.33575 0.14368
 C685 C -0.13387 0.32914 0.12900
 C686 C -0.14535 0.34617 0.10055
 C687 C -0.12529 0.36972 0.08643
 C688 C -0.13734 0.38660 0.05813
 C689 C -0.16813 0.38010 0.04385
 C690 C -0.18760 0.35687 0.05745
 C691 C -0.17650 0.34007 0.08555
 C692 C -0.09076 0.31927 0.17240
 C693 C -0.05987 0.32567 0.18648
 C694 C -0.04017 0.34853 0.17246
 C695 C -0.05124 0.36515 0.14424
 C696 C -0.15367 0.30437 0.14286
 C697 C -0.16887 0.28333 0.15512
 C698 C -0.07196 0.39774 0.08411
 C699 C -0.05372 0.41528 0.06956
 H700 H -0.12308 0.40487 0.04664
 H701 H -0.17685 0.39309 0.02204
 H702 H -0.21146 0.35187 0.04623
 H703 H -0.19257 0.32230 0.09535
 H704 H -0.10517 0.30130 0.18427
 H705 H -0.05118 0.31282 0.20841
 H706 H -0.01618 0.35341 0.18347
 H707 H -0.03507 0.38278 0.13430
 C708 C -0.08656 0.62473 -0.09739
 C709 C -0.11757 0.63427 -0.08350
 C710 C -0.13535 0.65848 -0.09929
 C711 C -0.12196 0.67300 -0.12882
 C712 C -0.09098 0.66339 -0.14278
 C713 C -0.07326 0.63913 -0.12705
 C714 C -0.04236 0.62987 -0.14151
 C715 C -0.02930 0.64423 -0.17059
 C716 C -0.04657 0.66805 -0.18587
 C717 C -0.07708 0.67759 -0.17227
 C718 C -0.16629 0.66767 -0.08494
 C719 C -0.17932 0.65329 -0.05586
 C720 C -0.16195 0.62959 -0.04048
 C721 C -0.13139 0.62012 -0.05397
 C722 C -0.13980 0.69803 -0.14467
 C723 C -0.15410 0.71905 -0.15799
 C724 C -0.06806 0.60036 -0.08108
 C725 C -0.05190 0.58037 -0.06810
 H726 H -0.02790 0.61153 -0.13049
 H727 H -0.00559 0.63692 -0.18121
 H728 H -0.03628 0.67919 -0.20840
 H729 H -0.08959 0.69618 -0.18513
 H730 H -0.18073 0.68598 -0.09604
 H731 H -0.20305 0.66056 -0.04523
 H732 H -0.17223 0.61844 -0.01802
 H733 H -0.11880 0.60159 -0.04107
 C734 C 0.09220 0.60155 0.11939
 C735 C 0.12425 0.59637 0.13274
 C736 C 0.14287 0.62132 0.14613
 C737 C 0.12927 0.65127 0.14611
 C738 C 0.09681 0.65630 0.13365
 C739 C 0.07825 0.63138 0.12022
 C740 C 0.04603 0.63708 0.10744
 C741 C 0.03258 0.66652 0.10792
 C742 C 0.05065 0.69085 0.12123
 C743 C 0.08239 0.68594 0.13398
 C744 C 0.17497 0.61564 0.15903
 C745 C 0.18832 0.58613 0.15874
 C746 C 0.17011 0.56174 0.14566
 C747 C 0.13842 0.56668 0.13275
 C748 C 0.14852 0.67711 0.15845
 C749 C 0.16316 0.69945 0.16852
 C750 C 0.07444 0.57699 0.10224
 C751 C 0.05908 0.55833 0.08587
 H752 H 0.03084 0.61889 0.09706
 H753 H 0.00793 0.67045 0.09803
 H754 H 0.04004 0.71367 0.12166
 H755 H 0.09544 0.70564 0.14404
 H756 H 0.19004 0.63390 0.16947
 H757 H 0.21292 0.58217 0.16872
 H758 H 0.18058 0.53887 0.14551
 H759 H 0.12513 0.54701 0.12291
 C760 C 0.38963 1.11064 0.91188
 C761 C 0.39545 1.11928 0.87718
 C762 C 0.37085 1.13595 0.85907
 C763 C 0.34061 1.14399 0.87581
 C764 C 0.33553 1.13673 0.91107
 C765 C 0.36005 1.11993 0.92911
 C766 C 0.35410 1.11238 0.96412
 C767 C 0.32489 1.12141 0.98094
 C768 C 0.30101 1.13800 0.96338
 C769 C 0.30610 1.14558 0.92883
 C770 C 0.37705 1.14391 0.82425
 C771 C 0.40674 1.13572 0.80780
 C772 C 0.43079 1.11944 0.82551
 C773 C 0.42532 1.11122 0.85980
 C774 C 0.31424 1.15866 0.85656
 C775 C 0.29182 1.17047 0.84105
 C776 C 0.41232 1.08972 0.92871
 C777 C 0.42951 1.07066 0.94215
 H778 H 0.37203 1.09967 0.97892
 H779 H 0.32082 1.11557 1.00778
 H780 H 0.27839 1.14501 0.97659
 H781 H 0.28679 1.15851 0.91628
 H782 H 0.35911 1.15662 0.80944
 H783 H 0.41112 1.14205 0.78117
 H784 H 0.45381 1.11316 0.81262
 H785 H 0.44479 1.09866 0.87258
 C786 C 0.38913 0.88068 1.08353
 C787 C 0.36701 0.86301 1.06344
 C788 C 0.34177 0.84557 1.07996
 C789 C 0.33893 0.84578 1.11650
 C790 C 0.36234 0.86197 1.13659
 C791 C 0.38750 0.87944 1.12007
 C792 C 0.41030 0.89576 1.14075
 C793 C 0.40836 0.89484 1.17670
 C794 C 0.38377 0.87780 1.19284
 C795 C 0.36095 0.86153 1.17316
 C796 C 0.31960 0.82856 1.05928
 C797 C 0.32250 0.82846 1.02334
 C798 C 0.34734 0.84527 1.00725
 C799 C 0.36925 0.86259 1.02693
 C800 C 0.31117 0.83067 1.13350
 C801 C 0.28795 0.81907 1.14829
 C802 C 0.41104 0.90264 1.06701
 C803 C 0.42759 0.92278 1.05457
 H804 H 0.42998 0.90922 1.12937
 H805 H 0.42606 0.90741 1.19210
 H806 H 0.38236 0.87716 1.22078
 H807 H 0.34234 0.84853 1.18692
 H808 H 0.29999 0.81502 1.07067
 H809 H 0.30540 0.81525 1.00788
 H810 H 0.34956 0.84500 0.97934
 H811 H 0.38813 0.87539 1.01329
 C812 C 0.60021 1.10325 1.09080
 C813 C 0.60846 1.13311 1.07985
 C814 C 0.63393 1.14969 1.09695
 C815 C 0.65100 1.13631 1.12488
 C816 C 0.64220 1.10672 1.13633
 C817 C 0.61678 1.09015 1.11928
 C818 C 0.60876 1.06043 1.13104
 C819 C 0.62536 1.04747 1.15874
 C820 C 0.65017 1.06369 1.17541
 C821 C 0.65858 1.09298 1.16447
 C822 C 0.64192 1.17941 1.08536
 C823 C 0.62517 1.19245 1.05780
 C824 C 0.60024 1.17629 1.04120
 C825 C 0.59196 1.14688 1.05189
 C826 C 0.67830 1.15241 1.14122
 C827 C 0.70141 1.16500 1.15483
 C828 C 0.57632 1.08486 1.07190
 C829 C 0.55834 1.06683 1.05758
 H830 H 0.58959 1.04686 1.11907
 H831 H 0.61891 1.02472 1.16731
 H832 H 0.66298 1.05354 1.19694
 H833 H 0.67803 1.10468 1.17832
 H834 H 0.66109 1.19288 1.09752
 H835 H 0.63153 1.21525 1.04932
 H836 H 0.58722 1.18667 1.01997
 H837 H 0.57243 1.13513 1.03818
 C838 C 0.60900 0.88956 0.91035
 C839 C 0.60666 0.85804 0.90201
 C840 C 0.63321 0.84301 0.88408
 C841 C 0.66193 0.85964 0.87457
 C842 C 0.66428 0.89119 0.88300
 C843 C 0.63783 0.90615 0.90102
 C844 C 0.64098 0.93769 0.90938
 C845 C 0.66935 0.95389 0.90021
 C846 C 0.69508 0.93930 0.88241
 C847 C 0.69273 0.90833 0.87383
 C848 C 0.63031 0.81146 0.87609
 C849 C 0.60201 0.79521 0.88551
 C850 C 0.57609 0.80991 0.90300
 C851 C 0.57825 0.84098 0.91122
 C852 C 0.68941 0.84441 0.85671
 C853 C 0.71293 0.83251 0.84234
 C854 C 0.58193 0.90554 0.92803
 C855 C 0.56139 0.92166 0.94209
 H856 H 0.62169 0.95019 0.92318
 H857 H 0.67138 0.97791 0.90702
 H858 H 0.71703 0.95203 0.87524
 H859 H 0.71346 0.89802 0.86000
 H860 H 0.64983 0.79906 0.86250
 H861 H 0.60019 0.77108 0.87920
 H862 H 0.55418 0.79717 0.91026
 H863 H 0.55750 0.85147 0.92488
   
