data_POSCAR
  _audit_creation_date              2014-09-24
  _audit_creation_method            'ToBaCCo'
  _symmetry_space_group_name_H-M    'P1'
  _symmetry_Int_Tables_number       1
  _symmetry_cell_setting            triclinic
  loop_
  _symmetry_equiv_pos_as_xyz
 x,y,z
_cell_length_a 26.0566
_cell_length_b 26.0289
_cell_length_c 26.0919
_cell_angle_alpha 89.989500
_cell_angle_beta 89.912100
_cell_angle_gamma 90.049900
loop_
  _atom_site_label
  _atom_site_type_symbol
  _atom_site_fract_x
  _atom_site_fract_y
  _atom_site_fract_z
C1 C 0.38911 0.32263 0.32339
 C2 C 0.36705 0.36687 0.30186
 C3 C 0.32284 0.38904 0.32337
 C4 C 0.30134 0.36704 0.36767
 C5 C 0.32284 0.32280 0.38980
 C6 C 0.36705 0.30122 0.36769
 H7 H 0.38321 0.38296 0.26711
 H8 H 0.26664 0.38325 0.38384
 H9 H 0.38321 0.26651 0.38388
 C10 C 0.38959 0.82275 -0.17889
 C11 C 0.36710 0.86698 -0.20045
 C12 C 0.32247 0.88894 -0.17914
 C13 C 0.30144 0.86688 -0.13453
 C14 C 0.32330 0.82294 -0.11225
 C15 C 0.36760 0.80156 -0.13429
 H16 H 0.38328 0.88325 -0.23515
 H17 H 0.26673 0.88277 -0.11801
 H18 H 0.38387 0.76713 -0.11759
 C19 C 0.88812 0.32350 -0.17789
 C20 C 0.86612 0.30218 -0.13358
 C21 C 0.82200 0.32374 -0.11140
 C22 C 0.80043 0.36798 -0.13349
 C23 C 0.82168 0.39008 -0.17807
 C24 C 0.86608 0.36776 -0.19947
 H25 H 0.88231 0.26749 -0.11736
 H26 H 0.76585 0.38406 -0.11691
 H27 H 0.88253 0.38366 -0.23420
 C28 C 0.88884 0.82381 0.32247
 C29 C 0.86645 0.86775 0.30063
 C30 C 0.82184 0.88979 0.32184
 C31 C 0.80077 0.86785 0.36654
 C32 C 0.82265 0.82391 0.38892
 C33 C 0.86695 0.80252 0.36688
 H34 H 0.88279 0.88360 0.26584
 H35 H 0.76605 0.88377 0.38299
 H36 H 0.88339 0.76804 0.38329
 C37 C 0.61104 0.67764 0.32344
 C38 C 0.63301 0.63325 0.30210
 C39 C 0.67708 0.61103 0.32368
 C40 C 0.69850 0.63309 0.36791
 C41 C 0.67707 0.67747 0.38990
 C42 C 0.63300 0.69913 0.36767
 H43 H 0.61692 0.61709 0.26741
 H44 H 0.73310 0.61681 0.38413
 H45 H 0.61692 0.73397 0.38371
 C46 C 0.61106 0.17630 -0.17747
 C47 C 0.63291 0.19767 -0.13315
 C48 C 0.67728 0.17642 -0.11127
 C49 C 0.69926 0.13253 -0.13366
 C50 C 0.67825 0.11052 -0.17828
 C51 C 0.63359 0.13243 -0.19937
 H52 H 0.61640 0.23212 -0.11670
 H53 H 0.73402 0.11670 -0.11731
 H54 H 0.61729 0.11653 -0.23411
 C55 C 0.11152 0.67667 -0.17770
 C56 C 0.13359 0.69806 -0.13350
 C57 C 0.17767 0.67642 -0.11142
 C58 C 0.19911 0.63209 -0.13348
 C59 C 0.17784 0.61000 -0.17795
 C60 C 0.13348 0.63234 -0.19925
 H61 H 0.11750 0.73284 -0.11733
 H62 H 0.23366 0.61596 -0.11698
 H63 H 0.11701 0.61640 -0.23388
 C64 C 0.11083 0.17713 0.32282
 C65 C 0.13310 0.13303 0.30119
 C66 C 0.17726 0.11092 0.32268
 C67 C 0.19849 0.13278 0.36709
 C68 C 0.17678 0.17687 0.38935
 C69 C 0.13263 0.19844 0.36723
 H70 H 0.11715 0.11702 0.26636
 H71 H 0.23314 0.11657 0.38326
 H72 H 0.11632 0.23306 0.38351
 C73 C 0.61073 0.32273 0.67712
 C74 C 0.63286 0.36698 0.69865
 C75 C 0.67722 0.38905 0.67724
 C76 C 0.69880 0.36692 0.63307
 C77 C 0.67726 0.32266 0.61096
 C78 C 0.63290 0.30120 0.63295
 H79 H 0.61663 0.38316 0.73331
 H80 H 0.73361 0.38306 0.61697
 H81 H 0.61669 0.26648 0.61677
 C82 C 0.61090 0.82268 1.17857
 C83 C 0.63291 0.80163 1.13394
 C84 C 0.67706 0.82332 1.11179
 C85 C 0.69881 0.86735 1.13408
 C86 C 0.67775 0.88925 1.17874
 C87 C 0.63323 0.86704 1.20008
 H88 H 0.61674 0.76711 1.11727
 H89 H 0.73342 0.88346 1.11752
 H90 H 0.61703 0.88322 1.23479
 C91 C 0.10987 0.32190 1.17796
 C92 C 0.13191 0.30065 1.13341
 C93 C 0.17613 0.32224 1.11123
 C94 C 0.19774 0.36644 1.13330
 C95 C 0.17638 0.38851 1.17757
 C96 C 0.13214 0.36639 1.19923
 H97 H 0.11580 0.26602 1.11692
 H98 H 0.23243 0.38265 1.11702
 H99 H 0.11622 0.38286 1.23391
 C100 C 0.11082 0.82228 0.67829
 C101 C 0.13318 0.86662 0.69980
 C102 C 0.17771 0.88879 0.67849
 C103 C 0.19880 0.86687 0.63386
 C104 C 0.17706 0.82283 0.61158
 C105 C 0.13284 0.80119 0.63368
 H106 H 0.11695 0.88282 0.73448
 H107 H 0.23346 0.88295 0.61736
 H108 H 0.11666 0.76666 0.61704
 C109 C 0.38920 0.67741 0.67719
 C110 C 0.36697 0.63320 0.69879
 C111 C 0.32278 0.61101 0.67729
 C112 C 0.30149 0.63296 0.63295
 C113 C 0.32313 0.67716 0.61077
 C114 C 0.36731 0.69876 0.63285
 H115 H 0.38296 0.61716 0.73358
 H116 H 0.26681 0.61673 0.61679
 H117 H 0.38357 0.73346 0.61662
 C118 C 0.38864 0.17647 1.17710
 C119 C 0.36655 0.19798 1.13297
 C120 C 0.32233 0.17639 1.11096
 C121 C 0.30076 0.13213 1.13309
 C122 C 0.32203 0.11002 1.17752
 C123 C 0.36654 0.13219 1.19867
 H124 H 0.38275 0.23272 1.11677
 H125 H 0.26611 0.11605 1.11669
 H126 H 0.38304 0.11615 1.23324
 C127 C 0.88921 0.67748 1.17669
 C128 C 0.86717 0.69900 1.13252
 C129 C 0.82289 0.67750 1.11054
 C130 C 0.80129 0.63325 1.13268
 C131 C 0.82276 0.61115 1.17685
 C132 C 0.86705 0.63322 1.19822
 H133 H 0.88341 0.73374 1.11634
 H134 H 0.76653 0.61709 1.11661
 H135 H 0.88320 0.61703 1.23286
 C136 C 0.88948 0.17750 0.67835
 C137 C 0.86713 0.13311 0.69985
 C138 C 0.82270 0.11089 0.67853
 C139 C 0.80173 0.13279 0.63390
 C140 C 0.82348 0.17686 0.61161
 C141 C 0.86760 0.19855 0.63372
 H142 H 0.88326 0.11693 0.73454
 H143 H 0.76715 0.11667 0.61739
 H144 H 0.88377 0.23312 0.61707
 C145 C 0.32227 0.38904 0.67786
 C146 C 0.36651 0.36693 0.69928
 C147 C 0.38864 0.32269 0.67771
 C148 C 0.36656 0.30120 0.63353
 C149 C 0.32232 0.32269 0.61155
 C150 C 0.30079 0.36694 0.63368
 H151 H 0.38268 0.38310 0.73394
 H152 H 0.38276 0.26651 0.61730
 H153 H 0.26609 0.38311 0.61756
 C154 C 0.32397 0.88987 0.17575
 C155 C 0.30247 0.86762 0.13167
 C156 C 0.32406 0.82337 0.10962
 C157 C 0.36840 0.80202 0.13161
 C158 C 0.39048 0.82373 0.17570
 C159 C 0.36831 0.86799 0.19711
 H160 H 0.26767 0.88365 0.11561
 H161 H 0.38462 0.76727 0.11552
 H162 H 0.38447 0.88430 0.23171
 C163 C 0.82292 0.38936 0.17670
 C164 C 0.86730 0.36742 0.19794
 C165 C 0.88947 0.32324 0.17635
 C166 C 0.86733 0.30168 0.13223
 C167 C 0.82295 0.32306 0.11037
 C168 C 0.80136 0.36723 0.13258
 H169 H 0.88352 0.38363 0.23256
 H170 H 0.88357 0.26700 0.11599
 H171 H 0.76654 0.38330 0.11661
 C172 C 0.82386 0.89063 0.67709
 C173 C 0.86816 0.86856 0.69844
 C174 C 0.89026 0.82431 0.67685
 C175 C 0.86808 0.80278 0.63273
 C176 C 0.82377 0.82423 0.61083
 C177 C 0.80229 0.86849 0.63297
 H178 H 0.88436 0.88475 0.73307
 H179 H 0.88423 0.76806 0.61651
 H180 H 0.76754 0.88463 0.61692
 C181 C 0.67741 0.61134 0.67811
 C182 C 0.63319 0.63353 0.69966
 C183 C 0.61110 0.67780 0.67813
 C184 C 0.63323 0.69925 0.63388
 C185 C 0.67747 0.67772 0.61177
 C186 C 0.69894 0.63345 0.63386
 H187 H 0.61698 0.61737 0.73436
 H188 H 0.61705 0.73394 0.61766
 H189 H 0.73362 0.61723 0.61764
 C190 C 0.67695 0.10962 0.17679
 C191 C 0.63269 0.13168 0.19834
 C192 C 0.61061 0.17598 0.17694
 C193 C 0.63270 0.19756 0.13275
 C194 C 0.67697 0.17614 0.11060
 C195 C 0.69850 0.13184 0.13260
 H196 H 0.61650 0.11544 0.23301
 H197 H 0.61651 0.23231 0.11665
 H198 H 0.73323 0.11573 0.11640
 C199 C 0.17711 0.61080 0.17669
 C200 C 0.13293 0.63303 0.19818
 C201 C 0.11100 0.67736 0.17669
 C202 C 0.13319 0.69880 0.13246
 C203 C 0.17738 0.67715 0.11036
 C204 C 0.19873 0.63283 0.13246
 H205 H 0.11667 0.61690 0.23287
 H206 H 0.11712 0.73357 0.11629
 H207 H 0.23340 0.61654 0.11629
 C208 C 0.17634 0.10915 0.67733
 C209 C 0.13202 0.13120 0.69882
 C210 C 0.10990 0.17546 0.67727
 C211 C 0.13209 0.19701 0.63310
 C212 C 0.17643 0.17565 0.61111
 C213 C 0.19792 0.13137 0.63316
 H214 H 0.11580 0.11499 0.73349
 H215 H 0.11591 0.23172 0.61691
 H216 H 0.23269 0.11529 0.61701
 C217 C 0.32312 0.61129 0.32243
 C218 C 0.36728 0.63356 0.30078
 C219 C 0.38939 0.67788 0.32224
 C220 C 0.36733 0.69931 0.36654
 C221 C 0.32317 0.67764 0.38877
 C222 C 0.30170 0.63332 0.36673
 H223 H 0.38341 0.61743 0.26605
 H224 H 0.38350 0.73405 0.38270
 H225 H 0.26708 0.61700 0.38303
 C226 C 0.32246 0.10930 0.82310
 C227 C 0.30079 0.13147 0.86723
 C228 C 0.32221 0.17584 0.88926
 C229 C 0.36652 0.19737 0.86723
 C230 C 0.38876 0.17582 0.82311
 C231 C 0.36676 0.13146 0.80166
 H232 H 0.26603 0.11527 0.88335
 H233 H 0.38263 0.23216 0.88335
 H234 H 0.38305 0.11525 0.76705
 C235 C 0.82360 0.61111 0.82326
 C236 C 0.80192 0.63343 0.86729
 C237 C 0.82318 0.67798 0.88906
 C238 C 0.86739 0.69959 0.86685
 C239 C 0.88968 0.67787 0.82282
 C240 C 0.86779 0.63332 0.80164
 H241 H 0.76725 0.61715 0.88355
 H242 H 0.88339 0.73452 0.88279
 H243 H 0.88411 0.61697 0.76710
 C244 C 0.82306 0.10997 0.32262
 C245 C 0.86713 0.13232 0.30087
 C246 C 0.88927 0.17662 0.32234
 C247 C 0.86739 0.19792 0.36676
 C248 C 0.82332 0.17619 0.38910
 C249 C 0.80178 0.13190 0.36704
 H250 H 0.88315 0.11630 0.26604
 H251 H 0.88360 0.23265 0.38292
 H252 H 0.76720 0.11555 0.38342
 C253 C 0.67708 0.38872 0.32332
 C254 C 0.63288 0.36653 0.30188
 C255 C 0.61089 0.32211 0.32328
 C256 C 0.63304 0.30052 0.36738
 C257 C 0.67724 0.32216 0.38943
 C258 C 0.69864 0.36658 0.36742
 H259 H 0.61665 0.38278 0.26730
 H260 H 0.61695 0.26568 0.38347
 H261 H 0.73331 0.38286 0.38354
 C262 C 0.67700 0.89075 0.82316
 C263 C 0.69841 0.86862 0.86736
 C264 C 0.67671 0.82445 0.88955
 C265 C 0.63233 0.80308 0.86763
 C266 C 0.61031 0.82462 0.82345
 C267 C 0.63262 0.86878 0.80182
 H268 H 0.73322 0.88469 0.88340
 H269 H 0.61601 0.76842 0.88388
 H270 H 0.61653 0.88496 0.76715
 C271 C 0.17579 0.38911 0.82340
 C272 C 0.19725 0.36690 0.86752
 C273 C 0.17591 0.32237 0.88935
 C274 C 0.13183 0.30069 0.86710
 C275 C 0.10975 0.32232 0.82297
 C276 C 0.13172 0.36684 0.80174
 H277 H 0.23183 0.38321 0.88380
 H278 H 0.11577 0.26577 0.88307
 H279 H 0.11558 0.38311 0.76712
 C280 C 0.17765 0.88954 0.32263
 C281 C 0.13332 0.86753 0.30128
 C282 C 0.11097 0.82345 0.32296
 C283 C 0.13286 0.80204 0.36728
 C284 C 0.17717 0.82351 0.38926
 C285 C 0.19896 0.86759 0.36694
 H286 H 0.11729 0.88363 0.26654
 H287 H 0.11648 0.76744 0.38359
 H288 H 0.23373 0.88372 0.38300
 O289 O 0.25569 1.05086 0.18429
 O290 O 0.18580 0.95014 0.25463
 O291 O 0.18552 1.05042 0.25468
 O292 O 0.25591 0.95042 0.18404
 O293 O 0.31582 0.95055 0.24363
 O294 O 0.24541 1.05051 0.31430
 O295 O 0.24571 0.95022 0.31423
 O296 O 0.31553 1.05098 0.24385
 Cu297 Cu 0.21474 1.00042 0.21342
 Cu298 Cu 0.28665 1.00055 0.28494
 C299 C 0.29723 1.06892 0.20240
 C300 C 0.20406 0.93247 0.29617
 C301 C 0.20372 1.06810 0.29623
 C302 C 0.29758 0.93281 0.20211
 O303 O 0.24401 0.55071 0.81553
 O304 O 0.31422 0.44997 0.74559
 O305 O 0.31439 0.55037 0.74528
 O306 O 0.24361 0.45015 0.81559
 O307 O 0.18387 0.45024 0.75583
 O308 O 0.25468 0.55038 0.68549
 O309 O 0.25449 0.44999 0.68582
 O310 O 0.18437 0.55082 0.75580
 Cu311 Cu 0.28500 0.50030 0.78651
 Cu312 Cu 0.21335 0.50036 0.71478
 C313 C 0.20257 0.56881 0.79728
 C314 C 0.29602 0.43219 0.70407
 C315 C 0.29630 0.56806 0.70367
 C316 C 0.20204 0.43240 0.79733
 O317 O 0.75522 -0.05147 0.31502
 O318 O 0.68494 0.04879 0.24462
 O319 O 0.68468 -0.05173 0.24512
 O320 O 0.75517 0.04901 0.31486
 O321 O 0.81495 0.04890 0.25497
 O322 O 0.74436 -0.05180 0.18525
 O323 O 0.74474 0.04870 0.18474
 O324 O 0.81493 -0.05159 0.25517
 Cu325 Cu 0.71402 -0.00133 0.28588
 Cu326 Cu 0.78571 -0.00148 0.21405
 C327 C 0.79680 -0.06941 0.29682
 C328 C 0.70318 0.06650 0.20301
 C329 C 0.70278 -0.06974 0.20356
 C330 C 0.79675 0.06676 0.29651
 O331 O 0.68530 0.55020 0.74572
 O332 O 0.75546 0.44935 0.81552
 O333 O 0.75587 0.54996 0.81555
 O334 O 0.68534 0.44973 0.74519
 O335 O 0.74518 0.44984 0.68535
 O336 O 0.81573 0.54996 0.75573
 O337 O 0.81522 0.44935 0.75572
 O338 O 0.74516 0.55030 0.68590
 Cu339 Cu 0.71454 0.49979 0.78650
 Cu340 Cu 0.78633 0.49987 0.71472
 C341 C 0.70359 0.56808 0.70422
 C342 C 0.79695 0.43129 0.79722
 C343 C 0.79746 0.56778 0.79724
 C344 C 0.70355 0.43208 0.70357
 O345 O 0.31506 0.55011 0.25488
 O346 O 0.24443 0.44934 0.18529
 O347 O 0.24478 0.54980 0.18477
 O348 O 0.31485 0.44963 0.25537
 O349 O 0.25501 0.44988 0.31522
 O350 O 0.18494 0.55010 0.24462
 O351 O 0.18461 0.44964 0.24515
 O352 O 0.25523 0.55034 0.31473
 Cu353 Cu 0.28577 0.49966 0.21408
 Cu354 Cu 0.21396 0.50002 0.28593
 C355 C 0.29684 0.56805 0.29637
 C356 C 0.20279 0.43169 0.20364
 C357 C 0.20324 0.56769 0.20300
 C358 C 0.29659 0.43205 0.29701
 O359 O 0.74498 1.05188 0.81493
 O360 O 0.81566 0.95148 0.74493
 O361 O 0.81566 1.05198 0.74499
 O362 O 0.74506 0.95147 0.81507
 O363 O 0.68541 0.95145 0.75522
 O364 O 0.75612 1.05194 0.68517
 O365 O 0.75600 0.95147 0.68510
 O366 O 0.68541 1.05185 0.75512
 Cu367 Cu 0.78631 1.00170 0.78596
 Cu368 Cu 0.71480 1.00166 0.71415
 C369 C 0.70341 1.06975 0.79672
 C370 C 0.79754 0.93372 0.70336
 C371 C 0.79764 1.06991 0.70341
 C372 C 0.70348 0.93374 0.79683
 O373 O 0.75482 0.55034 0.18517
 O374 O 0.68485 0.44975 0.25566
 O375 O 0.68494 0.55019 0.25590
 O376 O 0.75494 0.44998 0.18514
 O377 O 0.81495 0.44999 0.24465
 O378 O 0.74492 0.55019 0.31543
 O379 O 0.74485 0.44974 0.31517
 O380 O 0.81481 0.55034 0.24469
 Cu381 Cu 0.71385 0.50007 0.21453
 Cu382 Cu 0.78590 0.50007 0.28595
 C383 C 0.79648 0.56808 0.20321
 C384 C 0.70323 0.43195 0.29709
 C385 C 0.70329 0.56793 0.29738
 C386 C 0.79662 0.43230 0.20314
 O387 O 0.18458 0.04808 0.74502
 O388 O 0.25567 -0.05241 0.81447
 O389 O 0.25483 0.04809 0.81522
 O390 O 0.18464 -0.05243 0.74502
 O391 O 0.24423 -0.05215 0.68507
 O392 O 0.31452 0.04847 0.75523
 O393 O 0.31526 -0.05205 0.75451
 O394 O 0.24425 0.04836 0.68502
 Cu395 Cu 0.21398 -0.00223 0.78593
 Cu396 Cu 0.28551 -0.00179 0.71396
 C397 C 0.20268 0.06600 0.70344
 C398 C 0.29728 -0.07015 0.79608
 C399 C 0.29631 0.06608 0.79688
 C400 C 0.20272 -0.07024 0.70338
 O401 O 0.24380 0.31436 0.94994
 O402 O 0.31433 0.24422 1.05006
 O403 O 0.31407 0.24390 0.94985
 O404 O 0.24386 0.31435 1.05018
 O405 O 0.18402 0.25440 1.05033
 O406 O 0.25425 0.18392 0.95002
 O407 O 0.25450 0.18426 1.05025
 O408 O 0.18399 0.25439 0.95007
 Cu409 Cu 0.28499 0.28522 0.99996
 Cu410 Cu 0.21320 0.21324 1.00018
 C411 C 0.20220 0.29606 0.93231
 C412 C 0.29609 0.20260 1.06789
 C413 C 0.29585 0.20220 0.93223
 C414 C 0.20229 0.29603 1.06804
 O415 O 0.18493 0.75525 0.55034
 O416 O 0.25539 0.68536 0.44975
 O417 O 0.25538 0.68509 0.54999
 O418 O 0.18502 0.75561 0.45005
 O419 O 0.24482 0.81560 0.45011
 O420 O 0.31519 0.74509 0.55003
 O421 O 0.31518 0.74536 0.44979
 O422 O 0.24473 0.81523 0.55040
 Cu423 Cu 0.21419 0.71432 0.50002
 Cu424 Cu 0.28595 0.78634 0.50010
 C425 C 0.20318 0.79682 0.56821
 C426 C 0.29695 0.70375 0.43198
 C427 C 0.29695 0.70340 0.56771
 C428 C 0.20329 0.79728 0.43236
 O429 O 0.31556 0.75520 -0.05113
 O430 O 0.24531 0.68503 0.04952
 O431 O 0.24550 0.68452 -0.05071
 O432 O 0.31595 0.75524 0.04911
 O433 O 0.25611 0.81508 0.04911
 O434 O 0.18568 0.74439 -0.05073
 O435 O 0.18550 0.74491 0.04946
 O436 O 0.25571 0.81504 -0.05109
 Cu437 Cu 0.28658 0.71400 -0.00078
 Cu438 Cu 0.21477 0.78585 -0.00080
 C439 C 0.29725 0.79677 -0.06894
 C440 C 0.20372 0.70333 0.06726
 C441 C 0.20391 0.70273 -0.06841
 C442 C 0.29774 0.79691 0.06676
 O443 O 0.31481 0.25489 0.45055
 O444 O 0.24444 0.18402 0.55048
 O445 O 0.24438 0.18467 0.45029
 O446 O 0.31442 0.25484 0.55073
 O447 O 0.25454 0.31466 0.55083
 O448 O 0.18449 0.24448 0.45043
 O449 O 0.18456 0.24383 0.55063
 O450 O 0.25494 0.31471 0.45062
 Cu451 Cu 0.28551 0.21361 0.50052
 Cu452 Cu 0.21363 0.28541 0.50067
 C453 C 0.29656 0.29651 0.43287
 C454 C 0.20279 0.20214 0.56821
 C455 C 0.20283 0.20296 0.43257
 C456 C 0.29612 0.29642 0.56851
 O457 O 0.74455 0.81628 0.95018
 O458 O 0.81491 0.74555 1.04996
 O459 O 0.81496 0.74595 0.94979
 O460 O 0.74462 0.81581 1.05048
 O461 O 0.68478 0.75587 1.05039
 O462 O 0.75513 0.68599 0.94973
 O463 O 0.75505 0.68561 1.04990
 O464 O 0.68471 0.75633 0.95009
 Cu465 Cu 0.78573 0.78693 1.00009
 Cu466 Cu 0.71391 0.71496 0.99998
 C467 C 0.70296 0.79805 0.93248
 C468 C 0.79665 0.70385 1.06760
 C469 C 0.79677 0.70431 0.93203
 C470 C 0.70310 0.79739 1.06832
 O471 O 0.81568 0.24441 0.55033
 O472 O 0.74516 0.31432 0.45002
 O473 O 0.74521 0.31457 0.55020
 O474 O 0.81549 0.24402 0.44999
 O475 O 0.75571 0.18401 0.45026
 O476 O 0.68540 0.25458 0.55041
 O477 O 0.68538 0.25429 0.45025
 O478 O 0.75588 0.18443 0.55058
 Cu479 Cu 0.78639 0.28531 0.50010
 Cu480 Cu 0.71464 0.21329 0.50041
 C481 C 0.79741 0.20285 0.56828
 C482 C 0.70357 0.29594 0.43242
 C483 C 0.70360 0.29630 0.56799
 C484 C 0.79722 0.20235 0.43234
 O485 O 0.75493 0.31480 0.04990
 O486 O 0.68482 0.24420 -0.05027
 O487 O 0.68472 0.24419 0.04996
 O488 O 0.75433 0.31539 -0.05032
 O489 O 0.81443 0.25581 -0.05058
 O490 O 0.74483 0.18461 0.04975
 O491 O 0.74494 0.18464 -0.05046
 O492 O 0.81503 0.25521 0.04960
 Cu493 Cu 0.71366 0.28560 -0.00012
 Cu494 Cu 0.78584 0.21411 -0.00044
 C495 C 0.79666 0.29672 0.06743
 C496 C 0.70329 0.20271 -0.06811
 C497 C 0.70315 0.20262 0.06758
 C498 C 0.79595 0.29737 -0.06822
 O499 O 0.81505 0.75618 0.45000
 O500 O 0.74522 0.68574 0.55074
 O501 O 0.74495 0.68557 0.45050
 O502 O 0.81557 0.75621 0.55023
 O503 O 0.75568 0.81602 0.55044
 O504 O 0.68507 0.74538 0.45065
 O505 O 0.68534 0.74555 0.55088
 O506 O 0.75516 0.81597 0.45021
 Cu507 Cu 0.78620 0.71494 0.50036
 Cu508 Cu 0.71431 0.78672 0.50059
 C509 C 0.79667 0.79774 0.43226
 C510 C 0.70365 0.70397 0.56861
 C511 C 0.70332 0.70377 0.43289
 C512 C 0.79736 0.79785 0.56797
 O513 O 1.05068 0.31527 0.24425
 O514 O 0.94991 0.24481 0.31419
 O515 O 1.05017 0.24509 0.31464
 O516 O 0.95023 0.31534 0.24404
 O517 O 0.95034 0.25541 0.18432
 O518 O 1.05037 0.18521 0.25488
 O519 O 0.95010 0.18489 0.25446
 O520 O 1.05075 0.25546 0.18454
 Cu521 Cu 1.00020 0.28615 0.28523
 Cu522 Cu 1.00041 0.21427 0.21355
 C523 C 1.06874 0.29703 0.20277
 C524 C 0.93227 0.20310 0.29600
 C525 C 1.06793 0.20346 0.29648
 C526 C 0.93256 0.29704 0.20252
 O527 O 0.44948 0.25481 0.68541
 O528 O 0.54998 0.18428 0.75504
 O529 O 0.44961 0.18406 0.75528
 O530 O 0.54982 0.25482 0.68503
 O531 O 0.54988 0.31454 0.74496
 O532 O 0.44960 0.24381 0.81518
 O533 O 0.54997 0.24399 0.81498
 O534 O 0.44953 0.31455 0.74532
 Cu535 Cu 0.49970 0.21351 0.71419
 Cu536 Cu 0.49975 0.28520 0.78613
 C537 C 0.43175 0.29638 0.70378
 C538 C 0.56779 0.20247 0.79657
 C539 C 0.43186 0.20220 0.79689
 C540 C 0.56760 0.29640 0.70334
 O541 O -0.05167 0.18430 0.74471
 O542 O 0.04883 0.25444 0.81489
 O543 O -0.05144 0.25524 0.81436
 O544 O 0.04878 0.18378 0.74490
 O545 O 0.04920 0.24345 0.68492
 O546 O -0.05099 0.31487 0.75434
 O547 O 0.04931 0.31413 0.75491
 O548 O -0.05124 0.24387 0.68474
 Cu549 Cu -0.00145 0.21346 0.78570
 Cu550 Cu -0.00084 0.28501 0.71369
 C551 C -0.06944 0.20240 0.70310
 C552 C 0.06679 0.29597 0.79659
 C553 C -0.06891 0.29690 0.79595
 C554 C 0.06675 0.20184 0.70334
 O555 O 0.54998 0.25421 0.31518
 O556 O 0.44948 0.18434 0.24478
 O557 O 0.54980 0.18399 0.24481
 O558 O 0.44967 0.25452 0.31522
 O559 O 0.44987 0.31450 0.25552
 O560 O 0.54998 0.24398 0.18513
 O561 O 0.44965 0.24433 0.18509
 O562 O 0.55017 0.31421 0.25551
 Cu563 Cu 0.49969 0.21324 0.28597
 Cu564 Cu 0.49995 0.28527 0.21434
 C565 C 0.56782 0.29586 0.29702
 C566 C 0.43179 0.20270 0.20328
 C567 C 0.56760 0.20228 0.20328
 C568 C 0.43208 0.29623 0.29707
 O569 O 0.95095 0.75631 0.68462
 O570 O 1.05084 0.68519 0.75453
 O571 O 0.95051 0.68588 0.75488
 O572 O 1.05142 0.75599 0.68469
 O573 O 1.05163 0.81563 0.74456
 O574 O 0.95074 0.74567 0.81473
 O575 O 1.05106 0.74492 0.81444
 O576 O 0.95116 0.81608 0.74448
 Cu577 Cu 1.00088 0.71489 0.71367
 Cu578 Cu 1.00118 0.78657 0.78552
 C579 C 0.93334 0.79794 0.70294
 C580 C 1.06861 0.70324 0.79612
 C581 C 0.93283 0.70412 0.79649
 C582 C 1.06959 0.79745 0.70302
 O583 O 0.55144 0.81604 0.24463
 O584 O 0.45025 0.74589 0.31425
 O585 O 0.55053 0.74574 0.31493
 O586 O 0.45099 0.81596 0.24366
 O587 O 0.45131 0.75593 0.18405
 O588 O 0.55090 0.68579 0.25523
 O589 O 0.45060 0.68587 0.25462
 O590 O 0.55173 0.75620 0.18496
 Cu591 Cu 0.50074 0.78694 0.28530
 Cu592 Cu 0.50119 0.71496 0.21373
 C593 C 0.56967 0.79779 0.20323
 C594 C 0.43259 0.70420 0.29605
 C595 C 0.56830 0.70404 0.29689
 C596 C 0.43348 0.79758 0.20209
 O597 O 0.05003 0.75562 0.31494
 O598 O -0.05017 0.68547 0.24449
 O599 O 0.05012 0.68549 0.24448
 O600 O -0.05030 0.75591 0.31461
 O601 O -0.05006 0.81582 0.25485
 O602 O 0.05036 0.74541 0.18473
 O603 O -0.04993 0.74539 0.18473
 O604 O 0.05029 0.81554 0.25519
 Cu605 Cu -0.00011 0.71462 0.28562
 Cu606 Cu 0.00021 0.78656 0.21390
 C607 C 0.06789 0.79723 0.29674
 C608 C -0.06776 0.70375 0.20293
 C609 C 0.06797 0.70374 0.20294
 C610 C -0.06796 0.79755 0.29635
 O611 O 0.44909 0.81615 0.75506
 O612 O 0.55020 0.74569 0.68580
 O613 O 0.44989 0.74549 0.68519
 O614 O 0.54960 0.81646 0.75566
 O615 O 0.54940 0.75672 0.81558
 O616 O 0.44960 0.68582 0.74519
 O617 O 0.54993 0.68596 0.74573
 O618 O 0.44895 0.75656 0.81502
 Cu619 Cu 0.49974 0.78694 0.71445
 Cu620 Cu 0.49944 0.71533 0.78641
 C621 C 0.43092 0.79800 0.79655
 C622 C 0.56789 0.70412 0.70420
 C623 C 0.43210 0.70388 0.70349
 C624 C 0.56721 0.79832 0.79727
   
