data_POSCAR
  _audit_creation_date              2014-09-24
  _audit_creation_method            'ToBaCCo'
  _symmetry_space_group_name_H-M    'P1'
  _symmetry_Int_Tables_number       1
  _symmetry_cell_setting            triclinic
  loop_
  _symmetry_equiv_pos_as_xyz
 x,y,z
_cell_length_a 33.7594
_cell_length_b 33.1384
_cell_length_c 33.6826
_cell_angle_alpha 89.703500
_cell_angle_beta 89.615300
_cell_angle_gamma 90.777500
loop_
  _atom_site_label
  _atom_site_type_symbol
  _atom_site_fract_x
  _atom_site_fract_y
  _atom_site_fract_z
N1 N 0.31604 0.23502 0.18906
 N2 N 0.29821 0.26584 0.17264
 C3 C 0.31690 0.27577 0.13851
 C4 C 0.34817 0.25004 0.13338
 C5 C 0.34686 0.22440 0.16598
 H6 H 0.30883 0.30025 0.11896
 H7 H 0.36657 0.19980 0.17235
 Cu8 Cu 0.25318 0.29119 0.19759
 Cu9 Cu 0.29744 0.21091 0.23868
 Cu10 Cu 0.21765 0.25623 0.28511
 N11 N 0.21015 0.31732 0.22514
 N12 N 0.19600 0.30367 0.25916
 C13 C 0.16615 0.32747 0.27103
 C14 C 0.16169 0.35760 0.24281
 C15 C 0.19005 0.35029 0.21432
 H16 H 0.14910 0.32313 0.29804
 H17 H 0.19536 0.36773 0.18755
 N18 N 0.24376 0.20802 0.30655
 N19 N 0.27424 0.19090 0.28895
 C20 C 0.28499 0.15848 0.31039
 C21 C 0.26016 0.15500 0.34294
 C22 C 0.23433 0.18691 0.33965
 H23 H 0.30881 0.13841 0.30273
 H24 H 0.21021 0.19400 0.35956
 H25 H 0.23917 0.22898 0.23445
 H26 H 0.27391 0.26356 0.26123
 N27 N 0.69260 -0.24432 0.19931
 N28 N 0.71335 -0.27169 0.18053
 C29 C 0.69448 -0.28198 0.14687
 C30 C 0.65996 -0.26019 0.14451
 C31 C 0.65968 -0.23647 0.17836
 H32 H 0.70476 -0.30399 0.12571
 H33 H 0.63745 -0.21507 0.18718
 Cu34 Cu 0.76266 -0.29186 0.20227
 Cu35 Cu 0.70995 -0.22074 0.24947
 Cu36 Cu 0.79934 -0.25400 0.28673
 N37 N 0.81270 -0.31041 0.22388
 N38 N 0.82745 -0.29422 0.25621
 C39 C 0.86174 -0.31224 0.26511
 C40 C 0.86864 -0.34181 0.23734
 C41 C 0.83696 -0.33982 0.21137
 H42 H 0.87955 -0.30560 0.29091
 H43 H 0.83157 -0.35867 0.18583
 N44 N 0.76685 -0.21365 0.31373
 N45 N 0.73284 -0.20072 0.29972
 C46 C 0.71827 -0.17294 0.32487
 C47 C 0.74444 -0.16853 0.35614
 C48 C 0.77467 -0.19478 0.34812
 H49 H 0.69089 -0.15700 0.32063
 H50 H 0.80077 -0.19925 0.36595
 H51 H 0.76929 -0.22905 0.23912
 H52 H 0.74252 -0.26926 0.26809
 N53 N 0.70255 0.23003 0.79953
 N54 N 0.71781 0.26536 0.80897
 C55 C 0.69598 0.28150 0.83834
 C56 C 0.66540 0.25492 0.84750
 C57 C 0.67049 0.22247 0.82238
 H58 H 0.70190 0.31024 0.85232
 H59 H 0.65288 0.19502 0.82128
 Cu60 Cu 0.76490 0.28590 0.78192
 Cu61 Cu 0.72637 0.19542 0.75986
 Cu62 Cu 0.80263 0.23785 0.70293
 N63 N 0.81222 0.30593 0.75504
 N64 N 0.82662 0.28753 0.72371
 C65 C 0.85882 0.30815 0.71047
 C66 C 0.86477 0.34123 0.73476
 C67 C 0.83460 0.33880 0.76280
 H68 H 0.87660 0.29976 0.68506
 H69 H 0.82912 0.35933 0.78697
 N70 N 0.77449 0.18730 0.68842
 N71 N 0.74648 0.17072 0.71095
 C72 C 0.73329 0.13658 0.69375
 C73 C 0.75377 0.13136 0.65869
 C74 C 0.77977 0.16403 0.65613
 H75 H 0.70975 0.11734 0.70533
 H76 H 0.80088 0.17041 0.63258
 H77 H 0.78404 0.21964 0.75761
 H78 H 0.74576 0.24413 0.72615
 N79 N 0.32215 -0.22781 0.79853
 N80 N 0.30901 -0.26315 0.81119
 C81 C 0.33223 -0.27579 0.84110
 C82 C 0.36149 -0.24677 0.84722
 C83 C 0.35420 -0.21690 0.81966
 H84 H 0.32822 -0.30393 0.85709
 H85 H 0.37093 -0.18911 0.81554
 Cu86 Cu 0.26281 -0.28896 0.78718
 Cu87 Cu 0.29671 -0.19836 0.75587
 Cu88 Cu 0.21352 -0.24226 0.71355
 N89 N 0.21518 -0.31263 0.76396
 N90 N 0.19574 -0.29408 0.73567
 C91 C 0.16360 -0.31642 0.72599
 C92 C 0.16298 -0.35096 0.74949
 C93 C 0.19619 -0.34753 0.77308
 H94 H 0.14242 -0.30802 0.70359
 H95 H 0.20540 -0.36874 0.79560
 N96 N 0.23621 -0.18989 0.69548
 N97 N 0.26737 -0.17288 0.71238
 C98 C 0.27547 -0.13742 0.69418
 C99 C 0.24853 -0.13195 0.66414
 C100 C 0.22396 -0.16577 0.66572
 H101 H 0.29970 -0.11722 0.70160
 H102 H 0.19903 -0.17226 0.64670
 H103 H 0.24034 -0.22306 0.76484
 H104 H 0.27242 -0.24819 0.72722
 N105 N 0.69425 -0.23279 0.81721
 N106 N 0.71309 -0.26478 0.82995
 C107 C 0.69553 -0.27824 0.86368
 C108 C 0.66375 -0.25377 0.87213
 C109 C 0.66389 -0.22513 0.84206
 H110 H 0.70449 -0.30448 0.88041
 H111 H 0.64325 -0.20078 0.83821
 Cu112 Cu 0.75777 -0.28696 0.80055
 Cu113 Cu 0.70893 -0.20453 0.76836
 Cu114 Cu 0.78361 -0.24671 0.71201
 N115 N 0.80597 -0.30280 0.77254
 N116 N 0.81624 -0.28607 0.73847
 C117 C 0.84955 -0.30316 0.72485
 C118 C 0.86069 -0.33258 0.75149
 C119 C 0.83243 -0.33149 0.78165
 H120 H 0.86380 -0.29577 0.69682
 H121 H 0.83073 -0.35049 0.80781
 N122 N 0.75540 -0.19807 0.69573
 N123 N 0.72790 -0.18097 0.71768
 C124 C 0.71537 -0.14755 0.69881
 C125 C 0.73585 -0.14370 0.66331
 C126 C 0.76108 -0.17619 0.66237
 H127 H 0.69274 -0.12760 0.70977
 H128 H 0.78243 -0.18316 0.63945
 H129 H 0.72930 -0.25480 0.74177
 H130 H 0.76771 -0.22257 0.76636
 N131 N 0.30138 0.23456 0.81173
 N132 N 0.28952 0.27003 0.82397
 C133 C 0.31158 0.28133 0.85530
 C134 C 0.33862 0.25140 0.86291
 C135 C 0.33134 0.22212 0.83469
 H136 H 0.30864 0.30941 0.87116
 H137 H 0.34657 0.19386 0.83117
 Cu138 Cu 0.24689 0.29835 0.79746
 Cu139 Cu 0.27741 0.20711 0.76705
 Cu140 Cu 0.20354 0.25705 0.71682
 N141 N 0.20700 0.32683 0.76713
 N142 N 0.18953 0.31035 0.73631
 C143 C 0.16148 0.33545 0.72287
 C144 C 0.16159 0.36956 0.74651
 C145 C 0.19103 0.36318 0.77397
 H146 H 0.14202 0.32898 0.69829
 H147 H 0.19914 0.38302 0.79804
 N148 N 0.22198 0.20291 0.70167
 N149 N 0.24991 0.18385 0.72122
 C150 C 0.25691 0.14839 0.70335
 C151 C 0.23250 0.14496 0.67091
 C152 C 0.21058 0.18002 0.67068
 H153 H 0.27906 0.12702 0.71241
 H154 H 0.18870 0.18869 0.64909
 H155 H 0.26085 0.25955 0.73776
 H156 H 0.22265 0.23452 0.77028
 N157 N 0.31591 -0.23068 0.21949
 N158 N 0.29936 -0.26131 0.20089
 C159 C 0.32312 -0.27234 0.17062
 C160 C 0.35628 -0.24722 0.17031
 C161 C 0.35070 -0.22125 0.20172
 H162 H 0.31647 -0.29640 0.15008
 H163 H 0.37034 -0.19693 0.21062
 Cu164 Cu 0.24768 -0.28282 0.21720
 Cu165 Cu 0.29088 -0.20465 0.26484
 Cu166 Cu 0.19898 -0.24215 0.29410
 N167 N 0.19590 -0.30351 0.23438
 N168 N 0.17679 -0.28641 0.26382
 C169 C 0.14192 -0.30558 0.26970
 C170 C 0.13902 -0.33664 0.24289
 C171 C 0.17377 -0.33462 0.22074
 H172 H 0.12058 -0.29824 0.29254
 H173 H 0.18233 -0.35434 0.19679
 N174 N 0.22587 -0.19756 0.32133
 N175 N 0.26066 -0.18268 0.31008
 C176 C 0.27067 -0.15214 0.33454
 C177 C 0.24070 -0.14803 0.36245
 C178 C 0.21301 -0.17728 0.35328
 H179 H 0.29781 -0.13456 0.33246
 H180 H 0.18537 -0.18308 0.36882
 H181 H 0.25821 -0.25440 0.28294
 H182 H 0.23372 -0.21830 0.24842
 N183 N 0.68652 0.22352 0.20016
 N184 N 0.69967 0.25714 0.18356
 C185 C 0.67690 0.26588 0.15206
 C186 C 0.64810 0.23594 0.14890
 C187 C 0.65501 0.20969 0.17990
 H188 H 0.68061 0.29224 0.13329
 H189 H 0.63836 0.18248 0.18712
 Cu190 Cu 0.74459 0.28614 0.20582
 Cu191 Cu 0.71161 0.19962 0.24626
 Cu192 Cu 0.78552 0.25657 0.29147
 N193 N 0.78947 0.31514 0.22807
 N194 N 0.80491 0.30357 0.26194
 C195 C 0.83537 0.32831 0.27097
 C196 C 0.83920 0.35694 0.24111
 C197 C 0.80958 0.34782 0.21445
 H198 H 0.85355 0.32523 0.29707
 H199 H 0.80350 0.36369 0.18707
 N200 N 0.76185 0.20762 0.31570
 N201 N 0.73392 0.18592 0.29832
 C202 C 0.72409 0.15441 0.32187
 C203 C 0.74718 0.15627 0.35558
 C204 C 0.77079 0.19023 0.35068
 H205 H 0.70205 0.13169 0.31473
 H206 H 0.79302 0.20120 0.37108
 H207 H 0.72833 0.25475 0.26912
 H208 H 0.76765 0.22683 0.24187
 C209 C 0.23567 0.13645 0.52822
 C210 C 0.24061 0.13809 0.48783
 C211 C 0.23574 0.09898 0.47415
 N212 N 0.22770 0.07353 0.50477
 C213 C 0.22776 0.09640 0.53791
 C214 C 0.23682 0.08782 0.43379
 C215 C 0.23682 0.04714 0.42117
 C216 C 0.22848 0.03446 0.38289
 C217 C 0.23408 -0.00649 0.38213
 C218 C 0.24520 -0.01785 0.42008
 N219 N 0.24693 0.01500 0.44370
 C220 C 0.25456 -0.05762 0.43144
 C221 C 0.25541 -0.07074 0.47140
 C222 C 0.26800 -0.10833 0.48394
 C223 C 0.26086 -0.11037 0.52403
 C224 C 0.24446 -0.07384 0.53471
 N225 N 0.24102 -0.04970 0.50247
 C226 C 0.23116 -0.06422 0.57329
 C227 C 0.21983 -0.02488 0.58456
 C228 C 0.19948 -0.01571 0.61919
 C229 C 0.19611 0.02560 0.62018
 C230 C 0.21438 0.04059 0.58608
 N231 N 0.22882 0.00963 0.56456
 C232 C 0.21885 0.08208 0.57657
 H233 H 0.23763 0.16194 0.54809
 H234 H 0.24714 0.16502 0.47054
 H235 H 0.24746 0.01232 0.53998
 H236 H 0.21927 0.05273 0.35798
 H237 H 0.23007 -0.02577 0.35658
 H238 H 0.28063 -0.13200 0.46604
 H239 H 0.26702 -0.13587 0.54312
 H240 H 0.18174 0.04264 0.64337
 H241 H 0.25842 0.01598 0.47225
 H242 H 0.18826 -0.03658 0.64152
 C243 C 0.72088 0.11679 0.47804
 C244 C 0.72908 0.11677 0.51784
 C245 C 0.74080 0.07801 0.52738
 N246 N 0.74038 0.05446 0.49475
 C247 C 0.72828 0.07816 0.46453
 C248 C 0.75380 0.06563 0.56515
 C249 C 0.75950 0.02464 0.57543
 C250 C 0.78040 0.01146 0.60822
 C251 C 0.77720 -0.02994 0.60889
 C252 C 0.75451 -0.04100 0.57643
 N253 N 0.74380 -0.00754 0.55619
 C254 C 0.74318 -0.08112 0.56713
 C255 C 0.73037 -0.09299 0.52904
 C256 C 0.71643 -0.13127 0.51950
 C257 C 0.70996 -0.13123 0.47933
 C258 C 0.72013 -0.09295 0.46566
 N259 N 0.73268 -0.06964 0.49606
 C260 C 0.72007 -0.08084 0.42537
 C261 C 0.72539 -0.04036 0.41290
 C262 C 0.73320 -0.02850 0.37403
 C263 C 0.73503 0.01289 0.37378
 C264 C 0.72835 0.02526 0.41251
 N265 N 0.72227 -0.00737 0.43616
 C266 C 0.72634 0.06596 0.42447
 H267 H 0.71082 0.14243 0.46103
 H268 H 0.72662 0.14236 0.53750
 H269 H 0.71255 -0.00692 0.46549
 H270 H 0.79639 0.02972 0.62947
 H271 H 0.79036 -0.04965 0.63071
 H272 H 0.71171 -0.15671 0.53932
 H273 H 0.69920 -0.15655 0.46214
 H274 H 0.74079 0.03171 0.34796
 H275 H 0.72352 -0.00654 0.53311
 H276 H 0.73726 -0.04765 0.34843
 C277 C 0.52985 0.26603 0.11025
 C278 C 0.48960 0.26049 0.11256
 C279 C 0.47778 0.24532 0.07618
 N280 N 0.50941 0.24100 0.05188
 C281 C 0.54129 0.25362 0.07268
 C282 C 0.43866 0.23382 0.06671
 C283 C 0.42628 0.22480 0.02769
 C284 C 0.39064 0.20603 0.01812
 C285 C 0.38853 0.20552 -0.02262
 C286 C 0.42310 0.22364 -0.03680
 N287 N 0.44590 0.23543 -0.00600
 C288 C 0.43207 0.23016 -0.07734
 C289 C 0.47087 0.23735 -0.09172
 C290 C 0.48057 0.24578 -0.13099
 C291 C 0.52110 0.24800 -0.13305
 C292 C 0.53478 0.24110 -0.09494
 N293 N 0.50406 0.23441 -0.06974
 C294 C 0.57507 0.23880 -0.08456
 C295 C 0.58841 0.23701 -0.04485
 C296 C 0.62630 0.22618 -0.03357
 C297 C 0.62806 0.23023 0.00694
 C298 C 0.59107 0.24292 0.01939
 N299 N 0.56712 0.24724 -0.01234
 C300 C 0.58084 0.25126 0.05914
 H301 H 0.54853 0.27755 0.13370
 H302 H 0.47114 0.26697 0.13809
 H303 H 0.53932 0.26035 -0.01216
 H304 H 0.36831 0.19410 0.03834
 H305 H 0.36441 0.19300 -0.03984
 H306 H 0.46058 0.24955 -0.15568
 H307 H 0.53851 0.25398 -0.15959
 H308 H 0.65357 0.22409 0.02520
 H309 H 0.47116 0.25365 -0.00790
 H310 H 0.65028 0.21629 -0.05246
 C311 C 0.47776 0.72290 0.13192
 C312 C 0.51807 0.72855 0.13217
 C313 C 0.52900 0.74075 0.09417
 N314 N 0.49667 0.74300 0.07080
 C315 C 0.46528 0.73207 0.09385
 C316 C 0.56798 0.75158 0.08239
 C317 C 0.57904 0.75950 0.04241
 C318 C 0.61347 0.77963 0.03064
 C319 C 0.61405 0.77974 -0.01019
 C320 C 0.58001 0.75958 -0.02236
 N321 N 0.55885 0.74727 0.00992
 C322 C 0.57005 0.75189 -0.06246
 C323 C 0.53158 0.74024 -0.07458
 C324 C 0.52181 0.72798 -0.11261
 C325 C 0.48158 0.72174 -0.11283
 C326 C 0.46799 0.73060 -0.07499
 N327 N 0.49860 0.74192 -0.05164
 C328 C 0.42766 0.73036 -0.06329
 C329 C 0.41493 0.73449 -0.02345
 C330 C 0.37625 0.74229 -0.01201
 C331 C 0.37562 0.74291 0.02875
 C332 C 0.41392 0.73541 0.04124
 N333 N 0.43768 0.73007 0.00920
 C334 C 0.42530 0.73207 0.08146
 H335 H 0.45978 0.71312 0.15698
 H336 H 0.53715 0.72413 0.15748
 H337 H 0.46665 0.71994 0.00964
 H338 H 0.63580 0.79311 0.04949
 H339 H 0.63692 0.79335 -0.02875
 H340 H 0.54160 0.72397 -0.13766
 H341 H 0.46433 0.71196 -0.13807
 H342 H 0.34979 0.74836 0.04707
 H343 H 0.53421 0.72812 0.00986
 H344 H 0.35104 0.74718 -0.03103
 C345 C 0.12454 0.52118 0.25701
 C346 C 0.12346 0.48114 0.26743
 C347 C 0.08591 0.46680 0.25816
 N348 N 0.06404 0.49668 0.24242
 C349 C 0.08756 0.53000 0.24182
 C350 C 0.07330 0.42612 0.26186
 C351 C 0.03337 0.41346 0.25832
 C352 C 0.02102 0.37361 0.25420
 C353 C -0.01960 0.37372 0.25276
 C354 C -0.03103 0.41363 0.25600
 N355 N 0.00143 0.43765 0.25971
 C356 C -0.07076 0.42642 0.25700
 C357 C -0.08201 0.46703 0.25209
 C358 C -0.11980 0.48151 0.25875
 C359 C -0.11885 0.52154 0.24832
 C360 C -0.08044 0.53025 0.23590
 N361 N -0.05800 0.49685 0.23802
 C362 C -0.06722 0.56815 0.22146
 C363 C -0.02702 0.57775 0.21362
 C364 C -0.01382 0.61128 0.19234
 C365 C 0.02691 0.61111 0.19354
 C366 C 0.03746 0.57757 0.21571
 N367 N 0.00439 0.55744 0.22784
 C368 C 0.07670 0.56793 0.22640
 H369 H 0.14970 0.54145 0.26033
 H370 H 0.14761 0.46450 0.28030
 H371 H 0.00321 0.53420 0.24862
 H372 H 0.03935 0.34713 0.25227
 H373 H -0.03854 0.34733 0.24954
 H374 H -0.14543 0.46502 0.26996
 H375 H -0.14359 0.54191 0.24982
 H376 H 0.04651 0.63341 0.18000
 H377 H 0.00157 0.46812 0.26679
 H378 H -0.03170 0.63373 0.17774
 C379 C 0.11906 0.49101 0.70605
 C380 C 0.11911 0.53241 0.70746
 C381 C 0.08334 0.54329 0.72448
 N382 N 0.06149 0.50992 0.73352
 C383 C 0.08324 0.47793 0.72216
 C384 C 0.07226 0.58338 0.73315
 C385 C 0.03390 0.59402 0.74629
 C386 C 0.02446 0.63102 0.76267
 C387 C -0.01551 0.62998 0.77071
 C388 C -0.02958 0.59247 0.75880
 N389 N 0.00071 0.57082 0.74372
 C390 C -0.06984 0.57995 0.76078
 C391 C -0.08282 0.53968 0.75532
 C392 C -0.12218 0.52770 0.75231
 C393 C -0.12249 0.48653 0.74888
 C394 C -0.08330 0.47461 0.75011
 N395 N -0.05907 0.50716 0.75415
 C396 C -0.07086 0.43408 0.74997
 C397 C -0.03055 0.42294 0.74882
 C398 C -0.01670 0.38518 0.75931
 C399 C 0.02354 0.38606 0.75313
 C400 C 0.03333 0.42441 0.73919
 N401 N 0.00014 0.44670 0.73648
 C402 C 0.07203 0.43703 0.72804
 H403 H 0.14273 0.47268 0.69448
 H404 H 0.14285 0.55217 0.69717
 H405 H -0.00199 0.47495 0.72319
 H406 H 0.04437 0.65616 0.76848
 H407 H -0.03227 0.65417 0.78385
 H408 H -0.14806 0.54663 0.75254
 H409 H -0.14867 0.46759 0.74604
 H410 H 0.04337 0.36127 0.75857
 H411 H -0.00176 0.54352 0.72891
 H412 H -0.03370 0.35965 0.77062
 C413 C 0.37626 0.25107 0.09989
 C414 C 0.40975 0.23014 0.09985
 H415 H 0.36979 0.27071 0.07499
 H416 H 0.41795 0.21267 0.12570
 C417 C 0.63207 0.73706 0.11405
 C418 C 0.59788 0.75715 0.11420
 H419 H 0.63827 0.71690 0.08958
 H420 H 0.58986 0.77572 0.13927
 C421 C 0.63561 0.25976 -0.12090
 C422 C 0.60425 0.23494 -0.11730
 H423 H 0.63967 0.28415 -0.09994
 H424 H 0.59853 0.21220 -0.13958
 C425 C 0.39379 0.75383 -0.12355
 C426 C 0.39652 0.72677 -0.09412
 H427 H 0.41543 0.77824 -0.12557
 H428 H 0.37369 0.70382 -0.09012
 C429 C 0.13310 0.39057 0.24127
 C430 C 0.10344 0.39444 0.26735
 H431 H 0.13580 0.41178 0.21675
 H432 H 0.09877 0.37211 0.29055
 C433 C 0.13530 0.61722 0.75070
 C434 C 0.10219 0.61647 0.72894
 H435 H 0.14065 0.59241 0.77100
 H436 H 0.09475 0.64185 0.71019
 C437 C -0.10012 0.63104 0.23841
 C438 C -0.09747 0.59923 0.21431
 H439 H -0.07817 0.63482 0.26153
 H440 H -0.12017 0.59286 0.19258
 C441 C -0.10512 0.37046 0.73087
 C442 C -0.10192 0.40225 0.75521
 H443 H -0.08389 0.36733 0.70682
 H444 H -0.12371 0.40693 0.77837
 C445 C 0.26119 0.12280 0.37322
 C446 C 0.23552 0.12067 0.40363
 H447 H 0.28366 0.09995 0.37022
 H448 H 0.21411 0.14430 0.40791
 C449 C 0.74728 0.09809 0.63052
 C450 C 0.76357 0.09772 0.59426
 H451 H 0.72716 0.07385 0.63936
 H452 H 0.78163 0.12306 0.58418
 C453 C 0.24803 -0.09733 0.63646
 C454 C 0.22764 -0.09778 0.60259
 H455 H 0.26672 -0.07143 0.64318
 H456 H 0.21123 -0.12464 0.59410
 C457 C 0.74305 -0.14099 0.39029
 C458 C 0.71628 -0.11189 0.39394
 H459 H 0.76640 -0.14327 0.41210
 H460 H 0.69439 -0.10747 0.37104
 C461 C 0.63533 0.74114 -0.09461
 C462 C 0.60015 0.75935 -0.09422
 H463 H 0.64279 0.72063 -0.07074
 H464 H 0.59146 0.77755 -0.11941
 C465 C 0.36902 0.25182 -0.10597
 C466 C 0.39982 0.22688 -0.10676
 H467 H 0.36708 0.27440 -0.08288
 H468 H 0.40365 0.20628 -0.13128
 C469 C 0.39004 0.75379 0.14222
 C470 C 0.39298 0.72841 0.11158
 H471 H 0.41267 0.77688 0.14633
 H472 H 0.36953 0.70660 0.10609
 C473 C 0.61591 0.23223 0.11996
 C474 C 0.61350 0.25606 0.08797
 H475 H 0.59361 0.20888 0.12496
 H476 H 0.63692 0.27766 0.08106
 C477 C -0.10756 0.64127 0.74627
 C478 C -0.10055 0.61008 0.77050
 H479 H -0.08885 0.64558 0.72024
 H480 H -0.12010 0.60352 0.79538
 C481 C -0.13124 0.38971 0.23702
 C482 C -0.10184 0.39495 0.26298
 H483 H -0.13322 0.40958 0.21147
 H484 H -0.09822 0.37398 0.28737
 C485 C 0.13460 0.40421 0.74588
 C486 C 0.10213 0.40507 0.72336
 H487 H 0.14026 0.42864 0.76646
 H488 H 0.09475 0.37966 0.70459
 C489 C 0.10607 0.63399 0.24126
 C490 C 0.10833 0.59911 0.22179
 H491 H 0.07995 0.64006 0.25904
 H492 H 0.13535 0.59123 0.20632
 C493 C 0.73149 -0.11134 0.63350
 C494 C 0.74824 -0.11328 0.59743
 H495 H 0.71348 -0.08565 0.64112
 H496 H 0.76417 -0.13997 0.58869
 C497 C 0.23742 -0.11948 0.39551
 C498 C 0.26127 -0.08729 0.39938
 H499 H 0.21349 -0.12432 0.41670
 H500 H 0.28342 -0.08027 0.37689
 C501 C 0.74825 0.12784 0.38922
 C502 C 0.72277 0.09676 0.39270
 H503 H 0.77116 0.13214 0.41124
 H504 H 0.70082 0.09136 0.37000
 C505 C 0.23348 0.11204 0.64167
 C506 C 0.21269 0.11265 0.60804
 H507 H 0.25373 0.08751 0.64700
 H508 H 0.19396 0.13804 0.60141
   
