data_POSCAR
  _audit_creation_date              2014-09-24
  _audit_creation_method            'ToBaCCo'
  _symmetry_space_group_name_H-M    'P1'
  _symmetry_Int_Tables_number       1
  _symmetry_cell_setting            triclinic
  loop_
  _symmetry_equiv_pos_as_xyz
 x,y,z
_cell_length_a 22.5504
_cell_length_b 22.3781
_cell_length_c 21.9526
_cell_angle_alpha 89.906500
_cell_angle_beta 91.220900
_cell_angle_gamma 90.470400
loop_
  _atom_site_label
  _atom_site_type_symbol
  _atom_site_fract_x
  _atom_site_fract_y
  _atom_site_fract_z
N1 N 0.27056 0.29992 0.27524
 N2 N 0.70628 -0.27129 0.27639
 N3 N 0.79432 0.20705 0.80948
 N4 N 0.28769 -0.29694 0.67818
 N5 N 0.79698 -0.23044 0.78929
 N6 N 0.22510 0.20239 0.77470
 N7 N 0.20464 -0.20568 0.17593
 N8 N 0.71434 0.29270 0.30256
 O9 O 0.19539 0.06706 0.42746
 O10 O 0.20028 -0.06987 0.52283
 O11 O 0.19808 0.04483 0.54404
 O12 O 0.19301 -0.04700 0.40671
 O13 O 0.29102 -0.04838 0.40569
 O14 O 0.29600 0.04947 0.54156
 O15 O 0.29824 -0.06512 0.52308
 O16 O 0.29338 0.06676 0.42523
 Cu17 Cu 0.18679 -0.00140 0.47556
 Cu18 Cu 0.30454 0.00070 0.47358
 C19 C 0.24408 0.08983 0.41025
 C20 C 0.25059 -0.09033 0.53919
 C21 C 0.24736 0.06341 0.56574
 C22 C 0.24081 -0.06380 0.38313
 O23 O 0.81168 0.05299 0.56943
 O24 O 0.79412 -0.05477 0.44307
 O25 O 0.79829 0.06294 0.45073
 O26 O 0.81432 -0.06114 0.55975
 O27 O 0.71767 -0.05975 0.57486
 O28 O 0.70131 0.06194 0.46327
 O29 O 0.69738 -0.05604 0.45727
 O30 O 0.71436 0.05405 0.58008
 Cu31 Cu 0.81429 0.00040 0.50356
 Cu32 Cu 0.69771 -0.00029 0.51906
 C33 C 0.76598 0.07067 0.59694
 C34 C 0.74261 -0.07506 0.43030
 C35 C 0.74731 0.08424 0.43953
 C36 C 0.76901 -0.07989 0.58741
 O37 O 0.43935 0.21357 0.06793
 O38 O 0.56214 0.19440 -0.03803
 O39 O 0.55346 0.20996 0.07815
 O40 O 0.44521 0.19240 -0.04786
 O41 O 0.44636 0.28995 -0.06380
 O42 O 0.55567 0.30761 0.06257
 O43 O 0.56360 0.29178 -0.05493
 O44 O 0.44200 0.31121 0.05228
 Cu45 Cu 0.49978 0.19265 0.01585
 Cu46 Cu 0.50235 0.30989 -0.00347
 C47 C 0.42080 0.26581 0.07905
 C48 C 0.58466 0.24013 -0.06317
 C49 C 0.57218 0.26175 0.09244
 C50 C 0.42593 0.23813 -0.07573
 O51 O 0.54564 0.80082 0.04237
 O52 O 0.44895 0.79035 -0.09588
 O53 O 0.43097 0.80180 0.02038
 O54 O 0.56201 0.79429 -0.07372
 O55 O 0.56329 0.69583 -0.06505
 O56 O 0.42935 0.70339 0.02952
 O57 O 0.44838 0.69195 -0.08663
 O58 O 0.54284 0.70229 0.05008
 Cu59 Cu 0.49674 0.80675 -0.02742
 Cu60 Cu 0.49567 0.68839 -0.01746
 C61 C 0.56087 0.75275 0.06918
 C62 C 0.43261 0.73897 -0.11457
 C63 C 0.40780 0.75435 0.04096
 C64 C 0.58553 0.74438 -0.08469
 O65 O 0.04321 0.45411 0.19580
 O66 O -0.07924 0.56348 0.19634
 O67 O 0.03473 0.56969 0.17980
 O68 O -0.07214 0.44868 0.20870
 O69 O -0.06046 0.46229 0.30798
 O70 O 0.04936 0.58125 0.27900
 O71 O -0.06413 0.57655 0.29531
 O72 O 0.05480 0.46643 0.29524
 Cu73 Cu -0.01937 0.50747 0.18508
 Cu74 Cu -0.00338 0.52255 0.30434
 C75 C 0.06985 0.44221 0.24587
 C76 C -0.09248 0.58820 0.24631
 C77 C 0.05985 0.59624 0.22445
 C78 C -0.08592 0.43637 0.26303
 O79 O 0.08052 0.54527 0.78502
 O80 O -0.03762 0.43528 0.81691
 O81 O 0.07449 0.43101 0.80025
 O82 O -0.03233 0.55234 0.80735
 O83 O -0.05277 0.54366 0.70886
 O84 O 0.05678 0.42144 0.70124
 O85 O -0.05619 0.42692 0.71798
 O86 O 0.06040 0.53728 0.68636
 Cu87 Cu 0.02271 0.49245 0.81234
 Cu88 Cu -0.00005 0.48180 0.69362
 C89 C 0.09095 0.55919 0.73014
 C90 C -0.06545 0.41097 0.77241
 C91 C 0.08354 0.40519 0.75004
 C92 C -0.06039 0.56902 0.75980
 C93 C 0.34098 0.22417 0.15837
 C94 C 0.36165 0.24837 0.22141
 C95 C 0.30715 0.28939 0.22132
 C96 C 0.28582 0.26548 0.15900
 C97 C 0.34274 0.33975 0.19101
 C98 C 0.39717 0.29848 0.19019
 C99 C 0.37656 0.27436 0.12775
 C100 C 0.32233 0.31568 0.12759
 H101 H 0.34048 0.17646 0.14461
 H102 H 0.38105 0.21983 0.25775
 H103 H 0.23962 0.25209 0.14665
 H104 H 0.34473 0.38721 0.20550
 H105 H 0.44290 0.31290 0.20268
 H106 H 0.30673 0.34334 0.08851
 C107 C 0.57928 0.73259 0.18662
 C108 C 0.63304 0.69063 0.19188
 C109 C 0.66953 0.74137 0.22160
 C110 C 0.61582 0.78343 0.21744
 C111 C 0.69148 0.76270 0.15946
 C112 C 0.65450 0.71185 0.12894
 C113 C 0.60077 0.75363 0.12414
 C114 C 0.63694 0.80476 0.15393
 H115 H 0.53284 0.72031 0.19730
 H116 H 0.63123 0.64368 0.20817
 H117 H 0.59828 0.81378 0.25241
 H118 H 0.73794 0.77494 0.14891
 H119 H 0.66994 0.68236 0.09197
 H120 H 0.63791 0.85178 0.13783
 C121 C 0.67057 0.28269 -0.13599
 C122 C 0.73048 0.26324 -0.10647
 C123 C 0.73822 0.21881 -0.15916
 C124 C 0.67923 0.23812 -0.18924
 C125 C 0.70682 0.16934 -0.12304
 C126 C 0.69808 0.21392 -0.07042
 C127 C 0.63890 0.23315 -0.10016
 C128 C 0.64686 0.18868 -0.15257
 H129 H 0.65522 0.32947 -0.14105
 H130 H 0.76283 0.29489 -0.08545
 H131 H 0.67150 0.24842 -0.23820
 H132 H 0.72258 0.12281 -0.11700
 H133 H 0.70526 0.20393 -0.02127
 H134 H 0.61201 0.15801 -0.17105
 C135 C 0.32729 0.71799 -0.16768
 C136 C 0.31552 0.76397 -0.21952
 C137 C 0.32455 0.71396 -0.26627
 C138 C 0.33586 0.66786 -0.21520
 C139 C 0.39130 0.72821 -0.26887
 C140 C 0.38294 0.77851 -0.22118
 C141 C 0.39386 0.73264 -0.17004
 C142 C 0.40275 0.68278 -0.21696
 H143 H 0.30131 0.71385 -0.12547
 H144 H 0.27943 0.79736 -0.22021
 H145 H 0.31862 0.62174 -0.20993
 H146 H 0.41822 0.73074 -0.31054
 H147 H 0.40286 0.82397 -0.22327
 H148 H 0.43911 0.64962 -0.21557
 C149 C 0.14903 0.36439 0.19666
 C150 C 0.21142 0.38778 0.21701
 C151 C 0.21665 0.33474 0.26155
 C152 C 0.15544 0.31052 0.24126
 C153 C 0.18918 0.37172 0.31245
 C154 C 0.18305 0.42479 0.26792
 C155 C 0.12152 0.40113 0.24786
 C156 C 0.12714 0.34816 0.29224
 H157 H 0.13195 0.36184 0.14893
 H158 H 0.24411 0.40600 0.18483
 H159 H 0.14458 0.26328 0.23013
 H160 H 0.20645 0.37494 0.36007
 H161 H 0.19398 0.47208 0.27891
 H162 H 0.09199 0.33237 0.32318
 C163 C 0.13800 0.66777 0.70423
 C164 C 0.19329 0.67744 0.74666
 C165 C 0.23319 0.66874 0.69151
 C166 C 0.17881 0.65983 0.64871
 C167 C 0.23637 0.60110 0.70327
 C168 C 0.19592 0.60919 0.75876
 C169 C 0.14139 0.60024 0.71650
 C170 C 0.18132 0.59184 0.66129
 H171 H 0.09690 0.69472 0.70468
 H172 H 0.19774 0.71290 0.78174
 H173 H 0.16939 0.67951 0.60326
 H174 H 0.27700 0.57352 0.70178
 H175 H 0.20272 0.58787 0.80404
 H176 H 0.17606 0.55622 0.62641
 C177 C -0.17054 0.67073 0.20025
 C178 C -0.23347 0.64599 0.21390
 C179 C -0.23971 0.69446 0.26313
 C180 C -0.17787 0.71994 0.24952
 C181 C -0.21369 0.65231 0.31188
 C182 C -0.20654 0.60387 0.26271
 C183 C -0.14449 0.62882 0.24929
 C184 C -0.15109 0.67718 0.29839
 H185 H -0.15233 0.67786 0.15420
 H186 H -0.26539 0.63064 0.17815
 H187 H -0.16620 0.76784 0.24377
 H188 H -0.23209 0.64445 0.35773
 H189 H -0.21846 0.55601 0.26752
 H190 H -0.11678 0.68968 0.33319
 C191 C -0.14000 0.32591 0.73221
 C192 C -0.11632 0.26614 0.75820
 C193 C -0.17095 0.26234 0.79895
 C194 C -0.19509 0.32148 0.77327
 C195 C -0.13719 0.29547 0.85048
 C196 C -0.08259 0.30025 0.80936
 C197 C -0.10627 0.35948 0.78347
 C198 C -0.16054 0.35573 0.82457
 H199 H -0.14108 0.33863 0.68331
 H200 H -0.09527 0.23158 0.73008
 H201 H -0.24151 0.33017 0.75826
 H202 H -0.13493 0.28195 0.89913
 H203 H -0.03633 0.29210 0.82515
 H204 H -0.17817 0.39303 0.85190
 C205 C 0.26153 0.20656 0.40050
 C206 C 0.30685 0.21616 0.34971
 C207 C 0.25809 0.24444 0.30945
 C208 C 0.21267 0.23605 0.36036
 C209 C 0.24126 0.18352 0.28162
 C210 C 0.29024 0.15452 0.32215
 C211 C 0.24502 0.14545 0.37287
 C212 C 0.19585 0.17388 0.33316
 H213 H 0.26974 0.21543 0.44972
 H214 H 0.35226 0.23434 0.35784
 H215 H 0.18020 0.26832 0.37784
 H216 H 0.23259 0.17382 0.23269
 H217 H 0.32227 0.12061 0.30669
 H218 H 0.15008 0.15600 0.32689
 C219 C 0.81693 0.16121 0.66100
 C220 C 0.76707 0.19843 0.69003
 C221 C 0.78459 0.17241 0.75267
 C222 C 0.83444 0.13563 0.72460
 C223 C 0.74066 0.11987 0.74405
 C224 C 0.72303 0.14541 0.68056
 C225 C 0.77293 0.10907 0.65209
 C226 C 0.79033 0.08316 0.71479
 H227 H 0.84834 0.17775 0.62644
 H228 H 0.75692 0.24575 0.67939
 H229 H 0.88008 0.13044 0.74367
 H230 H 0.70857 0.10072 0.77635
 H231 H 0.67704 0.14917 0.66199
 H232 H 0.79995 0.03540 0.72425
 C233 C 0.27421 -0.14470 0.64516
 C234 C 0.22783 -0.19481 0.65765
 C235 C 0.27536 -0.24142 0.64383
 C236 C 0.32175 -0.19220 0.63187
 C237 C 0.25677 -0.24233 0.57604
 C238 C 0.20906 -0.19458 0.58906
 C239 C 0.25542 -0.14528 0.57746
 C240 C 0.30266 -0.19237 0.56399
 H241 H 0.28126 -0.10398 0.67330
 H242 H 0.19716 -0.19611 0.69650
 H243 H 0.36856 -0.18814 0.64754
 H244 H 0.25085 -0.28277 0.54729
 H245 H 0.16274 -0.19511 0.57091
 H246 H 0.33324 -0.19120 0.52501
 C247 C 0.78343 -0.15316 0.34713
 C248 C 0.76270 -0.21584 0.36860
 C249 C 0.71846 -0.21800 0.31424
 C250 C 0.73894 -0.15626 0.29202
 C251 C 0.67003 -0.19001 0.35296
 C252 C 0.71446 -0.18683 0.40734
 C253 C 0.73497 -0.12482 0.38567
 C254 C 0.69058 -0.12723 0.33153
 H255 H 0.83021 -0.13760 0.34512
 H256 H 0.79284 -0.25101 0.38611
 H257 H 0.74902 -0.14430 0.24425
 H258 H 0.62354 -0.20615 0.35618
 H259 H 0.70443 -0.19893 0.45513
 H260 H 0.66094 -0.09031 0.31684
 C261 C 0.64432 0.76198 -0.18748
 C262 C 0.69332 0.80847 -0.17130
 C263 C 0.74014 0.75968 -0.17985
 C264 C 0.69203 0.71314 -0.19646
 C265 C 0.73748 0.74274 -0.11205
 C266 C 0.68997 0.79104 -0.10353
 C267 C 0.64130 0.74488 -0.11982
 C268 C 0.68811 0.69609 -0.12788
 H269 H 0.60545 0.76981 -0.21826
 H270 H 0.69201 0.85543 -0.18703
 H271 H 0.69353 0.68123 -0.23503
 H272 H 0.77618 0.73605 -0.08076
 H273 H 0.68895 0.82291 -0.06487
 H274 H 0.68539 0.64995 -0.10950
 C275 C 0.37068 0.18698 -0.17357
 C276 C 0.30956 0.16535 -0.15058
 C277 C 0.27957 0.21459 -0.18877
 C278 C 0.33964 0.23617 -0.21256
 C279 C 0.28383 0.25822 -0.13466
 C280 C 0.31478 0.20917 -0.09649
 C281 C 0.37514 0.23077 -0.11972
 C282 C 0.34482 0.28004 -0.15772
 H283 H 0.40688 0.15772 -0.18905
 H284 H 0.29412 0.11830 -0.14675
 H285 H 0.34937 0.24738 -0.26060
 H286 H 0.24969 0.28803 -0.11615
 H287 H 0.30502 0.19807 -0.04839
 H288 H 0.35975 0.32734 -0.16034
 C289 C 0.29420 0.78065 0.05114
 C290 C 0.26185 0.73317 0.08985
 C291 C 0.25820 0.77896 0.14195
 C292 C 0.28942 0.82648 0.10323
 C293 C 0.31766 0.75801 0.16958
 C294 C 0.32246 0.71210 0.11683
 C295 C 0.35386 0.75988 0.07849
 C296 C 0.34967 0.80557 0.13043
 H297 H 0.28514 0.78982 0.00212
 H298 H 0.22716 0.70247 0.07144
 H299 H 0.27503 0.87343 0.09692
 H300 H 0.32729 0.74858 0.21841
 H301 H 0.33652 0.66491 0.12192
 H302 H 0.38626 0.83537 0.14672
 C303 C 0.58878 0.28617 0.20954
 C304 C 0.62700 0.23677 0.23940
 C305 C 0.67866 0.28187 0.24624
 C306 C 0.64041 0.33142 0.21743
 C307 C 0.70257 0.26452 0.18367
 C308 C 0.65031 0.21930 0.17597
 C309 C 0.61233 0.26893 0.14687
 C310 C 0.66374 0.31408 0.15391
 H311 H 0.54196 0.29511 0.22029
 H312 H 0.60945 0.20415 0.27257
 H313 H 0.63526 0.37737 0.23540
 H314 H 0.74935 0.25505 0.17275
 H315 H 0.65407 0.17301 0.15847
 H316 H 0.67838 0.34593 0.11836
 C317 C -0.09998 0.66125 0.82108
 C318 C -0.10177 0.71644 0.77888
 C319 C -0.16984 0.71399 0.77940
 C320 C -0.16837 0.65931 0.82203
 C321 C -0.17188 0.67376 0.72267
 C322 C -0.10296 0.67532 0.72219
 C323 C -0.10151 0.62059 0.76458
 C324 C -0.16961 0.61808 0.76517
 H325 H -0.07011 0.65622 0.86159
 H326 H -0.07424 0.75743 0.78491
 H327 H -0.19398 0.64964 0.86340
 H328 H -0.20198 0.67889 0.68240
 H329 H -0.07551 0.68139 0.68123
 H330 H -0.19708 0.57701 0.75948
 C331 C -0.13832 0.33951 0.31617
 C332 C -0.19774 0.36233 0.34163
 C333 C -0.23141 0.32800 0.29090
 C334 C -0.17308 0.30435 0.26565
 C335 C -0.22930 0.38307 0.24889
 C336 C -0.19468 0.41736 0.29929
 C337 C -0.13621 0.39427 0.27385
 C338 C -0.17027 0.35998 0.22332
 H339 H -0.10045 0.32216 0.34385
 H340 H -0.21007 0.36458 0.39023
 H341 H -0.16448 0.25761 0.25179
 H342 H -0.26471 0.40367 0.22042
 H343 H -0.20299 0.46376 0.31424
 H344 H -0.15868 0.35918 0.17444
 C345 C 0.17463 0.34529 0.79771
 C346 C 0.15096 0.28196 0.81251
 C347 C 0.18998 0.25674 0.76236
 C348 C 0.21418 0.31935 0.74738
 C349 C 0.13905 0.26361 0.71495
 C350 C 0.10005 0.28981 0.76521
 C351 C 0.12379 0.35264 0.75049
 C352 C 0.16250 0.32738 0.69999
 H353 H 0.18898 0.37932 0.83182
 H354 H 0.14586 0.26263 0.85872
 H355 H 0.26128 0.33137 0.73978
 H356 H 0.12209 0.23185 0.67999
 H357 H 0.05289 0.27772 0.77201
 H358 H 0.16674 0.34653 0.65360
 C359 C 0.07803 0.70689 0.18643
 C360 C 0.11597 0.74073 0.23476
 C361 C 0.16828 0.74115 0.19070
 C362 C 0.13035 0.70833 0.14207
 C363 C 0.19131 0.68168 0.21663
 C364 C 0.13849 0.68051 0.26096
 C365 C 0.10073 0.64739 0.21247
 C366 C 0.15270 0.64788 0.16821
 H367 H 0.03111 0.71670 0.17406
 H368 H 0.09802 0.77680 0.26323
 H369 H 0.12618 0.72068 0.09320
 H370 H 0.23803 0.67132 0.22915
 H371 H 0.14156 0.66876 0.31006
 H372 H 0.16723 0.60919 0.14088
 C373 C 0.78770 -0.19087 0.63450
 C374 C 0.83733 -0.18457 0.68439
 C375 C 0.79024 -0.19416 0.73336
 C376 C 0.74090 -0.20126 0.68453
 C377 C 0.77995 -0.12649 0.73716
 C378 C 0.82617 -0.11653 0.68731
 C379 C 0.77670 -0.12332 0.63843
 C380 C 0.73024 -0.13298 0.68780
 H381 H 0.79091 -0.21680 0.59165
 H382 H 0.88194 -0.20467 0.68195
 H383 H 0.70587 -0.23635 0.68314
 H384 H 0.77840 -0.09950 0.77945
 H385 H 0.86104 -0.08121 0.68797
 H386 H 0.68616 -0.11134 0.68909
 C387 C 0.28421 -0.14107 0.29908
 C388 C 0.23849 -0.19324 0.29329
 C389 C 0.21890 -0.16914 0.23049
 C390 C 0.26458 -0.11756 0.23515
 C391 C 0.17142 -0.12984 0.25908
 C392 C 0.19089 -0.15363 0.32262
 C393 C 0.23644 -0.10226 0.32787
 C394 C 0.21708 -0.07830 0.26498
 H395 H 0.33075 -0.14516 0.31594
 H396 H 0.24755 -0.24050 0.30529
 H397 H 0.29578 -0.10062 0.20077
 H398 H 0.12520 -0.12415 0.24182
 H399 H 0.16051 -0.16813 0.35904
 H400 H 0.20843 -0.03069 0.25394
 C401 C 0.69624 0.14551 0.34718
 C402 C 0.67807 0.20663 0.37386
 C403 C 0.72674 0.23699 0.33652
 C404 C 0.74491 0.17681 0.30926
 C405 C 0.77173 0.23002 0.38978
 C406 C 0.72314 0.19864 0.42709
 C407 C 0.74118 0.13826 0.40020
 C408 C 0.79001 0.16884 0.36317
 H409 H 0.66520 0.11026 0.33019
 H410 H 0.63212 0.22304 0.37886
 H411 H 0.75415 0.16808 0.26066
 H412 H 0.80390 0.26266 0.40942
 H413 H 0.71415 0.20704 0.47585
 H414 H 0.83620 0.15279 0.35914
 C415 C 0.22779 0.07760 0.68310
 C416 C 0.27844 0.11408 0.71429
 C417 C 0.23604 0.16739 0.71931
 C418 C 0.18543 0.13093 0.68925
 C419 C 0.25525 0.19206 0.65744
 C420 C 0.29768 0.13802 0.65116
 C421 C 0.24679 0.10188 0.62095
 C422 C 0.20456 0.15510 0.62649
 H423 H 0.21659 0.03022 0.69306
 H424 H 0.30964 0.09554 0.74891
 H425 H 0.13932 0.12766 0.70573
 H426 H 0.26646 0.23940 0.64747
 H427 H 0.34393 0.14036 0.63496
 H428 H 0.17414 0.17145 0.58981
   
