data_POSCAR
  _audit_creation_date              2014-09-24
  _audit_creation_method            'ToBaCCo'
  _symmetry_space_group_name_H-M    'P1'
  _symmetry_Int_Tables_number       1
  _symmetry_cell_setting            triclinic
  loop_
  _symmetry_equiv_pos_as_xyz
 x,y,z
_cell_length_a 72.4090
_cell_length_b 41.7678
_cell_length_c 24.0862
_cell_angle_alpha 89.992400
_cell_angle_beta 89.955300
_cell_angle_gamma 90.038100
loop_
  _atom_site_label
  _atom_site_type_symbol
  _atom_site_fract_x
  _atom_site_fract_y
  _atom_site_fract_z
C1 C 0.74899 0.24611 0.47218
 C2 C 0.74878 0.24552 0.52881
 C3 C 0.73402 0.26165 0.56133
 C4 C 0.76343 0.22886 0.56089
 C5 C 0.76490 0.23338 0.44005
 C6 C 0.73334 0.25936 0.43965
 C7 C 0.72989 0.29399 0.55284
 C8 C 0.71564 0.30872 0.58243
 C9 C 0.70505 0.29165 0.62234
 C10 C 0.70990 0.25909 0.63127
 C11 C 0.72413 0.24452 0.60136
 C12 C 0.77353 0.24565 0.60115
 C13 C 0.78798 0.23071 0.62948
 C14 C 0.79253 0.19862 0.61830
 C15 C 0.78202 0.18160 0.57909
 C16 C 0.76753 0.19652 0.55091
 C17 C 0.76201 0.20977 0.39958
 C18 C 0.77695 0.19661 0.37082
 C19 C 0.79507 0.20699 0.38179
 C20 C 0.79786 0.23128 0.42132
 C21 C 0.78290 0.24449 0.44993
 C22 C 0.71523 0.24829 0.44804
 C23 C 0.70057 0.26154 0.41821
 C24 C 0.70376 0.28586 0.37895
 C25 C 0.72196 0.29632 0.36973
 C26 C 0.73661 0.28312 0.39967
 H27 H 0.73780 0.30796 0.52331
 H28 H 0.71379 0.33402 0.57511
 H29 H 0.70221 0.24368 0.65885
 H30 H 0.72710 0.21943 0.60845
 H31 H 0.77053 0.27058 0.60954
 H32 H 0.79591 0.24454 0.65909
 H33 H 0.75963 0.18296 0.52083
 H34 H 0.74821 0.20097 0.39125
 H35 H 0.77437 0.17775 0.34098
 H36 H 0.81161 0.24018 0.42991
 H37 H 0.78537 0.26320 0.48015
 H38 H 0.71247 0.22945 0.47782
 H39 H 0.68674 0.25258 0.42550
 H40 H 0.72484 0.31522 0.34018
 H41 H 0.75049 0.29188 0.39245
 H42 H 0.78496 0.15669 0.57037
 C43 C 0.24927 0.74638 0.47114
 C44 C 0.24914 0.74582 0.52777
 C45 C 0.23444 0.76200 0.56039
 C46 C 0.26381 0.72913 0.55974
 C47 C 0.26514 0.73365 0.43885
 C48 C 0.23358 0.75966 0.43878
 C49 C 0.23037 0.79450 0.55186
 C50 C 0.21611 0.80920 0.58149
 C51 C 0.20580 0.79178 0.62070
 C52 C 0.21024 0.75946 0.63016
 C53 C 0.22446 0.74477 0.60040
 C54 C 0.27392 0.74588 0.60000
 C55 C 0.28837 0.73091 0.62832
 C56 C 0.29290 0.69881 0.61711
 C57 C 0.28238 0.68183 0.57786
 C58 C 0.26790 0.69679 0.54970
 C59 C 0.26221 0.71002 0.39846
 C60 C 0.27712 0.69682 0.36963
 C61 C 0.29525 0.70718 0.38047
 C62 C 0.29808 0.73152 0.41989
 C63 C 0.28315 0.74476 0.44856
 C64 C 0.21547 0.74868 0.44746
 C65 C 0.20077 0.76199 0.41785
 C66 C 0.20393 0.78627 0.37851
 C67 C 0.22213 0.79665 0.36898
 C68 C 0.23681 0.78339 0.39871
 H69 H 0.23819 0.80842 0.52206
 H70 H 0.21325 0.83427 0.57405
 H71 H 0.20244 0.74534 0.65971
 H72 H 0.22745 0.71971 0.60773
 H73 H 0.27094 0.77081 0.60845
 H74 H 0.29631 0.74470 0.65795
 H75 H 0.25999 0.68326 0.51962
 H76 H 0.24840 0.70123 0.39025
 H77 H 0.27451 0.67794 0.33986
 H78 H 0.31184 0.74041 0.42837
 H79 H 0.28565 0.76349 0.47874
 H80 H 0.21273 0.72987 0.47730
 H81 H 0.18695 0.75309 0.42538
 H82 H 0.22499 0.81551 0.33936
 H83 H 0.25069 0.79210 0.39126
 H84 H 0.28531 0.65691 0.56910
 C85 C 0.24913 0.25410 -0.52895
 C86 C 0.24930 0.25348 -0.47232
 C87 C 0.23362 0.24017 -0.43979
 C88 C 0.26519 0.26620 -0.44017
 C89 C 0.26382 0.27074 -0.56105
 C90 C 0.23437 0.23800 -0.56146
 C91 C 0.21555 0.25112 -0.44813
 C92 C 0.20086 0.23788 -0.41829
 C93 C 0.20383 0.21346 -0.37855
 C94 C 0.22224 0.20331 -0.36968
 C95 C 0.23686 0.21654 -0.39978
 C96 C 0.26230 0.28983 -0.39974
 C97 C 0.27723 0.30296 -0.37095
 C98 C 0.29534 0.29254 -0.38184
 C99 C 0.29814 0.26822 -0.42133
 C100 C 0.28319 0.25504 -0.44998
 C101 C 0.27382 0.25406 -0.60148
 C102 C 0.28826 0.26894 -0.63005
 C103 C 0.29312 0.30116 -0.61911
 C104 C 0.28247 0.31794 -0.57933
 C105 C 0.26800 0.30298 -0.55106
 C106 C 0.23025 0.20558 -0.55307
 C107 C 0.21597 0.19090 -0.58263
 C108 C 0.20549 0.20816 -0.62213
 C109 C 0.21021 0.24064 -0.63116
 C110 C 0.22445 0.25522 -0.60133
 H111 H 0.21282 0.27005 -0.47773
 H112 H 0.18731 0.24790 -0.42538
 H113 H 0.22552 0.18402 -0.34146
 H114 H 0.25074 0.20774 -0.39277
 H115 H 0.24851 0.29865 -0.39146
 H116 H 0.27465 0.32183 -0.34113
 H117 H 0.28565 0.23632 -0.48019
 H118 H 0.27080 0.22911 -0.60976
 H119 H 0.29611 0.25430 -0.65853
 H120 H 0.28478 0.34303 -0.57082
 H121 H 0.26007 0.31656 -0.52107
 H122 H 0.23813 0.19158 -0.52358
 H123 H 0.21376 0.16564 -0.57548
 H124 H 0.20244 0.25564 -0.65925
 H125 H 0.22743 0.28032 -0.60839
 H126 H 0.31188 0.25928 -0.42985
 C127 C -0.25077 0.75378 -0.47231
 C128 C -0.25098 0.75432 -0.52894
 C129 C -0.23632 0.77099 -0.56114
 C130 C -0.26574 0.73814 -0.56135
 C131 C -0.26642 0.74046 -0.43968
 C132 C -0.23488 0.76660 -0.44026
 C133 C -0.23220 0.80326 -0.55128
 C134 C -0.21773 0.81824 -0.57955
 C135 C -0.20705 0.80144 -0.61920
 C136 C -0.21186 0.76919 -0.63005
 C137 C -0.22629 0.75429 -0.60148
 C138 C -0.27567 0.75529 -0.60129
 C139 C -0.28990 0.74064 -0.63107
 C140 C -0.29460 0.70816 -0.62193
 C141 C -0.28410 0.69098 -0.58233
 C142 C -0.26985 0.70574 -0.55282
 C143 C -0.26314 0.71687 -0.39964
 C144 C -0.27774 0.70361 -0.36947
 C145 C -0.29616 0.71371 -0.37829
 C146 C -0.29916 0.73811 -0.41805
 C147 C -0.28450 0.75137 -0.44796
 C148 C -0.21687 0.75552 -0.45010
 C149 C -0.20193 0.76876 -0.42146
 C150 C -0.20475 0.79305 -0.38195
 C151 C -0.22287 0.80341 -0.37106
 C152 C -0.23779 0.79022 -0.39983
 H153 H -0.24016 0.81684 -0.52136
 H154 H -0.21546 0.84335 -0.57114
 H155 H -0.20398 0.75454 -0.65845
 H156 H -0.22928 0.72931 -0.60965
 H157 H -0.27271 0.78038 -0.60846
 H158 H -0.29768 0.75558 -0.65923
 H159 H -0.26195 0.69179 -0.52328
 H160 H -0.24925 0.70810 -0.39267
 H161 H -0.27443 0.68435 -0.34123
 H162 H -0.31273 0.74810 -0.42510
 H163 H -0.28725 0.77028 -0.47759
 H164 H -0.21438 0.73680 -0.48029
 H165 H -0.18818 0.75986 -0.43000
 H166 H -0.22547 0.82227 -0.34124
 H167 H -0.25160 0.79899 -0.39153
 H168 H -0.28630 0.66573 -0.57508
 O169 O -0.02553 0.94534 0.10229
 O170 O -0.04568 0.97406 0.04841
 C171 C -0.04212 0.95373 0.08763
 O172 O 0.02650 1.05898 0.09592
 O173 O 0.04668 1.02820 0.04569
 C174 C 0.04310 1.05052 0.08148
 O175 O -0.02546 1.05589 0.10112
 O176 O -0.04566 1.02685 0.04791
 C177 C -0.04206 1.04751 0.08660
 O178 O 0.02643 0.94179 0.09616
 O179 O 0.04670 0.97264 0.04612
 C180 C 0.04305 0.95026 0.08185
 Zr181 Zr 0.00049 0.95984 0.07015
 O182 O 0.00239 0.95835 0.15779
 O183 O -0.00055 0.90937 0.06487
 Zr184 Zr 0.00053 1.04092 0.06980
 O185 O 0.00261 1.04117 0.15747
 O186 O -0.00157 1.09148 0.06907
 O187 O -0.01590 1.00041 0.08092
 O188 O 0.01652 1.00039 0.08020
 O189 O 0.02650 0.94122 -0.09539
 O190 O 0.04670 0.97246 -0.04597
 C191 C 0.04310 0.94988 -0.08131
 O192 O -0.02549 1.05530 -0.10229
 O193 O -0.04566 1.02648 -0.04849
 C194 C -0.04208 1.04688 -0.08761
 O195 O 0.02650 1.05871 -0.09666
 O196 O 0.04672 1.02807 -0.04630
 C197 C 0.04310 1.05037 -0.08216
 O198 O -0.02543 0.94444 -0.10111
 O199 O -0.04565 0.97364 -0.04815
 C200 C -0.04204 0.95289 -0.08671
 Zr201 Zr 0.00053 0.95961 -0.06999
 O202 O 0.00266 0.95957 -0.15767
 O203 O -0.00123 0.90904 -0.06942
 Zr204 Zr 0.00053 1.04063 -0.07063
 O205 O 0.00270 1.04047 -0.15828
 O206 O -0.00164 1.09117 -0.07077
 Zr207 Zr -0.02687 1.00026 -0.00012
 Zr208 Zr 0.02793 1.00032 -0.00013
 O209 O 0.01657 1.00011 -0.08050
 O210 O -0.01590 1.00007 -0.08121
 O211 O 0.01699 0.95359 0.00018
 O212 O -0.01551 1.04663 -0.00044
 O213 O -0.01560 0.95389 0.00019
 O214 O 0.01698 1.04707 -0.00046
 H215 H 0.02488 1.00040 0.11274
 H216 H -0.02395 1.06530 -0.00061
 H217 H 0.02500 1.00001 -0.11292
 H218 H -0.02406 0.93522 0.00041
 H219 H 0.00887 1.09982 0.04688
 H220 H 0.00866 1.09964 -0.04817
 H221 H -0.00749 1.02712 -0.17280
 H222 H -0.00775 0.97236 -0.17231
 H223 H 0.00731 0.90129 -0.04032
 H224 H -0.00054 0.90145 0.10365
 H225 H -0.00679 0.97368 0.17252
 H226 H -0.00772 1.02818 0.17218
 O227 O 0.47455 0.44495 0.10165
 O228 O 0.45442 0.47370 0.04776
 C229 C 0.45797 0.45335 0.08697
 O230 O 0.52659 0.55858 0.09557
 O231 O 0.54679 0.52782 0.04533
 C232 C 0.54319 0.55013 0.08115
 O233 O 0.47464 0.55550 0.10060
 O234 O 0.45445 0.52648 0.04731
 C235 C 0.45804 0.54713 0.08603
 O236 O 0.52652 0.44139 0.09559
 O237 O 0.54680 0.47227 0.04565
 C238 C 0.54314 0.44986 0.08132
 Zr239 Zr 0.50059 0.45945 0.06957
 O240 O 0.50246 0.45792 0.15721
 O241 O 0.49954 0.40899 0.06422
 Zr242 Zr 0.50063 0.54054 0.06934
 O243 O 0.50268 0.54073 0.15702
 O244 O 0.49853 0.59109 0.06867
 O245 O 0.48420 0.50003 0.08036
 O246 O 0.51662 0.50000 0.07971
 O247 O 0.52664 0.44091 -0.09595
 O248 O 0.54683 0.47213 -0.04644
 C249 C 0.54324 0.44956 -0.08182
 O250 O 0.47465 0.55501 -0.10279
 O251 O 0.45447 0.52616 -0.04908
 C252 C 0.45805 0.54658 -0.08817
 O253 O 0.52664 0.55841 -0.09700
 O254 O 0.54685 0.52774 -0.04666
 C255 C 0.54324 0.55006 -0.08248
 O256 O 0.47471 0.44413 -0.10175
 O257 O 0.45448 0.47332 -0.04880
 C258 C 0.45810 0.45257 -0.08736
 Zr259 Zr 0.50067 0.45929 -0.07058
 O260 O 0.50281 0.45931 -0.15825
 O261 O 0.49891 0.40872 -0.07010
 Zr262 Zr 0.50066 0.54031 -0.07109
 O263 O 0.50286 0.54018 -0.15874
 O264 O 0.49849 0.59085 -0.07120
 Zr265 Zr 0.47324 0.49992 -0.00070
 Zr266 Zr 0.52805 0.49996 -0.00059
 O267 O 0.51671 0.49979 -0.08098
 O268 O 0.48424 0.49976 -0.08177
 O269 O 0.51710 0.45324 -0.00037
 O270 O 0.48460 0.54628 -0.00093
 O271 O 0.48451 0.45354 -0.00043
 O272 O 0.51710 0.54672 -0.00088
 H273 H 0.52497 0.49999 0.11227
 H274 H 0.47617 0.56495 -0.00110
 H275 H 0.52515 0.49972 -0.11339
 H276 H 0.47606 0.43488 -0.00025
 H277 H 0.50899 0.59944 0.04654
 H278 H 0.50877 0.59932 -0.04850
 H279 H 0.49266 0.52685 -0.17330
 H280 H 0.49240 0.47209 -0.17289
 H281 H 0.50743 0.40096 -0.04096
 H282 H 0.49954 0.40105 0.10299
 H283 H 0.49329 0.47325 0.17195
 H284 H 0.49235 0.52775 0.17168
 C285 C 0.33298 0.35615 0.35121
 C286 C 0.33893 0.34479 0.29970
 C287 C 0.32964 0.31932 0.27461
 C288 C 0.31452 0.30506 0.30097
 C289 C 0.30829 0.31601 0.35337
 C290 C 0.31785 0.34204 0.37776
 C291 C 0.35462 0.35915 0.27269
 C292 C 0.36777 0.37108 0.24999
 C293 C 0.38315 0.38501 0.22321
 C294 C 0.39624 0.39690 0.20009
 C295 C 0.41177 0.41116 0.17208
 C296 C 0.42979 0.40190 0.18566
 C297 C 0.44485 0.41562 0.15811
 C298 C 0.44208 0.43880 0.11650
 C299 C 0.42389 0.44797 0.10331
 C300 C 0.40887 0.43423 0.13093
 H301 H 0.34017 0.37575 0.37124
 H302 H 0.33403 0.31051 0.23440
 H303 H 0.30745 0.28620 0.27878
 H304 H 0.31434 0.35090 0.41860
 H305 H 0.43219 0.38404 0.21747
 H306 H 0.45865 0.40801 0.16933
 H307 H 0.42121 0.46578 0.07163
 H308 H 0.39498 0.44158 0.12010
 C309 C -0.16720 0.85647 0.35128
 C310 C -0.16120 0.84506 0.29986
 C311 C -0.17045 0.81956 0.27475
 C312 C -0.18558 0.80530 0.30102
 C313 C -0.19187 0.81630 0.35334
 C314 C -0.18234 0.84236 0.37775
 C315 C -0.14549 0.85942 0.27295
 C316 C -0.13232 0.87136 0.25034
 C317 C -0.11693 0.88530 0.22367
 C318 C -0.10384 0.89721 0.20062
 C319 C -0.08831 0.91150 0.17269
 C320 C -0.07029 0.90224 0.18627
 C321 C -0.05523 0.91598 0.15875
 C322 C -0.05801 0.93917 0.11717
 C323 C -0.07620 0.94836 0.10399
 C324 C -0.09121 0.93460 0.13157
 H325 H -0.16003 0.87609 0.37133
 H326 H -0.16602 0.81073 0.23459
 H327 H -0.19262 0.78642 0.27883
 H328 H -0.18589 0.85124 0.41853
 H329 H -0.06789 0.88436 0.21805
 H330 H -0.04143 0.90837 0.16995
 H331 H -0.07887 0.96617 0.07233
 H332 H -0.10510 0.94194 0.12075
 C333 C 0.66636 0.65255 0.34279
 C334 C 0.66073 0.66458 0.29143
 C335 C 0.66995 0.69077 0.26833
 C336 C 0.68467 0.70505 0.29653
 C337 C 0.69058 0.69339 0.34880
 C338 C 0.68109 0.66668 0.37118
 C339 C 0.64543 0.65016 0.26262
 C340 C 0.63257 0.63807 0.23872
 C341 C 0.61748 0.62384 0.21102
 C342 C 0.60458 0.61157 0.18761
 C343 C 0.58917 0.59671 0.16001
 C344 C 0.59223 0.57354 0.11910
 C345 C 0.57729 0.55857 0.09311
 C346 C 0.55903 0.56659 0.10775
 C347 C 0.55611 0.59014 0.14863
 C348 C 0.57109 0.60506 0.17456
 H349 H 0.65921 0.63240 0.36131
 H350 H 0.66580 0.70011 0.22826
 H351 H 0.69173 0.72448 0.27580
 H352 H 0.68434 0.65724 0.41179
 H353 H 0.60617 0.56689 0.10751
 H354 H 0.58006 0.54060 0.06178
 H355 H 0.54227 0.59691 0.16092
 H356 H 0.56857 0.62297 0.20621
 C357 C 0.16637 1.15273 0.34256
 C358 C 0.16075 1.16483 0.29125
 C359 C 0.16998 1.19100 0.26819
 C360 C 0.18473 1.20520 0.29637
 C361 C 0.19065 1.19348 0.34860
 C362 C 0.18113 1.16678 0.37093
 C363 C 0.14542 1.15049 0.26246
 C364 C 0.13254 1.13845 0.23859
 C365 C 0.11743 1.12426 0.21094
 C366 C 0.10452 1.11201 0.18760
 C367 C 0.08910 1.09716 0.16006
 C368 C 0.09214 1.07397 0.11917
 C369 C 0.07719 1.05899 0.09326
 C370 C 0.05894 1.06701 0.10798
 C371 C 0.05603 1.09058 0.14884
 C372 C 0.07103 1.10551 0.17469
 H373 H 0.15920 1.13259 0.36104
 H374 H 0.16584 1.20039 0.22815
 H375 H 0.19181 1.22463 0.27569
 H376 H 0.18438 1.15730 0.41152
 H377 H 0.10608 1.06732 0.10753
 H378 H 0.07995 1.04101 0.06194
 H379 H 0.04219 1.09734 0.16119
 H380 H 0.06852 1.12343 0.20633
 C381 C 0.66901 0.30708 -0.27080
 C382 C 0.66080 0.33479 -0.29154
 C383 C 0.66742 0.34834 -0.34059
 C384 C 0.68214 0.33425 -0.36908
 C385 C 0.69074 0.30586 -0.34929
 C386 C 0.68372 0.29278 -0.29902
 C387 C 0.64550 0.34922 -0.26271
 C388 C 0.63265 0.36132 -0.23880
 C389 C 0.61756 0.37557 -0.21110
 C390 C 0.60466 0.38787 -0.18773
 C391 C 0.58924 0.40276 -0.16020
 C392 C 0.59229 0.42613 -0.11961
 C393 C 0.57734 0.44116 -0.09375
 C394 C 0.55908 0.43301 -0.10820
 C395 C 0.55618 0.40925 -0.14874
 C396 C 0.57117 0.39427 -0.17454
 H397 H 0.66411 0.29655 -0.23237
 H398 H 0.66101 0.36970 -0.35738
 H399 H 0.68583 0.34514 -0.40819
 H400 H 0.68992 0.27231 -0.27903
 H401 H 0.60623 0.43289 -0.10819
 H402 H 0.58011 0.45928 -0.06269
 H403 H 0.54234 0.40238 -0.16088
 H404 H 0.56866 0.37622 -0.20593
 C405 C 0.17271 0.81497 -0.26373
 C406 C 0.16061 0.83549 -0.29172
 C407 C 0.16336 0.84196 -0.34813
 C408 C 0.17811 0.82789 -0.37655
 C409 C 0.19032 0.80712 -0.34886
 C410 C 0.18747 0.80085 -0.29208
 C411 C 0.14532 0.84980 -0.26269
 C412 C 0.13247 0.86182 -0.23864
 C413 C 0.11739 0.87599 -0.21081
 C414 C 0.10449 0.88823 -0.18736
 C415 C 0.08909 0.90309 -0.15975
 C416 C 0.07101 0.89458 -0.17404
 C417 C 0.05603 0.90955 -0.14820
 C418 C 0.05894 0.93332 -0.10770
 C419 C 0.07720 0.94148 -0.09328
 C420 C 0.09214 0.92646 -0.11918
 H421 H 0.17074 0.80987 -0.22002
 H422 H 0.15404 0.85773 -0.37024
 H423 H 0.17978 0.83284 -0.42040
 H424 H 0.19675 0.78528 -0.26948
 H425 H 0.06849 0.87652 -0.20543
 H426 H 0.04218 0.90267 -0.16031
 H427 H 0.07997 0.95961 -0.06224
 H428 H 0.10608 0.93323 -0.10780
 C429 C 0.33599 0.64921 -0.35766
 C430 C 0.33919 0.65490 -0.30122
 C431 C 0.32716 0.67464 -0.27128
 C432 C 0.31203 0.68877 -0.29768
 C433 C 0.30873 0.68331 -0.35446
 C434 C 0.32086 0.66330 -0.38414
 C435 C 0.35487 0.64064 -0.27411
 C436 C 0.36801 0.62878 -0.25132
 C437 C 0.38336 0.61492 -0.22445
 C438 C 0.39643 0.60307 -0.20126
 C439 C 0.41193 0.58885 -0.17320
 C440 C 0.40898 0.56585 -0.13191
 C441 C 0.42398 0.55210 -0.10430
 C442 C 0.44219 0.56119 -0.11763
 C443 C 0.44500 0.58430 -0.15934
 C444 C 0.42996 0.59803 -0.18689
 H445 H 0.34524 0.63405 -0.38127
 H446 H 0.32948 0.67913 -0.22753
 H447 H 0.30283 0.70375 -0.27359
 H448 H 0.31884 0.65900 -0.42805
 H449 H 0.39508 0.55855 -0.12100
 H450 H 0.42127 0.53435 -0.07253
 H451 H 0.45881 0.59184 -0.17068
 H452 H 0.43240 0.61582 -0.21880
 C453 C -0.16431 1.14921 -0.35664
 C454 C -0.16109 1.15491 -0.30022
 C455 C -0.17314 1.17459 -0.27022
 C456 C -0.18830 1.18866 -0.29656
 C457 C -0.19161 1.18318 -0.35333
 C458 C -0.17947 1.16323 -0.38306
 C459 C -0.14538 1.14072 -0.27319
 C460 C -0.13222 1.12891 -0.25046
 C461 C -0.11684 1.11510 -0.22367
 C462 C -0.10375 1.10328 -0.20054
 C463 C -0.08824 1.08908 -0.17253
 C464 C -0.09117 1.06609 -0.13123
 C465 C -0.07616 1.05236 -0.10365
 C466 C -0.05796 1.06147 -0.11704
 C467 C -0.05516 1.08457 -0.15878
 C468 C -0.07021 1.09828 -0.18628
 H469 H -0.15504 1.13409 -0.38030
 H470 H -0.17080 1.17909 -0.22648
 H471 H -0.19751 1.20360 -0.27244
 H472 H -0.18150 1.15893 -0.42697
 H473 H -0.10506 1.05878 -0.12027
 H474 H -0.07885 1.03461 -0.07187
 H475 H -0.04136 1.09212 -0.17015
 H476 H -0.06780 1.11607 -0.21821
 C477 C 0.65617 0.68514 -0.34186
 C478 C 0.65925 0.67062 -0.29048
 C479 C 0.67696 0.67066 -0.26767
 C480 C 0.69162 0.68496 -0.29623
 C481 C 0.68889 0.69965 -0.34858
 C482 C 0.67076 0.69953 -0.37060
 C483 C 0.64425 0.65535 -0.26149
 C484 C 0.63167 0.64241 -0.23755
 C485 C 0.61689 0.62713 -0.20997
 C486 C 0.60420 0.61401 -0.18688
 C487 C 0.58894 0.59830 -0.15992
 C488 C 0.57082 0.60630 -0.17439
 C489 C 0.55595 0.59074 -0.14904
 C490 C 0.55901 0.56687 -0.10880
 C491 C 0.57731 0.55912 -0.09432
 C492 C 0.59216 0.57474 -0.11976
 H493 H 0.64250 0.68500 -0.36015
 H494 H 0.67947 0.65970 -0.22760
 H495 H 0.70489 0.68529 -0.27576
 H496 H 0.66775 0.70918 -0.41124
 H497 H 0.56818 0.62449 -0.20546
 H498 H 0.54207 0.59733 -0.16119
 H499 H 0.58018 0.54093 -0.06348
 H500 H 0.60614 0.56836 -0.10827
 C501 C 0.15612 1.18505 -0.34218
 C502 C 0.15916 1.17050 -0.29081
 C503 C 0.17688 1.17046 -0.26800
 C504 C 0.19156 1.18470 -0.29653
 C505 C 0.18885 1.19943 -0.34887
 C506 C 0.17072 1.19939 -0.37090
 C507 C 0.14414 1.15529 -0.26181
 C508 C 0.13155 1.14241 -0.23784
 C509 C 0.11676 1.12720 -0.21020
 C510 C 0.10406 1.11413 -0.18703
 C511 C 0.08880 1.09847 -0.15995
 C512 C 0.09202 1.07495 -0.11972
 C513 C 0.07717 1.05938 -0.09416
 C514 C 0.05887 1.06714 -0.10859
 C515 C 0.05580 1.09097 -0.14889
 C516 C 0.07067 1.10648 -0.17436
 H517 H 0.14245 1.18498 -0.36048
 H518 H 0.17937 1.15948 -0.22793
 H519 H 0.20483 1.18498 -0.27605
 H520 H 0.16773 1.20907 -0.41153
 H521 H 0.10601 1.06855 -0.10827
 H522 H 0.08006 1.04121 -0.06328
 H523 H 0.04192 1.09758 -0.16100
 H524 H 0.06802 1.12464 -0.20548
 C525 C 0.32509 0.32938 -0.26891
 C526 C 0.34122 0.33663 -0.29836
 C527 C 0.34246 0.32916 -0.35487
 C528 C 0.32759 0.31461 -0.38194
 C529 C 0.31126 0.30736 -0.35278
 C530 C 0.31019 0.31485 -0.29591
 C531 C 0.35647 0.35193 -0.27071
 C532 C 0.36923 0.36482 -0.24767
 C533 C 0.38419 0.37992 -0.22078
 C534 C 0.39699 0.39278 -0.19786
 C535 C 0.41231 0.40802 -0.17050
 C536 C 0.43041 0.39928 -0.18402
 C537 C 0.44532 0.41384 -0.15719
 C538 C 0.44232 0.43737 -0.11632
 C539 C 0.42404 0.44608 -0.10320
 C540 C 0.40916 0.43148 -0.13014
 H541 H 0.32401 0.33499 -0.22511
 H542 H 0.35487 0.33476 -0.37809
 H543 H 0.32873 0.30956 -0.42590
 H544 H 0.29789 0.30923 -0.27222
 H545 H 0.43301 0.38115 -0.21523
 H546 H 0.45919 0.40656 -0.16835
 H547 H 0.42120 0.46413 -0.07207
 H548 H 0.39519 0.43844 -0.11938
 C549 C -0.17506 0.82989 -0.26888
 C550 C -0.15891 0.83717 -0.29825
 C551 C -0.15765 0.82973 -0.35478
 C552 C -0.17251 0.81518 -0.38192
 C553 C -0.18884 0.80790 -0.35283
 C554 C -0.18994 0.81537 -0.29595
 C555 C -0.14367 0.85245 -0.27051
 C556 C -0.13091 0.86531 -0.24738
 C557 C -0.11596 0.88038 -0.22039
 C558 C -0.10316 0.89320 -0.19738
 C559 C -0.08784 0.90840 -0.16994
 C560 C -0.06974 0.89964 -0.18343
 C561 C -0.05482 0.91417 -0.15655
 C562 C -0.05783 0.93770 -0.11567
 C563 C -0.07611 0.94642 -0.10257
 C564 C -0.09099 0.93185 -0.12955
 H565 H -0.17615 0.83548 -0.22507
 H566 H -0.14524 0.83534 -0.37795
 H567 H -0.17134 0.81014 -0.42589
 H568 H -0.20224 0.80972 -0.27230
 H569 H -0.06715 0.88152 -0.21466
 H570 H -0.04096 0.90688 -0.16770
 H571 H -0.07894 0.96446 -0.07142
 H572 H -0.10495 0.93883 -0.11881
 C573 C 0.32498 0.67019 0.26758
 C574 C 0.34109 0.66290 0.29703
 C575 C 0.34230 0.67038 0.35354
 C576 C 0.32745 0.68498 0.38060
 C577 C 0.31115 0.69227 0.35143
 C578 C 0.31009 0.68477 0.29457
 C579 C 0.35633 0.64758 0.26938
 C580 C 0.36910 0.63469 0.24634
 C581 C 0.38406 0.61960 0.21946
 C582 C 0.39687 0.60676 0.19654
 C583 C 0.41220 0.59155 0.16918
 C584 C 0.40907 0.56820 0.12862
 C585 C 0.42397 0.55364 0.10168
 C586 C 0.44224 0.56228 0.11500
 C587 C 0.44523 0.58570 0.15607
 C588 C 0.43030 0.60022 0.18291
 H589 H 0.32391 0.66457 0.22378
 H590 H 0.35469 0.66475 0.37677
 H591 H 0.32858 0.69004 0.42456
 H592 H 0.29782 0.69042 0.27087
 H593 H 0.39511 0.56129 0.11771
 H594 H 0.42115 0.53568 0.07039
 H595 H 0.45908 0.59293 0.16738
 H596 H 0.43288 0.61827 0.21427
 C597 C -0.15783 1.17034 0.35482
 C598 C -0.15902 1.16293 0.29828
 C599 C -0.17514 1.17020 0.26883
 C600 C -0.19004 1.18471 0.29584
 C601 C -0.18900 1.19215 0.35273
 C602 C -0.17271 1.18487 0.38191
 C603 C -0.14376 1.14767 0.27059
 C604 C -0.13099 1.13484 0.24749
 C605 C -0.11602 1.11981 0.22050
 C606 C -0.10321 1.10701 0.19749
 C607 C -0.08788 1.09185 0.17001
 C608 C -0.06978 1.10055 0.18363
 C609 C -0.05486 1.08606 0.15670
 C610 C -0.05785 1.06265 0.11563
 C611 C -0.07613 1.05398 0.10241
 C612 C -0.09102 1.06850 0.12944
 H613 H -0.14544 1.16472 0.37805
 H614 H -0.17619 1.16464 0.22501
 H615 H -0.20232 1.19036 0.27214
 H616 H -0.17159 1.18988 0.42589
 H617 H -0.06720 1.11860 0.21500
 H618 H -0.04100 1.09331 0.16795
 H619 H -0.07896 1.03602 0.07112
 H620 H -0.10498 1.06157 0.11861
 C621 C 0.67527 0.32238 0.26285
 C622 C 0.65878 0.32953 0.29056
 C623 C 0.65691 0.32208 0.34693
 C624 C 0.67148 0.30767 0.37560
 C625 C 0.68815 0.30054 0.34820
 C626 C 0.68986 0.30798 0.29144
 C627 C 0.64386 0.34481 0.26137
 C628 C 0.63133 0.35774 0.23728
 C629 C 0.61661 0.37300 0.20954
 C630 C 0.60396 0.38610 0.18631
 C631 C 0.58874 0.40177 0.15920
 C632 C 0.57059 0.39367 0.17342
 C633 C 0.55576 0.40918 0.14792
 C634 C 0.55888 0.43310 0.10779
 C635 C 0.57720 0.44095 0.09355
 C636 C 0.59202 0.42537 0.11914
 H637 H 0.67685 0.32798 0.21918
 H638 H 0.64423 0.32762 0.36883
 H639 H 0.66983 0.30263 0.41943
 H640 H 0.70243 0.30243 0.26907
 H641 H 0.56791 0.37544 0.20441
 H642 H 0.54186 0.40251 0.15988
 H643 H 0.58012 0.45918 0.06280
 H644 H 0.60602 0.43183 0.10784
 C645 C 0.15706 0.82266 0.34714
 C646 C 0.15885 0.83006 0.29072
 C647 C 0.17528 0.82283 0.26278
 C648 C 0.18991 0.80841 0.29118
 C649 C 0.18828 0.80100 0.34798
 C650 C 0.17167 0.80821 0.37561
 C651 C 0.14388 0.84534 0.26170
 C652 C 0.13133 0.85827 0.23771
 C653 C 0.11658 0.87352 0.21005
 C654 C 0.10392 0.88660 0.18686
 C655 C 0.08868 0.90225 0.15977
 C656 C 0.09194 0.92583 0.11965
 C657 C 0.07712 0.94137 0.09405
 C658 C 0.05880 0.93352 0.10833
 C659 C 0.05569 0.90963 0.14852
 C660 C 0.07054 0.89415 0.17403
 H661 H 0.14443 0.82824 0.36922
 H662 H 0.17679 0.82839 0.21907
 H663 H 0.20243 0.80280 0.26862
 H664 H 0.17008 0.80321 0.41948
 H665 H 0.10594 0.93229 0.10830
 H666 H 0.08002 0.95959 0.06324
 H667 H 0.04180 0.90296 0.16053
 H668 H 0.06786 0.87594 0.20507
   
