data_POSCAR
  _audit_creation_date              2014-09-24
  _audit_creation_method            'ToBaCCo'
  _symmetry_space_group_name_H-M    'P1'
  _symmetry_Int_Tables_number       1
  _symmetry_cell_setting            triclinic
  loop_
  _symmetry_equiv_pos_as_xyz
 x,y,z
_cell_length_a 12.9002
_cell_length_b 12.9002
_cell_length_c 33.0962
_cell_angle_alpha 89.778600
_cell_angle_beta 90.221400
_cell_angle_gamma 119.719100
loop_
  _atom_site_label
  _atom_site_type_symbol
  _atom_site_fract_x
  _atom_site_fract_y
  _atom_site_fract_z
Si1 Si 0.00152 -0.00092 0.50005
 Si2 Si 0.99908 0.00152 0.16662
 Si3 Si 0.00187 1.00187 0.83333
 O4 O 0.43357 0.07594 0.03781
 O5 O 0.63493 0.07468 -0.03978
 O6 O 0.45903 0.12543 -0.03988
 O7 O 0.65874 0.12457 0.03770
 O8 O 0.56211 -0.07227 0.03808
 O9 O 0.35987 -0.07135 -0.03980
 O10 O 0.53572 -0.12211 -0.03945
 O11 O 0.33691 -0.12090 0.03778
 Cu12 Cu 0.55518 0.11751 -0.00108
 Cu13 Cu 0.44001 -0.11400 -0.00085
 C14 C 0.34882 -0.02373 0.05080
 C15 C 0.62066 -0.02517 -0.05253
 C16 C 0.37397 0.02843 -0.05283
 C17 C 0.64707 0.02743 0.05092
 O18 O 0.07594 0.43357 0.62886
 O19 O 0.07468 0.63493 0.70644
 O20 O 0.12543 0.45903 0.70654
 O21 O 0.12457 0.65875 0.62896
 O22 O -0.07227 0.56211 0.62859
 O23 O -0.07135 0.35987 0.70647
 O24 O -0.12211 0.53572 0.70612
 O25 O -0.12090 0.33691 0.62889
 Cu26 Cu 0.11751 0.55518 0.66775
 Cu27 Cu -0.11400 0.44001 0.66751
 C28 C -0.02373 0.34882 0.61586
 C29 C -0.02518 0.62066 0.71920
 C30 C 0.02843 0.37398 0.71950
 C31 C 0.02743 0.64707 0.61574
 O32 O 0.63891 0.56351 0.37219
 O33 O 0.43656 0.36226 0.29445
 O34 O 0.66112 0.53886 0.29461
 O35 O 0.46230 0.33894 0.37202
 O36 O 0.36226 0.43656 0.37222
 O37 O 0.56351 0.63891 0.29448
 O38 O 0.33894 0.46231 0.29464
 O39 O 0.53885 0.66112 0.37205
 Cu40 Cu 0.55850 0.44210 0.33332
 Cu41 Cu 0.44210 0.55850 0.33335
 C42 C 0.62433 0.64887 0.38504
 C43 C 0.35102 0.37704 0.28162
 C44 C 0.64887 0.62433 0.28162
 C45 C 0.37704 0.35102 0.38505
 C46 C -0.02271 0.10315 0.53645
 C47 C 0.10062 0.20730 0.54857
 C48 C 0.09914 0.28773 0.57386
 C49 C -0.02581 0.25911 0.58634
 C50 C -0.09282 0.24602 0.54640
 C51 C -0.09272 0.16317 0.52064
 C52 C -0.08379 0.04977 0.57723
 C53 C -0.08412 0.13130 0.60338
 H54 H 0.18477 0.21379 0.54140
 H55 H 0.18130 0.36121 0.58570
 H56 H -0.14188 0.29244 0.53998
 H57 H -0.14447 0.13714 0.49288
 H58 H -0.12858 -0.04429 0.58456
 H59 H -0.12654 0.10615 0.63281
 C60 C 0.89530 0.87290 0.20290
 C61 C 0.79039 0.89166 0.21485
 C62 C 0.70972 0.80914 0.23989
 C63 C 0.73898 0.71272 0.25237
 C64 C 0.75346 0.66044 0.21244
 C65 C 0.83651 0.74391 0.18692
 C66 C 0.94820 0.86398 0.24378
 C67 C 0.86647 0.78146 0.26972
 H68 H 0.78373 0.96955 0.20787
 H69 H 0.63578 0.81753 0.25166
 H70 H 0.70785 0.56559 0.20587
 H71 H 0.86350 0.71925 0.15922
 H72 H 1.04210 0.91325 0.25135
 H73 H 0.89123 0.76344 0.29922
 C74 C 0.12419 0.02589 -0.13206
 C75 C 0.25314 0.09517 -0.14820
 C76 C 0.33705 0.09567 -0.12255
 C77 C 0.28542 0.03052 -0.08227
 C78 C 0.21680 0.09029 -0.06547
 C79 C 0.13391 0.08937 -0.09159
 C80 C 0.10607 -0.09705 -0.11911
 C81 C 0.18910 -0.09471 -0.09402
 H82 H 0.27759 0.14598 -0.17616
 H83 H 0.43182 0.14420 -0.12925
 H84 H 0.23581 0.13465 -0.03637
 H85 H 0.08601 0.13594 -0.08447
 H86 H 0.02767 -0.18150 -0.12495
 H87 H 0.18038 -0.17649 -0.08142
 C88 C 0.02609 0.89432 0.53640
 C89 C -0.09716 0.79002 0.54844
 C90 C -0.09555 0.70910 0.57369
 C91 C 0.02948 0.73737 0.58623
 C92 C 0.09614 0.75113 0.54632
 C93 C 0.09588 0.83448 0.52059
 C94 C 0.08755 0.94694 0.57722
 C95 C 0.08803 0.86490 0.60334
 H96 H -0.18134 0.78377 0.54129
 H97 H -0.17765 0.63550 0.58548
 H98 H 0.14506 0.70475 0.53990
 H99 H 0.14735 0.86096 0.49285
 H100 H 0.13245 1.04087 0.58460
 H101 H 0.13069 0.88949 0.63280
 C102 C 0.10347 0.12966 0.20287
 C103 C 0.16216 0.25886 0.18689
 C104 C 0.24557 0.34196 0.21242
 C105 C 0.26051 0.28909 0.25235
 C106 C 0.13324 0.22021 0.26969
 C107 C 0.05114 0.13808 0.24375
 C108 C 0.20848 0.11064 0.21482
 C109 C 0.28951 0.19278 0.23987
 H110 H 0.13486 0.28393 0.15918
 H111 H 0.29117 0.43689 0.20585
 H112 H 0.10888 0.23786 0.29919
 H113 H -0.04267 0.08879 0.25132
 H114 H 0.21501 0.03284 0.20781
 H115 H 0.36357 0.18417 0.25163
 C116 C 0.87137 -0.02313 -0.13052
 C117 C 0.86400 -0.08222 -0.08916
 C118 C 0.78070 -0.08309 -0.06356
 C119 C 0.70930 -0.02744 -0.08160
 C120 C 0.80321 0.09749 -0.09465
 C121 C 0.88650 0.09968 -0.11934
 C122 C 0.74221 -0.09582 -0.14643
 C123 C 0.65776 -0.09648 -0.12124
 H124 H 0.91469 -0.12530 -0.08095
 H125 H 0.76372 -0.12424 -0.03385
 H126 H 0.80929 0.17950 -0.08363
 H127 H 0.96229 0.18452 -0.12654
 H128 H 0.71831 -0.14875 -0.17384
 H129 H 0.56291 -0.14725 -0.12781
 C130 C 0.10315 -0.02271 0.13022
 C131 C 0.20730 0.10062 0.11810
 C132 C 0.28773 0.09915 0.09281
 C133 C 0.25911 -0.02581 0.08033
 C134 C 0.24602 -0.09282 0.12027
 C135 C 0.16317 -0.09272 0.14602
 C136 C 0.04977 -0.08379 0.08944
 C137 C 0.13130 -0.08412 0.06328
 H138 H 0.21379 0.18477 0.12526
 H139 H 0.36121 0.18130 0.08097
 H140 H 0.29243 -0.14188 0.12669
 H141 H 0.13714 -0.14447 0.17378
 H142 H -0.04429 -0.12857 0.08210
 H143 H 0.10614 -0.12654 0.03385
 C144 C 0.87290 0.89530 0.46376
 C145 C 0.89166 0.79039 0.45181
 C146 C 0.80914 0.70972 0.42677
 C147 C 0.71272 0.73898 0.41430
 C148 C 0.66044 0.75346 0.45423
 C149 C 0.74391 0.83651 0.47974
 C150 C 0.86398 0.94820 0.42288
 C151 C 0.78146 0.86647 0.39695
 H152 H 0.96955 0.78373 0.45880
 H153 H 0.81753 0.63579 0.41500
 H154 H 0.56559 0.70785 0.46080
 H155 H 0.71925 0.86351 0.50745
 H156 H 0.91325 1.04210 0.41531
 H157 H 0.76344 0.89123 0.36744
 C158 C 0.02589 0.12419 0.79873
 C159 C 0.09517 0.25314 0.81486
 C160 C 0.09567 0.33705 0.78921
 C161 C 0.03051 0.28543 0.74894
 C162 C 0.09029 0.21680 0.73214
 C163 C 0.08937 0.13391 0.75825
 C164 C -0.09705 0.10608 0.78578
 C165 C -0.09471 0.18910 0.76068
 H166 H 0.14597 0.27759 0.84283
 H167 H 0.14419 0.43182 0.79591
 H168 H 0.13465 0.23581 0.70303
 H169 H 0.13594 0.08601 0.75114
 H170 H -0.18150 0.02767 0.79161
 H171 H -0.17650 0.18038 0.74809
 C172 C 0.89432 0.02609 0.13027
 C173 C 0.79002 -0.09716 0.11822
 C174 C 0.70910 -0.09555 0.09297
 C175 C 0.73737 0.02948 0.08043
 C176 C 0.75113 0.09614 0.12034
 C177 C 0.83448 0.09588 0.14607
 C178 C 0.94693 0.08755 0.08945
 C179 C 0.86489 0.08803 0.06332
 H180 H 0.78377 -0.18134 0.12538
 H181 H 0.63549 -0.17765 0.08118
 H182 H 0.70475 0.14506 0.12676
 H183 H 0.86096 0.14735 0.17381
 H184 H 1.04087 0.13245 0.08206
 H185 H 0.88949 0.13069 0.03387
 C186 C 0.12966 0.10347 0.46379
 C187 C 0.25886 0.16216 0.47977
 C188 C 0.34195 0.24557 0.45425
 C189 C 0.28909 0.26051 0.41432
 C190 C 0.22021 0.13324 0.39697
 C191 C 0.13808 0.05114 0.42292
 C192 C 0.11064 0.20848 0.45185
 C193 C 0.19278 0.28951 0.42680
 H194 H 0.28393 0.13486 0.50748
 H195 H 0.43689 0.29117 0.46082
 H196 H 0.23786 0.10888 0.36747
 H197 H 0.08878 -0.04267 0.41535
 H198 H 0.03284 0.21501 0.45885
 H199 H 0.18417 0.36357 0.41503
 C200 C -0.02313 0.87138 0.79719
 C201 C 0.09968 0.88650 0.78601
 C202 C 0.09749 0.80321 0.76132
 C203 C -0.02744 0.70931 0.74827
 C204 C -0.09648 0.65776 0.78790
 C205 C -0.09582 0.74221 0.81310
 C206 C -0.08222 0.86400 0.75583
 C207 C -0.08309 0.78070 0.73023
 H208 H 0.18452 0.96229 0.79321
 H209 H 0.17950 0.80929 0.75029
 H210 H -0.14725 0.56292 0.79447
 H211 H -0.14875 0.71831 0.84050
 H212 H -0.12530 0.91469 0.74761
 H213 H -0.12425 0.76372 0.70052
   
