data_POSCAR
  _audit_creation_date              2014-09-24
  _audit_creation_method            'ToBaCCo'
  _symmetry_space_group_name_H-M    'P1'
  _symmetry_Int_Tables_number       1
  _symmetry_cell_setting            triclinic
  loop_
  _symmetry_equiv_pos_as_xyz
 x,y,z
_cell_length_a 47.3618
_cell_length_b 47.2341
_cell_length_c 20.6677
_cell_angle_alpha 89.986700
_cell_angle_beta 90.040800
_cell_angle_gamma 120.690400
loop_
  _atom_site_label
  _atom_site_type_symbol
  _atom_site_fract_x
  _atom_site_fract_y
  _atom_site_fract_z
C1 C 0.48202 0.97021 0.53480
 C2 C 0.48879 0.97046 0.46784
 C3 C 0.50667 1.00054 0.43521
 C4 C 0.51752 1.03098 0.46614
 C5 C 0.51162 1.03106 0.53392
 C6 C 0.49298 1.00060 0.56600
 H7 H 0.49006 1.00060 0.61799
 H8 H 0.50947 0.99983 0.38328
 C9 C 0.03027 0.51088 0.53289
 C10 C 0.03009 0.51356 0.46502
 C11 C 0.00011 0.50099 0.43215
 C12 C -0.03023 0.48468 0.46513
 C13 C -0.02979 0.48236 0.53387
 C14 C 0.00038 0.49547 0.56645
 H15 H 0.00052 0.49459 0.61884
 H16 H 0.00055 0.50281 0.37990
 C17 C 0.48574 0.51677 0.53570
 C18 C 0.48028 0.51097 0.46810
 C19 C 0.49245 0.49330 0.43585
 C20 C 0.51031 0.48140 0.46823
 C21 C 0.51573 0.48660 0.53595
 C22 C 0.50405 0.50503 0.56785
 H23 H 0.50643 0.50748 0.61999
 H24 H 0.48953 0.49035 0.38378
 O25 O 0.38082 0.66769 -0.07537
 O26 O 0.38201 0.72289 -0.05485
 C27 C 0.36154 0.72715 -0.08692
 O28 O 0.33096 0.71106 -0.07564
 O29 O 0.27569 0.65634 -0.05447
 C30 C 0.27151 0.63157 -0.08687
 O31 O 0.28687 0.61673 -0.07449
 O32 O 0.34101 0.61640 -0.05358
 C33 C 0.36590 0.63698 -0.08616
 O34 O 0.38266 0.65870 0.05306
 O35 O 0.38092 0.71240 0.07354
 C36 C 0.36580 0.72760 0.08466
 O37 O 0.34061 0.72235 0.05264
 O38 O 0.28683 0.66633 0.07425
 C39 C 0.27184 0.63580 0.08677
 O40 O 0.27621 0.61547 0.05426
 O41 O 0.33185 0.61806 0.07479
 C42 C 0.36249 0.63353 0.08557
 Cr43 Cr 0.37981 0.68950 -0.00089
 Cr44 Cr 0.30939 0.68812 -0.00078
 Cr45 Cr 0.30983 0.61846 0.00021
 O46 O 0.33302 0.66536 -0.00049
 O47 O 0.61854 0.33402 -0.07474
 O48 O 0.61650 0.27836 -0.05486
 C49 C 0.63679 0.27379 -0.08678
 O50 O 0.66734 0.28942 -0.07508
 O51 O 0.72295 0.34366 -0.05264
 C52 C 0.72820 0.36906 -0.08404
 O53 O 0.71297 0.38412 -0.07246
 O54 O 0.65895 0.38501 -0.05255
 C55 C 0.63396 0.36477 -0.08534
 O56 O 0.61651 0.34248 0.05370
 O57 O 0.61733 0.28826 0.07367
 C58 C 0.63222 0.27281 0.08480
 O59 O 0.65739 0.27793 0.05300
 O60 O 0.71163 0.33350 0.07543
 C61 C 0.72721 0.36408 0.08772
 O62 O 0.72276 0.38462 0.05618
 O63 O 0.66738 0.38285 0.07601
 C64 C 0.63672 0.36751 0.08647
 Cr65 Cr 0.61904 0.31170 -0.00052
 Cr66 Cr 0.68894 0.31204 0.00019
 Cr67 Cr 0.68960 0.38233 0.00175
 O68 O 0.66587 0.33536 0.00047
 C69 C 0.43705 0.88359 -0.35020
 C70 C 0.43002 0.90854 -0.33922
 C71 C 0.44464 0.93695 -0.37735
 C72 C 0.46644 0.94085 -0.42784
 C73 C 0.47338 0.91542 -0.43791
 C74 C 0.45871 0.88707 -0.39962
 C75 C 0.42305 0.85504 -0.30901
 C76 C 0.41174 0.83154 -0.27344
 C77 C 0.39880 0.80407 -0.22957
 C78 C 0.36504 0.78547 -0.21734
 C79 C 0.35275 0.75995 -0.17194
 C80 C 0.37415 0.75277 -0.13801
 C81 C 0.40799 0.77124 -0.15166
 C82 C 0.42018 0.79670 -0.19707
 H83 H 0.41332 0.90613 -0.30090
 H84 H 0.43814 0.95549 -0.36821
 H85 H 0.49130 0.91795 -0.47340
 H86 H 0.46479 0.86813 -0.40780
 H87 H 0.34828 0.79102 -0.24217
 H88 H 0.32659 0.74624 -0.16266
 H89 H 0.42516 0.76637 -0.12658
 H90 H 0.44637 0.81098 -0.20612
 C91 C 0.12162 0.55185 -0.36353
 C92 C 0.09447 0.52221 -0.34322
 C93 C 0.06489 0.50858 -0.37692
 C94 C 0.06201 0.52441 -0.43186
 C95 C 0.09041 0.55314 -0.45698
 C96 C 0.11966 0.56733 -0.41979
 C97 C 0.15035 0.56748 -0.32292
 C98 C 0.17330 0.57997 -0.28603
 C99 C 0.19951 0.59420 -0.23925
 C100 C 0.21738 0.57880 -0.22517
 C101 C 0.24110 0.59117 -0.17621
 C102 C 0.24720 0.61912 -0.14039
 C103 C 0.22946 0.63473 -0.15571
 C104 C 0.20576 0.62230 -0.20471
 H105 H 0.09587 0.51009 -0.29984
 H106 H 0.04416 0.48582 -0.35953
 H107 H 0.08722 0.57178 -0.49987
 H108 H 0.14020 0.59101 -0.43399
 H109 H 0.21260 0.55690 -0.25131
 H110 H 0.25433 0.57858 -0.16587
 H111 H 0.23356 0.65632 -0.12931
 H112 H 0.19193 0.63430 -0.21491
 C113 C 0.44472 0.56163 -0.35032
 C114 C 0.47650 0.56816 -0.33787
 C115 C 0.49007 0.55359 -0.37572
 C116 C 0.47219 0.53235 -0.42739
 C117 C 0.44005 0.52595 -0.43905
 C118 C 0.42655 0.54056 -0.40101
 C119 C 0.43035 0.57552 -0.30928
 C120 C 0.41842 0.58678 -0.27364
 C121 C 0.40428 0.59971 -0.22953
 C122 C 0.42006 0.63357 -0.21755
 C123 C 0.40726 0.64586 -0.17184
 C124 C 0.37851 0.62434 -0.13735
 C125 C 0.36253 0.59039 -0.15073
 C126 C 0.37536 0.57820 -0.19644
 H127 H 0.49076 0.58439 -0.29859
 H128 H 0.51498 0.55969 -0.36537
 H129 H 0.42461 0.50846 -0.47558
 H130 H 0.40168 0.53489 -0.41036
 H131 H 0.44252 0.65043 -0.24281
 H132 H 0.42018 0.67211 -0.16279
 H133 H 0.34034 0.57313 -0.12523
 H134 H 0.36299 0.55193 -0.20527
 C135 C 0.55691 0.11719 -0.34969
 C136 C 0.52458 0.09231 -0.33742
 C137 C 0.50962 0.06402 -0.37583
 C138 C 0.52666 0.06018 -0.42793
 C139 C 0.55944 0.08544 -0.43921
 C140 C 0.57431 0.11370 -0.40060
 C141 C 0.57224 0.14593 -0.30904
 C142 C 0.58446 0.16956 -0.27374
 C143 C 0.59815 0.19711 -0.22999
 C144 C 0.57739 0.20563 -0.19857
 C145 C 0.59009 0.23104 -0.15306
 C146 C 0.62384 0.24832 -0.13818
 C147 C 0.64466 0.24004 -0.17109
 C148 C 0.63185 0.21453 -0.21662
 H149 H 0.51088 0.09477 -0.29806
 H150 H 0.48431 0.04559 -0.36578
 H151 H 0.57403 0.08299 -0.47664
 H152 H 0.59952 0.13265 -0.41001
 H153 H 0.55126 0.19226 -0.20849
 H154 H 0.57336 0.23678 -0.12883
 H155 H 0.67073 0.25282 -0.16080
 H156 H 0.64812 0.20808 -0.24061
 C157 C 0.88407 0.44496 -0.34741
 C158 C 0.89122 0.46990 -0.39246
 C159 C 0.91924 0.48214 -0.43131
 C160 C 0.94023 0.46936 -0.42568
 C161 C 0.93297 0.44450 -0.38011
 C162 C 0.90501 0.43232 -0.34135
 C163 C 0.85562 0.43249 -0.30645
 C164 C 0.83223 0.42150 -0.27081
 C165 C 0.80493 0.40774 -0.22666
 C166 C 0.78823 0.42439 -0.21296
 C167 C 0.76280 0.41157 -0.16743
 C168 C 0.75386 0.38195 -0.13488
 C169 C 0.77050 0.36519 -0.14994
 C170 C 0.79583 0.37802 -0.19543
 H171 H 0.87526 0.47996 -0.39730
 H172 H 0.92464 0.50161 -0.46558
 H173 H 0.94886 0.43438 -0.37494
 H174 H 0.89975 0.41309 -0.30653
 H175 H 0.79514 0.44746 -0.23680
 H176 H 0.75052 0.42510 -0.15701
 H177 H 0.76425 0.34232 -0.12600
 H178 H 0.80862 0.36495 -0.20560
 C179 C 0.55895 0.44407 -0.34943
 C180 C 0.56557 0.47592 -0.33631
 C181 C 0.55157 0.49001 -0.37436
 C182 C 0.53081 0.47260 -0.42690
 C183 C 0.52431 0.44038 -0.43923
 C184 C 0.53836 0.42636 -0.40098
 C185 C 0.57252 0.42933 -0.30851
 C186 C 0.58382 0.41739 -0.27293
 C187 C 0.59730 0.40377 -0.22884
 C188 C 0.58074 0.36985 -0.21695
 C189 C 0.59296 0.35697 -0.17120
 C190 C 0.62189 0.37793 -0.13660
 C191 C 0.63864 0.41193 -0.14990
 C192 C 0.62639 0.42470 -0.19564
 H193 H 0.58149 0.48985 -0.29642
 H194 H 0.55776 0.51497 -0.36348
 H195 H 0.50718 0.42529 -0.47653
 H196 H 0.53265 0.40147 -0.41093
 H197 H 0.55814 0.35343 -0.24231
 H198 H 0.57947 0.33071 -0.16219
 H199 H 0.66099 0.42877 -0.12433
 H200 H 0.63936 0.45100 -0.20439
 C201 C 0.88273 0.44145 0.35208
 C202 C 0.90927 0.47236 0.33580
 C203 C 0.93780 0.48664 0.37328
 C204 C 0.94030 0.47039 0.42843
 C205 C 0.91329 0.43906 0.44393
 C206 C 0.88477 0.42483 0.40621
 C207 C 0.85389 0.42661 0.31183
 C208 C 0.83033 0.41482 0.27652
 C209 C 0.80297 0.40157 0.23247
 C210 C 0.79503 0.42278 0.20086
 C211 C 0.76993 0.41048 0.15479
 C212 C 0.75240 0.37669 0.13953
 C213 C 0.76011 0.35543 0.17262
 C214 C 0.78529 0.36784 0.21870
 H215 H 0.90796 0.48545 0.29392
 H216 H 0.95757 0.51092 0.35989
 H217 H 0.91459 0.42476 0.48347
 H218 H 0.86453 0.40063 0.41867
 H219 H 0.80863 0.44895 0.21104
 H220 H 0.76463 0.42754 0.13043
 H221 H 0.74713 0.32932 0.16209
 H222 H 0.79132 0.35122 0.24277
 C223 C 0.55581 0.11605 0.34731
 C224 C 0.53463 0.11186 0.39828
 C225 C 0.52202 0.08391 0.43760
 C226 C 0.53062 0.05970 0.42700
 C227 C 0.55170 0.06420 0.37472
 C228 C 0.56426 0.09216 0.33560
 C229 C 0.56869 0.14459 0.30627
 C230 C 0.57985 0.16809 0.27073
 C231 C 0.59363 0.19556 0.22679
 C232 C 0.57719 0.21255 0.21374
 C233 C 0.59000 0.23816 0.16844
 C234 C 0.61938 0.24699 0.13548
 C235 C 0.63595 0.23007 0.14991
 C236 C 0.62313 0.20456 0.19517
 H237 H 0.52761 0.13003 0.40727
 H238 H 0.50475 0.08087 0.47514
 H239 H 0.55943 0.04662 0.36515
 H240 H 0.58067 0.09518 0.29623
 H241 H 0.55429 0.20572 0.23790
 H242 H 0.57663 0.25065 0.15850
 H243 H 0.65864 0.23624 0.12564
 H244 H 0.63603 0.19154 0.20486
 C245 C 0.55633 0.44166 0.34980
 C246 C 0.57531 0.46770 0.39221
 C247 C 0.56036 0.48060 0.43097
 C248 C 0.52623 0.46741 0.42796
 C249 C 0.50738 0.44138 0.38508
 C250 C 0.52235 0.42853 0.34636
 C251 C 0.57164 0.42880 0.30864
 C252 C 0.58388 0.41782 0.27305
 C253 C 0.59763 0.40445 0.22908
 C254 C 0.63144 0.42123 0.21699
 C255 C 0.64438 0.40893 0.17156
 C256 C 0.62357 0.37970 0.13749
 C257 C 0.58969 0.36275 0.15100
 C258 C 0.57687 0.37507 0.19640
 H259 H 0.60164 0.47817 0.39496
 H260 H 0.57540 0.50099 0.46302
 H261 H 0.48106 0.43093 0.38192
 H262 H 0.50746 0.40845 0.31353
 H263 H 0.64773 0.44404 0.24197
 H264 H 0.67055 0.42259 0.16235
 H265 H 0.57296 0.34017 0.12585
 H266 H 0.55065 0.36191 0.20534
 C267 C 0.12136 0.55710 0.36127
 C268 C 0.09374 0.52891 0.33727
 C269 C 0.06405 0.51478 0.37050
 C270 C 0.06154 0.52857 0.42875
 C271 C 0.09023 0.55570 0.45720
 C272 C 0.11964 0.57072 0.42036
 C273 C 0.15057 0.57289 0.32210
 C274 C 0.17380 0.58505 0.28593
 C275 C 0.20016 0.59839 0.23952
 C276 C 0.20745 0.57722 0.20578
 C277 C 0.23106 0.58945 0.15673
 C278 C 0.24772 0.62311 0.14054
 C279 C 0.24065 0.64433 0.17562
 C280 C 0.21697 0.63200 0.22466
 H281 H 0.09495 0.51822 0.29170
 H282 H 0.04301 0.49304 0.35055
 H283 H 0.14057 0.59344 0.43745
 H284 H 0.19443 0.55112 0.21656
 H285 H 0.23593 0.57243 0.13097
 H286 H 0.25304 0.67036 0.16455
 H287 H 0.21136 0.64857 0.25014
 C288 C 0.44551 0.88356 0.34939
 C289 C 0.42564 0.89005 0.38943
 C290 C 0.43970 0.91821 0.42833
 C291 C 0.47384 0.94006 0.42786
 C292 C 0.49362 0.93341 0.38747
 C293 C 0.47952 0.90526 0.34858
 C294 C 0.43095 0.85524 0.30761
 C295 C 0.41887 0.83188 0.27163
 C296 C 0.40464 0.80453 0.22741
 C297 C 0.37566 0.79643 0.19446
 C298 C 0.36267 0.77099 0.14892
 C299 C 0.37856 0.75330 0.13560
 C300 C 0.40739 0.76126 0.16991
 C301 C 0.42034 0.78674 0.21543
 H302 H 0.39927 0.87355 0.39007
 H303 H 0.42396 0.92313 0.45837
 H304 H 0.51996 0.95000 0.38626
 H305 H 0.49509 0.90054 0.31754
 H306 H 0.36334 0.81008 0.20331
 H307 H 0.34043 0.76552 0.12352
 H308 H 0.42025 0.74816 0.16091
 H309 H 0.44283 0.79285 0.24061
 C310 C 0.43851 0.55492 0.34920
 C311 C 0.42577 0.52089 0.34712
 C312 C 0.43931 0.50660 0.38600
 C313 C 0.46564 0.52620 0.42766
 C314 C 0.47843 0.56039 0.42929
 C315 C 0.46484 0.57464 0.39038
 C316 C 0.42506 0.56961 0.30776
 C317 C 0.41390 0.58164 0.27207
 C318 C 0.40077 0.59568 0.22815
 C319 C 0.36692 0.57975 0.21691
 C320 C 0.35433 0.59240 0.17151
 C321 C 0.37551 0.62117 0.13658
 C322 C 0.40946 0.63734 0.14922
 C323 C 0.42196 0.62463 0.19464
 H324 H 0.40550 0.50543 0.31521
 H325 H 0.42917 0.48023 0.38391
 H326 H 0.49902 0.57599 0.46038
 H327 H 0.47502 0.60103 0.39203
 H328 H 0.35030 0.55727 0.24252
 H329 H 0.32809 0.57934 0.16305
 H330 H 0.42646 0.65954 0.12333
 H331 H 0.44821 0.63713 0.20291
   
