data_POSCAR
  _audit_creation_date              2014-09-24
  _audit_creation_method            'ToBaCCo'
  _symmetry_space_group_name_H-M    'P1'
  _symmetry_Int_Tables_number       1
  _symmetry_cell_setting            triclinic
  loop_
  _symmetry_equiv_pos_as_xyz
 x,y,z
_cell_length_a 42.4632
_cell_length_b 42.4505
_cell_length_c 45.5694
_cell_angle_alpha 90.032500
_cell_angle_beta 89.959600
_cell_angle_gamma 119.950200
loop_
  _atom_site_label
  _atom_site_type_symbol
  _atom_site_fract_x
  _atom_site_fract_y
  _atom_site_fract_z
C1 C -0.00014 0.49955 1.33322
 C2 C 0.03265 0.51323 1.31797
 C3 C 0.03269 0.51212 1.28723
 C4 C 0.00010 0.49936 1.27104
 C5 C -0.03262 0.48670 1.28707
 C6 C -0.03281 0.48577 1.31781
 C7 C 0.00022 0.49927 1.23789
 C8 C -0.03222 0.47835 1.22171
 C9 C -0.03211 0.47919 1.19098
 C10 C 0.00049 0.49908 1.17579
 C11 C 0.03295 0.51906 1.19111
 C12 C 0.03280 0.52009 1.22182
 H13 H -0.00023 0.49961 1.35705
 H14 H 0.05844 0.52118 1.27642
 H15 H -0.05829 0.47756 1.27611
 H16 H -0.05787 0.46108 1.23242
 H17 H 0.00059 0.49900 1.15197
 H18 H 0.05836 0.53743 1.23262
 C19 C 0.50041 0.50045 1.32607
 C20 C 0.48719 0.51996 1.31089
 C21 C 0.48852 0.52132 1.28016
 C22 C 0.50117 0.50132 1.26391
 C23 C 0.51343 0.48088 1.27995
 C24 C 0.51402 0.48139 1.31070
 C25 C 0.50155 0.50178 1.23074
 C26 C 0.52198 0.48961 1.21457
 C27 C 0.52140 0.48905 1.18383
 C28 C 0.50225 0.50262 1.16857
 C29 C 0.48275 0.51578 1.18391
 C30 C 0.48148 0.51438 1.21462
 H31 H 0.50013 0.50012 1.34991
 H32 H 0.47975 0.53829 1.26943
 H33 H 0.52248 0.46424 1.26903
 H34 H 0.53869 0.48055 1.22531
 H35 H 0.50250 0.50294 1.14476
 H36 H 0.46451 0.52312 1.22539
 C37 C 0.49962 1.00036 1.32927
 C38 C 0.48895 0.96811 1.31393
 C39 C 0.48946 0.96819 1.28321
 C40 C 0.49906 1.00032 1.26730
 C41 C 0.50895 1.03250 1.28328
 C42 C 0.51003 1.03264 1.31402
 C43 C 0.49874 1.00028 1.23437
 C44 C 0.52091 1.03242 1.21834
 C45 C 0.51993 1.03244 1.18763
 C46 C 0.49815 1.00016 1.17242
 C47 C 0.47666 0.96794 1.18778
 C48 C 0.47626 0.96808 1.21850
 H49 H 0.49979 1.00027 1.35309
 H50 H 0.48251 0.94306 1.27202
 H51 H 0.51565 1.05756 1.27209
 H52 H 0.53923 1.05756 1.22941
 H53 H 0.49793 1.00011 1.14861
 H54 H 0.45817 0.94297 1.22972
 C55 C 1.00022 0.50015 0.66669
 C56 C 0.96773 0.48010 0.68208
 C57 C 0.96785 0.47960 0.71281
 C58 C 1.00033 0.50087 0.72877
 C59 C 1.03277 0.52179 0.71264
 C60 C 1.03282 0.52058 0.68190
 C61 C 1.00037 0.50122 0.76182
 C62 C 1.03278 0.51230 0.77788
 C63 C 1.03289 0.51356 0.80859
 C64 C 1.00046 0.50191 0.82387
 C65 C 0.96798 0.48991 0.80861
 C66 C 0.96800 0.49048 0.77788
 H67 H 1.00008 0.49981 0.64287
 H68 H 0.94239 0.46232 0.72383
 H69 H 1.05822 0.53934 0.72359
 H70 H 1.05817 0.51987 0.76695
 H71 H 1.00050 0.50217 0.84768
 H72 H 0.94257 0.48264 0.76693
 C73 C 0.49943 0.49918 0.67571
 C74 C 0.51975 0.48697 0.69099
 C75 C 0.52050 0.48779 0.72171
 C76 C 0.49924 0.49901 0.73774
 C77 C 0.47807 0.51031 0.72170
 C78 C 0.47902 0.51129 0.69099
 C79 C 0.49915 0.49895 0.77078
 C80 C 0.48828 0.52049 0.78681
 C81 C 0.48724 0.51958 0.81752
 C82 C 0.49893 0.49883 0.83282
 C83 C 0.51074 0.47814 0.81753
 C84 C 0.50993 0.47736 0.78681
 H85 H 0.49951 0.49925 0.65190
 H86 H 0.53795 0.47976 0.73267
 H87 H 0.46054 0.51826 0.73265
 H88 H 0.48068 0.53827 0.77585
 H89 H 0.49883 0.49877 0.85663
 H90 H 0.51762 0.45964 0.77584
 C91 C 0.49942 -0.00131 0.67091
 C92 C 0.51183 0.03124 0.68622
 C93 C 0.51129 0.03123 0.71694
 C94 C 0.50019 -0.00120 0.73296
 C95 C 0.48868 -0.03372 0.71692
 C96 C 0.48736 -0.03386 0.68618
 C97 C 0.50063 -0.00111 0.76601
 C98 C 0.47919 -0.03340 0.78218
 C99 C 0.48044 -0.03338 0.81291
 C100 C 0.50146 -0.00085 0.82807
 C101 C 0.52205 0.03150 0.81265
 C102 C 0.52248 0.03129 0.78192
 H103 H 0.49918 -0.00124 0.64709
 H104 H 0.51945 0.05672 0.72792
 H105 H 0.48087 -0.05912 0.72794
 H106 H 0.46121 -0.05874 0.77125
 H107 H 0.50183 -0.00064 0.85189
 H108 H 0.54016 0.05661 0.77085
 O109 O 0.38698 0.66277 0.97703
 O110 O 0.38286 0.72127 0.96752
 C111 C 0.36439 0.73630 0.96130
 O112 O 0.33533 0.72943 0.97450
 O113 O 0.27757 0.66650 0.96486
 C114 C 0.26238 0.63274 0.95984
 O115 O 0.26845 0.61105 0.97468
 O116 O 0.33176 0.61591 0.96709
 C117 C 0.36567 0.63444 0.96255
 O118 O 0.38305 0.67180 1.03529
 O119 O 0.38152 0.73177 1.02582
 C120 C 0.35744 0.73591 1.03895
 O121 O 0.32397 0.71819 1.03269
 O122 O 0.26470 0.65656 1.02312
 C123 C 0.26075 0.62951 1.03795
 O124 O 0.27855 0.61338 1.03325
 O125 O 0.34016 0.61471 1.02552
 C126 C 0.36723 0.63795 1.04016
 Cr127 Cr 0.38155 0.69581 1.00137
 Cr128 Cr 0.30149 0.69170 0.99883
 Cr129 Cr 0.30565 0.61581 1.00014
 O130 O 0.32960 0.66781 1.00011
 O131 O 0.61556 0.32858 0.96779
 O132 O 0.61740 0.26854 0.97593
 C133 C 0.64046 0.26484 0.96074
 O134 O 0.67439 0.28311 0.96500
 O135 O 0.73467 0.34430 0.97374
 C136 C 0.73830 0.37194 0.96000
 O137 O 0.72042 0.38761 0.96599
 O138 O 0.65914 0.38589 0.97641
 C139 C 0.63119 0.36236 0.96266
 O140 O 0.61517 0.33835 1.02618
 O141 O 0.62031 0.28006 1.03439
 C142 C 0.63859 0.26434 1.03854
 O143 O 0.66615 0.27056 1.02329
 O144 O 0.72458 0.33319 1.03207
 C145 C 0.74000 0.36679 1.03781
 O146 O 0.73349 0.38904 1.02418
 O147 O 0.67101 0.38477 1.03448
 C148 C 0.63737 0.36688 1.04002
 Cr149 Cr 0.61913 0.30495 1.00104
 Cr150 Cr 0.69887 0.30874 0.99857
 Cr151 Cr 0.69510 0.38480 1.00025
 O152 O 0.67104 0.33287 0.99994
 O153 O 0.65776 0.38950 0.52466
 O154 O 0.71627 0.38478 0.53231
 C155 C 0.73172 0.36629 0.53687
 O156 O 0.72482 0.33798 0.52239
 O157 O 0.66228 0.27941 0.53178
 C158 C 0.62876 0.26429 0.53787
 O159 O 0.60660 0.27113 0.52459
 O160 O 0.61149 0.33398 0.53428
 C161 C 0.62997 0.36772 0.53942
 O162 O 0.66576 0.38740 0.46609
 O163 O 0.72605 0.38609 0.47388
 C164 C 0.73008 0.36290 0.45928
 O165 O 0.71216 0.32904 0.46411
 O166 O 0.65075 0.26898 0.47347
 C167 C 0.62256 0.26475 0.46028
 O168 O 0.60675 0.28250 0.46642
 O169 O 0.60880 0.34407 0.47603
 C170 C 0.63187 0.37127 0.46135
 Cr171 Cr 0.69033 0.38489 0.49923
 Cr172 Cr 0.68654 0.30495 0.49798
 Cr173 Cr 0.61048 0.30889 0.50029
 O174 O 0.66245 0.33288 0.49915
 O175 O 0.34137 0.60957 0.52527
 O176 O 0.28280 0.61420 0.53295
 C177 C 0.26733 0.63266 0.53757
 O178 O 0.27426 0.66102 0.52317
 O179 O 0.33676 0.71960 0.53264
 C180 C 0.37026 0.73473 0.53875
 O181 O 0.39246 0.72793 0.52545
 O182 O 0.38760 0.66506 0.53499
 C183 C 0.36913 0.63131 0.54005
 O184 O 0.33351 0.61180 0.46671
 O185 O 0.27317 0.61304 0.47453
 C186 C 0.26914 0.63625 0.45999
 O187 O 0.28702 0.67010 0.46490
 O188 O 0.34838 0.73016 0.47434
 C189 C 0.37661 0.73444 0.46115
 O190 O 0.39244 0.71672 0.46725
 O191 O 0.39042 0.65515 0.47672
 C192 C 0.36741 0.62798 0.46199
 Cr193 Cr 0.30884 0.61421 0.49986
 Cr194 Cr 0.31257 0.69412 0.49880
 Cr195 Cr 0.38866 0.69024 0.50107
 O196 O 0.33669 0.66622 0.49990
 C197 C 0.47209 0.53665 0.32627
 C198 C 0.45820 0.55022 0.34077
 C199 C 0.44127 0.56510 0.35915
 C200 C 0.46231 0.59918 0.37235
 C201 C 0.44630 0.61228 0.39209
 C202 C 0.40920 0.59134 0.39873
 C203 C 0.38803 0.55755 0.38514
 C204 C 0.40404 0.54445 0.36539
 C205 C 0.39339 0.60388 0.42047
 C206 C 0.38096 0.61461 0.43920
 H207 H 0.49116 0.61525 0.36785
 H208 H 0.46295 0.63839 0.40257
 H209 H 0.35936 0.54107 0.39021
 H210 H 0.38757 0.51794 0.35547
 C211 C 0.47634 0.93472 0.32996
 C212 C 0.46501 0.90718 0.34411
 C213 C 0.45075 0.87489 0.36185
 C214 C 0.47253 0.87176 0.38341
 C215 C 0.45776 0.84180 0.40231
 C216 C 0.42114 0.81486 0.39973
 C217 C 0.39955 0.81763 0.37780
 C218 C 0.41432 0.84758 0.35890
 C219 C 0.40530 0.78558 0.42064
 C220 C 0.39209 0.76180 0.43880
 H221 H 0.50065 0.89283 0.38602
 H222 H 0.47465 0.84004 0.41929
 H223 H 0.37115 0.79706 0.37572
 H224 H 0.39716 0.84986 0.34243
 C225 C 0.06461 0.52862 0.33310
 C226 C 0.09263 0.54294 0.34681
 C227 C 0.12563 0.56057 0.36374
 C228 C 0.14067 0.59725 0.37152
 C229 C 0.17154 0.61396 0.38939
 C230 C 0.18754 0.59407 0.39953
 C231 C 0.17286 0.55755 0.39136
 C232 C 0.14198 0.54084 0.37349
 C233 C 0.21751 0.61030 0.41979
 C234 C 0.24169 0.62288 0.43764
 H235 H 0.12817 0.61273 0.36419
 H236 H 0.18249 0.64212 0.39574
 H237 H 0.18486 0.54183 0.39924
 H238 H 0.13051 0.51243 0.36771
 C239 C 0.52879 0.46430 0.32594
 C240 C 0.54238 0.45040 0.34035
 C241 C 0.55898 0.43513 0.35865
 C242 C 0.53749 0.40147 0.37234
 C243 C 0.55323 0.38809 0.39204
 C244 C 0.59051 0.40834 0.39818
 C245 C 0.61212 0.44171 0.38410
 C246 C 0.59638 0.45508 0.36438
 C247 C 0.60611 0.39559 0.41989
 C248 C 0.61841 0.38474 0.43859
 H249 H 0.50851 0.38595 0.36824
 H250 H 0.53625 0.36232 0.40290
 H251 H 0.64093 0.45765 0.38877
 H252 H 0.61319 0.48127 0.35408
 C253 C 0.52219 0.06427 0.32923
 C254 C 0.53365 0.09187 0.34334
 C255 C 0.54807 0.12422 0.36104
 C256 C 0.58462 0.15125 0.35821
 C257 C 0.59951 0.18125 0.37708
 C258 C 0.57789 0.18433 0.39886
 C259 C 0.54116 0.15766 0.40130
 C260 C 0.52628 0.12766 0.38244
 C261 C 0.59381 0.21363 0.41975
 C262 C 0.60707 0.23741 0.43791
 H263 H 0.60178 0.14872 0.34187
 H264 H 0.62799 0.20159 0.37510
 H265 H 0.52425 0.15967 0.41817
 H266 H 0.49806 0.10680 0.38495
 C267 C 0.93512 0.47044 0.33280
 C268 C 0.90700 0.45617 0.34641
 C269 C 0.87389 0.43859 0.36323
 C270 C 0.85842 0.40174 0.37058
 C271 C 0.82748 0.38506 0.38840
 C272 C 0.81184 0.40515 0.39891
 C273 C 0.82695 0.44184 0.39115
 C274 C 0.85791 0.45853 0.37335
 C275 C 0.78180 0.38891 0.41913
 C276 C 0.75758 0.37631 0.43695
 H277 H 0.87065 0.38610 0.36298
 H278 H 0.81619 0.35675 0.39442
 H279 H 0.81523 0.45770 0.39933
 H280 H 0.86971 0.48706 0.36790
 C281 C 0.53952 0.47341 1.16779
 C282 C 0.55361 0.45957 1.15389
 C283 C 0.56940 0.44249 1.13668
 C284 C 0.60398 0.46344 1.12428
 C285 C 0.61831 0.44709 1.10612
 C286 C 0.59814 0.40970 1.10029
 C287 C 0.56379 0.38865 1.11305
 C288 C 0.54946 0.40501 1.13122
 C289 C 0.61189 0.39348 1.07996
 C290 C 0.62343 0.38072 1.06216
 H291 H 0.61957 0.49246 1.12824
 H292 H 0.64482 0.46367 1.09623
 H293 H 0.54786 0.35978 1.10857
 H294 H 0.52262 0.38856 1.14059
 C295 C 0.93449 0.46067 1.17467
 C296 C 0.90729 0.44655 1.15995
 C297 C 0.87581 0.43109 1.14126
 C298 C 0.85710 0.45000 1.13631
 C299 C 0.82836 0.43659 1.11624
 C300 C 0.81828 0.40423 1.10104
 C301 C 0.83659 0.38500 1.10637
 C302 C 0.86532 0.39842 1.12642
 C303 C 0.79015 0.39142 1.07917
 C304 C 0.76705 0.38046 1.06044
 H305 H 0.86518 0.47544 1.14750
 H306 H 0.81446 0.45172 1.11222
 H307 H 0.82907 0.36001 1.09465
 H308 H 0.87979 0.38374 1.12991
 C309 C 0.54036 0.06576 1.17144
 C310 C 0.55624 0.09316 1.15708
 C311 C 0.57383 0.12518 1.13902
 C312 C 0.56409 0.15212 1.14152
 C313 C 0.57882 0.18175 1.12228
 C314 C 0.60334 0.18453 1.10045
 C315 C 0.61362 0.15796 1.09832
 C316 C 0.59888 0.12833 1.11756
 C317 C 0.61643 0.21349 1.07927
 C318 C 0.62681 0.23708 1.06096
 H319 H 0.54454 0.14982 1.15790
 H320 H 0.57055 0.20204 1.12403
 H321 H 0.63241 0.15975 1.08143
 H322 H 0.60639 0.10753 1.11529
 C323 C 0.46491 0.53177 1.16800
 C324 C 0.45101 0.54588 1.15423
 C325 C 0.43542 0.56323 1.13717
 C326 C 0.45659 0.60008 1.12977
 C327 C 0.44229 0.61651 1.11171
 C328 C 0.40674 0.59618 1.10098
 C329 C 0.38536 0.55948 1.10879
 C330 C 0.39966 0.54304 1.12684
 C331 C 0.39292 0.61220 1.08055
 C332 C 0.38130 0.62466 1.06260
 H333 H 0.48433 0.61591 1.13753
 H334 H 0.45915 0.64483 1.10566
 H335 H 0.35792 0.54343 1.10046
 H336 H 0.38310 0.51451 1.13232
 C337 C 0.06650 0.53745 1.17496
 C338 C 0.09383 0.55144 1.16038
 C339 C 0.12545 0.56673 1.14183
 C340 C 0.13642 0.59958 1.12715
 C341 C 0.16522 0.61278 1.10714
 C342 C 0.18312 0.59315 1.10172
 C343 C 0.17258 0.56064 1.11680
 C344 C 0.14379 0.54744 1.13682
 C345 C 0.21114 0.60563 1.07974
 C346 C 0.23405 0.61627 1.06086
 H347 H 0.12225 0.61455 1.13069
 H348 H 0.17308 0.63789 1.09551
 H349 H 0.18614 0.54519 1.11269
 H350 H 0.13533 0.52186 1.14789
 C351 C 0.45599 0.93455 1.17174
 C352 C 0.43992 0.90708 1.15748
 C353 C 0.42214 0.87496 1.13953
 C354 C 0.39715 0.87187 1.11807
 C355 C 0.38231 0.84220 1.09887
 C356 C 0.39242 0.81551 1.10105
 C357 C 0.41685 0.81822 1.12289
 C358 C 0.43169 0.84789 1.14210
 C359 C 0.37934 0.78657 1.07984
 C360 C 0.36905 0.76304 1.06147
 H361 H 0.38979 0.89279 1.11575
 H362 H 0.36359 0.84047 1.08196
 H363 H 0.42500 0.79784 1.12467
 H364 H 0.45120 0.85015 1.15847
 C365 C 0.53878 0.47244 0.67486
 C366 C 0.55338 0.45954 0.66046
 C367 C 0.56939 0.44355 0.64228
 C368 C 0.55390 0.40568 0.64126
 C369 C 0.56737 0.38986 0.62167
 C370 C 0.59636 0.41188 0.60302
 C371 C 0.61232 0.44978 0.60445
 C372 C 0.59885 0.46559 0.62404
 C373 C 0.60847 0.39565 0.58132
 C374 C 0.61833 0.38253 0.56250
 H375 H 0.53093 0.38837 0.65512
 H376 H 0.55471 0.36052 0.62063
 H377 H 0.63463 0.46705 0.59002
 H378 H 0.61084 0.49489 0.62448
 C379 C 0.52629 0.06481 0.67013
 C380 C 0.53910 0.09241 0.65589
 C381 C 0.55497 0.12466 0.63802
 C382 C 0.59285 0.14626 0.63598
 C383 C 0.60840 0.17603 0.61689
 C384 C 0.58611 0.18432 0.59976
 C385 C 0.54822 0.16310 0.60218
 C386 C 0.53268 0.13332 0.62126
 C387 C 0.60194 0.21339 0.57866
 C388 C 0.61462 0.23703 0.56036
 H389 H 0.61034 0.13967 0.64869
 H390 H 0.63771 0.19215 0.61509
 H391 H 0.53073 0.16916 0.58894
 H392 H 0.50337 0.11667 0.62252
 C393 C 0.93407 0.46105 0.66612
 C394 C 0.90630 0.44631 0.65210
 C395 C 0.87376 0.42999 0.63458
 C396 C 0.86666 0.40135 0.61545
 C397 C 0.83645 0.38733 0.59685
 C398 C 0.81323 0.40190 0.59729
 C399 C 0.81998 0.43013 0.61677
 C400 C 0.85019 0.44415 0.63538
 C401 C 0.78361 0.38907 0.57674
 C402 C 0.75951 0.37860 0.55889
 H403 H 0.88482 0.39036 0.61452
 H404 H 0.83158 0.36562 0.58177
 H405 H 0.80231 0.44172 0.61720
 H406 H 0.85555 0.46645 0.64996
 C407 C 0.46009 0.52592 0.67487
 C408 C 0.44556 0.53891 0.66053
 C409 C 0.42963 0.55502 0.64242
 C410 C 0.44522 0.59291 0.64147
 C411 C 0.43180 0.60883 0.62199
 C412 C 0.40272 0.58691 0.60338
 C413 C 0.38666 0.54899 0.60475
 C414 C 0.40010 0.53307 0.62423
 C415 C 0.39063 0.60324 0.58179
 C416 C 0.38077 0.61643 0.56306
 H417 H 0.46825 0.61014 0.65529
 H418 H 0.44453 0.63818 0.62100
 H419 H 0.36429 0.53180 0.59035
 H420 H 0.38801 0.50377 0.62463
 C421 C 0.47338 0.93431 0.67096
 C422 C 0.46037 0.90664 0.65678
 C423 C 0.44431 0.87433 0.63896
 C424 C 0.40641 0.85342 0.63641
 C425 C 0.39075 0.82362 0.61734
 C426 C 0.41293 0.81463 0.60074
 C427 C 0.45080 0.83515 0.60368
 C428 C 0.46646 0.86495 0.62274
 C429 C 0.39705 0.78557 0.57962
 C430 C 0.38436 0.76195 0.56129
 H431 H 0.38903 0.86057 0.64870
 H432 H 0.36145 0.80805 0.61513
 H433 H 0.46821 0.82854 0.59084
 H434 H 0.49578 0.88107 0.62439
 C435 C 0.06464 0.53831 0.66666
 C436 C 0.09241 0.55290 0.65262
 C437 C 0.12498 0.56906 0.63511
 C438 C 0.14819 0.55447 0.63565
 C439 C 0.17844 0.56840 0.61708
 C440 C 0.18561 0.59699 0.59788
 C441 C 0.16275 0.61198 0.59769
 C442 C 0.13250 0.59804 0.61626
 C443 C 0.21530 0.60980 0.57738
 C444 C 0.23947 0.62028 0.55956
 H445 H 0.14251 0.53191 0.65002
 H446 H 0.19583 0.55649 0.61731
 H447 H 0.16795 0.63398 0.58283
 H448 H 0.11462 0.60938 0.61552
 C449 C 0.47295 0.53892 0.83353
 C450 C 0.46013 0.55389 0.84755
 C451 C 0.44409 0.57045 0.86503
 C452 C 0.46547 0.59815 0.88491
 C453 C 0.44934 0.61231 0.90348
 C454 C 0.41177 0.59881 0.90226
 C455 C 0.39048 0.57154 0.88202
 C456 C 0.40661 0.55739 0.86345
 C457 C 0.39495 0.61168 0.92275
 C458 C 0.38125 0.62215 0.94058
 H459 H 0.49443 0.60828 0.88645
 H460 H 0.46603 0.63328 0.91914
 H461 H 0.36138 0.56079 0.88099
 H462 H 0.38979 0.53580 0.84828
 C463 C 0.06641 0.52797 0.82471
 C464 C 0.09388 0.54078 0.83909
 C465 C 0.12586 0.55669 0.85725
 C466 C 0.13288 0.53467 0.87588
 C467 C 0.16216 0.55046 0.89541
 C468 C 0.18452 0.58834 0.89642
 C469 C 0.17793 0.61031 0.87739
 C470 C 0.14865 0.59452 0.85785
 C471 C 0.21290 0.60461 0.91805
 C472 C 0.23591 0.61780 0.93681
 H473 H 0.11527 0.50542 0.87576
 H474 H 0.16690 0.53322 0.91013
 H475 H 0.19493 0.63963 0.87809
 H476 H 0.14331 0.61182 0.84370
 C477 C 0.46215 0.93495 0.82825
 C478 C 0.44712 0.90742 0.84256
 C479 C 0.43049 0.87527 0.86054
 C480 C 0.40024 0.86757 0.87791
 C481 C 0.38589 0.83794 0.89713
 C482 C 0.40173 0.81590 0.89909
 C483 C 0.43158 0.82322 0.88135
 C484 C 0.44593 0.85285 0.86212
 C485 C 0.38844 0.78697 0.92033
 C486 C 0.37748 0.76345 0.93872
 H487 H 0.38824 0.88486 0.87702
 H488 H 0.36290 0.83262 0.91085
 H489 H 0.44415 0.80647 0.88278
 H490 H 0.46948 0.85871 0.84893
 C491 C 0.52488 0.45872 0.83358
 C492 C 0.53755 0.44368 0.84768
 C493 C 0.55338 0.42703 0.86527
 C494 C 0.53192 0.39974 0.88543
 C495 C 0.54788 0.38550 0.90406
 C496 C 0.58535 0.39851 0.90264
 C497 C 0.60671 0.42537 0.88214
 C498 C 0.59076 0.43960 0.86349
 C499 C 0.60202 0.38547 0.92311
 C500 C 0.61563 0.37485 0.94086
 H501 H 0.50305 0.38999 0.88711
 H502 H 0.53113 0.36485 0.91992
 H503 H 0.63573 0.43573 0.88094
 H504 H 0.60764 0.46086 0.84811
 C505 C 0.93451 0.47581 0.82479
 C506 C 0.90710 0.46327 0.83927
 C507 C 0.87521 0.44767 0.85755
 C508 C 0.86917 0.46976 0.87692
 C509 C 0.83993 0.45416 0.89653
 C510 C 0.81663 0.41641 0.89687
 C511 C 0.82225 0.39439 0.87711
 C512 C 0.85149 0.40999 0.85750
 C513 C 0.78818 0.40023 0.91847
 C514 C 0.76503 0.38703 0.93715
 H515 H 0.88750 0.49889 0.87731
 H516 H 0.83594 0.47143 0.91180
 H517 H 0.80451 0.36516 0.87728
 H518 H 0.85607 0.39263 0.84277
 C519 C 0.54172 0.06510 0.82864
 C520 C 0.55692 0.09271 0.84284
 C521 C 0.57375 0.12497 0.86071
 C522 C 0.55890 0.14793 0.86178
 C523 C 0.57341 0.17771 0.88089
 C524 C 0.60283 0.18462 0.89900
 C525 C 0.61808 0.16203 0.89754
 C526 C 0.60357 0.13225 0.87845
 C527 C 0.61626 0.21374 0.92008
 C528 C 0.62732 0.23745 0.93834
 H529 H 0.53569 0.14240 0.84831
 H530 H 0.56130 0.19489 0.88193
 H531 H 0.64073 0.16703 0.91155
 H532 H 0.61510 0.11453 0.87794
   
