data_POSCAR
  _audit_creation_date              2014-09-24
  _audit_creation_method            'ToBaCCo'
  _symmetry_space_group_name_H-M    'P1'
  _symmetry_Int_Tables_number       1
  _symmetry_cell_setting            triclinic
  loop_
  _symmetry_equiv_pos_as_xyz
 x,y,z
_cell_length_a 33.4334
_cell_length_b 32.9753
_cell_length_c 58.1316
_cell_angle_alpha 91.638100
_cell_angle_beta 91.525300
_cell_angle_gamma 88.682700
loop_
  _atom_site_label
  _atom_site_type_symbol
  _atom_site_fract_x
  _atom_site_fract_y
  _atom_site_fract_z
C1 C -0.02742 0.37868 0.98840
 C2 C -0.02901 0.38076 1.01194
 C3 C -0.01089 0.41662 1.01909
 N4 N 0.00090 0.43688 1.00065
 C5 C -0.00886 0.41349 0.98191
 C6 C -0.00299 0.42928 1.04223
 C7 C 0.00414 0.47071 1.04790
 C8 C 0.02510 0.48488 1.06731
 C9 C 0.02374 0.52649 1.06680
 C10 C 0.00188 0.53691 1.04712
 N11 N -0.00922 0.50263 1.03542
 C12 C -0.00829 0.57711 1.04050
 C13 C -0.01560 0.58551 1.01690
 C14 C -0.03479 0.61995 1.00829
 C15 C -0.03131 0.61781 0.98484
 C16 C -0.01117 0.58171 0.97981
 N17 N -0.00177 0.56183 0.99933
 C18 C 0.00037 0.56864 0.95763
 C19 C 0.01023 0.52774 0.95232
 C20 C 0.02945 0.51372 0.93270
 C21 C 0.02969 0.47200 0.93312
 C22 C 0.01057 0.46187 0.95298
 N23 N -0.00089 0.49600 0.96465
 C24 C 0.00127 0.42223 0.95921
 H25 H -0.03906 0.35451 0.97735
 H26 H -0.04249 0.35855 1.02247
 H27 H -0.01941 0.49751 0.97880
 H28 H 0.04086 0.46723 1.08022
 H29 H 0.03839 0.54656 1.07924
 H30 H -0.05034 0.64401 1.01767
 H31 H -0.04290 0.63995 0.97283
 H32 H 0.04229 0.45158 0.92019
 H33 H -0.02799 0.50117 1.02081
 H34 H 0.04165 0.53161 0.91935
 C35 C 0.62223 -0.02046 0.50945
 C36 C 0.62034 -0.02034 0.48590
 C37 C 0.58327 -0.00355 0.47969
 N38 N 0.56217 0.00584 0.49873
 C39 C 0.58614 -0.00424 0.51692
 C40 C 0.56991 0.00458 0.45687
 C41 C 0.52847 0.00973 0.45136
 C42 C 0.51256 0.02909 0.43216
 C43 C 0.47169 0.02604 0.43280
 C44 C 0.46353 0.00535 0.45248
 N45 N 0.49825 -0.00427 0.46381
 C46 C 0.42483 -0.00535 0.45908
 C47 C 0.41625 -0.01485 0.48194
 C48 C 0.38075 -0.03086 0.48900
 C49 C 0.38269 -0.03074 0.51259
 C50 C 0.41958 -0.01525 0.51918
 N51 N 0.43996 -0.00546 0.50041
 C52 C 0.43236 -0.00646 0.54208
 C53 C 0.47186 0.00493 0.54799
 C54 C 0.48433 0.02128 0.56917
 C55 C 0.52526 0.02432 0.56858
 C56 C 0.53670 0.00924 0.54718
 N57 N 0.50399 -0.00229 0.53472
 C58 C 0.57656 0.00305 0.54021
 H59 H 0.64711 -0.03191 0.51984
 H60 H 0.64345 -0.03209 0.47469
 H61 H 0.50426 -0.01887 0.51922
 H62 H 0.52843 0.04471 0.41921
 H63 H 0.45041 0.03839 0.42036
 H64 H 0.35573 -0.04107 0.47833
 H65 H 0.35926 -0.04033 0.52356
 H66 H 0.54436 0.03571 0.58250
 H67 H 0.50135 -0.02266 0.47806
 H68 H 0.46613 0.02952 0.58375
 C69 C 0.06938 0.00555 0.26339
 H70 H 0.07317 0.00692 0.24506
 C71 C 0.10315 0.00245 0.27801
 H72 H 0.13261 0.00195 0.27069
 C73 C 0.02665 0.00392 0.29514
 H74 H -0.00309 0.00336 0.30185
 C75 C 0.05950 0.00121 0.31037
 H76 H 0.05439 -0.00071 0.32861
 N77 N 0.03200 0.00707 0.27214
 C78 C -0.03326 -0.02869 0.21056
 H79 H -0.04523 0.00051 0.20541
 C80 C -0.03450 -0.06178 0.19507
 H81 H -0.04749 -0.05766 0.17802
 C82 C -0.00186 -0.06931 0.23910
 H83 H 0.01100 -0.07184 0.25628
 C84 C -0.00291 -0.10337 0.22423
 H85 H 0.00940 -0.13203 0.23011
 Zn86 Zn -0.01339 0.01334 0.25187
 N87 N -0.01661 -0.03287 0.23197
 C88 C 0.01961 0.05773 0.21667
 N89 N -0.00769 0.05990 0.23364
 C90 C -0.03155 0.09355 0.23666
 C91 C -0.02809 0.12680 0.22253
 C92 C 0.02375 0.09006 0.20200
 C93 C -0.09084 -0.00825 0.26529
 C94 C -0.12494 -0.00613 0.27871
 C95 C -0.09683 0.05108 0.29981
 C96 C -0.06352 0.04813 0.28586
 N97 N -0.06081 0.01844 0.26919
 H98 H 0.03735 0.03030 0.21399
 H99 H -0.05378 0.09464 0.24977
 H100 H -0.04760 0.15310 0.22514
 H101 H 0.04536 0.08735 0.18847
 H102 H -0.08817 -0.03160 0.25195
 H103 H -0.14819 -0.02808 0.27557
 H104 H -0.09795 0.07452 0.31322
 H105 H -0.03923 0.06895 0.28868
 C106 C -0.01898 -0.09971 0.20179
 C107 C 0.09842 0.00090 0.30189
 C108 C -0.12796 0.02348 0.29648
 C109 C -0.00035 0.12520 0.20479
 C110 C 0.00722 0.06701 0.75988
 H111 H 0.00635 0.07088 0.74146
 C112 C 0.00536 0.10099 0.77481
 H113 H 0.00329 0.13098 0.76770
 C114 C 0.01070 0.02313 0.79146
 H115 H 0.01191 -0.00717 0.79799
 C116 C 0.00922 0.05613 0.80695
 H117 H 0.00978 0.05058 0.82523
 N118 N 0.01058 0.02904 0.76839
 C119 C 0.06904 -0.04782 0.71643
 H120 H 0.04881 -0.07300 0.71579
 C121 C 0.10264 -0.04890 0.70268
 H122 H 0.10796 -0.07512 0.69145
 C123 C 0.08611 0.01700 0.73181
 H124 H 0.07978 0.04247 0.74332
 C125 C 0.11993 0.01734 0.71820
 H126 H 0.13916 0.04333 0.71936
 Zn127 Zn 0.01379 -0.01611 0.74749
 N128 N 0.06109 -0.01497 0.73036
 C129 C -0.02639 -0.00906 0.70437
 N130 N -0.03153 -0.01352 0.72728
 C131 C -0.06875 -0.01429 0.73613
 C132 C -0.10270 -0.01179 0.72163
 C133 C -0.05944 -0.00599 0.68932
 C134 C 0.04775 -0.07123 0.77818
 C135 C 0.04982 -0.10480 0.79226
 C136 C -0.01316 -0.12681 0.77544
 C137 C -0.01419 -0.09254 0.76180
 N138 N 0.01547 -0.06501 0.76390
 H139 H 0.00334 -0.00740 0.69770
 H140 H -0.07201 -0.01694 0.75449
 H141 H -0.13207 -0.01270 0.72899
 H142 H -0.05457 -0.00258 0.67114
 H143 H 0.07131 -0.04925 0.77917
 H144 H 0.07524 -0.10843 0.80401
 H145 H -0.03760 -0.14779 0.77399
 H146 H -0.03902 -0.08775 0.74986
 C147 C 0.12837 -0.01580 0.70324
 C148 C 0.00685 0.09574 0.79872
 C149 C 0.01872 -0.13275 0.79132
 C150 C -0.09824 -0.00756 0.69787
 C151 C -0.01137 -0.32908 0.08957
 N152 N -0.01533 -0.36809 0.09581
 N153 N -0.01437 -0.39824 0.08004
 C154 C -0.00926 -0.39080 0.05739
 N155 N -0.00496 -0.35160 0.05142
 N156 N -0.00615 -0.32142 0.06709
 C157 C -0.01298 -0.29546 0.10668
 N158 N -0.01468 -0.25651 0.09971
 N159 N -0.01623 -0.22578 0.11504
 C160 C -0.01590 -0.23280 0.13793
 N161 N -0.01409 -0.27176 0.14495
 N162 N -0.01279 -0.30256 0.12959
 C163 C -0.01729 -0.19861 0.15467
 N164 N -0.01127 -0.20454 0.17753
 N165 N -0.01191 -0.17320 0.19254
 C166 C -0.01884 -0.13478 0.18528
 N167 N -0.02504 -0.12903 0.16241
 N168 N -0.02418 -0.16029 0.14740
 C169 C 0.00383 0.34303 0.09269
 N170 N 0.01212 0.33289 0.07054
 N171 N 0.00993 0.36070 0.05439
 C172 C -0.00049 0.39993 0.05962
 N173 N -0.00840 0.41001 0.08194
 N174 N -0.00645 0.38212 0.09813
 C175 C 0.00535 0.31181 0.11023
 N176 N -0.00881 0.31968 0.13162
 N177 N -0.00849 0.29071 0.14717
 C178 C 0.00620 0.25291 0.14192
 N179 N 0.02061 0.24519 0.12060
 N180 N 0.02009 0.27406 0.10503
 C181 C 0.00562 0.22046 0.15869
 N182 N 0.02370 0.18401 0.15400
 N183 N 0.02223 0.15401 0.16879
 C184 C 0.00244 0.15917 0.18881
 N185 N -0.01556 0.19575 0.19350
 N186 N -0.01392 0.22586 0.17875
 C187 C 0.34714 -0.01030 0.59348
 N188 N 0.36032 -0.04498 0.58272
 N189 N 0.38769 -0.04379 0.56653
 C190 C 0.40278 -0.00787 0.56047
 N191 N 0.38964 0.02681 0.57123
 N192 N 0.36236 0.02561 0.58748
 C193 C 0.31627 -0.01154 0.61094
 N194 N 0.30448 0.02282 0.62254
 N195 N 0.27576 0.02184 0.63796
 C196 C 0.25773 -0.01351 0.64230
 N197 N 0.26961 -0.04788 0.63074
 N198 N 0.29840 -0.04692 0.61537
 C199 C 0.22513 -0.01440 0.65870
 N200 N 0.20451 -0.04887 0.66129
 N201 N 0.17408 -0.04939 0.67559
 C202 C 0.16312 -0.01552 0.68794
 N203 N 0.18402 0.01888 0.68544
 N204 N 0.21438 0.01946 0.67107
 C205 C -0.32914 0.00485 0.58943
 N206 N -0.32599 0.02390 0.56919
 N207 N -0.35608 0.02368 0.55372
 C208 C -0.39043 0.00423 0.55783
 N209 N -0.39360 -0.01475 0.57813
 N210 N -0.36355 -0.01438 0.59366
 C211 C -0.29546 0.00433 0.60615
 N212 N -0.29930 -0.01172 0.62722
 N213 N -0.26836 -0.01279 0.64216
 C214 C -0.23244 0.00197 0.63651
 N215 N -0.22865 0.01803 0.61546
 N216 N -0.25960 0.01927 0.60058
 C217 C -0.19794 0.00001 0.65264
 N218 N -0.16111 0.01012 0.64575
 N219 N -0.12956 0.00777 0.66015
 C220 C -0.13357 -0.00461 0.68204
 N221 N -0.17053 -0.01453 0.68895
 N222 N -0.20210 -0.01237 0.67450
 C223 C 0.00761 -0.34518 0.90630
 N224 N -0.01281 -0.37987 0.90219
 N225 N -0.01511 -0.40732 0.91846
 C226 C 0.00274 -0.40095 0.93948
 N227 N 0.02300 -0.36618 0.94360
 N228 N 0.02548 -0.33885 0.92730
 C229 C 0.01032 -0.31484 0.88845
 N230 N 0.03442 -0.28253 0.89181
 N231 N 0.03673 -0.25470 0.87577
 C232 C 0.01490 -0.25805 0.85581
 N233 N -0.00923 -0.29037 0.85243
 N234 N -0.01138 -0.31834 0.86843
 C235 C 0.01680 -0.22664 0.83850
 N236 N -0.00883 -0.22651 0.81999
 N237 N -0.00792 -0.19703 0.80481
 C238 C 0.01881 -0.16669 0.80748
 N239 N 0.04463 -0.16716 0.82592
 N240 N 0.04360 -0.19648 0.84114
 C241 C 0.00496 0.32682 0.90980
 N242 N -0.01096 0.36363 0.90427
 N243 N -0.01204 0.39397 0.91991
 C244 C 0.00287 0.38868 0.94162
 N245 N 0.01900 0.35190 0.94705
 N246 N 0.01994 0.32154 0.93146
 C247 C 0.00554 0.29297 0.89285
 N248 N 0.01794 0.25539 0.89926
 N249 N 0.01808 0.22439 0.88408
 C250 C 0.00597 0.22983 0.86189
 N251 N -0.00632 0.26745 0.85542
 N252 N -0.00661 0.29847 0.87065
 C253 C 0.00602 0.19534 0.84535
 N254 N -0.00258 0.20068 0.82266
 N255 N -0.00234 0.16912 0.80780
 C256 C 0.00631 0.13102 0.81508
 N257 N 0.01481 0.12586 0.83780
 N258 N 0.01474 0.15736 0.85262
 C259 C -0.34555 0.01623 0.40683
 N260 N -0.38266 0.00283 0.40105
 N261 N -0.41006 -0.00063 0.41709
 C262 C -0.40140 0.00881 0.43960
 N263 N -0.36416 0.02233 0.44519
 N264 N -0.33689 0.02605 0.42918
 C265 C -0.31480 0.01947 0.38944
 N266 N -0.27976 0.03774 0.39503
 N267 N -0.25118 0.03986 0.37963
 C268 C -0.25643 0.02355 0.35809
 N269 N -0.29151 0.00531 0.35245
 N270 N -0.32025 0.00342 0.36784
 C271 C -0.22406 0.02473 0.34155
 N272 N -0.22604 0.00310 0.32134
 N273 N -0.19574 0.00300 0.30688
 C274 C -0.16242 0.02470 0.31201
 N275 N -0.16074 0.04657 0.33215
 N276 N -0.19089 0.04651 0.34666
 C277 C 0.32965 -0.00165 0.41044
 N278 N 0.36538 -0.01914 0.40484
 N279 N 0.39568 -0.02022 0.42021
 C280 C 0.39137 -0.00375 0.44173
 N281 N 0.35575 0.01415 0.44717
 N282 N 0.32544 0.01504 0.43186
 C283 C 0.29572 -0.00128 0.39387
 N284 N 0.25893 0.01156 0.40068
 N285 N 0.22784 0.01150 0.38589
 C286 C 0.23238 -0.00123 0.36369
 N287 N 0.26921 -0.01395 0.35681
 N288 N 0.30032 -0.01409 0.37166
 C289 C 0.19783 -0.00120 0.34754
 N290 N 0.20251 -0.00905 0.32470
 N291 N 0.17098 -0.00852 0.31017
 C292 C 0.13356 -0.00037 0.31794
 N293 N 0.12903 0.00729 0.34082
 N294 N 0.16053 0.00697 0.35531
   
