data_POSCAR
  _audit_creation_date              2014-09-24
  _audit_creation_method            'ToBaCCo'
  _symmetry_space_group_name_H-M    'P1'
  _symmetry_Int_Tables_number       1
  _symmetry_cell_setting            triclinic
  loop_
  _symmetry_equiv_pos_as_xyz
 x,y,z
_cell_length_a 25.0113
_cell_length_b 36.5334
_cell_length_c 30.2794
_cell_angle_alpha 90.111800
_cell_angle_beta 90.062000
_cell_angle_gamma 89.825700
loop_
  _atom_site_label
  _atom_site_type_symbol
  _atom_site_fract_x
  _atom_site_fract_y
  _atom_site_fract_z
B1 B -0.04065 -0.03098 0.01428
 B2 B 0.02131 -0.02751 0.03469
 B3 B 0.01206 -0.03902 -0.01818
 B4 B -0.04115 -0.01588 -0.03826
 B5 B -0.06462 0.01104 0.00388
 B6 B -0.02556 0.00324 0.04945
 B7 B 0.03778 0.03197 -0.01479
 B8 B -0.02418 0.02849 -0.03521
 B9 B -0.01490 0.03997 0.01769
 B10 B 0.03831 0.01682 0.03773
 B11 B 0.06177 -0.01007 -0.00441
 B12 B 0.02272 -0.00227 -0.04998
 B13 B 0.51273 0.48075 0.54487
 B14 B 0.45269 0.47718 0.52067
 B15 B 0.47204 0.51720 0.54245
 B16 B 0.53810 0.52242 0.53389
 B17 B 0.55980 0.48472 0.50567
 B18 B 0.50616 0.45640 0.49798
 B19 B 0.48596 0.52031 0.45456
 B20 B 0.54603 0.52388 0.47877
 B21 B 0.52674 0.48386 0.45701
 B22 B 0.46061 0.47865 0.46556
 B23 B 0.43888 0.51638 0.49386
 B24 B 0.49259 0.54466 0.50144
 B25 B 0.53527 0.03522 0.50568
 B26 B 0.47654 0.03197 0.53166
 B27 B 0.47833 0.03913 0.47714
 B28 B 0.53037 0.01578 0.45542
 B29 B 0.56076 -0.00682 0.49822
 B30 B 0.52711 0.00382 0.54585
 B31 B 0.45832 -0.03177 0.49107
 B32 B 0.51706 -0.02849 0.46504
 B33 B 0.51519 -0.03568 0.51951
 B34 B 0.46318 -0.01232 0.54130
 B35 B 0.43280 0.01027 0.49851
 B36 B 0.46647 -0.00046 0.45091
 B37 B -0.03962 0.51314 0.03678
 B38 B 0.02129 0.53130 0.03076
 B39 B 0.01474 0.48685 0.04289
 B40 B -0.03916 0.47032 0.01601
 B41 B -0.06598 0.50573 -0.01340
 B42 B -0.02827 0.54382 -0.00362
 B43 B 0.03521 0.49314 -0.04404
 B44 B -0.02568 0.47496 -0.03800
 B45 B -0.01925 0.51948 -0.05014
 B46 B 0.03474 0.53596 -0.02327
 B47 B 0.06154 0.50053 0.00615
 B48 B 0.02389 0.46246 -0.00351
 B49 B 0.04274 0.46852 0.48545
 B50 B -0.01933 0.47204 0.46520
 B51 B -0.00973 0.45948 0.51765
 B52 B 0.04304 0.48252 0.53851
 B53 B 0.06585 0.51044 0.49732
 B54 B 0.02688 0.50342 0.45152
 B55 B -0.03691 0.53037 0.51680
 B56 B 0.02515 0.52685 0.53707
 B57 B 0.01555 0.53940 0.48460
 B58 B -0.03722 0.51635 0.46375
 B59 B -0.06004 0.48845 0.50495
 B60 B -0.02108 0.49549 0.55075
 B61 B 0.48873 -0.01903 -0.04584
 B62 B 0.54917 -0.02074 -0.02192
 B63 B 0.52635 0.01883 -0.04264
 B64 B 0.45996 0.02149 -0.03379
 B65 B 0.44162 -0.01732 -0.00637
 B66 B 0.49770 -0.04373 0.00041
 B67 B 0.51254 0.02021 0.04538
 B68 B 0.45214 0.02193 0.02135
 B69 B 0.47488 -0.01763 0.04216
 B70 B 0.54138 -0.02035 0.03330
 B71 B 0.55970 0.01850 0.00589
 B72 B 0.50363 0.04490 -0.00090
 B73 B 0.46813 0.53068 -0.00644
 B74 B 0.52709 0.52661 -0.03197
 B75 B 0.52480 0.53434 0.02239
 B76 B 0.47230 0.51166 0.04400
 B77 B 0.44211 0.48895 0.00119
 B78 B 0.47637 0.49890 -0.04623
 B79 B 0.54419 0.46309 0.00926
 B80 B 0.48524 0.46715 0.03480
 B81 B 0.48753 0.45948 -0.01960
 B82 B 0.54003 0.48215 -0.04116
 B83 B 0.57023 0.50480 0.00169
 B84 B 0.53595 0.49488 0.04911
 B85 B 0.04001 0.01065 0.45839
 B86 B -0.02009 0.02765 0.47199
 B87 B -0.01425 -0.01591 0.45525
 B88 B 0.04359 -0.03321 0.47508
 B89 B 0.07374 0.00072 0.50481
 B90 B 0.03393 0.03877 0.50229
 B91 B -0.02177 -0.01498 0.54385
 B92 B 0.03797 -0.03181 0.53024
 B93 B 0.03230 0.01170 0.54681
 B94 B -0.02558 0.02892 0.52727
 B95 B -0.05585 -0.00503 0.49754
 B96 B -0.01590 -0.04305 0.49986
 B97 B 0.76961 0.28520 0.26561
 B98 B 0.70527 0.27421 0.27237
 B99 B 0.72916 0.28255 0.22165
 B100 B 0.79208 0.26636 0.21818
 B101 B 0.80685 0.24697 0.26797
 B102 B 0.75270 0.25225 0.30181
 B103 B 0.72266 0.20986 0.23192
 B104 B 0.78699 0.22097 0.22521
 B105 B 0.76321 0.21247 0.27556
 B106 B 0.70031 0.22866 0.27934
 B107 B 0.68523 0.24811 0.22950
 B108 B 0.73967 0.24261 0.19564
 B109 B 0.73896 0.79058 0.77361
 B110 B 0.71002 0.77757 0.72645
 B111 B 0.77445 0.78980 0.72714
 B112 B 0.80262 0.77522 0.77474
 B113 B 0.75340 0.75316 0.80341
 B114 B 0.69571 0.75527 0.77329
 B115 B 0.76946 0.71657 0.72567
 B116 B 0.79825 0.72923 0.77330
 B117 B 0.73376 0.71732 0.77233
 B118 B 0.70577 0.73187 0.72490
 B119 B 0.75483 0.75404 0.69617
 B120 B 0.81292 0.75195 0.72633
 B121 B 0.26712 0.21912 0.73214
 B122 B 0.20222 0.22541 0.72165
 B123 B 0.22296 0.21890 0.77368
 B124 B 0.28269 0.23938 0.78041
 B125 B 0.29828 0.25975 0.73121
 B126 B 0.24807 0.25056 0.69463
 B127 B 0.20602 0.29079 0.76213
 B128 B 0.27129 0.28420 0.77255
 B129 B 0.25002 0.29094 0.72084
 B130 B 0.19053 0.27024 0.71377
 B131 B 0.17465 0.25012 0.76298
 B132 B 0.22518 0.25949 0.79978
 B133 B 0.22760 0.78868 0.24060
 B134 B 0.29166 0.77688 0.23333
 B135 B 0.26858 0.78582 0.28421
 B136 B 0.20542 0.77044 0.28837
 B137 B 0.18973 0.75094 0.23881
 B138 B 0.24346 0.75525 0.20440
 B139 B 0.27358 0.71298 0.27428
 B140 B 0.20958 0.72494 0.28156
 B141 B 0.23259 0.71582 0.23099
 B142 B 0.29568 0.73122 0.22659
 B143 B 0.31174 0.75077 0.27619
 B144 B 0.25768 0.74620 0.31059
 B145 B 0.27165 0.71265 0.78910
 B146 B 0.29792 0.72087 0.73922
 B147 B 0.23316 0.71003 0.74386
 B148 B 0.20861 0.72901 0.79052
 B149 B 0.26005 0.75266 0.81471
 B150 B 0.31602 0.74705 0.78263
 B151 B 0.24059 0.78269 0.73399
 B152 B 0.21429 0.77439 0.78353
 B153 B 0.27893 0.78530 0.77889
 B154 B 0.30341 0.76636 0.73232
 B155 B 0.25209 0.74285 0.70819
 B156 B 0.19637 0.74841 0.74022
 B157 B 0.20164 0.21170 0.25725
 B158 B 0.26715 0.21711 0.26764
 B159 B 0.24561 0.21040 0.21597
 B160 B 0.18673 0.23217 0.20877
 B161 B 0.17155 0.25292 0.25794
 B162 B 0.22178 0.24282 0.29471
 B163 B 0.26490 0.28195 0.22700
 B164 B 0.19980 0.27682 0.21648
 B165 B 0.22080 0.28326 0.26842
 B166 B 0.27988 0.26172 0.27530
 B167 B 0.29483 0.24078 0.22617
 B168 B 0.24489 0.25067 0.18952
 B169 B 0.79327 0.71143 0.23933
 B170 B 0.72784 0.71804 0.22972
 B171 B 0.74999 0.71116 0.28114
 B172 B 0.80962 0.73180 0.28761
 B173 B 0.82467 0.75206 0.23830
 B174 B 0.77348 0.74284 0.20206
 B175 B 0.73276 0.78304 0.27031
 B176 B 0.79785 0.77667 0.28004
 B177 B 0.77623 0.78334 0.22830
 B178 B 0.71632 0.76289 0.22215
 B179 B 0.70157 0.74241 0.27146
 B180 B 0.75241 0.75148 0.30750
 B181 B 0.72957 0.21509 0.71392
 B182 B 0.70593 0.22395 0.76465
 B183 B 0.77006 0.21209 0.75789
 B184 B 0.79286 0.23042 0.71040
 B185 B 0.74094 0.25478 0.68781
 B186 B 0.68644 0.25019 0.72173
 B187 B 0.76503 0.28494 0.76774
 B188 B 0.78870 0.27591 0.71735
 B189 B 0.72465 0.28790 0.72412
 B190 B 0.70191 0.26957 0.77153
 B191 B 0.75380 0.24545 0.79408
 B192 B 0.80796 0.24982 0.76017
 C193 C 0.07605 0.48162 0.91852
 C194 C 0.06145 0.46410 0.87938
 C195 C 0.09653 0.43611 0.85929
 N196 N 0.08014 0.41708 0.82317
 N197 N 0.10886 0.38892 0.80792
 C198 C 0.15478 0.37857 0.82852
 N199 N 0.17132 0.39777 0.86434
 N200 N 0.14280 0.42595 0.87943
 C201 C 0.18531 0.34604 0.81452
 C202 C 0.17447 0.32674 0.77579
 H203 H 0.02117 0.46694 0.86677
 H204 H 0.21680 0.33669 0.83627
 H205 H 0.11755 0.48044 0.92872
 H206 H 0.14295 0.33612 0.75401
 C207 C 0.47247 0.54185 0.41059
 C208 C 0.42034 0.54430 0.39433
 C209 C 0.40281 0.57414 0.36497
 N210 N 0.34995 0.57857 0.35622
 N211 N 0.33259 0.60738 0.33334
 C212 C 0.36747 0.63291 0.31833
 N213 N 0.42043 0.62821 0.32649
 N214 N 0.43779 0.59942 0.34947
 C215 C 0.34860 0.66631 0.29588
 C216 C 0.29437 0.67469 0.29161
 H217 H 0.38977 0.52648 0.40760
 H218 H 0.37825 0.68582 0.28488
 H219 H 0.50276 0.55981 0.39741
 H220 H 0.26474 0.65523 0.30267
 C221 C 0.95075 0.97022 0.58718
 C222 C 0.90089 0.95341 0.58624
 C223 C 0.88361 0.92765 0.62062
 N224 N 0.83507 0.91151 0.61713
 N225 N 0.82057 0.88546 0.64531
 C226 C 0.85414 0.87433 0.67798
 N227 N 0.90256 0.89073 0.68180
 N228 N 0.91705 0.91690 0.65361
 C229 C 0.83962 0.84363 0.70712
 C230 C 0.79072 0.82596 0.70231
 H231 H 0.87587 0.95609 0.55718
 H232 H 0.86851 0.83380 0.73103
 H233 H 0.97538 0.96796 0.61649
 H234 H 0.76238 0.83624 0.67830
 C235 C 0.52473 0.04175 0.08969
 C236 C 0.57617 0.04336 0.10752
 C237 C 0.59329 0.07303 0.13737
 N238 N 0.64582 0.07648 0.14782
 N239 N 0.66301 0.10504 0.17125
 C240 C 0.62828 0.13129 0.18515
 N241 N 0.57561 0.12756 0.17528
 N242 N 0.55843 0.09903 0.15175
 C243 C 0.64715 0.16442 0.20821
 C244 C 0.70138 0.17177 0.21433
 H245 H 0.60676 0.02493 0.09521
 H246 H 0.61762 0.18457 0.21811
 H247 H 0.49452 0.06047 0.10174
 H248 H 0.73087 0.15165 0.20434
 C249 C 0.95311 0.05922 0.44494
 C250 C 0.90593 0.05562 0.42100
 C251 C 0.88268 0.08746 0.39843
 N252 N 0.84014 0.08359 0.37097
 N253 N 0.81947 0.11262 0.35039
 C254 C 0.84052 0.14647 0.35685
 N255 N 0.88272 0.15029 0.38447
 N256 N 0.90342 0.12134 0.40484
 C257 C 0.81957 0.17886 0.33431
 C258 C 0.78029 0.17718 0.30184
 H259 H 0.88594 0.02944 0.41884
 H260 H 0.83747 0.20496 0.34264
 H261 H 0.97317 0.08544 0.44610
 H262 H 0.76244 0.15122 0.29301
 C263 C 0.40684 0.45159 0.53857
 C264 C 0.38893 0.45116 0.58209
 C265 C 0.35679 0.42069 0.59924
 N266 N 0.34056 0.42088 0.64197
 N267 N 0.31526 0.39210 0.65890
 C268 C 0.30544 0.36201 0.63374
 N269 N 0.32128 0.36195 0.59093
 N270 N 0.34640 0.39076 0.57398
 C271 C 0.28195 0.32882 0.65291
 C272 C 0.26387 0.32779 0.69635
 H273 H 0.40223 0.47170 0.60525
 H274 H 0.28198 0.30410 0.63310
 H275 H 0.39244 0.43090 0.51586
 H276 H 0.26233 0.35282 0.71550
 C277 C 0.59721 0.95590 0.95906
 C278 C 0.61133 0.95487 0.91459
 C279 C 0.64399 0.92499 0.89617
 N280 N 0.65141 0.92271 0.85189
 N281 N 0.67645 0.89398 0.83422
 C282 C 0.69494 0.86643 0.86020
 N283 N 0.68818 0.86895 0.90454
 N284 N 0.66313 0.89768 0.92221
 C285 C 0.71860 0.83313 0.84095
 C286 C 0.72301 0.82828 0.79546
 H287 H 0.59338 0.97384 0.89161
 H288 H 0.72973 0.81114 0.86308
 H289 H 0.61572 0.93670 0.98164
 H290 H 0.71243 0.85051 0.77350
 C291 C 0.04277 0.56066 0.06396
 C292 C 0.09244 0.55859 0.08452
 C293 C 0.11068 0.58832 0.11341
 N294 N 0.16176 0.58901 0.12855
 N295 N 0.17876 0.61681 0.15340
 C296 C 0.14513 0.64476 0.16396
 N297 N 0.09404 0.64381 0.14923
 N298 N 0.07714 0.61614 0.12440
 C299 C 0.16275 0.67624 0.18999
 C300 C 0.21507 0.68059 0.20472
 H301 H 0.11890 0.53565 0.07823
 H302 H 0.13308 0.69708 0.19710
 H303 H 0.01721 0.58418 0.06967
 H304 H 0.24497 0.65990 0.19766
 C305 C 0.44981 0.96240 0.08377
 C306 C 0.42395 0.92880 0.07859
 C307 C 0.40505 0.90569 0.11498
 N308 N 0.39018 0.87084 0.10585
 N309 N 0.37171 0.84911 0.13750
 C310 C 0.36722 0.86139 0.17964
 N311 N 0.38203 0.89637 0.18890
 N312 N 0.40092 0.91813 0.15717
 C313 C 0.34314 0.83807 0.21392
 C314 C 0.33157 0.80131 0.20563
 H315 H 0.41915 0.91751 0.04572
 H316 H 0.33111 0.85088 0.24447
 H317 H 0.45657 0.97355 0.11643
 H318 H 0.34598 0.78905 0.17528
 C319 C 0.55280 0.46504 0.41503
 C320 C 0.58787 0.43558 0.42040
 C321 C 0.60345 0.41025 0.38502
 N322 N 0.62658 0.37801 0.39628
 N323 N 0.64053 0.35385 0.36549
 C324 C 0.63196 0.36096 0.32210
 N325 N 0.60915 0.39341 0.31064
 N326 N 0.59473 0.41757 0.34161
 C327 C 0.65047 0.33491 0.28820
 C328 C 0.66648 0.29963 0.29998
 H329 H 0.60094 0.42822 0.45334
 H330 H 0.65490 0.34463 0.25481
 H331 H 0.53816 0.47225 0.38253
 H332 H 0.65820 0.29024 0.33318
 C333 C 0.96338 0.53817 0.90457
 C334 C 0.91582 0.55839 0.90262
 C335 C 0.90443 0.58783 0.87075
 N336 N 0.86672 0.61303 0.88148
 N337 N 0.85561 0.64072 0.85453
 C338 C 0.88162 0.64438 0.81551
 N339 N 0.91907 0.61890 0.80432
 N340 N 0.93070 0.59126 0.83167
 C341 C 0.86652 0.67428 0.78504
 C342 C 0.83862 0.70477 0.80093
 H343 H 0.88784 0.55632 0.92978
 H344 H 0.87363 0.67089 0.75005
 H345 H 0.99260 0.54049 0.87840
 H346 H 0.83651 0.70864 0.83637
 C347 C 0.05404 0.02792 0.59201
 C348 C 0.10172 0.04767 0.59297
 C349 C 0.11320 0.07676 0.62529
 N350 N 0.15285 0.10079 0.61625
 N351 N 0.16197 0.12920 0.64268
 C352 C 0.13181 0.13483 0.67932
 N353 N 0.09263 0.11041 0.68897
 N354 N 0.08315 0.08203 0.66220
 C355 C 0.14264 0.16650 0.70833
 C356 C 0.17231 0.19595 0.69248
 H357 H 0.12856 0.04583 0.56499
 H358 H 0.12912 0.16597 0.74225
 H359 H 0.02656 0.02989 0.61951
 H360 H 0.18170 0.19673 0.65757
 C361 C 0.08139 0.43710 0.46924
 C362 C 0.11223 0.44095 0.43116
 C363 C 0.13697 0.40956 0.40882
 N364 N 0.15733 0.41364 0.36760
 N365 N 0.17645 0.38491 0.34547
 C366 C 0.17596 0.35108 0.36391
 N367 N 0.15627 0.34710 0.40535
 N368 N 0.13696 0.37578 0.42739
 C369 C 0.19418 0.31868 0.33952
 C370 C 0.20804 0.31954 0.29490
 H371 H 0.11424 0.46720 0.41470
 H372 H 0.19384 0.29292 0.35712
 H373 H 0.07894 0.41084 0.48559
 H374 H 0.20784 0.34524 0.27720
 C375 C 0.43159 0.56488 0.98446
 C376 C 0.38676 0.56208 0.95733
 C377 C 0.36533 0.59381 0.93371
 N378 N 0.32948 0.58878 0.90061
 N379 N 0.31380 0.61683 0.87570
 C380 C 0.33363 0.65084 0.88303
 N381 N 0.36884 0.65596 0.91652
 N382 N 0.38459 0.62792 0.94134
 C383 C 0.31908 0.68179 0.85491
 C384 C 0.28608 0.67835 0.81804
 H385 H 0.37166 0.53535 0.94816
 H386 H 0.33593 0.70819 0.86333
 H387 H 0.44693 0.59152 0.99358
 H388 H 0.26869 0.65217 0.80956
 C389 C 0.57224 0.06918 0.51437
 C390 C 0.61655 0.06631 0.54209
 C391 C 0.63660 0.09781 0.56697
 N392 N 0.67242 0.09252 0.60004
 N393 N 0.68675 0.12017 0.62616
 C394 C 0.66549 0.15402 0.62018
 N395 N 0.63024 0.15941 0.58676
 N396 N 0.61586 0.13177 0.56072
 C397 C 0.67913 0.18457 0.64932
 C398 C 0.71338 0.18089 0.68538
 H399 H 0.63178 0.03954 0.55105
 H400 H 0.66147 0.21096 0.64186
 H401 H 0.55708 0.09587 0.50508
 H402 H 0.73153 0.15469 0.69288
 C403 C 0.92163 0.93688 0.02951
 C404 C 0.88842 0.94037 0.06630
 C405 C 0.86561 0.90850 0.08889
 N406 N 0.83960 0.91302 0.12786
 N407 N 0.82211 0.88416 0.15043
 C408 C 0.83012 0.84973 0.13478
 N409 N 0.85565 0.84526 0.09562
 N410 N 0.87319 0.87408 0.07311
 C411 C 0.81347 0.81735 0.15976
 C412 C 0.78968 0.81921 0.20140
 H413 H 0.88293 0.96693 0.08164
 H414 H 0.82207 0.79093 0.14506
 H415 H 0.92709 0.91041 0.01403
 H416 H 0.78144 0.84554 0.21636
 C417 C 0.95613 0.05787 0.93019
 C418 C 0.90718 0.05631 0.90820
 C419 C 0.89095 0.08523 0.87697
 N420 N 0.84165 0.08477 0.85811
 N421 N 0.82632 0.11153 0.83093
 C422 C 0.85989 0.13964 0.82147
 N423 N 0.90924 0.13989 0.84003
 N424 N 0.92450 0.11321 0.86718
 C425 C 0.84301 0.17092 0.79422
 C426 C 0.79184 0.17426 0.77626
 H427 H 0.87996 0.03393 0.91456
 H428 H 0.87100 0.19331 0.79108
 H429 H 0.98264 0.08063 0.92393
 H430 H 0.76435 0.15159 0.77871
 C431 C 0.04437 0.55564 0.57271
 C432 C 0.09455 0.55497 0.59284
 C433 C 0.11102 0.58380 0.62422
 N434 N 0.16095 0.58359 0.64194
 N435 N 0.17657 0.61029 0.66915
 C436 C 0.14271 0.63813 0.67975
 N437 N 0.09277 0.63815 0.66228
 N438 N 0.07719 0.61152 0.63513
 C439 C 0.15986 0.66934 0.70713
 C440 C 0.21119 0.67244 0.72487
 H441 H 0.12271 0.53340 0.58471
 H442 H 0.13183 0.69179 0.71082
 H443 H 0.01670 0.57744 0.58092
 H444 H 0.23860 0.64965 0.72199
 C445 C 0.53534 0.93998 0.43259
 C446 C 0.58210 0.94152 0.40768
 C447 C 0.60033 0.91022 0.38082
 N448 N 0.64645 0.91248 0.35741
 N449 N 0.66430 0.88385 0.33430
 C450 C 0.63664 0.85189 0.33376
 N451 N 0.59043 0.84971 0.35699
 N452 N 0.57257 0.87833 0.38002
 C453 C 0.65716 0.81926 0.31070
 C454 C 0.70482 0.81945 0.28687
 H455 H 0.60678 0.96581 0.40884
 H456 H 0.63540 0.79390 0.31474
 H457 H 0.51083 0.91564 0.43119
 H458 H 0.72641 0.84485 0.28287
 C459 C 0.46634 0.43602 0.06715
 C460 C 0.41994 0.43844 0.09237
 C461 C 0.40095 0.40731 0.11877
 N462 N 0.35516 0.41026 0.14251
 N463 N 0.33653 0.38173 0.16508
 C464 C 0.36306 0.34922 0.16472
 N465 N 0.40898 0.34636 0.14119
 N466 N 0.42761 0.37487 0.11869
 C467 C 0.34153 0.31677 0.18704
 C468 C 0.29416 0.31782 0.21115
 H469 H 0.39606 0.46322 0.09167
 H470 H 0.36212 0.29096 0.18217
 H471 H 0.49000 0.41118 0.06811
 H472 H 0.27379 0.34369 0.21610
 C473 C 0.54494 0.57183 0.04237
 C474 C 0.55117 0.57669 0.08774
 C475 C 0.58090 0.60750 0.10695
 N476 N 0.59095 0.60787 0.15095
 N477 N 0.62036 0.63431 0.16890
 C478 C 0.64089 0.66145 0.14353
 N479 N 0.63042 0.66133 0.09952
 N480 N 0.60107 0.63477 0.08151
 C481 C 0.67475 0.69016 0.16307
 C482 C 0.69129 0.68832 0.20698
 H483 H 0.53728 0.55567 0.11014
 H484 H 0.68803 0.71247 0.14232
 H485 H 0.55880 0.59266 0.01977
 H486 H 0.67807 0.66574 0.22723
 C487 C 0.02759 0.92157 0.96469
 C488 C 0.02737 0.91311 0.91981
 C489 C 0.05774 0.88210 0.90164
 N490 N 0.06380 0.87906 0.85729
 N491 N 0.09510 0.85316 0.84016
 C492 C 0.12154 0.82931 0.86678
 N493 N 0.11485 0.83197 0.91113
 N494 N 0.08365 0.85798 0.92829
 C495 C 0.15850 0.80192 0.84837
 C496 C 0.17209 0.80173 0.80376
 H497 H 0.00950 0.93208 0.89658
 H498 H 0.17696 0.78251 0.87071
 H499 H 0.04550 0.90274 0.98800
 H500 H 0.15395 0.82141 0.78161
 C501 C 0.45811 0.07643 0.45653
 C502 C 0.45050 0.08021 0.41113
 C503 C 0.41907 0.11012 0.39150
 N504 N 0.40720 0.10893 0.34782
 N505 N 0.37623 0.13447 0.32959
 C506 C 0.35589 0.16221 0.35436
 N507 N 0.36815 0.16364 0.39803
 N508 N 0.39903 0.13797 0.41634
 C509 C 0.32086 0.19019 0.33449
 C510 C 0.30281 0.18711 0.29105
 H511 H 0.46418 0.05873 0.38911
 H512 H 0.30858 0.21332 0.35452
 H513 H 0.44446 0.09773 0.47875
 H514 H 0.31489 0.16367 0.27155
 C515 C 0.97523 0.41972 0.53350
 C516 C 0.97731 0.41015 0.57798
 C517 C 0.94598 0.37977 0.59617
 N518 N 0.94190 0.37611 0.64058
 N519 N 0.90969 0.35107 0.65800
 C520 C 0.88027 0.32873 0.63164
 N521 N 0.88497 0.33196 0.58717
 N522 N 0.91710 0.35713 0.56973
 C523 C 0.84240 0.30238 0.65064
 C524 C 0.83073 0.30239 0.69562
 H525 H 0.99711 0.42816 0.60126
 H526 H 0.82199 0.28362 0.62865
 H527 H 0.95544 0.40186 0.51011
 H528 H 0.85078 0.32162 0.71715
 C529 C 0.91987 0.52470 0.07440
 C530 C 0.93507 0.54078 0.11429
 C531 C 0.90060 0.56832 0.13590
 N532 N 0.91752 0.58605 0.17282
 N533 N 0.88932 0.61388 0.18954
 C534 C 0.84339 0.62517 0.16967
 N535 N 0.82631 0.60724 0.13308
 N536 N 0.85431 0.57939 0.11653
 C537 C 0.81351 0.65748 0.18512
 C538 C 0.82431 0.67550 0.22475
 H539 H 0.97537 0.53716 0.12659
 H540 H 0.78247 0.66783 0.16359
 H541 H 0.87846 0.52682 0.06420
 H542 H 0.85536 0.66521 0.24639
 C543 C 0.52617 0.45929 0.58885
 C544 C 0.57824 0.45704 0.60525
 C545 C 0.59580 0.42723 0.63460
 N546 N 0.64869 0.42264 0.64302
 N547 N 0.66604 0.39380 0.66583
 C548 C 0.63111 0.36841 0.68110
 N549 N 0.57811 0.37330 0.67330
 N550 N 0.56076 0.40211 0.65038
 C551 C 0.64994 0.33498 0.70342
 C552 C 0.70411 0.32622 0.70678
 H553 H 0.60876 0.47489 0.59200
 H554 H 0.62025 0.31573 0.71500
 H555 H 0.49594 0.44125 0.60196
 H556 H 0.73378 0.34538 0.69504
 C557 C 0.07494 0.02413 0.41828
 C558 C 0.05536 0.04428 0.38271
 C559 C 0.08976 0.07116 0.36035
 N560 N 0.07083 0.09120 0.32594
 N561 N 0.09996 0.11825 0.30886
 C562 C 0.14880 0.12640 0.32593
 N563 N 0.16774 0.10623 0.36006
 N564 N 0.13886 0.07914 0.37687
 C565 C 0.18003 0.15784 0.31051
 C566 C 0.16898 0.17665 0.27159
 H567 H 0.01326 0.04369 0.37457
 H568 H 0.21253 0.16672 0.33145
 H569 H 0.11776 0.02318 0.42362
 H570 H 0.13656 0.16768 0.25050
 C571 C 0.47628 0.95936 0.90998
 C572 C 0.42450 0.95710 0.89300
 C573 C 0.40716 0.92647 0.86476
 N574 N 0.35429 0.92163 0.85663
 N575 N 0.33713 0.89212 0.83498
 C576 C 0.37224 0.86628 0.82064
 N577 N 0.42522 0.87140 0.82812
 N578 N 0.44237 0.90087 0.84990
 C579 C 0.35361 0.83233 0.79935
 C580 C 0.29951 0.82341 0.79677
 H581 H 0.39385 0.97543 0.90541
 H582 H 0.38336 0.81304 0.78760
 H583 H 0.50639 0.94058 0.89792
 H584 H 0.26984 0.84257 0.80891
 C585 C 0.06369 0.93673 0.55804
 C586 C 0.11019 0.94019 0.58282
 C587 C 0.13232 0.90815 0.60564
 N588 N 0.17210 0.91188 0.63580
 N589 N 0.19121 0.88265 0.65695
 C590 C 0.17136 0.84877 0.64837
 N591 N 0.13210 0.84508 0.61793
 N592 N 0.11292 0.87422 0.59701
 C593 C 0.19031 0.81625 0.67173
 C594 C 0.22544 0.81804 0.70722
 H595 H 0.13022 0.96632 0.58561
 H596 H 0.17408 0.79008 0.66160
 H597 H 0.04337 0.91061 0.55668
 H598 H 0.24136 0.84411 0.71791
 C599 C 0.59194 0.54939 0.46097
 C600 C 0.60963 0.55010 0.41740
 C601 C 0.64186 0.58070 0.40067
 N602 N 0.65855 0.58081 0.35806
 N603 N 0.68402 0.60972 0.34161
 C604 C 0.69354 0.63964 0.36715
 N605 N 0.67719 0.63941 0.40982
 N606 N 0.65194 0.61047 0.42629
 C607 C 0.71715 0.67300 0.34851
 C608 C 0.73652 0.67418 0.30547
 H609 H 0.59611 0.52970 0.39407
 H610 H 0.71616 0.69771 0.36832
 H611 H 0.60662 0.56983 0.48388
 H612 H 0.73902 0.64916 0.28636
 C613 C 0.40401 0.04563 0.03928
 C614 C 0.38826 0.04754 0.08328
 C615 C 0.35485 0.07801 0.09933
 N616 N 0.33938 0.07929 0.14224
 N617 N 0.31319 0.10835 0.15793
 C618 C 0.30175 0.13728 0.13133
 N619 N 0.31688 0.13588 0.08840
 N620 N 0.34282 0.10677 0.07268
 C621 C 0.27768 0.17098 0.14909
 C622 C 0.25844 0.17298 0.19212
 H623 H 0.40443 0.02858 0.10720
 H624 H 0.27838 0.19530 0.12871
 H625 H 0.38626 0.06445 0.01583
 H626 H 0.25590 0.14826 0.21165
 C627 C 0.95314 0.44528 0.92909
 C628 C 0.90307 0.44637 0.90911
 C629 C 0.88506 0.41562 0.88163
 N630 N 0.83388 0.41405 0.86684
 N631 N 0.81717 0.38531 0.84343
 C632 C 0.85114 0.35726 0.83406
 N633 N 0.90231 0.35906 0.84848
 N634 N 0.91894 0.38767 0.87184
 C635 C 0.83392 0.32491 0.80939
 C636 C 0.78191 0.32026 0.79412
 H637 H 0.87617 0.46913 0.91506
 H638 H 0.86373 0.30396 0.80323
 H639 H 0.97914 0.42195 0.92365
 H640 H 0.75192 0.34110 0.80017
 C641 C 0.55088 0.03884 0.91565
 C642 C 0.57775 0.07204 0.92070
 C643 C 0.59566 0.09517 0.88403
 N644 N 0.61064 0.13004 0.89285
 N645 N 0.62816 0.15176 0.86083
 C646 C 0.63157 0.13944 0.81863
 N647 N 0.61669 0.10443 0.80969
 N648 N 0.59871 0.08270 0.84179
 C649 C 0.65482 0.16272 0.78398
 C650 C 0.66564 0.19960 0.79197
 H651 H 0.58384 0.08303 0.95358
 H652 H 0.66718 0.14982 0.75357
 H653 H 0.54250 0.02826 0.88298
 H654 H 0.65072 0.21195 0.82210
 C655 C 0.44625 0.53564 0.58473
 C656 C 0.41648 0.56780 0.58063
 C657 C 0.40009 0.59080 0.61799
 N658 N 0.38466 0.62572 0.60992
 N659 N 0.36922 0.64752 0.64272
 C660 C 0.36843 0.63524 0.68496
 N661 N 0.38358 0.60014 0.69315
 N662 N 0.39957 0.57833 0.66025
 C663 C 0.34738 0.65875 0.72047
 C664 C 0.33883 0.69598 0.71312
 H665 H 0.40809 0.57856 0.54802
 H666 H 0.33415 0.64591 0.75059
 H667 H 0.45679 0.52534 0.61709
 H668 H 0.35527 0.70816 0.68352
 C669 C 0.03126 0.46835 0.08837
 C670 C 0.08234 0.45343 0.09387
 C671 C 0.09526 0.42358 0.12478
 N672 N 0.14168 0.40497 0.11902
 N673 N 0.15347 0.37612 0.14395
 C674 C 0.11936 0.36464 0.17585
 N675 N 0.07317 0.38364 0.18231
 N676 N 0.06109 0.41245 0.15698
 C677 C 0.13299 0.33226 0.20291
 C678 C 0.17118 0.30727 0.18785
 H679 H 0.11317 0.46019 0.07019
 H680 H 0.11430 0.32864 0.23484
 H681 H -0.00016 0.46154 0.11146
 H682 H 0.18684 0.31059 0.15475
 C683 C 0.96377 0.96796 0.41006
 C684 C 0.91443 0.95020 0.40875
 C685 C 0.90017 0.92182 0.37624
 N686 N 0.85746 0.90022 0.38472
 N687 N 0.84530 0.87244 0.35816
 C688 C 0.87531 0.86503 0.32189
 N689 N 0.91763 0.88703 0.31279
 N690 N 0.93014 0.91479 0.33970
 C691 C 0.86134 0.83382 0.29300
 C692 C 0.82824 0.80614 0.30887
 H693 H 0.88740 0.95332 0.43644
 H694 H 0.87568 0.83317 0.25929
 H695 H 0.99149 0.96486 0.38287
 H696 H 0.81751 0.80649 0.34353
 C697 C 0.92455 0.56188 0.53279
 C698 C 0.89267 0.55814 0.57029
 C699 C 0.86727 0.58971 0.59183
 N700 N 0.84262 0.58554 0.63142
 N701 N 0.82258 0.61441 0.65280
 C702 C 0.82658 0.64844 0.63522
 N703 N 0.85075 0.65252 0.59547
 N704 N 0.87081 0.62372 0.57417
 C705 C 0.80736 0.68099 0.65874
 C706 C 0.78450 0.67998 0.70074
 H707 H 0.88973 0.53185 0.58657
 H708 H 0.81351 0.70707 0.64260
 H709 H 0.92755 0.58814 0.51647
 H710 H 0.77831 0.65411 0.71730
 C711 C 0.58065 0.42886 0.01840
 C712 C 0.62435 0.43144 0.04677
 C713 C 0.64309 0.39991 0.07224
 N714 N 0.67769 0.40504 0.10620
 N715 N 0.69060 0.37742 0.13282
 C716 C 0.66907 0.34377 0.12644
 N717 N 0.63507 0.33852 0.09214
 N718 N 0.62211 0.36613 0.06560
 C719 C 0.68124 0.31326 0.15598
 C720 C 0.71405 0.31682 0.19294
 H721 H 0.63974 0.45810 0.05589
 H722 H 0.66374 0.28696 0.14802
 H723 H 0.56532 0.40228 0.00898
 H724 H 0.73173 0.34298 0.20116
 C725 C 0.42154 0.93419 0.48269
 C726 C 0.37754 0.93665 0.45466
 C727 C 0.35818 0.90478 0.43018
 N728 N 0.32296 0.90949 0.39657
 N729 N 0.30950 0.88147 0.37074
 C730 C 0.33107 0.84781 0.37755
 N731 N 0.36569 0.84298 0.41152
 N732 N 0.37919 0.87100 0.43728
 C733 C 0.31837 0.81692 0.34870
 C734 C 0.28459 0.82022 0.31234
 H735 H 0.36228 0.96327 0.44509
 H736 H 0.33614 0.79066 0.35665
 H737 H 0.43671 0.90764 0.49254
 H738 H 0.26634 0.84630 0.30444
 C739 C 0.07537 0.06422 0.97019
 C740 C 0.10865 0.06103 0.93342
 C741 C 0.13151 0.09312 0.91130
 N742 N 0.15848 0.08889 0.87273
 N743 N 0.17607 0.11794 0.85056
 C744 C 0.16718 0.15227 0.86620
 N745 N 0.14065 0.15647 0.90495
 N746 N 0.12305 0.12745 0.92707
 C747 C 0.18385 0.18483 0.84152
 C748 C 0.20944 0.18308 0.80062
 H749 H 0.11429 0.03458 0.91785
 H750 H 0.17392 0.21120 0.85576
 H751 H 0.06986 0.09059 0.98594
 H752 H 0.21923 0.15677 0.78627
 C753 C 0.04094 0.94316 0.06935
 C754 C 0.09006 0.94458 0.09105
 C755 C 0.10630 0.91565 0.12224
 N756 N 0.15574 0.91598 0.14084
 N757 N 0.17110 0.88917 0.16794
 C758 C 0.13743 0.86116 0.17757
 N759 N 0.08794 0.86105 0.15927
 N760 N 0.07265 0.88777 0.13221
 C761 C 0.15438 0.82985 0.20471
 C762 C 0.20568 0.82646 0.22234
 H763 H 0.11744 0.96683 0.08446
 H764 H 0.12636 0.80749 0.20801
 H765 H 0.01425 0.92055 0.07587
 H766 H 0.23322 0.84910 0.21967
 C767 C 0.96142 0.44331 0.42947
 C768 C 0.90996 0.44253 0.41172
 C769 C 0.89320 0.41342 0.38082
 N770 N 0.84230 0.41250 0.36517
 N771 N 0.82640 0.38549 0.33853
 C772 C 0.86091 0.35844 0.32648
 N773 N 0.91181 0.35953 0.34191
 N774 N 0.92767 0.38649 0.36848
 C775 C 0.84356 0.32691 0.29970
 C776 C 0.79145 0.32300 0.28393
 H777 H 0.88096 0.46307 0.42154
 H778 H 0.87214 0.30495 0.29485
 H779 H 0.99004 0.42264 0.41944
 H780 H 0.76323 0.34524 0.28806
 C781 C 0.45837 0.06360 0.56394
 C782 C 0.41365 0.06130 0.59118
 C783 C 0.39617 0.09252 0.61850
 N784 N 0.35180 0.08978 0.64403
 N785 N 0.33470 0.11833 0.66768
 C786 C 0.36144 0.15065 0.66668
 N787 N 0.40594 0.15328 0.64135
 N788 N 0.42303 0.12477 0.61777
 C789 C 0.34156 0.18320 0.69022
 C790 C 0.29534 0.18273 0.71587
 H791 H 0.39017 0.03644 0.59172
 H792 H 0.36231 0.20878 0.68484
 H793 H 0.48153 0.08857 0.56358
 H794 H 0.27467 0.15714 0.72113
 C795 C 0.54558 0.55705 0.93464
 C796 C 0.59755 0.55927 0.91842
 C797 C 0.61389 0.58872 0.88833
 N798 N 0.66557 0.59129 0.87512
 N799 N 0.68102 0.61842 0.84874
 C800 C 0.64527 0.64389 0.83451
 N801 N 0.59358 0.64116 0.84750
 N802 N 0.57816 0.61408 0.87389
 C803 C 0.66181 0.67499 0.80712
 C804 C 0.71492 0.68087 0.79537
 H805 H 0.62728 0.53936 0.92858
 H806 H 0.63149 0.69478 0.79787
 H807 H 0.51603 0.57703 0.92439
 H808 H 0.74514 0.66094 0.80431
 C809 C 0.46706 0.42221 0.96005
 C810 C 0.45982 0.41808 0.91467
 C811 C 0.42739 0.38867 0.89530
 N812 N 0.41542 0.38977 0.85164
 N813 N 0.38338 0.36480 0.83369
 C814 C 0.36201 0.33776 0.85873
 N815 N 0.37440 0.33640 0.90236
 N816 N 0.40635 0.36149 0.92039
 C817 C 0.32583 0.31047 0.83916
 C818 C 0.30764 0.31374 0.79581
 H819 H 0.47427 0.43908 0.89250
 H820 H 0.31297 0.28766 0.85929
 H821 H 0.45262 0.40138 0.98240
 H822 H 0.32022 0.33689 0.77624
 C823 C 0.96951 0.07922 0.03527
 C824 C 0.97274 0.08776 0.08007
 C825 C 0.94195 0.11783 0.09989
 N826 N 0.93804 0.12011 0.14448
 N827 N 0.90641 0.14503 0.16324
 C828 C 0.87750 0.16861 0.13806
 N829 N 0.88205 0.16673 0.09346
 N830 N 0.91354 0.14169 0.07468
 C831 C 0.84045 0.19499 0.15829
 C832 C 0.82836 0.19400 0.20318
 H833 H 0.99316 0.06920 0.10234
 H834 H 0.82087 0.21475 0.13706
 H835 H 0.94888 0.09753 0.01290
 H836 H 0.84742 0.17390 0.22424
 C837 C 0.53525 0.92675 0.53919
 C838 C 0.53524 0.91962 0.58437
 C839 C 0.56420 0.88829 0.60340
 N840 N 0.56626 0.88411 0.64787
 N841 N 0.59536 0.85738 0.66581
 C842 C 0.62352 0.83384 0.63991
 N843 N 0.62103 0.83779 0.59542
 N844 N 0.59193 0.86452 0.57748
 C845 C 0.65879 0.80585 0.65929
 C846 C 0.66549 0.80251 0.70480
 H847 H 0.51667 0.93894 0.60686
 H848 H 0.68248 0.78911 0.63711
 H849 H 0.55376 0.90743 0.51672
 H850 H 0.64131 0.81902 0.72683
 C851 C 0.03061 0.57914 0.46862
 C852 C 0.02710 0.58894 0.42426
 C853 C 0.05775 0.61946 0.40559
 N854 N 0.05978 0.62366 0.36114
 N855 N 0.09120 0.64890 0.34316
 C856 C 0.12185 0.67090 0.36895
 N857 N 0.11925 0.66710 0.41348
 N858 N 0.08790 0.64174 0.43149
 C859 C 0.15889 0.69747 0.34927
 C860 C 0.16790 0.69851 0.30389
 H861 H 0.00640 0.57112 0.40131
 H862 H 0.18090 0.71552 0.37107
 H863 H 0.05131 0.59681 0.49168
 H864 H 0.14613 0.68009 0.28247
   
