data_POSCAR
  _audit_creation_date              2014-09-24
  _audit_creation_method            'ToBaCCo'
  _symmetry_space_group_name_H-M    'P1'
  _symmetry_Int_Tables_number       1
  _symmetry_cell_setting            triclinic
  loop_
  _symmetry_equiv_pos_as_xyz
 x,y,z
_cell_length_a 29.5711
_cell_length_b 29.4095
_cell_length_c 29.6747
_cell_angle_alpha 89.958200
_cell_angle_beta 91.089100
_cell_angle_gamma 89.252300
loop_
  _atom_site_label
  _atom_site_type_symbol
  _atom_site_fract_x
  _atom_site_fract_y
  _atom_site_fract_z
C1 C 0.18971 0.53990 1.07189
 H2 H 0.19352 0.57092 1.05283
 C3 C 0.16191 0.53977 1.10935
 H4 H 0.14571 0.57143 1.11904
 C5 C 0.20590 0.46162 1.08169
 H6 H 0.22262 0.43088 1.07063
 C7 C 0.17705 0.45953 1.11838
 H8 H 0.17421 0.42725 1.13537
 N9 N 0.21127 0.50123 1.05879
 C10 C 0.31546 0.55515 0.97093
 H11 H 0.31457 0.52870 0.94562
 C12 C 0.34594 0.59063 0.96720
 H13 H 0.36917 0.58966 0.93953
 C14 C 0.28943 0.58457 1.04002
 H15 H 0.26922 0.58105 1.06963
 C16 C 0.31907 0.62118 1.03729
 H17 H 0.32102 0.64508 1.06494
 Zn18 Zn 0.24788 0.50223 1.00649
 N19 N 0.28737 0.55299 1.00650
 C20 C 0.21236 0.53477 0.92082
 N21 N 0.20959 0.50320 0.95424
 C22 C 0.17904 0.46925 0.95157
 C23 C 0.14990 0.46584 0.91431
 C24 C 0.18411 0.53225 0.88244
 C25 C 0.30760 0.43641 1.04277
 C26 C 0.33607 0.39830 1.04271
 C27 C 0.31692 0.38660 0.96423
 C28 C 0.28727 0.42393 0.96631
 N29 N 0.28407 0.44866 1.00487
 H30 H 0.23602 0.56230 0.92394
 H31 H 0.17702 0.44498 0.97885
 H32 H 0.12444 0.43980 0.91470
 H33 H 0.18582 0.55859 0.85708
 H34 H 0.30434 0.45645 1.07312
 H35 H 0.35404 0.38914 1.07359
 H36 H 0.31917 0.36823 0.93284
 H37 H 0.26806 0.43405 0.93654
 C38 C 0.34735 0.62528 0.99998
 C39 C 0.15204 0.49844 1.13139
 C40 C 0.34369 0.37458 1.00225
 C41 C 0.15269 0.49691 0.87828
 C42 C 0.81817 0.53369 -0.05898
 H43 H 0.81795 0.55921 -0.03274
 C44 C 0.84779 0.53762 -0.09474
 H45 H 0.87111 0.56559 -0.09412
 C46 C 0.79126 0.46395 -0.08779
 H47 H 0.77092 0.43408 -0.08403
 C48 C 0.81999 0.46687 -0.12462
 H49 H 0.82131 0.43900 -0.14837
 N50 N 0.79020 0.49760 -0.05627
 C51 C 0.68267 0.54992 0.02803
 H52 H 0.68170 0.52210 0.05185
 C53 C 0.65223 0.58615 0.03158
 H54 H 0.62698 0.58457 0.05740
 C55 C 0.71447 0.58272 -0.03677
 H56 H 0.73800 0.58065 -0.06410
 C57 C 0.68487 0.62018 -0.03409
 H58 H 0.68553 0.64598 -0.06006
 Zn59 Zn 0.75173 0.49692 -0.00537
 N60 N 0.71302 0.54875 -0.00565
 C61 C 0.79132 0.53706 0.07289
 N62 N 0.78815 0.49836 0.04797
 C63 C 0.81078 0.45984 0.06062
 C64 C 0.83780 0.45923 0.09959
 C65 C 0.81991 0.53857 0.11098
 C66 C 0.69162 0.43259 -0.04292
 C67 C 0.66268 0.39550 -0.04289
 C68 C 0.68018 0.38420 0.03603
 C69 C 0.70971 0.42075 0.03418
 N70 N 0.71477 0.44438 -0.00482
 H71 H 0.77274 0.56731 0.06253
 H72 H 0.80754 0.42936 0.04051
 H73 H 0.85468 0.42771 0.10919
 H74 H 0.82222 0.57010 0.12946
 H75 H 0.69497 0.45251 -0.07329
 H76 H 0.64496 0.38675 -0.07387
 H77 H 0.67724 0.36648 0.06769
 H78 H 0.72704 0.43124 0.06467
 C79 C 0.65354 0.62275 0.00097
 C80 C 0.84843 0.50449 -0.12907
 C81 C 0.65438 0.37228 -0.00236
 C82 C 0.84545 0.49976 0.12376
 C83 C -0.04468 0.31324 0.43812
 H84 H -0.07271 0.31269 0.46101
 C85 C -0.04629 0.34220 0.40091
 H86 H -0.07680 0.36227 0.39517
 C87 C 0.02745 0.28572 0.41746
 H88 H 0.05614 0.26337 0.42383
 C89 C 0.02807 0.31563 0.38078
 H90 H 0.05716 0.31480 0.35923
 N91 N -0.00798 0.28605 0.44607
 C92 C -0.05779 0.17963 0.53430
 H93 H -0.02979 0.17775 0.55826
 C94 C -0.09331 0.14914 0.53737
 H95 H -0.09106 0.12318 0.56315
 C96 C -0.09121 0.21267 0.46884
 H97 H -0.08951 0.23599 0.44091
 C98 C -0.12783 0.18313 0.47100
 H99 H -0.15335 0.18414 0.44439
 Zn100 Zn -0.00619 0.24961 0.49908
 N101 N -0.05739 0.21092 0.50066
 C102 C -0.03298 0.28290 0.58591
 N103 N -0.00477 0.28824 0.55057
 C104 C 0.02578 0.32227 0.55029
 C105 C 0.02907 0.35236 0.58645
 C106 C -0.03049 0.31210 0.62318
 C107 C 0.04751 0.17876 0.46791
 C108 C 0.08467 0.14936 0.46553
 C109 C 0.12092 0.19093 0.52597
 C110 C 0.08258 0.21935 0.52760
 N111 N 0.04696 0.21285 0.49865
 H112 H -0.05793 0.25644 0.58516
 H113 H 0.04724 0.32640 0.52148
 H114 H 0.05240 0.38029 0.58422
 H115 H -0.05436 0.30803 0.64998
 H116 H 0.01847 0.17388 0.44579
 H117 H 0.08285 0.12107 0.44232
 H118 H 0.14800 0.19568 0.55045
 H119 H 0.08117 0.24609 0.55247
 C120 C -0.12978 0.15111 0.50606
 C121 C -0.00788 0.34706 0.37356
 C122 C 0.12267 0.15551 0.49420
 C123 C 0.00135 0.34722 0.62420
 C124 C 0.97572 0.67820 0.54883
 H125 H 0.95383 0.67423 0.51950
 C126 C 0.97301 0.64790 0.58476
 H127 H 0.94972 0.61993 0.58182
 C128 C 1.03490 0.71750 0.58604
 H129 H 1.05981 0.74398 0.58601
 C130 C 1.03293 0.68815 0.62317
 H131 H 1.05710 0.69215 0.65063
 N132 N 1.00615 0.71233 0.55003
 C133 C 0.95105 0.82157 0.46675
 H134 H 0.97920 0.82632 0.44454
 C135 C 0.91369 0.85081 0.46408
 H136 H 0.91447 0.87887 0.44053
 C137 C 0.91852 0.78148 0.52700
 H138 H 0.92105 0.75502 0.55221
 C139 C 0.88005 0.80977 0.52514
 H140 H 0.85402 0.80522 0.54979
 Zn141 Zn 1.00620 0.75132 0.49887
 N142 N 0.95295 0.78783 0.49792
 C143 C 0.97042 0.71495 0.41709
 N144 N 1.00688 0.71527 0.44579
 C145 C 1.04393 0.68898 0.43787
 C146 C 1.04517 0.66078 0.40020
 C147 C 0.96940 0.68553 0.38007
 C148 C 1.05926 0.82050 0.53555
 C149 C 1.09510 0.85070 0.53916
 C150 C 1.12640 0.81835 0.47174
 C151 C 1.08958 0.78908 0.46911
 N152 N 1.05727 0.79008 0.50122
 H153 H 0.94129 0.73629 0.42370
 H154 H 1.07256 0.68972 0.46109
 H155 H 1.07565 0.64107 0.39443
 H156 H 0.93952 0.68536 0.35852
 H157 H 1.03231 0.82190 0.55969
 H158 H 1.09412 0.87600 0.56554
 H159 H 1.15063 0.81802 0.44487
 H160 H 1.08645 0.76670 0.44053
 C161 C 0.87690 0.84486 0.49296
 C162 C 1.00110 0.65303 0.62328
 C163 C 1.13011 0.84937 0.50755
 C164 C 1.00628 0.65598 0.37241
 C165 C 0.43364 -0.03899 0.30917
 H166 H 0.45532 -0.06867 0.30593
 C167 C 0.39676 -0.04032 0.33778
 H168 H 0.39019 -0.07158 0.35563
 C169 C 0.41653 0.03745 0.29010
 H170 H 0.42471 0.06820 0.27236
 C171 C 0.37988 0.03790 0.31910
 H172 H 0.35985 0.06875 0.32132
 N173 N 0.44287 -0.00053 0.28586
 C174 C 0.53132 -0.05544 0.18247
 H175 H 0.55645 -0.02902 0.18313
 C176 C 0.53545 -0.09161 0.15249
 H177 H 0.56317 -0.09073 0.12928
 C178 C 0.46243 -0.08421 0.20889
 H179 H 0.43285 -0.08023 0.22931
 C180 C 0.46558 -0.12159 0.17991
 H181 H 0.43788 -0.14530 0.17851
 Zn182 Zn 0.49473 -0.00073 0.24869
 N183 N 0.49549 -0.05243 0.21020
 C184 C 0.57581 -0.03794 0.28871
 N185 N 0.54723 -0.00137 0.28647
 C186 C 0.55573 0.03683 0.31070
 C187 C 0.59373 0.03905 0.33910
 C188 C 0.61355 -0.03768 0.31786
 C189 C 0.45727 0.06610 0.18996
 C190 C 0.45741 0.10441 0.16223
 C191 C 0.53694 0.11297 0.17900
 C192 C 0.53495 0.07534 0.20755
 N193 N 0.49566 0.05236 0.21213
 H194 H 0.56886 -0.06783 0.26873
 H195 H 0.53298 0.06583 0.30768
 H196 H 0.59984 0.07026 0.35737
 H197 H 0.63533 -0.06746 0.31908
 H198 H 0.42648 0.04710 0.19359
 H199 H 0.42624 0.11470 0.14517
 H200 H 0.56887 0.13001 0.17624
 H201 H 0.56542 0.06365 0.22477
 C202 C 0.50299 -0.12661 0.15137
 C203 C 0.37077 -0.00066 0.34540
 C204 C 0.49827 0.12687 0.15402
 C205 C 0.62180 0.00040 0.34550
 C206 C 0.56332 -0.04122 0.68934
 H207 H 0.53976 -0.06890 0.69188
 C208 C 0.59979 -0.04499 0.66038
 H209 H 0.60417 -0.07629 0.64176
 C210 C 0.58596 0.03244 0.71132
 H211 H 0.58014 0.06312 0.73033
 C212 C 0.62252 0.03035 0.68225
 H213 H 0.64482 0.05913 0.68091
 N214 N 0.55689 -0.00289 0.71405
 C215 C 0.46793 -0.05372 0.81768
 H216 H 0.44307 -0.02640 0.81745
 C217 C 0.46379 -0.09000 0.84747
 H218 H 0.43637 -0.08882 0.87101
 C219 C 0.53621 -0.08490 0.79020
 H220 H 0.56548 -0.08196 0.76930
 C221 C 0.53308 -0.12224 0.81914
 H222 H 0.56033 -0.14716 0.82026
 Zn223 Zn 0.50511 -0.00026 0.75115
 N224 N 0.50349 -0.05187 0.78953
 C225 C 0.42205 -0.03227 0.71249
 N226 N 0.45283 0.00169 0.71333
 C227 C 0.44677 0.03955 0.68760
 C228 C 0.40917 0.04396 0.65886
 C229 C 0.38442 -0.02971 0.68330
 C230 C 0.54321 0.06417 0.81080
 C231 C 0.54348 0.10232 0.83866
 C232 C 0.46480 0.11570 0.81960
 C233 C 0.46644 0.07817 0.79091
 N234 N 0.50506 0.05283 0.78748
 H235 H 0.42708 -0.06188 0.73364
 H236 H 0.47117 0.06659 0.68975
 H237 H 0.40499 0.07508 0.63974
 H238 H 0.36079 -0.05748 0.68294
 H239 H 0.57343 0.04333 0.80805
 H240 H 0.57454 0.11078 0.85644
 H241 H 0.43340 0.13469 0.82160
 H242 H 0.43613 0.06843 0.77272
 C243 C 0.49610 -0.12570 0.84797
 C244 C 0.62851 -0.00774 0.65416
 C245 C 0.50308 0.12704 0.84587
 C246 C 0.37878 0.00771 0.65394
 C247 C 0.25149 0.00373 0.50063
 C248 C 0.74845 -0.00338 0.49962
 C249 C 0.49973 0.25063 0.99984
 C250 C 0.49994 0.74948 0.00102
 C251 C 0.99972 0.49935 0.25060
 C252 C 0.00125 0.50048 0.74916
 C253 C 0.15968 0.11897 0.49608
 C254 C 0.17001 0.09809 0.45022
 C255 C 0.19943 0.06251 0.45195
 C256 C 0.21782 0.04916 0.49972
 C257 C 0.23675 0.09526 0.51733
 C258 C 0.20673 0.13126 0.51535
 C259 C 0.14461 0.07973 0.52534
 C260 C 0.17432 0.04458 0.52807
 H261 H 0.15728 0.11164 0.41833
 H262 H 0.20919 0.04664 0.42083
 H263 H 0.27101 0.10030 0.52939
 H264 H 0.21644 0.16538 0.52502
 H265 H 0.11431 0.08095 0.54547
 H266 H 0.16780 0.01829 0.55212
 C267 C 0.61609 0.65881 0.00103
 C268 C 0.59791 0.66972 0.04775
 C269 C 0.56188 0.69855 0.04748
 C270 C 0.54550 0.71596 0.00028
 C271 C 0.58996 0.73537 -0.01928
 C272 C 0.62627 0.70589 -0.01876
 C273 C 0.57563 0.64231 -0.02647
 C274 C 0.53997 0.67146 -0.02766
 H275 H 0.61371 0.65823 0.07912
 H276 H 0.54799 0.70885 0.07924
 H277 H 0.59383 0.76965 -0.03146
 H278 H 0.65940 0.71601 -0.02986
 H279 H 0.57604 0.61126 -0.04627
 H280 H 0.51226 0.66362 -0.05010
 C281 C 0.84004 -0.11856 0.49478
 C282 C 0.82774 -0.09770 0.44891
 C283 C 0.79840 -0.06211 0.45071
 C284 C 0.78211 -0.04875 0.49855
 C285 C 0.76394 -0.09485 0.51638
 C286 C 0.79385 -0.13084 0.51431
 C287 C 0.85641 -0.07931 0.52384
 C288 C 0.82686 -0.04414 0.52662
 H289 H 0.83909 -0.11128 0.41700
 H290 H 0.78724 -0.04623 0.41963
 H291 H 0.73021 -0.09990 0.52861
 H292 H 0.78454 -0.16495 0.52408
 H293 H 0.88762 -0.08050 0.54376
 H294 H 0.83449 -0.01778 0.55048
 C295 C 0.38315 0.34058 0.99981
 C296 C 0.42436 0.35733 1.02641
 C297 C 0.45963 0.32802 1.02777
 C298 C 0.45392 0.28357 0.99994
 C299 C 0.40960 0.26401 1.01939
 C300 C 0.37346 0.29356 1.01957
 C301 C 0.40168 0.33059 0.95283
 C302 C 0.43737 0.30103 0.95281
 H303 H 0.42604 0.38983 1.04365
 H304 H 0.48805 0.33682 1.04880
 H305 H 0.40569 0.22963 1.03131
 H306 H 0.34054 0.28385 1.03163
 H307 H 0.38948 0.34632 0.92182
 H308 H 0.45284 0.29233 0.92126
 C309 C 0.83535 0.11339 0.50468
 C310 C 0.85239 0.07443 0.47565
 C311 C 0.82423 0.03873 0.47276
 C312 C 0.78030 0.04254 0.50073
 C313 C 0.79776 0.05622 0.54861
 C314 C 0.82563 0.09231 0.55051
 C315 C 0.78792 0.12479 0.48507
 C316 C 0.75951 0.08829 0.48288
 H317 H 0.88289 0.07612 0.45591
 H318 H 0.83215 0.01247 0.44895
 H319 H 0.78824 0.04038 0.57971
 H320 H 0.83697 0.10630 0.58254
 H321 H 0.77693 0.15873 0.47508
 H322 H 0.72518 0.09271 0.47042
 C323 C 0.38473 0.66051 -0.00018
 C324 C 0.37390 0.70758 0.01988
 C325 C 0.40984 0.73659 0.02083
 C326 C 0.45462 0.71676 0.00137
 C327 C 0.46055 0.67193 0.02903
 C328 C 0.42527 0.64323 0.02740
 C329 C 0.40301 0.67160 -0.04672
 C330 C 0.43863 0.70001 -0.04602
 H331 H 0.34065 0.71781 0.03130
 H332 H 0.40552 0.77063 0.03372
 H333 H 0.48828 0.66355 0.05154
 H334 H 0.42519 0.61195 0.04690
 H335 H 0.38736 0.66110 -0.07832
 H336 H 0.45241 0.71053 -0.07765
 C337 C 0.16482 -0.11289 0.50634
 C338 C 0.17645 -0.09188 0.55213
 C339 C 0.20429 -0.05581 0.55007
 C340 C 0.21968 -0.04212 0.50207
 C341 C 0.23969 -0.08785 0.48419
 C342 C 0.21140 -0.12431 0.48656
 C343 C 0.14653 -0.07390 0.47737
 C344 C 0.17454 -0.03824 0.47433
 H345 H 0.16650 -0.10593 0.58421
 H346 H 0.21524 -0.04003 0.58109
 H347 H 0.27349 -0.09231 0.47161
 H348 H 0.22194 -0.15826 0.47659
 H349 H 0.11515 -0.07553 0.45782
 H350 H 0.16554 -0.01193 0.45059
 C351 C 0.61520 0.33898 0.99984
 C352 C 0.62553 0.29180 0.98024
 C353 C 0.58974 0.26277 0.98034
 C354 C 0.54512 0.28297 0.99962
 C355 C 0.56129 0.30020 1.04674
 C356 C 0.59652 0.32931 1.04677
 C357 C 0.57395 0.35630 0.97296
 C358 C 0.53895 0.32750 0.97164
 H359 H 0.65861 0.28163 0.96827
 H360 H 0.59413 0.22836 0.96845
 H361 H 0.54574 0.29186 1.07825
 H362 H 0.60804 0.34510 1.07780
 H363 H 0.57213 0.38870 0.95543
 H364 H 0.51044 0.33660 0.95051
 C365 C 0.50042 0.16102 1.11524
 C366 C 0.47379 0.14432 1.07409
 C367 C 0.47214 0.17358 1.03925
 C368 C 0.49975 0.21793 1.04530
 C369 C 0.48009 0.23768 1.08967
 C370 C 0.48017 0.20817 1.12540
 C371 C 0.54746 0.17086 1.09681
 C372 C 0.54719 0.20041 1.06166
 H373 H 0.45636 0.11208 1.07234
 H374 H 0.45077 0.16497 1.01104
 H375 H 0.46784 0.27213 1.09385
 H376 H 0.46800 0.21797 1.15832
 H377 H 0.57881 0.15510 1.10854
 H378 H 0.57880 0.20896 1.04641
 C379 C 0.00159 0.61623 0.65952
 C380 C 0.02916 0.57545 0.64380
 C381 C 0.03034 0.54005 0.67279
 C382 C 0.00220 0.54604 0.71630
 C383 C 0.02191 0.59100 0.73590
 C384 C 0.02149 0.62717 0.70662
 C385 C -0.04529 0.59792 0.66949
 C386 C -0.04512 0.56220 0.69826
 H387 H 0.04934 0.57565 0.61358
 H388 H 0.05322 0.51245 0.66574
 H389 H 0.03410 0.59530 0.77014
 H390 H 0.03253 0.66064 0.71701
 H391 H -0.07664 0.61320 0.65680
 H392 H -0.07700 0.54810 0.70784
 C393 C 0.49644 0.83883 -0.11461
 C394 C 0.52502 0.85551 -0.07501
 C395 C 0.52738 0.82669 -0.03963
 C396 C 0.49937 0.78235 -0.04446
 C397 C 0.45151 0.79994 -0.05954
 C398 C 0.45012 0.82852 -0.09530
 C399 C 0.51620 0.79147 -0.12539
 C400 C 0.51787 0.76233 -0.08929
 H401 H 0.54481 0.88636 -0.07590
 H402 H 0.55090 0.83449 -0.01280
 H403 H 0.42008 0.78964 -0.04507
 H404 H 0.41814 0.83963 -0.11039
 H405 H 0.52670 0.78109 -0.15872
 H406 H 0.53030 0.72796 -0.09351
 C407 C 0.99503 0.38454 0.34135
 C408 C 0.97084 0.42518 0.35598
 C409 C 0.97093 0.46128 0.32463
 C410 C 0.99778 0.45355 0.28385
 C411 C 1.04221 0.43728 0.30144
 C412 C 1.04071 0.40067 0.33308
 C413 C 0.97622 0.37411 0.29666
 C414 C 0.97796 0.41150 0.26522
 H415 H 0.95536 0.42984 0.38856
 H416 H 0.94936 0.48982 0.33153
 H417 H 1.07444 0.45177 0.29354
 H418 H 1.07101 0.38944 0.35128
 H419 H 0.96363 0.34089 0.28705
 H420 H 0.96698 0.40678 0.23067
 C421 C 0.50284 0.83948 0.11569
 C422 C 0.47551 0.85581 0.07779
 C423 C 0.47339 0.82513 0.04099
 C424 C 0.50035 0.78278 0.04645
 C425 C 0.54580 0.79854 0.06016
 C426 C 0.54720 0.82868 0.09759
 C427 C 0.48441 0.79483 0.12672
 C428 C 0.48291 0.76394 0.08889
 H429 H 0.45423 0.88622 0.07870
 H430 H 0.44813 0.83186 0.01534
 H431 H 0.57735 0.78689 0.04650
 H432 H 0.57917 0.83654 0.11420
 H433 H 0.47563 0.78427 0.16048
 H434 H 0.47183 0.72946 0.09348
 C435 C 0.00101 0.38419 0.66026
 C436 C -0.01897 0.37355 0.70666
 C437 C -0.01937 0.40988 0.73569
 C438 C 0.00041 0.45471 0.71657
 C439 C 0.04776 0.43839 0.70053
 C440 C 0.04792 0.40252 0.67194
 C441 C -0.02646 0.42492 0.64319
 C442 C -0.02760 0.46049 0.67187
 H443 H -0.03002 0.34014 0.71687
 H444 H -0.03157 0.40578 0.76950
 H445 H 0.07961 0.45253 0.71136
 H446 H 0.07925 0.38717 0.66049
 H447 H -0.04656 0.42463 0.61217
 H448 H -0.05038 0.48809 0.66366
 C449 C 0.50060 0.16104 0.88471
 C450 C 0.52003 0.20799 0.87445
 C451 C 0.51956 0.23750 0.91011
 C452 C 0.50021 0.21794 0.95449
 C453 C 0.45307 0.20085 0.93818
 C454 C 0.45336 0.17126 0.90309
 C455 C 0.52744 0.14407 0.92593
 C456 C 0.52854 0.17331 0.96069
 H457 H 0.53205 0.21766 0.84152
 H458 H 0.53119 0.27184 0.90582
 H459 H 0.42131 0.20972 0.95342
 H460 H 0.42236 0.15561 0.89133
 H461 H 0.54505 0.11149 0.92802
 H462 H 0.54982 0.16436 0.98904
 C463 C 1.00327 0.61658 0.33879
 C464 C 0.95557 0.59930 0.32788
 C465 C 0.95444 0.56376 0.29865
 C466 C 1.00126 0.54577 0.28262
 C467 C 1.02227 0.58998 0.26341
 C468 C 1.02356 0.62610 0.29254
 C469 C 1.02850 0.57433 0.35621
 C470 C 1.02895 0.53919 0.32736
 H471 H 0.92483 0.61263 0.34251
 H472 H 0.92223 0.54946 0.28899
 H473 H 1.03450 0.59391 0.22962
 H474 H 1.03679 0.65892 0.28302
 H475 H 1.04525 0.57152 0.38897
 H476 H 1.04939 0.51026 0.33682
 C477 C 1.11477 0.49670 0.16300
 C478 C 1.09637 0.45180 0.17245
 C479 C 1.05963 0.45273 0.20305
 C480 C 1.04562 0.49839 0.21865
 C481 C 1.08829 0.51634 0.23783
 C482 C 1.12576 0.51576 0.20736
 C483 C 1.07578 0.52279 0.14642
 C484 C 1.03967 0.52512 0.17676
 H485 H 1.10490 0.42059 0.15502
 H486 H 1.04319 0.42134 0.21122
 H487 H 1.09336 0.52724 0.27225
 H488 H 1.15943 0.52649 0.21758
 H489 H 1.07350 0.54013 0.11409
 H490 H 1.01319 0.54917 0.16901
 C491 C 0.66131 -0.00683 0.61483
 C492 C 0.64423 -0.03326 0.57370
 C493 C 0.67278 -0.03389 0.53880
 C494 C 0.71666 -0.00566 0.54494
 C495 C 0.69886 0.04146 0.56127
 C496 C 0.67008 0.04071 0.59611
 C497 C 0.70861 -0.02692 0.62509
 C498 C 0.73721 -0.02642 0.58924
 H499 H 0.61213 -0.05062 0.57145
 H500 H 0.66391 -0.05473 0.51043
 H501 H 0.70644 0.07371 0.54613
 H502 H 0.65373 0.07171 0.60757
 H503 H 0.71887 -0.04029 0.65787
 H504 H 0.77134 -0.03954 0.59306
 C505 C -0.11430 0.50408 0.83608
 C506 C -0.12554 0.48405 0.78929
 C507 C -0.08951 0.48239 0.76081
 C508 C -0.04429 0.50107 0.78093
 C509 C -0.05912 0.54919 0.79732
 C510 C -0.09476 0.55064 0.82525
 C511 C -0.07453 0.47544 0.85349
 C512 C -0.03930 0.47298 0.82533
 H513 H -0.15909 0.47325 0.77888
 H514 H -0.09395 0.46972 0.72690
 H515 H -0.04458 0.58078 0.78675
 H516 H -0.10970 0.58282 0.83539
 H517 H -0.07528 0.45556 0.88434
 H518 H -0.01250 0.44931 0.83367
 C519 C 0.33790 0.00117 0.38469
 C520 C 0.29143 -0.01990 0.37505
 C521 C 0.26308 -0.01951 0.41109
 C522 C 0.28308 0.00188 0.45505
 C523 C 0.32827 -0.02548 0.46105
 C524 C 0.35646 -0.02453 0.42593
 C525 C 0.32709 0.04874 0.40294
 C526 C 0.29866 0.04918 0.43817
 H527 H 0.28144 -0.03357 0.34245
 H528 H 0.22942 -0.03303 0.40759
 H529 H 0.33820 -0.04630 0.48928
 H530 H 0.38912 -0.04178 0.42763
 H531 H 0.34188 0.08001 0.39127
 H532 H 0.28987 0.08135 0.45325
 C533 C 0.11611 0.49762 0.84131
 C534 C 0.09670 0.45097 0.82992
 C535 C 0.06132 0.45215 0.80033
 C536 C 0.04659 0.50014 0.78290
 C537 C 0.04124 0.52857 0.82682
 C538 C 0.07622 0.52637 0.85661
 C539 C 0.12777 0.51732 0.79486
 C540 C 0.09196 0.51868 0.76468
 H541 H 0.11144 0.41895 0.84148
 H542 H 0.04680 0.42049 0.78944
 H543 H 0.01447 0.55240 0.83367
 H544 H 0.07677 0.54661 0.88722
 H545 H 0.16142 0.52787 0.78578
 H546 H 0.09666 0.53094 0.73080
 C547 C 0.65652 -0.00107 0.38451
 C548 C 0.70250 0.02003 0.37436
 C549 C 0.73258 0.01972 0.41013
 C550 C 0.71472 -0.00166 0.45432
 C551 C 0.66984 0.02566 0.46069
 C552 C 0.63993 0.02460 0.42591
 C553 C 0.66823 -0.04860 0.40273
 C554 C 0.69836 -0.04901 0.43770
 H555 H 0.71091 0.03369 0.34163
 H556 H 0.76606 0.03328 0.40631
 H557 H 0.66117 0.04638 0.48900
 H558 H 0.60720 0.04147 0.42820
 H559 H 0.65303 -0.07984 0.39090
 H560 H 0.70801 -0.08119 0.45265
 C561 C 0.88410 0.50153 0.15880
 C562 C 0.90374 0.54851 0.16905
 C563 C 0.93878 0.54790 0.19935
 C564 C 0.95385 0.50008 0.21721
 C565 C 0.90853 0.48166 0.23557
 C566 C 0.87293 0.48207 0.20528
 C567 C 0.92489 0.47373 0.14344
 C568 C 0.95938 0.47152 0.17345
 H569 H 0.89242 0.58003 0.15335
 H570 H 0.95458 0.57951 0.20869
 H571 H 0.90354 0.47004 0.26959
 H572 H 0.83944 0.47079 0.21410
 H573 H 0.92682 0.45606 0.11141
 H574 H 0.98693 0.44903 0.16565
 C575 C 0.34410 0.00704 0.61494
 C576 C 0.33441 -0.04048 0.59650
 C577 C 0.30395 -0.04124 0.56193
 C578 C 0.28539 0.00591 0.54565
 C579 C 0.26697 0.02667 0.59009
 C580 C 0.29729 0.02715 0.62565
 C581 C 0.35918 0.03344 0.57355
 C582 C 0.32893 0.03412 0.53901
 H583 H 0.35103 -0.07148 0.60830
 H584 H 0.29545 -0.07352 0.54712
 H585 H 0.23303 0.03981 0.59419
 H586 H 0.28863 0.04052 0.65850
 H587 H 0.39128 0.05049 0.57064
 H588 H 0.33650 0.05487 0.51049
   
