data_POSCAR
  _audit_creation_date              2014-09-24
  _audit_creation_method            'ToBaCCo'
  _symmetry_space_group_name_H-M    'P1'
  _symmetry_Int_Tables_number       1
  _symmetry_cell_setting            triclinic
  loop_
  _symmetry_equiv_pos_as_xyz
 x,y,z
_cell_length_a 49.6538
_cell_length_b 51.0266
_cell_length_c 51.4541
_cell_angle_alpha 89.722000
_cell_angle_beta 89.924000
_cell_angle_gamma 90.801200
loop_
  _atom_site_label
  _atom_site_type_symbol
  _atom_site_fract_x
  _atom_site_fract_y
  _atom_site_fract_z
C1 C 0.72376 0.65684 0.96649
 H2 H 0.74288 0.65697 0.95638
 C3 C 0.70190 0.67021 0.95598
 H4 H 0.70424 0.68090 0.93786
 C5 C 0.69678 0.64150 1.00162
 H6 H 0.69454 0.62960 1.01891
 C7 C 0.67445 0.65459 0.99180
 H8 H 0.65526 0.65299 1.00177
 N9 N 0.72080 0.64270 0.98883
 C10 C 0.80128 0.62686 1.01879
 H11 H 0.79909 0.60585 1.02105
 C12 C 0.82503 0.63941 1.02655
 H13 H 0.84120 0.62806 1.03485
 C14 C 0.78261 0.66737 1.00567
 H15 H 0.76588 0.67816 0.99783
 C16 C 0.80612 0.68076 1.01325
 H17 H 0.80749 0.70187 1.01117
 Zn18 Zn 0.74953 0.62115 0.99961
 N19 N 0.78075 0.64086 1.00843
 C20 C 0.78210 0.59948 0.96038
 N21 N 0.75722 0.59863 0.97151
 C22 C 0.73690 0.58379 0.96122
 C23 C 0.74124 0.56914 0.93872
 C24 C 0.78728 0.58512 0.93800
 C25 C 0.73596 0.61676 1.05156
 C26 C 0.72828 0.60482 1.07488
 C27 C 0.72837 0.56286 1.05318
 C28 C 0.73611 0.57567 1.03018
 N29 N 0.73935 0.60220 1.02977
 H30 H 0.79777 0.61192 0.96831
 H31 H 0.71715 0.58392 0.97011
 H32 H 0.72488 0.55776 0.93033
 H33 H 0.80703 0.58631 0.92903
 H34 H 0.73898 0.63779 1.05068
 H35 H 0.72527 0.61677 1.09198
 H36 H 0.72544 0.54176 1.05326
 H37 H 0.73937 0.56445 1.01273
 C38 C 0.82750 0.66659 1.02378
 C39 C 0.67693 0.66880 0.96861
 C40 C 0.72428 0.57763 1.07570
 C41 C 0.76664 0.57003 0.92692
 C42 C 0.72958 0.34655 0.52320
 H43 H 0.74850 0.34591 0.53357
 C44 C 0.70715 0.33272 0.53273
 H45 H 0.70882 0.32122 0.55040
 C46 C 0.70375 0.36355 0.48838
 H47 H 0.70224 0.37624 0.47162
 C48 C 0.68085 0.35004 0.49725
 H49 H 0.66190 0.35215 0.48711
 N50 N 0.72747 0.36171 0.50149
 C51 C 0.80938 0.37751 0.47419
 H52 H 0.80868 0.39868 0.47341
 C53 C 0.83231 0.36461 0.46568
 H54 H 0.84938 0.37586 0.45833
 C55 C 0.78762 0.33693 0.48393
 H56 H 0.76996 0.32627 0.49060
 C57 C 0.81022 0.32323 0.47554
 H58 H 0.80998 0.30200 0.47588
 Zn59 Zn 0.75722 0.38342 0.49228
 N60 N 0.78767 0.36361 0.48315
 C61 C 0.78940 0.40324 0.53327
 N62 N 0.76493 0.40456 0.52149
 C63 C 0.74472 0.41907 0.53172
 C64 C 0.74875 0.43296 0.55478
 C65 C 0.79427 0.41684 0.55627
 C66 C 0.74493 0.39050 0.44035
 C67 C 0.73811 0.40373 0.41758
 C68 C 0.73974 0.44450 0.44131
 C69 C 0.74660 0.43047 0.46372
 N70 N 0.74860 0.40390 0.46288
 H71 H 0.80495 0.39106 0.52531
 H72 H 0.72528 0.41931 0.52226
 H73 H 0.73247 0.44413 0.56304
 H74 H 0.81368 0.41534 0.56572
 H75 H 0.74696 0.36942 0.44022
 H76 H 0.73470 0.39281 0.39985
 H77 H 0.73762 0.46558 0.44215
 H78 H 0.75008 0.44077 0.48173
 C79 C 0.83271 0.33724 0.46626
 C80 C 0.68250 0.33475 0.51980
 C81 C 0.73530 0.43093 0.41811
 C82 C 0.77372 0.43165 0.56723
 C83 C 0.23038 -0.14438 0.02462
 H84 H 0.24959 -0.14550 0.03443
 C85 C 0.20821 -0.15870 0.03407
 H86 H 0.21038 -0.17103 0.05112
 C87 C 0.20365 -0.12601 -0.00882
 H88 H 0.20169 -0.11272 -0.02507
 C89 C 0.18101 -0.13999 -0.00002
 H90 H 0.16183 -0.13760 -0.00969
 N91 N 0.22773 -0.12840 0.00354
 C92 C 0.30845 -0.11358 -0.02766
 H93 H 0.30804 -0.09240 -0.02848
 C94 C 0.33091 -0.12682 -0.03685
 H95 H 0.34786 -0.11583 -0.04479
 C96 C 0.28664 -0.15381 -0.01674
 H97 H 0.26921 -0.16423 -0.00920
 C98 C 0.30875 -0.16785 -0.02577
 H99 H 0.30835 -0.18908 -0.02507
 Zn100 Zn 0.25753 -0.10693 -0.00638
 N101 N 0.28701 -0.12713 -0.01765
 C102 C 0.29283 -0.08821 0.03264
 N103 N 0.26742 -0.08678 0.02291
 C104 C 0.24822 -0.07228 0.03482
 C105 C 0.25435 -0.05833 0.05743
 C106 C 0.29979 -0.07456 0.05510
 C107 C 0.24265 -0.09728 -0.05737
 C108 C 0.23430 -0.08290 -0.07892
 C109 C 0.23762 -0.04339 -0.05322
 C110 C 0.24600 -0.05858 -0.03211
 N111 N 0.24778 -0.08508 -0.03444
 H112 H 0.30761 -0.10034 0.02336
 H113 H 0.22804 -0.07190 0.02694
 H114 H 0.23891 -0.04712 0.06702
 H115 H 0.31997 -0.07610 0.06290
 H116 H 0.24454 -0.11833 -0.05869
 H117 H 0.22963 -0.09301 -0.09688
 H118 H 0.23559 -0.02239 -0.05101
 H119 H 0.25068 -0.04923 -0.01385
 C120 C 0.33109 -0.15419 -0.03588
 C121 C 0.18326 -0.15632 0.02174
 C122 C 0.23145 -0.05575 -0.07677
 C123 C 0.28037 -0.05960 0.06766
 C124 C 0.22573 0.15616 0.46708
 H125 H 0.24526 0.15682 0.45775
 C126 C 0.20409 0.16940 0.45598
 H127 H 0.20702 0.18051 0.43818
 C128 C 0.19753 0.13957 0.50077
 H129 H 0.19477 0.12723 0.51768
 C130 C 0.17540 0.15251 0.49032
 H131 H 0.15582 0.15035 0.49945
 N132 N 0.22205 0.14145 0.48897
 C133 C 0.30158 0.12585 0.52133
 H134 H 0.29959 0.10476 0.52297
 C135 C 0.32486 0.13845 0.53024
 H136 H 0.34086 0.12706 0.53878
 C137 C 0.28289 0.16648 0.50862
 H138 H 0.26632 0.17728 0.50047
 C139 C 0.30592 0.17991 0.51736
 H140 H 0.30711 0.20107 0.51585
 Zn141 Zn 0.25067 0.12006 0.50026
 N142 N 0.28128 0.13988 0.51061
 C143 C 0.28494 0.09875 0.46215
 N144 N 0.25956 0.09814 0.47215
 C145 C 0.23972 0.08312 0.46129
 C146 C 0.24517 0.06767 0.43960
 C147 C 0.29124 0.08361 0.44057
 C148 C 0.23474 0.11340 0.55157
 C149 C 0.22683 0.10008 0.57409
 C150 C 0.23037 0.05918 0.55087
 C151 C 0.23825 0.07329 0.52873
 N152 N 0.23989 0.09994 0.52941
 H153 H 0.30025 0.11132 0.47054
 H154 H 0.21959 0.08341 0.46935
 H155 H 0.22928 0.05591 0.43091
 H156 H 0.31145 0.08439 0.43261
 H157 H 0.23660 0.13455 0.55162
 H158 H 0.22236 0.11098 0.59156
 H159 H 0.22871 0.03801 0.55017
 H160 H 0.24303 0.06295 0.51109
 C161 C 0.32707 0.16570 0.52826
 C162 C 0.17863 0.16727 0.46754
 C163 C 0.22450 0.07276 0.57369
 C164 C 0.27119 0.06801 0.42917
 C165 C 0.16260 0.47010 0.22191
 H166 H 0.16225 0.45981 0.24034
 C167 C 0.17782 0.46043 0.20125
 H168 H 0.18933 0.44273 0.20381
 C169 C 0.14680 0.50481 0.19545
 H170 H 0.13409 0.52161 0.19293
 C171 C 0.16172 0.49582 0.17435
 H172 H 0.16058 0.50590 0.15581
 N173 N 0.14738 0.49185 0.21865
 C174 C 0.12788 0.52326 0.29522
 H175 H 0.10646 0.52562 0.29237
 C176 C 0.13968 0.53063 0.31870
 H177 H 0.12737 0.53885 0.33394
 C178 C 0.17005 0.50950 0.27886
 H179 H 0.18176 0.50127 0.26327
 C180 C 0.18270 0.51664 0.30214
 H181 H 0.20417 0.51394 0.30443
 Zn182 Zn 0.12389 0.50190 0.24590
 N183 N 0.14301 0.51258 0.27602
 C184 C 0.10257 0.46251 0.27890
 N185 N 0.10188 0.47235 0.25428
 C186 C 0.08735 0.46016 0.23529
 C187 C 0.07268 0.43716 0.24086
 C188 C 0.08822 0.43972 0.28527
 C189 C 0.11663 0.55379 0.23134
 C190 C 0.10318 0.57595 0.22260
 C191 C 0.06169 0.55062 0.22220
 C192 C 0.07596 0.52885 0.23102
 N193 N 0.10303 0.53073 0.23497
 H194 H 0.11476 0.47189 0.29359
 H195 H 0.08758 0.46805 0.21574
 H196 H 0.06144 0.42735 0.22563
 H197 H 0.08921 0.43194 0.30487
 H198 H 0.13809 0.55478 0.23489
 H199 H 0.11432 0.59408 0.21930
 H200 H 0.04025 0.54891 0.21861
 H201 H 0.06545 0.51047 0.23441
 C202 C 0.16728 0.52710 0.32231
 C203 C 0.17714 0.47328 0.17717
 C204 C 0.07551 0.57432 0.21777
 C205 C 0.07327 0.42683 0.26610
 C206 C -0.16682 0.02394 0.22554
 H207 H -0.16777 0.03362 0.24417
 C208 C -0.18149 0.03364 0.20448
 H209 H -0.19386 0.05078 0.20697
 C210 C -0.14849 -0.00938 0.19915
 H211 H -0.13505 -0.02565 0.19688
 C212 C -0.16281 -0.00034 0.17763
 H213 H -0.16045 -0.00991 0.15902
 N214 N -0.15068 0.00283 0.22253
 C215 C -0.13527 -0.02981 0.29965
 H216 H -0.11358 -0.03104 0.29831
 C217 C -0.14852 -0.03869 0.32198
 H218 H -0.13702 -0.04683 0.33790
 C219 C -0.17675 -0.01778 0.28048
 H220 H -0.18764 -0.00977 0.26418
 C221 C -0.19086 -0.02647 0.30256
 H222 H -0.21259 -0.02508 0.30326
 Zn223 Zn -0.12862 -0.00755 0.25078
 N224 N -0.14940 -0.01931 0.27960
 C225 C -0.10892 0.03131 0.28520
 N226 N -0.10731 0.02195 0.26053
 C227 C -0.09163 0.03416 0.24227
 C228 C -0.07644 0.05650 0.24871
 C229 C -0.09408 0.05351 0.29242
 C230 C -0.11946 -0.05889 0.23536
 C231 C -0.10486 -0.08048 0.22708
 C232 C -0.06395 -0.05454 0.23076
 C233 C -0.07934 -0.03338 0.23901
 N234 N -0.10664 -0.03579 0.24067
 H235 H -0.12199 0.02188 0.29928
 H236 H -0.09110 0.02661 0.22267
 H237 H -0.06409 0.06619 0.23408
 H238 H -0.09563 0.06086 0.31208
 H239 H -0.14114 -0.06034 0.23716
 H240 H -0.11531 -0.09861 0.22235
 H241 H -0.04230 -0.05236 0.22895
 H242 H -0.06947 -0.01506 0.24383
 C243 C -0.17654 -0.03689 0.32354
 C244 C -0.17929 0.02149 0.18023
 C245 C -0.07689 -0.07822 0.22453
 C246 C -0.07771 0.06623 0.27405
 C247 C 0.34114 0.52442 0.72456
 H248 H 0.33881 0.53477 0.74271
 C249 C 0.32754 0.53293 0.70233
 H250 H 0.31455 0.54977 0.70338
 C251 C 0.36177 0.49056 0.70058
 H252 H 0.37566 0.47451 0.69970
 C253 C 0.34857 0.49840 0.67797
 H254 H 0.35213 0.48816 0.65992
 N255 N 0.35787 0.50355 0.72332
 C256 C 0.36906 0.47367 0.80231
 H257 H 0.39082 0.47280 0.80222
 C258 C 0.35463 0.46498 0.82404
 H259 H 0.36531 0.45736 0.84074
 C260 C 0.32858 0.48440 0.78053
 H261 H 0.31854 0.49176 0.76342
 C262 C 0.31332 0.47585 0.80196
 H263 H 0.29155 0.47671 0.80135
 Zn264 Zn 0.37829 0.49434 0.75312
 N265 N 0.35597 0.48339 0.78122
 C266 C 0.39587 0.53450 0.78710
 N267 N 0.39900 0.52426 0.76292
 C268 C 0.41560 0.53598 0.74511
 C269 C 0.43011 0.55876 0.75151
 C270 C 0.40999 0.55715 0.79427
 C271 C 0.38770 0.44253 0.74034
 C272 C 0.40217 0.42066 0.73269
 C273 C 0.44321 0.44650 0.73563
 C274 C 0.42793 0.46797 0.74330
 N275 N 0.40061 0.46574 0.74494
 H276 H 0.38209 0.52545 0.80078
 H277 H 0.41732 0.52776 0.72585
 H278 H 0.44315 0.56807 0.73721
 H279 H 0.40719 0.56522 0.81351
 H280 H 0.36599 0.44128 0.74201
 H281 H 0.39160 0.40248 0.72837
 H282 H 0.46486 0.44855 0.73364
 H283 H 0.43785 0.48645 0.74744
 C284 C 0.32653 0.46612 0.82394
 C285 C 0.33143 0.51986 0.67878
 C286 C 0.43013 0.42273 0.72998
 C287 C 0.42722 0.56943 0.77634
 C288 C 0.67240 0.97393 0.72613
 H289 H 0.67297 0.96399 0.74474
 C290 C 0.68699 0.96415 0.70511
 H291 H 0.69894 0.94671 0.70756
 C292 C 0.65488 1.00783 0.69967
 H293 H 0.64172 1.02432 0.69732
 C294 C 0.66914 0.99872 0.67820
 H295 H 0.66706 1.00839 0.65954
 N296 N 0.65662 0.99532 0.72304
 C297 C 0.63960 1.02647 0.80020
 H298 H 0.61794 1.02772 0.79851
 C299 C 0.65238 1.03491 0.82284
 H300 H 0.64048 1.04274 0.83860
 C301 C 0.68148 1.01482 0.78161
 H302 H 0.69270 1.00713 0.76541
 C303 C 0.69513 1.02308 0.80400
 H304 H 0.71686 1.02166 0.80498
 Zn305 Zn 0.63401 1.00525 0.75095
 N306 N 0.65415 1.01638 0.78029
 C307 C 0.61364 0.96552 0.78445
 N308 N 0.61252 0.97553 0.75992
 C309 C 0.59747 0.96363 0.74114
 C310 C 0.58249 0.94088 0.74687
 C311 C 0.59900 0.94291 0.79097
 C312 C 0.62534 1.05687 0.73587
 C313 C 0.61106 1.07865 0.72738
 C314 C 0.57000 1.05273 0.72964
 C315 C 0.58508 1.03138 0.73814
 N316 N 0.61232 1.03371 0.74061
 H317 H 0.62624 0.97474 0.79894
 H318 H 0.59735 0.97168 0.72165
 H319 H 0.57067 0.93143 0.73182
 H320 H 0.60017 0.93504 0.81053
 H321 H 0.64696 1.05824 0.73828
 H322 H 0.62171 1.09685 0.72314
 H323 H 0.54842 1.05064 0.72721
 H324 H 0.57503 1.01296 0.74248
 C325 C 0.68038 1.03310 0.82486
 C326 C 0.68509 0.97651 0.68086
 C327 C 0.58319 1.07650 0.72401
 C328 C 0.58334 0.93044 0.77204
 C329 C 0.02425 0.22706 -0.16863
 H330 H 0.03463 0.24573 -0.17076
 C331 C 0.03392 0.20494 -0.18138
 H332 H 0.05171 0.20658 -0.19352
 C333 C -0.01071 0.20163 -0.14908
 H334 H -0.02755 0.20012 -0.13587
 C335 C -0.00174 0.17911 -0.16146
 H336 H -0.01191 0.16050 -0.15794
 N337 N 0.00237 0.22500 -0.15276
 C338 C -0.02946 0.30317 -0.14053
 H339 H -0.03070 0.30243 -0.11955
 C340 C -0.03832 0.32522 -0.15389
 H341 H -0.04649 0.34154 -0.14319
 C342 C -0.01743 0.28268 -0.18011
 H343 H -0.00944 0.26596 -0.19018
 C344 C -0.02613 0.30447 -0.19430
 H345 H -0.02479 0.30454 -0.21531
 Zn346 Zn -0.00767 0.25432 -0.13274
 N347 N -0.01901 0.28261 -0.15369
 C348 C 0.03331 0.28942 -0.11644
 N349 N 0.02284 0.26484 -0.11307
 C350 C 0.03508 0.24708 -0.09734
 C351 C 0.05866 0.25396 -0.08400
 C352 C 0.05676 0.29707 -0.10350
 C353 C -0.06079 0.24000 -0.12389
 C354 C -0.08343 0.23124 -0.11018
 C355 C -0.05746 0.23352 -0.07048
 C356 C -0.03524 0.24232 -0.08500
 N357 N -0.03718 0.24480 -0.11128
 H358 H 0.02388 0.30304 -0.12957
 H359 H 0.02670 0.22748 -0.09547
 H360 H 0.06837 0.23974 -0.07159
 H361 H 0.06498 0.31665 -0.10643
 H362 H -0.06175 0.24234 -0.14477
 H363 H -0.10190 0.22683 -0.12062
 H364 H -0.05555 0.23093 -0.04964
 H365 H -0.01640 0.24662 -0.07535
 C366 C -0.03656 0.32595 -0.18098
 C367 C 0.02093 0.18072 -0.17751
 C368 C -0.08169 0.22762 -0.08328
 C369 C 0.06960 0.27920 -0.08721
 C370 C 0.46688 0.22365 0.17340
 H371 H 0.45611 0.24188 0.17477
 C372 C 0.45710 0.20125 0.18627
 H373 H 0.43885 0.20224 0.19775
 C374 C 0.50293 0.19953 0.15558
 H375 H 0.52026 0.19860 0.14298
 C376 C 0.49388 0.17677 0.16811
 H377 H 0.50448 0.15857 0.16532
 N378 N 0.48935 0.22237 0.15831
 C379 C 0.52104 0.30136 0.14470
 H380 H 0.52356 0.29986 0.12387
 C381 C 0.52862 0.32433 0.15739
 H382 H 0.53715 0.34057 0.14634
 C383 C 0.50669 0.28200 0.18449
 H384 H 0.49817 0.26541 0.19490
 C385 C 0.51406 0.30476 0.19802
 H386 H 0.51122 0.30569 0.21887
 Zn387 Zn 0.49960 0.25179 0.13782
 N388 N 0.50999 0.28092 0.15824
 C389 C 0.45900 0.28529 0.11980
 N390 N 0.46953 0.26095 0.11717
 C391 C 0.45764 0.24269 0.10156
 C392 C 0.43435 0.24879 0.08759
 C393 C 0.43588 0.29216 0.10623
 C394 C 0.55315 0.23955 0.13056
 C395 C 0.57620 0.23136 0.11761
 C396 C 0.55112 0.23156 0.07736
 C397 C 0.52846 0.23983 0.09110
 N398 N 0.52977 0.24307 0.11732
 H399 H 0.46811 0.29932 0.13283
 H400 H 0.46604 0.22329 0.10027
 H401 H 0.42489 0.23418 0.07529
 H402 H 0.42762 0.31155 0.10861
 H403 H 0.55362 0.24244 0.15137
 H404 H 0.59451 0.22790 0.12846
 H405 H 0.54983 0.22828 0.05662
 H406 H 0.50978 0.24308 0.08092
 C407 C 0.52494 0.32616 0.18423
 C408 C 0.47061 0.17755 0.18333
 C409 C 0.57509 0.22699 0.09085
 C410 C 0.42338 0.27378 0.09006
 C411 C 0.97175 0.72035 0.67352
 H412 H 0.96195 0.73911 0.67463
 C413 C 0.96175 0.69903 0.68791
 H414 H 0.94426 0.70139 0.70025
 C415 C 1.00548 0.69382 0.65490
 H416 H 1.02197 0.69157 0.64144
 C417 C 0.99615 0.67206 0.66895
 H418 H 1.00565 0.65325 0.66639
 N419 N 0.99317 0.71736 0.65731
 C420 C 1.02738 0.79463 0.64007
 H421 H 1.02879 0.79270 0.61919
 C422 C 1.03595 0.81775 0.65197
 H423 H 1.04420 0.83364 0.64026
 C424 C 1.01450 0.77638 0.68082
 H425 H 1.00606 0.76022 0.69192
 C426 C 1.02286 0.79927 0.69354
 H427 H 1.02090 0.80071 0.71445
 Zn428 Zn 1.00338 0.74572 0.63539
 N429 N 1.01648 0.77473 0.65449
 C430 C 0.96327 0.78075 0.61945
 N431 N 0.97239 0.75588 0.61671
 C432 C 0.95871 0.73792 0.60212
 C433 C 0.93509 0.74495 0.58918
 C434 C 0.93987 0.78854 0.60690
 C435 C 1.05546 0.73033 0.62402
 C436 C 1.07696 0.72169 0.60902
 C437 C 1.04874 0.72448 0.57089
 C438 C 1.02770 0.73313 0.58664
 N439 N 1.03129 0.73537 0.61277
 H440 H 0.97382 0.79456 0.63170
 H441 H 0.96606 0.71812 0.60073
 H442 H 0.92427 0.73062 0.57758
 H443 H 0.93280 0.80838 0.60926
 H444 H 1.05781 0.73257 0.64480
 H445 H 1.09594 0.71715 0.61826
 H446 H 1.04563 0.72217 0.55019
 H447 H 1.00852 0.73772 0.57801
 C448 C 1.03340 0.82021 0.67888
 C449 C 0.97393 0.67462 0.68537
 C450 C 1.07349 0.71849 0.58227
 C451 C 0.92566 0.77053 0.59165
 C452 C 0.52399 0.72254 0.34028
 H453 H 0.53422 0.74131 0.33835
 C454 C 0.53263 0.70112 0.32578
 H455 H 0.54951 0.70339 0.31256
 C456 C 0.49043 0.69616 0.36084
 H457 H 0.47452 0.69403 0.37503
 C458 C 0.49841 0.67430 0.34674
 H459 H 0.48845 0.65554 0.34999
 N460 N 0.50326 0.71969 0.35744
 C461 C 0.47163 0.79722 0.37358
 H462 H 0.47142 0.79600 0.39458
 C463 C 0.46248 0.81973 0.36117
 H464 H 0.45506 0.83586 0.37266
 C465 C 0.48169 0.77766 0.33303
 H466 H 0.48912 0.76117 0.32220
 C467 C 0.47269 0.79988 0.31977
 H468 H 0.47323 0.80044 0.29872
 Zn469 Zn 0.49445 0.74835 0.37897
 N470 N 0.48135 0.77694 0.35948
 C471 C 0.53589 0.78376 0.39306
 N472 N 0.52618 0.75892 0.39662
 C473 C 0.53966 0.74124 0.41142
 C474 C 0.56364 0.74855 0.42385
 C475 C 0.55970 0.79183 0.40508
 C476 C 0.44236 0.73313 0.39177
 C477 C 0.42100 0.72429 0.40721
 C478 C 0.45011 0.72686 0.44477
 C479 C 0.47101 0.73576 0.42856
 N480 N 0.46690 0.73816 0.40249
 H481 H 0.52547 0.79733 0.38062
 H482 H 0.53182 0.72145 0.41346
 H483 H 0.57425 0.73446 0.43570
 H484 H 0.56722 0.81166 0.40214
 H485 H 0.43962 0.73546 0.37103
 H486 H 0.40173 0.71969 0.39836
 H487 H 0.45363 0.72431 0.46539
 H488 H 0.49051 0.74031 0.43677
 C489 C 0.46321 0.82118 0.33404
 C490 C 0.51983 0.67674 0.32922
 C491 C 0.42498 0.72082 0.43388
 C492 C 0.57366 0.77412 0.42062
 C493 C 0.36914 -0.00309 0.25430
 C494 C 0.12336 1.00428 0.75134
 C495 C 0.62457 0.50579 0.25074
 C496 C 0.85904 0.50044 0.74926
 C497 C 0.24910 0.37091 0.00229
 C498 C 0.74821 0.12353 1.00637
 C499 C 0.24644 0.61321 0.50361
 C500 C 0.75223 0.87122 0.50596
 C501 C 0.00263 0.24683 0.36286
 C502 C 1.00604 0.75377 0.11965
 C503 C 0.50623 0.25200 0.62465
 C504 C 0.50223 0.75223 0.86515
 C505 C 0.42665 -0.04761 0.27931
 C506 C 0.41280 -0.07153 0.28209
 C507 C 0.38543 -0.07316 0.27616
 C508 C 0.37198 -0.05115 0.26718
 C509 C 0.45447 -0.15679 0.32183
 C510 C 0.41319 -0.02542 0.27024
 C511 C 0.42601 -0.09434 0.29212
 C512 C 0.43588 -0.11391 0.30091
 C513 C 0.44629 -0.13705 0.31181
 C514 C 0.38569 -0.02698 0.26322
 H515 H 0.44773 -0.04599 0.28454
 H516 H 0.37436 -0.09144 0.27874
 H517 H 0.35063 -0.05294 0.26314
 H518 H 0.42431 -0.00709 0.26947
 C519 C 0.89758 0.43486 0.74424
 C520 C 0.91075 0.43430 0.76819
 C521 C 0.90932 0.45589 0.78471
 C522 C 0.89352 0.47730 0.77796
 C523 C 0.95402 0.34869 0.80532
 C524 C 0.88175 0.45626 0.73744
 C525 C 0.92423 0.41098 0.77662
 C526 C 0.93449 0.39126 0.78460
 C527 C 0.94544 0.36817 0.79514
 C528 C 0.87787 0.47713 0.75503
 H529 H 0.89916 0.41854 0.73095
 H530 H 0.91986 0.45591 0.80314
 H531 H 0.89250 0.49364 0.79127
 H532 H 0.87261 0.45612 0.71841
 C533 C 0.07023 1.04674 0.78545
 C534 C 0.07695 1.07187 0.77636
 C535 C 0.09830 1.07528 0.75898
 C536 C 0.11282 1.05376 0.75052
 C537 C 0.03175 1.15722 0.81151
 C538 C 0.08474 1.02506 0.77694
 C539 C 0.06319 1.09455 0.78583
 C540 C 0.05261 1.11410 0.79367
 C541 C 0.04109 1.13733 0.80304
 C542 C 0.10579 1.02798 0.75859
 H543 H 0.05413 1.04394 0.79946
 H544 H 0.10420 1.09475 0.75242
 H545 H 0.13010 1.05769 0.73824
 H546 H 0.07972 1.00594 0.78492
 C547 C 0.58684 0.55290 0.29667
 C548 C 0.57349 0.56881 0.27882
 C549 C 0.57443 0.56286 0.25235
 C550 C 0.58996 0.54199 0.24368
 C551 C 0.52983 0.65385 0.31638
 C552 C 0.60242 0.53210 0.28803
 C553 C 0.55998 0.59186 0.28777
 C554 C 0.54970 0.61141 0.29600
 C555 C 0.53865 0.63437 0.30653
 C556 C 0.60592 0.52744 0.26117
 H557 H 0.58555 0.55682 0.31731
 H558 H 0.56363 0.57466 0.23837
 H559 H 0.59051 0.53787 0.22306
 H560 H 0.61182 0.51993 0.30257
 C561 C 0.57554 0.44669 0.25573
 C562 C 0.57176 0.44009 0.22965
 C563 C 0.58226 0.45644 0.21016
 C564 C 0.59810 0.47827 0.21663
 C565 C 0.53268 0.35005 0.19713
 C566 C 0.59131 0.46860 0.26224
 C567 C 0.55895 0.41566 0.22267
 C568 C 0.54957 0.39491 0.21581
 C569 C 0.53995 0.37058 0.20645
 C570 C 0.60473 0.48354 0.24281
 H571 H 0.56700 0.43450 0.27103
 H572 H 0.57878 0.45195 0.18986
 H573 H 0.60546 0.49059 0.20094
 H574 H 0.59431 0.47306 0.28259
 C575 C 0.10814 0.93286 0.73267
 C576 C 0.08070 0.93308 0.72692
 C577 C 0.06646 0.95648 0.72875
 C578 C 0.07961 0.97956 0.73671
 C579 C 0.04159 0.84432 0.69106
 C580 C 0.12127 0.95574 0.74053
 C581 C 0.06790 0.90933 0.71802
 C582 C 0.05858 0.88895 0.71016
 C583 C 0.04898 0.86484 0.70029
 C584 C 0.10717 0.97941 0.74359
 H585 H 0.11951 0.91499 0.73078
 H586 H 0.04532 0.95699 0.72362
 H587 H 0.06822 0.99744 0.73679
 H588 H 0.14268 0.95500 0.74442
 C589 C 0.91221 0.54482 0.71575
 C590 C 0.91351 0.56648 0.73223
 C591 C 0.89919 0.56606 0.75561
 C592 C 0.88243 0.54470 0.76184
 C593 C 0.96237 0.65176 0.69777
 C594 C 0.89549 0.52345 0.72193
 C595 C 0.92822 0.58968 0.72435
 C596 C 0.93968 0.60930 0.71689
 C597 C 0.95223 0.63228 0.70710
 C598 C 0.87879 0.52373 0.74421
 H599 H 0.92363 0.54470 0.69779
 H600 H 0.90064 0.58244 0.76889
 H601 H 0.87239 0.54494 0.78047
 H602 H 0.89462 0.50706 0.70866
 C603 C 0.39358 0.06896 0.24667
 C604 C 0.41504 0.06646 0.22941
 C605 C 0.42205 0.04163 0.22042
 C606 C 0.40768 0.01937 0.22890
 C607 C 0.45976 0.15368 0.19435
 C608 C 0.37920 0.04686 0.25511
 C609 C 0.42864 0.08970 0.21997
 C610 C 0.43908 0.10970 0.21216
 C611 C 0.45046 0.13342 0.20281
 C612 C 0.38646 0.02139 0.24710
 H613 H 0.38747 0.08816 0.25317
 H614 H 0.43826 0.03952 0.20652
 H615 H 0.41296 0.00048 0.22104
 H616 H 0.36183 0.05014 0.26728
 C617 C 0.24997 0.42105 -0.05440
 C618 C 0.27303 0.41392 -0.06817
 C619 C 0.28846 0.39308 -0.05926
 C620 C 0.28123 0.37959 -0.03663
 C621 C 0.31170 0.45676 -0.15368
 C622 C 0.24264 0.40753 -0.03162
 C623 C 0.28105 0.42728 -0.09175
 C624 C 0.28931 0.43743 -0.11150
 C625 C 0.30065 0.44826 -0.13444
 C626 C 0.25869 0.38711 -0.02166
 H627 H 0.23751 0.43685 -0.06139
 H628 H 0.30598 0.38692 -0.07010
 H629 H 0.29311 0.36277 -0.03147
 H630 H 0.22430 0.41295 -0.02173
 C631 C 0.75196 0.92024 0.44843
 C632 C 0.77480 0.91294 0.43444
 C633 C 0.79063 0.89249 0.44357
 C634 C 0.78392 0.87946 0.46662
 C635 C 0.80985 0.95396 0.34668
 C636 C 0.74517 0.90720 0.47161
 C637 C 0.78206 0.92567 0.41032
 C638 C 0.78950 0.93537 0.39008
 C639 C 0.79977 0.94576 0.36651
 C640 C 0.76152 0.88708 0.48170
 H641 H 0.73921 0.93574 0.44128
 H642 H 0.80800 0.88622 0.43257
 H643 H 0.79603 0.86285 0.47195
 H644 H 0.72694 0.91268 0.48166
 C645 C 0.75797 0.06546 1.05465
 C646 C 0.77067 0.07831 1.07535
 C647 C 0.77535 0.10531 1.07395
 C648 C 0.76799 0.11933 1.05182
 C649 C 0.80841 0.03184 1.15890
 C650 C 0.75052 0.07950 1.03236
 C651 C 0.77941 0.06411 1.09803
 C652 C 0.78766 0.05320 1.11723
 C653 C 0.79837 0.04137 1.13978
 C654 C 0.75637 0.10663 1.03010
 H655 H 0.75375 0.04459 1.05575
 H656 H 0.78483 0.11558 1.08997
 H657 H 0.77176 0.14028 1.05142
 H658 H 0.73986 0.06902 1.01727
 C659 C 0.25790 0.58908 0.57416
 C660 C 0.27622 0.56895 0.57051
 C661 C 0.28420 0.56237 0.54531
 C662 C 0.27387 0.57597 0.52388
 C663 C 0.31895 0.52912 0.65525
 C664 C 0.24765 0.60271 0.55289
 C665 C 0.28793 0.55651 0.59293
 C666 C 0.29761 0.54716 0.61232
 C667 C 0.30898 0.53715 0.63543
 C668 C 0.25482 0.59604 0.52712
 H669 H 0.25212 0.59486 0.59361
 H670 H 0.29889 0.54719 0.54225
 H671 H 0.28120 0.57118 0.50467
 H672 H 0.23494 0.61918 0.55704
 C673 C 0.22262 0.59883 0.43406
 C674 C 0.21723 0.57193 0.43457
 C675 C 0.22066 0.55781 0.45772
 C676 C 0.22999 0.57053 0.48016
 C677 C 0.17947 0.53454 0.34663
 C678 C 0.23185 0.61152 0.45630
 C679 C 0.20747 0.55947 0.41127
 C680 C 0.19910 0.55051 0.39114
 C681 C 0.18884 0.54141 0.36716
 C682 C 0.23665 0.59757 0.47961
 H683 H 0.21957 0.61010 0.41643
 H684 H 0.21588 0.53704 0.45849
 H685 H 0.23141 0.55917 0.49786
 H686 H 0.23561 0.63246 0.45527
 C687 C 0.71010 0.10123 0.94445
 C688 C 0.72661 0.08142 0.93523
 C689 C 0.74975 0.07474 0.94911
 C690 C 0.75619 0.08782 0.97222
 C691 C 0.69286 0.04141 0.84701
 C692 C 0.71647 0.11431 0.96742
 C693 C 0.71979 0.06884 0.91104
 C694 C 0.71265 0.05936 0.89070
 C695 C 0.70269 0.04929 0.86699
 C696 C 0.73923 0.10736 0.98236
 H697 H 0.69249 0.10703 0.93354
 H698 H 0.76302 0.05975 0.94189
 H699 H 0.77467 0.08288 0.98215
 H700 H 0.70382 0.13048 0.97274
 C701 C 0.74517 0.92965 0.55371
 C702 C 0.73203 0.91734 0.57462
 C703 C 0.72602 0.89057 0.57347
 C704 C 0.73257 0.87625 0.55140
 C705 C 0.69757 0.96528 0.65828
 C706 C 0.75181 0.91531 0.53149
 C707 C 0.72427 0.93188 0.59730
 C708 C 0.71682 0.94313 0.61652
 C709 C 0.70697 0.95540 0.63911
 C710 C 0.74468 0.88845 0.52950
 H711 H 0.75043 0.95030 0.55462
 H712 H 0.71618 0.88071 0.58967
 H713 H 0.72787 0.85547 0.55123
 H714 H 0.76291 0.92532 0.51625
 C715 C 0.22202 0.38902 0.06984
 C716 C 0.22761 0.41584 0.07142
 C717 C 0.24092 0.42859 0.05084
 C718 C 0.24808 0.41463 0.02852
 C719 C 0.19038 0.46231 0.15485
 C720 C 0.22908 0.37509 0.04767
 C721 C 0.21914 0.42999 0.09412
 C722 C 0.21105 0.44088 0.11332
 C723 C 0.20043 0.45274 0.13582
 C724 C 0.24131 0.38774 0.02607
 H725 H 0.21206 0.37882 0.08577
 H726 H 0.24586 0.44929 0.05208
 H727 H 0.25924 0.42499 0.01355
 H728 H 0.22461 0.35427 0.04715
 C729 C -0.06591 0.27469 0.38283
 C730 C -0.06225 0.28044 0.40909
 C731 C -0.03733 0.27591 0.42080
 C732 C -0.01628 0.26513 0.40640
 C733 C -0.14431 0.32381 0.45605
 C734 C -0.04500 0.26398 0.36844
 C735 C -0.08401 0.29175 0.42353
 C736 C -0.10274 0.30144 0.43468
 C737 C -0.12507 0.31322 0.44667
 C738 C -0.02005 0.25799 0.38011
 H739 H -0.08493 0.27863 0.37339
 H740 H -0.03405 0.28100 0.44098
 H741 H 0.00296 0.26303 0.41590
 H742 H -0.04835 0.26005 0.34802
 C743 C 0.43352 0.78116 0.88288
 C744 C 0.43621 0.78656 0.90933
 C745 C 0.46045 0.78118 0.92197
 C746 C 0.48182 0.77004 0.90829
 C747 C 0.35387 0.83197 0.95400
 C748 C 0.45475 0.77009 0.86920
 C749 C 0.41422 0.79842 0.92300
 C750 C 0.39538 0.80861 0.93353
 C751 C 0.37303 0.82096 0.94494
 C752 C 0.47904 0.76342 0.88175
 H753 H 0.41505 0.78571 0.87274
 H754 H 0.46300 0.78595 0.94232
 H755 H 0.50056 0.76733 0.91852
 H756 H 0.45219 0.76652 0.84861
 C757 C 1.07623 0.78205 0.10307
 C758 C 1.07431 0.78756 0.07655
 C759 C 1.05007 0.78264 0.06350
 C760 C 1.02795 0.77177 0.07685
 C761 C 1.15971 0.83063 0.03221
 C762 C 1.05425 0.77125 0.11642
 C763 C 1.09717 0.79891 0.06315
 C764 C 1.11671 0.80859 0.05275
 C765 C 1.13988 0.82026 0.04139
 C766 C 1.02992 0.76497 0.10346
 H767 H 1.09471 0.78623 0.11351
 H768 H 1.04815 0.78749 0.04307
 H769 H 1.00930 0.76934 0.06629
 H770 H 1.05626 0.76748 0.13705
 C771 C 0.54829 0.27948 0.56648
 C772 C 0.57312 0.28417 0.57851
 C773 C 0.57596 0.27936 0.60509
 C774 C 0.55434 0.26929 0.61946
 C775 C 0.65858 0.32279 0.53069
 C776 C 0.52652 0.26935 0.58086
 C777 C 0.59577 0.29436 0.56398
 C778 C 0.61528 0.30300 0.55271
 C779 C 0.63854 0.31342 0.54045
 C780 C 0.52947 0.26301 0.60750
 H781 H 0.54568 0.28383 0.54602
 H782 H 0.59493 0.28342 0.61475
 H783 H 0.55711 0.26592 0.64008
 H784 H 0.50744 0.26699 0.57103
 C785 C 0.46290 0.21348 0.57512
 C786 C 0.43675 0.22064 0.58195
 C787 C 0.43280 0.23778 0.60262
 C788 C 0.45480 0.24809 0.61619
 C789 C 0.35077 0.17880 0.53818
 C790 C 0.48501 0.22380 0.58868
 C791 C 0.41375 0.20954 0.56874
 C792 C 0.39407 0.20021 0.55842
 C793 C 0.37074 0.18896 0.54714
 C794 C 0.48153 0.24214 0.60889
 H795 H 0.46619 0.19968 0.55955
 H796 H 0.41260 0.24283 0.60861
 H797 H 0.45053 0.26017 0.63284
 H798 H 0.50499 0.21745 0.58340
 C799 C 0.93332 0.73962 0.09564
 C800 C 0.93780 0.72249 0.07508
 C801 C 0.96415 0.71559 0.06870
 C802 C 0.98592 0.72603 0.08271
 C803 C 0.85161 0.67970 0.03271
 C804 C 0.95493 0.75002 0.10967
 C805 C 0.91506 0.71100 0.06179
 C806 C 0.89538 0.70141 0.05170
 C807 C 0.87186 0.68996 0.04099
 C808 C 0.98187 0.74419 0.10297
 H809 H 0.91296 0.74449 0.10129
 H810 H 0.96786 0.70179 0.05320
 H811 H 1.00605 0.71979 0.07785
 H812 H 0.95016 0.76197 0.12628
 C813 C 0.57450 0.73669 0.88853
 C814 C 0.56941 0.71986 0.90948
 C815 C 0.54282 0.71316 0.91598
 C816 C 0.52142 0.72370 0.90185
 C817 C 0.65355 0.68044 0.95701
 C818 C 0.55323 0.74721 0.87442
 C819 C 0.59172 0.70895 0.92353
 C820 C 0.61095 0.70006 0.93462
 C821 C 0.63388 0.68963 0.94694
 C822 C 0.52611 0.74185 0.88144
 H823 H 0.59502 0.74141 0.88282
 H824 H 0.53863 0.69962 0.93180
 H825 H 0.50106 0.71776 0.90692
 H826 H 0.55835 0.75911 0.85764
 C827 C 0.04495 0.20909 0.41326
 C828 C 0.07129 0.21606 0.40615
 C829 C 0.07571 0.23248 0.38474
 C830 C 0.05397 0.24242 0.37083
 C831 C 0.15553 0.17866 0.45519
 C832 C 0.02312 0.21902 0.39935
 C833 C 0.09394 0.20592 0.42026
 C834 C 0.11324 0.19753 0.43164
 C835 C 0.13605 0.18756 0.44452
 C836 C 0.02710 0.23686 0.37854
 H837 H 0.04127 0.19585 0.42944
 H838 H 0.09604 0.23739 0.37857
 H839 H 0.05850 0.25408 0.35375
 H840 H 0.00295 0.21293 0.40497
 C841 C 0.54471 0.19006 0.64633
 C842 C 0.52915 0.18126 0.66731
 C843 C 0.50587 0.19471 0.67417
 C844 C 0.49862 0.21731 0.66043
 C845 C 0.56863 0.09843 0.71370
 C846 C 0.53757 0.21256 0.63265
 C847 C 0.53750 0.15834 0.68143
 C848 C 0.54601 0.13924 0.69241
 C849 C 0.55755 0.11709 0.70431
 C850 C 0.51505 0.22747 0.64018
 H851 H 0.56238 0.17939 0.64037
 H852 H 0.49331 0.18774 0.69005
 H853 H 0.48026 0.22712 0.66581
 H854 H 0.54965 0.21780 0.61589
 C855 C 1.04333 0.69126 0.14178
 C856 C 1.02663 0.68194 0.16172
 C857 C 1.00317 0.69542 0.16789
 C858 C 0.99678 0.71845 0.15446
 C859 C 1.06191 0.59677 0.20730
 C860 C 1.03703 0.71419 0.12838
 C861 C 1.03389 0.65839 0.17541
 C862 C 1.04141 0.63875 0.18615
 C863 C 1.05178 0.61595 0.19791
 C864 C 1.01420 0.72900 0.13517
 H865 H 1.06119 0.68060 0.13635
 H866 H 0.98975 0.68809 0.18295
 H867 H 0.97821 0.72821 0.15924
 H868 H 1.04998 0.71979 0.11234
 C869 C 0.97905 0.82099 0.13965
 C870 C 0.98251 0.82100 0.16656
 C871 C 0.99504 0.79984 0.17870
 C872 C 1.00324 0.77828 0.16405
 C873 C 0.93811 0.90019 0.21433
 C874 C 0.98712 0.79956 0.12503
 C875 C 0.97221 0.84249 0.18144
 C876 C 0.96245 0.86065 0.19280
 C877 C 0.94982 0.88199 0.20492
 C878 C 0.99818 0.77717 0.13702
 H879 H 0.96973 0.83743 0.12995
 H880 H 0.99837 0.79992 0.19951
 H881 H 1.01361 0.76276 0.17406
 H882 H 0.98403 0.80008 0.10420
 C883 C 0.48033 0.31960 0.64486
 C884 C 0.48544 0.32016 0.67152
 C885 C 0.49849 0.29913 0.68337
 C886 C 0.50565 0.27723 0.66871
 C887 C 0.44480 0.40090 0.71984
 C888 C 0.48739 0.29782 0.63023
 C889 C 0.47639 0.34211 0.68651
 C890 C 0.46760 0.36065 0.69803
 C891 C 0.45593 0.38241 0.71033
 C892 C 0.49904 0.27562 0.64202
 H893 H 0.47059 0.33593 0.63537
 H894 H 0.50308 0.29963 0.70394
 H895 H 0.51657 0.26188 0.67843
 H896 H 0.48316 0.29798 0.60959
 C897 C 0.50185 0.69492 0.81619
 C898 C 0.47825 0.68126 0.82304
 C899 C 0.46236 0.69036 0.84339
 C900 C 0.46967 0.71312 0.85666
 C901 C 0.44094 0.59339 0.78350
 C902 C 0.50924 0.71783 0.82947
 C903 C 0.47032 0.65739 0.81012
 C904 C 0.46228 0.63724 0.80053
 C905 C 0.45138 0.61357 0.79070
 C906 C 0.49275 0.72801 0.84936
 H907 H 0.51468 0.68773 0.80083
 H908 H 0.44444 0.67955 0.84937
 H909 H 0.45738 0.71845 0.87310
 H910 H 0.52796 0.72765 0.82427
 C911 C 0.00058 0.18956 0.31391
 C912 C -0.02267 0.17581 0.32161
 C913 C -0.03755 0.18458 0.34281
 C914 C -0.02971 0.20724 0.35595
 C915 C -0.06318 0.08967 0.28135
 C916 C 0.00852 0.21235 0.32708
 C917 C -0.03143 0.15233 0.30850
 C918 C -0.04021 0.13257 0.29872
 C919 C -0.05200 0.10940 0.28869
 C920 C -0.00714 0.22235 0.34767
 H921 H 0.01265 0.18260 0.29787
 H922 H -0.05516 0.17367 0.34943
 H923 H -0.04123 0.21243 0.37295
 H924 H 0.02691 0.22234 0.32112
 C925 C 0.00968 0.29486 0.30415
 C926 C 0.02348 0.31581 0.31576
 C927 C 0.02992 0.31461 0.34213
 C928 C 0.02316 0.29243 0.35675
 C929 C 0.05979 0.40252 0.27263
 C930 C 0.00282 0.27251 0.31881
 C931 C 0.03138 0.33876 0.30110
 C932 C 0.03918 0.35855 0.29044
 C933 C 0.04967 0.38216 0.27990
 C934 C 0.01041 0.27045 0.34525
 H935 H 0.00405 0.29585 0.28384
 H936 H 0.04023 0.33088 0.35146
 H937 H 0.02817 0.29226 0.37722
 H938 H -0.00883 0.25726 0.30940
 C939 C 0.51348 0.80062 0.80724
 C940 C 0.52690 0.82126 0.81980
 C941 C 0.53142 0.81986 0.84652
 C942 C 0.52327 0.79775 0.86057
 C943 C 0.56897 0.90663 0.77867
 C944 C 0.50521 0.77832 0.82134
 C945 C 0.53656 0.84398 0.80575
 C946 C 0.54579 0.86349 0.79564
 C947 C 0.55779 0.88669 0.78567
 C948 C 0.51097 0.77602 0.84818
 H949 H 0.50935 0.80177 0.78661
 H950 H 0.54143 0.83588 0.85655
 H951 H 0.52700 0.79735 0.88130
 H952 H 0.49403 0.76326 0.81114
 C953 C 0.66251 0.55013 0.20092
 C954 C 0.67398 0.53145 0.18469
 C955 C 0.67155 0.50486 0.19098
 C956 C 0.65647 0.49695 0.21266
 C957 C 0.71592 0.56649 0.09724
 C958 C 0.64739 0.54226 0.22256
 C959 C 0.68708 0.53969 0.16100
 C960 C 0.69703 0.54729 0.14092
 C961 C 0.70763 0.55713 0.11731
 C962 C 0.64246 0.51539 0.22782
 H963 H 0.66496 0.57085 0.19666
 H964 H 0.68086 0.49022 0.17887
 H965 H 0.65482 0.47621 0.21705
 H966 H 0.63956 0.55740 0.23496
 C967 C 0.14142 1.02467 0.68147
 C968 C 0.16921 1.02117 0.68057
 C969 C 0.18258 1.01082 0.70212
 C970 C 0.16826 1.00484 0.72489
 C971 C 0.21503 1.05905 0.59645
 C972 C 0.12713 1.01882 0.70411
 C973 C 0.18377 1.02940 0.65773
 C974 C 0.19473 1.03758 0.63840
 C975 C 0.20622 1.04856 0.61573
 C976 C 0.14042 1.01006 0.72675
 H977 H 0.13078 1.03232 0.66476
 H978 H 0.20407 1.00749 0.70137
 H979 H 0.17912 0.99601 0.74078
 H980 H 0.10558 1.02179 0.70424
 C981 C 0.14823 0.97535 0.81647
 C982 C 0.17010 0.99176 0.82218
 C983 C 0.17630 1.01296 0.80582
 C984 C 0.16112 1.01710 0.78328
 C985 C 0.22159 0.95745 0.90371
 C986 C 0.13318 0.97936 0.79404
 C987 C 0.18610 0.98595 0.84468
 C988 C 0.19843 0.97889 0.86352
 C989 C 0.21153 0.96829 0.88536
 C990 C 0.14023 0.99943 0.77613
 H991 H 0.14279 0.95929 0.82940
 H992 H 0.19288 1.02617 0.81038
 H993 H 0.16601 1.03385 0.77109
 H994 H 0.11587 0.96666 0.79101
 C995 C 0.67815 0.50767 0.30499
 C996 C 0.68115 0.48108 0.31076
 C997 C 0.66822 0.46223 0.29544
 C998 C 0.65091 0.46987 0.27554
 C999 C 0.72643 0.44435 0.39510
 C1000 C 0.66090 0.51535 0.28498
 C1001 C 0.69584 0.47289 0.33338
 C1002 C 0.70673 0.46498 0.35273
 C1003 C 0.71797 0.45446 0.37560
 C1004 C 0.64528 0.49663 0.27124
 H1005 H 0.68855 0.52246 0.31637
 H1006 H 0.67104 0.44155 0.29924
 H1007 H 0.64180 0.45462 0.26384
 H1008 H 0.65872 0.53607 0.28102
 C1009 C 0.80913 0.46530 0.70347
 C1010 C 0.80922 0.48182 0.68172
 C1011 C 0.82263 0.50603 0.68279
 C1012 C 0.83752 0.51291 0.70480
 C1013 C 0.77819 0.44431 0.59178
 C1014 C 0.82398 0.47217 0.72552
 C1015 C 0.79805 0.47282 0.65753
 C1016 C 0.79036 0.46458 0.63690
 C1017 C 0.78309 0.45408 0.61255
 C1018 C 0.84027 0.49512 0.72578
 H1019 H 0.79843 0.44666 0.70305
 H1020 H 0.82225 0.51930 0.66630
 H1021 H 0.84717 0.53202 0.70490
 H1022 H 0.82411 0.45875 0.74189
 C1023 C 0.31983 0.00385 0.19667
 C1024 C 0.32673 -0.01747 0.18119
 C1025 C 0.34736 -0.03401 0.18899
 C1026 C 0.36078 -0.02970 0.21235
 C1027 C 0.28712 -0.04704 0.09177
 C1028 C 0.33329 0.00824 0.22019
 C1029 C 0.31348 -0.02262 0.15689
 C1030 C 0.30377 -0.02873 0.13633
 C1031 C 0.29406 -0.03781 0.11223
 C1032 C 0.35329 -0.00912 0.22909
 H1033 H 0.30426 0.01717 0.19050
 H1034 H 0.35339 -0.05016 0.17678
 H1035 H 0.37747 -0.04233 0.21674
 H1036 H 0.32806 0.02524 0.23155
 C1037 C 0.34852 0.01690 0.32320
 C1038 C 0.32061 0.01343 0.32301
 C1039 C 0.30787 0.00310 0.30102
 C1040 C 0.32302 -0.00289 0.27889
 C1041 C 0.27752 0.05337 0.40624
 C1042 C 0.36360 0.01108 0.30123
 C1043 C 0.30552 0.02189 0.34520
 C1044 C 0.29481 0.03049 0.36428
 C1045 C 0.28451 0.04217 0.38688
 C1046 C 0.35108 0.00228 0.27816
 H1047 H 0.35865 0.02458 0.34024
 H1048 H 0.28627 -0.00015 0.30091
 H1049 H 0.31259 -0.01161 0.26260
 H1050 H 0.38521 0.01421 0.30191
 C1051 C 0.80786 0.53547 0.79292
 C1052 C 0.80636 0.51890 0.81460
 C1053 C 0.81924 0.49475 0.81412
 C1054 C 0.83511 0.48796 0.79281
 C1055 C 0.77157 0.55679 0.90278
 C1056 C 0.82370 0.52869 0.77158
 C1057 C 0.79405 0.52781 0.83823
 C1058 C 0.78540 0.53606 0.85845
 C1059 C 0.77713 0.54673 0.88236
 C1060 C 0.83937 0.50578 0.77200
 H1061 H 0.79760 0.55407 0.79288
 H1062 H 0.81766 0.48145 0.83054
 H1063 H 0.84426 0.46888 0.79311
 H1064 H 0.82499 0.54213 0.75526
 C1065 C 0.19820 0.67192 0.51256
 C1066 C 0.17593 0.65930 0.52393
 C1067 C 0.17582 0.63211 0.52712
 C1068 C 0.19829 0.61771 0.52001
 C1069 C 0.09499 0.70781 0.56704
 C1070 C 0.22077 0.65751 0.50535
 C1071 C 0.15363 0.67407 0.53362
 C1072 C 0.13498 0.68557 0.54300
 C1073 C 0.11330 0.69802 0.55536
 C1074 C 0.22182 0.63024 0.51029
 H1075 H 0.19823 0.69294 0.50946
 H1076 H 0.15853 0.62205 0.53556
 H1077 H 0.19771 0.59667 0.52287
 H1078 H 0.23716 0.66790 0.49586
 C1079 C 0.70611 0.18124 1.03298
 C1080 C 0.68148 0.16859 1.03793
 C1081 C 0.67874 0.14170 1.03358
 C1082 C 0.70030 0.12762 1.02367
 C1083 C 0.59809 0.21631 1.07784
 C1084 C 0.72778 0.16718 1.02303
 C1085 C 0.65908 0.18288 1.04814
 C1086 C 0.64001 0.19417 1.05697
 C1087 C 0.61743 0.20653 1.06784
 C1088 C 0.72493 0.14023 1.01712
 H1089 H 0.70868 0.20194 1.03702
 H1090 H 0.65993 0.13156 1.03789
 H1091 H 0.69767 0.10675 1.02067
 H1092 H 0.74673 0.17753 1.02050
 C1093 C 0.78901 0.17478 0.96671
 C1094 C 0.81551 0.16933 0.97383
 C1095 C 0.82058 0.14896 0.99129
 C1096 C 0.79929 0.13434 1.00196
 C1097 C 0.89779 0.21755 0.92940
 C1098 C 0.76764 0.16018 0.97737
 C1099 C 0.83767 0.18366 0.96231
 C1100 C 0.85651 0.19504 0.95243
 C1101 C 0.87876 0.20758 0.94037
 C1102 C 0.77222 0.14028 0.99601
 H1103 H 0.78487 0.19010 0.95269
 H1104 H 0.84109 0.14404 0.99632
 H1105 H 0.80437 0.11799 1.01436
 H1106 H 0.74736 0.16446 0.97110
 C1107 C 0.31243 0.63760 0.47075
 C1108 C 0.32018 0.65825 0.48690
 C1109 C 0.30497 0.66374 0.50905
 C1110 C 0.28154 0.64910 0.51447
 C1111 C 0.40358 0.70958 0.44935
 C1112 C 0.28911 0.62306 0.47605
 C1113 C 0.34350 0.67378 0.47992
 C1114 C 0.36283 0.68597 0.47208
 C1115 C 0.38507 0.69920 0.46075
 C1116 C 0.27227 0.62941 0.49725
 H1117 H 0.32447 0.63271 0.45392
 H1118 H 0.31110 0.67937 0.52202
 H1119 H 0.27027 0.65348 0.53190
 H1120 H 0.28460 0.60669 0.46345
 C1121 C 0.67928 0.84753 0.49153
 C1122 C 0.68380 0.82683 0.47449
 C1123 C 0.71011 0.82064 0.46739
 C1124 C 0.73185 0.83482 0.47769
 C1125 C 0.59820 0.78258 0.43297
 C1126 C 0.70093 0.86174 0.50184
 C1127 C 0.66122 0.81300 0.46338
 C1128 C 0.64178 0.80231 0.45402
 C1129 C 0.61849 0.79102 0.44286
 C1130 C 0.72780 0.85503 0.49594
 H1131 H 0.65892 0.85302 0.49651
 H1132 H 0.71382 0.80506 0.45367
 H1133 H 0.75200 0.82996 0.47147
 H1134 H 0.69631 0.87835 0.51392
 C1135 C 0.20673 0.32135 -0.03747
 C1136 C 0.18042 0.32794 -0.03069
 C1137 C 0.17605 0.34837 -0.01332
 C1138 C 0.19780 0.36200 -0.00246
 C1139 C 0.09410 0.28699 -0.07430
 C1140 C 0.22859 0.33496 -0.02660
 C1141 C 0.15767 0.31491 -0.04249
 C1142 C 0.13802 0.30503 -0.05233
 C1143 C 0.11449 0.29470 -0.06400
 C1144 C 0.22465 0.35496 -0.00810
 H1145 H 0.21036 0.30598 -0.05145
 H1146 H 0.15573 0.35418 -0.00855
 H1147 H 0.19326 0.37849 0.00980
 H1148 H 0.24874 0.32989 -0.03266
 C1149 C 0.31786 0.35121 0.02987
 C1150 C 0.31457 0.32439 0.03450
 C1151 C 0.28977 0.31216 0.02938
 C1152 C 0.26849 0.32664 0.01910
 C1153 C 0.39914 0.28091 0.07665
 C1154 C 0.29674 0.36569 0.01966
 C1155 C 0.33663 0.30997 0.04531
 C1156 C 0.35584 0.29930 0.05467
 C1157 C 0.37900 0.28855 0.06618
 C1158 C 0.27192 0.35358 0.01309
 H1159 H 0.33679 0.36103 0.03428
 H1160 H 0.28677 0.29150 0.03361
 H1161 H 0.24936 0.31667 0.01645
 H1162 H 0.29983 0.38652 0.01654
 C1163 C 0.82113 0.85129 0.53308
 C1164 C 0.81749 0.82459 0.53825
 C1165 C 0.79245 0.81262 0.53375
 C1166 C 0.77127 0.82719 0.52350
 C1167 C 0.90139 0.77872 0.57899
 C1168 C 0.80007 0.86587 0.52288
 C1169 C 0.83943 0.80992 0.54885
 C1170 C 0.85845 0.79875 0.55795
 C1171 C 0.88136 0.78717 0.56901
 C1172 C 0.77502 0.85394 0.51682
 H1173 H 0.84028 0.86091 0.53704
 H1174 H 0.78921 0.79209 0.53842
 H1175 H 0.75196 0.81743 0.52137
 H1176 H 0.80339 0.88660 0.51931
   
