data_POSCAR
  _audit_creation_date              2014-09-24
  _audit_creation_method            'ToBaCCo'
  _symmetry_space_group_name_H-M    'P1'
  _symmetry_Int_Tables_number       1
  _symmetry_cell_setting            triclinic
  loop_
  _symmetry_equiv_pos_as_xyz
 x,y,z
_cell_length_a 37.7441
_cell_length_b 37.7967
_cell_length_c 12.2740
_cell_angle_alpha 90.107000
_cell_angle_beta 90.151800
_cell_angle_gamma 119.763000
loop_
  _atom_site_label
  _atom_site_type_symbol
  _atom_site_fract_x
  _atom_site_fract_y
  _atom_site_fract_z
C1 C 0.21680 0.49884 0.44338
 C2 C 0.21639 0.49777 0.56182
 C3 C 0.25241 0.50466 0.61507
 C4 C 0.28363 0.50080 0.56444
 C5 C 0.28449 0.50167 0.44674
 C6 C 0.24981 0.49786 0.39194
 H7 H 0.24813 0.49316 0.30469
 H8 H 0.25595 0.51243 0.70073
 C9 C 0.49411 -0.28514 0.43524
 C10 C 0.49309 -0.28602 0.55310
 C11 C 0.49517 -0.25205 0.60772
 C12 C 0.49287 -0.21986 0.55558
 C13 C 0.49386 -0.21963 0.43764
 C14 C 0.48885 -0.25479 0.38427
 H15 H 0.48192 -0.25789 0.29812
 H16 H 0.50005 -0.25005 0.69483
 C17 C 1.28377 0.78427 0.44129
 C18 C 1.28091 0.78429 0.55901
 C19 C 1.24871 0.74976 0.60891
 C20 C 1.21511 0.71873 0.55266
 C21 C 1.21782 0.71854 0.43528
 C22 C 1.24995 0.75300 0.38525
 H23 H 1.24807 0.75605 0.29826
 H24 H 1.24954 0.74671 0.69624
 C25 C 0.78301 0.49762 0.44499
 C26 C 0.78262 0.49697 0.56285
 C27 C 0.75107 0.50037 0.61500
 C28 C 0.71663 0.49767 0.56117
 C29 C 0.71755 0.49824 0.44325
 C30 C 0.74812 0.49338 0.39171
 H31 H 0.74510 0.48691 0.30540
 H32 H 0.75393 0.50635 0.70172
 C33 C 0.50692 0.28688 0.45071
 C34 C 0.50597 0.28622 0.56867
 C35 C 0.51123 0.25600 0.62087
 C36 C 0.50551 0.22036 0.56896
 C37 C 0.50685 0.22071 0.45122
 C38 C 0.50502 0.25279 0.39750
 H39 H 0.50068 0.25050 0.31021
 H40 H 0.51864 0.25962 0.70683
 C41 C 0.71684 0.21922 0.43796
 C42 C 0.71204 0.22048 0.55431
 C43 C 0.74462 0.25218 0.61271
 C44 C 0.78017 0.28370 0.56443
 C45 C 0.78007 0.28726 0.44690
 C46 C 0.74905 0.25389 0.38894
 H47 H 0.75045 0.25479 0.30143
 H48 H 0.74253 0.25174 0.70006
 O49 O 0.94332 0.53114 -0.20045
 O50 O 0.89825 0.47823 -0.09344
 C51 C 0.90660 0.50427 -0.17133
 O52 O 1.05381 0.45935 -0.19811
 O53 O 1.10091 0.51512 -0.10161
 C54 C 1.09092 0.48656 -0.17445
 O55 O 0.94162 0.40845 -0.19868
 O56 O 0.89695 0.41831 -0.09444
 C57 C 0.90505 0.39981 -0.17159
 O58 O 1.05734 0.59204 -0.18604
 O59 O 1.10334 0.57827 -0.10075
 C60 C 1.09431 0.59946 -0.16751
 Zr61 Zr 1.00047 0.54295 -0.13758
 O62 O 1.00495 0.54544 -0.30965
 O63 O 0.99552 0.59634 -0.13731
 Zr64 Zr 0.99881 0.45270 -0.13845
 O65 O 1.00151 0.45331 -0.31080
 O66 O 0.99348 0.39424 -0.13386
 O67 O 0.96317 0.48021 -0.15857
 O68 O 1.03493 0.51494 -0.16019
 O69 O 1.06021 0.59012 0.18910
 O70 O 1.10463 0.57883 0.08728
 C71 C 1.09674 0.59876 0.16063
 O72 O 0.94420 0.41222 0.20658
 O73 O 0.89868 0.41969 0.09849
 C74 C 0.90731 0.40285 0.17825
 O75 O 1.05830 0.46268 0.18881
 O76 O 1.10366 0.51752 0.08707
 C77 C 1.09511 0.48984 0.16102
 O78 O 0.94637 0.53279 0.20088
 O79 O 0.89943 0.47902 0.09831
 C80 C 0.90914 0.50577 0.17568
 Zr81 Zr 1.00248 0.54363 0.13507
 O82 O 1.00747 0.54774 0.30707
 O83 O 0.99915 0.59793 0.12956
 Zr84 Zr 1.00092 0.45319 0.13376
 O85 O 1.00493 0.44893 0.30450
 O86 O 0.99493 0.39461 0.11823
 Zr87 Zr 0.93937 0.46857 0.00074
 Zr88 Zr 1.06205 0.52776 -0.00451
 O89 O 1.03707 0.51551 0.15345
 O90 O 0.96576 0.48113 0.15797
 O91 O 1.03845 0.56804 -0.00254
 O92 O 0.96364 0.42905 -0.00066
 O93 O 0.96564 0.53242 0.00030
 O94 O 1.03679 0.46388 -0.00403
 H95 H 1.05257 0.52377 -0.22557
 H96 H 0.94435 0.39929 0.00064
 H97 H 1.05530 0.52440 0.21801
 H98 H 0.94739 0.54428 0.00099
 H99 H 1.01747 0.39677 -0.09405
 H100 H 1.02184 0.39831 0.09699
 H101 H 1.00458 0.47280 0.33609
 H102 H 0.98630 0.52134 0.33687
 H103 H 1.02489 0.61955 0.09774
 H104 H 1.01689 0.61620 -0.08785
 H105 H 0.98243 0.51957 -0.33875
 H106 H 0.97984 0.45843 -0.33847
 O107 O 0.52940 0.58694 -0.20846
 O108 O 0.47736 0.58001 -0.09807
 C109 C 0.50241 0.59676 -0.17833
 O110 O 0.46517 0.40735 -0.18571
 O111 O 0.52251 0.41925 -0.09084
 C112 C 0.49408 0.39946 -0.16282
 O113 O 0.41018 0.46588 -0.19496
 O114 O 0.41874 0.52073 -0.09434
 C115 C 0.40075 0.49354 -0.17027
 O116 O 0.59064 0.53330 -0.20111
 O117 O 0.58261 0.47975 -0.09546
 C118 C 0.60054 0.50622 -0.17232
 Zr119 Zr 0.54412 0.54418 -0.14135
 O120 O 0.54707 0.54334 -0.31340
 O121 O 0.59749 0.60225 -0.13732
 Zr122 Zr 0.45518 0.45441 -0.13029
 O123 O 0.45116 0.44651 -0.30143
 O124 O 0.39779 0.40078 -0.11318
 O125 O 0.48089 0.51680 -0.15801
 O126 O 0.51725 0.48173 -0.15638
 O127 O 0.59536 0.53878 0.18676
 O128 O 0.58467 0.48199 0.09176
 C129 C 0.60399 0.51040 0.16401
 O130 O 0.41495 0.47127 0.20807
 O131 O 0.42082 0.52292 0.09797
 C132 C 0.40436 0.49766 0.17795
 O133 O 0.47063 0.41225 0.20157
 O134 O 0.52480 0.42128 0.09674
 C135 C 0.49824 0.40300 0.17335
 O136 O 0.53445 0.59158 0.19634
 O137 O 0.47950 0.58218 0.09421
 C138 C 0.50635 0.60039 0.17085
 Zr139 Zr 0.54763 0.54786 0.13070
 O140 O 0.55626 0.55300 0.30149
 O141 O 0.60054 0.60569 0.11189
 Zr142 Zr 0.45876 0.45801 0.14185
 O143 O 0.46008 0.45551 0.31399
 O144 O 0.40117 0.40400 0.13881
 Zr145 Zr 0.47008 0.53128 0.00008
 Zr146 Zr 0.53260 0.47091 0.00048
 O147 O 0.52135 0.48595 0.15714
 O148 O 0.48503 0.52102 0.15830
 O149 O 0.57161 0.53462 -0.00582
 O150 O 0.43223 0.46758 0.00622
 O151 O 0.53373 0.57018 -0.00595
 O152 O 0.46900 0.43101 0.00652
 H153 H 0.52533 0.47232 -0.22226
 H154 H 0.40226 0.45626 0.00796
 H155 H 0.53100 0.47814 0.22309
 H156 H 0.54439 0.60000 -0.00774
 H157 H 0.40264 0.37936 -0.08246
 H158 H 0.40521 0.38186 0.10950
 H159 H 0.46770 0.48295 0.34195
 H160 H 0.52883 0.53956 0.33463
 H161 H 0.62258 0.60123 0.08391
 H162 H 0.62005 0.59859 -0.10916
 H163 H 0.51919 0.53378 -0.34150
 H164 H 0.46129 0.47373 -0.33403
 O165 O 0.47232 0.05822 0.21214
 O166 O 0.52349 0.10288 0.09986
 C167 C 0.49894 0.09480 0.18139
 O168 O 0.53699 -0.05717 0.18105
 O169 O 0.47915 -0.10232 0.08824
 C170 C 0.50787 -0.09376 0.15926
 O171 O 0.59137 0.05582 0.19133
 O172 O 0.58225 0.10190 0.09159
 C173 C 0.60061 0.09277 0.16676
 O174 O 0.41187 -0.05612 0.20599
 O175 O 0.41907 -0.10181 0.09784
 C176 C 0.40172 -0.09304 0.17643
 Zr177 Zr 0.45777 0.00084 0.14504
 O178 O 0.45743 -0.00259 0.31722
 O179 O 0.40418 0.00560 0.14790
 Zr180 Zr 0.54686 -0.00033 0.12521
 O181 O 0.55539 -0.00291 0.29458
 O182 O 0.60389 0.00307 0.09815
 O183 O 0.52108 0.03630 0.15747
 O184 O 0.48502 -0.03468 0.15578
 O185 O 0.40341 -0.05558 -0.18072
 O186 O 0.41537 -0.10161 -0.08996
 C187 C 0.39529 -0.09244 -0.15978
 O188 O 0.58327 0.05631 -0.21492
 O189 O 0.57819 0.10175 -0.10090
 C190 C 0.59380 0.09314 -0.18361
 O191 O 0.52830 -0.05842 -0.20677
 O192 O 0.47524 -0.10298 -0.09884
 C193 C 0.50118 -0.09506 -0.17713
 O194 O 0.46401 0.05729 -0.19135
 O195 O 0.51978 0.10256 -0.09192
 C196 C 0.49239 0.09397 -0.16700
 Zr197 Zr 0.45164 0.00073 -0.12671
 O198 O 0.44154 -0.00304 -0.29692
 O199 O 0.39889 0.00608 -0.10334
 Zr200 Zr 0.54060 -0.00064 -0.14626
 O201 O 0.53778 -0.00486 -0.31836
 O202 O 0.59840 0.00294 -0.14795
 Zr203 Zr 0.53023 0.06135 -0.00031
 Zr204 Zr 0.46814 -0.06096 -0.00077
 O205 O 0.47787 -0.03498 -0.15726
 O206 O 0.51391 0.03607 -0.15831
 O207 O 0.42905 -0.03613 0.01029
 O208 O 0.56837 0.03558 -0.01147
 O209 O 0.46665 0.03690 0.01030
 O210 O 0.53172 -0.03765 -0.01174
 H211 H 0.47749 -0.05195 0.22172
 H212 H 0.59825 0.05428 -0.01499
 H213 H 0.46766 -0.05249 -0.22304
 H214 H 0.45582 0.05599 0.01365
 H215 H 0.59850 -0.02422 0.07456
 H216 H 0.59478 -0.02311 -0.11935
 H217 H 0.52913 0.01438 -0.34496
 H218 H 0.46864 0.01131 -0.33178
 H219 H 0.37722 -0.02008 -0.07363
 H220 H 0.38159 -0.02010 0.11809
 H221 H 0.48497 0.01778 0.34337
 H222 H 0.53562 0.00309 0.33079
 C223 C 1.18559 0.49830 0.36888
 C224 C 1.15634 0.45471 0.32636
 C225 C 1.12710 0.45157 0.25529
 C226 C 1.12918 0.49223 0.23096
 C227 C 1.12774 0.50930 0.34243
 C228 C 1.15820 0.51487 0.41082
 C229 C 1.20243 0.52370 0.26276
 C230 C 1.17308 0.52027 0.19089
 H231 H 1.15893 0.42836 0.34942
 H232 H 1.10506 0.42284 0.21817
 H233 H 1.10648 0.51964 0.36249
 H234 H 1.16598 0.53694 0.47417
 H235 H 1.23459 0.54440 0.24770
 H236 H 1.18053 0.53699 0.11479
 C237 C 0.49917 0.68664 0.36299
 C238 C 0.45800 0.64873 0.33579
 C239 C 0.46058 0.62050 0.27324
 C240 C 0.50402 0.63261 0.23847
 C241 C 0.51993 0.67413 0.18298
 C242 C 0.51800 0.70265 0.24809
 C243 C 0.52785 0.67191 0.40595
 C244 C 0.52905 0.64278 0.34455
 H245 H 0.42875 0.64537 0.35932
 H246 H 0.43363 0.59383 0.24239
 H247 H 0.53382 0.68126 0.10284
 H248 H 0.53182 0.73417 0.22263
 H249 H 0.55146 0.68826 0.46560
 H250 H 0.55131 0.63326 0.36164
 C251 C 0.31613 -0.18460 0.37205
 C252 C 0.36000 -0.16162 0.41784
 C253 C 0.38731 -0.13091 0.35372
 C254 C 0.36980 -0.12736 0.24411
 C255 C 0.35102 -0.17043 0.19471
 C256 C 0.32355 -0.20031 0.26165
 C257 C 0.30528 -0.15196 0.33713
 C258 C 0.33317 -0.12219 0.27218
 H259 H 0.37122 -0.17310 0.48127
 H260 H 0.41981 -0.11520 0.37153
 H261 H 0.36004 -0.17723 0.11704
 H262 H 0.31067 -0.23229 0.24068
 H263 H 0.27710 -0.15280 0.36010
 H264 H 0.32872 -0.09789 0.24031
 C265 C 0.81780 0.50205 0.36883
 C266 C 0.86134 0.52927 0.41205
 C267 C 0.89103 0.52946 0.35013
 C268 C 0.87544 0.50482 0.24380
 C269 C 0.84340 0.46179 0.27820
 C270 C 0.81325 0.46031 0.34112
 C271 C 0.82083 0.52121 0.25445
 C272 C 0.85067 0.52214 0.18898
 H273 H 0.86935 0.55251 0.47316
 H274 H 0.92296 0.55057 0.36759
 H275 H 0.84211 0.43445 0.24653
 H276 H 0.78688 0.43157 0.36412
 H277 H 0.80344 0.53560 0.22943
 H278 H 0.85743 0.53595 0.10875
 C279 C 0.50709 0.31981 0.37384
 C280 C 0.52709 0.36393 0.41677
 C281 C 0.52270 0.39026 0.35074
 C282 C 0.50157 0.37167 0.24206
 C283 C 0.52636 0.35298 0.19447
 C284 C 0.52958 0.32623 0.26344
 C285 C 0.46331 0.30795 0.33896
 C286 C 0.46039 0.33494 0.27199
 H287 H 0.54951 0.37592 0.48087
 H288 H 0.53843 0.42281 0.36726
 H289 H 0.54145 0.36119 0.11595
 H290 H 0.54850 0.31296 0.24343
 H291 H 0.43662 0.27964 0.36298
 H292 H 0.43137 0.32967 0.23955
 C293 C 0.68764 0.18465 0.35985
 C294 C 0.65056 0.18932 0.33061
 C295 C 0.62205 0.15898 0.26780
 C296 C 0.63321 0.12673 0.23464
 C297 C 0.67524 0.15103 0.18060
 C298 C 0.70398 0.18105 0.24621
 C299 C 0.67146 0.14143 0.40398
 C300 C 0.64219 0.11158 0.34185
 H301 H 0.64786 0.21561 0.35394
 H302 H 0.59559 0.15987 0.23690
 H303 H 0.68251 0.14353 0.10140
 H304 H 0.73580 0.19743 0.22235
 H305 H 0.68645 0.13381 0.46696
 H306 H 0.63126 0.07974 0.36034
 C307 C 0.50004 0.18699 -0.35947
 C308 C 0.54110 0.18998 -0.33104
 C309 C 0.53825 0.15919 -0.26855
 C310 C 0.49470 0.12824 -0.23483
 C311 C 0.47850 0.15390 -0.18002
 C312 C 0.48065 0.18427 -0.24529
 C313 C 0.47162 0.14384 -0.40332
 C314 C 0.47014 0.11352 -0.34161
 H315 H 0.57045 0.21554 -0.35411
 H316 H 0.56500 0.15901 -0.23772
 H317 H 0.46426 0.14722 -0.10034
 H318 H 0.46673 0.20211 -0.22054
 H319 H 0.44822 0.13676 -0.46357
 H320 H 0.44797 0.08192 -0.35904
 C321 C 0.68511 0.49775 -0.36825
 C322 C 0.67841 0.47582 -0.25662
 C323 C 0.65132 0.47917 -0.18949
 C324 C 0.63232 0.50324 -0.23993
 C325 C 0.66884 0.54440 -0.27061
 C326 C 0.69635 0.54154 -0.33573
 C327 C 0.64100 0.47691 -0.41218
 C328 C 0.61418 0.48136 -0.34814
 H329 H 0.69160 0.45701 -0.23457
 H330 H 0.64288 0.46437 -0.11061
 H331 H 0.67356 0.57342 -0.24019
 H332 H 0.72451 0.56833 -0.36025
 H333 H 0.62935 0.45358 -0.47393
 H334 H 0.58160 0.46493 -0.36492
 C335 C 0.81263 0.31181 -0.36168
 C336 C 0.81580 0.29640 -0.24590
 C337 C 0.84581 0.32557 -0.18105
 C338 C 0.87060 0.36695 -0.23775
 C339 C 0.88576 0.35656 -0.34300
 C340 C 0.85593 0.32683 -0.40373
 C341 C 0.80837 0.34940 -0.33630
 C342 C 0.83872 0.37822 -0.27396
 H343 H 0.79935 0.26484 -0.22004
 H344 H 0.85309 0.31893 -0.10073
 H345 H 0.91756 0.36669 -0.36046
 H346 H 0.86352 0.31081 -0.46375
 H347 H 0.78224 0.35220 -0.36134
 H348 H 0.83775 0.40473 -0.24421
 C349 C 0.49277 -0.18847 -0.37285
 C350 C 0.47165 -0.16538 -0.41667
 C351 C 0.47588 -0.13415 -0.35262
 C352 C 0.49797 -0.13012 -0.24457
 C353 C 0.47411 -0.17294 -0.19398
 C354 C 0.47097 -0.20342 -0.26105
 C355 C 0.53654 -0.15603 -0.34031
 C356 C 0.53925 -0.12563 -0.27542
 H357 H 0.44844 -0.17706 -0.47891
 H358 H 0.45920 -0.11819 -0.36934
 H359 H 0.45935 -0.17909 -0.11506
 H360 H 0.45235 -0.23524 -0.23881
 H361 H 0.56344 -0.15751 -0.36450
 H362 H 0.56828 -0.10142 -0.24496
 C363 C 0.31265 0.49715 -0.36304
 C364 C 0.34962 0.53899 -0.33573
 C365 C 0.37853 0.53766 -0.27290
 C366 C 0.36791 0.49468 -0.23800
 C367 C 0.32612 0.47739 -0.18280
 C368 C 0.29697 0.47807 -0.24820
 C369 C 0.32890 0.46976 -0.40573
 C370 C 0.35865 0.46982 -0.34411
 H371 H 0.35188 0.56770 -0.35969
 H372 H 0.40473 0.56510 -0.24228
 H373 H 0.31938 0.46358 -0.10256
 H374 H 0.26533 0.46334 -0.22292
 H375 H 0.31339 0.44618 -0.46597
 H376 H 0.36946 0.44861 -0.36137
 C377 C 1.18070 0.68730 -0.37185
 C378 C 1.19322 0.65751 -0.32346
 C379 C 1.16619 0.63012 -0.25183
 C380 C 1.12735 0.63278 -0.23700
 C381 C 1.14331 0.67698 -0.19920
 C382 C 1.17117 0.70551 -0.26932
 C383 C 1.13780 0.66127 -0.41947
 C384 C 1.11105 0.63175 -0.35276
 H385 H 1.22335 0.66106 -0.33449
 H386 H 1.17515 0.61340 -0.19733
 H387 H 1.13315 0.68515 -0.12556
 H388 H 1.18381 0.73794 -0.25544
 H389 H 1.12625 0.66940 -0.48934
 H390 H 1.07909 0.61380 -0.37555
 C391 C 0.81369 0.49661 -0.36548
 C392 C 0.84667 0.54035 -0.33479
 C393 C 0.87706 0.54297 -0.27006
 C394 C 0.87191 0.50162 -0.23796
 C395 C 0.82917 0.47856 -0.18614
 C396 C 0.79869 0.47551 -0.25298
 C397 C 0.83594 0.47454 -0.40819
 C398 C 0.86744 0.47903 -0.34509
 H399 H 0.84547 0.56729 -0.35983
 H400 H 0.90161 0.57193 -0.24046
 H401 H 0.82308 0.46429 -0.10655
 H402 H 0.76683 0.45745 -0.23009
 H403 H 0.82320 0.45022 -0.46711
 H404 H 0.88313 0.46205 -0.36125
 C405 C 0.50099 0.31441 -0.35936
 C406 C 0.47299 0.32994 -0.40218
 C407 C 0.47179 0.35866 -0.33888
 C408 C 0.49635 0.36771 -0.23198
 C409 C 0.47981 0.32586 -0.17871
 C410 C 0.48150 0.29770 -0.24536
 C411 C 0.54230 0.35190 -0.33083
 C412 C 0.53985 0.37982 -0.26662
 H413 H 0.45028 0.31490 -0.46485
 H414 H 0.45026 0.36908 -0.35632
 H415 H 0.46543 0.31822 -0.09921
 H416 H 0.46691 0.26591 -0.22195
 H417 H 0.57146 0.35558 -0.35656
 H418 H 0.56686 0.40680 -0.23709
 C419 C 0.67796 0.18698 -0.37422
 C420 C 0.69047 0.15556 -0.33901
 C421 C 0.66289 0.12474 -0.27620
 C422 C 0.62508 0.12796 -0.25027
 C423 C 0.64200 0.17074 -0.19937
 C424 C 0.66899 0.20152 -0.26464
 C425 C 0.63461 0.16269 -0.42262
 C426 C 0.60776 0.13099 -0.36058
 H427 H 0.71962 0.15814 -0.35978
 H428 H 0.66838 0.10113 -0.24414
 H429 H 0.63180 0.17669 -0.12239
 H430 H 0.67986 0.23317 -0.24359
 H431 H 0.62292 0.17396 -0.48536
 H432 H 0.57539 0.11419 -0.38005
 C433 C 1.18294 0.49198 -0.36667
 C434 C 1.18152 0.47493 -0.24988
 C435 C 1.15131 0.47325 -0.18497
 C436 C 1.12413 0.48694 -0.24295
 C437 C 1.15318 0.52956 -0.28491
 C438 C 1.18477 0.53274 -0.34372
 C439 C 1.13963 0.46179 -0.40811
 C440 C 1.10909 0.46002 -0.34584
 H441 H 1.19988 0.46181 -0.22301
 H442 H 1.14532 0.46027 -0.10375
 H443 H 1.14763 0.55459 -0.27459
 H444 H 1.20801 0.56170 -0.37666
 H445 H 1.13315 0.43983 -0.47251
 H446 H 1.07737 0.43793 -0.36239
 C447 C 0.49305 0.68085 -0.37185
 C448 C 0.53695 0.69244 -0.33906
 C449 C 0.54006 0.66497 -0.27476
 C450 C 0.49895 0.62822 -0.24502
 C451 C 0.47454 0.64687 -0.19405
 C452 C 0.47114 0.67408 -0.26061
 C453 C 0.47247 0.63691 -0.41636
 C454 C 0.47732 0.61021 -0.35329
 H455 H 0.56355 0.72103 -0.36181
 H456 H 0.56915 0.67001 -0.24354
 H457 H 0.45985 0.63835 -0.11505
 H458 H 0.45251 0.68743 -0.23827
 H459 H 0.44866 0.62506 -0.47680
 H460 H 0.46110 0.57771 -0.37052
 C461 C 0.31021 -0.18186 -0.36158
 C462 C 0.29269 -0.17899 -0.24895
 C463 C 0.32076 -0.14996 -0.18021
 C464 C 0.36339 -0.12570 -0.23037
 C465 C 0.37456 -0.15794 -0.26436
 C466 C 0.34663 -0.18740 -0.33045
 C467 C 0.32751 -0.13821 -0.40328
 C468 C 0.35611 -0.10925 -0.33790
 H469 H 0.26058 -0.19545 -0.22784
 H470 H 0.31271 -0.14319 -0.10111
 H471 H 0.40098 -0.15903 -0.23370
 H472 H 0.34951 -0.21338 -0.35605
 H473 H 0.31402 -0.12964 -0.46813
 H474 H 0.36793 -0.07718 -0.35519
 C475 C 0.49974 -0.18475 0.36048
 C476 C 0.45861 -0.18846 0.32867
 C477 C 0.46145 -0.15842 0.26291
 C478 C 0.50521 -0.12746 0.23002
 C479 C 0.52880 -0.11168 0.33811
 C480 C 0.52711 -0.14129 0.40328
 C481 C 0.52005 -0.18262 0.24832
 C482 C 0.52228 -0.15304 0.17994
 H483 H 0.42933 -0.21372 0.35329
 H484 H 0.43462 -0.15830 0.23171
 H485 H 0.55005 -0.07983 0.35554
 H486 H 0.54926 -0.13342 0.46749
 H487 H 0.53452 -0.20031 0.22729
 H488 H 0.53714 -0.14684 0.10113
 C489 C 0.31838 0.50333 0.37178
 C490 C 0.36238 0.52500 0.41646
 C491 C 0.38976 0.52141 0.35311
 C492 C 0.37222 0.49989 0.24448
 C493 C 0.33628 0.45816 0.27351
 C494 C 0.30820 0.45999 0.33820
 C495 C 0.32449 0.52538 0.26099
 C496 C 0.35237 0.52327 0.19413
 H497 H 0.37358 0.54860 0.47733
 H498 H 0.42228 0.53841 0.37055
 H499 H 0.33222 0.42955 0.24168
 H500 H 0.28009 0.43278 0.36081
 H501 H 0.31015 0.54316 0.23922
 H502 H 0.36057 0.53820 0.11542
 C503 C 1.18732 0.68556 0.35616
 C504 C 1.20336 0.68170 0.24232
 C505 C 1.17383 0.65361 0.17430
 C506 C 1.13121 0.63154 0.22636
 C507 C 1.13754 0.61398 0.33217
 C508 C 1.16796 0.64152 0.39673
 C509 C 1.15251 0.69400 0.32772
 C510 C 1.12325 0.66586 0.26170
 H511 H 1.23531 0.69711 0.21952
 H512 H 1.18061 0.64653 0.09395
 H513 H 1.12090 0.58206 0.35185
 H514 H 1.17883 0.63212 0.46656
 H515 H 1.15145 0.72067 0.35625
 H516 H 1.09754 0.66880 0.23355
 C517 C 0.50731 0.18786 0.37564
 C518 C 0.46360 0.15575 0.34202
 C519 C 0.46088 0.12533 0.27754
 C520 C 0.50220 0.12968 0.24830
 C521 C 0.52643 0.17258 0.19789
 C522 C 0.52943 0.20301 0.26475
 C523 C 0.52807 0.16456 0.42027
 C524 C 0.52371 0.13326 0.35678
 H525 H 0.43682 0.15777 0.36421
 H526 H 0.43194 0.10144 0.24568
 H527 H 0.54133 0.17877 0.11915
 H528 H 0.54792 0.23488 0.24287
 H529 H 0.55169 0.17644 0.48124
 H530 H 0.54029 0.11721 0.37384
 C531 C 0.68832 0.50363 0.36492
 C532 C 0.67231 0.53135 0.40638
 C533 C 0.64402 0.53267 0.34134
 C534 C 0.63568 0.50833 0.23448
 C535 C 0.67800 0.52492 0.18332
 C536 C 0.70578 0.52306 0.25165
 C537 C 0.65102 0.46240 0.33506
 C538 C 0.62343 0.46486 0.26934
 H539 H 0.68670 0.55372 0.47000
 H540 H 0.63336 0.55404 0.35797
 H541 H 0.68610 0.53911 0.10364
 H542 H 0.73772 0.53715 0.22956
 H543 H 0.64746 0.43330 0.36040
 H544 H 0.59676 0.43788 0.23839
 C545 C 0.81375 0.32077 0.37392
 C546 C 0.84472 0.30755 0.33902
 C547 C 0.87538 0.33433 0.27431
 C548 C 0.87257 0.37220 0.24653
 C549 C 0.82951 0.35544 0.19709
 C550 C 0.79887 0.32911 0.26398
 C551 C 0.83880 0.36446 0.41958
 C552 C 0.87045 0.39044 0.35603
 H553 H 0.84191 0.27848 0.36138
 H554 H 0.89861 0.32823 0.24227
 H555 H 0.82337 0.36499 0.11932
 H556 H 0.76705 0.31785 0.24335
 H557 H 0.82829 0.37705 0.48175
 H558 H 0.88797 0.42284 0.37407
   
