data_POSCAR
  _audit_creation_date              2014-09-24
  _audit_creation_method            'ToBaCCo'
  _symmetry_space_group_name_H-M    'P1'
  _symmetry_Int_Tables_number       1
  _symmetry_cell_setting            triclinic
  loop_
  _symmetry_equiv_pos_as_xyz
 x,y,z
_cell_length_a 49.0658
_cell_length_b 49.3789
_cell_length_c 49.2337
_cell_angle_alpha 89.955000
_cell_angle_beta 90.144600
_cell_angle_gamma 90.112300
loop_
  _atom_site_label
  _atom_site_type_symbol
  _atom_site_fract_x
  _atom_site_fract_y
  _atom_site_fract_z
C1 C 0.20726 0.51897 1.03421
 H2 H 0.20670 0.53445 1.01866
 C3 C 0.18883 0.51984 1.05573
 H4 H 0.17430 0.53630 1.05646
 C5 C 0.22668 0.47852 1.05133
 H6 H 0.24110 0.46216 1.04925
 C7 C 0.20861 0.47854 1.07321
 H8 H 0.20973 0.46218 1.08783
 N9 N 0.22577 0.49862 1.03247
 C10 C 0.29005 0.53080 0.98061
 H11 H 0.29064 0.51517 0.96523
 C12 C 0.30826 0.55250 0.97939
 H13 H 0.32277 0.55339 0.96288
 C14 C 0.27067 0.54806 1.02106
 H15 H 0.25631 0.54601 1.03753
 C16 C 0.28855 0.57012 1.02066
 H17 H 0.28751 0.58495 1.03680
 Zn18 Zn 0.24862 0.49825 1.00157
 N19 N 0.27160 0.52907 1.00109
 C20 C 0.22655 0.51793 0.95177
 N21 N 0.22556 0.49788 0.97071
 C22 C 0.20694 0.47754 0.96896
 C23 C 0.18855 0.47658 0.94732
 C24 C 0.20851 0.51778 0.92978
 C25 C 0.29007 0.46549 1.02230
 C26 C 0.30833 0.44386 1.02314
 C27 C 0.28825 0.42671 0.98172
 C28 C 0.27034 0.44866 0.98170
 N29 N 0.27146 0.46741 1.00189
 H30 H 0.24104 0.53429 0.95384
 H31 H 0.20631 0.46211 0.98456
 H32 H 0.17387 0.46021 0.94642
 H33 H 0.20958 0.53400 0.91501
 H34 H 0.29081 0.48094 1.03786
 H35 H 0.32301 0.44283 1.03956
 H36 H 0.28709 0.41211 0.96536
 H37 H 0.25587 0.45088 0.96529
 C38 C 0.30772 0.57254 0.99963
 C39 C 0.18916 0.49935 1.07565
 C40 C 0.30765 0.42413 1.00260
 C41 C 0.18911 0.49694 0.92737
 C42 C 0.79162 0.52255 -0.03223
 H43 H 0.79230 0.53805 -0.01672
 C44 C 0.80990 0.52346 -0.05388
 H45 H 0.82452 0.53987 -0.05488
 C46 C 0.77203 0.48204 -0.04917
 H47 H 0.75760 0.46564 -0.04699
 C48 C 0.78996 0.48213 -0.07117
 H49 H 0.78886 0.46584 -0.08584
 N50 N 0.77306 0.50216 -0.03034
 C51 C 0.70890 0.53455 0.02135
 H52 H 0.70833 0.51909 0.03692
 C53 C 0.69057 0.55610 0.02221
 H54 H 0.67601 0.55707 0.03867
 C55 C 0.72823 0.55144 -0.01935
 H56 H 0.74257 0.54927 -0.03580
 C57 C 0.71022 0.57333 -0.01931
 H58 H 0.71117 0.58792 -0.03570
 Zn59 Zn 0.75020 0.50183 0.00056
 N60 N 0.72734 0.53268 0.00088
 C61 C 0.77236 0.52147 0.05037
 N62 N 0.77322 0.50142 0.03147
 C63 C 0.79169 0.48101 0.03327
 C64 C 0.81007 0.48001 0.05493
 C65 C 0.79040 0.52128 0.07238
 C66 C 0.70864 0.46921 -0.02028
 C67 C 0.69030 0.44758 -0.02129
 C68 C 0.71016 0.43019 0.02014
 C69 C 0.72816 0.45215 0.02032
 N70 N 0.72719 0.47102 0.00019
 H71 H 0.75799 0.53788 0.04826
 H72 H 0.79222 0.46557 0.01770
 H73 H 0.82463 0.46359 0.05586
 H74 H 0.78945 0.53751 0.08711
 H75 H 0.70802 0.48474 -0.03578
 H76 H 0.67569 0.44665 -0.03777
 H77 H 0.71120 0.41549 0.03643
 H78 H 0.74259 0.45427 0.03678
 C79 C 0.69098 0.57583 0.00162
 C80 C 0.80929 0.50301 -0.07371
 C81 C 0.69084 0.42772 -0.00084
 C82 C 0.80966 0.50038 0.07484
 C83 C -0.02382 0.29062 0.46582
 H84 H -0.03927 0.29090 0.48147
 C85 C -0.02519 0.30897 0.44429
 H86 H -0.04198 0.32316 0.44365
 C87 C 0.01703 0.27202 0.44849
 H88 H 0.03375 0.25797 0.45048
 C89 C 0.01652 0.29003 0.42659
 H90 H 0.03289 0.28922 0.41190
 N91 N -0.00302 0.27257 0.46749
 C92 C -0.03376 0.20821 0.51986
 H93 H -0.01787 0.20791 0.53513
 C94 C -0.05524 0.18970 0.52125
 H95 H -0.05570 0.17526 0.53780
 C96 C -0.05186 0.22713 0.47944
 H97 H -0.05021 0.24141 0.46290
 C98 C -0.07370 0.20894 0.48001
 H99 H -0.08878 0.20967 0.46393
 Zn100 Zn -0.00188 0.24985 0.49844
 N101 N -0.03254 0.22655 0.49929
 C102 C -0.02146 0.27156 0.54828
 N103 N -0.00143 0.27274 0.52926
 C104 C 0.01881 0.29150 0.53083
 C105 C 0.01966 0.30989 0.55234
 C106 C -0.02142 0.28959 0.57014
 C107 C 0.03126 0.20920 0.47730
 C108 C 0.05328 0.19141 0.47601
 C109 C 0.07116 0.21145 0.51713
 C110 C 0.04878 0.22890 0.51760
 N111 N 0.02949 0.22759 0.49775
 H112 H -0.03777 0.25697 0.54635
 H113 H 0.03422 0.29229 0.51517
 H114 H 0.03595 0.32469 0.55308
 H115 H -0.03765 0.28838 0.58496
 H116 H 0.01539 0.20830 0.46203
 H117 H 0.05418 0.17692 0.45955
 H118 H 0.08621 0.21276 0.53320
 H119 H 0.04670 0.24320 0.53404
 C120 C -0.07556 0.18983 0.50110
 C121 C -0.00472 0.30905 0.42428
 C122 C 0.07360 0.19232 0.49616
 C123 C -0.00071 0.30916 0.57234
 C124 C 0.98197 0.70858 0.53231
 H125 H 0.96674 0.70822 0.51639
 C126 C 0.98070 0.68984 0.55350
 H127 H 0.96427 0.67518 0.55372
 C128 C 1.02222 0.72785 0.55073
 H129 H 1.03867 0.74235 0.54930
 C130 C 1.02176 0.70945 0.57230
 H131 H 1.03782 0.71024 0.58740
 N132 N 1.00241 0.72718 0.53137
 C133 C 0.97059 0.79187 0.48013
 H134 H 0.98651 0.79289 0.46500
 C135 C 0.94868 0.80981 0.47892
 H136 H 0.94793 0.82456 0.46265
 C137 C 0.95279 0.77164 0.51999
 H138 H 0.95472 0.75707 0.53625
 C139 C 0.93053 0.78924 0.51959
 H140 H 0.91541 0.78776 0.53550
 Zn141 Zn 1.00326 0.75056 0.50093
 N142 N 0.97215 0.77314 0.50032
 C143 C 0.98420 0.72937 0.45054
 N144 N 1.00420 0.72830 0.46968
 C145 C 1.02480 0.71002 0.46795
 C146 C 1.02601 0.69201 0.44616
 C147 C 0.98458 0.71169 0.42840
 C148 C 1.03564 0.79157 0.52306
 C149 C 1.05720 0.80999 0.52459
 C150 C 1.07529 0.79114 0.48312
 C151 C 1.05338 0.77304 0.48241
 N152 N 1.03418 0.77350 0.50228
 H153 H 0.96762 0.74357 0.45260
 H154 H 1.04018 0.70931 0.48371
 H155 H 1.04254 0.67755 0.44532
 H156 H 0.96835 0.71275 0.41351
 H157 H 1.01984 0.79178 0.53834
 H158 H 1.05783 0.82427 0.54125
 H159 H 1.09023 0.79055 0.46699
 H160 H 1.05154 0.75899 0.46571
 C161 C 0.92828 0.80870 0.49887
 C162 C 1.00084 0.69003 0.57383
 C163 C 1.07735 0.81004 0.50436
 C164 C 1.00563 0.69258 0.42606
 C165 C 0.46773 -0.02311 0.28911
 H166 H 0.48343 -0.03844 0.28991
 C167 C 0.44589 -0.02419 0.30719
 H168 H 0.44495 -0.04057 0.32179
 C169 C 0.45051 0.01720 0.26943
 H170 H 0.45267 0.03359 0.25506
 C171 C 0.42833 0.01694 0.28717
 H172 H 0.41349 0.03310 0.28599
 N173 N 0.46958 -0.00272 0.27063
 C174 C 0.52250 -0.03454 0.20725
 H175 H 0.53803 -0.01896 0.20691
 C176 C 0.52372 -0.05603 0.18889
 H177 H 0.54048 -0.05670 0.17464
 C178 C 0.48160 -0.05179 0.22601
 H179 H 0.46494 -0.04979 0.24015
 C180 C 0.48196 -0.07364 0.20801
 H181 H 0.46553 -0.08829 0.20890
 Zn182 Zn 0.50089 -0.00208 0.24826
 N183 N 0.50176 -0.03287 0.22540
 C184 C 0.55074 -0.02124 0.27102
 N185 N 0.53154 -0.00142 0.27166
 C186 C 0.53280 0.01892 0.29021
 C187 C 0.55418 0.02009 0.30893
 C188 C 0.57249 -0.02087 0.28940
 C189 C 0.48044 0.03050 0.20659
 C190 C 0.47971 0.05211 0.18830
 C191 C 0.52090 0.06964 0.20880
 C192 C 0.52082 0.04769 0.22672
 N193 N 0.50068 0.02876 0.22541
 H194 H 0.54906 -0.03759 0.25656
 H195 H 0.51700 0.03417 0.29055
 H196 H 0.55467 0.03645 0.32355
 H197 H 0.58746 -0.03693 0.28863
 H198 H 0.46494 0.01492 0.20570
 H199 H 0.46342 0.05299 0.17346
 H200 H 0.53720 0.08439 0.21013
 H201 H 0.53711 0.04563 0.24137
 C202 C 0.50317 -0.07600 0.18892
 C203 C 0.42585 -0.00390 0.30647
 C204 C 0.50018 0.07203 0.18919
 C205 C 0.57437 -0.00005 0.30876
 C206 C 0.53147 -0.02006 0.70939
 H207 H 0.51545 -0.03514 0.70875
 C208 C 0.55302 -0.02137 0.69099
 H209 H 0.55342 -0.03767 0.67631
 C210 C 0.54980 0.01982 0.72903
 H211 H 0.54821 0.03613 0.74353
 C212 C 0.57172 0.01931 0.71098
 H213 H 0.58692 0.03520 0.71205
 N214 N 0.53032 0.00021 0.72802
 C215 C 0.47793 -0.03140 0.79210
 H216 H 0.46265 -0.01565 0.79277
 C217 C 0.47671 -0.05299 0.81038
 H218 H 0.46026 -0.05370 0.82498
 C219 C 0.51829 -0.04897 0.77261
 H220 H 0.53477 -0.04706 0.75824
 C221 C 0.51788 -0.07091 0.79055
 H222 H 0.53401 -0.08580 0.78950
 Zn223 Zn 0.49943 0.00114 0.75096
 N224 N 0.49841 -0.02984 0.77362
 C225 C 0.44883 -0.01709 0.72887
 N226 N 0.46836 0.00248 0.72813
 C227 C 0.46715 0.02306 0.70982
 C228 C 0.44551 0.02473 0.69146
 C229 C 0.42681 -0.01623 0.71082
 C230 C 0.52131 0.03302 0.79249
 C231 C 0.52283 0.05443 0.81093
 C232 C 0.48162 0.07280 0.79134
 C233 C 0.48092 0.05102 0.77325
 N234 N 0.50069 0.03177 0.77404
 H235 H 0.45046 -0.03364 0.74313
 H236 H 0.48321 0.03810 0.70939
 H237 H 0.44509 0.04126 0.67700
 H238 H 0.41159 -0.03211 0.71163
 H239 H 0.53652 0.01718 0.79297
 H240 H 0.53940 0.05492 0.82547
 H241 H 0.46558 0.08781 0.79044
 H242 H 0.46431 0.04935 0.75891
 C243 C 0.49695 -0.07308 0.80986
 C244 C 0.57350 -0.00144 0.69155
 C245 C 0.50274 0.07467 0.81059
 C246 C 0.42500 0.00484 0.69169
 Si247 Si 0.25091 0.00346 0.49794
 Si248 Si 0.75013 -0.00311 0.50102
 Si249 Si 0.50025 0.25057 1.00094
 Si250 Si 0.49797 0.74950 -0.00075
 Si251 Si 1.00048 0.50102 0.25202
 Si252 Si -0.00082 0.49874 0.74912
 N253 N 0.13611 0.15505 0.51553
 C254 C 0.13808 0.13661 0.49526
 N255 N 0.11918 0.13662 0.47515
 N256 N 0.09889 0.15450 0.47532
 C257 C 0.09671 0.17300 0.49562
 N258 N 0.11581 0.17295 0.51568
 C259 C 0.15914 0.11648 0.49559
 C260 C 0.17616 0.09890 0.49565
 C261 C 0.19550 0.07714 0.49546
 N262 N 0.19488 0.05856 0.47521
 N263 N 0.21166 0.03740 0.47569
 C264 C 0.22959 0.03413 0.49643
 N265 N 0.23035 0.05280 0.51662
 N266 N 0.21354 0.07399 0.51615
 N267 N 0.63370 0.62012 0.02142
 C268 C 0.63309 0.63829 0.00079
 N269 N 0.65170 0.63629 -0.01941
 N270 N 0.67032 0.61667 -0.01898
 C271 C 0.67095 0.59829 0.00160
 N272 N 0.65229 0.60052 0.02183
 C273 C 0.61209 0.65845 -0.00025
 C274 C 0.59374 0.67464 -0.00093
 C275 C 0.57102 0.69290 -0.00147
 N276 N 0.57486 0.72012 -0.00139
 N277 N 0.55353 0.73684 -0.00141
 C278 C 0.52775 0.72681 -0.00151
 N279 N 0.52400 0.69960 -0.00161
 N280 N 0.54528 0.68292 -0.00160
 N281 N 0.88299 -0.13513 0.47823
 C282 C 0.86392 -0.13547 0.49808
 N283 N 0.86571 -0.15428 0.51807
 N284 N 0.88599 -0.17219 0.51819
 C285 C 0.90525 -0.17190 0.49837
 N286 N 0.90326 -0.15303 0.47836
 C287 C 0.84283 -0.11540 0.49846
 C288 C 0.82571 -0.09792 0.49861
 C289 C 0.80616 -0.07636 0.49860
 N290 N 0.78965 -0.07236 0.52028
 N291 N 0.77266 -0.05133 0.52083
 C292 C 0.77169 -0.03365 0.49974
 N293 N 0.78812 -0.03778 0.47803
 N294 N 0.80508 -0.05879 0.47746
 N295 N 0.36477 0.37943 1.02229
 C296 C 0.36485 0.36108 1.00184
 N297 N 0.34599 0.36313 0.98180
 N298 N 0.32762 0.38297 0.98219
 C299 C 0.32749 0.40152 1.00259
 N300 N 0.34642 0.39926 1.02267
 C301 C 0.38543 0.34051 1.00091
 C302 C 0.40330 0.32381 1.00022
 C303 C 0.42530 0.30473 0.99957
 N304 N 0.42957 0.28761 1.02070
 N305 N 0.45106 0.27114 1.02084
 C306 C 0.46895 0.27128 0.99988
 N307 N 0.46456 0.28831 0.97869
 N308 N 0.44308 0.30477 0.97853
 N309 N 0.88072 0.13253 0.52225
 C310 C 0.86189 0.13175 0.50209
 N311 N 0.86328 0.15021 0.48175
 N312 N 0.88294 0.16888 0.48159
 C313 C 0.90197 0.16971 0.50171
 N314 N 0.90036 0.15118 0.52208
 C315 C 0.84168 0.11071 0.50164
 C316 C 0.82544 0.09237 0.50135
 C317 C 0.80709 0.06971 0.50110
 N318 N 0.77969 0.07340 0.50126
 N319 N 0.76288 0.05213 0.50118
 C320 C 0.77298 0.02657 0.50093
 N321 N 0.80036 0.02296 0.50079
 N322 N 0.81714 0.04417 0.50087
 N323 N 0.36405 0.61765 -0.02152
 C324 C 0.36429 0.63638 -0.00142
 N325 N 0.34582 0.63441 0.01892
 N326 N 0.32768 0.61429 0.01914
 C327 C 0.32739 0.59537 -0.00092
 N328 N 0.34592 0.59754 -0.02128
 C329 C 0.38458 0.65734 -0.00124
 C330 C 0.40225 0.67434 -0.00132
 C331 C 0.42403 0.69376 -0.00170
 N332 N 0.42870 0.71008 0.01997
 N333 N 0.44993 0.72698 0.02011
 C334 C 0.46714 0.72805 -0.00140
 N335 N 0.46233 0.71181 -0.02310
 N336 N 0.44113 0.69494 -0.02325
 N337 N 0.13816 -0.15007 0.48480
 C338 C 0.13959 -0.13155 0.50506
 N339 N 0.12095 -0.13243 0.52530
 N340 N 0.10143 -0.15121 0.52526
 C341 C 0.09977 -0.16977 0.50495
 N342 N 0.11863 -0.16887 0.48477
 C343 C 0.15961 -0.11034 0.50435
 C344 C 0.17574 -0.09191 0.50361
 C345 C 0.19403 -0.06923 0.50257
 N346 N 0.18394 -0.04371 0.50178
 N347 N 0.20069 -0.02251 0.50052
 C348 C 0.22807 -0.02612 0.50000
 N349 N 0.23820 -0.05166 0.50085
 N350 N 0.22143 -0.07291 0.50210
 N351 N 0.63373 0.38308 0.97887
 C352 C 0.63338 0.36465 0.99928
 N353 N 0.65208 0.36662 1.01950
 N354 N 0.67054 0.38646 1.01931
 C355 C 0.67092 0.40509 0.99895
 N356 N 0.65217 0.40290 0.97870
 C357 C 0.61261 0.34417 1.00003
 C358 C 0.59450 0.32764 1.00054
 C359 C 0.57213 0.30889 1.00098
 N360 N 0.57649 0.28176 1.00084
 N361 N 0.55550 0.26456 1.00094
 C362 C 0.52954 0.27399 1.00117
 N363 N 0.52525 0.30110 1.00135
 N364 N 0.54620 0.31828 1.00125
 N365 N 0.52087 0.13353 1.15140
 C366 C 0.50097 0.13540 1.13235
 N367 N 0.48069 0.11674 1.13209
 N368 N 0.48033 0.09677 1.15029
 C369 C 0.50025 0.09469 1.16940
 N370 N 0.52050 0.11354 1.16961
 C371 C 0.50172 0.15634 1.11214
 C372 C 0.50217 0.17347 1.09468
 C373 C 0.50242 0.19324 1.07331
 N374 N 0.52371 0.19460 1.05587
 N375 N 0.52328 0.21190 1.03509
 C376 C 0.50155 0.22839 1.03110
 N377 N 0.48032 0.22709 1.04864
 N378 N 0.48074 0.20980 1.06943
 N379 N -0.01985 0.63204 0.61671
 C380 C 0.00013 0.63158 0.63574
 N381 N 0.02021 0.65045 0.63473
 N382 N 0.02031 0.66918 0.61523
 C383 C 0.00036 0.66970 0.59601
 N384 N -0.01975 0.65077 0.59722
 C385 C 0.00047 0.61079 0.65610
 C386 C 0.00069 0.59288 0.67275
 C387 C 0.00088 0.57105 0.69199
 N388 N 0.02133 0.55263 0.69179
 N389 N 0.02099 0.53170 0.70887
 C390 C 0.00019 0.52853 0.72668
 N391 N -0.02023 0.54701 0.72695
 N392 N -0.01990 0.56795 0.70986
 N393 N 0.47648 0.88272 -0.13302
 C394 C 0.49663 0.86399 -0.13279
 N395 N 0.51674 0.86563 -0.15155
 N396 N 0.51670 0.88545 -0.16995
 C397 C 0.49660 0.90437 -0.17023
 N398 N 0.47646 0.90252 -0.15140
 C399 C 0.49706 0.84330 -0.11231
 C400 C 0.49718 0.82644 -0.09458
 C401 C 0.49698 0.80707 -0.07283
 N402 N 0.51748 0.78888 -0.07000
 N403 N 0.51767 0.77164 -0.04914
 C404 C 0.49737 0.77210 -0.03048
 N405 N 0.47685 0.79024 -0.03340
 N406 N 0.47666 0.80745 -0.05423
 N407 N 0.97473 0.36548 0.38163
 C408 C 0.99501 0.36609 0.36302
 N409 N 1.01517 0.34743 0.36451
 N410 N 1.01508 0.32877 0.38409
 C411 C 0.99489 0.32812 0.40299
 N412 N 0.97465 0.34684 0.40119
 C413 C 0.99585 0.38718 0.34297
 C414 C 0.99659 0.40555 0.32686
 C415 C 0.99752 0.42822 0.30864
 N416 N 0.99763 0.42455 0.28132
 N417 N 0.99851 0.44582 0.26462
 C418 C 0.99931 0.47137 0.27475
 N419 N 0.99918 0.47496 0.30204
 N420 N 0.99830 0.45374 0.31872
 N421 N 0.48332 0.86388 0.15118
 C422 C 0.50352 0.86225 0.13253
 N423 N 0.52376 0.88095 0.13288
 N424 N 0.52377 0.90072 0.15126
 C425 C 0.50352 0.90264 0.16998
 N426 N 0.48335 0.88367 0.16957
 C427 C 0.50297 0.84167 0.11197
 C428 C 0.50252 0.82491 0.09418
 C429 C 0.50201 0.80564 0.07238
 N430 N 0.52244 0.80521 0.05390
 N431 N 0.52140 0.78830 0.03286
 C432 C 0.49993 0.77126 0.02962
 N433 N 0.47954 0.77162 0.04818
 N434 N 0.48056 0.78855 0.06924
 N435 N -0.02123 0.34746 0.63353
 C436 C -0.00137 0.36650 0.63520
 N437 N 0.01886 0.36658 0.61651
 N438 N 0.01919 0.34821 0.59672
 C439 C -0.00071 0.32910 0.59485
 N440 N -0.02089 0.32908 0.61373
 C441 C -0.00214 0.38692 0.65591
 C442 C -0.00262 0.40454 0.67282
 C443 C -0.00297 0.42611 0.69233
 N444 N 0.01776 0.42905 0.71037
 N445 N 0.01814 0.44994 0.72749
 C446 C -0.00218 0.46853 0.72712
 N447 N -0.02295 0.46550 0.70914
 N448 N -0.02335 0.44462 0.69202
 N449 N 0.52396 0.11837 0.86788
 C450 C 0.50403 0.13732 0.86814
 N451 N 0.48382 0.13598 0.84936
 N452 N 0.48355 0.11625 0.83091
 C453 C 0.50344 0.09711 0.83059
 N454 N 0.52369 0.09865 0.84943
 C455 C 0.50381 0.15788 0.88872
 C456 C 0.50362 0.17467 0.90648
 C457 C 0.50339 0.19402 0.92821
 N458 N 0.48172 0.21065 0.93177
 N459 N 0.48099 0.22766 0.95276
 C460 C 0.50190 0.22856 0.97083
 N461 N 0.52360 0.21200 0.96717
 N462 N 0.52433 0.19499 0.94620
 N463 N 0.98541 0.65414 0.36471
 C464 C 1.00563 0.63557 0.36292
 N465 N 1.02602 0.63592 0.38152
 N466 N 1.02617 0.65424 0.40136
 C467 C 1.00592 0.67286 0.40337
 N468 N 0.98558 0.67248 0.38456
 C469 C 1.00490 0.61498 0.34239
 C470 C 1.00443 0.59707 0.32578
 C471 C 1.00410 0.57501 0.30684
 N472 N 1.02447 0.55652 0.30707
 N473 N 1.02360 0.53519 0.29056
 C474 C 1.00231 0.53166 0.27329
 N475 N 0.98197 0.55023 0.27295
 N476 N 0.98284 0.57158 0.28949
 N477 N 1.15166 0.47906 0.13590
 C478 C 1.13274 0.49893 0.13762
 N479 N 1.13280 0.51907 0.11892
 N480 N 1.15117 0.51931 0.09906
 C481 C 1.17019 0.49939 0.09707
 N482 N 1.17005 0.47931 0.11602
 C483 C 1.11231 0.49830 0.15840
 C484 C 1.09465 0.49798 0.17538
 C485 C 1.07305 0.49789 0.19496
 N486 N 1.07032 0.51870 0.21270
 N487 N 1.04939 0.51933 0.22989
 C488 C 1.03056 0.49919 0.22986
 N489 N 1.03336 0.47833 0.21218
 N490 N 1.05429 0.47769 0.19500
 N491 N 0.63525 0.01769 0.65294
 C492 C 0.63650 -0.00223 0.63406
 N493 N 0.61735 -0.02203 0.63420
 N494 N 0.59752 -0.02191 0.65262
 C495 C 0.59607 -0.00196 0.67157
 N496 N 0.61541 0.01780 0.67138
 C497 C 0.65718 -0.00187 0.61350
 C498 C 0.67405 -0.00162 0.59574
 C499 C 0.69348 -0.00138 0.57400
 N500 N 0.71072 -0.02250 0.57040
 N501 N 0.72779 -0.02284 0.54938
 C502 C 0.72814 -0.00208 0.53132
 N503 N 0.71095 0.01906 0.53501
 N504 N 0.69389 0.01942 0.55601
 N505 N -0.13378 0.52303 0.88143
 C506 C -0.13365 0.50273 0.86294
 N507 N -0.15240 0.48263 0.86497
 N508 N -0.17070 0.48285 0.88492
 C509 C -0.17089 0.50312 0.90360
 N510 N -0.15207 0.52324 0.90137
 C511 C -0.11322 0.50206 0.84216
 C512 C -0.09550 0.50169 0.82525
 C513 C -0.07371 0.50151 0.80587
 N514 N -0.07060 0.48043 0.78850
 N515 N -0.04956 0.47978 0.77143
 C516 C -0.03100 0.50019 0.77123
 N517 N -0.03421 0.52129 0.78854
 N518 N -0.05522 0.52194 0.80558
 N519 N 0.38103 -0.02394 0.36336
 C520 C 0.36245 -0.00368 0.36352
 N521 N 0.36435 0.01633 0.34476
 N522 N 0.38429 0.01611 0.32642
 C523 C 0.40308 -0.00410 0.32622
 N524 N 0.40096 -0.02415 0.34503
 C525 C 0.34181 -0.00288 0.38410
 C526 C 0.32508 -0.00225 0.40198
 C527 C 0.30595 -0.00158 0.42396
 N528 N 0.28911 0.01992 0.42724
 N529 N 0.27246 0.02116 0.44856
 C530 C 0.27217 0.00096 0.46725
 N531 N 0.28892 -0.02058 0.46387
 N532 N 0.30555 -0.02183 0.44257
 N533 N 0.13189 0.47693 0.88262
 C534 C 0.13182 0.49711 0.86395
 N535 N 0.15071 0.51709 0.86583
 N536 N 0.16908 0.51691 0.88581
 C537 C 0.16920 0.49677 0.90467
 N538 N 0.15025 0.47676 0.90259
 C539 C 0.11134 0.49779 0.84313
 C540 C 0.09364 0.49835 0.82612
 C541 C 0.07198 0.49897 0.80652
 N542 N 0.05464 0.52030 0.80564
 N543 N 0.03368 0.52035 0.78838
 C544 C 0.02939 0.49909 0.77148
 N545 N 0.04681 0.47781 0.77228
 N546 N 0.06779 0.47774 0.78954
 N547 N 0.61785 0.02023 0.36678
 C548 C 0.63672 0.00023 0.36727
 N549 N 0.63541 -0.01970 0.34839
 N550 N 0.61579 -0.01964 0.32962
 C551 C 0.59673 0.00031 0.32909
 N552 N 0.59824 0.02027 0.34803
 C553 C 0.65711 -0.00038 0.38820
 C554 C 0.67375 -0.00101 0.40625
 C555 C 0.69293 -0.00193 0.42827
 N556 N 0.69214 -0.02260 0.44639
 N557 N 0.70922 -0.02305 0.46745
 C558 C 0.72761 -0.00283 0.47108
 N559 N 0.72847 0.01782 0.45291
 N560 N 0.71138 0.01827 0.43182
 N561 N 0.84833 0.52049 0.13626
 C562 C 0.86706 0.50043 0.13818
 N563 N 0.86678 0.48021 0.11959
 N564 N 0.84838 0.48007 0.09965
 C565 C 0.82959 0.50017 0.09753
 N566 N 0.82992 0.52034 0.11631
 C567 C 0.88764 0.50110 0.15892
 C568 C 0.90545 0.50162 0.17583
 C569 C 0.92730 0.50222 0.19525
 N570 N 0.92997 0.48220 0.21395
 N571 N 0.95109 0.48210 0.23105
 C572 C 0.97016 0.50200 0.22994
 N573 N 0.96740 0.52205 0.21131
 N574 N 0.94630 0.52216 0.19423
 N575 N 0.38128 0.02628 0.63431
 C576 C 0.36235 0.00629 0.63351
 N577 N 0.36363 -0.01400 0.65204
 N578 N 0.38330 -0.01428 0.67076
 C579 C 0.40245 0.00565 0.67159
 N580 N 0.40094 0.02599 0.65302
 C581 C 0.34218 0.00590 0.61235
 C582 C 0.32599 0.00558 0.59390
 C583 C 0.30769 0.00517 0.57111
 N584 N 0.28029 0.00566 0.57471
 N585 N 0.26353 0.00522 0.55333
 C586 C 0.27370 0.00428 0.52774
 N587 N 0.30108 0.00381 0.52422
 N588 N 0.31781 0.00425 0.54554
   
