data_POSCAR
  _audit_creation_date              2014-09-24
  _audit_creation_method            'ToBaCCo'
  _symmetry_space_group_name_H-M    'P1'
  _symmetry_Int_Tables_number       1
  _symmetry_cell_setting            triclinic
  loop_
  _symmetry_equiv_pos_as_xyz
 x,y,z
_cell_length_a 37.7648
_cell_length_b 37.7231
_cell_length_c 37.7474
_cell_angle_alpha 89.920900
_cell_angle_beta 90.013700
_cell_angle_gamma 89.893000
loop_
  _atom_site_label
  _atom_site_type_symbol
  _atom_site_fract_x
  _atom_site_fract_y
  _atom_site_fract_z
C1 C 0.26386 0.39600 0.01598
 C2 C 0.27525 0.38249 0.04845
 C3 C 0.30151 0.35615 0.04924
 C4 C 0.31799 0.34457 0.01739
 C5 C 0.30666 0.36027 -0.01495
 C6 C 0.27889 0.38479 -0.01576
 C7 C 0.34723 0.31716 0.01741
 C8 C 0.35766 0.30048 -0.01466
 C9 C 0.38730 0.27825 -0.01599
 C10 C 0.40554 0.27061 0.01519
 C11 C 0.39365 0.28320 0.04783
 C12 C 0.36535 0.30732 0.04896
 H13 H 0.24302 0.41584 0.01543
 H14 H 0.30871 0.34534 0.07471
 H15 H 0.31925 0.35418 -0.03981
 H16 H 0.34306 0.30427 -0.03889
 H17 H 0.42829 0.25302 0.01434
 H18 H 0.35818 0.31806 0.07442
 C19 C 0.73532 0.60439 -0.01669
 C20 C 0.72598 0.62107 0.01475
 C21 C 0.70122 0.64859 0.01411
 C22 C 0.68343 0.65809 -0.01773
 C23 C 0.69433 0.64112 -0.04958
 C24 C 0.72091 0.61507 -0.04901
 C25 C 0.65304 0.68425 -0.01711
 C26 C 0.63906 0.69936 -0.04873
 C27 C 0.60916 0.72161 -0.04766
 C28 C 0.59384 0.72979 -0.01496
 C29 C 0.60860 0.71769 0.01655
 C30 C 0.63703 0.69407 0.01550
 H31 H 0.75475 0.58319 -0.01607
 H32 H 0.69615 0.66180 0.03886
 H33 H 0.68227 0.64716 -0.07477
 H34 H 0.65104 0.69433 -0.07418
 H35 H 0.57104 0.74729 -0.01384
 H36 H 0.64572 0.68353 0.04054
 C37 C 0.73234 0.40164 0.99777
 C38 C 0.72448 0.38368 0.96654
 C39 C 0.70194 0.35426 0.96761
 C40 C 0.68574 0.34360 0.99987
 C41 C 0.69521 0.36192 1.03132
 C42 C 0.71928 0.39005 1.03028
 C43 C 0.65878 0.31421 1.00057
 C44 C 0.64979 0.29674 1.03272
 C45 C 0.62262 0.27147 1.03365
 C46 C 0.60572 0.26203 1.00219
 C47 C 0.61511 0.27730 0.96997
 C48 C 0.64078 0.30396 0.96918
 H49 H 0.75010 0.42419 0.99696
 H50 H 0.69742 0.34012 0.94320
 H51 H 0.68391 0.35517 1.05668
 H52 H 0.66341 0.30256 1.05715
 H53 H 0.58490 0.24224 1.00270
 H54 H 0.64579 0.31674 0.94409
 C55 C 0.26940 0.59671 1.00134
 C56 C 0.28230 0.60887 0.96896
 C57 C 0.30594 0.63739 0.96828
 C58 C 0.31503 0.65558 0.99994
 C59 C 0.29876 0.64444 1.03199
 C60 C 0.27670 0.61466 1.03271
 C61 C 0.34147 0.68548 0.99966
 C62 C 0.35879 0.69616 1.03134
 C63 C 0.38384 0.72352 1.03097
 C64 C 0.39324 0.73898 0.99874
 C65 C 0.37721 0.72884 0.96715
 C66 C 0.35067 0.70302 0.96764
 H67 H 0.25198 0.57389 1.00191
 H68 H 0.31712 0.64457 0.94300
 H69 H 0.30277 0.65856 1.05650
 H70 H 0.35368 0.68315 1.05628
 H71 H 0.41353 0.75931 0.99818
 H72 H 0.33783 0.69689 0.94287
 C73 C -0.00950 0.25734 0.37777
 C74 C 0.02232 0.27173 0.36622
 C75 C 0.02198 0.30266 0.34582
 C76 C -0.01012 0.32136 0.33937
 C77 C -0.04176 0.30749 0.35424
 C78 C -0.04139 0.27533 0.37288
 C79 C -0.01035 0.35550 0.31850
 C80 C -0.04219 0.36940 0.30389
 C81 C -0.04218 0.40153 0.28499
 C82 C -0.01019 0.41940 0.27979
 C83 C 0.02176 0.40474 0.29101
 C84 C 0.02158 0.37402 0.31164
 H85 H -0.00910 0.23305 0.39317
 H86 H 0.04708 0.31161 0.33571
 H87 H -0.06657 0.32164 0.35242
 H88 H -0.06685 0.35515 0.30614
 H89 H -0.00977 0.44361 0.26423
 H90 H 0.04675 0.36497 0.32155
 C91 C 0.00900 0.74210 0.62207
 C92 C 0.04069 0.72371 0.62668
 C93 C 0.04071 0.69146 0.64522
 C94 C 0.00893 0.67795 0.66029
 C95 C -0.02291 0.69708 0.65406
 C96 C -0.02292 0.72806 0.63378
 C97 C 0.00875 0.64390 0.68138
 C98 C -0.02341 0.62599 0.68911
 C99 C -0.02378 0.59544 0.71022
 C100 C 0.00832 0.58043 0.72087
 C101 C 0.04036 0.59769 0.71453
 C102 C 0.04056 0.62955 0.69541
 H103 H 0.00878 0.76646 0.60676
 H104 H 0.06537 0.67704 0.64687
 H105 H -0.04808 0.68844 0.66422
 H106 H -0.04852 0.63543 0.67940
 H107 H 0.00820 0.55639 0.73670
 H108 H 0.06550 0.64317 0.69259
 C109 C 0.99496 0.72363 0.41701
 C110 C 0.96241 0.71237 0.40366
 C111 C 0.96153 0.69129 0.37309
 C112 C 0.99314 0.68349 0.35418
 C113 C 1.02514 0.69873 0.36655
 C114 C 1.02623 0.71806 0.39812
 C115 C 0.99312 0.66092 0.32119
 C116 C 1.02529 0.64645 0.30790
 C117 C 1.02604 0.62762 0.27598
 C118 C 0.99447 0.62170 0.25786
 C119 C 0.96206 0.63211 0.27208
 C120 C 0.96130 0.65271 0.30290
 H121 H 0.99558 0.73933 0.44107
 H122 H 0.93608 0.68169 0.36451
 H123 H 1.04931 0.69656 0.35153
 H124 H 1.04982 0.64888 0.32232
 H125 H 0.99481 0.60635 0.23356
 H126 H 0.93580 0.66165 0.31213
 C127 C 1.00708 0.27601 0.58433
 C128 C 0.97601 0.28161 0.60337
 C129 C 0.97727 0.30066 0.63507
 C130 C 1.00941 0.31579 0.64738
 C131 C 1.04089 0.30795 0.62831
 C132 C 1.03974 0.28709 0.59761
 C133 C 1.00966 0.33858 0.68022
 C134 C 1.04152 0.34704 0.69847
 C135 C 1.04076 0.36822 0.72907
 C136 C 1.00816 0.37881 0.74295
 C137 C 0.97678 0.37240 0.72482
 C138 C 0.97755 0.35319 0.69327
 H139 H 1.00617 0.26045 0.56021
 H140 H 0.95306 0.30273 0.65006
 H141 H 1.06641 0.31741 0.63687
 H142 H 1.06694 0.33780 0.68930
 H143 H 1.00735 0.39456 0.76698
 H144 H 0.95296 0.35063 0.67898
 C145 C 0.41719 -0.00555 0.27689
 C146 C 0.40289 0.02651 0.28841
 C147 C 0.37217 0.02640 0.30906
 C148 C 0.35362 -0.00560 0.31591
 C149 C 0.36721 -0.03737 0.30105
 C150 C 0.39914 -0.03745 0.28204
 C151 C 0.31975 -0.00572 0.33708
 C152 C 0.30637 -0.03758 0.35212
 C153 C 0.27426 -0.03766 0.37074
 C154 C 0.25588 -0.00597 0.37547
 C155 C 0.26991 0.02608 0.36392
 C156 C 0.30080 0.02617 0.34355
 H157 H 0.44137 -0.00528 0.26137
 H158 H 0.36318 0.05156 0.31909
 H159 H 0.35286 -0.06198 0.30327
 H160 H 0.32085 -0.06222 0.35041
 H161 H 0.23161 -0.00587 0.39084
 H162 H 0.30958 0.05139 0.33348
 C163 C 0.58193 0.00646 0.72206
 C164 C 0.59992 0.03822 0.71645
 C165 C 0.63200 0.03797 0.69778
 C166 C 0.64579 0.00598 0.68349
 C167 C 0.62731 -0.02594 0.69085
 C168 C 0.59652 -0.02585 0.71147
 C169 C 0.67973 0.00575 0.66237
 C170 C 0.69830 -0.02635 0.65551
 C171 C 0.72925 -0.02644 0.63522
 C172 C 0.74366 0.00555 0.62403
 C173 C 0.72564 0.03739 0.62907
 C174 C 0.69354 0.03754 0.64765
 H175 H 0.55766 0.00665 0.73745
 H176 H 0.64615 0.06268 0.69547
 H177 H 0.63647 -0.05119 0.68125
 H178 H 0.68924 -0.05161 0.66520
 H179 H 0.76796 0.00536 0.60871
 H180 H 0.67940 0.06236 0.64952
 C181 C 0.37883 1.00967 0.73953
 C182 C 0.37250 0.97817 0.72160
 C183 C 0.35363 0.97888 0.68979
 C184 C 0.33924 1.01107 0.67637
 C185 C 0.34770 1.04297 0.69449
 C186 C 0.36845 1.04216 0.72529
 C187 C 0.31647 1.01089 0.64347
 C188 C 0.30809 1.04247 0.62460
 C189 C 0.28690 1.04133 0.59399
 C190 C 0.27631 1.00846 0.58063
 C191 C 0.28247 0.97736 0.59955
 C192 C 0.30167 0.97868 0.63110
 H193 H 0.39431 1.00909 0.76373
 H194 H 0.35114 0.95418 0.67568
 H195 H 0.33886 1.06852 0.68518
 H196 H 0.31733 1.06802 0.63333
 H197 H 0.26058 1.00729 0.55659
 H198 H 0.30402 0.95439 0.64599
 C199 C 0.61864 0.98992 0.26003
 C200 C 0.62888 0.95752 0.27459
 C201 C 0.65011 0.95697 0.30506
 C202 C 0.65933 0.98904 0.32256
 C203 C 0.64530 1.02121 0.30877
 C204 C 0.62580 1.02173 0.27727
 C205 C 0.68236 0.98939 0.35534
 C206 C 0.69722 1.02163 0.36781
 C207 C 0.71664 1.02281 0.39931
 C208 C 0.72282 0.99160 0.41805
 C209 C 0.71199 0.95892 0.40463
 C210 C 0.69081 0.95782 0.37413
 H211 H 0.60280 0.99020 0.23604
 H212 H 0.65871 0.93143 0.31460
 H213 H 0.64858 1.04603 0.32245
 H214 H 0.69480 1.04601 0.35311
 H215 H 0.73868 0.99246 0.44199
 H216 H 0.68173 0.93219 0.36551
 O217 O 0.82485 0.87188 0.54903
 O218 O 0.86682 0.81638 0.48223
 O219 O 0.81774 0.86454 0.48216
 O220 O 0.87392 0.82371 0.54909
 O221 O 0.83393 0.78217 0.55907
 O222 O 0.77614 0.82442 0.49134
 O223 O 0.82745 0.77406 0.49130
 O224 O 0.78416 0.83106 0.55907
 Cu225 Cu 0.84977 0.84816 0.51467
 Cu226 Cu 0.80118 0.79860 0.52577
 C227 C 0.79703 0.86164 0.56474
 C228 C 0.85555 0.78532 0.47653
 C229 C 0.78688 0.85274 0.47654
 C230 C 0.86421 0.79564 0.56475
 O231 O 0.18253 0.13471 0.51705
 O232 O 0.12586 0.17640 0.45098
 O233 O 0.17474 0.12799 0.45019
 O234 O 0.13402 0.18332 0.51778
 O235 O 0.17357 0.22544 0.50851
 O236 O 0.21565 0.16856 0.44001
 O237 O 0.16603 0.21771 0.44078
 O238 O 0.22432 0.17459 0.50776
 Cu239 Cu 0.15033 0.15161 0.48496
 Cu240 Cu 0.19915 0.20088 0.47364
 C241 C 0.21349 0.14628 0.52255
 C242 C 0.13557 0.20449 0.43535
 C243 C 0.20250 0.13812 0.43432
 C244 C 0.14559 0.21426 0.52353
 O245 O 0.17716 0.86967 0.46353
 O246 O 0.13158 0.82259 0.53430
 O247 O 0.17808 0.87314 0.53096
 O248 O 0.12748 0.82231 0.46686
 O249 O 0.16741 0.77936 0.46785
 O250 O 0.22154 0.83379 0.52933
 O251 O 0.17376 0.78196 0.53595
 O252 O 0.21833 0.82805 0.46123
 Cu253 Cu 0.14949 0.85094 0.49896
 Cu254 Cu 0.19957 0.80154 0.49857
 C255 C 0.20591 0.85766 0.45099
 C256 C 0.14410 0.79385 0.54651
 C257 C 0.20898 0.86337 0.53957
 C258 C 0.13762 0.79163 0.45789
 O259 O 0.87296 0.17690 0.53280
 O260 O 0.82153 0.12604 0.46915
 O261 O 0.86812 0.17644 0.46538
 O262 O 0.82303 0.12978 0.53659
 O263 O 0.78194 0.17148 0.53902
 O264 O 0.82615 0.21730 0.46408
 O265 O 0.77832 0.16564 0.47088
 O266 O 0.83306 0.21987 0.53220
 Cu267 Cu 0.85048 0.14825 0.50092
 Cu268 Cu 0.80059 0.19783 0.50161
 C269 C 0.86291 0.20756 0.54198
 C270 C 0.79069 0.13600 0.46055
 C271 C 0.85562 0.20522 0.45326
 C272 C 0.79437 0.14189 0.54924
 O273 O 0.45798 0.87716 0.81811
 O274 O 0.52646 0.82471 0.86137
 O275 O 0.52486 0.87413 0.81374
 O276 O 0.45842 0.82800 0.86616
 O277 O 0.45399 0.78610 0.82554
 O278 O 0.51941 0.83492 0.77059
 O279 O 0.52245 0.78344 0.82007
 O280 O 0.45175 0.83661 0.77637
 Cu281 Cu 0.49243 0.85482 0.84409
 Cu282 Cu 0.48658 0.80592 0.79393
 C283 C 0.44424 0.86679 0.78933
 C284 C 0.53545 0.79484 0.84897
 C285 C 0.53183 0.86382 0.78260
 C286 C 0.44567 0.79883 0.85556
 O287 O 0.54405 0.17327 0.13438
 O288 O 0.47646 0.12856 0.18659
 O289 O 0.47640 0.17896 0.13985
 O290 O 0.54327 0.12377 0.18211
 O291 O 0.55109 0.16377 0.22411
 O292 O 0.48176 0.21961 0.18159
 O293 O 0.48341 0.16697 0.23021
 O294 O 0.54976 0.21476 0.17526
 Cu295 Cu 0.50940 0.14737 0.15649
 Cu296 Cu 0.51698 0.19551 0.20711
 C297 C 0.55743 0.20214 0.14500
 C298 C 0.47005 0.13860 0.21793
 C299 C 0.46848 0.20904 0.15252
 C300 C 0.55755 0.13348 0.21086
 O301 O 0.52429 0.13367 0.82396
 O302 O 0.45885 0.17927 0.87823
 O303 O 0.45661 0.13410 0.82657
 O304 O 0.52629 0.18106 0.87363
 O305 O 0.52502 0.22436 0.83416
 O306 O 0.45230 0.17747 0.78743
 O307 O 0.45715 0.22398 0.84031
 O308 O 0.52089 0.17546 0.78297
 Cu309 Cu 0.49177 0.15275 0.85442
 Cu310 Cu 0.48859 0.20472 0.80707
 C311 C 0.53261 0.14570 0.79377
 C312 C 0.44821 0.20993 0.86962
 C313 C 0.44317 0.14706 0.79863
 C314 C 0.53671 0.21112 0.86284
 O315 O 0.54087 0.86468 0.17402
 O316 O 0.47058 0.81874 0.12695
 O317 O 0.47317 0.86650 0.17621
 O318 O 0.53788 0.81805 0.12356
 O319 O 0.53775 0.77386 0.16211
 O320 O 0.47497 0.82528 0.21786
 O321 O 0.47004 0.77606 0.16709
 O322 O 0.54358 0.82193 0.21397
 Cu323 Cu 0.50556 0.84622 0.14632
 Cu324 Cu 0.50672 0.79498 0.19453
 C325 C 0.55357 0.85196 0.20240
 C326 C 0.45925 0.78910 0.13795
 C327 C 0.46418 0.85515 0.20647
 C328 C 0.54724 0.78708 0.13261
 O329 O 0.87367 0.52706 0.81307
 O330 O 0.82567 0.46170 0.86539
 O331 O 0.87534 0.46009 0.81821
 O332 O 0.82288 0.52952 0.85942
 O333 O 0.78240 0.52576 0.81736
 O334 O 0.83545 0.45380 0.77582
 O335 O 0.78434 0.45753 0.82414
 O336 O 0.83525 0.52155 0.76922
 Cu337 Cu 0.85315 0.49516 0.84330
 Cu338 Cu 0.80514 0.48939 0.79229
 C339 C 0.86412 0.53370 0.78159
 C340 C 0.79644 0.44941 0.85452
 C341 C 0.86525 0.44605 0.78948
 C342 C 0.79327 0.53863 0.84650
 O343 O 0.12455 0.54136 0.18153
 O344 O 0.17410 0.46987 0.14002
 O345 O 0.12482 0.47449 0.18731
 O346 O 0.17396 0.53797 0.13383
 O347 O 0.21564 0.54151 0.17478
 O348 O 0.16423 0.47877 0.23043
 O349 O 0.21547 0.47306 0.18129
 O350 O 0.16488 0.54641 0.22365
 Cu351 Cu 0.14554 0.50556 0.15640
 Cu352 Cu 0.19439 0.51022 0.20676
 C353 C 0.13511 0.55490 0.21034
 C354 C 0.20356 0.45992 0.15266
 C355 C 0.13489 0.46739 0.21852
 C356 C 0.20353 0.54969 0.14443
 O357 O 0.82269 0.54231 0.12118
 O358 O 0.86570 0.47580 0.17654
 O359 O 0.81833 0.47470 0.12687
 O360 O 0.86809 0.54340 0.17259
 O361 O 0.82513 0.54995 0.21179
 O362 O 0.77489 0.47903 0.16586
 O363 O 0.82404 0.48134 0.21731
 O364 O 0.77848 0.54686 0.15931
 Cu365 Cu 0.84790 0.50851 0.14544
 Cu366 Cu 0.79624 0.51467 0.19270
 C367 C 0.79282 0.55487 0.12990
 C368 C 0.85336 0.46840 0.20683
 C369 C 0.78772 0.46608 0.13758
 C370 C 0.85575 0.55779 0.20030
 O371 O 0.18325 0.52620 0.87118
 O372 O 0.13460 0.45511 0.82780
 O373 O 0.18128 0.45925 0.87862
 O374 O 0.13560 0.52268 0.82220
 O375 O 0.17726 0.51776 0.78136
 O376 O 0.22436 0.45331 0.83943
 O377 O 0.17670 0.44919 0.78762
 O378 O 0.22688 0.52094 0.83248
 Cu379 Cu 0.15446 0.49120 0.85378
 Cu380 Cu 0.20560 0.48489 0.80599
 C381 C 0.21397 0.53442 0.86050
 C382 C 0.14646 0.44090 0.79978
 C383 C 0.21112 0.44676 0.86971
 C384 C 0.14771 0.53014 0.79186
 C385 C 0.26590 0.43126 0.12835
 C386 C 0.26126 0.39083 0.12128
 C387 C 0.25902 0.39845 0.08118
 C388 C 0.26406 0.43836 0.08804
 C389 C 0.21854 0.40264 0.08375
 C390 C 0.22029 0.39542 0.12401
 C391 C 0.22539 0.43534 0.13048
 C392 C 0.22366 0.44253 0.09031
 H393 H 0.28525 0.44316 0.14697
 H394 H 0.27694 0.36928 0.13379
 H395 H 0.28201 0.45618 0.07304
 H396 H 0.19892 0.39091 0.06528
 H397 H 0.20219 0.37788 0.13913
 H398 H 0.20828 0.46386 0.07703
 C399 C 0.77455 0.56300 0.06440
 C400 C 0.73446 0.56958 0.06120
 C401 C 0.74219 0.60758 0.04854
 C402 C 0.78229 0.60108 0.05180
 C403 C 0.74068 0.62121 0.08699
 C404 C 0.73326 0.58278 0.09997
 C405 C 0.77337 0.57633 0.10293
 C406 C 0.78120 0.61434 0.09054
 H407 H 0.78855 0.53891 0.05493
 H408 H 0.71523 0.55108 0.04889
 H409 H 0.80247 0.60859 0.03179
 H410 H 0.72662 0.64537 0.09616
 H411 H 0.71325 0.57512 0.12009
 H412 H 0.80054 0.63261 0.10299
 C413 C 0.73511 0.42032 0.88045
 C414 C 0.74296 0.38241 0.89488
 C415 C 0.74137 0.39696 0.93300
 C416 C 0.73317 0.43439 0.91892
 C417 C 0.78137 0.40473 0.93220
 C418 C 0.78335 0.39056 0.89388
 C419 C 0.77511 0.42803 0.88007
 C420 C 0.77314 0.44222 0.91826
 H421 H 0.71627 0.42686 0.85883
 H422 H 0.73036 0.35760 0.88546
 H423 H 0.71250 0.45249 0.92945
 H424 H 0.80050 0.39835 0.95363
 H425 H 0.80414 0.37266 0.88325
 H426 H 0.78553 0.46702 0.92807
 C427 C 0.23370 0.54772 0.92408
 C428 C 0.27404 0.55237 0.92728
 C429 C 0.26815 0.59176 0.93592
 C430 C 0.22776 0.58715 0.93254
 C431 C 0.27065 0.60152 0.89631
 C432 C 0.27619 0.56158 0.88729
 C433 C 0.23577 0.55714 0.88438
 C434 C 0.22990 0.59653 0.89282
 H435 H 0.21848 0.52542 0.93579
 H436 H 0.29217 0.53416 0.94168
 H437 H 0.20763 0.59757 0.95129
 H438 H 0.28613 0.62384 0.88507
 H439 H 0.29593 0.55096 0.86827
 H440 H 0.21164 0.61458 0.87841
 C441 C 0.10617 0.22800 0.37260
 C442 C 0.06669 0.21667 0.37447
 C443 C 0.05593 0.25556 0.38025
 C444 C 0.09493 0.26736 0.37806
 C445 C 0.05921 0.25097 0.42070
 C446 C 0.06983 0.21202 0.41496
 C447 C 0.10890 0.22345 0.41302
 C448 C 0.09831 0.26240 0.41876
 H449 H 0.12588 0.21836 0.35304
 H450 H 0.05344 0.19794 0.35613
 H451 H 0.10514 0.29029 0.36273
 H452 H 0.03983 0.26046 0.44070
 H453 H 0.05910 0.18927 0.43023
 H454 H 0.11151 0.28104 0.43725
 C455 C 0.12455 0.76426 0.61070
 C456 C 0.08568 0.77650 0.61601
 C457 C 0.07278 0.73858 0.60841
 C458 C 0.11128 0.72583 0.60350
 C459 C 0.07000 0.74700 0.56856
 C460 C 0.08260 0.78497 0.57620
 C461 C 0.12116 0.77272 0.57095
 C462 C 0.10859 0.73469 0.56334
 H463 H 0.14727 0.77158 0.62782
 H464 H 0.07605 0.79371 0.63782
 H465 H 0.12286 0.70128 0.61488
 H466 H 0.04751 0.73988 0.55101
 H467 H 0.07022 0.80930 0.56513
 H468 H 0.11822 0.71767 0.54137
 C469 C 0.88827 0.76745 0.41564
 C470 C 0.92777 0.76767 0.42585
 C471 C 0.92950 0.72716 0.42075
 C472 C 0.89003 0.72663 0.41020
 C473 C 0.91976 0.72124 0.45988
 C474 C 0.91822 0.76170 0.46499
 C475 C 0.87871 0.76161 0.45478
 C476 C 0.87988 0.72109 0.44988
 H477 H 0.87512 0.78658 0.39752
 H478 H 0.94757 0.78709 0.41608
 H479 H 0.87855 0.71194 0.38750
 H480 H 0.93292 0.70223 0.47812
 H481 H 0.93009 0.77617 0.48769
 H482 H 0.85978 0.70212 0.45986
 C483 C 0.90514 0.22127 0.59791
 C484 C 0.94248 0.22459 0.58158
 C485 C 0.94258 0.26446 0.59021
 C486 C 0.90541 0.26147 0.60686
 C487 C 0.92622 0.27309 0.55387
 C488 C 0.92616 0.23320 0.54516
 C489 C 0.88895 0.22989 0.56155
 C490 C 0.88864 0.26975 0.57008
 H491 H 0.89616 0.19983 0.61594
 H492 H 0.96481 0.20597 0.58624
 H493 H 0.89690 0.27324 0.63241
 H494 H 0.93516 0.29444 0.53571
 H495 H 0.93469 0.22154 0.51953
 H496 H 0.86615 0.28812 0.56527
 C497 C 0.41122 0.10192 0.23471
 C498 C 0.42372 0.06302 0.23370
 C499 C 0.41871 0.06022 0.27412
 C500 C 0.40588 0.09905 0.27544
 C501 C 0.45717 0.07201 0.28030
 C502 C 0.46222 0.07468 0.23990
 C503 C 0.44966 0.11359 0.24083
 C504 C 0.44485 0.11129 0.28127
 H505 H 0.39239 0.11444 0.21586
 H506 H 0.41516 0.04302 0.21392
 H507 H 0.38256 0.10901 0.29031
 H508 H 0.47611 0.05946 0.29902
 H509 H 0.48558 0.06447 0.22520
 H510 H 0.45360 0.13157 0.30065
 C511 C 0.56204 0.12384 0.73035
 C512 C 0.59981 0.10896 0.73796
 C513 C 0.58538 0.07096 0.73399
 C514 C 0.54810 0.08545 0.72600
 C515 C 0.57693 0.06952 0.77388
 C516 C 0.59101 0.10764 0.77818
 C517 C 0.55370 0.12191 0.77021
 C518 C 0.53961 0.08388 0.76587
 H519 H 0.55579 0.14653 0.71266
 H520 H 0.62476 0.11918 0.72628
 H521 H 0.53042 0.07607 0.70448
 H522 H 0.58300 0.04703 0.79191
 H523 H 0.60855 0.11704 0.79980
 H524 H 0.51462 0.07346 0.77735
 C525 C 0.43065 0.90566 0.73169
 C526 C 0.39049 0.90646 0.72278
 C527 C 0.38864 0.94491 0.73646
 C528 C 0.42850 0.94426 0.74497
 C529 C 0.37985 0.93166 0.77400
 C530 C 0.38206 0.89279 0.76079
 C531 C 0.42187 0.89266 0.76932
 C532 C 0.41974 0.93119 0.78259
 H533 H 0.45184 0.89471 0.71448
 H534 H 0.37837 0.89645 0.69796
 H535 H 0.44775 0.96550 0.73840
 H536 H 0.35881 0.94265 0.79136
 H537 H 0.36316 0.87132 0.76752
 H538 H 0.43169 0.94181 0.80726
 C539 C 0.57728 0.91513 0.21476
 C540 C 0.57270 0.92347 0.25432
 C541 C 0.61331 0.92472 0.25818
 C542 C 0.61787 0.91607 0.21863
 C543 C 0.61401 0.88492 0.26758
 C544 C 0.57306 0.88361 0.26329
 C545 C 0.57762 0.87524 0.22366
 C546 C 0.61819 0.87589 0.22748
 H547 H 0.56218 0.92826 0.19316
 H548 H 0.55372 0.94310 0.26532
 H549 H 0.63638 0.92961 0.20024
 H550 H 0.62934 0.87268 0.28952
 H551 H 0.55441 0.87009 0.28155
 H552 H 0.63673 0.85597 0.21629
 C553 C 0.39134 0.22187 0.91178
 C554 C 0.40703 0.22255 0.94960
 C555 C 0.39942 0.26258 0.95185
 C556 C 0.38333 0.26228 0.91428
 C557 C 0.43621 0.27113 0.93663
 C558 C 0.44392 0.23109 0.93440
 C559 C 0.42816 0.23045 0.89677
 C560 C 0.42058 0.27047 0.89868
 H561 H 0.37301 0.20150 0.90118
 H562 H 0.40152 0.20276 0.97069
 H563 H 0.35825 0.27514 0.90586
 H564 H 0.45477 0.29138 0.94708
 H565 H 0.46908 0.21824 0.94272
 H566 H 0.42625 0.28998 0.87740
 C567 C 0.56548 0.73188 0.87152
 C568 C 0.60481 0.73860 0.88217
 C569 C 0.59396 0.73757 0.92156
 C570 C 0.55520 0.73042 0.91122
 C571 C 0.58723 0.77786 0.92117
 C572 C 0.59763 0.77929 0.88165
 C573 C 0.55882 0.77217 0.87162
 C574 C 0.54843 0.77065 0.91106
 H575 H 0.55642 0.71317 0.85076
 H576 H 0.62819 0.72525 0.87036
 H577 H 0.53762 0.71034 0.92358
 H578 H 0.59608 0.79698 0.94168
 H579 H 0.61496 0.79951 0.86920
 H580 H 0.52511 0.78379 0.92327
 C581 C 0.43825 0.72852 0.10515
 C582 C 0.39714 0.72723 0.10184
 C583 C 0.40050 0.73664 0.06220
 C584 C 0.44111 0.73749 0.06527
 C585 C 0.39825 0.77644 0.07094
 C586 C 0.39534 0.76750 0.11085
 C587 C 0.43594 0.76839 0.11356
 C588 C 0.43889 0.77730 0.07379
 H589 H 0.45487 0.70896 0.11957
 H590 H 0.37986 0.70639 0.11329
 H591 H 0.46008 0.72519 0.04644
 H592 H 0.38181 0.79628 0.05666
 H593 H 0.37669 0.77997 0.12986
 H594 H 0.45603 0.79790 0.06165
 C595 C 0.61774 0.21636 0.10750
 C596 C 0.60530 0.21521 0.06848
 C597 C 0.61028 0.25561 0.06565
 C598 C 0.62315 0.25722 0.10439
 C599 C 0.57182 0.26191 0.07762
 C600 C 0.56678 0.22156 0.08029
 C601 C 0.57924 0.22272 0.11915
 C602 C 0.58421 0.26313 0.11666
 H603 H 0.63648 0.19751 0.12015
 H604 H 0.61393 0.19539 0.04853
 H605 H 0.64653 0.27202 0.11423
 H606 H 0.55278 0.28063 0.06518
 H607 H 0.54344 0.20694 0.07002
 H608 H 0.57540 0.28268 0.13678
 C609 C 0.23216 0.11366 0.58330
 C610 C 0.23181 0.07411 0.57316
 C611 C 0.27234 0.07240 0.57785
 C612 C 0.27301 0.11191 0.58838
 C613 C 0.27787 0.08216 0.53866
 C614 C 0.23738 0.08368 0.53394
 C615 C 0.23756 0.12324 0.54409
 C616 C 0.27809 0.12209 0.54861
 H617 H 0.21325 0.12682 0.60158
 H618 H 0.21247 0.05431 0.58311
 H619 H 0.28787 0.12354 0.61089
 H620 H 0.29664 0.06901 0.52023
 H621 H 0.22271 0.07180 0.51139
 H622 H 0.29692 0.14222 0.53843
 C623 C 0.77641 0.09419 0.40445
 C624 C 0.77362 0.05665 0.42055
 C625 C 0.73367 0.05631 0.41247
 C626 C 0.73611 0.09369 0.39606
 C627 C 0.72549 0.07230 0.44905
 C628 C 0.76547 0.07259 0.45719
 C629 C 0.76824 0.11001 0.44104
 C630 C 0.72829 0.11009 0.43307
 H631 H 0.79747 0.10350 0.38618
 H632 H 0.79232 0.03448 0.41546
 H633 H 0.72390 0.10235 0.37074
 H634 H 0.70452 0.06303 0.46744
 H635 H 0.77758 0.06390 0.48259
 H636 H 0.70985 0.13242 0.43830
 C637 C 0.73898 0.89829 0.58173
 C638 C 0.73392 0.90100 0.62246
 C639 C 0.74549 0.94014 0.62086
 C640 C 0.75017 0.93751 0.58038
 C641 C 0.78439 0.92949 0.62662
 C642 C 0.77330 0.88987 0.62788
 C643 C 0.77794 0.88783 0.58744
 C644 C 0.78913 0.92703 0.58610
 H645 H 0.72048 0.88527 0.56297
 H646 H 0.71105 0.89041 0.63757
 H647 H 0.74061 0.95717 0.56062
 H648 H 0.80299 0.94256 0.64522
 H649 H 0.78302 0.86989 0.64719
 H650 H 0.81181 0.93816 0.57108
 C651 C 0.21366 0.91957 0.42143
 C652 C 0.25147 0.93264 0.42892
 C653 C 0.25967 0.93011 0.38904
 C654 C 0.22192 0.91676 0.38157
 C655 C 0.27292 0.89171 0.39381
 C656 C 0.26429 0.89415 0.43400
 C657 C 0.22643 0.88111 0.42652
 C658 C 0.23467 0.87799 0.38673
 H659 H 0.18926 0.93157 0.43266
 H660 H 0.25841 0.95519 0.44647
 H661 H 0.20449 0.92629 0.35986
 H662 H 0.29752 0.88046 0.38229
 H663 H 0.28154 0.88464 0.45587
 H664 H 0.22754 0.85521 0.36959
 C665 C 0.11390 0.42172 0.73965
 C666 C 0.11151 0.38077 0.73569
 C667 C 0.07181 0.38264 0.74506
 C668 C 0.07412 0.42329 0.74858
 C669 C 0.08030 0.37807 0.78467
 C670 C 0.12043 0.37661 0.77583
 C671 C 0.12214 0.41722 0.77934
 C672 C 0.08237 0.41873 0.78822
 H673 H 0.12790 0.43992 0.72128
 H674 H 0.12344 0.36501 0.71392
 H675 H 0.05508 0.44280 0.73739
 H676 H 0.06630 0.36004 0.80322
 H677 H 0.13982 0.35762 0.78724
 H678 H 0.06983 0.43438 0.80974
 C679 C 0.10976 0.61789 0.23815
 C680 C 0.07100 0.62029 0.22465
 C681 C 0.05750 0.61189 0.26218
 C682 C 0.09582 0.60993 0.27619
 C683 C 0.05791 0.57189 0.25415
 C684 C 0.07123 0.58025 0.21653
 C685 C 0.10965 0.57795 0.23006
 C686 C 0.09639 0.56961 0.26771
 H687 H 0.13138 0.63659 0.23138
 H688 H 0.06032 0.64124 0.20692
 H689 H 0.10593 0.62216 0.30092
 H690 H 0.03658 0.55276 0.26074
 H691 H 0.06059 0.56816 0.19193
 H692 H 0.10707 0.54850 0.28525
 C693 C 0.87451 0.43951 0.27096
 C694 C 0.88888 0.40133 0.26414
 C695 C 0.92704 0.41538 0.26783
 C696 C 0.91306 0.45302 0.27509
 C697 C 0.92856 0.42305 0.22777
 C698 C 0.89028 0.40940 0.22373
 C699 C 0.87653 0.44709 0.23092
 C700 C 0.91472 0.46074 0.23505
 H701 H 0.85193 0.44639 0.28847
 H702 H 0.87821 0.37675 0.27625
 H703 H 0.92262 0.47107 0.29623
 H704 H 0.95090 0.41638 0.20983
 H705 H 0.88064 0.39156 0.20246
 H706 H 0.92549 0.48540 0.22309
 C707 C 0.89226 0.55708 0.71812
 C708 C 0.90586 0.59570 0.72338
 C709 C 0.94419 0.58148 0.72473
 C710 C 0.93105 0.54335 0.71908
 C711 C 0.94152 0.57706 0.76524
 C712 C 0.90308 0.59093 0.76419
 C713 C 0.89003 0.55282 0.75863
 C714 C 0.92842 0.53887 0.75959
 H715 H 0.87157 0.54882 0.69896
 H716 H 0.89636 0.61917 0.70836
 H717 H 0.94275 0.52371 0.70057
 H718 H 0.96189 0.58513 0.78485
 H719 H 0.89135 0.61041 0.78284
 H720 H 0.93781 0.51530 0.77459
 C721 C 0.77168 0.60247 0.87314
 C722 C 0.73070 0.60328 0.87801
 C723 C 0.73567 0.59786 0.91822
 C724 C 0.77619 0.59745 0.91348
 C725 C 0.73421 0.55738 0.91354
 C726 C 0.72965 0.56224 0.87307
 C727 C 0.77022 0.56199 0.86879
 C728 C 0.77465 0.55699 0.90912
 H729 H 0.78719 0.62090 0.85629
 H730 H 0.71230 0.62252 0.86544
 H731 H 0.79553 0.61186 0.93026
 H732 H 0.71885 0.53874 0.93032
 H733 H 0.71065 0.54765 0.85608
 H734 H 0.79268 0.53796 0.92256
 C735 C 0.22144 0.43259 0.93638
 C736 C 0.22557 0.39241 0.94255
 C737 C 0.26474 0.39849 0.95198
 C738 C 0.26068 0.43859 0.94572
 C739 C 0.27552 0.39285 0.91298
 C740 C 0.23590 0.38714 0.90319
 C741 C 0.23182 0.42724 0.89726
 C742 C 0.27104 0.43335 0.90644
 H743 H 0.19913 0.44896 0.94639
 H744 H 0.20680 0.37557 0.95767
 H745 H 0.27088 0.45985 0.96327
 H746 H 0.29797 0.37653 0.90326
 H747 H 0.22553 0.36618 0.88541
 H748 H 0.28955 0.45037 0.89121
 C749 C 0.26512 0.57822 0.11873
 C750 C 0.26740 0.56392 0.08035
 C751 C 0.25945 0.60130 0.06601
 C752 C 0.25750 0.61605 0.10403
 C753 C 0.21941 0.59363 0.06644
 C754 C 0.22740 0.55619 0.08067
 C755 C 0.22511 0.57060 0.11874
 C756 C 0.21710 0.60802 0.10466
 H757 H 0.28373 0.57174 0.14057
 H758 H 0.28814 0.54573 0.07011
 H759 H 0.27007 0.64087 0.11347
 H760 H 0.20054 0.59995 0.04476
 H761 H 0.21497 0.53141 0.07090
 H762 H 0.19624 0.62602 0.11498
 C763 C 0.72556 0.43993 0.11024
 C764 C 0.72885 0.44748 0.07001
 C765 C 0.73349 0.40760 0.06304
 C766 C 0.72986 0.39950 0.10292
 C767 C 0.77395 0.41092 0.06707
 C768 C 0.76926 0.45084 0.07385
 C769 C 0.76605 0.44311 0.11382
 C770 C 0.77070 0.40322 0.10709
 H771 H 0.70584 0.45199 0.12841
 H772 H 0.71165 0.46571 0.05455
 H773 H 0.71338 0.37820 0.11469
 H774 H 0.79401 0.39903 0.04913
 H775 H 0.78560 0.47196 0.06154
 H776 H 0.78803 0.38516 0.12258
 C777 C 0.92993 0.78790 0.58492
 C778 C 0.93327 0.78356 0.62544
 C779 C 0.94363 0.74453 0.61991
 C780 C 0.94016 0.74881 0.57945
 C781 C 0.90455 0.73310 0.62244
 C782 C 0.89369 0.77260 0.62764
 C783 C 0.89079 0.77682 0.58721
 C784 C 0.90099 0.73774 0.58173
 H785 H 0.94075 0.81043 0.56939
 H786 H 0.94682 0.80231 0.64355
 H787 H 0.95934 0.73898 0.55942
 H788 H 0.89423 0.71040 0.63802
 H789 H 0.87418 0.78259 0.64723
 H790 H 0.88751 0.71907 0.56348
 C791 C 0.91711 0.21425 0.42380
 C792 C 0.91416 0.22218 0.38388
 C793 C 0.92664 0.26030 0.39109
 C794 C 0.92930 0.25242 0.43104
 C795 C 0.88801 0.27276 0.39563
 C796 C 0.87515 0.23412 0.38883
 C797 C 0.87842 0.22622 0.42868
 C798 C 0.89058 0.26444 0.43591
 H799 H 0.92966 0.19018 0.43525
 H800 H 0.92409 0.20482 0.36233
 H801 H 0.95164 0.25998 0.44861
 H802 H 0.87626 0.29706 0.38387
 H803 H 0.85258 0.22636 0.37170
 H804 H 0.88066 0.28163 0.45760
 C805 C 0.12187 0.27844 0.55077
 C806 C 0.08191 0.27850 0.54108
 C807 C 0.07247 0.27236 0.58024
 C808 C 0.11201 0.27269 0.59049
 C809 C 0.07401 0.23188 0.57490
 C810 C 0.08325 0.23807 0.53572
 C811 C 0.12284 0.23796 0.54563
 C812 C 0.11359 0.23190 0.58480
 H813 H 0.14196 0.29739 0.54074
 H814 H 0.06867 0.29766 0.52307
 H815 H 0.12371 0.28721 0.61320
 H816 H 0.05421 0.21248 0.58471
 H817 H 0.07115 0.22379 0.51303
 H818 H 0.12682 0.21261 0.60268
 C819 C 0.07442 0.76630 0.45500
 C820 C 0.05814 0.77452 0.41847
 C821 C 0.05785 0.73453 0.41046
 C822 C 0.07415 0.72628 0.44691
 C823 C 0.09503 0.73704 0.39372
 C824 C 0.09550 0.77737 0.40209
 C825 C 0.11163 0.76917 0.43855
 C826 C 0.11174 0.72919 0.43062
 H827 H 0.06596 0.77837 0.48047
 H828 H 0.03594 0.79323 0.41356
 H829 H 0.06512 0.70525 0.46540
 H830 H 0.10374 0.72496 0.36838
 H831 H 0.10462 0.79851 0.38377
 H832 H 0.13416 0.71081 0.43570
 C833 C 0.55662 0.89083 0.71911
 C834 C 0.54365 0.92993 0.71957
 C835 C 0.58188 0.94236 0.72576
 C836 C 0.59538 0.90373 0.72489
 C837 C 0.57686 0.94000 0.76621
 C838 C 0.53856 0.92764 0.76001
 C839 C 0.55176 0.88895 0.75956
 C840 C 0.58999 0.90128 0.76564
 H841 H 0.54824 0.87016 0.69998
 H842 H 0.52454 0.94193 0.70066
 H843 H 0.61886 0.89374 0.71029
 H844 H 0.58503 0.96032 0.78582
 H845 H 0.51498 0.93760 0.77455
 H846 H 0.60893 0.88926 0.78469
 C847 C 0.45820 0.91761 0.23335
 C848 C 0.42106 0.93249 0.22524
 C849 C 0.41271 0.93155 0.26516
 C850 C 0.44977 0.91661 0.27328
 C851 C 0.39766 0.89373 0.26166
 C852 C 0.40639 0.89451 0.22140
 C853 C 0.44349 0.87976 0.22947
 C854 C 0.43522 0.87839 0.26937
 H855 H 0.48333 0.92747 0.22168
 H856 H 0.41531 0.95487 0.20696
 H857 H 0.46769 0.92592 0.29464
 H858 H 0.37262 0.88380 0.27339
 H859 H 0.38867 0.88512 0.19992
 H860 H 0.44115 0.85579 0.28727
 C861 C 0.57064 0.09427 0.26838
 C862 C 0.57104 0.05554 0.25526
 C863 C 0.61101 0.05346 0.26297
 C864 C 0.61092 0.09201 0.27652
 C865 C 0.61962 0.06618 0.22520
 C866 C 0.57958 0.06814 0.21739
 C867 C 0.57919 0.10678 0.23052
 C868 C 0.61912 0.10516 0.23827
 H869 H 0.55023 0.10611 0.28594
 H870 H 0.55110 0.03511 0.26229
 H871 H 0.62379 0.10192 0.30100
 H872 H 0.63988 0.05436 0.20745
 H873 H 0.56674 0.05793 0.19300
 H874 H 0.63867 0.12589 0.23108
 C875 C 0.37867 0.12320 0.77342
 C876 C 0.38298 0.11465 0.73324
 C877 C 0.38373 0.07477 0.74219
 C878 C 0.37905 0.08292 0.78183
 C879 C 0.42433 0.07603 0.74617
 C880 C 0.42390 0.11597 0.73765
 C881 C 0.41923 0.12382 0.77736
 C882 C 0.41963 0.08387 0.78582
 H883 H 0.36011 0.14295 0.78483
 H884 H 0.36768 0.12710 0.71140
 H885 H 0.36050 0.06911 0.79999
 H886 H 0.44337 0.05657 0.73497
 H887 H 0.44260 0.12973 0.71962
 H888 H 0.43472 0.07057 0.80732
 C889 C 0.60441 0.77130 0.09248
 C890 C 0.60916 0.73052 0.08888
 C891 C 0.59468 0.73262 0.05073
 C892 C 0.59027 0.77308 0.05416
 C893 C 0.55671 0.72674 0.06412
 C894 C 0.57073 0.72495 0.10272
 C895 C 0.56645 0.76542 0.10573
 C896 C 0.55222 0.76718 0.06749
 H897 H 0.62392 0.78974 0.10441
 H898 H 0.63274 0.71521 0.09760
 H899 H 0.59822 0.79299 0.03400
 H900 H 0.53707 0.70841 0.05221
 H901 H 0.56263 0.70537 0.12312
 H902 H 0.52861 0.78236 0.05858
 C903 C 0.45379 0.23130 0.09004
 C904 C 0.41395 0.22726 0.08282
 C905 C 0.41084 0.26795 0.08046
 C906 C 0.45067 0.27191 0.08794
 C907 C 0.40256 0.26985 0.12043
 C908 C 0.40605 0.22879 0.12285
 C909 C 0.44590 0.23272 0.13008
 C910 C 0.44296 0.27342 0.12825
 H911 H 0.47491 0.21542 0.07708
 H912 H 0.40211 0.20803 0.06400
 H913 H 0.46908 0.28961 0.07339
 H914 H 0.38130 0.28603 0.13273
 H915 H 0.38780 0.21094 0.13741
 H916 H 0.45499 0.29224 0.14734
 C917 C 0.55708 0.22408 0.92681
 C918 C 0.59772 0.22361 0.92958
 C919 C 0.59693 0.26366 0.93733
 C920 C 0.55631 0.26413 0.93435
 C921 C 0.60050 0.27192 0.89748
 C922 C 0.60090 0.23142 0.88950
 C923 C 0.56030 0.23190 0.88685
 C924 C 0.55938 0.27202 0.89425
 H925 H 0.53924 0.20436 0.93936
 H926 H 0.61350 0.20361 0.94437
 H927 H 0.53791 0.27756 0.95296
 H928 H 0.61853 0.29189 0.88564
 H929 H 0.61907 0.21784 0.87079
 H930 H 0.54343 0.29179 0.87936
 C931 C 0.43454 0.77983 0.92026
 C932 C 0.39557 0.78583 0.93068
 C933 C 0.39085 0.74541 0.93361
 C934 C 0.42978 0.73945 0.92302
 C935 C 0.37941 0.74343 0.89446
 C936 C 0.38451 0.78430 0.89127
 C937 C 0.42345 0.77825 0.88103
 C938 C 0.41879 0.73783 0.88360
 H939 H 0.45735 0.79478 0.93121
 H940 H 0.38601 0.80562 0.95022
 H941 H 0.44850 0.72099 0.93628
 H942 H 0.35650 0.72829 0.88406
 H943 H 0.36604 0.80289 0.87785
 H944 H 0.42850 0.71824 0.86393
 C945 C 0.72223 0.87615 0.45028
 C946 C 0.72180 0.91599 0.46055
 C947 C 0.72735 0.92614 0.42147
 C948 C 0.72739 0.88672 0.41065
 C949 C 0.76786 0.92502 0.42639
 C950 C 0.76225 0.91506 0.46548
 C951 C 0.76274 0.87559 0.45499
 C952 C 0.76821 0.88557 0.41591
 H953 H 0.70367 0.85563 0.46019
 H954 H 0.70271 0.92871 0.47894
 H955 H 0.71276 0.87519 0.38793
 H956 H 0.78687 0.94525 0.41668
 H957 H 0.77664 0.92698 0.48820
 H958 H 0.78742 0.87286 0.39762
 C959 C 0.22302 0.90582 0.59516
 C960 C 0.26330 0.90658 0.60353
 C961 C 0.26557 0.94375 0.58665
 C962 C 0.22563 0.94317 0.57860
 C963 C 0.27385 0.92738 0.55028
 C964 C 0.27122 0.88978 0.56672
 C965 C 0.23128 0.88960 0.55878
 C966 C 0.23388 0.92683 0.54215
 H967 H 0.20199 0.89662 0.61352
 H968 H 0.27554 0.89824 0.62895
 H969 H 0.20687 0.96534 0.58341
 H970 H 0.29478 0.93656 0.53180
 H971 H 0.28973 0.86746 0.56176
 H972 H 0.22173 0.93514 0.51665
 C973 C 0.22549 0.10956 0.37104
 C974 C 0.26497 0.09861 0.37611
 C975 C 0.25355 0.05945 0.37813
 C976 C 0.21455 0.06990 0.37273
 C977 C 0.24932 0.06235 0.41863
 C978 C 0.26037 0.10159 0.41687
 C979 C 0.22132 0.11187 0.41151
 C980 C 0.21027 0.07265 0.41327
 H981 H 0.21549 0.12938 0.35171
 H982 H 0.28763 0.10915 0.36066
 H983 H 0.19580 0.05661 0.35443
 H984 H 0.25917 0.04286 0.43842
 H985 H 0.27904 0.11480 0.43532
 H986 H 0.18779 0.06158 0.42865
 C987 C 0.76615 0.12134 0.61363
 C988 C 0.72765 0.10819 0.60683
 C989 C 0.74047 0.06959 0.61103
 C990 C 0.77846 0.08235 0.61823
 C991 C 0.74818 0.06736 0.57104
 C992 C 0.73578 0.10606 0.56653
 C993 C 0.77389 0.11852 0.57373
 C994 C 0.78623 0.07986 0.57826
 H995 H 0.77378 0.14385 0.63091
 H996 H 0.70332 0.11962 0.61875
 H997 H 0.79599 0.07235 0.63965
 H998 H 0.74072 0.04509 0.55335
 H999 H 0.71843 0.11604 0.54495
 H1000 H 0.81035 0.06766 0.56662
 C1001 C 0.88039 0.62211 0.22509
 C1002 C 0.88975 0.61748 0.26505
 C1003 C 0.92939 0.61686 0.25532
 C1004 C 0.92045 0.62185 0.21588
 C1005 C 0.92811 0.57624 0.25110
 C1006 C 0.88841 0.57657 0.26042
 C1007 C 0.87974 0.58155 0.22091
 C1008 C 0.91943 0.58124 0.21163
 H1009 H 0.86038 0.64075 0.21417
 H1010 H 0.87774 0.63261 0.28722
 H1011 H 0.93384 0.64061 0.19762
 H1012 H 0.94781 0.55712 0.26182
 H1013 H 0.87506 0.55767 0.27858
 H1014 H 0.93220 0.56631 0.18974
 C1015 C 0.92942 0.42097 0.78427
 C1016 C 0.92973 0.38089 0.77645
 C1017 C 0.94354 0.38898 0.73898
 C1018 C 0.94307 0.42901 0.74672
 C1019 C 0.90537 0.39085 0.72463
 C1020 C 0.89111 0.38314 0.76257
 C1021 C 0.89114 0.42313 0.77033
 C1022 C 0.90474 0.43120 0.73276
 H1023 H 0.93975 0.43329 0.80888
 H1024 H 0.94032 0.36005 0.79436
 H1025 H 0.96453 0.44801 0.74013
 H1026 H 0.89564 0.37836 0.69988
 H1027 H 0.86942 0.36450 0.76929
 H1028 H 0.89420 0.45219 0.71499
 C1029 C 0.12555 0.55872 0.72790
 C1030 C 0.08695 0.54519 0.72429
 C1031 C 0.07305 0.58280 0.73184
 C1032 C 0.11125 0.59683 0.73504
 C1033 C 0.07211 0.57500 0.77187
 C1034 C 0.08588 0.53735 0.76432
 C1035 C 0.12411 0.55106 0.76793
 C1036 C 0.11040 0.58870 0.77542
 H1037 H 0.14789 0.55192 0.71005
 H1038 H 0.07704 0.52726 0.70323
 H1039 H 0.12159 0.62149 0.72281
 H1040 H 0.04997 0.58162 0.79007
 H1041 H 0.07533 0.51264 0.77637
 H1042 H 0.12031 0.60650 0.79659
 C1043 C 0.10759 0.44369 0.28220
 C1044 C 0.06888 0.45766 0.28196
 C1045 C 0.05545 0.41969 0.27604
 C1046 C 0.09369 0.40524 0.27663
 C1047 C 0.05758 0.42463 0.23556
 C1048 C 0.07094 0.46265 0.24148
 C1049 C 0.10922 0.44843 0.24173
 C1050 C 0.09589 0.41049 0.23587
 H1051 H 0.12863 0.45159 0.30113
 H1052 H 0.05752 0.47707 0.30091
 H1053 H 0.10304 0.38150 0.29131
 H1054 H 0.03684 0.41690 0.21620
 H1055 H 0.06150 0.48646 0.22690
 H1056 H 0.10723 0.39120 0.21680
   
