data_POSCAR
  _audit_creation_date              2014-09-24
  _audit_creation_method            'ToBaCCo'
  _symmetry_space_group_name_H-M    'P1'
  _symmetry_Int_Tables_number       1
  _symmetry_cell_setting            triclinic
  loop_
  _symmetry_equiv_pos_as_xyz
 x,y,z
_cell_length_a 28.1295
_cell_length_b 23.6711
_cell_length_c 28.5943
_cell_angle_alpha 88.936200
_cell_angle_beta 90.571300
_cell_angle_gamma 90.461500
loop_
  _atom_site_label
  _atom_site_type_symbol
  _atom_site_fract_x
  _atom_site_fract_y
  _atom_site_fract_z
N1 N 0.32518 0.18528 0.17301
 N2 N 0.30567 0.21868 0.14099
 C3 C 0.33513 0.22382 0.10413
 C4 C 0.37507 0.19216 0.11407
 C5 C 0.36802 0.16851 0.15793
 H6 H 0.32904 0.25033 0.07350
 H7 H 0.39258 0.14228 0.17772
 Cu8 Cu 0.24560 0.25646 0.15204
 Cu9 Cu 0.29436 0.16812 0.23275
 Cu10 Cu 0.18832 0.23629 0.25397
 N11 N 0.18688 0.29586 0.16564
 N12 N 0.16352 0.28607 0.20466
 C13 C 0.12521 0.31988 0.20565
 C14 C 0.12520 0.35273 0.16528
 C15 C 0.16487 0.33724 0.14091
 H16 H 0.10136 0.32334 0.23487
 H17 H 0.17769 0.35630 0.10872
 N18 N 0.21855 0.18437 0.29986
 N19 N 0.25789 0.15637 0.29115
 C20 C 0.26827 0.12250 0.32837
 C21 C 0.23419 0.13089 0.36196
 C22 C 0.20343 0.17025 0.34317
 H23 H 0.29848 0.09465 0.33116
 H24 H 0.17198 0.18644 0.35953
 H25 H 0.22574 0.18380 0.21070
 H26 H 0.25946 0.24435 0.23608
 N27 N 0.67091 -0.22008 0.18716
 N28 N 0.68028 -0.26793 0.16655
 C29 C 0.65307 -0.27219 0.12779
 C30 C 0.62506 -0.22468 0.12414
 C31 C 0.63769 -0.19199 0.16188
 H32 H 0.65773 -0.30359 0.10124
 H33 H 0.62756 -0.14869 0.16760
 Cu34 Cu 0.73476 -0.31318 0.18550
 Cu35 Cu 0.70938 -0.19315 0.23961
 Cu36 Cu 0.78382 -0.29319 0.29071
 N37 N 0.79744 -0.34292 0.20108
 N38 N 0.81605 -0.33658 0.24310
 C39 C 0.86085 -0.35625 0.24361
 C40 C 0.87040 -0.37588 0.19965
 C41 C 0.82993 -0.36625 0.17313
 H42 H 0.88588 -0.35150 0.27228
 H43 H 0.82571 -0.37141 0.13580
 N44 N 0.76334 -0.22553 0.32338
 N45 N 0.73775 -0.18536 0.30283
 C46 C 0.73364 -0.14200 0.33243
 C47 C 0.75760 -0.15645 0.37324
 C48 C 0.77572 -0.20949 0.36678
 H49 H 0.71430 -0.10348 0.32512
 H50 H 0.79751 -0.23375 0.39106
 H51 H 0.77012 -0.24150 0.23541
 H52 H 0.71588 -0.27419 0.26169
 N53 N 0.68753 0.19198 0.81525
 N54 N 0.70322 0.23342 0.84156
 C55 C 0.67290 0.24033 0.87731
 C56 C 0.63644 0.20122 0.87240
 C57 C 0.64649 0.17148 0.83281
 H58 H 0.67620 0.27241 0.90362
 H59 H 0.62541 0.13796 0.81760
 Cu60 Cu 0.76075 0.27574 0.82448
 Cu61 Cu 0.72190 0.16775 0.76009
 Cu62 Cu 0.78762 0.27662 0.71021
 N63 N 0.81304 0.32208 0.79994
 N64 N 0.82209 0.32366 0.75483
 C65 C 0.86116 0.35561 0.74716
 C66 C 0.87731 0.37498 0.78963
 C67 C 0.84669 0.35231 0.82267
 H68 H 0.87902 0.35967 0.71391
 H69 H 0.85065 0.35400 0.86029
 N70 N 0.76711 0.20927 0.67527
 N71 N 0.74478 0.16596 0.69528
 C72 C 0.74018 0.12404 0.66424
 C73 C 0.76043 0.14248 0.62281
 C74 C 0.77695 0.19649 0.63064
 H75 H 0.72333 0.08357 0.67122
 H76 H 0.79621 0.22353 0.60639
 H77 H 0.78544 0.21532 0.76099
 H78 H 0.72770 0.25093 0.74810
 N79 N 0.30806 -0.16608 0.84079
 N80 N 0.29233 -0.20430 0.87104
 C81 C 0.32445 -0.21060 0.90610
 C82 C 0.36200 -0.17426 0.89675
 C83 C 0.35081 -0.14685 0.85523
 H84 H 0.32165 -0.24078 0.93483
 H85 H 0.37258 -0.11649 0.83628
 Cu86 Cu 0.23241 -0.24389 0.85985
 Cu87 Cu 0.27222 -0.14552 0.78422
 Cu88 Cu 0.19619 -0.25223 0.74784
 N89 N 0.17679 -0.28852 0.84256
 N90 N 0.16287 -0.29211 0.79856
 C91 C 0.12293 -0.32388 0.79635
 C92 C 0.11199 -0.34100 0.84133
 C93 C 0.14611 -0.31755 0.87004
 H94 H 0.10239 -0.33144 0.76486
 H95 H 0.14738 -0.31935 0.90786
 N96 N 0.21991 -0.19157 0.70527
 N97 N 0.24649 -0.14904 0.72007
 C98 C 0.25408 -0.11237 0.68426
 C99 C 0.23144 -0.13340 0.64514
 C100 C 0.21023 -0.18353 0.65929
 H101 H 0.27497 -0.07393 0.68639
 H102 H 0.18847 -0.21119 0.63815
 H103 H 0.20625 -0.18732 0.79201
 H104 H 0.26045 -0.22927 0.77992
 N105 N 0.67916 -0.18111 0.82162
 N106 N 0.69801 -0.21214 0.85553
 C107 C 0.66844 -0.21324 0.89220
 C108 C 0.62929 -0.18137 0.87986
 C109 C 0.63668 -0.16178 0.83508
 H110 H 0.67399 -0.23721 0.92433
 H111 H 0.61286 -0.13630 0.81376
 Cu112 Cu 0.75706 -0.25240 0.84765
 Cu113 Cu 0.71078 -0.16820 0.76284
 Cu114 Cu 0.81149 -0.24700 0.74388
 N115 N 0.80383 -0.30814 0.83085
 N116 N 0.82511 -0.30629 0.79007
 C117 C 0.86120 -0.34332 0.79086
 C118 C 0.86182 -0.37009 0.83412
 C119 C 0.82544 -0.34655 0.85884
 H120 H 0.88824 -0.34564 0.76433
 H121 H 0.81890 -0.35208 0.89586
 N122 N 0.78555 -0.19282 0.69729
 N123 N 0.74818 -0.16126 0.70584
 C124 C 0.74062 -0.12551 0.66960
 C125 C 0.77447 -0.13587 0.63670
 C126 C 0.80231 -0.17884 0.65455
 H127 H 0.71246 -0.09476 0.66706
 H128 H 0.83276 -0.19751 0.63821
 H129 H 0.74195 -0.24755 0.76406
 H130 H 0.77907 -0.18669 0.78435
 N131 N 0.31357 0.18397 0.82439
 N132 N 0.29776 0.22173 0.85350
 C133 C 0.33012 0.22930 0.88791
 C134 C 0.36794 0.19439 0.87919
 C135 C 0.35673 0.16635 0.83881
 H136 H 0.32704 0.25905 0.91596
 H137 H 0.37834 0.13605 0.82101
 Cu138 Cu 0.23758 0.25933 0.84222
 Cu139 Cu 0.27667 0.16032 0.77038
 Cu140 Cu 0.19017 0.25513 0.73347
 N141 N 0.18846 0.31129 0.82172
 N142 N 0.16916 0.30868 0.77965
 C143 C 0.13437 0.34726 0.77567
 C144 C 0.13285 0.37570 0.81726
 C145 C 0.16748 0.35247 0.84573
 H146 H 0.11202 0.35398 0.74511
 H147 H 0.17589 0.36358 0.88139
 N148 N 0.21611 0.19681 0.69277
 N149 N 0.24703 0.15881 0.70807
 C150 C 0.25585 0.12240 0.67376
 C151 C 0.22952 0.13897 0.63510
 C152 C 0.20478 0.18610 0.64781
 H153 H 0.27997 0.08712 0.67649
 H154 H 0.17970 0.20973 0.62645
 H155 H 0.25784 0.24337 0.76130
 H156 H 0.20930 0.19478 0.78123
 N157 N 0.32888 -0.18491 0.18746
 N158 N 0.30650 -0.20724 0.15154
 C159 C 0.33675 -0.21160 0.11571
 C160 C 0.38023 -0.19112 0.13054
 C161 C 0.37448 -0.17456 0.17598
 H162 H 0.32795 -0.22882 0.08190
 H163 H 0.40113 -0.15615 0.19870
 Cu164 Cu 0.24062 -0.23019 0.15539
 Cu165 Cu 0.29682 -0.17031 0.24591
 Cu166 Cu 0.18315 -0.22599 0.25785
 N167 N 0.18193 -0.27144 0.16537
 N168 N 0.15817 -0.26710 0.20453
 C169 C 0.12019 -0.30188 0.20321
 C170 C 0.12098 -0.32971 0.16127
 C171 C 0.16070 -0.31025 0.13820
 H172 H 0.09664 -0.31042 0.23221
 H173 H 0.17458 -0.32536 0.10562
 N174 N 0.21552 -0.18319 0.30740
 N175 N 0.25827 -0.16044 0.30211
 C176 C 0.26944 -0.13057 0.34029
 C177 C 0.23229 -0.13612 0.37107
 C178 C 0.19870 -0.16957 0.34967
 H179 H 0.30165 -0.10605 0.34512
 H180 H 0.16398 -0.18088 0.36293
 H181 H 0.25261 -0.24000 0.23918
 H182 H 0.22698 -0.16984 0.22211
 N183 N 0.69311 0.17307 0.16457
 N184 N 0.71371 0.20461 0.13211
 C185 C 0.68325 0.21237 0.09594
 C186 C 0.64167 0.18413 0.10704
 C187 C 0.64870 0.15987 0.15053
 H188 H 0.69002 0.23850 0.06525
 H189 H 0.62301 0.13621 0.17102
 Cu190 Cu 0.77649 0.23652 0.14232
 Cu191 Cu 0.72358 0.15507 0.22417
 Cu192 Cu 0.82947 0.22473 0.24809
 N193 N 0.83096 0.28275 0.15905
 N194 N 0.85310 0.27567 0.19948
 C195 C 0.88885 0.31349 0.20263
 C196 C 0.88827 0.34610 0.16224
 C197 C 0.85107 0.32632 0.13540
 H198 H 0.91114 0.31956 0.23318
 H199 H 0.83858 0.34339 0.10219
 N200 N 0.79934 0.17146 0.29245
 N201 N 0.75987 0.14325 0.28250
 C202 C 0.74832 0.10983 0.31929
 C203 C 0.78181 0.11858 0.35387
 C204 C 0.81356 0.15770 0.33631
 H205 H 0.71741 0.08249 0.32131
 H206 H 0.84456 0.17458 0.35400
 H207 H 0.75982 0.23140 0.22537
 H208 H 0.79374 0.16875 0.20551
 C209 C 0.24595 -0.03084 0.46289
 C210 C 0.24607 0.02840 0.46057
 C211 C 0.24265 0.05904 0.50195
 C212 C 0.24135 0.03056 0.54556
 C213 C 0.24143 -0.02874 0.54784
 C214 C 0.24263 -0.05937 0.50630
 H215 H 0.24294 -0.10511 0.50773
 H216 H 0.24297 0.10478 0.50035
 C217 C 0.76078 -0.03253 0.54072
 C218 C 0.76010 0.02670 0.53751
 C219 C 0.76121 0.05322 0.49314
 C220 C 0.76004 0.02075 0.45242
 C221 C 0.75833 -0.03837 0.45584
 C222 C 0.76007 -0.06474 0.50006
 H223 H 0.75908 -0.11040 0.50302
 H224 H 0.76132 0.09888 0.49012
 C225 C 0.46124 0.20780 -0.03049
 C226 C 0.46275 0.20570 0.01862
 C227 C 0.50705 0.20395 0.04163
 C228 C 0.54970 0.20594 0.01625
 C229 C 0.54819 0.20907 -0.03279
 C230 C 0.50389 0.20898 -0.05590
 H231 H 0.50257 0.21152 -0.09374
 H232 H 0.50836 0.20233 0.07948
 C233 C 0.46401 0.80689 0.03278
 C234 C 0.45932 0.81074 -0.01618
 C235 C 0.50026 0.81483 -0.04362
 C236 C 0.54548 0.81458 -0.02270
 C237 C 0.55034 0.81135 0.02597
 C238 C 0.50963 0.80740 0.05383
 H239 H 0.51347 0.80521 0.09153
 H240 H 0.49696 0.81630 -0.08137
 C241 C 0.02925 0.45793 0.16695
 C242 C -0.02058 0.45715 0.16921
 C243 C -0.04587 0.50817 0.16830
 C244 C -0.02155 0.56014 0.16641
 C245 C 0.02812 0.56085 0.16304
 C246 C 0.05321 0.50988 0.16240
 H247 H 0.09170 0.51083 0.16198
 H248 H -0.08427 0.50732 0.17068
 C249 C 0.02909 0.46879 0.82117
 C250 C -0.02022 0.45888 0.81901
 C251 C -0.05142 0.50054 0.83465
 C252 C -0.03317 0.55139 0.85250
 C253 C 0.01591 0.56229 0.85219
 C254 C 0.04690 0.52081 0.83665
 H255 H 0.08489 0.52857 0.83723
 H256 H -0.08939 0.49267 0.83491
 N257 N 0.41776 0.18948 0.08739
 N258 N 0.41927 0.20577 0.04469
 N259 N 0.60896 0.79559 0.08432
 N260 N 0.59738 0.81460 0.04552
 N261 N 0.59405 0.19560 -0.10058
 N262 N 0.59169 0.21270 -0.05871
 N263 N 0.40673 0.82907 -0.07932
 N264 N 0.41304 0.80958 -0.03793
 N265 N 0.09691 0.40151 0.15574
 N266 N 0.05548 0.40648 0.17261
 N267 N 0.07180 0.63618 0.85485
 N268 N 0.03329 0.61616 0.86742
 N269 N -0.08694 0.61715 0.18313
 N270 N -0.04618 0.61287 0.16826
 N271 N -0.07900 0.39187 0.79763
 N272 N -0.03682 0.40474 0.80355
 N273 N 0.23017 0.10387 0.40697
 N274 N 0.24947 0.05635 0.41568
 N275 N 0.76476 0.11185 0.58039
 N276 N 0.75747 0.05872 0.57960
 N277 N 0.22961 -0.10811 0.59926
 N278 N 0.24140 -0.05651 0.59295
 N279 N 0.76301 -0.12373 0.41441
 N280 N 0.75456 -0.07100 0.41414
 N281 N 0.58716 0.82507 -0.09380
 N282 N 0.58737 0.81290 -0.05040
 N283 N 0.41195 0.19109 -0.09588
 N284 N 0.41628 0.20896 -0.05438
 N285 N 0.42282 0.81281 0.10416
 N286 N 0.42204 0.80381 0.06049
 N287 N 0.59774 0.18502 0.08193
 N288 N 0.59466 0.20383 0.04010
 N289 N -0.10018 0.60860 0.85375
 N290 N -0.06364 0.59169 0.87317
 N291 N -0.08529 0.39671 0.15396
 N292 N -0.04537 0.40457 0.17412
 N293 N 0.10069 0.41891 0.82981
 N294 N 0.06099 0.42491 0.80873
 N295 N 0.09443 0.62072 0.15051
 N296 N 0.05324 0.61319 0.16744
 N297 N 0.77887 -0.10814 0.59242
 N298 N 0.76026 -0.05989 0.58557
 N299 N 0.22699 -0.10732 0.41398
 N300 N 0.24945 -0.06131 0.42048
 N301 N 0.78316 0.09283 0.39923
 N302 N 0.76032 0.04720 0.40717
 N303 N 0.22708 0.11144 0.59119
 N304 N 0.24135 0.06082 0.58836
   
