data_POSCAR
  _audit_creation_date              2014-09-24
  _audit_creation_method            'ToBaCCo'
  _symmetry_space_group_name_H-M    'P1'
  _symmetry_Int_Tables_number       1
  _symmetry_cell_setting            triclinic
  loop_
  _symmetry_equiv_pos_as_xyz
 x,y,z
_cell_length_a 33.2022
_cell_length_b 32.1607
_cell_length_c 30.5071
_cell_angle_alpha 93.231200
_cell_angle_beta 101.150400
_cell_angle_gamma 100.462200
loop_
  _atom_site_label
  _atom_site_type_symbol
  _atom_site_fract_x
  _atom_site_fract_y
  _atom_site_fract_z
N1 N 0.30957 0.20456 0.19965
 N2 N 0.29684 0.22785 0.16765
 C3 C 0.32473 0.23332 0.14076
 C4 C 0.35705 0.21329 0.15760
 C5 C 0.34658 0.19533 0.19496
 H6 H 0.32287 0.25249 0.11269
 H7 H 0.36464 0.17734 0.21729
 Cu8 Cu 0.24840 0.25409 0.16778
 Cu9 Cu 0.27683 0.18929 0.24506
 Cu10 Cu 0.22929 0.27148 0.27119
 N11 N 0.21248 0.29287 0.17983
 N12 N 0.20561 0.29986 0.22040
 C13 C 0.18234 0.32997 0.22028
 C14 C 0.17423 0.34255 0.17744
 C15 C 0.19376 0.31836 0.15244
 H16 H 0.17285 0.34255 0.24949
 H17 H 0.19533 0.32004 0.11748
 N18 N 0.24155 0.22806 0.31254
 N19 N 0.25659 0.19476 0.30090
 C20 C 0.25782 0.16885 0.33405
 C21 C 0.24372 0.18727 0.36863
 C22 C 0.23378 0.22481 0.35409
 H23 H 0.26933 0.13948 0.33361
 H24 H 0.22086 0.24742 0.37196
 H25 H 0.22409 0.21881 0.22940
 H26 H 0.27769 0.25235 0.24734
 N27 N 0.78510 -0.24807 0.22013
 N28 N 0.79166 -0.28649 0.21133
 C29 C 0.75868 -0.30864 0.18101
 C30 C 0.73046 -0.28215 0.16951
 C31 C 0.74850 -0.24379 0.19446
 H32 H 0.75566 -0.34134 0.16816
 H33 H 0.73497 -0.21568 0.19585
 Cu34 Cu 0.84344 -0.30319 0.23958
 Cu35 Cu 0.82195 -0.20899 0.26868
 Cu36 Cu 0.88303 -0.26018 0.34479
 N37 N 0.89377 -0.31769 0.27450
 N38 N 0.90779 -0.30196 0.31655
 C39 C 0.94052 -0.31896 0.33464
 C40 C 0.94801 -0.34633 0.30190
 C41 C 0.91788 -0.34471 0.26397
 H42 H 0.95772 -0.31146 0.36894
 H43 H 0.91311 -0.36272 0.23172
 N44 N 0.86928 -0.20512 0.36019
 N45 N 0.84689 -0.18515 0.33094
 C46 C 0.84142 -0.14934 0.35197
 C47 C 0.86184 -0.14650 0.39630
 C48 C 0.87939 -0.18219 0.40042
 H49 H 0.82268 -0.12776 0.33656
 H50 H 0.89682 -0.19159 0.43074
 H51 H 0.87568 -0.23582 0.28474
 H52 H 0.82605 -0.26183 0.30023
 N53 N 0.57837 0.22156 0.71763
 N54 N 0.59244 0.25534 0.74660
 C55 C 0.57408 0.25024 0.78218
 C56 C 0.54742 0.21097 0.77500
 C57 C 0.55077 0.19373 0.73365
 H58 H 0.58069 0.27271 0.81162
 H59 H 0.53545 0.16270 0.71706
 Cu60 Cu 0.63553 0.30139 0.73603
 Cu61 Cu 0.59969 0.21513 0.66333
 Cu62 Cu 0.70021 0.26301 0.67384
 N63 N 0.69124 0.33306 0.73349
 N64 N 0.71651 0.31821 0.71078
 C65 C 0.75273 0.34677 0.71693
 C66 C 0.74999 0.38090 0.74508
 C67 C 0.71056 0.37121 0.75483
 H68 H 0.77923 0.34284 0.70244
 H69 H 0.69709 0.38995 0.77654
 N70 N 0.67320 0.21638 0.62806
 N71 N 0.63309 0.19974 0.62208
 C72 C 0.62295 0.16794 0.58901
 C73 C 0.65889 0.16392 0.57418
 C74 C 0.69028 0.19496 0.59964
 H75 H 0.59253 0.14724 0.57895
 H76 H 0.72314 0.20084 0.59837
 H77 H 0.66059 0.25225 0.71838
 H78 H 0.64563 0.28463 0.67110
 N79 N 0.32325 -0.20291 0.79859
 N80 N 0.32114 -0.24079 0.81316
 C81 C 0.35550 -0.24090 0.84480
 C82 C 0.38050 -0.20093 0.85043
 C83 C 0.35920 -0.17750 0.82057
 H84 H 0.36158 -0.26783 0.86291
 H85 H 0.36882 -0.14443 0.81558
 Cu86 Cu 0.27282 -0.28579 0.79152
 Cu87 Cu 0.27800 -0.18952 0.75370
 Cu88 Cu 0.19840 -0.27464 0.70459
 N89 N 0.21782 -0.32227 0.77960
 N90 N 0.18857 -0.31859 0.74507
 C91 C 0.15364 -0.34747 0.74531
 C92 C 0.16148 -0.36984 0.78251
 C93 C 0.20260 -0.35310 0.80336
 H94 H 0.12437 -0.35073 0.72131
 H95 H 0.21996 -0.36184 0.83409
 N96 N 0.20584 -0.21887 0.68044
 N97 N 0.23563 -0.18621 0.69926
 C98 C 0.23204 -0.15289 0.67483
 C99 C 0.19825 -0.16521 0.63929
 C100 C 0.18238 -0.20718 0.64389
 H101 H 0.25259 -0.12205 0.68209
 H102 H 0.15573 -0.22776 0.62224
 H103 H 0.22866 -0.23728 0.76091
 H104 H 0.26331 -0.24974 0.72271
 N105 N 0.68642 -0.25108 0.79556
 N106 N 0.70376 -0.28416 0.80440
 C107 C 0.68452 -0.30628 0.83332
 C108 C 0.65430 -0.28525 0.84370
 C109 C 0.65652 -0.25024 0.81952
 H110 H 0.69288 -0.33451 0.84720
 H111 H 0.63761 -0.22612 0.81914
 Cu112 Cu 0.75262 -0.29215 0.78094
 Cu113 Cu 0.70372 -0.21170 0.75350
 Cu114 Cu 0.77226 -0.24297 0.69147
 N115 N 0.80118 -0.29827 0.75590
 N116 N 0.80858 -0.27872 0.72074
 C117 C 0.84138 -0.29081 0.70748
 C118 C 0.85532 -0.31960 0.73590
 C119 C 0.82937 -0.32335 0.76651
 H120 H 0.85294 -0.28075 0.67821
 H121 H 0.82974 -0.34433 0.79302
 N122 N 0.74136 -0.19744 0.67574
 N123 N 0.71411 -0.18654 0.69831
 C124 C 0.69566 -0.15714 0.67701
 C125 C 0.71309 -0.14853 0.64013
 C126 C 0.74212 -0.17421 0.64049
 H127 H 0.67154 -0.14295 0.68759
 H128 H 0.76137 -0.17671 0.61600
 H129 H 0.71804 -0.26002 0.71753
 H130 H 0.76410 -0.22238 0.75236
 N131 N 0.21508 0.22069 0.83089
 N132 N 0.21006 0.25704 0.84874
 C133 C 0.24630 0.27697 0.87548
 C134 C 0.27532 0.25128 0.87491
 C135 C 0.25447 0.21556 0.84670
 H136 H 0.25116 0.30773 0.89407
 H137 H 0.26731 0.18862 0.83716
 Cu138 Cu 0.15628 0.27397 0.83648
 Cu139 Cu 0.17055 0.18522 0.78604
 Cu140 Cu 0.09272 0.23813 0.73741
 N141 N 0.10135 0.28783 0.82110
 N142 N 0.07737 0.27680 0.78095
 C143 C 0.04452 0.29671 0.77722
 C144 C 0.04786 0.32019 0.81780
 C145 C 0.08409 0.31361 0.84473
 H146 H 0.02042 0.29465 0.74727
 H147 H 0.09816 0.32873 0.87812
 N148 N 0.10475 0.18650 0.70762
 N149 N 0.13360 0.16623 0.72713
 C150 C 0.13718 0.13482 0.69807
 C151 C 0.10921 0.13489 0.65838
 C152 C 0.08878 0.16787 0.66549
 H153 H 0.16027 0.11490 0.70444
 H154 H 0.06589 0.17894 0.64106
 H155 H 0.15629 0.24017 0.76320
 H156 H 0.11636 0.20947 0.79061
 N157 N 0.41023 -0.16788 0.24979
 N158 N 0.40258 -0.20886 0.23740
 C159 C 0.42602 -0.21640 0.20747
 C160 C 0.44959 -0.17804 0.20091
 C161 C 0.43888 -0.14792 0.22838
 H162 H 0.42581 -0.24741 0.19162
 H163 H 0.45068 -0.11401 0.23216
 Cu164 Cu 0.36273 -0.24857 0.26195
 Cu165 Cu 0.38152 -0.14453 0.29237
 Cu166 Cu 0.28586 -0.19997 0.29251
 N167 N 0.30860 -0.28049 0.26962
 N168 N 0.27789 -0.26186 0.27696
 C169 C 0.24438 -0.29200 0.27865
 C170 C 0.25508 -0.33122 0.27320
 C171 C 0.29598 -0.32287 0.26767
 H172 H 0.21537 -0.28587 0.28625
 H173 H 0.31514 -0.34588 0.26276
 N174 N 0.30763 -0.14485 0.32744
 N175 N 0.34589 -0.12404 0.32880
 C176 C 0.35409 -0.08928 0.35817
 C177 C 0.31891 -0.08798 0.37578
 C178 C 0.28984 -0.12348 0.35526
 H179 H 0.38361 -0.06693 0.36656
 H180 H 0.25886 -0.13407 0.36168
 H181 H 0.34467 -0.21153 0.31133
 H182 H 0.32838 -0.20356 0.25082
 N183 N 0.72442 0.16501 0.15402
 N184 N 0.72622 0.20025 0.13399
 C185 C 0.69057 0.19756 0.10328
 C186 C 0.66544 0.15838 0.10387
 C187 C 0.68794 0.13835 0.13623
 H188 H 0.68304 0.22249 0.08264
 H189 H 0.67783 0.10761 0.14749
 Cu190 Cu 0.77499 0.24616 0.15024
 Cu191 Cu 0.76816 0.15796 0.20398
 Cu192 Cu 0.83542 0.25166 0.25261
 N193 N 0.82500 0.29021 0.16979
 N194 N 0.84876 0.29190 0.20994
 C195 C 0.88060 0.32550 0.21557
 C196 C 0.87657 0.34590 0.17684
 C197 C 0.84098 0.32276 0.14839
 H198 H 0.90471 0.33456 0.24571
 H199 H 0.82776 0.32916 0.11477
 N200 N 0.82807 0.19987 0.28356
 N201 N 0.80294 0.16403 0.26488
 C202 C 0.80261 0.13545 0.29543
 C203 C 0.82913 0.15420 0.33491
 C204 C 0.84497 0.19492 0.32624
 H205 H 0.78316 0.10400 0.28997
 H206 H 0.86574 0.21967 0.34979
 H207 H 0.77397 0.22058 0.22365
 H208 H 0.81837 0.20720 0.19994
 O209 O 0.19605 0.05736 0.45697
 O210 O 0.16691 -0.04158 0.50813
 O211 O 0.14391 0.03264 0.50867
 O212 O 0.21895 -0.01539 0.45707
 O213 O 0.26903 0.01237 0.51559
 O214 O 0.19265 0.05281 0.57030
 O215 O 0.21858 -0.01944 0.56677
 O216 O 0.24221 0.08326 0.51927
 Cu217 Cu 0.17627 0.00569 0.47686
 Cu218 Cu 0.23555 0.03439 0.54915
 C219 C 0.22358 0.08741 0.47973
 C220 C 0.18838 -0.04790 0.54548
 C221 C 0.15574 0.05108 0.54829
 C222 C 0.25712 -0.00847 0.47720
 O223 O 0.75202 0.05811 0.53290
 O224 O 0.82332 -0.01308 0.51171
 O225 O 0.81591 0.06383 0.49442
 O226 O 0.76293 -0.01744 0.55464
 O227 O 0.71712 -0.04356 0.49215
 O228 O 0.77170 0.03707 0.43110
 O229 O 0.77847 -0.03986 0.44880
 O230 O 0.70813 0.03073 0.46956
 Cu231 Cu 0.79296 0.02563 0.52983
 Cu232 Cu 0.73957 -0.00679 0.45399
 C233 C 0.71794 0.05639 0.50469
 C234 C 0.81265 -0.03867 0.47632
 C235 C 0.80286 0.06438 0.45261
 C236 C 0.73103 -0.04406 0.53392
 O237 O 0.43245 0.17399 0.02809
 O238 O 0.46379 0.15669 -0.07915
 O239 O 0.49234 0.14140 0.00343
 O240 O 0.40674 0.19116 -0.05261
 O241 O 0.44901 0.25396 -0.03605
 O242 O 0.53537 0.20380 0.01347
 O243 O 0.50463 0.22034 -0.06765
 O244 O 0.47821 0.23473 0.04390
 Cu245 Cu 0.44477 0.15929 -0.02641
 Cu246 Cu 0.49620 0.23445 -0.01040
 C247 C 0.44988 0.20710 0.05421
 C248 C 0.48864 0.18583 -0.09225
 C249 C 0.52848 0.16437 0.01790
 C250 C 0.41326 0.23131 -0.05273
 O251 O 0.61359 0.77243 0.06282
 O252 O 0.53857 0.81649 -0.01796
 O253 O 0.55733 0.81876 0.06918
 O254 O 0.59300 0.76918 -0.02409
 O255 O 0.54573 0.71078 -0.02539
 O256 O 0.50972 0.76081 0.06805
 O257 O 0.49092 0.75823 -0.02048
 O258 O 0.56607 0.71393 0.05983
 Cu259 Cu 0.58032 0.80010 0.02293
 Cu260 Cu 0.52292 0.73040 0.02074
 C261 C 0.60305 0.73510 0.07373
 C262 C 0.50223 0.79454 -0.03352
 C263 C 0.52737 0.79838 0.08439
 C264 C 0.57588 0.73141 -0.04016
 O265 O 0.08781 0.48718 0.16941
 O266 O 0.03609 0.56062 0.22665
 O267 O 0.11312 0.56012 0.21874
 O268 O 0.01096 0.49098 0.17318
 O269 O 0.01709 0.45634 0.23390
 O270 O 0.12245 0.52199 0.27659
 O271 O 0.04734 0.52670 0.28749
 O272 O 0.09288 0.45079 0.22891
 Cu273 Cu 0.06127 0.52843 0.19104
 Cu274 Cu 0.07038 0.48553 0.26289
 C275 C 0.09884 0.45625 0.18971
 C276 C 0.03373 0.55631 0.26729
 C277 C 0.13562 0.55222 0.25467
 C278 C -0.00342 0.46197 0.19568
 O279 O 0.01449 0.54383 0.82961
 O280 O -0.09597 0.49650 0.81715
 O281 O -0.02653 0.46929 0.83926
 O282 O -0.05691 0.56787 0.80013
 O283 O -0.05877 0.54342 0.73044
 O284 O -0.02602 0.44645 0.76975
 O285 O -0.09829 0.47005 0.74805
 O286 O 0.01304 0.52257 0.75906
 Cu287 Cu -0.04074 0.52182 0.82852
 Cu288 Cu -0.04272 0.49315 0.74481
 C289 C 0.03265 0.54164 0.79691
 C290 C -0.11607 0.47533 0.78082
 C291 C -0.02076 0.44130 0.81120
 C292 C -0.06365 0.57192 0.75829
 C293 C 0.39572 0.21430 0.14094
 C294 C 0.43554 0.22567 0.16713
 C295 C 0.46184 0.22572 0.13773
 C296 C 0.43586 0.21351 0.09623
 O297 O 0.39579 0.20680 0.09799
 H298 H 0.44415 0.23400 0.20303
 H299 H 0.49572 0.23305 0.14551
 C300 C 0.69134 0.70794 0.14049
 C301 C 0.67113 0.66741 0.12263
 C302 C 0.63399 0.67216 0.09716
 C303 C 0.63468 0.71522 0.10064
 O304 O 0.66936 0.73706 0.12700
 H305 H 0.68193 0.63792 0.12773
 H306 H 0.61001 0.64743 0.07696
 C307 C 0.52311 0.19039 -0.19397
 C308 C 0.49848 0.15022 -0.20288
 C309 C 0.48244 0.14308 -0.16559
 C310 C 0.49848 0.17941 -0.13671
 O311 O 0.52321 0.20826 -0.15378
 H312 H 0.49297 0.12861 -0.23286
 H313 H 0.46152 0.11480 -0.16008
 C314 C 0.42077 0.81300 -0.11773
 C315 C 0.44610 0.85262 -0.11414
 C316 C 0.48025 0.85127 -0.08152
 C317 C 0.47300 0.81101 -0.06758
 O318 O 0.43697 0.78774 -0.08949
 H319 H 0.44057 0.87911 -0.13324
 H320 H 0.50729 0.87646 -0.06952
 C321 C 0.15188 0.37668 0.16366
 C322 C 0.14733 0.39246 0.12221
 C323 C 0.12621 0.42493 0.12571
 C324 C 0.11952 0.42616 0.16896
 O325 O 0.13503 0.39703 0.19186
 H326 H 0.15854 0.38201 0.09326
 H327 H 0.11709 0.44534 0.10010
 C328 C 0.13321 0.59971 0.79791
 C329 C 0.14221 0.58251 0.83832
 C330 C 0.10559 0.55777 0.84253
 C331 C 0.07719 0.56092 0.80408
 O332 O 0.09368 0.58636 0.77679
 H333 H 0.17146 0.58846 0.86272
 H334 H 0.09996 0.54003 0.87060
 C335 C -0.02136 0.62884 0.30677
 C336 C 0.00416 0.62490 0.34724
 C337 C 0.02787 0.59669 0.33758
 C338 C 0.01571 0.58616 0.29193
 O339 O -0.01423 0.60549 0.27298
 H340 H 0.00488 0.64000 0.38006
 H341 H 0.05150 0.58536 0.36092
 C342 C -0.21883 0.41641 0.76209
 C343 C -0.22281 0.44781 0.79284
 C344 C -0.18478 0.47429 0.80314
 C345 C -0.16057 0.45753 0.77752
 O346 O -0.18108 0.42240 0.75238
 H347 H -0.24973 0.45057 0.80709
 H348 H -0.17550 0.50225 0.82699
 C349 C 0.24079 0.17054 0.41192
 C350 C 0.24803 0.19521 0.45215
 C351 C 0.24384 0.16706 0.48360
 C352 C 0.23352 0.12751 0.45992
 O353 O 0.23178 0.12946 0.41645
 H354 H 0.25606 0.22949 0.45789
 H355 H 0.24701 0.17442 0.51929
 C356 C 0.66346 0.13006 0.54249
 C357 C 0.63136 0.10819 0.50903
 C358 C 0.64807 0.07824 0.48940
 C359 C 0.68890 0.08380 0.51286
 O360 O 0.69844 0.11536 0.54504
 H361 H 0.59955 0.11326 0.50034
 H362 H 0.63215 0.05444 0.46206
 C363 C 0.18273 -0.13948 0.60366
 C364 C 0.14801 -0.15388 0.56977
 C365 C 0.14520 -0.12106 0.54377
 C366 C 0.17836 -0.08903 0.56370
 O367 O 0.20125 -0.10006 0.60013
 H368 H 0.12738 -0.18471 0.56439
 H369 H 0.12201 -0.12063 0.51360
 C370 C 0.86054 -0.11470 0.43207
 C371 C 0.88670 -0.10749 0.47393
 C372 C 0.87312 -0.07658 0.49642
 C373 C 0.83951 -0.06786 0.46657
 O374 O 0.83196 -0.09079 0.42758
 H375 H 0.91227 -0.12309 0.48656
 H376 H 0.88546 -0.06288 0.53068
 C377 C 0.62720 0.70393 -0.12430
 C378 C 0.61213 0.66322 -0.11515
 C379 C 0.58890 0.66791 -0.08351
 C380 C 0.59229 0.71116 -0.07533
 O381 O 0.61540 0.73309 -0.10010
 H382 H 0.61750 0.63378 -0.12976
 H383 H 0.57270 0.64298 -0.06720
 C384 C 0.31928 0.26059 -0.10155
 C385 C 0.34144 0.30073 -0.08499
 C386 C 0.38034 0.29517 -0.06551
 C387 C 0.37877 0.25203 -0.07132
 O388 O 0.34179 0.23090 -0.09333
 H389 H 0.33052 0.33043 -0.08690
 H390 H 0.40648 0.31946 -0.04825
 C391 C 0.47931 0.82935 0.17073
 C392 C 0.50514 0.86786 0.16956
 C393 C 0.52703 0.86111 0.13731
 C394 C 0.51281 0.81904 0.12100
 O395 O 0.48381 0.79958 0.14123
 H396 H 0.50772 0.89735 0.18975
 H397 H 0.55026 0.88420 0.12656
 C398 C 0.62227 0.14368 0.07863
 C399 C 0.59894 0.10319 0.07661
 C400 C 0.56025 0.10478 0.05205
 C401 C 0.56310 0.14612 0.04122
 O402 O 0.60063 0.16965 0.05718
 H403 H 0.60874 0.07607 0.09177
 H404 H 0.53302 0.07929 0.04399
 C405 C -0.11419 0.65661 0.73174
 C406 C -0.09286 0.65775 0.69702
 C407 C -0.07000 0.62661 0.70314
 C408 C -0.07846 0.60940 0.74149
 O409 O -0.10519 0.62750 0.75902
 H410 H -0.09499 0.67756 0.66947
 H411 H -0.05023 0.61693 0.68173
 C412 C -0.09548 0.38411 0.16828
 C413 C -0.10236 0.40534 0.13035
 C414 C -0.06881 0.43803 0.13588
 C415 C -0.04405 0.43421 0.17676
 O416 O -0.06017 0.40157 0.19656
 H417 H -0.12853 0.39784 0.10201
 H418 H -0.06287 0.46160 0.11275
 C419 C 0.02258 0.35053 0.82962
 C420 C 0.01866 0.36026 0.87302
 C421 C -0.00032 0.39441 0.87141
 C422 C -0.00630 0.40322 0.82718
 O423 O 0.00739 0.37651 0.80159
 H424 H 0.03009 0.34538 0.90264
 H425 H -0.00707 0.41209 0.89946
 C426 C 0.22957 0.62725 0.27664
 C427 C 0.24493 0.59499 0.29799
 C428 C 0.21107 0.56285 0.29429
 C429 C 0.17790 0.57776 0.27021
 O430 O 0.18895 0.61690 0.25959
 H431 H 0.27687 0.59514 0.31457
 H432 H 0.21077 0.53184 0.30643
 C433 C 0.70284 -0.11924 0.60652
 C434 C 0.66288 -0.11440 0.58786
 C435 C 0.66782 -0.08637 0.55635
 C436 C 0.71042 -0.07579 0.55910
 O437 O 0.73172 -0.09575 0.58933
 H438 H 0.63376 -0.13007 0.59568
 H439 H 0.64352 -0.07430 0.53480
 C440 C 0.31464 -0.05737 0.41149
 C441 C 0.34797 -0.03048 0.43939
 C442 C 0.33074 -0.00900 0.46835
 C443 C 0.28817 -0.02406 0.45565
 O444 O 0.27822 -0.05352 0.42118
 H445 H 0.38091 -0.02733 0.43908
 H446 H 0.34717 0.01507 0.49522
 C447 C 0.83493 0.13629 0.37830
 C448 C 0.86421 0.15477 0.41601
 C449 C 0.85683 0.12942 0.44906
 C450 C 0.82354 0.09757 0.42894
 O451 O 0.81025 0.10158 0.38600
 H452 H 0.88759 0.18360 0.41921
 H453 H 0.87309 0.13409 0.48385
 C454 C 0.10761 0.10929 0.61633
 C455 C 0.07653 0.10433 0.57814
 C456 C 0.08937 0.07991 0.54732
 C457 C 0.12742 0.07223 0.56909
 O458 O 0.13838 0.08991 0.61086
 H459 H 0.04835 0.11740 0.57319
 H460 H 0.07365 0.07014 0.51280
   
