data_POSCAR
  _audit_creation_date              2014-09-24
  _audit_creation_method            'ToBaCCo'
  _symmetry_space_group_name_H-M    'P1'
  _symmetry_Int_Tables_number       1
  _symmetry_cell_setting            triclinic
  loop_
  _symmetry_equiv_pos_as_xyz
 x,y,z
_cell_length_a 30.1710
_cell_length_b 28.8981
_cell_length_c 29.0016
_cell_angle_alpha 89.157900
_cell_angle_beta 89.973500
_cell_angle_gamma 90.121800
loop_
  _atom_site_label
  _atom_site_type_symbol
  _atom_site_fract_x
  _atom_site_fract_y
  _atom_site_fract_z
C1 C 0.47378 1.00769 -0.52447
 C2 C 0.47341 0.99282 -0.47763
 C3 C 0.51378 0.98559 -0.45457
 C4 C 0.55534 0.99369 -0.47565
 C5 C 0.55608 1.00798 -0.52303
 C6 C 0.51523 1.01581 -0.54569
 H7 H 0.51571 1.02317 -0.58240
 H8 H 0.51231 0.97762 -0.41796
 C9 C -0.52782 1.47763 -0.00726
 C10 C -0.52663 1.52675 -0.00456
 C11 C -0.48474 1.54860 -0.00399
 C12 C -0.44504 1.52356 -0.00508
 C13 C -0.44660 1.47488 -0.00518
 C14 C -0.48788 1.45272 -0.00693
 H15 H -0.48897 1.41519 -0.00738
 H16 H -0.48262 1.58607 -0.00425
 C17 C -0.08077 0.46765 0.46380
 C18 C -0.08245 0.51593 0.45454
 C19 C -0.08318 0.54691 0.49128
 C20 C -0.08070 0.53200 0.53762
 C21 C -0.08271 0.48372 0.54688
 C22 C -0.08351 0.45275 0.51014
 H23 H -0.08444 0.41599 0.51822
 H24 H -0.08384 0.58367 0.48320
 O25 O -0.10057 1.00392 -0.06187
 O26 O 0.12820 1.00253 -0.06251
 O27 O 0.01128 1.07033 -0.11450
 O28 O 0.01412 0.94476 -0.12082
 O29 O 0.01530 0.88559 -0.06676
 O30 O 0.01205 1.12218 -0.05498
 O31 O 0.07355 1.00575 -0.11808
 O32 O -0.04612 1.00852 -0.11763
 Zr33 Zr 0.01378 1.00508 -0.08036
 O34 O 0.05456 0.96122 -0.04328
 O35 O -0.02664 1.04387 -0.03890
 C36 C -0.08727 1.00753 -0.10449
 C37 C 0.11473 1.00400 -0.10515
 C38 C 0.01041 1.11201 -0.09828
 C39 C 0.01458 0.90127 -0.10883
 H40 H 0.07275 1.06549 -0.05787
 O41 O 0.05408 1.04429 -0.03907
 H42 H -0.04516 0.94201 -0.06295
 O43 O -0.02618 0.96084 -0.04270
 O44 O 0.12837 0.99883 0.06357
 O45 O -0.10034 0.99433 0.06389
 O46 O 0.07308 1.11851 0.00830
 O47 O 0.07400 0.88214 -0.00715
 O48 O -0.04471 0.88096 -0.00249
 O49 O -0.04583 1.11801 0.00416
 O50 O 0.01403 1.05507 0.12226
 O51 O 0.01215 0.92947 0.11596
 O52 O 0.01453 1.11426 0.06819
 O53 O 0.01324 0.87763 0.05644
 O54 O 0.12811 1.06351 0.00491
 O55 O -0.10046 1.06226 0.00143
 O56 O -0.09989 0.93584 0.00047
 O57 O 0.12862 0.93782 -0.00398
 O58 O 0.07386 0.99485 0.11931
 O59 O -0.04565 0.99050 0.11936
 Zr60 Zr 0.09259 1.00043 0.00058
 Zr61 Zr -0.06463 0.99933 0.00091
 Zr62 Zr 0.01377 1.08030 0.00465
 Zr63 Zr 0.01446 0.91954 -0.00320
 Zr64 Zr 0.01405 0.99474 0.08180
 O65 O -0.02614 0.95535 0.04056
 O66 O 0.05434 1.03917 0.04457
 C67 C 0.11499 0.99715 0.10626
 C68 C -0.08684 0.99096 0.10645
 C69 C 0.11431 1.10594 0.00812
 C70 C 0.11513 0.89522 -0.00721
 C71 C -0.08594 0.89330 -0.00039
 C72 C -0.08695 1.10501 0.00219
 C73 C 0.01410 1.09857 0.11027
 C74 C 0.01158 0.88778 0.09974
 H75 H -0.04547 1.05699 0.06465
 O76 O -0.02640 1.03842 0.04432
 H77 H 0.07347 0.93511 0.05909
 O78 O 0.05458 0.95606 0.04038
 C79 C 0.39652 1.04448 0.38102
 C80 C 0.36347 1.01068 0.38453
 C81 C 0.36495 0.97806 0.42065
 C82 C 0.40017 0.97822 0.45216
 C83 C 0.43484 1.01098 0.44794
 C84 C 0.43174 1.04469 0.41225
 C85 C 0.32974 1.00815 0.34936
 C86 C 0.30254 1.00618 0.31890
 C87 C 0.27135 1.00405 0.28253
 C88 C 0.24480 1.00235 0.25143
 C89 C 0.21261 1.00045 0.21469
 C90 C 0.16757 0.99619 0.22529
 C91 C 0.13604 0.99484 0.19005
 C92 C 0.14899 0.99774 0.14338
 C93 C 0.19446 1.00183 0.13300
 C94 C 0.22601 1.00318 0.16844
 H95 H 0.39562 1.07015 0.35343
 H96 H 0.33971 0.95145 0.42353
 H97 H 0.40162 0.95052 0.47761
 H98 H 0.45669 1.07146 0.40830
 H99 H 0.15675 0.99405 0.26089
 H100 H 0.10143 0.99169 0.19954
 H101 H 0.20568 1.00423 0.09758
 H102 H 0.26081 1.00652 0.15977
 C103 C -0.36473 1.03934 0.38217
 C104 C -0.33355 1.00384 0.38615
 C105 C -0.33680 0.97180 0.42270
 C106 C -0.37198 0.97429 0.45417
 C107 C -0.40481 1.00885 0.44944
 C108 C -0.39991 1.04187 0.41333
 C109 C -0.29991 0.99927 0.35111
 C110 C -0.27287 0.99603 0.32059
 C111 C -0.24194 0.99288 0.28406
 C112 C -0.21566 0.99074 0.25272
 C113 C -0.18385 0.98883 0.21559
 C114 C -0.13889 0.98278 0.22559
 C115 C -0.10760 0.98268 0.19004
 C116 C -0.12072 0.98872 0.14369
 C117 C -0.16615 0.99405 0.13387
 C118 C -0.19745 0.99416 0.16962
 H119 H -0.36244 1.06459 0.35427
 H120 H -0.31295 0.94397 0.42602
 H121 H -0.37485 0.94734 0.48031
 H122 H -0.42344 1.06985 0.40902
 H123 H -0.12791 0.97861 0.26097
 H124 H -0.07302 0.97833 0.19906
 H125 H -0.17748 0.99883 0.09871
 H126 H -0.23219 0.99892 0.16142
 C127 C -0.33819 1.02897 -0.41905
 C128 C -0.33605 0.99698 -0.38241
 C129 C -0.36805 0.96212 -0.37869
 C130 C -0.40279 0.96002 -0.41041
 C131 C -0.40640 0.99281 -0.44687
 C132 C -0.37294 1.02693 -0.45105
 C133 C -0.30241 1.00081 -0.34726
 C134 C -0.27520 1.00353 -0.31685
 C135 C -0.24394 1.00616 -0.28058
 C136 C -0.21733 1.00794 -0.24953
 C137 C -0.18513 1.00952 -0.21276
 C138 C -0.14015 1.01490 -0.22325
 C139 C -0.10855 1.01493 -0.18802
 C140 C -0.12138 1.00950 -0.14149
 C141 C -0.16680 1.00474 -0.13120
 C142 C -0.19840 1.00470 -0.16662
 H143 H -0.31374 1.05635 -0.42216
 H144 H -0.36662 0.93692 -0.35069
 H145 H -0.42682 0.93235 -0.40640
 H146 H -0.37485 1.05383 -0.47733
 H147 H -0.12942 1.01867 -0.25877
 H148 H -0.07398 1.01880 -0.19740
 H149 H -0.17792 1.00046 -0.09589
 H150 H -0.23314 1.00047 -0.15804
 C151 C 0.38905 0.95354 -0.38826
 C152 C 0.36254 0.99301 -0.38451
 C153 C 0.37008 1.03110 -0.41398
 C154 C 0.40487 1.03028 -0.44597
 C155 C 0.43250 0.99130 -0.44885
 C156 C 0.42381 0.95268 -0.42015
 C157 C 0.32938 0.99522 -0.34870
 C158 C 0.30242 0.99692 -0.31795
 C159 C 0.27131 0.99877 -0.28147
 C160 C 0.24472 1.00021 -0.25036
 C161 C 0.21246 1.00179 -0.21363
 C162 C 0.22582 0.99938 -0.16738
 C163 C 0.19423 1.00039 -0.13195
 C164 C 0.14873 1.00380 -0.14232
 C165 C 0.13579 1.00639 -0.18899
 C166 C 0.16738 1.00540 -0.22424
 H167 H 0.38363 0.92387 -0.36567
 H168 H 0.34991 1.06191 -0.41132
 H169 H 0.41132 1.06071 -0.46717
 H170 H 0.44475 0.92234 -0.42164
 H171 H 0.26064 0.99655 -0.15870
 H172 H 0.20545 0.99824 -0.09653
 H173 H 0.10117 1.00903 -0.19846
 H174 H 0.15658 1.00727 -0.25984
 C175 C 0.38747 1.38695 -0.03782
 C176 C 0.35979 1.38723 0.00088
 C177 C 0.36677 1.41980 0.03551
 C178 C 0.40224 1.45103 0.03204
 C179 C 0.43091 1.44980 -0.00610
 C180 C 0.42286 1.41796 -0.04126
 C181 C 0.32616 1.35211 0.00584
 C182 C 0.29914 1.32144 0.00896
 C183 C 0.26832 1.28468 0.01151
 C184 C 0.24215 1.25310 0.01284
 C185 C 0.21054 1.21572 0.01351
 C186 C 0.16540 1.22540 0.01799
 C187 C 0.13429 1.18962 0.01679
 C188 C 0.14785 1.14342 0.01100
 C189 C 0.19344 1.13392 0.00716
 C190 C 0.22455 1.16991 0.00834
 H191 H 0.38246 1.36187 -0.06474
 H192 H 0.34564 1.42017 0.06570
 H193 H 0.40831 1.47492 0.05977
 H194 H 0.44478 1.41635 -0.07078
 H195 H 0.15417 1.26071 0.02196
 H196 H 0.09955 1.19833 0.02005
 H197 H 0.20505 1.09885 0.00269
 H198 H 0.25947 1.16206 0.00476
 C199 C 0.36235 0.57756 -0.03363
 C200 C 0.36319 0.61754 -0.00696
 C201 C 0.39905 0.62576 0.02217
 C202 C 0.43453 0.59502 0.02381
 C203 C 0.43500 0.55502 -0.00362
 C204 C 0.39790 0.54644 -0.03195
 C205 C 0.32863 0.65164 -0.01051
 C206 C 0.30109 0.68176 -0.01257
 C207 C 0.26993 0.71809 -0.01399
 C208 C 0.24360 0.74940 -0.01447
 C209 C 0.21182 0.78646 -0.01425
 C210 C 0.22568 0.83237 -0.00889
 C211 C 0.19441 0.86804 -0.00708
 C212 C 0.14885 0.85812 -0.01050
 C213 C 0.13545 0.81183 -0.01643
 C214 C 0.16670 0.77637 -0.01825
 H215 H 0.33485 0.57111 -0.05667
 H216 H 0.39995 0.65646 0.04318
 H217 H 0.46160 0.60252 0.04708
 H218 H 0.39737 0.51748 -0.05514
 H219 H 0.26060 0.84053 -0.00569
 H220 H 0.20590 0.90321 -0.00253
 H221 H 0.10073 0.80278 -0.01939
 H222 H 0.15560 0.74099 -0.02239
 C223 C -0.35978 0.61253 -0.04068
 C224 C -0.33076 0.61122 -0.00310
 C225 C -0.33690 0.57814 0.03221
 C226 C -0.37297 0.54759 0.03065
 C227 C -0.40310 0.55013 -0.00619
 C228 C -0.39577 0.58224 -0.04219
 C229 C -0.29684 0.64607 0.00023
 C230 C -0.26976 0.67670 0.00205
 C231 C -0.23903 0.71354 0.00321
 C232 C -0.21299 0.74522 0.00352
 C233 C -0.18150 0.78269 0.00323
 C234 C -0.13618 0.77293 0.00317
 C235 C -0.10528 0.80893 0.00202
 C236 C -0.11924 0.85545 0.00088
 C237 C -0.16498 0.86497 0.00115
 C238 C -0.19589 0.82875 0.00228
 H239 H -0.35542 0.63800 -0.06811
 H240 H -0.31470 0.57697 0.06154
 H241 H -0.37844 0.52341 0.05897
 H242 H -0.41880 0.58477 -0.07077
 H243 H -0.12467 0.73743 0.00386
 H244 H -0.07041 0.80014 0.00203
 H245 H -0.17689 0.90029 0.00035
 H246 H -0.23098 0.83667 0.00224
 C247 C -0.33859 1.41699 -0.03784
 C248 C -0.33557 1.38273 -0.00326
 C249 C -0.36724 1.38076 0.03195
 C250 C -0.40244 1.41197 0.03199
 C251 C -0.40638 1.44567 -0.00314
 C252 C -0.37388 1.44841 -0.03779
 C253 C -0.30154 1.34797 -0.00471
 C254 C -0.27411 1.31771 -0.00511
 C255 C -0.24279 1.28151 -0.00481
 C256 C -0.21619 1.25044 -0.00404
 C257 C -0.18409 1.21368 -0.00267
 C258 C -0.19775 1.16733 -0.00249
 C259 C -0.16631 1.13178 -0.00078
 C260 C -0.12074 1.14223 0.00083
 C261 C -0.10750 1.18904 0.00062
 C262 C -0.13893 1.22439 -0.00110
 H263 H -0.31432 1.41870 -0.06536
 H264 H -0.36528 1.35439 0.05883
 H265 H -0.42721 1.40928 0.05896
 H266 H -0.37666 1.47376 -0.06551
 H267 H -0.23269 1.15867 -0.00364
 H268 H -0.17769 1.09622 -0.00075
 H269 H -0.07277 1.19853 0.00170
 H270 H -0.12798 1.26013 -0.00118
 C271 C -0.08577 1.40421 0.35188
 C272 C -0.05797 1.36672 0.36194
 C273 C -0.03846 1.36252 0.40535
 C274 C -0.04636 1.39566 0.43866
 C275 C -0.07394 1.43415 0.42928
 C276 C -0.09382 1.43768 0.38529
 C277 C -0.04874 1.33223 0.32816
 C278 C -0.03963 1.30246 0.30123
 C279 C -0.02795 1.26715 0.27063
 C280 C -0.01771 1.23705 0.24450
 C281 C -0.00582 1.20170 0.21254
 C282 C -0.01155 1.15489 0.22423
 C283 C -0.00307 1.12085 0.19162
 C284 C 0.01099 1.13343 0.14690
 C285 C 0.01821 1.18053 0.13618
 C286 C 0.00982 1.21437 0.16880
 H287 H -0.10143 1.40744 0.31838
 H288 H -0.01667 1.33374 0.41337
 H289 H -0.02920 1.39190 0.47128
 H290 H -0.11687 1.46518 0.37706
 H291 H -0.02363 1.14480 0.25811
 H292 H -0.00916 1.08494 0.20085
 H293 H 0.02929 1.19140 0.10217
 H294 H 0.01451 1.25051 0.15951
 C295 C -0.09885 1.40393 -0.35110
 C296 C -0.05657 1.40485 -0.33135
 C297 C -0.02480 1.43647 -0.34771
 C298 C -0.03454 1.46528 -0.38548
 C299 C -0.07609 1.46251 -0.40703
 C300 C -0.10856 1.43256 -0.38887
 C301 C -0.04443 1.36949 -0.29850
 C302 C -0.03468 1.33804 -0.27287
 C303 C -0.02392 1.29992 -0.24429
 C304 C -0.01538 1.26691 -0.22017
 C305 C -0.00607 1.22771 -0.19081
 C306 C 0.00587 1.23477 -0.14495
 C307 C 0.01233 1.19702 -0.11529
 C308 C 0.00689 1.15148 -0.13110
 C309 C -0.00408 1.14464 -0.17765
 C310 C -0.01062 1.18264 -0.20731
 H311 H -0.12352 1.37933 -0.33890
 H312 H 0.00815 1.43711 -0.33289
 H313 H -0.00888 1.48759 -0.39966
 H314 H -0.14054 1.42961 -0.40556
 H315 H 0.00945 1.26952 -0.13187
 H316 H 0.02097 1.20363 -0.07974
 H317 H -0.00870 1.11010 -0.19083
 H318 H -0.01998 1.17690 -0.24284
 C319 C -0.03796 0.63702 -0.40377
 C320 C -0.05765 0.63286 -0.36042
 C321 C -0.08572 0.59543 -0.35046
 C322 C -0.09385 0.56199 -0.38390
 C323 C -0.07379 0.56548 -0.42783
 C324 C -0.04594 0.60391 -0.43712
 C325 C -0.04835 0.66733 -0.32662
 C326 C -0.03918 0.69710 -0.29966
 C327 C -0.02744 0.73242 -0.26906
 C328 C -0.01716 0.76256 -0.24294
 C329 C -0.00524 0.79798 -0.21104
 C330 C 0.01059 0.78543 -0.16736
 C331 C 0.01897 0.81934 -0.13478
 C332 C 0.01154 0.86638 -0.14546
 C333 C -0.00269 0.87885 -0.19012
 C334 C -0.01116 0.84474 -0.22269
 H335 H -0.01597 0.66576 -0.41173
 H336 H -0.10152 0.59223 -0.31701
 H337 H -0.11710 0.53453 -0.37575
 H338 H -0.02864 0.60764 -0.46969
 H339 H 0.01542 0.74933 -0.15810
 H340 H 0.03017 0.80856 -0.10082
 H341 H -0.00895 0.91471 -0.19932
 H342 H -0.02339 0.85474 -0.25651
 C343 C -0.02395 0.56309 0.34926
 C344 C -0.05552 0.59471 0.33279
 C345 C -0.09787 0.59568 0.35243
 C346 C -0.10783 0.56709 0.39020
 C347 C -0.07556 0.53713 0.40847
 C348 C -0.03395 0.53431 0.38702
 C349 C -0.04313 0.63003 0.29993
 C350 C -0.03321 0.66148 0.27429
 C351 C -0.02231 0.69960 0.24571
 C352 C -0.01370 0.73265 0.22160
 C353 C -0.00438 0.77192 0.19228
 C354 C 0.00769 0.76497 0.14642
 C355 C 0.01403 0.80280 0.11677
 C356 C 0.00833 0.84827 0.13258
 C357 C -0.00273 0.85501 0.17912
 C358 C -0.00914 0.81695 0.20878
 H359 H 0.00904 0.56241 0.33451
 H360 H -0.12238 0.62029 0.34016
 H361 H -0.13984 0.57008 0.40681
 H362 H -0.00845 0.51199 0.40128
 H363 H 0.01143 0.73026 0.13334
 H364 H 0.02274 0.79627 0.08123
 H365 H -0.00755 0.88951 0.19230
 H366 H -0.01861 0.82260 0.24429
   
