data_POSCAR
  _audit_creation_date              2014-09-24
  _audit_creation_method            'ToBaCCo'
  _symmetry_space_group_name_H-M    'P1'
  _symmetry_Int_Tables_number       1
  _symmetry_cell_setting            triclinic
  loop_
  _symmetry_equiv_pos_as_xyz
 x,y,z
_cell_length_a 42.8003
_cell_length_b 42.8318
_cell_length_c 24.1611
_cell_angle_alpha 89.852000
_cell_angle_beta 90.139700
_cell_angle_gamma 119.889100
loop_
  _atom_site_label
  _atom_site_type_symbol
  _atom_site_fract_x
  _atom_site_fract_y
  _atom_site_fract_z
C1 C 0.55627 1.11337 0.52816
 C2 C 0.55786 1.11351 0.47150
 C3 C 0.54035 1.07774 0.45483
 N4 N 0.52830 1.05594 0.49960
 C5 C 0.53797 1.07755 0.54449
 C6 C 0.53492 1.06610 0.39905
 C7 C 0.51567 1.02957 0.38188
 C8 C 0.50581 1.01861 0.32744
 C9 C 0.48720 0.98167 0.32756
 C10 C 0.48604 0.97075 0.38200
 N11 N 0.50398 1.00013 0.41470
 C12 C 0.46854 0.93425 0.39923
 C13 C 0.46244 0.92243 0.45488
 C14 C 0.44409 0.88661 0.47121
 C15 C 0.44277 0.88647 0.52789
 C16 C 0.46045 0.92225 0.54457
 N17 N 0.47238 0.94405 0.49978
 C18 C 0.46613 0.93389 0.60035
 C19 C 0.48527 0.97044 0.61749
 C20 C 0.49520 0.98144 0.67189
 C21 C 0.51355 1.01838 0.67178
 C22 C 0.51452 1.02926 0.61736
 N23 N 0.49670 0.99985 0.58467
 C24 C 0.53174 1.06574 0.60013
 H25 H 0.56757 1.13701 0.55432
 H26 H 0.57029 1.13728 0.44553
 H27 H 0.49036 0.99989 0.54332
 H28 H 0.51107 1.03550 0.29130
 H29 H 0.47546 0.96480 0.29153
 H30 H 0.43262 0.86298 0.44504
 H31 H 0.43038 0.86271 0.55387
 H32 H 0.52527 1.03528 0.70778
 H33 H 0.51018 1.00006 0.45611
 H34 H 0.49013 0.96458 0.70801
 C35 C 0.11350 0.55633 0.47099
 C36 C 0.11368 0.55796 0.52764
 C37 C 0.07789 0.54039 0.54440
 N38 N 0.05604 0.52825 0.49968
 C39 C 0.07764 0.53794 0.45474
 C40 C 0.06629 0.53499 0.60020
 C41 C 0.02974 0.51571 0.61745
 C42 C 0.01882 0.50589 0.67191
 C43 C -0.01814 0.48727 0.67188
 C44 C -0.02912 0.48605 0.61746
 N45 N 0.00025 0.50397 0.58469
 C46 C -0.06566 0.46852 0.60031
 C47 C -0.07753 0.46233 0.54470
 C48 C -0.11339 0.44393 0.52845
 C49 C -0.11357 0.44250 0.47178
 C50 C -0.07778 0.46016 0.45502
 N51 N -0.05594 0.47218 0.49975
 C52 C -0.06617 0.46574 0.39921
 C53 C -0.02962 0.48490 0.38198
 C54 C -0.01867 0.49473 0.32753
 C55 C 0.01830 0.51315 0.32756
 C56 C 0.02925 0.51427 0.38198
 N57 N -0.00015 0.49646 0.41474
 C58 C 0.06578 0.53162 0.39913
 H59 H 0.13713 0.56766 0.44478
 H60 H 0.13749 0.57047 0.55356
 H61 H -0.00006 0.49023 0.45614
 H62 H 0.03576 0.51118 0.70802
 H63 H -0.03499 0.47555 0.70796
 H64 H -0.13702 0.43250 0.55467
 H65 H -0.13738 0.43005 0.44585
 H66 H 0.03517 0.52483 0.29150
 H67 H 0.00014 0.51015 0.54328
 H68 H -0.03558 0.48955 0.29143
 C69 C 0.44500 0.55865 0.52924
 C70 C 0.44378 0.55733 0.47256
 C71 C 0.46022 0.53791 0.45648
 N72 N 0.47129 0.52731 0.50156
 C73 C 0.46208 0.53990 0.54618
 C74 C 0.46530 0.53117 0.40090
 C75 C 0.48356 0.51286 0.38385
 C76 C 0.49214 0.51042 0.32925
 C77 C 0.51050 0.49175 0.32950
 C78 C 0.51279 0.48316 0.38424
 N79 N 0.49572 0.49560 0.41695
 C80 C 0.53083 0.46467 0.40180
 C81 C 0.53766 0.45980 0.45753
 C82 C 0.55704 0.44334 0.47407
 C83 C 0.55854 0.44484 0.53074
 C84 C 0.53990 0.46207 0.54721
 N85 N 0.52724 0.47112 0.50232
 C86 C 0.53376 0.46771 0.60289
 C87 C 0.51374 0.48431 0.61968
 C88 C 0.50268 0.48428 0.67370
 C89 C 0.48411 0.50271 0.67345
 C90 C 0.48415 0.51369 0.61928
 N91 N 0.50274 0.50277 0.58693
 C92 C 0.46746 0.53360 0.60201
 H93 H 0.43425 0.57169 0.55506
 H94 H 0.43223 0.56945 0.44622
 H95 H 0.51018 0.51017 0.54613
 H96 H 0.48629 0.52143 0.29289
 H97 H 0.52144 0.48572 0.29336
 H98 H 0.56905 0.43162 0.44805
 H99 H 0.57161 0.43417 0.55687
 H100 H 0.47168 0.50723 0.70919
 H101 H 0.49074 0.49068 0.45882
 H102 H 0.50723 0.47194 0.70967
 O103 O 0.38773 0.65880 -0.04819
 O104 O 0.38621 0.71821 -0.06490
 C105 C 0.36903 0.73451 -0.07525
 O106 O 0.34147 0.72954 -0.04833
 O107 O 0.28209 0.66883 -0.06512
 C108 C 0.26587 0.63547 -0.07554
 O109 O 0.27089 0.61283 -0.04865
 O110 O 0.33177 0.61423 -0.06509
 C111 C 0.36519 0.63133 -0.07523
 O112 O 0.38614 0.66837 0.06198
 O113 O 0.38770 0.72929 0.04528
 C114 C 0.36514 0.73429 0.07223
 O115 O 0.33173 0.71814 0.06185
 O116 O 0.27086 0.65895 0.04505
 C117 C 0.26584 0.63131 0.07194
 O118 O 0.28205 0.61409 0.06158
 O119 O 0.34141 0.61249 0.04515
 C120 C 0.36893 0.63497 0.07227
 Cr121 Cr 0.38492 0.69266 -0.00147
 Cr122 Cr 0.30755 0.69285 -0.00164
 Cr123 Cr 0.30754 0.61543 -0.00175
 O124 O 0.33333 0.66698 -0.00163
 O125 O 0.61228 0.34119 -0.04557
 O126 O 0.61398 0.28197 -0.06252
 C127 C 0.63122 0.26579 -0.07295
 O128 O 0.65884 0.27075 -0.04603
 O129 O 0.71807 0.33166 -0.06248
 C130 C 0.73421 0.36508 -0.07263
 O131 O 0.72916 0.38753 -0.04549
 O132 O 0.66819 0.38601 -0.06201
 C133 C 0.63478 0.36884 -0.07240
 O134 O 0.61387 0.33116 0.06457
 O135 O 0.61256 0.27043 0.04762
 C136 C 0.63521 0.26540 0.07451
 O137 O 0.66861 0.28167 0.06419
 O138 O 0.72938 0.34106 0.04774
 C139 C 0.73429 0.36850 0.07488
 O140 O 0.71796 0.38566 0.06472
 O141 O 0.65850 0.38716 0.04821
 C142 C 0.63097 0.36451 0.07508
 Cr143 Cr 0.61519 0.30720 0.00102
 Cr144 Cr 0.69271 0.30729 0.00086
 Cr145 Cr 0.69245 0.38457 0.00135
 O146 O 0.66678 0.33302 0.00109
 C147 C 0.38183 0.81134 -0.24648
 C148 C 0.40000 0.85255 -0.23746
 C149 C 0.42918 0.85804 -0.27952
 C150 C 0.41122 0.81727 -0.28926
 C151 C 0.40555 0.80940 -0.20031
 C152 C 0.43474 0.81490 -0.24238
 C153 C 0.42352 0.85019 -0.19062
 C154 C 0.45290 0.85610 -0.23336
 C155 C 0.44243 0.88531 -0.32335
 C156 C 0.45346 0.90794 -0.35915
 C157 C 0.39246 0.78248 -0.15594
 C158 C 0.38174 0.76050 -0.11921
 H159 H 0.35246 0.79263 -0.25137
 H160 H 0.38588 0.86834 -0.23594
 H161 H 0.40632 0.80407 -0.33034
 H162 H 0.44887 0.79911 -0.24391
 H163 H 0.42844 0.86343 -0.14958
 H164 H 0.48227 0.87483 -0.22848
 C165 C 0.18851 0.62107 -0.24696
 C166 C 0.18312 0.59180 -0.28957
 C167 C 0.14227 0.57321 -0.27981
 C168 C 0.14724 0.60226 -0.23791
 C169 C 0.19098 0.59774 -0.20065
 C170 C 0.15012 0.57914 -0.19093
 C171 C 0.18602 0.56869 -0.24256
 C172 C 0.14474 0.54989 -0.23350
 C173 C 0.11497 0.55947 -0.32360
 C174 C 0.09229 0.54806 -0.35936
 C175 C 0.21792 0.61131 -0.15628
 C176 C 0.23990 0.62239 -0.11954
 H177 H 0.20682 0.65049 -0.25199
 H178 H 0.19635 0.59684 -0.33066
 H179 H 0.13097 0.61590 -0.23651
 H180 H 0.13684 0.57409 -0.14988
 H181 H 0.20227 0.55504 -0.24396
 H182 H 0.12643 0.52047 -0.22848
 C183 C 0.43000 0.61844 -0.24492
 C184 C 0.45220 0.59931 -0.23544
 C185 C 0.42864 0.57084 -0.27845
 C186 C 0.40665 0.58975 -0.28864
 C187 C 0.40360 0.59465 -0.19972
 C188 C 0.38003 0.56617 -0.24274
 C189 C 0.42560 0.57573 -0.18957
 C190 C 0.40225 0.54706 -0.23325
 C191 C 0.44265 0.55748 -0.32202
 C192 C 0.45423 0.54637 -0.35765
 C193 C 0.38976 0.60782 -0.15559
 C194 C 0.37848 0.61859 -0.11903
 H195 H 0.44125 0.64794 -0.24923
 H196 H 0.48204 0.61278 -0.23294
 H197 H 0.39904 0.59535 -0.32990
 H198 H 0.35020 0.55269 -0.24524
 H199 H 0.43323 0.57011 -0.14835
 H200 H 0.39101 0.51756 -0.22896
 C201 C 0.57006 0.19007 -0.24592
 C202 C 0.59399 0.18352 -0.28692
 C203 C 0.57028 0.14279 -0.27740
 C204 C 0.54615 0.14892 -0.23710
 C205 C 0.59439 0.19126 -0.19815
 C206 C 0.57068 0.15052 -0.18867
 C207 C 0.61853 0.18513 -0.23844
 C208 C 0.59461 0.14399 -0.22963
 C209 C 0.55673 0.11563 -0.32124
 C210 C 0.54546 0.09308 -0.35706
 C211 C 0.60768 0.21806 -0.15374
 C212 C 0.61849 0.23994 -0.11697
 H213 H 0.56011 0.20932 -0.25211
 H214 H 0.60340 0.19674 -0.32784
 H215 H 0.51623 0.13371 -0.23705
 H216 H 0.56124 0.13725 -0.14779
 H217 H 0.64844 0.20033 -0.23849
 H218 H 0.60454 0.12472 -0.22344
 C219 C 0.81101 0.42987 -0.24313
 C220 C 0.85230 0.45229 -0.23414
 C221 C 0.85733 0.42877 -0.27706
 C222 C 0.81646 0.40656 -0.28677
 C223 C 0.80886 0.40367 -0.19776
 C224 C 0.81389 0.38014 -0.24069
 C225 C 0.84974 0.42588 -0.18809
 C226 C 0.85518 0.40257 -0.23169
 C227 C 0.88448 0.44281 -0.32095
 C228 C 0.90701 0.45444 -0.35682
 C229 C 0.78204 0.38979 -0.15335
 C230 C 0.76013 0.37846 -0.11659
 H231 H 0.79254 0.44093 -0.24734
 H232 H 0.86840 0.48211 -0.23195
 H233 H 0.80312 0.39878 -0.32786
 H234 H 0.79779 0.35032 -0.24288
 H235 H 0.86312 0.43368 -0.14703
 H236 H 0.87366 0.39152 -0.22749
 C237 C 0.61997 0.43189 -0.24329
 C238 C 0.59091 0.40809 -0.28631
 C239 C 0.57196 0.43005 -0.27660
 C240 C 0.60079 0.45405 -0.23428
 C241 C 0.59661 0.40590 -0.19735
 C242 C 0.57765 0.42786 -0.18767
 C243 C 0.56777 0.38189 -0.23967
 C244 C 0.54861 0.40406 -0.23066
 C245 C 0.55819 0.44358 -0.32050
 C246 C 0.54679 0.45482 -0.35642
 C247 C 0.61029 0.39256 -0.15298
 C248 C 0.62149 0.38168 -0.11628
 H249 H 0.64946 0.44318 -0.24799
 H250 H 0.59620 0.40013 -0.32740
 H251 H 0.61421 0.48388 -0.23257
 H252 H 0.57235 0.43585 -0.14663
 H253 H 0.55435 0.35206 -0.24138
 H254 H 0.51912 0.39279 -0.22598
 C255 C 0.85002 0.42293 0.19028
 C256 C 0.85585 0.45223 0.23305
 C257 C 0.85787 0.42855 0.27918
 C258 C 0.85246 0.39944 0.23708
 C259 C 0.80919 0.40487 0.19998
 C260 C 0.81121 0.38118 0.24611
 C261 C 0.81461 0.43398 0.24208
 C262 C 0.81705 0.41050 0.28892
 C263 C 0.88516 0.44186 0.32299
 C264 C 0.90782 0.45297 0.35877
 C265 C 0.78227 0.39178 0.15560
 C266 C 0.76028 0.38111 0.11885
 H267 H 0.86329 0.42790 0.14923
 H268 H 0.87453 0.48160 0.22819
 H269 H 0.86833 0.38540 0.23554
 H270 H 0.79255 0.35181 0.25099
 H271 H 0.79874 0.44803 0.24364
 H272 H 0.80384 0.40555 0.33001
 C273 C 0.60581 0.19901 0.26134
 C274 C 0.56546 0.17335 0.27462
 C275 C 0.57301 0.14192 0.27887
 C276 C 0.61313 0.16715 0.26630
 C277 C 0.59746 0.19049 0.19954
 C278 C 0.60500 0.15905 0.20382
 C279 C 0.55733 0.16526 0.21213
 C280 C 0.56467 0.13341 0.21708
 C281 C 0.55932 0.11469 0.32273
 C282 C 0.54794 0.09206 0.35855
 C283 C 0.61101 0.21739 0.15514
 C284 C 0.62209 0.23937 0.11842
 H285 H 0.62287 0.22630 0.27904
 H286 H 0.54906 0.17891 0.30425
 H287 H 0.63591 0.16761 0.28910
 H288 H 0.62140 0.15346 0.17422
 H289 H 0.53454 0.16478 0.18936
 H290 H 0.54760 0.10611 0.19941
 C291 C 0.57177 0.42079 0.19070
 C292 C 0.54568 0.39747 0.23726
 C293 C 0.56967 0.42622 0.27963
 C294 C 0.59556 0.44974 0.23374
 C295 C 0.59392 0.40198 0.20035
 C296 C 0.61792 0.43074 0.24273
 C297 C 0.56803 0.37845 0.24625
 C298 C 0.59182 0.40742 0.28933
 C299 C 0.55604 0.43978 0.32345
 C300 C 0.54468 0.45104 0.35918
 C301 C 0.60728 0.38855 0.15592
 C302 C 0.61816 0.37755 0.11912
 H303 H 0.56367 0.42614 0.14966
 H304 H 0.51582 0.38395 0.23552
 H305 H 0.60671 0.47921 0.22910
 H306 H 0.64778 0.44427 0.24447
 H307 H 0.55686 0.34898 0.25090
 H308 H 0.59989 0.40209 0.33041
 C309 C 0.18846 0.56798 0.24249
 C310 C 0.18367 0.59173 0.28609
 C311 C 0.14276 0.57024 0.27644
 C312 C 0.14713 0.54628 0.23355
 C313 C 0.19118 0.59439 0.19707
 C314 C 0.15027 0.57289 0.18746
 C315 C 0.18682 0.61836 0.23996
 C316 C 0.14548 0.59665 0.23103
 C317 C 0.11562 0.55667 0.32037
 C318 C 0.09310 0.54537 0.35625
 C319 C 0.21800 0.60771 0.15263
 C320 C 0.23991 0.61855 0.11588
 H321 H 0.20644 0.55634 0.24671
 H322 H 0.19706 0.59931 0.32716
 H323 H 0.13050 0.51649 0.23142
 H324 H 0.13683 0.56529 0.14643
 H325 H 0.20344 0.64815 0.24209
 H326 H 0.12749 0.60827 0.22682
 C327 C 0.42568 0.84966 0.18776
 C328 C 0.40236 0.85505 0.23144
 C329 C 0.42863 0.85724 0.27673
 C330 C 0.45216 0.85227 0.23371
 C331 C 0.40351 0.80882 0.19743
 C332 C 0.42979 0.81100 0.24272
 C333 C 0.37997 0.81378 0.24045
 C334 C 0.40647 0.81640 0.28644
 C335 C 0.44272 0.88438 0.32060
 C336 C 0.45439 0.90691 0.35642
 C337 C 0.38965 0.78203 0.15301
 C338 C 0.37839 0.76015 0.11623
 H339 H 0.43342 0.86305 0.14669
 H340 H 0.39125 0.87348 0.22731
 H341 H 0.48201 0.86840 0.23144
 H342 H 0.44091 0.79259 0.24686
 H343 H 0.35013 0.79766 0.24272
 H344 H 0.39875 0.80305 0.32754
 C345 C 0.43337 0.61989 0.24131
 C346 C 0.40948 0.59340 0.28713
 C347 C 0.42825 0.57123 0.27780
 C348 C 0.45234 0.59750 0.23269
 C349 C 0.40501 0.59641 0.19803
 C350 C 0.42378 0.57424 0.18874
 C351 C 0.38091 0.57014 0.24315
 C352 C 0.39989 0.54775 0.23453
 C353 C 0.44128 0.55711 0.32191
 C354 C 0.45212 0.54538 0.35792
 C355 C 0.39211 0.61032 0.15337
 C356 C 0.38153 0.62163 0.11642
 H357 H 0.44699 0.64971 0.24359
 H358 H 0.40375 0.60110 0.32810
 H359 H 0.48186 0.60858 0.22890
 H360 H 0.42953 0.56652 0.14780
 H361 H 0.35139 0.55904 0.24694
 H362 H 0.38628 0.51794 0.23225
   
