data_POSCAR
  _audit_creation_date              2014-09-24
  _audit_creation_method            'ToBaCCo'
  _symmetry_space_group_name_H-M    'P1'
  _symmetry_Int_Tables_number       1
  _symmetry_cell_setting            triclinic
  loop_
  _symmetry_equiv_pos_as_xyz
 x,y,z
_cell_length_a 44.0770
_cell_length_b 41.3287
_cell_length_c 42.7158
_cell_angle_alpha 83.739000
_cell_angle_beta 95.040900
_cell_angle_gamma 95.108800
loop_
  _atom_site_label
  _atom_site_type_symbol
  _atom_site_fract_x
  _atom_site_fract_y
  _atom_site_fract_z
C1 C 0.28799 0.30373 0.24024
 H2 H 0.29133 0.30390 0.26562
 C3 C 0.30739 0.32369 0.22080
 H4 H 0.32552 0.33929 0.23150
 C5 C 0.26079 0.28230 0.19574
 H6 H 0.24313 0.26559 0.18604
 C7 C 0.27963 0.30184 0.17543
 H8 H 0.27586 0.30011 0.15026
 N9 N 0.26516 0.28367 0.22750
 C10 C 0.19998 0.26260 0.29985
 H11 H 0.19836 0.23618 0.30226
 C12 C 0.18257 0.27913 0.31774
 H13 H 0.16766 0.26515 0.33398
 C14 C 0.22118 0.31269 0.27532
 H15 H 0.23589 0.32570 0.25842
 C16 C 0.20418 0.33022 0.29270
 H17 H 0.20632 0.35664 0.28911
 Zn18 Zn 0.24157 0.25538 0.25567
 N19 N 0.21906 0.27950 0.27942
 C20 C 0.27088 0.22955 0.31440
 N21 N 0.26939 0.23051 0.28237
 C22 C 0.28870 0.21427 0.26782
 C23 C 0.31007 0.19543 0.28556
 C24 C 0.29195 0.21094 0.33312
 C25 C 0.19142 0.24099 0.21268
 C26 C 0.17117 0.22144 0.19429
 C27 C 0.19550 0.17408 0.21923
 C28 C 0.21531 0.19453 0.23704
 N29 N 0.21343 0.22741 0.23296
 H30 H 0.25583 0.24322 0.32553
 H31 H 0.28732 0.21586 0.24229
 H32 H 0.32500 0.18253 0.27336
 H33 H 0.29264 0.21032 0.35857
 H34 H 0.19008 0.26716 0.21029
 H35 H 0.15431 0.23286 0.17775
 H36 H 0.19786 0.14805 0.22248
 H37 H 0.23235 0.18403 0.25389
 C38 C 0.18460 0.31345 0.31436
 C39 C 0.30345 0.32277 0.18790
 C40 C 0.17335 0.18751 0.19711
 C41 C 0.31183 0.19343 0.31870
 C42 C 0.78851 0.80512 0.23950
 H43 H 0.79179 0.80546 0.26487
 C44 C 0.80808 0.82481 0.22003
 H45 H 0.82619 0.84034 0.23086
 C46 C 0.76135 0.78348 0.19514
 H47 H 0.74364 0.76677 0.18552
 C48 C 0.78032 0.80272 0.17476
 H49 H 0.77643 0.80066 0.14965
 N50 N 0.76566 0.78505 0.22686
 C51 C 0.70025 0.76381 0.29902
 H52 H 0.69864 0.73739 0.30126
 C53 C 0.68269 0.78018 0.31689
 H54 H 0.66767 0.76607 0.33295
 C55 C 0.72160 0.81406 0.27494
 H56 H 0.73644 0.82718 0.25823
 C57 C 0.70444 0.83143 0.29233
 H58 H 0.70658 0.85785 0.28892
 Zn59 Zn 0.74202 0.75682 0.25505
 N60 N 0.71947 0.78086 0.27882
 C61 C 0.77110 0.73074 0.31379
 N62 N 0.76975 0.73184 0.28175
 C63 C 0.78905 0.71558 0.26721
 C64 C 0.81025 0.69653 0.28497
 C65 C 0.79199 0.71191 0.33252
 C66 C 0.69182 0.74253 0.21210
 C67 C 0.67144 0.72301 0.19381
 C68 C 0.69568 0.67559 0.21875
 C69 C 0.71562 0.69601 0.23645
 N70 N 0.71383 0.72890 0.23234
 H71 H 0.75606 0.74442 0.32492
 H72 H 0.78777 0.71728 0.24168
 H73 H 0.82515 0.68358 0.27278
 H74 H 0.79256 0.71114 0.35798
 H75 H 0.69055 0.76872 0.20970
 H76 H 0.65456 0.73447 0.17731
 H77 H 0.69795 0.64954 0.22203
 H78 H 0.73266 0.68548 0.25328
 C79 C 0.68470 0.81449 0.31373
 C80 C 0.80436 0.82364 0.18706
 C81 C 0.67350 0.68906 0.19669
 C82 C 0.81183 0.69432 0.31811
 C83 C 0.79060 0.30461 0.74252
 H84 H 0.79412 0.30472 0.76790
 C85 C 0.80995 0.32450 0.72297
 H86 H 0.82824 0.33999 0.73358
 C87 C 0.76299 0.28339 0.69814
 H88 H 0.74519 0.26679 0.68852
 C89 C 0.78177 0.30287 0.67773
 H90 H 0.77780 0.30118 0.65256
 N91 N 0.76759 0.28469 0.72990
 C92 C 0.70258 0.26369 0.80239
 H93 H 0.70085 0.23728 0.80464
 C94 C 0.68510 0.28019 0.82024
 H95 H 0.67005 0.26617 0.83631
 C96 C 0.72403 0.31383 0.77818
 H97 H 0.73885 0.32687 0.76140
 C98 C 0.70697 0.33132 0.79554
 H99 H 0.70917 0.35774 0.79206
 Zn100 Zn 0.74399 0.25648 0.75812
 N101 N 0.72178 0.28063 0.78210
 C102 C 0.77322 0.22999 0.81660
 N103 N 0.77166 0.23120 0.78457
 C104 C 0.79071 0.21485 0.76985
 C105 C 0.81185 0.19555 0.78737
 C106 C 0.79403 0.21094 0.83517
 C107 C 0.69348 0.24276 0.71537
 C108 C 0.67289 0.22349 0.69706
 C109 C 0.69687 0.17576 0.72162
 C110 C 0.71704 0.19593 0.73935
 N111 N 0.71548 0.22886 0.73542
 H112 H 0.75837 0.24378 0.82786
 H113 H 0.78928 0.21666 0.74431
 H114 H 0.82640 0.18268 0.77467
 H115 H 0.79448 0.21035 0.86062
 H116 H 0.69240 0.26897 0.71313
 H117 H 0.65603 0.23516 0.68070
 H118 H 0.69897 0.14968 0.72473
 H119 H 0.73408 0.18519 0.75603
 C120 C 0.68719 0.31450 0.81697
 C121 C 0.80577 0.32365 0.69007
 C122 C 0.67472 0.18952 0.69972
 C123 C 0.81376 0.19304 0.82070
 C124 C 0.28931 0.80579 0.73912
 H125 H 0.29246 0.80610 0.76450
 C126 C 0.30901 0.82545 0.71977
 H127 H 0.32716 0.84099 0.73052
 C128 C 0.26239 0.78419 0.69458
 H129 H 0.24474 0.76750 0.68483
 C130 C 0.28153 0.80343 0.67435
 H131 H 0.27798 0.80149 0.64920
 N132 N 0.26650 0.78576 0.72632
 C133 C 0.20079 0.76443 0.79818
 H134 H 0.19912 0.73801 0.80030
 C135 C 0.18324 0.78075 0.81612
 H136 H 0.16817 0.76659 0.83209
 C137 C 0.22229 0.81473 0.77437
 H138 H 0.23720 0.82789 0.75775
 C139 C 0.20515 0.83205 0.79182
 H140 H 0.20736 0.85848 0.78855
 Zn141 Zn 0.24271 0.75751 0.75435
 N142 N 0.22008 0.78152 0.77809
 C143 C 0.27157 0.73134 0.81318
 N144 N 0.27034 0.73249 0.78115
 C145 C 0.28971 0.71624 0.76668
 C146 C 0.31084 0.69716 0.78450
 C147 C 0.29239 0.71248 0.83198
 C148 C 0.19273 0.74324 0.71108
 C149 C 0.17249 0.72371 0.69266
 C150 C 0.19660 0.67630 0.71781
 C151 C 0.21641 0.69672 0.73564
 N152 N 0.21462 0.72961 0.73148
 H153 H 0.25648 0.74501 0.82425
 H154 H 0.28853 0.71798 0.74115
 H155 H 0.32579 0.68423 0.77236
 H156 H 0.29285 0.71167 0.85743
 H157 H 0.19146 0.76943 0.70864
 H158 H 0.15571 0.73516 0.67604
 H159 H 0.19887 0.65025 0.72113
 H160 H 0.23335 0.68619 0.75259
 C161 C 0.18535 0.81505 0.81314
 C162 C 0.30539 0.82425 0.68689
 C163 C 0.17456 0.68976 0.69558
 C164 C 0.31228 0.69491 0.81764
 C165 C 0.03060 -0.03319 -0.02930
 C166 C 0.05023 -0.01148 -0.00724
 C167 C 0.03387 0.00643 0.00914
 C168 C -0.00090 0.00092 0.00193
 C169 C 0.00851 -0.05400 -0.00789
 C170 C -0.00801 -0.03619 0.00847
 C171 C 0.01047 -0.00993 -0.05037
 C172 C -0.00606 0.00797 -0.03416
 H173 H 0.07495 -0.01069 -0.00474
 H174 H -0.01430 0.01550 0.01522
 H175 H 0.00609 -0.08042 -0.00591
 H176 H 0.00925 -0.00819 -0.07593
 C177 C 0.03105 0.46763 0.47085
 C178 C 0.05078 0.48962 0.49256
 C179 C 0.03449 0.50771 0.50884
 C180 C -0.00030 0.50208 0.50187
 C181 C 0.00912 0.44702 0.49256
 C182 C -0.00732 0.46500 0.50881
 C183 C 0.01079 0.49065 0.44966
 C184 C -0.00567 0.50873 0.46576
 H185 H 0.07550 0.49046 0.49494
 H186 H -0.01365 0.51680 0.51508
 H187 H 0.00676 0.42059 0.49482
 H188 H 0.00944 0.49212 0.42411
 C189 C 0.53416 -0.02967 0.47169
 C190 C 0.55329 -0.00767 0.49398
 C191 C 0.53641 0.00983 0.51022
 C192 C 0.50175 0.00376 0.50263
 C193 C 0.51219 -0.05083 0.49281
 C194 C 0.49515 -0.03344 0.50901
 C195 C 0.51397 -0.00659 0.45046
 C196 C 0.49691 0.01090 0.46652
 H197 H 0.57801 -0.00625 0.49685
 H198 H 0.48793 0.01803 0.51580
 H199 H 0.51039 -0.07727 0.49465
 H200 H 0.51318 -0.00458 0.42491
 C201 C 0.53069 0.46774 -0.02877
 C202 C 0.55020 0.48956 -0.00674
 C203 C 0.53374 0.50754 0.00945
 C204 C 0.49899 0.50199 0.00209
 C205 C 0.50852 0.44702 -0.00741
 C206 C 0.49190 0.46488 0.00876
 C207 C 0.51063 0.49089 -0.05005
 C208 C 0.49399 0.50887 -0.03403
 H209 H 0.57492 0.49038 -0.00412
 H210 H 0.48550 0.51662 0.01524
 H211 H 0.50612 0.42059 -0.00533
 H212 H 0.50953 0.49252 -0.07560
 N213 N 0.13133 -0.16742 -0.13046
 C214 C 0.13346 -0.13433 -0.13348
 N215 N 0.15254 -0.11779 -0.15395
 N216 N 0.16901 -0.13387 -0.17090
 C217 C 0.16699 -0.16706 -0.16801
 N218 N 0.14780 -0.18349 -0.14742
 C219 C 0.11570 -0.11701 -0.11525
 C220 C 0.10078 -0.10241 -0.09998
 C221 C 0.08302 -0.08496 -0.08188
 N222 N 0.08603 -0.05188 -0.08421
 N223 N 0.06945 -0.03566 -0.06750
 C224 C 0.04929 -0.05195 -0.04788
 N225 N 0.04637 -0.08512 -0.04563
 N226 N 0.06295 -0.10134 -0.06234
 N227 N 0.13106 0.33176 0.37090
 C228 C 0.13315 0.36486 0.36745
 N229 N 0.15205 0.38112 0.34664
 N230 N 0.16837 0.36479 0.32979
 C231 C 0.16640 0.33159 0.33312
 N232 N 0.14739 0.31543 0.35404
 C233 C 0.11555 0.38247 0.38555
 C234 C 0.10076 0.39733 0.40070
 C235 C 0.08313 0.41507 0.41866
 N236 N 0.08614 0.44816 0.41592
 N237 N 0.06968 0.46464 0.43250
 C238 C 0.04963 0.44861 0.45240
 N239 N 0.04672 0.41543 0.45505
 N240 N 0.06318 0.39895 0.43848
 N241 N 0.65192 -0.11820 0.34637
 C242 C 0.63294 -0.13464 0.36701
 N243 N 0.63085 -0.16774 0.37021
 N244 N 0.64725 -0.18389 0.35326
 C245 C 0.66634 -0.16756 0.33251
 N246 N 0.66831 -0.13436 0.32943
 C247 C 0.61548 -0.11718 0.38540
 C248 C 0.60100 -0.10227 0.40082
 C249 C 0.58405 -0.08420 0.41915
 N250 N 0.55308 -0.08667 0.41602
 N251 N 0.53741 -0.06952 0.43278
 C252 C 0.55216 -0.04931 0.45324
 N253 N 0.58321 -0.04698 0.45631
 N254 N 0.59887 -0.06412 0.43956
 N255 N 0.65402 0.38204 -0.15117
 C256 C 0.63484 0.36570 -0.13068
 N257 N 0.63281 0.33261 -0.12727
 N258 N 0.64946 0.31635 -0.14387
 C259 C 0.66874 0.33258 -0.16447
 N260 N 0.67067 0.36578 -0.16775
 C261 C 0.61684 0.38322 -0.11291
 C262 C 0.60171 0.39798 -0.09803
 C263 C 0.58367 0.41558 -0.08037
 N264 N 0.56349 0.39933 -0.06088
 N265 N 0.54671 0.41568 -0.04453
 C266 C 0.54951 0.44886 -0.04709
 N267 N 0.56979 0.46502 -0.06666
 N268 N 0.58657 0.44867 -0.08302
 N269 N -0.14481 0.15213 -0.11273
 C270 C -0.12629 0.13505 -0.12725
 N271 N -0.12786 0.13766 -0.15920
 N272 N -0.14738 0.15672 -0.17616
 C273 C -0.16618 0.17397 -0.16190
 N274 N -0.16435 0.17122 -0.12972
 C275 C -0.10549 0.11403 -0.10923
 C276 C -0.08788 0.09592 -0.09503
 C277 C -0.06675 0.07386 -0.07926
 N278 N -0.05020 0.05720 -0.09639
 N279 N -0.03082 0.03635 -0.08202
 C280 C -0.02730 0.03139 -0.04998
 N281 N -0.04391 0.04818 -0.03288
 N282 N -0.06332 0.06906 -0.04727
 N283 N -0.12744 0.63798 0.34012
 C284 C -0.12624 0.63509 0.37208
 N285 N -0.14520 0.65175 0.38651
 N286 N -0.16480 0.67072 0.36942
 C287 C -0.16613 0.67367 0.33731
 N288 N -0.14700 0.65692 0.32306
 C289 C -0.10541 0.61418 0.39019
 C290 C -0.08775 0.59616 0.40448
 C291 C -0.06658 0.57422 0.42035
 N292 N -0.06297 0.56977 0.45235
 N293 N -0.04350 0.54901 0.46684
 C294 C -0.02699 0.53200 0.44983
 N295 N -0.03069 0.53661 0.41779
 N296 N -0.05013 0.55734 0.40332
 N297 N 0.37319 0.13785 0.34067
 C298 C 0.37465 0.13525 0.37264
 N299 N 0.35563 0.15184 0.38708
 N300 N 0.33574 0.17045 0.36999
 C301 C 0.33415 0.17311 0.33788
 N302 N 0.35333 0.15643 0.32362
 C303 C 0.39583 0.11476 0.39076
 C304 C 0.41378 0.09709 0.40506
 C305 C 0.43530 0.07555 0.42098
 N306 N 0.43847 0.07069 0.45297
 N307 N 0.45820 0.05023 0.46750
 C308 C 0.47540 0.03395 0.45054
 N309 N 0.47214 0.03898 0.41850
 N310 N 0.45245 0.05940 0.40399
 N311 N 0.35496 0.65221 -0.11384
 C312 C 0.37399 0.63556 -0.12819
 N313 N 0.37293 0.63850 -0.16016
 N314 N 0.35343 0.65747 -0.17728
 C315 C 0.33424 0.67422 -0.16310
 N316 N 0.33544 0.67121 -0.13100
 C317 C 0.39473 0.61460 -0.11001
 C318 C 0.41232 0.59655 -0.09566
 C319 C 0.43340 0.57455 -0.07970
 N320 N 0.45006 0.55782 -0.09665
 N321 N 0.46941 0.53703 -0.08210
 C322 C 0.47279 0.53222 -0.05005
 N323 N 0.45607 0.54908 -0.03313
 N324 N 0.43669 0.56990 -0.04770
 N325 N -0.13187 -0.12176 0.15998
 C326 C -0.13526 -0.12392 0.12842
 N327 N -0.15899 -0.14309 0.11634
 N328 N -0.17868 -0.15971 0.13526
 C329 C -0.17539 -0.15788 0.16701
 N330 N -0.15159 -0.13839 0.17890
 C331 C -0.11333 -0.10723 0.10813
 C332 C -0.09477 -0.09396 0.09083
 C333 C -0.07255 -0.07905 0.06997
 N334 N -0.06737 -0.04611 0.06537
 N335 N -0.04678 -0.03246 0.04583
 C336 C -0.03070 -0.05127 0.03022
 N337 N -0.03599 -0.08427 0.03494
 N338 N -0.05654 -0.09791 0.05446
 N339 N -0.12952 0.37914 0.66171
 C340 C -0.13349 0.37761 0.63006
 N341 N -0.15757 0.35887 0.61804
 N342 N -0.17706 0.34209 0.63707
 C343 C -0.17317 0.34337 0.66885
 N344 N -0.14903 0.36234 0.68075
 C345 C -0.11175 0.39439 0.60961
 C346 C -0.09336 0.40768 0.59215
 C347 C -0.07132 0.42250 0.57106
 N348 N -0.06628 0.45545 0.56614
 N349 N -0.04587 0.46899 0.54635
 C350 C -0.02982 0.45007 0.53083
 N351 N -0.03497 0.41709 0.53588
 N352 N -0.05535 0.40355 0.55563
 N353 N 0.37077 -0.12081 0.65929
 C354 C 0.36745 -0.12278 0.62769
 N355 N 0.34357 -0.14164 0.61543
 N356 N 0.32367 -0.15813 0.63420
 C357 C 0.32692 -0.15639 0.66593
 N358 N 0.35085 -0.13730 0.67806
 C359 C 0.38950 -0.10609 0.60754
 C360 C 0.40814 -0.09269 0.59041
 C361 C 0.43044 -0.07745 0.56978
 N362 N 0.43522 -0.04447 0.56528
 N363 N 0.45586 -0.03047 0.54597
 C364 C 0.47241 -0.04895 0.53051
 N365 N 0.46752 -0.08199 0.53513
 N366 N 0.44690 -0.09599 0.55442
 N367 N 0.36815 0.37856 0.15999
 C368 C 0.36450 0.37691 0.12835
 N369 N 0.34062 0.35799 0.11617
 N370 N 0.32103 0.34115 0.13505
 C371 C 0.32460 0.34255 0.16683
 N372 N 0.34853 0.36170 0.17888
 C373 C 0.38637 0.39376 0.10809
 C374 C 0.40491 0.40713 0.09084
 C375 C 0.42715 0.42206 0.07003
 N376 N 0.43226 0.45501 0.06536
 N377 N 0.45291 0.46866 0.04588
 C378 C 0.46912 0.44984 0.03043
 N379 N 0.46391 0.41685 0.03523
 N380 N 0.44329 0.40321 0.05468
 N381 N 0.13918 0.11473 0.15984
 C382 C 0.11932 0.12789 0.13696
 N383 N 0.11662 0.16051 0.13417
 N384 N 0.13339 0.17941 0.15362
 C385 C 0.15350 0.16638 0.17650
 N386 N 0.15593 0.13362 0.17925
 C387 C 0.10266 0.10766 0.11500
 C388 C 0.08959 0.09026 0.09635
 C389 C 0.07515 0.06911 0.07397
 N390 N 0.04429 0.06560 0.06879
 N391 N 0.03113 0.04570 0.04809
 C392 C 0.04836 0.02864 0.03191
 N393 N 0.07926 0.03229 0.03720
 N394 N 0.09241 0.05216 0.05786
 N395 N 0.14017 0.61692 0.65855
 C396 C 0.12040 0.63008 0.63559
 N397 N 0.11785 0.66274 0.63263
 N398 N 0.13466 0.68166 0.65202
 C399 C 0.15468 0.66863 0.67500
 N400 N 0.15697 0.63584 0.67791
 C401 C 0.10366 0.60979 0.61372
 C402 C 0.09053 0.59231 0.59519
 C403 C 0.07601 0.57102 0.57298
 N404 N 0.04514 0.56742 0.56798
 N405 N 0.03190 0.54733 0.54750
 C406 C 0.04907 0.53017 0.53134
 N407 N 0.07998 0.53391 0.53644
 N408 N 0.09321 0.55397 0.55689
 N409 N 0.63953 0.11720 0.66236
 C410 C 0.61986 0.13068 0.63949
 N411 N 0.61758 0.16338 0.63676
 N412 N 0.63457 0.18203 0.65627
 C413 C 0.65451 0.16867 0.67914
 N414 N 0.65652 0.13584 0.68183
 C415 C 0.60317 0.11073 0.61731
 C416 C 0.59025 0.09350 0.59844
 C417 C 0.57623 0.07247 0.57577
 N418 N 0.54541 0.06851 0.57035
 N419 N 0.53268 0.04865 0.54941
 C420 C 0.55035 0.03209 0.53321
 N421 N 0.58120 0.03620 0.53874
 N422 N 0.59391 0.05602 0.55963
 N423 N 0.63884 0.61626 0.15978
 C424 C 0.61900 0.62945 0.13691
 N425 N 0.61646 0.66211 0.13401
 N426 N 0.63338 0.68101 0.15334
 C427 C 0.65348 0.66795 0.17622
 N428 N 0.65575 0.63515 0.17908
 C429 C 0.60224 0.60921 0.11502
 C430 C 0.58915 0.59177 0.09643
 C431 C 0.57477 0.57054 0.07411
 N432 N 0.54392 0.56701 0.06883
 N433 N 0.53082 0.54701 0.04819
 C434 C 0.54813 0.52987 0.03216
 N435 N 0.57901 0.53354 0.03754
 N436 N 0.59209 0.55351 0.05815
   
