data_POSCAR
  _audit_creation_date              2014-09-24
  _audit_creation_method            'ToBaCCo'
  _symmetry_space_group_name_H-M    'P1'
  _symmetry_Int_Tables_number       1
  _symmetry_cell_setting            triclinic
  loop_
  _symmetry_equiv_pos_as_xyz
 x,y,z
_cell_length_a 21.5205
_cell_length_b 20.9239
_cell_length_c 36.3328
_cell_angle_alpha 81.239500
_cell_angle_beta 101.181400
_cell_angle_gamma 80.624100
loop_
  _atom_site_label
  _atom_site_type_symbol
  _atom_site_fract_x
  _atom_site_fract_y
  _atom_site_fract_z
O1 O -0.02149 0.57300 0.96484
 O2 O -0.04738 0.43086 1.03111
 O3 O -0.03133 0.54986 1.03615
 O4 O -0.04730 0.45595 0.95854
 O5 O 0.05802 0.41725 0.97371
 O6 O 0.07386 0.51060 1.05244
 O7 O 0.05786 0.39170 1.04542
 O8 O 0.08346 0.53219 0.98148
 Cu9 Cu -0.04743 0.50656 0.99598
 Cu10 Cu 0.07876 0.45924 1.01486
 C11 C 0.03611 0.57626 0.96215
 C12 C 0.00149 0.38664 1.04918
 C13 C 0.02360 0.54596 1.05771
 C14 C 0.00229 0.42017 0.95305
 O15 O 0.57615 -0.03114 0.53650
 O16 O 0.41997 -0.02165 0.47101
 O17 O 0.54014 -0.04584 0.46637
 O18 O 0.45540 -0.00974 0.54159
 O19 O 0.44562 0.09714 0.52106
 O20 O 0.53794 0.06039 0.44845
 O21 O 0.41485 0.08434 0.45031
 O22 O 0.56711 0.07646 0.51954
 Cu23 Cu 0.49866 -0.03776 0.50583
 Cu24 Cu 0.49093 0.09031 0.48275
 C25 C 0.59783 0.02117 0.53963
 C26 C 0.39079 0.03293 0.44948
 C27 C 0.55425 0.00078 0.44494
 C28 C 0.43506 0.04974 0.54375
 C29 C -0.06994 -0.12436 0.23519
 C30 C -0.12646 -0.10778 0.25401
 C31 C -0.12533 -0.05072 0.27094
 C32 C -0.06776 -0.01799 0.26594
 C33 C -0.07268 -0.06207 0.20659
 C34 C -0.07163 -0.00461 0.22285
 C35 C -0.00996 -0.13020 0.26665
 C36 C -0.00750 -0.07298 0.28273
 H37 H -0.16275 -0.13780 0.25457
 H38 H -0.06786 0.02700 0.27860
 H39 H -0.07875 -0.06210 0.17634
 H40 H 0.02816 -0.17385 0.27547
 C41 C 0.13047 0.03151 0.73152
 C42 C 0.12440 -0.02503 0.76167
 C43 C 0.06900 -0.01117 0.77741
 C44 C 0.02811 0.05827 0.76074
 C45 C 0.06676 0.04656 0.70204
 C46 C 0.01140 0.06022 0.71750
 C47 C 0.13004 0.09048 0.75135
 C48 C 0.07568 0.10525 0.76728
 H49 H 0.15793 -0.07181 0.76857
 H50 H -0.01531 0.06862 0.77269
 H51 H 0.06490 0.04741 0.67200
 H52 H 0.16978 0.11650 0.75491
 C53 C 0.02927 -0.41661 0.08892
 C54 C -0.02537 -0.38632 0.09967
 C55 C -0.02208 -0.34347 0.12821
 N56 N -0.07651 -0.31903 0.13922
 N57 N -0.07513 -0.27750 0.16363
 C58 C -0.01920 -0.25875 0.17782
 N59 N 0.03527 -0.28341 0.16693
 N60 N 0.03395 -0.32512 0.14264
 C61 C -0.01734 -0.20965 0.20271
 C62 C -0.07041 -0.18392 0.21653
 H63 H -0.07269 -0.39319 0.08616
 H64 H 0.02665 -0.19060 0.20891
 H65 H 0.07701 -0.41265 0.10351
 H66 H -0.11514 -0.20146 0.20964
 C67 C -0.00509 0.33048 0.07280
 C68 C -0.06267 0.32036 0.08257
 C69 C -0.06530 0.25560 0.10382
 N70 N -0.10112 0.25017 0.13065
 N71 N -0.10130 0.19108 0.15056
 C72 C -0.06631 0.13552 0.14390
 N73 N -0.03161 0.14104 0.11660
 N74 N -0.03068 0.19997 0.09716
 C75 C -0.06620 0.06973 0.16476
 C76 C -0.07424 0.05851 0.20228
 H77 H -0.10478 0.35992 0.07562
 H78 H -0.05304 0.02882 0.15103
 H79 H 0.03779 0.29209 0.08426
 H80 H -0.07928 0.09989 0.21686
 C81 C 0.39744 0.06453 0.57218
 C82 C 0.38416 0.01475 0.59791
 C83 C 0.33963 0.02873 0.62297
 N84 N 0.32772 -0.02153 0.64723
 N85 N 0.28515 -0.00996 0.66880
 C86 C 0.25287 0.05236 0.66680
 N87 N 0.26507 0.10262 0.64271
 N88 N 0.30768 0.09107 0.62121
 C89 C 0.20336 0.06593 0.68881
 C90 C 0.18798 0.01689 0.71406
 H91 H 0.40494 -0.03634 0.59870
 H92 H 0.17616 0.11598 0.68389
 H93 H 0.37763 0.11572 0.57178
 H94 H 0.21382 -0.03360 0.71846
 C95 C -0.34354 0.01677 0.56506
 C96 C -0.32036 0.07208 0.57445
 C97 C -0.25533 0.06549 0.59823
 N98 N -0.24201 0.11039 0.62045
 N99 N -0.18248 0.10526 0.64127
 C100 C -0.13410 0.05560 0.64006
 N101 N -0.14734 0.01127 0.61754
 N102 N -0.20694 0.01579 0.59722
 C103 C -0.06750 0.05063 0.66101
 C104 C -0.05237 0.06908 0.69657
 H105 H -0.35068 0.12083 0.56495
 H106 H -0.02999 0.02502 0.64958
 H107 H -0.31542 -0.03190 0.57857
 H108 H -0.09142 0.08537 0.70993
 C109 C 0.05062 -0.36967 0.93645
 C110 C 0.00578 -0.31350 0.91631
 C111 C 0.02592 -0.26213 0.89121
 N112 N -0.01519 -0.20400 0.87454
 N113 N 0.00357 -0.15782 0.85196
 C114 C 0.06410 -0.16827 0.84525
 N115 N 0.10488 -0.22637 0.86179
 N116 N 0.08624 -0.27226 0.88435
 C117 C 0.08623 -0.11941 0.81987
 C118 C 0.04990 -0.05628 0.80363
 H119 H -0.04380 -0.30679 0.91939
 H120 H 0.13337 -0.13482 0.81433
 H121 H 0.10044 -0.37435 0.93394
 H122 H 0.00439 -0.04124 0.81142
 C123 C -0.00588 0.38084 0.92281
 C124 C 0.04670 0.34544 0.91263
 C125 C 0.03911 0.30206 0.88447
 N126 N 0.09113 0.27640 0.87174
 N127 N 0.08573 0.23574 0.84697
 C128 C 0.02818 0.21883 0.83411
 N129 N -0.02387 0.24422 0.84701
 N130 N -0.01857 0.28527 0.87165
 C131 C 0.02268 0.17217 0.80760
 C132 C 0.07258 0.15434 0.78944
 H133 H 0.09524 0.34954 0.92571
 H134 H -0.02076 0.15211 0.80288
 H135 H -0.05455 0.37919 0.90854
 H136 H 0.11295 0.17950 0.79331
 C137 C -0.40988 -0.01604 0.41606
 C138 C -0.37921 0.02790 0.39696
 C139 C -0.33937 0.00710 0.37052
 N140 N -0.29928 0.04535 0.35840
 N141 N -0.26143 0.02562 0.33556
 C142 C -0.26258 -0.03295 0.32386
 N143 N -0.30322 -0.07071 0.33561
 N144 N -0.34075 -0.05117 0.35856
 C145 C -0.22005 -0.05690 0.29954
 C146 C -0.16974 -0.02638 0.29156
 H147 H -0.38158 0.07722 0.40305
 H148 H -0.22736 -0.10173 0.28955
 H149 H -0.40447 -0.06633 0.41131
 H150 H -0.16310 0.01756 0.30296
 C151 C 0.32796 0.03722 0.42352
 C152 C 0.30048 -0.01821 0.42068
 C153 C 0.23732 -0.01561 0.39560
 N154 N 0.21767 -0.07269 0.39070
 N155 N 0.16102 -0.07182 0.36786
 C156 C 0.12157 -0.01380 0.34920
 N157 N 0.14084 0.04344 0.35444
 N158 N 0.19777 0.04258 0.37719
 C159 C 0.05983 -0.01282 0.32287
 C160 C 0.04716 -0.06988 0.30990
 H161 H 0.32668 -0.06593 0.43704
 H162 H 0.02702 0.03410 0.31184
 H163 H 0.30285 0.08484 0.40654
 H164 H 0.08397 -0.11451 0.31989
   
