data_POSCAR
  _audit_creation_date              2014-09-24
  _audit_creation_method            'ToBaCCo'
  _symmetry_space_group_name_H-M    'P1'
  _symmetry_Int_Tables_number       1
  _symmetry_cell_setting            triclinic
  loop_
  _symmetry_equiv_pos_as_xyz
 x,y,z
_cell_length_a 48.2388
_cell_length_b 47.9786
_cell_length_c 38.9411
_cell_angle_alpha 90.322100
_cell_angle_beta 89.340700
_cell_angle_gamma 119.162900
loop_
  _atom_site_label
  _atom_site_type_symbol
  _atom_site_fract_x
  _atom_site_fract_y
  _atom_site_fract_z
C1 C -0.08338 0.46352 -0.03501
 C2 C -0.08136 0.43607 -0.03536
 C3 C -0.05044 0.44461 -0.02657
 N4 N -0.03358 0.47630 -0.02025
 C5 C -0.05366 0.48791 -0.02597
 C6 C -0.03731 0.42388 -0.02786
 C7 C -0.01114 0.42976 -0.00700
 C8 C 0.00839 0.41622 -0.01109
 C9 C 0.03044 0.42823 0.01479
 C10 C 0.02400 0.44905 0.03367
 N11 N -0.00140 0.44973 0.02032
 C12 C 0.04060 0.46595 0.06319
 C13 C 0.03863 0.49254 0.07612
 C14 C 0.04983 0.50666 0.10780
 C15 C 0.04717 0.53383 0.10868
 C16 C 0.03430 0.53535 0.07758
 N17 N 0.02895 0.51002 0.05772
 C18 C 0.03124 0.56166 0.06636
 C19 C 0.01406 0.56052 0.03689
 C20 C 0.01732 0.58688 0.01907
 C21 C -0.00388 0.57541 -0.00760
 C22 C -0.01998 0.54236 -0.00476
 N23 N -0.00875 0.53357 0.02240
 C24 C -0.04448 0.52077 -0.02647
 H25 H -0.10416 0.46551 -0.04127
 H26 H -0.10029 0.41253 -0.04193
 H27 H -0.01791 0.51054 0.03219
 H28 H 0.00726 0.39981 -0.03090
 H29 H 0.04933 0.42263 0.01892
 H30 H 0.05955 0.49859 0.12790
 H31 H 0.05454 0.55092 0.12951
 H32 H -0.00666 0.58983 -0.02705
 H33 H -0.01310 0.46117 0.03097
 H34 H 0.03370 0.61175 0.02431
 C35 C 0.45578 0.54845 0.02216
 C36 C 0.48217 0.57807 0.02099
 C37 C 0.50650 0.57392 0.00717
 N38 N 0.49595 0.54275 0.00004
 C39 C 0.46496 0.52709 0.00943
 C40 C 0.53860 0.59804 0.00522
 C41 C 0.56169 0.59489 -0.01437
 C42 C 0.59424 0.61497 -0.01258
 C43 C 0.60805 0.60386 -0.03624
 C44 C 0.58349 0.57736 -0.05164
 N45 N 0.55538 0.57239 -0.03860
 C46 C 0.58694 0.55883 -0.07776
 C47 C 0.56194 0.52868 -0.08723
 C48 C 0.56137 0.51287 -0.11730
 C49 C 0.53588 0.48283 -0.11457
 C50 C 0.52203 0.48111 -0.08265
 N51 N 0.53776 0.50936 -0.06611
 C52 C 0.49716 0.45295 -0.06790
 C53 C 0.47782 0.45452 -0.04104
 C54 C 0.45807 0.42947 -0.01955
 C55 C 0.44344 0.44094 0.00244
 C56 C 0.45508 0.47281 -0.00576
 N57 N 0.47582 0.48087 -0.03237
 C58 C 0.44617 0.49350 0.01092
 H59 H 0.43272 0.54310 0.03228
 H60 H 0.48353 0.60009 0.02999
 H61 H 0.48612 0.50249 -0.04559
 H62 H 0.60672 0.63540 0.00408
 H63 H 0.63322 0.61400 -0.04138
 H64 H 0.57801 0.52190 -0.13863
 H65 H 0.52872 0.46410 -0.13360
 H66 H 0.42672 0.42754 0.02268
 H67 H 0.53305 0.55606 -0.04773
 H68 H 0.45486 0.40553 -0.01921
 C69 C 0.53485 1.09455 -0.04255
 C70 C 0.56266 1.09354 -0.04536
 C71 C 0.55787 1.06622 -0.02839
 N72 N 0.52774 1.05009 -0.01601
 C73 C 0.51342 1.06717 -0.02508
 C74 C 0.58014 1.05510 -0.02721
 C75 C 0.57753 1.03154 -0.00385
 C76 C 0.59522 1.01582 -0.00518
 C77 C 0.58685 0.99645 0.02338
 C78 C 0.56452 1.00113 0.04141
 N79 N 0.55927 1.02280 0.02485
 C80 C 0.55034 0.98645 0.07293
 C81 C 0.52383 0.98748 0.08716
 C82 C 0.51198 0.97755 0.12007
 C83 C 0.48376 0.97788 0.12211
 C84 C 0.47927 0.98782 0.09030
 N85 N 0.50387 0.99387 0.06905
 C86 C 0.45095 0.98680 0.07969
 C87 C 0.44912 1.00154 0.04914
 C88 C 0.42116 0.99499 0.03297
 C89 C 0.42952 1.01478 0.00488
 C90 C 0.46239 1.03315 0.00482
 N91 N 0.47417 1.02479 0.03185
 C92 C 0.48071 1.05726 -0.01953
 H93 H 0.53087 1.11327 -0.05260
 H94 H 0.58392 1.11106 -0.05841
 H95 H 0.49773 1.03631 0.03972
 H96 H 0.61255 1.01822 -0.02449
 H97 H 0.59632 0.98092 0.03020
 H98 H 0.52218 0.96994 0.14013
 H99 H 0.46781 0.97057 0.14407
 H100 H 0.41320 1.01522 -0.01366
 H101 H 0.54633 1.03339 0.03420
 H102 H 0.39721 0.97751 0.04036
 C103 C 0.87704 0.40585 0.48408
 C104 C 0.88014 0.43582 0.48395
 C105 C 0.91162 0.45683 0.47588
 N106 N 0.92776 0.44070 0.47067
 C107 C 0.90670 0.40955 0.47605
 C108 C 0.92638 0.49028 0.48021
 C109 C 0.95656 0.51096 0.46595
 C110 C 0.97630 0.54230 0.47587
 C111 C 1.00366 0.55337 0.45633
 C112 C 0.99968 0.52851 0.43489
 N113 N 0.97075 0.50295 0.44065
 C114 C 1.02250 0.52887 0.41147
 C115 C 1.01902 0.50008 0.39759
 C116 C 1.03264 0.49781 0.36692
 C117 C 1.02844 0.46752 0.36552
 C118 C 1.01248 0.45234 0.39545
 N119 N 1.00622 0.47210 0.41488
 C120 C 1.00857 0.42273 0.40701
 C121 C 0.98443 0.40405 0.43093
 C122 C 0.98353 0.37997 0.45123
 C123 C 0.95737 0.36986 0.47259
 C124 C 0.94298 0.38793 0.46448
 N125 N 0.95939 0.40833 0.43875
 C126 C 0.91553 0.38572 0.48051
 H127 H 0.85586 0.38399 0.49115
 H128 H 0.86184 0.44174 0.49092
 H129 H 0.95314 0.42351 0.42606
 H130 H 0.97194 0.55552 0.49581
 H131 H 1.02443 0.57667 0.45858
 H132 H 1.04530 0.51650 0.34820
 H133 H 1.03731 0.45806 0.34553
 H134 H 0.95041 0.35192 0.49242
 H135 H 0.96058 0.48161 0.42688
 H136 H 1.00058 0.37146 0.45163
 C137 C 0.50394 0.46492 0.62269
 C138 C 0.53192 0.49312 0.62435
 C139 C 0.53267 0.51106 0.59620
 N140 N 0.50587 0.49497 0.57772
 C141 C 0.48834 0.46674 0.59386
 C142 C 0.55938 0.53983 0.58555
 C143 C 0.55789 0.55932 0.55938
 C144 C 0.58393 0.58311 0.54216
 C145 C 0.57234 0.59626 0.51887
 C146 C 0.53956 0.58020 0.52263
 N147 N 0.53099 0.55800 0.54767
 C148 C 0.51855 0.58665 0.50365
 C149 C 0.48534 0.56603 0.50322
 C150 C 0.46375 0.57372 0.48896
 C151 C 0.43502 0.54631 0.48896
 C152 C 0.43981 0.52270 0.50357
 N153 N 0.47067 0.53486 0.51223
 C154 C 0.41695 0.48988 0.50471
 C155 C 0.42197 0.46680 0.52177
 C156 C 0.40394 0.43402 0.51741
 C157 C 0.41650 0.42024 0.53864
 C158 C 0.44152 0.44495 0.55573
 N159 N 0.44435 0.47318 0.54573
 C160 C 0.46042 0.44106 0.58060
 H161 H 0.49622 0.44501 0.64022
 H162 H 0.55010 0.49927 0.64348
 H163 H 0.45897 0.49535 0.55668
 H164 H 0.60868 0.59000 0.54562
 H165 H 0.58646 0.61528 0.50101
 H166 H 0.46844 0.59652 0.47861
 H167 H 0.41341 0.54403 0.47832
 H168 H 0.40804 0.39492 0.54127
 H169 H 0.50832 0.54450 0.55811
 H170 H 0.38394 0.42125 0.50058
 C171 C 0.54074 0.11048 0.53673
 C172 C 0.56693 0.10665 0.53987
 C173 C 0.55845 0.07632 0.52785
 N174 N 0.52810 0.06173 0.51684
 C175 C 0.51721 0.08262 0.52218
 C176 C 0.57736 0.06133 0.53072
 C177 C 0.57004 0.03254 0.51353
 C178 C 0.58299 0.01309 0.52106
 C179 C 0.57078 -0.01161 0.49776
 C180 C 0.55086 -0.00645 0.47643
 N181 N 0.55050 0.02046 0.48631
 C182 C 0.53383 -0.02601 0.44831
 C183 C 0.50767 -0.02432 0.43429
 C184 C 0.49553 -0.03484 0.40173
 C185 C 0.46877 -0.03201 0.39936
 C186 C 0.46567 -0.01933 0.43028
 N187 N 0.48964 -0.01428 0.45160
 C188 C 0.43972 -0.01456 0.43900
 C189 C 0.44250 0.00826 0.46388
 C190 C 0.41739 0.01067 0.47851
 C191 C 0.43034 0.03630 0.50050
 C192 C 0.46298 0.04838 0.49944
 N193 N 0.47019 0.03141 0.47670
 C194 C 0.48529 0.07532 0.51793
 H195 H 0.53923 0.13124 0.54503
 H196 H 0.58940 0.12398 0.55068
 H197 H 0.49285 0.03696 0.46821
 H198 H 0.59934 0.01619 0.54141
 H199 H 0.57575 -0.03129 0.49691
 H200 H 0.50491 -0.04378 0.38176
 H201 H 0.45334 -0.03841 0.37735
 H202 H 0.41702 0.04481 0.51559
 H203 H 0.53978 0.03149 0.47319
 H204 H 0.39229 -0.00445 0.47400
 O205 O 0.21406 0.43977 0.20999
 O206 O 0.25921 0.42573 0.27727
 O207 O 0.20652 0.42894 0.27611
 O208 O 0.26747 0.43708 0.21158
 O209 O 0.29532 0.48819 0.22485
 O210 O 0.23317 0.48105 0.28400
 O211 O 0.28387 0.47729 0.28945
 O212 O 0.24292 0.49164 0.21843
 Cu213 Cu 0.23402 0.42764 0.24249
 Cu214 Cu 0.26645 0.48978 0.25480
 C215 C 0.22081 0.46819 0.20276
 C216 C 0.27883 0.44918 0.29513
 C217 C 0.20974 0.45397 0.29112
 C218 C 0.29245 0.46403 0.20850
 O219 O 0.55743 0.80366 0.29201
 O220 O 0.57211 0.75680 0.22569
 O221 O 0.56370 0.80692 0.22492
 O222 O 0.56459 0.75275 0.29212
 O223 O 0.51305 0.72149 0.28491
 O224 O 0.51214 0.77519 0.21949
 O225 O 0.52030 0.72576 0.22005
 O226 O 0.50591 0.77206 0.28633
 Cu227 Cu 0.56966 0.78334 0.25932
 Cu228 Cu 0.50763 0.74580 0.25224
 C229 C 0.52905 0.79576 0.30053
 C230 C 0.54860 0.73297 0.21218
 C231 C 0.53754 0.79994 0.21057
 C232 C 0.53890 0.72731 0.29895
 O233 O 0.18779 0.75992 0.28650
 O234 O 0.25325 0.81185 0.22774
 O235 O 0.19769 0.76104 0.22034
 O236 O 0.24522 0.80969 0.29409
 O237 O 0.26492 0.77701 0.29945
 O238 O 0.22032 0.73084 0.22552
 O239 O 0.27443 0.78047 0.23366
 O240 O 0.20873 0.72824 0.29093
 Cu241 Cu 0.21878 0.78880 0.25683
 Cu242 Cu 0.24413 0.75100 0.26319
 C243 C 0.18681 0.73480 0.29823
 C244 C 0.27493 0.80490 0.22056
 C245 C 0.20158 0.73791 0.21014
 C246 C 0.26356 0.80160 0.30904
 O247 O 0.81574 0.54178 0.69867
 O248 O 0.77112 0.55317 0.77056
 O249 O 0.82315 0.54891 0.76503
 O250 O 0.76360 0.54645 0.70425
 O251 O 0.73623 0.49413 0.71047
 O252 O 0.79526 0.49642 0.77023
 O253 O 0.74412 0.50087 0.77721
 O254 O 0.78768 0.48958 0.70615
 Cu255 Cu 0.79612 0.55288 0.73389
 Cu256 Cu 0.76260 0.49003 0.74165
 C257 C 0.80983 0.51360 0.69108
 C258 C 0.75017 0.52869 0.78633
 C259 C 0.81956 0.52281 0.77720
 C260 C 0.73974 0.51971 0.69705
 O261 O 0.38283 0.21732 0.73262
 O262 O 0.40101 0.16863 0.79268
 O263 O 0.39337 0.21918 0.79783
 O264 O 0.38910 0.16561 0.72736
 O265 O 0.43979 0.19760 0.71517
 O266 O 0.44485 0.24855 0.78813
 O267 O 0.45185 0.19800 0.77930
 O268 O 0.43423 0.24777 0.72304
 Cu269 Cu 0.38636 0.18954 0.76370
 Cu270 Cu 0.44783 0.22610 0.75064
 C271 C 0.40578 0.24121 0.71797
 C272 C 0.42966 0.17459 0.79509
 C273 C 0.41991 0.24331 0.80470
 C274 C 0.41374 0.17251 0.70934
 O275 O 0.82003 0.25356 0.77669
 O276 O 0.75429 0.19426 0.72337
 O277 O 0.80649 0.24792 0.71135
 O278 O 0.76728 0.20006 0.78919
 O279 O 0.74451 0.22980 0.79836
 O280 O 0.77921 0.27352 0.71861
 O281 O 0.72749 0.21982 0.73403
 O282 O 0.79487 0.28154 0.78126
 Cu283 Cu 0.78950 0.22106 0.74940
 Cu284 Cu 0.75852 0.25348 0.75863
 C285 C 0.81892 0.27822 0.78700
 C286 C 0.72942 0.19677 0.72025
 C287 C 0.79984 0.26939 0.70229
 C288 C 0.74979 0.20749 0.80736
 C289 C 0.09434 0.47907 0.08504
 C290 C 0.11415 0.47143 0.10425
 C291 C 0.10192 0.44047 0.11826
 C292 C 0.07013 0.41762 0.11246
 C293 C 0.05038 0.42567 0.09391
 C294 C 0.06219 0.45654 0.08050
 C295 C 0.12138 0.43314 0.13857
 C296 C 0.15265 0.45662 0.14577
 C297 C 0.16485 0.48754 0.13161
 C298 C 0.14568 0.49460 0.11057
 C299 C 0.19578 0.51118 0.13953
 C300 C 0.21416 0.50463 0.16209
 C301 C 0.20221 0.47414 0.17669
 C302 C 0.17159 0.45002 0.16784
 H303 H 0.10358 0.50287 0.07451
 H304 H 0.06034 0.39377 0.12297
 H305 H 0.02566 0.40803 0.09063
 H306 H 0.11192 0.40946 0.14954
 H307 H 0.15500 0.51840 0.09995
 H308 H 0.20549 0.53498 0.12889
 H309 H 0.23769 0.52357 0.16840
 H310 H 0.16201 0.42650 0.17920
 C311 C 0.54835 0.62195 0.06357
 C312 C 0.55346 0.64688 0.08603
 C313 C 0.55932 0.67664 0.07266
 C314 C 0.56109 0.68118 0.03693
 C315 C 0.55568 0.65601 0.01469
 C316 C 0.54863 0.62614 0.02798
 C317 C 0.56220 0.70087 0.09525
 C318 C 0.55874 0.69541 0.13085
 C319 C 0.55382 0.66586 0.14404
 C320 C 0.55153 0.64197 0.12156
 C321 C 0.55003 0.66015 0.17946
 C322 C 0.54973 0.68291 0.20162
 C323 C 0.55366 0.71184 0.18878
 C324 C 0.55881 0.71841 0.15351
 H325 H 0.54288 0.59879 0.07372
 H326 H 0.56573 0.70385 0.02620
 H327 H 0.55595 0.65947 -0.01279
 H328 H 0.56609 0.72350 0.08506
 H329 H 0.54713 0.61913 0.13171
 H330 H 0.54628 0.63768 0.18994
 H331 H 0.54558 0.67763 0.22879
 H332 H 0.56147 0.74069 0.14367
 C333 C 0.41203 0.93379 0.10412
 C334 C 0.38560 0.91436 0.12461
 C335 C 0.36748 0.92715 0.13985
 C336 C 0.37626 0.95931 0.13416
 C337 C 0.40314 0.97873 0.11422
 C338 C 0.42136 0.96617 0.09940
 C339 C 0.34128 0.90773 0.16089
 C340 C 0.33347 0.87593 0.16739
 C341 C 0.35185 0.86338 0.15221
 C342 C 0.37752 0.88254 0.13064
 C343 C 0.34457 0.83194 0.15922
 C344 C 0.31955 0.81310 0.18142
 C345 C 0.30104 0.82517 0.19670
 C346 C 0.30793 0.85659 0.18929
 H347 H 0.42594 0.92399 0.09242
 H348 H 0.36267 0.96954 0.14560
 H349 H 0.41003 1.00366 0.11074
 H350 H 0.32735 0.91748 0.17263
 H351 H 0.39159 0.87286 0.11907
 H352 H 0.35845 0.82200 0.14781
 H353 H 0.31461 0.78893 0.18654
 H354 H 0.29390 0.86618 0.20109
 C355 C 0.90568 0.49019 0.53907
 C356 C 0.89026 0.49970 0.56316
 C357 C 0.88200 0.52326 0.55447
 C358 C 0.88946 0.53685 0.52145
 C359 C 0.90421 0.52654 0.49716
 C360 C 0.91206 0.50287 0.50574
 C361 C 0.86594 0.53227 0.57869
 C362 C 0.85726 0.51722 0.61097
 C363 C 0.86538 0.49336 0.61912
 C364 C 0.88224 0.48521 0.59547
 C365 C 0.85588 0.47737 0.65058
 C366 C 0.83790 0.48435 0.67363
 C367 C 0.82969 0.50797 0.66610
 C368 C 0.83990 0.52486 0.63497
 H369 H 0.91208 0.47218 0.54592
 H370 H 0.88335 0.55495 0.51424
 H371 H 0.90912 0.53667 0.47158
 H372 H 0.85954 0.55034 0.57214
 H373 H 0.88837 0.46691 0.60187
 H374 H 0.86188 0.45903 0.65712
 H375 H 0.83045 0.47132 0.69764
 H376 H 0.83339 0.54294 0.62901
 C377 C 0.42760 0.38873 0.61137
 C378 C 0.42421 0.35968 0.62368
 C379 C 0.44697 0.35039 0.61420
 C380 C 0.47180 0.36937 0.59162
 C381 C 0.47509 0.39816 0.57979
 C382 C 0.45357 0.40840 0.59016
 C383 C 0.44542 0.32298 0.62848
 C384 C 0.42182 0.30496 0.65268
 C385 C 0.39813 0.31316 0.66117
 C386 C 0.39932 0.34041 0.64636
 C387 C 0.37450 0.29464 0.68538
 C388 C 0.37556 0.26955 0.70252
 C389 C 0.40028 0.26274 0.69565
 C390 C 0.42261 0.27981 0.66981
 H391 H 0.41100 0.39671 0.61935
 H392 H 0.48928 0.36246 0.58397
 H393 H 0.49510 0.41309 0.56330
 H394 H 0.46339 0.31642 0.62182
 H395 H 0.38167 0.34726 0.65348
 H396 H 0.35594 0.30032 0.69201
 H397 H 0.35814 0.25668 0.72242
 H398 H 0.44157 0.27442 0.66413
 C399 C 0.60087 0.08255 0.58853
 C400 C 0.62714 0.10033 0.60954
 C401 C 0.65810 0.11001 0.59690
 C402 C 0.66213 0.10155 0.56337
 C403 C 0.63585 0.08495 0.54210
 C404 C 0.60508 0.07583 0.55430
 C405 C 0.68449 0.12891 0.61750
 C406 C 0.68030 0.13941 0.64994
 C407 C 0.64923 0.12990 0.66228
 C408 C 0.62289 0.10984 0.64238
 C409 C 0.64499 0.14150 0.69387
 C410 C 0.67123 0.16308 0.71266
 C411 C 0.70216 0.17269 0.70077
 C412 C 0.70662 0.16024 0.66971
 H413 H 0.57713 0.07532 0.59814
 H414 H 0.68566 0.10875 0.55320
 H415 H 0.63955 0.07995 0.51580
 H416 H 0.70826 0.13643 0.60780
 H417 H 0.59913 0.10269 0.65187
 H418 H 0.62137 0.13453 0.70364
 H419 H 0.66740 0.17233 0.73664
 H420 H 0.73050 0.16792 0.66028
 C421 C 0.47228 0.07617 0.92493
 C422 C 0.45966 0.09178 0.90554
 C423 C 0.43887 0.10110 0.92116
 C424 C 0.43104 0.09448 0.95604
 C425 C 0.44448 0.07973 0.97549
 C426 C 0.46577 0.07083 0.96040
 C427 C 0.42688 0.11747 0.90183
 C428 C 0.43636 0.12557 0.86741
 C429 C 0.45744 0.11636 0.85207
 C430 C 0.46837 0.09900 0.87098
 C431 C 0.46805 0.12546 0.81828
 C432 C 0.45862 0.14426 0.80004
 C433 C 0.43771 0.15353 0.81484
 C434 C 0.42604 0.14361 0.84833
 H435 H 0.48742 0.06830 0.91232
 H436 H 0.41519 0.10147 0.96854
 H437 H 0.43909 0.07636 1.00272
 H438 H 0.41097 0.12470 0.91381
 H439 H 0.48455 0.09205 0.85912
 H440 H 0.48425 0.11868 0.80621
 H441 H 0.46766 0.15159 0.77415
 H442 H 0.41013 0.15103 0.85989
 C443 C 0.63237 0.54947 0.91039
 C444 C 0.65779 0.55350 0.88942
 C445 C 0.67053 0.57833 0.86483
 C446 C 0.65822 0.59946 0.86272
 C447 C 0.63209 0.59460 0.88309
 C448 C 0.61848 0.56896 0.90622
 C449 C 0.69407 0.58046 0.84167
 C450 C 0.70393 0.55728 0.84199
 C451 C 0.69143 0.53289 0.86715
 C452 C 0.66903 0.53162 0.89113
 C453 C 0.70031 0.50914 0.86695
 C454 C 0.72014 0.50849 0.84106
 C455 C 0.73210 0.53200 0.81538
 C456 C 0.72476 0.55700 0.81655
 H457 H 0.62170 0.52961 0.92823
 H458 H 0.66772 0.61869 0.84413
 H459 H 0.62151 0.60975 0.87958
 H460 H 0.70346 0.59910 0.82235
 H461 H 0.65906 0.51251 0.90993
 H462 H 0.69097 0.49035 0.88608
 H463 H 0.72577 0.48921 0.84080
 H464 H 0.73373 0.57508 0.79663
 C465 C 0.94102 0.40264 0.91551
 C466 C 0.92333 0.37686 0.89375
 C467 C 0.91494 0.34558 0.90416
 C468 C 0.92570 0.34099 0.93591
 C469 C 0.94287 0.36693 0.95795
 C470 C 0.94968 0.39798 0.94856
 C471 C 0.89499 0.31951 0.88329
 C472 C 0.88261 0.32452 0.85280
 C473 C 0.89178 0.35610 0.84235
 C474 C 0.91254 0.38198 0.86247
 C475 C 0.87887 0.36141 0.81273
 C476 C 0.85584 0.33572 0.79442
 C477 C 0.84594 0.30427 0.80478
 C478 C 0.86004 0.29863 0.83340
 H479 H 0.94715 0.42652 0.90715
 H480 H 0.91971 0.31721 0.94433
 H481 H 0.94895 0.36230 0.98317
 H482 H 0.88803 0.29540 0.89149
 H483 H 0.91903 0.40609 0.85463
 H484 H 0.88570 0.38545 0.80444
 H485 H 0.84528 0.34039 0.77231
 H486 H 0.85213 0.27433 0.84162
 C487 C 0.51867 0.92091 0.42480
 C488 C 0.52611 0.90054 0.40578
 C489 C 0.55800 0.91048 0.39668
 C490 C 0.58199 0.94032 0.40792
 C491 C 0.57430 0.96083 0.42634
 C492 C 0.54239 0.95187 0.43397
 C493 C 0.56518 0.89087 0.37567
 C494 C 0.54072 0.86176 0.36318
 C495 C 0.50891 0.85166 0.37305
 C496 C 0.50187 0.87091 0.39458
 C497 C 0.48446 0.82283 0.36045
 C498 C 0.49122 0.80453 0.33744
 C499 C 0.52261 0.81452 0.32670
 C500 C 0.54738 0.84300 0.34021
 H501 H 0.49408 0.91298 0.43163
 H502 H 0.60662 0.94831 0.40136
 H503 H 0.59320 0.98444 0.43278
 H504 H 0.58961 0.89867 0.36824
 H505 H 0.47739 0.86331 0.40165
 H506 H 0.45999 0.81473 0.36786
 H507 H 0.47170 0.78266 0.32768
 H508 H 0.57170 0.85101 0.33218
 C509 C 0.38636 0.46485 0.45144
 C510 C 0.36192 0.45944 0.42867
 C511 C 0.33925 0.46884 0.43801
 C512 C 0.34011 0.48138 0.47087
 C513 C 0.36428 0.48625 0.49357
 C514 C 0.38811 0.47906 0.48353
 C515 C 0.31687 0.46667 0.41396
 C516 C 0.31677 0.45503 0.38080
 C517 C 0.33800 0.44356 0.37225
 C518 C 0.36054 0.44595 0.39622
 C519 C 0.33704 0.43091 0.33941
 C520 C 0.31628 0.43104 0.31474
 C521 C 0.29666 0.44426 0.32246
 C522 C 0.29651 0.45567 0.35565
 H523 H 0.40480 0.45929 0.44373
 H524 H 0.32272 0.48837 0.47859
 H525 H 0.36539 0.49721 0.51828
 H526 H 0.30019 0.47491 0.42072
 H527 H 0.37754 0.43818 0.38927
 H528 H 0.35291 0.42174 0.33253
 H529 H 0.31668 0.42229 0.28912
 H530 H 0.28115 0.46570 0.36157
 C531 C 0.05034 0.58554 0.39352
 C532 C 0.07831 0.61220 0.38146
 C533 C 0.10717 0.61122 0.38089
 C534 C 0.10793 0.58428 0.39304
 C535 C 0.08011 0.55775 0.40401
 C536 C 0.05077 0.55756 0.40364
 C537 C 0.13470 0.63664 0.36700
 C538 C 0.13372 0.66278 0.35259
 C539 C 0.10524 0.66439 0.35369
 C540 C 0.07774 0.63922 0.36852
 C541 C 0.10461 0.69068 0.33887
 C542 C 0.13152 0.71436 0.32189
 C543 C 0.15952 0.71218 0.31958
 C544 C 0.16060 0.68668 0.33584
 H545 H 0.02799 0.58578 0.39271
 H546 H 0.12992 0.58331 0.39310
 H547 H 0.08150 0.53704 0.41268
 H548 H 0.15661 0.63550 0.36617
 H549 H 0.05572 0.64016 0.36887
 H550 H 0.08308 0.69248 0.33954
 H551 H 0.13006 0.73379 0.30962
 H552 H 0.18210 0.68481 0.33451
 C553 C 0.93362 0.51828 0.91653
 C554 C 0.91586 0.52552 0.89378
 C555 C 0.90559 0.54744 0.90343
 C556 C 0.91386 0.56210 0.93581
 C557 C 0.93101 0.55410 0.95885
 C558 C 0.94056 0.53151 0.94980
 C559 C 0.88650 0.55350 0.88097
 C560 C 0.87677 0.53699 0.84960
 C561 C 0.88730 0.51509 0.84024
 C562 C 0.90726 0.51005 0.86200
 C563 C 0.87680 0.49759 0.80976
 C564 C 0.85511 0.50081 0.78924
 C565 C 0.84429 0.52222 0.79824
 C566 C 0.85570 0.54093 0.82801
 H567 H 0.94169 0.50172 0.90844
 H568 H 0.90614 0.57892 0.94378
 H569 H 0.93532 0.56440 0.98434
 H570 H 0.87834 0.57014 0.88840
 H571 H 0.91506 0.49305 0.85482
 H572 H 0.88463 0.48072 0.80232
 H573 H 0.84653 0.48635 0.76626
 H574 H 0.84702 0.55720 0.83511
 C575 C 0.46255 0.39737 0.91319
 C576 C 0.45919 0.36911 0.89831
 C577 C 0.48649 0.36625 0.89105
 C578 C 0.51645 0.39088 0.90012
 C579 C 0.51963 0.41883 0.91471
 C580 C 0.49294 0.42300 0.92053
 C581 C 0.48361 0.33928 0.87384
 C582 C 0.45380 0.31526 0.86325
 C583 C 0.42627 0.31733 0.87170
 C584 C 0.42911 0.34418 0.88938
 C585 C 0.39649 0.29301 0.86117
 C586 C 0.39422 0.26784 0.84089
 C587 C 0.42168 0.26662 0.83078
 C588 C 0.45131 0.28992 0.84300
 H589 H 0.44170 0.40008 0.91707
 H590 H 0.53755 0.38884 0.89525
 H591 H 0.54324 0.43749 0.92128
 H592 H 0.50469 0.33754 0.86761
 H593 H 0.40807 0.34613 0.89515
 H594 H 0.37509 0.29402 0.86760
 H595 H 0.37109 0.25015 0.83182
 H596 H 0.47262 0.28906 0.83561
 C597 C 0.63227 0.09858 0.95077
 C598 C 0.65453 0.11245 0.92398
 C599 C 0.65163 0.09467 0.89381
 C600 C 0.62675 0.06317 0.89123
 C601 C 0.60407 0.04998 0.91753
 C602 C 0.60641 0.06776 0.94712
 C603 C 0.67270 0.10912 0.86613
 C604 C 0.69564 0.14154 0.86761
 C605 C 0.69856 0.15923 0.89788
 C606 C 0.67852 0.14436 0.92614
 C607 C 0.72038 0.19196 0.89878
 C608 C 0.73794 0.20739 0.86944
 C609 C 0.73487 0.19015 0.83920
 C610 C 0.71445 0.15705 0.83865
 H611 H 0.63390 0.11231 0.97361
 H612 H 0.62411 0.04919 0.86833
 H613 H 0.58417 0.02616 0.91446
 H614 H 0.67021 0.09560 0.84286
 H615 H 0.68056 0.15807 0.94914
 H616 H 0.72285 0.20589 0.92168
 H617 H 0.75353 0.23298 0.87008
 H618 H 0.71167 0.14389 0.81503
 C619 C 0.06408 0.43766 0.39858
 C620 C 0.08741 0.43294 0.38242
 C621 C 0.07892 0.40411 0.36485
 C622 C 0.04714 0.37953 0.36610
 C623 C 0.02375 0.38452 0.38234
 C624 C 0.03186 0.41437 0.39702
 C625 C 0.10208 0.40110 0.34528
 C626 C 0.13328 0.42686 0.34283
 C627 C 0.14165 0.45494 0.36207
 C628 C 0.11883 0.45760 0.38201
 C629 C 0.17245 0.48069 0.36002
 C630 C 0.19453 0.47954 0.33770
 C631 C 0.18642 0.45255 0.31706
 C632 C 0.15596 0.42574 0.32051
 H633 H 0.07082 0.46032 0.41108
 H634 H 0.04015 0.35701 0.35326
 H635 H -0.00085 0.36601 0.38110
 H636 H 0.09553 0.37938 0.33091
 H637 H 0.12521 0.47957 0.39587
 H638 H 0.17922 0.50219 0.37489
 H639 H 0.21795 0.50028 0.33611
 H640 H 0.14952 0.40474 0.30489
 C641 C 0.52637 0.60893 0.44455
 C642 C 0.53450 0.63436 0.42194
 C643 C 0.54957 0.66605 0.43444
 C644 C 0.55663 0.67158 0.46957
 C645 C 0.54753 0.64588 0.49219
 C646 C 0.53180 0.61441 0.47985
 C647 C 0.55621 0.69140 0.41187
 C648 C 0.54675 0.68520 0.37736
 C649 C 0.53161 0.65332 0.36521
 C650 C 0.52628 0.62830 0.38732
 C651 C 0.52080 0.64669 0.33139
 C652 C 0.52382 0.67119 0.31006
 C653 C 0.53863 0.70286 0.32169
 C654 C 0.55083 0.71002 0.35512
 H655 H 0.51430 0.58460 0.43503
 H656 H 0.56819 0.69567 0.47970
 H657 H 0.55191 0.65044 0.51940
 H658 H 0.56754 0.71571 0.42143
 H659 H 0.51444 0.60391 0.37792
 H660 H 0.50908 0.62241 0.32178
 H661 H 0.51428 0.66537 0.28436
 H662 H 0.56190 0.73446 0.36423
 C663 C 0.39856 0.93254 0.42155
 C664 C 0.37081 0.91264 0.40372
 C665 C 0.35427 0.92582 0.38650
 C666 C 0.36511 0.95874 0.38902
 C667 C 0.39269 0.97849 0.40738
 C668 C 0.41021 0.96571 0.42308
 C669 C 0.32778 0.90599 0.36643
 C670 C 0.31783 0.87322 0.36344
 C671 C 0.33370 0.86007 0.38216
 C672 C 0.35992 0.87979 0.40222
 C673 C 0.32388 0.82751 0.37957
 C674 C 0.29979 0.80834 0.35709
 C675 C 0.28486 0.82125 0.33685
 C676 C 0.29321 0.85357 0.34103
 H677 H 0.41133 0.92221 0.43428
 H678 H 0.35267 0.96931 0.37619
 H679 H 0.40118 1.00395 0.40784
 H680 H 0.31551 0.91616 0.35244
 H681 H 0.37248 0.86971 0.41584
 H682 H 0.33559 0.81705 0.39404
 H683 H 0.29356 0.78346 0.35472
 H684 H 0.28187 0.86378 0.32555
 C685 C 0.53964 0.93238 0.09022
 C686 C 0.54592 0.91216 0.11050
 C687 C 0.57385 0.92493 0.13031
 C688 C 0.59551 0.95779 0.12851
 C689 C 0.58875 0.97793 0.10855
 C690 C 0.56047 0.96535 0.08994
 C691 C 0.57901 0.90484 0.15240
 C692 C 0.55619 0.87237 0.15541
 C693 C 0.52864 0.85975 0.13493
 C694 C 0.52391 0.87960 0.11236
 C695 C 0.50562 0.82762 0.13808
 C696 C 0.50913 0.80829 0.16219
 C697 C 0.53592 0.82053 0.18341
 C698 C 0.55983 0.85250 0.17934
 H699 H 0.51775 0.92277 0.07585
 H700 H 0.61710 0.96805 0.14338
 H701 H 0.60496 1.00339 0.10856
 H702 H 0.60017 0.91464 0.16801
 H703 H 0.50251 0.86990 0.09711
 H704 H 0.48447 0.81760 0.12246
 H705 H 0.49054 0.78369 0.16450
 H706 H 0.58055 0.86220 0.19561
 C707 C 0.42163 0.48797 0.06906
 C708 C 0.39510 0.47796 0.09070
 C709 C 0.36430 0.45827 0.07771
 C710 C 0.36077 0.44865 0.04316
 C711 C 0.38740 0.45947 0.02148
 C712 C 0.41792 0.47966 0.03418
 C713 C 0.33765 0.44936 0.09921
 C714 C 0.34150 0.46085 0.13310
 C715 C 0.37248 0.48058 0.14580
 C716 C 0.39899 0.48847 0.12477
 C717 C 0.37656 0.49308 0.17904
 C718 C 0.35025 0.48708 0.19924
 C719 C 0.31937 0.46781 0.18700
 C720 C 0.31499 0.45402 0.15418
 H721 H 0.44523 0.50329 0.07897
 H722 H 0.33739 0.43352 0.03270
 H723 H 0.38420 0.45270 -0.00536
 H724 H 0.31399 0.43443 0.08926
 H725 H 0.42266 0.50376 0.13457
 H726 H 0.40012 0.50822 0.18909
 H727 H 0.35402 0.49766 0.22459
 H728 H 0.29116 0.43934 0.14458
 C729 C 0.08266 0.60744 0.08465
 C730 C 0.10021 0.63443 0.10503
 C731 C 0.08437 0.64707 0.12522
 C732 C 0.05117 0.63298 0.12363
 C733 C 0.03380 0.60575 0.10350
 C734 C 0.04944 0.59247 0.08460
 C735 C 0.10187 0.67272 0.14754
 C736 C 0.13482 0.68516 0.15060
 C737 C 0.15053 0.67283 0.12966
 C738 C 0.13322 0.64797 0.10665
 C739 C 0.18317 0.68448 0.13319
 C740 C 0.19985 0.70677 0.15859
 C741 C 0.18441 0.71843 0.18032
 C742 C 0.15209 0.70846 0.17547
 H743 H 0.09467 0.59720 0.06984
 H744 H 0.03860 0.64239 0.13874
 H745 H 0.00813 0.59444 0.10348
 H746 H 0.08971 0.68205 0.16353
 H747 H 0.14529 0.63822 0.09113
 H748 H 0.19556 0.67536 0.11728
 H749 H 0.22481 0.71438 0.16187
 H750 H 0.14005 0.71719 0.19246
 C751 C 0.45504 0.08266 0.56636
 C752 C 0.44653 0.10184 0.58618
 C753 C 0.45818 0.13417 0.57698
 C754 C 0.47634 0.14608 0.54682
 C755 C 0.48389 0.12647 0.52666
 C756 C 0.47408 0.09499 0.53684
 C757 C 0.45218 0.15419 0.59852
 C758 C 0.43430 0.14215 0.62882
 C759 C 0.42077 0.10930 0.63669
 C760 C 0.42717 0.08940 0.61544
 C761 C 0.40190 0.09714 0.66634
 C762 C 0.39782 0.11761 0.68893
 C763 C 0.41298 0.15053 0.68247
 C764 C 0.43059 0.16260 0.65200
 H765 H 0.44737 0.05828 0.57413
 H766 H 0.48511 0.17066 0.53915
 H767 H 0.49843 0.13617 0.50380
 H768 H 0.46201 0.17924 0.59212
 H769 H 0.41769 0.06444 0.62207
 H770 H 0.39108 0.07199 0.67256
 H771 H 0.38432 0.10799 0.71245
 H772 H 0.44213 0.18803 0.64687
 C773 C 0.60196 0.52580 0.59695
 C774 C 0.62952 0.53097 0.61387
 C775 C 0.64700 0.55922 0.63314
 C776 C 0.63666 0.58196 0.63472
 C777 C 0.60857 0.57615 0.61853
 C778 C 0.59077 0.54779 0.60009
 C779 C 0.67389 0.56372 0.65129
 C780 C 0.68276 0.53983 0.65133
 C781 C 0.66512 0.51162 0.63199
 C782 C 0.63903 0.50767 0.61290
 C783 C 0.67319 0.48727 0.63295
 C784 C 0.69784 0.49028 0.65376
 C785 C 0.71539 0.51801 0.67328
 C786 C 0.70822 0.54307 0.67139
 H787 H 0.58834 0.50400 0.58245
 H788 H 0.64976 0.60378 0.64930
 H789 H 0.60028 0.59338 0.62104
 H790 H 0.68722 0.58526 0.66628
 H791 H 0.62542 0.48592 0.59829
 H792 H 0.65990 0.46552 0.61832
 H793 H 0.70310 0.47078 0.65476
 H794 H 0.72147 0.56439 0.68673
 C795 C 0.89357 0.37062 0.54004
 C796 C 0.87645 0.34819 0.56556
 C797 C 0.86486 0.31536 0.55919
 C798 C 0.87000 0.30563 0.52672
 C799 C 0.88620 0.32823 0.50087
 C800 C 0.89820 0.36093 0.50736
 C801 C 0.84813 0.29298 0.58525
 C802 C 0.84199 0.30310 0.61705
 C803 C 0.85275 0.33599 0.62260
 C804 C 0.87035 0.35828 0.59714
 C805 C 0.84550 0.34619 0.65347
 C806 C 0.82775 0.32410 0.67879
 C807 C 0.81758 0.29152 0.67413
 C808 C 0.82494 0.28103 0.64330
 H809 H 0.90301 0.39583 0.54543
 H810 H 0.86113 0.28056 0.52119
 H811 H 0.88937 0.32024 0.47580
 H812 H 0.83950 0.26779 0.58062
 H813 H 0.87884 0.38348 0.60168
 H814 H 0.85341 0.37126 0.65797
 H815 H 0.82247 0.33259 0.70250
 H816 H 0.81688 0.25583 0.63957
   
