data_POSCAR
  _audit_creation_date              2014-09-24
  _audit_creation_method            'ToBaCCo'
  _symmetry_space_group_name_H-M    'P1'
  _symmetry_Int_Tables_number       1
  _symmetry_cell_setting            triclinic
  loop_
  _symmetry_equiv_pos_as_xyz
 x,y,z
_cell_length_a 28.3960
_cell_length_b 26.5995
_cell_length_c 19.4141
_cell_angle_alpha 85.162900
_cell_angle_beta 91.595000
_cell_angle_gamma 89.849000
loop_
  _atom_site_label
  _atom_site_type_symbol
  _atom_site_fract_x
  _atom_site_fract_y
  _atom_site_fract_z
C1 C 1.29466 0.19451 0.26666
 C2 C 1.25443 0.22454 0.24849
 C3 C 1.21200 0.20036 0.23047
 C4 C 1.20948 0.14730 0.23310
 C5 C 1.24950 0.11858 0.25354
 C6 C 1.29234 0.14183 0.26820
 C7 C 1.25676 0.28079 0.24835
 C8 C 1.29757 0.30761 0.22756
 C9 C 1.30073 0.36003 0.23160
 C10 C 1.26185 0.38623 0.25519
 C11 C 1.22091 0.36014 0.27672
 C12 C 1.21884 0.30761 0.27304
 H13 H 1.32803 0.21187 0.27861
 H14 H 1.18114 0.22262 0.21379
 H15 H 1.32768 0.28762 0.21007
 H16 H 1.18776 0.28748 0.29075
 H17 H 1.24813 0.07790 0.25271
 H18 H 1.26433 0.42638 0.26035
 C19 C 0.77916 -0.31165 0.28734
 C20 C 0.74491 -0.27665 0.25965
 C21 C 0.70942 -0.29214 0.21370
 C22 C 0.70963 -0.34175 0.19338
 C23 C 0.74446 -0.37563 0.22067
 C24 C 0.77845 -0.36128 0.26861
 C25 C 0.74843 -0.22331 0.27553
 C26 C 0.78872 -0.19563 0.25659
 C27 C 0.79216 -0.14410 0.26788
 C28 C 0.75558 -0.12082 0.29931
 C29 C 0.71584 -0.14814 0.31988
 C30 C 0.71192 -0.19943 0.30781
 H31 H 0.80589 -0.30036 0.32384
 H32 H 0.68300 -0.26538 0.19220
 H33 H 0.81675 -0.21406 0.23137
 H34 H 0.68049 -0.22026 0.32240
 H35 H 0.74394 -0.41414 0.20630
 H36 H 0.75777 -0.08102 0.30714
 C37 C 0.78335 0.19027 -0.24629
 C38 C 0.74437 0.22091 -0.26722
 C39 C 0.70214 0.19810 -0.28729
 C40 C 0.69901 0.14516 -0.28611
 C41 C 0.73808 0.11513 -0.26406
 C42 C 0.78027 0.13723 -0.24367
 C43 C 0.74775 0.27647 -0.26505
 C44 C 0.78384 0.30351 -0.30000
 C45 C 0.78818 0.35570 -0.29588
 C46 C 0.75752 0.38060 -0.25475
 C47 C 0.72086 0.35465 -0.22085
 C48 C 0.71566 0.30256 -0.22671
 H49 H 0.81569 0.20785 -0.22997
 H50 H 0.67182 0.22145 -0.30327
 H51 H 0.80749 0.28421 -0.33199
 H52 H 0.68759 0.28220 -0.20009
 H53 H 0.73535 0.07441 -0.26168
 H54 H 0.76041 0.42105 -0.25228
 C55 C 1.27733 -0.30114 -0.23317
 C56 C 1.23520 -0.27410 -0.24862
 C57 C 1.19618 -0.29905 -0.27580
 C58 C 1.19958 -0.35041 -0.28716
 C59 C 1.24172 -0.37667 -0.27126
 C60 C 1.28103 -0.35167 -0.24649
 C61 C 1.23465 -0.21877 -0.24473
 C62 C 1.27269 -0.19027 -0.27036
 C63 C 1.27432 -0.13790 -0.26619
 C64 C 1.23672 -0.11356 -0.23825
 C65 C 1.19839 -0.14142 -0.21256
 C66 C 1.19728 -0.19410 -0.21570
 H67 H 1.30837 -0.28201 -0.21496
 H68 H 1.16398 -0.27840 -0.29024
 H69 H 1.30135 -0.20914 -0.29351
 H70 H 1.16769 -0.21566 -0.19542
 H71 H 1.24493 -0.41550 -0.28366
 H72 H 1.23774 -0.07312 -0.23491
 C73 C 0.20834 0.29262 0.75798
 C74 C 0.23641 0.25148 0.78501
 C75 C 0.21505 0.20636 0.80941
 C76 C 0.16658 0.20048 0.80295
 C77 C 0.13866 0.24060 0.77437
 C78 C 0.15909 0.28684 0.75212
 C79 C 0.28792 0.25081 0.77874
 C80 C 0.31684 0.27710 0.82280
 C81 C 0.36537 0.26722 0.82712
 C82 C 0.38504 0.23165 0.78726
 C83 C 0.35662 0.20573 0.74248
 C84 C 0.30809 0.21578 0.73763
 H85 H 0.22479 0.32682 0.73618
 H86 H 0.23674 0.17409 0.82791
 H87 H 0.30139 0.30283 0.85638
 H88 H 0.28556 0.19433 0.70509
 H89 H 0.10130 0.23492 0.76506
 H90 H 0.42242 0.22324 0.79217
 C91 C 0.71387 0.79560 0.75431
 C92 C 0.73283 0.74647 0.75400
 C93 C 0.70161 0.70558 0.74990
 C94 C 0.65268 0.71370 0.74734
 C95 C 0.63463 0.76262 0.74901
 C96 C 0.66510 0.80357 0.75266
 C97 C 0.78480 0.73805 0.76196
 C98 C 0.81148 0.76745 0.80560
 C99 C 0.85994 0.75932 0.81656
 C100 C 0.88193 0.72020 0.78562
 C101 C 0.85678 0.69193 0.73929
 C102 C 0.80816 0.70088 0.72740
 H103 H 0.73693 0.82788 0.75603
 H104 H 0.71515 0.66747 0.74970
 H105 H 0.79463 0.79628 0.83261
 H106 H 0.78880 0.67887 0.69178
 H107 H 0.59683 0.76886 0.74682
 H108 H 0.91943 0.71388 0.79407
 C109 C 0.69145 0.30485 0.22874
 C110 C 0.71539 0.25943 0.24766
 C111 C 0.69079 0.21835 0.27908
 C112 C 0.64315 0.22440 0.29455
 C113 C 0.62017 0.27046 0.27740
 C114 C 0.64361 0.31027 0.24258
 C115 C 0.76637 0.25740 0.23619
 C116 C 0.79498 0.29546 0.26053
 C117 C 0.84186 0.29992 0.24118
 C118 C 0.86024 0.26667 0.19727
 C119 C 0.83327 0.22645 0.17692
 C120 C 0.78614 0.22139 0.19635
 H121 H 0.71025 0.33596 0.20256
 H122 H 0.70891 0.18306 0.29403
 H123 H 0.78054 0.32228 0.29344
 H124 H 0.76487 0.19106 0.17854
 H125 H 0.58325 0.27453 0.28864
 H126 H 0.89682 0.26980 0.18307
 C127 C 0.20990 0.79630 0.24299
 C128 C 0.23781 0.75291 0.24229
 C129 C 0.21661 0.70539 0.25254
 C130 C 0.16816 0.70138 0.26329
 C131 C 0.14044 0.74495 0.26385
 C132 C 0.16161 0.79241 0.25366
 C133 C 0.28885 0.75757 0.23062
 C134 C 0.31568 0.79263 0.26495
 C135 C 0.36389 0.79765 0.25326
 C136 C 0.38556 0.76753 0.20803
 C137 C 0.35981 0.73119 0.17576
 C138 C 0.31122 0.72671 0.18603
 H139 H 0.22564 0.83336 0.23485
 H140 H 0.23767 0.67139 0.25188
 H141 H 0.29933 0.81575 0.30103
 H142 H 0.29118 0.69863 0.16067
 H143 H 0.10285 0.74198 0.27159
 H144 H 0.42322 0.77038 0.20101
 N145 N 1.05124 -0.08331 0.11437
 N146 N 1.07817 -0.11938 0.14627
 N147 N 0.94920 -0.05103 0.14721
 N148 N 0.91394 -0.05973 0.18993
 N149 N 0.95354 -0.08877 0.10819
 N150 N 0.92215 -0.12386 0.12260
 N151 N 1.04790 -0.04536 0.15342
 N152 N 1.07250 -0.05427 0.21162
 C153 C 1.09181 -0.09974 0.20588
 C154 C 0.89791 -0.10540 0.17310
 N155 N 0.94677 0.09193 0.06917
 N156 N 0.91458 0.12719 0.07346
 N157 N 1.04557 0.06235 0.12839
 N158 N 1.08016 0.07372 0.17161
 N159 N 1.04553 0.09355 0.07215
 N160 N 1.07891 0.12770 0.07607
 N161 N 0.94570 0.05865 0.12302
 N162 N 0.91294 0.07061 0.16586
 Mn163 Mn 0.99672 0.00629 0.13872
 C164 C 0.89329 0.11279 0.13331
 C165 C 1.10028 0.11473 0.13801
 N166 N 0.95235 -0.09822 -0.03744
 N167 N 0.92770 -0.13906 -0.04845
 N168 N 1.04594 -0.06045 -0.09163
 N169 N 1.07801 -0.07083 -0.13630
 N170 N 1.05013 -0.09141 -0.03530
 N171 N 1.08409 -0.12462 -0.04059
 N172 N 0.94681 -0.06390 -0.08995
 N173 N 0.91776 -0.08017 -0.13740
 Mn174 Mn 1.00227 -0.09064 0.03757
 C175 C 0.90562 -0.12653 -0.11016
 C176 C 1.10132 -0.11068 -0.10328
 N177 N 1.04418 0.08419 -0.07650
 N178 N 1.07834 0.11551 -0.09632
 N179 N 0.94260 0.04604 -0.11409
 N180 N 0.90645 0.05310 -0.15886
 N181 N 0.94587 0.08412 -0.07537
 N182 N 0.91282 0.11789 -0.09201
 N183 N 1.04197 0.04642 -0.11589
 N184 N 1.07492 0.04993 -0.16224
 Mn185 Mn 0.99603 0.08884 -0.00268
 Mn186 Mn 0.99387 -0.00799 -0.10361
 Cl187 Cl 0.99734 -0.00096 0.01756
 C188 C 1.09699 0.09295 -0.14958
 C189 C 0.88847 0.09816 -0.14335
 N190 N 0.94830 0.53756 0.34764
 N191 N 0.90734 0.53115 0.31601
 N192 N 1.04631 0.58189 0.38456
 N193 N 1.07765 0.61569 0.36129
 N194 N 1.04711 0.54248 0.34814
 N195 N 1.07875 0.54774 0.29997
 N196 N 0.94649 0.57655 0.38503
 N197 N 0.90404 0.59756 0.37906
 C198 C 0.88067 0.56977 0.33383
 C199 C 1.09756 0.59309 0.30890
 N200 N 1.05000 0.56050 0.58851
 N201 N 1.08275 0.57364 0.63277
 N202 N 0.94863 0.58885 0.53227
 N203 N 0.91888 0.62624 0.53976
 N204 N 0.95163 0.55836 0.58931
 N205 N 0.92473 0.57495 0.63725
 N206 N 1.04763 0.59291 0.53329
 N207 N 1.07864 0.62945 0.53904
 Mn208 Mn 0.99733 0.58572 0.45845
 C209 C 1.10026 0.61640 0.60105
 C210 C 0.90363 0.61645 0.60486
 N211 N 1.05390 0.43553 0.37644
 N212 N 1.09022 0.42832 0.33700
 N213 N 0.95549 0.39985 0.43153
 N214 N 0.92419 0.36362 0.42797
 N215 N 0.95470 0.42987 0.37438
 N216 N 0.92338 0.41438 0.32942
 N217 N 1.05506 0.40347 0.43183
 N218 N 1.09197 0.37304 0.43113
 Mn219 Mn 1.00102 0.48647 0.36112
 C220 C 1.11365 0.38933 0.37205
 C221 C 0.90421 0.37375 0.36453
 N222 N 0.95443 0.44937 0.61515
 N223 N 0.91289 0.45216 0.64374
 N224 N 1.05471 0.41393 0.57822
 N225 N 1.08537 0.37924 0.60238
 N226 N 1.05448 0.45192 0.61725
 N227 N 1.08569 0.44404 0.66920
 N228 N 0.95558 0.41083 0.57695
 N229 N 0.91494 0.38669 0.57935
 Mn230 Mn 1.00277 0.50493 0.60320
 Mn231 Mn 1.00525 0.40664 0.50481
 Cl232 Cl 1.00166 0.49612 0.48205
 C233 C 0.88927 0.41158 0.62339
 C234 C 1.10508 0.39889 0.65805
 N235 N 0.45237 0.03029 0.37455
 N236 N 0.42595 0.03078 0.31775
 N237 N 0.53818 0.08414 0.43082
 N238 N 0.56556 0.12287 0.41529
 N239 N 0.54925 0.04599 0.39561
 N240 N 0.58463 0.05795 0.35444
 N241 N 0.44105 0.06773 0.41106
 N242 N 0.40623 0.09493 0.37955
 C243 C 0.39697 0.07046 0.32207
 C244 C 0.59464 0.10580 0.36862
 N245 N 0.52983 0.06486 0.62926
 N246 N 0.56589 0.07668 0.66922
 N247 N 0.42889 0.08032 0.55697
 N248 N 0.39768 0.11683 0.56047
 N249 N 0.43186 0.05205 0.61595
 N250 N 0.40313 0.06935 0.66090
 N251 N 0.52623 0.09662 0.57363
 N252 N 0.55931 0.13133 0.57464
 Mn253 Mn 0.48314 0.08253 0.49294
 C254 C 0.58325 0.11866 0.63463
 C255 C 0.38089 0.10851 0.62468
 N256 N 0.56231 -0.06152 0.42680
 N257 N 0.59708 -0.07307 0.38735
 N258 N 0.46313 -0.10532 0.46372
 N259 N 0.43375 -0.14288 0.45567
 N260 N 0.46548 -0.07561 0.40639
 N261 N 0.43812 -0.09217 0.35735
 N262 N 0.56055 -0.09380 0.48175
 N263 N 0.59388 -0.12843 0.48109
 Mn264 Mn 0.50773 -0.01519 0.40032
 C265 C 0.61661 -0.11426 0.42263
 C266 C 0.41832 -0.13361 0.38937
 N267 N 0.44372 -0.05542 0.64488
 N268 N 0.40357 -0.06162 0.67734
 N269 N 0.54870 -0.08184 0.62533
 N270 N 0.58246 -0.11168 0.65340
 N271 N 0.54213 -0.04314 0.66185
 N272 N 0.57156 -0.04558 0.71610
 N273 N 0.45165 -0.09360 0.60793
 N274 N 0.41787 -0.12718 0.61473
 Mn275 Mn 0.48703 0.00461 0.63890
 Mn276 Mn 0.50589 -0.09405 0.54490
 Cl277 Cl 0.49591 -0.00546 0.51935
 C278 C 0.38850 -0.10672 0.65791
 C279 C 0.59660 -0.08822 0.70937
 N280 N 0.57872 0.58296 0.02123
 N281 N 0.61437 0.61300 0.03441
 N282 N 0.55959 0.48027 0.10584
 N283 N 0.57021 0.44551 0.15677
 N284 N 0.59163 0.48094 0.05804
 N285 N 0.62506 0.44767 0.07514
 N286 N 0.54698 0.58472 0.06923
 N287 N 0.55992 0.61722 0.11405
 C288 C 0.60132 0.63557 0.09083
 C289 C 0.61151 0.42644 0.13660
 N290 N 0.42190 0.45996 0.07139
 N291 N 0.38871 0.43282 0.10386
 N292 N 0.44642 0.57242 0.07279
 N293 N 0.43580 0.61238 0.10491
 N294 N 0.41255 0.56257 0.02835
 N295 N 0.37738 0.59500 0.03008
 N296 N 0.45695 0.46890 0.11436
 N297 N 0.44833 0.44799 0.17694
 Mn298 Mn 0.50254 0.52632 0.09111
 C299 C 0.40634 0.42487 0.16937
 C300 C 0.39307 0.62616 0.07711
 N301 N 0.58927 0.45895 -0.08456
 N302 N 0.62805 0.43314 -0.09451
 N303 N 0.54129 0.54754 -0.16857
 N304 N 0.54361 0.57472 -0.22842
 N305 N 0.57365 0.56187 -0.12464
 N306 N 0.59905 0.59922 -0.15353
 N307 N 0.55455 0.44465 -0.12447
 N308 N 0.56858 0.40836 -0.16174
 Mn309 Mn 0.58343 0.52156 -0.03265
 C310 C 0.61409 0.40090 -0.14138
 C311 C 0.57936 0.60684 -0.21801
 N312 N 0.40967 0.53935 -0.11534
 N313 N 0.37462 0.56844 -0.14185
 N314 N 0.45370 0.43175 -0.11666
 N315 N 0.45679 0.38436 -0.13164
 N316 N 0.42142 0.43655 -0.07027
 N317 N 0.40212 0.39263 -0.05185
 N318 N 0.44166 0.53428 -0.16186
 N319 N 0.42989 0.55990 -0.22076
 Mn320 Mn 0.41592 0.49983 -0.02192
 Mn321 Mn 0.49768 0.48921 -0.14326
 Cl322 Cl 0.49995 0.50934 -0.02642
 C323 C 0.38840 0.58100 -0.20740
 C324 C 0.42378 0.36107 -0.09168
 N325 N 1.16809 0.12154 0.21057
 N326 N 1.14047 0.14105 0.16284
 N327 N 1.16192 0.62392 0.68084
 N328 N 1.13732 0.64444 0.63034
 N329 N 0.65641 0.12088 0.69386
 N330 N 0.62528 0.14364 0.65439
 N331 N 0.67492 0.64001 0.14650
 N332 N 0.63409 0.65932 0.13507
 N333 N 0.83099 -0.11417 0.24343
 N334 N 0.85933 -0.13224 0.20265
 N335 N 0.81603 0.38252 0.66284
 N336 N 0.83902 0.40982 0.62189
 N337 N 0.31472 -0.10968 0.71153
 N338 N 0.34658 -0.13113 0.67982
 N339 N 0.34215 0.38211 0.22570
 N340 N 0.38196 0.40094 0.22730
 N341 N 0.81842 0.10572 -0.21521
 N342 N 0.84954 0.12472 -0.17714
 N343 N 0.80682 0.60425 0.29893
 N344 N 0.83056 0.56885 0.32639
 N345 N 0.33095 0.11469 0.27060
 N346 N 0.36566 0.08745 0.26605
 N347 N 0.32277 0.62830 -0.25014
 N348 N 0.36221 0.61125 -0.25901
 N349 N 1.16137 -0.11554 -0.18208
 N350 N 1.13876 -0.13658 -0.13217
 N351 N 1.18199 0.38684 0.30348
 N352 N 1.15442 0.36505 0.34740
 N353 N 0.67886 -0.12190 0.34963
 N354 N 0.65394 -0.14244 0.39725
 N355 N 0.68856 0.38281 -0.18331
 N356 N 0.64557 0.37044 -0.17662
 N357 N 1.14952 0.15497 -0.19068
 N358 N 1.13565 0.11121 -0.18915
 N359 N 1.14888 0.65682 0.26631
 N360 N 1.13315 0.61391 0.26482
 N361 N 0.61685 0.18552 0.33009
 N362 N 0.62515 0.13864 0.32946
 N363 N 0.62365 0.67633 -0.26066
 N364 N 0.59531 0.64265 -0.27128
 N365 N 0.88758 -0.20761 -0.14417
 N366 N 0.87838 -0.16057 -0.14784
 N367 N 0.87240 0.33536 0.27011
 N368 N 0.87246 0.34017 0.33458
 N369 N 0.39208 -0.16869 0.28968
 N370 N 0.38927 -0.16735 0.35465
 N371 N 0.39193 0.28846 -0.12797
 N372 N 0.41688 0.30812 -0.08520
 N373 N 1.13720 -0.16644 0.25723
 N374 N 1.11621 -0.12661 0.26263
 N375 N 1.13006 0.32243 0.71116
 N376 N 1.13557 0.37004 0.70616
 N377 N 0.64798 -0.15088 0.75553
 N378 N 0.63146 -0.10824 0.75878
 N379 N 0.61765 0.35413 0.21607
 N380 N 0.63566 0.38406 0.16984
 N381 N 0.85609 0.19004 0.13984
 N382 N 0.86359 0.14556 0.16704
 N383 N 0.88196 0.65548 0.70383
 N384 N 0.87627 0.65168 0.63916
 N385 N 0.37763 0.16719 0.70625
 N386 N 0.35676 0.14669 0.65711
 N387 N 0.38506 0.69528 0.14053
 N388 N 0.36515 0.66450 0.10265
   
