data_POSCAR
  _audit_creation_date              2014-09-24
  _audit_creation_method            'ToBaCCo'
  _symmetry_space_group_name_H-M    'P1'
  _symmetry_Int_Tables_number       1
  _symmetry_cell_setting            triclinic
  loop_
  _symmetry_equiv_pos_as_xyz
 x,y,z
_cell_length_a 46.6551
_cell_length_b 46.7635
_cell_length_c 46.8357
_cell_angle_alpha 89.870700
_cell_angle_beta 90.022700
_cell_angle_gamma 89.941000
loop_
  _atom_site_label
  _atom_site_type_symbol
  _atom_site_fract_x
  _atom_site_fract_y
  _atom_site_fract_z
C1 C 0.32421 0.35964 1.35811
 N2 N 0.33521 0.37288 1.33467
 C3 C 0.35968 0.36320 1.32228
 N4 N 0.37307 0.33985 1.33332
 C5 C 0.36224 0.32607 1.35650
 N6 N 0.33788 0.33624 1.36876
 C7 C 1.17171 0.63840 0.86811
 N8 N 1.16032 0.62594 0.84450
 C9 C 1.13778 0.63795 0.83058
 N10 N 1.12637 0.66269 0.84065
 C11 C 1.13706 0.67531 0.86454
 N12 N 1.15984 0.66304 0.87800
 C13 C 0.66821 -0.13647 0.12964
 N14 N 0.65800 -0.12446 0.15397
 C15 C 0.63598 -0.13673 0.16848
 N16 N 0.62416 -0.16125 0.15835
 C17 C 0.63383 -0.17336 0.13378
 N18 N 0.65598 -0.16081 0.11965
 C19 C -0.17717 1.13995 -0.35807
 N20 N -0.16342 1.16316 -0.36899
 C21 C -0.13892 1.17324 -0.35695
 N22 N -0.12804 1.15956 -0.33370
 C23 C -0.14150 1.13642 -0.32238
 N24 N -0.16609 1.12683 -0.33457
 C25 C 0.67173 0.63757 0.63017
 N26 N 0.66173 0.62522 0.65448
 C27 C 0.63938 0.63698 0.66892
 N28 N 0.62703 0.66130 0.65873
 C29 C 0.63648 0.67371 0.63420
 N30 N 0.65895 0.66168 0.62015
 C31 C 0.82521 0.35977 0.14159
 N32 N 0.83673 0.37327 0.16458
 C33 C 0.86156 0.36384 0.17651
 N34 N 0.87482 0.34049 0.16543
 C35 C 0.86344 0.32640 0.14274
 N36 N 0.83869 0.33631 0.13097
 C37 C 0.32437 0.14016 0.85807
 N38 N 0.33808 0.16341 0.86875
 C39 C 0.36257 0.17326 0.85656
 N40 N 0.37344 0.15947 0.83347
 C41 C 0.35994 0.13626 0.82244
 N42 N 0.33534 0.12679 0.83477
 C43 C 0.17134 0.85935 0.36858
 N44 N 0.16013 0.87189 0.34484
 C45 C 0.13809 0.85964 0.33045
 N46 N 0.12698 0.83463 0.34019
 C47 C 0.13741 0.82195 0.36420
 N48 N 0.15974 0.83442 0.37815
 Zn49 Zn 0.00479 1.03693 -0.01131
 Zn50 Zn -0.02149 0.97892 -0.01858
 Zn51 Zn 0.03633 0.98534 0.00852
 Zn52 Zn -0.01567 1.00488 0.03963
 O53 O 0.00093 1.00146 0.00452
 O54 O -0.01443 1.04036 -0.04404
 O55 O -0.00324 0.94703 -0.03031
 O56 O 0.06464 1.00771 -0.00427
 O57 O -0.03295 0.99729 -0.05043
 O58 O 0.04115 1.04579 -0.01963
 O59 O 0.03971 0.95290 -0.01106
 O60 O 0.00623 0.99108 0.06785
 O61 O -0.05381 0.96731 -0.00112
 O62 O 0.04486 0.97644 0.04480
 O63 O -0.04882 0.98604 0.04196
 O64 O -0.02380 1.04117 0.04890
 O65 O -0.00820 1.06494 0.01117
 C66 C -0.02912 1.02290 -0.05869
 C67 C 0.02236 0.93863 -0.02624
 C68 C 0.06443 1.03221 -0.01596
 C69 C 0.03088 0.97956 0.06784
 C70 C -0.06300 0.97141 0.02408
 C71 C -0.01987 1.06454 0.03563
 Zn72 Zn 0.48413 0.00475 0.46084
 Zn73 Zn 0.47800 -0.02168 0.51893
 Zn74 Zn 0.53603 -0.01518 0.49216
 Zn75 Zn 0.50453 0.03620 0.51207
 O76 O 0.50061 0.00095 0.49603
 O77 O 0.45111 -0.01438 0.45812
 O78 O 0.49616 -0.05363 0.53071
 O79 O 0.54472 -0.02372 0.45587
 O80 O 0.44585 -0.03327 0.50120
 O81 O 0.50627 -0.00864 0.43270
 O82 O 0.53918 -0.04781 0.51160
 O83 O 0.54087 0.04495 0.52062
 O84 O 0.46635 -0.00357 0.55078
 O85 O 0.56439 0.00699 0.50524
 O86 O 0.48521 0.03941 0.54467
 O87 O 0.49164 0.06437 0.48973
 O88 O 0.47598 0.04120 0.45175
 C89 C 0.43692 -0.02922 0.47588
 C90 C 0.52172 -0.06210 0.52670
 C91 C 0.53087 -0.02024 0.43278
 C92 C 0.56416 0.03139 0.51703
 C93 C 0.47032 0.02195 0.55915
 C94 C 0.47999 0.06437 0.46525
 Zn95 Zn 1.00581 0.46226 0.48790
 Zn96 Zn 1.03702 0.51359 0.50853
 Zn97 Zn 0.97937 0.52019 0.48090
 Zn98 Zn 0.98468 0.49351 0.53893
 O99 O 1.00167 0.49746 0.50403
 O100 O 1.04227 0.45356 0.47986
 O101 O 1.04043 0.54638 0.48931
 O102 O 0.96828 0.50228 0.44874
 O103 O 1.06556 0.49144 0.49573
 O104 O 0.98701 0.45922 0.45494
 O105 O 0.99763 0.55221 0.46965
 O106 O 0.95151 0.51242 0.54119
 O107 O 1.04514 0.52195 0.54501
 O108 O 0.94690 0.53162 0.49817
 O109 O 1.00626 0.50697 0.56744
 O110 O 0.97657 0.45703 0.54780
 O111 O 0.99261 0.43396 0.50991
 C112 C 1.06549 0.46710 0.48380
 C113 C 1.02311 0.56073 0.47406
 C114 C 0.97237 0.47680 0.44028
 C115 C 0.93753 0.52734 0.52329
 C116 C 1.03086 0.51853 0.56785
 C117 C 0.98068 0.43390 0.53425
 Zn118 Zn 0.48603 0.49472 0.96056
 Zn119 Zn 0.53755 0.51467 0.99226
 Zn120 Zn 0.47930 0.52099 1.01856
 Zn121 Zn 0.50607 0.46320 1.01209
 O122 O 0.50218 0.49846 0.99589
 O123 O 0.50838 0.50814 0.93252
 O124 O 0.54041 0.54730 1.01158
 O125 O 0.44723 0.53247 1.00056
 O126 O 0.54655 0.52322 0.95602
 O127 O 0.45295 0.51379 0.95751
 O128 O 0.49720 0.55298 1.03031
 O129 O 0.48655 0.45989 1.04459
 O130 O 0.56586 0.49251 1.00561
 O131 O 0.46750 0.50284 1.05041
 O132 O 0.54238 0.45445 1.02088
 O133 O 0.49339 0.43507 0.98975
 O134 O 0.47805 0.45829 0.95154
 C135 C 0.53297 0.51973 0.93279
 C136 C 0.52275 0.56154 1.02646
 C137 C 0.43852 0.52848 0.97517
 C138 C 0.47149 0.47732 1.05891
 C139 C 0.56564 0.46806 1.01742
 C140 C 0.48195 0.43510 0.96518
 C141 C 1.24861 0.39064 0.39786
 C142 C 1.25941 0.40393 0.37317
 C143 C 1.28431 0.39377 0.36004
 C144 C 1.29906 0.36992 0.37122
 C145 C 1.28809 0.35663 0.39595
 C146 C 1.26327 0.36690 0.40909
 C147 C 1.22213 0.40144 0.41181
 C148 C 1.20190 0.38231 0.42322
 C149 C 1.17691 0.39245 0.43617
 C150 C 1.17150 0.42196 0.43794
 C151 C 1.19180 0.44110 0.42666
 C152 C 1.21683 0.43096 0.41379
 C153 C 1.14454 0.43277 0.45095
 C154 C 1.14457 0.45766 0.46774
 C155 C 1.11900 0.46851 0.47888
 C156 C 1.09282 0.45465 0.47358
 C157 C 1.09286 0.42942 0.45733
 C158 C 1.11841 0.41865 0.44610
 H159 H 1.24838 0.42200 0.36372
 H160 H 1.29183 0.40463 0.34102
 H161 H 1.29870 0.33832 0.40544
 H162 H 1.25577 0.35644 0.42833
 H163 H 1.20517 0.35943 0.42178
 H164 H 1.16187 0.37714 0.44491
 H165 H 1.18814 0.46395 0.42735
 H166 H 1.23214 0.44628 0.40555
 H167 H 1.16440 0.46878 0.47228
 H168 H 1.11973 0.48792 0.49143
 H169 H 1.07305 0.41829 0.45273
 H170 H 1.11757 0.39965 0.43295
 C171 C 0.24733 0.60404 0.90534
 C172 C 0.23637 0.63056 0.91439
 C173 C 0.21092 0.64147 0.90287
 C174 C 0.19607 0.62650 0.88139
 C175 C 0.20677 0.59969 0.87280
 C176 C 0.23177 0.58850 0.88486
 C177 C 0.27527 0.59302 0.91644
 C178 C 0.29329 0.57653 0.89889
 C179 C 0.31956 0.56637 0.90896
 C180 C 0.32907 0.57298 0.93668
 C181 C 0.31113 0.58956 0.95425
 C182 C 0.28450 0.59921 0.94437
 C183 C 0.35753 0.56259 0.94700
 C184 C 0.36200 0.55562 0.97595
 C185 C 0.38855 0.54525 0.98531
 C186 C 0.41100 0.54098 0.96583
 C187 C 0.40673 0.54808 0.93703
 C188 C 0.38049 0.55911 0.92780
 H189 H 0.24783 0.64344 0.92979
 H190 H 0.20355 0.66217 0.91016
 H191 H 0.19585 0.58714 0.85672
 H192 H 0.23888 0.56760 0.87796
 H193 H 0.28739 0.57170 0.87708
 H194 H 0.33231 0.55315 0.89491
 H195 H 0.31774 0.59546 0.97558
 H196 H 0.27114 0.61144 0.95876
 H197 H 0.34483 0.55751 0.99135
 H198 H 0.39127 0.53973 1.00762
 H199 H 0.42384 0.54534 0.92164
 H200 H 0.37834 0.56499 0.90554
 C201 C -0.25585 0.89843 0.09071
 C202 C -0.26375 0.86977 0.08606
 C203 C -0.28892 0.85874 0.09791
 C204 C -0.30654 0.87593 0.11510
 C205 C -0.29905 0.90467 0.11933
 C206 C -0.27417 0.91587 0.10705
 C207 C -0.22810 0.90968 0.07963
 C208 C -0.21231 0.92969 0.09554
 C209 C -0.18581 0.93953 0.08583
 C210 C -0.17400 0.92926 0.06020
 C211 C -0.18987 0.90945 0.04411
 C212 C -0.21665 0.89993 0.05361
 C213 C -0.14516 0.93902 0.05060
 C214 C -0.13890 0.94268 0.02140
 C215 C -0.11196 0.95249 0.01266
 C216 C -0.09087 0.95930 0.03293
 C217 C -0.09694 0.95534 0.06202
 C218 C -0.12362 0.94507 0.07073
 H219 H -0.25005 0.85551 0.07404
 H220 H -0.29402 0.83642 0.09444
 H221 H -0.31240 0.91852 0.13223
 H222 H -0.26924 0.93820 0.11052
 H223 H -0.22010 0.93742 0.11587
 H224 H -0.17458 0.95525 0.09853
 H225 H -0.18142 0.90084 0.02440
 H226 H -0.22834 0.88487 0.04052
 H227 H -0.15502 0.93862 0.00529
 H228 H -0.10790 0.95553 -0.00991
 H229 H -0.08097 0.96009 0.07812
 H230 H -0.12727 0.94178 0.09332
 C231 C 0.74695 0.10889 0.60280
 C232 C 0.76156 0.13250 0.59131
 C233 C 0.78646 0.14282 0.60425
 C234 C 0.79756 0.12970 0.62905
 C235 C 0.78282 0.10602 0.64051
 C236 C 0.75785 0.09582 0.62758
 C237 C 0.72046 0.09794 0.58899
 C238 C 0.71524 0.06839 0.58732
 C239 C 0.69022 0.05809 0.57457
 C240 C 0.66984 0.07708 0.56310
 C241 C 0.67515 0.10662 0.56460
 C242 C 0.70013 0.11693 0.57742
 C243 C 0.64294 0.06608 0.55013
 C244 C 0.61673 0.08019 0.55475
 C245 C 0.59126 0.06927 0.54349
 C246 C 0.59138 0.04391 0.52744
 C247 C 0.61764 0.03005 0.52240
 C248 C 0.64312 0.04104 0.53357
 H249 H 0.75397 0.14281 0.57201
 H250 H 0.79705 0.16101 0.59456
 H251 H 0.79042 0.09530 0.65959
 H252 H 0.74686 0.07785 0.63723
 H253 H 0.73061 0.05316 0.59569
 H254 H 0.68664 0.03522 0.57411
 H255 H 0.66005 0.12181 0.55571
 H256 H 0.70334 0.13982 0.57862
 H257 H 0.61577 0.09930 0.56772
 H258 H 0.57139 0.08041 0.54788
 H259 H 0.61850 0.01055 0.51001
 H260 H 0.66301 0.02992 0.52920
 C261 C 0.40158 0.25054 0.38820
 C262 C 0.41355 0.26536 0.36497
 C263 C 0.40078 0.29039 0.35465
 C264 C 0.37564 0.30129 0.36731
 C265 C 0.36390 0.28648 0.39080
 C266 C 0.37667 0.26145 0.40102
 C267 C 0.41479 0.22365 0.39891
 C268 C 0.41604 0.21797 0.42836
 C269 C 0.42769 0.19236 0.43847
 C270 C 0.43846 0.17182 0.41939
 C271 C 0.43747 0.17760 0.38994
 C272 C 0.42576 0.20324 0.37982
 C273 C 0.45027 0.14436 0.43028
 C274 C 0.44449 0.11848 0.41616
 C275 C 0.45455 0.09253 0.42719
 C276 C 0.47055 0.09188 0.45262
 C277 C 0.47677 0.11780 0.46643
 C278 C 0.46680 0.14372 0.45536
 H279 H 0.43297 0.25771 0.35489
 H280 H 0.41069 0.30108 0.33665
 H281 H 0.34457 0.29393 0.40122
 H282 H 0.36667 0.25033 0.41870
 H283 H 0.40809 0.23339 0.44365
 H284 H 0.42780 0.18844 0.46126
 H285 H 0.44585 0.16236 0.37471
 H286 H 0.42485 0.20684 0.35699
 H287 H 0.43154 0.11821 0.39697
 H288 H 0.44933 0.07293 0.41608
 H289 H 0.48921 0.11810 0.48595
 H290 H 0.47207 0.16331 0.46646
 C291 C 0.90081 0.24824 0.61079
 C292 C 0.87577 0.23749 0.59810
 C293 C 0.86286 0.21261 0.60849
 C294 C 0.87461 0.19781 0.63200
 C295 C 0.89991 0.20852 0.64448
 C296 C 0.91281 0.23338 0.63400
 C297 C 0.91412 0.27504 0.60003
 C298 C 0.92535 0.29531 0.61912
 C299 C 0.93723 0.32083 0.60900
 C300 C 0.93815 0.32666 0.57956
 C301 C 0.92712 0.30628 0.56048
 C302 C 0.91528 0.28077 0.57059
 C303 C 0.95015 0.35405 0.56872
 C304 C 0.96662 0.35463 0.54361
 C305 C 0.97686 0.38049 0.53269
 C306 C 0.97097 0.40641 0.54668
 C307 C 0.95499 0.40580 0.57211
 C308 C 0.94466 0.37991 0.58299
 H309 H 0.86576 0.24864 0.58042
 H310 H 0.84343 0.20528 0.59819
 H311 H 0.90985 0.19782 0.66249
 H312 H 0.93234 0.24088 0.64398
 H313 H 0.92451 0.29169 0.64194
 H314 H 0.94582 0.33595 0.62423
 H315 H 0.92717 0.31024 0.53769
 H316 H 0.90713 0.26546 0.55531
 H317 H 0.97164 0.33504 0.53238
 H318 H 0.98926 0.38017 0.51315
 H319 H 0.95000 0.42539 0.58336
 H320 H 0.93176 0.38024 0.60219
 C321 C 0.10049 0.75221 -0.10373
 C322 C 0.12141 0.73727 -0.08797
 C323 C 0.13365 0.71216 -0.09854
 C324 C 0.12483 0.70075 -0.12491
 C325 C 0.10346 0.71539 -0.14042
 C326 C 0.09173 0.74089 -0.13013
 C327 C 0.08824 0.77961 -0.09283
 C328 C 0.05978 0.78759 -0.09898
 C329 C 0.04861 0.81355 -0.08914
 C330 C 0.06542 0.83205 -0.07242
 C331 C 0.09369 0.82380 -0.06590
 C332 C 0.10503 0.79821 -0.07624
 C333 C 0.05373 0.85980 -0.06180
 C334 C 0.07195 0.88350 -0.05818
 C335 C 0.06160 0.90902 -0.04677
 C336 C 0.03260 0.91185 -0.03939
 C337 C 0.01402 0.88873 -0.04390
 C338 C 0.02453 0.86284 -0.05468
 H339 H 0.12824 0.74477 -0.06722
 H340 H 0.14976 0.70152 -0.08567
 H341 H 0.09609 0.70755 -0.16089
 H342 H 0.07614 0.75196 -0.14323
 H343 H 0.04594 0.77371 -0.11126
 H344 H 0.02688 0.81919 -0.09496
 H345 H 0.10720 0.83702 -0.05258
 H346 H 0.12716 0.79325 -0.07140
 H347 H 0.09431 0.88246 -0.06422
 H348 H 0.07630 0.92670 -0.04388
 H349 H -0.00842 0.89037 -0.03820
 H350 H 0.00986 0.84506 -0.05674
 C351 C 0.59735 0.74963 1.10253
 C352 C 0.61730 0.76511 1.08613
 C353 C 0.62941 0.79033 1.09648
 C354 C 0.62141 0.80131 1.12331
 C355 C 0.60084 0.78621 1.13940
 C356 C 0.58924 0.76060 1.12928
 C357 C 0.58558 0.72196 1.09195
 C358 C 0.55750 0.71330 1.09876
 C359 C 0.54683 0.68707 1.08915
 C360 C 0.56376 0.66900 1.07208
 C361 C 0.59165 0.67791 1.06494
 C362 C 0.60250 0.70378 1.07501
 C363 C 0.55263 0.64100 1.06168
 C364 C 0.57136 0.61770 1.05794
 C365 C 0.56150 0.59196 1.04664
 C366 C 0.53252 0.58853 1.03948
 C367 C 0.51344 0.61126 1.04414
 C368 C 0.52344 0.63735 1.05484
 H369 H 0.62354 0.75788 1.06510
 H370 H 0.64484 0.80135 1.08315
 H371 H 0.59410 0.79374 1.16019
 H372 H 0.57434 0.74912 1.14279
 H373 H 0.54361 0.72684 1.11136
 H374 H 0.52538 0.68087 1.09541
 H375 H 0.60521 0.66501 1.05135
 H376 H 0.62438 0.70931 1.06969
 H377 H 0.59375 0.61924 1.06376
 H378 H 0.57659 0.57459 1.04365
 H379 H 0.49099 0.60915 1.03864
 H380 H 0.50839 0.65483 1.05703
 C381 C 0.39351 0.40294 1.24639
 C382 C 0.41139 0.38702 1.26471
 C383 C 0.40041 0.37426 1.28937
 C384 C 0.37141 0.37755 1.29665
 C385 C 0.35367 0.39414 1.27891
 C386 C 0.36453 0.40650 1.25395
 C387 C 0.40487 0.41494 1.21915
 C388 C 0.39464 0.44107 1.20817
 C389 C 0.40480 0.45171 1.18212
 C390 C 0.42567 0.43664 1.16654
 C391 C 0.43623 0.41080 1.17782
 C392 C 0.42580 0.39998 1.20358
 C393 C 0.43629 0.44748 1.13854
 C394 C 0.44353 0.42821 1.11668
 C395 C 0.45475 0.43802 1.09087
 C396 C 0.45856 0.46740 1.08598
 C397 C 0.45056 0.48684 1.10736
 C398 C 0.43973 0.47698 1.13347
 H399 H 0.43395 0.38438 1.26005
 H400 H 0.41470 0.36190 1.30283
 H401 H 0.33117 0.39691 1.28390
 H402 H 0.34998 0.41820 1.24021
 H403 H 0.37883 0.45341 1.21973
 H404 H 0.39595 0.47153 1.17402
 H405 H 0.45271 0.39884 1.16679
 H406 H 0.43391 0.37959 1.21101
 H407 H 0.44044 0.40543 1.11942
 H408 H 0.46036 0.42254 1.07463
 H409 H 0.45338 0.50961 1.10419
 H410 H 0.43472 0.49244 1.14989
 C411 C 0.60611 -0.09978 0.24725
 C412 C 0.59656 -0.12689 0.23860
 C413 C 0.60603 -0.13877 0.21292
 C414 C 0.62544 -0.12387 0.19541
 C415 C 0.63494 -0.09670 0.20408
 C416 C 0.62529 -0.08475 0.22966
 C417 C 0.59615 -0.08728 0.27458
 C418 C 0.58784 -0.05843 0.27605
 C419 C 0.57804 -0.04680 0.30173
 C420 C 0.57658 -0.06373 0.32652
 C421 C 0.58517 -0.09250 0.32511
 C422 C 0.59475 -0.10418 0.29939
 C423 C 0.56559 -0.05163 0.35364
 C424 C 0.57930 -0.05773 0.37967
 C425 C 0.56836 -0.04708 0.40533
 C426 C 0.54334 -0.03030 0.40551
 C427 C 0.52984 -0.02394 0.37940
 C428 C 0.54091 -0.03440 0.35375
 H429 H 0.58152 -0.13881 0.25159
 H430 H 0.59827 -0.15973 0.20693
 H431 H 0.64987 -0.08462 0.19111
 H432 H 0.63318 -0.06392 0.23593
 H433 H 0.58851 -0.04497 0.25722
 H434 H 0.57175 -0.02451 0.30227
 H435 H 0.58401 -0.10611 0.34381
 H436 H 0.60127 -0.12640 0.29893
 H437 H 0.59853 -0.07070 0.38017
 H438 H 0.57928 -0.05236 0.42506
 H439 H 0.51054 -0.01107 0.37879
 H440 H 0.52976 -0.02959 0.33403
 C441 C -0.10742 1.09710 -0.24631
 C442 C -0.13643 1.09355 -0.25377
 C443 C -0.14737 1.10578 -0.27879
 C444 C -0.12969 1.12221 -0.29668
 C445 C -0.10066 1.12549 -0.28948
 C446 C -0.08961 1.11287 -0.26476
 C447 C -0.09596 1.08520 -0.21905
 C448 C -0.07496 1.10017 -0.20359
 C449 C -0.06441 1.08942 -0.17783
 C450 C -0.07489 1.06362 -0.16645
 C451 C -0.09583 1.04854 -0.18191
 C452 C -0.10612 1.05912 -0.20795
 C453 C -0.06412 1.05280 -0.13847
 C454 C -0.06068 1.02331 -0.13337
 C455 C -0.04985 1.01345 -0.10725
 C456 C -0.04186 1.03288 -0.08587
 C457 C -0.04559 1.06227 -0.09081
 C458 C -0.05681 1.07209 -0.11665
 H459 H -0.15093 1.08195 -0.23993
 H460 H -0.16989 1.10301 -0.28370
 H461 H -0.08641 1.13773 -0.30305
 H462 H -0.06703 1.11550 -0.26017
 H463 H -0.06690 1.12053 -0.21112
 H464 H -0.04789 1.10138 -0.16689
 H465 H -0.10463 1.02875 -0.17372
 H466 H -0.12198 1.04676 -0.21941
 H467 H -0.06573 1.00783 -0.14976
 H468 H -0.04708 0.99067 -0.10405
 H469 H -0.03998 1.07776 -0.07458
 H470 H -0.05988 1.09487 -0.11942
 C471 C 1.10540 0.59959 0.75339
 C472 C 1.12720 0.58616 0.76922
 C473 C 1.13753 0.59849 0.79434
 C474 C 1.12628 0.62455 0.80428
 C475 C 1.10429 0.63786 0.78857
 C476 C 1.09399 0.62553 0.76341
 C477 C 1.09476 0.58670 0.72642
 C478 C 1.06541 0.58725 0.71969
 C479 C 1.05545 0.57538 0.69420
 C480 C 1.07460 0.56265 0.67483
 C481 C 1.10394 0.56202 0.68160
 C482 C 1.11391 0.57390 0.70709
 C483 C 1.06398 0.55040 0.64755
 C484 C 1.07942 0.55426 0.62206
 C485 C 1.06894 0.54351 0.59625
 C486 C 1.04276 0.52869 0.59535
 C487 C 1.02755 0.52445 0.62093
 C488 C 1.03805 0.53515 0.64671
 H489 H 1.13614 0.56595 0.76231
 H490 H 1.15439 0.58756 0.80594
 H491 H 1.09519 0.65798 0.79551
 H492 H 1.07744 0.63660 0.75152
 H493 H 1.05007 0.59667 0.73425
 H494 H 1.03276 0.57652 0.68947
 H495 H 1.11921 0.55214 0.66727
 H496 H 1.13669 0.57341 0.71149
 H497 H 1.09930 0.56619 0.62193
 H498 H 1.08114 0.54723 0.57694
 H499 H 1.00738 0.51302 0.62102
 H500 H 1.02589 0.53141 0.66604
 C501 C 0.74812 0.60487 0.59066
 C502 C 0.73050 0.58669 0.60683
 C503 C 0.70546 0.59719 0.61948
 C504 C 0.69733 0.62589 0.61565
 C505 C 0.71457 0.64379 0.59869
 C506 C 0.73988 0.63344 0.58658
 C507 C 0.77568 0.59442 0.57914
 C508 C 0.80117 0.60907 0.58535
 C509 C 0.82746 0.59869 0.57556
 C510 C 0.82863 0.57383 0.55888
 C511 C 0.80309 0.55949 0.55210
 C512 C 0.77682 0.56953 0.56245
 C513 C 0.85658 0.56236 0.54947
 C514 C 0.86183 0.55672 0.52051
 C515 C 0.88840 0.54588 0.51182
 C516 C 0.90983 0.53984 0.53206
 C517 C 0.90440 0.54535 0.56104
 C518 C 0.87814 0.55680 0.56962
 H519 H 0.73657 0.56460 0.61035
 H520 H 0.69254 0.58290 0.63236
 H521 H 0.70895 0.66604 0.59546
 H522 H 0.75315 0.64778 0.57410
 H523 H 0.80077 0.62821 0.59834
 H524 H 0.84693 0.61006 0.58097
 H525 H 0.80359 0.54017 0.53940
 H526 H 0.75738 0.55797 0.55737
 H527 H 0.84547 0.56097 0.50464
 H528 H 0.89201 0.54170 0.48937
 H529 H 0.92057 0.54098 0.57708
 H530 H 0.87444 0.56088 0.59208
 C531 C 0.74877 0.39055 1.10309
 C532 C 0.76313 0.36668 1.09185
 C533 C 0.78820 0.35644 1.10461
 C534 C 0.79973 0.36990 1.12895
 C535 C 0.78522 0.39381 1.14018
 C536 C 0.76007 0.40393 1.12745
 C537 C 0.72216 0.40149 1.08942
 C538 C 0.71704 0.43104 1.08730
 C539 C 0.69194 0.44134 1.07464
 C540 C 0.67138 0.42234 1.06368
 C541 C 0.67657 0.39278 1.06564
 C542 C 0.70163 0.38248 1.07839
 C543 C 0.64444 0.43335 1.05072
 C544 C 0.61821 0.41944 1.05570
 C545 C 0.59272 0.43037 1.04439
 C546 C 0.59285 0.45555 1.02795
 C547 C 0.61912 0.46922 1.02258
 C548 C 0.64462 0.45821 1.03378
 H549 H 0.75523 0.35613 1.07286
 H550 H 0.79860 0.33806 1.09511
 H551 H 0.79314 0.40479 1.15892
 H552 H 0.74928 0.42209 1.13692
 H553 H 0.73257 0.44627 1.09523
 H554 H 0.68846 0.46422 1.07382
 H555 H 0.66132 0.37757 1.05714
 H556 H 0.70475 0.35958 1.07995
 H557 H 0.61724 0.40047 1.06897
 H558 H 0.57283 0.41939 1.04905
 H559 H 0.61998 0.48857 1.00987
 H560 H 0.66452 0.46916 1.02912
 C561 C 0.24723 1.10914 -0.10189
 C562 C 0.25728 1.09676 -0.12731
 C563 C 0.28227 1.10682 -0.14034
 C564 C 0.29776 1.12955 -0.12827
 C565 C 0.28763 1.14200 -0.10288
 C566 C 0.26269 1.13189 -0.08984
 C567 C 0.22076 1.09834 -0.08797
 C568 C 0.20103 1.11739 -0.07562
 C569 C 0.17604 1.10721 -0.06270
 C570 C 0.17018 1.07775 -0.06186
 C571 C 0.18997 1.05870 -0.07410
 C572 C 0.21497 1.06887 -0.08697
 C573 C 0.14330 1.06689 -0.04878
 C574 C 0.14335 1.04151 -0.03264
 C575 C 0.11784 1.03056 -0.02150
 C576 C 0.09169 1.04478 -0.02617
 C577 C 0.09173 1.07051 -0.04175
 C578 C 0.11723 1.08142 -0.05296
 H579 H 0.24562 1.07949 -0.13737
 H580 H 0.28935 1.09681 -0.15993
 H581 H 0.29908 1.15946 -0.09291
 H582 H 0.25574 1.14162 -0.07006
 H583 H 0.20472 1.14024 -0.07628
 H584 H 0.16136 1.12242 -0.05322
 H585 H 0.18593 1.03590 -0.07414
 H586 H 0.22990 1.05361 -0.09598
 H587 H 0.16314 1.03008 -0.02864
 H588 H 0.11858 1.01077 -0.00947
 H589 H 0.07194 1.08195 -0.04582
 H590 H 0.11641 1.10083 -0.06558
 C591 C 0.24615 -0.10571 0.40660
 C592 C 0.23042 -0.09011 0.38620
 C593 C 0.20565 -0.10147 0.37394
 C594 C 0.19534 -0.12853 0.38224
 C595 C 0.21026 -0.14354 0.40374
 C596 C 0.23550 -0.13245 0.41546
 C597 C 0.27399 -0.09455 0.41772
 C598 C 0.28338 -0.10094 0.44558
 C599 C 0.30995 -0.09116 0.45543
 C600 C 0.32766 -0.07426 0.43787
 C601 C 0.31797 -0.06745 0.41023
 C602 C 0.29178 -0.07774 0.40020
 C603 C 0.35609 -0.06377 0.44810
 C604 C 0.37891 -0.05999 0.42879
 C605 C 0.40509 -0.04882 0.43790
 C606 C 0.40944 -0.04188 0.46669
 C607 C 0.38716 -0.04647 0.48629
 C608 C 0.36065 -0.05700 0.47706
 H609 H 0.23725 -0.06904 0.37948
 H610 H 0.19464 -0.08887 0.35789
 H611 H 0.20316 -0.16443 0.41082
 H612 H 0.24708 -0.14536 0.43081
 H613 H 0.27020 -0.11344 0.45994
 H614 H 0.31670 -0.09720 0.47671
 H615 H 0.33054 -0.05400 0.39620
 H616 H 0.28577 -0.07274 0.37844
 H617 H 0.37669 -0.06573 0.40653
 H618 H 0.42207 -0.04584 0.42242
 H619 H 0.38995 -0.04110 0.50860
 H620 H 0.34359 -0.05916 0.49254
 C621 C 0.59863 -0.24974 0.60289
 C622 C 0.59065 -0.26098 0.62962
 C623 C 0.60268 -0.28647 0.63974
 C624 C 0.62355 -0.30115 0.62369
 C625 C 0.63138 -0.28993 0.59687
 C626 C 0.61884 -0.26485 0.58651
 C627 C 0.58647 -0.22214 0.59233
 C628 C 0.60316 -0.20369 0.57541
 C629 C 0.59197 -0.17789 0.56535
 C630 C 0.56397 -0.16931 0.57248
 C631 C 0.54727 -0.18766 0.58954
 C632 C 0.55829 -0.21382 0.59913
 C633 C 0.55248 -0.14137 0.56209
 C634 C 0.52325 -0.13797 0.55527
 C635 C 0.51295 -0.11194 0.54452
 C636 C 0.53177 -0.08903 0.53981
 C637 C 0.56079 -0.09220 0.54696
 C638 C 0.57095 -0.11788 0.55831
 H639 H 0.57554 -0.24979 0.64311
 H640 H 0.59604 -0.29421 0.66052
 H641 H 0.64702 -0.30064 0.58356
 H642 H 0.62499 -0.25744 0.56549
 H643 H 0.62511 -0.20893 0.57009
 H644 H 0.60537 -0.16478 0.55177
 H645 H 0.52574 -0.18173 0.59579
 H646 H 0.54457 -0.22758 0.61173
 H647 H 0.50840 -0.15559 0.55749
 H648 H 0.49047 -0.11002 0.53903
 H649 H 0.57568 -0.07469 0.54393
 H650 H 0.59336 -0.11923 0.56413
 C651 C 1.10031 0.74519 0.39502
 C652 C 1.12094 0.75962 0.41129
 C653 C 1.13355 0.78471 0.40098
 C654 C 1.12523 0.79633 0.37441
 C655 C 1.10422 0.78178 0.35837
 C656 C 1.09220 0.75633 0.36843
 C657 C 1.08748 0.71836 0.40566
 C658 C 1.08965 0.69319 0.38954
 C659 C 1.07836 0.66755 0.40000
 C660 C 1.06409 0.66690 0.42637
 C661 C 1.06134 0.69220 0.44220
 C662 C 1.07327 0.71771 0.43206
 C663 C 1.05320 0.63962 0.43791
 C664 C 1.02406 0.63627 0.44455
 C665 C 1.01401 0.61036 0.45574
 C666 C 1.03314 0.58776 0.46116
 C667 C 1.06232 0.59129 0.45460
 C668 C 1.07219 0.61687 0.44275
 H669 H 1.12757 0.75121 0.43183
 H670 H 1.14954 0.79514 0.41410
 H671 H 1.09718 0.78980 0.33781
 H672 H 1.07626 0.74547 0.35560
 H673 H 1.10062 0.69329 0.36916
 H674 H 1.08070 0.64820 0.38754
 H675 H 1.05056 0.69203 0.46268
 H676 H 1.07131 0.73696 0.44473
 H677 H 1.00912 0.65364 0.44090
 H678 H 0.99145 0.60818 0.46073
 H679 H 1.07748 0.57415 0.45844
 H680 H 1.09476 0.61913 0.43785
 C681 C -0.09832 1.25013 0.11206
 C682 C -0.12394 1.26036 0.10010
 C683 C -0.13625 1.28577 0.10981
 C684 C -0.12341 1.30148 0.13206
 C685 C -0.09747 1.29127 0.14375
 C686 C -0.08503 1.26598 0.13375
 C687 C -0.08578 1.22276 0.10217
 C688 C -0.05632 1.22052 0.09638
 C689 C -0.04472 1.19479 0.08651
 C690 C -0.06231 1.17073 0.08260
 C691 C -0.09169 1.17290 0.08876
 C692 C -0.10333 1.19868 0.09831
 C693 C -0.05027 1.14360 0.07151
 C694 C -0.05800 1.11730 0.08383
 C695 C -0.04761 1.09164 0.07259
 C696 C -0.02954 1.09174 0.04858
 C697 C -0.02152 1.11811 0.03650
 C698 C -0.03167 1.14377 0.04795
 H699 H -0.13441 1.24872 0.08307
 H700 H -0.15611 1.29277 0.10005
 H701 H -0.08674 1.30263 0.16081
 H702 H -0.06533 1.25845 0.14344
 H703 H -0.04237 1.23881 0.09904
 H704 H -0.02197 1.19362 0.08207
 H705 H -0.10577 1.15476 0.08568
 H706 H -0.12606 1.19977 0.10287
 H707 H -0.07210 1.11660 0.10218
 H708 H -0.05419 1.07169 0.08238
 H709 H -0.00759 1.11892 0.01803
 H710 H -0.02557 1.16373 0.03790
 C711 C 0.40293 0.24962 0.88859
 C712 C 0.37747 0.23934 0.90089
 C713 C 0.36458 0.21444 0.89069
 C714 C 0.37680 0.19921 0.86789
 C715 C 0.40239 0.20938 0.85569
 C716 C 0.41530 0.23430 0.86593
 C717 C 0.41631 0.27635 0.89925
 C718 C 0.42805 0.29639 0.88014
 C719 C 0.43990 0.32191 0.89020
 C720 C 0.44030 0.32792 0.91959
 C721 C 0.42878 0.30775 0.93868
 C722 C 0.41696 0.28227 0.92864
 C723 C 0.45223 0.35529 0.93038
 C724 C 0.46829 0.35586 0.95575
 C725 C 0.47830 0.38171 0.96675
 C726 C 0.47257 0.40763 0.95259
 C727 C 0.45706 0.40703 0.92686
 C728 C 0.44697 0.38114 0.91589
 H729 H 0.36717 0.25087 0.91810
 H730 H 0.34483 0.20733 0.90054
 H731 H 0.41246 0.19815 0.83816
 H732 H 0.43512 0.24147 0.85625
 H733 H 0.42761 0.29259 0.85735
 H734 H 0.44886 0.33689 0.87497
 H735 H 0.42843 0.31188 0.96142
 H736 H 0.40840 0.26713 0.94393
 H737 H 0.47314 0.33627 0.96715
 H738 H 0.49035 0.38138 0.98651
 H739 H 0.45223 0.42663 0.91547
 H740 H 0.43439 0.38145 0.89646
 C741 C 0.60984 0.59939 0.74768
 C742 C 0.62929 0.58464 0.73017
 C743 C 0.63887 0.59679 0.70459
 C744 C 0.62901 0.62387 0.69586
 C745 C 0.60933 0.63847 0.71329
 C746 C 0.59995 0.62641 0.73895
 C747 C 0.59991 0.58674 0.77500
 C748 C 0.59818 0.60359 0.79974
 C749 C 0.58841 0.59185 0.82541
 C750 C 0.57996 0.56305 0.82683
 C751 C 0.58181 0.54615 0.80213
 C752 C 0.59182 0.55783 0.77650
 C753 C 0.56867 0.55093 0.85388
 C754 C 0.54403 0.53370 0.85378
 C755 C 0.53262 0.52331 0.87936
 C756 C 0.54575 0.52975 0.90560
 C757 C 0.57074 0.54652 0.90563
 C758 C 0.58200 0.55710 0.88006
 H759 H 0.63743 0.56387 0.73649
 H760 H 0.65400 0.58494 0.69168
 H761 H 0.60128 0.65935 0.70725
 H762 H 0.58469 0.63811 0.75186
 H763 H 0.60453 0.62585 0.79926
 H764 H 0.58696 0.60544 0.84404
 H765 H 0.57563 0.52383 0.80268
 H766 H 0.59275 0.54441 0.75772
 H767 H 0.53316 0.52884 0.83394
 H768 H 0.51336 0.51043 0.87859
 H769 H 0.58138 0.55186 0.92547
 H770 H 0.60120 0.57008 0.88072
 C771 C 0.39361 0.09627 0.74680
 C772 C 0.36462 0.09291 0.75436
 C773 C 0.35381 0.10536 0.77924
 C774 C 0.37163 0.12184 0.79691
 C775 C 0.40065 0.12492 0.78963
 C776 C 0.41157 0.11207 0.76504
 C777 C 0.40489 0.08420 0.71962
 C778 C 0.42581 0.09907 0.70392
 C779 C 0.43608 0.08824 0.67814
 C780 C 0.42537 0.06248 0.66700
 C781 C 0.40456 0.04747 0.68273
 C782 C 0.39455 0.05812 0.70879
 C783 C 0.43576 0.05167 0.63896
 C784 C 0.43916 0.02218 0.63394
 C785 C 0.44977 0.01235 0.60777
 C786 C 0.45757 0.03183 0.58628
 C787 C 0.45378 0.06120 0.59111
 C788 C 0.44277 0.07098 0.61699
 H789 H 0.35002 0.08130 0.74067
 H790 H 0.33130 0.10275 0.78423
 H791 H 0.41499 0.13719 0.80304
 H792 H 0.43415 0.11455 0.76036
 H793 H 0.43400 0.11942 0.71125
 H794 H 0.45253 0.10014 0.66698
 H795 H 0.39562 0.02770 0.67473
 H796 H 0.37876 0.04585 0.72046
 H797 H 0.43430 0.00669 0.65045
 H798 H 0.45259 -0.01042 0.60464
 H799 H 0.45923 0.07671 0.57478
 H800 H 0.43970 0.09376 0.61970
 C801 C 0.10649 0.89786 0.25276
 C802 C 0.09738 0.87047 0.26112
 C803 C 0.10734 0.85823 0.28650
 C804 C 0.12682 0.87301 0.30398
 C805 C 0.13580 0.90049 0.29565
 C806 C 0.12565 0.91282 0.27037
 C807 C 0.09622 0.91065 0.22560
 C808 C 0.08760 0.93943 0.22443
 C809 C 0.07765 0.95134 0.19887
 C810 C 0.07636 0.93477 0.17391
 C811 C 0.08522 0.90607 0.17503
 C812 C 0.09494 0.89410 0.20063
 C813 C 0.06539 0.94720 0.14686
 C814 C 0.07926 0.94159 0.12084
 C815 C 0.06837 0.95254 0.09524
 C816 C 0.04324 0.96915 0.09509
 C817 C 0.02957 0.97502 0.12118
 C818 C 0.04059 0.96425 0.14679
 H819 H 0.08236 0.85860 0.24812
 H820 H 0.09996 0.83703 0.29225
 H821 H 0.15076 0.91250 0.30861
 H822 H 0.13321 0.93387 0.26432
 H823 H 0.08818 0.95261 0.24340
 H824 H 0.07115 0.97357 0.19856
 H825 H 0.08419 0.89273 0.15619
 H826 H 0.10170 0.87194 0.20085
 H827 H 0.09859 0.92876 0.12032
 H828 H 0.07943 0.94763 0.07552
 H829 H 0.01018 0.98776 0.12181
 H830 H 0.02931 0.96870 0.16650
 C831 C 0.89619 0.40380 0.25177
 C832 C 0.91392 0.38789 0.23337
 C833 C 0.90271 0.37509 0.20887
 C834 C 0.87363 0.37833 0.20185
 C835 C 0.85605 0.39492 0.21966
 C836 C 0.86714 0.40732 0.24445
 C837 C 0.90773 0.41576 0.27891
 C838 C 0.89744 0.44180 0.28993
 C839 C 0.90753 0.45228 0.31603
 C840 C 0.92840 0.43714 0.33163
 C841 C 0.93912 0.41145 0.32026
 C842 C 0.92876 0.40080 0.29444
 C843 C 0.93875 0.44770 0.35979
 C844 C 0.94582 0.42820 0.38161
 C845 C 0.95656 0.43776 0.40768
 C846 C 0.96005 0.46711 0.41287
 C847 C 0.95230 0.48676 0.39150
 C848 C 0.94194 0.47715 0.36514
 H849 H 0.93653 0.38527 0.23787
 H850 H 0.91687 0.36271 0.19536
 H851 H 0.83350 0.39765 0.21489
 H852 H 0.85270 0.41899 0.25826
 H853 H 0.88158 0.45417 0.27839
 H854 H 0.89858 0.47199 0.32419
 H855 H 0.95561 0.39947 0.33130
 H856 H 0.93693 0.38048 0.28696
 H857 H 0.94291 0.40544 0.37865
 H858 H 0.96200 0.42212 0.42389
 H859 H 0.95490 0.50951 0.39489
 H860 H 0.93706 0.49278 0.34877
   
