data_POSCAR
  _audit_creation_date              2014-09-24
  _audit_creation_method            'ToBaCCo'
  _symmetry_space_group_name_H-M    'P1'
  _symmetry_Int_Tables_number       1
  _symmetry_cell_setting            triclinic
  loop_
  _symmetry_equiv_pos_as_xyz
 x,y,z
_cell_length_a 44.3557
_cell_length_b 43.3698
_cell_length_c 44.4121
_cell_angle_alpha 89.971700
_cell_angle_beta 89.784600
_cell_angle_gamma 89.870100
loop_
  _atom_site_label
  _atom_site_type_symbol
  _atom_site_fract_x
  _atom_site_fract_y
  _atom_site_fract_z
N1 N 0.59411 0.67638 0.61369
 N2 N 0.58345 0.66417 0.63863
 C3 C 0.55952 0.68075 0.64800
 C4 C 0.55481 0.70468 0.62786
 C5 C 0.57726 0.70112 0.60634
 H6 H 0.54612 0.67541 0.66767
 H7 H 0.58111 0.71539 0.58675
 Cu8 Cu 0.60129 0.62726 0.65606
 Cu9 Cu 0.62870 0.65898 0.59237
 Cu10 Cu 0.66069 0.59308 0.62308
 N11 N 0.61953 0.59031 0.67307
 N12 N 0.64277 0.57713 0.65995
 C13 C 0.65091 0.55207 0.67581
 C14 C 0.63169 0.54911 0.70042
 C15 C 0.61202 0.57400 0.69782
 H16 H 0.66941 0.53714 0.66956
 H17 H 0.59352 0.57985 0.71264
 N18 N 0.67572 0.61258 0.58595
 N19 N 0.66382 0.63779 0.57428
 C20 C 0.67947 0.64546 0.54930
 C21 C 0.70223 0.62395 0.54498
 C22 C 0.69909 0.60352 0.56870
 H23 H 0.67457 0.66515 0.53519
 H24 H 0.71318 0.58375 0.57339
 H25 H 0.62213 0.61431 0.60678
 H26 H 0.64816 0.63868 0.62951
 N27 N 0.90982 0.32792 0.10720
 N28 N 0.92384 0.34199 0.12921
 C29 C 0.94852 0.32555 0.13668
 C30 C 0.95017 0.29966 0.11826
 C31 C 0.92504 0.30216 0.09982
 H32 H 0.96395 0.33201 0.15433
 H33 H 0.91804 0.28647 0.08234
 Cu34 Cu 0.90829 0.38018 0.14637
 Cu35 Cu 0.87285 0.34385 0.08975
 Cu36 Cu 0.84279 0.41034 0.12090
 N37 N 0.89000 0.41655 0.16451
 N38 N 0.86445 0.42815 0.15473
 C39 C 0.85680 0.45255 0.17191
 C40 C 0.87877 0.45652 0.19368
 C41 C 0.89945 0.43319 0.18822
 H42 H 0.83669 0.46628 0.16879
 H43 H 0.91954 0.42818 0.20102
 N44 N 0.82427 0.38882 0.08652
 N45 N 0.83568 0.36331 0.07496
 C46 C 0.81825 0.35406 0.05198
 C47 C 0.79466 0.37471 0.04874
 C48 C 0.79926 0.39652 0.07105
 H49 H 0.82277 0.33408 0.03816
 H50 H 0.78537 0.41647 0.07571
 H51 H 0.87954 0.38986 0.10053
 H52 H 0.85824 0.36613 0.12858
 N53 N 0.40528 0.17827 -0.11386
 N54 N 0.41525 0.16689 -0.13944
 C55 C 0.43915 0.18347 -0.14873
 C56 C 0.44453 0.20655 -0.12789
 C57 C 0.42251 0.20248 -0.10601
 H58 H 0.45209 0.17864 -0.16885
 H59 H 0.41925 0.21604 -0.08584
 Cu60 Cu 0.39691 0.13093 -0.15800
 Cu61 Cu 0.37106 0.16051 -0.09244
 Cu62 Cu 0.33916 0.09510 -0.12353
 N63 N 0.37924 0.09349 -0.17436
 N64 N 0.35667 0.07968 -0.16076
 C65 C 0.34890 0.05447 -0.17651
 C66 C 0.36765 0.05217 -0.20142
 C67 C 0.38670 0.07738 -0.19926
 H68 H 0.33118 0.03875 -0.16998
 H69 H 0.40458 0.08360 -0.21468
 N70 N 0.32442 0.11401 -0.08603
 N71 N 0.33628 0.13909 -0.07422
 C72 C 0.32079 0.14646 -0.04903
 C73 C 0.29817 0.12488 -0.04475
 C74 C 0.30123 0.10472 -0.06870
 H75 H 0.32568 0.16601 -0.03480
 H76 H 0.28718 0.08503 -0.07351
 H77 H 0.37814 0.11639 -0.10834
 H78 H 0.35078 0.14100 -0.12947
 N79 N 0.09035 0.82755 0.39321
 N80 N 0.07642 0.84158 0.37106
 C81 C 0.05178 0.82522 0.36357
 C82 C 0.05006 0.79941 0.38212
 C83 C 0.07511 0.80188 0.40066
 H84 H 0.03643 0.83166 0.34582
 H85 H 0.08204 0.78624 0.41825
 Cu86 Cu 0.09205 0.87963 0.35378
 Cu87 Cu 0.12726 0.84338 0.41072
 Cu88 Cu 0.15740 0.90963 0.37939
 N89 N 0.11034 0.91590 0.33558
 N90 N 0.13583 0.92744 0.34543
 C91 C 0.14350 0.95180 0.32823
 C92 C 0.12161 0.95581 0.30637
 C93 C 0.10094 0.93253 0.31180
 H94 H 0.16357 0.96548 0.33140
 H95 H 0.08090 0.92758 0.29896
 N96 N 0.17582 0.88813 0.41390
 N97 N 0.16438 0.86272 0.42555
 C98 C 0.18175 0.85348 0.44862
 C99 C 0.20533 0.87403 0.45183
 C100 C 0.20079 0.89578 0.42941
 H101 H 0.17719 0.83356 0.46251
 H102 H 0.21470 0.91564 0.42469
 H103 H 0.12059 0.88936 0.39971
 H104 H 0.14202 0.86545 0.37187
 N105 N 0.10864 0.10841 0.11126
 N106 N 0.36043 0.85902 0.64108
 N107 N 0.89196 0.60857 0.38897
 N108 N 0.63968 0.35905 -0.14040
 C109 C -0.00813 0.22763 0.09806
 C110 C 0.01570 0.22836 0.11851
 C111 C 0.01800 0.25283 0.13883
 C112 C -0.00353 0.27648 0.13877
 C113 C -0.02785 0.27602 0.11832
 C114 C -0.02968 0.25114 0.09790
 C115 C 0.03746 0.20369 0.11857
 C116 C 0.05500 0.18244 0.11790
 C117 C 0.07472 0.15691 0.11629
 C118 C 0.09081 0.13455 0.11422
 H119 H -0.01014 0.20876 0.08221
 H120 H 0.03639 0.25362 0.15480
 H121 H -0.00092 0.29492 0.15490
 H122 H -0.04768 0.24946 0.08167
 C123 C 0.49994 0.76750 0.60405
 C124 C 0.48270 0.77113 0.63028
 C125 C 0.48951 0.75367 0.65585
 C126 C 0.51317 0.73237 0.65516
 C127 C 0.53042 0.72817 0.62881
 C128 C 0.52369 0.74621 0.60332
 C129 C 0.45738 0.79194 0.63092
 C130 C 0.43564 0.80863 0.63220
 C131 C 0.40962 0.82728 0.63456
 C132 C 0.38692 0.84239 0.63730
 H133 H 0.49479 0.78084 0.58408
 H134 H 0.47633 0.75630 0.67628
 H135 H 0.51784 0.71926 0.67534
 H136 H 0.53633 0.74352 0.58260
 C137 C 1.00832 0.72762 0.40246
 C138 C 0.98460 0.72835 0.38188
 C139 C 0.98237 0.75275 0.36143
 C140 C 1.00388 0.77632 0.36149
 C141 C 1.02810 0.77586 0.38207
 C142 C 1.02984 0.75106 0.40262
 C143 C 0.96289 0.70374 0.38180
 C144 C 0.94539 0.68252 0.38244
 C145 C 0.92574 0.65703 0.38402
 C146 C 0.90971 0.63470 0.38605
 H147 H 1.01027 0.70880 0.41841
 H148 H 0.96407 0.75353 0.34536
 H149 H 1.00133 0.79471 0.34526
 H150 H 1.04775 0.74939 0.41895
 C151 C 0.50044 0.26775 -0.10318
 C152 C 0.51711 0.27214 -0.12964
 C153 C 0.50961 0.25570 -0.15562
 C154 C 0.48580 0.23469 -0.15513
 C155 C 0.46910 0.22973 -0.12856
 C156 C 0.47653 0.24673 -0.10263
 C157 C 0.54256 0.29268 -0.13016
 C158 C 0.56437 0.30917 -0.13139
 C159 C 0.59045 0.32762 -0.13374
 C160 C 0.61317 0.34258 -0.13653
 H161 H 0.50612 0.28029 -0.08289
 H162 H 0.52235 0.25893 -0.17624
 H163 H 0.48059 0.22239 -0.17563
 H164 H 0.46433 0.24344 -0.08175
 C165 C 0.09362 0.00492 0.24147
 C166 C 0.11952 0.02155 0.23386
 C167 C 0.14600 0.01732 0.25041
 C168 C 0.14665 -0.00374 0.27429
 C169 C 0.12080 -0.02094 0.28183
 C170 C 0.09421 -0.01614 0.26526
 C171 C 0.11893 0.04210 0.20840
 C172 C 0.11767 0.05860 0.18659
 C173 C 0.11529 0.07702 0.16050
 C174 C 0.11250 0.09197 0.13776
 H175 H 0.07299 0.00802 0.22882
 H176 H 0.16623 0.03000 0.24463
 H177 H 0.16754 -0.00691 0.28639
 H178 H 0.07378 -0.02860 0.27057
 C179 C 0.61062 0.50218 -0.23201
 C180 C 0.63220 0.47869 -0.23336
 C181 C 0.65373 0.47872 -0.25639
 C182 C 0.65367 0.50199 -0.27812
 C183 C 0.63195 0.52584 -0.27730
 C184 C 0.61046 0.52558 -0.25373
 C185 C 0.63224 0.45413 -0.21154
 C186 C 0.63297 0.43296 -0.19397
 C187 C 0.63463 0.40749 -0.17425
 C188 C 0.63671 0.38517 -0.15818
 H189 H 0.59380 0.50236 -0.21425
 H190 H 0.67056 0.46061 -0.25765
 H191 H 0.67075 0.50091 -0.29549
 H192 H 0.59332 0.54323 -0.25189
 C193 C 0.34308 0.98379 0.75149
 C194 C 0.36760 0.98026 0.73191
 C195 C 0.39200 1.00057 0.73368
 C196 C 0.39196 1.02420 0.75514
 C197 C 0.36752 1.02772 0.77519
 C198 C 0.34300 1.00732 0.77295
 C199 C 0.36776 0.95525 0.71062
 C200 C 0.36714 0.93374 0.69346
 C201 C 0.36554 0.90793 0.67420
 C202 C 0.36345 0.88538 0.65848
 H203 H 0.32405 0.96822 0.75031
 H204 H 0.41115 0.99798 0.71867
 H205 H 0.41129 1.03930 0.75627
 H206 H 0.32364 1.00945 0.78767
 C207 C 0.90687 0.50556 0.25843
 C208 C 0.88094 0.52219 0.26618
 C209 C 0.85440 0.51801 0.24974
 C210 C 0.85373 0.49698 0.22585
 C211 C 0.87960 0.47977 0.21819
 C212 C 0.90625 0.48454 0.23464
 C213 C 0.88156 0.54267 0.29166
 C214 C 0.88285 0.55909 0.31351
 C215 C 0.88526 0.57742 0.33964
 C216 C 0.88808 0.59225 0.36242
 H217 H 0.92754 0.50863 0.27099
 H218 H 0.83415 0.53070 0.25561
 H219 H 0.83279 0.49384 0.21384
 H220 H 0.92670 0.47207 0.22923
 C221 C 0.23572 0.09577 0.00626
 C222 C 0.22918 0.12196 0.02344
 C223 C 0.24587 0.14897 0.01907
 C224 C 0.26875 0.14987 -0.00273
 C225 C 0.27506 0.12377 -0.02054
 C226 C 0.25846 0.09662 -0.01553
 C227 C 0.20448 0.12112 0.04453
 C228 C 0.18312 0.11942 0.06131
 C229 C 0.15743 0.11637 0.07990
 C230 C 0.13493 0.11296 0.09486
 H231 H 0.22297 0.07473 0.00946
 H232 H 0.24092 0.16943 0.03219
 H233 H 0.28095 0.17118 -0.00606
 H234 H 0.26291 0.07595 -0.02843
 C235 C 0.76503 0.59533 0.49399
 C236 C 0.77147 0.62166 0.47700
 C237 C 0.75463 0.64862 0.48151
 C238 C 0.73170 0.64933 0.50326
 C239 C 0.72547 0.62308 0.52087
 C240 C 0.74223 0.59599 0.51573
 C241 C 0.79619 0.62099 0.45592
 C242 C 0.81754 0.61939 0.43911
 C243 C 0.84322 0.61644 0.42047
 C244 C 0.86569 0.61308 0.40545
 H245 H 0.77790 0.57433 0.49068
 H246 H 0.75951 0.66919 0.46854
 H247 H 0.71937 0.67060 0.50670
 H248 H 0.73785 0.57521 0.52847
 C249 C 0.74338 0.34586 -0.01318
 C250 C 0.72678 0.37236 -0.02005
 C251 C 0.73159 0.39951 -0.00374
 C252 C 0.75329 0.40024 0.01909
 C253 C 0.77053 0.37382 0.02572
 C254 C 0.76506 0.34653 0.00951
 C255 C 0.70585 0.37166 -0.04473
 C256 C 0.68919 0.37003 -0.06605
 C257 C 0.67075 0.36703 -0.09170
 C258 C 0.65592 0.36362 -0.11415
 H259 H 0.73984 0.32470 -0.02564
 H260 H 0.71893 0.42021 -0.00896
 H261 H 0.75699 0.42165 0.03098
 H262 H 0.77752 0.32563 0.01423
 C263 C 0.26837 0.89873 0.50423
 C264 C 0.27310 0.87166 0.52074
 C265 C 0.25644 0.84523 0.51405
 C266 C 0.23479 0.84591 0.49133
 C267 C 0.22940 0.87312 0.47492
 C268 C 0.24670 0.89946 0.48138
 C269 C 0.29404 0.87098 0.54542
 C270 C 0.31071 0.86943 0.56674
 C271 C 0.32920 0.86657 0.59239
 C272 C 0.34410 0.86334 0.61484
 H273 H 0.28108 0.91938 0.50931
 H274 H 0.25993 0.82413 0.52666
 H275 H 0.22229 0.82506 0.48676
 H276 H 0.24307 0.92083 0.46933
   
