data_POSCAR
  _audit_creation_date              2014-09-24
  _audit_creation_method            'ToBaCCo'
  _symmetry_space_group_name_H-M    'P1'
  _symmetry_Int_Tables_number       1
  _symmetry_cell_setting            triclinic
  loop_
  _symmetry_equiv_pos_as_xyz
 x,y,z
_cell_length_a 22.4754
_cell_length_b 20.6057
_cell_length_c 20.8378
_cell_angle_alpha 89.976700
_cell_angle_beta 90.337000
_cell_angle_gamma 88.460400
loop_
  _atom_site_label
  _atom_site_type_symbol
  _atom_site_fract_x
  _atom_site_fract_y
  _atom_site_fract_z
C1 C 1.20909 0.21025 0.20393
 C2 C 1.24772 0.25502 0.16430
 C3 C 1.28042 0.29564 0.20133
 C4 C 1.27158 0.28703 0.27466
 C5 C 1.25093 0.17358 0.25029
 C6 C 1.28393 0.21377 0.28744
 C7 C 1.17208 0.25490 0.24532
 C8 C 1.20356 0.29452 0.28241
 H9 H 1.25045 0.25326 0.11247
 H10 H 1.29786 0.32007 0.30511
 H11 H 1.25540 0.12116 0.25206
 H12 H 1.12385 0.25416 0.24654
 C13 C 0.71160 -0.29818 0.20020
 C14 C 0.75216 -0.25340 0.16299
 C15 C 0.78273 -0.21237 0.20177
 C16 C 0.76987 -0.22067 0.27456
 C17 C 0.75087 -0.33437 0.24924
 C18 C 0.78156 -0.29394 0.28836
 C19 C 0.67213 -0.25313 0.23934
 C20 C 0.70142 -0.21307 0.27842
 H21 H 0.75736 -0.25513 0.11140
 H22 H 0.79460 -0.18753 0.30643
 H23 H 0.75586 -0.38675 0.25099
 H24 H 0.62393 -0.25424 0.23777
 C25 C 0.72190 0.20195 -0.29981
 C26 C 0.75886 0.24844 -0.33218
 C27 C 0.78379 0.29582 -0.29113
 C28 C 0.76590 0.28669 -0.22036
 C29 C 0.75745 0.17168 -0.24932
 C30 C 0.78230 0.21537 -0.20474
 C31 C 0.67508 0.23908 -0.26856
 C32 C 0.69702 0.28579 -0.22437
 H33 H 0.76722 0.24697 -0.38337
 H34 H 0.78443 0.32263 -0.18651
 H35 H 0.76553 0.11960 -0.24642
 H36 H 0.62809 0.23101 -0.27602
 C37 C 1.20994 -0.28711 -0.29740
 C38 C 1.24976 -0.24285 -0.33598
 C39 C 1.28140 -0.20222 -0.29788
 C40 C 1.27041 -0.20989 -0.22521
 C41 C 1.25041 -0.32337 -0.24949
 C42 C 1.28238 -0.28270 -0.21181
 C43 C 1.17175 -0.24206 -0.25764
 C44 C 1.20238 -0.20225 -0.21993
 H45 H 1.25414 -0.24501 -0.38766
 H46 H 1.29591 -0.17663 -0.19420
 H47 H 1.25550 -0.37575 -0.24777
 H48 H 1.12350 -0.24276 -0.25785
 C49 C 0.21501 0.20595 0.79887
 C50 C 0.25438 0.24322 0.83901
 C51 C 0.28836 0.28933 0.80425
 C52 C 0.27615 0.28594 0.73065
 C53 C 0.17754 0.25487 0.76188
 C54 C 0.20805 0.29585 0.72577
 C55 C 0.25387 0.17156 0.74882
 C56 C 0.28640 0.21331 0.71315
 H57 H 0.24855 0.24655 0.89067
 H58 H 0.30212 0.32002 0.70132
 H59 H 0.12925 0.25508 0.76183
 H60 H 0.25806 0.11925 0.74478
 C61 C 0.72099 0.70112 0.79711
 C62 C 0.75729 0.74733 0.83139
 C63 C 0.78410 0.79432 0.79151
 C64 C 0.76879 0.78508 0.71988
 C65 C 0.67583 0.73882 0.76314
 C66 C 0.70001 0.78508 0.72008
 C67 C 0.75809 0.67033 0.74854
 C68 C 0.78480 0.71363 0.70516
 H69 H 0.76358 0.74620 0.88302
 H70 H 0.78884 0.82070 0.68696
 H71 H 0.62849 0.73158 0.76811
 H72 H 0.76517 0.61812 0.74556
 C73 C 0.71082 0.20539 0.29736
 C74 C 0.75263 0.24863 0.33506
 C75 C 0.78328 0.28970 0.29679
 C76 C 0.76911 0.28293 0.22389
 C77 C 0.67140 0.25172 0.25936
 C78 C 0.70062 0.29160 0.22051
 C79 C 0.74879 0.16931 0.24764
 C80 C 0.77959 0.20979 0.20907
 H81 H 0.75847 0.24596 0.38661
 H82 H 0.79380 0.31614 0.19236
 H83 H 0.62318 0.25082 0.26062
 H84 H 0.75335 0.11692 0.24548
 C85 C 0.21063 0.70637 0.29705
 C86 C 0.24922 0.75226 0.33612
 C87 C 0.28085 0.79308 0.29848
 C88 C 0.27088 0.78390 0.22543
 C89 C 0.17242 0.75002 0.25531
 C90 C 0.20270 0.79016 0.21802
 C91 C 0.25244 0.67014 0.25076
 C92 C 0.28429 0.71085 0.21321
 H93 H 0.25314 0.75065 0.38790
 H94 H 0.29618 0.81725 0.19462
 H95 H 0.12418 0.74887 0.25471
 H96 H 0.25775 0.61779 0.24936
 O97 O 1.08181 0.10967 0.11649
 O98 O 1.14882 0.04992 0.05714
 C99 C 1.13581 0.09250 0.10034
 O100 O 0.91880 -0.11822 0.11249
 O101 O 0.85122 -0.05757 0.05301
 C102 C 0.86482 -0.10257 0.09523
 O103 O 1.08414 -0.11221 0.11658
 O104 O 1.15059 -0.05606 0.05688
 C105 C 1.13806 -0.09709 0.10113
 O106 O 0.91573 0.11968 0.11144
 O107 O 0.84957 0.05862 0.05452
 C108 C 0.86215 0.10316 0.09661
 Zr109 Zr 0.99841 0.08059 0.08088
 O110 O 0.99159 0.07850 0.18220
 O111 O 1.00411 0.18301 0.08274
 Zr112 Zr 1.00023 -0.08262 0.07959
 O113 O 0.99397 -0.08576 0.18086
 O114 O 1.00819 -0.18523 0.07634
 O115 O 1.05244 -0.00195 0.09402
 O116 O 0.94717 -0.00030 0.09115
 O117 O 0.91797 0.12511 -0.10946
 O118 O 0.85103 0.06014 -0.05904
 C119 C 0.86431 0.10700 -0.09822
 O120 O 1.08525 -0.10907 -0.11694
 O121 O 1.15132 -0.05522 -0.05381
 C122 C 1.13902 -0.09468 -0.09965
 O123 O 0.92018 -0.11635 -0.11747
 O124 O 0.85199 -0.05930 -0.05636
 C125 C 0.86616 -0.10292 -0.09961
 O126 O 1.08442 0.11005 -0.11357
 O127 O 1.15022 0.04925 -0.05284
 C128 C 1.13819 0.09172 -0.09654
 Zr129 Zr 0.99971 0.08203 -0.08024
 O130 O 0.99263 0.07979 -0.18165
 O131 O 1.00681 0.18415 -0.08354
 Zr132 Zr 1.00101 -0.08106 -0.08162
 O133 O 0.99593 -0.08265 -0.18305
 O134 O 1.00918 -0.18369 -0.07998
 Zr135 Zr 1.08898 -0.00198 0.00099
 Zr136 Zr 0.90961 0.00084 -0.00169
 O137 O 0.94807 0.00150 -0.09349
 O138 O 1.05357 -0.00035 -0.09309
 O139 O 0.94521 0.09477 -0.00031
 O140 O 1.05285 -0.09515 -0.00044
 O141 O 1.05085 0.09258 0.00112
 O142 O 0.94727 -0.09394 -0.00181
 H143 H 0.92067 -0.00024 0.12898
 H144 H 1.08049 -0.13345 -0.00043
 H145 H 0.92153 0.00220 -0.13162
 H146 H 1.07703 0.13052 0.00145
 H147 H 0.97321 -0.20128 0.05277
 H148 H 0.97406 -0.20026 -0.05746
 H149 H 1.02463 -0.05112 -0.19928
 H150 H 1.02984 0.05978 -0.19858
 H151 H 0.98006 0.20243 -0.05028
 H152 H 0.97074 0.20132 0.05674
 H153 H 1.02739 0.05530 0.19928
 H154 H 1.02328 -0.05541 0.19836
 O155 O 1.08501 0.61180 0.61498
 O156 O 1.15188 0.55059 0.55686
 C157 C 1.13893 0.59424 0.59903
 O158 O 0.92265 0.38354 0.62075
 O159 O 0.85451 0.43971 0.55782
 C160 C 0.86863 0.39675 0.60187
 O161 O 1.08829 0.39080 0.62285
 O162 O 1.15392 0.44461 0.55986
 C163 C 1.14204 0.40526 0.60594
 O164 O 0.91963 0.62400 0.61052
 O165 O 0.85304 0.55885 0.55912
 C166 C 0.86610 0.60564 0.59864
 Zr167 Zr 1.00134 0.58163 0.58176
 O168 O 0.99485 0.58055 0.68317
 O169 O 1.00726 0.68394 0.58327
 Zr170 Zr 1.00376 0.41854 0.58576
 O171 O 0.99862 0.41862 0.68714
 O172 O 1.01211 0.31592 0.58560
 O173 O 1.05586 0.49984 0.59672
 O174 O 0.95031 0.50095 0.59553
 O175 O 0.91801 0.61652 0.38831
 O176 O 0.85194 0.55604 0.44519
 C177 C 0.86444 0.60007 0.40261
 O178 O 1.08699 0.38676 0.38814
 O179 O 1.15351 0.44259 0.44896
 C180 C 1.14093 0.40199 0.40413
 O181 O 0.92136 0.37979 0.38996
 O182 O 0.85365 0.44054 0.44828
 C183 C 0.86731 0.39569 0.40622
 O184 O 1.08414 0.60687 0.38580
 O185 O 1.15128 0.54827 0.44696
 C186 C 1.13821 0.59011 0.40284
 Zr187 Zr 1.00065 0.57804 0.42071
 O188 O 0.99401 0.57444 0.31932
 O189 O 1.00608 0.68044 0.41734
 Zr190 Zr 1.00297 0.41477 0.42465
 O191 O 0.99754 0.40669 0.32362
 O192 O 1.01120 0.31236 0.43191
 Zr193 Zr 1.09142 0.49705 0.50319
 Zr194 Zr 0.91199 0.49911 0.50322
 O195 O 0.94980 0.49681 0.41095
 O196 O 1.05485 0.49552 0.40967
 O197 O 0.94708 0.59316 0.50089
 O198 O 1.05576 0.40367 0.50543
 O199 O 1.05270 0.59135 0.50101
 O200 O 0.94996 0.40441 0.50540
 H201 H 0.92380 0.50201 0.63336
 H202 H 1.08374 0.36566 0.50618
 H203 H 0.92357 0.49645 0.37258
 H204 H 1.07850 0.62959 0.50014
 H205 H 0.97738 0.29906 0.56217
 H206 H 0.97407 0.29656 0.45102
 H207 H 1.02094 0.44215 0.30547
 H208 H 1.03028 0.55190 0.30300
 H209 H 0.97286 0.69900 0.44296
 H210 H 0.97941 0.70142 0.55030
 H211 H 1.03236 0.56129 0.70061
 H212 H 1.02747 0.45023 0.70321
 O213 O 0.59238 0.10874 0.61467
 O214 O 0.65319 0.04257 0.55368
 C215 C 0.64464 0.08678 0.59635
 O216 O 0.41715 -0.11302 0.61363
 O217 O 0.35154 -0.05045 0.55378
 C218 C 0.36380 -0.09540 0.59602
 O219 O 0.58080 -0.11686 0.61979
 O220 O 0.64940 -0.06502 0.55878
 C221 C 0.63503 -0.10485 0.60417
 O222 O 0.42408 0.12373 0.61318
 O223 O 0.35544 0.06511 0.55697
 C224 C 0.36973 0.10890 0.59903
 Zr225 Zr 0.50565 0.08128 0.58160
 O226 O 0.50101 0.07870 0.68306
 O227 O 0.51441 0.18329 0.58292
 Zr228 Zr 0.50007 -0.08202 0.58116
 O229 O 0.49408 -0.08401 0.68245
 O230 O 0.50404 -0.18483 0.57827
 O231 O 0.55613 -0.00400 0.59407
 O232 O 0.45089 0.00287 0.59298
 O233 O 0.42178 0.12126 0.38579
 O234 O 0.35408 0.06478 0.44416
 C235 C 0.36769 0.10749 0.40093
 O236 O 0.58243 -0.11609 0.38324
 O237 O 0.65077 -0.06321 0.44430
 C238 C 0.63688 -0.10314 0.39917
 O239 O 0.41690 -0.11472 0.38726
 O240 O 0.35156 -0.05240 0.44704
 C241 C 0.36357 -0.09763 0.40482
 O242 O 0.58733 0.10343 0.38357
 O243 O 0.65324 0.04324 0.44519
 C244 C 0.64100 0.08562 0.40093
 Zr245 Zr 0.50343 0.08127 0.42048
 O246 O 0.50198 0.09095 0.31946
 O247 O 0.51223 0.18319 0.42775
 Zr248 Zr 0.49974 -0.08218 0.41959
 O249 O 0.49350 -0.08202 0.31814
 O250 O 0.50400 -0.18496 0.42027
 Zr251 Zr 0.59108 -0.00688 0.50040
 Zr252 Zr 0.41244 0.00465 0.50045
 O253 O 0.44955 0.00244 0.40807
 O254 O 0.55437 -0.00361 0.40693
 O255 O 0.45095 0.09710 0.50115
 O256 O 0.55153 -0.09797 0.50050
 O257 O 0.55683 0.08946 0.50049
 O258 O 0.44634 -0.09173 0.50034
 H259 H 0.42465 0.00407 0.63102
 H260 H 0.57782 -0.13736 0.50059
 H261 H 0.42261 0.00327 0.37028
 H262 H 0.58454 0.12604 0.49991
 H263 H 0.46770 -0.19953 0.55625
 H264 H 0.47058 -0.19997 0.44661
 H265 H 0.52656 -0.05613 0.30160
 H266 H 0.49055 0.04867 0.30162
 H267 H 0.47419 0.20204 0.44378
 H268 H 0.48344 0.20209 0.55402
 H269 H 0.53827 0.05773 0.69926
 H270 H 0.52208 -0.05191 0.69932
 O271 O 0.58712 0.60235 0.11189
 O272 O 0.65118 0.54088 0.05019
 C273 C 0.64025 0.58361 0.09449
 O274 O 0.41464 0.38470 0.10870
 O275 O 0.34884 0.44799 0.04963
 C276 C 0.36119 0.40267 0.09194
 O277 O 0.58023 0.38313 0.11170
 O278 O 0.64793 0.43465 0.04942
 C279 C 0.63456 0.39557 0.09523
 O280 O 0.42160 0.62067 0.11210
 O281 O 0.35245 0.56419 0.05501
 C282 C 0.36710 0.60663 0.09811
 Zr283 Zr 0.50230 0.57875 0.07760
 O284 O 0.49788 0.57747 0.17911
 O285 O 0.51232 0.68065 0.07863
 Zr286 Zr 0.49687 0.41526 0.07423
 O287 O 0.49238 0.40695 0.17522
 O288 O 0.50047 0.31269 0.06681
 O289 O 0.55257 0.49303 0.08851
 O290 O 0.44807 0.50040 0.08845
 O291 O 0.41982 0.62603 -0.11378
 O292 O 0.35160 0.56795 -0.05729
 C293 C 0.36563 0.61176 -0.09905
 O294 O 0.57430 0.38418 -0.12655
 O295 O 0.64412 0.43415 -0.06447
 C296 C 0.62894 0.39535 -0.11045
 O297 O 0.40819 0.39128 -0.12120
 O298 O 0.34682 0.45720 -0.06061
 C299 C 0.35584 0.41396 -0.10494
 O300 O 0.58791 0.60979 -0.11798
 O301 O 0.64873 0.54096 -0.05931
 C302 C 0.64018 0.58634 -0.10092
 Zr303 Zr 0.50177 0.58257 -0.08389
 O304 O 0.49542 0.58332 -0.18534
 O305 O 0.51167 0.68444 -0.08251
 Zr306 Zr 0.49362 0.41853 -0.08673
 O307 O 0.48682 0.41567 -0.18793
 O308 O 0.49562 0.31576 -0.08260
 Zr309 Zr 0.58740 0.49173 -0.00527
 Zr310 Zr 0.40922 0.50567 -0.00350
 O311 O 0.44619 0.50512 -0.09639
 O312 O 0.55047 0.49646 -0.09852
 O313 O 0.44887 0.59741 -0.00254
 O314 O 0.54715 0.40080 -0.00705
 O315 O 0.55417 0.58832 -0.00302
 O316 O 0.44100 0.40847 -0.00579
 H317 H 0.42234 0.50114 0.12690
 H318 H 0.57349 0.36145 -0.00763
 H319 H 0.41995 0.50820 -0.13469
 H320 H 0.58203 0.62478 -0.00247
 H321 H 0.46282 0.29907 0.04670
 H322 H 0.45702 0.30204 -0.06532
 H323 H 0.51052 0.45166 -0.20452
 H324 H 0.53103 0.55996 -0.20225
 H325 H 0.48024 0.70305 -0.05449
 H326 H 0.47822 0.70051 0.05489
 H327 H 0.53188 0.55055 0.19522
 H328 H 0.51569 0.44261 0.19337
 N329 N 1.16869 0.17081 0.16805
 N330 N 1.18336 0.12470 0.13087
 N331 N 1.17072 0.67312 0.66589
 N332 N 1.18627 0.62689 0.62927
 N333 N 0.70382 0.15660 0.65965
 N334 N 0.69820 0.11146 0.62187
 N335 N 0.67335 0.66165 0.16198
 N336 N 0.68854 0.61498 0.12530
 N337 N 0.82546 -0.16825 0.17694
 N338 N 0.81792 -0.13901 0.12325
 N339 N 0.82083 0.34236 0.68745
 N340 N 0.82268 0.35775 0.62802
 N341 N 0.32436 -0.15952 0.67689
 N342 N 0.31613 -0.12979 0.62382
 N343 N 0.32258 0.33886 0.17439
 N344 N 0.31370 0.36829 0.12103
 N345 N 0.81879 0.19485 -0.15612
 N346 N 0.81803 0.13592 -0.13695
 N347 N 0.82443 0.68188 0.33443
 N348 N 0.81694 0.62922 0.36541
 N349 N 0.32820 0.18939 0.33189
 N350 N 0.32046 0.13756 0.36404
 N351 N 0.32666 0.69364 -0.16752
 N352 N 0.31853 0.64221 -0.13521
 N353 N 1.16862 -0.16185 -0.17875
 N354 N 1.18638 -0.12581 -0.13388
 N355 N 1.17032 0.33470 0.32461
 N356 N 1.18818 0.37103 0.36924
 N357 N 0.66630 -0.17272 0.31952
 N358 N 0.68347 -0.13600 0.36439
 N359 N 0.65890 0.32154 -0.18829
 N360 N 0.67465 0.36170 -0.14552
 N361 N 1.17374 0.16597 -0.16714
 N362 N 1.18684 0.12212 -0.12664
 N363 N 1.17089 0.66675 0.33334
 N364 N 1.18576 0.62191 0.37216
 N365 N 0.67274 0.16521 0.33503
 N366 N 0.68851 0.11748 0.37017
 N367 N 0.70084 0.65585 -0.16346
 N368 N 0.69393 0.61004 -0.12671
 N369 N 0.82042 -0.15896 -0.18559
 N370 N 0.82041 -0.14219 -0.12647
 N371 N 0.82681 0.33275 0.32236
 N372 N 0.82023 0.36010 0.37703
 N373 N 0.32361 -0.16345 0.32430
 N374 N 0.31575 -0.13302 0.37709
 N375 N 0.29944 0.34224 -0.16835
 N376 N 0.30421 0.39426 -0.13971
 N377 N 1.16830 -0.16903 0.17698
 N378 N 1.18550 -0.12920 0.13529
 N379 N 1.17358 0.33770 0.68549
 N380 N 1.19003 0.37379 0.64014
 N381 N 0.66369 -0.17860 0.68208
 N382 N 0.68069 -0.13860 0.63984
 N383 N 0.66517 0.33111 0.17863
 N384 N 0.68162 0.36388 0.13077
 N385 N 0.82231 0.18555 0.16350
 N386 N 0.81470 0.13271 0.13285
 N387 N 0.82129 0.69280 0.65713
 N388 N 0.81982 0.63423 0.63705
 N389 N 0.33040 0.19046 0.66824
 N390 N 0.32288 0.13866 0.63598
 N391 N 0.32837 0.68733 0.16868
 N392 N 0.32055 0.63589 0.13596
   
