data_POSCAR
  _audit_creation_date              2014-09-24
  _audit_creation_method            'ToBaCCo'
  _symmetry_space_group_name_H-M    'P1'
  _symmetry_Int_Tables_number       1
  _symmetry_cell_setting            triclinic
  loop_
  _symmetry_equiv_pos_as_xyz
 x,y,z
_cell_length_a 42.9052
_cell_length_b 42.8809
_cell_length_c 42.9050
_cell_angle_alpha 89.981400
_cell_angle_beta 89.930000
_cell_angle_gamma 89.851600
loop_
  _atom_site_label
  _atom_site_type_symbol
  _atom_site_fract_x
  _atom_site_fract_y
  _atom_site_fract_z
C1 C 0.18745 0.14836 0.18808
 C2 C 0.17538 0.13595 0.21579
 C3 C 0.14885 0.14912 0.23043
 C4 C 0.13434 0.17497 0.21588
 C5 C 0.14617 0.18757 0.18810
 C6 C 0.17283 0.17422 0.17419
 C7 C 0.21397 0.13512 0.17409
 C8 C 0.22656 0.14747 0.14622
 C9 C 0.21153 0.17357 0.13277
 C10 C 0.18498 0.18686 0.14647
 C11 C 0.17072 0.21300 0.13301
 C12 C 0.14417 0.22660 0.14666
 C13 C 0.13198 0.21365 0.17422
 H14 H 0.18635 0.11524 0.22519
 H15 H 0.11466 0.18651 0.22670
 H16 H 0.22398 0.11448 0.18464
 H17 H 0.22106 0.18476 0.11227
 H18 H 0.18070 0.22314 0.11213
 H19 H 0.11132 0.22374 0.18476
 C20 C -0.19240 0.84858 0.19327
 C21 C -0.18051 0.86019 0.22136
 C22 C -0.15470 0.84603 0.23622
 C23 C -0.14088 0.81984 0.22164
 C24 C -0.15269 0.80796 0.19352
 C25 C -0.17863 0.82231 0.17934
 C26 C -0.21805 0.86300 0.17909
 C27 C -0.23076 0.85155 0.15097
 C28 C -0.21675 0.82487 0.13740
 C29 C -0.19083 0.81036 0.15130
 C30 C -0.17681 0.78413 0.13749
 C31 C -0.15089 0.76961 0.15145
 C32 C -0.13910 0.78167 0.17956
 H33 H -0.19089 0.88120 0.23078
 H34 H -0.12171 0.80762 0.23259
 H35 H -0.22889 0.88237 0.19115
 H36 H -0.22505 0.81585 0.11538
 H37 H -0.18587 0.77523 0.11567
 H38 H -0.11953 0.77032 0.19084
 C39 C -0.19183 0.15137 -0.19024
 C40 C -0.17836 0.13767 -0.21675
 C41 C -0.15074 0.14971 -0.22972
 C42 C -0.13672 0.17585 -0.21586
 C43 C -0.14998 0.18987 -0.18945
 C44 C -0.17761 0.17758 -0.17658
 C45 C -0.21949 0.13943 -0.17748
 C46 C -0.23355 0.15332 -0.15103
 C47 C -0.21862 0.17940 -0.13752
 C48 C -0.19106 0.19157 -0.15010
 C49 C -0.17674 0.21760 -0.13649
 C50 C -0.14932 0.23019 -0.14929
 C51 C -0.13609 0.21609 -0.17581
 H52 H -0.18964 0.11785 -0.22757
 H53 H -0.11523 0.18508 -0.22539
 H54 H -0.23055 0.12011 -0.18927
 H55 H -0.22763 0.18991 -0.11641
 H56 H -0.18689 0.22797 -0.11579
 H57 H -0.11526 0.22585 -0.18622
 C58 C 0.19650 0.84573 -0.19385
 C59 C 0.18459 0.85860 -0.22145
 C60 C 0.15751 0.84641 -0.23578
 C61 C 0.14272 0.82070 -0.22135
 C62 C 0.15438 0.80766 -0.19370
 C63 C 0.18129 0.82025 -0.17986
 C64 C 0.22353 0.85793 -0.18010
 C65 C 0.23561 0.84497 -0.15250
 C66 C 0.22001 0.81976 -0.13852
 C67 C 0.19312 0.80722 -0.15209
 C68 C 0.17804 0.78167 -0.13841
 C69 C 0.15143 0.76862 -0.15229
 C70 C 0.13971 0.78187 -0.17993
 H71 H 0.19604 0.87900 -0.23085
 H72 H 0.12278 0.80968 -0.23207
 H73 H 0.23557 0.87710 -0.19131
 H74 H 0.22875 0.80990 -0.11696
 H75 H 0.18700 0.77200 -0.11686
 H76 H 0.11947 0.77174 -0.19107
 C77 C 0.15111 1.19112 0.80662
 C78 C 0.13805 1.17713 0.78006
 C79 C 0.15068 1.14940 0.76733
 C80 C 0.17699 1.13618 0.78219
 C81 C 0.19008 1.14985 0.80878
 C82 C 0.17709 1.17738 0.82111
 C83 C 0.13829 1.21861 0.81892
 C84 C 0.15115 1.23317 0.84557
 C85 C 0.17718 1.21877 0.85991
 C86 C 0.19018 1.19119 0.84787
 C87 C 0.21630 1.17733 0.86204
 C88 C 0.22953 1.14987 0.84975
 C89 C 0.21625 1.13643 0.82301
 H90 H 0.11729 1.18754 0.77020
 H91 H 0.18842 1.11583 0.77255
 H92 H 0.11748 1.22784 0.80805
 H93 H 0.18851 1.22951 0.87967
 H94 H 0.22613 1.18774 0.88283
 H95 H 0.22658 1.11565 0.81294
 C96 C 0.85643 0.81662 0.81686
 C97 C 0.86992 0.83022 0.79041
 C98 C 0.85690 0.85710 0.77637
 C99 C 0.82969 0.87004 0.78992
 C100 C 0.81597 0.85659 0.81645
 C101 C 0.82934 0.82970 0.82987
 C102 C 0.86951 0.78970 0.83008
 C103 C 0.85603 0.77526 0.85646
 C104 C 0.82877 0.78879 0.86922
 C105 C 0.81553 0.81577 0.85620
 C106 C 0.78861 0.82903 0.86919
 C107 C 0.77523 0.85608 0.85629
 C108 C 0.78907 0.86969 0.82984
 H109 H 0.88986 0.81866 0.78010
 H110 H 0.81953 0.89123 0.78069
 H111 H 0.88954 0.77942 0.81864
 H112 H 0.81826 0.77927 0.89007
 H113 H 0.77776 0.81796 0.88915
 H114 H 0.77910 0.89068 0.81986
 C115 C 0.14803 0.81088 1.18703
 C116 C 0.13485 0.82393 1.21397
 C117 C 0.14775 0.85071 1.22772
 C118 C 0.17440 0.86420 1.21423
 C119 C 0.18799 0.85120 1.18742
 C120 C 0.17475 0.82442 1.17374
 C121 C 0.13489 0.78432 1.17342
 C122 C 0.14784 0.77066 1.14632
 C123 C 0.17489 0.78447 1.13342
 C124 C 0.18828 0.81116 1.14686
 C125 C 0.21490 0.82495 1.13369
 C126 C 0.22826 0.85170 1.14716
 C127 C 0.21462 0.86457 1.17410
 H128 H 0.11467 0.81296 1.22446
 H129 H 0.18436 0.88507 1.22435
 H130 H 0.11516 0.77374 1.18503
 H131 H 0.18507 0.77542 1.11218
 H132 H 0.22500 0.81506 1.11274
 H133 H 0.22502 0.88480 1.18504
 C134 C 0.84774 1.19199 1.19384
 C135 C 0.85980 1.17860 1.22121
 C136 C 0.84542 1.15242 1.23529
 C137 C 0.81881 1.13972 1.22055
 C138 C 0.80652 1.15289 1.19330
 C139 C 0.82091 1.17916 1.17996
 C140 C 0.86200 1.21817 1.18021
 C141 C 0.84973 1.23168 1.15290
 C142 C 0.82276 1.21881 1.13952
 C143 C 0.80842 1.19264 1.15271
 C144 C 0.78170 1.17982 1.13904
 C145 C 0.76735 1.15334 1.15197
 C146 C 0.78001 1.14000 1.17913
 H147 H 0.87961 1.18974 1.23205
 H148 H 0.80796 1.11878 1.22944
 H149 H 0.88289 1.22775 1.19059
 H150 H 0.81267 1.22938 1.11891
 H151 H 0.77189 1.19070 1.11846
 H152 H 0.76940 1.11938 1.18912
 N153 N 0.46691 1.03280 0.94486
 N154 N 0.44245 1.03506 0.92636
 N155 N 0.53192 1.05594 0.96643
 N156 N 0.55561 1.07513 0.96293
 N157 N 0.53270 1.03388 0.94524
 N158 N 0.55706 1.03752 0.92669
 N159 N 0.46646 1.05502 0.96590
 N160 N 0.44180 1.07310 0.96217
 C161 C 0.42707 1.06042 0.93734
 C162 C 0.57109 1.06344 0.93805
 N163 N 0.53171 1.03662 1.05566
 N164 N 0.55601 1.04062 1.07408
 N165 N 0.46595 1.05664 1.03290
 N166 N 0.44110 1.07466 1.03504
 N167 N 0.46606 1.03567 1.05518
 N168 N 0.44122 1.03889 1.07313
 N169 N 0.53155 1.05756 1.03333
 N170 N 0.55577 1.07627 1.03587
 Mn171 Mn 0.49896 1.05665 0.99964
 C172 C 0.57076 1.06553 1.06149
 C173 C 0.42594 1.06342 1.06031
 N174 N 0.53375 0.96665 0.94698
 N175 N 0.55860 0.96352 0.92904
 N176 N 0.46839 0.94462 0.96877
 N177 N 0.44482 0.92520 0.96559
 N178 N 0.46808 0.96570 0.94657
 N179 N 0.44416 0.96125 0.92775
 N180 N 0.53392 0.94567 0.96929
 N181 N 0.55890 0.92780 0.96719
 Mn182 Mn 0.50037 0.99974 0.94547
 C183 C 0.57401 0.93908 0.94188
 C184 C 0.42990 0.93582 0.93990
 N185 N 0.46717 0.96861 1.05688
 N186 N 0.44235 0.96602 1.07487
 N187 N 0.53332 0.94727 1.03628
 N188 N 0.55806 0.92929 1.03991
 N189 N 0.53284 0.96946 1.05734
 N190 N 0.55727 0.96716 1.07588
 N191 N 0.46767 0.94634 1.03588
 N192 N 0.44325 0.92793 1.03913
 Mn193 Mn 0.49945 1.00259 1.05668
 Mn194 Mn 0.50082 0.94559 1.00256
 Cl195 Cl 0.49990 1.00113 1.00108
 C196 C 0.42772 0.94044 1.06367
 C197 C 0.57274 0.94189 1.06479
 N198 N 0.03359 0.46694 0.05400
 N199 N 0.03651 0.44205 0.07188
 N200 N 0.05513 0.53280 0.03273
 N201 N 0.07326 0.55746 0.03583
 N202 N 0.03359 0.53251 0.05450
 N203 N 0.03648 0.55692 0.07295
 N204 N 0.05506 0.46705 0.03216
 N205 N 0.07303 0.44215 0.03448
 C206 C 0.06131 0.42687 0.05949
 C207 C 0.06140 0.57222 0.06115
 N208 N 0.03272 0.53336 -0.05575
 N209 N 0.03529 0.55796 -0.07400
 N210 N 0.05475 0.46748 -0.03490
 N211 N 0.07339 0.44321 -0.03890
 N212 N 0.03283 0.46780 -0.05620
 N213 N 0.03595 0.44389 -0.07527
 N214 N 0.05470 0.53330 -0.03449
 N215 N 0.07291 0.55789 -0.03781
 Mn216 Mn 0.05535 0.50017 -0.00111
 C217 C 0.06051 0.57300 -0.06266
 C218 C 0.06136 0.42874 -0.06427
 N219 N -0.03342 0.53278 0.05506
 N220 N -0.03608 0.55717 0.07360
 N221 N -0.05536 0.46738 0.03310
 N222 N -0.07386 0.44303 0.03621
 N223 N -0.03362 0.46712 0.05461
 N224 N -0.03686 0.44266 0.07304
 N225 N -0.05532 0.53312 0.03371
 N226 N -0.07355 0.55775 0.03726
 Mn227 Mn 0.00005 0.49981 0.05493
 C228 C -0.06130 0.57249 0.06234
 C229 C -0.06213 0.42787 0.06131
 N230 N -0.03407 0.46795 -0.05555
 N231 N -0.03661 0.44331 -0.07371
 N232 N -0.05569 0.53369 -0.03350
 N233 N -0.07350 0.55875 -0.03617
 N234 N -0.03411 0.53348 -0.05520
 N235 N -0.03661 0.55828 -0.07317
 N236 N -0.05583 0.46788 -0.03402
 N237 N -0.07386 0.44313 -0.03706
 Mn238 Mn -0.00067 0.50064 -0.05601
 Mn239 Mn -0.05599 0.50054 -0.00017
 Cl240 Cl -0.00032 0.50029 -0.00057
 C241 C -0.06162 0.42811 -0.06205
 C242 C -0.06136 0.57377 -0.06118
 N243 N 0.94425 -0.03508 0.46911
 N244 N 0.92479 -0.03864 0.44564
 N245 N 0.96749 -0.05632 0.53430
 N246 N 0.96541 -0.07423 0.55921
 N247 N 0.94574 -0.03474 0.53468
 N248 N 0.92824 -0.03742 0.55987
 N249 N 0.96585 -0.05680 0.46865
 N250 N 0.96166 -0.07575 0.44475
 C251 C 0.93588 -0.06413 0.43064
 C252 C 0.94071 -0.06228 0.57489
 N253 N 1.05602 -0.03450 0.53185
 N254 N 1.07569 -0.03775 0.55521
 N255 N 1.03286 -0.05660 0.46702
 N256 N 1.03533 -0.07510 0.44257
 N257 N 1.05444 -0.03496 0.46632
 N258 N 1.07229 -0.03827 0.44144
 N259 N 1.03458 -0.05625 0.53272
 N260 N 1.03909 -0.07492 0.55682
 Mn261 Mn 1.00019 -0.05690 0.50068
 C262 C 1.06490 -0.06307 0.57061
 C263 C 1.06013 -0.06349 0.42689
 N264 N 0.94539 0.03224 0.53410
 N265 N 0.92735 0.03507 0.55880
 N266 N 0.96537 0.05383 0.46793
 N267 N 0.96114 0.07244 0.44375
 N268 N 0.94395 0.03202 0.46860
 N269 N 0.92457 0.03523 0.44497
 N270 N 0.96670 0.05415 0.53369
 N271 N 0.96362 0.07258 0.55822
 Mn272 Mn 0.94447 -0.00138 0.50161
 C273 C 0.93885 0.06037 0.57361
 C274 C 0.93552 0.06057 0.42966
 N275 N 1.05411 0.03213 0.46613
 N276 N 1.07268 0.03541 0.44189
 N277 N 1.03398 0.05424 0.53209
 N278 N 1.03766 0.07258 0.55655
 N279 N 1.05559 0.03250 0.53157
 N280 N 1.07449 0.03544 0.55559
 N281 N 1.03257 0.05393 0.46635
 N282 N 1.03593 0.07265 0.44209
 Mn283 Mn 1.05539 -0.00119 0.49894
 Mn284 Mn 0.99966 0.05450 0.50002
 Cl285 Cl 0.99993 -0.00123 0.50031
 C286 C 1.06114 0.06076 0.42708
 C287 C 1.06314 0.06061 0.57092
 C288 C 1.11414 0.11122 0.31479
 C289 C 1.14578 0.10797 0.30735
 C290 C 1.15718 0.12054 0.27969
 C291 C 1.13736 0.13674 0.25900
 C292 C 1.10583 0.14015 0.26805
 N293 N 1.09529 0.12743 0.29512
 C294 C 1.10086 0.09766 0.34361
 N295 N 1.07494 0.11079 0.35655
 C296 C 1.06171 0.09949 0.38310
 C297 C 1.07463 0.07341 0.39807
 C298 C 1.10095 0.05921 0.38481
 C299 C 1.11404 0.07115 0.35763
 H300 H 1.18196 0.11849 0.27549
 H301 H 1.08901 0.15158 0.25320
 H302 H 1.04122 0.11092 0.39247
 H303 H 1.11142 0.03879 0.39538
 H304 H 1.16189 0.09647 0.32297
 H305 H 1.13394 0.05932 0.34757
 C306 C 0.88061 -0.11612 0.32025
 C307 C 0.84902 -0.11243 0.31286
 C308 C 0.83738 -0.12514 0.28540
 C309 C 0.85689 -0.14195 0.26486
 C310 C 0.88829 -0.14603 0.27398
 N311 N 0.89910 -0.13309 0.30082
 C312 C 0.89428 -0.10220 0.34870
 N313 N 0.92049 -0.11508 0.36122
 C314 C 0.93424 -0.10342 0.38729
 C315 C 0.92160 -0.07716 0.40221
 C316 C 0.89496 -0.06321 0.38942
 C317 C 0.88132 -0.07553 0.36270
 H318 H 0.81266 -0.12262 0.28117
 H319 H 0.90486 -0.15807 0.25928
 H320 H 0.95497 -0.11468 0.39629
 H321 H 0.88470 -0.04266 0.39998
 H322 H 0.83312 -0.10039 0.32833
 H323 H 0.86121 -0.06383 0.35296
 C324 C 0.88888 0.10792 0.68860
 C325 C 0.87646 0.08885 0.71214
 C326 C 0.86373 0.10245 0.73880
 C327 C 0.86338 0.13499 0.74225
 C328 C 0.87666 0.15319 0.71846
 N329 N 0.88888 0.13940 0.69264
 C330 C 0.90184 0.09473 0.65946
 N331 N 0.92411 0.11088 0.64359
 C332 C 0.93655 0.10035 0.61634
 C333 C 0.92621 0.07221 0.60336
 C334 C 0.90312 0.05536 0.61917
 C335 C 0.89090 0.06648 0.64714
 H336 H 0.85451 0.08747 0.75690
 H337 H 0.87677 0.17837 0.72004
 H338 H 0.95424 0.11409 0.60475
 H339 H 0.89438 0.03359 0.60989
 H340 H 0.87692 0.06370 0.71031
 H341 H 0.87258 0.05339 0.65847
 C342 C 1.12138 -0.11379 0.68120
 C343 C 1.15317 -0.11087 0.68805
 C344 C 1.16507 -0.12398 0.71530
 C345 C 1.14560 -0.14040 0.73614
 C346 C 1.11385 -0.14317 0.72780
 N347 N 1.10286 -0.13001 0.70113
 C348 C 1.10748 -0.10013 0.65269
 N349 N 1.08089 -0.11278 0.64088
 C350 C 1.06684 -0.10144 0.61479
 C351 C 1.07955 -0.07575 0.59907
 C352 C 1.10661 -0.06203 0.61110
 C353 C 1.12059 -0.07406 0.63785
 H354 H 1.18992 -0.12221 0.71900
 H355 H 1.09719 -0.15453 0.74287
 H356 H 1.04582 -0.11251 0.60640
 H357 H 1.11696 -0.04192 0.59991
 H358 H 1.16902 -0.09927 0.67225
 H359 H 1.14106 -0.06260 0.64698
 C360 C 0.30894 1.11083 1.10565
 C361 C 0.28694 1.12594 1.08681
 C362 C 0.25968 1.13769 1.10008
 C363 C 0.25375 1.13444 1.13229
 C364 C 0.27619 1.11803 1.15002
 N365 N 0.30270 1.10706 1.13649
 C366 C 0.33875 1.09887 1.09299
 N367 N 0.35372 1.07534 1.10825
 C368 C 0.38146 1.06356 1.09827
 C369 C 0.39587 1.07581 1.07160
 C370 C 0.38104 1.10022 1.05569
 C371 C 0.35260 1.11186 1.06630
 H372 H 0.24289 1.14828 1.08454
 H373 H 0.27378 1.11516 1.17492
 H374 H 0.39221 1.04475 1.11124
 H375 H 0.39148 1.11046 1.03510
 H376 H 0.29029 1.12827 1.06193
 H377 H 0.34208 1.13123 1.05403
 C378 C 0.31930 0.88089 0.88829
 C379 C 0.31393 0.84861 0.88820
 C380 C 0.28675 0.83696 0.87483
 C381 C 0.26478 0.85728 0.86151
 C382 C 0.27128 0.88939 0.86167
 N383 N 0.29800 0.90020 0.87479
 C384 C 0.34778 0.89440 0.90217
 N385 N 0.35899 0.92184 0.89081
 C386 C 0.38512 0.93549 0.90239
 C387 C 0.40143 0.92149 0.92704
 C388 C 0.39000 0.89353 0.93946
 C389 C 0.36326 0.87991 0.92713
 H390 H 0.28319 0.81198 0.87448
 H391 H 0.25496 0.90595 0.85184
 H392 H 0.39302 0.95725 0.89237
 H393 H 0.40174 0.88214 0.95871
 H394 H 0.33075 0.83238 0.89773
 H395 H 0.35459 0.85860 0.93745
 C396 C 0.68847 0.89432 1.11332
 C397 C 0.70951 0.91210 1.13077
 C398 C 0.73631 0.89816 1.14269
 C399 C 0.74282 0.86631 1.13729
 C400 C 0.72162 0.84980 1.11832
 N401 N 0.69543 0.86394 1.10730
 C402 C 0.65894 0.90761 1.10122
 N403 N 0.64477 0.89356 1.07657
 C404 C 0.61738 0.90409 1.06454
 C405 C 0.60247 0.93016 1.07761
 C406 C 0.61644 0.94486 1.10316
 C407 C 0.64454 0.93365 1.11510
 H408 H 0.75235 0.91295 1.15525
 H409 H 0.72466 0.82526 1.11351
 H410 H 0.60731 0.89203 1.04482
 H411 H 0.60557 0.96491 1.11405
 H412 H 0.70576 0.93670 1.13490
 H413 H 0.65433 0.94496 1.13534
 C414 C 0.68274 1.11785 0.88763
 C415 C 0.69026 1.14939 0.89149
 C416 C 0.71771 1.16104 0.87871
 C417 C 0.73810 1.14160 0.86163
 C418 C 0.72899 1.11018 0.85767
 N419 N 0.70215 1.09938 0.87063
 C420 C 0.65408 1.10425 0.90125
 N421 N 0.64146 1.07828 0.88807
 C422 C 0.61509 1.06471 0.89935
 C423 C 0.59993 1.07733 0.92546
 C424 C 0.61285 1.10370 0.93972
 C425 C 0.63988 1.11713 0.92783
 H426 H 0.72197 1.18575 0.88128
 H427 H 0.74364 1.09360 0.84557
 H428 H 0.60600 1.04420 0.88786
 H429 H 0.60215 1.11393 0.96020
 H430 H 0.67485 1.16528 0.90363
 H431 H 0.64968 1.13703 0.93975
 C432 C 0.10641 0.30950 0.10575
 C433 C 0.11646 0.28506 0.08643
 C434 C 0.12808 0.25777 0.09977
 C435 C 0.12980 0.25469 0.13231
 C436 C 0.11859 0.27933 0.15079
 N437 N 0.10738 0.30573 0.13724
 C438 C 0.09492 0.33931 0.09282
 N439 N 0.07374 0.35623 0.10941
 C440 C 0.06259 0.38411 0.09918
 C441 C 0.07319 0.39668 0.07091
 C442 C 0.09527 0.37985 0.05362
 C443 C 0.10615 0.35116 0.06444
 H444 H 0.13566 0.23905 0.08460
 H445 H 0.11958 0.27806 0.17596
 H446 H 0.04565 0.39649 0.11325
 H447 H 0.10410 0.38882 0.03173
 H448 H 0.11513 0.28679 0.06131
 H449 H 0.12363 0.33883 0.05102
 C450 C -0.10800 0.31231 -0.11051
 C451 C -0.08876 0.28814 -0.12146
 C452 C -0.10219 0.26126 -0.13378
 C453 C -0.13474 0.25830 -0.13528
 C454 C -0.15312 0.28279 -0.12349
 N455 N -0.13949 0.30875 -0.11157
 C456 C -0.09501 0.34161 -0.09794
 N457 N -0.11161 0.35792 -0.07627
 C458 C -0.10135 0.38538 -0.06424
 C459 C -0.07307 0.39817 -0.07443
 C460 C -0.05574 0.38191 -0.09692
 C461 C -0.06656 0.35366 -0.10868
 H462 H -0.08709 0.24266 -0.14184
 H463 H -0.17829 0.28168 -0.12436
 H464 H -0.11544 0.39730 -0.04699
 H465 H -0.03381 0.39103 -0.10547
 H466 H -0.06363 0.28969 -0.12016
 H467 H -0.05311 0.34187 -0.12649
 C468 C 0.10833 0.68758 -0.11296
 C469 C 0.08961 0.71142 -0.12545
 C470 C 0.10360 0.73793 -0.13805
 C471 C 0.13618 0.74088 -0.13822
 C472 C 0.15399 0.71674 -0.12497
 N473 N 0.13984 0.69114 -0.11286
 C474 C 0.09485 0.65866 -0.09990
 N475 N 0.11109 0.64261 -0.07780
 C476 C 0.10051 0.61546 -0.06532
 C477 C 0.07222 0.60271 -0.07544
 C478 C 0.05520 0.61872 -0.09832
 C479 C 0.06638 0.64665 -0.11058
 H480 H 0.08890 0.75627 -0.14732
 H481 H 0.17918 0.71786 -0.12481
 H482 H 0.11437 0.60374 -0.04777
 H483 H 0.03329 0.60961 -0.10684
 H484 H 0.06445 0.70995 -0.12512
 H485 H 0.05318 0.65816 -0.12873
 C486 C -0.10892 0.68776 0.11206
 C487 C -0.08995 0.71107 0.12495
 C488 C -0.10360 0.73788 0.13736
 C489 C -0.13611 0.74172 0.13698
 C490 C -0.15418 0.71824 0.12310
 N491 N -0.14034 0.69226 0.11120
 C492 C -0.09569 0.65844 0.09941
 N493 N -0.11156 0.64279 0.07684
 C494 C -0.10102 0.61549 0.06452
 C495 C -0.07312 0.60218 0.07526
 C496 C -0.05655 0.61771 0.09870
 C497 C -0.06771 0.64577 0.11082
 H498 H -0.08867 0.75573 0.14705
 H499 H -0.17932 0.72013 0.12238
 H500 H -0.11454 0.60415 0.04654
 H501 H -0.03498 0.60816 0.10773
 H502 H -0.06483 0.70892 0.12515
 H503 H -0.05484 0.65693 0.12937
 C504 C 1.11344 0.10811 0.68570
 C505 C 1.12931 0.08956 0.70742
 C506 C 1.14132 0.10308 0.73437
 C507 C 1.13761 0.13527 0.74030
 C508 C 1.12057 0.15271 0.71811
 N509 N 1.10931 0.13894 0.69190
 C510 C 1.10092 0.09508 0.65631
 N511 N 1.07667 0.10980 0.64198
 C512 C 1.06419 0.09930 0.61480
 C513 C 1.07638 0.07259 0.60032
 C514 C 1.10157 0.05727 0.61445
 C515 C 1.11393 0.06842 0.64232
 H516 H 1.15241 0.08769 0.75099
 H517 H 1.11732 0.17758 0.72048
 H518 H 1.04483 0.11186 0.60456
 H519 H 1.11181 0.03668 0.60394
 H520 H 1.13197 0.06469 0.70413
 H521 H 1.13382 0.05655 0.65231
 C522 C 0.89661 -0.10714 0.69331
 C523 C 0.91552 -0.12280 0.71485
 C524 C 0.90258 -0.13408 0.74240
 C525 C 0.87062 -0.12983 0.74912
 C526 C 0.85291 -0.11264 0.72728
 N527 N 0.86610 -0.10218 0.70040
 C528 C 0.90890 -0.09592 0.66305
 N529 N 0.89412 -0.07195 0.64830
 C530 C 0.90382 -0.06079 0.62025
 C531 C 0.92970 -0.07413 0.60526
 C532 C 0.94508 -0.09903 0.61984
 C533 C 0.93475 -0.11003 0.64861
 H534 H 0.91819 -0.14521 0.75878
 H535 H 0.82820 -0.10883 0.73041
 H536 H 0.89127 -0.04158 0.60970
 H537 H 0.96503 -0.11010 0.60896
 H538 H 0.94022 -0.12600 0.71086
 H539 H 0.94659 -0.12978 0.65894
 C540 C 1.10678 -0.11189 0.31090
 C541 C 1.08748 -0.12328 0.28711
 C542 C 1.10081 -0.13507 0.25988
 C543 C 1.13334 -0.13564 0.25618
 C544 C 1.15177 -0.12337 0.28028
 N545 N 1.13822 -0.11197 0.30660
 C546 C 1.09385 -0.09968 0.34045
 N547 N 1.10998 -0.07751 0.35638
 C548 C 1.09964 -0.06551 0.38386
 C549 C 1.07170 -0.07618 0.39706
 C550 C 1.05489 -0.09926 0.38126
 C551 C 1.06582 -0.11103 0.35298
 H552 H 1.08562 -0.14346 0.24160
 H553 H 1.17693 -0.12347 0.27856
 H554 H 1.11336 -0.04781 0.39543
 H555 H 1.03327 -0.10822 0.39073
 H556 H 1.06235 -0.12270 0.28920
 H557 H 1.05276 -0.12925 0.34149
 C558 C 0.88080 0.11209 0.31843
 C559 C 0.84918 0.10887 0.31100
 C560 C 0.83757 0.12223 0.28377
 C561 C 0.85713 0.13919 0.26345
 C562 C 0.88866 0.14242 0.27244
 N563 N 0.89939 0.12897 0.29910
 C564 C 0.89434 0.09810 0.34700
 N565 N 0.92056 0.11083 0.35952
 C566 C 0.93415 0.09930 0.38577
 C567 C 0.92134 0.07332 0.40096
 C568 C 0.89468 0.05950 0.38820
 C569 C 0.88119 0.07170 0.36126
 H570 H 0.81280 0.12019 0.27967
 H571 H 0.90534 0.15436 0.25787
 H572 H 0.95488 0.11047 0.39473
 H573 H 0.88429 0.03918 0.39897
 H574 H 0.83321 0.09684 0.32635
 H575 H 0.86102 0.06016 0.35158
 C576 C 0.11188 0.31680 -0.11874
 C577 C 0.10849 0.30949 -0.15038
 C578 C 0.12149 0.28209 -0.16210
 C579 C 0.13825 0.26149 -0.14262
 C580 C 0.14166 0.27037 -0.11106
 N581 N 0.12857 0.29720 -0.10022
 C582 C 0.09818 0.34550 -0.10512
 N583 N 0.11127 0.35815 -0.07912
 C584 C 0.09998 0.38458 -0.06557
 C585 C 0.07391 0.39981 -0.07823
 C586 C 0.05972 0.38687 -0.10462
 C587 C 0.07167 0.35977 -0.11806
 H588 H 0.11933 0.27806 -0.18688
 H589 H 0.15346 0.25558 -0.09443
 H590 H 0.11140 0.39366 -0.04503
 H591 H 0.03930 0.39763 -0.11488
 H592 H 0.09659 0.32505 -0.16627
 H593 H 0.05985 0.34998 -0.13803
 C594 C -0.11043 0.31299 0.11071
 C595 C -0.12152 0.28874 0.09181
 C596 C -0.13385 0.26203 0.10559
 C597 C -0.13527 0.25927 0.13818
 C598 C -0.12298 0.28363 0.15624
 N599 N -0.11108 0.30951 0.14226
 C600 C -0.09819 0.34226 0.09716
 N601 N -0.07611 0.35862 0.11296
 C602 C -0.06415 0.38585 0.10195
 C603 C -0.07478 0.39833 0.07363
 C604 C -0.09779 0.38208 0.05717
 C605 C -0.10951 0.35408 0.06879
 H606 H -0.14218 0.24347 0.09069
 H607 H -0.12361 0.28257 0.18143
 H608 H -0.04652 0.39779 0.11542
 H609 H -0.10672 0.39098 0.03530
 H610 H -0.12045 0.29015 0.06666
 H611 H -0.12767 0.34226 0.05596
 C612 C -0.10510 0.69192 -0.10728
 C613 C -0.08589 0.71340 -0.12261
 C614 C -0.09860 0.74096 -0.13423
 C615 C -0.13060 0.74776 -0.13058
 C616 C -0.14869 0.72589 -0.11386
 N617 N -0.13571 0.69901 -0.10306
 C618 C -0.09302 0.66172 -0.09566
 N619 N -0.10815 0.64707 -0.07188
 C620 C -0.09856 0.61906 -0.06040
 C621 C -0.07245 0.60406 -0.07322
 C622 C -0.05674 0.61854 -0.09794
 C623 C -0.06694 0.64723 -0.10926
 H624 H -0.08277 0.75731 -0.14504
 H625 H -0.17347 0.72903 -0.11063
 H626 H -0.11137 0.60857 -0.04136
 H627 H -0.03658 0.60766 -0.10863
 H628 H -0.06113 0.70939 -0.12526
 H629 H -0.05482 0.65746 -0.12885
 C630 C 0.10762 0.68863 0.10893
 C631 C 0.08891 0.71002 0.12511
 C632 C 0.10206 0.73716 0.13700
 C633 C 0.13404 0.74368 0.13285
 C634 C 0.15157 0.72206 0.11515
 N635 N 0.13818 0.69554 0.10410
 C636 C 0.09501 0.65879 0.09702
 N637 N 0.10945 0.64439 0.07264
 C638 C 0.09925 0.61681 0.06076
 C639 C 0.07314 0.60201 0.07374
 C640 C 0.05815 0.61621 0.09908
 C641 C 0.06900 0.64445 0.11083
 H642 H 0.08657 0.75344 0.14850
 H643 H 0.17627 0.72508 0.11135
 H644 H 0.11154 0.60652 0.04125
 H645 H 0.03805 0.60547 0.10992
 H646 H 0.06419 0.70625 0.12823
 H647 H 0.05741 0.65445 0.13088
 C648 C 0.31153 1.10809 0.88876
 C649 C 0.28733 1.08902 0.87792
 C650 C 0.26039 1.10264 0.86583
 C651 C 0.25738 1.13523 0.86439
 C652 C 0.28178 1.15346 0.87631
 N653 N 0.30784 1.13963 0.88800
 C654 C 0.34093 1.09483 0.90104
 N655 N 0.35732 1.11120 0.92267
 C656 C 0.38471 1.10063 0.93466
 C657 C 0.39735 1.07216 0.92453
 C658 C 0.38107 1.05506 0.90199
 C659 C 0.35288 1.06625 0.89024
 H660 H 0.24184 1.08762 0.85774
 H661 H 0.28058 1.17865 0.87559
 H662 H 0.39664 1.11458 0.95192
 H663 H 0.39011 1.03304 0.89349
 H664 H 0.28892 1.06386 0.87907
 H665 H 0.34101 1.05295 0.87244
 C666 C 0.31129 0.89305 1.11013
 C667 C 0.28713 0.91224 1.12117
 C668 C 0.25993 0.89878 1.13275
 C669 C 0.25657 0.86622 1.13341
 C670 C 0.28095 0.84788 1.12135
 N671 N 0.30729 0.86155 1.11021
 C672 C 0.34097 0.90613 1.09840
 N673 N 0.35768 0.88984 1.07682
 C674 C 0.38531 0.90033 1.06532
 C675 C 0.39781 0.92861 1.07589
 C676 C 0.38119 0.94558 1.09838
 C677 C 0.35282 0.93448 1.10967
 H678 H 0.24142 0.91389 1.14099
 H679 H 0.27947 0.82270 1.12149
 H680 H 0.39750 0.88648 1.04808
 H681 H 0.39010 0.96746 1.10725
 H682 H 0.28894 0.93740 1.12056
 H683 H 0.34074 0.94769 1.12746
 C684 C 0.68512 1.11573 1.10969
 C685 C 0.70934 1.12692 1.09075
 C686 C 0.73622 1.13888 1.10451
 C687 C 0.73914 1.13982 1.13710
 C688 C 0.71457 1.12787 1.15516
 N689 N 0.68862 1.11627 1.14121
 C690 C 0.65599 1.10309 1.09634
 N691 N 0.63973 1.08129 1.11270
 C692 C 0.61263 1.06888 1.10202
 C693 C 0.60017 1.07871 1.07343
 C694 C 0.61631 1.10141 1.05634
 C695 C 0.64420 1.11361 1.06766
 H696 H 0.75487 1.14704 1.08960
 H697 H 0.71564 1.12829 1.18035
 H698 H 0.60079 1.05151 1.11596
 H699 H 0.60741 1.10971 1.03422
 H700 H 0.70790 1.12599 1.06560
 H701 H 0.65594 1.13152 1.05434
 C702 C 0.69146 0.89294 0.89645
 C703 C 0.71529 0.88191 0.91598
 C704 C 0.74274 0.87037 0.90290
 C705 C 0.74665 0.86975 0.87041
 C706 C 0.72258 0.88180 0.85174
 N707 N 0.69599 0.89290 0.86504
 C708 C 0.66154 0.90463 0.90909
 N709 N 0.64506 0.92615 0.89251
 C710 C 0.61720 0.93758 0.90253
 C711 C 0.60420 0.92698 0.93060
 C712 C 0.62058 0.90456 0.94788
 C713 C 0.64921 0.89335 0.93725
 H714 H 0.76101 0.86212 0.91824
 H715 H 0.72451 0.88168 0.82660
 H716 H 0.60519 0.95477 0.88847
 H717 H 0.61128 0.89567 0.96961
 H718 H 0.71304 0.88251 0.94109
 H719 H 0.66110 0.87559 0.95067
   
