data_POSCAR
  _audit_creation_date              2014-09-24
  _audit_creation_method            'ToBaCCo'
  _symmetry_space_group_name_H-M    'P1'
  _symmetry_Int_Tables_number       1
  _symmetry_cell_setting            triclinic
  loop_
  _symmetry_equiv_pos_as_xyz
 x,y,z
_cell_length_a 48.8130
_cell_length_b 48.8882
_cell_length_c 48.5816
_cell_angle_alpha 89.951900
_cell_angle_beta 89.966100
_cell_angle_gamma 89.979900
loop_
  _atom_site_label
  _atom_site_type_symbol
  _atom_site_fract_x
  _atom_site_fract_y
  _atom_site_fract_z
N1 N 0.14526 0.16483 0.21921
 N2 N 0.16460 0.14616 0.21942
 C3 C 0.16042 0.12919 0.24089
 C4 C 0.13713 0.13766 0.25505
 C5 C 0.12814 0.16043 0.24046
 H6 H 0.17347 0.11201 0.24574
 H7 H 0.11051 0.17305 0.24482
 Cu8 Cu 0.19344 0.14605 0.19162
 Cu9 Cu 0.14361 0.19361 0.19151
 Cu10 Cu 0.19399 0.19329 0.14123
 N11 N 0.22129 0.14579 0.16282
 N12 N 0.22134 0.16434 0.14326
 C13 C 0.24256 0.15969 0.12622
 C14 C 0.25684 0.13686 0.13548
 C15 C 0.24254 0.12864 0.15886
 H16 H 0.24711 0.17216 0.10845
 H17 H 0.24715 0.11149 0.17210
 N18 N 0.16459 0.22090 0.14264
 N19 N 0.14541 0.22102 0.16177
 C20 C 0.12847 0.24230 0.15725
 C21 C 0.13735 0.25638 0.13411
 C22 C 0.16034 0.24211 0.12545
 H23 H 0.11097 0.24716 0.16994
 H24 H 0.17313 0.24679 0.10793
 H25 H 0.16332 0.17169 0.16097
 H26 H 0.18502 0.19447 0.18277
 N27 N -0.14358 0.83629 0.22036
 N28 N -0.16226 0.85563 0.21993
 C29 C -0.15787 0.87274 0.24120
 C30 C -0.13516 0.86368 0.25579
 C31 C -0.12670 0.84043 0.24183
 H32 H -0.17029 0.89048 0.24566
 H33 H -0.10956 0.82737 0.24683
 Cu34 Cu -0.19052 0.85649 0.19162
 Cu35 Cu -0.14243 0.80717 0.19311
 Cu36 Cu -0.19312 0.80724 0.14323
 N37 N -0.21935 0.85571 0.16390
 N38 N -0.22023 0.83646 0.14509
 C39 C -0.24204 0.84068 0.12869
 C40 C -0.25582 0.86394 0.13762
 C41 C -0.24064 0.87285 0.16012
 H42 H -0.24731 0.82762 0.11159
 H43 H -0.24469 0.89044 0.17292
 N44 N -0.16388 0.77941 0.14482
 N45 N -0.14462 0.77941 0.16384
 C46 C -0.12780 0.75800 0.15952
 C47 C -0.13683 0.74370 0.13663
 C48 C -0.15980 0.75798 0.12789
 H49 H -0.11024 0.75326 0.17215
 H50 H -0.17266 0.75318 0.11047
 H51 H -0.16164 0.82850 0.16180
 H52 H -0.18403 0.80751 0.18476
 N53 N -0.14619 0.16293 -0.21951
 N54 N -0.16480 0.14353 -0.21894
 C55 C -0.16052 0.12645 -0.24026
 C56 C -0.13795 0.13556 -0.25503
 C57 C -0.12946 0.15884 -0.24114
 H58 H -0.17289 0.10866 -0.24460
 H59 H -0.11243 0.17198 -0.24633
 Cu60 Cu -0.19283 0.14251 -0.19039
 Cu61 Cu -0.14500 0.19207 -0.19223
 Cu62 Cu -0.19535 0.19161 -0.14191
 N63 N -0.22142 0.14303 -0.16239
 N64 N -0.22227 0.16223 -0.14353
 C65 C -0.24388 0.15782 -0.12691
 C66 C -0.25755 0.13446 -0.13572
 C67 C -0.24252 0.12572 -0.15842
 H68 H -0.24910 0.17080 -0.10971
 H69 H -0.24654 0.10812 -0.17120
 N70 N -0.16634 0.21963 -0.14372
 N71 N -0.14720 0.21980 -0.16288
 C72 C -0.13054 0.24133 -0.15865
 C73 C -0.13956 0.25554 -0.13567
 C74 C -0.16234 0.24106 -0.12678
 H75 H -0.11310 0.24624 -0.17141
 H76 H -0.17513 0.24573 -0.10926
 H77 H -0.16384 0.17060 -0.16084
 H78 H -0.18651 0.19153 -0.18356
 N79 N 0.14578 0.83767 -0.21980
 N80 N 0.16469 0.85674 -0.21869
 C81 C 0.16103 0.87421 -0.23983
 C82 C 0.13856 0.86567 -0.25508
 C83 C 0.12947 0.84235 -0.24161
 H84 H 0.17383 0.89179 -0.24382
 H85 H 0.11227 0.82960 -0.24717
 Cu86 Cu 0.19237 0.85671 -0.18979
 Cu87 Cu 0.14366 0.80812 -0.19299
 Cu88 Cu 0.19332 0.80677 -0.14204
 N89 N 0.22055 0.85521 -0.16142
 N90 N 0.22080 0.83567 -0.14287
 C91 C 0.24229 0.83935 -0.12595
 C92 C 0.25653 0.86257 -0.13424
 C93 C 0.24195 0.87202 -0.15694
 H94 H 0.24706 0.82595 -0.10893
 H95 H 0.24646 0.88976 -0.16939
 N96 N 0.16381 0.77935 -0.14466
 N97 N 0.14492 0.77989 -0.16405
 C98 C 0.12774 0.75866 -0.16032
 C99 C 0.13615 0.74391 -0.13744
 C100 C 0.15913 0.75774 -0.12808
 H101 H 0.11037 0.75433 -0.17334
 H102 H 0.17157 0.75254 -0.11047
 H103 H 0.16241 0.82875 -0.16098
 H104 H 0.18499 0.80776 -0.18372
 N105 N 0.16544 1.14485 0.78084
 N106 N 0.14653 1.16397 0.78076
 C107 C 0.12968 1.15985 0.75921
 C108 C 0.13850 1.13688 0.74496
 C109 C 0.16129 1.12795 0.75942
 H110 H 0.11235 1.17268 0.75429
 H111 H 0.17404 1.11048 0.75482
 Cu112 Cu 0.14597 1.19238 0.80880
 Cu113 Cu 0.19415 1.14321 0.80854
 Cu114 Cu 0.19368 1.19353 0.85871
 N115 N 0.14598 1.22051 0.83714
 N116 N 0.16471 1.22078 0.85653
 C117 C 0.16019 1.24217 0.87331
 C118 C 0.13733 1.25624 0.86402
 C119 C 0.12888 1.24180 0.84095
 H120 H 0.17272 1.24700 0.89096
 H121 H 0.11161 1.24642 0.82786
 N122 N 0.22130 1.16419 0.85738
 N123 N 0.22147 1.14504 0.83829
 C124 C 0.24276 1.12813 0.84287
 C125 C 0.25678 1.13703 0.86599
 C126 C 0.24248 1.15998 0.87460
 H127 H 0.24765 1.11065 0.83022
 H128 H 0.24712 1.17277 0.89210
 H129 H 0.17226 1.16267 0.83927
 H130 H 0.19459 1.18461 0.81717
 N131 N 0.83623 0.85653 0.77913
 N132 N 0.85474 0.83704 0.77869
 C133 C 0.87185 0.84138 0.75737
 C134 C 0.86358 0.86487 0.74363
 C135 C 0.84087 0.87388 0.75816
 H136 H 0.88896 0.82834 0.75222
 H137 H 0.82855 0.89175 0.75394
 Cu138 Cu 0.85456 0.80787 0.80598
 Cu139 Cu 0.80738 0.85802 0.80667
 Cu140 Cu 0.80719 0.80721 0.85640
 N141 N 0.85459 0.77995 0.83454
 N142 N 0.83605 0.77981 0.85414
 C143 C 0.84069 0.75845 0.87098
 C144 C 0.86344 0.74430 0.86149
 C145 C 0.87170 0.75866 0.83829
 H146 H 0.82835 0.75370 0.88882
 H147 H 0.88883 0.75398 0.82503
 N148 N 0.77973 0.83674 0.85513
 N149 N 0.77986 0.85606 0.83618
 C150 C 0.75858 0.87300 0.84062
 C151 C 0.74423 0.86398 0.86350
 C152 C 0.75834 0.84090 0.87214
 H153 H 0.75391 0.89058 0.82800
 H154 H 0.75338 0.82795 0.88946
 H155 H 0.82920 0.83776 0.83701
 H156 H 0.80616 0.81653 0.81498
 N157 N 0.16287 0.85378 1.21995
 N158 N 0.14423 0.83441 1.22024
 C159 C 0.12713 0.83868 1.24157
 C160 C 0.13550 0.86199 1.25549
 C161 C 0.15831 0.87098 1.24105
 H162 H 0.10993 0.82570 1.24658
 H163 H 0.17074 0.88871 1.24545
 Cu164 Cu 0.14416 0.80547 1.19280
 Cu165 Cu 0.19177 0.85523 1.19239
 Cu166 Cu 0.19149 0.80473 1.14240
 N167 N 0.14388 0.77776 1.16409
 N168 N 0.16242 0.77760 1.14449
 C169 C 0.15760 0.75642 1.12753
 C170 C 0.13474 0.74241 1.13693
 C171 C 0.12659 0.75666 1.16022
 H172 H 0.16989 0.75171 1.10965
 H173 H 0.10942 0.75204 1.17344
 N174 N 0.21919 0.83396 1.14379
 N175 N 0.21928 0.85319 1.16281
 C176 C 0.24073 0.86992 1.15838
 C177 C 0.25495 0.86083 1.13543
 C178 C 0.24058 0.83795 1.12676
 H179 H 0.24563 0.88738 1.17104
 H180 H 0.24536 0.82503 1.10939
 H181 H 0.16977 0.83540 1.16197
 H182 H 0.19263 0.81383 1.18389
 N183 N 0.83706 1.14565 1.21986
 N184 N 0.85559 1.16511 1.21920
 C185 C 0.87303 1.16160 1.24039
 C186 C 0.86499 1.13868 1.25519
 C187 C 0.84204 1.12913 1.24142
 H188 H 0.89018 1.17484 1.24475
 H189 H 0.82979 1.11145 1.24657
 Cu190 Cu 0.85495 1.19310 1.19072
 Cu191 Cu 0.80769 1.14315 1.19291
 Cu192 Cu 0.80612 1.19283 1.14196
 N193 N 0.85382 1.22085 1.16201
 N194 N 0.83469 1.22057 1.14302
 C195 C 0.83853 1.24180 1.12583
 C196 C 0.86136 1.25633 1.13444
 C197 C 0.87051 1.24232 1.15753
 H198 H 0.82561 1.24620 1.10833
 H199 H 0.88795 1.24738 1.17020
 N200 N 0.77904 1.16306 1.14443
 N201 N 0.77964 1.14418 1.16382
 C202 C 0.75849 1.12693 1.16007
 C203 C 0.74375 1.13530 1.13719
 C204 C 0.75749 1.15832 1.12784
 H205 H 0.75416 1.10958 1.17314
 H206 H 0.75221 1.17079 1.11028
 H207 H 0.82845 1.16253 1.16140
 H208 H 0.80627 1.18439 1.18368
 O209 O 0.46134 1.04841 1.04920
 O210 O 0.43131 1.02174 1.02463
 C211 C 0.43682 1.04092 1.04214
 O212 O 0.53841 1.04621 0.95166
 O213 O 0.56846 1.02111 0.97788
 C214 C 0.56294 1.03891 0.95892
 O215 O 0.46138 1.04845 0.95415
 O216 O 0.43136 1.02200 0.97904
 C217 C 0.43689 1.04109 0.96142
 O218 O 0.53827 1.04586 1.05194
 O219 O 0.56838 1.02095 1.02558
 C220 C 0.56279 1.03866 1.04458
 Zr221 Zr 0.49983 1.03230 1.03691
 O222 O 0.50054 1.07534 1.04110
 O223 O 0.49881 1.02753 1.08012
 Zr224 Zr 0.49991 1.03302 0.96709
 O225 O 0.50256 1.07624 0.96743
 O226 O 0.49693 1.03309 0.92361
 O227 O 0.47559 1.03806 1.00202
 O228 O 0.52360 1.03775 1.00201
 O229 O 0.53850 0.95049 1.05195
 O230 O 0.56851 0.97536 1.02540
 C231 C 0.56302 0.95771 1.04452
 O232 O 0.46141 0.94845 0.95351
 O233 O 0.43136 0.97459 0.97867
 C234 C 0.43688 0.95574 0.96081
 O235 O 0.53843 0.95088 0.95106
 O236 O 0.56842 0.97562 0.97763
 C237 C 0.56291 0.95806 0.95848
 O238 O 0.46143 0.94773 1.04921
 O239 O 0.43139 0.97418 1.02432
 C240 C 0.43693 0.95507 1.04192
 Zr241 Zr 0.49995 0.96332 1.03634
 O242 O 0.50308 0.92013 1.03603
 O243 O 0.49723 0.96332 1.07983
 Zr244 Zr 0.49994 0.96378 0.96665
 O245 O 0.50301 0.92058 0.96659
 O246 O 0.49692 0.96420 0.92319
 Zr247 Zr 0.45923 0.99813 1.00169
 Zr248 Zr 0.54062 0.99822 1.00166
 O249 O 0.52373 0.95861 1.00146
 O250 O 0.47555 0.95819 1.00146
 O251 O 0.52440 0.99785 1.04188
 O252 O 0.47616 0.99843 0.96185
 O253 O 0.47592 0.99781 1.04160
 O254 O 0.52434 0.99846 0.96147
 H255 H 0.53601 1.05377 1.00200
 H256 H 0.46374 0.99853 0.94573
 H257 H 0.53618 0.94259 1.00141
 H258 H 0.46335 0.99774 1.05762
 H259 H 0.51242 1.02220 0.91638
 H260 H 0.51222 0.97544 0.91608
 H261 H 0.48760 0.91338 0.97765
 H262 H 0.48785 0.91304 1.02468
 H263 H 0.51104 0.97644 1.08673
 H264 H 0.49827 1.04627 1.08785
 H265 H 0.50420 1.08297 1.02264
 H266 H 0.48718 1.08317 0.97874
 O267 O -0.05213 0.46153 0.04553
 O268 O -0.02528 0.43147 0.02114
 C269 C -0.04460 0.43704 0.03852
 O270 O -0.04907 0.53847 -0.05190
 O271 O -0.02409 0.56839 -0.02549
 C272 C -0.04177 0.56292 -0.04455
 O273 O -0.05157 0.46151 -0.04946
 O274 O -0.02531 0.43149 -0.02441
 C275 C -0.04432 0.43703 -0.04212
 O276 O -0.04947 0.53833 0.04839
 O277 O -0.02424 0.56832 0.02220
 C278 C -0.04214 0.56281 0.04110
 Zr279 Zr -0.03584 0.49991 0.03338
 O280 O -0.07896 0.50079 0.03734
 O281 O -0.03136 0.49882 0.07663
 Zr282 Zr -0.03609 0.49998 -0.03644
 O283 O -0.07937 0.50278 -0.03638
 O284 O -0.03587 0.49699 -0.07991
 O285 O -0.04142 0.47572 -0.00154
 O286 O -0.04101 0.52365 -0.00154
 O287 O 0.04603 0.53818 0.04888
 O288 O 0.02142 0.56827 0.02219
 C289 C 0.03892 0.56268 0.04142
 O290 O 0.04858 0.46139 -0.04958
 O291 O 0.02216 0.43143 -0.02458
 C292 C 0.04117 0.43694 -0.04234
 O293 O 0.04638 0.53831 -0.05202
 O294 O 0.02145 0.56828 -0.02558
 C295 C 0.03917 0.56278 -0.04463
 O296 O 0.04870 0.46126 0.04616
 O297 O 0.02235 0.43136 0.02109
 C298 C 0.04138 0.43680 0.03882
 Zr299 Zr 0.03325 0.49977 0.03318
 O300 O 0.07652 0.50278 0.03302
 O301 O 0.03305 0.49703 0.07666
 Zr302 Zr 0.03325 0.49988 -0.03650
 O303 O 0.07652 0.50281 -0.03634
 O304 O 0.03310 0.49692 -0.07997
 Zr305 Zr -0.00146 0.45927 -0.00166
 Zr306 Zr -0.00138 0.54054 -0.00165
 O307 O 0.03826 0.52357 -0.00165
 O308 O 0.03858 0.47545 -0.00168
 O309 O -0.00131 0.52430 0.03855
 O310 O -0.00146 0.47620 -0.04150
 O311 O -0.00138 0.47591 0.03825
 O312 O -0.00140 0.52431 -0.04185
 H313 H -0.05703 0.53609 -0.00160
 H314 H -0.00150 0.46380 -0.05762
 H315 H 0.05432 0.53596 -0.00162
 H316 H -0.00143 0.46335 0.05427
 H317 H -0.02485 0.51241 -0.08709
 H318 H 0.02197 0.51227 -0.08712
 H319 H 0.08363 0.48739 -0.02526
 H320 H 0.08365 0.48749 0.02179
 H321 H 0.01977 0.51073 0.08351
 H322 H -0.05019 0.49835 0.08424
 H323 H -0.08647 0.50419 0.01879
 H324 H -0.08644 0.48743 -0.02514
 O325 O 1.05186 -0.04545 0.53848
 O326 O 1.02544 -0.02069 0.56867
 C327 C 1.04455 -0.03822 0.56312
 O328 O 1.04955 0.05169 0.46095
 O329 O 1.02478 0.02524 0.43087
 C330 C 1.04247 0.04419 0.43634
 O331 O 1.05173 0.04946 0.53833
 O332 O 1.02536 0.02467 0.56856
 C333 C 1.04436 0.04228 0.56297
 O334 O 1.04882 -0.04836 0.46106
 O335 O 1.02411 -0.02184 0.43086
 C336 C 1.04161 -0.04097 0.43643
 Zr337 Zr 1.03606 -0.03282 0.49976
 O338 O 1.07930 -0.03429 0.49688
 O339 O 1.03315 -0.07593 0.50128
 Zr340 Zr 1.03628 0.03648 0.49967
 O341 O 1.07955 0.03634 0.49666
 O342 O 1.03602 0.07969 0.50261
 O343 O 1.04157 0.00184 0.52418
 O344 O 1.04116 0.00178 0.47587
 O345 O 0.95405 -0.04828 0.46123
 O346 O 0.97857 -0.02167 0.43097
 C347 C 0.96105 -0.04078 0.43657
 O348 O 0.95145 0.04945 0.53855
 O349 O 0.97786 0.02462 0.56871
 C350 C 0.95878 0.04220 0.56318
 O351 O 0.95409 0.05218 0.46112
 O352 O 0.97889 0.02582 0.43092
 C353 C 0.96133 0.04487 0.43650
 O354 O 0.95160 -0.04577 0.53854
 O355 O 0.97785 -0.02079 0.56866
 C356 C 0.95893 -0.03851 0.56314
 Zr357 Zr 0.96691 -0.03265 0.49985
 O358 O 0.92364 -0.03234 0.49692
 O359 O 0.96707 -0.07586 0.50236
 Zr360 Zr 0.96694 0.03662 0.49980
 O361 O 0.92368 0.03657 0.49669
 O362 O 0.96709 0.07981 0.50293
 Zr363 Zr 1.00159 0.00195 0.54065
 Zr364 Zr 1.00151 0.00197 0.45888
 O365 O 0.96188 0.00200 0.47594
 O366 O 0.96157 0.00199 0.52434
 O367 O 1.00148 -0.03794 0.47523
 O368 O 1.00163 0.04154 0.52362
 O369 O 1.00154 -0.03768 0.52382
 O370 O 1.00161 0.04192 0.47518
 H371 H 1.05728 0.00162 0.46347
 H372 H 1.00162 0.05755 0.53611
 H373 H 0.94584 0.00203 0.46345
 H374 H 1.00159 -0.05368 0.53635
 H375 H 1.02533 0.08680 0.48686
 H376 H 0.97845 0.08695 0.48767
 H377 H 0.91650 0.02539 0.51206
 H378 H 0.91655 -0.02141 0.51250
 H379 H 0.98135 -0.08251 0.48955
 H380 H 1.05223 -0.08285 0.50118
 H381 H 1.08663 -0.02127 0.51059
 H382 H 1.08668 0.02527 0.51213
 C383 C 1.08973 0.12560 0.31434
 C384 C 1.10153 0.10252 0.32649
 C385 C 1.12515 0.09107 0.31499
 C386 C 1.13696 0.10261 0.29144
 C387 C 1.12529 0.12593 0.27886
 C388 C 1.10143 0.13721 0.29080
 C389 C 1.08921 0.09045 0.35056
 C390 C 1.07871 0.08027 0.37058
 C391 C 1.06624 0.06813 0.39382
 C392 C 1.05545 0.05744 0.41341
 H393 H 1.07139 0.13463 0.32304
 H394 H 1.13446 0.07314 0.32421
 H395 H 1.15519 0.09304 0.28329
 H396 H 1.09154 0.15503 0.28217
 C397 C 0.91322 -0.12345 0.31574
 C398 C 0.90157 -0.10021 0.32775
 C399 C 0.87786 -0.08878 0.31637
 C400 C 0.86586 -0.10051 0.29305
 C401 C 0.87743 -0.12389 0.28071
 C402 C 0.90128 -0.13521 0.29244
 C403 C 0.91413 -0.08793 0.35155
 C404 C 0.92479 -0.07755 0.37134
 C405 C 0.93737 -0.06515 0.39433
 C406 C 0.94817 -0.05425 0.41376
 H407 H 0.93161 -0.13245 0.32435
 H408 H 0.86866 -0.07076 0.32548
 H409 H 0.84755 -0.09115 0.28481
 H410 H 0.91092 -0.15310 0.28367
 C411 C 0.91046 0.12214 0.68510
 C412 C 0.89816 0.09950 0.67261
 C413 C 0.87404 0.08863 0.68368
 C414 C 0.86226 0.10034 0.70714
 C415 C 0.87446 0.12314 0.71993
 C416 C 0.89873 0.13389 0.70855
 C417 C 0.91049 0.08728 0.64864
 C418 C 0.92108 0.07706 0.62871
 C419 C 0.93381 0.06504 0.60557
 C420 C 0.94502 0.05469 0.58606
 H421 H 0.92918 0.13069 0.67676
 H422 H 0.86436 0.07106 0.67421
 H423 H 0.84359 0.09144 0.71510
 H424 H 0.90888 0.15128 0.71772
 C425 C 1.09265 -0.12078 0.68315
 C426 C 1.10418 -0.09686 0.67240
 C427 C 1.12701 -0.08521 0.68521
 C428 C 1.13825 -0.09736 0.70872
 C429 C 1.12678 -0.12142 0.71981
 C430 C 1.10383 -0.13298 0.70664
 C431 C 1.09228 -0.08416 0.64845
 C432 C 1.08196 -0.07360 0.62855
 C433 C 1.06942 -0.06129 0.60546
 C434 C 1.05831 -0.05078 0.58597
 H435 H 1.07493 -0.12997 0.67343
 H436 H 1.13609 -0.06665 0.67709
 H437 H 1.15585 -0.08776 0.71813
 H438 H 1.09433 -0.15141 0.71437
 C439 C 0.31610 1.08966 1.12403
 C440 C 0.32775 1.10086 1.10027
 C441 C 0.31595 1.12398 1.08821
 C442 C 0.29259 1.13589 1.09980
 C443 C 0.28049 1.12485 1.12379
 C444 C 0.29273 1.10149 1.13571
 C445 C 0.35165 1.08849 1.08808
 C446 C 0.37152 1.07803 1.07772
 C447 C 0.39459 1.06554 1.06544
 C448 C 0.41404 1.05455 1.05485
 H449 H 0.32506 1.07170 1.13354
 H450 H 0.32478 1.13282 1.06977
 H451 H 0.28422 1.15373 1.08970
 H452 H 0.28444 1.09211 1.15406
 C453 C 0.31591 0.90917 0.87866
 C454 C 0.32783 0.89691 0.90172
 C455 C 0.31622 0.87321 0.91281
 C456 C 0.29275 0.86181 0.90096
 C457 C 0.28036 0.87396 0.87768
 C458 C 0.29244 0.89787 0.86672
 C459 C 0.35176 0.90887 0.91422
 C460 C 0.37164 0.91910 0.92476
 C461 C 0.39469 0.93142 0.93720
 C462 C 0.41412 0.94228 0.94792
 H463 H 0.32471 0.92758 0.86991
 H464 H 0.32525 0.86356 0.93072
 H465 H 0.28449 0.84352 0.91029
 H466 H 0.28394 0.90811 0.84895
 C467 C 0.68511 0.91147 1.12656
 C468 C 0.67255 0.89966 1.10362
 C469 C 0.68366 0.87598 1.09201
 C470 C 0.70723 0.86414 1.10322
 C471 C 0.72026 0.87581 1.12636
 C472 C 0.70870 0.89972 1.13786
 C473 C 0.64850 0.91200 1.09174
 C474 C 0.62851 0.92236 1.08150
 C475 C 0.60534 0.93454 1.06911
 C476 C 0.58583 0.94504 1.05814
 H477 H 0.67671 0.92987 1.13570
 H478 H 0.67413 0.86667 1.07419
 H479 H 0.71507 0.84587 1.09349
 H480 H 0.71770 0.90961 1.15555
 C481 C 0.68405 1.08629 0.87600
 C482 C 0.67163 1.09793 0.89913
 C483 C 0.68260 1.12171 0.91064
 C484 C 0.70590 1.13382 0.89915
 C485 C 0.71878 1.12233 0.87581
 C486 C 0.70736 1.09832 0.86442
 C487 C 0.64783 1.08532 0.91127
 C488 C 0.62805 1.07475 0.92169
 C489 C 0.60507 1.06235 0.93424
 C490 C 0.58568 1.05170 0.94529
 H491 H 0.67575 1.06783 0.86693
 H492 H 0.67318 1.13088 0.92860
 H493 H 0.71364 1.15216 0.90881
 H494 H 0.71627 1.08856 0.84659
 C495 C 0.12485 0.31637 0.08577
 C496 C 0.10141 0.32815 0.09733
 C497 C 0.08973 0.31658 0.12091
 C498 C 0.10139 0.29332 0.13289
 C499 C 0.12498 0.28121 0.12144
 C500 C 0.13656 0.29310 0.09770
 C501 C 0.08915 0.35191 0.08485
 C502 C 0.07867 0.37169 0.07437
 C503 C 0.06609 0.39465 0.06206
 C504 C 0.05502 0.41405 0.05149
 H505 H 0.13405 0.32513 0.06748
 H506 H 0.07154 0.32551 0.13002
 H507 H 0.09177 0.28493 0.15107
 H508 H 0.15465 0.28453 0.08819
 C509 C -0.12757 0.31610 -0.08801
 C510 C -0.10427 0.32799 -0.09974
 C511 C -0.09256 0.31635 -0.12326
 C512 C -0.10404 0.29289 -0.13498
 C513 C -0.12745 0.28063 -0.12332
 C514 C -0.13910 0.29263 -0.09968
 C515 C -0.09213 0.35191 -0.08750
 C516 C -0.08170 0.37180 -0.07724
 C517 C -0.06913 0.39487 -0.06516
 C518 C -0.05803 0.41431 -0.05474
 H519 H -0.13680 0.32492 -0.06977
 H520 H -0.07449 0.32536 -0.13252
 H521 H -0.09440 0.28446 -0.15312
 H522 H -0.15708 0.28398 -0.09004
 C523 C 0.12231 0.68285 -0.09087
 C524 C 0.09885 0.67170 -0.10297
 C525 C 0.08760 0.68403 -0.12636
 C526 C 0.09970 0.70744 -0.13759
 C527 C 0.12331 0.71892 -0.12557
 C528 C 0.13447 0.70626 -0.10205
 C529 C 0.08614 0.64782 -0.09119
 C530 C 0.07544 0.62797 -0.08109
 C531 C 0.06286 0.60493 -0.06892
 C532 C 0.05207 0.58551 -0.05811
 H533 H 0.13118 0.67349 -0.07272
 H534 H 0.06940 0.67560 -0.13588
 H535 H 0.09041 0.71643 -0.15564
 H536 H 0.15255 0.71432 -0.09213
 C537 C -0.08933 0.68326 0.12409
 C538 C -0.10095 0.67156 0.10058
 C539 C -0.12435 0.68329 0.08888
 C540 C -0.13607 0.70667 0.10059
 C541 C -0.12452 0.71871 0.12423
 C542 C -0.10100 0.70662 0.13584
 C543 C -0.08865 0.64773 0.08829
 C544 C -0.07819 0.62792 0.07788
 C545 C -0.06579 0.60493 0.06546
 C546 C -0.05506 0.58553 0.05455
 H547 H -0.07119 0.67437 0.13331
 H548 H -0.13350 0.67443 0.07065
 H549 H -0.15410 0.71521 0.09097
 H550 H -0.09142 0.71510 0.15398
 C551 C 1.09123 0.12411 0.68414
 C552 C 1.10316 0.10090 0.67235
 C553 C 1.12663 0.08947 0.68415
 C554 C 1.13815 0.10117 0.70769
 C555 C 1.12632 0.12453 0.71983
 C556 C 1.10270 0.13587 0.70769
 C557 C 1.09113 0.08857 0.64836
 C558 C 1.08091 0.07811 0.62841
 C559 C 1.06865 0.06574 0.60528
 C560 C 1.05782 0.05507 0.58578
 H561 H 1.07300 0.13310 0.67518
 H562 H 1.13601 0.07146 0.67521
 H563 H 1.15629 0.09177 0.71625
 H564 H 1.09292 0.15377 0.71629
 C565 C 0.87581 -0.08736 0.68314
 C566 C 0.89985 -0.09818 0.67192
 C567 C 0.91206 -0.12111 0.68401
 C568 C 0.90030 -0.13317 0.70729
 C569 C 0.87611 -0.12243 0.71883
 C570 C 0.86400 -0.09936 0.70639
 C571 C 0.91210 -0.08557 0.64817
 C572 C 0.92243 -0.07486 0.62839
 C573 C 0.93474 -0.06223 0.60541
 C574 C 0.94556 -0.05140 0.58597
 H575 H 0.86620 -0.06959 0.67393
 H576 H 0.93072 -0.12963 0.67549
 H577 H 0.91032 -0.15080 0.71618
 H578 H 0.84538 -0.09048 0.71445
 C579 C 1.12304 -0.09067 0.31622
 C580 C 1.09908 -0.10170 0.32742
 C581 C 1.08699 -0.12460 0.31522
 C582 C 1.09880 -0.13644 0.29187
 C583 C 1.12292 -0.12551 0.28035
 C584 C 1.13490 -0.10245 0.29288
 C585 C 1.08679 -0.08932 0.35127
 C586 C 1.07651 -0.07870 0.37111
 C587 C 1.06445 -0.06595 0.39415
 C588 C 1.05408 -0.05474 0.41361
 H589 H 1.13256 -0.07290 0.32550
 H590 H 1.06839 -0.13327 0.32372
 H591 H 1.08886 -0.15406 0.28291
 H592 H 1.15344 -0.09340 0.28481
 C593 C 0.87823 0.09338 0.31734
 C594 C 0.90264 0.10438 0.32748
 C595 C 0.91477 0.12666 0.31413
 C596 C 0.90255 0.13788 0.29067
 C597 C 0.87798 0.12693 0.28021
 C598 C 0.86596 0.10454 0.29392
 C599 C 0.91538 0.09252 0.35135
 C600 C 0.92594 0.08220 0.37121
 C601 C 0.93825 0.06968 0.39425
 C602 C 0.94876 0.05858 0.41370
 H603 H 0.86869 0.07610 0.32751
 H604 H 0.93372 0.13530 0.32179
 H605 H 0.91253 0.15500 0.28077
 H606 H 0.84707 0.09554 0.28671
 C607 C 0.08920 0.31620 -0.12388
 C608 C 0.10090 0.32829 -0.10061
 C609 C 0.12449 0.31698 -0.08894
 C610 C 0.13636 0.29362 -0.10045
 C611 C 0.12477 0.28118 -0.12385
 C612 C 0.10103 0.29282 -0.13544
 C613 C 0.08852 0.35210 -0.08847
 C614 C 0.07806 0.37190 -0.07811
 C615 C 0.06560 0.39487 -0.06581
 C616 C 0.05466 0.41424 -0.05516
 H617 H 0.07088 0.32478 -0.13304
 H618 H 0.13369 0.32617 -0.07089
 H619 H 0.15458 0.28545 -0.09086
 H620 H 0.09141 0.28396 -0.15337
 C621 C -0.09114 0.31628 0.12016
 C622 C -0.10388 0.32846 0.09748
 C623 C -0.12800 0.31721 0.08690
 C624 C -0.13934 0.29382 0.09892
 C625 C -0.12668 0.28129 0.12174
 C626 C -0.10242 0.29289 0.13222
 C627 C -0.09198 0.35228 0.08486
 C628 C -0.08175 0.37208 0.07425
 C629 C -0.06936 0.39503 0.06182
 C630 C -0.05834 0.41439 0.05119
 H631 H -0.07241 0.32481 0.12848
 H632 H -0.13802 0.32647 0.06931
 H633 H -0.15801 0.28569 0.09023
 H634 H -0.09196 0.28395 0.14965
 C635 C -0.12381 0.68293 -0.09216
 C636 C -0.09997 0.67199 -0.10371
 C637 C -0.08807 0.68457 -0.12664
 C638 C -0.09994 0.70803 -0.13799
 C639 C -0.12393 0.71930 -0.12653
 C640 C -0.13572 0.70639 -0.10345
 C641 C -0.08756 0.64807 -0.09179
 C642 C -0.07715 0.62817 -0.08153
 C643 C -0.06493 0.60510 -0.06915
 C644 C -0.05442 0.58565 -0.05817
 H645 H -0.13317 0.67337 -0.07436
 H646 H -0.06956 0.67628 -0.13572
 H647 H -0.09014 0.71727 -0.15565
 H648 H -0.15416 0.71426 -0.09400
 C649 C 0.08567 0.68334 0.12454
 C650 C 0.09753 0.67080 0.10158
 C651 C 0.12155 0.68154 0.09021
 C652 C 0.13367 0.70476 0.10169
 C653 C 0.12191 0.71765 0.12477
 C654 C 0.09774 0.70658 0.13607
 C655 C 0.08493 0.64713 0.08944
 C656 C 0.07440 0.62744 0.07897
 C657 C 0.06209 0.60460 0.06633
 C658 C 0.05154 0.58530 0.05517
 H659 H 0.06703 0.67520 0.13348
 H660 H 0.13090 0.67198 0.07241
 H661 H 0.15224 0.71247 0.09238
 H662 H 0.08796 0.71582 0.15374
 C663 C 0.31705 1.08959 0.87925
 C664 C 0.32851 1.10123 0.90286
 C665 C 0.31666 1.12459 0.91442
 C666 C 0.29340 1.13627 0.90245
 C667 C 0.28160 1.12472 0.87869
 C668 C 0.29380 1.10121 0.86723
 C669 C 0.35222 1.08899 0.91538
 C670 C 0.37195 1.07849 0.92588
 C671 C 0.39484 1.06588 0.93821
 C672 C 0.41419 1.05477 0.94878
 H673 H 0.32606 1.07146 0.87015
 H674 H 0.32536 1.13374 0.93274
 H675 H 0.28476 1.15430 0.91196
 H676 H 0.28548 1.09164 0.84901
 C677 C 0.31559 0.87250 1.08772
 C678 C 0.32761 0.89567 1.09947
 C679 C 0.31599 0.90745 1.12294
 C680 C 0.29242 0.89615 1.13465
 C681 C 0.28006 0.87283 1.12302
 C682 C 0.29200 0.86115 1.09938
 C683 C 0.35164 0.90760 1.08726
 C684 C 0.37161 0.91788 1.07700
 C685 C 0.39473 0.93032 1.06491
 C686 C 0.41420 0.94136 1.05449
 H687 H 0.32440 0.86326 1.06948
 H688 H 0.32512 0.92544 1.13217
 H689 H 0.28400 0.90582 1.15278
 H690 H 0.28323 0.84327 1.08972
 C691 C 0.68266 1.12159 1.09075
 C692 C 0.67155 1.09813 1.10285
 C693 C 0.68390 1.08682 1.12619
 C694 C 0.70732 1.09889 1.13739
 C695 C 0.71877 1.12250 1.12538
 C696 C 0.70608 1.13372 1.10190
 C697 C 0.64769 1.08549 1.09110
 C698 C 0.62785 1.07484 1.08101
 C699 C 0.60486 1.06232 1.06882
 C700 C 0.58547 1.05155 1.05801
 H701 H 0.67327 1.13049 1.07263
 H702 H 0.67548 1.06860 1.13569
 H703 H 0.71635 1.08956 1.15541
 H704 H 0.71411 1.15181 1.09199
 C705 C 0.68359 0.91124 0.87564
 C706 C 0.67191 0.89974 0.89923
 C707 C 0.68375 0.87654 0.91118
 C708 C 0.70723 0.86488 0.89959
 C709 C 0.71923 0.87628 0.87584
 C710 C 0.70705 0.89963 0.86400
 C711 C 0.64800 0.91197 0.91136
 C712 C 0.62812 0.92238 0.92167
 C713 C 0.60508 0.93471 0.93401
 C714 C 0.58565 0.94534 0.94493
 H715 H 0.67461 0.92924 0.86625
 H716 H 0.67489 0.86751 0.92950
 H717 H 0.71587 0.84700 0.90939
 H718 H 0.71551 0.90909 0.84577
   
