data_POSCAR
  _audit_creation_date              2014-09-24
  _audit_creation_method            'ToBaCCo'
  _symmetry_space_group_name_H-M    'P1'
  _symmetry_Int_Tables_number       1
  _symmetry_cell_setting            triclinic
  loop_
  _symmetry_equiv_pos_as_xyz
 x,y,z
_cell_length_a 28.3176
_cell_length_b 29.3023
_cell_length_c 38.1718
_cell_angle_alpha 90.764200
_cell_angle_beta 89.981200
_cell_angle_gamma 94.469900
loop_
  _atom_site_label
  _atom_site_type_symbol
  _atom_site_fract_x
  _atom_site_fract_y
  _atom_site_fract_z
C1 C -0.01483 0.50213 0.98255
 C2 C -0.01407 0.50337 1.01825
 C3 C -0.01395 0.54720 1.03834
 C4 C -0.01211 0.46090 1.03894
 C5 C -0.01356 0.45869 0.96239
 C6 C -0.01582 0.54411 0.96139
 C7 C 0.02019 0.58337 1.03232
 C8 C 0.01879 0.62491 1.05058
 C9 C -0.01652 0.63161 1.07624
 C10 C -0.04966 0.59368 1.08267
 C11 C -0.04828 0.55247 1.06405
 C12 C 0.02455 0.45768 1.06324
 C13 C 0.02887 0.41712 1.08135
 C14 C -0.00341 0.37880 1.07549
 C15 C -0.04114 0.38267 1.05200
 C16 C -0.04570 0.42347 1.03417
 C17 C -0.05175 0.44424 0.94059
 C18 C -0.05117 0.40370 0.92108
 C19 C -0.01192 0.37715 0.92249
 C20 C 0.02653 0.39197 0.94428
 C21 C 0.02570 0.43241 0.96408
 C22 C -0.05309 0.57283 0.96419
 C23 C -0.05321 0.61204 0.94365
 C24 C -0.01612 0.62301 0.91990
 C25 C 0.02102 0.59398 0.91728
 C26 C 0.02097 0.55483 0.93762
 H27 H 0.04768 0.57975 1.01298
 H28 H 0.04446 0.65192 1.04264
 H29 H -0.07596 0.59413 1.10311
 H30 H -0.07438 0.52451 1.06968
 H31 H 0.05051 0.48633 1.06764
 H32 H 0.05763 0.41575 1.09988
 H33 H -0.07493 0.42556 1.01613
 H34 H -0.08231 0.46419 0.93902
 H35 H -0.08173 0.39295 0.90513
 H36 H 0.05763 0.37279 0.94556
 H37 H 0.05577 0.44349 0.98045
 H38 H -0.08212 0.56470 0.98210
 H39 H -0.08262 0.63337 0.94597
 H40 H 0.05057 0.60183 0.89980
 H41 H 0.05008 0.53310 0.93518
 H42 H -0.06651 0.35384 1.04670
 C43 C 0.50406 -0.00680 0.48051
 C44 C 0.50633 -0.00574 0.51618
 C45 C 0.46229 -0.00873 0.53753
 C46 C 0.55217 -0.00108 0.53548
 C47 C 0.54667 -0.00841 0.45807
 C48 C 0.45817 -0.00603 0.46195
 C49 C 0.45398 0.02616 0.56174
 C50 C 0.41152 0.02479 0.58053
 C51 C 0.37669 -0.01160 0.57547
 C52 C 0.38576 -0.04718 0.55195
 C53 C 0.42831 -0.04593 0.53337
 C54 C 0.58797 0.03279 0.52681
 C55 C 0.63081 0.03662 0.54520
 C56 C 0.63836 0.00746 0.57333
 C57 C 0.60187 -0.02558 0.58252
 C58 C 0.55939 -0.02986 0.56375
 C59 C 0.57742 -0.04344 0.46133
 C60 C 0.61659 -0.04509 0.43911
 C61 C 0.62557 -0.01179 0.41320
 C62 C 0.59468 0.02330 0.41026
 C63 C 0.55550 0.02474 0.43226
 C64 C 0.44151 -0.04358 0.44106
 C65 C 0.39787 -0.04357 0.42404
 C66 C 0.37076 -0.00556 0.42704
 C67 C 0.38795 0.03241 0.44742
 C68 C 0.43125 0.03207 0.46494
 H69 H 0.47989 0.05502 0.56542
 H70 H 0.40538 0.05279 0.59833
 H71 H 0.35995 -0.07606 0.54803
 H72 H 0.43457 -0.07374 0.51542
 H73 H 0.58280 0.05638 0.50582
 H74 H 0.65811 0.06224 0.53716
 H75 H 0.53207 -0.05580 0.57129
 H76 H 0.57073 -0.06975 0.48076
 H77 H 0.63930 -0.07291 0.44176
 H78 H 0.60102 0.05000 0.39111
 H79 H 0.53221 0.05208 0.42939
 H80 H 0.46202 -0.07312 0.43841
 H81 H 0.38549 -0.07301 0.40817
 H82 H 0.36754 0.06202 0.45014
 H83 H 0.44388 0.06145 0.48078
 H84 H 0.60582 -0.04786 0.60454
 C85 C 0.10365 0.02671 0.25329
 H86 H 0.10516 0.03105 0.22520
 C87 C 0.14524 0.03168 0.27304
 H88 H 0.17880 0.03963 0.26002
 C89 C 0.05817 0.01024 0.30436
 H90 H 0.02421 0.00222 0.31657
 C91 C 0.09900 0.01413 0.32502
 H92 H 0.09614 0.00901 0.35301
 N93 N 0.06120 0.01583 0.26907
 C94 C -0.02970 -0.06244 0.19375
 H95 H -0.06208 -0.04542 0.19577
 C96 C -0.02886 -0.10235 0.17336
 H97 H -0.06029 -0.11461 0.15889
 C98 C 0.04979 -0.06822 0.21119
 H99 H 0.08013 -0.05573 0.22655
 C100 C 0.05211 -0.10829 0.19130
 H101 H 0.08431 -0.12591 0.19179
 Zn102 Zn 0.00600 0.00752 0.24053
 N103 N 0.00949 -0.04576 0.21180
 C104 C -0.03269 0.06022 0.18718
 N105 N 0.00083 0.06061 0.21277
 C106 C 0.02879 0.09939 0.22038
 C107 C 0.02401 0.13946 0.20176
 C108 C -0.03895 0.09968 0.16811
 C109 C -0.05591 -0.04044 0.28762
 C110 C -0.09558 -0.04720 0.30929
 C111 C -0.11973 0.02644 0.29175
 C112 C -0.07941 0.03203 0.27079
 N113 N -0.04843 -0.00114 0.26915
 H114 H -0.05535 0.02963 0.18190
 H115 H 0.05402 0.09987 0.24159
 H116 H 0.04608 0.17012 0.20864
 H117 H -0.06583 0.09869 0.14789
 H118 H -0.03081 -0.06636 0.28566
 H119 H -0.10109 -0.07858 0.32391
 H120 H -0.14371 0.05345 0.29308
 H121 H -0.07269 0.06314 0.25613
 C122 C 0.01249 -0.12589 0.17194
 C123 C 0.14319 0.02478 0.30930
 C124 C -0.12810 -0.01349 0.31142
 C125 C -0.01039 0.13999 0.17537
 C126 C 0.01257 0.09372 0.77463
 H127 H 0.01648 0.09542 0.74647
 C128 C 0.01365 0.13400 0.79460
 H129 H 0.01905 0.16651 0.78148
 C130 C 0.00269 0.04899 0.82572
 H131 H -0.00116 0.01581 0.83782
 C132 C 0.00297 0.08846 0.84668
 H133 H -0.00172 0.08499 0.87468
 N134 N 0.00711 0.05225 0.79033
 C135 C 0.07181 -0.03363 0.71169
 H136 H 0.04459 -0.06068 0.70674
 C137 C 0.11474 -0.03405 0.69370
 H138 H 0.11961 -0.06140 0.67500
 C139 C 0.10006 0.03271 0.74359
 H140 H 0.09503 0.05810 0.76369
 C141 C 0.14343 0.03370 0.72612
 H142 H 0.17049 0.06075 0.73234
 Zn143 Zn 0.00664 -0.00124 0.76149
 N144 N 0.06493 -0.00035 0.73597
 C145 C -0.05580 -0.04145 0.70999
 N146 N -0.04659 -0.00368 0.73072
 C147 C -0.07675 0.03030 0.73152
 C148 C -0.11725 0.02748 0.71049
 C149 C -0.09550 -0.04537 0.68815
 C150 C 0.03620 -0.08180 0.79201
 C151 C 0.03083 -0.12146 0.81192
 C152 C -0.04824 -0.10264 0.82721
 C153 C -0.04159 -0.06360 0.80662
 N154 N 0.00015 -0.05394 0.78962
 H155 H -0.03315 -0.06931 0.71101
 H156 H -0.07036 0.05920 0.74913
 H157 H -0.14122 0.05443 0.71240
 H158 H -0.10137 -0.07544 0.67149
 H159 H 0.06921 -0.07333 0.77853
 H160 H 0.05990 -0.14326 0.81365
 H161 H -0.08175 -0.11008 0.84043
 H162 H -0.06974 -0.04093 0.80409
 C163 C 0.15129 -0.00002 0.70078
 C164 C 0.00850 0.13180 0.83117
 C165 C -0.01182 -0.13225 0.82979
 C166 C -0.12712 -0.01071 0.68828
 C167 C -0.06034 -0.31615 0.11180
 C168 C -0.01860 -0.32735 0.09400
 C169 C 0.02073 -0.29407 0.09536
 C170 C 0.01844 -0.25231 0.11355
 C171 C -0.02340 -0.24274 0.13122
 C172 C -0.06250 -0.27481 0.13010
 C173 C -0.02540 -0.20135 0.14994
 C174 C 0.01409 -0.16911 0.15122
 C175 C 0.05552 -0.17886 0.13318
 C176 C 0.05773 -0.22006 0.11464
 H177 H 0.05452 -0.30069 0.08405
 H178 H -0.09520 -0.26773 0.14314
 H179 H -0.05738 -0.19477 0.16412
 H180 H 0.09021 -0.22665 0.10111
 H181 H -0.09290 -0.33785 0.11066
 H182 H 0.08626 -0.15445 0.13320
 C183 C 0.04862 0.32043 0.09858
 C184 C 0.00292 0.33484 0.09335
 C185 C -0.03648 0.30687 0.10505
 C186 C -0.03030 0.26538 0.12181
 C187 C 0.01587 0.25171 0.12729
 C188 C 0.05504 0.27940 0.11548
 C189 C 0.02213 0.21062 0.14454
 C190 C -0.01720 0.18274 0.15626
 C191 C -0.06300 0.19635 0.15029
 C192 C -0.06950 0.23737 0.13332
 H193 H -0.07191 0.31764 0.10159
 H194 H 0.09068 0.26928 0.11922
 H195 H 0.05758 0.20017 0.14866
 H196 H -0.10516 0.24728 0.12935
 H197 H 0.07958 0.34066 0.08922
 H198 H -0.09381 0.17565 0.15939
 C199 C 0.28816 -0.02426 0.57616
 C200 C 0.33070 -0.01207 0.59414
 C201 C 0.32901 0.00005 0.62986
 C202 C 0.28543 -0.00004 0.64740
 C203 C 0.24289 -0.01217 0.62901
 C204 C 0.24465 -0.02422 0.59340
 C205 C 0.19929 -0.01199 0.64649
 C206 C 0.19751 -0.00008 0.68227
 C207 C 0.24015 0.01167 0.70031
 C208 C 0.28366 0.01176 0.68304
 H209 H 0.36163 0.00903 0.64407
 H210 H 0.21240 -0.03352 0.57886
 H211 H 0.16674 -0.02055 0.63210
 H212 H 0.31593 0.02092 0.69761
 H213 H 0.28852 -0.03316 0.54854
 H214 H 0.23995 0.02023 0.72799
 C215 C -0.29205 0.05487 0.59944
 C216 C -0.31621 0.01169 0.59323
 C217 C -0.29695 -0.02744 0.60654
 C218 C -0.25491 -0.02349 0.62616
 C219 C -0.23098 0.02002 0.63208
 C220 C -0.24973 0.05895 0.61845
 C221 C -0.18895 0.02395 0.65177
 C222 C -0.17083 -0.01503 0.66634
 C223 C -0.19528 -0.05813 0.66035
 C224 C -0.23664 -0.06235 0.64026
 H225 H -0.31449 -0.06109 0.60152
 H226 H -0.23201 0.09266 0.62289
 H227 H -0.17033 0.05737 0.65558
 H228 H -0.25471 -0.09597 0.63619
 H229 H -0.30626 0.08573 0.59015
 H230 H -0.18300 -0.08869 0.67174
 C231 C 0.00066 -0.33687 0.86311
 C232 C -0.01567 -0.33548 0.89790
 C233 C -0.03012 -0.29401 0.91169
 C234 C -0.02718 -0.25433 0.89132
 C235 C -0.00945 -0.25604 0.85674
 C236 C 0.00389 -0.29754 0.84278
 C237 C -0.00492 -0.21615 0.83676
 C238 C -0.01820 -0.17446 0.85072
 C239 C -0.03681 -0.17321 0.88482
 C240 C -0.04106 -0.21278 0.90503
 H241 H -0.04242 -0.29228 0.93853
 H242 H 0.01711 -0.29955 0.81620
 H243 H 0.00883 -0.21751 0.81028
 H244 H -0.05484 -0.21080 0.93144
 H245 H 0.01102 -0.36851 0.85153
 H246 H -0.04708 -0.14135 0.89609
 C247 C -0.03079 0.33228 0.86710
 C248 C -0.01113 0.33449 0.90100
 C249 C 0.00888 0.29570 0.91418
 C250 C 0.00906 0.25537 0.89391
 C251 C -0.01143 0.25353 0.86013
 C252 C -0.03118 0.29216 0.84697
 C253 C -0.01184 0.21312 0.84001
 C254 C 0.00865 0.17442 0.85286
 C255 C 0.02929 0.17681 0.88644
 C256 C 0.02929 0.21680 0.90683
 H257 H 0.02367 0.29660 0.94039
 H258 H -0.04671 0.29144 0.82101
 H259 H -0.02868 0.21174 0.81450
 H260 H 0.04539 0.21765 0.93259
 H261 H -0.04556 0.36180 0.85592
 H262 H 0.04606 0.14793 0.89686
 C263 C -0.33752 -0.00123 0.35382
 C264 C -0.33323 -0.01335 0.38916
 C265 C -0.28920 -0.02577 0.40144
 C266 C -0.24982 -0.02489 0.37899
 C267 C -0.25444 -0.01132 0.34384
 C268 C -0.29852 -0.00009 0.33143
 C269 C -0.21477 -0.00858 0.32177
 C270 C -0.17038 -0.01934 0.33427
 C271 C -0.16633 -0.03401 0.36896
 C272 C -0.20569 -0.03661 0.39119
 H273 H -0.28518 -0.03486 0.42864
 H274 H -0.30278 0.00995 0.30446
 H275 H -0.21833 0.00217 0.29489
 H276 H -0.20147 -0.04721 0.41802
 H277 H -0.37119 0.00744 0.34341
 H278 H -0.13238 -0.04223 0.37916
 C279 C 0.29094 -0.04287 0.41178
 C280 C 0.32482 -0.00553 0.40867
 C281 C 0.31512 0.03131 0.38735
 C282 C 0.27234 0.03047 0.36872
 C283 C 0.23834 -0.00720 0.37215
 C284 C 0.24787 -0.04355 0.39390
 C285 C 0.19575 -0.00826 0.35331
 C286 C 0.18713 0.02730 0.33042
 C287 C 0.22118 0.06446 0.32702
 C288 C 0.26329 0.06624 0.34624
 H289 H 0.34141 0.05998 0.38457
 H290 H 0.22226 -0.07272 0.39677
 H291 H 0.16985 -0.03733 0.35566
 H292 H 0.28898 0.09531 0.34323
 H293 H 0.29777 -0.07144 0.42827
 H294 H 0.21502 0.09225 0.30959
   
