data_POSCAR
  _audit_creation_date              2014-09-24
  _audit_creation_method            'ToBaCCo'
  _symmetry_space_group_name_H-M    'P1'
  _symmetry_Int_Tables_number       1
  _symmetry_cell_setting            triclinic
  loop_
  _symmetry_equiv_pos_as_xyz
 x,y,z
_cell_length_a 49.6050
_cell_length_b 49.3276
_cell_length_c 39.6048
_cell_angle_alpha 89.962400
_cell_angle_beta 90.076700
_cell_angle_gamma 92.561600
loop_
  _atom_site_label
  _atom_site_type_symbol
  _atom_site_fract_x
  _atom_site_fract_y
  _atom_site_fract_z
O1 O -0.02405 0.30345 0.02938
 O2 O 0.02720 0.30169 -0.03803
 O3 O -0.02571 0.30254 -0.03592
 O4 O 0.02889 0.30292 0.02735
 O5 O 0.02578 0.25813 0.02901
 O6 O -0.02768 0.25772 -0.03523
 O7 O 0.02453 0.25700 -0.03669
 O8 O -0.02626 0.25864 0.03069
 Cu9 Cu 0.00184 0.30717 -0.00443
 Cu10 Cu -0.00118 0.25340 -0.00298
 C11 C -0.03392 0.28128 0.04143
 C12 C 0.03482 0.27898 -0.04879
 C13 C -0.03600 0.28002 -0.04629
 C14 C 0.03661 0.28053 0.03895
 O15 O 0.47467 0.79963 0.53893
 O16 O 0.53051 0.80079 0.47781
 O17 O 0.47772 0.80223 0.47380
 O18 O 0.52727 0.79710 0.54309
 O19 O 0.52387 0.75247 0.53908
 O20 O 0.47459 0.75751 0.47041
 O21 O 0.52652 0.75614 0.47365
 O22 O 0.47179 0.75486 0.53624
 Cu23 Cu 0.50291 0.80445 0.50875
 Cu24 Cu 0.49882 0.75077 0.50454
 C25 C 0.46374 0.77704 0.54800
 C26 C 0.53801 0.77867 0.46528
 C27 C 0.46769 0.78064 0.46041
 C28 C 0.53415 0.77380 0.55275
 O29 O 1.02521 0.70450 0.04019
 O30 O 0.97149 0.70427 -0.02459
 O31 O 1.02431 0.70244 -0.02528
 O32 O 0.97237 0.70586 0.04102
 O33 O 0.97570 0.75056 0.03865
 O34 O 1.02731 0.74712 -0.02720
 O35 O 0.97550 0.74900 -0.02710
 O36 O 1.02797 0.74918 0.03844
 Cu37 Cu 0.99799 0.69976 0.00806
 Cu38 Cu 1.00194 0.75341 0.00560
 C39 C 1.03592 0.72696 0.05034
 C40 C 0.96449 0.72668 -0.03700
 C41 C 1.03478 0.72428 -0.03759
 C42 C 0.96508 0.72887 0.05102
 O43 O 0.52132 0.19801 0.52921
 O44 O 0.47062 0.20263 0.46133
 O45 O 0.52317 0.20008 0.46355
 O46 O 0.46847 0.20056 0.52679
 O47 O 0.47324 0.24522 0.52962
 O48 O 0.52687 0.24477 0.46570
 O49 O 0.47484 0.24730 0.46391
 O50 O 0.52523 0.24271 0.53117
 Cu51 Cu 0.49549 0.19580 0.49505
 Cu52 Cu 0.50043 0.24945 0.49783
 C53 C 0.53206 0.21967 0.54163
 C54 C 0.46407 0.22586 0.45109
 C55 C 0.53435 0.22242 0.45379
 C56 C 0.46155 0.22305 0.53895
 O57 O 0.68955 0.02159 -0.02775
 O58 O 0.69104 -0.03048 0.03945
 O59 O 0.68983 0.02249 0.03810
 O60 O 0.68917 -0.03147 -0.02630
 O61 O 0.73367 -0.03173 -0.02342
 O62 O 0.73415 0.02735 0.03302
 O63 O 0.73536 -0.02509 0.04118
 O64 O 0.73389 0.02052 -0.03186
 Cu65 Cu 0.68536 -0.00468 0.00600
 Cu66 Cu 0.73874 -0.00195 0.00468
 C67 C 0.71162 0.02949 -0.04168
 C68 C 0.71362 -0.03651 0.05210
 C69 C 0.71211 0.03465 0.04562
 C70 C 0.71134 -0.04134 -0.03490
 O71 O 0.18820 0.47139 0.52436
 O72 O 0.19035 0.52620 0.46086
 O73 O 0.19201 0.47348 0.45921
 O74 O 0.18703 0.52471 0.52656
 O75 O 0.23139 0.52619 0.53213
 O76 O 0.23641 0.47776 0.46221
 O77 O 0.23459 0.53074 0.46733
 O78 O 0.23268 0.47429 0.52777
 Cu79 Cu 0.18490 0.49866 0.49239
 Cu80 Cu 0.23825 0.50249 0.49753
 C81 C 0.21014 0.46335 0.53662
 C82 C 0.21287 0.53814 0.45391
 C83 C 0.21514 0.46688 0.44921
 C84 C 0.20843 0.53401 0.54096
 O85 O 0.30007 1.03250 0.02424
 O86 O 0.29973 0.97746 -0.03937
 O87 O 0.29738 1.03052 -0.04093
 O88 O 0.30314 0.97920 0.02638
 O89 O 0.25873 0.97467 0.02875
 O90 O 0.25309 1.02657 -0.03683
 O91 O 0.25528 0.97431 -0.03657
 O92 O 0.25594 1.02665 0.02904
 Cu93 Cu 0.30458 1.00528 -0.00769
 Cu94 Cu 0.25136 1.00017 -0.00360
 C95 C 0.27794 1.03890 0.03766
 C96 C 0.27725 0.96666 -0.04898
 C97 C 0.27415 1.03752 -0.05023
 C98 C 0.28181 0.96804 0.03888
 O99 O 0.80719 0.47495 0.47182
 O100 O 0.80564 0.52713 0.53834
 O101 O 0.80598 0.47394 0.53743
 O102 O 0.80606 0.52812 0.47280
 O103 O 0.76153 0.52452 0.47119
 O104 O 0.76146 0.47202 0.53680
 O105 O 0.76114 0.52464 0.53696
 O106 O 0.76267 0.47224 0.47132
 Cu107 Cu 0.81072 0.50130 0.50521
 Cu108 Cu 0.75726 0.49813 0.50404
 C109 C 0.78513 0.46456 0.46035
 C110 C 0.78308 0.53495 0.54882
 C111 C 0.78359 0.46369 0.54807
 C112 C 0.78369 0.53540 0.46090
 C113 C 0.29343 0.27668 0.32993
 C114 C 0.27409 0.29565 0.33002
 C115 C 0.26189 0.29448 0.29851
 N116 N 0.27313 0.27539 0.27923
 C117 C 0.29235 0.26441 0.29844
 C118 C 0.24171 0.31185 0.28754
 C119 C 0.22692 0.30770 0.25725
 C120 C 0.21012 0.32634 0.24309
 C121 C 0.19796 0.31396 0.21559
 C122 C 0.20795 0.28820 0.21333
 N123 N 0.22542 0.28450 0.23899
 C124 C 0.19945 0.26833 0.18937
 C125 C 0.21331 0.24440 0.18277
 C126 C 0.20501 0.22482 0.15942
 C127 C 0.22403 0.20557 0.15961
 C128 C 0.24342 0.21382 0.18319
 N129 N 0.23703 0.23785 0.19683
 C130 C 0.26701 0.19962 0.19051
 C131 C 0.28655 0.20831 0.21482
 C132 C 0.31200 0.19801 0.21815
 C133 C 0.32427 0.21105 0.24512
 C134 C 0.30584 0.22859 0.25809
 N135 N 0.28288 0.22667 0.23960
 C136 C 0.31004 0.24452 0.28752
 H137 H 0.30673 0.27236 0.35076
 H138 H 0.26956 0.30878 0.35094
 H139 H 0.26480 0.23509 0.24586
 H140 H 0.20662 0.34664 0.25191
 H141 H 0.18325 0.32297 0.19937
 H142 H 0.18732 0.22457 0.14340
 H143 H 0.22370 0.18778 0.14364
 H144 H 0.34435 0.20758 0.25444
 H145 H 0.23318 0.26616 0.24601
 H146 H 0.32097 0.18256 0.20304
 C147 C 0.78837 0.77289 0.16656
 C148 C 0.76842 0.79123 0.16671
 C149 C 0.75675 0.78990 0.19849
 N150 N 0.76883 0.77128 0.21768
 C151 C 0.78813 0.76082 0.19818
 C152 C 0.73665 0.80708 0.21003
 C153 C 0.72250 0.80270 0.24068
 C154 C 0.70624 0.82133 0.25577
 C155 C 0.69499 0.80889 0.28377
 C156 C 0.70495 0.78306 0.28536
 N157 N 0.72147 0.77938 0.25877
 C158 C 0.69733 0.76318 0.30976
 C159 C 0.71113 0.73901 0.31504
 C160 C 0.70323 0.71880 0.33779
 C161 C 0.72246 0.69976 0.33670
 C162 C 0.74163 0.70889 0.31341
 N163 N 0.73482 0.73307 0.30053
 C164 C 0.76575 0.69571 0.30621
 C165 C 0.78498 0.70529 0.28217
 C166 C 0.81111 0.69659 0.27961
 C167 C 0.82282 0.70996 0.25251
 C168 C 0.80340 0.72610 0.23883
 N169 N 0.78037 0.72301 0.25696
 C170 C 0.80682 0.74190 0.20918
 H171 H 0.80159 0.76894 0.14559
 H172 H 0.76326 0.80421 0.14585
 H173 H 0.76175 0.73018 0.25026
 H174 H 0.70261 0.84173 0.24735
 H175 H 0.68091 0.81791 0.30078
 H176 H 0.68571 0.71799 0.35406
 H177 H 0.72253 0.68157 0.35198
 H178 H 0.84322 0.70769 0.24365
 H179 H 0.72910 0.76108 0.25130
 H180 H 0.82084 0.68208 0.29549
 C181 C 0.78485 0.19601 0.18140
 C182 C 0.80569 0.21519 0.18195
 C183 C 0.79719 0.23653 0.20142
 N184 N 0.77161 0.23120 0.21215
 C185 C 0.76398 0.20646 0.19985
 C186 C 0.81195 0.26142 0.20646
 C187 C 0.80416 0.28119 0.22998
 C188 C 0.81487 0.30763 0.23171
 C189 C 0.80296 0.31966 0.25888
 C190 C 0.78556 0.30016 0.27329
 N191 N 0.78658 0.27674 0.25569
 C192 C 0.77037 0.30386 0.30298
 C193 C 0.74954 0.28539 0.31369
 C194 C 0.73743 0.28564 0.34521
 C195 C 0.71659 0.26644 0.34437
 C196 C 0.71662 0.25516 0.31233
 N197 N 0.73681 0.26673 0.29363
 C198 C 0.69682 0.23629 0.29982
 C199 C 0.69990 0.22230 0.26904
 C200 C 0.67926 0.20841 0.25178
 C201 C 0.69081 0.19663 0.22417
 C202 C 0.71821 0.20360 0.22539
 N203 N 0.72358 0.21920 0.25285
 C204 C 0.73768 0.19426 0.20263
 H205 H 0.78498 0.17676 0.16834
 H206 H 0.82473 0.21353 0.16905
 H207 H 0.74267 0.22487 0.26201
 H208 H 0.82988 0.31731 0.21540
 H209 H 0.80692 0.34033 0.26724
 H210 H 0.74285 0.29855 0.36647
 H211 H 0.70279 0.26160 0.36487
 H212 H 0.68022 0.18427 0.20540
 H213 H 0.77795 0.25804 0.26292
 H214 H 0.65808 0.20688 0.25840
 C215 C 0.24009 0.78908 0.15437
 C216 C 0.21910 0.77006 0.15551
 C217 C 0.21919 0.75897 0.18768
 N218 N 0.23963 0.77041 0.20611
 C219 C 0.25241 0.78884 0.18580
 C220 C 0.19920 0.74050 0.20062
 C221 C 0.20247 0.72660 0.23147
 C222 C 0.18186 0.71319 0.24929
 C223 C 0.19363 0.70121 0.27666
 C224 C 0.22110 0.70761 0.27477
 N225 N 0.22632 0.72307 0.24714
 C226 C 0.24076 0.69790 0.29708
 C227 C 0.26718 0.70986 0.29946
 C228 C 0.28820 0.69919 0.31751
 C229 C 0.30914 0.71826 0.31677
 C230 C 0.30055 0.73975 0.29755
 N231 N 0.27482 0.73462 0.28717
 C232 C 0.31536 0.76460 0.29249
 C233 C 0.30756 0.78441 0.26899
 C234 C 0.31837 0.81081 0.26718
 C235 C 0.30637 0.82290 0.24005
 C236 C 0.28881 0.80347 0.22577
 N237 N 0.28984 0.78003 0.24337
 C238 C 0.27336 0.80726 0.19628
 H239 H 0.24548 0.80188 0.13300
 H240 H 0.20512 0.76526 0.13514
 H241 H 0.28106 0.76138 0.23623
 H242 H 0.16057 0.71210 0.24320
 H243 H 0.18313 0.68909 0.29573
 H244 H 0.28836 0.67988 0.33046
 H245 H 0.32832 0.71644 0.32936
 H246 H 0.31037 0.84356 0.23164
 H247 H 0.24536 0.72833 0.23753
 H248 H 0.33350 0.82041 0.28344
 C249 C 0.77611 0.19288 0.82657
 C250 C 0.79610 0.21293 0.82713
 C251 C 0.78878 0.23252 0.80414
 N252 N 0.76470 0.22521 0.78999
 C253 C 0.75706 0.20080 0.80334
 C254 C 0.80349 0.25738 0.79836
 C255 C 0.79618 0.27684 0.77406
 C256 C 0.80706 0.30322 0.77216
 C257 C 0.79554 0.31513 0.74463
 C258 C 0.77822 0.29564 0.73006
 N259 N 0.77888 0.27231 0.74802
 C260 C 0.76337 0.29941 0.70002
 C261 C 0.74270 0.28096 0.68866
 C262 C 0.73049 0.28192 0.65721
 C263 C 0.71023 0.26211 0.65708
 C264 C 0.71073 0.24964 0.68844
 N265 N 0.73058 0.26121 0.70773
 C266 C 0.69178 0.22929 0.69949
 C267 C 0.69507 0.21379 0.72916
 C268 C 0.67530 0.19648 0.74314
 C269 C 0.68684 0.18409 0.77035
 C270 C 0.71324 0.19447 0.77260
 N271 N 0.71816 0.21229 0.74715
 C272 C 0.73235 0.18628 0.79667
 H273 H 0.77548 0.17484 0.84214
 H274 H 0.81373 0.21317 0.84326
 H275 H 0.73692 0.22062 0.74026
 H276 H 0.82188 0.31300 0.78868
 H277 H 0.79969 0.33576 0.73617
 H278 H 0.73552 0.29560 0.63656
 H279 H 0.69659 0.25751 0.63631
 H280 H 0.67682 0.16911 0.78650
 H281 H 0.77035 0.25362 0.74082
 H282 H 0.65476 0.19287 0.73447
 C283 C 0.27365 0.69512 0.67406
 C284 C 0.29433 0.71444 0.67396
 C285 C 0.28788 0.73385 0.69760
 N286 N 0.26370 0.72708 0.71180
 C287 C 0.25510 0.70321 0.69776
 C288 C 0.30339 0.75820 0.70370
 C289 C 0.29662 0.77780 0.72802
 C290 C 0.30783 0.80407 0.72970
 C291 C 0.29631 0.81635 0.75694
 C292 C 0.27877 0.79713 0.77161
 N293 N 0.27932 0.77363 0.75404
 C294 C 0.26365 0.80134 0.80125
 C295 C 0.24361 0.78259 0.81336
 C296 C 0.23203 0.78362 0.84512
 C297 C 0.21188 0.76371 0.84589
 C298 C 0.21165 0.75134 0.81444
 N299 N 0.23114 0.76286 0.79464
 C300 C 0.19204 0.73157 0.80353
 C301 C 0.19448 0.71648 0.77341
 C302 C 0.17399 0.70024 0.75911
 C303 C 0.18475 0.68814 0.73125
 C304 C 0.21144 0.69763 0.72892
 N305 N 0.21728 0.71460 0.75500
 C306 C 0.22992 0.68946 0.70414
 H307 H 0.27227 0.67749 0.65783
 H308 H 0.31176 0.71441 0.65758
 H309 H 0.23637 0.72215 0.76185
 H310 H 0.32273 0.81360 0.71311
 H311 H 0.30063 0.83701 0.76515
 H312 H 0.23738 0.79747 0.86548
 H313 H 0.19861 0.75919 0.86702
 H314 H 0.17402 0.67395 0.71469
 H315 H 0.27046 0.75507 0.76125
 H316 H 0.15343 0.69722 0.76790
 C317 C 0.29391 0.28003 0.66186
 C318 C 0.27415 0.29854 0.66126
 C319 C 0.25456 0.28955 0.68413
 N320 N 0.26158 0.26588 0.69822
 C321 C 0.28582 0.26019 0.68498
 C322 C 0.22999 0.30237 0.68993
 C323 C 0.21085 0.29371 0.71460
 C324 C 0.18469 0.30244 0.71668
 C325 C 0.17326 0.29064 0.74500
 C326 C 0.19283 0.27531 0.75979
 N327 N 0.21570 0.27739 0.74117
 C328 C 0.18975 0.26115 0.79071
 C329 C 0.20812 0.24194 0.80183
 C330 C 0.20844 0.23072 0.83392
 C331 C 0.22744 0.21140 0.83348
 C332 C 0.23820 0.21154 0.80119
 N333 N 0.22637 0.23021 0.78188
 C334 C 0.25704 0.19309 0.78939
 C335 C 0.27198 0.19711 0.75924
 C336 C 0.28815 0.17811 0.74469
 C337 C 0.30067 0.19052 0.71743
 C338 C 0.29137 0.21659 0.71559
 N339 N 0.27415 0.22051 0.74140
 C340 C 0.29998 0.23646 0.69167
 H341 H 0.31189 0.28086 0.64638
 H342 H 0.27409 0.31631 0.64525
 H343 H 0.26674 0.23898 0.74861
 H344 H 0.17479 0.31609 0.69980
 H345 H 0.15293 0.29334 0.75385
 H346 H 0.19612 0.23575 0.85535
 H347 H 0.23265 0.19860 0.85450
 H348 H 0.31500 0.18127 0.70095
 H349 H 0.23442 0.27068 0.74830
 H350 H 0.29102 0.15756 0.75307
 C351 C 0.78177 0.80236 0.82835
 C352 C 0.80232 0.78473 0.82721
 C353 C 0.79298 0.76259 0.80830
 N354 N 0.76722 0.76594 0.79844
 C355 C 0.76030 0.79024 0.81070
 C356 C 0.80730 0.73884 0.80284
 C357 C 0.79856 0.71825 0.77998
 C358 C 0.80890 0.69261 0.77812
 C359 C 0.79632 0.67955 0.75135
 C360 C 0.77889 0.69766 0.73728
 N361 N 0.78047 0.72121 0.75480
 C362 C 0.76336 0.69281 0.70775
 C363 C 0.74245 0.70956 0.69755
 C364 C 0.72986 0.70842 0.66628
 C365 C 0.70940 0.72618 0.66751
 C366 C 0.71017 0.73757 0.69949
 N367 N 0.73038 0.72739 0.71783
 C368 C 0.69113 0.75539 0.71219
 C369 C 0.69490 0.76963 0.74289
 C370 C 0.67479 0.78231 0.76030
 C371 C 0.68694 0.79493 0.78769
 C372 C 0.71418 0.78974 0.78612
 N373 N 0.71884 0.77430 0.75871
 C374 C 0.73418 0.80057 0.80843
 H375 H 0.78251 0.82175 0.84116
 H376 H 0.82177 0.78785 0.83929
 H377 H 0.73768 0.76984 0.74925
 H378 H 0.82416 0.68420 0.79406
 H379 H 0.79992 0.65916 0.74293
 H380 H 0.73477 0.69594 0.64487
 H381 H 0.69542 0.73008 0.64726
 H382 H 0.67686 0.80674 0.80649
 H383 H 0.77206 0.73926 0.74762
 H384 H 0.65358 0.78251 0.75390
 C385 C 0.27486 0.10301 0.10858
 C386 C 0.29759 0.10102 0.08736
 C387 C 0.29933 0.07878 0.06533
 C388 C 0.27747 0.05977 0.06176
 C389 C 0.25437 0.06279 0.08175
 C390 C 0.25325 0.08376 0.10521
 C391 C 0.27388 0.12666 0.13209
 C392 C 0.25434 0.12826 0.15768
 C393 C 0.25316 0.15151 0.17753
 C394 C 0.27096 0.17390 0.17184
 C395 C 0.29134 0.17203 0.14751
 C396 C 0.29348 0.14818 0.12846
 C397 C 0.31762 0.12201 0.08692
 C398 C 0.31509 0.14553 0.10611
 H399 H 0.33489 0.12078 0.07036
 H400 H 0.33050 0.16171 0.10381
 H401 H 0.31698 0.07733 0.04943
 H402 H 0.23706 0.04870 0.07959
 H403 H 0.23765 0.15246 0.19668
 H404 H 0.30542 0.18916 0.14342
 H405 H 0.23492 0.08513 0.11962
 H406 H 0.23992 0.11174 0.16277
 C407 C 0.77953 0.60006 0.62093
 C408 C 0.75662 0.58258 0.61481
 C409 C 0.75808 0.56120 0.59164
 C410 C 0.78221 0.55656 0.57460
 C411 C 0.80518 0.57322 0.58164
 C412 C 0.80390 0.59473 0.60443
 C413 C 0.77663 0.62361 0.64442
 C414 C 0.79756 0.64335 0.65040
 C415 C 0.79338 0.66555 0.67135
 C416 C 0.76840 0.66844 0.68704
 C417 C 0.74766 0.64865 0.68192
 C418 C 0.75142 0.62658 0.66043
 C419 C 0.73232 0.58660 0.63163
 C420 C 0.72986 0.60797 0.65421
 H421 H 0.71487 0.57306 0.62718
 H422 H 0.71057 0.61029 0.66646
 H423 H 0.74029 0.54820 0.58676
 H424 H 0.82409 0.56999 0.56894
 H425 H 0.80955 0.68078 0.67495
 H426 H 0.72831 0.65093 0.69408
 H427 H 0.82214 0.60699 0.60858
 H428 H 0.81708 0.64236 0.63864
 C429 C 0.71848 0.90050 0.12460
 C430 C 0.74156 0.91702 0.11626
 C431 C 0.73964 0.93814 0.09277
 C432 C 0.71482 0.94365 0.07753
 C433 C 0.69165 0.92817 0.08737
 C434 C 0.69345 0.90682 0.11043
 C435 C 0.72193 0.87684 0.14787
 C436 C 0.70090 0.85755 0.15530
 C437 C 0.70558 0.83516 0.17581
 C438 C 0.73119 0.83163 0.18967
 C439 C 0.75205 0.85099 0.18313
 C440 C 0.74779 0.87316 0.16190
 C441 C 0.76654 0.91230 0.13114
 C442 C 0.76950 0.89107 0.15383
 H443 H 0.78414 0.92518 0.12506
 H444 H 0.78929 0.88821 0.16455
 H445 H 0.75773 0.95013 0.08616
 H446 H 0.67211 0.93199 0.07655
 H447 H 0.68929 0.82028 0.18051
 H448 H 0.77188 0.84824 0.19383
 H449 H 0.67505 0.89544 0.11662
 H450 H 0.68091 0.85903 0.14491
 C451 C 0.21207 0.39554 0.60453
 C452 C 0.23041 0.41814 0.60852
 C453 C 0.22945 0.44029 0.58641
 C454 C 0.20976 0.44082 0.56105
 C455 C 0.19048 0.41929 0.55847
 C456 C 0.19169 0.39677 0.57979
 C457 C 0.21528 0.37134 0.62685
 C458 C 0.20062 0.34648 0.62200
 C459 C 0.20524 0.32416 0.64263
 C460 C 0.22409 0.32632 0.66893
 C461 C 0.23858 0.35096 0.67425
 C462 C 0.23486 0.37318 0.65292
 C463 C 0.24956 0.41854 0.63454
 C464 C 0.25134 0.39677 0.65673
 H465 H 0.26333 0.43602 0.63790
 H466 H 0.26643 0.39810 0.67654
 H467 H 0.24402 0.45723 0.58897
 H468 H 0.17497 0.41948 0.53920
 H469 H 0.19422 0.30507 0.63797
 H470 H 0.25352 0.35238 0.69427
 H471 H 0.17656 0.38059 0.57649
 H472 H 0.18609 0.34364 0.60189
 C473 C 0.90240 0.27966 0.11500
 C474 C 0.92344 0.26129 0.11742
 C475 C 0.94426 0.26203 0.09339
 C476 C 0.94512 0.28165 0.06775
 C477 C 0.92532 0.30101 0.06674
 C478 C 0.90406 0.29996 0.08989
 C479 C 0.87927 0.27658 0.13926
 C480 C 0.85549 0.29095 0.13582
 C481 C 0.83390 0.28624 0.15797
 C482 C 0.83574 0.26764 0.18452
 C483 C 0.85948 0.25364 0.18866
 C484 C 0.88084 0.25730 0.16563
 C485 C 0.92362 0.24240 0.14383
 C486 C 0.90311 0.24090 0.16790
 H487 H 0.93997 0.22864 0.14604
 H488 H 0.90423 0.22600 0.18791
 H489 H 0.95993 0.24742 0.09473
 H490 H 0.92582 0.31648 0.04729
 H491 H 0.81550 0.29689 0.15417
 H492 H 0.86068 0.23890 0.20889
 H493 H 0.88918 0.31516 0.08775
 H494 H 0.85282 0.30521 0.11555
 C495 C 0.39645 0.77433 0.61621
 C496 C 0.41656 0.75493 0.61874
 C497 C 0.43837 0.75578 0.59617
 C498 C 0.44118 0.77654 0.57210
 C499 C 0.42218 0.79668 0.57094
 C500 C 0.39993 0.79553 0.59252
 C501 C 0.37248 0.77152 0.63910
 C502 C 0.34957 0.78718 0.63532
 C503 C 0.32729 0.78304 0.65651
 C504 C 0.32764 0.76376 0.68243
 C505 C 0.35035 0.74821 0.68663
 C506 C 0.37237 0.75136 0.66457
 C507 C 0.41495 0.73505 0.64401
 C508 C 0.39365 0.73373 0.66697
 H509 H 0.43055 0.72046 0.64631
 H510 H 0.39344 0.71813 0.68626
 H511 H 0.45344 0.74055 0.59766
 H512 H 0.42421 0.81302 0.55270
 H513 H 0.30959 0.79475 0.65254
 H514 H 0.35027 0.73282 0.70621
 H515 H 0.38581 0.81146 0.59043
 H516 H 0.34813 0.80209 0.61554
 C517 C 0.10149 0.72858 0.11953
 C518 C 0.08951 0.75289 0.10978
 C519 C 0.06768 0.75215 0.08717
 C520 C 0.05692 0.72736 0.07431
 C521 C 0.06805 0.70317 0.08539
 C522 C 0.09007 0.70374 0.10751
 C523 C 0.12594 0.73052 0.14197
 C524 C 0.14091 0.70787 0.15075
 C525 C 0.16435 0.71105 0.17028
 C526 C 0.17326 0.73676 0.18182
 C527 C 0.15809 0.75927 0.17412
 C528 C 0.13496 0.75646 0.15380
 C529 C 0.09942 0.77788 0.12250
 C530 C 0.12142 0.77959 0.14438
 H531 H 0.09005 0.79648 0.11534
 H532 H 0.12837 0.79944 0.15340
 H533 H 0.05916 0.77108 0.07954
 H534 H 0.06016 0.68365 0.07639
 H535 H 0.17589 0.69346 0.17588
 H536 H 0.16493 0.77918 0.18310
 H537 H 0.09789 0.68454 0.11479
 H538 H 0.13526 0.68768 0.14210
 C539 C 0.59647 0.21786 0.61451
 C540 C 0.58155 0.24144 0.61030
 C541 C 0.56019 0.24155 0.58711
 C542 C 0.55310 0.21839 0.56799
 C543 C 0.56706 0.19465 0.57322
 C544 C 0.58852 0.19434 0.59613
 C545 C 0.62038 0.21930 0.63784
 C546 C 0.63781 0.19770 0.64208
 C547 C 0.66068 0.20071 0.66266
 C548 C 0.66651 0.22516 0.67962
 C549 C 0.64896 0.24646 0.67641
 C550 C 0.62625 0.24388 0.65539
 C551 C 0.58823 0.26495 0.62883
 C552 C 0.60996 0.26607 0.65110
 H553 H 0.57661 0.28289 0.62583
 H554 H 0.61447 0.28484 0.66460
 H555 H 0.54925 0.25990 0.58365
 H556 H 0.56187 0.17646 0.55889
 H557 H 0.67416 0.18411 0.66487
 H558 H 0.65356 0.26539 0.68957
 H559 H 0.59877 0.17564 0.59877
 H560 H 0.63451 0.17859 0.62920
 C561 C 0.71638 0.09141 0.88196
 C562 C 0.69722 0.09267 0.90834
 C563 C 0.69456 0.07150 0.93207
 C564 C 0.71181 0.04976 0.93097
 C565 C 0.73094 0.04869 0.90510
 C566 C 0.73306 0.06904 0.88066
 C567 C 0.71919 0.11475 0.85776
 C568 C 0.73646 0.11470 0.82951
 C569 C 0.73983 0.13766 0.80911
 C570 C 0.72620 0.16118 0.81643
 C571 C 0.70808 0.16117 0.84355
 C572 C 0.70417 0.13799 0.86392
 C573 C 0.68179 0.11561 0.91182
 C574 C 0.68556 0.13799 0.89049
 H575 H 0.66720 0.11667 0.93208
 H576 H 0.67375 0.15560 0.89492
 H577 H 0.68015 0.07269 0.95252
 H578 H 0.74454 0.03212 0.90398
 H579 H 0.75369 0.13739 0.78802
 H580 H 0.69737 0.17935 0.84897
 H581 H 0.74846 0.06729 0.86170
 H582 H 0.74766 0.09725 0.82284
 C583 C 0.21820 0.60564 0.38564
 C584 C 0.22753 0.60841 0.41932
 C585 C 0.22595 0.58608 0.44125
 C586 C 0.21391 0.56132 0.43069
 C587 C 0.20306 0.55897 0.39816
 C588 C 0.20540 0.58080 0.37565
 C589 C 0.22233 0.62937 0.36226
 C590 C 0.21756 0.62760 0.32721
 C591 C 0.22319 0.64993 0.30624
 C592 C 0.23313 0.67467 0.31975
 C593 C 0.23709 0.67687 0.35473
 C594 C 0.23276 0.65425 0.37580
 C595 C 0.23809 0.63347 0.43101
 C596 C 0.24000 0.65609 0.40993
 H597 H 0.24478 0.63570 0.45697
 H598 H 0.24818 0.67509 0.42022
 H599 H 0.23369 0.58801 0.46682
 H600 H 0.19336 0.54000 0.38991
 H601 H 0.22022 0.64778 0.27926
 H602 H 0.24477 0.69598 0.36529
 H603 H 0.19696 0.57792 0.35072
 H604 H 0.21039 0.60894 0.31540
 C605 C 0.27192 0.90052 0.88000
 C606 C 0.29632 0.90639 0.89767
 C607 C 0.29846 0.92870 0.91985
 C608 C 0.27623 0.94476 0.92550
 C609 C 0.25219 0.93891 0.90781
 C610 C 0.25004 0.91727 0.88525
 C611 C 0.27005 0.87606 0.85752
 C612 C 0.24679 0.86890 0.83847
 C613 C 0.24532 0.84505 0.81963
 C614 C 0.26692 0.82775 0.81916
 C615 C 0.29064 0.83509 0.83683
 C616 C 0.29238 0.85917 0.85593
 C617 C 0.31808 0.88947 0.89393
 C618 C 0.31607 0.86624 0.87377
 H619 H 0.33678 0.89391 0.90742
 H620 H 0.33327 0.85351 0.87234
 H621 H 0.31705 0.93290 0.93368
 H622 H 0.23477 0.95105 0.91160
 H623 H 0.22699 0.83974 0.80578
 H624 H 0.30742 0.82175 0.83626
 H625 H 0.23087 0.91373 0.87284
 H626 H 0.22939 0.88121 0.83795
 C627 C 0.78434 0.39925 0.38815
 C628 C 0.76114 0.41446 0.39318
 C629 C 0.76179 0.43600 0.41627
 C630 C 0.78536 0.44302 0.43443
 C631 C 0.80867 0.42869 0.42847
 C632 C 0.80821 0.40703 0.40569
 C633 C 0.78220 0.37528 0.36482
 C634 C 0.80344 0.35759 0.35978
 C635 C 0.79983 0.33472 0.33916
 C636 C 0.77512 0.32913 0.32292
 C637 C 0.75416 0.34694 0.32694
 C638 C 0.75734 0.36964 0.34804
 C639 C 0.73729 0.40795 0.37546
 C640 C 0.73551 0.38616 0.35315
 H641 H 0.71963 0.41978 0.37908
 H642 H 0.71652 0.38182 0.34026
 H643 H 0.74375 0.44721 0.42031
 H644 H 0.82717 0.43381 0.44205
 H645 H 0.81616 0.32104 0.33634
 H646 H 0.73504 0.34255 0.31432
 H647 H 0.82665 0.39656 0.40242
 H648 H 0.82273 0.36070 0.37207
 C649 C 0.09775 0.27561 0.87891
 C650 C 0.08301 0.25172 0.88886
 C651 C 0.06213 0.25303 0.91260
 C652 C 0.05497 0.27803 0.92630
 C653 C 0.06881 0.30185 0.91505
 C654 C 0.08997 0.30069 0.89186
 C655 C 0.12103 0.27302 0.85509
 C656 C 0.13865 0.29509 0.84607
 C657 C 0.16070 0.29131 0.82488
 C658 C 0.16552 0.26557 0.81187
 C659 C 0.14782 0.24361 0.82011
 C660 C 0.12608 0.24700 0.84207
 C661 C 0.08915 0.22659 0.87511
 C662 C 0.10995 0.22434 0.85184
 H663 H 0.07766 0.20832 0.88243
 H664 H 0.11389 0.20442 0.84196
 H665 H 0.05144 0.23440 0.92034
 H666 H 0.06373 0.32153 0.92470
 H667 H 0.17430 0.30845 0.81897
 H668 H 0.15156 0.22366 0.81011
 H669 H 0.09996 0.31963 0.88445
 H670 H 0.13613 0.31527 0.85569
 C671 C 0.60539 0.77757 0.39733
 C672 C 0.58331 0.75860 0.39362
 C673 C 0.56138 0.75910 0.41590
 C674 C 0.56055 0.77898 0.44110
 C675 C 0.58164 0.79874 0.44351
 C676 C 0.60392 0.79799 0.42206
 C677 C 0.62928 0.77509 0.37460
 C678 C 0.65364 0.79055 0.37907
 C679 C 0.67564 0.78678 0.35789
 C680 C 0.67364 0.76801 0.33142
 C681 C 0.64953 0.75265 0.32657
 C682 C 0.62764 0.75553 0.34844
 C683 C 0.58316 0.73940 0.36759
 C684 C 0.60460 0.73829 0.34502
 H685 H 0.56608 0.72513 0.36445
 H686 H 0.60345 0.72318 0.32516
 H687 H 0.54479 0.74415 0.41345
 H688 H 0.58123 0.81440 0.46264
 H689 H 0.69435 0.79844 0.36221
 H690 H 0.64828 0.73775 0.30643
 H691 H 0.61968 0.81357 0.42518
 H692 H 0.65634 0.80508 0.39926
 C693 C 0.90124 0.72999 0.88889
 C694 C 0.89974 0.71023 0.91486
 C695 C 0.92106 0.70840 0.93808
 C696 C 0.94323 0.72703 0.93697
 C697 C 0.94435 0.74702 0.91180
 C698 C 0.92381 0.74836 0.88782
 C699 C 0.87804 0.73139 0.86473
 C700 C 0.87854 0.74867 0.83632
 C701 C 0.85584 0.75031 0.81565
 C702 C 0.83211 0.73505 0.82302
 C703 C 0.83168 0.71699 0.85037
 C704 C 0.85461 0.71467 0.87083
 C705 C 0.87655 0.69319 0.91834
 C706 C 0.85424 0.69578 0.89727
 H707 H 0.87528 0.67819 0.93834
 H708 H 0.83646 0.68268 0.90165
 H709 H 0.91983 0.69330 0.95800
 H710 H 0.96124 0.76169 0.91066
 H711 H 0.85652 0.76405 0.79430
 H712 H 0.81339 0.70490 0.85574
 H713 H 0.92565 0.76436 0.86928
 H714 H 0.89620 0.76105 0.82965
 C715 C 0.40264 0.23416 0.37532
 C716 C 0.40494 0.20922 0.39260
 C717 C 0.42556 0.20629 0.41652
 C718 C 0.44353 0.22819 0.42430
 C719 C 0.44116 0.25285 0.40718
 C720 C 0.42113 0.25581 0.38292
 C721 C 0.37997 0.23674 0.35064
 C722 C 0.37643 0.26045 0.33155
 C723 C 0.35412 0.26247 0.31042
 C724 C 0.33485 0.24098 0.30776
 C725 C 0.33861 0.21687 0.32553
 C726 C 0.36109 0.21454 0.34680
 C727 C 0.38619 0.18766 0.38663
 C728 C 0.36458 0.19036 0.36450
 H729 H 0.38791 0.16857 0.39986
 H730 H 0.35029 0.17328 0.36132
 H731 H 0.42706 0.18723 0.42989
 H732 H 0.45481 0.27005 0.41266
 H733 H 0.35155 0.28111 0.29653
 H734 H 0.32371 0.20019 0.32327
 H735 H 0.42023 0.27538 0.37096
 H736 H 0.39045 0.27775 0.33271
 C737 C 0.71430 0.89139 0.89706
 C738 C 0.72340 0.88906 0.93081
 C739 C 0.72246 0.91129 0.95276
 C740 C 0.71134 0.93541 0.94211
 C741 C 0.70070 0.93724 0.90952
 C742 C 0.70235 0.91555 0.88702
 C743 C 0.71780 0.86795 0.87364
 C744 C 0.71322 0.86955 0.83857
 C745 C 0.71821 0.84759 0.81758
 C746 C 0.72732 0.82336 0.83109
 C747 C 0.73117 0.82131 0.86606
 C748 C 0.72744 0.84363 0.88717
 C749 C 0.73315 0.86457 0.94250
 C750 C 0.73448 0.84211 0.92135
 H751 H 0.73967 0.86265 0.96849
 H752 H 0.74206 0.82355 0.93163
 H753 H 0.73011 0.90978 0.97835
 H754 H 0.69174 0.95574 0.90120
 H755 H 0.71539 0.84964 0.79058
 H756 H 0.73826 0.80261 0.87659
 H757 H 0.69411 0.91802 0.86204
 H758 H 0.70666 0.88784 0.82676
 C759 C 0.22213 0.40307 0.37577
 C760 C 0.24465 0.42061 0.38358
 C761 C 0.24214 0.44164 0.40712
 C762 C 0.21732 0.44582 0.42283
 C763 C 0.19479 0.42910 0.41404
 C764 C 0.19711 0.40798 0.39090
 C765 C 0.22607 0.37989 0.35200
 C766 C 0.20553 0.36006 0.34456
 C767 C 0.21058 0.33827 0.32333
 C768 C 0.23605 0.33583 0.30875
 C769 C 0.25648 0.35567 0.31541
 C770 C 0.25184 0.37735 0.33727
 C771 C 0.26957 0.41700 0.36804
 C772 C 0.27301 0.39601 0.34512
 H773 H 0.28675 0.43058 0.37377
 H774 H 0.29274 0.39404 0.33388
 H775 H 0.25962 0.45466 0.41338
 H776 H 0.17536 0.43195 0.42563
 H777 H 0.19464 0.32300 0.31858
 H778 H 0.27624 0.35373 0.30419
 H779 H 0.17912 0.39570 0.38539
 H780 H 0.18563 0.36068 0.35537
 C781 C 0.26565 0.09932 0.87648
 C782 C 0.29146 0.09380 0.88932
 C783 C 0.29434 0.07264 0.91269
 C784 C 0.27160 0.05761 0.92493
 C785 C 0.24598 0.06367 0.91253
 C786 C 0.24304 0.08401 0.88855
 C787 C 0.26335 0.12211 0.85179
 C788 C 0.23891 0.12782 0.83569
 C789 C 0.23735 0.15030 0.81459
 C790 C 0.26000 0.16772 0.80912
 C791 C 0.28479 0.16155 0.82365
 C792 C 0.28668 0.13867 0.84455
 C793 C 0.31407 0.11004 0.87970
 C794 C 0.31165 0.13232 0.85833
 H795 H 0.33385 0.10595 0.88964
 H796 H 0.32961 0.14472 0.85245
 H797 H 0.31427 0.06863 0.92224
 H798 H 0.22795 0.05266 0.92134
 H799 H 0.21818 0.15454 0.80303
 H800 H 0.30241 0.17485 0.81909
 H801 H 0.22280 0.08782 0.88044
 H802 H 0.22075 0.11528 0.83909
 C803 C 0.77886 0.59981 0.38826
 C804 C 0.79891 0.60118 0.41378
 C805 C 0.80136 0.57942 0.43639
 C806 C 0.78309 0.55692 0.43510
 C807 C 0.76294 0.55584 0.41027
 C808 C 0.76098 0.57682 0.38690
 C809 C 0.77659 0.62357 0.36498
 C810 C 0.75872 0.62335 0.33726
 C811 C 0.75609 0.64657 0.31762
 C812 C 0.77103 0.67053 0.32522
 C813 C 0.78968 0.67075 0.35184
 C814 C 0.79291 0.64730 0.37136
 C815 C 0.81554 0.62471 0.41750
 C816 C 0.81223 0.64747 0.39721
 H817 H 0.83079 0.62587 0.43713
 H818 H 0.82503 0.66548 0.40180
 H819 H 0.81659 0.58059 0.45607
 H820 H 0.74855 0.53869 0.40902
 H821 H 0.74179 0.64610 0.29690
 H822 H 0.80142 0.68927 0.35747
 H823 H 0.74483 0.57499 0.36867
 H824 H 0.74655 0.60554 0.33039
 C825 C 0.09763 0.72245 0.89004
 C826 C 0.08529 0.74702 0.89767
 C827 C 0.06449 0.74738 0.92153
 C828 C 0.05490 0.72338 0.93753
 C829 C 0.06617 0.69877 0.92845
 C830 C 0.08735 0.69830 0.90523
 C831 C 0.12118 0.72340 0.86627
 C832 C 0.13687 0.70080 0.85984
 C833 C 0.15956 0.70325 0.83895
 C834 C 0.16683 0.72812 0.82367
 C835 C 0.15091 0.75045 0.82904
 C836 C 0.12868 0.74850 0.85079
 C837 C 0.09375 0.77115 0.88148
 C838 C 0.11467 0.77178 0.85810
 H839 H 0.08403 0.78990 0.88698
 H840 H 0.12051 0.79099 0.84631
 H841 H 0.05570 0.76655 0.92749
 H842 H 0.05909 0.67981 0.93990
 H843 H 0.17180 0.68586 0.83519
 H844 H 0.15661 0.76972 0.81726
 H845 H 0.09539 0.67886 0.89955
 H846 H 0.13245 0.68132 0.87144
 C847 C 0.60062 0.22369 0.38317
 C848 C 0.58721 0.24771 0.39066
 C849 C 0.56546 0.24699 0.41331
 C850 C 0.55648 0.22259 0.42867
 C851 C 0.56922 0.19864 0.42044
 C852 C 0.59103 0.19914 0.39806
 C853 C 0.62468 0.22569 0.36013
 C854 C 0.64044 0.20337 0.35245
 C855 C 0.66347 0.20669 0.33225
 C856 C 0.67120 0.23222 0.31907
 C857 C 0.65522 0.25433 0.32559
 C858 C 0.63235 0.25138 0.34630
 C859 C 0.59568 0.27239 0.37577
 C860 C 0.61764 0.27414 0.35390
 H861 H 0.58526 0.29072 0.38130
 H862 H 0.62352 0.29378 0.34328
 H863 H 0.55558 0.26560 0.41913
 H864 H 0.56263 0.17951 0.43182
 H865 H 0.67564 0.18942 0.32746
 H866 H 0.66116 0.27408 0.31527
 H867 H 0.60016 0.18014 0.39297
 H868 H 0.63569 0.18336 0.36233
 C869 C 0.89691 0.27640 0.88497
 C870 C 0.91769 0.25778 0.88204
 C871 C 0.93959 0.25914 0.90454
 C872 C 0.94176 0.27960 0.92904
 C873 C 0.92214 0.29912 0.93049
 C874 C 0.89983 0.29747 0.90891
 C875 C 0.87279 0.27284 0.86233
 C876 C 0.84931 0.28759 0.86651
 C877 C 0.82693 0.28269 0.84560
 C878 C 0.82770 0.26354 0.81959
 C879 C 0.85097 0.24891 0.81498
 C880 C 0.87314 0.25283 0.83673
 C881 C 0.91659 0.23807 0.85659
 C882 C 0.89510 0.23609 0.83389
 H883 H 0.93271 0.22410 0.85399
 H884 H 0.89526 0.22062 0.81448
 H885 H 0.95510 0.24439 0.90285
 H886 H 0.92364 0.31522 0.94909
 H887 H 0.80885 0.29375 0.84981
 H888 H 0.85127 0.23367 0.79527
 H889 H 0.88516 0.31285 0.91130
 H890 H 0.84755 0.30236 0.88636
 C891 C 0.40544 0.78163 0.38495
 C892 C 0.42637 0.76316 0.38244
 C893 C 0.44681 0.76319 0.40698
 C894 C 0.44741 0.78216 0.43333
 C895 C 0.42781 0.80172 0.43444
 C896 C 0.40692 0.80140 0.41069
 C897 C 0.38253 0.77909 0.36023
 C898 C 0.35880 0.79354 0.36363
 C899 C 0.33729 0.78912 0.34122
 C900 C 0.33917 0.77076 0.31446
 C901 C 0.36291 0.75681 0.31024
 C902 C 0.38419 0.76016 0.33350
 C903 C 0.42673 0.74475 0.35555
 C904 C 0.40642 0.74374 0.33115
 H905 H 0.44301 0.73093 0.35328
 H906 H 0.40763 0.72913 0.31083
 H907 H 0.46234 0.74842 0.40560
 H908 H 0.42811 0.81670 0.45445
 H909 H 0.31889 0.79976 0.34503
 H910 H 0.36415 0.74228 0.28982
 H911 H 0.39212 0.81666 0.41297
 H912 H 0.35607 0.80757 0.38409
 C913 C 0.28446 0.90320 0.11155
 C914 C 0.26103 0.91832 0.10784
 C915 C 0.26070 0.93980 0.08471
 C916 C 0.28345 0.94682 0.06508
 C917 C 0.30707 0.93266 0.06975
 C918 C 0.30760 0.91106 0.09263
 C919 C 0.28323 0.87918 0.13489
 C920 C 0.30469 0.86157 0.13883
 C921 C 0.30180 0.83855 0.15939
 C922 C 0.27760 0.83274 0.17661
 C923 C 0.25650 0.85052 0.17378
 C924 C 0.25896 0.87337 0.15283
 C925 C 0.23787 0.91173 0.12681
 C926 C 0.23693 0.88985 0.14901
 H927 H 0.22006 0.92351 0.12418
 H928 H 0.21840 0.88539 0.16282
 H929 H 0.24246 0.95090 0.08169
 H930 H 0.32495 0.93781 0.05500
 H931 H 0.31825 0.82491 0.16133
 H932 H 0.23778 0.84597 0.18718
 H933 H 0.32617 0.90063 0.09483
 H934 H 0.32358 0.86485 0.12569
 C935 C 0.78020 0.39625 0.61751
 C936 C 0.75745 0.41213 0.61249
 C937 C 0.75897 0.43437 0.59039
 C938 C 0.78298 0.44146 0.57322
 C939 C 0.80585 0.42643 0.57923
 C940 C 0.80452 0.40408 0.60102
 C941 C 0.77715 0.37165 0.63978
 C942 C 0.79790 0.35337 0.64469
 C943 C 0.79356 0.33014 0.66458
 C944 C 0.76859 0.32474 0.68021
 C945 C 0.74803 0.34302 0.67611
 C946 C 0.75196 0.36612 0.65575
 C947 C 0.73319 0.40561 0.62926
 C948 C 0.73058 0.38325 0.65065
 H949 H 0.71585 0.41792 0.62564
 H950 H 0.71131 0.37899 0.66288
 H951 H 0.74125 0.44607 0.58632
 H952 H 0.82467 0.43155 0.56641
 H953 H 0.80961 0.31612 0.66745
 H954 H 0.72869 0.33880 0.68822
 H955 H 0.82266 0.39310 0.60436
 H956 H 0.81740 0.35634 0.63294
 C957 C 0.71590 0.10211 0.11383
 C958 C 0.72468 0.10528 0.07999
 C959 C 0.72355 0.08300 0.05799
 C960 C 0.71251 0.05786 0.06871
 C961 C 0.70216 0.05506 0.10142
 C962 C 0.70404 0.07687 0.12395
 C963 C 0.71967 0.12581 0.13728
 C964 C 0.71546 0.12375 0.17241
 C965 C 0.72087 0.14607 0.19345
 C966 C 0.73003 0.17108 0.17993
 C967 C 0.73335 0.17358 0.14489
 C968 C 0.72924 0.15100 0.12372
 C969 C 0.73432 0.13067 0.06825
 C970 C 0.73590 0.15321 0.08945
 H971 H 0.74057 0.13321 0.04218
 H972 H 0.74341 0.17245 0.07914
 H973 H 0.73092 0.08523 0.03231
 H974 H 0.69324 0.03577 0.10978
 H975 H 0.71841 0.14370 0.22047
 H976 H 0.74045 0.19291 0.13435
 H977 H 0.69603 0.07364 0.14902
 H978 H 0.70895 0.10487 0.18423
 C979 C 0.20884 0.59763 0.61494
 C980 C 0.22650 0.57601 0.61814
 C981 C 0.22576 0.55499 0.59429
 C982 C 0.20702 0.55460 0.56777
 C983 C 0.18823 0.57492 0.56595
 C984 C 0.18919 0.59633 0.58914
 C985 C 0.21225 0.62111 0.63887
 C986 C 0.19850 0.64534 0.63497
 C987 C 0.20380 0.66732 0.65660
 C988 C 0.22241 0.66541 0.68301
 C989 C 0.23570 0.64124 0.68769
 C990 C 0.23134 0.61943 0.66536
 C991 C 0.24495 0.57559 0.64490
 C992 C 0.24692 0.59658 0.66841
 H993 H 0.25814 0.55880 0.64766
 H994 H 0.26159 0.59535 0.68860
 H995 H 0.23996 0.53895 0.59617
 H996 H 0.17348 0.57483 0.54576
 H997 H 0.19372 0.68606 0.65242
 H998 H 0.25047 0.64004 0.70779
 H999 H 0.17457 0.61172 0.58628
 H1000 H 0.18431 0.64804 0.61471
 C1001 C 0.90135 0.73537 0.12395
 C1002 C 0.90532 0.71034 0.10760
 C1003 C 0.92666 0.70806 0.08461
 C1004 C 0.94379 0.73064 0.07691
 C1005 C 0.93980 0.75537 0.09317
 C1006 C 0.91900 0.75773 0.11646
 C1007 C 0.87797 0.73718 0.14765
 C1008 C 0.87268 0.76100 0.16566
 C1009 C 0.84992 0.76211 0.18612
 C1010 C 0.83190 0.73960 0.18916
 C1011 C 0.83731 0.71548 0.17230
 C1012 C 0.86025 0.71407 0.15171
 C1013 C 0.88757 0.68796 0.11361
 C1014 C 0.86540 0.68986 0.13496
 H1015 H 0.89058 0.66880 0.10110
 H1016 H 0.85198 0.67210 0.13827
 H1017 H 0.92941 0.68891 0.07194
 H1018 H 0.95275 0.77309 0.08775
 H1019 H 0.84608 0.78079 0.19930
 H1020 H 0.82338 0.69802 0.17485
 H1021 H 0.91687 0.77737 0.12780
 H1022 H 0.88568 0.77905 0.16420
 C1023 C 0.39604 0.22713 0.60971
 C1024 C 0.39549 0.20688 0.58436
 C1025 C 0.41749 0.20486 0.56226
 C1026 C 0.43950 0.22369 0.56390
 C1027 C 0.43971 0.24412 0.58847
 C1028 C 0.41844 0.24571 0.61131
 C1029 C 0.37216 0.22871 0.63270
 C1030 C 0.37165 0.24665 0.66036
 C1031 C 0.34844 0.24833 0.67997
 C1032 C 0.32517 0.23238 0.67241
 C1033 C 0.32565 0.21378 0.64569
 C1034 C 0.34913 0.21147 0.62623
 C1035 C 0.37259 0.18948 0.58041
 C1036 C 0.34971 0.19210 0.60042
 H1037 H 0.37205 0.17408 0.56087
 H1038 H 0.33224 0.17863 0.59573
 H1039 H 0.41695 0.18938 0.54281
 H1040 H 0.45644 0.25895 0.59002
 H1041 H 0.34837 0.26263 0.70073
 H1042 H 0.30768 0.20129 0.64002
 H1043 H 0.41962 0.26204 0.62941
 H1044 H 0.38890 0.25955 0.66726
 C1045 C 0.10249 0.27734 0.10913
 C1046 C 0.10267 0.29752 0.08369
 C1047 C 0.08046 0.29932 0.06187
 C1048 C 0.05866 0.28029 0.06384
 C1049 C 0.05879 0.25994 0.08850
 C1050 C 0.08026 0.25859 0.11111
 C1051 C 0.12662 0.27592 0.13173
 C1052 C 0.12746 0.25811 0.15950
 C1053 C 0.15092 0.25646 0.17866
 C1054 C 0.17408 0.27232 0.17048
 C1055 C 0.17328 0.29086 0.14372
 C1056 C 0.14955 0.29314 0.12472
 C1057 C 0.12545 0.31500 0.07927
 C1058 C 0.14860 0.31246 0.09887
 H1059 H 0.12570 0.33034 0.05965
 H1060 H 0.16599 0.32593 0.09380
 H1061 H 0.08070 0.31471 0.04228
 H1062 H 0.04220 0.24496 0.09023
 H1063 H 0.15126 0.24227 0.19953
 H1064 H 0.19119 0.30332 0.13768
 H1065 H 0.07937 0.24228 0.12927
 H1066 H 0.11028 0.24530 0.16685
 C1067 C 0.59626 0.76485 0.62774
 C1068 C 0.59199 0.79062 0.61338
 C1069 C 0.57110 0.79368 0.58981
 C1070 C 0.55467 0.77123 0.57963
 C1071 C 0.55878 0.74583 0.59422
 C1072 C 0.57916 0.74265 0.61801
 C1073 C 0.61946 0.76217 0.65170
 C1074 C 0.62537 0.73743 0.66731
 C1075 C 0.64818 0.73557 0.68768
 C1076 C 0.66562 0.75826 0.69304
 C1077 C 0.65940 0.78327 0.67889
 C1078 C 0.63650 0.78539 0.65826
 C1079 C 0.60904 0.81299 0.62190
 C1080 C 0.63089 0.81040 0.64370
 H1081 H 0.60576 0.83274 0.61101
 H1082 H 0.64379 0.82822 0.64892
 H1083 H 0.56822 0.81339 0.57857
 H1084 H 0.54635 0.72817 0.58698
 H1085 H 0.65259 0.71619 0.69879
 H1086 H 0.67285 0.80087 0.68323
 H1087 H 0.58142 0.72252 0.62792
 H1088 H 0.61292 0.71917 0.66384
   
