data_POSCAR
  _audit_creation_date              2014-09-24
  _audit_creation_method            'ToBaCCo'
  _symmetry_space_group_name_H-M    'P1'
  _symmetry_Int_Tables_number       1
  _symmetry_cell_setting            triclinic
  loop_
  _symmetry_equiv_pos_as_xyz
 x,y,z
_cell_length_a 28.1638
_cell_length_b 28.1946
_cell_length_c 12.3895
_cell_angle_alpha 89.782000
_cell_angle_beta 89.968500
_cell_angle_gamma 114.176000
loop_
  _atom_site_label
  _atom_site_type_symbol
  _atom_site_fract_x
  _atom_site_fract_y
  _atom_site_fract_z
C1 C 0.52328 0.95580 0.56157
 C2 C 0.51190 0.95290 0.44953
 C3 C 0.53124 0.99877 0.38701
 C4 C 0.56130 1.04806 0.43199
 C5 C 0.57375 1.05040 0.54374
 C6 C 0.55480 1.00435 0.60546
 H7 H 0.56497 1.00647 0.69038
 H8 H 0.52488 0.99491 0.30091
 C9 C 0.04580 0.57148 0.54889
 C10 C 0.04467 0.54621 0.44983
 C11 C -0.00356 0.51397 0.40496
 C12 C -0.05090 0.50511 0.45798
 C13 C -0.04859 0.52575 0.56284
 C14 C -0.00089 0.56077 0.60400
 H15 H 0.00027 0.57743 0.68329
 H16 H -0.00334 0.49853 0.32530
 C17 C 0.41748 0.47468 0.56164
 C18 C 0.42165 0.47219 0.44809
 C19 C 0.45059 0.44648 0.40381
 C20 C 0.47531 0.42256 0.46960
 C21 C 0.46826 0.42200 0.58303
 C22 C 0.43852 0.44687 0.62628
 H23 H 0.43206 0.44478 0.71281
 H24 H 0.45344 0.44459 0.31675
 O25 O 0.40989 0.67045 -0.09987
 O26 O 0.40773 0.76255 -0.10905
 C27 C 0.37531 0.76723 -0.17522
 O28 O 0.32669 0.74642 -0.15981
 O29 O 0.23951 0.66922 -0.11035
 C30 C 0.23349 0.62437 -0.14252
 O31 O 0.25731 0.59942 -0.10147
 O32 O 0.34449 0.59478 -0.05433
 C33 C 0.38575 0.62152 -0.10708
 O34 O 0.41003 0.67272 0.11601
 O35 O 0.40247 0.76176 0.10886
 C36 C 0.37727 0.79003 0.10777
 O37 O 0.33848 0.78135 0.04611
 O38 O 0.25369 0.70066 0.09771
 C39 C 0.23250 0.65577 0.13969
 O40 O 0.24166 0.61717 0.10863
 O41 O 0.33066 0.61326 0.15455
 C42 C 0.37893 0.63572 0.17347
 Cr43 Cr 0.40451 0.71564 0.00380
 Cr44 Cr 0.29112 0.72276 -0.03023
 Cr45 Cr 0.29480 0.60912 0.02594
 O46 O 0.33007 0.68226 0.00013
 O47 O 0.59767 0.34820 -0.07862
 O48 O 0.59851 0.25752 -0.11238
 C49 C 0.62192 0.22906 -0.13554
 O50 O 0.66539 0.23521 -0.09492
 O51 O 0.74778 0.31979 -0.14142
 C52 C 0.77206 0.36827 -0.15654
 O53 O 0.76702 0.40162 -0.09458
 O54 O 0.67752 0.40633 -0.12204
 C55 C 0.62899 0.38398 -0.13939
 O56 O 0.60555 0.33446 0.13649
 O57 O 0.60502 0.24228 0.09919
 C58 C 0.63948 0.22916 0.13976
 O59 O 0.68745 0.25101 0.11532
 O60 O 0.77307 0.33343 0.06943
 C61 C 0.78168 0.37363 0.12605
 O62 O 0.75420 0.39984 0.11978
 O63 O 0.66652 0.41197 0.09244
 C64 C 0.62751 0.38329 0.14835
 Cr65 Cr 0.60460 0.29700 0.01124
 Cr66 Cr 0.71706 0.28653 -0.01229
 Cr67 Cr 0.71483 0.40218 -0.00056
 O68 O 0.67865 0.32831 0.00050
 C69 C 0.50560 0.91334 -0.36565
 C70 C 0.46086 0.87090 -0.37372
 C71 C 0.44416 0.83289 -0.28426
 C72 C 0.39436 0.79994 -0.27233
 H73 H 0.43387 0.86665 -0.43880
 H74 H 0.47229 0.83461 -0.22297
 H75 H 0.52688 0.91799 -0.29051
 H76 H 0.36598 0.79982 -0.33156
 C77 C 0.09414 0.60657 -0.39728
 C78 C 0.12875 0.58935 -0.36062
 C79 C 0.16888 0.61997 -0.28208
 C80 C 0.19645 0.59832 -0.22968
 H81 H 0.12424 0.55031 -0.38065
 H82 H 0.17376 0.65916 -0.26263
 H83 H 0.09638 0.64399 -0.37047
 H84 H 0.19074 0.55892 -0.24962
 C85 C 0.39213 0.50308 -0.38903
 C86 C 0.40661 0.52514 -0.29189
 C87 C 0.38100 0.55472 -0.23848
 C88 C 0.40907 0.59437 -0.17482
 H89 H 0.44065 0.52453 -0.25220
 H90 H 0.33961 0.54360 -0.24905
 H91 H 0.36310 0.51114 -0.43337
 H92 H 0.45103 0.60759 -0.17201
 C93 C 0.60364 0.09762 -0.40396
 C94 C 0.59001 0.10916 -0.30748
 C95 C 0.61995 0.15915 -0.25549
 C96 C 0.59516 0.18438 -0.20605
 H97 H 0.55395 0.08320 -0.26943
 H98 H 0.66209 0.17460 -0.25587
 H99 H 0.63611 0.12746 -0.44511
 H100 H 0.55319 0.17006 -0.21283
 C101 C 0.90613 0.50736 -0.36290
 C102 C 0.87661 0.45652 -0.34961
 C103 C 0.83627 0.43786 -0.26565
 C104 C 0.80932 0.38696 -0.24667
 H105 H 0.88406 0.42821 -0.39765
 H106 H 0.82983 0.46637 -0.21629
 H107 H 0.90098 0.53527 -0.30949
 H108 H 0.81586 0.35858 -0.29622
 C109 C 0.48941 0.39842 -0.34214
 C110 C 0.53708 0.39922 -0.34919
 C111 C 0.55759 0.38054 -0.25701
 C112 C 0.60833 0.40089 -0.23412
 H113 H 0.56289 0.41877 -0.41539
 H114 H 0.53017 0.35177 -0.20350
 H115 H 0.46918 0.38590 -0.26558
 H116 H 0.63539 0.43087 -0.28597
 C117 C 0.90037 0.48034 0.40626
 C118 C 0.89156 0.45032 0.31875
 C119 C 0.84057 0.43041 0.26459
 C120 C 0.82812 0.39124 0.19504
 H121 H 0.92121 0.43916 0.28675
 H122 H 0.81406 0.44877 0.27915
 H123 H 0.86736 0.48577 0.43981
 H124 H 0.85448 0.37233 0.18442
 C125 C 0.57707 0.09414 0.36859
 C126 C 0.55725 0.09773 0.27180
 C127 C 0.57444 0.14685 0.20991
 C128 C 0.62279 0.18457 0.21433
 H129 H 0.52465 0.06538 0.23819
 H130 H 0.54707 0.14980 0.15168
 H131 H 0.60458 0.13017 0.40156
 H132 H 0.65215 0.17999 0.26435
 C133 C 0.50172 0.39275 0.41679
 C134 C 0.53897 0.41470 0.34278
 C135 C 0.56353 0.38481 0.28497
 C136 C 0.60596 0.40960 0.22439
 H137 H 0.55118 0.45558 0.32347
 H138 H 0.54546 0.34270 0.28775
 H139 H 0.49135 0.35283 0.44152
 H140 H 0.62378 0.45177 0.22442
 C141 C 0.09188 0.55282 0.38771
 C142 C 0.12654 0.59935 0.35540
 C143 C 0.16701 0.60374 0.27536
 C144 C 0.19477 0.64922 0.22725
 H145 H 0.12241 0.63414 0.38146
 H146 H 0.17220 0.56917 0.25173
 H147 H 0.09396 0.51815 0.35471
 H148 H 0.18843 0.68321 0.25064
 C149 C 0.48742 0.90254 0.39215
 C150 C 0.45216 0.89443 0.31401
 C151 C 0.43184 0.84563 0.25226
 C152 C 0.39464 0.83622 0.17781
 H153 H 0.43896 0.92452 0.29402
 H154 H 0.44866 0.81773 0.26583
 H155 H 0.49881 0.87152 0.41495
 H156 H 0.37724 0.86377 0.16617
 C157 C 0.39591 0.49490 0.37241
 C158 C 0.40693 0.54576 0.36926
 C159 C 0.38126 0.56642 0.28983
 C160 C 0.40084 0.61689 0.26340
 H161 H 0.43591 0.57218 0.42330
 H162 H 0.34748 0.53927 0.24721
 H163 H 0.36983 0.46930 0.31286
 H164 H 0.43678 0.64351 0.30004
   
