data_POSCAR
  _audit_creation_date              2014-09-24
  _audit_creation_method            'ToBaCCo'
  _symmetry_space_group_name_H-M    'P1'
  _symmetry_Int_Tables_number       1
  _symmetry_cell_setting            triclinic
  loop_
  _symmetry_equiv_pos_as_xyz
 x,y,z
_cell_length_a 40.3068
_cell_length_b 44.2166
_cell_length_c 42.3415
_cell_angle_alpha 86.846600
_cell_angle_beta 96.647800
_cell_angle_gamma 94.671300
loop_
  _atom_site_label
  _atom_site_type_symbol
  _atom_site_fract_x
  _atom_site_fract_y
  _atom_site_fract_z
C1 C 0.30553 0.29262 0.25203
 H2 H 0.31699 0.28086 0.27305
 C3 C 0.32522 0.31259 0.23385
 H4 H 0.35193 0.31587 0.24084
 C5 C 0.25694 0.30216 0.21685
 H6 H 0.23029 0.29779 0.21037
 C7 C 0.27569 0.32205 0.19787
 H8 H 0.26327 0.33317 0.17686
 N9 N 0.27210 0.28763 0.24309
 C10 C 0.19495 0.26384 0.30650
 H11 H 0.19234 0.23931 0.30624
 C12 C 0.17567 0.27890 0.32511
 H13 H 0.15771 0.26576 0.33846
 C14 C 0.22180 0.31060 0.28962
 H15 H 0.24021 0.32290 0.27619
 C16 C 0.20326 0.32654 0.30806
 H17 H 0.20787 0.35098 0.30868
 Zn18 Zn 0.24502 0.25898 0.26546
 N19 N 0.21744 0.27980 0.28915
 C20 C 0.27068 0.23303 0.32561
 N21 N 0.27257 0.23385 0.29366
 C22 C 0.29387 0.21662 0.28120
 C23 C 0.31346 0.19703 0.30082
 C24 C 0.28984 0.21367 0.34614
 C25 C 0.18496 0.22968 0.23348
 C26 C 0.16691 0.21186 0.21006
 C27 C 0.21862 0.20571 0.18838
 C28 C 0.23558 0.22364 0.21205
 N29 N 0.21884 0.23479 0.23443
 H30 H 0.25437 0.24737 0.33536
 H31 H 0.29579 0.21799 0.25599
 H32 H 0.32959 0.18304 0.29018
 H33 H 0.28798 0.21335 0.37146
 H34 H 0.17172 0.23954 0.25059
 H35 H 0.13998 0.20823 0.20959
 H36 H 0.23274 0.19662 0.17132
 H37 H 0.26217 0.22914 0.21213
 C38 C 0.17981 0.31071 0.32621
 C39 C 0.31035 0.32724 0.20612
 C40 C 0.18380 0.19947 0.18717
 C41 C 0.31144 0.19519 0.33375
 C42 C 0.80902 0.77694 0.22529
 H43 H 0.81880 0.76060 0.24309
 C44 C 0.83100 0.79362 0.20668
 H45 H 0.85730 0.78981 0.21152
 C46 C 0.76351 0.80299 0.20014
 H47 H 0.73713 0.80670 0.19792
 C48 C 0.78462 0.82030 0.18095
 H49 H 0.77332 0.83616 0.16340
 N50 N 0.77582 0.78137 0.22138
 C51 C 0.69935 0.77032 0.28712
 H52 H 0.69202 0.74633 0.28624
 C53 C 0.68207 0.78864 0.30436
 H54 H 0.66120 0.77853 0.31623
 C55 C 0.73495 0.81272 0.27221
 H56 H 0.75587 0.82196 0.26002
 C57 C 0.71840 0.83186 0.28919
 H58 H 0.72681 0.85572 0.28986
 Zn59 Zn 0.74686 0.75723 0.24692
 N60 N 0.72497 0.78261 0.27114
 C61 C 0.77945 0.73538 0.30606
 N62 N 0.77274 0.73087 0.27436
 C63 C 0.78555 0.70790 0.26079
 C64 C 0.80713 0.68903 0.27901
 C65 C 0.80087 0.71686 0.32527
 C66 C 0.70778 0.73861 0.18943
 C67 C 0.68513 0.71925 0.17108
 C68 C 0.67745 0.68763 0.21841
 C69 C 0.69991 0.70777 0.23591
 N70 N 0.71463 0.73269 0.22131
 H71 H 0.76898 0.75385 0.31626
 H72 H 0.77964 0.70481 0.23554
 H73 H 0.81746 0.67111 0.26769
 H74 H 0.80686 0.72125 0.35027
 H75 H 0.72011 0.75802 0.17796
 H76 H 0.68034 0.72404 0.14568
 H77 H 0.66619 0.66779 0.23040
 H78 H 0.70626 0.70309 0.26112
 C79 C 0.69138 0.81991 0.30534
 C80 C 0.81913 0.81558 0.18354
 C81 C 0.66991 0.69324 0.18555
 C82 C 0.81548 0.69372 0.31158
 C83 C 0.79924 0.28504 0.73398
 H84 H 0.80894 0.26973 0.75292
 C85 C 0.82157 0.30287 0.71674
 H86 H 0.84820 0.30091 0.72262
 C87 C 0.75309 0.30695 0.70419
 H88 H 0.72628 0.30829 0.69941
 C89 C 0.77462 0.32514 0.68608
 H90 H 0.76413 0.34012 0.66710
 N91 N 0.76562 0.28642 0.72665
 C92 C 0.67678 0.27840 0.76545
 H93 H 0.66464 0.26409 0.74700
 C94 C 0.65742 0.29543 0.78196
 H95 H 0.63045 0.29355 0.77642
 C96 C 0.72657 0.29859 0.79475
 H97 H 0.75362 0.29999 0.79917
 C98 C 0.70812 0.31598 0.81196
 H99 H 0.72116 0.33083 0.82960
 Zn100 Zn 0.73644 0.25839 0.74790
 N101 N 0.71070 0.28019 0.77210
 C102 C 0.76460 0.22826 0.80587
 N103 N 0.76246 0.23073 0.77361
 C104 C 0.77946 0.21288 0.75716
 C105 C 0.80110 0.19271 0.77304
 C106 C 0.78582 0.20804 0.82292
 C107 C 0.70707 0.23949 0.68645
 C108 C 0.68674 0.22031 0.66589
 C109 C 0.66934 0.19075 0.71164
 C110 C 0.68956 0.21074 0.73131
 N111 N 0.70791 0.23455 0.71854
 H112 H 0.75043 0.24239 0.81850
 H113 H 0.77649 0.21471 0.73142
 H114 H 0.81294 0.17852 0.75838
 H115 H 0.78794 0.20832 0.84857
 H116 H 0.72250 0.25789 0.67662
 H117 H 0.68655 0.22429 0.64041
 H118 H 0.65504 0.17179 0.72216
 H119 H 0.69104 0.20710 0.75689
 C120 C 0.67306 0.31464 0.80547
 C121 C 0.80935 0.32251 0.69169
 C122 C 0.66782 0.19546 0.67850
 C123 C 0.80555 0.19014 0.80674
 C124 C 0.31159 0.78390 0.74256
 H125 H 0.32206 0.76781 0.76027
 C126 C 0.33268 0.80058 0.72306
 H127 H 0.35915 0.79705 0.72622
 C128 C 0.26492 0.80877 0.71780
 H129 H 0.23844 0.81201 0.71605
 C130 C 0.28509 0.82569 0.69741
 H131 H 0.27369 0.84131 0.67960
 N132 N 0.27812 0.78736 0.73889
 C133 C 0.20391 0.76878 0.80679
 H134 H 0.19842 0.74457 0.80523
 C135 C 0.18665 0.78484 0.82633
 H136 H 0.16761 0.77278 0.83926
 C137 C 0.23507 0.81391 0.79160
 H138 H 0.25429 0.82512 0.77838
 C139 C 0.21840 0.83085 0.81082
 H140 H 0.22505 0.85501 0.81219
 Zn141 Zn 0.24995 0.76076 0.76318
 N142 N 0.22745 0.78346 0.78973
 C143 C 0.28243 0.73441 0.82053
 N144 N 0.27675 0.73320 0.78830
 C145 C 0.29056 0.71230 0.77252
 C146 C 0.31184 0.69208 0.78907
 C147 C 0.30344 0.71438 0.83811
 C148 C 0.21162 0.74470 0.70429
 C149 C 0.18957 0.72609 0.68457
 C150 C 0.18203 0.69158 0.72979
 C151 C 0.20384 0.71109 0.74877
 N152 N 0.21820 0.73713 0.73588
 H153 H 0.27120 0.75125 0.83257
 H154 H 0.28542 0.71174 0.74690
 H155 H 0.32277 0.67574 0.77604
 H156 H 0.30835 0.71600 0.86367
 H157 H 0.22374 0.76484 0.69399
 H158 H 0.18499 0.73231 0.65943
 H159 H 0.17109 0.67081 0.74038
 H160 H 0.21004 0.70500 0.77371
 C161 C 0.19372 0.81635 0.82844
 C162 C 0.31936 0.82104 0.69930
 C163 C 0.17471 0.69904 0.69724
 C164 C 0.31879 0.69315 0.82227
 C165 C 0.02719 -0.02169 -0.03353
 C166 C 0.04807 -0.00008 -0.01058
 C167 C 0.02968 0.01556 0.00700
 C168 C -0.00828 0.00840 -0.00005
 C169 C 0.00474 -0.04188 -0.01270
 C170 C -0.01350 -0.02632 0.00520
 C171 C 0.00246 -0.00172 -0.05355
 C172 C -0.01570 0.01459 -0.03626
 H173 H 0.07521 0.00202 -0.00803
 H174 H -0.02280 0.02147 0.01439
 H175 H 0.00193 -0.06637 -0.01343
 H176 H -0.00126 -0.00151 -0.07927
 C177 C 0.02574 0.47515 0.47412
 C178 C 0.04904 0.49333 0.49860
 C179 C 0.03293 0.51011 0.51718
 C180 C -0.00537 0.50718 0.50975
 C181 C 0.00101 0.45624 0.49366
 C182 C -0.01492 0.47273 0.51278
 C183 C 0.00404 0.49857 0.45554
 C184 C -0.01181 0.51574 0.47396
 H185 H 0.07607 0.49331 0.50053
 H186 H -0.01808 0.52090 0.52518
 H187 H -0.00453 0.43204 0.49155
 H188 H 0.00012 0.50031 0.42980
 C189 C 0.52558 -0.03955 0.46668
 C190 C 0.54776 -0.02130 0.49193
 C191 C 0.53080 -0.00338 0.50852
 C192 C 0.49287 -0.00549 0.49878
 C193 C 0.49878 -0.05715 0.48481
 C194 C 0.48219 -0.03966 0.50235
 C195 C 0.50597 -0.01585 0.44606
 C196 C 0.48931 0.00228 0.46277
 H197 H 0.57479 -0.02162 0.49536
 H198 H 0.47940 0.00915 0.51264
 H199 H 0.49351 -0.08150 0.48385
 H200 H 0.50431 -0.01400 0.42036
 C201 C 0.52238 0.46168 -0.02526
 C202 C 0.54395 0.47942 0.00092
 C203 C 0.52624 0.49527 0.01894
 C204 C 0.48831 0.49221 0.00920
 C205 C 0.49648 0.44209 -0.00785
 C206 C 0.47877 0.45787 0.01024
 C207 C 0.50227 0.48619 -0.04429
 C208 C 0.48426 0.50202 -0.02636
 H209 H 0.57108 0.48081 0.00363
 H210 H 0.47399 0.50507 0.02411
 H211 H 0.49330 0.41759 -0.00900
 H212 H 0.50253 0.49119 -0.06949
 C213 C 0.14997 -0.16176 -0.10244
 C214 C 0.13871 -0.13296 -0.11291
 C215 C 0.14673 -0.12097 -0.14310
 C216 C 0.16478 -0.13743 -0.16188
 C217 C 0.17530 -0.16606 -0.15128
 C218 C 0.16784 -0.17791 -0.12136
 C219 C 0.13646 -0.09273 -0.15465
 C220 C 0.11824 -0.07592 -0.13703
 C221 C 0.10943 -0.08672 -0.10688
 C222 C 0.11968 -0.11580 -0.09467
 C223 C 0.11022 -0.12688 -0.06483
 C224 C 0.09111 -0.11048 -0.04768
 C225 C 0.08077 -0.08227 -0.05930
 C226 C 0.09021 -0.06966 -0.08874
 C227 C 0.08019 -0.04033 -0.09856
 C228 C 0.06036 -0.02508 -0.08070
 C229 C 0.04915 -0.03852 -0.05265
 C230 C 0.06092 -0.06664 -0.04148
 H231 H 0.14553 -0.17256 -0.07976
 H232 H 0.17007 -0.12815 -0.18516
 H233 H 0.17615 -0.19974 -0.11231
 H234 H 0.14243 -0.08351 -0.17776
 H235 H 0.11099 -0.05460 -0.14810
 H236 H 0.11684 -0.14848 -0.05402
 H237 H 0.08416 -0.12014 -0.02506
 H238 H 0.08748 -0.02826 -0.11975
 H239 H 0.05394 -0.00248 -0.08896
 H240 H 0.05486 -0.07652 -0.01869
 C241 C 0.13602 0.33087 0.39613
 C242 C 0.12462 0.35975 0.38629
 C243 C 0.13195 0.37210 0.35603
 C244 C 0.14922 0.35582 0.33646
 C245 C 0.16037 0.32729 0.34659
 C246 C 0.15358 0.31507 0.37661
 C247 C 0.12210 0.40073 0.34536
 C248 C 0.10571 0.41785 0.36430
 C249 C 0.09805 0.40681 0.39474
 C250 C 0.10662 0.37688 0.40548
 C251 C 0.09647 0.36495 0.43479
 C252 C 0.07888 0.38171 0.45311
 C253 C 0.07125 0.41123 0.44341
 C254 C 0.08138 0.42449 0.41449
 C255 C 0.07504 0.45519 0.40693
 C256 C 0.05764 0.47124 0.42627
 C257 C 0.04518 0.45730 0.45354
 C258 C 0.05353 0.42758 0.46261
 H259 H 0.13250 0.32008 0.41904
 H260 H 0.15391 0.36543 0.31314
 H261 H 0.16251 0.29341 0.38545
 H262 H 0.12734 0.41015 0.32212
 H263 H 0.09861 0.43950 0.35396
 H264 H 0.10105 0.34232 0.44402
 H265 H 0.07125 0.37142 0.47523
 H266 H 0.08387 0.46776 0.38664
 H267 H 0.05418 0.49489 0.41979
 H268 H 0.04659 0.41707 0.48485
 C269 C 0.64710 -0.11240 0.32538
 C270 C 0.63551 -0.12180 0.35498
 C271 C 0.64330 -0.15092 0.36810
 C272 C 0.66169 -0.16961 0.35203
 C273 C 0.67267 -0.15998 0.32266
 C274 C 0.66527 -0.13120 0.30962
 C275 C 0.63257 -0.16145 0.39711
 C276 C 0.61405 -0.14383 0.41356
 C277 C 0.60553 -0.11467 0.40168
 C278 C 0.61638 -0.10348 0.37186
 C279 C 0.60760 -0.07442 0.35984
 C280 C 0.58864 -0.05703 0.37605
 C281 C 0.57769 -0.06764 0.40495
 C282 C 0.58624 -0.09640 0.41845
 C283 C 0.57540 -0.10541 0.44843
 C284 C 0.55606 -0.08711 0.46354
 C285 C 0.54612 -0.05940 0.44930
 C286 C 0.55830 -0.04940 0.42045
 H287 H 0.64247 -0.09075 0.31351
 H288 H 0.66768 -0.19168 0.36258
 H289 H 0.67306 -0.12333 0.28675
 H290 H 0.63839 -0.18372 0.40719
 H291 H 0.60652 -0.15402 0.43553
 H292 H 0.61483 -0.06433 0.33772
 H293 H 0.58236 -0.03495 0.36571
 H294 H 0.58168 -0.12629 0.46116
 H295 H 0.54907 -0.09472 0.48677
 H296 H 0.55334 -0.02712 0.41002
 C297 C 0.60677 0.36591 -0.17808
 C298 C 0.61329 0.36935 -0.14482
 C299 C 0.64027 0.35421 -0.12823
 C300 C 0.65979 0.33670 -0.14451
 C301 C 0.65283 0.33354 -0.17740
 C302 C 0.62620 0.34833 -0.19393
 C303 C 0.64766 0.35650 -0.09545
 C304 C 0.62876 0.37329 -0.07848
 C305 C 0.60150 0.38869 -0.09369
 C306 C 0.59398 0.38710 -0.12750
 C307 C 0.56755 0.40347 -0.14287
 C308 C 0.54908 0.42072 -0.12596
 C309 C 0.55581 0.42224 -0.09304
 C310 C 0.58176 0.40596 -0.07630
 C311 C 0.58644 0.40734 -0.04275
 C312 C 0.56710 0.42504 -0.02693
 C313 C 0.54265 0.44246 -0.04369
 C314 C 0.53650 0.43999 -0.07683
 H315 H 0.58675 0.37628 -0.19269
 H316 H 0.68010 0.32503 -0.13143
 H317 H 0.62052 0.34655 -0.21943
 H318 H 0.66836 0.34511 -0.08268
 H319 H 0.63657 0.37404 -0.05333
 H320 H 0.56058 0.40381 -0.16818
 H321 H 0.52921 0.43305 -0.13891
 H322 H 0.60450 0.39476 -0.02786
 H323 H 0.57138 0.42512 -0.00120
 H324 H 0.51635 0.45132 -0.09036
 C325 C -0.12171 0.14335 -0.17640
 C326 C -0.12405 0.13240 -0.14475
 C327 C -0.15119 0.14095 -0.12968
 C328 C -0.17425 0.16050 -0.14556
 C329 C -0.17187 0.17142 -0.17735
 C330 C -0.14491 0.16221 -0.19217
 C331 C -0.15556 0.12960 -0.09891
 C332 C -0.13394 0.10948 -0.08293
 C333 C -0.10643 0.10032 -0.09689
 C334 C -0.10073 0.11287 -0.12786
 C335 C -0.07173 0.10573 -0.14081
 C336 C -0.04976 0.08611 -0.12477
 C337 C -0.05587 0.07246 -0.09537
 C338 C -0.08423 0.07922 -0.08090
 C339 C -0.08927 0.06418 -0.05123
 C340 C -0.06710 0.04347 -0.03681
 C341 C -0.03917 0.03689 -0.05131
 C342 C -0.03360 0.05193 -0.08047
 H343 H -0.10238 0.13755 -0.19004
 H344 H -0.19514 0.16543 -0.13331
 H345 H -0.14003 0.17064 -0.21575
 H346 H -0.17622 0.13606 -0.08711
 H347 H -0.13923 0.10188 -0.05931
 H348 H -0.06480 0.11536 -0.16324
 H349 H -0.02787 0.08131 -0.13574
 H350 H -0.11044 0.06740 -0.03876
 H351 H -0.07241 0.03225 -0.01449
 H352 H -0.01166 0.04786 -0.09172
 C353 C -0.10703 0.65136 0.33518
 C354 C -0.11218 0.63855 0.36578
 C355 C -0.14190 0.64471 0.37843
 C356 C -0.16508 0.66316 0.36105
 C357 C -0.15965 0.67524 0.33063
 C358 C -0.13038 0.66929 0.31805
 C359 C -0.14863 0.63206 0.40811
 C360 C -0.12706 0.61261 0.42527
 C361 C -0.09743 0.60527 0.41355
 C362 C -0.08933 0.61930 0.38381
 C363 C -0.05870 0.61351 0.37300
 C364 C -0.03758 0.59349 0.38960
 C365 C -0.04601 0.57833 0.41759
 C366 C -0.07574 0.58417 0.43033
 C367 C -0.08272 0.56805 0.45899
 C368 C -0.06161 0.54652 0.47352
 C369 C -0.03294 0.54022 0.46013
 C370 C -0.02492 0.55689 0.43257
 H371 H -0.08559 0.64759 0.32336
 H372 H -0.18787 0.66744 0.37084
 H373 H -0.12541 0.67866 0.29473
 H374 H -0.17116 0.63685 0.41802
 H375 H -0.13438 0.60372 0.44782
 H376 H -0.05008 0.62419 0.35168
 H377 H -0.01457 0.58946 0.38008
 H378 H -0.10466 0.57093 0.47046
 H379 H -0.06847 0.53415 0.49477
 H380 H -0.00223 0.55295 0.42244
 C381 C 0.33554 0.13493 0.39778
 C382 C 0.36860 0.12978 0.39223
 C383 C 0.38277 0.14778 0.36767
 C384 C 0.36442 0.16956 0.34952
 C385 C 0.33148 0.17376 0.35478
 C386 C 0.31742 0.15651 0.37932
 C387 C 0.41506 0.14373 0.36093
 C388 C 0.43338 0.12137 0.37711
 C389 C 0.42015 0.10207 0.40103
 C390 C 0.38773 0.10706 0.40956
 C391 C 0.37555 0.08907 0.43498
 C392 C 0.39373 0.06627 0.45073
 C393 C 0.42454 0.06011 0.44163
 C394 C 0.43823 0.07787 0.41663
 C395 C 0.46917 0.07014 0.40778
 C396 C 0.48548 0.04586 0.42295
 C397 C 0.47180 0.02837 0.44751
 C398 C 0.44153 0.03590 0.45709
 H399 H 0.32257 0.12218 0.41563
 H400 H 0.37580 0.18316 0.33096
 H401 H 0.29187 0.15906 0.38370
 H402 H 0.42619 0.15775 0.34250
 H403 H 0.45811 0.12000 0.37031
 H404 H 0.35195 0.09211 0.44350
 H405 H 0.38324 0.05296 0.46998
 H406 H 0.48128 0.08191 0.38880
 H407 H 0.50916 0.04084 0.41544
 H408 H 0.43065 0.02233 0.47592
 C409 C 0.39486 0.64818 -0.15633
 C410 C 0.38790 0.63214 -0.12767
 C411 C 0.35743 0.63694 -0.11561
 C412 C 0.33534 0.65726 -0.13156
 C413 C 0.34260 0.67264 -0.16006
 C414 C 0.37256 0.66795 -0.17214
 C415 C 0.34891 0.62116 -0.08792
 C416 C 0.36948 0.60006 -0.07222
 C417 C 0.39988 0.59410 -0.08340
 C418 C 0.40974 0.61112 -0.11100
 C419 C 0.44112 0.60660 -0.12102
 C420 C 0.46157 0.58539 -0.10555
 C421 C 0.45165 0.56760 -0.07962
 C422 C 0.42079 0.57167 -0.06796
 C423 C 0.41201 0.55264 -0.04168
 C424 C 0.43282 0.53049 -0.02805
 C425 C 0.46304 0.52648 -0.03999
 C426 C 0.47246 0.54548 -0.06553
 H427 H 0.41699 0.64565 -0.16764
 H428 H 0.31199 0.66049 -0.12224
 H429 H 0.37890 0.67978 -0.19398
 H430 H 0.32577 0.62487 -0.07846
 H431 H 0.36085 0.58892 -0.05111
 H432 H 0.45093 0.61932 -0.14074
 H433 H 0.48533 0.58262 -0.11431
 H434 H 0.38891 0.55373 -0.03147
 H435 H 0.42467 0.51587 -0.00862
 H436 H 0.49613 0.54306 -0.07460
 C437 C -0.10730 -0.16421 0.13789
 C438 C -0.11383 -0.13519 0.12403
 C439 C -0.14381 -0.12302 0.13002
 C440 C -0.16577 -0.13918 0.14955
 C441 C -0.15882 -0.16795 0.16367
 C442 C -0.12920 -0.18007 0.15719
 C443 C -0.15181 -0.09467 0.11656
 C444 C -0.13098 -0.07820 0.09685
 C445 C -0.10087 -0.08931 0.08995
 C446 C -0.09187 -0.11806 0.10423
 C447 C -0.06111 -0.12865 0.09840
 C448 C -0.04030 -0.11230 0.07868
 C449 C -0.04914 -0.08476 0.06386
 C450 C -0.07939 -0.07267 0.06929
 C451 C -0.08687 -0.04452 0.05352
 C452 C -0.06539 -0.02947 0.03313
 C453 C -0.03584 -0.04180 0.02760
 C454 C -0.02774 -0.06934 0.04345
 H455 H -0.08577 -0.17577 0.13393
 H456 H -0.18766 -0.12844 0.15454
 H457 H -0.12314 -0.20265 0.16581
 H458 H -0.17464 -0.08514 0.12113
 H459 H -0.13925 -0.05661 0.08750
 H460 H -0.05205 -0.14955 0.10890
 H461 H -0.01703 -0.12149 0.07483
 H462 H -0.10928 -0.03361 0.05598
 H463 H -0.07251 -0.00841 0.02117
 H464 H -0.00452 -0.07885 0.04005
 C465 C -0.11853 0.33801 0.64184
 C466 C -0.12166 0.36843 0.63035
 C467 C -0.14878 0.38345 0.63913
 C468 C -0.17115 0.36861 0.65916
 C469 C -0.16722 0.33863 0.67067
 C470 C -0.14088 0.32354 0.66155
 C471 C -0.15350 0.41318 0.62784
 C472 C -0.13217 0.42838 0.60771
 C473 C -0.10476 0.41452 0.59825
 C474 C -0.09908 0.38423 0.61025
 C475 C -0.07086 0.37079 0.60197
 C476 C -0.04944 0.38592 0.58204
 C477 C -0.05513 0.41501 0.56940
 C478 C -0.08271 0.42990 0.57728
 C479 C -0.08702 0.45950 0.56361
 C480 C -0.06502 0.47335 0.54299
 C481 C -0.03809 0.45832 0.53509
 C482 C -0.03317 0.42922 0.54880
 H483 H -0.09944 0.32441 0.63577
 H484 H -0.19145 0.38054 0.66605
 H485 H -0.13777 0.30008 0.66929
 H486 H -0.17413 0.42482 0.63449
 H487 H -0.13779 0.45122 0.60015
 H488 H -0.06425 0.34853 0.61073
 H489 H -0.02818 0.37457 0.57632
 H490 H -0.10730 0.47253 0.56799
 H491 H -0.06965 0.49573 0.53284
 H492 H -0.01191 0.41754 0.54370
 C493 C 0.38569 -0.16723 0.64245
 C494 C 0.38264 -0.13697 0.63044
 C495 C 0.35722 -0.12085 0.64084
 C496 C 0.33688 -0.13430 0.66349
 C497 C 0.34088 -0.16412 0.67570
 C498 C 0.36519 -0.18041 0.66454
 C499 C 0.35214 -0.09147 0.62851
 C500 C 0.37144 -0.07776 0.60572
 C501 C 0.39733 -0.09270 0.59483
 C502 C 0.40363 -0.12245 0.60816
 C503 C 0.43113 -0.13653 0.59927
 C504 C 0.45116 -0.12262 0.57744
 C505 C 0.44457 -0.09427 0.56325
 C506 C 0.41755 -0.07881 0.57146
 C507 C 0.41201 -0.05020 0.55572
 C508 C 0.43270 -0.03761 0.53322
 C509 C 0.45946 -0.05303 0.52555
 C510 C 0.46525 -0.08130 0.54094
 H511 H 0.40308 -0.18175 0.63477
 H512 H 0.31808 -0.12141 0.67175
 H513 H 0.36807 -0.20385 0.67247
 H514 H 0.33277 -0.07898 0.63634
 H515 H 0.36580 -0.05507 0.59750
 H516 H 0.43847 -0.15820 0.60931
 H517 H 0.47206 -0.13434 0.57147
 H518 H 0.39166 -0.03713 0.55990
 H519 H 0.42738 -0.01588 0.52154
 H520 H 0.48639 -0.09323 0.53602
 C521 C 0.37540 0.38642 0.17807
 C522 C 0.37101 0.38363 0.14462
 C523 C 0.34621 0.36153 0.13207
 C524 C 0.32629 0.34376 0.15219
 C525 C 0.33096 0.34687 0.18517
 C526 C 0.35576 0.36822 0.19790
 C527 C 0.34156 0.35696 0.09952
 C528 C 0.36168 0.37315 0.07902
 C529 C 0.38708 0.39511 0.09025
 C530 C 0.39080 0.40143 0.12333
 C531 C 0.41397 0.42545 0.13393
 C532 C 0.43378 0.44192 0.11327
 C533 C 0.43195 0.43476 0.08143
 C534 C 0.40878 0.41110 0.06944
 C535 C 0.40902 0.40385 0.03729
 C536 C 0.43136 0.41937 0.01815
 C537 C 0.45390 0.44281 0.03012
 C538 C 0.45374 0.45074 0.06164
 H539 H 0.39426 0.40194 0.18979
 H540 H 0.30759 0.32683 0.14219
 H541 H 0.35987 0.37098 0.22335
 H542 H 0.32239 0.34031 0.08977
 H543 H 0.35620 0.36825 0.05425
 H544 H 0.41703 0.43249 0.15811
 H545 H 0.45123 0.46014 0.12252
 H546 H 0.39307 0.38569 0.02640
 H547 H 0.43110 0.41290 -0.00620
 H548 H 0.47159 0.46856 0.07117
 C549 C 0.15917 0.16324 0.10789
 C550 C 0.13351 0.14087 0.11482
 C551 C 0.12320 0.13963 0.14581
 C552 C 0.13926 0.15898 0.16909
 C553 C 0.16551 0.18018 0.16211
 C554 C 0.17480 0.18241 0.13114
 C555 C 0.09716 0.11887 0.15357
 C556 C 0.08095 0.09920 0.13130
 C557 C 0.09061 0.09904 0.10029
 C558 C 0.11780 0.11981 0.09213
 C559 C 0.12895 0.11831 0.06188
 C560 C 0.11399 0.09755 0.04020
 C561 C 0.08700 0.07770 0.04745
 C562 C 0.07448 0.07839 0.07735
 C563 C 0.04623 0.05836 0.08287
 C564 C 0.03176 0.03824 0.05998
 C565 C 0.04492 0.03721 0.03095
 C566 C 0.07248 0.05709 0.02480
 H567 H 0.16763 0.16681 0.08468
 H568 H 0.13180 0.15697 0.19295
 H569 H 0.19423 0.19923 0.12472
 H570 H 0.08916 0.11781 0.17721
 H571 H 0.06135 0.08379 0.13951
 H572 H 0.14988 0.13245 0.05435
 H573 H 0.12369 0.09707 0.01741
 H574 H 0.03442 0.05780 0.10446
 H575 H 0.01046 0.02303 0.06528
 H576 H 0.08237 0.05684 0.00207
 C577 C 0.10799 0.66997 0.63333
 C578 C 0.11306 0.63860 0.63375
 C579 C 0.13890 0.62762 0.65601
 C580 C 0.15806 0.64721 0.67727
 C581 C 0.15284 0.67818 0.67624
 C582 C 0.12772 0.68934 0.65411
 C583 C 0.14593 0.59724 0.65665
 C584 C 0.12868 0.57755 0.63497
 C585 C 0.10305 0.58736 0.61201
 C586 C 0.09406 0.61799 0.61238
 C587 C 0.06623 0.62690 0.59156
 C588 C 0.04858 0.60702 0.57029
 C589 C 0.05829 0.57770 0.56831
 C590 C 0.08588 0.56748 0.58887
 C591 C 0.09560 0.53797 0.58483
 C592 C 0.07839 0.51952 0.56165
 C593 C 0.05082 0.52962 0.54193
 C594 C 0.04074 0.55865 0.54553
 H595 H 0.08967 0.68048 0.61665
 H596 H 0.17792 0.63854 0.69396
 H597 H 0.12334 0.71325 0.65286
 H598 H 0.16542 0.58865 0.67382
 H599 H 0.13567 0.55447 0.63725
 H600 H 0.05696 0.64907 0.59153
 H601 H 0.02735 0.61488 0.55482
 H602 H 0.11688 0.52869 0.59860
 H603 H 0.08659 0.49711 0.55929
 H604 H 0.01979 0.56681 0.52988
 C605 C 0.60686 0.16412 0.61127
 C606 C 0.60951 0.13237 0.61578
 C607 C 0.63238 0.12203 0.64133
 C608 C 0.65062 0.14265 0.66202
 C609 C 0.64754 0.17390 0.65721
 C610 C 0.62576 0.18446 0.63159
 C611 C 0.63728 0.09119 0.64595
 C612 C 0.62075 0.07029 0.62518
 C613 C 0.59787 0.07936 0.59926
 C614 C 0.59091 0.11066 0.59545
 C615 C 0.56530 0.11913 0.57177
 C616 C 0.54792 0.09801 0.55169
 C617 C 0.55593 0.06784 0.55377
 C618 C 0.58135 0.05809 0.57725
 C619 C 0.58975 0.02759 0.57715
 C620 C 0.57326 0.00775 0.55493
 C621 C 0.54769 0.01743 0.53242
 C622 C 0.53894 0.04742 0.53210
 H623 H 0.59112 0.17406 0.59179
 H624 H 0.66801 0.13444 0.68148
 H625 H 0.62322 0.20859 0.62736
 H626 H 0.65451 0.08314 0.66560
 H627 H 0.62587 0.04692 0.63059
 H628 H 0.55745 0.14191 0.56860
 H629 H 0.52834 0.10553 0.53395
 H630 H 0.60957 0.01856 0.59327
 H631 H 0.58047 -0.01536 0.55541
 H632 H 0.51959 0.05515 0.51421
 C633 C 0.60213 0.66108 0.12423
 C634 C 0.60617 0.62947 0.12753
 C635 C 0.63174 0.61946 0.15068
 C636 C 0.65167 0.64025 0.17001
 C637 C 0.64745 0.67140 0.16621
 C638 C 0.62259 0.68160 0.14318
 C639 C 0.63775 0.58880 0.15415
 C640 C 0.61985 0.56783 0.13429
 C641 C 0.59460 0.57663 0.11041
 C642 C 0.58646 0.60765 0.10809
 C643 C 0.55883 0.61574 0.08654
 C644 C 0.54080 0.59467 0.06681
 C645 C 0.54997 0.56492 0.06717
 C646 C 0.57713 0.55544 0.08881
 C647 C 0.58638 0.52539 0.08713
 C648 C 0.56948 0.50587 0.06483
 C649 C 0.54260 0.51538 0.04378
 C650 C 0.53258 0.54475 0.04540
 H651 H 0.58406 0.67082 0.10666
 H652 H 0.67132 0.63226 0.18740
 H653 H 0.61894 0.70562 0.13981
 H654 H 0.65699 0.58097 0.17208
 H655 H 0.62607 0.54463 0.13868
 H656 H 0.55009 0.63821 0.08467
 H657 H 0.51984 0.60196 0.05057
 H658 H 0.60728 0.51653 0.10191
 H659 H 0.57761 0.48321 0.06389
 H660 H 0.51212 0.55238 0.02872
   
