data_POSCAR
  _audit_creation_date              2014-09-24
  _audit_creation_method            'ToBaCCo'
  _symmetry_space_group_name_H-M    'P1'
  _symmetry_Int_Tables_number       1
  _symmetry_cell_setting            triclinic
  loop_
  _symmetry_equiv_pos_as_xyz
 x,y,z
_cell_length_a 63.0231
_cell_length_b 61.9678
_cell_length_c 58.4518
_cell_angle_alpha 91.672100
_cell_angle_beta 89.927700
_cell_angle_gamma 90.141700
loop_
  _atom_site_label
  _atom_site_type_symbol
  _atom_site_fract_x
  _atom_site_fract_y
  _atom_site_fract_z
N1 N 0.28755 0.26063 0.23411
 N2 N 0.27575 0.27583 0.22552
 C3 C 0.28643 0.28522 0.20853
 C4 C 0.30604 0.27533 0.20621
 C5 C 0.30616 0.25976 0.22279
 H6 H 0.28018 0.29804 0.19839
 H7 H 0.31881 0.24863 0.22641
 Cu8 Cu 0.24732 0.28165 0.23675
 Cu9 Cu 0.27770 0.24300 0.25906
 Cu10 Cu 0.22995 0.25780 0.28429
 N11 N 0.22258 0.29210 0.25336
 N12 N 0.21578 0.28281 0.27190
 C13 C 0.19827 0.29310 0.27957
 C14 C 0.19382 0.30981 0.26503
 C15 C 0.20970 0.30864 0.24860
 H16 H 0.18932 0.28854 0.29445
 H17 H 0.21184 0.31902 0.23425
 N18 N 0.24677 0.23296 0.29415
 N19 N 0.26493 0.22730 0.28450
 C20 C 0.27230 0.20956 0.29457
 C21 C 0.25810 0.20368 0.31141
 C22 C 0.24210 0.21895 0.31062
 H23 H 0.28678 0.20134 0.28968
 H24 H 0.22802 0.21980 0.32115
 H25 H 0.24530 0.24679 0.25495
 H26 H 0.25937 0.26782 0.27291
 N27 N 0.70929 -0.26539 0.22361
 N28 N 0.72088 -0.28114 0.21483
 C29 C 0.71058 -0.29030 0.19688
 C30 C 0.69141 -0.27965 0.19405
 C31 C 0.69124 -0.26389 0.21149
 H32 H 0.71682 -0.30361 0.18662
 H33 H 0.67902 -0.25212 0.21522
 Cu34 Cu 0.74860 -0.28804 0.22710
 Cu35 Cu 0.71856 -0.24788 0.24995
 Cu36 Cu 0.76470 -0.26386 0.27647
 N37 N 0.77268 -0.29864 0.24415
 N38 N 0.77881 -0.28927 0.26346
 C39 C 0.79592 -0.29960 0.27136
 C40 C 0.80097 -0.31647 0.25613
 C41 C 0.78570 -0.31528 0.23905
 H42 H 0.80414 -0.29486 0.28691
 H43 H 0.78410 -0.32561 0.22394
 N44 N 0.74819 -0.23853 0.28696
 N45 N 0.73064 -0.23236 0.27681
 C46 C 0.72339 -0.21432 0.28756
 C47 C 0.73705 -0.20880 0.30537
 C48 C 0.75258 -0.22460 0.30442
 H49 H 0.70939 -0.20565 0.28250
 H50 H 0.76617 -0.22583 0.31554
 H51 H 0.75086 -0.25290 0.24691
 H52 H 0.73543 -0.27317 0.26333
 N53 N 0.71159 0.26671 0.77540
 N54 N 0.72341 0.28206 0.78474
 C55 C 0.71291 0.29124 0.80254
 C56 C 0.69342 0.28104 0.80459
 C57 C 0.69318 0.26554 0.78699
 H58 H 0.71921 0.30411 0.81342
 H59 H 0.68062 0.25418 0.78289
 Cu60 Cu 0.75164 0.28828 0.77335
 Cu61 Cu 0.72127 0.24900 0.74941
 Cu62 Cu 0.76858 0.26406 0.72430
 N63 N 0.77610 0.29883 0.75681
 N64 N 0.78268 0.28942 0.73769
 C65 C 0.79997 0.29985 0.73018
 C66 C 0.80461 0.31684 0.74547
 C67 C 0.78894 0.31559 0.76215
 H68 H 0.80853 0.29518 0.71481
 H69 H 0.78691 0.32597 0.77716
 N70 N 0.75186 0.23887 0.71346
 N71 N 0.73381 0.23317 0.72303
 C72 C 0.72649 0.21514 0.71230
 C73 C 0.74061 0.20910 0.69510
 C74 C 0.75650 0.22460 0.69638
 H75 H 0.71217 0.20678 0.71705
 H76 H 0.77053 0.22538 0.68579
 H77 H 0.75369 0.25324 0.75335
 H78 H 0.73930 0.27395 0.73661
 N79 N 0.30003 -0.27042 0.75034
 N80 N 0.29165 -0.28955 0.75336
 C81 C 0.30281 -0.29976 0.76939
 C82 C 0.31913 -0.28627 0.77690
 C83 C 0.31684 -0.26780 0.76430
 H84 H 0.29891 -0.31559 0.77546
 H85 H 0.32615 -0.25316 0.76574
 Cu86 Cu 0.26603 -0.29882 0.73747
 Cu87 Cu 0.28766 -0.24976 0.72979
 Cu88 Cu 0.23722 -0.26178 0.71023
 N89 N 0.23643 -0.30372 0.72981
 N90 N 0.22495 -0.28879 0.72027
 C91 C 0.20484 -0.29588 0.71818
 C92 C 0.20359 -0.31656 0.72671
 C93 C 0.22411 -0.32096 0.73386
 H94 H 0.19225 -0.28674 0.71056
 H95 H 0.22966 -0.33527 0.74210
 N96 N 0.25267 -0.23550 0.70180
 N97 N 0.27205 -0.23107 0.70904
 C98 C 0.27860 -0.21254 0.69985
 C99 C 0.26258 -0.20487 0.68605
 C100 C 0.24638 -0.21992 0.68776
 H101 H 0.29404 -0.20538 0.70275
 H102 H 0.23118 -0.21970 0.67927
 H103 H 0.25762 -0.26072 0.73785
 H104 H 0.26888 -0.27049 0.70967
 N105 N 0.69774 -0.27915 0.74333
 N106 N 0.70832 -0.29603 0.75013
 C107 C 0.69824 -0.30449 0.76809
 C108 C 0.68027 -0.29225 0.77287
 C109 C 0.68048 -0.27634 0.75664
 H110 H 0.70394 -0.31821 0.77727
 H111 H 0.66918 -0.26341 0.75476
 Cu112 Cu 0.73454 -0.30508 0.73516
 Cu113 Cu 0.70789 -0.26175 0.71830
 Cu114 Cu 0.76257 -0.26470 0.71273
 N115 N 0.76377 -0.30909 0.72548
 N116 N 0.77497 -0.29298 0.71767
 C117 C 0.79512 -0.29948 0.71435
 C118 C 0.79666 -0.32105 0.72009
 C119 C 0.77627 -0.32656 0.72697
 H120 H 0.80755 -0.28918 0.70803
 H121 H 0.77102 -0.34177 0.73359
 N122 N 0.74547 -0.24099 0.70046
 N123 N 0.72460 -0.24023 0.70206
 C124 C 0.71751 -0.22276 0.69132
 C125 C 0.73475 -0.21196 0.68233
 C126 C 0.75222 -0.22405 0.68848
 H127 H 0.70096 -0.21844 0.68999
 H128 H 0.76866 -0.22089 0.68443
 H129 H 0.73429 -0.27891 0.70468
 H130 H 0.73597 -0.26579 0.73378
 N131 N 0.30036 0.27711 0.76226
 N132 N 0.29211 0.29619 0.76686
 C133 C 0.30331 0.30602 0.78379
 C134 C 0.31953 0.29234 0.79020
 C135 C 0.31711 0.27415 0.77604
 H136 H 0.29961 0.32178 0.79110
 H137 H 0.32641 0.25953 0.77613
 Cu138 Cu 0.26690 0.30605 0.75117
 Cu139 Cu 0.28822 0.25711 0.73956
 Cu140 Cu 0.23885 0.27032 0.71873
 N141 N 0.23769 0.31154 0.74251
 N142 N 0.22653 0.29718 0.73066
 C143 C 0.20669 0.30468 0.72800
 C144 C 0.20540 0.32491 0.73857
 C145 C 0.22541 0.32878 0.74755
 H146 H 0.19421 0.29621 0.71875
 H147 H 0.23050 0.34286 0.75746
 N148 N 0.25420 0.24402 0.70868
 N149 N 0.27313 0.23910 0.71651
 C150 C 0.27967 0.22059 0.70618
 C151 C 0.26411 0.21342 0.69102
 C152 C 0.24818 0.22876 0.69312
 H153 H 0.29470 0.21296 0.70950
 H154 H 0.23338 0.22900 0.68383
 H155 H 0.27064 0.27862 0.72073
 H156 H 0.25798 0.26806 0.74724
 N157 N 0.29528 -0.27153 0.23057
 N158 N 0.28513 -0.28897 0.22335
 C159 C 0.29572 -0.29792 0.20545
 C160 C 0.31349 -0.28541 0.20114
 C161 C 0.31263 -0.26878 0.21753
 H162 H 0.29066 -0.31228 0.19602
 H163 H 0.32372 -0.25558 0.21982
 Cu164 Cu 0.25879 -0.29790 0.23780
 Cu165 Cu 0.28507 -0.25338 0.25606
 Cu166 Cu 0.23852 -0.26940 0.28240
 N167 N 0.23278 -0.30688 0.25288
 N168 N 0.22501 -0.29564 0.27034
 C169 C 0.20697 -0.30503 0.27738
 C170 C 0.20312 -0.32320 0.26361
 C171 C 0.21990 -0.32383 0.24822
 H172 H 0.19722 -0.29880 0.29127
 H173 H 0.22254 -0.33573 0.23464
 N174 N 0.25448 -0.24333 0.29211
 N175 N 0.27218 -0.23721 0.28209
 C176 C 0.27900 -0.21870 0.29229
 C177 C 0.26492 -0.21280 0.30958
 C178 C 0.24959 -0.22887 0.30893
 H179 H 0.29303 -0.20999 0.28722
 H180 H 0.23581 -0.22997 0.31984
 H181 H 0.26898 -0.27754 0.27236
 H182 H 0.25330 -0.26099 0.25228
 N183 N 0.69698 0.27107 0.25238
 N184 N 0.70516 0.29029 0.24935
 C185 C 0.69423 0.30014 0.23289
 C186 C 0.67824 0.28635 0.22510
 C187 C 0.68052 0.26804 0.23800
 H188 H 0.69799 0.31600 0.22681
 H189 H 0.67132 0.25333 0.23665
 Cu190 Cu 0.73005 0.30032 0.26616
 Cu191 Cu 0.70893 0.25103 0.27394
 Cu192 Cu 0.75798 0.26470 0.29638
 N193 N 0.75914 0.30606 0.27545
 N194 N 0.77027 0.29175 0.28643
 C195 C 0.79013 0.29932 0.28954
 C196 C 0.79145 0.31954 0.28016
 C197 C 0.77145 0.32334 0.27143
 H198 H 0.80263 0.29084 0.29815
 H199 H 0.76641 0.33732 0.26223
 N200 N 0.74269 0.23819 0.30443
 N201 N 0.72388 0.23307 0.29601
 C202 C 0.71738 0.21443 0.30503
 C203 C 0.73284 0.20741 0.31992
 C204 C 0.74866 0.22296 0.31904
 H205 H 0.70245 0.20662 0.30103
 H206 H 0.76334 0.22337 0.32856
 H207 H 0.72608 0.27259 0.29454
 H208 H 0.73913 0.26241 0.26746
 C209 C 0.26952 -0.02083 0.45164
 C210 C 0.26949 -0.00153 0.43982
 C211 C 0.26884 0.01852 0.45141
 C212 C 0.26867 0.01947 0.47564
 C213 C 0.26872 0.00005 0.48789
 C214 C 0.26926 -0.02018 0.47588
 C215 C 0.27016 -0.03917 0.48841
 C216 C 0.26995 -0.03838 0.51222
 C217 C 0.26883 -0.01856 0.52450
 C218 C 0.26855 0.00086 0.51223
 C219 C 0.26905 0.03932 0.48792
 C220 C 0.26896 0.04012 0.51173
 C221 C 0.26844 0.02110 0.52425
 C222 C 0.26846 0.02176 0.54848
 C223 C 0.26870 0.00247 0.56030
 C224 C 0.26864 -0.01761 0.54873
 H225 H 0.27134 -0.05488 0.47995
 H226 H 0.27101 -0.05352 0.52088
 H227 H 0.26975 0.05449 0.47925
 H228 H 0.26957 0.05586 0.52020
 H229 H 0.26949 -0.00214 0.42125
 H230 H 0.26851 0.00309 0.57887
 C231 C 0.73050 -0.02100 0.55054
 C232 C 0.73062 -0.00127 0.56280
 C233 C 0.73073 0.01838 0.55164
 C234 C 0.73028 0.01848 0.52743
 C235 C 0.73012 -0.00138 0.51473
 C236 C 0.73014 -0.02120 0.52631
 C237 C 0.72915 -0.04066 0.51338
 C238 C 0.72870 -0.04070 0.48958
 C239 C 0.72921 -0.02129 0.47772
 C240 C 0.72963 -0.00143 0.49041
 C241 C 0.72935 0.03789 0.51561
 C242 C 0.72883 0.03785 0.49181
 C243 C 0.72924 0.01839 0.47885
 C244 C 0.72867 0.01820 0.45462
 C245 C 0.72822 -0.00152 0.44238
 C246 C 0.72870 -0.02119 0.45351
 H247 H 0.72843 -0.05609 0.52152
 H248 H 0.72764 -0.05618 0.48060
 H249 H 0.72871 0.05337 0.52463
 H250 H 0.72780 0.05329 0.48372
 H251 H 0.73104 -0.00122 0.58135
 H252 H 0.72798 -0.00157 0.42382
 C253 C 0.45450 0.30967 0.02624
 C254 C 0.44446 0.31047 0.00496
 C255 C 0.45608 0.31109 -0.01541
 C256 C 0.47854 0.31122 -0.01457
 C257 C 0.48898 0.31054 0.00690
 C258 C 0.47693 0.31005 0.02740
 C259 C 0.48761 0.31047 0.04851
 C260 C 0.50967 0.31054 0.04948
 C261 C 0.52195 0.31008 0.02939
 C262 C 0.51152 0.31044 0.00790
 C263 C 0.49084 0.31253 -0.03457
 C264 C 0.51289 0.31227 -0.03361
 C265 C 0.52357 0.31080 -0.01260
 C266 C 0.54600 0.31020 -0.01151
 C267 C 0.55604 0.31001 0.00981
 C268 C 0.54441 0.30980 0.03021
 H269 H 0.47902 0.31103 0.06455
 H270 H 0.51697 0.31114 0.06623
 H271 H 0.48355 0.31399 -0.05119
 H272 H 0.52149 0.31353 -0.04954
 H273 H 0.42727 0.30989 0.00419
 H274 H 0.57322 0.30931 0.01053
 C275 C 0.54586 0.69142 0.01011
 C276 C 0.55642 0.69117 -0.01096
 C277 C 0.54531 0.69102 -0.03165
 C278 C 0.52285 0.69074 -0.03142
 C279 C 0.51187 0.69095 -0.01020
 C280 C 0.52339 0.69107 0.01064
 C281 C 0.51215 0.69027 0.03140
 C282 C 0.49007 0.69019 0.03176
 C283 C 0.47831 0.69090 0.01138
 C284 C 0.48930 0.69089 -0.00983
 C285 C 0.51109 0.68967 -0.05184
 C286 C 0.48903 0.68965 -0.05147
 C287 C 0.47780 0.69069 -0.03067
 C288 C 0.45534 0.69099 -0.03017
 C289 C 0.44474 0.69090 -0.00914
 C290 C 0.45583 0.69104 0.01158
 H291 H 0.52030 0.68942 0.04762
 H292 H 0.48232 0.68931 0.04823
 H293 H 0.51882 0.68860 -0.06837
 H294 H 0.48089 0.68852 -0.06774
 H295 H 0.57362 0.69174 -0.01126
 H296 H 0.42754 0.69140 -0.00888
 C297 C 0.01815 0.54291 0.26934
 C298 C -0.00082 0.55448 0.26821
 C299 C -0.02049 0.54401 0.26710
 C300 C -0.02139 0.52118 0.26739
 C301 C -0.00232 0.50921 0.26903
 C302 C 0.01752 0.52010 0.27005
 C303 C 0.03614 0.50794 0.27239
 C304 C 0.03540 0.48554 0.27305
 C305 C 0.01599 0.47437 0.27150
 C306 C -0.00310 0.48631 0.26994
 C307 C -0.04083 0.51004 0.26648
 C308 C -0.04158 0.48762 0.26704
 C309 C -0.02296 0.47541 0.26932
 C310 C -0.02358 0.45260 0.27068
 C311 C -0.00453 0.44111 0.27185
 C312 C 0.01514 0.45157 0.27198
 H313 H 0.05152 0.51563 0.27402
 H314 H 0.05024 0.47710 0.27514
 H315 H -0.05576 0.51851 0.26537
 H316 H -0.05699 0.48003 0.26560
 H317 H -0.00026 0.57197 0.26777
 H318 H -0.00500 0.42364 0.27259
 C319 C 0.02145 0.45903 0.74537
 C320 C 0.00225 0.44764 0.74432
 C321 C -0.01724 0.45825 0.74303
 C322 C -0.01773 0.48103 0.74202
 C323 C 0.00155 0.49287 0.74278
 C324 C 0.02114 0.48191 0.74520
 C325 C 0.03979 0.49417 0.74804
 C326 C 0.03948 0.51653 0.74663
 C327 C 0.02053 0.52758 0.74220
 C328 C 0.00124 0.51574 0.74114
 C329 C -0.03696 0.49226 0.74012
 C330 C -0.03729 0.51464 0.73892
 C331 C -0.01837 0.52670 0.73870
 C332 C -0.01847 0.54946 0.73664
 C333 C 0.00081 0.56073 0.73693
 C334 C 0.02025 0.55024 0.73954
 H335 H 0.05483 0.48665 0.75166
 H336 H 0.05430 0.52503 0.74931
 H337 H -0.05203 0.48387 0.73948
 H338 H -0.05264 0.52230 0.73819
 H339 H 0.00245 0.43013 0.74447
 H340 H 0.00068 0.57805 0.73467
 C341 C 0.35397 0.28812 0.15563
 C342 C 0.35495 0.26941 0.16861
 C343 C 0.33957 0.26538 0.18521
 C344 C 0.32281 0.27994 0.18919
 C345 C 0.32202 0.29880 0.17643
 C346 C 0.33741 0.30285 0.15987
 C347 C 0.36982 0.29202 0.13744
 N348 N 0.36884 0.31005 0.12481
 N349 N 0.38272 0.31327 0.10804
 C350 C 0.39817 0.29860 0.10317
 N351 N 0.39923 0.28063 0.11588
 N352 N 0.38535 0.27741 0.13265
 C353 C 0.41321 0.30187 0.08405
 C354 C 0.42848 0.28609 0.07830
 C355 C 0.44212 0.28880 0.05974
 C356 C 0.44090 0.30741 0.04672
 C357 C 0.42578 0.32323 0.05243
 C358 C 0.41210 0.32054 0.07096
 H359 H 0.36749 0.25771 0.16582
 H360 H 0.34068 0.25064 0.19459
 H361 H 0.30953 0.31054 0.17918
 H362 H 0.33618 0.31747 0.15026
 H363 H 0.42972 0.27148 0.08791
 H364 H 0.45347 0.27626 0.05532
 H365 H 0.42450 0.33761 0.04241
 H366 H 0.40053 0.33299 0.07487
 C367 C 0.64511 0.70896 0.14222
 C368 C 0.64242 0.72565 0.15872
 C369 C 0.65752 0.72928 0.17591
 C370 C 0.67585 0.71636 0.17705
 C371 C 0.67833 0.69946 0.16057
 C372 C 0.66317 0.69582 0.14346
 C373 C 0.62940 0.70551 0.12360
 N374 N 0.63130 0.68860 0.10842
 N375 N 0.61749 0.68581 0.09136
 C376 C 0.60120 0.69982 0.08870
 N377 N 0.59924 0.71668 0.10394
 N378 N 0.61303 0.71945 0.12103
 C379 C 0.58627 0.69713 0.06924
 C380 C 0.57092 0.71298 0.06503
 C381 C 0.55751 0.71093 0.04606
 C382 C 0.55900 0.69287 0.03111
 C383 C 0.57413 0.67692 0.03535
 C384 C 0.58760 0.67899 0.05426
 H385 H 0.62865 0.73606 0.15834
 H386 H 0.65469 0.74243 0.18808
 H387 H 0.69196 0.68893 0.16063
 H388 H 0.66576 0.68278 0.13104
 H389 H 0.56950 0.72719 0.07614
 H390 H 0.54617 0.72358 0.04282
 H391 H 0.57561 0.66297 0.02387
 H392 H 0.59921 0.66648 0.05697
 C393 C 0.64597 0.29260 -0.14323
 C394 C 0.64480 0.27424 -0.15787
 C395 C 0.66004 0.27062 -0.17493
 C396 C 0.67686 0.28525 -0.17776
 C397 C 0.67787 0.30375 -0.16330
 C398 C 0.66261 0.30739 -0.14626
 C399 C 0.63022 0.29603 -0.12461
 N400 N 0.63141 0.31362 -0.11025
 N401 N 0.61761 0.31637 -0.09314
 C402 C 0.60202 0.30164 -0.08965
 N403 N 0.60076 0.28411 -0.10409
 N404 N 0.61456 0.28137 -0.12120
 C405 C 0.58708 0.30432 -0.07016
 C406 C 0.57156 0.28853 -0.06607
 C407 C 0.55800 0.29063 -0.04722
 C408 C 0.55955 0.30864 -0.03221
 C409 C 0.57493 0.32447 -0.03625
 C410 C 0.58852 0.32239 -0.05509
 H411 H 0.63220 0.26250 -0.15605
 H412 H 0.65874 0.25613 -0.18560
 H413 H 0.69043 0.31551 -0.16507
 H414 H 0.66399 0.32174 -0.13534
 H415 H 0.57004 0.27437 -0.07725
 H416 H 0.54644 0.27807 -0.04414
 H417 H 0.57646 0.33839 -0.02470
 H418 H 0.60030 0.33483 -0.05768
 C419 C 0.36305 0.70402 -0.16778
 C420 C 0.34649 0.68923 -0.17216
 C421 C 0.33245 0.69218 -0.19029
 C422 C 0.33461 0.70999 -0.20449
 C423 C 0.35144 0.72452 -0.20036
 C424 C 0.36546 0.72158 -0.18224
 C425 C 0.37739 0.70145 -0.14796
 N426 N 0.39259 0.71643 -0.14297
 N427 N 0.40511 0.71448 -0.12483
 C428 C 0.40300 0.69746 -0.11088
 N429 N 0.38787 0.68241 -0.11592
 N430 N 0.37533 0.68438 -0.13407
 C431 C 0.41667 0.69557 -0.09041
 C432 C 0.41498 0.67758 -0.07637
 C433 C 0.42767 0.67601 -0.05690
 C434 C 0.44235 0.69232 -0.05118
 C435 C 0.44399 0.71037 -0.06501
 C436 C 0.43136 0.71193 -0.08451
 H437 H 0.34417 0.67550 -0.16139
 H438 H 0.31971 0.68065 -0.19282
 H439 H 0.35384 0.73828 -0.21103
 H440 H 0.37810 0.73323 -0.17947
 H441 H 0.40381 0.66472 -0.08036
 H442 H 0.42608 0.66206 -0.04628
 H443 H 0.45501 0.72327 -0.06063
 H444 H 0.43300 0.72607 -0.09483
 C445 C 0.14128 0.35434 0.26861
 C446 C 0.14538 0.34055 0.28675
 C447 C 0.16244 0.32618 0.28565
 C448 C 0.17584 0.32525 0.26638
 C449 C 0.17177 0.33914 0.24831
 C450 C 0.15473 0.35350 0.24941
 C451 C 0.12298 0.36934 0.26955
 N452 N 0.11902 0.38263 0.25199
 N453 N 0.10242 0.39588 0.25264
 C454 C 0.08905 0.39642 0.27089
 N455 N 0.09304 0.38318 0.28849
 N456 N 0.10965 0.36993 0.28784
 C457 C 0.07036 0.41092 0.27142
 C458 C 0.05628 0.41114 0.29013
 C459 C 0.03845 0.42451 0.29040
 C460 C 0.03445 0.43801 0.27207
 C461 C 0.04840 0.43783 0.25336
 C462 C 0.06623 0.42448 0.25306
 H463 H 0.13537 0.34078 0.30182
 H464 H 0.16509 0.31588 0.29998
 H465 H 0.18157 0.33888 0.23311
 H466 H 0.15205 0.36386 0.23510
 H467 H 0.05893 0.40088 0.30453
 H468 H 0.02774 0.42434 0.30490
 H469 H 0.04537 0.44795 0.23893
 H470 H 0.07667 0.42469 0.23835
 C471 C 0.14923 0.64323 0.73071
 C472 C 0.14718 0.66501 0.72527
 C473 C 0.16510 0.67819 0.72363
 C474 C 0.18553 0.67005 0.72799
 C475 C 0.18741 0.64818 0.73372
 C476 C 0.16950 0.63489 0.73476
 C477 C 0.13027 0.62929 0.73219
 N478 N 0.13155 0.60777 0.72736
 N479 N 0.11439 0.59524 0.72852
 C480 C 0.09534 0.60373 0.73483
 N481 N 0.09409 0.62523 0.73979
 N482 N 0.11120 0.63779 0.73837
 C483 C 0.07632 0.58988 0.73620
 C484 C 0.05989 0.59524 0.75157
 C485 C 0.04190 0.58212 0.75293
 C486 C 0.03987 0.56356 0.73872
 C487 C 0.05608 0.55851 0.72295
 C488 C 0.07432 0.57132 0.72199
 H489 H 0.13170 0.67182 0.72200
 H490 H 0.16269 0.69488 0.71941
 H491 H 0.20269 0.64103 0.73701
 H492 H 0.17149 0.61814 0.73906
 H493 H 0.06107 0.60945 0.76274
 H494 H 0.02952 0.58645 0.76508
 H495 H 0.05459 0.54462 0.71136
 H496 H 0.08665 0.56699 0.70978
 C497 C -0.14718 0.64002 0.25985
 C498 C -0.15083 0.65553 0.27740
 C499 C -0.16793 0.66974 0.27624
 C500 C -0.18198 0.66887 0.25748
 C501 C -0.17837 0.65309 0.24004
 C502 C -0.16120 0.63891 0.24120
 C503 C -0.12873 0.62528 0.26096
 N504 N -0.12429 0.61111 0.24344
 N505 N -0.10752 0.59811 0.24438
 C506 C -0.09449 0.59872 0.26289
 N507 N -0.09898 0.61285 0.28042
 N508 N -0.11572 0.62585 0.27947
 C509 C -0.07569 0.58445 0.26393
 C510 C -0.06275 0.58473 0.28354
 C511 C -0.04491 0.57147 0.28454
 C512 C -0.03971 0.55760 0.26603
 C513 C -0.05243 0.55734 0.24635
 C514 C -0.07033 0.57057 0.24534
 H515 H -0.14038 0.65683 0.29206
 H516 H -0.16991 0.68137 0.29021
 H517 H -0.18861 0.65160 0.22525
 H518 H -0.15890 0.62712 0.22739
 H519 H -0.06634 0.59524 0.29815
 H520 H -0.03515 0.57198 0.29979
 H521 H -0.04845 0.54690 0.23180
 H522 H -0.07987 0.57000 0.22994
 C523 C -0.14391 0.36118 0.74308
 C524 C -0.15863 0.36229 0.76112
 C525 C -0.17564 0.34782 0.76183
 C526 C -0.17843 0.33174 0.74451
 C527 C -0.16370 0.33085 0.72633
 C528 C -0.14671 0.34537 0.72565
 C529 C -0.12560 0.37625 0.74263
 N530 N -0.11145 0.37538 0.72508
 N531 N -0.09481 0.38866 0.72487
 C532 C -0.09159 0.40338 0.74221
 N533 N -0.10577 0.40430 0.75972
 N534 N -0.12243 0.39103 0.75992
 C535 C -0.07282 0.41786 0.74219
 C536 C -0.06906 0.43251 0.76060
 C537 C -0.05110 0.44580 0.76079
 C538 C -0.03669 0.44481 0.74250
 C539 C -0.04034 0.43025 0.72413
 C540 C -0.05826 0.41693 0.72392
 H541 H -0.15700 0.37430 0.77484
 H542 H -0.18641 0.34936 0.77618
 H543 H -0.16503 0.31896 0.71252
 H544 H -0.13569 0.34406 0.71145
 H545 H -0.07988 0.43360 0.77499
 H546 H -0.04835 0.45677 0.77525
 H547 H -0.02925 0.42918 0.70996
 H548 H -0.06061 0.40583 0.70950
 C549 C 0.26185 0.14858 0.35476
 C550 C 0.27917 0.15439 0.34107
 C551 C 0.27800 0.17229 0.32715
 C552 C 0.25946 0.18485 0.32652
 C553 C 0.24218 0.17909 0.34033
 C554 C 0.24336 0.16119 0.35427
 C555 C 0.26300 0.12943 0.36934
 N556 N 0.24648 0.12408 0.38301
 N557 N 0.24746 0.10681 0.39600
 C558 C 0.26500 0.09411 0.39586
 N559 N 0.28154 0.09947 0.38220
 N560 N 0.28056 0.11675 0.36923
 C561 C 0.26604 0.07481 0.41023
 C562 C 0.28403 0.06140 0.40961
 C563 C 0.28495 0.04315 0.42307
 C564 C 0.26800 0.03809 0.43751
 C565 C 0.24996 0.05129 0.43808
 C566 C 0.24900 0.06952 0.42462
 H567 H 0.29370 0.14509 0.34107
 H568 H 0.29173 0.17624 0.31696
 H569 H 0.22758 0.18821 0.34029
 H570 H 0.22969 0.15719 0.36458
 H571 H 0.29741 0.06492 0.39868
 H572 H 0.29892 0.03300 0.42231
 H573 H 0.23662 0.04741 0.44894
 H574 H 0.23488 0.07943 0.42548
 C575 C 0.73712 0.15259 0.65026
 C576 C 0.71975 0.15873 0.66404
 C577 C 0.72083 0.17712 0.67840
 C578 C 0.73933 0.18985 0.67940
 C579 C 0.75664 0.18381 0.66544
 C580 C 0.75555 0.16542 0.65105
 C581 C 0.73608 0.13284 0.63535
 N582 N 0.75264 0.12711 0.62159
 N583 N 0.75177 0.10925 0.60837
 C584 C 0.73431 0.09635 0.60835
 N585 N 0.71774 0.10210 0.62210
 N586 N 0.71861 0.11996 0.63530
 C587 C 0.73338 0.07640 0.59375
 C588 C 0.71559 0.06265 0.59444
 C589 C 0.71474 0.04383 0.58072
 C590 C 0.73156 0.03848 0.56593
 C591 C 0.74941 0.05200 0.56528
 C592 C 0.75030 0.07082 0.57902
 H593 H 0.70526 0.14930 0.66381
 H594 H 0.70707 0.18128 0.68866
 H595 H 0.77120 0.19308 0.66574
 H596 H 0.76925 0.16118 0.64068
 H597 H 0.70231 0.06639 0.60563
 H598 H 0.70092 0.03346 0.58153
 H599 H 0.76264 0.04793 0.55414
 H600 H 0.76427 0.08097 0.57809
 C601 C 0.26390 -0.14797 0.64518
 C602 C 0.24719 -0.16295 0.64297
 C603 C 0.24672 -0.18133 0.65626
 C604 C 0.26293 -0.18520 0.67212
 C605 C 0.27957 -0.17013 0.67440
 C606 C 0.28005 -0.15177 0.66110
 C607 C 0.26454 -0.12859 0.63089
 N608 N 0.28098 -0.11443 0.63253
 N609 N 0.28163 -0.09709 0.61961
 C610 C 0.26586 -0.09316 0.60449
 N611 N 0.24940 -0.10731 0.60286
 N612 N 0.24875 -0.12466 0.61578
 C613 C 0.26661 -0.07386 0.59009
 C614 C 0.24992 -0.06946 0.57496
 C615 C 0.25062 -0.05123 0.56146
 C616 C 0.26808 -0.03719 0.56266
 C617 C 0.28469 -0.04139 0.57781
 C618 C 0.28400 -0.05959 0.59136
 H619 H 0.23447 -0.16056 0.63087
 H620 H 0.23368 -0.19254 0.65386
 H621 H 0.29227 -0.17238 0.68651
 H622 H 0.29314 -0.14055 0.66332
 H623 H 0.23625 -0.08004 0.57360
 H624 H 0.23752 -0.04803 0.55008
 H625 H 0.29821 -0.03060 0.57908
 H626 H 0.29710 -0.06244 0.60283
 C627 C 0.73354 -0.15333 0.35164
 C628 C 0.75172 -0.16641 0.35090
 C629 C 0.75281 -0.18442 0.33601
 C630 C 0.73574 -0.18984 0.32146
 C631 C 0.71749 -0.17682 0.32231
 C632 C 0.71641 -0.15879 0.33721
 C633 C 0.73256 -0.13403 0.36722
 N634 N 0.71524 -0.12102 0.36761
 N635 N 0.71447 -0.10355 0.38142
 C636 C 0.73100 -0.09834 0.39545
 N637 N 0.74829 -0.11138 0.39509
 N638 N 0.74906 -0.12884 0.38128
 C639 C 0.73027 -0.07876 0.41063
 C640 C 0.74743 -0.07343 0.42512
 C641 C 0.74685 -0.05481 0.43918
 C642 C 0.72907 -0.04126 0.43914
 C643 C 0.71196 -0.04642 0.42467
 C644 C 0.71251 -0.06504 0.41060
 H645 H 0.76524 -0.16269 0.36175
 H646 H 0.76719 -0.19390 0.33583
 H647 H 0.70394 -0.18051 0.31155
 H648 H 0.70212 -0.14912 0.33735
 H649 H 0.76138 -0.08357 0.42555
 H650 H 0.76031 -0.05089 0.45005
 H651 H 0.69819 -0.03602 0.42431
 H652 H 0.69904 -0.06859 0.39963
 C653 C 0.63665 0.70075 -0.17079
 C654 C 0.65149 0.68450 -0.17626
 C655 C 0.66543 0.68665 -0.19467
 C656 C 0.66491 0.70510 -0.20810
 C657 C 0.64983 0.72119 -0.20284
 C658 C 0.63589 0.71904 -0.18442
 C659 C 0.62234 0.69881 -0.15077
 N660 N 0.60824 0.71466 -0.14521
 N661 N 0.59572 0.71315 -0.12695
 C662 C 0.59675 0.69571 -0.11344
 N663 N 0.61079 0.67981 -0.11905
 N664 N 0.62331 0.68133 -0.13732
 C665 C 0.58313 0.69424 -0.09282
 C666 C 0.58447 0.67629 -0.07868
 C667 C 0.57199 0.67516 -0.05896
 C668 C 0.55784 0.69185 -0.05308
 C669 C 0.55645 0.70979 -0.06708
 C670 C 0.56891 0.71095 -0.08681
 H671 H 0.65248 0.67014 -0.16620
 H672 H 0.67663 0.67379 -0.19827
 H673 H 0.64892 0.73567 -0.21267
 H674 H 0.62465 0.73187 -0.18075
 H675 H 0.59526 0.66316 -0.08273
 H676 H 0.57339 0.66129 -0.04822
 H677 H 0.54583 0.72297 -0.06260
 H678 H 0.56752 0.72504 -0.09722
 C679 C 0.36431 0.30126 -0.15444
 C680 C 0.36626 0.28375 -0.17012
 C681 C 0.35194 0.28104 -0.18821
 C682 C 0.33526 0.29576 -0.19109
 C683 C 0.33354 0.31348 -0.17562
 C684 C 0.34788 0.31620 -0.15752
 C685 C 0.37902 0.30359 -0.13471
 N686 N 0.37733 0.32056 -0.11957
 N687 N 0.39012 0.32228 -0.10147
 C688 C 0.40515 0.30710 -0.09772
 N689 N 0.40691 0.29021 -0.11293
 N690 N 0.39414 0.28850 -0.13103
 C691 C 0.41890 0.30861 -0.07714
 C692 C 0.43349 0.29212 -0.07257
 C693 C 0.44584 0.29311 -0.05272
 C694 C 0.44402 0.31069 -0.03718
 C695 C 0.42959 0.32721 -0.04170
 C696 C 0.41719 0.32623 -0.06152
 H697 H 0.37877 0.27197 -0.16836
 H698 H 0.35400 0.26732 -0.19985
 H699 H 0.32093 0.32515 -0.17718
 H700 H 0.34591 0.32989 -0.14578
 H701 H 0.43516 0.27826 -0.08413
 H702 H 0.45663 0.28002 -0.04929
 H703 H 0.42782 0.34079 -0.02976
 H704 H 0.40611 0.33918 -0.06445
 C705 C 0.35953 0.70541 0.14691
 C706 C 0.34449 0.68929 0.15143
 C707 C 0.32969 0.69219 0.16909
 C708 C 0.32953 0.71129 0.18269
 C709 C 0.34472 0.72732 0.17829
 C710 C 0.35952 0.72442 0.16064
 C711 C 0.37488 0.70260 0.12778
 N712 N 0.38938 0.71820 0.12334
 N713 N 0.40283 0.71590 0.10584
 C714 C 0.40238 0.69790 0.09201
 N715 N 0.38796 0.68225 0.09652
 N716 N 0.37451 0.68454 0.11403
 C717 C 0.41688 0.69565 0.07205
 C718 C 0.41576 0.67736 0.05725
 C719 C 0.42875 0.67569 0.03788
 C720 C 0.44322 0.69216 0.03301
 C721 C 0.44454 0.71034 0.04780
 C722 C 0.43157 0.71204 0.06719
 H723 H 0.34405 0.67441 0.14126
 H724 H 0.31842 0.67938 0.17201
 H725 H 0.34512 0.74229 0.18825
 H726 H 0.37085 0.73720 0.15766
 H727 H 0.40464 0.66444 0.06042
 H728 H 0.42738 0.66163 0.02652
 H729 H 0.45541 0.72337 0.04411
 H730 H 0.43285 0.72636 0.07817
 C731 C 0.63455 0.29580 0.16939
 C732 C 0.65034 0.31121 0.17464
 C733 C 0.66433 0.30827 0.19283
 C734 C 0.66290 0.28985 0.20626
 C735 C 0.64687 0.27462 0.20120
 C736 C 0.63289 0.27755 0.18300
 C737 C 0.62020 0.29852 0.14957
 N738 N 0.60552 0.28321 0.14387
 N739 N 0.59303 0.28537 0.12572
 C740 C 0.59467 0.30294 0.11246
 N741 N 0.60927 0.31832 0.11823
 N742 N 0.62177 0.31615 0.13638
 C743 C 0.58119 0.30505 0.09185
 C744 C 0.58288 0.32333 0.07822
 C745 C 0.57067 0.32499 0.05840
 C746 C 0.55643 0.30851 0.05191
 C747 C 0.55465 0.29027 0.06543
 C748 C 0.56683 0.28859 0.08527
 H749 H 0.65209 0.32548 0.16455
 H750 H 0.67641 0.32039 0.19608
 H751 H 0.64506 0.26031 0.21117
 H752 H 0.62087 0.26538 0.17953
 H753 H 0.59379 0.33629 0.08271
 H754 H 0.57240 0.33909 0.04803
 H755 H 0.54398 0.27723 0.06046
 H756 H 0.56517 0.27425 0.09527
 C757 C -0.14822 0.63976 0.72096
 C758 C -0.14655 0.66201 0.71756
 C759 C -0.16472 0.67485 0.71668
 C760 C -0.18505 0.66584 0.71986
 C761 C -0.18658 0.64343 0.72318
 C762 C -0.16840 0.63054 0.72343
 C763 C -0.12896 0.62634 0.72249
 N764 N -0.12930 0.60514 0.71590
 N765 N -0.11197 0.59301 0.71766
 C766 C -0.09372 0.60155 0.72635
 N767 N -0.09341 0.62273 0.73299
 N768 N -0.11065 0.63492 0.73098
 C769 C -0.07464 0.58804 0.72891
 C770 C -0.06021 0.59258 0.74669
 C771 C -0.04226 0.57973 0.74937
 C772 C -0.03821 0.56228 0.73414
 C773 C -0.05235 0.55808 0.71597
 C774 C -0.07063 0.57059 0.71364
 H775 H -0.13115 0.66950 0.71549
 H776 H -0.16259 0.69193 0.71418
 H777 H -0.20177 0.63562 0.72536
 H778 H -0.17012 0.61340 0.72610
 H779 H -0.06295 0.60591 0.75873
 H780 H -0.03146 0.58343 0.76336
 H781 H -0.04922 0.54511 0.70362
 H782 H -0.08139 0.56693 0.69962
 C783 C -0.15363 0.36070 0.27702
 C784 C -0.17410 0.36963 0.27804
 C785 C -0.19197 0.35625 0.27883
 C786 C -0.18969 0.33372 0.27916
 C787 C -0.16923 0.32481 0.27843
 C788 C -0.15139 0.33815 0.27712
 C789 C -0.13470 0.37476 0.27579
 N790 N -0.11639 0.36719 0.26632
 N791 N -0.09930 0.37980 0.26517
 C792 C -0.09975 0.40043 0.27365
 N793 N -0.11804 0.40800 0.28321
 N794 N -0.13520 0.39545 0.28415
 C795 C -0.08064 0.41426 0.27258
 C796 C -0.07759 0.43143 0.28849
 C797 C -0.05910 0.44395 0.28790
 C798 C -0.04367 0.43998 0.27094
 C799 C -0.04681 0.42293 0.25495
 C800 C -0.06504 0.41012 0.25584
 H801 H -0.17630 0.38696 0.27789
 H802 H -0.20757 0.36354 0.27950
 H803 H -0.16702 0.30749 0.27848
 H804 H -0.13582 0.33082 0.27643
 H805 H -0.08924 0.43483 0.30173
 H806 H -0.05675 0.45667 0.30076
 H807 H -0.03504 0.41945 0.24185
 H808 H -0.06699 0.39703 0.24333
 C809 C 0.15082 0.36638 0.74239
 C810 C 0.14838 0.34383 0.74155
 C811 C 0.16612 0.33037 0.74011
 C812 C 0.18667 0.33919 0.74000
 C813 C 0.18915 0.36172 0.74118
 C814 C 0.17138 0.37520 0.74209
 C815 C 0.13200 0.38058 0.74345
 N816 N 0.13286 0.40088 0.73531
 N817 N 0.11577 0.41351 0.73592
 C818 C 0.09721 0.40643 0.74490
 N819 N 0.09641 0.38619 0.75317
 N820 N 0.11343 0.37348 0.75236
 C821 C 0.07817 0.42033 0.74541
 C822 C 0.06215 0.41725 0.76173
 C823 C 0.04402 0.43018 0.76204
 C824 C 0.04141 0.44628 0.74586
 C825 C 0.05727 0.44913 0.72930
 C826 C 0.07564 0.43652 0.72930
 H827 H 0.13273 0.33659 0.74167
 H828 H 0.16377 0.31305 0.73938
 H829 H 0.20481 0.36893 0.74099
 H830 H 0.17372 0.39253 0.74281
 H831 H 0.06371 0.40491 0.77437
 H832 H 0.03192 0.42756 0.77485
 H833 H 0.05534 0.46103 0.71625
 H834 H 0.08760 0.43906 0.71634
 C835 C 0.14922 0.63381 0.26663
 C836 C 0.15340 0.64879 0.28459
 C837 C 0.17095 0.66257 0.28367
 C838 C 0.18478 0.66176 0.26477
 C839 C 0.18072 0.64661 0.24692
 C840 C 0.16315 0.63282 0.24783
 C841 C 0.13028 0.61957 0.26741
 N842 N 0.12604 0.60513 0.25007
 N843 N 0.10883 0.59262 0.25064
 C844 C 0.09511 0.59401 0.26857
 N845 N 0.09940 0.60840 0.28594
 N846 N 0.11660 0.62090 0.28537
 C847 C 0.07570 0.58042 0.26904
 C848 C 0.06121 0.58251 0.28731
 C849 C 0.04265 0.57014 0.28749
 C850 C 0.03828 0.55533 0.26952
 C851 C 0.05265 0.55314 0.25127
 C852 C 0.07123 0.56551 0.25105
 H853 H 0.14308 0.64997 0.29939
 H854 H 0.17362 0.67381 0.29789
 H855 H 0.19091 0.64552 0.23203
 H856 H 0.16043 0.62148 0.23369
 H857 H 0.06410 0.59384 0.30142
 H858 H 0.03163 0.57214 0.30163
 H859 H 0.04937 0.54196 0.23711
 H860 H 0.08199 0.56350 0.23670
 C861 C 0.73376 -0.15430 0.64265
 C862 C 0.71588 -0.16043 0.65535
 C863 C 0.71623 -0.17909 0.66821
 C864 C 0.73447 -0.19207 0.66877
 C865 C 0.75238 -0.18590 0.65614
 C866 C 0.75201 -0.16727 0.64321
 C867 C 0.73332 -0.13455 0.62890
 N868 N 0.75019 -0.12907 0.61577
 N869 N 0.74976 -0.11136 0.60340
 C870 C 0.73244 -0.09834 0.60364
 N871 N 0.71558 -0.10381 0.61678
 N872 N 0.71601 -0.12153 0.62913
 C873 C 0.73194 -0.07859 0.58989
 C874 C 0.71434 -0.06465 0.59103
 C875 C 0.71388 -0.04601 0.57815
 C876 C 0.73090 -0.04102 0.56376
 C877 C 0.74854 -0.05475 0.56265
 C878 C 0.74905 -0.07340 0.57555
 H879 H 0.70155 -0.15084 0.65535
 H880 H 0.70220 -0.18318 0.67785
 H881 H 0.76665 -0.19556 0.65597
 H882 H 0.76607 -0.16307 0.63363
 H883 H 0.70092 -0.06808 0.60193
 H884 H 0.70021 -0.03547 0.57934
 H885 H 0.76193 -0.05097 0.55182
 H886 H 0.76287 -0.08371 0.57428
 C887 C 0.26715 -0.15587 0.35397
 C888 C 0.28446 -0.16138 0.33981
 C889 C 0.28379 -0.17986 0.32553
 C890 C 0.26578 -0.19331 0.32502
 C891 C 0.24851 -0.18783 0.33929
 C892 C 0.24919 -0.16936 0.35358
 C893 C 0.26773 -0.13609 0.36890
 N894 N 0.25110 -0.13088 0.38280
 N895 N 0.25152 -0.11302 0.39604
 C896 C 0.26858 -0.09958 0.39596
 N897 N 0.28523 -0.10481 0.38210
 N898 N 0.28481 -0.12268 0.36886
 C899 C 0.26895 -0.07957 0.41053
 C900 C 0.28643 -0.06542 0.40997
 C901 C 0.28666 -0.04644 0.42349
 C902 C 0.26951 -0.04132 0.43793
 C903 C 0.25200 -0.05530 0.43850
 C904 C 0.25174 -0.07428 0.42498
 H905 H 0.29859 -0.15140 0.33970
 H906 H 0.29748 -0.18355 0.31497
 H907 H 0.23430 -0.19763 0.33936
 H908 H 0.23554 -0.16562 0.36423
 H909 H 0.29993 -0.06892 0.39901
 H910 H 0.30022 -0.03571 0.42271
 H911 H 0.23850 -0.05142 0.44933
 H912 H 0.23799 -0.08474 0.42578
 C913 C 0.73153 0.15046 0.36086
 C914 C 0.74985 0.16340 0.35996
 C915 C 0.75029 0.18179 0.34667
 C916 C 0.73241 0.18776 0.33395
 C917 C 0.71411 0.17478 0.33485
 C918 C 0.71368 0.15637 0.34812
 C919 C 0.73105 0.13095 0.37498
 N920 N 0.71360 0.11805 0.37530
 N921 N 0.71316 0.10053 0.38796
 C922 C 0.73015 0.09514 0.40087
 N923 N 0.74760 0.10805 0.40057
 N924 N 0.74804 0.12557 0.38789
 C925 C 0.72968 0.07557 0.41490
 C926 C 0.74705 0.07040 0.42882
 C927 C 0.74665 0.05185 0.44188
 C928 C 0.72886 0.03822 0.44138
 C929 C 0.71157 0.04321 0.42745
 C930 C 0.71192 0.06176 0.41441
 H931 H 0.76392 0.15932 0.36950
 H932 H 0.76474 0.19121 0.34639
 H933 H 0.69997 0.17880 0.32545
 H934 H 0.69928 0.14682 0.34841
 H935 H 0.76100 0.08061 0.42959
 H936 H 0.76025 0.04806 0.45232
 H937 H 0.69778 0.03274 0.42673
 H938 H 0.69830 0.06518 0.40385
 C939 C 0.26545 0.15632 0.64680
 C940 C 0.24719 0.16926 0.64825
 C941 C 0.24674 0.18775 0.66256
 C942 C 0.26455 0.19379 0.67576
 C943 C 0.28283 0.18084 0.67423
 C944 C 0.28326 0.16236 0.65996
 C945 C 0.26594 0.13662 0.63177
 N946 N 0.28333 0.12371 0.63107
 N947 N 0.28377 0.10594 0.61770
 C948 C 0.26686 0.10031 0.60442
 N949 N 0.24947 0.11323 0.60508
 N950 N 0.24902 0.13100 0.61847
 C951 C 0.26734 0.08039 0.58972
 C952 C 0.25003 0.07476 0.57554
 C953 C 0.25046 0.05581 0.56195
 C954 C 0.26822 0.04223 0.56218
 C955 C 0.28547 0.04773 0.57631
 C956 C 0.28509 0.06665 0.58988
 H957 H 0.23316 0.16510 0.63839
 H958 H 0.23233 0.19717 0.66326
 H959 H 0.29693 0.18490 0.68395
 H960 H 0.29763 0.15281 0.65925
 H961 H 0.23610 0.08491 0.57502
 H962 H 0.23690 0.05164 0.55132
 H963 H 0.29923 0.03731 0.57682
 H964 H 0.29867 0.07043 0.60061
   
