data_POSCAR
  _audit_creation_date              2014-09-24
  _audit_creation_method            'ToBaCCo'
  _symmetry_space_group_name_H-M    'P1'
  _symmetry_Int_Tables_number       1
  _symmetry_cell_setting            triclinic
  loop_
  _symmetry_equiv_pos_as_xyz
 x,y,z
_cell_length_a 41.2228
_cell_length_b 41.7710
_cell_length_c 42.4319
_cell_angle_alpha 89.366400
_cell_angle_beta 89.594500
_cell_angle_gamma 90.065900
loop_
  _atom_site_label
  _atom_site_type_symbol
  _atom_site_fract_x
  _atom_site_fract_y
  _atom_site_fract_z
C1 C 0.34141 0.37964 1.36822
 C2 C 0.35354 0.39473 1.34067
 C3 C 0.37948 0.38167 1.32359
 C4 C 0.39382 0.35306 1.33409
 C5 C 0.38248 0.33705 1.36145
 C6 C 0.35668 0.35113 1.37845
 H7 H 0.34167 0.41564 1.33092
 H8 H 0.41301 0.34285 1.31991
 H9 H 0.34994 0.34093 1.40104
 C10 C 1.17359 0.63216 0.86672
 C11 C 1.15837 0.61765 0.84074
 C12 C 1.12990 0.63016 0.82754
 C13 C 1.11550 0.65705 0.84120
 C14 C 1.12941 0.67166 0.86745
 C15 C 1.15837 0.65926 0.87999
 H16 H 1.16774 0.59561 0.83118
 H17 H 1.09397 0.66738 0.83072
 H18 H 1.16929 0.67167 0.89946
 C19 C 0.66139 -0.12677 0.13671
 C20 C 0.64674 -0.15451 0.12435
 C21 C 0.61817 -0.16736 0.13763
 C22 C 0.60385 -0.15241 0.16362
 C23 C 0.61772 -0.12486 0.17646
 C24 C 0.64601 -0.11204 0.16266
 H25 H 0.65793 -0.16720 0.10507
 H26 H 0.58256 -0.16302 0.17463
 H27 H 0.65511 -0.08974 0.17179
 C28 C -0.17703 1.12915 -0.36225
 C29 C -0.16032 1.15654 -0.37346
 C30 C -0.12988 1.16499 -0.36154
 C31 C -0.11620 1.14633 -0.33747
 C32 C -0.13235 1.11920 -0.32542
 C33 C -0.16236 1.11037 -0.33838
 H34 H -0.17008 1.17062 -0.39275
 H35 H -0.09344 1.15379 -0.32724
 H36 H -0.17486 1.08968 -0.32865
 C37 C 0.66642 0.62953 0.61283
 C38 C 0.65045 0.65721 0.60205
 C39 C 0.62166 0.66810 0.61659
 C40 C 0.60910 0.65021 0.64232
 C41 C 0.62485 0.62262 0.65362
 C42 C 0.65341 0.61240 0.63863
 H43 H 0.65989 0.66930 0.58125
 H44 H 0.58819 0.65883 0.65522
 H45 H 0.66575 0.59124 0.64731
 C46 C 0.83393 0.37110 0.13379
 C47 C 0.84875 0.34396 0.12091
 C48 C 0.87676 0.33027 0.13451
 C49 C 0.88986 0.34513 0.16139
 C50 C 0.87515 0.37229 0.17458
 C51 C 0.84729 0.38512 0.16056
 H52 H 0.83837 0.33398 0.09984
 H53 H 0.91073 0.33500 0.17314
 H54 H 0.83565 0.40583 0.17082
 C55 C 0.32615 0.13441 0.87357
 C56 C 0.33991 0.11843 0.84750
 C57 C 0.36558 0.13194 0.83000
 C58 C 0.37813 0.16167 0.83873
 C59 C 0.36521 0.17814 0.86450
 C60 C 0.33938 0.16443 0.88176
 H61 H 0.32948 0.09634 0.83915
 H62 H 0.39842 0.17181 0.82566
 H63 H 0.33024 0.17721 0.90195
 C64 C 0.16715 0.86605 0.37370
 C65 C 0.15696 0.87985 0.34484
 C66 C 0.13460 0.86432 0.32538
 C67 C 0.12196 0.83456 0.33486
 C68 C 0.13110 0.82055 0.36355
 C69 C 0.15335 0.83634 0.38287
 H70 H 0.16725 0.90220 0.33644
 H71 H 0.10513 0.82208 0.31979
 H72 H 0.15939 0.82524 0.40522
 Zn73 Zn -0.02517 1.00373 0.04144
 Zn74 Zn 0.03631 0.98266 0.01151
 Zn75 Zn -0.02698 0.97023 -0.02044
 Zn76 Zn -0.00077 1.03718 -0.01629
 O77 O -0.00420 0.99842 0.00395
 O78 O -0.00191 0.99092 0.07465
 O79 O 0.04299 0.94524 -0.00711
 O80 O -0.06366 0.95604 -0.00150
 O81 O 0.04390 0.97526 0.05244
 O82 O -0.06188 0.98146 0.04388
 O83 O -0.00360 0.93527 -0.03062
 O84 O -0.02037 1.03737 -0.05388
 O85 O 0.06799 1.00860 -0.00253
 O86 O -0.03963 0.98802 -0.05704
 O87 O 0.04043 1.04860 -0.02384
 O88 O -0.01821 1.06950 0.00577
 O89 O -0.03621 1.04434 0.04855
 C90 C 0.02634 0.97913 0.07677
 C91 C 0.02533 0.92737 -0.02386
 C92 C -0.07591 0.96246 0.02526
 C93 C -0.03575 1.01593 -0.06868
 C94 C 0.06720 1.03527 -0.01714
 C95 C -0.03230 1.06987 0.03248
 Zn96 Zn 0.48822 -0.03466 0.48497
 Zn97 Zn 0.51178 -0.00154 0.54220
 Zn98 Zn 0.51891 0.03010 0.47878
 Zn99 Zn 0.45323 0.02226 0.50875
 O100 O 0.49310 0.00412 0.50364
 O101 O 0.50449 -0.06695 0.50784
 O102 O 0.54927 0.01941 0.54536
 O103 O 0.53084 0.01130 0.44261
 O104 O 0.52152 -0.04253 0.55063
 O105 O 0.50788 -0.03639 0.44745
 O106 O 0.55600 0.04142 0.49804
 O107 O 0.45019 0.05993 0.48886
 O108 O 0.48700 0.01233 0.57410
 O109 O 0.49883 0.06678 0.46744
 O110 O 0.44384 0.03040 0.54901
 O111 O 0.42056 -0.00215 0.49480
 O112 O 0.44682 -0.04477 0.47793
 C113 C 0.51791 -0.06779 0.53465
 C114 C 0.56592 0.03592 0.52587
 C115 C 0.52481 -0.01631 0.43182
 C116 C 0.47018 0.07666 0.47281
 C117 C 0.45932 0.02561 0.57435
 C118 C 0.42052 -0.02978 0.48263
 Zn119 Zn 1.01241 0.45279 0.48794
 Zn120 Zn 1.04385 0.51345 0.50731
 Zn121 Zn 0.97809 0.51532 0.47739
 Zn122 Zn 0.98644 0.48853 0.54258
 O123 O 1.00514 0.49260 0.50371
 O124 O 1.05438 0.44493 0.48056
 O125 O 1.04494 0.54987 0.48501
 O126 O 0.96779 0.49329 0.44241
 O127 O 1.07779 0.49030 0.49407
 O128 O 0.99317 0.44741 0.45098
 O129 O 0.99603 0.55241 0.46388
 O130 O 0.94747 0.50668 0.54440
 O131 O 1.05259 0.52457 0.54700
 O132 O 0.94025 0.52592 0.49619
 O133 O 1.00990 0.50609 0.57326
 O134 O 0.97940 0.44789 0.55405
 O135 O 0.99781 0.42104 0.51312
 C136 C 1.07959 0.46208 0.48340
 C137 C 1.02404 0.56427 0.46825
 C138 C 0.97556 0.46523 0.43380
 C139 C 0.93009 0.52110 0.52420
 C140 C 1.03699 0.52057 0.57265
 C141 C 0.98430 0.42163 0.54009
 Zn142 Zn 0.48784 0.49745 0.95368
 Zn143 Zn 0.48414 0.52770 1.01757
 Zn144 Zn 0.51703 0.46455 1.00906
 Zn145 Zn 0.54763 0.52331 0.98283
 O146 O 0.50906 0.50335 0.99083
 O147 O 0.45004 0.51823 0.95268
 O148 O 0.47382 0.50692 1.05391
 O149 O 0.50134 0.43187 0.98710
 O150 O 0.44644 0.53996 0.99992
 O151 O 0.47841 0.45623 0.94650
 O152 O 0.49891 0.46077 1.04698
 O153 O 0.58205 0.50083 0.99596
 O154 O 0.50430 0.56414 1.02868
 O155 O 0.55916 0.45684 1.01502
 O156 O 0.55045 0.56089 1.00197
 O157 O 0.55450 0.53118 0.94188
 O158 O 0.51048 0.51143 0.91989
 C159 C 0.43485 0.53503 0.97270
 C160 C 0.48153 0.47908 1.06368
 C161 C 0.48515 0.43084 0.96182
 C162 C 0.58425 0.47355 1.00919
 C163 C 0.53171 0.57571 1.02062
 C164 C 0.53788 0.52521 0.91758
 C165 C 1.30583 0.42502 0.38271
 C166 C 1.27826 0.43691 0.39796
 C167 C 1.25791 0.41657 0.41562
 C168 C 1.26644 0.38415 0.41875
 C169 C 1.29388 0.37215 0.40346
 C170 C 1.31411 0.39222 0.38477
 C171 C 1.22823 0.43005 0.43039
 C172 C 1.20226 0.41222 0.43839
 C173 C 1.17156 0.42553 0.45115
 C174 C 1.14326 0.40699 0.44901
 C175 C 1.11355 0.41865 0.45990
 C176 C 1.11144 0.44916 0.47339
 C177 C 1.13990 0.46744 0.47634
 C178 C 1.16968 0.45573 0.46547
 H179 H 1.32098 0.44207 0.37011
 H180 H 1.27265 0.46216 0.39567
 H181 H 1.25206 0.36774 0.43295
 H182 H 1.29801 0.34666 0.40542
 H183 H 1.22715 0.45580 0.43262
 H184 H 1.20236 0.38687 0.43348
 H185 H 1.14402 0.38353 0.43839
 H186 H 1.09214 0.40387 0.45736
 H187 H 1.13915 0.49091 0.48691
 H188 H 1.19103 0.47037 0.46860
 C189 C 0.22456 0.60211 0.85918
 C190 C 0.25344 0.58944 0.87074
 C191 C 0.26274 0.59437 0.90196
 C192 C 0.24227 0.61229 0.92165
 C193 C 0.21311 0.62493 0.91017
 C194 C 0.20342 0.61991 0.87866
 C195 C 0.29348 0.57961 0.91274
 C196 C 0.31085 0.58969 0.93739
 C197 C 0.34261 0.57538 0.94607
 C198 C 0.35383 0.57825 0.97709
 C199 C 0.38375 0.56518 0.98593
 C200 C 0.40315 0.54908 0.96381
 C201 C 0.39214 0.54671 0.93266
 C202 C 0.36243 0.55987 0.92382
 H203 H 0.21978 0.59869 0.83443
 H204 H 0.26890 0.57598 0.85494
 H205 H 0.24812 0.61587 0.94616
 H206 H 0.19768 0.63732 0.92672
 H207 H 0.30243 0.55988 0.89887
 H208 H 0.30183 0.60899 0.95178
 H209 H 0.33929 0.59044 0.99460
 H210 H 0.39162 0.56759 1.01008
 H211 H 0.40668 0.53494 0.91487
 H212 H 0.35556 0.55830 0.89934
 C213 C -0.28784 0.90403 0.14259
 C214 C -0.25864 0.91582 0.13039
 C215 C -0.24913 0.90935 0.09939
 C216 C -0.26987 0.89127 0.08042
 C217 C -0.29931 0.87954 0.09251
 C218 C -0.30897 0.88555 0.12398
 C219 C -0.21779 0.92259 0.08793
 C220 C -0.20036 0.91036 0.06407
 C221 C -0.16810 0.92322 0.05462
 C222 C -0.15679 0.91877 0.02367
 C223 C -0.12664 0.93109 0.01401
 C224 C -0.10719 0.94797 0.03525
 C225 C -0.11813 0.95154 0.06645
 C226 C -0.14804 0.93914 0.07609
 H227 H -0.29278 0.90847 0.16721
 H228 H -0.24302 0.92962 0.14557
 H229 H -0.26395 0.88674 0.05600
 H230 H -0.31486 0.86689 0.07644
 H231 H -0.20841 0.94288 0.10061
 H232 H -0.20975 0.89041 0.05088
 H233 H -0.17154 0.90616 0.00680
 H234 H -0.11880 0.92780 -0.01015
 H235 H -0.10350 0.96391 0.08359
 H236 H -0.15501 0.94179 0.10054
 C237 C 0.77047 0.14525 0.61528
 C238 C 0.73982 0.13750 0.60376
 C239 C 0.73036 0.10551 0.60100
 C240 C 0.75163 0.08123 0.61078
 C241 C 0.78191 0.08891 0.62337
 C242 C 0.79209 0.12111 0.62554
 C243 C 0.69762 0.09799 0.58938
 C244 C 0.69240 0.07528 0.56799
 C245 C 0.65947 0.06733 0.55695
 C246 C 0.65451 0.05996 0.52516
 C247 C 0.62370 0.05105 0.51464
 C248 C 0.59767 0.04833 0.53603
 C249 C 0.60269 0.05568 0.56785
 C250 C 0.63321 0.06540 0.57817
 H251 H 0.77642 0.17036 0.61746
 H252 H 0.72349 0.15657 0.59680
 H253 H 0.74458 0.05631 0.60921
 H254 H 0.79773 0.06941 0.63019
 H255 H 0.67758 0.11262 0.59746
 H256 H 0.71286 0.06300 0.55747
 H257 H 0.67451 0.06109 0.50849
 H258 H 0.62049 0.04519 0.49006
 H259 H 0.58302 0.05366 0.58482
 H260 H 0.63653 0.07039 0.60293
 C261 C 0.42842 0.29881 0.36407
 C262 C 0.44145 0.26958 0.37431
 C263 C 0.42278 0.24800 0.39234
 C264 C 0.39037 0.25587 0.39913
 C265 C 0.37734 0.28503 0.38911
 C266 C 0.39610 0.30736 0.37154
 C267 C 0.43731 0.21714 0.40274
 C268 C 0.42644 0.20075 0.42809
 C269 C 0.43874 0.16898 0.43840
 C270 C 0.41885 0.15036 0.45832
 C271 C 0.42902 0.12040 0.46914
 C272 C 0.45961 0.10833 0.46058
 C273 C 0.47978 0.12701 0.44080
 C274 C 0.46947 0.15706 0.42977
 H275 H 0.44440 0.31505 0.35140
 H276 H 0.46644 0.26401 0.36852
 H277 H 0.37451 0.23925 0.41147
 H278 H 0.35191 0.28912 0.39405
 H279 H 0.45741 0.20801 0.38903
 H280 H 0.40676 0.21056 0.44193
 H281 H 0.39516 0.15896 0.46547
 H282 H 0.41289 0.10678 0.48446
 H283 H 0.50357 0.11847 0.43395
 H284 H 0.48589 0.17096 0.41509
 C285 C 0.92091 0.19224 0.61922
 C286 C 0.93722 0.21915 0.60723
 C287 C 0.92062 0.24804 0.60225
 C288 C 0.88711 0.24930 0.60876
 C289 C 0.87078 0.22236 0.62052
 C290 C 0.88752 0.19358 0.62597
 C291 C 0.93853 0.27601 0.58922
 C292 C 0.92988 0.30626 0.59533
 C293 C 0.94654 0.33475 0.58180
 C294 C 0.94287 0.36414 0.59706
 C295 C 0.95606 0.39213 0.58402
 C296 C 0.97299 0.39143 0.55516
 C297 C 0.97718 0.36190 0.54009
 C298 C 0.96405 0.33384 0.55321
 H299 H 0.93430 0.17022 0.62279
 H300 H 0.96292 0.21747 0.60203
 H301 H 0.87330 0.27087 0.60428
 H302 H 0.84506 0.22408 0.62558
 H303 H 0.96013 0.27136 0.57537
 H304 H 0.91019 0.31059 0.61176
 H305 H 0.92935 0.36555 0.61899
 H306 H 0.95228 0.41446 0.59623
 H307 H 0.98990 0.36059 0.51772
 H308 H 0.96670 0.31181 0.54030
 C309 C 0.08042 0.70204 -0.11438
 C310 C 0.06583 0.72979 -0.10289
 C311 C 0.08457 0.75684 -0.09581
 C312 C 0.11840 0.75552 -0.10077
 C313 C 0.13299 0.72767 -0.11208
 C314 C 0.11415 0.70069 -0.11912
 C315 C 0.06776 0.78606 -0.08447
 C316 C 0.08284 0.80980 -0.06931
 C317 C 0.06660 0.83925 -0.05782
 C318 C 0.08342 0.85845 -0.03648
 C319 C 0.06990 0.88684 -0.02544
 C320 C 0.03910 0.89689 -0.03549
 C321 C 0.02210 0.87777 -0.05687
 C322 C 0.03573 0.84932 -0.06807
 H323 H 0.06532 0.68154 -0.11952
 H324 H 0.03976 0.73013 -0.09952
 H325 H 0.13374 0.77605 -0.09680
 H326 H 0.15895 0.72753 -0.11619
 H327 H 0.04181 0.78715 -0.08782
 H328 H 0.10829 0.80732 -0.06381
 H329 H 0.10725 0.85149 -0.02828
 H330 H 0.08371 0.90094 -0.00898
 H331 H -0.00157 0.88499 -0.06526
 H332 H 0.02218 0.83584 -0.08513
 C333 C 0.57038 0.79995 1.12062
 C334 C 0.55712 0.77169 1.10888
 C335 C 0.57716 0.74569 1.10132
 C336 C 0.61076 0.74826 1.10659
 C337 C 0.62399 0.77653 1.11818
 C338 C 0.60399 0.80273 1.12515
 C339 C 0.56222 0.71614 1.08880
 C340 C 0.57871 0.69523 1.07105
 C341 C 0.56486 0.66537 1.05808
 C342 C 0.58247 0.64970 1.03444
 C343 C 0.57146 0.62088 1.02213
 C344 C 0.54248 0.60687 1.03321
 C345 C 0.52461 0.62257 1.05675
 C346 C 0.53573 0.65146 1.06920
 H347 H 0.55440 0.81981 1.12580
 H348 H 0.53116 0.77025 1.10537
 H349 H 0.62693 0.72836 1.10241
 H350 H 0.64987 0.77770 1.12228
 H351 H 0.53660 0.71259 1.09321
 H352 H 0.60357 0.70063 1.06455
 H353 H 0.60503 0.65971 1.02550
 H354 H 0.58584 0.60948 1.00399
 H355 H 0.50231 0.61225 1.06594
 H356 H 0.52175 0.66222 1.08793
 C357 C 0.39482 0.43048 1.29169
 C358 C 0.40466 0.44500 1.26333
 C359 C 0.41039 0.42655 1.23641
 C360 C 0.40527 0.39322 1.23829
 C361 C 0.39561 0.37872 1.26665
 C362 C 0.39041 0.39715 1.29368
 C363 C 0.42090 0.44281 1.20673
 C364 C 0.43747 0.42770 1.18400
 C365 C 0.44867 0.44269 1.15393
 C366 C 0.47097 0.42561 1.13555
 C367 C 0.48168 0.43766 1.10654
 C368 C 0.47033 0.46722 1.09498
 C369 C 0.44812 0.48460 1.11334
 C370 C 0.43725 0.47242 1.14250
 H371 H 0.39095 0.44526 1.31219
 H372 H 0.40809 0.47071 1.26249
 H373 H 0.40800 0.37823 1.21783
 H374 H 0.39152 0.35310 1.26727
 H375 H 0.41605 0.46816 1.20451
 H376 H 0.44444 0.40301 1.18787
 H377 H 0.48012 0.40265 1.14360
 H378 H 0.49885 0.42361 1.09311
 H379 H 0.43879 0.50735 1.10499
 H380 H 0.41953 0.48613 1.15549
 C381 C 0.56962 -0.10806 0.20913
 C382 C 0.55637 -0.09548 0.23676
 C383 C 0.57656 -0.08438 0.26080
 C384 C 0.61040 -0.08628 0.25673
 C385 C 0.62363 -0.09897 0.22918
 C386 C 0.60342 -0.11013 0.20510
 C387 C 0.56160 -0.07305 0.29049
 C388 C 0.57644 -0.05306 0.31032
 C389 C 0.56214 -0.04361 0.34095
 C390 C 0.57144 -0.01446 0.35437
 C391 C 0.55916 -0.00535 0.38375
 C392 C 0.53766 -0.02549 0.40052
 C393 C 0.52862 -0.05482 0.38719
 C394 C 0.54073 -0.06381 0.35780
 H395 H 0.55340 -0.11619 0.19091
 H396 H 0.53024 -0.09450 0.23941
 H397 H 0.62678 -0.07905 0.27515
 H398 H 0.64976 -0.10093 0.22714
 H399 H 0.53713 -0.08103 0.29572
 H400 H 0.59950 -0.04244 0.30368
 H401 H 0.58820 0.00134 0.34202
 H402 H 0.56673 0.01732 0.39343
 H403 H 0.51226 -0.07100 0.39956
 H404 H 0.53386 -0.08695 0.34876
 C405 C -0.08504 1.09663 -0.29554
 C406 C -0.07172 1.08364 -0.26805
 C407 C -0.09166 1.07493 -0.24243
 C408 C -0.12544 1.07888 -0.24511
 C409 C -0.13877 1.09205 -0.27258
 C410 C -0.11867 1.10161 -0.29789
 C411 C -0.07618 1.06455 -0.21258
 C412 C -0.09126 1.04701 -0.19021
 C413 C -0.07596 1.03897 -0.15962
 C414 C -0.08499 1.01068 -0.14372
 C415 C -0.07165 1.00294 -0.11438
 C416 C -0.04943 1.02370 -0.10005
 C417 C -0.04070 1.05223 -0.11583
 C418 C -0.05376 1.05978 -0.14529
 H419 H -0.06893 1.10339 -0.31476
 H420 H -0.04564 1.08092 -0.26659
 H421 H -0.14156 1.07329 -0.22559
 H422 H -0.16468 1.09614 -0.27338
 H423 H -0.05109 1.07136 -0.20921
 H424 H -0.11517 1.03737 -0.19460
 H425 H -0.10232 0.99446 -0.15410
 H426 H -0.07904 0.98088 -0.10274
 H427 H -0.02379 1.06882 -0.10538
 H428 H -0.04702 1.08228 -0.15640
 C429 C 1.08208 0.61272 0.79531
 C430 C 1.06911 0.59933 0.76808
 C431 C 1.08950 0.58860 0.74374
 C432 C 1.12332 0.59088 0.74760
 C433 C 1.13625 0.60441 0.77471
 C434 C 1.11583 0.61554 0.79889
 C435 C 1.07464 0.57458 0.71524
 C436 C 1.09025 0.57215 0.68747
 C437 C 1.07572 0.55851 0.65864
 C438 C 1.09108 0.56466 0.62955
 C439 C 1.07863 0.55224 0.60170
 C440 C 1.05048 0.53326 0.60227
 C441 C 1.03525 0.52673 0.63139
 C442 C 1.04780 0.53904 0.65930
 H443 H 1.06569 0.62057 0.81371
 H444 H 1.04300 0.59750 0.76595
 H445 H 1.14005 0.58196 0.73006
 H446 H 1.16236 0.60644 0.77657
 H447 H 1.04947 0.56748 0.71713
 H448 H 1.11448 0.58184 0.68501
 H449 H 1.11276 0.57932 0.62832
 H450 H 1.09100 0.55770 0.57968
 H451 H 1.01370 0.51192 0.63266
 H452 H 1.03572 0.53275 0.68119
 C453 C 0.72048 0.64120 0.58739
 C454 C 0.74949 0.63110 0.57347
 C455 C 0.75587 0.59840 0.56960
 C456 C 0.73206 0.57596 0.57886
 C457 C 0.70296 0.58607 0.59262
 C458 C 0.69696 0.61879 0.59735
 C459 C 0.78749 0.58854 0.55601
 C460 C 0.80188 0.56089 0.56396
 C461 C 0.83468 0.55163 0.55292
 C462 C 0.85293 0.53087 0.57194
 C463 C 0.88393 0.52133 0.56266
 C464 C 0.89729 0.53192 0.53380
 C465 C 0.87887 0.55236 0.51442
 C466 C 0.84785 0.56222 0.52391
 H467 H 0.71677 0.66657 0.59093
 H468 H 0.76736 0.64885 0.56638
 H469 H 0.73565 0.55061 0.57522
 H470 H 0.68502 0.56825 0.59930
 H471 H 0.80032 0.60571 0.54121
 H472 H 0.79035 0.54531 0.58128
 H473 H 0.84326 0.52220 0.59426
 H474 H 0.89731 0.50535 0.57805
 H475 H 0.88842 0.56075 0.49196
 H476 H 0.83410 0.57759 0.50828
 C477 C 0.77713 0.39146 1.13935
 C478 C 0.74800 0.40201 1.12625
 C479 C 0.74491 0.40570 1.09350
 C480 C 0.77158 0.39844 1.07398
 C481 C 0.80068 0.38769 1.08709
 C482 C 0.80368 0.38398 1.11989
 C483 C 0.71311 0.41557 1.08065
 C484 C 0.70948 0.43016 1.05259
 C485 C 0.67735 0.44014 1.04066
 C486 C 0.67512 0.46735 1.02112
 C487 C 0.64494 0.47802 1.01047
 C488 C 0.61644 0.46133 1.01877
 C489 C 0.61886 0.43338 1.03735
 C490 C 0.64898 0.42288 1.04817
 H491 H 0.77863 0.38836 1.16467
 H492 H 0.72773 0.40715 1.14177
 H493 H 0.76987 0.40018 1.04859
 H494 H 0.82082 0.38214 1.07157
 H495 H 0.69206 0.41195 1.09570
 H496 H 0.73064 0.43688 1.03878
 H497 H 0.69671 0.48080 1.01470
 H498 H 0.64391 0.49952 0.99602
 H499 H 0.59741 0.41982 1.04395
 H500 H 0.64996 0.40117 1.06228
 C501 C 0.29372 1.08759 -0.10894
 C502 C 0.26653 1.07456 -0.09372
 C503 C 0.24383 1.09431 -0.07885
 C504 C 0.24960 1.12746 -0.07832
 C505 C 0.27680 1.14060 -0.09349
 C506 C 0.29926 1.12101 -0.10963
 C507 C 0.21465 1.07940 -0.06421
 C508 C 0.18668 1.09516 -0.05968
 C509 C 0.15664 1.07965 -0.04754
 C510 C 0.12668 1.09391 -0.05446
 C511 C 0.09768 1.07970 -0.04435
 C512 C 0.09800 1.05093 -0.02687
 C513 C 0.12801 1.03706 -0.01918
 C514 C 0.15704 1.05131 -0.02926
 H515 H 0.31074 1.07103 -0.11934
 H516 H 0.26305 1.04885 -0.09389
 H517 H 0.23320 1.14347 -0.06627
 H518 H 0.27898 1.16638 -0.09362
 H519 H 0.21572 1.05395 -0.05935
 H520 H 0.18473 1.11988 -0.06732
 H521 H 0.12567 1.11589 -0.06821
 H522 H 0.07499 1.09111 -0.05055
 H523 H 0.12911 1.01511 -0.00541
 H524 H 0.17961 1.04015 -0.02243
 C525 C 0.19689 -0.08553 0.39023
 C526 C 0.22265 -0.07127 0.40605
 C527 C 0.24404 -0.08977 0.42409
 C528 C 0.23793 -0.12272 0.42763
 C529 C 0.21213 -0.13709 0.41189
 C530 C 0.19152 -0.11895 0.39207
 C531 C 0.27259 -0.07396 0.43829
 C532 C 0.30036 -0.08950 0.44442
 C533 C 0.33044 -0.07357 0.45520
 C534 C 0.36011 -0.08931 0.45051
 C535 C 0.38925 -0.07513 0.45949
 C536 C 0.38943 -0.04486 0.47361
 C537 C 0.35970 -0.02930 0.47893
 C538 C 0.33048 -0.04352 0.46994
 H539 H 0.18094 -0.06990 0.37706
 H540 H 0.22629 -0.04567 0.40358
 H541 H 0.25320 -0.13767 0.44228
 H542 H 0.20989 -0.16280 0.41409
 H543 H 0.27148 -0.04826 0.44093
 H544 H 0.30218 -0.11469 0.43897
 H545 H 0.36081 -0.11255 0.43944
 H546 H 0.41167 -0.08789 0.45518
 H547 H 0.35898 -0.00611 0.49008
 H548 H 0.30812 -0.03100 0.47492
 C549 C 0.57232 -0.29915 0.60984
 C550 C 0.55722 -0.27086 0.59998
 C551 C 0.57545 -0.24570 0.58687
 C552 C 0.60899 -0.24970 0.58269
 C553 C 0.62410 -0.27814 0.59200
 C554 C 0.60615 -0.30338 0.60613
 C555 C 0.55882 -0.21597 0.57688
 C556 C 0.57288 -0.18712 0.57876
 C557 C 0.55685 -0.15719 0.56838
 C558 C 0.56544 -0.12832 0.58271
 C559 C 0.55205 -0.09936 0.57240
 C560 C 0.53024 -0.09865 0.54709
 C561 C 0.52156 -0.12759 0.53280
 C562 C 0.53465 -0.15659 0.54337
 H563 H 0.55702 -0.31806 0.61928
 H564 H 0.53120 -0.26851 0.60288
 H565 H 0.62363 -0.23094 0.57196
 H566 H 0.65017 -0.27947 0.58927
 H567 H 0.53385 -0.21784 0.56936
 H568 H 0.59659 -0.18508 0.58942
 H569 H 0.58269 -0.12817 0.60184
 H570 H 0.55940 -0.07744 0.58374
 H571 H 0.50493 -0.12781 0.51315
 H572 H 0.52815 -0.17832 0.53126
 C573 C 1.12128 0.76274 0.35252
 C574 C 1.11011 0.73242 0.36169
 C575 C 1.09479 0.72781 0.39101
 C576 C 1.09124 0.75401 0.41130
 C577 C 1.10304 0.78421 0.40238
 C578 C 1.11810 0.78880 0.37290
 C579 C 1.08477 0.69514 0.40068
 C580 C 1.05861 0.68922 0.41875
 C581 C 1.04997 0.65654 0.42971
 C582 C 1.01722 0.64814 0.43380
 C583 C 1.00862 0.61777 0.44541
 C584 C 1.03272 0.59560 0.45394
 C585 C 1.06549 0.60411 0.44994
 C586 C 1.07404 0.63418 0.43781
 H587 H 1.13309 0.76573 0.32979
 H588 H 1.11342 0.71250 0.34586
 H589 H 1.08022 0.75099 0.43438
 H590 H 1.10040 0.80403 0.41845
 H591 H 1.09890 0.67530 0.39175
 H592 H 1.04253 0.70868 0.42500
 H593 H 0.99829 0.66513 0.42798
 H594 H 0.98319 0.61194 0.44850
 H595 H 1.08459 0.58755 0.45639
 H596 H 1.09952 0.64021 0.43568
 C597 C -0.07574 1.29540 0.12497
 C598 C -0.06216 1.26764 0.11227
 C599 C -0.08160 1.24532 0.09680
 C600 C -0.11481 1.25168 0.09342
 C601 C -0.12838 1.27953 0.10567
 C602 C -0.10920 1.30204 0.12184
 C603 C -0.06670 1.21600 0.08378
 C604 C -0.08278 1.18812 0.08261
 C605 C -0.06855 1.15838 0.06990
 C606 C -0.07947 1.12888 0.08197
 C607 C -0.06740 1.10021 0.07003
 C608 C -0.04462 1.10042 0.04522
 C609 C -0.03395 1.12998 0.03281
 C610 C -0.04568 1.15873 0.04513
 H611 H -0.05951 1.31215 0.13608
 H612 H -0.03636 1.26347 0.11475
 H613 H -0.13042 1.23527 0.08104
 H614 H -0.15433 1.28244 0.10340
 H615 H -0.04145 1.21706 0.07661
 H616 H -0.10686 1.18642 0.09289
 H617 H -0.09730 1.12801 0.10084
 H618 H -0.07627 1.07784 0.07996
 H619 H -0.01647 1.13089 0.01364
 H620 H -0.03739 1.18110 0.03477
 C621 C 0.38655 0.23256 0.84971
 C622 C 0.39955 0.26224 0.85775
 C623 C 0.40520 0.26981 0.88938
 C624 C 0.39677 0.24724 0.91297
 C625 C 0.38380 0.21752 0.90491
 C626 C 0.37868 0.20980 0.87319
 C627 C 0.41890 0.30170 0.89674
 C628 C 0.43459 0.30799 0.92357
 C629 C 0.44821 0.33980 0.93149
 C630 C 0.47049 0.34157 0.95627
 C631 C 0.48296 0.37102 0.96568
 C632 C 0.47337 0.39952 0.95053
 C633 C 0.45132 0.39784 0.92550
 C634 C 0.43870 0.36836 0.91618
 H635 H 0.38234 0.22754 0.82510
 H636 H 0.40539 0.27931 0.83915
 H637 H 0.39966 0.25246 0.93769
 H638 H 0.37808 0.20045 0.92352
 H639 H 0.41710 0.31999 0.87861
 H640 H 0.43876 0.28877 0.94035
 H641 H 0.47813 0.32005 0.96861
 H642 H 0.49987 0.37146 0.98509
 H643 H 0.44319 0.41940 0.91357
 H644 H 0.42092 0.36838 0.89759
 C645 C 0.57861 0.60151 0.68675
 C646 C 0.56659 0.58750 0.71454
 C647 C 0.58776 0.57738 0.73840
 C648 C 0.62144 0.58022 0.73321
 C649 C 0.63345 0.59434 0.70547
 C650 C 0.61217 0.60558 0.68211
 C651 C 0.57377 0.56424 0.76820
 C652 C 0.58970 0.56425 0.79570
 C653 C 0.57556 0.55342 0.82633
 C654 C 0.59174 0.56182 0.85405
 C655 C 0.57955 0.55260 0.88356
 C656 C 0.55078 0.53466 0.88613
 C657 C 0.53468 0.52587 0.85845
 C658 C 0.54698 0.53497 0.82884
 H659 H 0.56159 0.60935 0.66894
 H660 H 0.54059 0.58517 0.71766
 H661 H 0.63870 0.57165 0.75040
 H662 H 0.65942 0.59717 0.70270
 H663 H 0.54875 0.55653 0.76757
 H664 H 0.61381 0.57444 0.79649
 H665 H 0.61387 0.57581 0.85291
 H666 H 0.59263 0.55973 0.90438
 H667 H 0.51264 0.51176 0.85963
 H668 H 0.53413 0.52711 0.80821
 C669 C 0.38461 0.08243 0.80244
 C670 C 0.39641 0.06704 0.77560
 C671 C 0.40175 0.08431 0.74749
 C672 C 0.39604 0.11751 0.74697
 C673 C 0.38448 0.13291 0.77382
 C674 C 0.37847 0.11552 0.80177
 C675 C 0.41414 0.06739 0.71941
 C676 C 0.40721 0.07700 0.68998
 C677 C 0.42001 0.06137 0.66133
 C678 C 0.40347 0.06595 0.63287
 C679 C 0.41576 0.05356 0.60482
 C680 C 0.44516 0.03656 0.60453
 C681 C 0.46158 0.03158 0.63309
 C682 C 0.44918 0.04389 0.66122
 H683 H 0.38056 0.06855 0.82382
 H684 H 0.40103 0.04153 0.77668
 H685 H 0.40088 0.13177 0.72602
 H686 H 0.37986 0.15841 0.77261
 H687 H 0.42805 0.04575 0.72327
 H688 H 0.39057 0.09675 0.68648
 H689 H 0.38107 0.07950 0.63228
 H690 H 0.40254 0.05792 0.58323
 H691 H 0.48439 0.01876 0.63363
 H692 H 0.46311 0.04058 0.68251
 C693 C 0.14839 0.89325 0.27487
 C694 C 0.13936 0.90708 0.24612
 C695 C 0.10680 0.90711 0.23670
 C696 C 0.08345 0.89233 0.25642
 C697 C 0.09249 0.87851 0.28519
 C698 C 0.12503 0.87893 0.29478
 C699 C 0.09847 0.92155 0.20571
 C700 C 0.06862 0.93192 0.19844
 C701 C 0.05970 0.94545 0.16718
 C702 C 0.03067 0.96278 0.16464
 C703 C 0.02022 0.97441 0.13544
 C704 C 0.03857 0.96887 0.10801
 C705 C 0.06787 0.95190 0.11054
 C706 C 0.07826 0.94015 0.13973
 H707 H 0.17376 0.89337 0.28131
 H708 H 0.15789 0.91785 0.23120
 H709 H 0.05827 0.89083 0.24961
 H710 H 0.07397 0.86766 0.30005
 H711 H 0.11812 0.92471 0.18895
 H712 H 0.04979 0.93138 0.21633
 H713 H 0.01579 0.96707 0.18531
 H714 H -0.00251 0.98733 0.13431
 H715 H 0.08240 0.94693 0.08980
 H716 H 0.10027 0.92613 0.14031
 C717 C 0.89069 0.41976 0.20694
 C718 C 0.90097 0.43311 0.23525
 C719 C 0.90852 0.41350 0.26128
 C720 C 0.90536 0.38005 0.25831
 C721 C 0.89533 0.36672 0.22992
 C722 C 0.88774 0.38642 0.20400
 C723 C 0.91840 0.42893 0.29117
 C724 C 0.93380 0.41335 0.31450
 C725 C 0.94394 0.42806 0.34463
 C726 C 0.96536 0.41074 0.36386
 C727 C 0.97544 0.42285 0.39268
 C728 C 0.96433 0.45273 0.40317
 C729 C 0.94275 0.47016 0.38410
 C730 C 0.93250 0.45793 0.35518
 H731 H 0.88503 0.43550 0.18729
 H732 H 0.90295 0.45891 0.23685
 H733 H 0.90967 0.36396 0.27794
 H734 H 0.89252 0.34099 0.22853
 H735 H 0.91370 0.45427 0.29319
 H736 H 0.94061 0.38862 0.31123
 H737 H 0.97445 0.38763 0.35654
 H738 H 0.99210 0.40873 0.40670
 H739 H 0.93359 0.49316 0.39162
 H740 H 0.91534 0.47182 0.34164
   
