data_POSCAR
  _audit_creation_date              2014-09-24
  _audit_creation_method            'ToBaCCo'
  _symmetry_space_group_name_H-M    'P1'
  _symmetry_Int_Tables_number       1
  _symmetry_cell_setting            triclinic
  loop_
  _symmetry_equiv_pos_as_xyz
 x,y,z
_cell_length_a 14.9343
_cell_length_b 14.9628
_cell_length_c 17.7262
_cell_angle_alpha 89.305900
_cell_angle_beta 86.418100
_cell_angle_gamma 89.990200
loop_
  _atom_site_label
  _atom_site_type_symbol
  _atom_site_fract_x
  _atom_site_fract_y
  _atom_site_fract_z
O1 O 0.06142 0.58857 1.07154
 O2 O 0.06244 0.42201 0.92706
 O3 O 0.04622 0.59907 0.92594
 O4 O 0.01658 0.41855 1.07325
 O5 O -0.12956 0.43967 1.07199
 O6 O -0.10095 0.60415 0.92344
 O7 O -0.08497 0.42608 0.92542
 O8 O -0.08476 0.60769 1.06804
 Cu9 Cu 0.05955 0.50553 0.99931
 Cu10 Cu -0.11333 0.51940 0.99591
 C11 C -0.00944 0.62888 1.09372
 C12 C -0.00927 0.39272 0.90256
 C13 C -0.02468 0.63366 0.90081
 C14 C -0.06378 0.39949 1.09775
 O15 O 0.60293 0.06412 0.43000
 O16 O 0.42423 0.05939 0.57534
 O17 O 0.59449 0.01262 0.57321
 O18 O 0.42583 0.04653 0.42831
 O19 O 0.42343 -0.09969 0.41484
 O20 O 0.57659 -0.13277 0.56063
 O21 O 0.40613 -0.08583 0.56277
 O22 O 0.59944 -0.08228 0.41867
 Cu23 Cu 0.51325 0.05839 0.50246
 Cu24 Cu 0.50031 -0.11275 0.48807
 C25 C 0.63473 -0.00639 0.40056
 C26 C 0.38242 -0.01170 0.59338
 C27 C 0.61346 -0.06811 0.59128
 C28 C 0.39487 -0.02322 0.39778
 C29 C -0.09683 0.02072 0.28826
 C30 C -0.01099 0.03525 0.25418
 C31 C 0.01180 0.11815 0.22134
 C32 C -0.05098 0.18741 0.22123
 C33 C -0.13666 0.17330 0.25829
 C34 C -0.16049 0.08959 0.29100
 C35 C 0.05454 -0.03762 0.25092
 C36 C 0.03336 -0.11759 0.21621
 C37 C 0.09504 -0.18812 0.21199
 C38 C 0.17849 -0.17691 0.24369
 C39 C 0.20054 -0.09660 0.27906
 C40 C 0.13769 -0.02685 0.28195
 H41 H -0.11187 -0.04343 0.31490
 H42 H 0.07790 0.12750 0.19342
 H43 H -0.03024 -0.12244 0.19057
 H44 H 0.15095 0.03490 0.31028
 H45 H -0.18531 0.22679 0.26250
 H46 H 0.22658 -0.23124 0.24099
 C47 C -0.02851 -0.10419 0.78659
 C48 C -0.03860 -0.01898 0.75482
 C49 C -0.11770 0.00415 0.72127
 C50 C -0.18740 -0.05753 0.71807
 C51 C -0.17815 -0.14248 0.75255
 C52 C -0.09850 -0.16665 0.78643
 C53 C 0.03434 0.04628 0.75550
 C54 C 0.11824 0.02582 0.72073
 C55 C 0.18802 0.08863 0.71854
 C56 C 0.17201 0.17223 0.75279
 C57 C 0.08753 0.19352 0.78795
 C58 C 0.01890 0.12957 0.78882
 H59 H 0.03255 -0.11936 0.81390
 H60 H -0.12363 0.06980 0.69544
 H61 H 0.12665 -0.03793 0.69317
 H62 H -0.04602 0.14243 0.81710
 H63 H -0.23291 -0.18990 0.75433
 H64 H 0.22549 0.22131 0.75166
 C65 C -0.00255 -0.29632 0.14661
 C66 C 0.07784 -0.27116 0.17012
 H67 H -0.06307 -0.25978 0.16250
 H68 H 0.13616 -0.31188 0.15517
 C69 C -0.08520 0.32805 0.15367
 C70 C -0.02501 0.27060 0.17839
 H71 H -0.15579 0.31804 0.16848
 H72 H 0.04498 0.27980 0.15983
 C73 C 0.30313 -0.00652 0.64721
 C74 C 0.27524 0.07270 0.67578
 H75 H 0.26572 -0.06730 0.65939
 H76 H 0.31680 0.13124 0.66412
 C77 C -0.31924 -0.09084 0.64547
 C78 C -0.26633 -0.03106 0.67577
 H79 H -0.30820 -0.16145 0.65468
 H80 H -0.27544 0.03917 0.66258
 C81 C -0.01961 -0.29267 0.85111
 C82 C -0.09470 -0.25392 0.82697
 H83 H 0.04586 -0.26490 0.83540
 H84 H -0.15904 -0.28580 0.84036
 C85 C -0.00410 0.31623 0.85048
 C86 C 0.07570 0.27967 0.82818
 H87 H -0.06636 0.28753 0.83422
 H88 H 0.13674 0.31277 0.84270
 C89 C -0.28885 -0.00061 0.35072
 C90 C -0.24920 0.07875 0.33286
 H91 H -0.26006 -0.06216 0.32890
 H92 H -0.28173 0.14001 0.35180
 C93 C 0.32113 -0.01701 0.34602
 C94 C 0.28581 -0.09169 0.31783
 H95 H 0.29254 0.04809 0.33600
 H96 H 0.31884 -0.15506 0.32704
   
