data_POSCAR
  _audit_creation_date              2014-09-24
  _audit_creation_method            'ToBaCCo'
  _symmetry_space_group_name_H-M    'P1'
  _symmetry_Int_Tables_number       1
  _symmetry_cell_setting            triclinic
  loop_
  _symmetry_equiv_pos_as_xyz
 x,y,z
_cell_length_a 22.4307
_cell_length_b 25.2634
_cell_length_c 7.0720
_cell_angle_alpha 90.002400
_cell_angle_beta 89.996600
_cell_angle_gamma 90.001500
loop_
  _atom_site_label
  _atom_site_type_symbol
  _atom_site_fract_x
  _atom_site_fract_y
  _atom_site_fract_z
O1 O 0.21201 0.30128 0.03240
 O2 O 0.31953 0.19779 0.16524
 O3 O 0.21214 0.19765 0.03250
 O4 O 0.31934 0.30137 0.16624
 O5 O 0.28590 0.30135 0.45944
 O6 O 0.17920 0.19725 0.32585
 O7 O 0.28663 0.19785 0.45911
 O8 O 0.17862 0.30095 0.32565
 Cu9 Cu 0.26956 0.24954 0.07071
 Cu10 Cu 0.22871 0.24932 0.42087
 C11 C 0.17729 0.31939 0.15878
 C12 C 0.32118 0.17963 0.33245
 C13 C 0.17767 0.17893 0.15868
 C14 C 0.32059 0.31966 0.33333
 O15 O 0.82033 0.30120 0.33202
 O16 O 0.71289 0.19776 0.46621
 O17 O 0.82019 0.19756 0.33258
 O18 O 0.71294 0.30128 0.46522
 O19 O 0.67923 0.30069 0.17236
 O20 O 0.78748 0.19783 0.03851
 O21 O 0.68015 0.19709 0.17264
 O22 O 0.78661 0.30143 0.03921
 Cu23 Cu 0.77044 0.24947 0.42736
 Cu24 Cu 0.72954 0.24923 0.07728
 C25 C 0.82139 0.31967 0.16520
 C26 C 0.67846 0.17897 0.34008
 C27 C 0.82187 0.17946 0.16528
 C28 C 0.67800 0.31922 0.33913
 O29 O 0.78768 0.80125 0.96708
 O30 O 0.67985 0.69789 0.83389
 O31 O 0.78728 0.69770 0.96752
 O32 O 0.68020 0.80151 0.83378
 O33 O 0.71352 0.80133 0.54047
 O34 O 0.82039 0.69742 0.67435
 O35 O 0.71312 0.69775 0.54051
 O36 O 0.82077 0.80105 0.67342
 Cu37 Cu 0.72991 0.74959 0.92896
 Cu38 Cu 0.77079 0.74935 0.57883
 C39 C 0.82225 0.81941 0.84036
 C40 C 0.67840 0.67960 0.66679
 C41 C 0.82190 0.67911 0.84154
 C42 C 0.67893 0.81977 0.66665
 O43 O 0.32001 0.80239 0.82872
 O44 O 0.21222 0.69907 0.96193
 O45 O 0.31963 0.69888 0.82871
 O46 O 0.21264 0.80267 0.96247
 O47 O 0.17946 0.80299 0.66941
 O48 O 0.28638 0.69902 0.53533
 O49 O 0.17909 0.69923 0.66834
 O50 O 0.28678 0.80254 0.53529
 Cu51 Cu 0.26993 0.75075 0.92385
 Cu52 Cu 0.22904 0.75100 0.57374
 C53 C 0.32154 0.82063 0.66158
 C54 C 0.17769 0.68084 0.83524
 C55 C 0.32097 0.68064 0.66158
 C56 C 0.17804 0.82132 0.83659
 C57 C 0.97105 -0.00032 0.00110
 C58 C 1.03142 -0.00011 -0.00084
 C59 C 1.06601 0.04848 0.03805
 C60 C 1.06617 -0.04853 -0.04076
 C61 C 0.93641 -0.04864 -0.03898
 C62 C 0.93625 0.04783 0.04231
 C63 C 1.09912 0.07231 -0.10689
 C64 C 1.13522 0.11615 -0.06863
 C65 C 1.13884 0.13694 0.11603
 C66 C 1.10460 0.11306 0.26013
 C67 C 1.06919 0.06895 0.22172
 C68 C 1.06937 -0.06875 -0.22477
 C69 C 1.10486 -0.11278 -0.26393
 C70 C 1.13917 -0.13676 -0.12025
 C71 C 1.13556 -0.11618 0.06471
 C72 C 1.09935 -0.07247 0.10372
 C73 C 0.91380 -0.07940 0.10971
 C74 C 0.87716 -0.12294 0.07141
 C75 C 0.86324 -0.13645 -0.11636
 C76 C 0.88672 -0.10572 -0.26461
 C77 C 0.92230 -0.06178 -0.22599
 C78 C 0.92200 0.06058 0.22957
 C79 C 0.88632 0.10442 0.26905
 C80 C 0.86292 0.13541 0.12138
 C81 C 0.87702 0.12229 -0.06662
 C82 C 0.91374 0.07887 -0.10574
 H83 H 1.09751 0.05654 -0.24927
 H84 H 1.16078 0.13323 -0.18341
 H85 H 1.10639 0.12736 0.40446
 H86 H 1.04541 0.04999 0.33641
 H87 H 1.04551 -0.04970 -0.33910
 H88 H 1.10666 -0.12692 -0.40847
 H89 H 1.09772 -0.05687 0.24636
 H90 H 0.92376 -0.06915 0.25506
 H91 H 0.85949 -0.14579 0.18826
 H92 H 0.87612 -0.11468 -0.41058
 H93 H 0.93813 -0.03752 -0.34187
 H94 H 0.93785 0.03615 0.34495
 H95 H 0.87561 0.11310 0.41515
 H96 H 0.85942 0.14535 -0.18304
 H97 H 0.92384 0.06892 -0.25128
 H98 H 1.16117 -0.13334 0.17921
 C99 C 0.46909 0.49993 0.49878
 C100 C 0.52940 0.49965 0.50136
 C101 C 0.56412 0.54789 0.54246
 C102 C 0.56395 0.45122 0.46152
 C103 C 0.43438 0.45169 0.45769
 C104 C 0.43456 0.54835 0.53877
 C105 C 0.59137 0.57592 0.39479
 C106 C 0.62776 0.61949 0.43421
 C107 C 0.63719 0.63567 0.62214
 C108 C 0.60907 0.60768 0.76934
 C109 C 0.57335 0.56384 0.72979
 C110 C 0.57256 0.43459 0.27465
 C111 C 0.60818 0.39065 0.23589
 C112 C 0.63682 0.36321 0.38336
 C113 C 0.62801 0.38003 0.57086
 C114 C 0.59173 0.42374 0.60953
 C115 C 0.40743 0.42346 0.60543
 C116 C 0.37113 0.37982 0.56601
 C117 C 0.36155 0.36377 0.37803
 C118 C 0.38934 0.39199 0.23078
 C119 C 0.42494 0.43590 0.27032
 C120 C 0.42569 0.56474 0.72576
 C121 C 0.39017 0.60874 0.76465
 C122 C 0.36190 0.63647 0.61718
 C123 C 0.37093 0.61986 0.42955
 C124 C 0.40711 0.57609 0.39075
 H125 H 0.58508 0.56355 0.24945
 H126 H 0.64897 0.64014 0.31804
 H127 H 0.61600 0.61873 0.91568
 H128 H 0.55385 0.54172 0.84548
 H129 H 0.55273 0.45632 0.15859
 H130 H 0.61464 0.37911 0.08981
 H131 H 0.58592 0.43662 0.75450
 H132 H 0.41389 0.43571 0.75082
 H133 H 0.35017 0.35899 0.68221
 H134 H 0.38227 0.38104 0.08440
 H135 H 0.44420 0.45817 0.15462
 H136 H 0.44527 0.54282 0.84177
 H137 H 0.38354 0.62011 0.91082
 H138 H 0.34959 0.64030 0.31319
 H139 H 0.41312 0.56339 0.24566
 H140 H 0.64963 0.35982 0.68721
 C141 C 0.02934 0.50031 -0.00269
 C142 C -0.03099 0.50073 0.00177
 C143 C -0.06557 0.45234 0.04227
 C144 C -0.06570 0.54924 -0.03699
 C145 C 0.06415 0.54850 -0.04346
 C146 C 0.06384 0.45184 0.03697
 C147 C -0.09382 0.42510 -0.10539
 C148 C -0.12978 0.38120 -0.06659
 C149 C -0.13782 0.36394 0.12074
 C150 C -0.10875 0.39118 0.26789
 C151 C -0.07339 0.43530 0.22900
 C152 C -0.06931 0.56938 -0.22102
 C153 C -0.10494 0.61333 -0.25971
 C154 C -0.13908 0.63728 -0.11558
 C155 C -0.13510 0.61680 0.06942
 C156 C -0.09869 0.57318 0.10802
 C157 C 0.08704 0.57914 0.10508
 C158 C 0.12344 0.62280 0.06655
 C159 C 0.13688 0.63657 -0.12134
 C160 C 0.11314 0.60594 -0.26949
 C161 C 0.07775 0.56187 -0.23064
 C162 C 0.07404 0.43624 0.22415
 C163 C 0.10941 0.39214 0.26284
 C164 C 0.13632 0.36356 0.11488
 C165 C 0.12601 0.37939 -0.07295
 C166 C 0.08985 0.42321 -0.11152
 H167 H -0.08858 0.43830 -0.25023
 H168 H -0.15174 0.36117 -0.18270
 H169 H -0.11459 0.37930 0.41388
 H170 H -0.05310 0.45678 0.34484
 H171 H -0.04571 0.55029 -0.33580
 H172 H -0.10702 0.62739 -0.40431
 H173 H -0.09678 0.55766 0.25071
 H174 H 0.07742 0.56871 0.25053
 H175 H 0.14132 0.64555 0.18333
 H176 H 0.12336 0.61511 -0.41557
 H177 H 0.06160 0.53777 -0.34650
 H178 H 0.05554 0.45881 0.34036
 H179 H 0.11709 0.38138 0.40908
 H180 H 0.14629 0.35827 -0.18967
 H181 H 0.08278 0.43525 -0.25682
 H182 H -0.16057 0.63396 0.18425
 C183 C 0.53129 1.00072 0.50175
 C184 C 0.47096 1.00031 0.49724
 C185 C 0.43638 0.95195 0.53765
 C186 C 0.43613 1.04842 0.45568
 C187 C 0.56602 1.04918 0.46250
 C188 C 0.56585 0.95235 0.54276
 C189 C 0.40987 0.92349 0.38968
 C190 C 0.37324 0.88005 0.42898
 C191 C 0.36291 0.86444 0.61704
 C192 C 0.39035 0.89282 0.76450
 C193 C 0.42623 0.93654 0.72507
 C194 C 0.42264 1.06161 0.26825
 C195 C 0.38675 1.10531 0.22875
 C196 C 0.36242 1.13573 0.37646
 C197 C 0.37580 1.12219 0.56458
 C198 C 0.41267 1.07889 0.60378
 C199 C 0.59884 1.07333 0.60745
 C200 C 0.63527 1.11691 0.56849
 C201 C 0.63944 1.13716 0.38319
 C202 C 0.60547 1.11300 0.23910
 C203 C 0.56982 1.06909 0.27817
 C204 C 0.57384 0.93554 0.72969
 C205 C 0.60920 0.89145 0.76895
 C206 C 0.63812 0.86401 0.62196
 C207 C 0.62989 0.88103 0.43443
 C208 C 0.59393 0.92490 0.39526
 H209 H 0.41685 0.93542 0.24422
 H210 H 0.35257 0.85906 0.31263
 H211 H 0.38270 0.88221 0.91090
 H212 H 0.44508 0.95904 0.84091
 H213 H 0.43917 1.03758 0.15272
 H214 H 0.37661 1.11433 0.08250
 H215 H 0.42215 1.06856 0.74940
 H216 H 0.59678 1.05800 0.75037
 H217 H 0.66060 1.13424 0.68331
 H218 H 0.60771 1.12687 0.09430
 H219 H 0.54635 1.04983 0.16347
 H220 H 0.55367 0.95718 0.84537
 H221 H 0.61518 0.87975 0.91507
 H222 H 0.65173 0.86084 0.31841
 H223 H 0.58856 0.93791 0.25027
 H224 H 0.35750 1.14479 0.68105
   
