data_POSCAR
  _audit_creation_date              2014-09-24
  _audit_creation_method            'ToBaCCo'
  _symmetry_space_group_name_H-M    'P1'
  _symmetry_Int_Tables_number       1
  _symmetry_cell_setting            triclinic
  loop_
  _symmetry_equiv_pos_as_xyz
 x,y,z
_cell_length_a 51.5344
_cell_length_b 51.8842
_cell_length_c 45.6088
_cell_angle_alpha 89.937100
_cell_angle_beta 89.924300
_cell_angle_gamma 90.002900
loop_
  _atom_site_label
  _atom_site_type_symbol
  _atom_site_fract_x
  _atom_site_fract_y
  _atom_site_fract_z
C1 C 1.27123 0.22412 0.26557
 C2 C 1.25130 0.23744 0.25123
 C3 C 1.23271 0.22379 0.23512
 C4 C 1.23474 0.19696 0.23193
 C5 C 1.25533 0.18385 0.24562
 C6 C 1.27337 0.19713 0.26326
 C7 C 1.25085 0.26583 0.25179
 C8 C 1.27038 0.27970 0.23727
 C9 C 1.27013 0.30684 0.23687
 C10 C 1.25008 0.31975 0.25194
 C11 C 1.23073 0.30604 0.26716
 C12 C 1.23111 0.27898 0.26668
 H13 H 1.28523 0.23506 0.27818
 H14 H 1.21732 0.23423 0.22411
 H15 H 1.28547 0.26911 0.22591
 H16 H 1.21624 0.26806 0.27802
 H17 H 1.25661 0.16310 0.24332
 H18 H 1.24969 0.34061 0.25232
 C19 C 0.76747 -0.27929 0.26426
 C20 C 0.74882 -0.26548 0.24838
 C21 C 0.72928 -0.27864 0.23319
 C22 C 0.72861 -0.30569 0.23313
 C23 C 0.74756 -0.31935 0.24895
 C24 C 0.76688 -0.30641 0.26509
 C25 C 0.74936 -0.23711 0.24839
 C26 C 0.76980 -0.22380 0.23478
 C27 C 0.77011 -0.19674 0.23450
 C28 C 0.75048 -0.18320 0.24932
 C29 C 0.73032 -0.19637 0.26366
 C30 C 0.72953 -0.22337 0.26245
 H31 H 0.78216 -0.26870 0.27623
 H32 H 0.71486 -0.26771 0.22119
 H33 H 0.78489 -0.23454 0.22360
 H34 H 0.71408 -0.23380 0.27342
 H35 H 0.74683 -0.34020 0.24920
 H36 H 0.75090 -0.16232 0.24972
 C37 C 0.76998 0.22105 -0.23236
 C38 C 0.74976 0.23468 -0.24593
 C39 C 0.72990 0.22125 -0.26025
 C40 C 0.73045 0.19426 -0.26179
 C41 C 0.75037 0.18075 -0.24746
 C42 C 0.77004 0.19398 -0.23240
 C43 C 0.74969 0.26305 -0.24590
 C44 C 0.76882 0.27653 -0.26149
 C45 C 0.76873 0.30365 -0.26235
 C46 C 0.74941 0.31694 -0.24652
 C47 C 0.72998 0.30364 -0.23099
 C48 C 0.73016 0.27657 -0.23103
 H49 H 0.78514 0.23154 -0.22105
 H50 H 0.71468 0.23193 -0.27126
 H51 H 0.78348 0.26567 -0.27323
 H52 H 0.71536 0.26591 -0.21926
 H53 H 0.75062 0.15987 -0.24815
 H54 H 0.74907 0.33780 -0.24681
 C55 C 1.27126 -0.27973 -0.24148
 C56 C 1.25159 -0.26587 -0.25567
 C57 C 1.23195 -0.27899 -0.27067
 C58 C 1.23182 -0.30603 -0.27160
 C59 C 1.25130 -0.31976 -0.25669
 C60 C 1.27124 -0.30686 -0.24151
 C61 C 1.25191 -0.23753 -0.25490
 C62 C 1.27182 -0.22409 -0.26912
 C63 C 1.27351 -0.19719 -0.26692
 C64 C 1.25535 -0.18386 -0.24966
 C65 C 1.23489 -0.19711 -0.23584
 C66 C 1.23312 -0.22400 -0.23888
 H67 H 1.28629 -0.26914 -0.23005
 H68 H 1.21699 -0.26806 -0.28179
 H69 H 1.28611 -0.23469 -0.28174
 H70 H 1.21778 -0.23454 -0.22787
 H71 H 1.25110 -0.34062 -0.25740
 H72 H 1.25660 -0.16308 -0.24781
 C73 C 0.22163 0.26995 0.73523
 C74 C 0.23556 0.25099 0.75033
 C75 C 0.22230 0.23149 0.76550
 C76 C 0.19493 0.23057 0.76544
 C77 C 0.18130 0.24916 0.74891
 C78 C 0.19449 0.26894 0.73404
 C79 C 0.26413 0.25141 0.74972
 C80 C 0.27766 0.27109 0.76409
 C81 C 0.30497 0.27197 0.76338
 C82 C 0.31836 0.25286 0.74739
 C83 C 0.30494 0.23340 0.73223
 C84 C 0.27774 0.23266 0.73385
 H85 H 0.23204 0.28494 0.72354
 H86 H 0.23347 0.21722 0.77740
 H87 H 0.26669 0.28551 0.77601
 H88 H 0.26702 0.21778 0.72243
 H89 H 0.16029 0.24880 0.74814
 H90 H 0.33934 0.25338 0.74615
 C91 C 0.72033 0.77113 0.73652
 C92 C 0.73351 0.75173 0.75184
 C93 C 0.71952 0.73270 0.76684
 C94 C 0.69222 0.73307 0.76736
 C95 C 0.67922 0.75292 0.75214
 C96 C 0.69299 0.77184 0.73617
 C97 C 0.76208 0.75079 0.75175
 C98 C 0.77646 0.76787 0.76915
 C99 C 0.80370 0.76608 0.77034
 C100 C 0.81627 0.74686 0.75380
 C101 C 0.80200 0.72985 0.73610
 C102 C 0.77488 0.73198 0.73518
 H103 H 0.73157 0.78544 0.72471
 H104 H 0.73018 0.71775 0.77828
 H105 H 0.76633 0.78235 0.78188
 H106 H 0.76361 0.71874 0.72196
 H107 H 0.65821 0.75330 0.75218
 H108 H 0.83721 0.74518 0.75453
 C109 C 0.72099 0.27021 0.22955
 C110 C 0.73486 0.25052 0.24357
 C111 C 0.72151 0.23098 0.25854
 C112 C 0.69427 0.23093 0.25960
 C113 C 0.68057 0.25044 0.24485
 C114 C 0.69372 0.27023 0.22982
 C115 C 0.76343 0.25076 0.24346
 C116 C 0.77680 0.26971 0.25923
 C117 C 0.80395 0.26906 0.26111
 C118 C 0.81769 0.24972 0.24616
 C119 C 0.80459 0.23121 0.22921
 C120 C 0.77731 0.23165 0.22840
 H121 H 0.73155 0.28529 0.21822
 H122 H 0.73245 0.21606 0.26967
 H123 H 0.76594 0.28432 0.27098
 H124 H 0.76677 0.21723 0.21604
 H125 H 0.65957 0.25052 0.24562
 H126 H 0.83869 0.24951 0.24725
 C127 C 0.22196 0.76730 0.23859
 C128 C 0.23497 0.74765 0.25370
 C129 C 0.22082 0.72859 0.26844
 C130 C 0.19356 0.72967 0.26965
 C131 C 0.18075 0.74985 0.25480
 C132 C 0.19465 0.76837 0.23842
 C133 C 0.26355 0.74717 0.25447
 C134 C 0.27713 0.76598 0.27030
 C135 C 0.30436 0.76542 0.27167
 C136 C 0.31780 0.74603 0.25640
 C137 C 0.30441 0.72702 0.24047
 C138 C 0.27716 0.72763 0.23990
 H139 H 0.23332 0.78157 0.22686
 H140 H 0.23131 0.71350 0.27984
 H141 H 0.26637 0.78084 0.28175
 H142 H 0.26642 0.71318 0.22781
 H143 H 0.15975 0.75063 0.25521
 H144 H 0.33879 0.74549 0.25732
 N145 N 1.04937 0.02548 0.03094
 N146 N 1.06832 0.04163 0.03715
 N147 N 1.03120 -0.02831 0.05256
 N148 N 1.03625 -0.04542 0.07320
 N149 N 1.04938 -0.02854 0.03234
 N150 N 1.06743 -0.04570 0.03886
 N151 N 1.03150 0.02595 0.05152
 N152 N 1.03787 0.04265 0.07221
 C153 C 1.06071 0.05252 0.06264
 C154 C 1.05876 -0.05626 0.06422
 N155 N 0.95727 -0.02854 0.03232
 N156 N 0.93852 -0.04475 0.03910
 N157 N 0.97537 0.02591 0.05156
 N158 N 0.97020 0.04359 0.07151
 N159 N 0.95723 0.02549 0.03136
 N160 N 0.93915 0.04281 0.03714
 N161 N 0.97517 -0.02836 0.05281
 N162 N 0.96903 -0.04468 0.07404
 Mn163 Mn 1.00331 -0.00119 0.05238
 C164 C 0.94628 -0.05499 0.06488
 C165 C 0.94770 0.05413 0.06205
 N166 N 1.04930 -0.02944 -0.03100
 N167 N 1.06828 -0.04552 -0.03739
 N168 N 1.03103 0.02434 -0.05251
 N169 N 1.03593 0.04164 -0.07302
 N170 N 1.04923 0.02457 -0.03238
 N171 N 1.06713 0.04192 -0.03879
 N172 N 1.03138 -0.02992 -0.05148
 N173 N 1.03773 -0.04653 -0.07226
 Mn174 Mn 1.04949 -0.00199 -0.00003
 C175 C 1.06061 -0.05636 -0.06286
 C176 C 1.05838 0.05259 -0.06402
 N177 N 0.95711 0.02438 -0.03189
 N178 N 0.93827 0.04050 -0.03859
 N179 N 0.97527 -0.03004 -0.05125
 N180 N 0.97016 -0.04787 -0.07106
 N181 N 0.95719 -0.02966 -0.03092
 N182 N 0.93921 -0.04713 -0.03648
 N183 N 0.97497 0.02427 -0.05247
 N184 N 0.96873 0.04055 -0.07368
 Mn185 Mn 0.95703 -0.00208 0.00022
 Mn186 Mn 1.00316 -0.00284 -0.05220
 Cl187 Cl 1.00325 -0.00203 0.00009
 C188 C 0.94595 0.05076 -0.06441
 C189 C 0.94774 -0.05852 -0.06139
 N190 N 1.02369 0.52695 0.55192
 N191 N 1.04177 0.53219 0.57146
 N192 N 0.96796 0.54347 0.53307
 N193 N 0.95072 0.56130 0.53987
 N194 N 0.96932 0.52594 0.55382
 N195 N 0.95323 0.53161 0.57546
 N196 N 1.02249 0.54516 0.53195
 N197 N 1.03972 0.56337 0.53743
 C198 C 1.05174 0.55482 0.56196
 C199 C 0.94147 0.55346 0.56615
 N200 N 0.96725 0.52595 0.44947
 N201 N 0.94955 0.53082 0.42933
 N202 N 1.02128 0.54547 0.46879
 N203 N 1.03706 0.56458 0.46210
 N204 N 1.02187 0.52761 0.44839
 N205 N 1.03837 0.53407 0.42739
 N206 N 0.96702 0.54383 0.46983
 N207 N 0.94935 0.56149 0.46392
 Mn208 Mn 0.99465 0.54468 0.50093
 C209 C 0.93839 0.55288 0.43883
 C210 C 1.04790 0.55702 0.43654
 N211 N 0.97051 0.47037 0.55325
 N212 N 0.95325 0.46508 0.57376
 N213 N 1.02483 0.45356 0.53135
 N214 N 1.04135 0.43496 0.53758
 N215 N 1.02509 0.47130 0.55187
 N216 N 1.04197 0.46520 0.57257
 N217 N 0.97052 0.45244 0.53293
 N218 N 0.95341 0.43431 0.53924
 Mn219 Mn 0.99719 0.49863 0.55298
 C220 C 0.94262 0.44267 0.56458
 C221 C 1.05221 0.44267 0.56302
 N222 N 1.02325 0.47190 0.44812
 N223 N 1.04052 0.46714 0.42742
 N224 N 0.96945 0.45259 0.46960
 N225 N 0.95352 0.43353 0.46324
 N226 N 0.96866 0.47044 0.44917
 N227 N 0.95193 0.46403 0.42848
 N228 N 1.02379 0.45381 0.46828
 N229 N 1.04138 0.43623 0.46180
 Mn230 Mn 0.99529 0.49898 0.44850
 Mn231 Mn 0.99712 0.45292 0.50054
 Cl232 Cl 0.99606 0.49881 0.50073
 C233 C 1.05184 0.44498 0.43645
 C234 C 0.94239 0.44113 0.43785
 N235 N 0.54747 0.02988 0.52824
 N236 N 0.56653 0.04603 0.53411
 N237 N 0.52908 -0.02307 0.55221
 N238 N 0.53400 -0.03968 0.57344
 N239 N 0.54725 -0.02403 0.53201
 N240 N 0.56510 -0.04120 0.53905
 N241 N 0.52944 0.03112 0.54858
 N242 N 0.53570 0.04836 0.56867
 C243 C 0.55869 0.05775 0.55905
 C244 C 0.55641 -0.05099 0.56478
 N245 N 0.45523 -0.02382 0.53186
 N246 N 0.43726 -0.04089 0.53881
 N247 N 0.47356 0.03138 0.54864
 N248 N 0.46840 0.04949 0.56806
 N249 N 0.45527 0.03031 0.52864
 N250 N 0.43706 0.04760 0.53410
 N251 N 0.47301 -0.02257 0.55243
 N252 N 0.46741 -0.03852 0.57411
 Mn253 Mn 0.50127 0.00422 0.55071
 C254 C 0.44528 -0.05005 0.56505
 C255 C 0.44576 0.05962 0.55853
 N256 N 0.54724 -0.02725 0.46885
 N257 N 0.56612 -0.04365 0.46314
 N258 N 0.52917 0.02568 0.44482
 N259 N 0.53408 0.04233 0.42363
 N260 N 0.54729 0.02667 0.46502
 N261 N 0.56510 0.04393 0.45802
 N262 N 0.52919 -0.02848 0.44858
 N263 N 0.53529 -0.04594 0.42866
 Mn264 Mn 0.54750 0.00133 0.49852
 C265 C 0.55818 -0.05548 0.43834
 C266 C 0.55642 0.05370 0.43231
 N267 N 0.45544 0.02723 0.46538
 N268 N 0.43744 0.04421 0.45822
 N269 N 0.47324 -0.02831 0.44869
 N270 N 0.46802 -0.04662 0.42954
 N271 N 0.45495 -0.02694 0.46871
 N272 N 0.43670 -0.04425 0.46359
 N273 N 0.47312 0.02562 0.44468
 N274 N 0.46739 0.04118 0.42269
 Mn275 Mn 0.45498 0.00171 0.49865
 Mn276 Mn 0.50119 -0.00140 0.44645
 Cl277 Cl 0.50122 0.00147 0.49858
 C278 C 0.44534 0.05293 0.43170
 C279 C 0.44533 -0.05656 0.43929
 N280 N 0.52515 0.45545 -0.03224
 N281 N 0.53095 0.43728 -0.05145
 N282 N 0.54313 0.47326 0.02901
 N283 N 0.56121 0.46774 0.04857
 N284 N 0.52482 0.45564 0.02932
 N285 N 0.52981 0.43782 0.04914
 N286 N 0.54284 0.47368 -0.03257
 N287 N 0.56101 0.46852 -0.05208
 C288 C 0.55317 0.44595 -0.06391
 C289 C 0.55239 0.44575 0.06116
 N290 N 0.52508 0.54697 0.02900
 N291 N 0.53067 0.56490 0.04857
 N292 N 0.54287 0.52936 -0.03252
 N293 N 0.56103 0.53527 -0.05190
 N294 N 0.52447 0.54688 -0.03257
 N295 N 0.52947 0.56500 -0.05207
 N296 N 0.54286 0.52884 0.02907
 N297 N 0.56087 0.53378 0.04877
 Mn298 Mn 0.54316 0.50128 -0.00176
 C299 C 0.55287 0.55616 0.06095
 C300 C 0.55214 0.55737 -0.06417
 N301 N 0.46886 0.45534 0.02943
 N302 N 0.46344 0.43747 0.04919
 N303 N 0.45083 0.47300 -0.03197
 N304 N 0.43294 0.46753 -0.05175
 N305 N 0.46922 0.45548 -0.03218
 N306 N 0.46450 0.43778 -0.05219
 N307 N 0.45106 0.47346 0.02963
 N308 N 0.43320 0.46854 0.04958
 Mn309 Mn 0.49701 0.45525 -0.00141
 C310 C 0.44131 0.44619 0.06179
 C311 C 0.44197 0.44568 -0.06438
 N312 N 0.46857 0.54677 -0.03215
 N313 N 0.46331 0.56433 -0.05228
 N314 N 0.45085 0.52903 0.02939
 N315 N 0.43312 0.53428 0.04948
 N316 N 0.46913 0.54666 0.02944
 N317 N 0.46448 0.56425 0.04961
 N318 N 0.45085 0.52858 -0.03221
 N319 N 0.43318 0.53314 -0.05245
 Mn320 Mn 0.49680 0.54706 -0.00157
 Mn321 Mn 0.45064 0.50102 -0.00129
 Cl322 Cl 0.49691 0.50115 -0.00151
 C323 C 0.44134 0.55536 -0.06493
 C324 C 0.44211 0.55615 0.06209
 C325 C 1.18074 0.15616 0.18121
 N326 N 1.20559 0.14777 0.18372
 N327 N 1.22266 0.16067 0.19997
 C328 C 1.21565 0.18263 0.21407
 N329 N 1.19079 0.19110 0.21142
 N330 N 1.17362 0.17803 0.19541
 C331 C 1.16208 0.14177 0.16320
 N332 N 1.13610 0.14545 0.16620
 N333 N 1.11935 0.13200 0.15000
 C334 C 1.12802 0.11461 0.13001
 N335 N 1.15397 0.11109 0.12693
 N336 N 1.17068 0.12431 0.14331
 C337 C 1.10988 0.09952 0.11205
 N338 N 1.11866 0.08705 0.08787
 N339 N 1.10272 0.07259 0.07191
 C340 C 1.07744 0.06984 0.07962
 N341 N 1.06856 0.08233 0.10380
 N342 N 1.08448 0.09705 0.11965
 C343 C 1.17684 0.65354 0.67868
 N344 N 1.17996 0.67932 0.67497
 N345 N 1.19713 0.69227 0.69106
 C346 C 1.21188 0.67993 0.71138
 N347 N 1.20860 0.65415 0.71508
 N348 N 1.19138 0.64123 0.69911
 C349 C 1.15839 0.63899 0.66069
 N350 N 1.15411 0.61364 0.66618
 N351 N 1.13757 0.60021 0.64982
 C352 C 1.12482 0.61160 0.62725
 N353 N 1.12913 0.63696 0.62169
 N354 N 1.14562 0.65043 0.63814
 C355 C 1.10640 0.59672 0.60958
 N356 N 1.09490 0.60725 0.58562
 N357 N 1.07776 0.59376 0.57006
 C358 C 1.07151 0.56931 0.57799
 N359 N 1.08306 0.55877 0.60186
 N360 N 1.10026 0.57220 0.61732
 C361 C 0.67661 0.15547 0.68554
 N362 N 0.66995 0.17780 0.69909
 N363 N 0.68695 0.19006 0.71610
 C364 C 0.71110 0.18026 0.72049
 N365 N 0.71758 0.15778 0.70715
 N366 N 0.70071 0.14569 0.68990
 C367 C 0.65841 0.14231 0.66591
 N368 N 0.66730 0.12471 0.64636
 N369 N 0.65099 0.11268 0.62837
 C370 C 0.62516 0.11763 0.62946
 N371 N 0.61620 0.13517 0.64910
 N372 N 0.63258 0.14744 0.66689
 C373 C 0.60735 0.10358 0.61017
 N374 N 0.58160 0.10210 0.61637
 N375 N 0.56586 0.08792 0.59972
 C376 C 0.57529 0.07501 0.57612
 N377 N 0.60093 0.07683 0.56970
 N378 N 0.61669 0.09076 0.58649
 C379 C 0.67120 0.65372 0.18696
 N380 N 0.66990 0.67978 0.18932
 N381 N 0.68808 0.69274 0.20397
 C382 C 0.70822 0.68013 0.21682
 N383 N 0.70937 0.65407 0.21442
 N384 N 0.69127 0.64114 0.19977
 C385 C 0.65174 0.63920 0.17030
 N386 N 0.65468 0.61345 0.16643
 N387 N 0.63766 0.60013 0.15060
 C388 C 0.61699 0.61204 0.13814
 N389 N 0.61389 0.63779 0.14218
 N390 N 0.63099 0.65116 0.15798
 C391 C 0.59919 0.59731 0.11948
 N392 N 0.57772 0.60842 0.10769
 N393 N 0.56246 0.59514 0.08957
 C394 C 0.56823 0.57036 0.08255
 N395 N 0.58956 0.55926 0.09450
 N396 N 0.60471 0.57246 0.11269
 C397 C 0.82616 -0.15641 0.18605
 N398 N 0.80200 -0.14661 0.18996
 N399 N 0.78441 -0.15932 0.20572
 C400 C 0.79017 -0.18248 0.21794
 N401 N 0.81436 -0.19237 0.21396
 N402 N 0.83209 -0.17948 0.19845
 C403 C 0.84507 -0.14239 0.16797
 N404 N 0.87094 -0.14715 0.17001
 N405 N 0.88782 -0.13401 0.15354
 C406 C 0.87935 -0.11592 0.13423
 N407 N 0.85350 -0.11135 0.13212
 N408 N 0.83670 -0.12421 0.14879
 C409 C 0.89748 -0.10127 0.11577
 N410 N 0.88852 -0.08895 0.09158
 N411 N 0.90436 -0.07474 0.07515
 C412 C 0.92972 -0.07207 0.08242
 N413 N 0.93881 -0.08441 0.10661
 N414 N 0.92297 -0.09891 0.12292
 C415 C 0.82117 0.34395 0.68678
 N416 N 0.82088 0.31780 0.68640
 N417 N 0.80421 0.30475 0.70314
 C418 C 0.78705 0.31730 0.72077
 N419 N 0.78756 0.34351 0.72108
 N420 N 0.80431 0.35655 0.70453
 C421 C 0.83913 0.35852 0.66810
 N422 N 0.84172 0.38436 0.67160
 N423 N 0.85781 0.39778 0.65457
 C424 C 0.87173 0.38588 0.63325
 N425 N 0.86909 0.36003 0.62966
 N426 N 0.85311 0.34657 0.64683
 C427 C 0.88961 0.40075 0.61478
 N428 N 0.90099 0.38992 0.59092
 N429 N 0.91757 0.40342 0.57454
 C430 C 0.92342 0.42816 0.58156
 N431 N 0.91201 0.43899 0.60536
 N432 N 0.89532 0.42556 0.62161
 C433 C 0.33006 -0.15699 0.68539
 N434 N 0.32124 -0.14759 0.71133
 N435 N 0.30331 -0.16037 0.72662
 C436 C 0.29378 -0.18315 0.71668
 N437 N 0.30281 -0.19261 0.69086
 N438 N 0.32050 -0.17970 0.67542
 C439 C 0.34894 -0.14249 0.66786
 N440 N 0.35174 -0.14749 0.63882
 N441 N 0.36817 -0.13377 0.62252
 C442 C 0.38265 -0.11478 0.63476
 N443 N 0.38007 -0.10995 0.66387
 N444 N 0.36340 -0.12348 0.68011
 C445 C 0.39991 -0.09900 0.61653
 N446 N 0.41894 -0.08456 0.62888
 N447 N 0.43391 -0.06945 0.61234
 C448 C 0.43016 -0.06805 0.58293
 N449 N 0.41116 -0.08250 0.57058
 N450 N 0.39641 -0.09784 0.58706
 C451 C 0.32580 0.34806 0.19145
 N452 N 0.30621 0.36033 0.20558
 N453 N 0.28842 0.34702 0.22040
 C454 C 0.28934 0.32085 0.22164
 N455 N 0.30910 0.30863 0.20751
 N456 N 0.32697 0.32195 0.19274
 C457 C 0.34481 0.36287 0.17432
 N458 N 0.36526 0.35105 0.16116
 N459 N 0.38190 0.36454 0.14482
 C460 C 0.37864 0.39030 0.14099
 N461 N 0.35828 0.40209 0.15427
 N462 N 0.34172 0.38865 0.17069
 C463 C 0.39598 0.40510 0.12171
 N464 N 0.39020 0.42988 0.11479
 N465 N 0.40500 0.44307 0.09611
 C466 C 0.42622 0.43202 0.08379
 N467 N 0.43223 0.40732 0.09092
 N468 N 0.41733 0.39406 0.10952
 C469 C 0.82583 0.15283 -0.18461
 N470 N 0.80163 0.14318 -0.18862
 N471 N 0.78411 0.15614 -0.20417
 C472 C 0.78999 0.17942 -0.21606
 N473 N 0.81421 0.18915 -0.21197
 N474 N 0.83187 0.17602 -0.19667
 C475 C 0.84468 0.13856 -0.16676
 N476 N 0.87055 0.14336 -0.16872
 N477 N 0.88740 0.13007 -0.15243
 C478 C 0.87890 0.11177 -0.13337
 N479 N 0.85305 0.10714 -0.13136
 N480 N 0.83628 0.12016 -0.14785
 C481 C 0.89701 0.09701 -0.11506
 N482 N 0.88804 0.08448 -0.09098
 N483 N 0.90391 0.07026 -0.07464
 C484 C 0.92931 0.06779 -0.08189
 N485 N 0.93841 0.08032 -0.10598
 N486 N 0.92254 0.09483 -0.12220
 C487 C 0.81794 0.65233 0.31661
 N488 N 0.80110 0.64004 0.29861
 N489 N 0.78479 0.65339 0.28186
 C490 C 0.78473 0.67960 0.28221
 N491 N 0.80185 0.69184 0.30011
 N492 N 0.81808 0.67848 0.31704
 C493 C 0.83546 0.63747 0.33547
 N494 N 0.84933 0.64921 0.35693
 N495 N 0.86500 0.63554 0.37420
 C496 C 0.86743 0.60968 0.37052
 N497 N 0.85361 0.59798 0.34902
 N498 N 0.83782 0.61161 0.33189
 C499 C 0.88511 0.59465 0.38902
 N500 N 0.89092 0.56989 0.38205
 N501 N 0.90763 0.55644 0.39822
 C502 C 0.91894 0.56721 0.42209
 N503 N 0.91296 0.59188 0.42926
 N504 N 0.89637 0.60540 0.41297
 C505 C 0.32943 0.15766 0.30977
 N506 N 0.31528 0.14551 0.28886
 N507 N 0.29725 0.15825 0.27376
 C508 C 0.29288 0.18375 0.27864
 N509 N 0.30740 0.19588 0.29934
 N510 N 0.32515 0.18306 0.31476
 C511 C 0.34841 0.14336 0.32737
 N512 N 0.35465 0.15143 0.35477
 N513 N 0.37108 0.13791 0.37127
 C514 C 0.38219 0.11606 0.36075
 N515 N 0.37619 0.10816 0.33321
 N516 N 0.35945 0.12147 0.31689
 C517 C 0.39958 0.10067 0.37924
 N518 N 0.41726 0.08456 0.36697
 N519 N 0.43237 0.06985 0.38377
 C520 C 0.43006 0.07048 0.41340
 N521 N 0.41237 0.08657 0.42569
 N522 N 0.39754 0.10156 0.40890
 C523 C 0.32718 0.65199 -0.19673
 N524 N 0.30772 0.63967 -0.21095
 N525 N 0.28984 0.65296 -0.22561
 C526 C 0.29057 0.67915 -0.22656
 N527 N 0.31022 0.69141 -0.21236
 N528 N 0.32817 0.67811 -0.19776
 C529 C 0.34618 0.63725 -0.17962
 N530 N 0.36647 0.64919 -0.16637
 N531 N 0.38301 0.63582 -0.14984
 C532 C 0.37979 0.61006 -0.14592
 N533 N 0.35960 0.59814 -0.15932
 N534 N 0.34314 0.61148 -0.17592
 C535 C 0.39690 0.59549 -0.12627
 N536 N 0.39102 0.57080 -0.11900
 N537 N 0.40554 0.55790 -0.09986
 C538 C 0.42656 0.56915 -0.08741
 N539 N 0.43268 0.59374 -0.09491
 N540 N 0.41806 0.60672 -0.11397
 C541 C 1.18074 -0.15707 -0.18451
 N542 N 1.17381 -0.17901 -0.19866
 N543 N 1.19101 -0.19179 -0.21494
 C544 C 1.21570 -0.18295 -0.21795
 N545 N 1.22253 -0.16089 -0.20394
 N546 N 1.20542 -0.14828 -0.18741
 C547 C 1.16210 -0.14312 -0.16604
 N548 N 1.17066 -0.12574 -0.14607
 N549 N 1.15395 -0.11300 -0.12919
 C550 C 1.12803 -0.11694 -0.13183
 N551 N 1.11940 -0.13424 -0.15191
 N552 N 1.13616 -0.14723 -0.16860
 C553 C 1.10988 -0.10236 -0.11337
 N554 N 1.08440 -0.10012 -0.12061
 N555 N 1.06843 -0.08576 -0.10435
 C556 C 1.07737 -0.07343 -0.08013
 N557 N 1.10272 -0.07597 -0.07275
 N558 N 1.11870 -0.09006 -0.08912
 C559 C 1.17546 0.34671 0.31649
 N560 N 1.17911 0.32108 0.32093
 N561 N 1.19635 0.30804 0.30496
 C562 C 1.21066 0.32015 0.28402
 N563 N 1.20685 0.34577 0.27957
 N564 N 1.18955 0.35877 0.29542
 C565 C 1.15701 0.36134 0.33451
 N566 N 1.15191 0.38643 0.32832
 N567 N 1.13546 0.39989 0.34484
 C568 C 1.12365 0.38881 0.36829
 N569 N 1.12877 0.36372 0.37452
 N570 N 1.14514 0.35021 0.35791
 C571 C 1.10548 0.40367 0.38643
 N572 N 1.09543 0.39341 0.41138
 N573 N 1.07863 0.40676 0.42758
 C574 C 1.07123 0.43081 0.41936
 N575 N 1.08131 0.44111 0.39447
 N576 N 1.09820 0.42780 0.37834
 C577 C 0.67617 -0.15635 0.31485
 N578 N 0.66946 -0.17880 0.30160
 N579 N 0.68658 -0.19148 0.28509
 C580 C 0.71090 -0.18200 0.28093
 N581 N 0.71744 -0.15941 0.29397
 N582 N 0.70045 -0.14690 0.31072
 C583 C 0.65786 -0.14269 0.33393
 N584 N 0.66672 -0.12496 0.35332
 N585 N 0.65033 -0.11247 0.37082
 C586 C 0.62444 -0.11704 0.36939
 N587 N 0.61551 -0.13471 0.34991
 N588 N 0.63197 -0.14746 0.33260
 C589 C 0.60661 -0.10252 0.38823
 N590 N 0.58096 -0.10068 0.38170
 N591 N 0.56527 -0.08609 0.39799
 C592 C 0.57465 -0.07311 0.42155
 N593 N 0.60018 -0.07529 0.42829
 N594 N 0.61589 -0.08963 0.41186
 C595 C 0.67260 0.34543 -0.18601
 N596 N 0.67088 0.31939 -0.18821
 N597 N 0.68906 0.30604 -0.20246
 C598 C 0.70961 0.31823 -0.21505
 N599 N 0.71118 0.34428 -0.21280
 N600 N 0.69309 0.35760 -0.19855
 C601 C 0.65309 0.36040 -0.16986
 N602 N 0.65633 0.38615 -0.16627
 N603 N 0.63922 0.39988 -0.15098
 C604 C 0.61815 0.38840 -0.13879
 N605 N 0.61476 0.36265 -0.14254
 N606 N 0.63194 0.34887 -0.15780
 C607 C 0.60018 0.40358 -0.12076
 N608 N 0.57842 0.39283 -0.10917
 N609 N 0.56296 0.40650 -0.09160
 C610 C 0.56879 0.43135 -0.08499
 N611 N 0.59041 0.44211 -0.09674
 N612 N 0.60578 0.42850 -0.11437
 C613 C 1.15510 0.17699 -0.18475
 N614 N 1.18138 0.17828 -0.18365
 N615 N 1.19428 0.19531 -0.20002
 C616 C 1.18143 0.21187 -0.21804
 N617 N 1.15509 0.21040 -0.21910
 N618 N 1.14221 0.19328 -0.20289
 C619 C 1.14073 0.15856 -0.16640
 N620 N 1.11486 0.15505 -0.17036
 N621 N 1.10171 0.13850 -0.15365
 C622 C 1.11388 0.12499 -0.13220
 N623 N 1.13974 0.12854 -0.12816
 N624 N 1.15294 0.14499 -0.14500
 C625 C 1.09931 0.10663 -0.11395
 N626 N 1.11042 0.09552 -0.09008
 N627 N 1.09725 0.07859 -0.07386
 C628 C 1.07254 0.07208 -0.08100
 N629 N 1.06143 0.08319 -0.10482
 N630 N 1.07453 0.10023 -0.12093
 C631 C 1.15182 0.67577 0.31679
 N632 N 1.14008 0.69711 0.30592
 N633 N 1.15350 0.71430 0.29041
 C634 C 1.17933 0.71111 0.28551
 N635 N 1.19104 0.68969 0.29657
 N636 N 1.17752 0.67227 0.31174
 C637 C 1.13696 0.65730 0.33444
 N638 N 1.14467 0.63236 0.33707
 N639 N 1.13095 0.61577 0.35321
 C640 C 1.10929 0.62367 0.36761
 N641 N 1.10172 0.64862 0.36509
 N642 N 1.11519 0.66508 0.34864
 C643 C 1.09423 0.60588 0.38593
 N644 N 1.07926 0.61527 0.40793
 N645 N 1.06496 0.59949 0.42432
 C646 C 1.06482 0.57377 0.41909
 N647 N 1.07973 0.56428 0.39703
 N648 N 1.09437 0.58007 0.38085
 C649 C 0.65366 0.17636 0.30992
 N650 N 0.67958 0.17967 0.31358
 N651 N 0.69256 0.19669 0.29729
 C652 C 0.68011 0.21115 0.27680
 N653 N 0.65417 0.20771 0.27315
 N654 N 0.64122 0.19061 0.28931
 C655 C 0.63916 0.15805 0.32828
 N656 N 0.61380 0.15299 0.32270
 N657 N 0.60053 0.13662 0.33952
 C658 C 0.61208 0.12483 0.36266
 N659 N 0.63743 0.12991 0.36828
 N660 N 0.65075 0.14620 0.35137
 C661 C 0.59742 0.10674 0.38114
 N662 N 0.60803 0.09696 0.40601
 N663 N 0.59482 0.08031 0.42256
 C664 C 0.57056 0.07279 0.41476
 N665 N 0.55993 0.08258 0.38993
 N666 N 0.57309 0.09932 0.37347
 C667 C 0.65091 0.67709 -0.18802
 N668 N 0.67721 0.67615 -0.18918
 N669 N 0.69054 0.69420 -0.20357
 C670 C 0.67816 0.71392 -0.21743
 N671 N 0.65179 0.71466 -0.21624
 N672 N 0.63847 0.69668 -0.20180
 C673 C 0.63609 0.65762 -0.17162
 N674 N 0.61005 0.66019 -0.16829
 N675 N 0.59657 0.64307 -0.15272
 C676 C 0.60859 0.62265 -0.14001
 N677 N 0.63463 0.61993 -0.14351
 N678 N 0.64814 0.63713 -0.15902
 C679 C 0.59371 0.60461 -0.12169
 N680 N 0.60501 0.58329 -0.10998
 N681 N 0.59163 0.56775 -0.09221
 C682 C 0.56652 0.57305 -0.08547
 N683 N 0.55522 0.59424 -0.09733
 N684 N 0.56853 0.60968 -0.11517
 C685 C 0.84714 -0.18315 -0.17729
 N686 N 0.85893 -0.19797 -0.19788
 N687 N 0.84515 -0.21409 -0.21441
 C688 C 0.81899 -0.21596 -0.21115
 N689 N 0.80723 -0.20105 -0.19056
 N690 N 0.82102 -0.18501 -0.17392
 C691 C 0.86241 -0.16529 -0.15916
 N692 N 0.85121 -0.15236 -0.13657
 N693 N 0.86505 -0.13604 -0.12032
 C694 C 0.89058 -0.13196 -0.12613
 N695 N 0.90177 -0.14488 -0.14872
 N696 N 0.88796 -0.16129 -0.16487
 C697 C 0.90573 -0.11347 -0.10869
 N698 N 0.93020 -0.10691 -0.11689
 N699 N 0.94369 -0.08962 -0.10162
 C700 C 0.93327 -0.07836 -0.07747
 N701 N 0.90888 -0.08504 -0.06911
 N702 N 0.89534 -0.10225 -0.08448
 C703 C 0.84318 0.32254 0.31365
 N704 N 0.85279 0.29844 0.30969
 N705 N 0.84046 0.28159 0.29269
 C706 C 0.81791 0.28809 0.27924
 N707 N 0.80825 0.31220 0.28329
 N708 N 0.82074 0.32918 0.30004
 C709 C 0.85676 0.34086 0.33270
 N710 N 0.85192 0.36656 0.33105
 N711 N 0.86460 0.38306 0.34825
 C712 C 0.88231 0.37438 0.36796
 N713 N 0.88697 0.34869 0.36972
 N714 N 0.87453 0.33225 0.35232
 C715 C 0.89665 0.39229 0.38682
 N716 N 0.90933 0.38329 0.41078
 N717 N 0.92332 0.39911 0.42740
 C718 C 0.92535 0.42447 0.42053
 N719 N 0.91262 0.43356 0.39661
 N720 N 0.89837 0.41775 0.38013
 C721 C 0.34577 -0.18140 0.32292
 N722 N 0.35814 -0.19625 0.30281
 N723 N 0.34494 -0.21295 0.28645
 C724 C 0.31882 -0.21540 0.28939
 N725 N 0.30644 -0.20039 0.30943
 N726 N 0.31965 -0.18374 0.32590
 C727 C 0.36055 -0.16326 0.34114
 N728 N 0.34892 -0.15011 0.36329
 N729 N 0.36251 -0.13375 0.37977
 C730 C 0.38820 -0.12992 0.37465
 N731 N 0.39978 -0.14306 0.35249
 N732 N 0.38624 -0.15947 0.33611
 C733 C 0.40320 -0.11149 0.39225
 N734 N 0.42799 -0.10561 0.38468
 N735 N 0.44148 -0.08837 0.39997
 C736 C 0.43075 -0.07648 0.42353
 N737 N 0.40603 -0.08247 0.43131
 N738 N 0.39248 -0.09965 0.41591
 C739 C 0.34530 0.32870 -0.19250
 N740 N 0.35809 0.30988 -0.20722
 N741 N 0.34506 0.29172 -0.22160
 C742 C 0.31867 0.29149 -0.22176
 N743 N 0.30593 0.31046 -0.20701
 N744 N 0.31897 0.32870 -0.19269
 C745 C 0.35983 0.34811 -0.17586
 N746 N 0.34743 0.36788 -0.16226
 N747 N 0.36070 0.38485 -0.14627
 C748 C 0.38682 0.38260 -0.14326
 N749 N 0.39919 0.36293 -0.15699
 N750 N 0.38596 0.34604 -0.17306
 C751 C 0.40140 0.40017 -0.12421
 N752 N 0.42657 0.39508 -0.11770
 N753 N 0.43958 0.40997 -0.09908
 C754 C 0.42797 0.43062 -0.08642
 N755 N 0.40288 0.43597 -0.09317
 N756 N 0.38980 0.42096 -0.11170
 C757 C 1.15546 -0.17832 0.18770
 N758 N 1.14237 -0.19439 0.20593
 N759 N 1.15505 -0.21137 0.22247
 C760 C 1.18139 -0.21293 0.22169
 N761 N 1.19446 -0.19655 0.20359
 N762 N 1.18176 -0.17965 0.18688
 C763 C 1.14124 -0.16015 0.16891
 N764 N 1.15359 -0.14682 0.14737
 N765 N 1.14045 -0.13070 0.13009
 C766 C 1.11453 -0.12726 0.13382
 N767 N 1.10224 -0.14053 0.15542
 N768 N 1.11533 -0.15674 0.17256
 C769 C 1.09996 -0.10928 0.11513
 N770 N 1.07506 -0.10308 0.12184
 N771 N 1.06189 -0.08639 0.10538
 C772 C 1.07305 -0.07545 0.08146
 N773 N 1.09789 -0.08177 0.07457
 N774 N 1.11113 -0.09835 0.09116
 C775 C 1.15357 0.32328 0.68425
 N776 N 1.14442 0.29892 0.68750
 N777 N 1.15728 0.28177 0.70363
 C778 C 1.17994 0.28824 0.71686
 N779 N 1.18913 0.31262 0.71353
 N780 N 1.17611 0.32988 0.69765
 C781 C 1.13948 0.34188 0.66600
 N782 N 1.14390 0.36761 0.66841
 N783 N 1.13086 0.38433 0.65178
 C784 C 1.11321 0.37584 0.63192
 N785 N 1.10895 0.35013 0.62944
 N786 N 1.12174 0.33347 0.64627
 C787 C 1.09862 0.39389 0.61345
 N788 N 1.08634 0.38513 0.58915
 N789 N 1.07215 0.40099 0.57278
 C790 C 1.06950 0.42614 0.58023
 N791 N 1.08183 0.43502 0.60450
 N792 N 1.09629 0.41918 0.62076
 C793 C 0.65331 -0.17424 0.68672
 N794 N 0.64036 -0.19077 0.70455
 N795 N 0.65320 -0.20800 0.72061
 C796 C 0.67955 -0.20937 0.71973
 N797 N 0.69246 -0.19256 0.70202
 N798 N 0.67961 -0.17541 0.68578
 C799 C 0.63896 -0.15572 0.66849
 N800 N 0.65115 -0.14218 0.64701
 N801 N 0.63794 -0.12577 0.63019
 C802 C 0.61208 -0.12219 0.63433
 N803 N 0.59993 -0.13564 0.65589
 N804 N 0.61310 -0.15217 0.67257
 C805 C 0.59748 -0.10399 0.61592
 N806 N 0.57275 -0.09738 0.62298
 N807 N 0.55960 -0.08062 0.60657
 C808 C 0.57062 -0.07003 0.58235
 N809 N 0.59527 -0.07675 0.57515
 N810 N 0.60849 -0.09338 0.59168
 C811 C 0.65152 0.32788 0.18612
 N812 N 0.63923 0.30752 0.19861
 N813 N 0.65264 0.28937 0.21259
 C814 C 0.67890 0.29076 0.21458
 N815 N 0.69118 0.31122 0.20209
 N816 N 0.67775 0.32944 0.18814
 C817 C 0.63659 0.34735 0.16996
 N818 N 0.64843 0.36817 0.15779
 N819 N 0.63481 0.38523 0.14223
 C820 C 0.60889 0.38202 0.13829
 N821 N 0.59708 0.36129 0.15062
 N822 N 0.61066 0.34431 0.16621
 C823 C 0.59394 0.39975 0.11974
 N824 N 0.56891 0.39425 0.11302
 N825 N 0.55558 0.40931 0.09483
 C826 C 0.56672 0.43052 0.08282
 N827 N 0.59167 0.43627 0.08978
 N828 N 0.60508 0.42111 0.10790
 C829 C 0.84703 0.17773 0.17935
 N830 N 0.82120 0.18090 0.17484
 N831 N 0.80765 0.19762 0.19091
 C832 C 0.81941 0.21187 0.21207
 N833 N 0.84527 0.20858 0.21656
 N834 N 0.85879 0.19180 0.20058
 C835 C 0.86213 0.15961 0.16138
 N836 N 0.88747 0.15497 0.16755
 N837 N 0.90125 0.13864 0.15125
 C838 C 0.89025 0.12645 0.12806
 N839 N 0.86492 0.13113 0.12183
 N840 N 0.85110 0.14739 0.13821
 C841 C 0.90543 0.10822 0.11033
 N842 N 0.89518 0.09745 0.08581
 N843 N 0.90880 0.08051 0.07012
 C844 C 0.93314 0.07370 0.07843
 N845 N 0.94342 0.08451 0.10288
 N846 N 0.92984 0.10152 0.11849
 C847 C 0.83973 0.67296 0.68663
 N848 N 0.84990 0.68113 0.71244
 N849 N 0.83798 0.69929 0.72811
 C850 C 0.81532 0.70979 0.71870
 N851 N 0.80509 0.70147 0.69295
 N852 N 0.81715 0.68352 0.67712
 C853 C 0.85319 0.65344 0.66897
 N854 N 0.84761 0.65062 0.64007
 N855 N 0.86041 0.63350 0.62378
 C856 C 0.87900 0.61833 0.63589
 N857 N 0.88438 0.62095 0.66488
 N858 N 0.87179 0.63827 0.68109
 C859 C 0.89390 0.60031 0.61766
 N860 N 0.90807 0.58114 0.63010
 N861 N 0.92262 0.56563 0.61357
 C862 C 0.92369 0.56891 0.58407
 N863 N 0.90946 0.58801 0.57162
 N864 N 0.89469 0.60332 0.58810
 C865 C 0.34628 0.18129 0.67943
 N866 N 0.35871 0.19582 0.69975
 N867 N 0.34554 0.21214 0.71667
 C868 C 0.31938 0.21449 0.71409
 N869 N 0.30694 0.19977 0.69386
 N870 N 0.32014 0.18351 0.67683
 C871 C 0.36105 0.16368 0.66050
 N872 N 0.34933 0.15093 0.63814
 N873 N 0.36290 0.13508 0.62097
 C874 C 0.38867 0.13138 0.62560
 N875 N 0.40034 0.14411 0.64797
 N876 N 0.38681 0.16002 0.66504
 C877 C 0.40367 0.11346 0.60729
 N878 N 0.42855 0.10764 0.61439
 N879 N 0.44203 0.09078 0.59850
 C880 C 0.43121 0.07925 0.57481
 N881 N 0.40639 0.08522 0.56749
 N882 N 0.39284 0.10201 0.58348
 C883 C 0.34578 0.67050 0.19398
 N884 N 0.31957 0.66903 0.19637
 N885 N 0.30641 0.68687 0.21127
 C886 C 0.31896 0.70682 0.22436
 N887 N 0.34521 0.70811 0.22202
 N888 N 0.35835 0.69034 0.20710
 C889 C 0.36037 0.65154 0.17668
 N890 N 0.38622 0.65472 0.17225
 N891 N 0.39945 0.63825 0.15560
 C892 C 0.38736 0.61791 0.14285
 N893 N 0.36154 0.61457 0.14748
 N894 N 0.34827 0.63111 0.16408
 C895 C 0.40188 0.60075 0.12321
 N896 N 0.39052 0.57963 0.11119
 N897 N 0.40351 0.56494 0.09219
 C898 C 0.42824 0.57095 0.08450
 N899 N 0.43961 0.59194 0.09668
 N900 N 0.42670 0.60652 0.11574
   
